# Generated by pormake.
# Topology ant, (3,6)-cn, num edge types: 1
# Building blocks:
#     Node 0, Type 0, BuildingBlock: PAMTOO_clean_linker_0, # of connection points: 3
#     Node 1, Type 0, BuildingBlock: PAMTOO_clean_linker_0, # of connection points: 3
#     Node 2, Type 0, BuildingBlock: PAMTOO_clean_linker_0, # of connection points: 3
#     Node 3, Type 0, BuildingBlock: PAMTOO_clean_linker_0, # of connection points: 3
#     Node 4, Type 0, BuildingBlock: PAMTOO_clean_linker_0, # of connection points: 3
#     Node 5, Type 0, BuildingBlock: PAMTOO_clean_linker_0, # of connection points: 3
#     Node 6, Type 0, BuildingBlock: PAMTOO_clean_linker_0, # of connection points: 3
#     Node 7, Type 0, BuildingBlock: PAMTOO_clean_linker_0, # of connection points: 3
#     Node 8, Type 1, BuildingBlock: MIDCAF_clean_sbu_0, # of connection points: 6
#     Node 9, Type 1, BuildingBlock: MIDCAF_clean_sbu_0, # of connection points: 6
#     Node 10, Type 1, BuildingBlock: MIDCAF_clean_sbu_0, # of connection points: 6
#     Node 11, Type 1, BuildingBlock: MIDCAF_clean_sbu_0, # of connection points: 6
#     Edge 12, Type (0, 1), BuildingBlock: TEMPAE_clean_linker_10, # of connection points: 2
#     Edge 13, Type (0, 1), BuildingBlock: TEMPAE_clean_linker_10, # of connection points: 2
#     Edge 14, Type (0, 1), BuildingBlock: TEMPAE_clean_linker_10, # of connection points: 2
#     Edge 15, Type (0, 1), BuildingBlock: TEMPAE_clean_linker_10, # of connection points: 2
#     Edge 16, Type (0, 1), BuildingBlock: TEMPAE_clean_linker_10, # of connection points: 2
#     Edge 17, Type (0, 1), BuildingBlock: TEMPAE_clean_linker_10, # of connection points: 2
#     Edge 18, Type (0, 1), BuildingBlock: TEMPAE_clean_linker_10, # of connection points: 2
#     Edge 19, Type (0, 1), BuildingBlock: TEMPAE_clean_linker_10, # of connection points: 2
#     Edge 20, Type (0, 1), BuildingBlock: TEMPAE_clean_linker_10, # of connection points: 2
#     Edge 21, Type (0, 1), BuildingBlock: TEMPAE_clean_linker_10, # of connection points: 2
#     Edge 22, Type (0, 1), BuildingBlock: TEMPAE_clean_linker_10, # of connection points: 2
#     Edge 23, Type (0, 1), BuildingBlock: TEMPAE_clean_linker_10, # of connection points: 2
#     Edge 24, Type (0, 1), BuildingBlock: TEMPAE_clean_linker_10, # of connection points: 2
#     Edge 25, Type (0, 1), BuildingBlock: TEMPAE_clean_linker_10, # of connection points: 2
#     Edge 26, Type (0, 1), BuildingBlock: TEMPAE_clean_linker_10, # of connection points: 2
#     Edge 27, Type (0, 1), BuildingBlock: TEMPAE_clean_linker_10, # of connection points: 2
#     Edge 28, Type (0, 1), BuildingBlock: TEMPAE_clean_linker_10, # of connection points: 2
#     Edge 29, Type (0, 1), BuildingBlock: TEMPAE_clean_linker_10, # of connection points: 2
#     Edge 30, Type (0, 1), BuildingBlock: TEMPAE_clean_linker_10, # of connection points: 2
#     Edge 31, Type (0, 1), BuildingBlock: TEMPAE_clean_linker_10, # of connection points: 2
#     Edge 32, Type (0, 1), BuildingBlock: TEMPAE_clean_linker_10, # of connection points: 2
#     Edge 33, Type (0, 1), BuildingBlock: TEMPAE_clean_linker_10, # of connection points: 2
#     Edge 34, Type (0, 1), BuildingBlock: TEMPAE_clean_linker_10, # of connection points: 2
#     Edge 35, Type (0, 1), BuildingBlock: TEMPAE_clean_linker_10, # of connection points: 2
# Relax obj value: 0.057
# Max RMSD: 0.149
# Mean RMSD: 0.093
data_MOF--net-ant--node1-MIDCAF_clean_sbu_0--node2-PAMTOO_clean_linker_0--edge1-TEMPAE_clean_linker_10
_symmetry_space_group_name_H-M    P1
_symmetry_Int_Tables_number       1
_symmetry_cell_setting            triclinic
loop_
_symmetry_equiv_pos_as_xyz
'x, y, z'
_cell_length_a     28.994058
_cell_length_b     28.723083
_cell_length_c     71.063195
_cell_angle_alpha  86.173005
_cell_angle_beta   98.550017
_cell_angle_gamma 90.306367
loop_
_atom_site_label
_atom_site_type_symbol
_atom_site_fract_x
_atom_site_fract_y
_atom_site_fract_z
_atom_type_partial_charge
H0 H 0.21613 0.11403 0.06004 0.0
H1 H 0.19918 0.26089 0.04294 0.0
H2 H 0.24379 0.21639 0.10151 0.0
H3 H 0.16329 0.28905 0.09276 0.0
C4 C 0.17486 0.30715 0.07994 0.0
O5 O 0.21687 0.28817 0.07719 0.0
H6 H 0.14773 0.30169 0.06746 0.0
C7 C 0.21828 0.15043 0.06316 0.0
C8 C 0.23356 0.16134 0.08202 0.0
C9 C 0.20547 0.18562 0.04865 0.0
C10 C 0.20758 0.2324 0.05364 0.0
C11 C 0.21979 0.24338 0.07265 0.0
C12 C 0.23362 0.20785 0.08686 0.0
H13 H 0.18088 0.84791 0.29091 0.0
H14 H 0.03576 0.81246 0.2904 0.0
H15 H 0.12014 0.84461 0.34254 0.0
H16 H 0.04152 0.7717 0.34641 0.0
C17 C 0.02023 0.78248 0.33248 0.0
O18 O 0.03542 0.82545 0.32603 0.0
H19 H 0.02473 0.75556 0.32231 0.0
C20 C 0.15061 0.84275 0.29807 0.0
C21 C 0.15573 0.84771 0.31781 0.0
C22 C 0.10798 0.82846 0.28788 0.0
C23 C 0.06913 0.82361 0.29758 0.0
C24 C 0.07335 0.83034 0.31709 0.0
C25 C 0.11678 0.84131 0.3273 0.0
H26 H 0.70937 0.61243 0.55868 0.0
H27 H 0.69119 0.75934 0.54202 0.0
H28 H 0.73977 0.7144 0.60024 0.0
H29 H 0.65973 0.78791 0.59261 0.0
C30 C 0.67022 0.80556 0.57948 0.0
O31 O 0.71168 0.78636 0.57623 0.0
H32 H 0.64215 0.79983 0.56737 0.0
C33 C 0.71163 0.64876 0.56192 0.0
C34 C 0.72805 0.65952 0.58071 0.0
C35 C 0.69786 0.68411 0.54759 0.0
C36 C 0.70033 0.73081 0.55264 0.0
C37 C 0.71395 0.74161 0.57158 0.0
C38 C 0.7286 0.70598 0.58563 0.0
H39 H 0.68414 0.3136 0.79392 0.0
H40 H 0.53414 0.32043 0.78993 0.0
H41 H 0.62121 0.34035 0.84305 0.0
H42 H 0.53883 0.27981 0.84764 0.0
C43 C 0.51789 0.28937 0.8335 0.0
O44 O 0.53515 0.33035 0.82601 0.0
H45 H 0.52105 0.26033 0.82412 0.0
C46 C 0.65288 0.31987 0.80006 0.0
C47 C 0.65771 0.32957 0.81933 0.0
C48 C 0.60852 0.31677 0.78901 0.0
C49 C 0.56888 0.32269 0.79787 0.0
C50 C 0.57352 0.33022 0.81734 0.0
C51 C 0.61788 0.33464 0.82799 0.0
H52 H 0.10308 0.80733 0.95122 0.0
H53 H 0.08196 0.67069 0.92948 0.0
H54 H 0.05189 0.79285 0.89196 0.0
H55 H 0.99112 0.70363 0.87572 0.0
C56 C 1.00564 0.6865 0.8898 0.0
O57 O 0.051 0.70167 0.89477 0.0
H58 H 0.98325 0.69665 0.90035 0.0
C59 C 0.09302 0.78521 0.93958 0.0
C60 C 0.07863 0.80636 0.92122 0.0
C61 C 0.09467 0.73613 0.94299 0.0
C62 C 0.08045 0.70839 0.92758 0.0
C63 C 0.06446 0.72896 0.90939 0.0
C64 C 0.064 0.77763 0.90618 0.0
H65 H 0.59508 0.84854 0.19244 0.0
H66 H 0.74032 0.81245 0.19526 0.0
H67 H 0.65346 0.83239 0.1411 0.0
H68 H 0.73295 0.7585 0.14333 0.0
C69 C 0.75397 0.77178 0.15624 0.0
O70 O 0.73887 0.81618 0.15869 0.0
H71 H 0.74903 0.74748 0.16866 0.0
C72 C 0.625 0.84168 0.18554 0.0
C73 C 0.61887 0.84179 0.16556 0.0
C74 C 0.66814 0.82955 0.19667 0.0
C75 C 0.7066 0.82213 0.18728 0.0
C76 C 0.70144 0.82404 0.16734 0.0
C77 C 0.65749 0.83288 0.15649 0.0
H78 H 0.6049 0.30848 0.45115 0.0
H79 H 0.58385 0.17227 0.42898 0.0
H80 H 0.55298 0.29503 0.39188 0.0
H81 H 0.49144 0.20753 0.37595 0.0
C82 C 0.50695 0.18855 0.38952 0.0
O83 O 0.5523 0.20383 0.39439 0.0
H84 H 0.4853 0.19637 0.40065 0.0
C85 C 0.59474 0.28656 0.43945 0.0
C86 C 0.58009 0.30801 0.42116 0.0
C87 C 0.59657 0.23744 0.4427 0.0
C88 C 0.58221 0.20998 0.42721 0.0
C89 C 0.56591 0.23085 0.40909 0.0
C90 C 0.5653 0.27955 0.40605 0.0
H91 H 0.0955 0.34771 0.69263 0.0
H92 H 0.24011 0.30765 0.69709 0.0
H93 H 0.15629 0.32665 0.64223 0.0
H94 H 0.23336 0.24898 0.64668 0.0
C95 C 0.25518 0.26373 0.65908 0.0
O96 O 0.24066 0.30881 0.66071 0.0
H97 H 0.25075 0.24118 0.67205 0.0
C98 C 0.12566 0.33957 0.68609 0.0
C99 C 0.12053 0.33869 0.66614 0.0
C100 C 0.1681 0.32699 0.69767 0.0
C101 C 0.20693 0.31777 0.68875 0.0
C102 C 0.20282 0.3184 0.66886 0.0
C103 C 0.15952 0.32794 0.65757 0.0
Zn104 Zn 0.22535 0.68615 0.14795 0.0
Zn105 Zn 0.13075 0.80497 0.09798 0.0
Zn106 Zn 0.18057 0.74501 0.1204 0.0
C107 C 0.13377 0.7236 0.0783 0.0
C108 C 0.21713 0.84552 0.10557 0.0
O109 O 0.14619 0.74079 0.14611 0.0
O110 O 0.18323 0.68941 0.16762 0.0
C111 C 0.20363 0.63761 0.11443 0.0
O112 O 0.16118 0.70921 0.09353 0.0
O113 O 0.11527 0.76354 0.07718 0.0
O114 O 0.17835 0.85249 0.09513 0.0
O115 O 0.22463 0.80746 0.11625 0.0
O116 O 0.22256 0.63271 0.13165 0.0
O117 O 0.18543 0.6771 0.10746 0.0
O118 O 0.25188 0.77342 0.12792 0.0
O119 O 0.28421 0.72282 0.15086 0.0
C120 C 0.2873 0.75924 0.14011 0.0
O121 O 0.11455 0.76352 0.13128 0.0
O122 O 0.07948 0.82005 0.11188 0.0
C123 C 0.15109 0.71921 0.16278 0.0
C124 C 0.0802 0.79247 0.12648 0.0
Zn125 Zn 0.5503 0.703 0.34396 0.0
Zn126 Zn 0.64594 0.81037 0.39027 0.0
Zn127 Zn 0.59394 0.75632 0.36943 0.0
C128 C 0.56012 0.85353 0.38395 0.0
C129 C 0.69448 0.8048 0.36164 0.0
O130 O 0.58789 0.68463 0.38379 0.0
O131 O 0.54924 0.64567 0.36065 0.0
C132 C 0.48888 0.77653 0.34911 0.0
O133 O 0.5511 0.8189 0.37332 0.0
O134 O 0.5996 0.85678 0.39393 0.0
O135 O 0.69584 0.83012 0.37552 0.0
O136 O 0.65996 0.77657 0.35788 0.0
O137 O 0.49274 0.74172 0.33947 0.0
O138 O 0.5235 0.78845 0.36142 0.0
O139 O 0.62838 0.75607 0.34368 0.0
O140 O 0.59213 0.70621 0.32419 0.0
C141 C 0.62402 0.73569 0.3279 0.0
O142 O 0.61364 0.71409 0.39661 0.0
O143 O 0.66338 0.76315 0.41127 0.0
C144 C 0.56867 0.64667 0.37773 0.0
C145 C 0.64329 0.72408 0.41113 0.0
Zn146 Zn 0.63168 0.30053 0.59874 0.0
Zn147 Zn 0.73147 0.184 0.6458 0.0
Zn148 Zn 0.68232 0.24159 0.62074 0.0
C149 C 0.79065 0.25796 0.63902 0.0
C150 C 0.70713 0.13523 0.6132 0.0
O151 O 0.61577 0.25615 0.63213 0.0
O152 O 0.57927 0.31143 0.61241 0.0
C153 C 0.71587 0.34406 0.6064 0.0
O154 O 0.75347 0.27255 0.62792 0.0
O155 O 0.7902 0.21951 0.64868 0.0
O156 O 0.72846 0.12987 0.63003 0.0
O157 O 0.68752 0.17464 0.607 0.0
O158 O 0.67662 0.35068 0.5963 0.0
O159 O 0.72463 0.30556 0.6167 0.0
O160 O 0.66302 0.20694 0.59344 0.0
O161 O 0.6175 0.26164 0.57717 0.0
C162 C 0.63611 0.22182 0.57813 0.0
O163 O 0.64892 0.23498 0.64699 0.0
O164 O 0.69375 0.18568 0.66676 0.0
C165 C 0.58022 0.28351 0.62691 0.0
C166 C 0.65911 0.21302 0.66352 0.0
Zn167 Zn 0.04899 0.20615 0.84573 0.0
Zn168 Zn 0.14898 0.30748 0.89306 0.0
Zn169 Zn 0.09628 0.25575 0.87186 0.0
C170 C 0.14922 0.21918 0.91237 0.0
C171 C 0.06379 0.35036 0.88919 0.0
O172 O 0.12873 0.25693 0.84549 0.0
O173 O 0.09105 0.20766 0.8261 0.0
C174 C 0.06785 0.1469 0.87894 0.0
O175 O 0.11762 0.21097 0.89824 0.0
O176 O 0.16997 0.25789 0.9127 0.0
O177 O 0.10348 0.35207 0.89914 0.0
O178 O 0.05456 0.31765 0.8776 0.0
O179 O 0.04553 0.1485 0.86223 0.0
O180 O 0.0901 0.1832 0.88516 0.0
O181 O 0.02683 0.28917 0.86513 0.0
O182 O 0.99406 0.24877 0.84124 0.0
C183 C 0.99211 0.28142 0.85217 0.0
O184 O 0.16038 0.27788 0.85953 0.0
O185 O 0.19586 0.3311 0.87745 0.0
C186 C 0.12335 0.23678 0.82963 0.0
C187 C 0.19403 0.3071 0.86315 0.0
C188 C 0.16668 0.37829 0.09815 0.0
C189 C 0.17942 0.35895 0.08208 0.0
C190 C 0.16941 0.42651 0.10017 0.0
C191 C 0.18533 0.45624 0.08576 0.0
C192 C 0.19727 0.43702 0.06928 0.0
C193 C 0.19404 0.38851 0.06761 0.0
C194 C 0.15613 0.44552 0.11795 0.0
C195 C 0.21431 0.46754 0.05363 0.0
C196 C 0.16118 0.58423 0.09126 0.0
C197 C 0.20193 0.59623 0.10309 0.0
C198 C 0.15638 0.53963 0.0841 0.0
C199 C 0.19315 0.5066 0.08902 0.0
C200 C 0.23575 0.52025 0.09958 0.0
C201 C 0.2395 0.56478 0.10654 0.0
C202 C 0.11063 0.52679 0.07263 0.0
C203 C 0.27615 0.48659 0.10492 0.0
H204 H 0.15467 0.35558 0.10921 0.0
H205 H 0.20315 0.37354 0.05504 0.0
H206 H 0.18717 0.46113 0.12624 0.0
H207 H 0.1296 0.47357 0.11405 0.0
H208 H 0.14197 0.41814 0.12727 0.0
H209 H 0.21822 0.44788 0.04101 0.0
H210 H 0.18985 0.49711 0.04904 0.0
H211 H 0.2486 0.48268 0.05908 0.0
H212 H 0.13197 0.60838 0.0887 0.0
H213 H 0.27124 0.57424 0.11556 0.0
H214 H 0.08985 0.50572 0.08197 0.0
H215 H 0.11632 0.50532 0.06076 0.0
H216 H 0.08995 0.55824 0.06665 0.0
H217 H 0.26738 0.45964 0.11574 0.0
H218 H 0.30863 0.50435 0.11094 0.0
H219 H 0.28296 0.46838 0.09233 0.0
C220 C 0.95397 0.77567 0.35185 0.0
C221 C 0.96916 0.78541 0.33421 0.0
C222 C 0.90653 0.77857 0.35363 0.0
C223 C 0.8735 0.79176 0.33739 0.0
C224 C 0.88862 0.80099 0.31947 0.0
C225 C 0.93634 0.79759 0.31808 0.0
C226 C 0.89183 0.76804 0.37299 0.0
C227 C 0.8545 0.81502 0.30186 0.0
C228 C 0.74903 0.7629 0.34437 0.0
C229 C 0.73526 0.8043 0.35138 0.0
C230 C 0.79282 0.75921 0.33836 0.0
C231 C 0.8236 0.79775 0.33958 0.0
C232 C 0.80831 0.84068 0.34524 0.0
C233 C 0.7644 0.84337 0.35114 0.0
C234 C 0.80741 0.71294 0.33219 0.0
C235 C 0.83962 0.88289 0.34639 0.0
H236 H 0.97928 0.76596 0.3643 0.0
H237 H 0.9482 0.8048 0.30442 0.0
H238 H 0.87593 0.7996 0.37761 0.0
H239 H 0.86498 0.74028 0.37217 0.0
H240 H 0.92156 0.75657 0.38402 0.0
H241 H 0.87134 0.81801 0.28878 0.0
H242 H 0.82594 0.78915 0.29993 0.0
H243 H 0.83833 0.84911 0.30357 0.0
H244 H 0.727 0.73237 0.34478 0.0
H245 H 0.75375 0.87556 0.35644 0.0
H246 H 0.8318 0.69518 0.34396 0.0
H247 H 0.82599 0.71789 0.31965 0.0
H248 H 0.77704 0.68974 0.32857 0.0
H249 H 0.86854 0.87681 0.35841 0.0
H250 H 0.82055 0.91498 0.34869 0.0
H251 H 0.85542 0.88882 0.33315 0.0
C252 C 0.78982 0.60618 0.59792 0.0
C253 C 0.74308 0.62063 0.59481 0.0
C254 C 0.80209 0.56057 0.60532 0.0
C255 C 0.76647 0.52894 0.60911 0.0
C256 C 0.72015 0.5456 0.60825 0.0
C257 C 0.70904 0.59137 0.60105 0.0
C258 C 0.85223 0.54512 0.60703 0.0
C259 C 0.681 0.51352 0.6125 0.0
C260 C 0.75167 0.41056 0.59058 0.0
C261 C 0.74828 0.38361 0.60744 0.0
C262 C 0.76428 0.45754 0.59103 0.0
C263 C 0.7737 0.47776 0.60885 0.0
C264 C 0.77797 0.44862 0.62592 0.0
C265 C 0.76478 0.4015 0.62503 0.0
C266 C 0.76077 0.48674 0.57237 0.0
C267 C 0.79106 0.46807 0.64515 0.0
H268 H 0.81613 0.62904 0.59304 0.0
H269 H 0.67293 0.60283 0.59855 0.0
H270 H 0.86038 0.51569 0.61794 0.0
H271 H 0.85904 0.53348 0.59312 0.0
H272 H 0.87621 0.5745 0.61076 0.0
H273 H 0.64835 0.53299 0.61319 0.0
H274 H 0.67371 0.48858 0.60115 0.0
H275 H 0.69101 0.49296 0.62625 0.0
H276 H 0.7396 0.3962 0.57699 0.0
H277 H 0.76271 0.38037 0.63811 0.0
H278 H 0.79159 0.50965 0.57222 0.0
H279 H 0.72935 0.50945 0.57064 0.0
H280 H 0.75811 0.46491 0.55993 0.0
H281 H 0.81407 0.49892 0.64436 0.0
H282 H 0.80896 0.44115 0.65564 0.0
H283 H 0.75898 0.47896 0.65049 0.0
C284 C 0.72742 0.37373 0.83339 0.0
C285 C 0.70495 0.33103 0.83034 0.0
C286 C 0.77549 0.37521 0.84021 0.0
C287 C 0.80125 0.33297 0.84388 0.0
C288 C 0.77763 0.28974 0.84215 0.0
C289 C 0.72977 0.28936 0.83528 0.0
C290 C 0.79916 0.42193 0.84202 0.0
C291 C 0.80354 0.24382 0.84607 0.0
C292 C 0.92235 0.31689 0.83224 0.0
C293 C 0.94796 0.30768 0.8504 0.0
C294 C 0.87532 0.32996 0.82998 0.0
C295 C 0.85317 0.33311 0.84632 0.0
C296 C 0.88012 0.32844 0.86471 0.0
C297 C 0.92755 0.31591 0.86654 0.0
C298 C 0.84837 0.33585 0.81006 0.0
C299 C 0.8581 0.33229 0.88247 0.0
H300 H 0.70799 0.40593 0.82941 0.0
H301 H 0.71213 0.25644 0.8328 0.0
H302 H 0.82633 0.42132 0.8548 0.0
H303 H 0.81663 0.43028 0.82935 0.0
H304 H 0.77378 0.45027 0.84289 0.0
H305 H 0.77947 0.21361 0.84623 0.0
H306 H 0.82578 0.23957 0.83486 0.0
H307 H 0.82677 0.24314 0.85998 0.0
H308 H 0.93842 0.31108 0.81975 0.0
H309 H 0.94744 0.30885 0.88061 0.0
H310 H 0.82605 0.36751 0.80844 0.0
H311 H 0.82515 0.30539 0.80742 0.0
H312 H 0.87176 0.33854 0.799 0.0
H313 H 0.83162 0.36063 0.88048 0.0
H314 H 0.88461 0.33885 0.89498 0.0
H315 H 0.84014 0.2991 0.88564 0.0
C316 C 0.96357 0.60932 0.89129 0.0
C317 C 1.00409 0.63411 0.88843 0.0
C318 C 0.96129 0.56061 0.89016 0.0
C319 C 1.00058 0.53615 0.88617 0.0
C320 C 0.04077 0.56135 0.8824 0.0
C321 C 0.04178 0.61 0.88331 0.0
C322 C 0.91738 0.53526 0.89374 0.0
C323 C 0.08349 0.53673 0.87804 0.0
C324 C 0.03567 0.41459 0.90607 0.0
C325 C 0.03232 0.39057 0.88938 0.0
C326 C 0.02117 0.46114 0.90552 0.0
C327 C 1.00232 0.48412 0.88783 0.0
C328 C 0.99318 0.45815 0.87139 0.0
C329 C 0.00861 0.41151 0.87233 0.0
C330 C 0.03119 0.48706 0.92348 0.0
C331 C 0.97153 0.48072 0.85239 0.0
H332 H 0.93381 0.62807 0.89465 0.0
H333 H 0.07258 0.62905 0.8804 0.0
H334 H 0.9072 0.51002 0.88271 0.0
H335 H 0.92374 0.51507 0.90774 0.0
H336 H 0.88783 0.55966 0.89382 0.0
H337 H 0.1112 0.56151 0.87474 0.0
H338 H 0.098 0.513 0.89045 0.0
H339 H 0.074 0.51505 0.86571 0.0
H340 H 0.05357 0.39824 0.91934 0.0
H341 H 1.00604 0.3932 0.85936 0.0
H342 H 1.0009 0.50886 0.92525 0.0
H343 H 0.06122 0.51076 0.92245 0.0
H344 H 0.03986 0.46298 0.93641 0.0
H345 H 0.94449 0.50663 0.85413 0.0
H346 H 0.95558 0.45432 0.84269 0.0
H347 H 0.99893 0.49934 0.84553 0.0
C348 C 0.83803 0.78373 0.17015 0.0
C349 C 0.80514 0.77305 0.15451 0.0
C350 C 0.88581 0.78631 0.16867 0.0
C351 C 0.90086 0.77801 0.15112 0.0
C352 C 0.86772 0.76644 0.13539 0.0
C353 C 0.82023 0.7643 0.13726 0.0
C354 C 0.92003 0.79868 0.18572 0.0
C355 C 0.88232 0.75711 0.11645 0.0
C356 C 0.01 0.83025 0.13528 0.0
C357 C 0.03917 0.79102 0.13665 0.0
C358 C 0.96605 0.82724 0.14125 0.0
C359 C 0.95075 0.78385 0.14865 0.0
C360 C 0.98153 0.74501 0.15146 0.0
C361 C 0.02542 0.74904 0.14535 0.0
C362 C 0.93475 0.86976 0.13835 0.0
C363 C 0.96689 0.69825 0.15952 0.0
H364 H 0.82619 0.79049 0.18349 0.0
H365 H 0.7948 0.75607 0.12517 0.0
H366 H 0.9484 0.77229 0.18875 0.0
H367 H 0.93643 0.83275 0.18259 0.0
H368 H 0.90321 0.80094 0.19869 0.0
H369 H 0.85254 0.74655 0.10591 0.0
H370 H 0.89821 0.78894 0.11046 0.0
H371 H 0.90916 0.72911 0.11844 0.0
H372 H 0.02068 0.86292 0.12872 0.0
H373 H 0.04756 0.71845 0.14627 0.0
H374 H 0.91905 0.87482 0.15138 0.0
H375 H 0.90574 0.86469 0.1266 0.0
H376 H 0.95377 0.90199 0.13468 0.0
H377 H 0.94846 0.70231 0.17192 0.0
H378 H 0.99721 0.67447 0.16403 0.0
H379 H 0.94234 0.68163 0.14847 0.0
C380 C 0.56691 0.38923 0.43106 0.0
C381 C 0.581 0.35997 0.41784 0.0
C382 C 0.56722 0.43815 0.42787 0.0
C383 C 0.58155 0.45843 0.41098 0.0
C384 C 0.59694 0.42916 0.39785 0.0
C385 C 0.59654 0.38047 0.40145 0.0
C386 C 0.55084 0.46807 0.44228 0.0
C387 C 0.61262 0.44925 0.37967 0.0
C388 C 0.53137 0.5725 0.38696 0.0
C389 C 0.56962 0.60262 0.38986 0.0
C390 C 0.53395 0.52634 0.39478 0.0
C391 C 0.57592 0.50963 0.40587 0.0
C392 C 0.61357 0.54091 0.41007 0.0
C393 C 0.61013 0.58707 0.40185 0.0
C394 C 0.49274 0.49459 0.39001 0.0
C395 C 0.65857 0.52494 0.42218 0.0
H396 H 0.55451 0.3739 0.44372 0.0
H397 H 0.60849 0.35835 0.39136 0.0
H398 H 0.57617 0.4964 0.44584 0.0
H399 H 0.51712 0.48487 0.43611 0.0
H400 H 0.54602 0.44748 0.45564 0.0
H401 H 0.6261 0.42203 0.37149 0.0
H402 H 0.58293 0.4674 0.37047 0.0
H403 H 0.64037 0.47548 0.38297 0.0
H404 H 0.4999 0.58448 0.37773 0.0
H405 H 0.64004 0.60995 0.40388 0.0
H406 H 0.48407 0.47556 0.40312 0.0
H407 H 0.50172 0.46817 0.38043 0.0
H408 H 0.46127 0.51403 0.38282 0.0
H409 H 0.65172 0.50207 0.43466 0.0
H410 H 0.68015 0.55491 0.42734 0.0
H411 H 0.67896 0.50433 0.41359 0.0
C412 C 0.05569 0.30667 0.64356 0.0
C413 C 0.07283 0.3426 0.65504 0.0
C414 C 0.00761 0.30217 0.63743 0.0
C415 C 0.97606 0.33455 0.64283 0.0
C416 C 0.99373 0.37401 0.6524 0.0
C417 C 0.04194 0.37738 0.65855 0.0
C418 C 0.99036 0.25991 0.627 0.0
C419 C 0.96148 0.41027 0.6578 0.0
C420 C 0.84717 0.31287 0.62527 0.0
C421 C 0.83506 0.28426 0.64054 0.0
C422 C 0.89222 0.33214 0.6261 0.0
C423 C 0.92605 0.3214 0.64237 0.0
C424 C 0.91309 0.29432 0.65813 0.0
C425 C 0.86787 0.27643 0.65704 0.0
C426 C 0.90394 0.36189 0.60918 0.0
C427 C 0.94768 0.28215 0.67588 0.0
H428 H 0.07934 0.27968 0.6408 0.0
H429 H 0.05516 0.40569 0.66716 0.0
H430 H 0.97498 0.23483 0.63688 0.0
H431 H 0.96266 0.26993 0.61491 0.0
H432 H 0.01889 0.24195 0.62145 0.0
H433 H 0.98022 0.44312 0.66134 0.0
H434 H 0.93227 0.41823 0.64605 0.0
H435 H 0.94621 0.39662 0.67047 0.0
H436 H 0.82236 0.3184 0.61234 0.0
H437 H 0.85863 0.25474 0.66899 0.0
H438 H 0.92059 0.33974 0.59986 0.0
H439 H 0.92877 0.38998 0.61368 0.0
H440 H 0.8721 0.37795 0.60062 0.0
H441 H 0.97663 0.26101 0.67222 0.0
H442 H 0.93153 0.26206 0.68709 0.0
H443 H 0.96309 0.31436 0.6819 0.0
C444 C 0.34018 0.27386 0.67216 0.0
C445 C 0.30607 0.26384 0.65682 0.0
C446 C 0.3877 0.2755 0.67013 0.0
C447 C 0.4012 0.26709 0.6523 0.0
C448 C 0.36682 0.2562 0.63688 0.0
C449 C 0.31966 0.25492 0.63931 0.0
C450 C 0.42326 0.28743 0.68686 0.0
C451 C 0.37974 0.24692 0.61764 0.0
C452 C 0.50909 0.31978 0.63552 0.0
C453 C 0.53848 0.28077 0.63665 0.0
C454 C 0.46549 0.31643 0.64175 0.0
C455 C 0.45064 0.27285 0.64914 0.0
C456 C 0.48142 0.23402 0.65149 0.0
C457 C 0.52508 0.23843 0.64519 0.0
C458 C 0.43418 0.35893 0.6393 0.0
C459 C 0.46712 0.18711 0.65954 0.0
H460 H 0.3295 0.28091 0.68568 0.0
H461 H 0.29329 0.24731 0.62743 0.0
H462 H 0.45254 0.26201 0.68908 0.0
H463 H 0.4382 0.32231 0.68386 0.0
H464 H 0.40785 0.28792 0.70025 0.0
H465 H 0.3492 0.23644 0.60746 0.0
H466 H 0.39514 0.27876 0.61143 0.0
H467 H 0.40649 0.21889 0.61923 0.0
H468 H 0.51958 0.35274 0.62913 0.0
H469 H 0.54767 0.20817 0.64606 0.0
H470 H 0.41993 0.36403 0.65266 0.0
H471 H 0.40417 0.3538 0.62799 0.0
H472 H 0.45275 0.39117 0.63528 0.0
H473 H 0.45141 0.19088 0.67267 0.0
H474 H 0.49707 0.16247 0.66291 0.0
H475 H 0.44025 0.17171 0.64899 0.0
C476 C 0.53923 0.87824 0.15878 0.0
C477 C 0.57068 0.84441 0.15493 0.0
C478 C 0.491 0.8736 0.15307 0.0
C479 C 0.47392 0.83375 0.14362 0.0
C480 C 0.50586 0.80213 0.138 0.0
C481 C 0.55394 0.80796 0.14366 0.0
C482 C 0.45822 0.90903 0.1587 0.0
C483 C 0.48919 0.7594 0.12776 0.0
C484 C 0.36577 0.77533 0.15789 0.0
C485 C 0.33281 0.78365 0.14146 0.0
C486 C 0.41119 0.79279 0.15888 0.0
C487 C 0.42411 0.81999 0.14314 0.0
C488 C 0.39033 0.83075 0.12688 0.0
C489 C 0.34525 0.81174 0.12611 0.0
C490 C 0.44591 0.78042 0.17657 0.0
C491 C 0.40208 0.86056 0.10997 0.0
H492 H 0.55216 0.90684 0.16728 0.0
H493 H 0.57807 0.78165 0.14069 0.0
H494 H 0.42878 0.91678 0.14704 0.0
H495 H 0.4433 0.89468 0.17136 0.0
H496 H 0.47639 0.94211 0.16235 0.0
H497 H 0.51788 0.74188 0.12214 0.0
H498 H 0.4745 0.73417 0.13778 0.0
H499 H 0.46109 0.76875 0.11575 0.0
H500 H 0.35645 0.75389 0.16988 0.0
H501 H 0.3205 0.81741 0.11318 0.0
H502 H 0.46114 0.81258 0.18269 0.0
H503 H 0.47498 0.75965 0.1728 0.0
H504 H 0.42992 0.75992 0.18772 0.0
H505 H 0.42586 0.8894 0.11456 0.0
H506 H 0.37019 0.87565 0.10109 0.0
H507 H 0.42006 0.83879 0.10095 0.0
C508 C 0.43486 0.30789 0.8189 0.0
C509 C 0.46713 0.29506 0.83511 0.0
C510 C 0.38709 0.31162 0.82007 0.0
C511 C 0.3714 0.30185 0.83784 0.0
C512 C 0.40394 0.28843 0.85421 0.0
C513 C 0.45142 0.28524 0.85264 0.0
C514 C 0.3534 0.32568 0.80235 0.0
C515 C 0.38861 0.27737 0.87342 0.0
C516 C 0.26119 0.34923 0.85196 0.0
C517 C 0.23364 0.30903 0.85225 0.0
C518 C 0.30477 0.34851 0.84569 0.0
C519 C 0.32125 0.30643 0.83973 0.0
C520 C 0.29176 0.26694 0.83839 0.0
C521 C 0.2483 0.26865 0.84477 0.0
C522 C 0.3347 0.39168 0.84696 0.0
C523 C 0.30763 0.22151 0.83189 0.0
H524 H 0.44713 0.31483 0.8053 0.0
H525 H 0.47631 0.27478 0.86513 0.0
H526 H 0.32674 0.29815 0.79968 0.0
H527 H 0.33473 0.35813 0.80442 0.0
H528 H 0.37104 0.33148 0.78955 0.0
H529 H 0.41821 0.26665 0.88464 0.0
H530 H 0.3715 0.30839 0.87791 0.0
H531 H 0.36259 0.24883 0.87243 0.0
H532 H 0.24975 0.38064 0.8576 0.0
H533 H 0.22748 0.23726 0.84522 0.0
H534 H 0.35096 0.39819 0.83385 0.0
H535 H 0.36331 0.38647 0.85915 0.0
H536 H 0.31441 0.42311 0.84908 0.0
H537 H 0.32678 0.2276 0.81956 0.0
H538 H 0.27779 0.19795 0.82783 0.0
H539 H 0.33179 0.20353 0.84368 0.0
C540 C 0.22154 0.81831 0.34223 0.0
C541 C 0.20334 0.85313 0.32843 0.0
C542 C 0.26974 0.81497 0.34856 0.0
C543 C 0.30024 0.84768 0.34109 0.0
C544 C 0.2813 0.88614 0.32895 0.0
C545 C 0.23306 0.88803 0.3225 0.0
C546 C 0.28832 0.7735 0.36159 0.0
C547 C 0.31235 0.92296 0.32139 0.0
C548 C 0.42954 0.82865 0.36013 0.0
C549 C 0.4431 0.80103 0.34633 0.0
C550 C 0.38391 0.84697 0.35814 0.0
C551 C 0.35067 0.83564 0.34239 0.0
C552 C 0.36476 0.80907 0.32814 0.0
C553 C 0.41073 0.79276 0.33017 0.0
C554 C 0.37112 0.87663 0.37334 0.0
C555 C 0.33071 0.7958 0.3111 0.0
H556 H 0.19864 0.79123 0.34679 0.0
H557 H 0.21891 0.91531 0.31197 0.0
H558 H 0.30521 0.74877 0.35334 0.0
H559 H 0.31514 0.78464 0.37319 0.0
H560 H 0.26028 0.75474 0.36803 0.0
H561 H 0.29247 0.95515 0.31579 0.0
H562 H 0.34105 0.93203 0.3327 0.0
H563 H 0.32838 0.90932 0.30962 0.0
H564 H 0.4538 0.83443 0.37286 0.0
H565 H 0.42084 0.77184 0.31929 0.0
H566 H 0.35579 0.85416 0.38409 0.0
H567 H 0.34498 0.90374 0.36725 0.0
H568 H 0.40234 0.89398 0.38079 0.0
H569 H 0.30192 0.77484 0.31597 0.0
H570 H 0.34742 0.77517 0.30126 0.0
H571 H 0.31498 0.82756 0.30298 0.0
C572 C 0.68764 0.88649 0.56621 0.0
C573 C 0.6753 0.8574 0.5813 0.0
C574 C 0.69177 0.93501 0.56764 0.0
C575 C 0.68314 0.95468 0.58454 0.0
C576 C 0.66953 0.92543 0.5996 0.0
C577 C 0.66584 0.87718 0.5978 0.0
C578 C 0.70631 0.96502 0.5513 0.0
C579 C 0.65981 0.94496 0.61785 0.0
C580 C 0.74115 0.06291 0.6039 0.0
C581 C 0.70367 0.0944 0.60153 0.0
C582 C 0.73597 0.01849 0.59689 0.0
C583 C 0.69201 1.00503 0.58743 0.0
C584 C 0.65517 0.03821 0.58348 0.0
C585 C 0.66145 0.08272 0.59062 0.0
C586 C 0.77648 0.98467 0.60114 0.0
C587 C 0.60796 0.02555 0.57318 0.0
H588 H 0.69433 0.87113 0.55334 0.0
H589 H 0.65572 0.85481 0.60938 0.0
H590 H 0.68195 0.99493 0.54734 0.0
H591 H 0.74143 0.97967 0.55574 0.0
H592 H 0.70748 0.94508 0.5385 0.0
H593 H 0.64709 0.91792 0.62773 0.0
H594 H 0.69211 0.9604 0.62526 0.0
H595 H 0.63333 0.97323 0.6146 0.0
H596 H 0.77401 0.07216 0.61219 0.0
H597 H 0.63236 0.10696 0.58886 0.0
H598 H 0.78068 0.96612 0.5883 0.0
H599 H 0.76959 0.95801 0.61241 0.0
H600 H 0.80977 1.00238 0.60615 0.0
H601 H 0.61139 1.00398 0.56108 0.0
H602 H 0.58683 0.05709 0.56771 0.0
H603 H 0.5888 1.00465 0.58319 0.0
C604 C 0.29442 0.10715 0.09924 0.0
C605 C 0.24794 0.12245 0.09621 0.0
C606 C 0.30587 0.06114 0.10634 0.0
C607 C 0.26969 0.02998 0.10989 0.0
C608 C 0.2237 0.04742 0.10919 0.0
C609 C 0.21342 0.09359 0.10231 0.0
C610 C 0.35571 0.04481 0.10793 0.0
C611 C 0.184 0.01584 0.11322 0.0
C612 C 0.25334 0.9127 0.09028 0.0
C613 C 0.24982 0.8849 0.10691 0.0
C614 C 0.26624 0.95955 0.09114 0.0
C615 C 0.27596 0.97877 0.10917 0.0
C616 C 0.28002 0.94878 0.12599 0.0
C617 C 0.26645 0.90185 0.12469 0.0
C618 C 0.26287 0.9897 0.07272 0.0
C619 C 0.29337 0.96708 0.14543 0.0
H620 H 0.32111 0.12966 0.09446 0.0
H621 H 0.1775 0.10566 0.09985 0.0
H622 H 0.36341 0.01517 0.11877 0.0
H623 H 0.36211 0.03313 0.09398 0.0
H624 H 0.38027 0.07371 0.11169 0.0
H625 H 0.15178 0.03579 0.11413 0.0
H626 H 0.17611 0.99162 0.10163 0.0
H627 H 0.19376 0.99446 0.12679 0.0
H628 H 0.24116 0.89912 0.07653 0.0
H629 H 0.26423 0.88012 0.1376 0.0
H630 H 0.29395 0.01232 0.07272 0.0
H631 H 0.23173 0.01274 0.07125 0.0
H632 H 0.2598 0.96858 0.06005 0.0
H633 H 0.31639 0.99799 0.1449 0.0
H634 H 0.31136 0.93962 0.15562 0.0
H635 H 0.26139 0.97749 0.15096 0.0
C636 C 0.54512 0.11161 0.3844 0.0
C637 C 0.50525 0.13659 0.38688 0.0
C638 C 0.54332 0.06334 0.38238 0.0
C639 C 0.50043 0.03939 0.38244 0.0
C640 C 0.45958 0.06476 0.38394 0.0
C641 C 0.46253 0.11305 0.38619 0.0
C642 C 0.5878 0.0377 0.38078 0.0
C643 C 0.41309 0.04075 0.3837 0.0
C644 C 0.51136 0.91772 0.36596 0.0
C645 C 0.52822 0.89355 0.38336 0.0
C646 C 0.49705 0.96463 0.3654 0.0
C647 C 0.5001 0.98743 0.38265 0.0
C648 C 0.51156 0.96116 0.40029 0.0
C649 C 0.52557 0.91454 0.40041 0.0
C650 C 0.48364 0.99091 0.3463 0.0
C651 C 0.51456 0.9836 0.41905 0.0
H652 H 0.57809 0.12951 0.38437 0.0
H653 H 0.43144 0.13247 0.38765 0.0
H654 H 0.59646 0.01218 0.39322 0.0
H655 H 0.58309 0.01785 0.36777 0.0
H656 H 0.61785 0.06165 0.3802 0.0
H657 H 0.38374 0.0661 0.3821 0.0
H658 H 0.40697 0.01694 0.37192 0.0
H659 H 0.413 0.01917 0.39724 0.0
H660 H 0.51357 0.90156 0.35275 0.0
H661 H 0.5385 0.89568 0.41388 0.0
H662 H 0.51434 1.01046 0.34241 0.0
H663 H 0.45545 0.01655 0.3468 0.0
H664 H 0.47198 0.96685 0.33494 0.0
H665 H 0.54615 1.00579 0.42103 0.0
H666 H 0.51677 0.95723 0.43133 0.0
H667 H 0.4839 1.0064 0.41919 0.0
C668 C 0.09515 0.87856 0.90132 0.0
C669 C 0.07957 0.8583 0.91776 0.0
C670 C 0.09565 0.92723 0.89764 0.0
C671 C 0.08037 0.95671 0.91072 0.0
C672 C 0.06593 0.93666 0.92762 0.0
C673 C 0.06547 0.88778 0.93089 0.0
C674 C 0.11141 0.94707 0.87944 0.0
C675 C 0.04965 0.96681 0.94198 0.0
C676 C 0.10969 0.08539 0.90209 0.0
C677 C 0.06908 0.10165 0.89034 0.0
C678 C 0.11303 0.03892 0.90996 0.0
C679 C 0.0752 1.00795 0.90561 0.0
C680 C 0.03328 0.02514 0.89463 0.0
C681 C 0.03077 0.07164 0.88719 0.0
C682 C 0.15801 0.0224 0.92194 0.0
C683 C 0.99193 0.99368 0.88969 0.0
H684 H 0.10709 0.85628 0.89129 0.0
H685 H 0.05299 0.87265 0.94357 0.0
H686 H 0.08185 0.96543 0.87025 0.0
H687 H 0.13938 0.97309 0.88271 0.0
H688 H 0.12464 0.91968 0.87126 0.0
H689 H 0.04451 0.94635 0.95533 0.0
H690 H 0.07521 0.99492 0.94557 0.0
H691 H 0.01611 0.9839 0.93574 0.0
H692 H 0.1397 0.10809 0.90427 0.0
H693 H 0.99918 0.08409 0.87816 0.0
H694 H 0.17789 1.0014 0.91331 0.0
H695 H 0.15105 0.99974 0.93446 0.0
H696 H 0.18012 0.05208 0.92705 0.0
H697 H 1.00096 0.96717 0.88015 0.0
H698 H 0.96068 0.01331 0.88239 0.0
H699 H 0.98287 0.97471 0.90274 0.0
C700 C 0.15977 0.20342 0.01597 0.0
C701 C 0.19025 0.17369 0.02846 0.0
C702 C 0.15021 0.19649 -0.00355 0.0
C703 C 0.16926 0.15714 0.98929 0.0
C704 C 0.19534 0.12394 0.00209 0.0
C705 C 0.20682 0.13329 0.02137 0.0
C706 C 0.12234 0.23322 0.98336 0.0
C707 C 0.21339 0.07958 0.99548 0.0
C708 C 0.1234 0.16148 0.93671 0.0
C709 C 0.15896 0.18736 0.92966 0.0
C710 C 0.12881 0.14473 0.95598 0.0
C711 C 0.16945 0.1566 0.96839 0.0
C712 C 0.20746 0.17753 0.9607 0.0
C713 C 0.20201 0.19159 0.94131 0.0
C714 C 0.08948 0.11792 0.96322 0.0
C715 C 0.25191 0.19032 0.97323 0.0
H716 H 0.14435 0.23324 0.02125 0.0
H717 H 0.23026 0.10945 0.03056 0.0
H718 H 0.14349 0.24794 0.9726 0.0
H719 H 0.09082 0.21738 0.97557 0.0
H720 H 0.11111 0.26234 0.99119 0.0
H721 H 0.211 0.05018 0.00627 0.0
H722 H 0.1939 0.07018 0.98161 0.0
H723 H 0.25079 0.08374 0.99404 0.0
H724 H 0.09018 0.1575 0.92771 0.0
H725 H 0.23006 0.21043 0.93568 0.0
H726 H 0.06329 0.1427 0.9667 0.0
H727 H 0.10211 0.09527 0.97622 0.0
H728 H 0.07165 0.09591 0.95208 0.0
H729 H 0.24402 0.21513 0.98366 0.0
H730 H 0.27798 0.20666 0.96489 0.0
H731 H 0.26795 0.1588 0.98139 0.0
C732 C 0.0635 0.81871 0.25484 0.0
C733 C 0.10534 0.81486 0.26775 0.0
C734 C 0.06051 0.80307 0.23635 0.0
C735 C 0.10072 0.78484 0.23033 0.0
C736 C 0.14321 0.78191 0.24305 0.0
C737 C 0.14464 0.79568 0.26165 0.0
C738 C 0.0141 0.80477 0.2235 0.0
C739 C 0.18743 0.76389 0.2371 0.0
C740 C 0.11138 0.70431 0.19144 0.0
C741 C 0.12546 0.73565 0.17749 0.0
C742 C 0.09718 0.72052 0.20789 0.0
C743 C 0.09954 0.76887 0.21078 0.0
C744 C 0.10997 0.80079 0.19595 0.0
C745 C 0.12209 0.78372 0.17931 0.0
C746 C 0.08354 0.68559 0.22288 0.0
C747 C 0.11376 0.85251 0.19848 0.0
H748 H 0.03283 0.83375 0.25912 0.0
H749 H 0.17678 0.79047 0.27146 0.0
H750 H 0.01767 0.82055 0.20912 0.0
H751 H 1.00126 0.76864 0.22169 0.0
H752 H 0.98745 0.82473 0.22939 0.0
H753 H 0.2184 0.76785 0.24812 0.0
H754 H 0.18358 0.72639 0.23441 0.0
H755 H 0.1941 0.78281 0.22364 0.0
H756 H 0.11344 0.66711 0.18987 0.0
H757 H 0.13316 0.80798 0.16852 0.0
H758 H 0.05414 0.69907 0.22934 0.0
H759 H 0.1135 0.67934 0.23443 0.0
H760 H 0.07334 0.65166 0.21687 0.0
H761 H 0.08418 0.8652 0.20501 0.0
H762 H 0.11478 0.87299 0.18472 0.0
H763 H 0.14631 0.85937 0.20824 0.0
C764 C 0.64958 0.70193 0.51549 0.0
C765 C 0.68151 0.67256 0.52747 0.0
C766 C 0.63949 0.69613 0.4959 0.0
C767 C 0.65986 0.65845 0.48814 0.0
C768 C 0.68708 0.62514 0.50047 0.0
C769 C 0.69879 0.63327 0.51986 0.0
C770 C 0.60997 0.73259 0.48333 0.0
C771 C 0.70641 0.58236 0.49311 0.0
C772 C 0.61716 0.66547 0.43515 0.0
C773 C 0.65227 0.6933 0.42875 0.0
C774 C 0.62175 0.64781 0.4543 0.0
C775 C 0.66104 0.6606 0.46727 0.0
C776 C 0.6986 0.6843 0.46028 0.0
C777 C 0.69408 0.69932 0.44102 0.0
C778 C 0.58292 0.61868 0.46077 0.0
C779 C 0.74144 0.69866 0.47344 0.0
H780 H 0.63368 0.7308 0.52124 0.0
H781 H 0.72316 0.60966 0.52873 0.0
H782 H 0.63088 0.7503 0.4731 0.0
H783 H 0.57989 0.71587 0.47492 0.0
H784 H 0.59645 0.75951 0.49165 0.0
H785 H 0.70839 0.55255 0.504 0.0
H786 H 0.68485 0.57203 0.4798 0.0
H787 H 0.74236 0.58943 0.49014 0.0
H788 H 0.58489 0.66026 0.42569 0.0
H789 H 0.72184 0.71977 0.43592 0.0
H790 H 0.55487 0.64192 0.4638 0.0
H791 H 0.59529 0.59623 0.47385 0.0
H792 H 0.56745 0.59623 0.44934 0.0
H793 H 0.73128 0.72239 0.48385 0.0
H794 H 0.76746 0.71685 0.46559 0.0
H795 H 0.75852 0.66766 0.48162 0.0
C796 C 0.56736 0.27727 0.76046 0.0
C797 C 0.6042 0.305 0.76864 0.0
C798 C 0.56559 0.26281 0.74185 0.0
C799 C 0.60262 0.27443 0.73153 0.0
C800 C 0.63894 0.30367 0.73939 0.0
C801 C 0.63858 0.31952 0.75757 0.0
C802 C 0.52497 0.2336 0.73369 0.0
C803 C 0.6795 0.31658 0.72897 0.0
C804 C 0.64269 0.19533 0.69672 0.0
C805 C 0.63486 0.22373 0.6797 0.0
C806 C 0.62955 0.21003 0.71359 0.0
C807 C 0.60624 0.25333 0.71325 0.0
C808 C 0.59363 0.2796 0.69571 0.0
C809 C 0.60981 0.26549 0.67933 0.0
C810 C 0.64419 0.18111 0.73203 0.0
C811 C 0.56581 0.32424 0.69445 0.0
H812 H 0.54053 0.2654 0.76872 0.0
H813 H 0.66617 0.34246 0.7633 0.0
H814 H 0.51662 0.24006 0.71798 0.0
H815 H 0.53383 0.19611 0.73687 0.0
H816 H 0.49333 0.24078 0.74014 0.0
H817 H 0.70554 0.33864 0.73731 0.0
H818 H 0.69732 0.28447 0.72586 0.0
H819 H 0.66681 0.3358 0.71514 0.0
H820 H 0.66195 0.16292 0.69719 0.0
H821 H 0.60526 0.2888 0.66663 0.0
H822 H 0.6138 0.17419 0.73958 0.0
H823 H 0.67011 0.20073 0.74152 0.0
H824 H 0.65995 0.14718 0.72972 0.0
H825 H 0.53821 0.32093 0.70374 0.0
H826 H 0.54921 0.33381 0.67958 0.0
H827 H 0.58917 0.35311 0.69935 0.0
C828 C 0.09033 0.67249 0.96917 0.0
C829 C 0.10982 0.71453 0.96272 0.0
C830 C 0.09936 0.65602 0.98846 0.0
C831 C 0.12626 0.68346 0.0018 0.0
C832 C 0.1494 0.72346 0.99513 0.0
C833 C 0.14193 0.73762 0.97566 0.0
C834 C 0.07749 0.61079 0.99455 0.0
C835 C 0.17897 0.7538 0.00872 0.0
C836 C 0.08563 0.70777 0.04785 0.0
C837 C 0.12598 0.69738 0.06092 0.0
C838 C 0.08343 0.69926 0.02862 0.0
C839 C 0.1218 0.67764 0.02245 0.0
C840 C 0.15918 0.65982 0.03619 0.0
C841 C 0.16146 0.67091 0.05533 0.0
C842 C 0.04234 0.71851 0.0147 0.0
C843 C 0.19853 0.63227 0.03063 0.0
H844 H 0.06611 0.65335 0.95949 0.0
H845 H 0.15973 0.76834 0.97078 0.0
H846 H 0.09531 0.59564 0.00851 0.0
H847 H 0.04026 0.61684 0.99564 0.0
H848 H 0.07855 0.58492 0.98367 0.0
H849 H 0.19412 0.78401 0.00121 0.0
H850 H 0.15763 0.7673 0.01892 0.0
H851 H 0.20794 0.73297 0.0171 0.0
H852 H 0.05745 0.72697 0.05231 0.0
H853 H 0.19247 0.66202 0.06543 0.0
H854 H 0.02525 0.69023 0.00639 0.0
H855 H 0.05441 0.74507 0.00446 0.0
H856 H 0.01575 0.73496 0.02191 0.0
H857 H 0.18828 0.61627 0.01684 0.0
H858 H 0.21019 0.60423 0.04185 0.0
H859 H 0.22876 0.65553 0.02943 0.0
C860 C 0.63295 0.80155 0.22556 0.0
C861 C 0.67148 0.8201 0.21779 0.0
C862 C 0.63504 0.79109 0.24516 0.0
C863 C 0.6775 0.79688 0.25744 0.0
C864 C 0.71689 0.81488 0.24985 0.0
C865 C 0.71322 0.82698 0.23016 0.0
C866 C 0.59165 0.77303 0.25264 0.0
C867 C 0.76328 0.81974 0.26233 0.0
C868 C 0.65359 0.79969 0.30794 0.0
C869 C 0.65115 0.75181 0.31283 0.0
C870 C 0.66701 0.81577 0.2905 0.0
C871 C 0.67957 0.78303 0.27808 0.0
C872 C 0.68345 0.73514 0.2843 0.0
C873 C 0.66794 0.71987 0.30144 0.0
C874 C 0.662 0.86708 0.28444 0.0
C875 C 0.6995 0.69949 0.272 0.0
H876 H 0.60101 0.79403 0.21632 0.0
H877 H 0.74329 0.84148 0.22451 0.0
H878 H 0.59692 0.73608 0.25811 0.0
H879 H 0.5845 0.79331 0.26465 0.0
H880 H 0.56039 0.77505 0.24148 0.0
H881 H 0.7879 0.84177 0.25511 0.0
H882 H 0.75901 0.83482 0.27594 0.0
H883 H 0.77914 0.7846 0.26594 0.0
H884 H 0.6407 0.82436 0.31686 0.0
H885 H 0.66679 0.68284 0.30546 0.0
H886 H 0.62928 0.87279 0.27425 0.0
H887 H 0.69129 0.87949 0.27705 0.0
H888 H 0.66043 0.88853 0.29677 0.0
H889 H 0.67042 0.69143 0.2607 0.0
H890 H 0.71072 0.66648 0.28046 0.0
H891 H 0.72886 0.71323 0.26491 0.0
C892 C 0.64425 0.23848 0.47531 0.0
C893 C 0.61208 0.21551 0.46235 0.0
C894 C 0.65202 0.22396 0.49475 0.0
C895 C 0.62913 0.18372 0.50135 0.0
C896 C 0.60222 0.15642 0.48796 0.0
C897 C 0.59288 0.17324 0.46872 0.0
C898 C 0.68161 0.25416 0.50839 0.0
C899 C 0.58063 0.11096 0.49397 0.0
C900 C 0.66432 0.17013 0.55491 0.0
C901 C 0.62867 0.19618 0.56059 0.0
C902 C 0.66219 0.15962 0.5357 0.0
C903 C 0.62477 0.17756 0.522 0.0
C904 C 0.58629 0.19881 0.52825 0.0
C905 C 0.58835 0.20673 0.54752 0.0
C906 C 0.70172 0.1325 0.53005 0.0
C907 C 0.54517 0.21823 0.51438 0.0
H908 H 0.66185 0.26939 0.47048 0.0
H909 H 0.56863 0.15416 0.45902 0.0
H910 H 0.6603 0.26744 0.51865 0.0
H911 H 0.71065 0.23329 0.5167 0.0
H912 H 0.69665 0.28451 0.50093 0.0
H913 H 0.58141 0.08541 0.48295 0.0
H914 H 0.59888 0.09553 0.50781 0.0
H915 H 0.54351 0.11682 0.49529 0.0
H916 H 0.69531 0.16112 0.565 0.0
H917 H 0.56004 0.22558 0.55205 0.0
H918 H 0.73191 0.15594 0.52904 0.0
H919 H 0.69169 0.11697 0.51614 0.0
H920 H 0.71334 0.10415 0.54113 0.0
H921 H 0.55722 0.245 0.50421 0.0
H922 H 0.51858 0.23449 0.52165 0.0
H923 H 0.5281 0.19009 0.50598 0.0
C924 C 0.21188 0.32564 0.73134 0.0
C925 C 0.17034 0.31901 0.71881 0.0
C926 C 0.21477 0.31431 0.75105 0.0
C927 C 0.17481 0.29742 0.75851 0.0
C928 C 0.13246 0.29223 0.74609 0.0
C929 C 0.13109 0.30194 0.72647 0.0
C930 C 0.26093 0.31872 0.76373 0.0
C931 C 0.08853 0.27538 0.75345 0.0
C932 C 0.1655 0.22063 0.80271 0.0
C933 C 0.14967 0.25276 0.81427 0.0
C934 C 0.1801 0.23565 0.78537 0.0
C935 C 0.17645 0.28356 0.77914 0.0
C936 C 0.16458 0.31645 0.79164 0.0
C937 C 0.15195 0.30059 0.80926 0.0
C938 C 0.19509 0.19973 0.77293 0.0
C939 C 0.15966 0.36775 0.78555 0.0
H940 H 0.24243 0.33922 0.72578 0.0
H941 H 0.09918 0.29481 0.71713 0.0
H942 H 0.25655 0.33624 0.77679 0.0
H943 H 0.27517 0.28331 0.76831 0.0
H944 H 0.28685 0.3384 0.75633 0.0
H945 H 0.05749 0.27781 0.74218 0.0
H946 H 0.09295 0.23845 0.75906 0.0
H947 H 0.08158 0.29616 0.76535 0.0
H948 H 0.1643 0.18364 0.8068 0.0
H949 H 0.13965 0.32539 0.81827 0.0
H950 H 0.22448 0.21292 0.76573 0.0
H951 H 0.1656 0.19229 0.7617 0.0
H952 H 0.20587 0.16648 0.78128 0.0
H953 H 0.18843 0.37992 0.77781 0.0
H954 H 0.15908 0.38932 0.79793 0.0
H955 H 0.12646 0.37363 0.77568 0.0
loop_
_geom_bond_atom_site_label_1
_geom_bond_atom_site_label_2
_geom_bond_distance
_geom_bond_site_symmetry_2
_ccdc_geom_bond_type
H0 C7 0.929 . S
H1 C10 0.930 . S
H2 C12 0.929 . S
H3 C4 0.969 . S
C4 H3 0.969 . S
C4 O5 1.550 . S
C4 H6 0.973 . S
O5 C4 1.550 . S
O5 C11 1.412 . S
H6 C4 0.973 . S
C7 H0 0.929 . S
C7 C8 1.400 . S
C7 C9 1.364 . S
C8 C7 1.400 . S
C8 C12 1.377 . S
C9 C7 1.364 . S
C9 C10 1.374 . S
C10 H1 0.930 . S
C10 C9 1.374 . S
C10 C11 1.383 . S
C11 O5 1.412 . S
C11 C10 1.383 . S
C11 C12 1.394 . S
C12 H2 0.929 . S
C12 C8 1.377 . S
C12 C11 1.394 . S
H13 C20 0.929 . S
H14 C23 0.930 . S
H15 C25 0.929 . S
H16 C17 0.969 . S
C17 H16 0.969 . S
C17 O18 1.550 . S
C17 H19 0.973 1_455 S
O18 C17 1.550 . S
O18 C24 1.412 . S
H19 C17 0.973 1_655 S
C20 H13 0.929 . S
C20 C21 1.400 . S
C20 C22 1.364 . S
C21 C20 1.400 . S
C21 C25 1.377 . S
C22 C20 1.364 . S
C22 C23 1.374 . S
C23 H14 0.930 . S
C23 C22 1.374 . S
C23 C24 1.383 . S
C24 O18 1.412 . S
C24 C23 1.383 . S
C24 C25 1.394 . S
C25 H15 0.929 . S
C25 C21 1.377 . S
C25 C24 1.394 . S
H26 C33 0.929 . S
H27 C36 0.930 . S
H28 C38 0.929 . S
H29 C30 0.969 . S
C30 H29 0.969 . S
C30 O31 1.550 . S
C30 H32 0.973 . S
O31 C30 1.550 . S
O31 C37 1.412 . S
H32 C30 0.973 . S
C33 H26 0.929 . S
C33 C34 1.400 . S
C33 C35 1.364 . S
C34 C33 1.400 . S
C34 C38 1.377 . S
C35 C33 1.364 . S
C35 C36 1.374 . S
C36 H27 0.930 . S
C36 C35 1.374 . S
C36 C37 1.383 . S
C37 O31 1.412 . S
C37 C36 1.383 . S
C37 C38 1.394 . S
C38 H28 0.929 . S
C38 C34 1.377 . S
C38 C37 1.394 . S
H39 C46 0.929 . S
H40 C49 0.930 . S
H41 C51 0.929 . S
H42 C43 0.969 . S
C43 H42 0.969 . S
C43 O44 1.550 . S
C43 H45 0.973 . S
O44 C43 1.550 . S
O44 C50 1.412 . S
H45 C43 0.973 . S
C46 H39 0.929 . S
C46 C47 1.400 . S
C46 C48 1.364 . S
C47 C46 1.400 . S
C47 C51 1.377 . S
C48 C46 1.364 . S
C48 C49 1.374 . S
C49 H40 0.930 . S
C49 C48 1.374 . S
C49 C50 1.383 . S
C50 O44 1.412 . S
C50 C49 1.383 . S
C50 C51 1.394 . S
C51 H41 0.929 . S
C51 C47 1.377 . S
C51 C50 1.394 . S
H52 C59 0.929 . S
H53 C62 0.930 . S
H54 C64 0.929 . S
H55 C56 0.995 . S
C56 H55 0.995 . S
C56 O57 1.550 . S
C56 H58 0.973 . S
O57 C56 1.550 . S
O57 C63 1.412 . S
H58 C56 0.973 . S
C59 H52 0.929 . S
C59 C60 1.400 . S
C59 C61 1.364 . S
C60 C59 1.400 . S
C60 C64 1.377 . S
C61 C59 1.364 . S
C61 C62 1.374 . S
C62 H53 0.930 . S
C62 C61 1.374 . S
C62 C63 1.383 . S
C63 O57 1.412 . S
C63 C62 1.383 . S
C63 C64 1.394 . S
C64 H54 0.929 . S
C64 C60 1.377 . S
C64 C63 1.394 . S
H65 C72 0.929 . S
H66 C75 0.930 . S
H67 C77 0.929 . S
H68 C69 0.969 . S
C69 H68 0.969 . S
C69 O70 1.550 . S
C69 H71 0.973 . S
O70 C69 1.550 . S
O70 C76 1.412 . S
H71 C69 0.973 . S
C72 H65 0.929 . S
C72 C73 1.400 . S
C72 C74 1.364 . S
C73 C72 1.400 . S
C73 C77 1.377 . S
C74 C72 1.364 . S
C74 C75 1.374 . S
C75 H66 0.930 . S
C75 C74 1.374 . S
C75 C76 1.383 . S
C76 O70 1.412 . S
C76 C75 1.383 . S
C76 C77 1.394 . S
C77 H67 0.929 . S
C77 C73 1.377 . S
C77 C76 1.394 . S
H78 C85 0.929 . S
H79 C88 0.930 . S
H80 C90 0.929 . S
H81 C82 0.969 . S
C82 H81 0.969 . S
C82 O83 1.550 . S
C82 H84 0.973 . S
O83 C82 1.550 . S
O83 C89 1.412 . S
H84 C82 0.973 . S
C85 H78 0.929 . S
C85 C86 1.400 . S
C85 C87 1.364 . S
C86 C85 1.400 . S
C86 C90 1.377 . S
C87 C85 1.364 . S
C87 C88 1.374 . S
C88 H79 0.930 . S
C88 C87 1.374 . S
C88 C89 1.383 . S
C89 O83 1.412 . S
C89 C88 1.383 . S
C89 C90 1.394 . S
C90 H80 0.929 . S
C90 C86 1.377 . S
C90 C89 1.394 . S
H91 C98 0.929 . S
H92 C101 0.930 . S
H93 C103 0.929 . S
H94 C95 0.969 . S
C95 H94 0.969 . S
C95 O96 1.550 . S
C95 H97 0.973 . S
O96 C95 1.550 . S
O96 C102 1.412 . S
H97 C95 0.973 . S
C98 H91 0.929 . S
C98 C99 1.400 . S
C98 C100 1.364 . S
C99 C98 1.400 . S
C99 C103 1.377 . S
C100 C98 1.364 . S
C100 C101 1.374 . S
C101 H92 0.930 . S
C101 C100 1.374 . S
C101 C102 1.383 . S
C102 O96 1.412 . S
C102 C101 1.383 . S
C102 C103 1.394 . S
C103 H93 0.929 . S
C103 C99 1.377 . S
C103 C102 1.394 . S
Zn104 O110 1.920 . S
Zn104 O116 1.898 . S
Zn104 O119 1.905 . S
Zn105 O113 1.905 . S
Zn105 O114 1.898 . S
Zn105 O122 1.920 . S
Zn106 O109 2.080 . S
Zn106 O112 2.114 . S
Zn106 O115 2.120 . S
Zn106 O117 2.120 . S
Zn106 O118 2.114 . S
Zn106 O121 2.080 . S
C107 O112 1.166 . S
C107 O113 1.182 . S
C108 O114 1.167 . S
C108 O115 1.299 . S
O109 Zn106 2.080 . S
O109 C123 1.305 . S
O110 Zn104 1.920 . S
O110 C123 1.234 . S
C111 O116 1.167 . S
C111 O117 1.299 . S
O112 Zn106 2.114 . S
O112 C107 1.166 . S
O113 Zn105 1.905 . S
O113 C107 1.182 . S
O114 Zn105 1.898 . S
O114 C108 1.167 . S
O115 Zn106 2.120 . S
O115 C108 1.299 . S
O116 Zn104 1.898 . S
O116 C111 1.167 . S
O117 Zn106 2.120 . S
O117 C111 1.299 . S
O118 Zn106 2.114 . S
O118 C120 1.166 . S
O119 Zn104 1.905 . S
O119 C120 1.182 . S
C120 O118 1.166 . S
C120 O119 1.182 . S
O121 Zn106 2.080 . S
O121 C124 1.305 . S
O122 Zn105 1.920 . S
O122 C124 1.234 . S
C123 O109 1.305 . S
C123 O110 1.234 . S
C124 O121 1.305 . S
C124 O122 1.234 . S
Zn125 O131 1.920 . S
Zn125 O137 1.898 . S
Zn125 O140 1.905 . S
Zn126 O134 1.905 . S
Zn126 O135 1.898 . S
Zn126 O143 1.920 . S
Zn127 O130 2.080 . S
Zn127 O133 2.114 . S
Zn127 O136 2.120 . S
Zn127 O138 2.120 . S
Zn127 O139 2.114 . S
Zn127 O142 2.080 . S
C128 O133 1.166 . S
C128 O134 1.182 . S
C129 O135 1.167 . S
C129 O136 1.299 . S
O130 Zn127 2.080 . S
O130 C144 1.305 . S
O131 Zn125 1.920 . S
O131 C144 1.234 . S
C132 O137 1.167 . S
C132 O138 1.299 . S
O133 Zn127 2.114 . S
O133 C128 1.166 . S
O134 Zn126 1.905 . S
O134 C128 1.182 . S
O135 Zn126 1.898 . S
O135 C129 1.167 . S
O136 Zn127 2.120 . S
O136 C129 1.299 . S
O137 Zn125 1.898 . S
O137 C132 1.167 . S
O138 Zn127 2.120 . S
O138 C132 1.299 . S
O139 Zn127 2.114 . S
O139 C141 1.166 . S
O140 Zn125 1.905 . S
O140 C141 1.182 . S
C141 O139 1.166 . S
C141 O140 1.182 . S
O142 Zn127 2.080 . S
O142 C145 1.305 . S
O143 Zn126 1.920 . S
O143 C145 1.234 . S
C144 O130 1.305 . S
C144 O131 1.234 . S
C145 O142 1.305 . S
C145 O143 1.234 . S
Zn146 O152 1.920 . S
Zn146 O158 1.898 . S
Zn146 O161 1.905 . S
Zn147 O155 1.905 . S
Zn147 O156 1.898 . S
Zn147 O164 1.920 . S
Zn148 O151 2.080 . S
Zn148 O154 2.114 . S
Zn148 O157 2.120 . S
Zn148 O159 2.120 . S
Zn148 O160 2.114 . S
Zn148 O163 2.080 . S
C149 O154 1.166 . S
C149 O155 1.182 . S
C150 O156 1.167 . S
C150 O157 1.299 . S
O151 Zn148 2.080 . S
O151 C165 1.305 . S
O152 Zn146 1.920 . S
O152 C165 1.234 . S
C153 O158 1.167 . S
C153 O159 1.299 . S
O154 Zn148 2.114 . S
O154 C149 1.166 . S
O155 Zn147 1.905 . S
O155 C149 1.182 . S
O156 Zn147 1.898 . S
O156 C150 1.167 . S
O157 Zn148 2.120 . S
O157 C150 1.299 . S
O158 Zn146 1.898 . S
O158 C153 1.167 . S
O159 Zn148 2.120 . S
O159 C153 1.299 . S
O160 Zn148 2.114 . S
O160 C162 1.166 . S
O161 Zn146 1.905 . S
O161 C162 1.182 . S
C162 O160 1.166 . S
C162 O161 1.182 . S
O163 Zn148 2.080 . S
O163 C166 1.305 . S
O164 Zn147 1.920 . S
O164 C166 1.234 . S
C165 O151 1.305 . S
C165 O152 1.234 . S
C166 O163 1.305 . S
C166 O164 1.234 . S
Zn167 O173 1.920 . S
Zn167 O179 1.898 . S
Zn167 O182 1.905 1_455 S
Zn168 O176 1.905 . S
Zn168 O177 1.898 . S
Zn168 O185 1.920 . S
Zn169 O172 2.080 . S
Zn169 O175 2.114 . S
Zn169 O178 2.120 . S
Zn169 O180 2.120 . S
Zn169 O181 2.114 . S
Zn169 O184 2.080 . S
C170 O175 1.166 . S
C170 O176 1.182 . S
C171 O177 1.167 . S
C171 O178 1.299 . S
O172 Zn169 2.080 . S
O172 C186 1.305 . S
O173 Zn167 1.920 . S
O173 C186 1.234 . S
C174 O179 1.167 . S
C174 O180 1.299 . S
O175 Zn169 2.114 . S
O175 C170 1.166 . S
O176 Zn168 1.905 . S
O176 C170 1.182 . S
O177 Zn168 1.898 . S
O177 C171 1.167 . S
O178 Zn169 2.120 . S
O178 C171 1.299 . S
O179 Zn167 1.898 . S
O179 C174 1.167 . S
O180 Zn169 2.120 . S
O180 C174 1.299 . S
O181 Zn169 2.114 . S
O181 C183 1.165 . S
O182 Zn167 1.905 1_655 S
O182 C183 1.183 1_655 S
C183 O181 1.165 . S
C183 O182 1.183 1_455 S
O184 Zn169 2.080 . S
O184 C187 1.305 . S
O185 Zn168 1.920 . S
O185 C187 1.234 . S
C186 O172 1.305 . S
C186 O173 1.234 . S
C187 O184 1.305 . S
C187 O185 1.234 . S
C188 C189 1.391 . S
C188 C190 1.394 . S
C188 H204 0.931 . S
C189 C188 1.391 . S
C189 C193 1.376 . S
C190 C188 1.394 . S
C190 C191 1.369 . S
C190 C194 1.531 . S
C191 C190 1.369 . S
C191 C192 1.410 . S
C191 C199 1.503 . S
C192 C191 1.410 . S
C192 C193 1.392 . S
C192 C195 1.511 . S
C193 C189 1.376 . S
C193 C192 1.392 . S
C193 H205 0.929 . S
C194 C190 1.531 . S
C194 H206 0.960 . S
C194 H207 0.962 . S
C194 H208 0.960 . S
C195 C192 1.511 . S
C195 H209 0.961 . S
C195 H210 0.961 . S
C195 H211 0.961 . S
C196 C197 1.370 . S
C196 C198 1.363 . S
C196 H212 0.931 . S
C197 C196 1.370 . S
C197 C201 1.408 . S
C198 C196 1.363 . S
C198 C199 1.370 . S
C198 C202 1.524 . S
C199 C191 1.503 . S
C199 C198 1.370 . S
C199 C200 1.403 . S
C200 C199 1.403 . S
C200 C201 1.404 . S
C200 C203 1.539 . S
C201 C197 1.408 . S
C201 C200 1.404 . S
C201 H213 0.930 . S
C202 C198 1.524 . S
C202 H214 0.956 . S
C202 H215 0.961 . S
C202 H216 0.961 . S
C203 C200 1.539 . S
C203 H217 0.958 . S
C203 H218 0.961 . S
C203 H219 0.960 . S
H204 C188 0.931 . S
H205 C193 0.929 . S
H206 C194 0.960 . S
H207 C194 0.962 . S
H208 C194 0.960 . S
H209 C195 0.961 . S
H210 C195 0.961 . S
H211 C195 0.961 . S
H212 C196 0.931 . S
H213 C201 0.930 . S
H214 C202 0.956 . S
H215 C202 0.961 . S
H216 C202 0.961 . S
H217 C203 0.958 . S
H218 C203 0.961 . S
H219 C203 0.960 . S
C220 C221 1.391 . S
C220 C222 1.394 . S
C220 H236 0.931 . S
C221 C220 1.391 . S
C221 C225 1.376 . S
C222 C220 1.394 . S
C222 C223 1.369 . S
C222 C226 1.531 . S
C223 C222 1.369 . S
C223 C224 1.410 . S
C223 C231 1.503 . S
C224 C223 1.410 . S
C224 C225 1.392 . S
C224 C227 1.511 . S
C225 C221 1.376 . S
C225 C224 1.392 . S
C225 H237 0.929 . S
C226 C222 1.531 . S
C226 H238 0.960 . S
C226 H239 0.962 . S
C226 H240 0.960 . S
C227 C224 1.511 . S
C227 H241 0.961 . S
C227 H242 0.961 . S
C227 H243 0.961 . S
C228 C229 1.370 . S
C228 C230 1.363 . S
C228 H244 0.931 . S
C229 C228 1.370 . S
C229 C233 1.408 . S
C230 C228 1.363 . S
C230 C231 1.370 . S
C230 C234 1.524 . S
C231 C223 1.503 . S
C231 C230 1.370 . S
C231 C232 1.403 . S
C232 C231 1.403 . S
C232 C233 1.404 . S
C232 C235 1.539 . S
C233 C229 1.408 . S
C233 C232 1.404 . S
C233 H245 0.930 . S
C234 C230 1.524 . S
C234 H246 0.956 . S
C234 H247 0.961 . S
C234 H248 0.961 . S
C235 C232 1.539 . S
C235 H249 0.958 . S
C235 H250 0.961 . S
C235 H251 0.960 . S
H236 C220 0.931 . S
H237 C225 0.929 . S
H238 C226 0.960 . S
H239 C226 0.962 . S
H240 C226 0.960 . S
H241 C227 0.961 . S
H242 C227 0.961 . S
H243 C227 0.961 . S
H244 C228 0.931 . S
H245 C233 0.930 . S
H246 C234 0.956 . S
H247 C234 0.961 . S
H248 C234 0.961 . S
H249 C235 0.958 . S
H250 C235 0.961 . S
H251 C235 0.960 . S
C252 C253 1.391 . S
C252 C254 1.394 . S
C252 H268 0.931 . S
C253 C252 1.391 . S
C253 C257 1.376 . S
C254 C252 1.394 . S
C254 C255 1.369 . S
C254 C258 1.531 . S
C255 C254 1.369 . S
C255 C256 1.410 . S
C255 C263 1.503 . S
C256 C255 1.410 . S
C256 C257 1.392 . S
C256 C259 1.511 . S
C257 C253 1.376 . S
C257 C256 1.392 . S
C257 H269 0.929 . S
C258 C254 1.531 . S
C258 H270 0.960 . S
C258 H271 0.962 . S
C258 H272 0.960 . S
C259 C256 1.511 . S
C259 H273 0.961 . S
C259 H274 0.961 . S
C259 H275 0.961 . S
C260 C261 1.370 . S
C260 C262 1.363 . S
C260 H276 0.931 . S
C261 C260 1.370 . S
C261 C265 1.408 . S
C262 C260 1.363 . S
C262 C263 1.370 . S
C262 C266 1.524 . S
C263 C255 1.503 . S
C263 C262 1.370 . S
C263 C264 1.403 . S
C264 C263 1.403 . S
C264 C265 1.404 . S
C264 C267 1.539 . S
C265 C261 1.408 . S
C265 C264 1.404 . S
C265 H277 0.930 . S
C266 C262 1.524 . S
C266 H278 0.956 . S
C266 H279 0.961 . S
C266 H280 0.961 . S
C267 C264 1.539 . S
C267 H281 0.958 . S
C267 H282 0.961 . S
C267 H283 0.960 . S
H268 C252 0.931 . S
H269 C257 0.929 . S
H270 C258 0.960 . S
H271 C258 0.962 . S
H272 C258 0.960 . S
H273 C259 0.961 . S
H274 C259 0.961 . S
H275 C259 0.961 . S
H276 C260 0.931 . S
H277 C265 0.930 . S
H278 C266 0.956 . S
H279 C266 0.961 . S
H280 C266 0.961 . S
H281 C267 0.958 . S
H282 C267 0.961 . S
H283 C267 0.960 . S
C284 C285 1.391 . S
C284 C286 1.394 . S
C284 H300 0.931 . S
C285 C284 1.391 . S
C285 C289 1.376 . S
C286 C284 1.394 . S
C286 C287 1.369 . S
C286 C290 1.531 . S
C287 C286 1.369 . S
C287 C288 1.410 . S
C287 C295 1.503 . S
C288 C287 1.410 . S
C288 C289 1.392 . S
C288 C291 1.511 . S
C289 C285 1.376 . S
C289 C288 1.392 . S
C289 H301 0.929 . S
C290 C286 1.531 . S
C290 H302 0.960 . S
C290 H303 0.962 . S
C290 H304 0.960 . S
C291 C288 1.511 . S
C291 H305 0.961 . S
C291 H306 0.961 . S
C291 H307 0.961 . S
C292 C293 1.370 . S
C292 C294 1.363 . S
C292 H308 0.931 . S
C293 C292 1.370 . S
C293 C297 1.408 . S
C294 C292 1.363 . S
C294 C295 1.370 . S
C294 C298 1.524 . S
C295 C287 1.503 . S
C295 C294 1.370 . S
C295 C296 1.403 . S
C296 C295 1.403 . S
C296 C297 1.404 . S
C296 C299 1.539 . S
C297 C293 1.408 . S
C297 C296 1.404 . S
C297 H309 0.930 . S
C298 C294 1.524 . S
C298 H310 0.956 . S
C298 H311 0.961 . S
C298 H312 0.961 . S
C299 C296 1.539 . S
C299 H313 0.958 . S
C299 H314 0.961 . S
C299 H315 0.960 . S
H300 C284 0.931 . S
H301 C289 0.929 . S
H302 C290 0.960 . S
H303 C290 0.962 . S
H304 C290 0.960 . S
H305 C291 0.961 . S
H306 C291 0.961 . S
H307 C291 0.961 . S
H308 C292 0.931 . S
H309 C297 0.930 . S
H310 C298 0.956 . S
H311 C298 0.961 . S
H312 C298 0.961 . S
H313 C299 0.958 . S
H314 C299 0.961 . S
H315 C299 0.960 . S
C316 C317 1.391 . S
C316 C318 1.394 . S
C316 H332 0.931 1_455 S
C317 C316 1.391 . S
C317 C321 1.376 . S
C318 C316 1.394 . S
C318 C319 1.369 . S
C318 C322 1.531 1_455 S
C319 C318 1.369 . S
C319 C320 1.410 . S
C319 C327 1.503 . S
C320 C319 1.410 . S
C320 C321 1.392 . S
C320 C323 1.511 . S
C321 C317 1.376 . S
C321 C320 1.392 . S
C321 H333 0.929 . S
C322 C318 1.531 1_655 S
C322 H334 0.960 . S
C322 H335 0.962 . S
C322 H336 0.960 . S
C323 C320 1.511 . S
C323 H337 0.961 . S
C323 H338 0.961 . S
C323 H339 0.961 . S
C324 C325 1.370 . S
C324 C326 1.363 . S
C324 H340 0.931 . S
C325 C324 1.370 . S
C325 C329 1.408 . S
C326 C324 1.363 . S
C326 C327 1.370 . S
C326 C330 1.524 . S
C327 C319 1.503 . S
C327 C326 1.370 . S
C327 C328 1.403 . S
C328 C327 1.403 . S
C328 C329 1.404 . S
C328 C331 1.539 . S
C329 C325 1.408 . S
C329 C328 1.404 . S
C329 H341 0.930 . S
C330 C326 1.524 . S
C330 H342 0.956 . S
C330 H343 0.961 . S
C330 H344 0.961 . S
C331 C328 1.539 . S
C331 H345 0.958 . S
C331 H346 0.961 . S
C331 H347 0.960 . S
H332 C316 0.931 1_655 S
H333 C321 0.929 . S
H334 C322 0.960 . S
H335 C322 0.962 . S
H336 C322 0.960 . S
H337 C323 0.961 . S
H338 C323 0.961 . S
H339 C323 0.961 . S
H340 C324 0.931 . S
H341 C329 0.930 . S
H342 C330 0.956 . S
H343 C330 0.961 . S
H344 C330 0.961 . S
H345 C331 0.958 . S
H346 C331 0.961 . S
H347 C331 0.960 . S
C348 C349 1.391 . S
C348 C350 1.394 . S
C348 H364 0.931 . S
C349 C348 1.391 . S
C349 C353 1.376 . S
C350 C348 1.394 . S
C350 C351 1.369 . S
C350 C354 1.531 . S
C351 C350 1.369 . S
C351 C352 1.410 . S
C351 C359 1.503 . S
C352 C351 1.410 . S
C352 C353 1.392 . S
C352 C355 1.511 . S
C353 C349 1.376 . S
C353 C352 1.392 . S
C353 H365 0.929 . S
C354 C350 1.531 . S
C354 H366 0.960 . S
C354 H367 0.962 . S
C354 H368 0.960 . S
C355 C352 1.511 . S
C355 H369 0.961 . S
C355 H370 0.961 . S
C355 H371 0.961 . S
C356 C357 1.370 1_655 S
C356 C358 1.363 . S
C356 H372 0.931 1_655 S
C357 C356 1.370 1_455 S
C357 C361 1.408 1_455 S
C358 C356 1.363 . S
C358 C359 1.370 . S
C358 C362 1.524 . S
C359 C351 1.503 . S
C359 C358 1.370 . S
C359 C360 1.403 . S
C360 C359 1.403 . S
C360 C361 1.404 . S
C360 C363 1.539 . S
C361 C357 1.408 1_655 S
C361 C360 1.404 . S
C361 H373 0.934 . S
C362 C358 1.524 . S
C362 H374 0.956 . S
C362 H375 0.961 . S
C362 H376 0.961 . S
C363 C360 1.539 . S
C363 H377 0.958 . S
C363 H378 0.961 . S
C363 H379 0.960 . S
H364 C348 0.931 . S
H365 C353 0.929 . S
H366 C354 0.960 . S
H367 C354 0.962 . S
H368 C354 0.960 . S
H369 C355 0.961 . S
H370 C355 0.961 . S
H371 C355 0.961 . S
H372 C356 0.931 1_455 S
H373 C361 0.934 . S
H374 C362 0.956 . S
H375 C362 0.961 . S
H376 C362 0.961 . S
H377 C363 0.958 . S
H378 C363 0.961 . S
H379 C363 0.960 . S
C380 C381 1.391 . S
C380 C382 1.394 . S
C380 H396 0.931 . S
C381 C380 1.391 . S
C381 C385 1.376 . S
C382 C380 1.394 . S
C382 C383 1.369 . S
C382 C386 1.531 . S
C383 C382 1.369 . S
C383 C384 1.410 . S
C383 C391 1.503 . S
C384 C383 1.410 . S
C384 C385 1.392 . S
C384 C387 1.511 . S
C385 C381 1.376 . S
C385 C384 1.392 . S
C385 H397 0.929 . S
C386 C382 1.531 . S
C386 H398 0.960 . S
C386 H399 0.962 . S
C386 H400 0.960 . S
C387 C384 1.511 . S
C387 H401 0.961 . S
C387 H402 0.961 . S
C387 H403 0.961 . S
C388 C389 1.370 . S
C388 C390 1.363 . S
C388 H404 0.931 . S
C389 C388 1.370 . S
C389 C393 1.408 . S
C390 C388 1.363 . S
C390 C391 1.370 . S
C390 C394 1.524 . S
C391 C383 1.503 . S
C391 C390 1.370 . S
C391 C392 1.403 . S
C392 C391 1.403 . S
C392 C393 1.404 . S
C392 C395 1.539 . S
C393 C389 1.408 . S
C393 C392 1.404 . S
C393 H405 0.930 . S
C394 C390 1.524 . S
C394 H406 0.956 . S
C394 H407 0.961 . S
C394 H408 0.961 . S
C395 C392 1.539 . S
C395 H409 0.958 . S
C395 H410 0.961 . S
C395 H411 0.960 . S
H396 C380 0.931 . S
H397 C385 0.929 . S
H398 C386 0.960 . S
H399 C386 0.962 . S
H400 C386 0.960 . S
H401 C387 0.961 . S
H402 C387 0.961 . S
H403 C387 0.961 . S
H404 C388 0.931 . S
H405 C393 0.930 . S
H406 C394 0.956 . S
H407 C394 0.961 . S
H408 C394 0.961 . S
H409 C395 0.958 . S
H410 C395 0.961 . S
H411 C395 0.960 . S
C412 C413 1.391 . S
C412 C414 1.394 1_455 S
C412 H428 0.931 . S
C413 C412 1.391 . S
C413 C417 1.376 . S
C414 C412 1.394 1_655 S
C414 C415 1.369 . S
C414 C418 1.531 . S
C415 C414 1.369 . S
C415 C416 1.410 . S
C415 C423 1.503 . S
C416 C415 1.410 . S
C416 C417 1.392 1_655 S
C416 C419 1.511 . S
C417 C413 1.376 . S
C417 C416 1.392 1_455 S
C417 H429 0.929 . S
C418 C414 1.531 . S
C418 H430 0.960 . S
C418 H431 0.962 . S
C418 H432 0.960 . S
C419 C416 1.511 . S
C419 H433 0.961 . S
C419 H434 0.961 . S
C419 H435 0.961 . S
C420 C421 1.370 . S
C420 C422 1.363 . S
C420 H436 0.931 . S
C421 C420 1.370 . S
C421 C425 1.408 . S
C422 C420 1.363 . S
C422 C423 1.370 . S
C422 C426 1.524 . S
C423 C415 1.503 . S
C423 C422 1.370 . S
C423 C424 1.403 . S
C424 C423 1.403 . S
C424 C425 1.404 . S
C424 C427 1.539 . S
C425 C421 1.408 . S
C425 C424 1.404 . S
C425 H437 0.930 . S
C426 C422 1.524 . S
C426 H438 0.956 . S
C426 H439 0.961 . S
C426 H440 0.961 . S
C427 C424 1.539 . S
C427 H441 0.958 . S
C427 H442 0.961 . S
C427 H443 0.960 . S
H428 C412 0.931 . S
H429 C417 0.929 . S
H430 C418 0.960 . S
H431 C418 0.962 . S
H432 C418 0.960 . S
H433 C419 0.961 . S
H434 C419 0.961 . S
H435 C419 0.961 . S
H436 C420 0.931 . S
H437 C425 0.930 . S
H438 C426 0.956 . S
H439 C426 0.961 . S
H440 C426 0.961 . S
H441 C427 0.958 . S
H442 C427 0.961 . S
H443 C427 0.960 . S
C444 C445 1.391 . S
C444 C446 1.394 . S
C444 H460 0.931 . S
C445 C444 1.391 . S
C445 C449 1.376 . S
C446 C444 1.394 . S
C446 C447 1.369 . S
C446 C450 1.531 . S
C447 C446 1.369 . S
C447 C448 1.410 . S
C447 C455 1.503 . S
C448 C447 1.410 . S
C448 C449 1.392 . S
C448 C451 1.511 . S
C449 C445 1.376 . S
C449 C448 1.392 . S
C449 H461 0.929 . S
C450 C446 1.531 . S
C450 H462 0.960 . S
C450 H463 0.962 . S
C450 H464 0.960 . S
C451 C448 1.511 . S
C451 H465 0.961 . S
C451 H466 0.961 . S
C451 H467 0.961 . S
C452 C453 1.370 . S
C452 C454 1.363 . S
C452 H468 0.931 . S
C453 C452 1.370 . S
C453 C457 1.408 . S
C454 C452 1.363 . S
C454 C455 1.370 . S
C454 C458 1.524 . S
C455 C447 1.503 . S
C455 C454 1.370 . S
C455 C456 1.403 . S
C456 C455 1.403 . S
C456 C457 1.404 . S
C456 C459 1.539 . S
C457 C453 1.408 . S
C457 C456 1.404 . S
C457 H469 0.930 . S
C458 C454 1.524 . S
C458 H470 0.956 . S
C458 H471 0.961 . S
C458 H472 0.961 . S
C459 C456 1.539 . S
C459 H473 0.958 . S
C459 H474 0.961 . S
C459 H475 0.960 . S
H460 C444 0.931 . S
H461 C449 0.929 . S
H462 C450 0.960 . S
H463 C450 0.962 . S
H464 C450 0.960 . S
H465 C451 0.961 . S
H466 C451 0.961 . S
H467 C451 0.961 . S
H468 C452 0.931 . S
H469 C457 0.930 . S
H470 C458 0.956 . S
H471 C458 0.961 . S
H472 C458 0.961 . S
H473 C459 0.958 . S
H474 C459 0.961 . S
H475 C459 0.960 . S
C476 C477 1.391 . S
C476 C478 1.394 . S
C476 H492 0.931 . S
C477 C476 1.391 . S
C477 C481 1.376 . S
C478 C476 1.394 . S
C478 C479 1.369 . S
C478 C482 1.531 . S
C479 C478 1.369 . S
C479 C480 1.410 . S
C479 C487 1.503 . S
C480 C479 1.410 . S
C480 C481 1.392 . S
C480 C483 1.511 . S
C481 C477 1.376 . S
C481 C480 1.392 . S
C481 H493 0.929 . S
C482 C478 1.531 . S
C482 H494 0.960 . S
C482 H495 0.962 . S
C482 H496 0.960 . S
C483 C480 1.511 . S
C483 H497 0.961 . S
C483 H498 0.961 . S
C483 H499 0.961 . S
C484 C485 1.370 . S
C484 C486 1.363 . S
C484 H500 0.931 . S
C485 C484 1.370 . S
C485 C489 1.408 . S
C486 C484 1.363 . S
C486 C487 1.370 . S
C486 C490 1.524 . S
C487 C479 1.503 . S
C487 C486 1.370 . S
C487 C488 1.403 . S
C488 C487 1.403 . S
C488 C489 1.404 . S
C488 C491 1.539 . S
C489 C485 1.408 . S
C489 C488 1.404 . S
C489 H501 0.930 . S
C490 C486 1.524 . S
C490 H502 0.956 . S
C490 H503 0.961 . S
C490 H504 0.961 . S
C491 C488 1.539 . S
C491 H505 0.958 . S
C491 H506 0.961 . S
C491 H507 0.960 . S
H492 C476 0.931 . S
H493 C481 0.929 . S
H494 C482 0.960 . S
H495 C482 0.962 . S
H496 C482 0.960 . S
H497 C483 0.961 . S
H498 C483 0.961 . S
H499 C483 0.961 . S
H500 C484 0.931 . S
H501 C489 0.930 . S
H502 C490 0.956 . S
H503 C490 0.961 . S
H504 C490 0.961 . S
H505 C491 0.958 . S
H506 C491 0.961 . S
H507 C491 0.960 . S
C508 C509 1.391 . S
C508 C510 1.394 . S
C508 H524 0.931 . S
C509 C508 1.391 . S
C509 C513 1.376 . S
C510 C508 1.394 . S
C510 C511 1.369 . S
C510 C514 1.531 . S
C511 C510 1.369 . S
C511 C512 1.410 . S
C511 C519 1.503 . S
C512 C511 1.410 . S
C512 C513 1.392 . S
C512 C515 1.511 . S
C513 C509 1.376 . S
C513 C512 1.392 . S
C513 H525 0.929 . S
C514 C510 1.531 . S
C514 H526 0.960 . S
C514 H527 0.962 . S
C514 H528 0.960 . S
C515 C512 1.511 . S
C515 H529 0.961 . S
C515 H530 0.961 . S
C515 H531 0.961 . S
C516 C517 1.370 . S
C516 C518 1.363 . S
C516 H532 0.931 . S
C517 C516 1.370 . S
C517 C521 1.408 . S
C518 C516 1.363 . S
C518 C519 1.370 . S
C518 C522 1.524 . S
C519 C511 1.503 . S
C519 C518 1.370 . S
C519 C520 1.403 . S
C520 C519 1.403 . S
C520 C521 1.404 . S
C520 C523 1.539 . S
C521 C517 1.408 . S
C521 C520 1.404 . S
C521 H533 0.930 . S
C522 C518 1.524 . S
C522 H534 0.956 . S
C522 H535 0.961 . S
C522 H536 0.961 . S
C523 C520 1.539 . S
C523 H537 0.958 . S
C523 H538 0.961 . S
C523 H539 0.960 . S
H524 C508 0.931 . S
H525 C513 0.929 . S
H526 C514 0.960 . S
H527 C514 0.962 . S
H528 C514 0.960 . S
H529 C515 0.961 . S
H530 C515 0.961 . S
H531 C515 0.961 . S
H532 C516 0.931 . S
H533 C521 0.930 . S
H534 C522 0.956 . S
H535 C522 0.961 . S
H536 C522 0.961 . S
H537 C523 0.958 . S
H538 C523 0.961 . S
H539 C523 0.960 . S
C540 C541 1.391 . S
C540 C542 1.394 . S
C540 H556 0.931 . S
C541 C540 1.391 . S
C541 C545 1.376 . S
C542 C540 1.394 . S
C542 C543 1.369 . S
C542 C546 1.531 . S
C543 C542 1.369 . S
C543 C544 1.410 . S
C543 C551 1.503 . S
C544 C543 1.410 . S
C544 C545 1.392 . S
C544 C547 1.511 . S
C545 C541 1.376 . S
C545 C544 1.392 . S
C545 H557 0.929 . S
C546 C542 1.531 . S
C546 H558 0.960 . S
C546 H559 0.962 . S
C546 H560 0.960 . S
C547 C544 1.511 . S
C547 H561 0.961 . S
C547 H562 0.961 . S
C547 H563 0.961 . S
C548 C549 1.370 . S
C548 C550 1.363 . S
C548 H564 0.931 . S
C549 C548 1.370 . S
C549 C553 1.408 . S
C550 C548 1.363 . S
C550 C551 1.370 . S
C550 C554 1.524 . S
C551 C543 1.503 . S
C551 C550 1.370 . S
C551 C552 1.403 . S
C552 C551 1.403 . S
C552 C553 1.404 . S
C552 C555 1.539 . S
C553 C549 1.408 . S
C553 C552 1.404 . S
C553 H565 0.930 . S
C554 C550 1.524 . S
C554 H566 0.956 . S
C554 H567 0.961 . S
C554 H568 0.961 . S
C555 C552 1.539 . S
C555 H569 0.958 . S
C555 H570 0.961 . S
C555 H571 0.960 . S
H556 C540 0.931 . S
H557 C545 0.929 . S
H558 C546 0.960 . S
H559 C546 0.962 . S
H560 C546 0.960 . S
H561 C547 0.961 . S
H562 C547 0.961 . S
H563 C547 0.961 . S
H564 C548 0.931 . S
H565 C553 0.930 . S
H566 C554 0.956 . S
H567 C554 0.961 . S
H568 C554 0.961 . S
H569 C555 0.958 . S
H570 C555 0.961 . S
H571 C555 0.960 . S
C572 C573 1.391 . S
C572 C574 1.394 . S
C572 H588 0.931 . S
C573 C572 1.391 . S
C573 C577 1.376 . S
C574 C572 1.394 . S
C574 C575 1.369 . S
C574 C578 1.531 . S
C575 C574 1.369 . S
C575 C576 1.410 . S
C575 C583 1.503 1_565 S
C576 C575 1.410 . S
C576 C577 1.392 . S
C576 C579 1.511 . S
C577 C573 1.376 . S
C577 C576 1.392 . S
C577 H589 0.929 . S
C578 C574 1.531 . S
C578 H590 0.960 . S
C578 H591 0.962 . S
C578 H592 0.960 . S
C579 C576 1.511 . S
C579 H593 0.961 . S
C579 H594 0.961 1_565 S
C579 H595 0.961 . S
C580 C581 1.370 . S
C580 C582 1.363 . S
C580 H596 0.931 . S
C581 C580 1.370 . S
C581 C585 1.408 . S
C582 C580 1.363 . S
C582 C583 1.370 . S
C582 C586 1.524 . S
C583 C575 1.503 1_545 S
C583 C582 1.370 . S
C583 C584 1.403 . S
C584 C583 1.403 . S
C584 C585 1.404 . S
C584 C587 1.539 . S
C585 C581 1.408 . S
C585 C584 1.404 . S
C585 H597 0.930 . S
C586 C582 1.524 . S
C586 H598 0.956 . S
C586 H599 0.961 . S
C586 H600 0.961 . S
C587 C584 1.539 . S
C587 H601 0.958 1_545 S
C587 H602 0.961 . S
C587 H603 0.960 1_545 S
H588 C572 0.931 . S
H589 C577 0.929 . S
H590 C578 0.960 . S
H591 C578 0.962 . S
H592 C578 0.960 . S
H593 C579 0.961 . S
H594 C579 0.961 1_545 S
H595 C579 0.961 . S
H596 C580 0.931 . S
H597 C585 0.930 . S
H598 C586 0.956 . S
H599 C586 0.961 . S
H600 C586 0.961 . S
H601 C587 0.958 1_565 S
H602 C587 0.961 . S
H603 C587 0.960 1_565 S
C604 C605 1.391 . S
C604 C606 1.394 . S
C604 H620 0.931 . S
C605 C604 1.391 . S
C605 C609 1.376 . S
C606 C604 1.394 . S
C606 C607 1.369 . S
C606 C610 1.531 . S
C607 C606 1.369 . S
C607 C608 1.410 . S
C607 C615 1.503 . S
C608 C607 1.410 . S
C608 C609 1.392 . S
C608 C611 1.511 . S
C609 C605 1.376 . S
C609 C608 1.392 . S
C609 H621 0.929 . S
C610 C606 1.531 . S
C610 H622 0.960 . S
C610 H623 0.962 . S
C610 H624 0.960 . S
C611 C608 1.511 . S
C611 H625 0.961 . S
C611 H626 0.961 . S
C611 H627 0.961 . S
C612 C613 1.370 . S
C612 C614 1.363 . S
C612 H628 0.931 . S
C613 C612 1.370 . S
C613 C617 1.408 . S
C614 C612 1.363 . S
C614 C615 1.370 1_565 S
C614 C618 1.524 . S
C615 C607 1.503 . S
C615 C614 1.370 1_545 S
C615 C616 1.403 1_545 S
C616 C615 1.403 1_565 S
C616 C617 1.404 . S
C616 C619 1.539 1_565 S
C617 C613 1.408 . S
C617 C616 1.404 . S
C617 H629 0.930 . S
C618 C614 1.524 . S
C618 H630 0.956 1_565 S
C618 H631 0.961 1_565 S
C618 H632 0.961 . S
C619 C616 1.539 1_545 S
C619 H633 0.958 . S
C619 H634 0.961 . S
C619 H635 0.960 . S
H620 C604 0.931 . S
H621 C609 0.929 . S
H622 C610 0.960 . S
H623 C610 0.962 . S
H624 C610 0.960 . S
H625 C611 0.961 . S
H626 C611 0.961 . S
H627 C611 0.961 . S
H628 C612 0.931 . S
H629 C617 0.930 . S
H630 C618 0.956 1_545 S
H631 C618 0.961 1_545 S
H632 C618 0.961 . S
H633 C619 0.958 . S
H634 C619 0.961 . S
H635 C619 0.960 . S
C636 C637 1.391 . S
C636 C638 1.394 . S
C636 H652 0.931 . S
C637 C636 1.391 . S
C637 C641 1.376 . S
C638 C636 1.394 . S
C638 C639 1.369 1_545 S
C638 C642 1.531 1_545 S
C639 C638 1.369 1_565 S
C639 C640 1.410 1_565 S
C639 C647 1.503 . S
C640 C639 1.410 1_545 S
C640 C641 1.392 . S
C640 C643 1.511 1_545 S
C641 C637 1.376 . S
C641 C640 1.392 . S
C641 H653 0.929 . S
C642 C638 1.531 1_565 S
C642 H654 0.960 . S
C642 H655 0.962 . S
C642 H656 0.960 1_565 S
C643 C640 1.511 1_565 S
C643 H657 0.961 1_565 S
C643 H658 0.961 . S
C643 H659 0.961 . S
C644 C645 1.370 . S
C644 C646 1.363 . S
C644 H660 0.931 . S
C645 C644 1.370 . S
C645 C649 1.408 . S
C646 C644 1.363 . S
C646 C647 1.370 . S
C646 C650 1.524 . S
C647 C639 1.503 . S
C647 C646 1.370 . S
C647 C648 1.403 . S
C648 C647 1.403 . S
C648 C649 1.404 . S
C648 C651 1.539 . S
C649 C645 1.408 . S
C649 C648 1.404 . S
C649 H661 0.930 . S
C650 C646 1.524 . S
C650 H662 0.956 . S
C650 H663 0.961 . S
C650 H664 0.961 . S
C651 C648 1.539 . S
C651 H665 0.958 . S
C651 H666 0.961 . S
C651 H667 0.960 . S
H652 C636 0.931 . S
H653 C641 0.929 . S
H654 C642 0.960 . S
H655 C642 0.962 . S
H656 C642 0.960 1_545 S
H657 C643 0.961 1_545 S
H658 C643 0.961 . S
H659 C643 0.961 . S
H660 C644 0.931 . S
H661 C649 0.930 . S
H662 C650 0.956 . S
H663 C650 0.961 . S
H664 C650 0.961 . S
H665 C651 0.958 . S
H666 C651 0.961 . S
H667 C651 0.960 . S
C668 C669 1.391 . S
C668 C670 1.394 . S
C668 H684 0.931 . S
C669 C668 1.391 . S
C669 C673 1.376 . S
C670 C668 1.394 . S
C670 C671 1.369 . S
C670 C674 1.531 . S
C671 C670 1.369 . S
C671 C672 1.410 . S
C671 C679 1.503 . S
C672 C671 1.410 . S
C672 C673 1.392 . S
C672 C675 1.511 . S
C673 C669 1.376 . S
C673 C672 1.392 . S
C673 H685 0.929 . S
C674 C670 1.531 . S
C674 H686 0.960 . S
C674 H687 0.962 . S
C674 H688 0.960 . S
C675 C672 1.511 . S
C675 H689 0.961 . S
C675 H690 0.961 . S
C675 H691 0.961 . S
C676 C677 1.370 . S
C676 C678 1.363 1_545 S
C676 H692 0.931 . S
C677 C676 1.370 . S
C677 C681 1.408 . S
C678 C676 1.363 1_565 S
C678 C679 1.370 . S
C678 C682 1.524 . S
C679 C671 1.503 . S
C679 C678 1.370 . S
C679 C680 1.403 1_565 S
C680 C679 1.403 1_545 S
C680 C681 1.404 . S
C680 C683 1.539 1_455 S
C681 C677 1.408 . S
C681 C680 1.404 . S
C681 H693 0.930 . S
C682 C678 1.524 . S
C682 H694 0.956 . S
C682 H695 0.961 . S
C682 H696 0.961 . S
C683 C680 1.539 1_655 S
C683 H697 0.958 1_545 S
C683 H698 0.961 . S
C683 H699 0.960 1_545 S
H684 C668 0.931 . S
H685 C673 0.929 . S
H686 C674 0.960 . S
H687 C674 0.962 . S
H688 C674 0.960 . S
H689 C675 0.961 . S
H690 C675 0.961 . S
H691 C675 0.961 . S
H692 C676 0.931 . S
H693 C681 0.930 . S
H694 C682 0.956 . S
H695 C682 0.961 . S
H696 C682 0.961 . S
H697 C683 0.958 1_565 S
H698 C683 0.961 . S
H699 C683 0.960 1_565 S
C700 C701 1.391 . S
C700 C702 1.394 . S
C700 H716 0.931 . S
C701 C700 1.391 . S
C701 C705 1.376 . S
C702 C700 1.394 . S
C702 C703 1.369 1_554 S
C702 C706 1.531 1_554 S
C703 C702 1.369 1_556 S
C703 C704 1.410 1_556 S
C703 C711 1.503 . S
C704 C703 1.410 1_554 S
C704 C705 1.392 . S
C704 C707 1.511 1_554 S
C705 C701 1.376 . S
C705 C704 1.392 . S
C705 H717 0.929 . S
C706 C702 1.531 1_556 S
C706 H718 0.960 . S
C706 H719 0.962 . S
C706 H720 0.960 1_556 S
C707 C704 1.511 1_556 S
C707 H721 0.984 . S
C707 H722 0.961 . S
C707 H723 0.961 . S
C708 C709 1.370 . S
C708 C710 1.363 . S
C708 H724 0.931 . S
C709 C708 1.370 . S
C709 C713 1.408 . S
C710 C708 1.363 . S
C710 C711 1.370 . S
C710 C714 1.524 . S
C711 C703 1.503 . S
C711 C710 1.370 . S
C711 C712 1.403 . S
C712 C711 1.403 . S
C712 C713 1.404 . S
C712 C715 1.539 . S
C713 C709 1.408 . S
C713 C712 1.404 . S
C713 H725 0.930 . S
C714 C710 1.524 . S
C714 H726 0.956 . S
C714 H727 0.961 . S
C714 H728 0.961 . S
C715 C712 1.539 . S
C715 H729 0.958 . S
C715 H730 0.961 . S
C715 H731 0.960 . S
H716 C700 0.931 . S
H717 C705 0.929 . S
H718 C706 0.960 . S
H719 C706 0.962 . S
H720 C706 0.960 1_554 S
H721 C707 0.984 . S
H722 C707 0.961 . S
H723 C707 0.961 . S
H724 C708 0.931 . S
H725 C713 0.930 . S
H726 C714 0.956 . S
H727 C714 0.961 . S
H728 C714 0.961 . S
H729 C715 0.958 . S
H730 C715 0.961 . S
H731 C715 0.960 . S
C732 C733 1.391 . S
C732 C734 1.394 . S
C732 H748 0.931 . S
C733 C732 1.391 . S
C733 C737 1.376 . S
C734 C732 1.394 . S
C734 C735 1.369 . S
C734 C738 1.531 . S
C735 C734 1.369 . S
C735 C736 1.410 . S
C735 C743 1.503 . S
C736 C735 1.410 . S
C736 C737 1.392 . S
C736 C739 1.511 . S
C737 C733 1.376 . S
C737 C736 1.392 . S
C737 H749 0.929 . S
C738 C734 1.531 . S
C738 H750 0.960 . S
C738 H751 0.962 . S
C738 H752 0.960 . S
C739 C736 1.511 . S
C739 H753 0.961 . S
C739 H754 0.961 . S
C739 H755 0.961 . S
C740 C741 1.370 . S
C740 C742 1.363 . S
C740 H756 0.931 . S
C741 C740 1.370 . S
C741 C745 1.408 . S
C742 C740 1.363 . S
C742 C743 1.370 . S
C742 C746 1.524 . S
C743 C735 1.503 . S
C743 C742 1.370 . S
C743 C744 1.403 . S
C744 C743 1.403 . S
C744 C745 1.404 . S
C744 C747 1.539 . S
C745 C741 1.408 . S
C745 C744 1.404 . S
C745 H757 0.930 . S
C746 C742 1.524 . S
C746 H758 0.956 . S
C746 H759 0.961 . S
C746 H760 0.961 . S
C747 C744 1.539 . S
C747 H761 0.958 . S
C747 H762 0.961 . S
C747 H763 0.960 . S
H748 C732 0.931 . S
H749 C737 0.929 . S
H750 C738 0.960 . S
H751 C738 0.962 . S
H752 C738 0.960 . S
H753 C739 0.961 . S
H754 C739 0.961 . S
H755 C739 0.961 . S
H756 C740 0.931 . S
H757 C745 0.930 . S
H758 C746 0.956 . S
H759 C746 0.961 . S
H760 C746 0.961 . S
H761 C747 0.958 . S
H762 C747 0.961 . S
H763 C747 0.960 . S
C764 C765 1.391 . S
C764 C766 1.394 . S
C764 H780 0.931 . S
C765 C764 1.391 . S
C765 C769 1.376 . S
C766 C764 1.394 . S
C766 C767 1.369 . S
C766 C770 1.531 . S
C767 C766 1.369 . S
C767 C768 1.410 . S
C767 C775 1.503 . S
C768 C767 1.410 . S
C768 C769 1.392 . S
C768 C771 1.511 . S
C769 C765 1.376 . S
C769 C768 1.392 . S
C769 H781 0.929 . S
C770 C766 1.531 . S
C770 H782 0.960 . S
C770 H783 0.962 . S
C770 H784 0.960 . S
C771 C768 1.511 . S
C771 H785 0.961 . S
C771 H786 0.961 . S
C771 H787 0.961 . S
C772 C773 1.370 . S
C772 C774 1.363 . S
C772 H788 0.931 . S
C773 C772 1.370 . S
C773 C777 1.408 . S
C774 C772 1.363 . S
C774 C775 1.370 . S
C774 C778 1.524 . S
C775 C767 1.503 . S
C775 C774 1.370 . S
C775 C776 1.403 . S
C776 C775 1.403 . S
C776 C777 1.404 . S
C776 C779 1.539 . S
C777 C773 1.408 . S
C777 C776 1.404 . S
C777 H789 0.930 . S
C778 C774 1.524 . S
C778 H790 0.956 . S
C778 H791 0.961 . S
C778 H792 0.961 . S
C779 C776 1.539 . S
C779 H793 0.958 . S
C779 H794 0.961 . S
C779 H795 0.960 . S
H780 C764 0.931 . S
H781 C769 0.929 . S
H782 C770 0.960 . S
H783 C770 0.962 . S
H784 C770 0.960 . S
H785 C771 0.961 . S
H786 C771 0.961 . S
H787 C771 0.961 . S
H788 C772 0.931 . S
H789 C777 0.930 . S
H790 C778 0.956 . S
H791 C778 0.961 . S
H792 C778 0.961 . S
H793 C779 0.958 . S
H794 C779 0.961 . S
H795 C779 0.960 . S
C796 C797 1.391 . S
C796 C798 1.394 . S
C796 H812 0.931 . S
C797 C796 1.391 . S
C797 C801 1.376 . S
C798 C796 1.394 . S
C798 C799 1.369 . S
C798 C802 1.531 . S
C799 C798 1.369 . S
C799 C800 1.410 . S
C799 C807 1.503 . S
C800 C799 1.410 . S
C800 C801 1.392 . S
C800 C803 1.511 . S
C801 C797 1.376 . S
C801 C800 1.392 . S
C801 H813 0.929 . S
C802 C798 1.531 . S
C802 H814 0.960 . S
C802 H815 0.962 . S
C802 H816 0.960 . S
C803 C800 1.511 . S
C803 H817 0.961 . S
C803 H818 0.961 . S
C803 H819 0.961 . S
C804 C805 1.370 . S
C804 C806 1.363 . S
C804 H820 0.931 . S
C805 C804 1.370 . S
C805 C809 1.408 . S
C806 C804 1.363 . S
C806 C807 1.370 . S
C806 C810 1.524 . S
C807 C799 1.503 . S
C807 C806 1.370 . S
C807 C808 1.403 . S
C808 C807 1.403 . S
C808 C809 1.404 . S
C808 C811 1.539 . S
C809 C805 1.408 . S
C809 C808 1.404 . S
C809 H821 0.930 . S
C810 C806 1.524 . S
C810 H822 0.956 . S
C810 H823 0.961 . S
C810 H824 0.961 . S
C811 C808 1.539 . S
C811 H825 0.958 . S
C811 H826 0.961 . S
C811 H827 0.960 . S
H812 C796 0.931 . S
H813 C801 0.929 . S
H814 C802 0.960 . S
H815 C802 0.962 . S
H816 C802 0.960 . S
H817 C803 0.961 . S
H818 C803 0.961 . S
H819 C803 0.961 . S
H820 C804 0.931 . S
H821 C809 0.930 . S
H822 C810 0.956 . S
H823 C810 0.961 . S
H824 C810 0.961 . S
H825 C811 0.958 . S
H826 C811 0.961 . S
H827 C811 0.960 . S
C828 C829 1.391 . S
C828 C830 1.394 . S
C828 H844 0.931 . S
C829 C828 1.391 . S
C829 C833 1.376 . S
C830 C828 1.394 . S
C830 C831 1.369 1_556 S
C830 C834 1.531 1_556 S
C831 C830 1.369 1_554 S
C831 C832 1.410 1_554 S
C831 C839 1.503 . S
C832 C831 1.410 1_556 S
C832 C833 1.392 . S
C832 C835 1.511 . S
C833 C829 1.376 . S
C833 C832 1.392 . S
C833 H845 0.929 . S
C834 C830 1.531 1_554 S
C834 H846 0.960 . S
C834 H847 0.962 . S
C834 H848 0.960 . S
C835 C832 1.511 . S
C835 H849 0.961 . S
C835 H850 0.961 1_556 S
C835 H851 0.961 . S
C836 C837 1.370 . S
C836 C838 1.363 . S
C836 H852 0.931 . S
C837 C836 1.370 . S
C837 C841 1.408 . S
C838 C836 1.363 . S
C838 C839 1.370 . S
C838 C842 1.524 . S
C839 C831 1.503 . S
C839 C838 1.370 . S
C839 C840 1.403 . S
C840 C839 1.403 . S
C840 C841 1.404 . S
C840 C843 1.539 . S
C841 C837 1.408 . S
C841 C840 1.404 . S
C841 H853 0.930 . S
C842 C838 1.524 . S
C842 H854 0.956 . S
C842 H855 0.961 . S
C842 H856 0.961 . S
C843 C840 1.539 . S
C843 H857 0.958 . S
C843 H858 0.961 . S
C843 H859 0.960 . S
H844 C828 0.931 . S
H845 C833 0.929 . S
H846 C834 0.960 . S
H847 C834 0.962 . S
H848 C834 0.960 . S
H849 C835 0.961 . S
H850 C835 0.961 1_554 S
H851 C835 0.961 . S
H852 C836 0.931 . S
H853 C841 0.930 . S
H854 C842 0.956 . S
H855 C842 0.961 . S
H856 C842 0.961 . S
H857 C843 0.958 . S
H858 C843 0.961 . S
H859 C843 0.960 . S
C860 C861 1.391 . S
C860 C862 1.394 . S
C860 H876 0.931 . S
C861 C860 1.391 . S
C861 C865 1.376 . S
C862 C860 1.394 . S
C862 C863 1.369 . S
C862 C866 1.531 . S
C863 C862 1.369 . S
C863 C864 1.410 . S
C863 C871 1.503 . S
C864 C863 1.410 . S
C864 C865 1.392 . S
C864 C867 1.511 . S
C865 C861 1.376 . S
C865 C864 1.392 . S
C865 H877 0.929 . S
C866 C862 1.531 . S
C866 H878 0.960 . S
C866 H879 0.962 . S
C866 H880 0.960 . S
C867 C864 1.511 . S
C867 H881 0.961 . S
C867 H882 0.961 . S
C867 H883 0.961 . S
C868 C869 1.370 . S
C868 C870 1.363 . S
C868 H884 0.931 . S
C869 C868 1.370 . S
C869 C873 1.408 . S
C870 C868 1.363 . S
C870 C871 1.370 . S
C870 C874 1.524 . S
C871 C863 1.503 . S
C871 C870 1.370 . S
C871 C872 1.403 . S
C872 C871 1.403 . S
C872 C873 1.404 . S
C872 C875 1.539 . S
C873 C869 1.408 . S
C873 C872 1.404 . S
C873 H885 0.930 . S
C874 C870 1.524 . S
C874 H886 0.956 . S
C874 H887 0.961 . S
C874 H888 0.961 . S
C875 C872 1.539 . S
C875 H889 0.958 . S
C875 H890 0.961 . S
C875 H891 0.960 . S
H876 C860 0.931 . S
H877 C865 0.929 . S
H878 C866 0.960 . S
H879 C866 0.962 . S
H880 C866 0.960 . S
H881 C867 0.961 . S
H882 C867 0.961 . S
H883 C867 0.961 . S
H884 C868 0.931 . S
H885 C873 0.930 . S
H886 C874 0.956 . S
H887 C874 0.961 . S
H888 C874 0.961 . S
H889 C875 0.958 . S
H890 C875 0.961 . S
H891 C875 0.960 . S
C892 C893 1.391 . S
C892 C894 1.394 . S
C892 H908 0.931 . S
C893 C892 1.391 . S
C893 C897 1.376 . S
C894 C892 1.394 . S
C894 C895 1.369 . S
C894 C898 1.531 . S
C895 C894 1.369 . S
C895 C896 1.410 . S
C895 C903 1.503 . S
C896 C895 1.410 . S
C896 C897 1.392 . S
C896 C899 1.511 . S
C897 C893 1.376 . S
C897 C896 1.392 . S
C897 H909 0.929 . S
C898 C894 1.531 . S
C898 H910 0.960 . S
C898 H911 0.962 . S
C898 H912 0.960 . S
C899 C896 1.511 . S
C899 H913 0.961 . S
C899 H914 0.961 . S
C899 H915 0.961 . S
C900 C901 1.370 . S
C900 C902 1.363 . S
C900 H916 0.931 . S
C901 C900 1.370 . S
C901 C905 1.408 . S
C902 C900 1.363 . S
C902 C903 1.370 . S
C902 C906 1.524 . S
C903 C895 1.503 . S
C903 C902 1.370 . S
C903 C904 1.403 . S
C904 C903 1.403 . S
C904 C905 1.404 . S
C904 C907 1.539 . S
C905 C901 1.408 . S
C905 C904 1.404 . S
C905 H917 0.930 . S
C906 C902 1.524 . S
C906 H918 0.956 . S
C906 H919 0.961 . S
C906 H920 0.961 . S
C907 C904 1.539 . S
C907 H921 0.958 . S
C907 H922 0.961 . S
C907 H923 0.960 . S
H908 C892 0.931 . S
H909 C897 0.929 . S
H910 C898 0.960 . S
H911 C898 0.962 . S
H912 C898 0.960 . S
H913 C899 0.961 . S
H914 C899 0.961 . S
H915 C899 0.961 . S
H916 C900 0.931 . S
H917 C905 0.930 . S
H918 C906 0.956 . S
H919 C906 0.961 . S
H920 C906 0.961 . S
H921 C907 0.958 . S
H922 C907 0.961 . S
H923 C907 0.960 . S
C924 C925 1.391 . S
C924 C926 1.394 . S
C924 H940 0.931 . S
C925 C924 1.391 . S
C925 C929 1.376 . S
C926 C924 1.394 . S
C926 C927 1.369 . S
C926 C930 1.531 . S
C927 C926 1.369 . S
C927 C928 1.410 . S
C927 C935 1.503 . S
C928 C927 1.410 . S
C928 C929 1.392 . S
C928 C931 1.511 . S
C929 C925 1.376 . S
C929 C928 1.392 . S
C929 H941 0.929 . S
C930 C926 1.531 . S
C930 H942 0.960 . S
C930 H943 0.962 . S
C930 H944 0.960 . S
C931 C928 1.511 . S
C931 H945 0.961 . S
C931 H946 0.961 . S
C931 H947 0.961 . S
C932 C933 1.370 . S
C932 C934 1.363 . S
C932 H948 0.931 . S
C933 C932 1.370 . S
C933 C937 1.408 . S
C934 C932 1.363 . S
C934 C935 1.370 . S
C934 C938 1.524 . S
C935 C927 1.503 . S
C935 C934 1.370 . S
C935 C936 1.403 . S
C936 C935 1.403 . S
C936 C937 1.404 . S
C936 C939 1.539 . S
C937 C933 1.408 . S
C937 C936 1.404 . S
C937 H949 0.930 . S
C938 C934 1.524 . S
C938 H950 0.956 . S
C938 H951 0.961 . S
C938 H952 0.961 . S
C939 C936 1.539 . S
C939 H953 0.958 . S
C939 H954 0.961 . S
C939 H955 0.960 . S
H940 C924 0.931 . S
H941 C929 0.929 . S
H942 C930 0.960 . S
H943 C930 0.962 . S
H944 C930 0.960 . S
H945 C931 0.961 . S
H946 C931 0.961 . S
H947 C931 0.961 . S
H948 C932 0.931 . S
H949 C937 0.930 . S
H950 C938 0.956 . S
H951 C938 0.961 . S
H952 C938 0.961 . S
H953 C939 0.958 . S
H954 C939 0.961 . S
H955 C939 0.960 . S
C197 C111 1.478 . S
C189 C4 1.533 . S
C229 C129 1.357 . S
C221 C17 1.384 1_655 S
C253 C34 1.354 . S
C261 C153 1.252 . S
C293 C183 1.276 1_655 S
C285 C47 1.420 . S
C325 C171 1.302 . S
C317 C56 1.392 . S
C349 C69 1.386 . S
C357 C124 1.392 . S
C381 C86 1.531 . S
C389 C144 1.450 . S
C413 C99 1.397 . S
C421 C149 1.272 . S
C445 C95 1.373 . S
C453 C165 1.385 . S
C477 C73 1.430 . S
C485 C120 1.293 . S
C517 C187 1.378 . S
C509 C43 1.375 . S
C549 C132 1.264 . S
C541 C21 1.407 . S
C573 C30 1.504 . S
C581 C150 1.482 . S
C605 C8 1.333 . S
C613 C108 1.225 . S
C645 C128 1.299 . S
C637 C82 1.307 . S
C677 C174 1.418 . S
C669 C60 1.564 . S
C709 C170 1.323 . S
C701 C9 1.587 . S
C741 C123 1.394 . S
C733 C22 1.461 . S
C765 C35 1.574 . S
C773 C145 1.304 . S
C797 C48 1.496 . S
C805 C166 1.428 . S
C837 C107 1.400 . S
C829 C61 1.516 . S
C861 C74 1.548 . S
C869 C141 1.500 . S
C901 C162 1.376 . S
C893 C87 1.531 . S
C933 C186 1.472 . S
C925 C100 1.534 . S
