# Generated by pormake.
# Topology ctn, (3,4)-cn, num edge types: 1
# Building blocks:
#     Node 0, Type 0, BuildingBlock: ESEHIV_clean_linker_0, # of connection points: 3
#     Node 1, Type 0, BuildingBlock: ESEHIV_clean_linker_0, # of connection points: 3
#     Node 2, Type 0, BuildingBlock: ESEHIV_clean_linker_0, # of connection points: 3
#     Node 3, Type 0, BuildingBlock: ESEHIV_clean_linker_0, # of connection points: 3
#     Node 4, Type 0, BuildingBlock: ESEHIV_clean_linker_0, # of connection points: 3
#     Node 5, Type 0, BuildingBlock: ESEHIV_clean_linker_0, # of connection points: 3
#     Node 6, Type 0, BuildingBlock: ESEHIV_clean_linker_0, # of connection points: 3
#     Node 7, Type 0, BuildingBlock: ESEHIV_clean_linker_0, # of connection points: 3
#     Node 8, Type 0, BuildingBlock: ESEHIV_clean_linker_0, # of connection points: 3
#     Node 9, Type 0, BuildingBlock: ESEHIV_clean_linker_0, # of connection points: 3
#     Node 10, Type 0, BuildingBlock: ESEHIV_clean_linker_0, # of connection points: 3
#     Node 11, Type 0, BuildingBlock: ESEHIV_clean_linker_0, # of connection points: 3
#     Node 12, Type 0, BuildingBlock: ESEHIV_clean_linker_0, # of connection points: 3
#     Node 13, Type 0, BuildingBlock: ESEHIV_clean_linker_0, # of connection points: 3
#     Node 14, Type 0, BuildingBlock: ESEHIV_clean_linker_0, # of connection points: 3
#     Node 15, Type 0, BuildingBlock: ESEHIV_clean_linker_0, # of connection points: 3
#     Node 16, Type 1, BuildingBlock: AZAVOO_clean_sbu_0, # of connection points: 4
#     Node 17, Type 1, BuildingBlock: AZAVOO_clean_sbu_0, # of connection points: 4
#     Node 18, Type 1, BuildingBlock: AZAVOO_clean_sbu_0, # of connection points: 4
#     Node 19, Type 1, BuildingBlock: AZAVOO_clean_sbu_0, # of connection points: 4
#     Node 20, Type 1, BuildingBlock: AZAVOO_clean_sbu_0, # of connection points: 4
#     Node 21, Type 1, BuildingBlock: AZAVOO_clean_sbu_0, # of connection points: 4
#     Node 22, Type 1, BuildingBlock: AZAVOO_clean_sbu_0, # of connection points: 4
#     Node 23, Type 1, BuildingBlock: AZAVOO_clean_sbu_0, # of connection points: 4
#     Node 24, Type 1, BuildingBlock: AZAVOO_clean_sbu_0, # of connection points: 4
#     Node 25, Type 1, BuildingBlock: AZAVOO_clean_sbu_0, # of connection points: 4
#     Node 26, Type 1, BuildingBlock: AZAVOO_clean_sbu_0, # of connection points: 4
#     Node 27, Type 1, BuildingBlock: AZAVOO_clean_sbu_0, # of connection points: 4
#     Edge 28, Type (0, 1), BuildingBlock: MIFKUJ_clean_linker_0, # of connection points: 2
#     Edge 29, Type (0, 1), BuildingBlock: MIFKUJ_clean_linker_0, # of connection points: 2
#     Edge 30, Type (0, 1), BuildingBlock: MIFKUJ_clean_linker_0, # of connection points: 2
#     Edge 31, Type (0, 1), BuildingBlock: MIFKUJ_clean_linker_0, # of connection points: 2
#     Edge 32, Type (0, 1), BuildingBlock: MIFKUJ_clean_linker_0, # of connection points: 2
#     Edge 33, Type (0, 1), BuildingBlock: MIFKUJ_clean_linker_0, # of connection points: 2
#     Edge 34, Type (0, 1), BuildingBlock: MIFKUJ_clean_linker_0, # of connection points: 2
#     Edge 35, Type (0, 1), BuildingBlock: MIFKUJ_clean_linker_0, # of connection points: 2
#     Edge 36, Type (0, 1), BuildingBlock: MIFKUJ_clean_linker_0, # of connection points: 2
#     Edge 37, Type (0, 1), BuildingBlock: MIFKUJ_clean_linker_0, # of connection points: 2
#     Edge 38, Type (0, 1), BuildingBlock: MIFKUJ_clean_linker_0, # of connection points: 2
#     Edge 39, Type (0, 1), BuildingBlock: MIFKUJ_clean_linker_0, # of connection points: 2
#     Edge 40, Type (0, 1), BuildingBlock: MIFKUJ_clean_linker_0, # of connection points: 2
#     Edge 41, Type (0, 1), BuildingBlock: MIFKUJ_clean_linker_0, # of connection points: 2
#     Edge 42, Type (0, 1), BuildingBlock: MIFKUJ_clean_linker_0, # of connection points: 2
#     Edge 43, Type (0, 1), BuildingBlock: MIFKUJ_clean_linker_0, # of connection points: 2
#     Edge 44, Type (0, 1), BuildingBlock: MIFKUJ_clean_linker_0, # of connection points: 2
#     Edge 45, Type (0, 1), BuildingBlock: MIFKUJ_clean_linker_0, # of connection points: 2
#     Edge 46, Type (0, 1), BuildingBlock: MIFKUJ_clean_linker_0, # of connection points: 2
#     Edge 47, Type (0, 1), BuildingBlock: MIFKUJ_clean_linker_0, # of connection points: 2
#     Edge 48, Type (0, 1), BuildingBlock: MIFKUJ_clean_linker_0, # of connection points: 2
#     Edge 49, Type (0, 1), BuildingBlock: MIFKUJ_clean_linker_0, # of connection points: 2
#     Edge 50, Type (0, 1), BuildingBlock: MIFKUJ_clean_linker_0, # of connection points: 2
#     Edge 51, Type (0, 1), BuildingBlock: MIFKUJ_clean_linker_0, # of connection points: 2
#     Edge 52, Type (0, 1), BuildingBlock: MIFKUJ_clean_linker_0, # of connection points: 2
#     Edge 53, Type (0, 1), BuildingBlock: MIFKUJ_clean_linker_0, # of connection points: 2
#     Edge 54, Type (0, 1), BuildingBlock: MIFKUJ_clean_linker_0, # of connection points: 2
#     Edge 55, Type (0, 1), BuildingBlock: MIFKUJ_clean_linker_0, # of connection points: 2
#     Edge 56, Type (0, 1), BuildingBlock: MIFKUJ_clean_linker_0, # of connection points: 2
#     Edge 57, Type (0, 1), BuildingBlock: MIFKUJ_clean_linker_0, # of connection points: 2
#     Edge 58, Type (0, 1), BuildingBlock: MIFKUJ_clean_linker_0, # of connection points: 2
#     Edge 59, Type (0, 1), BuildingBlock: MIFKUJ_clean_linker_0, # of connection points: 2
#     Edge 60, Type (0, 1), BuildingBlock: MIFKUJ_clean_linker_0, # of connection points: 2
#     Edge 61, Type (0, 1), BuildingBlock: MIFKUJ_clean_linker_0, # of connection points: 2
#     Edge 62, Type (0, 1), BuildingBlock: MIFKUJ_clean_linker_0, # of connection points: 2
#     Edge 63, Type (0, 1), BuildingBlock: MIFKUJ_clean_linker_0, # of connection points: 2
#     Edge 64, Type (0, 1), BuildingBlock: MIFKUJ_clean_linker_0, # of connection points: 2
#     Edge 65, Type (0, 1), BuildingBlock: MIFKUJ_clean_linker_0, # of connection points: 2
#     Edge 66, Type (0, 1), BuildingBlock: MIFKUJ_clean_linker_0, # of connection points: 2
#     Edge 67, Type (0, 1), BuildingBlock: MIFKUJ_clean_linker_0, # of connection points: 2
#     Edge 68, Type (0, 1), BuildingBlock: MIFKUJ_clean_linker_0, # of connection points: 2
#     Edge 69, Type (0, 1), BuildingBlock: MIFKUJ_clean_linker_0, # of connection points: 2
#     Edge 70, Type (0, 1), BuildingBlock: MIFKUJ_clean_linker_0, # of connection points: 2
#     Edge 71, Type (0, 1), BuildingBlock: MIFKUJ_clean_linker_0, # of connection points: 2
#     Edge 72, Type (0, 1), BuildingBlock: MIFKUJ_clean_linker_0, # of connection points: 2
#     Edge 73, Type (0, 1), BuildingBlock: MIFKUJ_clean_linker_0, # of connection points: 2
#     Edge 74, Type (0, 1), BuildingBlock: MIFKUJ_clean_linker_0, # of connection points: 2
#     Edge 75, Type (0, 1), BuildingBlock: MIFKUJ_clean_linker_0, # of connection points: 2
# Relax obj value: 0.001
# Max RMSD: 0.043
# Mean RMSD: 0.022
data_MOF--net-ctn--node1-AZAVOO_clean_sbu_0--node2-ESEHIV_clean_linker_0--edge1-MIFKUJ_clean_linker_0
_symmetry_space_group_name_H-M    P1
_symmetry_Int_Tables_number       1
_symmetry_cell_setting            triclinic
loop_
_symmetry_equiv_pos_as_xyz
'x, y, z'
_cell_length_a     67.545444
_cell_length_b     68.532175
_cell_length_c     68.394945
_cell_angle_alpha  90.02567
_cell_angle_beta   92.774327
_cell_angle_gamma 92.95456
loop_
_atom_site_label
_atom_site_type_symbol
_atom_site_fract_x
_atom_site_fract_y
_atom_site_fract_z
_atom_type_partial_charge
H0 H 0.01111 0.04549 0.02131 0.0
H1 H 0.03811 0.99192 0.03687 0.0
H2 H 0.05838 0.02534 0.98788 0.0
C3 C 0.02147 0.03446 0.01826 0.0
C4 C 0.03415 0.03717 0.00267 0.0
C5 C 0.02273 0.01818 0.03066 0.0
C6 C 0.03712 0.00458 0.02745 0.0
C7 C 0.05022 0.00717 0.01219 0.0
C8 C 0.04837 0.02331 0.99968 0.0
H9 H 0.3123 0.69908 0.25762 0.0
H10 H 0.3366 0.74676 0.22356 0.0
H11 H 0.28159 0.71681 0.2047 0.0
C12 C 0.31164 0.70853 0.24493 0.0
C13 C 0.29544 0.7061 0.23135 0.0
C14 C 0.32661 0.72328 0.24246 0.0
C15 C 0.32499 0.73568 0.22611 0.0
C16 C 0.30879 0.73345 0.21251 0.0
C17 C 0.29407 0.71866 0.21524 0.0
H18 H 0.97335 0.50573 0.06993 0.0
H19 H 0.00815 0.45833 0.05324 0.0
H20 H 0.95594 0.47191 0.0183 0.0
C21 C 0.97586 0.49397 0.05989 0.0
C22 C 0.96271 0.49034 0.04356 0.0
C23 C 0.99211 0.48231 0.06353 0.0
C24 C 0.99537 0.46707 0.05056 0.0
C25 C 0.9826 0.46337 0.03398 0.0
C26 C 0.96629 0.4751 0.03062 0.0
H27 H 0.69529 0.79028 0.21514 0.0
H28 H 0.74837 0.81934 0.19516 0.0
H29 H 0.71648 0.84545 0.24051 0.0
C30 C 0.70579 0.80279 0.21568 0.0
C31 C 0.70376 0.81792 0.22924 0.0
C32 C 0.72197 0.80316 0.20355 0.0
C33 C 0.73604 0.81897 0.20476 0.0
C34 C 0.73415 0.83438 0.21797 0.0
C35 C 0.71791 0.83375 0.2301 0.0
H36 H 0.01887 0.96527 0.47088 0.0
H37 H 0.05441 0.01633 0.45523 0.0
H38 H 0.07122 0.98306 0.5061 0.0
C39 C 0.03148 0.97544 0.47387 0.0
C40 C 0.04457 0.97229 0.49003 0.0
C41 C 0.03485 0.99133 0.46125 0.0
C42 C 0.05148 0.0042 0.46503 0.0
C43 C 0.06457 0.00132 0.48123 0.0
C44 C 0.061 0.98541 0.4937 0.0
H45 H 0.17943 0.73246 0.77891 0.0
H46 H 0.22745 0.69825 0.80042 0.0
H47 H 0.19447 0.68143 0.74727 0.0
C48 C 0.18837 0.71987 0.77766 0.0
C49 C 0.18489 0.70719 0.76155 0.0
C50 C 0.20373 0.71684 0.79176 0.0
C51 C 0.21561 0.70079 0.7896 0.0
C52 C 0.21257 0.6881 0.77349 0.0
C53 C 0.19716 0.69141 0.75952 0.0
H54 H 0.93749 0.5307 0.485 0.0
H55 H 0.99236 0.54472 0.45749 0.0
H56 H 0.95587 0.49435 0.4386 0.0
C57 C 0.94812 0.52749 0.47423 0.0
C58 C 0.94463 0.51099 0.46209 0.0
C59 C 0.96527 0.53981 0.47267 0.0
C60 C 0.97902 0.5354 0.45873 0.0
C61 C 0.97571 0.51908 0.44635 0.0
C62 C 0.95846 0.50698 0.44809 0.0
H63 H 0.76957 0.78175 0.80732 0.0
H64 H 0.80273 0.80328 0.75906 0.0
H65 H 0.82549 0.75793 0.79592 0.0
C66 C 0.78264 0.78157 0.79875 0.0
C67 C 0.7973 0.76831 0.80357 0.0
C68 C 0.78457 0.79449 0.78293 0.0
C69 C 0.80116 0.79348 0.77136 0.0
C70 C 0.81586 0.78007 0.77567 0.0
C71 C 0.81383 0.76768 0.79193 0.0
H72 H 0.26899 0.28486 0.30166 0.0
H73 H 0.30183 0.30877 0.25424 0.0
H74 H 0.31982 0.25611 0.28263 0.0
C75 C 0.28113 0.28414 0.29195 0.0
C76 C 0.29426 0.26892 0.29409 0.0
C77 C 0.28355 0.29847 0.27747 0.0
C78 C 0.29945 0.29744 0.26505 0.0
C79 C 0.31264 0.28224 0.26675 0.0
C80 C 0.30997 0.26808 0.28141 0.0
H81 H 0.47378 0.00488 0.57004 0.0
H82 H 0.50518 0.95513 0.55269 0.0
H83 H 0.45337 0.97156 0.51893 0.0
C84 C 0.47538 0.99279 0.5601 0.0
C85 C 0.46167 0.98971 0.54412 0.0
C86 C 0.49116 0.98041 0.56331 0.0
C87 C 0.49324 0.96495 0.55019 0.0
C88 C 0.47958 0.96157 0.53427 0.0
C89 C 0.46374 0.97391 0.53141 0.0
H90 H 0.1994 0.28677 0.71534 0.0
H91 H 0.2508 0.3177 0.69371 0.0
H92 H 0.22293 0.33949 0.744 0.0
C93 C 0.21021 0.29903 0.71631 0.0
C94 C 0.20923 0.31306 0.73118 0.0
C95 C 0.22516 0.30064 0.70275 0.0
C96 C 0.23924 0.31645 0.70416 0.0
C97 C 0.23862 0.33052 0.71904 0.0
C98 C 0.2235 0.32873 0.73244 0.0
H99 H 0.81622 0.1967 0.75082 0.0
H100 H 0.83508 0.2489 0.72031 0.0
H101 H 0.78264 0.21535 0.69984 0.0
C102 C 0.81412 0.20706 0.73903 0.0
C103 C 0.79773 0.20428 0.7257 0.0
C104 C 0.82771 0.22315 0.73726 0.0
C105 C 0.82479 0.23639 0.72181 0.0
C106 C 0.80869 0.23354 0.70819 0.0
C107 C 0.79517 0.21753 0.71028 0.0
H108 H 0.49972 0.53987 0.51719 0.0
H109 H 0.53195 0.4893 0.53306 0.0
H110 H 0.55076 0.52613 0.48577 0.0
C111 C 0.51158 0.53024 0.51468 0.0
C112 C 0.52454 0.53456 0.49964 0.0
C113 C 0.51427 0.51408 0.52696 0.0
C114 C 0.52996 0.50194 0.52379 0.0
C115 C 0.54317 0.50606 0.50886 0.0
C116 C 0.54022 0.52235 0.49677 0.0
H117 H 0.5159 0.46193 0.96665 0.0
H118 H 0.5526 0.51361 0.95628 0.0
H119 H 0.56817 0.475 0.00364 0.0
C120 C 0.52874 0.47149 0.97064 0.0
C121 C 0.54137 0.46673 0.98667 0.0
C122 C 0.53281 0.48831 0.95952 0.0
C123 C 0.54968 0.50043 0.96464 0.0
C124 C 0.56257 0.49587 0.98058 0.0
C125 C 0.55815 0.47902 0.99163 0.0
H126 H 0.6838 0.23629 0.27694 0.0
H127 H 0.73569 0.20776 0.29845 0.0
H128 H 0.70421 0.18719 0.24573 0.0
C129 C 0.69411 0.22479 0.27575 0.0
C130 C 0.69181 0.21164 0.2599 0.0
C131 C 0.71004 0.22369 0.28962 0.0
C132 C 0.72368 0.20912 0.28752 0.0
C133 C 0.72183 0.196 0.27168 0.0
C134 C 0.70576 0.19727 0.25798 0.0
H135 H 0.43948 0.0238 0.9834 0.0
H136 H 0.48987 0.04319 0.95104 0.0
H137 H 0.45738 0.98941 0.93546 0.0
C138 C 0.44924 0.02193 0.97152 0.0
C139 C 0.44616 0.0054 0.95938 0.0
C140 C 0.46507 0.03566 0.96882 0.0
C141 C 0.47802 0.03243 0.95378 0.0
C142 C 0.47559 0.01567 0.94185 0.0
C143 C 0.4595 0.00229 0.94467 0.0
Mg144 Mg 0.24208 0.84988 0.00799 0.0
O145 O 0.27108 0.86721 0.00077 0.0
O146 O 0.29492 0.84571 0.0013 0.0
Mg147 Mg 0.28174 0.81534 0.00813 0.0
C148 C 0.28917 0.86307 0.99902 0.0
C149 C 0.21191 0.88017 0.01309 0.0
O150 O 0.21301 0.87059 0.02971 0.0
O151 O 0.23948 0.83706 0.97705 0.0
O152 O 0.26369 0.81593 0.97879 0.0
O153 O 0.24929 0.85431 0.04 0.0
O154 O 0.25813 0.82902 0.02312 0.0
C155 C 0.2495 0.82399 0.96937 0.0
C156 C 0.25857 0.83828 0.03951 0.0
O157 O 0.22298 0.87545 0.99951 0.0
Mg158 Mg 0.14961 0.50667 0.27256 0.0
O159 O 0.13155 0.5053 0.24298 0.0
O160 O 0.15316 0.50999 0.21941 0.0
Mg161 Mg 0.18459 0.51165 0.23333 0.0
C162 C 0.13547 0.50729 0.22497 0.0
C163 C 0.12563 0.49585 0.30762 0.0
O164 O 0.144 0.49848 0.31471 0.0
O165 O 0.15896 0.47543 0.26824 0.0
O166 O 0.18036 0.48006 0.24447 0.0
O167 O 0.14944 0.53939 0.27284 0.0
O168 O 0.17279 0.52268 0.26018 0.0
C169 C 0.17125 0.46895 0.25649 0.0
C170 C 0.16571 0.53933 0.2636 0.0
O171 O 0.12231 0.49708 0.28921 0.0
Mg172 Mg 0.77433 0.64955 0.02518 0.0
O173 O 0.74442 0.63177 0.02083 0.0
O174 O 0.72113 0.6538 0.0179 0.0
Mg175 Mg 0.73508 0.68468 0.02209 0.0
C176 C 0.7263 0.63612 0.01807 0.0
C177 C 0.79522 0.61063 0.0323 0.0
O178 O 0.78661 0.61276 0.04892 0.0
O179 O 0.77285 0.65867 0.9929 0.0
O180 O 0.75065 0.68174 0.99325 0.0
O181 O 0.7723 0.64971 0.05789 0.0
O182 O 0.75997 0.67203 0.03834 0.0
C183 C 0.7632 0.67207 0.98437 0.0
C184 C 0.76242 0.6653 0.05578 0.0
O185 O 0.7922 0.62294 0.01869 0.0
Mg186 Mg 0.90495 0.03287 0.24069 0.0
O187 O 0.88656 0.00379 0.23686 0.0
O188 O 0.90739 0.98056 0.23051 0.0
Mg189 Mg 0.93887 0.99445 0.2306 0.0
C190 C 0.88992 0.98602 0.23313 0.0
C191 C 0.88046 0.06567 0.25598 0.0
O192 O 0.89813 0.07433 0.25444 0.0
O193 O 0.91637 0.02366 0.27127 0.0
O194 O 0.93732 0.00095 0.26346 0.0
O195 O 0.90219 0.03805 0.20844 0.0
O196 O 0.92668 0.02271 0.22313 0.0
C197 C 0.92909 0.01112 0.27616 0.0
C198 C 0.91813 0.02853 0.2071 0.0
O199 O 0.87819 0.04749 0.25224 0.0
Mg200 Mg 0.27748 0.1547 0.51746 0.0
O201 O 0.2476 0.1367 0.5141 0.0
O202 O 0.22356 0.15804 0.51369 0.0
Mg203 Mg 0.23764 0.18902 0.51417 0.0
C204 C 0.22926 0.14058 0.51338 0.0
C205 C 0.31381 0.13155 0.51335 0.0
O206 O 0.32041 0.14981 0.51574 0.0
O207 O 0.27537 0.1624 0.48499 0.0
O208 O 0.25104 0.18341 0.48441 0.0
O209 O 0.27536 0.15572 0.55002 0.0
O210 O 0.26376 0.17793 0.52978 0.0
C211 C 0.26398 0.17398 0.4758 0.0
C212 C 0.26595 0.17156 0.5474 0.0
O213 O 0.29515 0.12781 0.51234 0.0
Mg214 Mg 0.40281 0.53329 0.73948 0.0
O215 O 0.38646 0.5031 0.73768 0.0
O216 O 0.40887 0.4811 0.7322 0.0
Mg217 Mg 0.43938 0.49701 0.73022 0.0
C218 C 0.39105 0.48549 0.73491 0.0
C219 C 0.36848 0.56033 0.74037 0.0
O220 O 0.37761 0.56512 0.7244 0.0
O221 O 0.41572 0.52622 0.77024 0.0
O222 O 0.43919 0.50601 0.76257 0.0
O223 O 0.39867 0.53638 0.70692 0.0
O224 O 0.4247 0.52364 0.7216 0.0
C225 C 0.43035 0.51582 0.77512 0.0
C226 C 0.41519 0.52788 0.70555 0.0
O227 O 0.37537 0.54692 0.75119 0.0
Mg228 Mg 0.73979 0.35496 0.50726 0.0
O229 O 0.7685 0.37323 0.50103 0.0
O230 O 0.79302 0.35248 0.50168 0.0
Mg231 Mg 0.78056 0.32166 0.5078 0.0
C232 C 0.78678 0.36967 0.49958 0.0
C233 C 0.70902 0.38491 0.51198 0.0
O234 O 0.71003 0.37551 0.5287 0.0
O235 O 0.73838 0.34267 0.47611 0.0
O236 O 0.76318 0.3222 0.47807 0.0
O237 O 0.74599 0.3589 0.5395 0.0
O238 O 0.75609 0.33432 0.52242 0.0
C239 C 0.74895 0.33003 0.46847 0.0
C240 C 0.75577 0.34319 0.53897 0.0
O241 O 0.7203 0.38017 0.49858 0.0
Mg242 Mg 0.6533 0.00326 0.76926 0.0
O243 O 0.63495 0.00172 0.73987 0.0
O244 O 0.65657 0.00336 0.71613 0.0
Mg245 Mg 0.6881 0.00583 0.72975 0.0
C246 C 0.63879 0.00195 0.72174 0.0
C247 C 0.62815 -0.00015 0.80434 0.0
O248 O 0.64551 0.00748 0.81075 0.0
O249 O 0.66169 0.97147 0.76571 0.0
O250 O 0.68338 0.97483 0.74203 0.0
O251 O 0.65404 0.03595 0.76871 0.0
O252 O 0.67675 0.01828 0.75623 0.0
C253 C 0.6739 0.96432 0.75427 0.0
C254 C 0.67016 0.03523 0.75931 0.0
O255 O 0.62587 0.99505 0.78638 0.0
Mg256 Mg 0.03379 0.25961 0.8988 0.0
O257 O 0.00449 0.25355 0.88055 0.0
O258 O 0.98199 0.24268 0.90146 0.0
Mg259 Mg 0.99645 0.24128 0.93223 0.0
C260 C 0.98685 0.24739 0.88421 0.0
C261 C 0.06554 0.28282 0.87744 0.0
O262 O 0.07301 0.28155 0.89547 0.0
O263 O 0.02178 0.28732 0.91128 0.0
O264 O 0.00044 0.27484 0.93251 0.0
O265 O 0.04254 0.22913 0.89436 0.0
O266 O 0.02503 0.23834 0.91888 0.0
C267 C 0.00934 0.28946 0.9245 0.0
C268 C 0.03276 0.22445 0.90962 0.0
O269 O 0.04795 0.27595 0.8736 0.0
Mg270 Mg 0.53488 0.75837 0.40036 0.0
O271 O 0.50487 0.75183 0.38364 0.0
O272 O 0.48384 0.73828 0.40467 0.0
Mg273 Mg 0.49938 0.73868 0.43505 0.0
C274 C 0.48792 0.74403 0.38751 0.0
C275 C 0.56273 0.78541 0.37718 0.0
O276 O 0.57009 0.7876 0.39523 0.0
O277 O 0.52293 0.78572 0.41359 0.0
O278 O 0.50158 0.77236 0.43441 0.0
O279 O 0.54314 0.72773 0.39529 0.0
O280 O 0.52784 0.73731 0.42118 0.0
C281 C 0.51009 0.78728 0.42655 0.0
C282 C 0.53454 0.7233 0.41132 0.0
O283 O 0.54687 0.77484 0.37415 0.0
Mg284 Mg 0.98457 0.75095 0.60054 0.0
O285 O 0.01372 0.74451 0.61773 0.0
O286 O 0.03571 0.73699 0.5959 0.0
Mg287 Mg 0.02115 0.73889 0.56518 0.0
C288 C 0.03101 0.73954 0.61355 0.0
C289 C 0.96847 0.75174 0.64209 0.0
O290 O 0.97407 0.73372 0.64086 0.0
O291 O 0.99774 0.78076 0.59136 0.0
O292 O 0.01917 0.7721 0.56936 0.0
O293 O 0.97491 0.71931 0.60092 0.0
O294 O 0.99199 0.73314 0.57748 0.0
C295 C 0.01072 0.78514 0.57887 0.0
C296 C 0.98401 0.71752 0.58485 0.0
O297 O 0.97175 0.76338 0.628 0.0
Mg298 Mg 0.48855 0.24497 0.09936 0.0
O299 O 0.51771 0.23928 0.11679 0.0
O300 O 0.53974 0.23231 0.09477 0.0
Mg301 Mg 0.52467 0.23181 0.06404 0.0
C302 C 0.53518 0.23501 0.11245 0.0
C303 C 0.45858 0.26577 0.12256 0.0
O304 O 0.45158 0.26664 0.10433 0.0
O305 O 0.50164 0.27446 0.08905 0.0
O306 O 0.52103 0.26498 0.06559 0.0
O307 O 0.47828 0.21353 0.10091 0.0
O308 O 0.49605 0.22602 0.0773 0.0
C309 C 0.51309 0.27837 0.07508 0.0
C310 C 0.4875 0.21089 0.08505 0.0
O311 O 0.47527 0.25837 0.12598 0.0
H312 H 0.1765 0.73454 0.81352 0.0
H313 H 0.18308 0.75593 0.84204 0.0
H314 H 0.24599 0.75089 0.83713 0.0
H315 H 0.23968 0.73017 0.80825 0.0
H316 H 0.23207 0.74236 0.87468 0.0
H317 H 0.22725 0.79195 0.8248 0.0
H318 H 0.21082 0.80898 0.79724 0.0
H319 H 0.1625 0.82125 0.83311 0.0
H320 H 0.17851 0.80403 0.86082 0.0
H321 H 0.27378 0.80785 0.94403 0.0
H322 H 0.2646 0.79271 0.91242 0.0
H323 H 0.20409 0.80858 0.91764 0.0
H324 H 0.2134 0.82446 0.94918 0.0
H325 H 0.21424 0.81144 0.8803 0.0
H326 H 0.21787 0.76272 0.92995 0.0
H327 H 0.2328 0.74509 0.95794 0.0
H328 H 0.28098 0.72989 0.92313 0.0
H329 H 0.26647 0.74767 0.89501 0.0
C330 C 0.19176 0.73826 0.81827 0.0
C331 C 0.20756 0.73047 0.80865 0.0
C332 C 0.19546 0.75044 0.8346 0.0
C333 C 0.21501 0.75495 0.84165 0.0
C334 C 0.2308 0.74747 0.83195 0.0
C335 C 0.22713 0.7355 0.81553 0.0
C336 C 0.2191 0.76659 0.85977 0.0
C337 C 0.22839 0.75754 0.87585 0.0
C338 C 0.21359 0.78613 0.86145 0.0
C339 C 0.20397 0.7965 0.84482 0.0
C340 C 0.21302 0.79811 0.82676 0.0
C341 C 0.20381 0.80784 0.81112 0.0
C342 C 0.1856 0.81614 0.8134 0.0
C343 C 0.17659 0.81478 0.83135 0.0
C344 C 0.18573 0.80505 0.84703 0.0
C345 C 0.25855 0.80833 0.93837 0.0
C346 C 0.24424 0.81709 0.94921 0.0
C347 C 0.25331 0.79962 0.92031 0.0
C348 C 0.23354 0.79903 0.91292 0.0
C349 C 0.2194 0.80873 0.92315 0.0
C350 C 0.22473 0.81778 0.94116 0.0
C351 C 0.22763 0.78731 0.89512 0.0
C352 C 0.21788 0.79626 0.87917 0.0
C353 C 0.23245 0.76751 0.89358 0.0
C354 C 0.24116 0.75667 0.91042 0.0
C355 C 0.23171 0.75573 0.92831 0.0
C356 C 0.24009 0.7457 0.94419 0.0
C357 C 0.25785 0.73642 0.94233 0.0
C358 C 0.26723 0.73711 0.92456 0.0
C359 C 0.25893 0.74714 0.90864 0.0
H360 H 0.26431 0.72866 0.95464 0.0
H361 H 0.1785 0.82367 0.80128 0.0
H362 H 0.96854 0.50956 0.40771 0.0
H363 H 0.9929 0.50333 0.38338 0.0
H364 H 0.04024 0.51213 0.42766 0.0
H365 H 0.01598 0.5187 0.45191 0.0
H366 H 0.0494 0.53107 0.39611 0.0
H367 H 0.02429 0.46584 0.4094 0.0
H368 H 0.99853 0.43935 0.4125 0.0
H369 H 0.98095 0.44506 0.35168 0.0
H370 H 0.00645 0.47179 0.34828 0.0
H371 H 0.12839 0.49438 0.34747 0.0
H372 H 0.10161 0.49589 0.36999 0.0
H373 H 0.05865 0.49529 0.32124 0.0
H374 H 0.08548 0.49375 0.29843 0.0
H375 H 0.04634 0.47225 0.35351 0.0
H376 H 0.07219 0.53741 0.34065 0.0
H377 H 0.0985 0.56345 0.338 0.0
H378 H 0.11514 0.55716 0.39897 0.0
H379 H 0.08911 0.53087 0.40192 0.0
C380 C 0.98414 0.50997 0.41227 0.0
C381 C 0.99037 0.51464 0.4317 0.0
C382 C 0.99805 0.50637 0.39836 0.0
C383 C 0.01843 0.50705 0.40371 0.0
C384 C 0.02462 0.51156 0.42316 0.0
C385 C 0.01076 0.51535 0.437 0.0
C386 C 0.0334 0.50378 0.38896 0.0
C387 C 0.04883 0.51806 0.38701 0.0
C388 C 0.03242 0.48707 0.37665 0.0
C389 C 0.01714 0.47095 0.37864 0.0
C390 C 0.01483 0.46155 0.39673 0.0
C391 C 1.00029 0.44647 0.39853 0.0
C392 C 0.98807 0.44056 0.38232 0.0
C393 C 0.99041 0.44968 0.36424 0.0
C394 C 0.00491 0.46478 0.36236 0.0
C395 C 0.11325 0.49432 0.34147 0.0
C396 C 0.1091 0.49416 0.32111 0.0
C397 C 0.09796 0.49522 0.35439 0.0
C398 C 0.0782 0.49601 0.34727 0.0
C399 C 0.07384 0.49477 0.32701 0.0
C400 C 0.08918 0.49392 0.31401 0.0
C401 C 0.06237 0.49938 0.361 0.0
C402 C 0.04681 0.48521 0.36266 0.0
C403 C 0.06324 0.51614 0.37316 0.0
C404 C 0.07882 0.53205 0.37146 0.0
C405 C 0.08156 0.54148 0.35346 0.0
C406 C 0.09641 0.5563 0.35191 0.0
C407 C 0.10852 0.56193 0.36829 0.0
C408 C 0.10577 0.55277 0.38628 0.0
C409 C 0.09096 0.53792 0.38791 0.0
H410 H 0.12 0.5734 0.36706 0.0
H411 H 0.97682 0.42889 0.38374 0.0
H412 H 0.80682 0.72992 0.80796 0.0
H413 H 0.80439 0.70966 0.83732 0.0
H414 H 0.78089 0.75767 0.86805 0.0
H415 H 0.78423 0.77821 0.83926 0.0
H416 H 0.80735 0.74128 0.89059 0.0
H417 H 0.75125 0.71794 0.84869 0.0
H418 H 0.73497 0.70374 0.81851 0.0
H419 H 0.76811 0.65225 0.82615 0.0
H420 H 0.78478 0.66627 0.85626 0.0
H421 H 0.74943 0.70316 0.96404 0.0
H422 H 0.75862 0.71476 0.93199 0.0
H423 H 0.79562 0.66594 0.92598 0.0
H424 H 0.78672 0.65415 0.95853 0.0
H425 H 0.76788 0.67815 0.8905 0.0
H426 H 0.82084 0.70135 0.93555 0.0
H427 H 0.83466 0.7162 0.96644 0.0
H428 H 0.80511 0.76891 0.95307 0.0
H429 H 0.79085 0.75425 0.92224 0.0
C430 C 0.80131 0.73621 0.82104 0.0
C431 C 0.79561 0.75569 0.82119 0.0
C432 C 0.79975 0.72454 0.83775 0.0
C433 C 0.79226 0.73207 0.85485 0.0
C434 C 0.78669 0.75151 0.85504 0.0
C435 C 0.78839 0.76319 0.83845 0.0
C436 C 0.79025 0.71996 0.87274 0.0
C437 C 0.79871 0.72749 0.89051 0.0
C438 C 0.77944 0.70166 0.87265 0.0
C439 C 0.76943 0.69325 0.85457 0.0
C440 C 0.75518 0.70366 0.84384 0.0
C441 C 0.74586 0.69563 0.82677 0.0
C442 C 0.75055 0.67713 0.82038 0.0
C443 C 0.76453 0.66659 0.83109 0.0
C444 C 0.77391 0.67457 0.84816 0.0
C445 C 0.75937 0.69467 0.95594 0.0
C446 C 0.76744 0.67775 0.96399 0.0
C447 C 0.7646 0.70137 0.93758 0.0
C448 C 0.77786 0.69126 0.92674 0.0
C449 C 0.78535 0.67391 0.9342 0.0
C450 C 0.78029 0.66725 0.9528 0.0
C451 C 0.78453 0.69982 0.90819 0.0
C452 C 0.77693 0.6917 0.8904 0.0
C453 C 0.79595 0.71768 0.90821 0.0
C454 C 0.80467 0.72664 0.92665 0.0
C455 C 0.81716 0.71605 0.93927 0.0
C456 C 0.8251 0.72444 0.95676 0.0
C457 C 0.82074 0.74348 0.96173 0.0
C458 C 0.80847 0.75417 0.9492 0.0
C459 C 0.80047 0.74583 0.93171 0.0
H460 H 0.8269 0.74995 0.97527 0.0
H461 H 0.74332 0.67094 0.80716 0.0
H462 H 0.02115 0.96356 0.43465 0.0
H463 H 0.00055 0.96802 0.40473 0.0
H464 H 0.99806 0.02937 0.41786 0.0
H465 H 0.01869 0.02499 0.44795 0.0
H466 H 0.96061 0.01049 0.40386 0.0
H467 H 0.02868 0.01842 0.38639 0.0
H468 H 0.06333 0.00896 0.38528 0.0
H469 H 0.04391 0.95625 0.3545 0.0
H470 H 0.00909 0.96526 0.3557 0.0
H471 H 0.92817 0.03771 0.30613 0.0
H472 H 0.94354 0.03513 0.33918 0.0
H473 H 0.95988 0.97663 0.32619 0.0
H474 H 0.9452 0.97937 0.29313 0.0
H475 H 0.99054 0.99626 0.34092 0.0
H476 H 0.92269 0.98721 0.35858 0.0
H477 H 0.88772 0.99554 0.36017 0.0
H478 H 0.90585 0.04879 0.39061 0.0
H479 H 0.94097 0.0409 0.38898 0.0
C480 C 0.016 0.97795 0.43131 0.0
C481 C 0.02156 0.99394 0.44361 0.0
C482 C 0.00431 0.98049 0.41418 0.0
C483 C 0.99787 0.99904 0.40906 0.0
C484 C 0.00287 0.01494 0.42158 0.0
C485 C 0.01476 0.01245 0.43865 0.0
C486 C 0.98681 0.00187 0.39011 0.0
C487 C 0.96717 0.00765 0.39004 0.0
C488 C 0.99531 0.99781 0.37218 0.0
C489 C 0.01626 0.99243 0.3713 0.0
C490 C 0.03178 0.00474 0.37953 0.0
C491 C 0.05146 0.99947 0.37886 0.0
C492 C 0.05582 0.98199 0.36987 0.0
C493 C 0.04051 0.96977 0.36148 0.0
C494 C 0.0208 0.97496 0.36214 0.0
C495 C 0.93475 0.02419 0.31047 0.0
C496 C 0.9356 0.0088 0.29698 0.0
C497 C 0.94351 0.02271 0.32938 0.0
C498 C 0.95291 0.00567 0.33523 0.0
C499 C 0.9529 0.98999 0.32201 0.0
C500 C 0.94444 0.99156 0.30311 0.0
C501 C 0.96402 0.00449 0.35449 0.0
C502 C 0.98383 0.99913 0.35466 0.0
C503 C 0.95556 0.00879 0.37246 0.0
C504 C 0.93447 0.01356 0.37347 0.0
C505 C 0.91923 0.00078 0.36547 0.0
C506 C 0.89938 0.0054 0.36641 0.0
C507 C 0.89457 0.02271 0.37543 0.0
C508 C 0.9096 0.0354 0.38359 0.0
C509 C 0.92948 0.03085 0.38268 0.0
H510 H 0.87919 0.02627 0.37615 0.0
H511 H 0.07106 0.97794 0.36936 0.0
H512 H 0.22423 0.26101 0.7071 0.0
H513 H 0.22791 0.23631 0.68171 0.0
H514 H 0.23249 0.28176 0.63832 0.0
H515 H 0.22894 0.3065 0.66365 0.0
H516 H 0.20693 0.2485 0.62666 0.0
H517 H 0.27305 0.26418 0.65522 0.0
H518 H 0.29811 0.2676 0.6826 0.0
H519 H 0.28872 0.20677 0.69625 0.0
H520 H 0.26336 0.20306 0.6691 0.0
H521 H 0.25195 0.20808 0.5469 0.0
H522 H 0.24166 0.22693 0.57445 0.0
H523 H 0.25183 0.1782 0.61296 0.0
H524 H 0.26285 0.15939 0.58537 0.0
H525 H 0.26715 0.20988 0.62934 0.0
H526 H 0.2039 0.19254 0.5993 0.0
H527 H 0.17832 0.18821 0.57249 0.0
H528 H 0.18065 0.25013 0.56255 0.0
H529 H 0.20648 0.25482 0.58911 0.0
C530 C 0.22583 0.26568 0.6921 0.0
C531 C 0.22637 0.28564 0.68731 0.0
C532 C 0.22799 0.25159 0.67766 0.0
C533 C 0.23053 0.25725 0.65819 0.0
C534 C 0.23052 0.27713 0.65328 0.0
C535 C 0.22862 0.29122 0.66774 0.0
C536 C 0.23397 0.24258 0.64299 0.0
C537 C 0.22013 0.24011 0.62712 0.0
C538 C 0.25085 0.23119 0.64403 0.0
C539 C 0.26614 0.2334 0.66029 0.0
C540 C 0.27619 0.25158 0.66417 0.0
C541 C 0.29048 0.25356 0.67963 0.0
C542 C 0.29496 0.23742 0.6912 0.0
C543 C 0.2852 0.21926 0.6873 0.0
C544 C 0.27088 0.21721 0.67188 0.0
C545 C 0.25175 0.20124 0.56117 0.0
C546 C 0.25814 0.1822 0.56394 0.0
C547 C 0.24576 0.21203 0.57693 0.0
C548 C 0.24563 0.20391 0.59578 0.0
C549 C 0.25173 0.18477 0.59855 0.0
C550 C 0.25797 0.17401 0.58277 0.0
C551 C 0.24026 0.21593 0.61265 0.0
C552 C 0.25374 0.21796 0.6289 0.0
C553 C 0.22289 0.22673 0.61206 0.0
C554 C 0.20724 0.22401 0.59614 0.0
C555 C 0.19906 0.20523 0.59132 0.0
C556 C 0.1845 0.20271 0.57617 0.0
C557 C 0.17789 0.21888 0.5658 0.0
C558 C 0.18579 0.23761 0.57059 0.0
C559 C 0.20037 0.24021 0.58571 0.0
H560 H 0.16661 0.2169 0.55408 0.0
H561 H 0.30603 0.23898 0.70315 0.0
H562 H 0.47399 0.51705 0.52819 0.0
H563 H 0.45401 0.51558 0.55712 0.0
H564 H 0.50584 0.50249 0.59308 0.0
H565 H 0.52593 0.50413 0.56433 0.0
H566 H 0.47256 0.4811 0.60387 0.0
H567 H 0.49159 0.54843 0.58977 0.0
H568 H 0.49386 0.57767 0.56883 0.0
H569 H 0.43028 0.57713 0.56234 0.0
H570 H 0.42764 0.54768 0.58301 0.0
H571 H 0.45104 0.51351 0.69816 0.0
H572 H 0.46441 0.50735 0.66639 0.0
H573 H 0.41007 0.52509 0.63751 0.0
H574 H 0.39665 0.53157 0.66936 0.0
H575 H 0.44123 0.54225 0.62134 0.0
H576 H 0.42202 0.47685 0.63845 0.0
H577 H 0.41981 0.44769 0.65949 0.0
H578 H 0.48315 0.44433 0.66045 0.0
H579 H 0.48578 0.47366 0.63965 0.0
C580 C 0.48111 0.51376 0.54225 0.0
C581 C 0.50159 0.51087 0.54397 0.0
C582 C 0.46966 0.51287 0.55874 0.0
C583 C 0.4785 0.50917 0.57728 0.0
C584 C 0.49872 0.50533 0.57891 0.0
C585 C 0.51017 0.50622 0.56243 0.0
C586 C 0.46709 0.51059 0.59517 0.0
C587 C 0.46579 0.49448 0.60778 0.0
C588 C 0.45786 0.52792 0.6 0.0
C589 C 0.45943 0.54573 0.58775 0.0
C590 C 0.4781 0.55446 0.58376 0.0
C591 C 0.47945 0.57108 0.57195 0.0
C592 C 0.46222 0.57922 0.56421 0.0
C593 C 0.44361 0.57079 0.56831 0.0
C594 C 0.44218 0.55414 0.58007 0.0
C595 C 0.4418 0.51585 0.68509 0.0
C596 C 0.42274 0.52296 0.6863 0.0
C597 C 0.44945 0.51226 0.6669 0.0
C598 C 0.43815 0.51552 0.64954 0.0
C599 C 0.41903 0.52242 0.65071 0.0
C600 C 0.41137 0.52608 0.66892 0.0
C601 C 0.44682 0.5128 0.63024 0.0
C602 C 0.44769 0.52872 0.61736 0.0
C603 C 0.45562 0.49528 0.62518 0.0
C604 C 0.4541 0.47755 0.63759 0.0
C605 C 0.4355 0.46998 0.64326 0.0
C606 C 0.43416 0.45341 0.65513 0.0
C607 C 0.45133 0.44419 0.66133 0.0
C608 C 0.46987 0.4515 0.65564 0.0
C609 C 0.47128 0.46808 0.64379 0.0
H610 H 0.45027 0.43136 0.67052 0.0
H611 H 0.4633 0.59208 0.55508 0.0
H612 H 0.80841 0.27336 0.70942 0.0
H613 H 0.80314 0.29568 0.68175 0.0
H614 H 0.79814 0.24658 0.64202 0.0
H615 H 0.80319 0.22426 0.66959 0.0
H616 H 0.82303 0.27956 0.62963 0.0
H617 H 0.75779 0.264 0.65433 0.0
H618 H 0.73339 0.26216 0.68004 0.0
H619 H 0.74109 0.32416 0.68901 0.0
H620 H 0.76578 0.32631 0.66353 0.0
H621 H 0.77251 0.30802 0.54319 0.0
H622 H 0.78564 0.29346 0.57323 0.0
H623 H 0.77476 0.34583 0.60521 0.0
H624 H 0.76105 0.36037 0.57512 0.0
H625 H 0.7611 0.3155 0.62401 0.0
H626 H 0.82275 0.33248 0.59675 0.0
H627 H 0.84762 0.33521 0.57155 0.0
H628 H 0.84823 0.27269 0.56813 0.0
H629 H 0.82313 0.26955 0.59311 0.0
C630 C 0.80631 0.26741 0.69475 0.0
C631 C 0.80609 0.24713 0.69157 0.0
C632 C 0.80328 0.28012 0.67902 0.0
C633 C 0.80025 0.27272 0.65991 0.0
C634 C 0.80051 0.25253 0.65668 0.0
C635 C 0.80324 0.23982 0.6724 0.0
C636 C 0.79603 0.28587 0.64327 0.0
C637 C 0.80947 0.28738 0.62828 0.0
C638 C 0.77868 0.29656 0.64196 0.0
C639 C 0.76381 0.29527 0.65722 0.0
C640 C 0.75442 0.27721 0.66192 0.0
C641 C 0.74051 0.27612 0.67642 0.0
C642 C 0.73575 0.29302 0.6862 0.0
C643 C 0.74484 0.31107 0.68145 0.0
C644 C 0.75878 0.31223 0.66698 0.0
C645 C 0.77321 0.31661 0.55652 0.0
C646 C 0.76576 0.33536 0.55677 0.0
C647 C 0.78082 0.30827 0.57372 0.0
C648 C 0.78144 0.31862 0.59148 0.0
C649 C 0.77448 0.33758 0.59168 0.0
C650 C 0.76669 0.34588 0.57447 0.0
C651 C 0.78791 0.30896 0.60997 0.0
C652 C 0.77488 0.30804 0.62538 0.0
C653 C 0.80578 0.29901 0.61174 0.0
C654 C 0.82094 0.30079 0.59674 0.0
C655 C 0.82808 0.3193 0.59053 0.0
C656 C 0.84223 0.32092 0.57629 0.0
C657 C 0.84948 0.30413 0.56822 0.0
C658 C 0.8426 0.28568 0.5744 0.0
C659 C 0.82843 0.28397 0.58862 0.0
H660 H 0.86044 0.30542 0.5572 0.0
H661 H 0.72497 0.29215 0.69741 0.0
H662 H 0.48289 0.98808 0.60127 0.0
H663 H 0.50634 0.99187 0.62961 0.0
H664 H 0.55495 0.98333 0.59236 0.0
H665 H 0.53157 0.97935 0.56406 0.0
H666 H 0.55896 0.96231 0.62452 0.0
H667 H 0.54447 0.02906 0.61004 0.0
H668 H 0.52269 0.05648 0.60427 0.0
H669 H 0.50094 0.04945 0.66194 0.0
H670 H 0.52242 0.0218 0.66796 0.0
H671 H 0.64157 0.99814 0.68223 0.0
H672 H 0.61472 0.99446 0.65724 0.0
H673 H 0.57167 0.99799 0.70148 0.0
H674 H 0.59859 0.00176 0.72681 0.0
H675 H 0.56275 0.02037 0.66819 0.0
H676 H 0.57904 0.95484 0.68323 0.0
H677 H 0.60119 0.9277 0.68885 0.0
H678 H 0.61981 0.93267 0.62983 0.0
H679 H 0.59798 0.96005 0.62394 0.0
C680 C 0.4986 0.98722 0.59911 0.0
C681 C 0.50539 0.98343 0.58043 0.0
C682 C 0.51199 0.98938 0.61532 0.0
C683 C 0.53245 0.98804 0.61311 0.0
C684 C 0.53924 0.98435 0.59445 0.0
C685 C 0.52587 0.98206 0.57829 0.0
C686 C 0.54683 0.9901 0.63023 0.0
C687 C 0.55991 0.97511 0.63392 0.0
C688 C 0.54769 0.00652 0.64291 0.0
C689 C 0.53489 0.02323 0.63937 0.0
C690 C 0.53494 0.03327 0.62144 0.0
C691 C 0.52266 0.04887 0.61813 0.0
C692 C 0.51039 0.05466 0.63271 0.0
C693 C 0.51042 0.04492 0.65065 0.0
C694 C 0.52266 0.0293 0.65403 0.0
C695 C 0.62643 0.99819 0.68675 0.0
C696 C 0.62228 0.00016 0.7066 0.0
C697 C 0.61108 0.99601 0.6724 0.0
C698 C 0.59121 0.99573 0.67752 0.0
C699 C 0.58692 0.99811 0.69724 0.0
C700 C 0.60233 0.0002 0.71169 0.0
C701 C 0.57507 0.99277 0.66215 0.0
C702 C 0.56167 0.00753 0.65883 0.0
C703 C 0.57392 0.97617 0.64976 0.0
C704 C 0.58698 0.95961 0.6532 0.0
C705 C 0.58796 0.95025 0.67149 0.0
C706 C 0.60045 0.9348 0.67472 0.0
C707 C 0.61193 0.92849 0.65972 0.0
C708 C 0.61091 0.93759 0.64144 0.0
C709 C 0.59847 0.95306 0.63814 0.0
H710 H 0.62158 0.91653 0.66225 0.0
H711 H 0.50089 0.06674 0.63012 0.0
H712 H 0.82816 0.21859 0.77703 0.0
H713 H 0.85633 0.22374 0.80054 0.0
H714 H 0.89408 0.24038 0.75359 0.0
H715 H 0.86611 0.23454 0.72987 0.0
H716 H 0.9125 0.21662 0.77885 0.0
H717 H 0.87704 0.27487 0.78341 0.0
H718 H 0.84781 0.29437 0.78732 0.0
H719 H 0.84055 0.27029 0.84463 0.0
H720 H 0.86959 0.25042 0.84095 0.0
H721 H 0.99078 0.25479 0.84501 0.0
H722 H 0.96484 0.25189 0.81872 0.0
H723 H 0.9221 0.23307 0.86055 0.0
H724 H 0.9477 0.23608 0.88684 0.0
H725 H 0.90751 0.26022 0.83615 0.0
H726 H 0.94185 0.20052 0.83048 0.0
H727 H 0.97105 0.181 0.82637 0.0
H728 H 0.98057 0.20832 0.77088 0.0
H729 H 0.95156 0.2282 0.77479 0.0
C730 C 0.8425 0.22315 0.77167 0.0
C731 C 0.84487 0.22621 0.75157 0.0
C732 C 0.85854 0.22629 0.78515 0.0
C733 C 0.87725 0.23273 0.77885 0.0
C734 C 0.87976 0.23552 0.75878 0.0
C735 C 0.86371 0.23234 0.74527 0.0
C736 C 0.89417 0.23646 0.79326 0.0
C737 C 0.91154 0.22641 0.79121 0.0
C738 C 0.89282 0.24902 0.80952 0.0
C739 C 0.8754 0.26103 0.81183 0.0
C740 C 0.86913 0.27363 0.79679 0.0
C741 C 0.85261 0.28476 0.79898 0.0
C742 C 0.84231 0.28354 0.8162 0.0
C743 C 0.84854 0.27121 0.83129 0.0
C744 C 0.86504 0.26002 0.82917 0.0
C745 C 0.97587 0.25003 0.84861 0.0
C746 C 0.97137 0.24564 0.86806 0.0
C747 C 0.96107 0.24832 0.83356 0.0
C748 C 0.94156 0.24215 0.83767 0.0
C749 C 0.93704 0.2379 0.85705 0.0
C750 C 0.95176 0.23957 0.87206 0.0
C751 C 0.9257 0.24013 0.82193 0.0
C752 C 0.90853 0.25055 0.8237 0.0
C753 C 0.92727 0.22796 0.80541 0.0
C754 C 0.94468 0.216 0.80304 0.0
C755 C 0.95027 0.20248 0.81748 0.0
C756 C 0.96677 0.19133 0.81517 0.0
C757 C 0.97769 0.19346 0.7984 0.0
C758 C 0.97211 0.20671 0.78388 0.0
C759 C 0.95564 0.21791 0.78613 0.0
H760 H 0.99046 0.18482 0.79664 0.0
H761 H 0.82952 0.29218 0.81786 0.0
H762 H 0.51297 0.9519 0.51636 0.0
H763 H 0.51701 0.92368 0.49512 0.0
H764 H 0.45546 0.90557 0.50077 0.0
H765 H 0.45129 0.93386 0.52189 0.0
H766 H 0.48304 0.87592 0.5086 0.0
H767 H 0.46763 0.92394 0.45949 0.0
H768 H 0.47201 0.9556 0.44273 0.0
H769 H 0.53151 0.94254 0.42986 0.0
H770 H 0.52758 0.9109 0.44681 0.0
H771 H 0.4763 0.79767 0.44303 0.0
H772 H 0.47011 0.8288 0.45832 0.0
H773 H 0.5277 0.85203 0.44242 0.0
H774 H 0.53365 0.82105 0.42634 0.0
H775 H 0.5023 0.87972 0.43953 0.0
H776 H 0.51968 0.83349 0.48885 0.0
H777 H 0.51764 0.80224 0.50669 0.0
H778 H 0.45777 0.81236 0.52081 0.0
H779 H 0.45936 0.84356 0.50282 0.0
C780 C 0.5003 0.94192 0.51298 0.0
C781 C 0.48182 0.94501 0.52076 0.0
C782 C 0.5026 0.92591 0.50078 0.0
C783 C 0.4865 0.91263 0.49633 0.0
C784 C 0.46802 0.91572 0.504 0.0
C785 C 0.46565 0.93188 0.51597 0.0
C786 C 0.4892 0.895 0.48443 0.0
C787 C 0.48694 0.8767 0.4934 0.0
C788 C 0.49502 0.89615 0.46486 0.0
C789 C 0.49738 0.91513 0.45459 0.0
C790 C 0.48171 0.92789 0.45324 0.0
C791 C 0.4841 0.94582 0.44367 0.0
C792 C 0.50204 0.9511 0.43528 0.0
C793 C 0.51762 0.93844 0.43639 0.0
C794 C 0.51532 0.9205 0.44596 0.0
C795 C 0.48756 0.80948 0.44259 0.0
C796 C 0.50556 0.80685 0.4337 0.0
C797 C 0.48404 0.82725 0.45141 0.0
C798 C 0.49866 0.8426 0.45202 0.0
C799 C 0.51625 0.84036 0.44227 0.0
C800 C 0.51964 0.82265 0.43309 0.0
C801 C 0.49593 0.86051 0.46363 0.0
C802 C 0.49831 0.87888 0.45469 0.0
C803 C 0.49057 0.85948 0.48341 0.0
C804 C 0.48958 0.84077 0.49433 0.0
C805 C 0.50604 0.82898 0.49565 0.0
C806 C 0.50497 0.81129 0.5058 0.0
C807 C 0.48757 0.80529 0.51483 0.0
C808 C 0.47122 0.81701 0.51378 0.0
C809 C 0.4722 0.83471 0.50362 0.0
H810 H 0.48677 0.79159 0.52269 0.0
H811 H 0.50386 0.96498 0.42787 0.0
H812 H 0.16954 0.30427 0.72407 0.0
H813 H 0.14378 0.30072 0.74803 0.0
H814 H 0.18761 0.31422 0.79469 0.0
H815 H 0.21345 0.31746 0.77087 0.0
H816 H 0.16371 0.28222 0.80275 0.0
H817 H 0.15579 0.34782 0.77969 0.0
H818 H 0.15058 0.37323 0.75473 0.0
H819 H 0.09441 0.34508 0.73665 0.0
H820 H 0.09941 0.31932 0.76134 0.0
H821 H 0.10381 0.29753 0.88119 0.0
H822 H 0.12662 0.30431 0.85519 0.0
H823 H 0.07976 0.28968 0.81178 0.0
H824 H 0.05667 0.28294 0.83781 0.0
H825 H 0.10394 0.32152 0.8009 0.0
H826 H 0.11138 0.25624 0.82367 0.0
H827 H 0.11632 0.23034 0.84817 0.0
H828 H 0.17318 0.25716 0.86603 0.0
H829 H 0.16844 0.28341 0.84182 0.0
C830 C 0.17367 0.3064 0.73945 0.0
C831 C 0.1935 0.31117 0.7456 0.0
C832 C 0.15893 0.30454 0.75309 0.0
C833 C 0.16376 0.30738 0.77312 0.0
C834 C 0.18356 0.31204 0.7793 0.0
C835 C 0.19827 0.31401 0.76567 0.0
C836 C 0.14832 0.30501 0.78775 0.0
C837 C 0.15078 0.291 0.80249 0.0
C838 C 0.13114 0.31603 0.78703 0.0
C839 C 0.12807 0.33153 0.77222 0.0
C840 C 0.1424 0.34695 0.77028 0.0
C841 C 0.13947 0.36144 0.75621 0.0
C842 C 0.1222 0.36074 0.74408 0.0
C843 C 0.10779 0.34558 0.74604 0.0
C844 C 0.11066 0.33104 0.76008 0.0
C845 C 0.09823 0.29598 0.86613 0.0
C846 C 0.07846 0.28947 0.86159 0.0
C847 C 0.11133 0.29982 0.85128 0.0
C848 C 0.10497 0.29715 0.83158 0.0
C849 C 0.08498 0.29173 0.82691 0.0
C850 C 0.07182 0.28787 0.8418 0.0
C851 C 0.11954 0.29896 0.81606 0.0
C852 C 0.11688 0.31276 0.80113 0.0
C853 C 0.13653 0.28767 0.81651 0.0
C854 C 0.13946 0.2719 0.83106 0.0
C855 C 0.12486 0.25671 0.83293 0.0
C856 C 0.12764 0.24195 0.84675 0.0
C857 C 0.14503 0.24213 0.85868 0.0
C858 C 0.15971 0.25706 0.85679 0.0
C859 C 0.15699 0.27187 0.84302 0.0
H860 H 0.14716 0.23069 0.86936 0.0
H861 H 0.11996 0.37197 0.73319 0.0
H862 H 0.52781 0.53904 0.46007 0.0
H863 H 0.52663 0.5694 0.44123 0.0
H864 H 0.51598 0.60117 0.49384 0.0
H865 H 0.51719 0.57102 0.5127 0.0
H866 H 0.49275 0.61296 0.46314 0.0
H867 H 0.56236 0.6003 0.47603 0.0
H868 H 0.59169 0.58044 0.47461 0.0
H869 H 0.58563 0.57978 0.41181 0.0
H870 H 0.55609 0.59943 0.41289 0.0
H871 H 0.5233 0.7104 0.44691 0.0
H872 H 0.51896 0.67675 0.45798 0.0
H873 H 0.53445 0.65609 0.40138 0.0
H874 H 0.53938 0.68995 0.39034 0.0
H875 H 0.5527 0.63646 0.42918 0.0
H876 H 0.48582 0.65281 0.41589 0.0
H877 H 0.4566 0.67284 0.41704 0.0
H878 H 0.45681 0.66635 0.47948 0.0
H879 H 0.48623 0.64654 0.47876 0.0
C880 C 0.52519 0.55251 0.46759 0.0
C881 C 0.52262 0.55264 0.48787 0.0
C882 C 0.52448 0.56982 0.45681 0.0
C883 C 0.52139 0.58756 0.46618 0.0
C884 C 0.51829 0.58763 0.48631 0.0
C885 C 0.51894 0.57036 0.49706 0.0
C886 C 0.52215 0.60629 0.45533 0.0
C887 C 0.50587 0.61817 0.45578 0.0
C888 C 0.53903 0.61277 0.44519 0.0
C889 C 0.5569 0.60114 0.44455 0.0
C890 C 0.56721 0.59581 0.46193 0.0
C891 C 0.58388 0.5846 0.46118 0.0
C892 C 0.59048 0.5788 0.44313 0.0
C893 C 0.58047 0.58425 0.42579 0.0
C894 C 0.56377 0.59543 0.42646 0.0
C895 C 0.52564 0.69872 0.43674 0.0
C896 C 0.53156 0.70282 0.41771 0.0
C897 C 0.52306 0.67946 0.44307 0.0
C898 C 0.52598 0.66386 0.43039 0.0
C899 C 0.53199 0.66789 0.41137 0.0
C900 C 0.53479 0.68723 0.40508 0.0
C901 C 0.52346 0.64342 0.4374 0.0
C902 C 0.53941 0.63119 0.43622 0.0
C903 C 0.50621 0.63658 0.44678 0.0
C904 C 0.48832 0.64827 0.44727 0.0
C905 C 0.47971 0.65574 0.42988 0.0
C906 C 0.4631 0.66705 0.43046 0.0
C907 C 0.45487 0.67088 0.44832 0.0
C908 C 0.4632 0.66337 0.46565 0.0
C909 C 0.47983 0.65208 0.46517 0.0
H910 H 0.44202 0.67965 0.44874 0.0
H911 H 0.60339 0.57013 0.44258 0.0
H912 H 0.8371 0.81045 0.7588 0.0
H913 H 0.86522 0.80855 0.7378 0.0
H914 H 0.86311 0.74592 0.74421 0.0
H915 H 0.83455 0.74753 0.76461 0.0
H916 H 0.90194 0.76397 0.74883 0.0
H917 H 0.84404 0.76401 0.70403 0.0
H918 H 0.81337 0.77752 0.68994 0.0
H919 H 0.84609 0.83029 0.67477 0.0
H920 H 0.87692 0.81718 0.68903 0.0
H921 H 0.95427 0.72846 0.67111 0.0
H922 H 0.93122 0.73667 0.69572 0.0
H923 H 0.93206 0.79617 0.67503 0.0
H924 H 0.95477 0.78785 0.6498 0.0
H925 H 0.89563 0.78374 0.67912 0.0
H926 H 0.95404 0.78346 0.7205 0.0
H927 H 0.9851 0.7712 0.73504 0.0
H928 H 0.9528 0.72118 0.75752 0.0
H929 H 0.92156 0.73298 0.74287 0.0
C930 C 0.84243 0.79623 0.75559 0.0
C931 C 0.83341 0.77913 0.76335 0.0
C932 C 0.85862 0.7952 0.74369 0.0
C933 C 0.8662 0.77709 0.73943 0.0
C934 C 0.85754 0.76005 0.74743 0.0
C935 C 0.84124 0.76103 0.75915 0.0
C936 C 0.88283 0.77576 0.7262 0.0
C937 C 0.90058 0.76815 0.73354 0.0
C938 C 0.88123 0.78188 0.70648 0.0
C939 C 0.86273 0.78971 0.6978 0.0
C940 C 0.84466 0.77856 0.69784 0.0
C941 C 0.82726 0.78613 0.68979 0.0
C942 C 0.82777 0.80478 0.68152 0.0
C943 C 0.84571 0.81586 0.68122 0.0
C944 C 0.86315 0.80837 0.68927 0.0
C945 C 0.9498 0.74338 0.67191 0.0
C946 C 0.95635 0.75749 0.65843 0.0
C947 C 0.93666 0.74809 0.68612 0.0
C948 C 0.93003 0.76712 0.68744 0.0
C949 C 0.93697 0.7814 0.67433 0.0
C950 C 0.95001 0.77664 0.65996 0.0
C951 C 0.91481 0.77159 0.70159 0.0
C952 C 0.89725 0.77979 0.69445 0.0
C953 C 0.9167 0.76623 0.72158 0.0
C954 C 0.93546 0.75905 0.73045 0.0
C955 C 0.95357 0.76977 0.72842 0.0
C956 C 0.97121 0.76291 0.7367 0.0
C957 C 0.97093 0.74541 0.74716 0.0
C958 C 0.953 0.73473 0.7494 0.0
C959 C 0.93531 0.74152 0.74113 0.0
H960 H 0.98461 0.74012 0.75357 0.0
H961 H 0.81428 0.81061 0.67529 0.0
H962 H 0.01048 0.95837 0.50641 0.0
H963 H 0.00543 0.92796 0.52491 0.0
H964 H 0.06695 0.91589 0.51943 0.0
H965 H 0.0721 0.94625 0.50106 0.0
H966 H 0.03947 0.88485 0.50769 0.0
H967 H 0.05342 0.92911 0.562 0.0
H968 H 0.0485 0.95838 0.5818 0.0
H969 H 0.98857 0.93786 0.59111 0.0
H970 H 0.99304 0.90858 0.57111 0.0
H971 H 0.04492 0.80093 0.56468 0.0
H972 H 0.05135 0.8342 0.55306 0.0
H973 H 0.99327 0.84936 0.56974 0.0
H974 H 0.98709 0.81618 0.58221 0.0
H975 H 0.0183 0.87944 0.57604 0.0
H976 H 0.00252 0.8366 0.52178 0.0
H977 H 0.00524 0.80761 0.50089 0.0
H978 H 0.06545 0.82576 0.48979 0.0
H979 H 0.06317 0.85473 0.51084 0.0
C980 C 0.02294 0.94927 0.5093 0.0
C981 C 0.04169 0.95465 0.50234 0.0
C982 C 0.02007 0.932 0.51993 0.0
C983 C 0.03585 0.91975 0.52358 0.0
C984 C 0.05462 0.92519 0.51681 0.0
C985 C 0.05756 0.94257 0.50643 0.0
C986 C 0.03258 0.90069 0.53345 0.0
C987 C 0.03513 0.88365 0.52274 0.0
C988 C 0.02619 0.89919 0.55281 0.0
C989 C 0.02351 0.91675 0.56488 0.0
C990 C 0.03914 0.93092 0.56812 0.0
C991 C 0.03644 0.9475 0.57941 0.0
C992 C 0.01822 0.95001 0.58766 0.0
C993 C 0.00267 0.93591 0.58468 0.0
C994 C 0.00528 0.91932 0.57338 0.0
C995 C 0.03361 0.81141 0.56611 0.0
C996 C 0.01541 0.80589 0.57415 0.0
C997 C 0.03726 0.83042 0.55937 0.0
C998 C 0.02257 0.84416 0.55999 0.0
C999 C 0.00478 0.83899 0.56897 0.0
C1000 C 0.00126 0.82002 0.57608 0.0
C1001 C 0.02546 0.8635 0.55036 0.0
C1002 C 0.02271 0.8806 0.56103 0.0
C1003 C 0.03133 0.8651 0.53078 0.0
C1004 C 0.03273 0.84773 0.51804 0.0
C1005 C 0.01638 0.83434 0.51499 0.0
C1006 C 0.01784 0.81792 0.50311 0.0
C1007 C 0.03553 0.81482 0.49406 0.0
C1008 C 0.05177 0.82816 0.49683 0.0
C1009 C 0.0504 0.84459 0.50872 0.0
H1010 H 0.03662 0.8021 0.48486 0.0
H1011 H 0.01616 0.96285 0.59641 0.0
H1012 H 0.1471 0.71738 0.76806 0.0
H1013 H 0.12044 0.72359 0.74374 0.0
H1014 H 0.15884 0.71059 0.69739 0.0
H1015 H 0.18576 0.70487 0.72162 0.0
H1016 H 0.13895 0.74325 0.68964 0.0
H1017 H 0.1228 0.67762 0.71073 0.0
H1018 H 0.11579 0.65177 0.73486 0.0
H1019 H 0.0658 0.68202 0.75338 0.0
H1020 H 0.07269 0.70822 0.72953 0.0
H1021 H 0.06941 0.72965 0.61016 0.0
H1022 H 0.09455 0.72504 0.63624 0.0
H1023 H 0.05268 0.73837 0.67935 0.0
H1024 H 0.02717 0.7428 0.65326 0.0
H1025 H 0.07349 0.70691 0.68993 0.0
H1026 H 0.08873 0.77191 0.6681 0.0
H1027 H 0.09564 0.79788 0.64408 0.0
H1028 H 0.14725 0.76921 0.62721 0.0
H1029 H 0.14049 0.7429 0.65094 0.0
C1030 C 0.14991 0.71597 0.75268 0.0
C1031 C 0.16855 0.7106 0.74678 0.0
C1032 C 0.1346 0.71936 0.73881 0.0
C1033 C 0.13759 0.71738 0.71875 0.0
C1034 C 0.1562 0.71215 0.71279 0.0
C1035 C 0.17151 0.70873 0.72666 0.0
C1036 C 0.12137 0.72092 0.70394 0.0
C1037 C 0.12472 0.73514 0.68956 0.0
C1038 C 0.10259 0.71075 0.70419 0.0
C1039 C 0.09839 0.69498 0.71848 0.0
C1040 C 0.11041 0.67884 0.72005 0.0
C1041 C 0.10645 0.66411 0.73366 0.0
C1042 C 0.0904 0.66528 0.74568 0.0
C1043 C 0.07825 0.68116 0.74408 0.0
C1044 C 0.08217 0.69594 0.73051 0.0
C1045 C 0.06546 0.73163 0.62516 0.0
C1046 C 0.04623 0.73669 0.62956 0.0
C1047 C 0.07993 0.72907 0.64008 0.0
C1048 C 0.07559 0.73162 0.65974 0.0
C1049 C 0.05636 0.7364 0.66426 0.0
C1050 C 0.04182 0.73898 0.64932 0.0
C1051 C 0.09116 0.72909 0.67549 0.0
C1052 C 0.08769 0.71509 0.69006 0.0
C1053 C 0.10983 0.73949 0.67544 0.0
C1054 C 0.11399 0.75533 0.66119 0.0
C1055 C 0.10147 0.77106 0.65916 0.0
C1056 C 0.10537 0.78586 0.64561 0.0
C1057 C 0.12185 0.78518 0.63409 0.0
C1058 C 0.13448 0.76971 0.63613 0.0
C1059 C 0.13063 0.75486 0.64964 0.0
H1060 H 0.12485 0.79665 0.62361 0.0
H1061 H 0.08735 0.65386 0.75621 0.0
H1062 H 0.97959 0.57638 0.46264 0.0
H1063 H 0.98508 0.60514 0.48369 0.0
H1064 H 0.96406 0.57184 0.53272 0.0
H1065 H 0.95884 0.54287 0.51183 0.0
H1066 H 0.94727 0.60702 0.52959 0.0
H1067 H 0.01281 0.58352 0.53001 0.0
H1068 H 0.04282 0.57204 0.51545 0.0
H1069 H 0.05138 0.62702 0.48617 0.0
H1070 H 0.02124 0.63874 0.50034 0.0
H1071 H 0.97282 0.68158 0.59915 0.0
H1072 H 0.97195 0.65018 0.58206 0.0
H1073 H 0.99588 0.67865 0.53147 0.0
H1074 H 0.99724 0.71 0.54863 0.0
H1075 H 0.012 0.64455 0.53715 0.0
H1076 H 0.9456 0.66719 0.53438 0.0
H1077 H 0.91522 0.6789 0.54804 0.0
H1078 H 0.90795 0.62576 0.58075 0.0
H1079 H 0.93845 0.61384 0.56747 0.0
C1080 C 0.9764 0.57507 0.47796 0.0
C1081 C 0.96881 0.55728 0.48554 0.0
C1082 C 0.97951 0.59155 0.48997 0.0
C1083 C 0.97516 0.59059 0.50982 0.0
C1084 C 0.96752 0.5729 0.51744 0.0
C1085 C 0.96445 0.55639 0.50545 0.0
C1086 C 0.978 0.60822 0.52245 0.0
C1087 C 0.9615 0.61504 0.53153 0.0
C1088 C 0.99647 0.61892 0.52459 0.0
C1089 C 0.01466 0.61195 0.51611 0.0
C1090 C 0.021 0.59311 0.52035 0.0
C1091 C 0.03805 0.58657 0.51219 0.0
C1092 C 0.04897 0.59878 0.49986 0.0
C1093 C 0.04289 0.61758 0.49571 0.0
C1094 C 0.02584 0.62418 0.50382 0.0
C1095 C 0.97808 0.68112 0.58446 0.0
C1096 C 0.985 0.69829 0.5752 0.0
C1097 C 0.97749 0.66317 0.57467 0.0
C1098 C 0.98351 0.6621 0.55534 0.0
C1099 C 0.99111 0.67912 0.54635 0.0
C1100 C 0.99186 0.69704 0.55618 0.0
C1101 C 0.98122 0.64344 0.54419 0.0
C1102 C 0.99781 0.63644 0.53535 0.0
C1103 C 0.96279 0.63261 0.54216 0.0
C1104 C 0.94442 0.63972 0.5501 0.0
C1105 C 0.9376 0.65807 0.5446 0.0
C1106 C 0.92035 0.66473 0.55225 0.0
C1107 C 0.90969 0.65311 0.5653 0.0
C1108 C 0.91624 0.63477 0.57067 0.0
C1109 C 0.9335 0.62804 0.56308 0.0
H1110 H 0.89634 0.65829 0.5712 0.0
H1111 H 0.06217 0.59369 0.49356 0.0
H1112 H 0.77446 0.83241 0.21719 0.0
H1113 H 0.79964 0.85922 0.22003 0.0
H1114 H 0.75393 0.90022 0.22598 0.0
H1115 H 0.72852 0.8735 0.22231 0.0
H1116 H 0.78148 0.91439 0.20222 0.0
H1117 H 0.78174 0.88568 0.26588 0.0
H1118 H 0.78318 0.85901 0.29001 0.0
H1119 H 0.84143 0.84647 0.27262 0.0
H1120 H 0.84023 0.8729 0.24818 0.0
H1121 H 0.85017 0.99166 0.23596 0.0
H1122 H 0.8227 0.96692 0.2339 0.0
H1123 H 0.86403 0.92215 0.22523 0.0
H1124 H 0.89155 0.94663 0.22743 0.0
H1125 H 0.83727 0.9112 0.25185 0.0
H1126 H 0.83606 0.93916 0.18712 0.0
H1127 H 0.83439 0.96593 0.16311 0.0
H1128 H 0.7776 0.98023 0.18311 0.0
H1129 H 0.77906 0.95369 0.20744 0.0
C1130 C 0.76971 0.84715 0.21885 0.0
C1131 C 0.74945 0.85079 0.21955 0.0
C1132 C 0.78415 0.86245 0.2207 0.0
C1133 C 0.77869 0.8817 0.22353 0.0
C1134 C 0.75848 0.88546 0.22392 0.0
C1135 C 0.744 0.87015 0.22199 0.0
C1136 C 0.79413 0.89785 0.22606 0.0
C1137 C 0.79351 0.91385 0.21328 0.0
C1138 C 0.80999 0.89701 0.24031 0.0
C1139 C 0.81082 0.88118 0.25508 0.0
C1140 C 0.7948 0.87715 0.2671 0.0
C1141 C 0.79558 0.86209 0.28085 0.0
C1142 C 0.81237 0.85103 0.28282 0.0
C1143 C 0.82843 0.85504 0.27107 0.0
C1144 C 0.82772 0.87008 0.25728 0.0
C1145 C 0.85344 0.97655 0.23361 0.0
C1146 C 0.87311 0.97117 0.23183 0.0
C1147 C 0.8377 0.96244 0.23236 0.0
C1148 C 0.84131 0.94271 0.22927 0.0
C1149 C 0.86091 0.93729 0.22764 0.0
C1150 C 0.87662 0.95135 0.22884 0.0
C1151 C 0.82477 0.92758 0.22784 0.0
C1152 C 0.82518 0.91179 0.24087 0.0
C1153 C 0.80869 0.92866 0.21389 0.0
C1154 C 0.80777 0.94458 0.19924 0.0
C1155 C 0.82329 0.94811 0.18651 0.0
C1156 C 0.82237 0.96323 0.17282 0.0
C1157 C 0.80593 0.97481 0.17163 0.0
C1158 C 0.79035 0.97127 0.18408 0.0
C1159 C 0.79121 0.95618 0.19781 0.0
H1160 H 0.80524 0.9865 0.16102 0.0
H1161 H 0.81294 0.83937 0.29347 0.0
H1162 H 0.76203 0.20183 0.27601 0.0
H1163 H 0.78722 0.17783 0.27326 0.0
H1164 H 0.74152 0.13305 0.2592 0.0
H1165 H 0.71606 0.15706 0.26233 0.0
H1166 H 0.77004 0.12063 0.2863 0.0
H1167 H 0.76839 0.1513 0.22357 0.0
H1168 H 0.76873 0.17891 0.20047 0.0
H1169 H 0.82698 0.19803 0.22292 0.0
H1170 H 0.82688 0.17069 0.24637 0.0
H1171 H 0.84098 0.05371 0.25482 0.0
H1172 H 0.81259 0.07417 0.25778 0.0
H1173 H 0.85255 0.12458 0.26864 0.0
H1174 H 0.8809 0.10435 0.26543 0.0
H1175 H 0.82484 0.13232 0.24131 0.0
H1176 H 0.82582 0.10284 0.3052 0.0
H1177 H 0.82546 0.07557 0.32871 0.0
H1178 H 0.76865 0.05431 0.30428 0.0
H1179 H 0.7688 0.08133 0.28044 0.0
C1180 C 0.7573 0.18686 0.27244 0.0
C1181 C 0.73704 0.18134 0.26941 0.0
C1182 C 0.77173 0.17318 0.27073 0.0
C1183 C 0.76626 0.15369 0.26586 0.0
C1184 C 0.74605 0.14804 0.26293 0.0
C1185 C 0.73155 0.16178 0.26456 0.0
C1186 C 0.78179 0.13934 0.2639 0.0
C1187 C 0.78185 0.12297 0.27623 0.0
C1188 C 0.79738 0.14261 0.25101 0.0
C1189 C 0.79756 0.15902 0.23684 0.0
C1190 C 0.78122 0.16147 0.22368 0.0
C1191 C 0.78138 0.17706 0.21051 0.0
C1192 C 0.79785 0.19024 0.21025 0.0
C1193 C 0.81422 0.18782 0.22315 0.0
C1194 C 0.81413 0.17226 0.23637 0.0
C1195 C 0.84372 0.06911 0.25808 0.0
C1196 C 0.86322 0.07741 0.25981 0.0
C1197 C 0.82747 0.08078 0.25981 0.0
C1198 C 0.83042 0.10093 0.26346 0.0
C1199 C 0.84989 0.1091 0.26572 0.0
C1200 C 0.8661 0.09748 0.26395 0.0
C1201 C 0.81337 0.11377 0.264 0.0
C1202 C 0.81299 0.12987 0.25132 0.0
C1203 C 0.79754 0.11023 0.27658 0.0
C1204 C 0.79743 0.09398 0.29089 0.0
C1205 C 0.81333 0.09225 0.30473 0.0
C1206 C 0.81315 0.07686 0.31814 0.0
C1207 C 0.79707 0.06318 0.31795 0.0
C1208 C 0.78111 0.0649 0.30439 0.0
C1209 C 0.78123 0.08026 0.29093 0.0
H1210 H 0.79696 0.05128 0.32835 0.0
H1211 H 0.79795 0.2023 0.20004 0.0
H1212 H 0.44571 0.96541 0.95973 0.0
H1213 H 0.41752 0.94253 0.96513 0.0
H1214 H 0.37969 0.99083 0.97097 0.0
H1215 H 0.40786 0.01379 0.96568 0.0
H1216 H 0.37325 0.96475 0.9989 0.0
H1217 H 0.37707 0.96261 0.9294 0.0
H1218 H 0.39322 0.95915 0.8981 0.0
H1219 H 0.40731 0.90049 0.91322 0.0
H1220 H 0.3915 0.90369 0.94475 0.0
H1221 H 0.28433 0.90258 0.99556 0.0
H1222 H 0.30948 0.92804 0.98763 0.0
H1223 H 0.35291 0.88442 0.98355 0.0
H1224 H 0.32803 0.85898 0.99127 0.0
H1225 H 0.35447 0.90983 0.95331 0.0
H1226 H 0.35228 0.91313 0.02375 0.0
H1227 H 0.33604 0.91686 0.05497 0.0
H1228 H 0.31832 0.97382 0.03751 0.0
H1229 H 0.33425 0.97031 0.00606 0.0
C1230 C 0.43134 0.97114 0.96196 0.0
C1231 C 0.429 0.9914 0.96224 0.0
C1232 C 0.41523 0.95806 0.96505 0.0
C1233 C 0.39641 0.96495 0.96824 0.0
C1234 C 0.39406 0.98517 0.96857 0.0
C1235 C 0.41018 0.99826 0.96557 0.0
C1236 C 0.37929 0.95106 0.9716 0.0
C1237 C 0.36893 0.95294 0.98876 0.0
C1238 C 0.37381 0.93548 0.95852 0.0
C1239 C 0.38324 0.93345 0.93951 0.0
C1240 C 0.38374 0.94902 0.92611 0.0
C1241 C 0.39281 0.9471 0.90832 0.0
C1242 C 0.40132 0.92963 0.90369 0.0
C1243 C 0.40073 0.91402 0.91683 0.0
C1244 C 0.39169 0.91587 0.93466 0.0
C1245 C 0.29923 0.89841 0.99296 0.0
C1246 C 0.30413 0.87871 0.99412 0.0
C1247 C 0.31359 0.91298 0.98848 0.0
C1248 C 0.3331 0.90812 0.98512 0.0
C1249 C 0.33795 0.88849 0.98606 0.0
C1250 C 0.32367 0.87397 0.99057 0.0
C1251 C 0.34865 0.92337 0.98072 0.0
C1252 C 0.35869 0.92176 0.96334 0.0
C1253 C 0.35378 0.93923 0.99356 0.0
C1254 C 0.34425 0.94137 0.01247 0.0
C1255 C 0.34478 0.92638 0.0265 0.0
C1256 C 0.33566 0.92847 0.04425 0.0
C1257 C 0.3261 0.94554 0.04819 0.0
C1258 C 0.3257 0.96059 0.03442 0.0
C1259 C 0.33478 0.95856 0.01664 0.0
H1260 H 0.31905 0.94713 0.06194 0.0
H1261 H 0.40834 0.92817 0.88991 0.0
H1262 H 0.26668 0.3188 0.3065 0.0
H1263 H 0.24397 0.34534 0.30273 0.0
H1264 H 0.24642 0.34151 0.23998 0.0
H1265 H 0.2686 0.31454 0.24352 0.0
H1266 H 0.25331 0.37936 0.25479 0.0
H1267 H 0.20586 0.32489 0.2608 0.0
H1268 H 0.19136 0.2957 0.27691 0.0
H1269 H 0.18138 0.3299 0.32778 0.0
H1270 H 0.19608 0.35926 0.31208 0.0
H1271 H 0.18356 0.44618 0.22735 0.0
H1272 H 0.19877 0.41473 0.23076 0.0
H1273 H 0.18821 0.41445 0.29249 0.0
H1274 H 0.17216 0.44561 0.28894 0.0
H1275 H 0.18513 0.37822 0.27893 0.0
H1276 H 0.23308 0.43171 0.27529 0.0
H1277 H 0.24891 0.46147 0.26139 0.0
H1278 H 0.25989 0.42996 0.20906 0.0
H1279 H 0.24386 0.40007 0.22255 0.0
C1280 C 0.26214 0.32334 0.29187 0.0
C1281 C 0.26953 0.31451 0.2753 0.0
C1282 C 0.2492 0.33856 0.28976 0.0
C1283 C 0.24345 0.3453 0.27108 0.0
C1284 C 0.25072 0.33652 0.25453 0.0
C1285 C 0.26351 0.32121 0.25661 0.0
C1286 C 0.23056 0.36209 0.26875 0.0
C1287 C 0.23829 0.37901 0.25978 0.0
C1288 C 0.21125 0.36184 0.27595 0.0
C1289 C 0.20225 0.34423 0.28533 0.0
C1290 C 0.20072 0.32616 0.27548 0.0
C1291 C 0.19244 0.30958 0.28453 0.0
C1292 C 0.1855 0.31093 0.30338 0.0
C1293 C 0.18678 0.32887 0.31319 0.0
C1294 C 0.19507 0.34549 0.30422 0.0
C1295 C 0.1841 0.4392 0.24157 0.0
C1296 C 0.1769 0.44844 0.25793 0.0
C1297 C 0.19289 0.42128 0.24353 0.0
C1298 C 0.1952 0.41251 0.262 0.0
C1299 C 0.18675 0.42101 0.27812 0.0
C1300 C 0.17756 0.43881 0.27608 0.0
C1301 C 0.20778 0.39545 0.26467 0.0
C1302 C 0.2001 0.37854 0.27383 0.0
C1303 C 0.22734 0.39579 0.25797 0.0
C1304 C 0.2371 0.41371 0.24985 0.0
C1305 C 0.23875 0.43117 0.26077 0.0
C1306 C 0.24777 0.44805 0.25297 0.0
C1307 C 0.25535 0.44762 0.23434 0.0
C1308 C 0.25398 0.43028 0.22348 0.0
C1309 C 0.24494 0.41336 0.2312 0.0
H1310 H 0.26233 0.46071 0.22832 0.0
H1311 H 0.1791 0.29808 0.31036 0.0
H1312 H 0.07511 0.02226 0.51429 0.0
H1313 H 0.1043 0.04483 0.52002 0.0
H1314 H 0.12342 0.03234 0.4623 0.0
H1315 H 0.09392 0.01021 0.45629 0.0
H1316 H 0.15353 0.03163 0.50014 0.0
H1317 H 0.1072 0.06993 0.46084 0.0
H1318 H 0.07429 0.08306 0.45386 0.0
H1319 H 0.07741 0.11108 0.51018 0.0
H1320 H 0.11022 0.09782 0.51761 0.0
H1321 H 0.23005 0.10652 0.4927 0.0
H1322 H 0.203 0.0816 0.48754 0.0
H1323 H 0.16714 0.11314 0.52615 0.0
H1324 H 0.19363 0.13863 0.53017 0.0
H1325 H 0.14519 0.10309 0.49752 0.0
H1326 H 0.19037 0.06735 0.53791 0.0
H1327 H 0.22221 0.05348 0.54815 0.0
H1328 H 0.22076 0.01999 0.49498 0.0
H1329 H 0.18903 0.03385 0.4843 0.0
C1330 C 0.08559 0.02434 0.50288 0.0
C1331 C 0.08231 0.01464 0.48483 0.0
C1332 C 0.1022 0.03716 0.50616 0.0
C1333 C 0.11595 0.04014 0.49159 0.0
C1334 C 0.11295 0.03014 0.47371 0.0
C1335 C 0.09611 0.01765 0.47026 0.0
C1336 C 0.13309 0.05427 0.49481 0.0
C1337 C 0.15188 0.04728 0.49937 0.0
C1338 C 0.13065 0.07459 0.49439 0.0
C1339 C 0.11103 0.08269 0.48986 0.0
C1340 C 0.10077 0.07871 0.47181 0.0
C1341 C 0.08216 0.08622 0.46776 0.0
C1342 C 0.07373 0.09785 0.4816 0.0
C1343 C 0.08393 0.10204 0.49949 0.0
C1344 C 0.10254 0.09454 0.50362 0.0
C1345 C 0.21644 0.10797 0.5002 0.0
C1346 C 0.21388 0.12447 0.51181 0.0
C1347 C 0.20099 0.09367 0.49735 0.0
C1348 C 0.18298 0.09526 0.50663 0.0
C1349 C 0.18076 0.11154 0.5187 0.0
C1350 C 0.19594 0.12608 0.52107 0.0
C1351 C 0.16605 0.08063 0.50306 0.0
C1352 C 0.14713 0.08749 0.49839 0.0
C1353 C 0.16836 0.06017 0.50384 0.0
C1354 C 0.18742 0.05179 0.51022 0.0
C1355 C 0.19692 0.05714 0.52834 0.0
C1356 C 0.21493 0.04926 0.53423 0.0
C1357 C 0.22353 0.0359 0.52219 0.0
C1358 C 0.2141 0.03036 0.50427 0.0
C1359 C 0.19609 0.0382 0.4983 0.0
H1360 H 0.23747 0.02982 0.52678 0.0
H1361 H 0.05933 0.10365 0.47843 0.0
H1362 H 0.80544 0.16584 0.73045 0.0
H1363 H 0.78138 0.13813 0.73377 0.0
H1364 H 0.73341 0.17729 0.72935 0.0
H1365 H 0.75741 0.20505 0.72583 0.0
H1366 H 0.73168 0.14962 0.76115 0.0
H1367 H 0.73923 0.15165 0.69169 0.0
H1368 H 0.75809 0.15275 0.6617 0.0
H1369 H 0.78274 0.09793 0.67683 0.0
H1370 H 0.76426 0.09665 0.70708 0.0
H1371 H 0.65737 0.07253 0.7577 0.0
H1372 H 0.67664 0.10236 0.74934 0.0
H1373 H 0.72705 0.06822 0.73888 0.0
H1374 H 0.70768 0.03844 0.74643 0.0
H1375 H 0.72537 0.09528 0.71291 0.0
H1376 H 0.72154 0.09394 0.78303 0.0
H1377 H 0.70476 0.0924 0.81427 0.0
H1378 H 0.67554 0.14499 0.79958 0.0
H1379 H 0.69197 0.1467 0.76812 0.0
C1380 C 0.78977 0.16851 0.73024 0.0
C1381 C 0.78325 0.18753 0.72786 0.0
C1382 C 0.77606 0.1527 0.73203 0.0
C1383 C 0.75565 0.1557 0.73169 0.0
C1384 C 0.74911 0.17471 0.72959 0.0
C1385 C 0.76279 0.19049 0.7275 0.0
C1386 C 0.74119 0.13894 0.73373 0.0
C1387 C 0.73 0.13786 0.75046 0.0
C1388 C 0.73944 0.12347 0.71998 0.0
C1389 C 0.75049 0.12415 0.70174 0.0
C1390 C 0.7488 0.13991 0.68871 0.0
C1391 C 0.7594 0.14055 0.67165 0.0
C1392 C 0.77164 0.12544 0.66738 0.0
C1393 C 0.77327 0.10963 0.68016 0.0
C1394 C 0.76272 0.10894 0.69726 0.0
C1395 C 0.67249 0.0714 0.7534 0.0
C1396 C 0.68103 0.05316 0.75279 0.0
C1397 C 0.68354 0.08846 0.74874 0.0
C1398 C 0.70345 0.08761 0.74384 0.0
C1399 C 0.71174 0.06931 0.74262 0.0
C1400 C 0.70064 0.05226 0.74698 0.0
C1401 C 0.71597 0.1057 0.74055 0.0
C1402 C 0.72684 0.10707 0.72355 0.0
C1403 C 0.71767 0.12131 0.75424 0.0
C1404 C 0.7078 0.12032 0.77314 0.0
C1405 C 0.71142 0.10509 0.7864 0.0
C1406 C 0.70199 0.1042 0.80415 0.0
C1407 C 0.68904 0.11855 0.80888 0.0
C1408 C 0.68554 0.13386 0.79588 0.0
C1409 C 0.69491 0.13481 0.77809 0.0
H1410 H 0.68176 0.11784 0.82263 0.0
H1411 H 0.77983 0.12596 0.65416 0.0
H1412 H 0.46452 0.02953 0.54437 0.0
H1413 H 0.43798 0.05197 0.53824 0.0
H1414 H 0.39564 0.00304 0.52955 0.0
H1415 H 0.42233 0.98048 0.53528 0.0
H1416 H 0.38857 0.03004 0.50302 0.0
H1417 H 0.3988 0.03001 0.57254 0.0
H1418 H 0.41815 0.03246 0.60403 0.0
H1419 H 0.43684 0.09168 0.59105 0.0
H1420 H 0.41783 0.0895 0.55934 0.0
H1421 H 0.30566 0.0918 0.51173 0.0
H1422 H 0.32945 0.06607 0.51583 0.0
H1423 H 0.37765 0.10985 0.52055 0.0
H1424 H 0.35415 0.13552 0.51656 0.0
H1425 H 0.37947 0.08345 0.55021 0.0
H1426 H 0.36979 0.08229 0.4797 0.0
H1427 H 0.35003 0.0792 0.44848 0.0
H1428 H 0.32907 0.02139 0.46428 0.0
H1429 H 0.34852 0.02425 0.49573 0.0
C1430 C 0.44953 0.02356 0.54129 0.0
C1431 C 0.44545 0.00326 0.54047 0.0
C1432 C 0.43436 0.03639 0.53779 0.0
C1433 C 0.41472 0.02921 0.53377 0.0
C1434 C 0.41066 0.00893 0.53267 0.0
C1435 C 0.42589 0.99606 0.53595 0.0
C1436 C 0.39852 0.04295 0.53075 0.0
C1437 C 0.38637 0.04153 0.51349 0.0
C1438 C 0.39573 0.05807 0.54431 0.0
C1439 C 0.407 0.05953 0.56349 0.0
C1440 C 0.40713 0.04352 0.57634 0.0
C1441 C 0.41803 0.04486 0.59424 0.0
C1442 C 0.42875 0.0622 0.59952 0.0
C1443 C 0.42854 0.07825 0.58693 0.0
C1444 C 0.41769 0.07698 0.56901 0.0
C1445 C 0.32135 0.09592 0.51342 0.0
C1446 C 0.32799 0.11573 0.5139 0.0
C1447 C 0.33492 0.0812 0.51573 0.0
C1448 C 0.35533 0.08606 0.51852 0.0
C1449 C 0.36197 0.10578 0.51852 0.0
C1450 C 0.34848 0.12044 0.51617 0.0
C1451 C 0.36983 0.07079 0.52232 0.0
C1452 C 0.3816 0.07189 0.5398 0.0
C1453 C 0.37211 0.0553 0.50906 0.0
C1454 C 0.36043 0.05358 0.49016 0.0
C1455 C 0.36083 0.06899 0.47659 0.0
C1456 C 0.34971 0.06726 0.45884 0.0
C1457 C 0.33825 0.05013 0.45443 0.0
C1458 C 0.33793 0.03467 0.46773 0.0
C1459 C 0.349 0.03633 0.48552 0.0
H1460 H 0.32966 0.04882 0.44067 0.0
H1461 H 0.43719 0.06321 0.61338 0.0
H1462 H 0.55932 0.49432 0.47493 0.0
H1463 H 0.58931 0.47624 0.47172 0.0
H1464 H 0.59652 0.47249 0.5346 0.0
H1465 H 0.5672 0.49128 0.53795 0.0
H1466 H 0.63085 0.48229 0.51948 0.0
H1467 H 0.57771 0.43344 0.50549 0.0
H1468 H 0.5476 0.41957 0.48769 0.0
H1469 H 0.578 0.42136 0.43396 0.0
H1470 H 0.60823 0.43548 0.45143 0.0
H1471 H 0.68815 0.40196 0.53967 0.0
H1472 H 0.66223 0.42512 0.53496 0.0
H1473 H 0.67016 0.42519 0.47276 0.0
H1474 H 0.69636 0.40177 0.47738 0.0
H1475 H 0.63051 0.42009 0.48229 0.0
H1476 H 0.6853 0.46473 0.49798 0.0
H1477 H 0.7153 0.47768 0.51658 0.0
H1478 H 0.68172 0.4832 0.56784 0.0
H1479 H 0.65156 0.47001 0.54963 0.0
C1480 C 0.56736 0.48973 0.48808 0.0
C1481 C 0.56077 0.49418 0.50671 0.0
C1482 C 0.58441 0.47926 0.48621 0.0
C1483 C 0.59509 0.47286 0.50292 0.0
C1484 C 0.58852 0.47726 0.5215 0.0
C1485 C 0.57158 0.4878 0.52338 0.0
C1486 C 0.61322 0.46171 0.50127 0.0
C1487 C 0.63073 0.46863 0.51144 0.0
C1488 C 0.61328 0.44424 0.4902 0.0
C1489 C 0.59514 0.43573 0.47972 0.0
C1490 C 0.57792 0.43102 0.48986 0.0
C1491 C 0.56084 0.42309 0.47983 0.0
C1492 C 0.56086 0.41964 0.45969 0.0
C1493 C 0.57799 0.42407 0.44955 0.0
C1494 C 0.5951 0.43203 0.4595 0.0
C1495 C 0.68454 0.40697 0.52498 0.0
C1496 C 0.69431 0.40001 0.50889 0.0
C1497 C 0.66976 0.42031 0.52233 0.0
C1498 C 0.66439 0.42701 0.50354 0.0
C1499 C 0.67417 0.42024 0.48739 0.0
C1500 C 0.68916 0.40695 0.49006 0.0
C1501 C 0.6479 0.44038 0.50101 0.0
C1502 C 0.63071 0.43392 0.49004 0.0
C1503 C 0.64808 0.45823 0.51143 0.0
C1504 C 0.66618 0.46627 0.52244 0.0
C1505 C 0.68433 0.46858 0.51325 0.0
C1506 C 0.70137 0.47598 0.52372 0.0
C1507 C 0.70043 0.48124 0.54338 0.0
C1508 C 0.68243 0.47913 0.55261 0.0
C1509 C 0.66535 0.47171 0.54221 0.0
H1510 H 0.71363 0.48697 0.55147 0.0
H1511 H 0.54763 0.4135 0.45196 0.0
H1512 H 0.7447 0.24114 0.305 0.0
H1513 H 0.74938 0.26192 0.334 0.0
H1514 H 0.68616 0.25966 0.34062 0.0
H1515 H 0.68131 0.23824 0.31189 0.0
H1516 H 0.70702 0.29835 0.34695 0.0
H1517 H 0.7093 0.23117 0.36777 0.0
H1518 H 0.72084 0.19766 0.36647 0.0
H1519 H 0.78084 0.21948 0.37905 0.0
H1520 H 0.76968 0.25318 0.38011 0.0
H1521 H 0.71322 0.32981 0.4476 0.0
H1522 H 0.70508 0.31466 0.41555 0.0
H1523 H 0.76628 0.30052 0.4113 0.0
H1524 H 0.77426 0.31491 0.44348 0.0
H1525 H 0.74405 0.26988 0.40354 0.0
H1526 H 0.74324 0.33664 0.38249 0.0
H1527 H 0.73311 0.3707 0.38263 0.0
H1528 H 0.67253 0.35098 0.36963 0.0
H1529 H 0.68226 0.31677 0.36967 0.0
C1530 C 0.73176 0.24495 0.31263 0.0
C1531 C 0.71264 0.23774 0.30627 0.0
C1532 C 0.73446 0.25698 0.3291 0.0
C1533 C 0.71812 0.26219 0.33947 0.0
C1534 C 0.69894 0.25583 0.33272 0.0
C1535 C 0.69621 0.24361 0.3163 0.0
C1536 C 0.72136 0.27306 0.35814 0.0
C1537 C 0.71488 0.29211 0.35947 0.0
C1538 C 0.73196 0.26498 0.37423 0.0
C1539 C 0.73867 0.24471 0.37384 0.0
C1540 C 0.72497 0.22884 0.3701 0.0
C1541 C 0.73144 0.20981 0.36943 0.0
C1542 C 0.75156 0.20645 0.37263 0.0
C1543 C 0.76526 0.22211 0.37656 0.0
C1544 C 0.75886 0.24117 0.37721 0.0
C1545 C 0.72496 0.32373 0.43966 0.0
C1546 C 0.74434 0.32339 0.4481 0.0
C1547 C 0.72032 0.31512 0.42131 0.0
C1548 C 0.73507 0.30644 0.41095 0.0
C1549 C 0.75459 0.30696 0.41905 0.0
C1550 C 0.75915 0.31523 0.43744 0.0
C1551 C 0.73011 0.29552 0.39242 0.0
C1552 C 0.73619 0.27628 0.39112 0.0
C1553 C 0.71934 0.30358 0.37633 0.0
C1554 C 0.71345 0.32413 0.3763 0.0
C1555 C 0.72773 0.33955 0.37983 0.0
C1556 C 0.72207 0.35889 0.37984 0.0
C1557 C 0.70218 0.363 0.3762 0.0
C1558 C 0.68793 0.34778 0.37248 0.0
C1559 C 0.69351 0.32841 0.37247 0.0
H1560 H 0.69783 0.37798 0.37621 0.0
H1561 H 0.75655 0.19171 0.3721 0.0
H1562 H 0.51593 0.02127 0.94501 0.0
H1563 H 0.53967 0.01704 0.91977 0.0
H1564 H 0.492 0.99759 0.87903 0.0
H1565 H 0.46799 0.00203 0.90424 0.0
H1566 H 0.52489 0.97514 0.87709 0.0
H1567 H 0.51106 0.04271 0.87511 0.0
H1568 H 0.50687 0.07547 0.88873 0.0
H1569 H 0.56798 0.07903 0.90943 0.0
H1570 H 0.57247 0.04614 0.89619 0.0
H1571 H 0.58919 0.9877 0.79572 0.0
H1572 H 0.56136 0.98849 0.81746 0.0
H1573 H 0.60145 0.01015 0.86446 0.0
H1574 H 0.62912 0.00951 0.84298 0.0
H1575 H 0.56938 0.03187 0.86019 0.0
H1576 H 0.58244 0.96334 0.86405 0.0
H1577 H 0.58645 0.93039 0.85078 0.0
H1578 H 0.52665 0.92876 0.82625 0.0
H1579 H 0.52238 0.96183 0.83916 0.0
C1580 C 0.51043 0.01623 0.93065 0.0
C1581 C 0.49002 0.01222 0.92659 0.0
C1582 C 0.52404 0.01375 0.91625 0.0
C1583 C 0.51758 0.00726 0.89744 0.0
C1584 C 0.49729 0.00264 0.89345 0.0
C1585 C 0.48361 0.00516 0.90788 0.0
C1586 C 0.53209 0.00579 0.88195 0.0
C1587 C 0.5344 0.9876 0.87312 0.0
C1588 C 0.54463 0.02201 0.87694 0.0
C1589 C 0.54205 0.04188 0.88478 0.0
C1590 C 0.52357 0.05041 0.88269 0.0
C1591 C 0.52115 0.06901 0.89032 0.0
C1592 C 0.53714 0.07931 0.89997 0.0
C1593 C 0.5556 0.07103 0.90196 0.0
C1594 C 0.5581 0.05242 0.89438 0.0
C1595 C 0.59208 0.99244 0.81074 0.0
C1596 C 0.61138 0.99862 0.81758 0.0
C1597 C 0.57617 0.99285 0.82315 0.0
C1598 C 0.57933 0.9994 0.84259 0.0
C1599 C 0.59864 0.00514 0.8495 0.0
C1600 C 0.61447 0.00471 0.83718 0.0
C1601 C 0.56258 0.00109 0.85568 0.0
C1602 C 0.55977 0.01941 0.86401 0.0
C1603 C 0.5496 0.985 0.86015 0.0
C1604 C 0.55217 0.96515 0.85236 0.0
C1605 C 0.57021 0.95603 0.85567 0.0
C1606 C 0.57252 0.93732 0.84825 0.0
C1607 C 0.55684 0.92751 0.83762 0.0
C1608 C 0.5388 0.93639 0.83444 0.0
C1609 C 0.53642 0.95511 0.84182 0.0
H1610 H 0.55865 0.91302 0.8319 0.0
H1611 H 0.53523 0.09371 0.90588 0.0
H1612 H 0.25958 0.25099 0.30555 0.0
H1613 H 0.25484 0.23026 0.33417 0.0
H1614 H 0.31807 0.23242 0.3468 0.0
H1615 H 0.32297 0.25359 0.31839 0.0
H1616 H 0.29777 0.1945 0.35328 0.0
H1617 H 0.29397 0.26288 0.36977 0.0
H1618 H 0.28136 0.29576 0.36497 0.0
H1619 H 0.22197 0.27287 0.37317 0.0
H1620 H 0.2342 0.23977 0.3777 0.0
H1621 H 0.29787 0.17225 0.45563 0.0
H1622 H 0.30306 0.1839 0.42237 0.0
H1623 H 0.24097 0.19577 0.41521 0.0
H1624 H 0.23598 0.18502 0.4487 0.0
H1625 H 0.26115 0.22585 0.40496 0.0
H1626 H 0.26385 0.15788 0.38985 0.0
H1627 H 0.27523 0.12439 0.39331 0.0
H1628 H 0.3346 0.14497 0.38162 0.0
H1629 H 0.32363 0.17865 0.37835 0.0
C1630 C 0.27251 0.24702 0.31436 0.0
C1631 C 0.29163 0.25423 0.30988 0.0
C1632 C 0.26977 0.23503 0.3306 0.0
C1633 C 0.28609 0.22999 0.34266 0.0
C1634 C 0.3053 0.23613 0.33761 0.0
C1635 C 0.30806 0.24822 0.32138 0.0
C1636 C 0.28288 0.22003 0.36154 0.0
C1637 C 0.28994 0.20134 0.36471 0.0
C1638 C 0.27229 0.22887 0.37621 0.0
C1639 C 0.26498 0.24883 0.37389 0.0
C1640 C 0.27821 0.26484 0.37042 0.0
C1641 C 0.27113 0.28351 0.36776 0.0
C1642 C 0.25087 0.28639 0.36872 0.0
C1643 C 0.23766 0.27061 0.37241 0.0
C1644 C 0.24465 0.25189 0.37504 0.0
C1645 C 0.28527 0.177 0.4468 0.0
C1646 C 0.26655 0.17787 0.45479 0.0
C1647 C 0.28823 0.1836 0.42774 0.0
C1648 C 0.27239 0.1907 0.41617 0.0
C1649 C 0.25347 0.19053 0.42385 0.0
C1650 C 0.25061 0.18433 0.44298 0.0
C1651 C 0.27576 0.19997 0.39685 0.0
C1652 C 0.26886 0.21875 0.39359 0.0
C1653 C 0.2863 0.19106 0.38209 0.0
C1654 C 0.29294 0.17082 0.38404 0.0
C1655 C 0.27936 0.15529 0.38817 0.0
C1656 C 0.28573 0.13627 0.39007 0.0
C1657 C 0.30563 0.13256 0.38774 0.0
C1658 C 0.31919 0.14787 0.38345 0.0
C1659 C 0.3129 0.16692 0.38155 0.0
H1660 H 0.31054 0.11782 0.38921 0.0
H1661 H 0.24542 0.30086 0.36664 0.0
H1662 H 0.54421 0.4985 0.92311 0.0
H1663 H 0.52316 0.50593 0.89437 0.0
H1664 H 0.47103 0.49628 0.92788 0.0
H1665 H 0.49217 0.48829 0.95667 0.0
H1666 H 0.46426 0.48042 0.89362 0.0
H1667 H 0.48839 0.54325 0.91489 0.0
H1668 H 0.51294 0.56911 0.92637 0.0
H1669 H 0.54228 0.56596 0.87224 0.0
H1670 H 0.51809 0.53986 0.86053 0.0
H1671 H 0.41034 0.52091 0.80877 0.0
H1672 H 0.42394 0.51891 0.84278 0.0
H1673 H 0.48157 0.5085 0.82162 0.0
H1674 H 0.46815 0.50996 0.78795 0.0
H1675 H 0.48024 0.53837 0.85273 0.0
H1676 H 0.45742 0.47139 0.83499 0.0
H1677 H 0.43163 0.44636 0.82428 0.0
H1678 H 0.39752 0.4598 0.87347 0.0
H1679 H 0.42302 0.48512 0.88431 0.0
C1680 C 0.52827 0.49812 0.9244 0.0
C1681 C 0.51984 0.49297 0.94217 0.0
C1682 C 0.51623 0.50244 0.90797 0.0
C1683 C 0.49548 0.50211 0.90901 0.0
C1684 C 0.48699 0.49675 0.92671 0.0
C1685 C 0.49906 0.49217 0.94313 0.0
C1686 C 0.48282 0.50683 0.89138 0.0
C1687 C 0.4675 0.49333 0.88495 0.0
C1688 C 0.48691 0.52369 0.87998 0.0
C1689 C 0.50147 0.53949 0.88688 0.0
C1690 C 0.50015 0.54798 0.90548 0.0
C1691 C 0.514 0.56269 0.91202 0.0
C1692 C 0.52917 0.56916 0.90005 0.0
C1693 C 0.53051 0.56094 0.88149 0.0
C1694 C 0.51672 0.5462 0.87488 0.0
C1695 C 0.42591 0.51826 0.81144 0.0
C1696 C 0.43815 0.51547 0.79572 0.0
C1697 C 0.43363 0.51711 0.83081 0.0
C1698 C 0.45375 0.51357 0.83463 0.0
C1699 C 0.46602 0.51128 0.81895 0.0
C1700 C 0.45828 0.51201 0.79973 0.0
C1701 C 0.46228 0.5117 0.85486 0.0
C1702 C 0.47679 0.52573 0.86173 0.0
C1703 C 0.45722 0.49556 0.8668 0.0
C1704 C 0.44197 0.48031 0.8603 0.0
C1705 C 0.44432 0.46914 0.8434 0.0
C1706 C 0.42978 0.45487 0.83733 0.0
C1707 C 0.41291 0.45154 0.84814 0.0
C1708 C 0.41057 0.46243 0.86508 0.0
C1709 C 0.42506 0.47674 0.8712 0.0
H1710 H 0.40167 0.44048 0.84343 0.0
H1711 H 0.53988 0.58055 0.90515 0.0
H1712 H 0.69521 0.78727 0.17606 0.0
H1713 H 0.70041 0.76125 0.15257 0.0
H1714 H 0.75976 0.75567 0.17767 0.0
H1715 H 0.75482 0.78225 0.20052 0.0
H1716 H 0.76157 0.75535 0.14089 0.0
H1717 H 0.71941 0.72097 0.18466 0.0
H1718 H 0.68993 0.71467 0.20405 0.0
H1719 H 0.65255 0.71258 0.15141 0.0
H1720 H 0.6818 0.71914 0.1317 0.0
H1721 H 0.77819 0.66579 0.09312 0.0
H1722 H 0.76932 0.68663 0.12016 0.0
H1723 H 0.72146 0.70868 0.08402 0.0
H1724 H 0.73046 0.68821 0.05683 0.0
H1725 H 0.71378 0.69906 0.12691 0.0
H1726 H 0.75774 0.73581 0.08418 0.0
H1727 H 0.7883 0.74044 0.06604 0.0
H1728 H 0.82363 0.73578 0.11959 0.0
H1729 H 0.79324 0.7308 0.138 0.0
C1730 C 0.70929 0.78035 0.17659 0.0
C1731 C 0.72465 0.78675 0.19 0.0
C1732 C 0.71223 0.7654 0.16326 0.0
C1733 C 0.73041 0.75625 0.16346 0.0
C1734 C 0.74562 0.76249 0.17714 0.0
C1735 C 0.74281 0.77766 0.19019 0.0
C1736 C 0.734 0.74086 0.14886 0.0
C1737 C 0.75121 0.74291 0.13815 0.0
C1738 C 0.72041 0.72469 0.14493 0.0
C1739 C 0.70278 0.72073 0.15672 0.0
C1740 C 0.70489 0.71932 0.17722 0.0
C1741 C 0.68822 0.71567 0.18827 0.0
C1742 C 0.66937 0.71327 0.17897 0.0
C1743 C 0.66716 0.71446 0.1586 0.0
C1744 C 0.68378 0.71813 0.14748 0.0
C1745 C 0.76555 0.67481 0.09105 0.0
C1746 C 0.75515 0.67556 0.07279 0.0
C1747 C 0.76054 0.6867 0.10648 0.0
C1748 C 0.74481 0.69921 0.10399 0.0
C1749 C 0.73364 0.69909 0.08618 0.0
C1750 C 0.7389 0.68751 0.07062 0.0
C1751 C 0.74124 0.7137 0.11926 0.0
C1752 C 0.72408 0.71149 0.12994 0.0
C1753 C 0.75499 0.72955 0.12345 0.0
C1754 C 0.77324 0.7327 0.11242 0.0
C1755 C 0.77203 0.73558 0.09205 0.0
C1756 C 0.78932 0.7383 0.08173 0.0
C1757 C 0.8079 0.73834 0.09164 0.0
C1758 C 0.80923 0.73571 0.11192 0.0
C1759 C 0.79198 0.73294 0.12231 0.0
H1760 H 0.82127 0.74046 0.08363 0.0
H1761 H 0.65649 0.71045 0.18755 0.0
H1762 H 0.03281 0.00671 0.06804 0.0
H1763 H 0.0119 0.00526 0.0962 0.0
H1764 H 0.96244 0.02398 0.05995 0.0
H1765 H 0.98318 0.02518 0.03158 0.0
H1766 H 0.96765 0.04516 0.09344 0.0
H1767 H 0.96272 0.97751 0.07602 0.0
H1768 H 0.97515 0.94554 0.06753 0.0
H1769 H 0.00667 0.94331 0.12346 0.0
H1770 H 0.99466 0.97541 0.13219 0.0
H1771 H 0.90135 0.03507 0.17059 0.0
H1772 H 0.91607 0.0303 0.13904 0.0
H1773 H 0.96822 0.00851 0.16875 0.0
H1774 H 0.95348 0.01288 0.20022 0.0
H1775 H 0.9587 0.98758 0.13667 0.0
H1776 H 0.96677 0.05619 0.1527 0.0
H1777 H 0.9554 0.08857 0.16137 0.0
H1778 H 0.919 0.08924 0.10816 0.0
H1779 H 0.92998 0.05674 0.0993 0.0
C1780 C 0.01738 0.01013 0.06594 0.0
C1781 C 0.00968 0.01606 0.04753 0.0
C1782 C 0.00545 0.00934 0.08208 0.0
C1783 C 0.98557 0.01438 0.08015 0.0
C1784 C 0.97775 0.02005 0.06176 0.0
C1785 C 0.98965 0.02079 0.04559 0.0
C1786 C 0.97331 0.01475 0.09756 0.0
C1787 C 0.96536 0.03246 0.10269 0.0
C1788 C 0.97071 0.99831 0.10986 0.0
C1789 C 0.97791 0.97895 0.10469 0.0
C1790 C 0.97242 0.97028 0.08645 0.0
C1791 C 0.97938 0.95212 0.08161 0.0
C1792 C 0.99173 0.94242 0.09493 0.0
C1793 C 0.99712 0.95084 0.11315 0.0
C1794 C 0.99022 0.96901 0.11806 0.0
C1795 C 0.91588 0.0291 0.17038 0.0
C1796 C 0.92628 0.02442 0.18791 0.0
C1797 C 0.9243 0.02645 0.15234 0.0
C1798 C 0.94338 0.01931 0.15154 0.0
C1799 C 0.95349 0.01403 0.16899 0.0
C1800 C 0.94504 0.01657 0.187 0.0
C1801 C 0.95324 0.01804 0.13266 0.0
C1802 C 0.96078 0.0002 0.12728 0.0
C1803 C 0.95558 0.03439 0.12017 0.0
C1804 C 0.94901 0.05395 0.12545 0.0
C1805 C 0.95623 0.06318 0.14293 0.0
C1806 C 0.94988 0.08157 0.14786 0.0
C1807 C 0.93644 0.09093 0.13536 0.0
C1808 C 0.92938 0.08195 0.11785 0.0
C1809 C 0.93566 0.06356 0.11286 0.0
H1810 H 0.93155 0.10516 0.1392 0.0
H1811 H 0.9971 0.92836 0.09115 0.0
H1812 H 0.30213 0.72272 0.17434 0.0
H1813 H 0.2985 0.74413 0.14586 0.0
H1814 H 0.3083 0.79471 0.1833 0.0
H1815 H 0.31211 0.7733 0.21189 0.0
H1816 H 0.27404 0.79524 0.15713 0.0
H1817 H 0.34355 0.78542 0.15558 0.0
H1818 H 0.37335 0.76608 0.15602 0.0
H1819 H 0.35143 0.73651 0.10337 0.0
H1820 H 0.32133 0.75546 0.10277 0.0
H1821 H 0.26737 0.85693 0.07447 0.0
H1822 H 0.28092 0.84267 0.10475 0.0
H1823 H 0.28526 0.7876 0.07499 0.0
H1824 H 0.27244 0.80194 0.04463 0.0
H1825 H 0.31572 0.79308 0.09945 0.0
H1826 H 0.24496 0.79799 0.10314 0.0
H1827 H 0.21363 0.815 0.10251 0.0
H1828 H 0.23613 0.85121 0.15068 0.0
H1829 H 0.26771 0.83455 0.15143 0.0
C1830 C 0.30357 0.73841 0.17646 0.0
C1831 C 0.30734 0.74641 0.19526 0.0
C1832 C 0.30163 0.75059 0.16021 0.0
C1833 C 0.30327 0.77097 0.16251 0.0
C1834 C 0.30709 0.77901 0.18126 0.0
C1835 C 0.30931 0.76681 0.19751 0.0
C1836 C 0.30003 0.78373 0.14535 0.0
C1837 C 0.28338 0.79514 0.14466 0.0
C1838 C 0.31197 0.78313 0.12898 0.0
C1839 C 0.3301 0.77177 0.12922 0.0
C1840 C 0.345 0.77468 0.14418 0.0
C1841 C 0.36196 0.76381 0.14444 0.0
C1842 C 0.36426 0.75005 0.12975 0.0
C1843 C 0.34962 0.74717 0.11475 0.0
C1844 C 0.33262 0.75799 0.11443 0.0
C1845 C 0.27148 0.84187 0.07435 0.0
C1846 C 0.26871 0.83051 0.05723 0.0
C1847 C 0.27914 0.83371 0.09167 0.0
C1848 C 0.28374 0.81394 0.09226 0.0
C1849 C 0.28181 0.80287 0.07493 0.0
C1850 C 0.27443 0.81108 0.05757 0.0
C1851 C 0.28946 0.80436 0.11102 0.0
C1852 C 0.30655 0.7935 0.11202 0.0
C1853 C 0.27773 0.80519 0.1276 0.0
C1854 C 0.25876 0.8152 0.12718 0.0
C1855 C 0.24327 0.80968 0.1135 0.0
C1856 C 0.22547 0.81924 0.11314 0.0
C1857 C 0.22292 0.83422 0.12651 0.0
C1858 C 0.23815 0.83963 0.1403 0.0
C1859 C 0.256 0.83014 0.14071 0.0
H1860 H 0.20912 0.8416 0.12621 0.0
H1861 H 0.37741 0.74165 0.12998 0.0
H1862 H 0.00234 0.45618 0.09175 0.0
H1863 H 0.02533 0.46178 0.12037 0.0
H1864 H 0.03577 0.52172 0.10289 0.0
H1865 H 0.01238 0.51632 0.0745 0.0
H1866 H 0.07135 0.49659 0.11198 0.0
H1867 H 0.01035 0.51808 0.13779 0.0
H1868 H 0.97501 0.51367 0.1451 0.0
H1869 H 0.98763 0.46348 0.18022 0.0
H1870 H 0.02302 0.46743 0.17287 0.0
H1871 H 0.1318 0.52975 0.19248 0.0
H1872 H 0.10595 0.52702 0.16626 0.0
H1873 H 0.07725 0.47878 0.19637 0.0
H1874 H 0.10242 0.48254 0.22335 0.0
H1875 H 0.0502 0.49781 0.18042 0.0
H1876 H 0.10899 0.47355 0.15555 0.0
H1877 H 0.14425 0.47388 0.14766 0.0
H1878 H 0.13634 0.52342 0.1102 0.0
H1879 H 0.10108 0.52354 0.11806 0.0
C1880 C 0.0095 0.47056 0.09411 0.0
C1881 C 0.00564 0.48584 0.081 0.0
C1882 C 0.02254 0.47374 0.11042 0.0
C1883 C 0.03217 0.49216 0.11369 0.0
C1884 C 0.02842 0.50743 0.10059 0.0
C1885 C 0.01505 0.50436 0.08447 0.0
C1886 C 0.04655 0.49529 0.13055 0.0
C1887 C 0.06679 0.49717 0.12696 0.0
C1888 C 0.04052 0.49519 0.15004 0.0
C1889 C 0.01929 0.49293 0.15461 0.0
C1890 C 0.00556 0.506 0.14692 0.0
C1891 C 0.98553 0.50361 0.15111 0.0
C1892 C 0.97907 0.48827 0.16308 0.0
C1893 C 0.99265 0.47534 0.17093 0.0
C1894 C 0.0127 0.47766 0.16678 0.0
C1895 C 0.11985 0.51868 0.19354 0.0
C1896 C 0.11913 0.50625 0.20982 0.0
C1897 C 0.10516 0.517 0.17847 0.0
C1898 C 0.0899 0.50227 0.17893 0.0
C1899 C 0.08888 0.4902 0.19553 0.0
C1900 C 0.10326 0.49231 0.21094 0.0
C1901 C 0.07528 0.49931 0.162 0.0
C1902 C 0.05493 0.49733 0.16551 0.0
C1903 C 0.08126 0.49874 0.14239 0.0
C1904 C 0.10244 0.49866 0.13755 0.0
C1905 C 0.1148 0.48459 0.14573 0.0
C1906 C 0.13478 0.48469 0.14125 0.0
C1907 C 0.14254 0.4987 0.12848 0.0
C1908 C 0.13032 0.5126 0.12011 0.0
C1909 C 0.11033 0.51258 0.12456 0.0
H1910 H 0.15802 0.49876 0.12504 0.0
H1911 H 0.96355 0.48644 0.1663 0.0
H1912 H 0.34582 0.69459 0.26279 0.0
H1913 H 0.3735 0.69866 0.28702 0.0
H1914 H 0.37546 0.76092 0.27805 0.0
H1915 H 0.34692 0.7573 0.25476 0.0
H1916 H 0.41478 0.73614 0.27735 0.0
H1917 H 0.35814 0.75392 0.31454 0.0
H1918 H 0.32442 0.74751 0.32613 0.0
H1919 H 0.34214 0.69374 0.35218 0.0
H1920 H 0.37591 0.69971 0.34046 0.0
H1921 H 0.48237 0.76692 0.35523 0.0
H1922 H 0.45552 0.76362 0.32996 0.0
H1923 H 0.43214 0.71168 0.35834 0.0
H1924 H 0.45824 0.71566 0.38421 0.0
H1925 H 0.40321 0.73126 0.34831 0.0
H1926 H 0.45871 0.71173 0.31382 0.0
H1927 H 0.49237 0.7143 0.3013 0.0
H1928 H 0.47776 0.76585 0.26917 0.0
H1929 H 0.44407 0.76373 0.2817 0.0
C1930 C 0.35184 0.70922 0.26614 0.0
C1931 C 0.34394 0.72562 0.2568 0.0
C1932 C 0.36782 0.71145 0.27984 0.0
C1933 C 0.37645 0.73006 0.2842 0.0
C1934 C 0.369 0.74643 0.27471 0.0
C1935 C 0.35275 0.74428 0.26131 0.0
C1936 C 0.39297 0.73241 0.29908 0.0
C1937 C 0.41236 0.73536 0.2929 0.0
C1938 C 0.38968 0.73063 0.31923 0.0
C1939 C 0.36946 0.72715 0.32643 0.0
C1940 C 0.35479 0.74064 0.32256 0.0
C1941 C 0.33568 0.7371 0.3292 0.0
C1942 C 0.33112 0.72019 0.33983 0.0
C1943 C 0.34568 0.70681 0.34391 0.0
C1944 C 0.36481 0.71027 0.33729 0.0
C1945 C 0.47153 0.75476 0.35598 0.0
C1946 C 0.47236 0.74155 0.37166 0.0
C1947 C 0.45624 0.7528 0.34147 0.0
C1948 C 0.44189 0.73721 0.342 0.0
C1949 C 0.44293 0.72388 0.35758 0.0
C1950 C 0.45789 0.72612 0.37234 0.0
C1951 C 0.42542 0.7351 0.32675 0.0
C1952 C 0.4059 0.73211 0.33281 0.0
C1953 C 0.42869 0.73636 0.30645 0.0
C1954 C 0.44893 0.73768 0.29886 0.0
C1955 C 0.46272 0.7237 0.3042 0.0
C1956 C 0.4818 0.72506 0.29708 0.0
C1957 C 0.48722 0.74026 0.28449 0.0
C1958 C 0.47355 0.7541 0.27895 0.0
C1959 C 0.45445 0.75282 0.28604 0.0
H1960 H 0.50199 0.74129 0.279 0.0
H1961 H 0.31632 0.71748 0.34495 0.0
H1962 H 0.97865 0.46275 0.99383 0.0
H1963 H 0.98371 0.43542 0.97186 0.0
H1964 H 0.99961 0.39974 0.02153 0.0
H1965 H 0.99429 0.42679 0.04357 0.0
H1966 H 0.02475 0.39574 0.992 0.0
H1967 H 0.95393 0.39489 -4e-05 0.0
H1968 H 0.92107 0.40909 0.99857 0.0
H1969 H 0.92502 0.4186 0.9368 0.0
H1970 H 0.95805 0.40469 0.93788 0.0
H1971 H 0.98043 0.29986 0.94842 0.0
H1972 H 0.97634 0.33171 0.96305 0.0
H1973 H 0.0256 0.35611 0.93164 0.0
H1974 H 0.02997 0.32407 0.91695 0.0
H1975 H 0.96889 0.3678 0.94927 0.0
H1976 H 0.05168 0.3887 0.96329 0.0
H1977 H 0.08376 0.37303 0.96674 0.0
H1978 H 0.05438 0.32078 0.98807 0.0
H1979 H 0.02219 0.33623 0.98497 0.0
C1980 C 0.9831 0.44905 9e-05 0.0
C1981 C 0.98604 0.44697 0.02049 0.0
C1982 C 0.98607 0.43348 0.9875 0.0
C1983 C 0.99198 0.41554 0.99507 0.0
C1984 C 0.99519 0.41351 0.01537 0.0
C1985 C 0.99218 0.42902 0.02795 0.0
C1986 C 0.9943 0.3986 0.98202 0.0
C1987 C 0.0126 0.38975 0.98251 0.0
C1988 C 0.97842 0.3907 0.96972 0.0
C1989 C 0.95854 0.39896 0.96904 0.0
C1990 C 0.94785 0.40015 0.98611 0.0
C1991 C 0.92919 0.40812 0.98538 0.0
C1992 C 0.92099 0.41479 0.96762 0.0
C1993 C 0.93141 0.41346 0.95055 0.0
C1994 C 0.95009 0.40552 0.95121 0.0
C1995 C 0.99033 0.31199 0.94444 0.0
C1996 C 0.00568 0.30933 0.93165 0.0
C1997 C 0.98788 0.33025 0.95275 0.0
C1998 C 0.00077 0.34623 0.94859 0.0
C1999 C 0.0156 0.34389 0.93519 0.0
C2000 C 0.01803 0.32559 0.92678 0.0
C2001 C 0.99931 0.36487 0.95934 0.0
C2002 C 0.98118 0.37404 0.95843 0.0
C2003 C 0.01526 0.3729 0.97147 0.0
C2004 C 0.03453 0.36354 0.97366 0.0
C2005 C 0.05209 0.37388 0.96876 0.0
C2006 C 0.07028 0.36504 0.97065 0.0
C2007 C 0.07109 0.34589 0.97755 0.0
C2008 C 0.05372 0.33558 0.98265 0.0
C2009 C 0.0355 0.34436 0.98081 0.0
H2010 H 0.08519 0.33907 0.97898 0.0
H2011 H 0.90654 0.42096 0.96708 0.0
H2012 H 0.6647 0.80557 0.22217 0.0
H2013 H 0.63877 0.8019 0.24591 0.0
H2014 H 0.6802 0.82409 0.29158 0.0
H2015 H 0.70629 0.82704 0.26821 0.0
H2016 H 0.66083 0.79205 0.30319 0.0
H2017 H 0.64289 0.85179 0.27155 0.0
H2018 H 0.63396 0.87267 0.24346 0.0
H2019 H 0.58265 0.83477 0.22932 0.0
H2020 H 0.59143 0.81351 0.25718 0.0
H2021 H 0.59776 0.80717 0.37896 0.0
H2022 H 0.61944 0.81483 0.35219 0.0
H2023 H 0.57624 0.78733 0.31111 0.0
H2024 H 0.55429 0.77968 0.33786 0.0
H2025 H 0.59509 0.82112 0.29607 0.0
H2026 H 0.61293 0.76157 0.32751 0.0
H2027 H 0.62173 0.74052 0.3555 0.0
H2028 H 0.67339 0.77795 0.36964 0.0
H2029 H 0.66473 0.7994 0.34189 0.0
C2030 C 0.66828 0.80963 0.23729 0.0
C2031 C 0.68757 0.81666 0.24327 0.0
C2032 C 0.65339 0.80771 0.2508 0.0
C2033 C 0.65748 0.8129 0.2705 0.0
C2034 C 0.67667 0.82006 0.27645 0.0
C2035 C 0.69154 0.82192 0.263 0.0
C2036 C 0.64214 0.81007 0.28523 0.0
C2037 C 0.64658 0.79865 0.30173 0.0
C2038 C 0.62327 0.81815 0.28304 0.0
C2039 C 0.61793 0.83095 0.26633 0.0
C2040 C 0.62979 0.84782 0.26235 0.0
C2041 C 0.62474 0.85974 0.24649 0.0
C2042 C 0.60778 0.85502 0.23458 0.0
C2043 C 0.5958 0.8384 0.23854 0.0
C2044 C 0.6008 0.82641 0.25437 0.0
C2045 C 0.59268 0.803 0.36421 0.0
C2046 C 0.57439 0.79258 0.36059 0.0
C2047 C 0.60513 0.80736 0.34893 0.0
C2048 C 0.59959 0.80134 0.32973 0.0
C2049 C 0.58082 0.79203 0.32584 0.0
C2050 C 0.56832 0.78764 0.34116 0.0
C2051 C 0.61404 0.80348 0.31413 0.0
C2052 C 0.60938 0.8146 0.29747 0.0
C2053 C 0.63276 0.79511 0.3161 0.0
C2054 C 0.63807 0.78219 0.33274 0.0
C2055 C 0.62608 0.7654 0.33668 0.0
C2056 C 0.63106 0.75338 0.35249 0.0
C2057 C 0.64808 0.75792 0.36437 0.0
C2058 C 0.66019 0.77446 0.36044 0.0
C2059 C 0.65527 0.78655 0.34467 0.0
H2060 H 0.65192 0.7486 0.3766 0.0
H2061 H 0.60389 0.86427 0.22231 0.0
H2062 H 0.00118 0.05656 0.99029 0.0
H2063 H 1.00009 0.08724 0.97243 0.0
H2064 H 0.06362 0.0883 0.96771 0.0
H2065 H 0.06507 0.05862 0.98708 0.0
H2066 H 0.05478 0.12204 0.97704 0.0
H2067 H 0.02828 0.0775 0.92777 0.0
H2068 H 0.00622 0.05107 0.91312 0.0
H2069 H 0.95561 0.08518 0.92099 0.0
H2070 H 0.97735 0.11171 0.93594 0.0
H2071 H 0.05768 0.1956 0.90285 0.0
H2072 H 0.0566 0.16245 0.91628 0.0
H2073 H 0.00261 0.17372 0.94445 0.0
H2074 H 0.00382 0.20705 0.93149 0.0
H2075 H 0.00659 0.13392 0.92178 0.0
H2076 H 0.03564 0.17762 0.97331 0.0
H2077 H 0.05956 0.20371 0.98559 0.0
H2078 H 0.10799 0.16957 0.96997 0.0
H2079 H 0.08431 0.1434 0.9573 0.0
C2080 C 0.01497 0.06338 0.98563 0.0
C2081 C 0.03322 0.05502 0.99025 0.0
C2082 C 0.01427 0.0808 0.97508 0.0
C2083 C 0.03174 0.09001 0.96841 0.0
C2084 C 0.04991 0.08149 0.97263 0.0
C2085 C 0.05068 0.0643 0.98352 0.0
C2086 C 0.03125 0.10906 0.95802 0.0
C2087 C 0.0444 0.12443 0.96478 0.0
C2088 C 0.01756 0.11245 0.94213 0.0
C2089 C 0.00443 0.09652 0.93315 0.0
C2090 C 0.01243 0.0793 0.92652 0.0
C2091 C 0.99999 0.06431 0.91813 0.0
C2092 C 0.97952 0.06642 0.91617 0.0
C2093 C 0.97146 0.08355 0.92254 0.0
C2094 C 0.98384 0.09858 0.93095 0.0
C2095 C 0.04545 0.19095 0.91172 0.0
C2096 C 0.03092 0.20398 0.91627 0.0
C2097 C 0.04487 0.17205 0.91936 0.0
C2098 C 0.02954 0.16576 0.93132 0.0
C2099 C 0.01452 0.17839 0.93518 0.0
C2100 C 0.01532 0.19745 0.92789 0.0
C2101 C 0.03003 0.1465 0.94093 0.0
C2102 C 0.01693 0.13125 0.93401 0.0
C2103 C 0.04399 0.14304 0.95639 0.0
C2104 C 0.05821 0.15868 0.96415 0.0
C2105 C 0.05138 0.17577 0.97231 0.0
C2106 C 0.0649 0.19055 0.97938 0.0
C2107 C 0.08528 0.18833 0.9785 0.0
C2108 C 0.0922 0.17129 0.9706 0.0
C2109 C 0.07874 0.15648 0.96349 0.0
H2110 H 0.09572 0.19978 0.98399 0.0
H2111 H 0.96991 0.0548 0.90967 0.0
H2112 H 0.31097 0.28918 0.22736 0.0
H2113 H 0.33758 0.28757 0.20467 0.0
H2114 H 0.37767 0.27039 0.25183 0.0
H2115 H 0.35121 0.27274 0.27489 0.0
H2116 H 0.39571 0.29686 0.22833 0.0
H2117 H 0.3575 0.23665 0.21951 0.0
H2118 H 0.32715 0.21545 0.21384 0.0
H2119 H 0.3163 0.24231 0.1579 0.0
H2120 H 0.34645 0.26388 0.16336 0.0
H2121 H 0.46624 0.26165 0.16214 0.0
H2122 H 0.44319 0.26594 0.18821 0.0
H2123 H 0.3992 0.28514 0.14565 0.0
H2124 H 0.42199 0.28082 0.11959 0.0
H2125 H 0.38446 0.25617 0.16842 0.0
H2126 H 0.42271 0.317 0.178 0.0
H2127 H 0.45327 0.33782 0.18402 0.0
H2128 H 0.4646 0.30888 0.23879 0.0
H2129 H 0.43423 0.28769 0.23297 0.0
C2130 C 0.3255 0.28528 0.233 0.0
C2131 C 0.32894 0.28108 0.25297 0.0
C2132 C 0.34066 0.28418 0.21995 0.0
C2133 C 0.35956 0.2786 0.22649 0.0
C2134 C 0.36318 0.27465 0.24645 0.0
C2135 C 0.34799 0.27581 0.25956 0.0
C2136 C 0.37537 0.27673 0.21235 0.0
C2137 C 0.39339 0.28773 0.21537 0.0
C2138 C 0.37225 0.26502 0.19532 0.0
C2139 C 0.35415 0.252 0.19192 0.0
C2140 C 0.34857 0.23814 0.20606 0.0
C2141 C 0.33141 0.22604 0.20288 0.0
C2142 C 0.31978 0.22756 0.18554 0.0
C2143 C 0.32532 0.24116 0.17133 0.0
C2144 C 0.34245 0.25331 0.17445 0.0
C2145 C 0.45177 0.26708 0.15838 0.0
C2146 C 0.44591 0.27076 0.13875 0.0
C2147 C 0.43863 0.26956 0.1733 0.0
C2148 C 0.41945 0.27582 0.16886 0.0
C2149 C 0.41388 0.28019 0.14939 0.0
C2150 C 0.42698 0.27776 0.13451 0.0
C2151 C 0.40465 0.2766 0.18416 0.0
C2152 C 0.38683 0.26527 0.1814 0.0
C2153 C 0.40804 0.2879 0.20144 0.0
C2154 C 0.42631 0.30061 0.20494 0.0
C2155 C 0.43181 0.31495 0.19125 0.0
C2156 C 0.44908 0.32684 0.19464 0.0
C2157 C 0.4609 0.32463 0.21175 0.0
C2158 C 0.45545 0.31055 0.22553 0.0
C2159 C 0.4382 0.29861 0.2222 0.0
H2160 H 0.47427 0.33386 0.21435 0.0
H2161 H 0.30651 0.21818 0.1831 0.0
H2162 H 0.53472 0.43005 0.9718 0.0
H2163 H 0.52891 0.39965 0.98971 0.0
H2164 H 0.53309 0.43167 0.04427 0.0
H2165 H 0.53977 0.46211 0.02629 0.0
H2166 H 0.55129 0.4 0.04939 0.0
H2167 H 0.48734 0.41316 0.02258 0.0
H2168 H 0.46192 0.4216 0.99735 0.0
H2169 H 0.47224 0.3695 0.9653 0.0
H2170 H 0.49794 0.36088 0.9902 0.0
H2171 H 0.50739 0.31218 0.09538 0.0
H2172 H 0.51144 0.34593 0.08339 0.0
H2173 H 0.52937 0.32446 0.02806 0.0
H2174 H 0.52587 0.29097 0.03991 0.0
H2175 H 0.49687 0.3525 0.02727 0.0
H2176 H 0.56365 0.34224 0.05462 0.0
H2177 H 0.5875 0.33443 0.08157 0.0
H2178 H 0.56865 0.38242 0.11522 0.0
H2179 H 0.54445 0.39033 0.08855 0.0
C2180 C 0.53427 0.43059 0.98761 0.0
C2181 C 0.5375 0.44841 0.99767 0.0
C2182 C 0.53086 0.41323 0.99785 0.0
C2183 C 0.53008 0.41335 0.01836 0.0
C2184 C 0.53352 0.43116 0.02846 0.0
C2185 C 0.5373 0.44854 0.01821 0.0
C2186 C 0.52607 0.39479 0.02913 0.0
C2187 C 0.53914 0.38981 0.04475 0.0
C2188 C 0.51021 0.38139 0.0232 0.0
C2189 C 0.49467 0.38644 0.00821 0.0
C2190 C 0.48428 0.40356 0.01009 0.0
C2191 C 0.46981 0.40837 0.99585 0.0
C2192 C 0.46549 0.39611 0.97971 0.0
C2193 C 0.47561 0.37899 0.9778 0.0
C2194 C 0.49011 0.37412 0.99199 0.0
C2195 C 0.51234 0.31469 0.08072 0.0
C2196 C 0.51634 0.29889 0.06862 0.0
C2197 C 0.51465 0.33393 0.07392 0.0
C2198 C 0.52065 0.33759 0.05484 0.0
C2199 C 0.5247 0.32189 0.04281 0.0
C2200 C 0.52277 0.30276 0.04968 0.0
C2201 C 0.52236 0.35769 0.047 0.0
C2202 C 0.5088 0.36291 0.032 0.0
C2203 C 0.53747 0.37142 0.05376 0.0
C2204 C 0.55207 0.36671 0.06971 0.0
C2205 C 0.56444 0.351 0.06785 0.0
C2206 C 0.57806 0.34658 0.08305 0.0
C2207 C 0.57954 0.35788 0.10012 0.0
C2208 C 0.56745 0.37365 0.102 0.0
C2209 C 0.5538 0.37811 0.08685 0.0
H2210 H 0.59009 0.35444 0.11187 0.0
H2211 H 0.45429 0.39987 0.9687 0.0
H2212 H 0.65293 0.2177 0.2664 0.0
H2213 H 0.62576 0.22188 0.24203 0.0
H2214 H 0.66562 0.21349 0.1957 0.0
H2215 H 0.69298 0.20973 0.21999 0.0
H2216 H 0.64301 0.24468 0.18879 0.0
H2217 H 0.63227 0.17751 0.20761 0.0
H2218 H 0.62729 0.15035 0.23079 0.0
H2219 H 0.57453 0.17541 0.2499 0.0
H2220 H 0.57935 0.20288 0.22702 0.0
H2221 H 0.5744 0.22834 0.1087 0.0
H2222 H 0.60001 0.22489 0.13462 0.0
H2223 H 0.55721 0.23369 0.17814 0.0
H2224 H 0.53129 0.23704 0.15223 0.0
H2225 H 0.58046 0.2033 0.18752 0.0
H2226 H 0.59043 0.26988 0.16824 0.0
H2227 H 0.59522 0.29723 0.14525 0.0
H2228 H 0.64924 0.27373 0.12738 0.0
H2229 H 0.64462 0.24607 0.15006 0.0
C2230 C 0.65592 0.21679 0.25101 0.0
C2231 C 0.67511 0.21336 0.24512 0.0
C2232 C 0.64034 0.21904 0.23711 0.0
C2233 C 0.64362 0.21785 0.21705 0.0
C2234 C 0.66275 0.21442 0.21111 0.0
C2235 C 0.67832 0.21211 0.22501 0.0
C2236 C 0.6272 0.22052 0.20221 0.0
C2237 C 0.62944 0.23547 0.18835 0.0
C2238 C 0.60925 0.2089 0.20203 0.0
C2239 C 0.60629 0.19236 0.21575 0.0
C2240 C 0.6197 0.17732 0.21687 0.0
C2241 C 0.61689 0.16185 0.22993 0.0
C2242 C 0.60064 0.16118 0.24185 0.0
C2243 C 0.58713 0.17596 0.24069 0.0
C2244 C 0.58988 0.19148 0.22767 0.0
C2245 C 0.57035 0.22958 0.12376 0.0
C2246 C 0.55074 0.23303 0.12833 0.0
C2247 C 0.58508 0.22767 0.13858 0.0
C2248 C 0.58058 0.22925 0.15831 0.0
C2249 C 0.56101 0.23248 0.163 0.0
C2250 C 0.54623 0.23445 0.14815 0.0
C2251 C 0.59637 0.22732 0.17397 0.0
C2252 C 0.59401 0.21255 0.188 0.0
C2253 C 0.6142 0.23915 0.17436 0.0
C2254 C 0.61707 0.2558 0.16073 0.0
C2255 C 0.60324 0.27046 0.15929 0.0
C2256 C 0.60595 0.28603 0.14634 0.0
C2257 C 0.6225 0.2872 0.13483 0.0
C2258 C 0.63641 0.2728 0.13629 0.0
C2259 C 0.63377 0.25718 0.1492 0.0
H2260 H 0.62456 0.29927 0.12481 0.0
H2261 H 0.59849 0.14919 0.25195 0.0
H2262 H 0.43665 0.05706 0.98514 0.0
H2263 H 0.44159 0.08534 0.0066 0.0
H2264 H 0.50497 0.08384 0.00194 0.0
H2265 H 0.50029 0.05437 0.98196 0.0
H2266 H 0.49886 0.09257 0.03695 0.0
H2267 H 0.4747 0.11741 0.97574 0.0
H2268 H 0.45227 0.11988 0.94642 0.0
H2269 H 0.40442 0.13299 0.98257 0.0
H2270 H 0.42651 0.13034 0.01215 0.0
H2271 H 0.51367 0.19739 0.05942 0.0
H2272 H 0.51104 0.16628 0.0416 0.0
H2273 H 0.45768 0.14971 0.07088 0.0
H2274 H 0.46048 0.18055 0.08919 0.0
H2275 H 0.4596 0.15077 0.02377 0.0
H2276 H 0.48686 0.125 0.08541 0.0
H2277 H 0.51196 0.12468 0.11279 0.0
H2278 H 0.55748 0.11618 0.07238 0.0
H2279 H 0.53266 0.11676 0.04472 0.0
C2280 C 0.4517 0.06245 0.98892 0.0
C2281 C 0.46805 0.05331 0.98166 0.0
C2282 C 0.45449 0.07891 0.00098 0.0
C2283 C 0.47365 0.08708 0.00558 0.0
C2284 C 0.49002 0.07793 0.99853 0.0
C2285 C 0.48728 0.06119 0.98683 0.0
C2286 C 0.47659 0.1051 0.01778 0.0
C2287 C 0.49038 0.10533 0.03387 0.0
C2288 C 0.46555 0.12186 0.01393 0.0
C2289 C 0.45222 0.12349 0.99617 0.0
C2290 C 0.45936 0.12068 0.97745 0.0
C2291 C 0.44671 0.12214 0.96078 0.0
C2292 C 0.42692 0.12654 0.96263 0.0
C2293 C 0.41975 0.12955 0.98116 0.0
C2294 C 0.43233 0.12809 0.99788 0.0
C2295 C 0.50153 0.18705 0.06226 0.0
C2296 C 0.48726 0.19144 0.07568 0.0
C2297 C 0.50009 0.16928 0.05211 0.0
C2298 C 0.48418 0.1558 0.05498 0.0
C2299 C 0.4701 0.15996 0.06857 0.0
C2300 C 0.47177 0.17753 0.07904 0.0
C2301 C 0.48154 0.13795 0.04284 0.0
C2302 C 0.46793 0.13789 0.02674 0.0
C2303 C 0.49306 0.1216 0.04638 0.0
C2304 C 0.50795 0.12117 0.06299 0.0
C2305 C 0.50225 0.12329 0.08235 0.0
C2306 C 0.51642 0.12301 0.09792 0.0
C2307 C 0.53632 0.12048 0.09433 0.0
C2308 C 0.54207 0.11817 0.07515 0.0
C2309 C 0.52796 0.11846 0.05952 0.0
H2310 H 0.54726 0.12026 0.10641 0.0
H2311 H 0.41715 0.12766 0.94971 0.0
H2312 H 0.27868 0.32876 0.71568 0.0
H2313 H 0.30401 0.35549 0.71896 0.0
H2314 H 0.25886 0.39575 0.73028 0.0
H2315 H 0.23334 0.36914 0.72648 0.0
H2316 H 0.28513 0.41094 0.70492 0.0
H2317 H 0.28827 0.37936 0.76743 0.0
H2318 H 0.29115 0.35156 0.79008 0.0
H2319 H 0.34868 0.34101 0.76944 0.0
H2320 H 0.34603 0.36859 0.74645 0.0
H2321 H 0.35122 0.48875 0.73954 0.0
H2322 H 0.32506 0.46274 0.73759 0.0
H2323 H 0.36849 0.42052 0.72681 0.0
H2324 H 0.39479 0.44634 0.72898 0.0
H2325 H 0.34248 0.40678 0.75264 0.0
H2326 H 0.33906 0.43757 0.68956 0.0
H2327 H 0.3363 0.46519 0.66666 0.0
H2328 H 0.27943 0.47702 0.68814 0.0
H2329 H 0.28198 0.44963 0.71138 0.0
C2330 C 0.27411 0.34334 0.71868 0.0
C2331 C 0.25399 0.34683 0.72085 0.0
C2332 C 0.28862 0.35856 0.72073 0.0
C2333 C 0.28335 0.37757 0.7251 0.0
C2334 C 0.26326 0.38118 0.72699 0.0
C2335 C 0.24872 0.36594 0.72496 0.0
C2336 C 0.29881 0.39369 0.72763 0.0
C2337 C 0.29752 0.41017 0.71556 0.0
C2338 C 0.31519 0.39248 0.74122 0.0
C2339 C 0.31687 0.37594 0.75509 0.0
C2340 C 0.30147 0.37102 0.76761 0.0
C2341 C 0.30308 0.35532 0.78053 0.0
C2342 C 0.32007 0.3445 0.78116 0.0
C2343 C 0.33552 0.34939 0.76891 0.0
C2344 C 0.33398 0.36507 0.75595 0.0
C2345 C 0.35526 0.47393 0.73681 0.0
C2346 C 0.37515 0.46968 0.73434 0.0
C2347 C 0.34025 0.45909 0.73563 0.0
C2348 C 0.34479 0.43973 0.73182 0.0
C2349 C 0.36464 0.43537 0.72973 0.0
C2350 C 0.37967 0.45018 0.73093 0.0
C2351 C 0.32885 0.424 0.72987 0.0
C2352 C 0.33006 0.40758 0.74205 0.0
C2353 C 0.31241 0.42525 0.71636 0.0
C2354 C 0.31081 0.44168 0.70235 0.0
C2355 C 0.32604 0.44616 0.68951 0.0
C2356 C 0.3245 0.46175 0.67645 0.0
C2357 C 0.30772 0.47289 0.67598 0.0
C2358 C 0.29243 0.46841 0.68854 0.0
C2359 C 0.2939 0.45284 0.70165 0.0
H2360 H 0.30656 0.48495 0.66586 0.0
H2361 H 0.32128 0.33235 0.79118 0.0
H2362 H 0.22971 0.67692 0.74016 0.0
H2363 H 0.25348 0.65162 0.73663 0.0
H2364 H 0.24969 0.63721 0.79779 0.0
H2365 H 0.22594 0.66261 0.80142 0.0
H2366 H 0.28718 0.64025 0.78852 0.0
H2367 H 0.22887 0.60636 0.76173 0.0
H2368 H 0.19831 0.6014 0.74073 0.0
H2369 H 0.23232 0.60704 0.68942 0.0
H2370 H 0.26307 0.61233 0.7101 0.0
H2371 H 0.34883 0.55914 0.77475 0.0
H2372 H 0.31981 0.57736 0.78257 0.0
H2373 H 0.31877 0.60269 0.72483 0.0
H2374 H 0.34753 0.58471 0.71696 0.0
H2375 H 0.28151 0.59043 0.73562 0.0
H2376 H 0.33893 0.62828 0.76306 0.0
H2377 H 0.36934 0.63339 0.78427 0.0
H2378 H 0.33622 0.61958 0.83493 0.0
H2379 H 0.30565 0.61414 0.81396 0.0
C2380 C 0.23367 0.66814 0.75278 0.0
C2381 C 0.22593 0.67177 0.77107 0.0
C2382 C 0.24728 0.65367 0.75076 0.0
C2383 C 0.25325 0.64234 0.76691 0.0
C2384 C 0.24534 0.64576 0.78513 0.0
C2385 C 0.23179 0.6603 0.78718 0.0
C2386 C 0.26845 0.62761 0.7649 0.0
C2387 C 0.28573 0.62909 0.77721 0.0
C2388 C 0.26672 0.61317 0.75001 0.0
C2389 C 0.24827 0.60988 0.73749 0.0
C2390 C 0.22982 0.60668 0.74597 0.0
C2391 C 0.21247 0.60379 0.73412 0.0
C2392 C 0.21337 0.60394 0.71376 0.0
C2393 C 0.23164 0.60694 0.7052 0.0
C2394 C 0.24905 0.60986 0.71698 0.0
C2395 C 0.34233 0.56853 0.76372 0.0
C2396 C 0.35056 0.57056 0.74528 0.0
C2397 C 0.3258 0.57895 0.76821 0.0
C2398 C 0.31719 0.59145 0.75429 0.0
C2399 C 0.32513 0.5931 0.73577 0.0
C2400 C 0.34167 0.58287 0.73135 0.0
C2401 C 0.3003 0.60339 0.75896 0.0
C2402 C 0.28274 0.60138 0.74714 0.0
C2403 C 0.30172 0.61727 0.77434 0.0
C2404 C 0.32007 0.62056 0.78693 0.0
C2405 C 0.33818 0.62617 0.7787 0.0
C2406 C 0.35543 0.62916 0.79068 0.0
C2407 C 0.35473 0.62675 0.81093 0.0
C2408 C 0.33675 0.6214 0.81924 0.0
C2409 C 0.31946 0.61837 0.80732 0.0
H2410 H 0.3681 0.62908 0.82018 0.0
H2411 H 0.19991 0.6017 0.70461 0.0
H2412 H 0.90639 0.52085 0.46727 0.0
H2413 H 0.87738 0.49882 0.47226 0.0
H2414 H 0.91354 0.44916 0.46712 0.0
H2415 H 0.94256 0.47106 0.46219 0.0
H2416 H 0.87871 0.44332 0.44692 0.0
H2417 H 0.90056 0.46573 0.51174 0.0
H2418 H 0.90947 0.49055 0.53721 0.0
H2419 H 0.85087 0.51201 0.53122 0.0
H2420 H 0.8417 0.48747 0.5055 0.0
H2421 H 0.82592 0.36684 0.49233 0.0
H2422 H 0.84998 0.39294 0.48444 0.0
H2423 H 0.80523 0.43521 0.48849 0.0
H2424 H 0.78083 0.40904 0.49655 0.0
H2425 H 0.84119 0.44733 0.5073 0.0
H2426 H 0.81849 0.42259 0.44454 0.0
H2427 H 0.80976 0.39732 0.41948 0.0
H2428 H 0.87002 0.38 0.42176 0.0
H2429 H 0.87906 0.40497 0.44706 0.0
C2430 C 0.90817 0.50523 0.46729 0.0
C2431 C 0.9268 0.4977 0.46439 0.0
C2432 C 0.89158 0.49267 0.47012 0.0
C2433 C 0.89333 0.47234 0.47025 0.0
C2434 C 0.91183 0.46479 0.46702 0.0
C2435 C 0.92839 0.47733 0.46415 0.0
C2436 C 0.87603 0.45883 0.47398 0.0
C2437 C 0.8706 0.44411 0.46019 0.0
C2438 C 0.86506 0.46023 0.49102 0.0
C2439 C 0.87052 0.47492 0.50654 0.0
C2440 C 0.88963 0.47584 0.51574 0.0
C2441 C 0.89471 0.48984 0.53024 0.0
C2442 C 0.88076 0.50289 0.53578 0.0
C2443 C 0.86168 0.50192 0.52688 0.0
C2444 C 0.85652 0.48797 0.51235 0.0
C2445 C 0.82109 0.38166 0.49157 0.0
C2446 C 0.80135 0.38579 0.49502 0.0
C2447 C 0.83489 0.39657 0.48696 0.0
C2448 C 0.82934 0.41597 0.48562 0.0
C2449 C 0.80978 0.4203 0.48937 0.0
C2450 C 0.79586 0.40532 0.49392 0.0
C2451 C 0.84418 0.43159 0.48043 0.0
C2452 C 0.84913 0.4467 0.49391 0.0
C2453 C 0.85476 0.43055 0.46313 0.0
C2454 C 0.84942 0.41557 0.44781 0.0
C2455 C 0.82985 0.4133 0.43981 0.0
C2456 C 0.82485 0.39904 0.42554 0.0
C2457 C 0.83932 0.38704 0.41906 0.0
C2458 C 0.85883 0.3893 0.4268 0.0
C2459 C 0.8639 0.40352 0.44109 0.0
H2460 H 0.83541 0.37601 0.40801 0.0
H2461 H 0.88473 0.51372 0.54701 0.0
H2462 H 0.76558 0.81568 0.80969 0.0
H2463 H 0.74222 0.84118 0.80342 0.0
H2464 H 0.74695 0.83367 0.74127 0.0
H2465 H 0.76984 0.80756 0.74733 0.0
H2466 H 0.75304 0.87234 0.75402 0.0
H2467 H 0.70534 0.81877 0.761 0.0
H2468 H 0.68996 0.79019 0.7774 0.0
H2469 H 0.67848 0.82596 0.82674 0.0
H2470 H 0.69407 0.85471 0.81075 0.0
H2471 H 0.68495 0.94057 0.72539 0.0
H2472 H 0.69905 0.90862 0.7291 0.0
H2473 H 0.68926 0.90973 0.79096 0.0
H2474 H 0.67435 0.94148 0.78714 0.0
H2475 H 0.68471 0.87314 0.77754 0.0
H2476 H 0.73415 0.92546 0.77322 0.0
H2477 H 0.75068 0.95456 0.75875 0.0
H2478 H 0.76052 0.92175 0.70692 0.0
H2479 H 0.74379 0.89251 0.72099 0.0
C2480 C 0.76135 0.81907 0.79465 0.0
C2481 C 0.76965 0.80948 0.77901 0.0
C2482 C 0.74802 0.83374 0.79111 0.0
C2483 C 0.74276 0.83922 0.77188 0.0
C2484 C 0.75083 0.82963 0.75622 0.0
C2485 C 0.76402 0.81481 0.75974 0.0
C2486 C 0.72989 0.85585 0.76821 0.0
C2487 C 0.73796 0.87238 0.75882 0.0
C2488 C 0.71049 0.85612 0.77512 0.0
C2489 C 0.70104 0.83886 0.78474 0.0
C2490 C 0.6997 0.82051 0.77542 0.0
C2491 C 0.69091 0.80429 0.78463 0.0
C2492 C 0.68329 0.80625 0.80312 0.0
C2493 C 0.68441 0.82445 0.81242 0.0
C2494 C 0.6932 0.84073 0.80328 0.0
C2495 C 0.68541 0.93381 0.73971 0.0
C2496 C 0.67879 0.9436 0.75603 0.0
C2497 C 0.69356 0.91559 0.74183 0.0
C2498 C 0.69577 0.90703 0.76041 0.0
C2499 C 0.68785 0.91611 0.7765 0.0
C2500 C 0.67932 0.93424 0.77431 0.0
C2501 C 0.70783 0.88961 0.76321 0.0
C2502 C 0.69971 0.87302 0.77255 0.0
C2503 C 0.72737 0.88934 0.75653 0.0
C2504 C 0.73754 0.90686 0.74808 0.0
C2505 C 0.73972 0.92449 0.75869 0.0
C2506 C 0.74913 0.941 0.75056 0.0
C2507 C 0.75659 0.94002 0.73191 0.0
C2508 C 0.7547 0.9225 0.72136 0.0
C2509 C 0.74526 0.90595 0.7294 0.0
H2510 H 0.76388 0.95282 0.72564 0.0
H2511 H 0.67649 0.79367 0.81022 0.0
H2512 H 0.57898 0.50627 0.01691 0.0
H2513 H 0.60847 0.52759 0.02453 0.0
H2514 H 0.6164 0.53609 0.96285 0.0
H2515 H 0.58764 0.51398 0.95511 0.0
H2516 H 0.6511 0.5329 0.98084 0.0
H2517 H 0.59398 0.57004 0.99113 0.0
H2518 H 0.56223 0.577 0.00537 0.0
H2519 H 0.59018 0.57663 0.0631 0.0
H2520 H 0.62206 0.56941 0.0492 0.0
H2521 H 0.6878 0.63999 0.0054 0.0
H2522 H 0.66174 0.61447 5e-05 0.0
H2523 H 0.70257 0.57094 0.01854 0.0
H2524 H 0.72907 0.59652 0.02345 0.0
H2525 H 0.6442 0.59049 0.02346 0.0
H2526 H 0.68895 0.52767 0.99509 0.0
H2527 H 0.71937 0.52297 0.97744 0.0
H2528 H 0.71398 0.57885 0.94987 0.0
H2529 H 0.68342 0.58377 0.96717 0.0
C2530 C 0.58716 0.51242 0.00495 0.0
C2531 C 0.58077 0.50853 0.98538 0.0
C2532 C 0.60394 0.52477 0.00934 0.0
C2533 C 0.61451 0.53371 0.99427 0.0
C2534 C 0.60847 0.52944 0.97474 0.0
C2535 C 0.59183 0.51698 0.97034 0.0
C2536 C 0.63141 0.54805 0.99872 0.0
C2537 C 0.64963 0.54543 0.99024 0.0
C2538 C 0.62946 0.56459 0.01077 0.0
C2539 C 0.61034 0.56898 0.01915 0.0
C2540 C 0.59332 0.57131 0.00687 0.0
C2541 C 0.5753 0.57532 0.01487 0.0
C2542 C 0.57417 0.5772 0.03513 0.0
C2543 C 0.59107 0.57513 0.04742 0.0
C2544 C 0.60911 0.57109 0.03949 0.0
C2545 C 0.69133 0.62501 0.00833 0.0
C2546 C 0.71059 0.62033 0.01485 0.0
C2547 C 0.67634 0.6104 0.00531 0.0
C2548 C 0.68015 0.59074 0.0088 0.0
C2549 C 0.69932 0.58597 0.01546 0.0
C2550 C 0.71445 0.60062 0.01832 0.0
C2551 C 0.66389 0.57544 0.00546 0.0
C2552 C 0.64578 0.57784 0.01422 0.0
C2553 C 0.66579 0.55903 0.99323 0.0
C2554 C 0.68404 0.55617 0.98261 0.0
C2555 C 0.69424 0.53892 0.98523 0.0
C2556 C 0.71151 0.53623 0.97528 0.0
C2557 C 0.71864 0.55063 0.9626 0.0
C2558 C 0.70849 0.56774 0.95976 0.0
C2559 C 0.69121 0.5705 0.96965 0.0
H2560 H 0.73202 0.54853 0.95493 0.0
H2561 H 0.56021 0.58031 0.0413 0.0
H2562 H 0.25517 0.70865 0.23049 0.0
H2563 H 0.22995 0.68188 0.23388 0.0
H2564 H 0.27611 0.64085 0.24041 0.0
H2565 H 0.30135 0.66756 0.23732 0.0
H2566 H 0.24318 0.63012 0.21225 0.0
H2567 H 0.25655 0.65309 0.27921 0.0
H2568 H 0.25872 0.67831 0.30506 0.0
H2569 H 0.19709 0.689 0.29406 0.0
H2570 H 0.19464 0.66401 0.26793 0.0
H2571 H 0.20312 0.54353 0.25082 0.0
H2572 H 0.22161 0.57359 0.24286 0.0
H2573 H 0.17066 0.60668 0.25407 0.0
H2574 H 0.15217 0.57643 0.26282 0.0
H2575 H 0.20202 0.62429 0.27033 0.0
H2576 H 0.18651 0.59955 0.20653 0.0
H2577 H 0.18304 0.57525 0.17983 0.0
H2578 H 0.24609 0.56938 0.18265 0.0
H2579 H 0.24993 0.59342 0.20957 0.0
C2580 C 0.25987 0.6939 0.23266 0.0
C2581 C 0.28016 0.69011 0.23372 0.0
C2582 C 0.24551 0.67868 0.23462 0.0
C2583 C 0.25123 0.65945 0.23738 0.0
C2584 C 0.27145 0.65562 0.23826 0.0
C2585 C 0.28582 0.67086 0.23663 0.0
C2586 C 0.23621 0.64322 0.23949 0.0
C2587 C 0.23423 0.62871 0.22498 0.0
C2588 C 0.22401 0.64193 0.2557 0.0
C2589 C 0.22548 0.65687 0.27146 0.0
C2590 C 0.24351 0.66095 0.28217 0.0
C2591 C 0.24478 0.67517 0.2969 0.0
C2592 C 0.22807 0.6853 0.30115 0.0
C2593 C 0.21004 0.68117 0.29072 0.0
C2594 C 0.2087 0.66698 0.27596 0.0
C2595 C 0.19571 0.55714 0.25135 0.0
C2596 C 0.17613 0.55759 0.25734 0.0
C2597 C 0.2063 0.57437 0.2467 0.0
C2598 C 0.19745 0.59242 0.24748 0.0
C2599 C 0.17778 0.59292 0.25326 0.0
C2600 C 0.16722 0.57564 0.2582 0.0
C2601 C 0.20925 0.61072 0.24329 0.0
C2602 C 0.21066 0.62571 0.25739 0.0
C2603 C 0.22068 0.61262 0.22649 0.0
C2604 C 0.21849 0.59823 0.21017 0.0
C2605 C 0.19963 0.59299 0.20155 0.0
C2606 C 0.1976 0.57927 0.18636 0.0
C2607 C 0.21433 0.57075 0.17957 0.0
C2608 C 0.23314 0.57598 0.18793 0.0
C2609 C 0.23526 0.58969 0.20313 0.0
H2610 H 0.21272 0.56013 0.16781 0.0
H2611 H 0.22908 0.6963 0.31256 0.0
H2612 H 0.94789 0.50567 0.00918 0.0
H2613 H 0.91804 0.52426 0.00409 0.0
H2614 H 0.90742 0.51987 0.06565 0.0
H2615 H 0.93699 0.50102 0.07078 0.0
H2616 H 0.87355 0.51189 0.04249 0.0
H2617 H 0.92732 0.56152 0.04711 0.0
H2618 H 0.95891 0.57752 0.03748 0.0
H2619 H 0.93411 0.58564 0.97923 0.0
H2620 H 0.90245 0.56945 0.98845 0.0
H2621 H 0.80856 0.58586 0.06059 0.0
H2622 H 0.83538 0.56362 0.05898 0.0
H2623 H 0.84246 0.57883 0.99841 0.0
H2624 H 0.81587 0.60171 0.0001 0.0
H2625 H 0.87719 0.57963 0.01689 0.0
H2626 H 0.82254 0.53305 0.01241 0.0
H2627 H 0.79083 0.51674 0.02123 0.0
H2628 H 0.81664 0.50202 0.07757 0.0
H2629 H 0.84843 0.51849 0.0692 0.0
C2630 C 0.93913 0.50861 0.02161 0.0
C2631 C 0.94485 0.50196 0.04041 0.0
C2632 C 0.92215 0.51931 0.01869 0.0
C2633 C 0.91058 0.52355 0.03452 0.0
C2634 C 0.91615 0.51678 0.05324 0.0
C2635 C 0.93316 0.50617 0.05618 0.0
C2636 C 0.89268 0.53513 0.0317 0.0
C2637 C 0.87433 0.52676 0.03704 0.0
C2638 C 0.89361 0.55426 0.02392 0.0
C2639 C 0.9126 0.56408 0.01841 0.0
C2640 C 0.92866 0.56658 0.0322 0.0
C2641 C 0.94657 0.57571 0.02683 0.0
C2642 C 0.94854 0.58254 0.00774 0.0
C2643 C 0.93258 0.58031 0.994 0.0
C2644 C 0.91465 0.57117 0.9993 0.0
C2645 C 0.81561 0.58433 0.04682 0.0
C2646 C 0.81005 0.5956 0.03047 0.0
C2647 C 0.83093 0.57149 0.04589 0.0
C2648 C 0.84083 0.56932 0.0285 0.0
C2649 C 0.83503 0.58022 0.01199 0.0
C2650 C 0.81977 0.59324 0.01295 0.0
C2651 C 0.85799 0.55656 0.02806 0.0
C2652 C 0.87625 0.56468 0.0221 0.0
C2653 C 0.85694 0.53712 0.03512 0.0
C2654 C 0.83785 0.52714 0.04022 0.0
C2655 C 0.82142 0.52646 0.02674 0.0
C2656 C 0.80343 0.51716 0.03165 0.0
C2657 C 0.80171 0.50838 0.04996 0.0
C2658 C 0.81799 0.50884 0.06339 0.0
C2659 C 0.83601 0.51813 0.05856 0.0
H2660 H 0.78777 0.50119 0.05373 0.0
H2661 H 0.96241 0.5896 0.00361 0.0
H2662 H 0.06446 0.99282 0.97831 0.0
H2663 H 0.09322 0.97298 0.97511 0.0
H2664 H 0.10163 0.97099 0.038 0.0
H2665 H 0.07358 0.99154 0.04129 0.0
H2666 H 0.13582 0.97903 0.02203 0.0
H2667 H 0.08116 0.93158 0.01043 0.0
H2668 H 0.05024 0.91806 0.9938 0.0
H2669 H 0.07904 0.91721 0.93922 0.0
H2670 H 0.11008 0.93097 0.9555 0.0
H2671 H 0.19213 0.8976 0.04136 0.0
H2672 H 0.16638 0.92104 0.03734 0.0
H2673 H 0.17239 0.92071 0.97485 0.0
H2674 H 0.19844 0.89703 0.97877 0.0
H2675 H 0.13286 0.91608 0.98589 0.0
H2676 H 0.18895 0.95999 0.99922 0.0
H2677 H 0.21971 0.97256 0.01678 0.0
H2678 H 0.18801 0.97936 0.06908 0.0
H2679 H 0.1571 0.96655 0.05191 0.0
C2680 C 0.07248 0.98822 0.99146 0.0
C2681 C 0.06667 0.99378 0.01007 0.0
C2682 C 0.08882 0.97672 0.98961 0.0
C2683 C 0.09953 0.97038 0.00632 0.0
C2684 C 0.09361 0.97571 0.02489 0.0
C2685 C 0.07739 0.98728 0.02675 0.0
C2686 C 0.11719 0.95853 0.00464 0.0
C2687 C 0.13511 0.96519 0.01425 0.0
C2688 C 0.11649 0.9408 0.99392 0.0
C2689 C 0.09786 0.93252 0.98413 0.0
C2690 C 0.08085 0.92866 0.99485 0.0
C2691 C 0.06332 0.92092 0.9855 0.0
C2692 C 0.06266 0.91683 0.96545 0.0
C2693 C 0.07956 0.92042 0.95473 0.0
C2694 C 0.09713 0.92817 0.96402 0.0
C2695 C 0.18813 0.90258 0.02674 0.0
C2696 C 0.19733 0.89545 0.01037 0.0
C2697 C 0.17344 0.91606 0.02448 0.0
C2698 C 0.16758 0.92272 0.00582 0.0
C2699 C 0.17678 0.91577 0.98939 0.0
C2700 C 0.19169 0.90234 0.99166 0.0
C2701 C 0.15126 0.93635 0.00373 0.0
C2702 C 0.13362 0.93006 0.99341 0.0
C2703 C 0.15216 0.95437 0.01391 0.0
C2704 C 0.17071 0.96218 0.02429 0.0
C2705 C 0.18856 0.96403 0.0145 0.0
C2706 C 0.20602 0.97122 0.02438 0.0
C2707 C 0.20582 0.97673 0.04404 0.0
C2708 C 0.18815 0.97508 0.05385 0.0
C2709 C 0.17064 0.96788 0.04404 0.0
H2710 H 0.21936 0.98229 0.05167 0.0
H2711 H 0.04908 0.91084 0.95824 0.0
loop_
_geom_bond_atom_site_label_1
_geom_bond_atom_site_label_2
_geom_bond_distance
_geom_bond_site_symmetry_2
_ccdc_geom_bond_type
H0 C3 0.931 . S
H1 C6 0.928 . S
H2 C8 0.930 . S
C3 H0 0.931 . S
C3 C4 1.413 . S
C3 C5 1.360 . S
C4 C3 1.413 . S
C4 C8 1.429 . S
C5 C3 1.360 . S
C5 C6 1.372 . S
C6 H1 0.928 . S
C6 C5 1.372 . S
C6 C7 1.404 . S
C7 C6 1.404 . S
C7 C8 1.391 . S
C8 H2 0.930 . S
C8 C4 1.429 . S
C8 C7 1.391 . S
H9 C12 0.931 . S
H10 C15 0.928 . S
H11 C17 0.930 . S
C12 H9 0.931 . S
C12 C13 1.413 . S
C12 C14 1.360 . S
C13 C12 1.413 . S
C13 C17 1.429 . S
C14 C12 1.360 . S
C14 C15 1.372 . S
C15 H10 0.928 . S
C15 C14 1.372 . S
C15 C16 1.404 . S
C16 C15 1.404 . S
C16 C17 1.391 . S
C17 H11 0.930 . S
C17 C13 1.429 . S
C17 C16 1.391 . S
H18 C21 0.931 . S
H19 C24 0.928 1_455 S
H20 C26 0.930 . S
C21 H18 0.931 . S
C21 C22 1.413 . S
C21 C23 1.360 . S
C22 C21 1.413 . S
C22 C26 1.429 . S
C23 C21 1.360 . S
C23 C24 1.372 . S
C24 H19 0.928 1_655 S
C24 C23 1.372 . S
C24 C25 1.404 . S
C25 C24 1.404 . S
C25 C26 1.391 . S
C26 H20 0.930 . S
C26 C22 1.429 . S
C26 C25 1.391 . S
H27 C30 0.931 . S
H28 C33 0.928 . S
H29 C35 0.930 . S
C30 H27 0.931 . S
C30 C31 1.413 . S
C30 C32 1.360 . S
C31 C30 1.413 . S
C31 C35 1.429 . S
C32 C30 1.360 . S
C32 C33 1.372 . S
C33 H28 0.928 . S
C33 C32 1.372 . S
C33 C34 1.404 . S
C34 C33 1.404 . S
C34 C35 1.391 . S
C35 H29 0.930 . S
C35 C31 1.429 . S
C35 C34 1.391 . S
H36 C39 0.931 . S
H37 C42 0.928 . S
H38 C44 0.930 . S
C39 H36 0.931 . S
C39 C40 1.413 . S
C39 C41 1.360 . S
C40 C39 1.413 . S
C40 C44 1.429 . S
C41 C39 1.360 . S
C41 C42 1.372 . S
C42 H37 0.928 . S
C42 C41 1.372 . S
C42 C43 1.404 . S
C43 C42 1.404 . S
C43 C44 1.391 . S
C44 H38 0.930 . S
C44 C40 1.429 . S
C44 C43 1.391 . S
H45 C48 0.931 . S
H46 C51 0.928 . S
H47 C53 0.930 . S
C48 H45 0.931 . S
C48 C49 1.413 . S
C48 C50 1.360 . S
C49 C48 1.413 . S
C49 C53 1.429 . S
C50 C48 1.360 . S
C50 C51 1.372 . S
C51 H46 0.928 . S
C51 C50 1.372 . S
C51 C52 1.404 . S
C52 C51 1.404 . S
C52 C53 1.391 . S
C53 H47 0.930 . S
C53 C49 1.429 . S
C53 C52 1.391 . S
H54 C57 0.931 . S
H55 C60 0.928 . S
H56 C62 0.930 . S
C57 H54 0.931 . S
C57 C58 1.413 . S
C57 C59 1.360 . S
C58 C57 1.413 . S
C58 C62 1.429 . S
C59 C57 1.360 . S
C59 C60 1.372 . S
C60 H55 0.928 . S
C60 C59 1.372 . S
C60 C61 1.404 . S
C61 C60 1.404 . S
C61 C62 1.391 . S
C62 H56 0.930 . S
C62 C58 1.429 . S
C62 C61 1.391 . S
H63 C66 0.931 . S
H64 C69 0.928 . S
H65 C71 0.930 . S
C66 H63 0.931 . S
C66 C67 1.413 . S
C66 C68 1.360 . S
C67 C66 1.413 . S
C67 C71 1.429 . S
C68 C66 1.360 . S
C68 C69 1.372 . S
C69 H64 0.928 . S
C69 C68 1.372 . S
C69 C70 1.404 . S
C70 C69 1.404 . S
C70 C71 1.391 . S
C71 H65 0.930 . S
C71 C67 1.429 . S
C71 C70 1.391 . S
H72 C75 0.931 . S
H73 C78 0.928 . S
H74 C80 0.930 . S
C75 H72 0.931 . S
C75 C76 1.413 . S
C75 C77 1.360 . S
C76 C75 1.413 . S
C76 C80 1.429 . S
C77 C75 1.360 . S
C77 C78 1.372 . S
C78 H73 0.928 . S
C78 C77 1.372 . S
C78 C79 1.404 . S
C79 C78 1.404 . S
C79 C80 1.391 . S
C80 H74 0.930 . S
C80 C76 1.429 . S
C80 C79 1.391 . S
H81 C84 0.931 . S
H82 C87 0.928 . S
H83 C89 0.930 . S
C84 H81 0.931 . S
C84 C85 1.413 . S
C84 C86 1.360 . S
C85 C84 1.413 . S
C85 C89 1.429 . S
C86 C84 1.360 . S
C86 C87 1.372 . S
C87 H82 0.928 . S
C87 C86 1.372 . S
C87 C88 1.404 . S
C88 C87 1.404 . S
C88 C89 1.391 . S
C89 H83 0.930 . S
C89 C85 1.429 . S
C89 C88 1.391 . S
H90 C93 0.931 . S
H91 C96 0.928 . S
H92 C98 0.930 . S
C93 H90 0.931 . S
C93 C94 1.413 . S
C93 C95 1.360 . S
C94 C93 1.413 . S
C94 C98 1.429 . S
C95 C93 1.360 . S
C95 C96 1.372 . S
C96 H91 0.928 . S
C96 C95 1.372 . S
C96 C97 1.404 . S
C97 C96 1.404 . S
C97 C98 1.391 . S
C98 H92 0.930 . S
C98 C94 1.429 . S
C98 C97 1.391 . S
H99 C102 0.931 . S
H100 C105 0.928 . S
H101 C107 0.930 . S
C102 H99 0.931 . S
C102 C103 1.413 . S
C102 C104 1.360 . S
C103 C102 1.413 . S
C103 C107 1.429 . S
C104 C102 1.360 . S
C104 C105 1.372 . S
C105 H100 0.928 . S
C105 C104 1.372 . S
C105 C106 1.404 . S
C106 C105 1.404 . S
C106 C107 1.391 . S
C107 H101 0.930 . S
C107 C103 1.429 . S
C107 C106 1.391 . S
H108 C111 0.931 . S
H109 C114 0.928 . S
H110 C116 0.930 . S
C111 H108 0.931 . S
C111 C112 1.413 . S
C111 C113 1.360 . S
C112 C111 1.413 . S
C112 C116 1.429 . S
C113 C111 1.360 . S
C113 C114 1.372 . S
C114 H109 0.928 . S
C114 C113 1.372 . S
C114 C115 1.404 . S
C115 C114 1.404 . S
C115 C116 1.391 . S
C116 H110 0.930 . S
C116 C112 1.429 . S
C116 C115 1.391 . S
H117 C120 0.931 . S
H118 C123 0.928 . S
H119 C125 0.930 . S
C120 H117 0.931 . S
C120 C121 1.413 . S
C120 C122 1.360 . S
C121 C120 1.413 . S
C121 C125 1.429 . S
C122 C120 1.360 . S
C122 C123 1.372 . S
C123 H118 0.928 . S
C123 C122 1.372 . S
C123 C124 1.404 . S
C124 C123 1.404 . S
C124 C125 1.391 . S
C125 H119 0.930 . S
C125 C121 1.429 . S
C125 C124 1.391 . S
H126 C129 0.931 . S
H127 C132 0.928 . S
H128 C134 0.930 . S
C129 H126 0.931 . S
C129 C130 1.413 . S
C129 C131 1.360 . S
C130 C129 1.413 . S
C130 C134 1.429 . S
C131 C129 1.360 . S
C131 C132 1.372 . S
C132 H127 0.928 . S
C132 C131 1.372 . S
C132 C133 1.404 . S
C133 C132 1.404 . S
C133 C134 1.391 . S
C134 H128 0.930 . S
C134 C130 1.429 . S
C134 C133 1.391 . S
H135 C138 0.931 . S
H136 C141 0.928 . S
H137 C143 0.930 . S
C138 H135 0.931 . S
C138 C139 1.413 . S
C138 C140 1.360 . S
C139 C138 1.413 . S
C139 C143 1.429 . S
C140 C138 1.360 . S
C140 C141 1.372 . S
C141 H136 0.928 . S
C141 C140 1.372 . S
C141 C142 1.404 . S
C142 C141 1.404 . S
C142 C143 1.391 . S
C143 H137 0.930 . S
C143 C139 1.429 . S
C143 C142 1.391 . S
Mg144 O145 2.029 1_554 S
Mg144 O151 1.986 1_554 S
Mg144 O153 2.114 . S
Mg144 O154 2.251 . S
Mg144 O157 2.010 . S
O145 Mg144 2.029 1_556 S
O145 C148 1.249 . S
O146 Mg147 2.028 . S
O146 C148 1.248 . S
Mg147 O146 2.028 . S
Mg147 O152 2.032 . S
Mg147 O154 2.079 1_556 S
C148 O145 1.249 . S
C148 O146 1.248 . S
C149 O150 1.264 . S
C149 O157 1.249 . S
O150 C149 1.264 . S
O151 Mg144 1.986 1_556 S
O151 C155 1.246 . S
O152 Mg147 2.032 . S
O152 C155 1.259 . S
O153 Mg144 2.114 . S
O153 C156 1.252 . S
O154 Mg144 2.251 . S
O154 Mg147 2.079 1_554 S
O154 C156 1.273 . S
C155 O151 1.246 . S
C155 O152 1.259 . S
C156 O153 1.252 . S
C156 O154 1.273 . S
O157 Mg144 2.010 . S
O157 C149 1.249 . S
Mg158 O159 2.028 . S
Mg158 O165 1.986 . S
Mg158 O167 2.114 . S
Mg158 O168 2.251 . S
Mg158 O171 2.010 . S
O159 Mg158 2.028 . S
O159 C162 1.250 . S
O160 Mg161 2.028 . S
O160 C162 1.248 . S
Mg161 O160 2.028 . S
Mg161 O166 2.032 . S
Mg161 O168 2.079 . S
C162 O159 1.250 . S
C162 O160 1.248 . S
C163 O164 1.264 . S
C163 O171 1.249 . S
O164 C163 1.264 . S
O165 Mg158 1.986 . S
O165 C169 1.246 . S
O166 Mg161 2.032 . S
O166 C169 1.259 . S
O167 Mg158 2.114 . S
O167 C170 1.252 . S
O168 Mg158 2.251 . S
O168 Mg161 2.079 . S
O168 C170 1.273 . S
C169 O165 1.246 . S
C169 O166 1.259 . S
C170 O167 1.252 . S
C170 O168 1.273 . S
O171 Mg158 2.010 . S
O171 C163 1.249 . S
Mg172 O173 2.028 . S
Mg172 O179 1.986 1_554 S
Mg172 O181 2.114 . S
Mg172 O182 2.251 . S
Mg172 O185 2.010 . S
O173 Mg172 2.028 . S
O173 C176 1.250 . S
O174 Mg175 2.028 1_554 S
O174 C176 1.248 . S
Mg175 O174 2.028 1_556 S
Mg175 O180 2.032 . S
Mg175 O182 2.079 1_556 S
C176 O173 1.250 . S
C176 O174 1.248 . S
C177 O178 1.264 . S
C177 O185 1.249 . S
O178 C177 1.264 . S
O179 Mg172 1.986 1_556 S
O179 C183 1.246 . S
O180 Mg175 2.032 . S
O180 C183 1.259 . S
O181 Mg172 2.114 . S
O181 C184 1.252 . S
O182 Mg172 2.251 . S
O182 Mg175 2.079 1_554 S
O182 C184 1.273 . S
C183 O179 1.246 . S
C183 O180 1.259 . S
C184 O181 1.252 . S
C184 O182 1.273 . S
O185 Mg172 2.010 . S
O185 C177 1.249 . S
Mg186 O187 2.028 . S
Mg186 O193 1.986 . S
Mg186 O195 2.114 . S
Mg186 O196 2.251 . S
Mg186 O199 2.010 . S
O187 Mg186 2.028 . S
O187 C190 1.250 1_545 S
O188 Mg189 2.028 . S
O188 C190 1.248 . S
Mg189 O188 2.028 . S
Mg189 O194 2.032 . S
Mg189 O196 2.079 1_565 S
C190 O187 1.250 1_565 S
C190 O188 1.248 . S
C191 O192 1.264 . S
C191 O199 1.249 . S
O192 C191 1.264 . S
O193 Mg186 1.986 . S
O193 C197 1.246 . S
O194 Mg189 2.032 . S
O194 C197 1.259 1_565 S
O195 Mg186 2.114 . S
O195 C198 1.252 . S
O196 Mg186 2.251 . S
O196 Mg189 2.079 1_545 S
O196 C198 1.273 . S
C197 O193 1.246 . S
C197 O194 1.259 1_545 S
C198 O195 1.252 . S
C198 O196 1.273 . S
O199 Mg186 2.010 . S
O199 C191 1.249 . S
Mg200 O201 2.028 . S
Mg200 O207 1.986 . S
Mg200 O209 2.114 . S
Mg200 O210 2.251 . S
Mg200 O213 2.010 . S
O201 Mg200 2.028 . S
O201 C204 1.250 . S
O202 Mg203 2.028 . S
O202 C204 1.248 . S
Mg203 O202 2.028 . S
Mg203 O208 2.032 . S
Mg203 O210 2.079 . S
C204 O201 1.250 . S
C204 O202 1.248 . S
C205 O206 1.264 . S
C205 O213 1.249 . S
O206 C205 1.264 . S
O207 Mg200 1.986 . S
O207 C211 1.246 . S
O208 Mg203 2.032 . S
O208 C211 1.259 . S
O209 Mg200 2.114 . S
O209 C212 1.252 . S
O210 Mg200 2.251 . S
O210 Mg203 2.079 . S
O210 C212 1.273 . S
C211 O207 1.246 . S
C211 O208 1.259 . S
C212 O209 1.252 . S
C212 O210 1.273 . S
O213 Mg200 2.010 . S
O213 C205 1.249 . S
Mg214 O215 2.028 . S
Mg214 O221 1.986 . S
Mg214 O223 2.114 . S
Mg214 O224 2.251 . S
Mg214 O227 2.010 . S
O215 Mg214 2.028 . S
O215 C218 1.250 . S
O216 Mg217 2.028 . S
O216 C218 1.248 . S
Mg217 O216 2.028 . S
Mg217 O222 2.032 . S
Mg217 O224 2.079 . S
C218 O215 1.250 . S
C218 O216 1.248 . S
C219 O220 1.264 . S
C219 O227 1.249 . S
O220 C219 1.264 . S
O221 Mg214 1.986 . S
O221 C225 1.246 . S
O222 Mg217 2.032 . S
O222 C225 1.259 . S
O223 Mg214 2.114 . S
O223 C226 1.252 . S
O224 Mg214 2.251 . S
O224 Mg217 2.079 . S
O224 C226 1.273 . S
C225 O221 1.246 . S
C225 O222 1.259 . S
C226 O223 1.252 . S
C226 O224 1.273 . S
O227 Mg214 2.010 . S
O227 C219 1.249 . S
Mg228 O229 2.028 . S
Mg228 O235 1.986 . S
Mg228 O237 2.114 . S
Mg228 O238 2.251 . S
Mg228 O241 2.010 . S
O229 Mg228 2.028 . S
O229 C232 1.250 . S
O230 Mg231 2.028 . S
O230 C232 1.248 . S
Mg231 O230 2.028 . S
Mg231 O236 2.032 . S
Mg231 O238 2.079 . S
C232 O229 1.250 . S
C232 O230 1.248 . S
C233 O234 1.264 . S
C233 O241 1.249 . S
O234 C233 1.264 . S
O235 Mg228 1.986 . S
O235 C239 1.246 . S
O236 Mg231 2.032 . S
O236 C239 1.259 . S
O237 Mg228 2.114 . S
O237 C240 1.252 . S
O238 Mg228 2.251 . S
O238 Mg231 2.079 . S
O238 C240 1.273 . S
C239 O235 1.246 . S
C239 O236 1.259 . S
C240 O237 1.252 . S
C240 O238 1.273 . S
O241 Mg228 2.010 . S
O241 C233 1.249 . S
Mg242 O243 2.028 1_545 S
Mg242 O249 1.986 1_545 S
Mg242 O251 2.114 . S
Mg242 O252 2.251 . S
Mg242 O255 2.010 . S
O243 Mg242 2.028 1_565 S
O243 C246 1.250 . S
O244 Mg245 2.028 . S
O244 C246 1.248 . S
Mg245 O244 2.028 . S
Mg245 O250 2.032 . S
Mg245 O252 2.079 1_565 S
C246 O243 1.250 . S
C246 O244 1.248 . S
C247 O248 1.264 . S
C247 O255 1.249 . S
O248 C247 1.264 . S
O249 Mg242 1.986 1_565 S
O249 C253 1.246 . S
O250 Mg245 2.032 . S
O250 C253 1.259 . S
O251 Mg242 2.114 . S
O251 C254 1.252 . S
O252 Mg242 2.251 . S
O252 Mg245 2.079 1_545 S
O252 C254 1.273 . S
C253 O249 1.246 . S
C253 O250 1.259 . S
C254 O251 1.252 . S
C254 O252 1.273 . S
O255 Mg242 2.010 . S
O255 C247 1.249 . S
Mg256 O257 2.028 . S
Mg256 O263 1.986 . S
Mg256 O265 2.114 . S
Mg256 O266 2.251 . S
Mg256 O269 2.010 . S
O257 Mg256 2.028 . S
O257 C260 1.250 1_455 S
O258 Mg259 2.028 . S
O258 C260 1.248 . S
Mg259 O258 2.028 . S
Mg259 O264 2.032 . S
Mg259 O266 2.079 1_655 S
C260 O257 1.250 1_655 S
C260 O258 1.248 . S
C261 O262 1.264 . S
C261 O269 1.249 . S
O262 C261 1.264 . S
O263 Mg256 1.986 . S
O263 C267 1.246 . S
O264 Mg259 2.032 . S
O264 C267 1.259 1_655 S
O265 Mg256 2.114 . S
O265 C268 1.252 . S
O266 Mg256 2.251 . S
O266 Mg259 2.079 1_455 S
O266 C268 1.273 . S
C267 O263 1.246 . S
C267 O264 1.259 1_455 S
C268 O265 1.252 . S
C268 O266 1.273 . S
O269 Mg256 2.010 . S
O269 C261 1.249 . S
Mg270 O271 2.028 . S
Mg270 O277 1.986 . S
Mg270 O279 2.114 . S
Mg270 O280 2.251 . S
Mg270 O283 2.010 . S
O271 Mg270 2.028 . S
O271 C274 1.250 . S
O272 Mg273 2.028 . S
O272 C274 1.248 . S
Mg273 O272 2.028 . S
Mg273 O278 2.032 . S
Mg273 O280 2.079 . S
C274 O271 1.250 . S
C274 O272 1.248 . S
C275 O276 1.264 . S
C275 O283 1.249 . S
O276 C275 1.264 . S
O277 Mg270 1.986 . S
O277 C281 1.246 . S
O278 Mg273 2.032 . S
O278 C281 1.259 . S
O279 Mg270 2.114 . S
O279 C282 1.252 . S
O280 Mg270 2.251 . S
O280 Mg273 2.079 . S
O280 C282 1.273 . S
C281 O277 1.246 . S
C281 O278 1.259 . S
C282 O279 1.252 . S
C282 O280 1.273 . S
O283 Mg270 2.010 . S
O283 C275 1.249 . S
Mg284 O285 2.028 1_655 S
Mg284 O291 2.000 . S
Mg284 O293 2.114 . S
Mg284 O294 2.251 1_655 S
Mg284 O297 2.010 . S
O285 Mg284 2.028 1_455 S
O285 C288 1.250 . S
O286 Mg287 2.028 . S
O286 C288 1.248 . S
Mg287 O286 2.028 . S
Mg287 O292 2.032 . S
Mg287 O294 2.079 . S
C288 O285 1.250 . S
C288 O286 1.248 . S
C289 O290 1.264 . S
C289 O297 1.249 . S
O290 C289 1.264 . S
O291 Mg284 2.000 . S
O291 C295 1.207 1_655 S
O292 Mg287 2.032 . S
O292 C295 1.259 . S
O293 Mg284 2.114 . S
O293 C296 1.252 . S
O294 Mg284 2.251 1_455 S
O294 Mg287 2.079 . S
O294 C296 1.273 1_455 S
C295 O291 1.207 1_455 S
C295 O292 1.259 . S
C296 O293 1.252 . S
C296 O294 1.273 1_655 S
O297 Mg284 2.010 . S
O297 C289 1.249 . S
Mg298 O299 2.028 . S
Mg298 O305 1.986 . S
Mg298 O307 2.114 . S
Mg298 O308 2.251 . S
Mg298 O311 2.010 . S
O299 Mg298 2.028 . S
O299 C302 1.250 . S
O300 Mg301 2.028 . S
O300 C302 1.248 . S
Mg301 O300 2.028 . S
Mg301 O306 2.032 . S
Mg301 O308 2.079 . S
C302 O299 1.250 . S
C302 O300 1.248 . S
C303 O304 1.264 . S
C303 O311 1.249 . S
O304 C303 1.264 . S
O305 Mg298 1.986 . S
O305 C309 1.246 . S
O306 Mg301 2.032 . S
O306 C309 1.259 . S
O307 Mg298 2.114 . S
O307 C310 1.252 . S
O308 Mg298 2.251 . S
O308 Mg301 2.079 . S
O308 C310 1.273 . S
C309 O305 1.246 . S
C309 O306 1.259 . S
C310 O307 1.252 . S
C310 O308 1.273 . S
O311 Mg298 2.010 . S
O311 C303 1.249 . S
H312 C330 0.951 . S
H313 C332 0.951 . S
H314 C334 0.950 . S
H315 C335 0.950 . S
H316 C337 0.950 . S
H317 C340 0.950 . S
H318 C341 0.950 . S
H319 C343 0.950 . S
H320 C344 0.950 . S
H321 C345 0.951 . S
H322 C347 0.951 . S
H323 C349 0.950 . S
H324 C350 0.950 . S
H325 C352 0.950 . S
H326 C355 0.950 . S
H327 C356 0.950 . S
H328 C358 0.950 . S
H329 C359 0.950 . S
C330 H312 0.951 . S
C330 C331 1.366 . S
C330 C332 1.388 . S
C331 C330 1.366 . S
C331 C335 1.385 . S
C332 H313 0.951 . S
C332 C330 1.388 . S
C332 C333 1.366 . S
C333 C332 1.366 . S
C333 C334 1.414 . S
C333 C336 1.499 . S
C334 H314 0.950 . S
C334 C333 1.414 . S
C334 C335 1.374 . S
C335 H315 0.950 . S
C335 C331 1.385 . S
C335 C334 1.374 . S
C336 C333 1.499 . S
C336 C337 1.373 . S
C336 C338 1.389 . S
C337 H316 0.950 . S
C337 C336 1.373 . S
C337 C353 1.377 . S
C338 C336 1.389 . S
C338 C339 1.524 . S
C338 C352 1.377 . S
C339 C338 1.524 . S
C339 C340 1.397 . S
C339 C344 1.363 . S
C340 H317 0.950 . S
C340 C339 1.397 . S
C340 C341 1.334 . S
C341 H318 0.950 . S
C341 C340 1.334 . S
C341 C342 1.287 . S
C342 C341 1.287 . S
C342 C343 1.524 . S
C342 H361 0.913 . S
C343 H319 0.950 . S
C343 C342 1.524 . S
C343 C344 1.415 . S
C344 H320 0.950 . S
C344 C339 1.363 . S
C344 C343 1.415 . S
C345 H321 0.951 . S
C345 C346 1.366 . S
C345 C347 1.388 . S
C346 C345 1.366 . S
C346 C350 1.385 . S
C347 H322 0.951 . S
C347 C345 1.388 . S
C347 C348 1.366 . S
C348 C347 1.366 . S
C348 C349 1.414 . S
C348 C351 1.499 . S
C349 H323 0.950 . S
C349 C348 1.414 . S
C349 C350 1.374 . S
C350 H324 0.950 . S
C350 C346 1.385 . S
C350 C349 1.374 . S
C351 C348 1.499 . S
C351 C352 1.373 . S
C351 C353 1.389 . S
C352 H325 0.950 . S
C352 C338 1.377 . S
C352 C351 1.373 . S
C353 C337 1.377 . S
C353 C351 1.389 . S
C353 C354 1.524 . S
C354 C353 1.524 . S
C354 C355 1.397 . S
C354 C359 1.363 . S
C355 H326 0.950 . S
C355 C354 1.397 . S
C355 C356 1.334 . S
C356 H327 0.950 . S
C356 C355 1.334 . S
C356 C357 1.287 . S
C357 C356 1.287 . S
C357 C358 1.524 . S
C357 H360 0.999 . S
C358 H328 0.950 . S
C358 C357 1.524 . S
C358 C359 1.415 . S
C359 H329 0.950 . S
C359 C354 1.363 . S
C359 C358 1.415 . S
H360 C357 0.999 . S
H361 C342 0.913 . S
H362 C380 0.951 . S
H363 C382 0.955 . S
H364 C384 0.950 . S
H365 C385 0.950 . S
H366 C387 0.950 . S
H367 C390 0.950 . S
H368 C391 0.950 . S
H369 C393 0.950 . S
H370 C394 0.950 . S
H371 C395 0.951 . S
H372 C397 0.951 . S
H373 C399 0.950 . S
H374 C400 0.950 . S
H375 C402 0.950 . S
H376 C405 0.950 . S
H377 C406 0.950 . S
H378 C408 0.950 . S
H379 C409 0.950 . S
C380 H362 0.951 . S
C380 C381 1.366 . S
C380 C382 1.397 . S
C381 C380 1.366 . S
C381 C385 1.385 1_655 S
C382 H363 0.955 . S
C382 C380 1.397 . S
C382 C383 1.352 1_655 S
C383 C382 1.352 1_455 S
C383 C384 1.414 . S
C383 C386 1.499 . S
C384 H364 0.950 . S
C384 C383 1.414 . S
C384 C385 1.374 . S
C385 H365 0.950 . S
C385 C381 1.385 1_455 S
C385 C384 1.374 . S
C386 C383 1.499 . S
C386 C387 1.373 . S
C386 C388 1.389 . S
C387 H366 0.950 . S
C387 C386 1.373 . S
C387 C403 1.377 . S
C388 C386 1.389 . S
C388 C389 1.524 . S
C388 C402 1.377 . S
C389 C388 1.524 . S
C389 C390 1.397 . S
C389 C394 1.363 1_455 S
C390 H367 0.950 . S
C390 C389 1.397 . S
C390 C391 1.334 1_455 S
C391 H368 0.950 . S
C391 C390 1.334 1_655 S
C391 C392 1.287 . S
C392 C391 1.287 . S
C392 C393 1.524 . S
C392 H411 0.913 . S
C393 H369 0.950 . S
C393 C392 1.524 . S
C393 C394 1.415 . S
C394 H370 0.950 . S
C394 C389 1.363 1_655 S
C394 C393 1.415 . S
C395 H371 0.951 . S
C395 C396 1.366 . S
C395 C397 1.388 . S
C396 C395 1.366 . S
C396 C400 1.385 . S
C397 H372 0.951 . S
C397 C395 1.388 . S
C397 C398 1.366 . S
C398 C397 1.366 . S
C398 C399 1.414 . S
C398 C401 1.499 . S
C399 H373 0.950 . S
C399 C398 1.414 . S
C399 C400 1.374 . S
C400 H374 0.950 . S
C400 C396 1.385 . S
C400 C399 1.374 . S
C401 C398 1.499 . S
C401 C402 1.373 . S
C401 C403 1.389 . S
C402 H375 0.950 . S
C402 C388 1.377 . S
C402 C401 1.373 . S
C403 C387 1.377 . S
C403 C401 1.389 . S
C403 C404 1.524 . S
C404 C403 1.524 . S
C404 C405 1.397 . S
C404 C409 1.363 . S
C405 H376 0.950 . S
C405 C404 1.397 . S
C405 C406 1.334 . S
C406 H377 0.950 . S
C406 C405 1.334 . S
C406 C407 1.287 . S
C407 C406 1.287 . S
C407 C408 1.524 . S
C407 H410 0.999 . S
C408 H378 0.950 . S
C408 C407 1.524 . S
C408 C409 1.415 . S
C409 H379 0.950 . S
C409 C404 1.363 . S
C409 C408 1.415 . S
H410 C407 0.999 . S
H411 C392 0.913 . S
H412 C430 0.951 . S
H413 C432 0.951 . S
H414 C434 0.950 . S
H415 C435 0.950 . S
H416 C437 0.950 . S
H417 C440 0.950 . S
H418 C441 0.950 . S
H419 C443 0.950 . S
H420 C444 0.950 . S
H421 C445 0.951 . S
H422 C447 0.951 . S
H423 C449 0.950 . S
H424 C450 0.950 . S
H425 C452 0.950 . S
H426 C455 0.950 . S
H427 C456 0.950 . S
H428 C458 0.950 . S
H429 C459 0.950 . S
C430 H412 0.951 . S
C430 C431 1.366 . S
C430 C432 1.388 . S
C431 C430 1.366 . S
C431 C435 1.385 . S
C432 H413 0.951 . S
C432 C430 1.388 . S
C432 C433 1.366 . S
C433 C432 1.366 . S
C433 C434 1.414 . S
C433 C436 1.499 . S
C434 H414 0.950 . S
C434 C433 1.414 . S
C434 C435 1.374 . S
C435 H415 0.950 . S
C435 C431 1.385 . S
C435 C434 1.374 . S
C436 C433 1.499 . S
C436 C437 1.373 . S
C436 C438 1.389 . S
C437 H416 0.950 . S
C437 C436 1.373 . S
C437 C453 1.377 . S
C438 C436 1.389 . S
C438 C439 1.524 . S
C438 C452 1.377 . S
C439 C438 1.524 . S
C439 C440 1.397 . S
C439 C444 1.363 . S
C440 H417 0.950 . S
C440 C439 1.397 . S
C440 C441 1.334 . S
C441 H418 0.950 . S
C441 C440 1.334 . S
C441 C442 1.287 . S
C442 C441 1.287 . S
C442 C443 1.524 . S
C442 H461 0.913 . S
C443 H419 0.950 . S
C443 C442 1.524 . S
C443 C444 1.415 . S
C444 H420 0.950 . S
C444 C439 1.363 . S
C444 C443 1.415 . S
C445 H421 0.951 . S
C445 C446 1.366 . S
C445 C447 1.388 . S
C446 C445 1.366 . S
C446 C450 1.385 . S
C447 H422 0.951 . S
C447 C445 1.388 . S
C447 C448 1.366 . S
C448 C447 1.366 . S
C448 C449 1.414 . S
C448 C451 1.499 . S
C449 H423 0.950 . S
C449 C448 1.414 . S
C449 C450 1.374 . S
C450 H424 0.950 . S
C450 C446 1.385 . S
C450 C449 1.374 . S
C451 C448 1.499 . S
C451 C452 1.373 . S
C451 C453 1.389 . S
C452 H425 0.950 . S
C452 C438 1.377 . S
C452 C451 1.373 . S
C453 C437 1.377 . S
C453 C451 1.389 . S
C453 C454 1.524 . S
C454 C453 1.524 . S
C454 C455 1.397 . S
C454 C459 1.363 . S
C455 H426 0.950 . S
C455 C454 1.397 . S
C455 C456 1.334 . S
C456 H427 0.950 . S
C456 C455 1.334 . S
C456 C457 1.287 . S
C457 C456 1.287 . S
C457 C458 1.524 . S
C457 H460 0.999 . S
C458 H428 0.950 . S
C458 C457 1.524 . S
C458 C459 1.415 . S
C459 H429 0.950 . S
C459 C454 1.363 . S
C459 C458 1.415 . S
H460 C457 0.999 . S
H461 C442 0.913 . S
H462 C480 0.951 . S
H463 C482 0.951 . S
H464 C484 0.936 1_645 S
H465 C485 0.950 1_545 S
H466 C487 0.950 . S
H467 C490 0.950 . S
H468 C491 0.950 . S
H469 C493 0.950 . S
H470 C494 0.950 . S
H471 C495 0.951 . S
H472 C497 0.951 . S
H473 C499 0.950 . S
H474 C500 0.950 . S
H475 C502 0.950 . S
H476 C505 0.950 . S
H477 C506 0.950 . S
H478 C508 0.950 . S
H479 C509 0.950 . S
C480 H462 0.951 . S
C480 C481 1.366 . S
C480 C482 1.388 . S
C481 C480 1.366 . S
C481 C485 1.385 . S
C482 H463 0.951 . S
C482 C480 1.388 . S
C482 C483 1.366 . S
C483 C482 1.366 . S
C483 C484 1.425 . S
C483 C486 1.499 1_455 S
C484 H464 0.936 1_465 S
C484 C483 1.425 . S
C484 C485 1.377 . S
C485 H465 0.950 1_565 S
C485 C481 1.385 . S
C485 C484 1.377 . S
C486 C483 1.499 1_655 S
C486 C487 1.373 . S
C486 C488 1.389 . S
C487 H466 0.950 . S
C487 C486 1.373 . S
C487 C503 1.377 . S
C488 C486 1.389 . S
C488 C489 1.524 1_655 S
C488 C502 1.377 . S
C489 C488 1.524 1_455 S
C489 C490 1.397 1_565 S
C489 C494 1.363 . S
C490 H467 0.950 . S
C490 C489 1.397 1_545 S
C490 C491 1.334 . S
C491 H468 0.950 . S
C491 C490 1.334 . S
C491 C492 1.287 1_545 S
C492 C491 1.287 1_565 S
C492 C493 1.524 . S
C492 H511 0.913 . S
C493 H469 0.950 . S
C493 C492 1.524 . S
C493 C494 1.415 . S
C494 H470 0.950 . S
C494 C489 1.363 . S
C494 C493 1.415 . S
C495 H471 0.951 . S
C495 C496 1.366 . S
C495 C497 1.388 . S
C496 C495 1.366 . S
C496 C500 1.385 1_545 S
C497 H472 0.951 . S
C497 C495 1.388 . S
C497 C498 1.317 1_545 S
C498 C497 1.317 1_565 S
C498 C499 1.451 . S
C498 C501 1.512 . S
C499 H473 0.950 . S
C499 C498 1.451 . S
C499 C500 1.374 . S
C500 H474 0.950 . S
C500 C496 1.385 1_565 S
C500 C499 1.374 . S
C501 C498 1.512 . S
C501 C502 1.373 . S
C501 C503 1.389 . S
C502 H475 0.950 . S
C502 C488 1.377 . S
C502 C501 1.373 . S
C503 C487 1.377 . S
C503 C501 1.389 . S
C503 C504 1.524 . S
C504 C503 1.524 . S
C504 C505 1.397 . S
C504 C509 1.363 1_565 S
C505 H476 0.950 . S
C505 C504 1.397 . S
C505 C506 1.334 . S
C506 H477 0.950 . S
C506 C505 1.334 . S
C506 C507 1.287 . S
C507 C506 1.287 . S
C507 C508 1.524 1_565 S
C507 H510 0.999 . S
C508 H478 0.950 . S
C508 C507 1.524 1_545 S
C508 C509 1.415 . S
C509 H479 0.950 . S
C509 C504 1.363 1_545 S
C509 C508 1.415 . S
H510 C507 0.999 . S
H511 C492 0.913 . S
H512 C530 0.951 . S
H513 C532 0.951 . S
H514 C534 0.950 . S
H515 C535 0.950 . S
H516 C537 0.950 . S
H517 C540 0.950 . S
H518 C541 0.950 . S
H519 C543 0.950 . S
H520 C544 0.950 . S
H521 C545 0.951 . S
H522 C547 0.951 . S
H523 C549 0.950 . S
H524 C550 0.950 . S
H525 C552 0.950 . S
H526 C555 0.950 . S
H527 C556 0.950 . S
H528 C558 0.950 . S
H529 C559 0.950 . S
C530 H512 0.951 . S
C530 C531 1.366 . S
C530 C532 1.388 . S
C531 C530 1.366 . S
C531 C535 1.385 . S
C532 H513 0.951 . S
C532 C530 1.388 . S
C532 C533 1.366 . S
C533 C532 1.366 . S
C533 C534 1.414 . S
C533 C536 1.499 . S
C534 H514 0.950 . S
C534 C533 1.414 . S
C534 C535 1.374 . S
C535 H515 0.950 . S
C535 C531 1.385 . S
C535 C534 1.374 . S
C536 C533 1.499 . S
C536 C537 1.373 . S
C536 C538 1.389 . S
C537 H516 0.950 . S
C537 C536 1.373 . S
C537 C553 1.377 . S
C538 C536 1.389 . S
C538 C539 1.524 . S
C538 C552 1.377 . S
C539 C538 1.524 . S
C539 C540 1.397 . S
C539 C544 1.363 . S
C540 H517 0.950 . S
C540 C539 1.397 . S
C540 C541 1.334 . S
C541 H518 0.950 . S
C541 C540 1.334 . S
C541 C542 1.287 . S
C542 C541 1.287 . S
C542 C543 1.524 . S
C542 H561 0.913 . S
C543 H519 0.950 . S
C543 C542 1.524 . S
C543 C544 1.415 . S
C544 H520 0.950 . S
C544 C539 1.363 . S
C544 C543 1.415 . S
C545 H521 0.951 . S
C545 C546 1.366 . S
C545 C547 1.388 . S
C546 C545 1.366 . S
C546 C550 1.385 . S
C547 H522 0.951 . S
C547 C545 1.388 . S
C547 C548 1.366 . S
C548 C547 1.366 . S
C548 C549 1.414 . S
C548 C551 1.499 . S
C549 H523 0.950 . S
C549 C548 1.414 . S
C549 C550 1.374 . S
C550 H524 0.950 . S
C550 C546 1.385 . S
C550 C549 1.374 . S
C551 C548 1.499 . S
C551 C552 1.373 . S
C551 C553 1.389 . S
C552 H525 0.950 . S
C552 C538 1.377 . S
C552 C551 1.373 . S
C553 C537 1.377 . S
C553 C551 1.389 . S
C553 C554 1.524 . S
C554 C553 1.524 . S
C554 C555 1.397 . S
C554 C559 1.363 . S
C555 H526 0.950 . S
C555 C554 1.397 . S
C555 C556 1.334 . S
C556 H527 0.950 . S
C556 C555 1.334 . S
C556 C557 1.287 . S
C557 C556 1.287 . S
C557 C558 1.524 . S
C557 H560 0.999 . S
C558 H528 0.950 . S
C558 C557 1.524 . S
C558 C559 1.415 . S
C559 H529 0.950 . S
C559 C554 1.363 . S
C559 C558 1.415 . S
H560 C557 0.999 . S
H561 C542 0.913 . S
H562 C580 0.951 . S
H563 C582 0.951 . S
H564 C584 0.950 . S
H565 C585 0.950 . S
H566 C587 0.950 . S
H567 C590 0.950 . S
H568 C591 0.950 . S
H569 C593 0.950 . S
H570 C594 0.950 . S
H571 C595 0.951 . S
H572 C597 0.951 . S
H573 C599 0.950 . S
H574 C600 0.950 . S
H575 C602 0.950 . S
H576 C605 0.950 . S
H577 C606 0.950 . S
H578 C608 0.950 . S
H579 C609 0.950 . S
C580 H562 0.951 . S
C580 C581 1.366 . S
C580 C582 1.388 . S
C581 C580 1.366 . S
C581 C585 1.385 . S
C582 H563 0.951 . S
C582 C580 1.388 . S
C582 C583 1.366 . S
C583 C582 1.366 . S
C583 C584 1.414 . S
C583 C586 1.499 . S
C584 H564 0.950 . S
C584 C583 1.414 . S
C584 C585 1.374 . S
C585 H565 0.950 . S
C585 C581 1.385 . S
C585 C584 1.374 . S
C586 C583 1.499 . S
C586 C587 1.373 . S
C586 C588 1.389 . S
C587 H566 0.950 . S
C587 C586 1.373 . S
C587 C603 1.377 . S
C588 C586 1.389 . S
C588 C589 1.524 . S
C588 C602 1.377 . S
C589 C588 1.524 . S
C589 C590 1.397 . S
C589 C594 1.363 . S
C590 H567 0.950 . S
C590 C589 1.397 . S
C590 C591 1.334 . S
C591 H568 0.950 . S
C591 C590 1.334 . S
C591 C592 1.287 . S
C592 C591 1.287 . S
C592 C593 1.524 . S
C592 H611 0.913 . S
C593 H569 0.950 . S
C593 C592 1.524 . S
C593 C594 1.415 . S
C594 H570 0.950 . S
C594 C589 1.363 . S
C594 C593 1.415 . S
C595 H571 0.951 . S
C595 C596 1.366 . S
C595 C597 1.388 . S
C596 C595 1.366 . S
C596 C600 1.385 . S
C597 H572 0.951 . S
C597 C595 1.388 . S
C597 C598 1.366 . S
C598 C597 1.366 . S
C598 C599 1.414 . S
C598 C601 1.499 . S
C599 H573 0.950 . S
C599 C598 1.414 . S
C599 C600 1.374 . S
C600 H574 0.950 . S
C600 C596 1.385 . S
C600 C599 1.374 . S
C601 C598 1.499 . S
C601 C602 1.373 . S
C601 C603 1.389 . S
C602 H575 0.950 . S
C602 C588 1.377 . S
C602 C601 1.373 . S
C603 C587 1.377 . S
C603 C601 1.389 . S
C603 C604 1.524 . S
C604 C603 1.524 . S
C604 C605 1.397 . S
C604 C609 1.363 . S
C605 H576 0.950 . S
C605 C604 1.397 . S
C605 C606 1.334 . S
C606 H577 0.950 . S
C606 C605 1.334 . S
C606 C607 1.287 . S
C607 C606 1.287 . S
C607 C608 1.524 . S
C607 H610 0.999 . S
C608 H578 0.950 . S
C608 C607 1.524 . S
C608 C609 1.415 . S
C609 H579 0.950 . S
C609 C604 1.363 . S
C609 C608 1.415 . S
H610 C607 0.999 . S
H611 C592 0.913 . S
H612 C630 0.951 . S
H613 C632 0.951 . S
H614 C634 0.950 . S
H615 C635 0.950 . S
H616 C637 0.950 . S
H617 C640 0.950 . S
H618 C641 0.950 . S
H619 C643 0.950 . S
H620 C644 0.950 . S
H621 C645 0.951 . S
H622 C647 0.951 . S
H623 C649 0.950 . S
H624 C650 0.950 . S
H625 C652 0.950 . S
H626 C655 0.950 . S
H627 C656 0.950 . S
H628 C658 0.950 . S
H629 C659 0.950 . S
C630 H612 0.951 . S
C630 C631 1.366 . S
C630 C632 1.388 . S
C631 C630 1.366 . S
C631 C635 1.385 . S
C632 H613 0.951 . S
C632 C630 1.388 . S
C632 C633 1.366 . S
C633 C632 1.366 . S
C633 C634 1.414 . S
C633 C636 1.499 . S
C634 H614 0.950 . S
C634 C633 1.414 . S
C634 C635 1.374 . S
C635 H615 0.950 . S
C635 C631 1.385 . S
C635 C634 1.374 . S
C636 C633 1.499 . S
C636 C637 1.373 . S
C636 C638 1.389 . S
C637 H616 0.950 . S
C637 C636 1.373 . S
C637 C653 1.377 . S
C638 C636 1.389 . S
C638 C639 1.524 . S
C638 C652 1.377 . S
C639 C638 1.524 . S
C639 C640 1.397 . S
C639 C644 1.363 . S
C640 H617 0.950 . S
C640 C639 1.397 . S
C640 C641 1.334 . S
C641 H618 0.950 . S
C641 C640 1.334 . S
C641 C642 1.287 . S
C642 C641 1.287 . S
C642 C643 1.524 . S
C642 H661 0.913 . S
C643 H619 0.950 . S
C643 C642 1.524 . S
C643 C644 1.415 . S
C644 H620 0.950 . S
C644 C639 1.363 . S
C644 C643 1.415 . S
C645 H621 0.951 . S
C645 C646 1.366 . S
C645 C647 1.388 . S
C646 C645 1.366 . S
C646 C650 1.385 . S
C647 H622 0.951 . S
C647 C645 1.388 . S
C647 C648 1.366 . S
C648 C647 1.366 . S
C648 C649 1.414 . S
C648 C651 1.499 . S
C649 H623 0.950 . S
C649 C648 1.414 . S
C649 C650 1.374 . S
C650 H624 0.950 . S
C650 C646 1.385 . S
C650 C649 1.374 . S
C651 C648 1.499 . S
C651 C652 1.373 . S
C651 C653 1.389 . S
C652 H625 0.950 . S
C652 C638 1.377 . S
C652 C651 1.373 . S
C653 C637 1.377 . S
C653 C651 1.389 . S
C653 C654 1.524 . S
C654 C653 1.524 . S
C654 C655 1.397 . S
C654 C659 1.363 . S
C655 H626 0.950 . S
C655 C654 1.397 . S
C655 C656 1.334 . S
C656 H627 0.950 . S
C656 C655 1.334 . S
C656 C657 1.287 . S
C657 C656 1.287 . S
C657 C658 1.524 . S
C657 H660 0.999 . S
C658 H628 0.950 . S
C658 C657 1.524 . S
C658 C659 1.415 . S
C659 H629 0.950 . S
C659 C654 1.363 . S
C659 C658 1.415 . S
H660 C657 0.999 . S
H661 C642 0.913 . S
H662 C680 0.951 . S
H663 C682 0.951 . S
H664 C684 0.950 . S
H665 C685 0.950 . S
H666 C687 0.950 . S
H667 C690 0.950 . S
H668 C691 0.950 . S
H669 C693 0.950 . S
H670 C694 0.950 . S
H671 C695 0.951 . S
H672 C697 0.951 . S
H673 C699 0.950 . S
H674 C700 0.950 . S
H675 C702 0.950 1_545 S
H676 C705 0.950 . S
H677 C706 0.950 . S
H678 C708 0.950 . S
H679 C709 0.950 . S
C680 H662 0.951 . S
C680 C681 1.366 . S
C680 C682 1.388 . S
C681 C680 1.366 . S
C681 C685 1.385 . S
C682 H663 0.951 . S
C682 C680 1.388 . S
C682 C683 1.366 . S
C683 C682 1.366 . S
C683 C684 1.414 . S
C683 C686 1.499 . S
C684 H664 0.950 . S
C684 C683 1.414 . S
C684 C685 1.374 . S
C685 H665 0.950 . S
C685 C681 1.385 . S
C685 C684 1.374 . S
C686 C683 1.499 . S
C686 C687 1.373 . S
C686 C688 1.389 . S
C687 H666 0.950 . S
C687 C686 1.373 . S
C687 C703 1.377 . S
C688 C686 1.389 . S
C688 C689 1.524 1_565 S
C688 C702 1.377 . S
C689 C688 1.524 1_545 S
C689 C690 1.397 . S
C689 C694 1.363 . S
C690 H667 0.950 . S
C690 C689 1.397 . S
C690 C691 1.334 . S
C691 H668 0.950 . S
C691 C690 1.334 . S
C691 C692 1.287 . S
C692 C691 1.287 . S
C692 C693 1.524 . S
C692 H711 0.913 . S
C693 H669 0.950 . S
C693 C692 1.524 . S
C693 C694 1.415 . S
C694 H670 0.950 . S
C694 C689 1.363 . S
C694 C693 1.415 . S
C695 H671 0.951 . S
C695 C696 1.366 . S
C695 C697 1.388 . S
C696 C695 1.366 . S
C696 C700 1.385 . S
C697 H672 0.951 . S
C697 C695 1.388 . S
C697 C698 1.366 . S
C698 C697 1.366 . S
C698 C699 1.414 . S
C698 C701 1.499 . S
C699 H673 0.950 . S
C699 C698 1.414 . S
C699 C700 1.374 . S
C700 H674 0.950 . S
C700 C696 1.385 . S
C700 C699 1.374 . S
C701 C698 1.499 . S
C701 C702 1.373 . S
C701 C703 1.389 . S
C702 H675 0.950 1_565 S
C702 C688 1.377 . S
C702 C701 1.373 . S
C703 C687 1.377 . S
C703 C701 1.389 . S
C703 C704 1.524 . S
C704 C703 1.524 . S
C704 C705 1.397 . S
C704 C709 1.363 . S
C705 H676 0.950 . S
C705 C704 1.397 . S
C705 C706 1.334 . S
C706 H677 0.950 . S
C706 C705 1.334 . S
C706 C707 1.287 . S
C707 C706 1.287 . S
C707 C708 1.524 . S
C707 H710 0.999 . S
C708 H678 0.950 . S
C708 C707 1.524 . S
C708 C709 1.415 . S
C709 H679 0.950 . S
C709 C704 1.363 . S
C709 C708 1.415 . S
H710 C707 0.999 . S
H711 C692 0.913 . S
H712 C730 0.951 . S
H713 C732 0.951 . S
H714 C734 0.950 . S
H715 C735 0.950 . S
H716 C737 0.950 . S
H717 C740 0.950 . S
H718 C741 0.950 . S
H719 C743 0.950 . S
H720 C744 0.950 . S
H721 C745 0.951 . S
H722 C747 0.951 . S
H723 C749 0.950 . S
H724 C750 0.950 . S
H725 C752 0.950 . S
H726 C755 0.950 . S
H727 C756 0.950 . S
H728 C758 0.950 . S
H729 C759 0.950 . S
C730 H712 0.951 . S
C730 C731 1.366 . S
C730 C732 1.388 . S
C731 C730 1.366 . S
C731 C735 1.385 . S
C732 H713 0.951 . S
C732 C730 1.388 . S
C732 C733 1.366 . S
C733 C732 1.366 . S
C733 C734 1.414 . S
C733 C736 1.499 . S
C734 H714 0.950 . S
C734 C733 1.414 . S
C734 C735 1.374 . S
C735 H715 0.950 . S
C735 C731 1.385 . S
C735 C734 1.374 . S
C736 C733 1.499 . S
C736 C737 1.373 . S
C736 C738 1.389 . S
C737 H716 0.950 . S
C737 C736 1.373 . S
C737 C753 1.377 . S
C738 C736 1.389 . S
C738 C739 1.524 . S
C738 C752 1.377 . S
C739 C738 1.524 . S
C739 C740 1.397 . S
C739 C744 1.363 . S
C740 H717 0.950 . S
C740 C739 1.397 . S
C740 C741 1.334 . S
C741 H718 0.950 . S
C741 C740 1.334 . S
C741 C742 1.287 . S
C742 C741 1.287 . S
C742 C743 1.524 . S
C742 H761 0.913 . S
C743 H719 0.950 . S
C743 C742 1.524 . S
C743 C744 1.415 . S
C744 H720 0.950 . S
C744 C739 1.363 . S
C744 C743 1.415 . S
C745 H721 0.951 . S
C745 C746 1.366 . S
C745 C747 1.388 . S
C746 C745 1.366 . S
C746 C750 1.385 . S
C747 H722 0.951 . S
C747 C745 1.388 . S
C747 C748 1.366 . S
C748 C747 1.366 . S
C748 C749 1.414 . S
C748 C751 1.499 . S
C749 H723 0.950 . S
C749 C748 1.414 . S
C749 C750 1.374 . S
C750 H724 0.950 . S
C750 C746 1.385 . S
C750 C749 1.374 . S
C751 C748 1.499 . S
C751 C752 1.373 . S
C751 C753 1.389 . S
C752 H725 0.950 . S
C752 C738 1.377 . S
C752 C751 1.373 . S
C753 C737 1.377 . S
C753 C751 1.389 . S
C753 C754 1.524 . S
C754 C753 1.524 . S
C754 C755 1.397 . S
C754 C759 1.363 . S
C755 H726 0.950 . S
C755 C754 1.397 . S
C755 C756 1.334 . S
C756 H727 0.950 . S
C756 C755 1.334 . S
C756 C757 1.287 . S
C757 C756 1.287 . S
C757 C758 1.524 . S
C757 H760 0.999 . S
C758 H728 0.950 . S
C758 C757 1.524 . S
C758 C759 1.415 . S
C759 H729 0.950 . S
C759 C754 1.363 . S
C759 C758 1.415 . S
H760 C757 0.999 . S
H761 C742 0.913 . S
H762 C780 0.951 . S
H763 C782 0.951 . S
H764 C784 0.950 . S
H765 C785 0.950 . S
H766 C787 0.950 . S
H767 C790 0.950 . S
H768 C791 0.950 . S
H769 C793 0.950 . S
H770 C794 0.950 . S
H771 C795 0.951 . S
H772 C797 0.951 . S
H773 C799 0.950 . S
H774 C800 0.950 . S
H775 C802 0.950 . S
H776 C805 0.950 . S
H777 C806 0.950 . S
H778 C808 0.950 . S
H779 C809 0.950 . S
C780 H762 0.951 . S
C780 C781 1.366 . S
C780 C782 1.388 . S
C781 C780 1.366 . S
C781 C785 1.385 . S
C782 H763 0.951 . S
C782 C780 1.388 . S
C782 C783 1.366 . S
C783 C782 1.366 . S
C783 C784 1.414 . S
C783 C786 1.499 . S
C784 H764 0.950 . S
C784 C783 1.414 . S
C784 C785 1.374 . S
C785 H765 0.950 . S
C785 C781 1.385 . S
C785 C784 1.374 . S
C786 C783 1.499 . S
C786 C787 1.373 . S
C786 C788 1.389 . S
C787 H766 0.950 . S
C787 C786 1.373 . S
C787 C803 1.377 . S
C788 C786 1.389 . S
C788 C789 1.524 . S
C788 C802 1.377 . S
C789 C788 1.524 . S
C789 C790 1.397 . S
C789 C794 1.363 . S
C790 H767 0.950 . S
C790 C789 1.397 . S
C790 C791 1.334 . S
C791 H768 0.950 . S
C791 C790 1.334 . S
C791 C792 1.287 . S
C792 C791 1.287 . S
C792 C793 1.524 . S
C792 H811 0.913 . S
C793 H769 0.950 . S
C793 C792 1.524 . S
C793 C794 1.415 . S
C794 H770 0.950 . S
C794 C789 1.363 . S
C794 C793 1.415 . S
C795 H771 0.951 . S
C795 C796 1.366 . S
C795 C797 1.388 . S
C796 C795 1.366 . S
C796 C800 1.385 . S
C797 H772 0.951 . S
C797 C795 1.388 . S
C797 C798 1.366 . S
C798 C797 1.366 . S
C798 C799 1.414 . S
C798 C801 1.499 . S
C799 H773 0.950 . S
C799 C798 1.414 . S
C799 C800 1.374 . S
C800 H774 0.950 . S
C800 C796 1.385 . S
C800 C799 1.374 . S
C801 C798 1.499 . S
C801 C802 1.373 . S
C801 C803 1.389 . S
C802 H775 0.950 . S
C802 C788 1.377 . S
C802 C801 1.373 . S
C803 C787 1.377 . S
C803 C801 1.389 . S
C803 C804 1.524 . S
C804 C803 1.524 . S
C804 C805 1.397 . S
C804 C809 1.363 . S
C805 H776 0.950 . S
C805 C804 1.397 . S
C805 C806 1.334 . S
C806 H777 0.950 . S
C806 C805 1.334 . S
C806 C807 1.287 . S
C807 C806 1.287 . S
C807 C808 1.524 . S
C807 H810 0.999 . S
C808 H778 0.950 . S
C808 C807 1.524 . S
C808 C809 1.415 . S
C809 H779 0.950 . S
C809 C804 1.363 . S
C809 C808 1.415 . S
H810 C807 0.999 . S
H811 C792 0.913 . S
H812 C830 0.951 . S
H813 C832 0.951 . S
H814 C834 0.950 . S
H815 C835 0.950 . S
H816 C837 0.950 . S
H817 C840 0.950 . S
H818 C841 0.950 . S
H819 C843 0.950 . S
H820 C844 0.950 . S
H821 C845 0.951 . S
H822 C847 0.951 . S
H823 C849 0.950 . S
H824 C850 0.950 . S
H825 C852 0.950 . S
H826 C855 0.950 . S
H827 C856 0.950 . S
H828 C858 0.950 . S
H829 C859 0.950 . S
C830 H812 0.951 . S
C830 C831 1.366 . S
C830 C832 1.388 . S
C831 C830 1.366 . S
C831 C835 1.385 . S
C832 H813 0.951 . S
C832 C830 1.388 . S
C832 C833 1.366 . S
C833 C832 1.366 . S
C833 C834 1.414 . S
C833 C836 1.499 . S
C834 H814 0.950 . S
C834 C833 1.414 . S
C834 C835 1.374 . S
C835 H815 0.950 . S
C835 C831 1.385 . S
C835 C834 1.374 . S
C836 C833 1.499 . S
C836 C837 1.373 . S
C836 C838 1.389 . S
C837 H816 0.950 . S
C837 C836 1.373 . S
C837 C853 1.377 . S
C838 C836 1.389 . S
C838 C839 1.524 . S
C838 C852 1.377 . S
C839 C838 1.524 . S
C839 C840 1.397 . S
C839 C844 1.363 . S
C840 H817 0.950 . S
C840 C839 1.397 . S
C840 C841 1.334 . S
C841 H818 0.950 . S
C841 C840 1.334 . S
C841 C842 1.287 . S
C842 C841 1.287 . S
C842 C843 1.524 . S
C842 H861 0.913 . S
C843 H819 0.950 . S
C843 C842 1.524 . S
C843 C844 1.415 . S
C844 H820 0.950 . S
C844 C839 1.363 . S
C844 C843 1.415 . S
C845 H821 0.951 . S
C845 C846 1.366 . S
C845 C847 1.388 . S
C846 C845 1.366 . S
C846 C850 1.385 . S
C847 H822 0.951 . S
C847 C845 1.388 . S
C847 C848 1.366 . S
C848 C847 1.366 . S
C848 C849 1.414 . S
C848 C851 1.499 . S
C849 H823 0.950 . S
C849 C848 1.414 . S
C849 C850 1.374 . S
C850 H824 0.950 . S
C850 C846 1.385 . S
C850 C849 1.374 . S
C851 C848 1.499 . S
C851 C852 1.373 . S
C851 C853 1.389 . S
C852 H825 0.950 . S
C852 C838 1.377 . S
C852 C851 1.373 . S
C853 C837 1.377 . S
C853 C851 1.389 . S
C853 C854 1.524 . S
C854 C853 1.524 . S
C854 C855 1.397 . S
C854 C859 1.363 . S
C855 H826 0.950 . S
C855 C854 1.397 . S
C855 C856 1.334 . S
C856 H827 0.950 . S
C856 C855 1.334 . S
C856 C857 1.287 . S
C857 C856 1.287 . S
C857 C858 1.524 . S
C857 H860 0.999 . S
C858 H828 0.950 . S
C858 C857 1.524 . S
C858 C859 1.415 . S
C859 H829 0.950 . S
C859 C854 1.363 . S
C859 C858 1.415 . S
H860 C857 0.999 . S
H861 C842 0.913 . S
H862 C880 0.951 . S
H863 C882 0.951 . S
H864 C884 0.950 . S
H865 C885 0.950 . S
H866 C887 0.950 . S
H867 C890 0.950 . S
H868 C891 0.950 . S
H869 C893 0.950 . S
H870 C894 0.950 . S
H871 C895 0.951 . S
H872 C897 0.951 . S
H873 C899 0.950 . S
H874 C900 0.950 . S
H875 C902 0.950 . S
H876 C905 0.950 . S
H877 C906 0.950 . S
H878 C908 0.950 . S
H879 C909 0.950 . S
C880 H862 0.951 . S
C880 C881 1.366 . S
C880 C882 1.388 . S
C881 C880 1.366 . S
C881 C885 1.385 . S
C882 H863 0.951 . S
C882 C880 1.388 . S
C882 C883 1.366 . S
C883 C882 1.366 . S
C883 C884 1.414 . S
C883 C886 1.499 . S
C884 H864 0.950 . S
C884 C883 1.414 . S
C884 C885 1.374 . S
C885 H865 0.950 . S
C885 C881 1.385 . S
C885 C884 1.374 . S
C886 C883 1.499 . S
C886 C887 1.373 . S
C886 C888 1.389 . S
C887 H866 0.950 . S
C887 C886 1.373 . S
C887 C903 1.377 . S
C888 C886 1.389 . S
C888 C889 1.524 . S
C888 C902 1.377 . S
C889 C888 1.524 . S
C889 C890 1.397 . S
C889 C894 1.363 . S
C890 H867 0.950 . S
C890 C889 1.397 . S
C890 C891 1.334 . S
C891 H868 0.950 . S
C891 C890 1.334 . S
C891 C892 1.287 . S
C892 C891 1.287 . S
C892 C893 1.524 . S
C892 H911 0.913 . S
C893 H869 0.950 . S
C893 C892 1.524 . S
C893 C894 1.415 . S
C894 H870 0.950 . S
C894 C889 1.363 . S
C894 C893 1.415 . S
C895 H871 0.951 . S
C895 C896 1.366 . S
C895 C897 1.388 . S
C896 C895 1.366 . S
C896 C900 1.385 . S
C897 H872 0.951 . S
C897 C895 1.388 . S
C897 C898 1.366 . S
C898 C897 1.366 . S
C898 C899 1.414 . S
C898 C901 1.499 . S
C899 H873 0.950 . S
C899 C898 1.414 . S
C899 C900 1.374 . S
C900 H874 0.950 . S
C900 C896 1.385 . S
C900 C899 1.374 . S
C901 C898 1.499 . S
C901 C902 1.373 . S
C901 C903 1.389 . S
C902 H875 0.950 . S
C902 C888 1.377 . S
C902 C901 1.373 . S
C903 C887 1.377 . S
C903 C901 1.389 . S
C903 C904 1.524 . S
C904 C903 1.524 . S
C904 C905 1.397 . S
C904 C909 1.363 . S
C905 H876 0.950 . S
C905 C904 1.397 . S
C905 C906 1.334 . S
C906 H877 0.950 . S
C906 C905 1.334 . S
C906 C907 1.287 . S
C907 C906 1.287 . S
C907 C908 1.524 . S
C907 H910 0.999 . S
C908 H878 0.950 . S
C908 C907 1.524 . S
C908 C909 1.415 . S
C909 H879 0.950 . S
C909 C904 1.363 . S
C909 C908 1.415 . S
H910 C907 0.999 . S
H911 C892 0.913 . S
H912 C930 0.951 . S
H913 C932 0.951 . S
H914 C934 0.950 . S
H915 C935 0.950 . S
H916 C937 0.950 . S
H917 C940 0.950 . S
H918 C941 0.950 . S
H919 C943 0.950 . S
H920 C944 0.950 . S
H921 C945 0.951 . S
H922 C947 0.951 . S
H923 C949 0.950 . S
H924 C950 0.950 . S
H925 C952 0.950 . S
H926 C955 0.950 . S
H927 C956 0.950 . S
H928 C958 0.950 . S
H929 C959 0.950 . S
C930 H912 0.951 . S
C930 C931 1.366 . S
C930 C932 1.388 . S
C931 C930 1.366 . S
C931 C935 1.385 . S
C932 H913 0.951 . S
C932 C930 1.388 . S
C932 C933 1.366 . S
C933 C932 1.366 . S
C933 C934 1.414 . S
C933 C936 1.499 . S
C934 H914 0.950 . S
C934 C933 1.414 . S
C934 C935 1.374 . S
C935 H915 0.950 . S
C935 C931 1.385 . S
C935 C934 1.374 . S
C936 C933 1.499 . S
C936 C937 1.373 . S
C936 C938 1.389 . S
C937 H916 0.950 . S
C937 C936 1.373 . S
C937 C953 1.377 . S
C938 C936 1.389 . S
C938 C939 1.524 . S
C938 C952 1.377 . S
C939 C938 1.524 . S
C939 C940 1.397 . S
C939 C944 1.363 . S
C940 H917 0.950 . S
C940 C939 1.397 . S
C940 C941 1.334 . S
C941 H918 0.950 . S
C941 C940 1.334 . S
C941 C942 1.287 . S
C942 C941 1.287 . S
C942 C943 1.524 . S
C942 H961 0.913 . S
C943 H919 0.950 . S
C943 C942 1.524 . S
C943 C944 1.415 . S
C944 H920 0.950 . S
C944 C939 1.363 . S
C944 C943 1.415 . S
C945 H921 0.951 . S
C945 C946 1.366 . S
C945 C947 1.388 . S
C946 C945 1.366 . S
C946 C950 1.385 . S
C947 H922 0.951 . S
C947 C945 1.388 . S
C947 C948 1.366 . S
C948 C947 1.366 . S
C948 C949 1.414 . S
C948 C951 1.499 . S
C949 H923 0.950 . S
C949 C948 1.414 . S
C949 C950 1.374 . S
C950 H924 0.950 . S
C950 C946 1.385 . S
C950 C949 1.374 . S
C951 C948 1.499 . S
C951 C952 1.373 . S
C951 C953 1.389 . S
C952 H925 0.950 . S
C952 C938 1.377 . S
C952 C951 1.373 . S
C953 C937 1.377 . S
C953 C951 1.389 . S
C953 C954 1.524 . S
C954 C953 1.524 . S
C954 C955 1.397 . S
C954 C959 1.363 . S
C955 H926 0.950 . S
C955 C954 1.397 . S
C955 C956 1.334 . S
C956 H927 0.950 . S
C956 C955 1.334 . S
C956 C957 1.287 . S
C957 C956 1.287 . S
C957 C958 1.524 . S
C957 H960 0.999 . S
C958 H928 0.950 . S
C958 C957 1.524 . S
C958 C959 1.415 . S
C959 H929 0.950 . S
C959 C954 1.363 . S
C959 C958 1.415 . S
H960 C957 0.999 . S
H961 C942 0.913 . S
H962 C980 0.951 . S
H963 C982 0.951 . S
H964 C984 0.950 . S
H965 C985 0.950 . S
H966 C987 0.950 . S
H967 C990 0.950 . S
H968 C991 0.950 . S
H969 C993 0.950 . S
H970 C994 0.950 1_655 S
H971 C995 0.951 . S
H972 C997 0.951 . S
H973 C999 0.950 1_655 S
H974 C1000 0.950 . S
H975 C1002 0.950 . S
H976 C1005 0.950 . S
H977 C1006 0.950 . S
H978 C1008 0.950 . S
H979 C1009 0.950 . S
C980 H962 0.951 . S
C980 C981 1.366 . S
C980 C982 1.388 . S
C981 C980 1.366 . S
C981 C985 1.385 . S
C982 H963 0.951 . S
C982 C980 1.388 . S
C982 C983 1.366 . S
C983 C982 1.366 . S
C983 C984 1.414 . S
C983 C986 1.499 . S
C984 H964 0.950 . S
C984 C983 1.414 . S
C984 C985 1.374 . S
C985 H965 0.950 . S
C985 C981 1.385 . S
C985 C984 1.374 . S
C986 C983 1.499 . S
C986 C987 1.373 . S
C986 C988 1.389 . S
C987 H966 0.950 . S
C987 C986 1.373 . S
C987 C1003 1.377 . S
C988 C986 1.389 . S
C988 C989 1.524 . S
C988 C1002 1.377 . S
C989 C988 1.524 . S
C989 C990 1.397 . S
C989 C994 1.363 . S
C990 H967 0.950 . S
C990 C989 1.397 . S
C990 C991 1.334 . S
C991 H968 0.950 . S
C991 C990 1.334 . S
C991 C992 1.287 . S
C992 C991 1.287 . S
C992 C993 1.524 1_455 S
C992 H1011 0.913 . S
C993 H969 0.950 . S
C993 C992 1.524 1_655 S
C993 C994 1.415 1_655 S
C994 H970 0.950 1_455 S
C994 C989 1.363 . S
C994 C993 1.415 1_455 S
C995 H971 0.951 . S
C995 C996 1.366 . S
C995 C997 1.388 . S
C996 C995 1.366 . S
C996 C1000 1.385 1_455 S
C997 H972 0.951 . S
C997 C995 1.388 . S
C997 C998 1.366 . S
C998 C997 1.366 . S
C998 C999 1.414 . S
C998 C1001 1.499 . S
C999 H973 0.950 1_455 S
C999 C998 1.414 . S
C999 C1000 1.374 1_455 S
C1000 H974 0.950 . S
C1000 C996 1.385 1_655 S
C1000 C999 1.374 1_655 S
C1001 C998 1.499 . S
C1001 C1002 1.373 . S
C1001 C1003 1.389 . S
C1002 H975 0.950 . S
C1002 C988 1.377 . S
C1002 C1001 1.373 . S
C1003 C987 1.377 . S
C1003 C1001 1.389 . S
C1003 C1004 1.524 . S
C1004 C1003 1.524 . S
C1004 C1005 1.397 . S
C1004 C1009 1.363 . S
C1005 H976 0.950 . S
C1005 C1004 1.397 . S
C1005 C1006 1.334 . S
C1006 H977 0.950 . S
C1006 C1005 1.334 . S
C1006 C1007 1.287 . S
C1007 C1006 1.287 . S
C1007 C1008 1.524 . S
C1007 H1010 0.999 . S
C1008 H978 0.950 . S
C1008 C1007 1.524 . S
C1008 C1009 1.415 . S
C1009 H979 0.950 . S
C1009 C1004 1.363 . S
C1009 C1008 1.415 . S
H1010 C1007 0.999 . S
H1011 C992 0.913 . S
H1012 C1030 0.951 . S
H1013 C1032 0.951 . S
H1014 C1034 0.950 . S
H1015 C1035 0.950 . S
H1016 C1037 0.950 . S
H1017 C1040 0.950 . S
H1018 C1041 0.950 . S
H1019 C1043 0.950 . S
H1020 C1044 0.950 . S
H1021 C1045 0.951 . S
H1022 C1047 0.951 . S
H1023 C1049 0.950 . S
H1024 C1050 0.950 . S
H1025 C1052 0.950 . S
H1026 C1055 0.950 . S
H1027 C1056 0.950 . S
H1028 C1058 0.950 . S
H1029 C1059 0.950 . S
C1030 H1012 0.951 . S
C1030 C1031 1.366 . S
C1030 C1032 1.388 . S
C1031 C1030 1.366 . S
C1031 C1035 1.385 . S
C1032 H1013 0.951 . S
C1032 C1030 1.388 . S
C1032 C1033 1.366 . S
C1033 C1032 1.366 . S
C1033 C1034 1.414 . S
C1033 C1036 1.499 . S
C1034 H1014 0.950 . S
C1034 C1033 1.414 . S
C1034 C1035 1.374 . S
C1035 H1015 0.950 . S
C1035 C1031 1.385 . S
C1035 C1034 1.374 . S
C1036 C1033 1.499 . S
C1036 C1037 1.373 . S
C1036 C1038 1.389 . S
C1037 H1016 0.950 . S
C1037 C1036 1.373 . S
C1037 C1053 1.377 . S
C1038 C1036 1.389 . S
C1038 C1039 1.524 . S
C1038 C1052 1.377 . S
C1039 C1038 1.524 . S
C1039 C1040 1.397 . S
C1039 C1044 1.363 . S
C1040 H1017 0.950 . S
C1040 C1039 1.397 . S
C1040 C1041 1.334 . S
C1041 H1018 0.950 . S
C1041 C1040 1.334 . S
C1041 C1042 1.287 . S
C1042 C1041 1.287 . S
C1042 C1043 1.524 . S
C1042 H1061 0.913 . S
C1043 H1019 0.950 . S
C1043 C1042 1.524 . S
C1043 C1044 1.415 . S
C1044 H1020 0.950 . S
C1044 C1039 1.363 . S
C1044 C1043 1.415 . S
C1045 H1021 0.951 . S
C1045 C1046 1.366 . S
C1045 C1047 1.388 . S
C1046 C1045 1.366 . S
C1046 C1050 1.385 . S
C1047 H1022 0.951 . S
C1047 C1045 1.388 . S
C1047 C1048 1.366 . S
C1048 C1047 1.366 . S
C1048 C1049 1.414 . S
C1048 C1051 1.499 . S
C1049 H1023 0.950 . S
C1049 C1048 1.414 . S
C1049 C1050 1.374 . S
C1050 H1024 0.950 . S
C1050 C1046 1.385 . S
C1050 C1049 1.374 . S
C1051 C1048 1.499 . S
C1051 C1052 1.373 . S
C1051 C1053 1.389 . S
C1052 H1025 0.950 . S
C1052 C1038 1.377 . S
C1052 C1051 1.373 . S
C1053 C1037 1.377 . S
C1053 C1051 1.389 . S
C1053 C1054 1.524 . S
C1054 C1053 1.524 . S
C1054 C1055 1.397 . S
C1054 C1059 1.363 . S
C1055 H1026 0.950 . S
C1055 C1054 1.397 . S
C1055 C1056 1.334 . S
C1056 H1027 0.950 . S
C1056 C1055 1.334 . S
C1056 C1057 1.287 . S
C1057 C1056 1.287 . S
C1057 C1058 1.524 . S
C1057 H1060 0.999 . S
C1058 H1028 0.950 . S
C1058 C1057 1.524 . S
C1058 C1059 1.415 . S
C1059 H1029 0.950 . S
C1059 C1054 1.363 . S
C1059 C1058 1.415 . S
H1060 C1057 0.999 . S
H1061 C1042 0.913 . S
H1062 C1080 0.951 . S
H1063 C1082 0.951 . S
H1064 C1084 0.950 . S
H1065 C1085 0.950 . S
H1066 C1087 0.950 . S
H1067 C1090 0.950 . S
H1068 C1091 0.950 . S
H1069 C1093 0.950 . S
H1070 C1094 0.948 . S
H1071 C1095 0.951 1_455 S
H1072 C1097 0.951 . S
H1073 C1099 0.950 . S
H1074 C1100 0.950 . S
H1075 C1102 0.971 . S
H1076 C1105 0.950 . S
H1077 C1106 0.950 . S
H1078 C1108 0.950 . S
H1079 C1109 0.950 . S
C1080 H1062 0.951 . S
C1080 C1081 1.366 . S
C1080 C1082 1.388 . S
C1081 C1080 1.366 . S
C1081 C1085 1.385 . S
C1082 H1063 0.951 . S
C1082 C1080 1.388 . S
C1082 C1083 1.366 . S
C1083 C1082 1.366 . S
C1083 C1084 1.414 . S
C1083 C1086 1.499 . S
C1084 H1064 0.950 . S
C1084 C1083 1.414 . S
C1084 C1085 1.374 . S
C1085 H1065 0.950 . S
C1085 C1081 1.385 . S
C1085 C1084 1.374 . S
C1086 C1083 1.499 . S
C1086 C1087 1.373 . S
C1086 C1088 1.389 . S
C1087 H1066 0.950 . S
C1087 C1086 1.373 . S
C1087 C1103 1.377 . S
C1088 C1086 1.389 . S
C1088 C1089 1.524 1_655 S
C1088 C1102 1.377 . S
C1089 C1088 1.524 1_455 S
C1089 C1090 1.397 . S
C1089 C1094 1.363 1_455 S
C1090 H1067 0.950 . S
C1090 C1089 1.397 . S
C1090 C1091 1.334 . S
C1091 H1068 0.950 . S
C1091 C1090 1.334 . S
C1091 C1092 1.287 . S
C1092 C1091 1.287 . S
C1092 C1093 1.524 . S
C1092 H1111 0.913 . S
C1093 H1069 0.950 . S
C1093 C1092 1.524 . S
C1093 C1094 1.416 1_455 S
C1094 H1070 0.948 . S
C1094 C1089 1.363 1_655 S
C1094 C1093 1.416 1_655 S
C1095 H1071 0.951 1_655 S
C1095 C1096 1.366 . S
C1095 C1097 1.388 . S
C1096 C1095 1.366 . S
C1096 C1100 1.385 . S
C1097 H1072 0.951 . S
C1097 C1095 1.388 . S
C1097 C1098 1.366 . S
C1098 C1097 1.366 . S
C1098 C1099 1.414 . S
C1098 C1101 1.499 . S
C1099 H1073 0.950 . S
C1099 C1098 1.414 . S
C1099 C1100 1.374 . S
C1100 H1074 0.950 . S
C1100 C1096 1.385 . S
C1100 C1099 1.374 . S
C1101 C1098 1.499 . S
C1101 C1102 1.373 . S
C1101 C1103 1.389 . S
C1102 H1075 0.971 . S
C1102 C1088 1.377 . S
C1102 C1101 1.373 . S
C1103 C1087 1.377 . S
C1103 C1101 1.389 . S
C1103 C1104 1.524 . S
C1104 C1103 1.524 . S
C1104 C1105 1.397 . S
C1104 C1109 1.363 . S
C1105 H1076 0.950 . S
C1105 C1104 1.397 . S
C1105 C1106 1.334 . S
C1106 H1077 0.950 . S
C1106 C1105 1.334 . S
C1106 C1107 1.287 . S
C1107 C1106 1.287 . S
C1107 C1108 1.524 . S
C1107 H1110 0.999 . S
C1108 H1078 0.950 . S
C1108 C1107 1.524 . S
C1108 C1109 1.415 . S
C1109 H1079 0.950 . S
C1109 C1104 1.363 . S
C1109 C1108 1.415 . S
H1110 C1107 0.999 . S
H1111 C1092 0.913 . S
H1112 C1130 0.951 . S
H1113 C1132 0.951 . S
H1114 C1134 0.950 . S
H1115 C1135 0.950 . S
H1116 C1137 0.950 . S
H1117 C1140 0.950 . S
H1118 C1141 0.950 . S
H1119 C1143 0.950 . S
H1120 C1144 0.950 . S
H1121 C1145 0.951 . S
H1122 C1147 0.951 . S
H1123 C1149 0.950 . S
H1124 C1150 0.950 . S
H1125 C1152 0.950 . S
H1126 C1155 0.950 . S
H1127 C1156 0.950 . S
H1128 C1158 0.950 . S
H1129 C1159 0.950 . S
C1130 H1112 0.951 . S
C1130 C1131 1.366 . S
C1130 C1132 1.388 . S
C1131 C1130 1.366 . S
C1131 C1135 1.385 . S
C1132 H1113 0.951 . S
C1132 C1130 1.388 . S
C1132 C1133 1.366 . S
C1133 C1132 1.366 . S
C1133 C1134 1.414 . S
C1133 C1136 1.499 . S
C1134 H1114 0.950 . S
C1134 C1133 1.414 . S
C1134 C1135 1.374 . S
C1135 H1115 0.950 . S
C1135 C1131 1.385 . S
C1135 C1134 1.374 . S
C1136 C1133 1.499 . S
C1136 C1137 1.373 . S
C1136 C1138 1.389 . S
C1137 H1116 0.950 . S
C1137 C1136 1.373 . S
C1137 C1153 1.377 . S
C1138 C1136 1.389 . S
C1138 C1139 1.524 . S
C1138 C1152 1.377 . S
C1139 C1138 1.524 . S
C1139 C1140 1.397 . S
C1139 C1144 1.363 . S
C1140 H1117 0.950 . S
C1140 C1139 1.397 . S
C1140 C1141 1.334 . S
C1141 H1118 0.950 . S
C1141 C1140 1.334 . S
C1141 C1142 1.287 . S
C1142 C1141 1.287 . S
C1142 C1143 1.524 . S
C1142 H1161 0.913 . S
C1143 H1119 0.950 . S
C1143 C1142 1.524 . S
C1143 C1144 1.415 . S
C1144 H1120 0.950 . S
C1144 C1139 1.363 . S
C1144 C1143 1.415 . S
C1145 H1121 0.951 . S
C1145 C1146 1.366 . S
C1145 C1147 1.388 . S
C1146 C1145 1.366 . S
C1146 C1150 1.385 . S
C1147 H1122 0.951 . S
C1147 C1145 1.388 . S
C1147 C1148 1.366 . S
C1148 C1147 1.366 . S
C1148 C1149 1.414 . S
C1148 C1151 1.499 . S
C1149 H1123 0.950 . S
C1149 C1148 1.414 . S
C1149 C1150 1.374 . S
C1150 H1124 0.950 . S
C1150 C1146 1.385 . S
C1150 C1149 1.374 . S
C1151 C1148 1.499 . S
C1151 C1152 1.373 . S
C1151 C1153 1.389 . S
C1152 H1125 0.950 . S
C1152 C1138 1.377 . S
C1152 C1151 1.373 . S
C1153 C1137 1.377 . S
C1153 C1151 1.389 . S
C1153 C1154 1.524 . S
C1154 C1153 1.524 . S
C1154 C1155 1.397 . S
C1154 C1159 1.363 . S
C1155 H1126 0.950 . S
C1155 C1154 1.397 . S
C1155 C1156 1.334 . S
C1156 H1127 0.950 . S
C1156 C1155 1.334 . S
C1156 C1157 1.287 . S
C1157 C1156 1.287 . S
C1157 C1158 1.524 . S
C1157 H1160 0.999 . S
C1158 H1128 0.950 . S
C1158 C1157 1.524 . S
C1158 C1159 1.415 . S
C1159 H1129 0.950 . S
C1159 C1154 1.363 . S
C1159 C1158 1.415 . S
H1160 C1157 0.999 . S
H1161 C1142 0.913 . S
H1162 C1180 0.951 . S
H1163 C1182 0.951 . S
H1164 C1184 0.950 . S
H1165 C1185 0.950 . S
H1166 C1187 0.950 . S
H1167 C1190 0.950 . S
H1168 C1191 0.950 . S
H1169 C1193 0.950 . S
H1170 C1194 0.950 . S
H1171 C1195 0.951 . S
H1172 C1197 0.951 . S
H1173 C1199 0.950 . S
H1174 C1200 0.950 . S
H1175 C1202 0.950 . S
H1176 C1205 0.950 . S
H1177 C1206 0.950 . S
H1178 C1208 0.950 . S
H1179 C1209 0.950 . S
C1180 H1162 0.951 . S
C1180 C1181 1.366 . S
C1180 C1182 1.388 . S
C1181 C1180 1.366 . S
C1181 C1185 1.385 . S
C1182 H1163 0.951 . S
C1182 C1180 1.388 . S
C1182 C1183 1.366 . S
C1183 C1182 1.366 . S
C1183 C1184 1.414 . S
C1183 C1186 1.499 . S
C1184 H1164 0.950 . S
C1184 C1183 1.414 . S
C1184 C1185 1.374 . S
C1185 H1165 0.950 . S
C1185 C1181 1.385 . S
C1185 C1184 1.374 . S
C1186 C1183 1.499 . S
C1186 C1187 1.373 . S
C1186 C1188 1.389 . S
C1187 H1166 0.950 . S
C1187 C1186 1.373 . S
C1187 C1203 1.377 . S
C1188 C1186 1.389 . S
C1188 C1189 1.524 . S
C1188 C1202 1.377 . S
C1189 C1188 1.524 . S
C1189 C1190 1.397 . S
C1189 C1194 1.363 . S
C1190 H1167 0.950 . S
C1190 C1189 1.397 . S
C1190 C1191 1.334 . S
C1191 H1168 0.950 . S
C1191 C1190 1.334 . S
C1191 C1192 1.287 . S
C1192 C1191 1.287 . S
C1192 C1193 1.524 . S
C1192 H1211 0.913 . S
C1193 H1169 0.950 . S
C1193 C1192 1.524 . S
C1193 C1194 1.415 . S
C1194 H1170 0.950 . S
C1194 C1189 1.363 . S
C1194 C1193 1.415 . S
C1195 H1171 0.951 . S
C1195 C1196 1.366 . S
C1195 C1197 1.388 . S
C1196 C1195 1.366 . S
C1196 C1200 1.385 . S
C1197 H1172 0.951 . S
C1197 C1195 1.388 . S
C1197 C1198 1.366 . S
C1198 C1197 1.366 . S
C1198 C1199 1.414 . S
C1198 C1201 1.499 . S
C1199 H1173 0.950 . S
C1199 C1198 1.414 . S
C1199 C1200 1.374 . S
C1200 H1174 0.950 . S
C1200 C1196 1.385 . S
C1200 C1199 1.374 . S
C1201 C1198 1.499 . S
C1201 C1202 1.373 . S
C1201 C1203 1.389 . S
C1202 H1175 0.950 . S
C1202 C1188 1.377 . S
C1202 C1201 1.373 . S
C1203 C1187 1.377 . S
C1203 C1201 1.389 . S
C1203 C1204 1.524 . S
C1204 C1203 1.524 . S
C1204 C1205 1.397 . S
C1204 C1209 1.363 . S
C1205 H1176 0.950 . S
C1205 C1204 1.397 . S
C1205 C1206 1.334 . S
C1206 H1177 0.950 . S
C1206 C1205 1.334 . S
C1206 C1207 1.287 . S
C1207 C1206 1.287 . S
C1207 C1208 1.524 . S
C1207 H1210 0.999 . S
C1208 H1178 0.950 . S
C1208 C1207 1.524 . S
C1208 C1209 1.415 . S
C1209 H1179 0.950 . S
C1209 C1204 1.363 . S
C1209 C1208 1.415 . S
H1210 C1207 0.999 . S
H1211 C1192 0.913 . S
H1212 C1230 0.951 . S
H1213 C1232 0.951 . S
H1214 C1234 0.950 . S
H1215 C1235 0.950 . S
H1216 C1237 0.919 1_554 S
H1217 C1240 0.950 . S
H1218 C1241 0.950 . S
H1219 C1243 0.950 . S
H1220 C1244 0.950 . S
H1221 C1245 0.953 . S
H1222 C1247 0.951 . S
H1223 C1249 0.950 . S
H1224 C1250 0.950 . S
H1225 C1252 0.950 . S
H1226 C1255 0.950 . S
H1227 C1256 0.950 . S
H1228 C1258 0.950 . S
H1229 C1259 0.950 . S
C1230 H1212 0.951 . S
C1230 C1231 1.366 1_565 S
C1230 C1232 1.388 . S
C1231 C1230 1.366 1_545 S
C1231 C1235 1.385 . S
C1232 H1213 0.951 . S
C1232 C1230 1.388 . S
C1232 C1233 1.366 . S
C1233 C1232 1.366 . S
C1233 C1234 1.414 1_565 S
C1233 C1236 1.499 . S
C1234 H1214 0.950 . S
C1234 C1233 1.414 1_545 S
C1234 C1235 1.374 . S
C1235 H1215 0.950 . S
C1235 C1231 1.385 . S
C1235 C1234 1.374 . S
C1236 C1233 1.499 . S
C1236 C1237 1.416 . S
C1236 C1238 1.389 . S
C1237 H1216 0.919 1_556 S
C1237 C1236 1.416 . S
C1237 C1253 1.367 1_556 S
C1238 C1236 1.389 . S
C1238 C1239 1.524 . S
C1238 C1252 1.377 . S
C1239 C1238 1.524 . S
C1239 C1240 1.397 . S
C1239 C1244 1.363 . S
C1240 H1217 0.950 . S
C1240 C1239 1.397 . S
C1240 C1241 1.334 . S
C1241 H1218 0.950 . S
C1241 C1240 1.334 . S
C1241 C1242 1.287 . S
C1242 C1241 1.287 . S
C1242 C1243 1.524 . S
C1242 H1261 0.913 . S
C1243 H1219 0.950 . S
C1243 C1242 1.524 . S
C1243 C1244 1.415 . S
C1244 H1220 0.950 . S
C1244 C1239 1.363 . S
C1244 C1243 1.415 . S
C1245 H1221 0.953 . S
C1245 C1246 1.366 . S
C1245 C1247 1.388 . S
C1246 C1245 1.366 . S
C1246 C1250 1.385 . S
C1247 H1222 0.951 . S
C1247 C1245 1.388 . S
C1247 C1248 1.366 . S
C1248 C1247 1.366 . S
C1248 C1249 1.414 . S
C1248 C1251 1.499 . S
C1249 H1223 0.950 . S
C1249 C1248 1.414 . S
C1249 C1250 1.374 . S
C1250 H1224 0.950 . S
C1250 C1246 1.385 . S
C1250 C1249 1.374 . S
C1251 C1248 1.499 . S
C1251 C1252 1.373 . S
C1251 C1253 1.389 1_556 S
C1252 H1225 0.950 . S
C1252 C1238 1.377 . S
C1252 C1251 1.373 . S
C1253 C1237 1.367 1_554 S
C1253 C1251 1.389 1_554 S
C1253 C1254 1.524 . S
C1254 C1253 1.524 . S
C1254 C1255 1.397 . S
C1254 C1259 1.363 . S
C1255 H1226 0.950 . S
C1255 C1254 1.397 . S
C1255 C1256 1.334 . S
C1256 H1227 0.950 . S
C1256 C1255 1.334 . S
C1256 C1257 1.287 . S
C1257 C1256 1.287 . S
C1257 C1258 1.524 . S
C1257 H1260 0.999 . S
C1258 H1228 0.950 . S
C1258 C1257 1.524 . S
C1258 C1259 1.415 . S
C1259 H1229 0.950 . S
C1259 C1254 1.363 . S
C1259 C1258 1.415 . S
H1260 C1257 0.999 . S
H1261 C1242 0.913 . S
H1262 C1280 0.951 . S
H1263 C1282 0.951 . S
H1264 C1284 0.950 . S
H1265 C1285 0.950 . S
H1266 C1287 0.950 . S
H1267 C1290 0.950 . S
H1268 C1291 0.950 . S
H1269 C1293 0.950 . S
H1270 C1294 0.950 . S
H1271 C1295 0.951 . S
H1272 C1297 0.951 . S
H1273 C1299 0.950 . S
H1274 C1300 0.950 . S
H1275 C1302 0.950 . S
H1276 C1305 0.950 . S
H1277 C1306 0.950 . S
H1278 C1308 0.950 . S
H1279 C1309 0.950 . S
C1280 H1262 0.951 . S
C1280 C1281 1.366 . S
C1280 C1282 1.388 . S
C1281 C1280 1.366 . S
C1281 C1285 1.385 . S
C1282 H1263 0.951 . S
C1282 C1280 1.388 . S
C1282 C1283 1.366 . S
C1283 C1282 1.366 . S
C1283 C1284 1.414 . S
C1283 C1286 1.499 . S
C1284 H1264 0.950 . S
C1284 C1283 1.414 . S
C1284 C1285 1.374 . S
C1285 H1265 0.950 . S
C1285 C1281 1.385 . S
C1285 C1284 1.374 . S
C1286 C1283 1.499 . S
C1286 C1287 1.373 . S
C1286 C1288 1.389 . S
C1287 H1266 0.950 . S
C1287 C1286 1.373 . S
C1287 C1303 1.377 . S
C1288 C1286 1.389 . S
C1288 C1289 1.524 . S
C1288 C1302 1.377 . S
C1289 C1288 1.524 . S
C1289 C1290 1.397 . S
C1289 C1294 1.363 . S
C1290 H1267 0.950 . S
C1290 C1289 1.397 . S
C1290 C1291 1.334 . S
C1291 H1268 0.950 . S
C1291 C1290 1.334 . S
C1291 C1292 1.287 . S
C1292 C1291 1.287 . S
C1292 C1293 1.524 . S
C1292 H1311 0.913 . S
C1293 H1269 0.950 . S
C1293 C1292 1.524 . S
C1293 C1294 1.415 . S
C1294 H1270 0.950 . S
C1294 C1289 1.363 . S
C1294 C1293 1.415 . S
C1295 H1271 0.951 . S
C1295 C1296 1.366 . S
C1295 C1297 1.388 . S
C1296 C1295 1.366 . S
C1296 C1300 1.385 . S
C1297 H1272 0.951 . S
C1297 C1295 1.388 . S
C1297 C1298 1.366 . S
C1298 C1297 1.366 . S
C1298 C1299 1.414 . S
C1298 C1301 1.499 . S
C1299 H1273 0.950 . S
C1299 C1298 1.414 . S
C1299 C1300 1.374 . S
C1300 H1274 0.950 . S
C1300 C1296 1.385 . S
C1300 C1299 1.374 . S
C1301 C1298 1.499 . S
C1301 C1302 1.373 . S
C1301 C1303 1.389 . S
C1302 H1275 0.950 . S
C1302 C1288 1.377 . S
C1302 C1301 1.373 . S
C1303 C1287 1.377 . S
C1303 C1301 1.389 . S
C1303 C1304 1.524 . S
C1304 C1303 1.524 . S
C1304 C1305 1.397 . S
C1304 C1309 1.363 . S
C1305 H1276 0.950 . S
C1305 C1304 1.397 . S
C1305 C1306 1.334 . S
C1306 H1277 0.950 . S
C1306 C1305 1.334 . S
C1306 C1307 1.287 . S
C1307 C1306 1.287 . S
C1307 C1308 1.524 . S
C1307 H1310 0.999 . S
C1308 H1278 0.950 . S
C1308 C1307 1.524 . S
C1308 C1309 1.415 . S
C1309 H1279 0.950 . S
C1309 C1304 1.363 . S
C1309 C1308 1.415 . S
H1310 C1307 0.999 . S
H1311 C1292 0.913 . S
H1312 C1330 0.951 . S
H1313 C1332 0.951 . S
H1314 C1334 0.950 . S
H1315 C1335 0.950 1_565 S
H1316 C1337 0.950 . S
H1317 C1340 0.950 . S
H1318 C1341 0.950 . S
H1319 C1343 0.950 . S
H1320 C1344 0.950 . S
H1321 C1345 0.951 . S
H1322 C1347 0.951 . S
H1323 C1349 0.950 . S
H1324 C1350 0.950 . S
H1325 C1352 0.950 . S
H1326 C1355 0.950 . S
H1327 C1356 0.950 . S
H1328 C1358 0.950 . S
H1329 C1359 0.950 . S
C1330 H1312 0.951 . S
C1330 C1331 1.366 1_545 S
C1330 C1332 1.388 . S
C1331 C1330 1.366 1_565 S
C1331 C1335 1.385 1_565 S
C1332 H1313 0.951 . S
C1332 C1330 1.388 . S
C1332 C1333 1.366 . S
C1333 C1332 1.366 . S
C1333 C1334 1.414 . S
C1333 C1336 1.499 . S
C1334 H1314 0.950 . S
C1334 C1333 1.414 . S
C1334 C1335 1.374 . S
C1335 H1315 0.950 1_545 S
C1335 C1331 1.385 1_545 S
C1335 C1334 1.374 . S
C1336 C1333 1.499 . S
C1336 C1337 1.373 . S
C1336 C1338 1.389 . S
C1337 H1316 0.950 . S
C1337 C1336 1.373 . S
C1337 C1353 1.377 . S
C1338 C1336 1.389 . S
C1338 C1339 1.524 . S
C1338 C1352 1.377 . S
C1339 C1338 1.524 . S
C1339 C1340 1.397 . S
C1339 C1344 1.363 . S
C1340 H1317 0.950 . S
C1340 C1339 1.397 . S
C1340 C1341 1.334 . S
C1341 H1318 0.950 . S
C1341 C1340 1.334 . S
C1341 C1342 1.287 . S
C1342 C1341 1.287 . S
C1342 C1343 1.524 . S
C1342 H1361 0.913 . S
C1343 H1319 0.950 . S
C1343 C1342 1.524 . S
C1343 C1344 1.415 . S
C1344 H1320 0.950 . S
C1344 C1339 1.363 . S
C1344 C1343 1.415 . S
C1345 H1321 0.951 . S
C1345 C1346 1.366 . S
C1345 C1347 1.388 . S
C1346 C1345 1.366 . S
C1346 C1350 1.385 . S
C1347 H1322 0.951 . S
C1347 C1345 1.388 . S
C1347 C1348 1.366 . S
C1348 C1347 1.366 . S
C1348 C1349 1.414 . S
C1348 C1351 1.499 . S
C1349 H1323 0.950 . S
C1349 C1348 1.414 . S
C1349 C1350 1.374 . S
C1350 H1324 0.950 . S
C1350 C1346 1.385 . S
C1350 C1349 1.374 . S
C1351 C1348 1.499 . S
C1351 C1352 1.373 . S
C1351 C1353 1.389 . S
C1352 H1325 0.950 . S
C1352 C1338 1.377 . S
C1352 C1351 1.373 . S
C1353 C1337 1.377 . S
C1353 C1351 1.389 . S
C1353 C1354 1.524 . S
C1354 C1353 1.524 . S
C1354 C1355 1.397 . S
C1354 C1359 1.363 . S
C1355 H1326 0.950 . S
C1355 C1354 1.397 . S
C1355 C1356 1.334 . S
C1356 H1327 0.950 . S
C1356 C1355 1.334 . S
C1356 C1357 1.287 . S
C1357 C1356 1.287 . S
C1357 C1358 1.524 . S
C1357 H1360 0.999 . S
C1358 H1328 0.950 . S
C1358 C1357 1.524 . S
C1358 C1359 1.415 . S
C1359 H1329 0.950 . S
C1359 C1354 1.363 . S
C1359 C1358 1.415 . S
H1360 C1357 0.999 . S
H1361 C1342 0.913 . S
H1362 C1380 0.951 . S
H1363 C1382 0.951 . S
H1364 C1384 0.950 . S
H1365 C1385 0.950 . S
H1366 C1387 0.950 . S
H1367 C1390 0.950 . S
H1368 C1391 0.950 . S
H1369 C1393 0.950 . S
H1370 C1394 0.950 . S
H1371 C1395 0.951 . S
H1372 C1397 0.951 . S
H1373 C1399 0.950 . S
H1374 C1400 0.950 . S
H1375 C1402 0.950 . S
H1376 C1405 0.950 . S
H1377 C1406 0.950 . S
H1378 C1408 0.950 . S
H1379 C1409 0.950 . S
C1380 H1362 0.951 . S
C1380 C1381 1.366 . S
C1380 C1382 1.388 . S
C1381 C1380 1.366 . S
C1381 C1385 1.385 . S
C1382 H1363 0.951 . S
C1382 C1380 1.388 . S
C1382 C1383 1.366 . S
C1383 C1382 1.366 . S
C1383 C1384 1.414 . S
C1383 C1386 1.499 . S
C1384 H1364 0.950 . S
C1384 C1383 1.414 . S
C1384 C1385 1.374 . S
C1385 H1365 0.950 . S
C1385 C1381 1.385 . S
C1385 C1384 1.374 . S
C1386 C1383 1.499 . S
C1386 C1387 1.373 . S
C1386 C1388 1.389 . S
C1387 H1366 0.950 . S
C1387 C1386 1.373 . S
C1387 C1403 1.377 . S
C1388 C1386 1.389 . S
C1388 C1389 1.524 . S
C1388 C1402 1.377 . S
C1389 C1388 1.524 . S
C1389 C1390 1.397 . S
C1389 C1394 1.363 . S
C1390 H1367 0.950 . S
C1390 C1389 1.397 . S
C1390 C1391 1.334 . S
C1391 H1368 0.950 . S
C1391 C1390 1.334 . S
C1391 C1392 1.287 . S
C1392 C1391 1.287 . S
C1392 C1393 1.524 . S
C1392 H1411 0.913 . S
C1393 H1369 0.950 . S
C1393 C1392 1.524 . S
C1393 C1394 1.415 . S
C1394 H1370 0.950 . S
C1394 C1389 1.363 . S
C1394 C1393 1.415 . S
C1395 H1371 0.951 . S
C1395 C1396 1.366 . S
C1395 C1397 1.388 . S
C1396 C1395 1.366 . S
C1396 C1400 1.385 . S
C1397 H1372 0.951 . S
C1397 C1395 1.388 . S
C1397 C1398 1.366 . S
C1398 C1397 1.366 . S
C1398 C1399 1.414 . S
C1398 C1401 1.499 . S
C1399 H1373 0.950 . S
C1399 C1398 1.414 . S
C1399 C1400 1.374 . S
C1400 H1374 0.950 . S
C1400 C1396 1.385 . S
C1400 C1399 1.374 . S
C1401 C1398 1.499 . S
C1401 C1402 1.373 . S
C1401 C1403 1.389 . S
C1402 H1375 0.950 . S
C1402 C1388 1.377 . S
C1402 C1401 1.373 . S
C1403 C1387 1.377 . S
C1403 C1401 1.389 . S
C1403 C1404 1.524 . S
C1404 C1403 1.524 . S
C1404 C1405 1.397 . S
C1404 C1409 1.363 . S
C1405 H1376 0.950 . S
C1405 C1404 1.397 . S
C1405 C1406 1.334 . S
C1406 H1377 0.950 . S
C1406 C1405 1.334 . S
C1406 C1407 1.287 . S
C1407 C1406 1.287 . S
C1407 C1408 1.524 . S
C1407 H1410 0.999 . S
C1408 H1378 0.950 . S
C1408 C1407 1.524 . S
C1408 C1409 1.415 . S
C1409 H1379 0.950 . S
C1409 C1404 1.363 . S
C1409 C1408 1.415 . S
H1410 C1407 0.999 . S
H1411 C1392 0.913 . S
H1412 C1430 0.951 . S
H1413 C1432 0.951 . S
H1414 C1434 0.950 . S
H1415 C1435 0.950 . S
H1416 C1437 0.950 . S
H1417 C1440 0.950 . S
H1418 C1441 0.950 . S
H1419 C1443 0.950 . S
H1420 C1444 0.950 . S
H1421 C1445 0.951 . S
H1422 C1447 0.951 . S
H1423 C1449 0.950 . S
H1424 C1450 0.950 . S
H1425 C1452 0.950 . S
H1426 C1455 0.950 . S
H1427 C1456 0.950 . S
H1428 C1458 0.950 1_565 S
H1429 C1459 0.950 . S
C1430 H1412 0.951 . S
C1430 C1431 1.366 1_545 S
C1430 C1432 1.388 . S
C1431 C1430 1.366 1_565 S
C1431 C1435 1.385 . S
C1432 H1413 0.951 . S
C1432 C1430 1.388 . S
C1432 C1433 1.366 . S
C1433 C1432 1.366 . S
C1433 C1434 1.414 1_545 S
C1433 C1436 1.499 . S
C1434 H1414 0.950 . S
C1434 C1433 1.414 1_565 S
C1434 C1435 1.374 . S
C1435 H1415 0.950 . S
C1435 C1431 1.385 . S
C1435 C1434 1.374 . S
C1436 C1433 1.499 . S
C1436 C1437 1.373 . S
C1436 C1438 1.389 . S
C1437 H1416 0.950 . S
C1437 C1436 1.373 . S
C1437 C1453 1.377 . S
C1438 C1436 1.389 . S
C1438 C1439 1.524 . S
C1438 C1452 1.377 . S
C1439 C1438 1.524 . S
C1439 C1440 1.397 . S
C1439 C1444 1.363 . S
C1440 H1417 0.950 . S
C1440 C1439 1.397 . S
C1440 C1441 1.334 . S
C1441 H1418 0.950 . S
C1441 C1440 1.334 . S
C1441 C1442 1.287 . S
C1442 C1441 1.287 . S
C1442 C1443 1.524 . S
C1442 H1461 0.913 . S
C1443 H1419 0.950 . S
C1443 C1442 1.524 . S
C1443 C1444 1.415 . S
C1444 H1420 0.950 . S
C1444 C1439 1.363 . S
C1444 C1443 1.415 . S
C1445 H1421 0.951 . S
C1445 C1446 1.366 . S
C1445 C1447 1.388 . S
C1446 C1445 1.366 . S
C1446 C1450 1.385 . S
C1447 H1422 0.951 . S
C1447 C1445 1.388 . S
C1447 C1448 1.366 . S
C1448 C1447 1.366 . S
C1448 C1449 1.414 . S
C1448 C1451 1.499 . S
C1449 H1423 0.950 . S
C1449 C1448 1.414 . S
C1449 C1450 1.374 . S
C1450 H1424 0.950 . S
C1450 C1446 1.385 . S
C1450 C1449 1.374 . S
C1451 C1448 1.499 . S
C1451 C1452 1.373 . S
C1451 C1453 1.389 . S
C1452 H1425 0.950 . S
C1452 C1438 1.377 . S
C1452 C1451 1.373 . S
C1453 C1437 1.377 . S
C1453 C1451 1.389 . S
C1453 C1454 1.524 . S
C1454 C1453 1.524 . S
C1454 C1455 1.397 . S
C1454 C1459 1.363 . S
C1455 H1426 0.950 . S
C1455 C1454 1.397 . S
C1455 C1456 1.334 . S
C1456 H1427 0.950 . S
C1456 C1455 1.334 . S
C1456 C1457 1.287 . S
C1457 C1456 1.287 . S
C1457 C1458 1.524 . S
C1457 H1460 0.999 . S
C1458 H1428 0.950 1_545 S
C1458 C1457 1.524 . S
C1458 C1459 1.415 . S
C1459 H1429 0.950 . S
C1459 C1454 1.363 . S
C1459 C1458 1.415 . S
H1460 C1457 0.999 . S
H1461 C1442 0.913 . S
H1462 C1480 0.951 . S
H1463 C1482 0.951 . S
H1464 C1484 0.950 . S
H1465 C1485 0.950 . S
H1466 C1487 0.950 . S
H1467 C1490 0.950 . S
H1468 C1491 0.950 . S
H1469 C1493 0.950 . S
H1470 C1494 0.950 . S
H1471 C1495 0.951 . S
H1472 C1497 0.951 . S
H1473 C1499 0.950 . S
H1474 C1500 0.950 . S
H1475 C1502 0.950 . S
H1476 C1505 0.950 . S
H1477 C1506 0.950 . S
H1478 C1508 0.950 . S
H1479 C1509 0.950 . S
C1480 H1462 0.951 . S
C1480 C1481 1.366 . S
C1480 C1482 1.388 . S
C1481 C1480 1.366 . S
C1481 C1485 1.385 . S
C1482 H1463 0.951 . S
C1482 C1480 1.388 . S
C1482 C1483 1.366 . S
C1483 C1482 1.366 . S
C1483 C1484 1.414 . S
C1483 C1486 1.499 . S
C1484 H1464 0.950 . S
C1484 C1483 1.414 . S
C1484 C1485 1.374 . S
C1485 H1465 0.950 . S
C1485 C1481 1.385 . S
C1485 C1484 1.374 . S
C1486 C1483 1.499 . S
C1486 C1487 1.373 . S
C1486 C1488 1.389 . S
C1487 H1466 0.950 . S
C1487 C1486 1.373 . S
C1487 C1503 1.377 . S
C1488 C1486 1.389 . S
C1488 C1489 1.524 . S
C1488 C1502 1.377 . S
C1489 C1488 1.524 . S
C1489 C1490 1.397 . S
C1489 C1494 1.363 . S
C1490 H1467 0.950 . S
C1490 C1489 1.397 . S
C1490 C1491 1.334 . S
C1491 H1468 0.950 . S
C1491 C1490 1.334 . S
C1491 C1492 1.287 . S
C1492 C1491 1.287 . S
C1492 C1493 1.524 . S
C1492 H1511 0.913 . S
C1493 H1469 0.950 . S
C1493 C1492 1.524 . S
C1493 C1494 1.415 . S
C1494 H1470 0.950 . S
C1494 C1489 1.363 . S
C1494 C1493 1.415 . S
C1495 H1471 0.951 . S
C1495 C1496 1.366 . S
C1495 C1497 1.388 . S
C1496 C1495 1.366 . S
C1496 C1500 1.385 . S
C1497 H1472 0.951 . S
C1497 C1495 1.388 . S
C1497 C1498 1.366 . S
C1498 C1497 1.366 . S
C1498 C1499 1.414 . S
C1498 C1501 1.499 . S
C1499 H1473 0.950 . S
C1499 C1498 1.414 . S
C1499 C1500 1.374 . S
C1500 H1474 0.950 . S
C1500 C1496 1.385 . S
C1500 C1499 1.374 . S
C1501 C1498 1.499 . S
C1501 C1502 1.373 . S
C1501 C1503 1.389 . S
C1502 H1475 0.950 . S
C1502 C1488 1.377 . S
C1502 C1501 1.373 . S
C1503 C1487 1.377 . S
C1503 C1501 1.389 . S
C1503 C1504 1.524 . S
C1504 C1503 1.524 . S
C1504 C1505 1.397 . S
C1504 C1509 1.363 . S
C1505 H1476 0.950 . S
C1505 C1504 1.397 . S
C1505 C1506 1.334 . S
C1506 H1477 0.950 . S
C1506 C1505 1.334 . S
C1506 C1507 1.287 . S
C1507 C1506 1.287 . S
C1507 C1508 1.524 . S
C1507 H1510 0.999 . S
C1508 H1478 0.950 . S
C1508 C1507 1.524 . S
C1508 C1509 1.415 . S
C1509 H1479 0.950 . S
C1509 C1504 1.363 . S
C1509 C1508 1.415 . S
H1510 C1507 0.999 . S
H1511 C1492 0.913 . S
H1512 C1530 0.951 . S
H1513 C1532 0.951 . S
H1514 C1534 0.950 . S
H1515 C1535 0.950 . S
H1516 C1537 0.950 . S
H1517 C1540 0.950 . S
H1518 C1541 0.950 . S
H1519 C1543 0.950 . S
H1520 C1544 0.950 . S
H1521 C1545 0.951 . S
H1522 C1547 0.951 . S
H1523 C1549 0.950 . S
H1524 C1550 0.950 . S
H1525 C1552 0.950 . S
H1526 C1555 0.950 . S
H1527 C1556 0.950 . S
H1528 C1558 0.950 . S
H1529 C1559 0.950 . S
C1530 H1512 0.951 . S
C1530 C1531 1.366 . S
C1530 C1532 1.388 . S
C1531 C1530 1.366 . S
C1531 C1535 1.385 . S
C1532 H1513 0.951 . S
C1532 C1530 1.388 . S
C1532 C1533 1.366 . S
C1533 C1532 1.366 . S
C1533 C1534 1.414 . S
C1533 C1536 1.499 . S
C1534 H1514 0.950 . S
C1534 C1533 1.414 . S
C1534 C1535 1.374 . S
C1535 H1515 0.950 . S
C1535 C1531 1.385 . S
C1535 C1534 1.374 . S
C1536 C1533 1.499 . S
C1536 C1537 1.373 . S
C1536 C1538 1.389 . S
C1537 H1516 0.950 . S
C1537 C1536 1.373 . S
C1537 C1553 1.377 . S
C1538 C1536 1.389 . S
C1538 C1539 1.524 . S
C1538 C1552 1.377 . S
C1539 C1538 1.524 . S
C1539 C1540 1.397 . S
C1539 C1544 1.363 . S
C1540 H1517 0.950 . S
C1540 C1539 1.397 . S
C1540 C1541 1.334 . S
C1541 H1518 0.950 . S
C1541 C1540 1.334 . S
C1541 C1542 1.287 . S
C1542 C1541 1.287 . S
C1542 C1543 1.524 . S
C1542 H1561 0.913 . S
C1543 H1519 0.950 . S
C1543 C1542 1.524 . S
C1543 C1544 1.415 . S
C1544 H1520 0.950 . S
C1544 C1539 1.363 . S
C1544 C1543 1.415 . S
C1545 H1521 0.951 . S
C1545 C1546 1.366 . S
C1545 C1547 1.388 . S
C1546 C1545 1.366 . S
C1546 C1550 1.385 . S
C1547 H1522 0.951 . S
C1547 C1545 1.388 . S
C1547 C1548 1.366 . S
C1548 C1547 1.366 . S
C1548 C1549 1.414 . S
C1548 C1551 1.499 . S
C1549 H1523 0.950 . S
C1549 C1548 1.414 . S
C1549 C1550 1.374 . S
C1550 H1524 0.950 . S
C1550 C1546 1.385 . S
C1550 C1549 1.374 . S
C1551 C1548 1.499 . S
C1551 C1552 1.373 . S
C1551 C1553 1.389 . S
C1552 H1525 0.950 . S
C1552 C1538 1.377 . S
C1552 C1551 1.373 . S
C1553 C1537 1.377 . S
C1553 C1551 1.389 . S
C1553 C1554 1.524 . S
C1554 C1553 1.524 . S
C1554 C1555 1.397 . S
C1554 C1559 1.363 . S
C1555 H1526 0.950 . S
C1555 C1554 1.397 . S
C1555 C1556 1.334 . S
C1556 H1527 0.950 . S
C1556 C1555 1.334 . S
C1556 C1557 1.287 . S
C1557 C1556 1.287 . S
C1557 C1558 1.524 . S
C1557 H1560 0.999 . S
C1558 H1528 0.950 . S
C1558 C1557 1.524 . S
C1558 C1559 1.415 . S
C1559 H1529 0.950 . S
C1559 C1554 1.363 . S
C1559 C1558 1.415 . S
H1560 C1557 0.999 . S
H1561 C1542 0.913 . S
H1562 C1580 0.951 . S
H1563 C1582 0.951 . S
H1564 C1584 0.950 1_565 S
H1565 C1585 0.950 . S
H1566 C1587 0.950 1_565 S
H1567 C1590 0.950 . S
H1568 C1591 0.950 . S
H1569 C1593 0.950 . S
H1570 C1594 0.950 . S
H1571 C1595 0.951 . S
H1572 C1597 0.951 . S
H1573 C1599 0.950 . S
H1574 C1600 0.950 . S
H1575 C1602 0.950 . S
H1576 C1605 0.950 . S
H1577 C1606 0.950 . S
H1578 C1608 0.950 . S
H1579 C1609 0.950 . S
C1580 H1562 0.951 . S
C1580 C1581 1.366 . S
C1580 C1582 1.388 . S
C1581 C1580 1.366 . S
C1581 C1585 1.385 . S
C1582 H1563 0.951 . S
C1582 C1580 1.388 . S
C1582 C1583 1.366 . S
C1583 C1582 1.366 . S
C1583 C1584 1.414 . S
C1583 C1586 1.499 . S
C1584 H1564 0.950 1_545 S
C1584 C1583 1.414 . S
C1584 C1585 1.374 . S
C1585 H1565 0.950 . S
C1585 C1581 1.385 . S
C1585 C1584 1.374 . S
C1586 C1583 1.499 . S
C1586 C1587 1.373 . S
C1586 C1588 1.389 . S
C1587 H1566 0.950 1_545 S
C1587 C1586 1.373 . S
C1587 C1603 1.371 1_545 S
C1588 C1586 1.389 . S
C1588 C1589 1.524 . S
C1588 C1602 1.377 . S
C1589 C1588 1.524 . S
C1589 C1590 1.397 . S
C1589 C1594 1.363 . S
C1590 H1567 0.950 . S
C1590 C1589 1.397 . S
C1590 C1591 1.334 . S
C1591 H1568 0.950 . S
C1591 C1590 1.334 . S
C1591 C1592 1.287 . S
C1592 C1591 1.287 . S
C1592 C1593 1.524 . S
C1592 H1611 0.913 . S
C1593 H1569 0.950 . S
C1593 C1592 1.524 . S
C1593 C1594 1.415 . S
C1594 H1570 0.950 . S
C1594 C1589 1.363 . S
C1594 C1593 1.415 . S
C1595 H1571 0.951 . S
C1595 C1596 1.366 1_565 S
C1595 C1597 1.388 . S
C1596 C1595 1.366 1_545 S
C1596 C1600 1.385 . S
C1597 H1572 0.951 . S
C1597 C1595 1.388 . S
C1597 C1598 1.366 1_565 S
C1598 C1597 1.366 1_545 S
C1598 C1599 1.414 . S
C1598 C1601 1.499 . S
C1599 H1573 0.950 . S
C1599 C1598 1.414 . S
C1599 C1600 1.374 . S
C1600 H1574 0.950 . S
C1600 C1596 1.385 . S
C1600 C1599 1.374 . S
C1601 C1598 1.499 . S
C1601 C1602 1.373 . S
C1601 C1603 1.358 1_545 S
C1602 H1575 0.950 . S
C1602 C1588 1.377 . S
C1602 C1601 1.373 . S
C1603 C1587 1.371 1_565 S
C1603 C1601 1.358 1_565 S
C1603 C1604 1.563 . S
C1604 C1603 1.563 . S
C1604 C1605 1.397 . S
C1604 C1609 1.363 . S
C1605 H1576 0.950 . S
C1605 C1604 1.397 . S
C1605 C1606 1.334 . S
C1606 H1577 0.950 . S
C1606 C1605 1.334 . S
C1606 C1607 1.287 . S
C1607 C1606 1.287 . S
C1607 C1608 1.524 . S
C1607 H1610 0.999 . S
C1608 H1578 0.950 . S
C1608 C1607 1.524 . S
C1608 C1609 1.415 . S
C1609 H1579 0.950 . S
C1609 C1604 1.363 . S
C1609 C1608 1.415 . S
H1610 C1607 0.999 . S
H1611 C1592 0.913 . S
H1612 C1630 0.951 . S
H1613 C1632 0.951 . S
H1614 C1634 0.950 . S
H1615 C1635 0.950 . S
H1616 C1637 0.950 . S
H1617 C1640 0.950 . S
H1618 C1641 0.950 . S
H1619 C1643 0.950 . S
H1620 C1644 0.950 . S
H1621 C1645 0.951 . S
H1622 C1647 0.951 . S
H1623 C1649 0.950 . S
H1624 C1650 0.950 . S
H1625 C1652 0.950 . S
H1626 C1655 0.950 . S
H1627 C1656 0.950 . S
H1628 C1658 0.950 . S
H1629 C1659 0.950 . S
C1630 H1612 0.951 . S
C1630 C1631 1.366 . S
C1630 C1632 1.388 . S
C1631 C1630 1.366 . S
C1631 C1635 1.385 . S
C1632 H1613 0.951 . S
C1632 C1630 1.388 . S
C1632 C1633 1.366 . S
C1633 C1632 1.366 . S
C1633 C1634 1.414 . S
C1633 C1636 1.499 . S
C1634 H1614 0.950 . S
C1634 C1633 1.414 . S
C1634 C1635 1.374 . S
C1635 H1615 0.950 . S
C1635 C1631 1.385 . S
C1635 C1634 1.374 . S
C1636 C1633 1.499 . S
C1636 C1637 1.373 . S
C1636 C1638 1.389 . S
C1637 H1616 0.950 . S
C1637 C1636 1.373 . S
C1637 C1653 1.377 . S
C1638 C1636 1.389 . S
C1638 C1639 1.524 . S
C1638 C1652 1.377 . S
C1639 C1638 1.524 . S
C1639 C1640 1.397 . S
C1639 C1644 1.363 . S
C1640 H1617 0.950 . S
C1640 C1639 1.397 . S
C1640 C1641 1.334 . S
C1641 H1618 0.950 . S
C1641 C1640 1.334 . S
C1641 C1642 1.287 . S
C1642 C1641 1.287 . S
C1642 C1643 1.524 . S
C1642 H1661 0.913 . S
C1643 H1619 0.950 . S
C1643 C1642 1.524 . S
C1643 C1644 1.415 . S
C1644 H1620 0.950 . S
C1644 C1639 1.363 . S
C1644 C1643 1.415 . S
C1645 H1621 0.951 . S
C1645 C1646 1.366 . S
C1645 C1647 1.388 . S
C1646 C1645 1.366 . S
C1646 C1650 1.385 . S
C1647 H1622 0.951 . S
C1647 C1645 1.388 . S
C1647 C1648 1.366 . S
C1648 C1647 1.366 . S
C1648 C1649 1.414 . S
C1648 C1651 1.499 . S
C1649 H1623 0.950 . S
C1649 C1648 1.414 . S
C1649 C1650 1.374 . S
C1650 H1624 0.950 . S
C1650 C1646 1.385 . S
C1650 C1649 1.374 . S
C1651 C1648 1.499 . S
C1651 C1652 1.373 . S
C1651 C1653 1.389 . S
C1652 H1625 0.950 . S
C1652 C1638 1.377 . S
C1652 C1651 1.373 . S
C1653 C1637 1.377 . S
C1653 C1651 1.389 . S
C1653 C1654 1.524 . S
C1654 C1653 1.524 . S
C1654 C1655 1.397 . S
C1654 C1659 1.363 . S
C1655 H1626 0.950 . S
C1655 C1654 1.397 . S
C1655 C1656 1.334 . S
C1656 H1627 0.950 . S
C1656 C1655 1.334 . S
C1656 C1657 1.287 . S
C1657 C1656 1.287 . S
C1657 C1658 1.524 . S
C1657 H1660 0.999 . S
C1658 H1628 0.950 . S
C1658 C1657 1.524 . S
C1658 C1659 1.415 . S
C1659 H1629 0.950 . S
C1659 C1654 1.363 . S
C1659 C1658 1.415 . S
H1660 C1657 0.999 . S
H1661 C1642 0.913 . S
H1662 C1680 0.951 . S
H1663 C1682 0.951 . S
H1664 C1684 0.950 . S
H1665 C1685 0.950 . S
H1666 C1687 0.950 . S
H1667 C1690 0.950 . S
H1668 C1691 0.950 . S
H1669 C1693 0.950 . S
H1670 C1694 0.950 . S
H1671 C1695 0.951 . S
H1672 C1697 0.951 . S
H1673 C1699 0.950 . S
H1674 C1700 0.950 . S
H1675 C1702 0.950 . S
H1676 C1705 0.950 . S
H1677 C1706 0.950 . S
H1678 C1708 0.950 . S
H1679 C1709 0.950 . S
C1680 H1662 0.951 . S
C1680 C1681 1.366 . S
C1680 C1682 1.388 . S
C1681 C1680 1.366 . S
C1681 C1685 1.385 . S
C1682 H1663 0.951 . S
C1682 C1680 1.388 . S
C1682 C1683 1.366 . S
C1683 C1682 1.366 . S
C1683 C1684 1.414 . S
C1683 C1686 1.499 . S
C1684 H1664 0.950 . S
C1684 C1683 1.414 . S
C1684 C1685 1.374 . S
C1685 H1665 0.950 . S
C1685 C1681 1.385 . S
C1685 C1684 1.374 . S
C1686 C1683 1.499 . S
C1686 C1687 1.373 . S
C1686 C1688 1.389 . S
C1687 H1666 0.950 . S
C1687 C1686 1.373 . S
C1687 C1703 1.377 . S
C1688 C1686 1.389 . S
C1688 C1689 1.524 . S
C1688 C1702 1.377 . S
C1689 C1688 1.524 . S
C1689 C1690 1.397 . S
C1689 C1694 1.363 . S
C1690 H1667 0.950 . S
C1690 C1689 1.397 . S
C1690 C1691 1.334 . S
C1691 H1668 0.950 . S
C1691 C1690 1.334 . S
C1691 C1692 1.287 . S
C1692 C1691 1.287 . S
C1692 C1693 1.524 . S
C1692 H1711 0.913 . S
C1693 H1669 0.950 . S
C1693 C1692 1.524 . S
C1693 C1694 1.415 . S
C1694 H1670 0.950 . S
C1694 C1689 1.363 . S
C1694 C1693 1.415 . S
C1695 H1671 0.951 . S
C1695 C1696 1.366 . S
C1695 C1697 1.388 . S
C1696 C1695 1.366 . S
C1696 C1700 1.385 . S
C1697 H1672 0.951 . S
C1697 C1695 1.388 . S
C1697 C1698 1.366 . S
C1698 C1697 1.366 . S
C1698 C1699 1.414 . S
C1698 C1701 1.499 . S
C1699 H1673 0.950 . S
C1699 C1698 1.414 . S
C1699 C1700 1.374 . S
C1700 H1674 0.950 . S
C1700 C1696 1.385 . S
C1700 C1699 1.374 . S
C1701 C1698 1.499 . S
C1701 C1702 1.373 . S
C1701 C1703 1.389 . S
C1702 H1675 0.950 . S
C1702 C1688 1.377 . S
C1702 C1701 1.373 . S
C1703 C1687 1.377 . S
C1703 C1701 1.389 . S
C1703 C1704 1.524 . S
C1704 C1703 1.524 . S
C1704 C1705 1.397 . S
C1704 C1709 1.363 . S
C1705 H1676 0.950 . S
C1705 C1704 1.397 . S
C1705 C1706 1.334 . S
C1706 H1677 0.950 . S
C1706 C1705 1.334 . S
C1706 C1707 1.287 . S
C1707 C1706 1.287 . S
C1707 C1708 1.524 . S
C1707 H1710 0.999 . S
C1708 H1678 0.950 . S
C1708 C1707 1.524 . S
C1708 C1709 1.415 . S
C1709 H1679 0.950 . S
C1709 C1704 1.363 . S
C1709 C1708 1.415 . S
H1710 C1707 0.999 . S
H1711 C1692 0.913 . S
H1712 C1730 0.951 . S
H1713 C1732 0.951 . S
H1714 C1734 0.950 . S
H1715 C1735 0.950 . S
H1716 C1737 0.950 . S
H1717 C1740 0.950 . S
H1718 C1741 0.950 . S
H1719 C1743 0.950 . S
H1720 C1744 0.950 . S
H1721 C1745 0.951 . S
H1722 C1747 0.951 . S
H1723 C1749 0.950 . S
H1724 C1750 0.950 . S
H1725 C1752 0.950 . S
H1726 C1755 0.950 . S
H1727 C1756 0.950 . S
H1728 C1758 0.950 . S
H1729 C1759 0.950 . S
C1730 H1712 0.951 . S
C1730 C1731 1.366 . S
C1730 C1732 1.388 . S
C1731 C1730 1.366 . S
C1731 C1735 1.385 . S
C1732 H1713 0.951 . S
C1732 C1730 1.388 . S
C1732 C1733 1.366 . S
C1733 C1732 1.366 . S
C1733 C1734 1.414 . S
C1733 C1736 1.499 . S
C1734 H1714 0.950 . S
C1734 C1733 1.414 . S
C1734 C1735 1.374 . S
C1735 H1715 0.950 . S
C1735 C1731 1.385 . S
C1735 C1734 1.374 . S
C1736 C1733 1.499 . S
C1736 C1737 1.373 . S
C1736 C1738 1.389 . S
C1737 H1716 0.950 . S
C1737 C1736 1.373 . S
C1737 C1753 1.377 . S
C1738 C1736 1.389 . S
C1738 C1739 1.524 . S
C1738 C1752 1.377 . S
C1739 C1738 1.524 . S
C1739 C1740 1.397 . S
C1739 C1744 1.363 . S
C1740 H1717 0.950 . S
C1740 C1739 1.397 . S
C1740 C1741 1.334 . S
C1741 H1718 0.950 . S
C1741 C1740 1.334 . S
C1741 C1742 1.287 . S
C1742 C1741 1.287 . S
C1742 C1743 1.524 . S
C1742 H1761 0.913 . S
C1743 H1719 0.950 . S
C1743 C1742 1.524 . S
C1743 C1744 1.415 . S
C1744 H1720 0.950 . S
C1744 C1739 1.363 . S
C1744 C1743 1.415 . S
C1745 H1721 0.951 . S
C1745 C1746 1.366 . S
C1745 C1747 1.388 . S
C1746 C1745 1.366 . S
C1746 C1750 1.385 . S
C1747 H1722 0.951 . S
C1747 C1745 1.388 . S
C1747 C1748 1.366 . S
C1748 C1747 1.366 . S
C1748 C1749 1.414 . S
C1748 C1751 1.499 . S
C1749 H1723 0.950 . S
C1749 C1748 1.414 . S
C1749 C1750 1.374 . S
C1750 H1724 0.950 . S
C1750 C1746 1.385 . S
C1750 C1749 1.374 . S
C1751 C1748 1.499 . S
C1751 C1752 1.373 . S
C1751 C1753 1.389 . S
C1752 H1725 0.950 . S
C1752 C1738 1.377 . S
C1752 C1751 1.373 . S
C1753 C1737 1.377 . S
C1753 C1751 1.389 . S
C1753 C1754 1.524 . S
C1754 C1753 1.524 . S
C1754 C1755 1.397 . S
C1754 C1759 1.363 . S
C1755 H1726 0.950 . S
C1755 C1754 1.397 . S
C1755 C1756 1.334 . S
C1756 H1727 0.950 . S
C1756 C1755 1.334 . S
C1756 C1757 1.287 . S
C1757 C1756 1.287 . S
C1757 C1758 1.524 . S
C1757 H1760 0.999 . S
C1758 H1728 0.950 . S
C1758 C1757 1.524 . S
C1758 C1759 1.415 . S
C1759 H1729 0.950 . S
C1759 C1754 1.363 . S
C1759 C1758 1.415 . S
H1760 C1757 0.999 . S
H1761 C1742 0.913 . S
H1762 C1780 0.951 . S
H1763 C1782 0.951 . S
H1764 C1784 0.950 . S
H1765 C1785 0.950 . S
H1766 C1787 0.950 . S
H1767 C1790 0.950 . S
H1768 C1791 0.950 . S
H1769 C1793 0.950 . S
H1770 C1794 0.950 . S
H1771 C1795 0.951 . S
H1772 C1797 0.951 . S
H1773 C1799 0.950 . S
H1774 C1800 0.950 . S
H1775 C1802 0.983 . S
H1776 C1805 0.950 . S
H1777 C1806 0.950 . S
H1778 C1808 0.950 . S
H1779 C1809 0.950 . S
C1780 H1762 0.951 . S
C1780 C1781 1.366 . S
C1780 C1782 1.388 . S
C1781 C1780 1.366 . S
C1781 C1785 1.385 1_455 S
C1782 H1763 0.951 . S
C1782 C1780 1.388 . S
C1782 C1783 1.366 1_455 S
C1783 C1782 1.366 1_655 S
C1783 C1784 1.414 . S
C1783 C1786 1.499 . S
C1784 H1764 0.950 . S
C1784 C1783 1.414 . S
C1784 C1785 1.374 . S
C1785 H1765 0.950 . S
C1785 C1781 1.385 1_655 S
C1785 C1784 1.374 . S
C1786 C1783 1.499 . S
C1786 C1787 1.373 . S
C1786 C1788 1.389 . S
C1787 H1766 0.950 . S
C1787 C1786 1.373 . S
C1787 C1803 1.377 . S
C1788 C1786 1.389 . S
C1788 C1789 1.524 1_545 S
C1788 C1802 1.377 . S
C1789 C1788 1.524 1_565 S
C1789 C1790 1.397 . S
C1789 C1794 1.363 1_655 S
C1790 H1767 0.950 . S
C1790 C1789 1.397 . S
C1790 C1791 1.334 . S
C1791 H1768 0.950 . S
C1791 C1790 1.334 . S
C1791 C1792 1.287 1_655 S
C1792 C1791 1.287 1_455 S
C1792 C1793 1.524 . S
C1792 H1811 0.913 . S
C1793 H1769 0.950 . S
C1793 C1792 1.524 . S
C1793 C1794 1.415 . S
C1794 H1770 0.950 . S
C1794 C1789 1.363 1_455 S
C1794 C1793 1.415 . S
C1795 H1771 0.951 . S
C1795 C1796 1.366 . S
C1795 C1797 1.388 . S
C1796 C1795 1.366 . S
C1796 C1800 1.385 . S
C1797 H1772 0.951 . S
C1797 C1795 1.388 . S
C1797 C1798 1.366 . S
C1798 C1797 1.366 . S
C1798 C1799 1.414 . S
C1798 C1801 1.499 . S
C1799 H1773 0.950 . S
C1799 C1798 1.414 . S
C1799 C1800 1.374 . S
C1800 H1774 0.950 . S
C1800 C1796 1.385 . S
C1800 C1799 1.374 . S
C1801 C1798 1.499 . S
C1801 C1802 1.373 . S
C1801 C1803 1.389 . S
C1802 H1775 0.983 . S
C1802 C1788 1.377 . S
C1802 C1801 1.373 . S
C1803 C1787 1.377 . S
C1803 C1801 1.389 . S
C1803 C1804 1.524 . S
C1804 C1803 1.524 . S
C1804 C1805 1.397 . S
C1804 C1809 1.363 . S
C1805 H1776 0.950 . S
C1805 C1804 1.397 . S
C1805 C1806 1.334 . S
C1806 H1777 0.950 . S
C1806 C1805 1.334 . S
C1806 C1807 1.287 . S
C1807 C1806 1.287 . S
C1807 C1808 1.524 . S
C1807 H1810 0.999 . S
C1808 H1778 0.950 . S
C1808 C1807 1.524 . S
C1808 C1809 1.415 . S
C1809 H1779 0.950 . S
C1809 C1804 1.363 . S
C1809 C1808 1.415 . S
H1810 C1807 0.999 . S
H1811 C1792 0.913 . S
H1812 C1830 0.951 . S
H1813 C1832 0.951 . S
H1814 C1834 0.950 . S
H1815 C1835 0.950 . S
H1816 C1837 0.950 . S
H1817 C1840 0.950 . S
H1818 C1841 0.950 . S
H1819 C1843 0.950 . S
H1820 C1844 0.950 . S
H1821 C1845 0.951 . S
H1822 C1847 0.951 . S
H1823 C1849 0.950 . S
H1824 C1850 0.950 . S
H1825 C1852 0.950 . S
H1826 C1855 0.950 . S
H1827 C1856 0.950 . S
H1828 C1858 0.950 . S
H1829 C1859 0.950 . S
C1830 H1812 0.951 . S
C1830 C1831 1.366 . S
C1830 C1832 1.388 . S
C1831 C1830 1.366 . S
C1831 C1835 1.385 . S
C1832 H1813 0.951 . S
C1832 C1830 1.388 . S
C1832 C1833 1.366 . S
C1833 C1832 1.366 . S
C1833 C1834 1.414 . S
C1833 C1836 1.499 . S
C1834 H1814 0.950 . S
C1834 C1833 1.414 . S
C1834 C1835 1.374 . S
C1835 H1815 0.950 . S
C1835 C1831 1.385 . S
C1835 C1834 1.374 . S
C1836 C1833 1.499 . S
C1836 C1837 1.373 . S
C1836 C1838 1.389 . S
C1837 H1816 0.950 . S
C1837 C1836 1.373 . S
C1837 C1853 1.377 . S
C1838 C1836 1.389 . S
C1838 C1839 1.524 . S
C1838 C1852 1.377 . S
C1839 C1838 1.524 . S
C1839 C1840 1.397 . S
C1839 C1844 1.363 . S
C1840 H1817 0.950 . S
C1840 C1839 1.397 . S
C1840 C1841 1.334 . S
C1841 H1818 0.950 . S
C1841 C1840 1.334 . S
C1841 C1842 1.287 . S
C1842 C1841 1.287 . S
C1842 C1843 1.524 . S
C1842 H1861 0.913 . S
C1843 H1819 0.950 . S
C1843 C1842 1.524 . S
C1843 C1844 1.415 . S
C1844 H1820 0.950 . S
C1844 C1839 1.363 . S
C1844 C1843 1.415 . S
C1845 H1821 0.951 . S
C1845 C1846 1.366 . S
C1845 C1847 1.388 . S
C1846 C1845 1.366 . S
C1846 C1850 1.385 . S
C1847 H1822 0.951 . S
C1847 C1845 1.388 . S
C1847 C1848 1.366 . S
C1848 C1847 1.366 . S
C1848 C1849 1.414 . S
C1848 C1851 1.499 . S
C1849 H1823 0.950 . S
C1849 C1848 1.414 . S
C1849 C1850 1.374 . S
C1850 H1824 0.950 . S
C1850 C1846 1.385 . S
C1850 C1849 1.374 . S
C1851 C1848 1.499 . S
C1851 C1852 1.373 . S
C1851 C1853 1.389 . S
C1852 H1825 0.950 . S
C1852 C1838 1.377 . S
C1852 C1851 1.373 . S
C1853 C1837 1.377 . S
C1853 C1851 1.389 . S
C1853 C1854 1.524 . S
C1854 C1853 1.524 . S
C1854 C1855 1.397 . S
C1854 C1859 1.363 . S
C1855 H1826 0.950 . S
C1855 C1854 1.397 . S
C1855 C1856 1.334 . S
C1856 H1827 0.950 . S
C1856 C1855 1.334 . S
C1856 C1857 1.287 . S
C1857 C1856 1.287 . S
C1857 C1858 1.524 . S
C1857 H1860 0.999 . S
C1858 H1828 0.950 . S
C1858 C1857 1.524 . S
C1858 C1859 1.415 . S
C1859 H1829 0.950 . S
C1859 C1854 1.363 . S
C1859 C1858 1.415 . S
H1860 C1857 0.999 . S
H1861 C1842 0.913 . S
H1862 C1880 0.951 . S
H1863 C1882 0.951 . S
H1864 C1884 0.950 . S
H1865 C1885 0.950 . S
H1866 C1887 0.950 . S
H1867 C1890 0.951 . S
H1868 C1891 0.950 . S
H1869 C1893 0.949 1_655 S
H1870 C1894 0.950 . S
H1871 C1895 0.951 . S
H1872 C1897 0.951 . S
H1873 C1899 0.950 . S
H1874 C1900 0.950 . S
H1875 C1902 0.950 . S
H1876 C1905 0.950 . S
H1877 C1906 0.950 . S
H1878 C1908 0.950 . S
H1879 C1909 0.950 . S
C1880 H1862 0.951 . S
C1880 C1881 1.366 . S
C1880 C1882 1.388 . S
C1881 C1880 1.366 . S
C1881 C1885 1.385 . S
C1882 H1863 0.951 . S
C1882 C1880 1.388 . S
C1882 C1883 1.366 . S
C1883 C1882 1.366 . S
C1883 C1884 1.414 . S
C1883 C1886 1.499 . S
C1884 H1864 0.950 . S
C1884 C1883 1.414 . S
C1884 C1885 1.374 . S
C1885 H1865 0.950 . S
C1885 C1881 1.385 . S
C1885 C1884 1.374 . S
C1886 C1883 1.499 . S
C1886 C1887 1.373 . S
C1886 C1888 1.389 . S
C1887 H1866 0.950 . S
C1887 C1886 1.373 . S
C1887 C1903 1.377 . S
C1888 C1886 1.389 . S
C1888 C1889 1.524 . S
C1888 C1902 1.377 . S
C1889 C1888 1.524 . S
C1889 C1890 1.434 . S
C1889 C1894 1.363 . S
C1890 H1867 0.951 . S
C1890 C1889 1.434 . S
C1890 C1891 1.296 1_455 S
C1891 H1868 0.950 . S
C1891 C1890 1.296 1_655 S
C1891 C1892 1.287 . S
C1892 C1891 1.287 . S
C1892 C1893 1.491 1_655 S
C1892 H1911 0.913 . S
C1893 H1869 0.949 1_455 S
C1893 C1892 1.491 1_455 S
C1893 C1894 1.450 . S
C1894 H1870 0.950 . S
C1894 C1889 1.363 . S
C1894 C1893 1.450 . S
C1895 H1871 0.951 . S
C1895 C1896 1.366 . S
C1895 C1897 1.388 . S
C1896 C1895 1.366 . S
C1896 C1900 1.385 . S
C1897 H1872 0.951 . S
C1897 C1895 1.388 . S
C1897 C1898 1.366 . S
C1898 C1897 1.366 . S
C1898 C1899 1.414 . S
C1898 C1901 1.499 . S
C1899 H1873 0.950 . S
C1899 C1898 1.414 . S
C1899 C1900 1.374 . S
C1900 H1874 0.950 . S
C1900 C1896 1.385 . S
C1900 C1899 1.374 . S
C1901 C1898 1.499 . S
C1901 C1902 1.373 . S
C1901 C1903 1.389 . S
C1902 H1875 0.950 . S
C1902 C1888 1.377 . S
C1902 C1901 1.373 . S
C1903 C1887 1.377 . S
C1903 C1901 1.389 . S
C1903 C1904 1.524 . S
C1904 C1903 1.524 . S
C1904 C1905 1.397 . S
C1904 C1909 1.363 . S
C1905 H1876 0.950 . S
C1905 C1904 1.397 . S
C1905 C1906 1.334 . S
C1906 H1877 0.950 . S
C1906 C1905 1.334 . S
C1906 C1907 1.287 . S
C1907 C1906 1.287 . S
C1907 C1908 1.524 . S
C1907 H1910 0.999 . S
C1908 H1878 0.950 . S
C1908 C1907 1.524 . S
C1908 C1909 1.415 . S
C1909 H1879 0.950 . S
C1909 C1904 1.363 . S
C1909 C1908 1.415 . S
H1910 C1907 0.999 . S
H1911 C1892 0.913 . S
H1912 C1930 0.951 . S
H1913 C1932 0.951 . S
H1914 C1934 0.950 . S
H1915 C1935 0.950 . S
H1916 C1937 0.950 . S
H1917 C1940 0.950 . S
H1918 C1941 0.950 . S
H1919 C1943 0.950 . S
H1920 C1944 0.950 . S
H1921 C1945 0.951 . S
H1922 C1947 0.951 . S
H1923 C1949 0.950 . S
H1924 C1950 0.950 . S
H1925 C1952 0.950 . S
H1926 C1955 0.950 . S
H1927 C1956 0.950 . S
H1928 C1958 0.950 . S
H1929 C1959 0.950 . S
C1930 H1912 0.951 . S
C1930 C1931 1.366 . S
C1930 C1932 1.388 . S
C1931 C1930 1.366 . S
C1931 C1935 1.385 . S
C1932 H1913 0.951 . S
C1932 C1930 1.388 . S
C1932 C1933 1.366 . S
C1933 C1932 1.366 . S
C1933 C1934 1.414 . S
C1933 C1936 1.499 . S
C1934 H1914 0.950 . S
C1934 C1933 1.414 . S
C1934 C1935 1.374 . S
C1935 H1915 0.950 . S
C1935 C1931 1.385 . S
C1935 C1934 1.374 . S
C1936 C1933 1.499 . S
C1936 C1937 1.373 . S
C1936 C1938 1.389 . S
C1937 H1916 0.950 . S
C1937 C1936 1.373 . S
C1937 C1953 1.377 . S
C1938 C1936 1.389 . S
C1938 C1939 1.524 . S
C1938 C1952 1.377 . S
C1939 C1938 1.524 . S
C1939 C1940 1.397 . S
C1939 C1944 1.363 . S
C1940 H1917 0.950 . S
C1940 C1939 1.397 . S
C1940 C1941 1.334 . S
C1941 H1918 0.950 . S
C1941 C1940 1.334 . S
C1941 C1942 1.287 . S
C1942 C1941 1.287 . S
C1942 C1943 1.524 . S
C1942 H1961 0.913 . S
C1943 H1919 0.950 . S
C1943 C1942 1.524 . S
C1943 C1944 1.415 . S
C1944 H1920 0.950 . S
C1944 C1939 1.363 . S
C1944 C1943 1.415 . S
C1945 H1921 0.951 . S
C1945 C1946 1.366 . S
C1945 C1947 1.388 . S
C1946 C1945 1.366 . S
C1946 C1950 1.385 . S
C1947 H1922 0.951 . S
C1947 C1945 1.388 . S
C1947 C1948 1.366 . S
C1948 C1947 1.366 . S
C1948 C1949 1.414 . S
C1948 C1951 1.499 . S
C1949 H1923 0.950 . S
C1949 C1948 1.414 . S
C1949 C1950 1.374 . S
C1950 H1924 0.950 . S
C1950 C1946 1.385 . S
C1950 C1949 1.374 . S
C1951 C1948 1.499 . S
C1951 C1952 1.373 . S
C1951 C1953 1.389 . S
C1952 H1925 0.950 . S
C1952 C1938 1.377 . S
C1952 C1951 1.373 . S
C1953 C1937 1.377 . S
C1953 C1951 1.389 . S
C1953 C1954 1.524 . S
C1954 C1953 1.524 . S
C1954 C1955 1.397 . S
C1954 C1959 1.363 . S
C1955 H1926 0.950 . S
C1955 C1954 1.397 . S
C1955 C1956 1.334 . S
C1956 H1927 0.950 . S
C1956 C1955 1.334 . S
C1956 C1957 1.287 . S
C1957 C1956 1.287 . S
C1957 C1958 1.524 . S
C1957 H1960 0.999 . S
C1958 H1928 0.950 . S
C1958 C1957 1.524 . S
C1958 C1959 1.415 . S
C1959 H1929 0.950 . S
C1959 C1954 1.363 . S
C1959 C1958 1.415 . S
H1960 C1957 0.999 . S
H1961 C1942 0.913 . S
H1962 C1980 0.946 1_556 S
H1963 C1982 0.951 . S
H1964 C1984 0.950 . S
H1965 C1985 0.961 . S
H1966 C1987 0.950 . S
H1967 C1990 0.965 . S
H1968 C1991 0.950 . S
H1969 C1993 0.950 . S
H1970 C1994 0.950 . S
H1971 C1995 0.951 . S
H1972 C1997 0.951 . S
H1973 C1999 0.950 . S
H1974 C2000 0.950 . S
H1975 C2002 0.950 . S
H1976 C2005 0.950 . S
H1977 C2006 0.950 . S
H1978 C2008 0.950 . S
H1979 C2009 0.950 . S
C1980 H1962 0.946 1_554 S
C1980 C1981 1.366 . S
C1980 C1982 1.388 1_554 S
C1981 C1980 1.366 . S
C1981 C1985 1.369 1_655 S
C1982 H1963 0.951 . S
C1982 C1980 1.388 1_556 S
C1982 C1983 1.366 . S
C1983 C1982 1.366 . S
C1983 C1984 1.414 1_656 S
C1983 C1986 1.499 . S
C1984 H1964 0.950 . S
C1984 C1983 1.414 1_454 S
C1984 C1985 1.378 . S
C1985 H1965 0.961 . S
C1985 C1981 1.369 1_455 S
C1985 C1984 1.378 . S
C1986 C1983 1.499 . S
C1986 C1987 1.373 1_655 S
C1986 C1988 1.389 . S
C1987 H1966 0.950 . S
C1987 C1986 1.373 1_455 S
C1987 C2003 1.377 . S
C1988 C1986 1.389 . S
C1988 C1989 1.524 . S
C1988 C2002 1.377 . S
C1989 C1988 1.524 . S
C1989 C1990 1.371 1_556 S
C1989 C1994 1.363 . S
C1990 H1967 0.965 . S
C1990 C1989 1.371 1_554 S
C1990 C1991 1.346 . S
C1991 H1968 0.950 . S
C1991 C1990 1.346 . S
C1991 C1992 1.287 1_554 S
C1992 C1991 1.287 1_556 S
C1992 C1993 1.524 . S
C1992 H2011 0.913 1_556 S
C1993 H1969 0.950 . S
C1993 C1992 1.524 . S
C1993 C1994 1.415 . S
C1994 H1970 0.950 . S
C1994 C1989 1.363 . S
C1994 C1993 1.415 . S
C1995 H1971 0.951 . S
C1995 C1996 1.366 . S
C1995 C1997 1.388 . S
C1996 C1995 1.366 . S
C1996 C2000 1.385 1_455 S
C1997 H1972 0.951 . S
C1997 C1995 1.388 . S
C1997 C1998 1.366 . S
C1998 C1997 1.366 . S
C1998 C1999 1.414 1_455 S
C1998 C2001 1.498 1_455 S
C1999 H1973 0.950 . S
C1999 C1998 1.414 1_655 S
C1999 C2000 1.374 . S
C2000 H1974 0.950 . S
C2000 C1996 1.385 1_655 S
C2000 C1999 1.374 . S
C2001 C1998 1.498 1_655 S
C2001 C2002 1.378 . S
C2001 C2003 1.386 1_655 S
C2002 H1975 0.950 . S
C2002 C1988 1.377 . S
C2002 C2001 1.378 . S
C2003 C1987 1.377 . S
C2003 C2001 1.386 1_455 S
C2003 C2004 1.524 . S
C2004 C2003 1.524 . S
C2004 C2005 1.397 . S
C2004 C2009 1.363 . S
C2005 H1976 0.950 . S
C2005 C2004 1.397 . S
C2005 C2006 1.334 . S
C2006 H1977 0.950 . S
C2006 C2005 1.334 . S
C2006 C2007 1.287 . S
C2007 C2006 1.287 . S
C2007 C2008 1.524 . S
C2007 H2010 0.999 . S
C2008 H1978 0.950 . S
C2008 C2007 1.524 . S
C2008 C2009 1.415 . S
C2009 H1979 0.950 . S
C2009 C2004 1.363 . S
C2009 C2008 1.415 . S
H2010 C2007 0.999 . S
H2011 C1992 0.913 1_554 S
H2012 C2030 0.951 . S
H2013 C2032 0.951 . S
H2014 C2034 0.950 . S
H2015 C2035 0.950 . S
H2016 C2037 0.950 . S
H2017 C2040 0.950 . S
H2018 C2041 0.950 . S
H2019 C2043 0.950 . S
H2020 C2044 0.950 . S
H2021 C2045 0.951 . S
H2022 C2047 0.951 . S
H2023 C2049 0.950 . S
H2024 C2050 0.950 . S
H2025 C2052 0.950 . S
H2026 C2055 0.950 . S
H2027 C2056 0.950 . S
H2028 C2058 0.950 . S
H2029 C2059 0.950 . S
C2030 H2012 0.951 . S
C2030 C2031 1.366 . S
C2030 C2032 1.388 . S
C2031 C2030 1.366 . S
C2031 C2035 1.385 . S
C2032 H2013 0.951 . S
C2032 C2030 1.388 . S
C2032 C2033 1.366 . S
C2033 C2032 1.366 . S
C2033 C2034 1.414 . S
C2033 C2036 1.499 . S
C2034 H2014 0.950 . S
C2034 C2033 1.414 . S
C2034 C2035 1.374 . S
C2035 H2015 0.950 . S
C2035 C2031 1.385 . S
C2035 C2034 1.374 . S
C2036 C2033 1.499 . S
C2036 C2037 1.373 . S
C2036 C2038 1.389 . S
C2037 H2016 0.950 . S
C2037 C2036 1.373 . S
C2037 C2053 1.377 . S
C2038 C2036 1.389 . S
C2038 C2039 1.524 . S
C2038 C2052 1.377 . S
C2039 C2038 1.524 . S
C2039 C2040 1.397 . S
C2039 C2044 1.363 . S
C2040 H2017 0.950 . S
C2040 C2039 1.397 . S
C2040 C2041 1.334 . S
C2041 H2018 0.950 . S
C2041 C2040 1.334 . S
C2041 C2042 1.287 . S
C2042 C2041 1.287 . S
C2042 C2043 1.524 . S
C2042 H2061 0.913 . S
C2043 H2019 0.950 . S
C2043 C2042 1.524 . S
C2043 C2044 1.415 . S
C2044 H2020 0.950 . S
C2044 C2039 1.363 . S
C2044 C2043 1.415 . S
C2045 H2021 0.951 . S
C2045 C2046 1.366 . S
C2045 C2047 1.388 . S
C2046 C2045 1.366 . S
C2046 C2050 1.385 . S
C2047 H2022 0.951 . S
C2047 C2045 1.388 . S
C2047 C2048 1.366 . S
C2048 C2047 1.366 . S
C2048 C2049 1.414 . S
C2048 C2051 1.499 . S
C2049 H2023 0.950 . S
C2049 C2048 1.414 . S
C2049 C2050 1.374 . S
C2050 H2024 0.950 . S
C2050 C2046 1.385 . S
C2050 C2049 1.374 . S
C2051 C2048 1.499 . S
C2051 C2052 1.373 . S
C2051 C2053 1.389 . S
C2052 H2025 0.950 . S
C2052 C2038 1.377 . S
C2052 C2051 1.373 . S
C2053 C2037 1.377 . S
C2053 C2051 1.389 . S
C2053 C2054 1.524 . S
C2054 C2053 1.524 . S
C2054 C2055 1.397 . S
C2054 C2059 1.363 . S
C2055 H2026 0.950 . S
C2055 C2054 1.397 . S
C2055 C2056 1.334 . S
C2056 H2027 0.950 . S
C2056 C2055 1.334 . S
C2056 C2057 1.287 . S
C2057 C2056 1.287 . S
C2057 C2058 1.524 . S
C2057 H2060 0.999 . S
C2058 H2028 0.950 . S
C2058 C2057 1.524 . S
C2058 C2059 1.415 . S
C2059 H2029 0.950 . S
C2059 C2054 1.363 . S
C2059 C2058 1.415 . S
H2060 C2057 0.999 . S
H2061 C2042 0.913 . S
H2062 C2080 0.953 . S
H2063 C2082 0.946 1_655 S
H2064 C2084 0.950 . S
H2065 C2085 0.950 . S
H2066 C2087 0.950 . S
H2067 C2090 0.950 . S
H2068 C2091 0.950 . S
H2069 C2093 0.950 . S
H2070 C2094 0.950 . S
H2071 C2095 0.951 . S
H2072 C2097 0.951 . S
H2073 C2099 0.950 1_655 S
H2074 C2100 0.950 1_655 S
H2075 C2102 0.944 1_655 S
H2076 C2105 0.950 . S
H2077 C2106 0.950 . S
H2078 C2108 0.950 . S
H2079 C2109 0.950 . S
C2080 H2062 0.953 . S
C2080 C2081 1.366 . S
C2080 C2082 1.386 1_554 S
C2081 C2080 1.366 . S
C2081 C2085 1.385 1_554 S
C2082 H2063 0.946 1_455 S
C2082 C2080 1.386 1_556 S
C2082 C2083 1.366 . S
C2083 C2082 1.366 . S
C2083 C2084 1.414 . S
C2083 C2086 1.499 . S
C2084 H2064 0.950 . S
C2084 C2083 1.414 . S
C2084 C2085 1.374 . S
C2085 H2065 0.950 . S
C2085 C2081 1.385 1_556 S
C2085 C2084 1.374 . S
C2086 C2083 1.499 . S
C2086 C2087 1.373 . S
C2086 C2088 1.389 . S
C2087 H2066 0.950 . S
C2087 C2086 1.373 . S
C2087 C2103 1.377 . S
C2088 C2086 1.389 . S
C2088 C2089 1.524 1_455 S
C2088 C2102 1.377 . S
C2089 C2088 1.524 1_655 S
C2089 C2090 1.397 1_655 S
C2089 C2094 1.363 . S
C2090 H2067 0.950 . S
C2090 C2089 1.397 1_455 S
C2090 C2091 1.334 1_455 S
C2091 H2068 0.950 . S
C2091 C2090 1.334 1_655 S
C2091 C2092 1.287 . S
C2092 C2091 1.287 . S
C2092 C2093 1.524 . S
C2092 H2111 0.913 . S
C2093 H2069 0.950 . S
C2093 C2092 1.524 . S
C2093 C2094 1.415 . S
C2094 H2070 0.950 . S
C2094 C2089 1.363 . S
C2094 C2093 1.415 . S
C2095 H2071 0.951 . S
C2095 C2096 1.366 . S
C2095 C2097 1.388 . S
C2096 C2095 1.366 . S
C2096 C2100 1.385 . S
C2097 H2072 0.951 . S
C2097 C2095 1.388 . S
C2097 C2098 1.366 . S
C2098 C2097 1.366 . S
C2098 C2099 1.414 . S
C2098 C2101 1.499 . S
C2099 H2073 0.950 1_455 S
C2099 C2098 1.414 . S
C2099 C2100 1.374 . S
C2100 H2074 0.950 1_455 S
C2100 C2096 1.385 . S
C2100 C2099 1.374 . S
C2101 C2098 1.499 . S
C2101 C2102 1.373 . S
C2101 C2103 1.389 . S
C2102 H2075 0.944 1_455 S
C2102 C2088 1.377 . S
C2102 C2101 1.373 . S
C2103 C2087 1.377 . S
C2103 C2101 1.389 . S
C2103 C2104 1.524 . S
C2104 C2103 1.524 . S
C2104 C2105 1.397 . S
C2104 C2109 1.363 . S
C2105 H2076 0.950 . S
C2105 C2104 1.397 . S
C2105 C2106 1.334 . S
C2106 H2077 0.950 . S
C2106 C2105 1.334 . S
C2106 C2107 1.287 . S
C2107 C2106 1.287 . S
C2107 C2108 1.524 . S
C2107 H2110 0.999 . S
C2108 H2078 0.950 . S
C2108 C2107 1.524 . S
C2108 C2109 1.415 . S
C2109 H2079 0.950 . S
C2109 C2104 1.363 . S
C2109 C2108 1.415 . S
H2110 C2107 0.999 . S
H2111 C2092 0.913 . S
H2112 C2130 0.951 . S
H2113 C2132 0.951 . S
H2114 C2134 0.950 . S
H2115 C2135 0.950 . S
H2116 C2137 0.950 . S
H2117 C2140 0.950 . S
H2118 C2141 0.950 . S
H2119 C2143 0.950 . S
H2120 C2144 0.950 . S
H2121 C2145 0.951 . S
H2122 C2147 0.951 . S
H2123 C2149 0.950 . S
H2124 C2150 0.950 . S
H2125 C2152 0.950 . S
H2126 C2155 0.950 . S
H2127 C2156 0.950 . S
H2128 C2158 0.950 . S
H2129 C2159 0.950 . S
C2130 H2112 0.951 . S
C2130 C2131 1.366 . S
C2130 C2132 1.388 . S
C2131 C2130 1.366 . S
C2131 C2135 1.385 . S
C2132 H2113 0.951 . S
C2132 C2130 1.388 . S
C2132 C2133 1.366 . S
C2133 C2132 1.366 . S
C2133 C2134 1.414 . S
C2133 C2136 1.499 . S
C2134 H2114 0.950 . S
C2134 C2133 1.414 . S
C2134 C2135 1.374 . S
C2135 H2115 0.950 . S
C2135 C2131 1.385 . S
C2135 C2134 1.374 . S
C2136 C2133 1.499 . S
C2136 C2137 1.373 . S
C2136 C2138 1.389 . S
C2137 H2116 0.950 . S
C2137 C2136 1.373 . S
C2137 C2153 1.377 . S
C2138 C2136 1.389 . S
C2138 C2139 1.524 . S
C2138 C2152 1.377 . S
C2139 C2138 1.524 . S
C2139 C2140 1.397 . S
C2139 C2144 1.363 . S
C2140 H2117 0.950 . S
C2140 C2139 1.397 . S
C2140 C2141 1.334 . S
C2141 H2118 0.950 . S
C2141 C2140 1.334 . S
C2141 C2142 1.287 . S
C2142 C2141 1.287 . S
C2142 C2143 1.524 . S
C2142 H2161 0.913 . S
C2143 H2119 0.950 . S
C2143 C2142 1.524 . S
C2143 C2144 1.415 . S
C2144 H2120 0.950 . S
C2144 C2139 1.363 . S
C2144 C2143 1.415 . S
C2145 H2121 0.951 . S
C2145 C2146 1.366 . S
C2145 C2147 1.388 . S
C2146 C2145 1.366 . S
C2146 C2150 1.385 . S
C2147 H2122 0.951 . S
C2147 C2145 1.388 . S
C2147 C2148 1.366 . S
C2148 C2147 1.366 . S
C2148 C2149 1.414 . S
C2148 C2151 1.499 . S
C2149 H2123 0.950 . S
C2149 C2148 1.414 . S
C2149 C2150 1.374 . S
C2150 H2124 0.950 . S
C2150 C2146 1.385 . S
C2150 C2149 1.374 . S
C2151 C2148 1.499 . S
C2151 C2152 1.373 . S
C2151 C2153 1.389 . S
C2152 H2125 0.950 . S
C2152 C2138 1.377 . S
C2152 C2151 1.373 . S
C2153 C2137 1.377 . S
C2153 C2151 1.389 . S
C2153 C2154 1.524 . S
C2154 C2153 1.524 . S
C2154 C2155 1.397 . S
C2154 C2159 1.363 . S
C2155 H2126 0.950 . S
C2155 C2154 1.397 . S
C2155 C2156 1.334 . S
C2156 H2127 0.950 . S
C2156 C2155 1.334 . S
C2156 C2157 1.287 . S
C2157 C2156 1.287 . S
C2157 C2158 1.524 . S
C2157 H2160 0.999 . S
C2158 H2128 0.950 . S
C2158 C2157 1.524 . S
C2158 C2159 1.415 . S
C2159 H2129 0.950 . S
C2159 C2154 1.363 . S
C2159 C2158 1.415 . S
H2160 C2157 0.999 . S
H2161 C2142 0.913 . S
H2162 C2180 0.951 . S
H2163 C2182 0.951 . S
H2164 C2184 0.950 . S
H2165 C2185 0.950 . S
H2166 C2187 0.950 . S
H2167 C2190 0.950 1_554 S
H2168 C2191 0.950 . S
H2169 C2193 0.950 . S
H2170 C2194 0.950 . S
H2171 C2195 0.951 . S
H2172 C2197 0.951 . S
H2173 C2199 0.950 . S
H2174 C2200 0.950 . S
H2175 C2202 0.950 . S
H2176 C2205 0.950 . S
H2177 C2206 0.950 . S
H2178 C2208 0.950 . S
H2179 C2209 0.950 . S
C2180 H2162 0.951 . S
C2180 C2181 1.366 . S
C2180 C2182 1.388 . S
C2181 C2180 1.366 . S
C2181 C2185 1.385 1_556 S
C2182 H2163 0.951 . S
C2182 C2180 1.388 . S
C2182 C2183 1.366 1_556 S
C2183 C2182 1.366 1_554 S
C2183 C2184 1.414 . S
C2183 C2186 1.499 . S
C2184 H2164 0.950 . S
C2184 C2183 1.414 . S
C2184 C2185 1.374 . S
C2185 H2165 0.950 . S
C2185 C2181 1.385 1_554 S
C2185 C2184 1.374 . S
C2186 C2183 1.499 . S
C2186 C2187 1.373 . S
C2186 C2188 1.389 . S
C2187 H2166 0.950 . S
C2187 C2186 1.373 . S
C2187 C2203 1.377 . S
C2188 C2186 1.389 . S
C2188 C2189 1.549 . S
C2188 C2202 1.377 . S
C2189 C2188 1.549 . S
C2189 C2190 1.395 1_554 S
C2189 C2194 1.343 1_554 S
C2190 H2167 0.950 1_556 S
C2190 C2189 1.395 1_556 S
C2190 C2191 1.334 . S
C2191 H2168 0.950 . S
C2191 C2190 1.334 . S
C2191 C2192 1.287 . S
C2192 C2191 1.287 . S
C2192 C2193 1.524 . S
C2192 H2211 0.913 . S
C2193 H2169 0.950 . S
C2193 C2192 1.524 . S
C2193 C2194 1.415 . S
C2194 H2170 0.950 . S
C2194 C2189 1.343 1_556 S
C2194 C2193 1.415 . S
C2195 H2171 0.951 . S
C2195 C2196 1.366 . S
C2195 C2197 1.388 . S
C2196 C2195 1.366 . S
C2196 C2200 1.385 . S
C2197 H2172 0.951 . S
C2197 C2195 1.388 . S
C2197 C2198 1.366 . S
C2198 C2197 1.366 . S
C2198 C2199 1.414 . S
C2198 C2201 1.499 . S
C2199 H2173 0.950 . S
C2199 C2198 1.414 . S
C2199 C2200 1.374 . S
C2200 H2174 0.950 . S
C2200 C2196 1.385 . S
C2200 C2199 1.374 . S
C2201 C2198 1.499 . S
C2201 C2202 1.373 . S
C2201 C2203 1.389 . S
C2202 H2175 0.950 . S
C2202 C2188 1.377 . S
C2202 C2201 1.373 . S
C2203 C2187 1.377 . S
C2203 C2201 1.389 . S
C2203 C2204 1.524 . S
C2204 C2203 1.524 . S
C2204 C2205 1.397 . S
C2204 C2209 1.363 . S
C2205 H2176 0.950 . S
C2205 C2204 1.397 . S
C2205 C2206 1.334 . S
C2206 H2177 0.950 . S
C2206 C2205 1.334 . S
C2206 C2207 1.287 . S
C2207 C2206 1.287 . S
C2207 C2208 1.524 . S
C2207 H2210 0.999 . S
C2208 H2178 0.950 . S
C2208 C2207 1.524 . S
C2208 C2209 1.415 . S
C2209 H2179 0.950 . S
C2209 C2204 1.363 . S
C2209 C2208 1.415 . S
H2210 C2207 0.999 . S
H2211 C2192 0.913 . S
H2212 C2230 0.951 . S
H2213 C2232 0.951 . S
H2214 C2234 0.950 . S
H2215 C2235 0.950 . S
H2216 C2237 0.950 . S
H2217 C2240 0.950 . S
H2218 C2241 0.950 . S
H2219 C2243 0.950 . S
H2220 C2244 0.950 . S
H2221 C2245 0.951 . S
H2222 C2247 0.951 . S
H2223 C2249 0.950 . S
H2224 C2250 0.950 . S
H2225 C2252 0.950 . S
H2226 C2255 0.950 . S
H2227 C2256 0.950 . S
H2228 C2258 0.950 . S
H2229 C2259 0.950 . S
C2230 H2212 0.951 . S
C2230 C2231 1.366 . S
C2230 C2232 1.388 . S
C2231 C2230 1.366 . S
C2231 C2235 1.385 . S
C2232 H2213 0.951 . S
C2232 C2230 1.388 . S
C2232 C2233 1.366 . S
C2233 C2232 1.366 . S
C2233 C2234 1.414 . S
C2233 C2236 1.499 . S
C2234 H2214 0.950 . S
C2234 C2233 1.414 . S
C2234 C2235 1.374 . S
C2235 H2215 0.950 . S
C2235 C2231 1.385 . S
C2235 C2234 1.374 . S
C2236 C2233 1.499 . S
C2236 C2237 1.373 . S
C2236 C2238 1.389 . S
C2237 H2216 0.950 . S
C2237 C2236 1.373 . S
C2237 C2253 1.377 . S
C2238 C2236 1.389 . S
C2238 C2239 1.524 . S
C2238 C2252 1.377 . S
C2239 C2238 1.524 . S
C2239 C2240 1.397 . S
C2239 C2244 1.363 . S
C2240 H2217 0.950 . S
C2240 C2239 1.397 . S
C2240 C2241 1.334 . S
C2241 H2218 0.950 . S
C2241 C2240 1.334 . S
C2241 C2242 1.287 . S
C2242 C2241 1.287 . S
C2242 C2243 1.524 . S
C2242 H2261 0.913 . S
C2243 H2219 0.950 . S
C2243 C2242 1.524 . S
C2243 C2244 1.415 . S
C2244 H2220 0.950 . S
C2244 C2239 1.363 . S
C2244 C2243 1.415 . S
C2245 H2221 0.951 . S
C2245 C2246 1.366 . S
C2245 C2247 1.388 . S
C2246 C2245 1.366 . S
C2246 C2250 1.385 . S
C2247 H2222 0.951 . S
C2247 C2245 1.388 . S
C2247 C2248 1.366 . S
C2248 C2247 1.366 . S
C2248 C2249 1.414 . S
C2248 C2251 1.499 . S
C2249 H2223 0.950 . S
C2249 C2248 1.414 . S
C2249 C2250 1.374 . S
C2250 H2224 0.950 . S
C2250 C2246 1.385 . S
C2250 C2249 1.374 . S
C2251 C2248 1.499 . S
C2251 C2252 1.373 . S
C2251 C2253 1.389 . S
C2252 H2225 0.950 . S
C2252 C2238 1.377 . S
C2252 C2251 1.373 . S
C2253 C2237 1.377 . S
C2253 C2251 1.389 . S
C2253 C2254 1.524 . S
C2254 C2253 1.524 . S
C2254 C2255 1.397 . S
C2254 C2259 1.363 . S
C2255 H2226 0.950 . S
C2255 C2254 1.397 . S
C2255 C2256 1.334 . S
C2256 H2227 0.950 . S
C2256 C2255 1.334 . S
C2256 C2257 1.287 . S
C2257 C2256 1.287 . S
C2257 C2258 1.524 . S
C2257 H2260 0.999 . S
C2258 H2228 0.950 . S
C2258 C2257 1.524 . S
C2258 C2259 1.415 . S
C2259 H2229 0.950 . S
C2259 C2254 1.363 . S
C2259 C2258 1.415 . S
H2260 C2257 0.999 . S
H2261 C2242 0.913 . S
H2262 C2280 0.951 . S
H2263 C2282 0.951 . S
H2264 C2284 0.950 . S
H2265 C2285 0.950 . S
H2266 C2287 0.950 . S
H2267 C2290 0.950 . S
H2268 C2291 0.950 . S
H2269 C2293 0.950 . S
H2270 C2294 0.950 . S
H2271 C2295 0.951 . S
H2272 C2297 0.951 . S
H2273 C2299 0.950 . S
H2274 C2300 0.950 . S
H2275 C2302 0.950 . S
H2276 C2305 0.950 . S
H2277 C2306 0.950 . S
H2278 C2308 0.950 . S
H2279 C2309 0.950 . S
C2280 H2262 0.951 . S
C2280 C2281 1.366 1_554 S
C2280 C2282 1.388 . S
C2281 C2280 1.366 1_556 S
C2281 C2285 1.385 . S
C2282 H2263 0.951 . S
C2282 C2280 1.388 . S
C2282 C2283 1.366 . S
C2283 C2282 1.366 . S
C2283 C2284 1.414 . S
C2283 C2286 1.499 . S
C2284 H2264 0.950 . S
C2284 C2283 1.414 . S
C2284 C2285 1.374 1_554 S
C2285 H2265 0.950 . S
C2285 C2281 1.385 . S
C2285 C2284 1.374 1_556 S
C2286 C2283 1.499 . S
C2286 C2287 1.373 . S
C2286 C2288 1.389 . S
C2287 H2266 0.950 . S
C2287 C2286 1.373 . S
C2287 C2303 1.377 . S
C2288 C2286 1.389 . S
C2288 C2289 1.524 . S
C2288 C2302 1.377 . S
C2289 C2288 1.524 . S
C2289 C2290 1.397 1_554 S
C2289 C2294 1.363 . S
C2290 H2267 0.950 . S
C2290 C2289 1.397 1_556 S
C2290 C2291 1.334 . S
C2291 H2268 0.950 . S
C2291 C2290 1.334 . S
C2291 C2292 1.287 . S
C2292 C2291 1.287 . S
C2292 C2293 1.524 1_556 S
C2292 H2311 0.913 . S
C2293 H2269 0.950 . S
C2293 C2292 1.524 1_554 S
C2293 C2294 1.415 . S
C2294 H2270 0.950 . S
C2294 C2289 1.363 . S
C2294 C2293 1.415 . S
C2295 H2271 0.951 . S
C2295 C2296 1.366 . S
C2295 C2297 1.388 . S
C2296 C2295 1.366 . S
C2296 C2300 1.385 . S
C2297 H2272 0.951 . S
C2297 C2295 1.388 . S
C2297 C2298 1.366 . S
C2298 C2297 1.366 . S
C2298 C2299 1.414 . S
C2298 C2301 1.499 . S
C2299 H2273 0.950 . S
C2299 C2298 1.414 . S
C2299 C2300 1.374 . S
C2300 H2274 0.950 . S
C2300 C2296 1.385 . S
C2300 C2299 1.374 . S
C2301 C2298 1.499 . S
C2301 C2302 1.373 . S
C2301 C2303 1.389 . S
C2302 H2275 0.950 . S
C2302 C2288 1.377 . S
C2302 C2301 1.373 . S
C2303 C2287 1.377 . S
C2303 C2301 1.389 . S
C2303 C2304 1.524 . S
C2304 C2303 1.524 . S
C2304 C2305 1.397 . S
C2304 C2309 1.363 . S
C2305 H2276 0.950 . S
C2305 C2304 1.397 . S
C2305 C2306 1.334 . S
C2306 H2277 0.950 . S
C2306 C2305 1.334 . S
C2306 C2307 1.287 . S
C2307 C2306 1.287 . S
C2307 C2308 1.524 . S
C2307 H2310 0.999 . S
C2308 H2278 0.950 . S
C2308 C2307 1.524 . S
C2308 C2309 1.415 . S
C2309 H2279 0.950 . S
C2309 C2304 1.363 . S
C2309 C2308 1.415 . S
H2310 C2307 0.999 . S
H2311 C2292 0.913 . S
H2312 C2330 0.951 . S
H2313 C2332 0.951 . S
H2314 C2334 0.950 . S
H2315 C2335 0.950 . S
H2316 C2337 0.950 . S
H2317 C2340 0.950 . S
H2318 C2341 0.950 . S
H2319 C2343 0.950 . S
H2320 C2344 0.950 . S
H2321 C2345 0.951 . S
H2322 C2347 0.951 . S
H2323 C2349 0.950 . S
H2324 C2350 0.950 . S
H2325 C2352 0.950 . S
H2326 C2355 0.950 . S
H2327 C2356 0.950 . S
H2328 C2358 0.950 . S
H2329 C2359 0.950 . S
C2330 H2312 0.951 . S
C2330 C2331 1.366 . S
C2330 C2332 1.388 . S
C2331 C2330 1.366 . S
C2331 C2335 1.385 . S
C2332 H2313 0.951 . S
C2332 C2330 1.388 . S
C2332 C2333 1.366 . S
C2333 C2332 1.366 . S
C2333 C2334 1.414 . S
C2333 C2336 1.499 . S
C2334 H2314 0.950 . S
C2334 C2333 1.414 . S
C2334 C2335 1.374 . S
C2335 H2315 0.950 . S
C2335 C2331 1.385 . S
C2335 C2334 1.374 . S
C2336 C2333 1.499 . S
C2336 C2337 1.373 . S
C2336 C2338 1.389 . S
C2337 H2316 0.950 . S
C2337 C2336 1.373 . S
C2337 C2353 1.377 . S
C2338 C2336 1.389 . S
C2338 C2339 1.524 . S
C2338 C2352 1.377 . S
C2339 C2338 1.524 . S
C2339 C2340 1.397 . S
C2339 C2344 1.363 . S
C2340 H2317 0.950 . S
C2340 C2339 1.397 . S
C2340 C2341 1.334 . S
C2341 H2318 0.950 . S
C2341 C2340 1.334 . S
C2341 C2342 1.287 . S
C2342 C2341 1.287 . S
C2342 C2343 1.524 . S
C2342 H2361 0.913 . S
C2343 H2319 0.950 . S
C2343 C2342 1.524 . S
C2343 C2344 1.415 . S
C2344 H2320 0.950 . S
C2344 C2339 1.363 . S
C2344 C2343 1.415 . S
C2345 H2321 0.951 . S
C2345 C2346 1.366 . S
C2345 C2347 1.388 . S
C2346 C2345 1.366 . S
C2346 C2350 1.385 . S
C2347 H2322 0.951 . S
C2347 C2345 1.388 . S
C2347 C2348 1.366 . S
C2348 C2347 1.366 . S
C2348 C2349 1.414 . S
C2348 C2351 1.499 . S
C2349 H2323 0.950 . S
C2349 C2348 1.414 . S
C2349 C2350 1.374 . S
C2350 H2324 0.950 . S
C2350 C2346 1.385 . S
C2350 C2349 1.374 . S
C2351 C2348 1.499 . S
C2351 C2352 1.373 . S
C2351 C2353 1.389 . S
C2352 H2325 0.950 . S
C2352 C2338 1.377 . S
C2352 C2351 1.373 . S
C2353 C2337 1.377 . S
C2353 C2351 1.389 . S
C2353 C2354 1.524 . S
C2354 C2353 1.524 . S
C2354 C2355 1.397 . S
C2354 C2359 1.363 . S
C2355 H2326 0.950 . S
C2355 C2354 1.397 . S
C2355 C2356 1.334 . S
C2356 H2327 0.950 . S
C2356 C2355 1.334 . S
C2356 C2357 1.287 . S
C2357 C2356 1.287 . S
C2357 C2358 1.524 . S
C2357 H2360 0.999 . S
C2358 H2328 0.950 . S
C2358 C2357 1.524 . S
C2358 C2359 1.415 . S
C2359 H2329 0.950 . S
C2359 C2354 1.363 . S
C2359 C2358 1.415 . S
H2360 C2357 0.999 . S
H2361 C2342 0.913 . S
H2362 C2380 0.951 . S
H2363 C2382 0.951 . S
H2364 C2384 0.950 . S
H2365 C2385 0.950 . S
H2366 C2387 0.950 . S
H2367 C2390 0.950 . S
H2368 C2391 0.950 . S
H2369 C2393 0.950 . S
H2370 C2394 0.950 . S
H2371 C2395 0.951 . S
H2372 C2397 0.951 . S
H2373 C2399 0.950 . S
H2374 C2400 0.950 . S
H2375 C2402 0.950 . S
H2376 C2405 0.950 . S
H2377 C2406 0.950 . S
H2378 C2408 0.950 . S
H2379 C2409 0.950 . S
C2380 H2362 0.951 . S
C2380 C2381 1.366 . S
C2380 C2382 1.388 . S
C2381 C2380 1.366 . S
C2381 C2385 1.385 . S
C2382 H2363 0.951 . S
C2382 C2380 1.388 . S
C2382 C2383 1.366 . S
C2383 C2382 1.366 . S
C2383 C2384 1.414 . S
C2383 C2386 1.499 . S
C2384 H2364 0.950 . S
C2384 C2383 1.414 . S
C2384 C2385 1.374 . S
C2385 H2365 0.950 . S
C2385 C2381 1.385 . S
C2385 C2384 1.374 . S
C2386 C2383 1.499 . S
C2386 C2387 1.373 . S
C2386 C2388 1.389 . S
C2387 H2366 0.950 . S
C2387 C2386 1.373 . S
C2387 C2403 1.377 . S
C2388 C2386 1.389 . S
C2388 C2389 1.524 . S
C2388 C2402 1.377 . S
C2389 C2388 1.524 . S
C2389 C2390 1.397 . S
C2389 C2394 1.363 . S
C2390 H2367 0.950 . S
C2390 C2389 1.397 . S
C2390 C2391 1.334 . S
C2391 H2368 0.950 . S
C2391 C2390 1.334 . S
C2391 C2392 1.287 . S
C2392 C2391 1.287 . S
C2392 C2393 1.524 . S
C2392 H2411 0.913 . S
C2393 H2369 0.950 . S
C2393 C2392 1.524 . S
C2393 C2394 1.415 . S
C2394 H2370 0.950 . S
C2394 C2389 1.363 . S
C2394 C2393 1.415 . S
C2395 H2371 0.951 . S
C2395 C2396 1.366 . S
C2395 C2397 1.388 . S
C2396 C2395 1.366 . S
C2396 C2400 1.385 . S
C2397 H2372 0.951 . S
C2397 C2395 1.388 . S
C2397 C2398 1.366 . S
C2398 C2397 1.366 . S
C2398 C2399 1.414 . S
C2398 C2401 1.499 . S
C2399 H2373 0.950 . S
C2399 C2398 1.414 . S
C2399 C2400 1.374 . S
C2400 H2374 0.950 . S
C2400 C2396 1.385 . S
C2400 C2399 1.374 . S
C2401 C2398 1.499 . S
C2401 C2402 1.373 . S
C2401 C2403 1.389 . S
C2402 H2375 0.950 . S
C2402 C2388 1.377 . S
C2402 C2401 1.373 . S
C2403 C2387 1.377 . S
C2403 C2401 1.389 . S
C2403 C2404 1.524 . S
C2404 C2403 1.524 . S
C2404 C2405 1.397 . S
C2404 C2409 1.363 . S
C2405 H2376 0.950 . S
C2405 C2404 1.397 . S
C2405 C2406 1.334 . S
C2406 H2377 0.950 . S
C2406 C2405 1.334 . S
C2406 C2407 1.287 . S
C2407 C2406 1.287 . S
C2407 C2408 1.524 . S
C2407 H2410 0.999 . S
C2408 H2378 0.950 . S
C2408 C2407 1.524 . S
C2408 C2409 1.415 . S
C2409 H2379 0.950 . S
C2409 C2404 1.363 . S
C2409 C2408 1.415 . S
H2410 C2407 0.999 . S
H2411 C2392 0.913 . S
H2412 C2430 0.951 . S
H2413 C2432 0.951 . S
H2414 C2434 0.950 . S
H2415 C2435 0.950 . S
H2416 C2437 0.950 . S
H2417 C2440 0.950 . S
H2418 C2441 0.950 . S
H2419 C2443 0.950 . S
H2420 C2444 0.950 . S
H2421 C2445 0.951 . S
H2422 C2447 0.951 . S
H2423 C2449 0.950 . S
H2424 C2450 0.950 . S
H2425 C2452 0.950 . S
H2426 C2455 0.950 . S
H2427 C2456 0.950 . S
H2428 C2458 0.950 . S
H2429 C2459 0.950 . S
C2430 H2412 0.951 . S
C2430 C2431 1.366 . S
C2430 C2432 1.388 . S
C2431 C2430 1.366 . S
C2431 C2435 1.385 . S
C2432 H2413 0.951 . S
C2432 C2430 1.388 . S
C2432 C2433 1.366 . S
C2433 C2432 1.366 . S
C2433 C2434 1.414 . S
C2433 C2436 1.499 . S
C2434 H2414 0.950 . S
C2434 C2433 1.414 . S
C2434 C2435 1.374 . S
C2435 H2415 0.950 . S
C2435 C2431 1.385 . S
C2435 C2434 1.374 . S
C2436 C2433 1.499 . S
C2436 C2437 1.373 . S
C2436 C2438 1.389 . S
C2437 H2416 0.950 . S
C2437 C2436 1.373 . S
C2437 C2453 1.377 . S
C2438 C2436 1.389 . S
C2438 C2439 1.524 . S
C2438 C2452 1.377 . S
C2439 C2438 1.524 . S
C2439 C2440 1.397 . S
C2439 C2444 1.363 . S
C2440 H2417 0.950 . S
C2440 C2439 1.397 . S
C2440 C2441 1.334 . S
C2441 H2418 0.950 . S
C2441 C2440 1.334 . S
C2441 C2442 1.287 . S
C2442 C2441 1.287 . S
C2442 C2443 1.524 . S
C2442 H2461 0.913 . S
C2443 H2419 0.950 . S
C2443 C2442 1.524 . S
C2443 C2444 1.415 . S
C2444 H2420 0.950 . S
C2444 C2439 1.363 . S
C2444 C2443 1.415 . S
C2445 H2421 0.951 . S
C2445 C2446 1.366 . S
C2445 C2447 1.388 . S
C2446 C2445 1.366 . S
C2446 C2450 1.385 . S
C2447 H2422 0.951 . S
C2447 C2445 1.388 . S
C2447 C2448 1.366 . S
C2448 C2447 1.366 . S
C2448 C2449 1.414 . S
C2448 C2451 1.499 . S
C2449 H2423 0.950 . S
C2449 C2448 1.414 . S
C2449 C2450 1.374 . S
C2450 H2424 0.950 . S
C2450 C2446 1.385 . S
C2450 C2449 1.374 . S
C2451 C2448 1.499 . S
C2451 C2452 1.373 . S
C2451 C2453 1.389 . S
C2452 H2425 0.950 . S
C2452 C2438 1.377 . S
C2452 C2451 1.373 . S
C2453 C2437 1.377 . S
C2453 C2451 1.389 . S
C2453 C2454 1.524 . S
C2454 C2453 1.524 . S
C2454 C2455 1.397 . S
C2454 C2459 1.363 . S
C2455 H2426 0.950 . S
C2455 C2454 1.397 . S
C2455 C2456 1.334 . S
C2456 H2427 0.950 . S
C2456 C2455 1.334 . S
C2456 C2457 1.287 . S
C2457 C2456 1.287 . S
C2457 C2458 1.524 . S
C2457 H2460 0.999 . S
C2458 H2428 0.950 . S
C2458 C2457 1.524 . S
C2458 C2459 1.415 . S
C2459 H2429 0.950 . S
C2459 C2454 1.363 . S
C2459 C2458 1.415 . S
H2460 C2457 0.999 . S
H2461 C2442 0.913 . S
H2462 C2480 0.951 . S
H2463 C2482 0.951 . S
H2464 C2484 0.950 . S
H2465 C2485 0.950 . S
H2466 C2487 0.950 . S
H2467 C2490 0.950 . S
H2468 C2491 0.950 . S
H2469 C2493 0.950 . S
H2470 C2494 0.950 . S
H2471 C2495 0.951 . S
H2472 C2497 0.951 . S
H2473 C2499 0.950 . S
H2474 C2500 0.950 . S
H2475 C2502 0.950 . S
H2476 C2505 0.950 . S
H2477 C2506 0.950 . S
H2478 C2508 0.950 . S
H2479 C2509 0.950 . S
C2480 H2462 0.951 . S
C2480 C2481 1.366 . S
C2480 C2482 1.388 . S
C2481 C2480 1.366 . S
C2481 C2485 1.385 . S
C2482 H2463 0.951 . S
C2482 C2480 1.388 . S
C2482 C2483 1.366 . S
C2483 C2482 1.366 . S
C2483 C2484 1.414 . S
C2483 C2486 1.499 . S
C2484 H2464 0.950 . S
C2484 C2483 1.414 . S
C2484 C2485 1.374 . S
C2485 H2465 0.950 . S
C2485 C2481 1.385 . S
C2485 C2484 1.374 . S
C2486 C2483 1.499 . S
C2486 C2487 1.373 . S
C2486 C2488 1.389 . S
C2487 H2466 0.950 . S
C2487 C2486 1.373 . S
C2487 C2503 1.377 . S
C2488 C2486 1.389 . S
C2488 C2489 1.524 . S
C2488 C2502 1.377 . S
C2489 C2488 1.524 . S
C2489 C2490 1.397 . S
C2489 C2494 1.363 . S
C2490 H2467 0.950 . S
C2490 C2489 1.397 . S
C2490 C2491 1.334 . S
C2491 H2468 0.950 . S
C2491 C2490 1.334 . S
C2491 C2492 1.287 . S
C2492 C2491 1.287 . S
C2492 C2493 1.524 . S
C2492 H2511 0.913 . S
C2493 H2469 0.950 . S
C2493 C2492 1.524 . S
C2493 C2494 1.415 . S
C2494 H2470 0.950 . S
C2494 C2489 1.363 . S
C2494 C2493 1.415 . S
C2495 H2471 0.951 . S
C2495 C2496 1.366 . S
C2495 C2497 1.388 . S
C2496 C2495 1.366 . S
C2496 C2500 1.385 . S
C2497 H2472 0.951 . S
C2497 C2495 1.388 . S
C2497 C2498 1.366 . S
C2498 C2497 1.366 . S
C2498 C2499 1.414 . S
C2498 C2501 1.499 . S
C2499 H2473 0.950 . S
C2499 C2498 1.414 . S
C2499 C2500 1.374 . S
C2500 H2474 0.950 . S
C2500 C2496 1.385 . S
C2500 C2499 1.374 . S
C2501 C2498 1.499 . S
C2501 C2502 1.373 . S
C2501 C2503 1.389 . S
C2502 H2475 0.950 . S
C2502 C2488 1.377 . S
C2502 C2501 1.373 . S
C2503 C2487 1.377 . S
C2503 C2501 1.389 . S
C2503 C2504 1.524 . S
C2504 C2503 1.524 . S
C2504 C2505 1.397 . S
C2504 C2509 1.363 . S
C2505 H2476 0.950 . S
C2505 C2504 1.397 . S
C2505 C2506 1.334 . S
C2506 H2477 0.950 . S
C2506 C2505 1.334 . S
C2506 C2507 1.287 . S
C2507 C2506 1.287 . S
C2507 C2508 1.524 . S
C2507 H2510 0.999 . S
C2508 H2478 0.950 . S
C2508 C2507 1.524 . S
C2508 C2509 1.415 . S
C2509 H2479 0.950 . S
C2509 C2504 1.363 . S
C2509 C2508 1.415 . S
H2510 C2507 0.999 . S
H2511 C2492 0.913 . S
H2512 C2530 0.951 . S
H2513 C2532 0.951 1_554 S
H2514 C2534 0.950 . S
H2515 C2535 0.950 . S
H2516 C2537 0.950 . S
H2517 C2540 0.948 1_556 S
H2518 C2541 0.950 . S
H2519 C2543 0.950 . S
H2520 C2544 0.950 . S
H2521 C2545 0.951 . S
H2522 C2547 0.951 . S
H2523 C2549 0.950 . S
H2524 C2550 0.950 . S
H2525 C2552 0.950 . S
H2526 C2555 0.950 . S
H2527 C2556 0.950 . S
H2528 C2558 0.950 . S
H2529 C2559 0.950 . S
C2530 H2512 0.951 . S
C2530 C2531 1.366 . S
C2530 C2532 1.388 . S
C2531 C2530 1.366 . S
C2531 C2535 1.385 . S
C2532 H2513 0.951 1_556 S
C2532 C2530 1.388 . S
C2532 C2533 1.366 . S
C2533 C2532 1.366 . S
C2533 C2534 1.414 . S
C2533 C2536 1.499 . S
C2534 H2514 0.950 . S
C2534 C2533 1.414 . S
C2534 C2535 1.374 . S
C2535 H2515 0.950 . S
C2535 C2531 1.385 . S
C2535 C2534 1.374 . S
C2536 C2533 1.499 . S
C2536 C2537 1.373 . S
C2536 C2538 1.359 1_556 S
C2537 H2516 0.950 . S
C2537 C2536 1.373 . S
C2537 C2553 1.377 . S
C2538 C2536 1.359 1_554 S
C2538 C2539 1.552 . S
C2538 C2552 1.381 . S
C2539 C2538 1.552 . S
C2539 C2540 1.397 . S
C2539 C2544 1.363 . S
C2540 H2517 0.948 1_554 S
C2540 C2539 1.397 . S
C2540 C2541 1.334 . S
C2541 H2518 0.950 . S
C2541 C2540 1.334 . S
C2541 C2542 1.287 . S
C2542 C2541 1.287 . S
C2542 C2543 1.524 . S
C2542 H2561 0.913 . S
C2543 H2519 0.950 . S
C2543 C2542 1.524 . S
C2543 C2544 1.415 . S
C2544 H2520 0.950 . S
C2544 C2539 1.363 . S
C2544 C2543 1.415 . S
C2545 H2521 0.951 . S
C2545 C2546 1.383 . S
C2545 C2547 1.388 . S
C2546 C2545 1.383 . S
C2546 C2550 1.371 1_556 S
C2547 H2522 0.951 . S
C2547 C2545 1.388 . S
C2547 C2548 1.366 . S
C2548 C2547 1.366 . S
C2548 C2549 1.414 1_556 S
C2548 C2551 1.499 . S
C2549 H2523 0.950 . S
C2549 C2548 1.414 1_554 S
C2549 C2550 1.374 . S
C2550 H2524 0.950 . S
C2550 C2546 1.371 1_554 S
C2550 C2549 1.374 . S
C2551 C2548 1.499 . S
C2551 C2552 1.373 1_556 S
C2551 C2553 1.389 . S
C2552 H2525 0.950 . S
C2552 C2538 1.381 . S
C2552 C2551 1.373 1_554 S
C2553 C2537 1.377 . S
C2553 C2551 1.389 . S
C2553 C2554 1.524 . S
C2554 C2553 1.524 . S
C2554 C2555 1.397 . S
C2554 C2559 1.363 . S
C2555 H2526 0.950 . S
C2555 C2554 1.397 . S
C2555 C2556 1.334 . S
C2556 H2527 0.950 . S
C2556 C2555 1.334 . S
C2556 C2557 1.287 . S
C2557 C2556 1.287 . S
C2557 C2558 1.524 . S
C2557 H2560 0.999 . S
C2558 H2528 0.950 . S
C2558 C2557 1.524 . S
C2558 C2559 1.415 . S
C2559 H2529 0.950 . S
C2559 C2554 1.363 . S
C2559 C2558 1.415 . S
H2560 C2557 0.999 . S
H2561 C2542 0.913 . S
H2562 C2580 0.951 . S
H2563 C2582 0.951 . S
H2564 C2584 0.950 . S
H2565 C2585 0.950 . S
H2566 C2587 0.950 . S
H2567 C2590 0.950 . S
H2568 C2591 0.950 . S
H2569 C2593 0.950 . S
H2570 C2594 0.950 . S
H2571 C2595 0.951 . S
H2572 C2597 0.951 . S
H2573 C2599 0.950 . S
H2574 C2600 0.950 . S
H2575 C2602 0.950 . S
H2576 C2605 0.950 . S
H2577 C2606 0.950 . S
H2578 C2608 0.950 . S
H2579 C2609 0.950 . S
C2580 H2562 0.951 . S
C2580 C2581 1.366 . S
C2580 C2582 1.388 . S
C2581 C2580 1.366 . S
C2581 C2585 1.385 . S
C2582 H2563 0.951 . S
C2582 C2580 1.388 . S
C2582 C2583 1.366 . S
C2583 C2582 1.366 . S
C2583 C2584 1.414 . S
C2583 C2586 1.499 . S
C2584 H2564 0.950 . S
C2584 C2583 1.414 . S
C2584 C2585 1.374 . S
C2585 H2565 0.950 . S
C2585 C2581 1.385 . S
C2585 C2584 1.374 . S
C2586 C2583 1.499 . S
C2586 C2587 1.373 . S
C2586 C2588 1.389 . S
C2587 H2566 0.950 . S
C2587 C2586 1.373 . S
C2587 C2603 1.377 . S
C2588 C2586 1.389 . S
C2588 C2589 1.524 . S
C2588 C2602 1.377 . S
C2589 C2588 1.524 . S
C2589 C2590 1.397 . S
C2589 C2594 1.363 . S
C2590 H2567 0.950 . S
C2590 C2589 1.397 . S
C2590 C2591 1.334 . S
C2591 H2568 0.950 . S
C2591 C2590 1.334 . S
C2591 C2592 1.287 . S
C2592 C2591 1.287 . S
C2592 C2593 1.524 . S
C2592 H2611 0.913 . S
C2593 H2569 0.950 . S
C2593 C2592 1.524 . S
C2593 C2594 1.415 . S
C2594 H2570 0.950 . S
C2594 C2589 1.363 . S
C2594 C2593 1.415 . S
C2595 H2571 0.951 . S
C2595 C2596 1.366 . S
C2595 C2597 1.388 . S
C2596 C2595 1.366 . S
C2596 C2600 1.385 . S
C2597 H2572 0.951 . S
C2597 C2595 1.388 . S
C2597 C2598 1.366 . S
C2598 C2597 1.366 . S
C2598 C2599 1.414 . S
C2598 C2601 1.499 . S
C2599 H2573 0.950 . S
C2599 C2598 1.414 . S
C2599 C2600 1.374 . S
C2600 H2574 0.950 . S
C2600 C2596 1.385 . S
C2600 C2599 1.374 . S
C2601 C2598 1.499 . S
C2601 C2602 1.373 . S
C2601 C2603 1.389 . S
C2602 H2575 0.950 . S
C2602 C2588 1.377 . S
C2602 C2601 1.373 . S
C2603 C2587 1.377 . S
C2603 C2601 1.389 . S
C2603 C2604 1.524 . S
C2604 C2603 1.524 . S
C2604 C2605 1.397 . S
C2604 C2609 1.363 . S
C2605 H2576 0.950 . S
C2605 C2604 1.397 . S
C2605 C2606 1.334 . S
C2606 H2577 0.950 . S
C2606 C2605 1.334 . S
C2606 C2607 1.287 . S
C2607 C2606 1.287 . S
C2607 C2608 1.524 . S
C2607 H2610 0.999 . S
C2608 H2578 0.950 . S
C2608 C2607 1.524 . S
C2608 C2609 1.415 . S
C2609 H2579 0.950 . S
C2609 C2604 1.363 . S
C2609 C2608 1.415 . S
H2610 C2607 0.999 . S
H2611 C2592 0.913 . S
H2612 C2630 0.951 . S
H2613 C2632 0.951 . S
H2614 C2634 0.950 . S
H2615 C2635 0.950 . S
H2616 C2637 0.950 . S
H2617 C2640 0.950 . S
H2618 C2641 0.950 . S
H2619 C2643 0.950 . S
H2620 C2644 0.950 . S
H2621 C2645 0.951 . S
H2622 C2647 0.951 . S
H2623 C2649 0.950 1_556 S
H2624 C2650 0.950 1_556 S
H2625 C2652 0.950 . S
H2626 C2655 0.950 . S
H2627 C2656 0.950 . S
H2628 C2658 0.950 . S
H2629 C2659 0.950 . S
C2630 H2612 0.951 . S
C2630 C2631 1.366 . S
C2630 C2632 1.388 . S
C2631 C2630 1.366 . S
C2631 C2635 1.385 . S
C2632 H2613 0.951 . S
C2632 C2630 1.388 . S
C2632 C2633 1.366 . S
C2633 C2632 1.366 . S
C2633 C2634 1.414 . S
C2633 C2636 1.499 . S
C2634 H2614 0.950 . S
C2634 C2633 1.414 . S
C2634 C2635 1.374 . S
C2635 H2615 0.950 . S
C2635 C2631 1.385 . S
C2635 C2634 1.374 . S
C2636 C2633 1.499 . S
C2636 C2637 1.373 . S
C2636 C2638 1.389 . S
C2637 H2616 0.950 . S
C2637 C2636 1.373 . S
C2637 C2653 1.377 . S
C2638 C2636 1.389 . S
C2638 C2639 1.524 . S
C2638 C2652 1.377 . S
C2639 C2638 1.524 . S
C2639 C2640 1.397 . S
C2639 C2644 1.363 1_554 S
C2640 H2617 0.950 . S
C2640 C2639 1.397 . S
C2640 C2641 1.334 . S
C2641 H2618 0.950 . S
C2641 C2640 1.334 . S
C2641 C2642 1.287 1_554 S
C2642 C2641 1.287 1_556 S
C2642 C2643 1.524 . S
C2642 H2661 0.913 . S
C2643 H2619 0.950 . S
C2643 C2642 1.524 . S
C2643 C2644 1.415 . S
C2644 H2620 0.950 . S
C2644 C2639 1.363 1_556 S
C2644 C2643 1.415 . S
C2645 H2621 0.951 . S
C2645 C2646 1.366 . S
C2645 C2647 1.388 . S
C2646 C2645 1.366 . S
C2646 C2650 1.385 . S
C2647 H2622 0.951 . S
C2647 C2645 1.388 . S
C2647 C2648 1.366 . S
C2648 C2647 1.366 . S
C2648 C2649 1.414 . S
C2648 C2651 1.499 . S
C2649 H2623 0.950 1_554 S
C2649 C2648 1.414 . S
C2649 C2650 1.374 . S
C2650 H2624 0.950 1_554 S
C2650 C2646 1.385 . S
C2650 C2649 1.374 . S
C2651 C2648 1.499 . S
C2651 C2652 1.373 . S
C2651 C2653 1.389 . S
C2652 H2625 0.950 . S
C2652 C2638 1.377 . S
C2652 C2651 1.373 . S
C2653 C2637 1.377 . S
C2653 C2651 1.389 . S
C2653 C2654 1.524 . S
C2654 C2653 1.524 . S
C2654 C2655 1.397 . S
C2654 C2659 1.363 . S
C2655 H2626 0.950 . S
C2655 C2654 1.397 . S
C2655 C2656 1.334 . S
C2656 H2627 0.950 . S
C2656 C2655 1.334 . S
C2656 C2657 1.287 . S
C2657 C2656 1.287 . S
C2657 C2658 1.524 . S
C2657 H2660 0.999 . S
C2658 H2628 0.950 . S
C2658 C2657 1.524 . S
C2658 C2659 1.415 . S
C2659 H2629 0.950 . S
C2659 C2654 1.363 . S
C2659 C2658 1.415 . S
H2660 C2657 0.999 . S
H2661 C2642 0.913 . S
H2662 C2680 0.951 1_556 S
H2663 C2682 0.950 1_546 S
H2664 C2684 0.950 . S
H2665 C2685 0.950 . S
H2666 C2687 0.950 . S
H2667 C2690 0.922 1_554 S
H2668 C2691 0.950 . S
H2669 C2693 0.950 . S
H2670 C2694 0.950 . S
H2671 C2695 0.951 . S
H2672 C2697 0.951 . S
H2673 C2699 0.950 . S
H2674 C2700 0.950 . S
H2675 C2702 0.950 . S
H2676 C2705 0.950 . S
H2677 C2706 0.950 . S
H2678 C2708 0.950 . S
H2679 C2709 0.950 . S
C2680 H2662 0.951 1_554 S
C2680 C2681 1.366 . S
C2680 C2682 1.386 1_545 S
C2681 C2680 1.366 . S
C2681 C2685 1.385 1_545 S
C2682 H2663 0.950 1_564 S
C2682 C2680 1.386 1_565 S
C2682 C2683 1.368 . S
C2683 C2682 1.368 . S
C2683 C2684 1.414 . S
C2683 C2686 1.499 . S
C2684 H2664 0.950 . S
C2684 C2683 1.414 . S
C2684 C2685 1.374 . S
C2685 H2665 0.950 . S
C2685 C2681 1.385 1_565 S
C2685 C2684 1.374 . S
C2686 C2683 1.499 . S
C2686 C2687 1.373 . S
C2686 C2688 1.392 . S
C2687 H2666 0.950 . S
C2687 C2686 1.373 . S
C2687 C2703 1.377 . S
C2688 C2686 1.392 . S
C2688 C2689 1.522 1_554 S
C2688 C2702 1.376 1_554 S
C2689 C2688 1.522 1_556 S
C2689 C2690 1.397 . S
C2689 C2694 1.363 . S
C2690 H2667 0.922 1_556 S
C2690 C2689 1.397 . S
C2690 C2691 1.334 . S
C2691 H2668 0.950 . S
C2691 C2690 1.334 . S
C2691 C2692 1.287 . S
C2692 C2691 1.287 . S
C2692 C2693 1.524 . S
C2692 H2711 0.913 . S
C2693 H2669 0.950 . S
C2693 C2692 1.524 . S
C2693 C2694 1.415 . S
C2694 H2670 0.950 . S
C2694 C2689 1.363 . S
C2694 C2693 1.415 . S
C2695 H2671 0.951 . S
C2695 C2696 1.366 . S
C2695 C2697 1.388 . S
C2696 C2695 1.366 . S
C2696 C2700 1.385 1_554 S
C2697 H2672 0.951 . S
C2697 C2695 1.388 . S
C2697 C2698 1.366 . S
C2698 C2697 1.366 . S
C2698 C2699 1.414 1_554 S
C2698 C2701 1.499 . S
C2699 H2673 0.950 . S
C2699 C2698 1.414 1_556 S
C2699 C2700 1.374 . S
C2700 H2674 0.950 . S
C2700 C2696 1.385 1_556 S
C2700 C2699 1.374 . S
C2701 C2698 1.499 . S
C2701 C2702 1.373 1_554 S
C2701 C2703 1.389 . S
C2702 H2675 0.950 . S
C2702 C2688 1.376 1_556 S
C2702 C2701 1.373 1_556 S
C2703 C2687 1.377 . S
C2703 C2701 1.389 . S
C2703 C2704 1.524 . S
C2704 C2703 1.524 . S
C2704 C2705 1.397 . S
C2704 C2709 1.363 . S
C2705 H2676 0.950 . S
C2705 C2704 1.397 . S
C2705 C2706 1.334 . S
C2706 H2677 0.950 . S
C2706 C2705 1.334 . S
C2706 C2707 1.287 . S
C2707 C2706 1.287 . S
C2707 C2708 1.524 . S
C2707 H2710 0.999 . S
C2708 H2678 0.950 . S
C2708 C2707 1.524 . S
C2708 C2709 1.415 . S
C2709 H2679 0.950 . S
C2709 C2704 1.363 . S
C2709 C2708 1.415 . S
H2710 C2707 0.999 . S
H2711 C2692 0.913 . S
C346 C155 1.449 . S
C331 C50 1.470 . S
C396 C163 1.280 . S
C381 C61 1.527 . S
C431 C67 1.439 . S
C446 C183 1.415 . S
C496 C197 1.496 . S
C481 C41 1.519 . S
C546 C212 1.525 . S
C531 C95 1.526 . S
C596 C226 1.510 . S
C581 C113 1.508 . S
C631 C106 1.554 . S
C646 C240 1.553 . S
C696 C246 1.449 . S
C681 C86 1.490 . S
C731 C104 1.516 . S
C746 C260 1.478 . S
C796 C281 1.534 . S
C781 C88 1.560 . S
C831 C94 1.479 . S
C846 C261 1.241 . S
C896 C282 1.519 . S
C881 C112 1.517 . S
C931 C70 1.467 . S
C946 C289 1.225 . S
C981 C40 1.514 . S
C996 C295 1.493 . S
C1031 C49 1.511 . S
C1046 C288 1.472 . S
C1081 C59 1.481 . S
C1096 C296 1.482 . S
C1131 C34 1.490 . S
C1146 C190 1.450 . S
C1181 C133 1.488 . S
C1196 C191 1.250 . S
C1246 C148 1.518 . S
C1231 C139 1.560 . S
C1296 C169 1.439 . S
C1281 C77 1.463 . S
C1331 C43 1.479 . S
C1346 C204 1.441 . S
C1396 C254 1.531 . S
C1381 C103 1.531 . S
C1446 C205 1.229 . S
C1431 C85 1.466 . S
C1496 C233 1.270 . S
C1481 C115 1.527 . S
C1546 C239 1.449 . S
C1531 C131 1.470 . S
C1581 C142 1.527 . S
C1596 C247 1.279 . S
C1631 C76 1.438 . S
C1646 C211 1.414 . S
C1696 C225 1.497 . S
C1681 C122 1.519 . S
C1731 C32 1.526 . S
C1746 C184 1.525 . S
C1796 C198 1.511 . S
C1781 C5 1.508 . S
C1846 C156 1.553 . S
C1831 C16 1.554 . S
C1896 C162 1.449 . S
C1881 C23 1.490 1_455 S
C1931 C14 1.516 . S
C1946 C274 1.478 . S
C1981 C25 1.561 . S
C1996 C267 1.534 . S
C2031 C31 1.479 . S
C2046 C275 1.242 . S
C2081 C4 1.517 . S
C2096 C268 1.519 . S
C2146 C303 1.227 . S
C2131 C79 1.467 . S
C2196 C309 1.493 . S
C2181 C121 1.514 . S
C2246 C302 1.472 . S
C2231 C130 1.512 . S
C2281 C140 1.481 . S
C2296 C310 1.482 . S
C2331 C97 1.490 . S
C2346 C218 1.451 . S
C2396 C219 1.251 . S
C2381 C52 1.488 . S
C2446 C232 1.519 . S
C2431 C58 1.560 . S
C2496 C253 1.439 . S
C2481 C68 1.464 . S
C2531 C124 1.478 . S
C2546 C176 1.439 1_556 S
C2596 C170 1.531 . S
C2581 C13 1.531 . S
C2631 C22 1.465 . S
C2646 C177 1.228 . S
C2696 C149 1.269 . S
C2681 C7 1.526 . S
