# Generated by pormake.
# Topology sqc, (4,8)-cn, num edge types: 1
# Building blocks:
#     Node 0, Type 0, BuildingBlock: AZAVOO_clean_linker_0, # of connection points: 4
#     Node 1, Type 0, BuildingBlock: AZAVOO_clean_linker_0, # of connection points: 4
#     Node 2, Type 0, BuildingBlock: AZAVOO_clean_linker_0, # of connection points: 4
#     Node 3, Type 0, BuildingBlock: AZAVOO_clean_linker_0, # of connection points: 4
#     Node 4, Type 0, BuildingBlock: AZAVOO_clean_linker_0, # of connection points: 4
#     Node 5, Type 0, BuildingBlock: AZAVOO_clean_linker_0, # of connection points: 4
#     Node 6, Type 0, BuildingBlock: AZAVOO_clean_linker_0, # of connection points: 4
#     Node 7, Type 0, BuildingBlock: AZAVOO_clean_linker_0, # of connection points: 4
#     Node 8, Type 1, BuildingBlock: TAGTUT_clean_sbu_3, # of connection points: 8
#     Node 9, Type 1, BuildingBlock: TAGTUT_clean_sbu_3, # of connection points: 8
#     Node 10, Type 1, BuildingBlock: TAGTUT_clean_sbu_3, # of connection points: 8
#     Node 11, Type 1, BuildingBlock: TAGTUT_clean_sbu_3, # of connection points: 8
#     Edge 12, Type (0, 1), BuildingBlock: KIFKEQ_clean_linker_1, # of connection points: 2
#     Edge 13, Type (0, 1), BuildingBlock: KIFKEQ_clean_linker_1, # of connection points: 2
#     Edge 14, Type (0, 1), BuildingBlock: KIFKEQ_clean_linker_1, # of connection points: 2
#     Edge 15, Type (0, 1), BuildingBlock: KIFKEQ_clean_linker_1, # of connection points: 2
#     Edge 16, Type (0, 1), BuildingBlock: KIFKEQ_clean_linker_1, # of connection points: 2
#     Edge 17, Type (0, 1), BuildingBlock: KIFKEQ_clean_linker_1, # of connection points: 2
#     Edge 18, Type (0, 1), BuildingBlock: KIFKEQ_clean_linker_1, # of connection points: 2
#     Edge 19, Type (0, 1), BuildingBlock: KIFKEQ_clean_linker_1, # of connection points: 2
#     Edge 20, Type (0, 1), BuildingBlock: KIFKEQ_clean_linker_1, # of connection points: 2
#     Edge 21, Type (0, 1), BuildingBlock: KIFKEQ_clean_linker_1, # of connection points: 2
#     Edge 22, Type (0, 1), BuildingBlock: KIFKEQ_clean_linker_1, # of connection points: 2
#     Edge 23, Type (0, 1), BuildingBlock: KIFKEQ_clean_linker_1, # of connection points: 2
#     Edge 24, Type (0, 1), BuildingBlock: KIFKEQ_clean_linker_1, # of connection points: 2
#     Edge 25, Type (0, 1), BuildingBlock: KIFKEQ_clean_linker_1, # of connection points: 2
#     Edge 26, Type (0, 1), BuildingBlock: KIFKEQ_clean_linker_1, # of connection points: 2
#     Edge 27, Type (0, 1), BuildingBlock: KIFKEQ_clean_linker_1, # of connection points: 2
#     Edge 28, Type (0, 1), BuildingBlock: KIFKEQ_clean_linker_1, # of connection points: 2
#     Edge 29, Type (0, 1), BuildingBlock: KIFKEQ_clean_linker_1, # of connection points: 2
#     Edge 30, Type (0, 1), BuildingBlock: KIFKEQ_clean_linker_1, # of connection points: 2
#     Edge 31, Type (0, 1), BuildingBlock: KIFKEQ_clean_linker_1, # of connection points: 2
#     Edge 32, Type (0, 1), BuildingBlock: KIFKEQ_clean_linker_1, # of connection points: 2
#     Edge 33, Type (0, 1), BuildingBlock: KIFKEQ_clean_linker_1, # of connection points: 2
#     Edge 34, Type (0, 1), BuildingBlock: KIFKEQ_clean_linker_1, # of connection points: 2
#     Edge 35, Type (0, 1), BuildingBlock: KIFKEQ_clean_linker_1, # of connection points: 2
#     Edge 36, Type (0, 1), BuildingBlock: KIFKEQ_clean_linker_1, # of connection points: 2
#     Edge 37, Type (0, 1), BuildingBlock: KIFKEQ_clean_linker_1, # of connection points: 2
#     Edge 38, Type (0, 1), BuildingBlock: KIFKEQ_clean_linker_1, # of connection points: 2
#     Edge 39, Type (0, 1), BuildingBlock: KIFKEQ_clean_linker_1, # of connection points: 2
#     Edge 40, Type (0, 1), BuildingBlock: KIFKEQ_clean_linker_1, # of connection points: 2
#     Edge 41, Type (0, 1), BuildingBlock: KIFKEQ_clean_linker_1, # of connection points: 2
#     Edge 42, Type (0, 1), BuildingBlock: KIFKEQ_clean_linker_1, # of connection points: 2
#     Edge 43, Type (0, 1), BuildingBlock: KIFKEQ_clean_linker_1, # of connection points: 2
# Relax obj value: 0.172
# Max RMSD: 0.267
# Mean RMSD: 0.229
data_MOF--net-sqc--node1-TAGTUT_clean_sbu_3--node2-AZAVOO_clean_linker_0--edge1-KIFKEQ_clean_linker_1
_symmetry_space_group_name_H-M    P1
_symmetry_Int_Tables_number       1
_symmetry_cell_setting            triclinic
loop_
_symmetry_equiv_pos_as_xyz
'x, y, z'
_cell_length_a     26.58843
_cell_length_b     26.576604
_cell_length_c     93.372448
_cell_angle_alpha  91.54112
_cell_angle_beta   89.711454
_cell_angle_gamma 90.617185
loop_
_atom_site_label
_atom_site_type_symbol
_atom_site_fract_x
_atom_site_fract_y
_atom_site_fract_z
_atom_type_partial_charge
H0 H 0.04139 0.16704 0.60919 0.0
H1 H 0.73128 0.86003 0.49539 0.0
H2 H 0.10005 0.12704 0.52524 0.0
H3 H 0.17814 0.16143 0.53521 0.0
H4 H 0.20946 0.01653 0.55317 0.0
H5 H 0.1336 0.98186 0.54196 0.0
H6 H 0.00218 0.12537 0.5484 0.0
H7 H 0.01363 0.15699 0.57306 0.0
H8 H 0.06762 0.01099 0.58493 0.0
H9 H 0.0558 0.97993 0.56023 0.0
H10 H 0.89465 0.07716 0.53364 0.0
H11 H 0.823 0.07749 0.55012 0.0
H12 H 0.88603 0.95223 0.57218 0.0
H13 H 0.95706 0.95074 0.55516 0.0
H14 H 0.89132 0.05239 0.50615 0.0
H15 H 0.81036 0.02021 0.49729 0.0
H16 H 0.84773 0.87189 0.51163 0.0
H17 H 0.92827 0.90482 0.52064 0.0
H18 H 0.9855 0.0734 0.48975 0.0
H19 H 0.92995 0.06106 0.46911 0.0
H20 H 0.93995 0.90009 0.47324 0.0
H21 H 0.995 0.91276 0.49398 0.0
H22 H 0.11684 0.08631 0.50095 0.0
H23 H 0.19746 0.06954 0.48908 0.0
H24 H 0.16903 0.90954 0.49213 0.0
H25 H 0.09074 0.92693 0.50485 0.0
O26 O 0.03714 0.15379 0.59952 0.0
O27 O 0.06468 0.07806 0.60507 0.0
O28 O 0.74578 0.95069 0.4916 0.0
O29 O 0.76242 0.87402 0.49916 0.0
C30 C 0.06182 0.0328 0.52782 0.0
C31 C 0.02128 0.03174 0.53763 0.0
C32 C 0.97363 0.01415 0.53311 0.0
C33 C 0.96582 -0.00031 0.51869 0.0
C34 C 0.00592 0.00211 0.50874 0.0
C35 C 0.05442 0.01676 0.5134 0.0
C36 C 0.11155 0.05191 0.53276 0.0
C37 C 0.12468 0.10254 0.531 0.0
C38 C 0.16905 0.12226 0.53692 0.0
C39 C 0.20037 0.09214 0.5452 0.0
C40 C 0.18725 0.04094 0.54667 0.0
C41 C 0.14354 0.02097 0.54038 0.0
C42 C 0.02833 0.05052 0.55258 0.0
C43 C 0.01648 0.10037 0.55636 0.0
C44 C 0.02306 0.11827 0.57044 0.0
C45 C 0.0416 0.08652 0.58097 0.0
C46 C 0.05333 0.03645 0.57709 0.0
C47 C 0.04669 0.01862 0.56301 0.0
C48 C 0.93077 0.01389 0.54323 0.0
C49 C 0.89251 0.04919 0.54185 0.0
C50 C 0.85158 0.04908 0.55118 0.0
C51 C 0.84886 0.01434 0.56222 0.0
C52 C 0.88726 0.97897 0.56363 0.0
C53 C 0.92782 0.97841 0.55406 0.0
C54 C 0.91557 0.98085 0.51399 0.0
C55 C 0.88177 0.01304 0.50743 0.0
C56 C 0.83567 0.99452 0.50234 0.0
C57 C 0.8228 0.94334 0.50361 0.0
C58 C 0.85654 0.91142 0.51042 0.0
C59 C 0.90248 0.93011 0.51561 0.0
C60 C 0.99426 0.99398 0.49336 0.0
C61 C 0.978 0.03546 0.48571 0.0
C62 C 0.94559 0.02841 0.47408 0.0
C63 C 0.92995 0.9797 0.4698 0.0
C64 C 0.95148 0.93805 0.47633 0.0
C65 C 0.98342 0.94517 0.48808 0.0
C66 C 0.09843 0.00784 0.50397 0.0
C67 C 0.12829 0.04773 0.49908 0.0
C68 C 0.17416 0.03801 0.49221 0.0
C69 C 0.19037 0.98816 0.48991 0.0
C70 C 0.1587 0.94841 0.49413 0.0
C71 C 0.11342 0.9582 0.50118 0.0
C72 C 0.04857 0.10566 0.59592 0.0
C73 C 0.77462 0.92313 0.49776 0.0
H74 H 0.51087 0.55678 0.70488 0.0
H75 H 0.3082 0.05108 0.79247 0.0
H76 H 0.3031 0.60453 0.76628 0.0
H77 H 0.32284 0.52653 0.7535 0.0
H78 H 0.47582 0.53734 0.76888 0.0
H79 H 0.45551 0.61654 0.78147 0.0
H80 H 0.35612 0.64745 0.74178 0.0
H81 H 0.40897 0.60511 0.72372 0.0
H82 H 0.54169 0.6669 0.74455 0.0
H83 H 0.48835 0.70851 0.76263 0.0
H84 H 0.32048 0.74112 0.74135 0.0
H85 H 0.32989 0.78655 0.71909 0.0
H86 H 0.45072 0.87538 0.7381 0.0
H87 H 0.44194 0.82834 0.76024 0.0
H88 H 0.27658 0.82225 0.76242 0.0
H89 H 0.25261 0.91087 0.76433 0.0
H90 H 0.37047 0.93825 0.79542 0.0
H91 H 0.39455 0.84979 0.79321 0.0
H92 H 0.23648 0.77146 0.7882 0.0
H93 H 0.19777 0.83815 0.80255 0.0
H94 H 0.32646 0.84103 0.83077 0.0
H95 H 0.36636 0.77656 0.81556 0.0
H96 H 0.26256 0.63256 0.7896 0.0
H97 H 0.24682 0.56491 0.80645 0.0
H98 H 0.37825 0.61168 0.83053 0.0
H99 H 0.39473 0.67835 0.81333 0.0
O100 O 0.49062 0.57531 0.7118 0.0
O101 O 0.55758 0.60916 0.72269 0.0
O102 O 0.25939 0.00086 0.77463 0.0
O103 O 0.31785 0.01622 0.79118 0.0
C104 C 0.37124 0.67154 0.77671 0.0
C105 C 0.38711 0.70218 0.76541 0.0
C106 C 0.37411 0.75322 0.7655 0.0
C107 C 0.34918 0.77517 0.7774 0.0
C108 C 0.33436 0.74507 0.78902 0.0
C109 C 0.34506 0.69299 0.78858 0.0
C110 C 0.37779 0.6163 0.77483 0.0
C111 C 0.34009 0.58863 0.7676 0.0
C112 C 0.35172 0.54399 0.76014 0.0
C113 C 0.40136 0.52611 0.75983 0.0
C114 C 0.43752 0.5507 0.76859 0.0
C115 C 0.4258 0.59551 0.77603 0.0
C116 C 0.41847 0.68079 0.75354 0.0
C117 C 0.39658 0.65208 0.74235 0.0
C118 C 0.42688 0.6279 0.73206 0.0
C119 C 0.47959 0.63242 0.73272 0.0
C120 C 0.50125 0.66252 0.74374 0.0
C121 C 0.4709 0.68651 0.75404 0.0
C122 C 0.38071 0.78154 0.75228 0.0
C123 C 0.34923 0.77016 0.74062 0.0
C124 C 0.35442 0.79626 0.72799 0.0
C125 C 0.39103 0.83438 0.72688 0.0
C126 C 0.42268 0.84562 0.73861 0.0
C127 C 0.41754 0.81925 0.75126 0.0
C128 C 0.33739 0.82973 0.77764 0.0
C129 C 0.29766 0.84766 0.76945 0.0
C130 C 0.28386 0.8982 0.77064 0.0
C131 C 0.30951 0.93161 0.78008 0.0
C132 C 0.34988 0.91357 0.78807 0.0
C133 C 0.3638 0.8631 0.78681 0.0
C134 C 0.30431 0.76902 0.80079 0.0
C135 C 0.25548 0.78516 0.7978 0.0
C136 C 0.23345 0.82379 0.80605 0.0
C137 C 0.25926 0.84636 0.81774 0.0
C138 C 0.30598 0.82604 0.8216 0.0
C139 C 0.32845 0.78806 0.81313 0.0
C140 C 0.32965 0.66021 0.80031 0.0
C141 C 0.28744 0.62865 0.79864 0.0
C142 C 0.27883 0.5899 0.80815 0.0
C143 C 0.31184 0.58289 0.8196 0.0
C144 C 0.35246 0.6164 0.82173 0.0
C145 C 0.36161 0.6546 0.81204 0.0
C146 C 0.51177 0.60515 0.72211 0.0
C147 C 0.29398 0.98494 0.78174 0.0
H148 H 0.64118 0.94262 0.11134 0.0
H149 H 0.87682 0.28828 0.99193 0.0
H150 H 0.55441 0.0021 0.04075 0.0
H151 H 0.48954 0.96993 0.0569 0.0
H152 H 0.43637 0.12133 0.0646 0.0
H153 H 0.50168 0.15325 0.04847 0.0
H154 H 0.66102 0.00678 0.05216 0.0
H155 H 0.6598 0.96722 0.07551 0.0
H156 H 0.58328 0.09678 0.09378 0.0
H157 H 0.58573 0.13639 0.07041 0.0
H158 H 0.74465 0.05248 0.03221 0.0
H159 H 0.80762 0.01921 0.04834 0.0
H160 H 0.76074 0.12522 0.08147 0.0
H161 H 0.69922 0.16008 0.06507 0.0
H162 H 0.72984 0.09045 0.00573 0.0
H163 H 0.79961 0.12729 0.99227 0.0
H164 H 0.78863 0.26375 0.01834 0.0
H165 H 0.71897 0.22629 0.03176 0.0
H166 H 0.61819 0.07967 0.99378 0.0
H167 H 0.65676 0.09733 0.97072 0.0
H168 H 0.68727 0.25034 0.9854 0.0
H169 H 0.64469 0.2333 0.00792 0.0
H170 H 0.5362 0.03568 0.01226 0.0
H171 H 0.46688 0.03083 -0.00485 0.0
H172 H 0.45516 0.19306 -0.00264 0.0
H173 H 0.52524 0.19746 0.01426 0.0
O174 O 0.64141 0.95907 0.10222 0.0
O175 O 0.60049 0.02573 0.11098 0.0
O176 O 0.858 0.19957 0.98518 0.0
O177 O 0.85198 0.27151 -0.00224 0.0
C178 C 0.57995 0.10013 0.0373 0.0
C179 C 0.62456 0.09839 0.04538 0.0
C180 C 0.67025 0.11675 0.03963 0.0
C181 C 0.67122 0.13731 0.02591 0.0
C182 C 0.62643 0.13893 0.01776 0.0
C183 C 0.58097 0.11975 0.02344 0.0
C184 C 0.53278 0.07997 0.04354 0.0
C185 C 0.52771 0.02807 0.04557 0.0
C186 C 0.4911 0.00988 0.0549 0.0
C187 C 0.45864 0.0433 0.06217 0.0
C188 C 0.46093 0.09479 0.05911 0.0
C189 C 0.49794 0.11304 0.04986 0.0
C190 C 0.62374 0.07455 0.05963 0.0
C191 C 0.64435 0.02669 0.06125 0.0
C192 C 0.64342 0.00411 0.07458 0.0
C193 C 0.62144 0.02884 0.08652 0.0
C194 C 0.60054 0.07673 0.08481 0.0
C195 C 0.60182 0.09942 0.07149 0.0
C196 C 0.71743 0.10862 0.0475 0.0
C197 C 0.74975 0.07033 0.04268 0.0
C198 C 0.7852 0.05099 0.05193 0.0
C199 C 0.78801 0.06929 0.06612 0.0
C200 C 0.75863 0.11041 0.07057 0.0
C201 C 0.72399 0.13054 0.06121 0.0
C202 C 0.71938 0.15575 0.0197 0.0
C203 C 0.74334 0.12785 0.00873 0.0
C204 C 0.78293 0.14913 0.00099 0.0
C205 C 0.79925 0.19875 0.0041 0.0
C206 C 0.77677 0.2256 0.0156 0.0
C207 C 0.73729 0.20415 0.02338 0.0
C208 C 0.62981 0.15486 0.00265 0.0
C209 C 0.63048 0.11778 0.9917 0.0
C210 C 0.65351 0.12776 0.9786 0.0
C211 C 0.67729 0.17456 0.97644 0.0
C212 C 0.66984 0.21372 0.98666 0.0
C213 C 0.64552 0.20404 -0.00039 0.0
C214 C 0.53554 0.11692 0.01444 0.0
C215 C 0.51797 0.07004 0.00922 0.0
C216 C 0.47838 0.06734 -0.00051 0.0
C217 C 0.45586 0.11158 -0.00515 0.0
C218 C 0.47236 0.15839 0.00058 0.0
C219 C 0.51206 0.16103 0.01027 0.0
C220 C 0.62037 0.00464 0.10066 0.0
C221 C 0.83835 0.22302 -0.00487 0.0
H222 H 0.15394 0.26863 0.18667 0.0
H223 H 0.46967 0.63858 0.27826 0.0
H224 H 0.23553 0.23281 0.27145 0.0
H225 H 0.21028 0.14626 0.26643 0.0
H226 H 0.34073 0.12836 0.23871 0.0
H227 H 0.36908 0.21228 0.24582 0.0
H228 H 0.21684 0.32675 0.24479 0.0
H229 H 0.17636 0.30612 0.22184 0.0
H230 H 0.31969 0.2585 0.20439 0.0
H231 H 0.35964 0.27957 0.22738 0.0
H232 H 0.26615 0.44707 0.25568 0.0
H233 H 0.25447 0.51159 0.23778 0.0
H234 H 0.36587 0.43999 0.2106 0.0
H235 H 0.3797 0.37696 0.22894 0.0
H236 H 0.30278 0.45161 0.28576 0.0
H237 H 0.33096 0.53743 0.29185 0.0
H238 H 0.45848 0.51838 0.26335 0.0
H239 H 0.43023 0.43233 0.25752 0.0
H240 H 0.29405 0.35051 0.30278 0.0
H241 H 0.31368 0.3931 0.32556 0.0
H242 H 0.46377 0.42573 0.31 0.0
H243 H 0.4447 0.3799 0.28766 0.0
H244 H 0.26784 0.25738 0.29402 0.0
H245 H 0.28149 0.19696 0.313 0.0
H246 H 0.43977 0.19429 0.30252 0.0
H247 H 0.42553 0.25288 0.2831 0.0
O248 O 0.17059 0.27619 0.19566 0.0
O249 O 0.24505 0.25159 0.18726 0.0
O250 O 0.3911 0.61287 0.29041 0.0
O251 O 0.45738 0.60495 0.27593 0.0
C252 C 0.31961 0.2817 0.26225 0.0
C253 C 0.3152 0.31806 0.25157 0.0
C254 C 0.33031 0.36844 0.25448 0.0
C255 C 0.34892 0.38267 0.26814 0.0
C256 C 0.35224 0.34651 0.2789 0.0
C257 C 0.3381 0.2961 0.2759 0.0
C258 C 0.30439 0.22869 0.25913 0.0
C259 C 0.25947 0.20936 0.26472 0.0
C260 C 0.24453 0.15983 0.26151 0.0
C261 C 0.2727 0.12928 0.25191 0.0
C262 C 0.31807 0.14926 0.2464 0.0
C263 C 0.33412 0.19798 0.2502 0.0
C264 C 0.291 0.30435 0.23772 0.0
C265 C 0.23932 0.31169 0.23599 0.0
C266 C 0.21636 0.29993 0.22288 0.0
C267 C 0.24479 0.28062 0.21128 0.0
C268 C 0.29668 0.27322 0.21311 0.0
C269 C 0.31957 0.28506 0.22622 0.0
C270 C 0.32353 0.40721 0.24356 0.0
C271 C 0.28862 0.44573 0.24597 0.0
C272 C 0.28212 0.48252 0.23581 0.0
C273 C 0.30961 0.48059 0.22296 0.0
C274 C 0.34454 0.44208 0.22051 0.0
C275 C 0.35201 0.40598 0.23086 0.0
C276 C 0.36461 0.43571 0.27126 0.0
C277 C 0.33679 0.46606 0.28085 0.0
C278 C 0.35294 0.51508 0.28429 0.0
C279 C 0.39708 0.53474 0.27811 0.0
C280 C 0.4244 0.5044 0.26832 0.0
C281 C 0.40828 0.45532 0.26493 0.0
C282 C 0.36785 0.36252 0.29355 0.0
C283 C 0.3318 0.36503 0.30454 0.0
C284 C 0.34289 0.39003 0.31747 0.0
C285 C 0.38991 0.41385 0.31949 0.0
C286 C 0.42727 0.40763 0.30887 0.0
C287 C 0.4164 0.38177 0.29604 0.0
C288 C 0.34549 0.25819 0.28696 0.0
C289 C 0.30513 0.24257 0.29555 0.0
C290 C 0.31299 0.20864 0.30643 0.0
C291 C 0.36157 0.19127 0.3091 0.0
C292 C 0.40202 0.20742 0.30061 0.0
C293 C 0.39394 0.24048 0.28953 0.0
C294 C 0.22036 0.26851 0.19733 0.0
C295 C 0.4148 0.58655 0.28188 0.0
H296 H 0.97679 0.08575 0.19825 0.0
H297 H 0.77712 0.55942 0.29445 0.0
H298 H 0.80218 0.1083 0.26346 0.0
H299 H 0.83663 0.0297 0.25393 0.0
H300 H 0.98244 0.07125 0.27109 0.0
H301 H 0.94718 0.15017 0.28069 0.0
H302 H 0.83287 0.17945 0.23806 0.0
H303 H 0.88087 0.13846 0.21866 0.0
H304 H 0.01918 0.17676 0.24078 0.0
H305 H 0.97063 0.2176 0.26008 0.0
H306 H 0.78419 0.30411 0.24386 0.0
H307 H 0.80037 0.35939 0.22396 0.0
H308 H 0.95884 0.36197 0.23451 0.0
H309 H 0.94095 0.31087 0.25527 0.0
H310 H 0.73462 0.33071 0.26547 0.0
H311 H 0.70759 0.41752 0.26981 0.0
H312 H 0.84649 0.45002 0.29229 0.0
H313 H 0.87304 0.36305 0.28784 0.0
H314 H 0.705 0.2665 0.28512 0.0
H315 H 0.65785 0.32462 0.30087 0.0
H316 H 0.78756 0.34189 0.32824 0.0
H317 H 0.83504 0.28518 0.31218 0.0
H318 H 0.73297 0.15596 0.28611 0.0
H319 H 0.7096 0.08346 0.30049 0.0
H320 H 0.85377 0.09279 0.3216 0.0
H321 H 0.87678 0.16534 0.30713 0.0
O322 O 0.95865 0.10383 0.20575 0.0
O323 O 0.02874 0.12551 0.21737 0.0
O324 O 0.71701 0.50685 0.28039 0.0
O325 O 0.78752 0.52529 0.29222 0.0
C326 C 0.85577 0.18769 0.27392 0.0
C327 C 0.86879 0.22086 0.26288 0.0
C328 C 0.85066 0.27048 0.26326 0.0
C329 C 0.82041 0.28711 0.27486 0.0
C330 C 0.80596 0.25329 0.28566 0.0
C331 C 0.82351 0.20341 0.28517 0.0
C332 C 0.87236 0.13484 0.27262 0.0
C333 C 0.84094 0.09933 0.26574 0.0
C334 C 0.86081 0.05444 0.2603 0.0
C335 C 0.91247 0.04469 0.26161 0.0
C336 C 0.94266 0.07813 0.26981 0.0
C337 C 0.92256 0.12292 0.27537 0.0
C338 C 0.89835 0.20172 0.25038 0.0
C339 C 0.87357 0.17963 0.23855 0.0
C340 C 0.90108 0.15599 0.22755 0.0
C341 C 0.95387 0.15413 0.2282 0.0
C342 C 0.97858 0.17749 0.23994 0.0
C343 C 0.95101 0.20109 0.25093 0.0
C344 C 0.86124 0.30405 0.25113 0.0
C345 C 0.8222 0.31757 0.24203 0.0
C346 C 0.83182 0.34844 0.23045 0.0
C347 C 0.88108 0.3653 0.22746 0.0
C348 C 0.92026 0.3508 0.23655 0.0
C349 C 0.91029 0.32103 0.24836 0.0
C350 C 0.80594 0.34082 0.27624 0.0
C351 C 0.75947 0.35687 0.27112 0.0
C352 C 0.74401 0.40639 0.2737 0.0
C353 C 0.77485 0.44071 0.28143 0.0
C354 C 0.82183 0.4246 0.28631 0.0
C355 C 0.83721 0.37506 0.28372 0.0
C356 C 0.77341 0.27189 0.29752 0.0
C357 C 0.72256 0.28131 0.29482 0.0
C358 C 0.6959 0.3148 0.3037 0.0
C359 C 0.71945 0.33801 0.3156 0.0
C360 C 0.76867 0.32431 0.31912 0.0
C361 C 0.79565 0.29164 0.31006 0.0
C362 C 0.80628 0.16619 0.29571 0.0
C363 C 0.75898 0.14304 0.29408 0.0
C364 C 0.74603 0.10125 0.30214 0.0
C365 C 0.78011 0.08211 0.31205 0.0
C366 C 0.82669 0.1068 0.31409 0.0
C367 C 0.83978 0.14833 0.30591 0.0
C368 C 0.98285 0.12714 0.2168 0.0
C369 C 0.75792 0.4929 0.28459 0.0
H370 H 0.71543 0.93586 0.68603 0.0
H371 H 0.76107 0.50493 0.7994 0.0
H372 H 0.8912 0.91638 0.751 0.0
H373 H 0.88193 0.99188 0.7368 0.0
H374 H 0.72899 0.00679 0.75217 0.0
H375 H 0.73932 0.93249 0.76658 0.0
H376 H 0.83624 0.84542 0.73051 0.0
H377 H 0.79813 0.88023 0.70917 0.0
H378 H 0.6531 0.87933 0.73035 0.0
H379 H 0.69194 0.84547 0.7517 0.0
H380 H 0.84229 0.71138 0.74466 0.0
H381 H 0.81075 0.63212 0.73471 0.0
H382 H 0.65879 0.67576 0.74606 0.0
H383 H 0.69203 0.75337 0.75726 0.0
H384 H 0.89088 0.69771 0.77278 0.0
H385 H 0.88789 0.61039 0.78045 0.0
H386 H 0.73139 0.62808 0.7922 0.0
H387 H 0.7352 0.7156 0.78471 0.0
H388 H 0.93971 0.7848 0.78504 0.0
H389 H 0.97857 0.74162 0.80496 0.0
H390 H 0.83649 0.74321 0.82761 0.0
H391 H 0.79812 0.78669 0.80768 0.0
H392 H 0.93879 0.88258 0.77893 0.0
H393 H 0.97504 0.94421 0.79617 0.0
H394 H 0.8262 0.97316 0.8132 0.0
H395 H 0.79084 0.91103 0.79623 0.0
O396 O 0.72931 0.91997 0.6943 0.0
O397 O 0.65472 0.91398 0.70505 0.0
O398 O 0.84431 0.53267 0.79054 0.0
O399 O 0.76348 0.53949 0.79645 0.0
C400 C 0.81596 0.86626 0.76451 0.0
C401 C 0.79121 0.82867 0.75614 0.0
C402 C 0.79088 0.77859 0.76063 0.0
C403 C 0.81499 0.7658 0.77344 0.0
C404 C 0.84042 0.80313 0.78164 0.0
C405 C 0.84077 0.85327 0.77715 0.0
C406 C 0.81579 0.91894 0.7597 0.0
C407 C 0.85652 0.93734 0.75175 0.0
C408 C 0.85091 0.98009 0.74353 0.0
C409 C 0.80442 0.00486 0.74314 0.0
C410 C 0.76542 0.989 0.75228 0.0
C411 C 0.77116 0.94643 0.76052 0.0
C412 C 0.7667 0.84228 0.74255 0.0
C413 C 0.7961 0.85191 0.73041 0.0
C414 C 0.77427 0.8721 0.71828 0.0
C415 C 0.72258 0.88269 0.71807 0.0
C416 C 0.69299 0.87154 0.73014 0.0
C417 C 0.71496 0.85169 0.7423 0.0
C418 C 0.76933 0.73799 0.75152 0.0
C419 C 0.80209 0.70418 0.7447 0.0
C420 C 0.78382 0.65887 0.739 0.0
C421 C 0.7321 0.64728 0.73961 0.0
C422 C 0.69892 0.68296 0.74568 0.0
C423 C 0.71758 0.72784 0.75177 0.0
C424 C 0.81335 0.71296 0.77829 0.0
C425 C 0.85615 0.68275 0.77714 0.0
C426 C 0.85426 0.63285 0.78147 0.0
C427 C 0.80936 0.61224 0.78693 0.0
C428 C 0.76655 0.64275 0.78804 0.0
C429 C 0.76858 0.69271 0.78378 0.0
C430 C 0.8662 0.78886 0.79496 0.0
C431 C 0.91753 0.77745 0.79454 0.0
C432 C 0.93949 0.75244 0.80585 0.0
C433 C 0.91043 0.73867 0.81778 0.0
C434 C 0.85994 0.75373 0.81863 0.0
C435 C 0.83793 0.7785 0.80727 0.0
C436 C 0.86248 0.89274 0.7865 0.0
C437 C 0.9143 0.90257 0.78638 0.0
C438 C 0.93477 0.93759 0.79615 0.0
C439 C 0.90338 0.96273 0.80608 0.0
C440 C 0.85128 0.95344 0.80585 0.0
C441 C 0.83099 0.91853 0.79613 0.0
C442 C 0.69995 0.90632 0.70543 0.0
C443 C 0.80699 0.55909 0.79141 0.0
H444 H 0.50525 0.33283 0.94691 0.0
H445 H 0.83369 0.5682 0.0688 0.0
H446 H 0.46409 0.5576 0.99363 0.0
H447 H 0.38667 0.5424 0.98048 0.0
H448 H 0.32311 0.46723 0.01705 0.0
H449 H 0.40271 0.4803 0.02985 0.0
H450 H 0.55675 0.50288 0.98535 0.0
H451 H 0.54222 0.4399 0.96618 0.0
H452 H 0.46783 0.34337 -0.00355 0.0
H453 H 0.48304 0.40651 0.01555 0.0
H454 H 0.64262 0.54854 4e-05 0.0
H455 H 0.71743 0.51213 0.98895 0.0
H456 H 0.6881 0.37249 0.01034 0.0
H457 H 0.61264 0.40986 0.02157 0.0
H458 H 0.65345 0.61326 0.02152 0.0
H459 H 0.73694 0.63251 0.03126 0.0
H460 H 0.71959 0.51049 0.06067 0.0
H461 H 0.63644 0.49112 0.05062 0.0
H462 H 0.56419 0.66589 0.03207 0.0
H463 H 0.61956 0.71905 0.04705 0.0
H464 H 0.61354 0.60807 0.07997 0.0
H465 H 0.55861 0.55514 0.0649 0.0
H466 H 0.43359 0.63088 0.02204 0.0
H467 H 0.35472 0.65821 0.03352 0.0
H468 H 0.38403 0.56133 0.0689 0.0
H469 H 0.46188 0.53381 0.0573 0.0
O470 O 0.51072 0.35716 0.95466 0.0
O471 O 0.4732 0.3088 0.97068 0.0
O472 O 0.81001 0.62044 0.04847 0.0
O473 O 0.80162 0.5602 0.06441 0.0
C474 C 0.48913 0.5241 0.01956 0.0
C475 C 0.53003 0.49717 0.01352 0.0
C476 C 0.57902 0.50602 0.01874 0.0
C477 C 0.5872 0.54117 0.03004 0.0
C478 C 0.54627 0.5672 0.03634 0.0
C479 C 0.49703 0.55808 0.03128 0.0
C480 C 0.43915 0.51966 0.01262 0.0
C481 C 0.43326 0.53823 -0.00115 0.0
C482 C 0.38855 0.53 0.99141 0.0
C483 C 0.34826 0.50359 -0.00233 0.0
C484 C 0.3535 0.48711 0.01181 0.0
C485 C 0.39875 0.49484 0.0192 0.0
C486 C 0.52129 0.45904 0.00185 0.0
C487 C 0.53766 0.46795 0.98783 0.0
C488 C 0.52913 0.43198 0.97689 0.0
C489 C 0.50393 0.38653 0.97978 0.0
C490 C 0.4874 0.37791 0.99386 0.0
C491 C 0.49601 0.4139 0.00478 0.0
C492 C 0.6227 0.48191 0.01166 0.0
C493 C 0.65253 0.51021 0.00241 0.0
C494 C 0.6954 0.48947 -0.00381 0.0
C495 C 0.70912 0.43982 -0.00096 0.0
C496 C 0.6785 0.41097 0.00808 0.0
C497 C 0.63555 0.43208 0.01443 0.0
C498 C 0.63907 0.55083 0.03538 0.0
C499 C 0.66803 0.59042 0.02995 0.0
C500 C 0.7156 0.60141 0.03557 0.0
C501 C 0.7348 0.57326 0.04682 0.0
C502 C 0.70587 0.53304 0.05205 0.0
C503 C 0.65848 0.52178 0.04632 0.0
C504 C 0.55743 0.60667 0.0474 0.0
C505 C 0.57246 0.65444 0.04285 0.0
C506 C 0.60477 0.68436 0.05131 0.0
C507 C 0.62164 0.66717 0.06453 0.0
C508 C 0.60109 0.62235 0.06984 0.0
C509 C 0.56922 0.59222 0.06131 0.0
C510 C 0.45342 0.58053 0.03888 0.0
C511 C 0.42314 0.61619 0.03236 0.0
C512 C 0.37816 0.63158 0.03889 0.0
C513 C 0.36285 0.61126 0.05199 0.0
C514 C 0.39427 0.57681 0.05866 0.0
C515 C 0.43911 0.56164 0.05217 0.0
C516 C 0.49493 0.34838 0.96815 0.0
C517 C 0.78445 0.58613 0.05322 0.0
H518 H 0.1088 0.3596 0.60305 0.0
H519 H 0.40712 0.66618 0.48879 0.0
H520 H 0.01294 0.47407 0.53512 0.0
H521 H 0.94734 0.45222 0.55244 0.0
H522 H 0.96689 0.59722 0.5737 0.0
H523 H 0.03109 0.61983 0.55592 0.0
H524 H 0.11034 0.43843 0.54515 0.0
H525 H 0.10818 0.39163 0.56739 0.0
H526 H 0.11992 0.53185 0.59182 0.0
H527 H 0.12233 0.57806 0.56946 0.0
H528 H 0.20178 0.4555 0.52872 0.0
H529 H 0.27067 0.41312 0.54077 0.0
H530 H 0.29601 0.54708 0.56721 0.0
H531 H 0.2277 0.58896 0.55501 0.0
H532 H 0.20954 0.5171 0.50174 0.0
H533 H 0.28729 0.53359 0.48842 0.0
H534 H 0.31254 0.66844 0.51446 0.0
H535 H 0.23498 0.65107 0.52781 0.0
H536 H 0.1106 0.55507 0.48963 0.0
H537 H 0.15534 0.58615 0.46867 0.0
H538 H 0.19682 0.72129 0.49279 0.0
H539 H 0.15007 0.69086 0.51335 0.0
H540 H 0.01153 0.51231 0.51224 0.0
H541 H 0.94304 0.52388 0.49562 0.0
H542 H 0.97244 0.68446 0.49689 0.0
H543 H 0.03781 0.67264 0.51473 0.0
O544 O 0.10953 0.37885 0.5944 0.0
O545 O 0.11472 0.45199 0.60647 0.0
O546 O 0.3666 0.5845 0.48254 0.0
O547 O 0.37739 0.6577 0.49428 0.0
C548 C 0.07355 0.55723 0.53613 0.0
C549 C 0.1182 0.5396 0.54225 0.0
C550 C 0.1646 0.54744 0.53535 0.0
C551 C 0.16736 0.57521 0.52284 0.0
C552 C 0.12291 0.59337 0.51668 0.0
C553 C 0.07562 0.58266 0.52301 0.0
C554 C 0.02564 0.5492 0.54396 0.0
C555 C 0.00122 0.50216 0.54303 0.0
C556 C 0.96434 0.48944 0.55305 0.0
C557 C 0.95243 0.52303 0.56439 0.0
C558 C 0.97558 0.57076 0.56503 0.0
C559 C 0.01162 0.58392 0.5548 0.0
C560 C 0.11637 0.51149 0.55576 0.0
C561 C 0.11241 0.45886 0.55533 0.0
C562 C 0.11118 0.43229 0.56804 0.0
C563 C 0.11386 0.458 0.58138 0.0
C564 C 0.11777 0.51089 0.58173 0.0
C565 C 0.11912 0.53738 0.569 0.0
C566 C 0.21018 0.52496 0.54111 0.0
C567 C 0.22314 0.47579 0.53691 0.0
C568 C 0.26211 0.45173 0.5438 0.0
C569 C 0.28848 0.47685 0.5549 0.0
C570 C 0.2768 0.5271 0.55854 0.0
C571 C 0.23777 0.551 0.55168 0.0
C572 C 0.21674 0.58299 0.51568 0.0
C573 C 0.23231 0.54981 0.50465 0.0
C574 C 0.2766 0.55943 0.49704 0.0
C575 C 0.30595 0.60257 0.50031 0.0
C576 C 0.29072 0.63504 0.51163 0.0
C577 C 0.24661 0.62513 0.5193 0.0
C578 C 0.12781 0.62041 0.50305 0.0
C579 C 0.12677 0.59267 0.49008 0.0
C580 C 0.15316 0.61018 0.4782 0.0
C581 C 0.18134 0.65532 0.47924 0.0
C582 C 0.17585 0.6863 0.49159 0.0
C583 C 0.14888 0.66904 0.50338 0.0
C584 C 0.02921 0.59165 0.51487 0.0
C585 C 0.00164 0.55021 0.50947 0.0
C586 C 0.96326 0.55684 0.49965 0.0
C587 C 0.95282 0.605 0.49463 0.0
C588 C 0.97905 0.64684 0.50057 0.0
C589 C 0.01666 0.64021 0.51072 0.0
C590 C 0.11272 0.42964 0.59486 0.0
C591 C 0.35183 0.61412 0.49184 0.0
C592 C 0.12738 0.69957 0.1581 0.0
C593 C 0.94745 0.63026 0.15604 0.0
C594 C 0.92466 0.74116 0.12302 0.0
Mg595 Mg 0.17615 0.806 0.15181 0.0
Mg596 Mg 0.11453 0.9116 0.14949 0.0
O597 O 0.11748 0.84386 0.14434 0.0
Mg598 Mg 0.06248 0.79406 0.14812 0.0
O599 O 0.01342 0.73836 0.15141 0.0
Mg600 Mg 0.03332 0.69018 0.13555 0.0
Mg601 Mg 0.94523 0.74673 0.15514 0.0
C602 C 0.0074 0.89574 0.13538 0.0
O603 O 0.03409 0.83112 0.1694 0.0
O604 O 0.22752 0.86687 0.14161 0.0
O605 O 0.95308 0.80539 0.17146 0.0
O606 O 0.17631 0.85115 0.17396 0.0
O607 O 0.18195 0.93665 0.13903 0.0
O608 O 0.12374 0.91546 0.17184 0.0
O609 O 0.0863 0.75324 0.12725 0.0
O610 O 0.16982 0.76249 0.13041 0.0
C611 C 0.13192 0.74567 0.1232 0.0
C612 C 0.22273 0.91203 0.13727 0.0
O613 O 0.00815 0.84744 0.13641 0.0
O614 O 0.98337 0.63038 0.14678 0.0
O615 O 0.04212 0.9248 0.14049 0.0
O616 O 0.96425 0.7141 0.12143 0.0
O617 O 0.92728 0.67084 0.16089 0.0
O618 O 0.91275 0.76125 0.13509 0.0
O619 O 0.11942 0.74684 0.15969 0.0
O620 O 0.09982 0.67119 0.14996 0.0
C621 C 0.15304 0.88939 0.17933 0.0
C622 C 0.99115 0.83151 0.17586 0.0
C623 C 0.65386 0.84272 0.41211 0.0
C624 C 0.70731 0.65918 0.41574 0.0
C625 C 0.62079 0.63344 0.37677 0.0
Mg626 Mg 0.5528 0.89085 0.39989 0.0
Mg627 Mg 0.44812 0.82655 0.39229 0.0
O628 O 0.51814 0.83055 0.39087 0.0
Mg629 Mg 0.56263 0.77768 0.39831 0.0
O630 O 0.61174 0.7285 0.40524 0.0
Mg631 Mg 0.6685 0.74245 0.39152 0.0
Mg632 Mg 0.59481 0.66099 0.408 0.0
C633 C 0.47041 0.71523 0.38146 0.0
O634 O 0.50907 0.75527 0.41685 0.0
O635 O 0.49936 0.93833 0.38642 0.0
O636 O 0.5233 0.67202 0.41885 0.0
O637 O 0.49546 0.8955 0.41896 0.0
O638 O 0.43061 0.89244 0.38047 0.0
O639 O 0.4317 0.8421 0.41421 0.0
O640 O 0.61598 0.79578 0.37954 0.0
O641 O 0.60725 0.87993 0.38119 0.0
C642 C 0.62729 0.84045 0.3755 0.0
C643 C 0.45697 0.93302 0.38 0.0
O644 O 0.51672 0.71924 0.38521 0.0
O645 O 0.71558 0.69231 0.4062 0.0
O646 O 0.43826 0.75042 0.38356 0.0
O647 O 0.6494 0.67257 0.37653 0.0
O648 O 0.66321 0.64198 0.41853 0.0
O649 O 0.59393 0.62364 0.38767 0.0
O650 O 0.60568 0.83778 0.41169 0.0
O651 O 0.68309 0.81079 0.40593 0.0
C652 C 0.45405 0.87384 0.42252 0.0
C653 C 0.49777 0.71177 0.42176 0.0
C654 C 0.62991 0.17559 0.66489 0.0
C655 C 0.44973 0.09668 0.65659 0.0
C656 C 0.44658 0.19391 0.6207 0.0
Mg657 Mg 0.67478 0.28344 0.655 0.0
Mg658 Mg 0.60179 0.37939 0.64808 0.0
O659 O 0.61552 0.31153 0.64488 0.0
Mg660 Mg 0.56438 0.25937 0.64955 0.0
O661 O 0.51737 0.20272 0.65365 0.0
Mg662 Mg 0.54628 0.152 0.63962 0.0
Mg663 Mg 0.4477 0.21237 0.65317 0.0
C664 C 0.50411 0.34554 0.63159 0.0
O665 O 0.52591 0.3028 0.66845 0.0
O666 O 0.72261 0.34612 0.64372 0.0
O667 O 0.44492 0.27615 0.66837 0.0
O668 O 0.662 0.33571 0.67503 0.0
O669 O 0.66945 0.40846 0.63873 0.0
O670 O 0.60126 0.39033 0.67049 0.0
O671 O 0.59922 0.21304 0.63156 0.0
O672 O 0.6809 0.22954 0.63562 0.0
C673 C 0.64581 0.20573 0.62882 0.0
C674 C 0.71324 0.38886 0.63816 0.0
O675 O 0.5109 0.29912 0.63444 0.0
O676 O 0.49133 0.09523 0.64956 0.0
O677 O 0.53196 0.38142 0.63662 0.0
O678 O 0.48656 0.16797 0.62209 0.0
O679 O 0.42676 0.1379 0.6595 0.0
O680 O 0.42737 0.2187 0.63122 0.0
O681 O 0.62067 0.22277 0.66409 0.0
O682 O 0.60546 0.14249 0.65731 0.0
C683 C 0.63173 0.37052 0.67909 0.0
C684 C 0.48067 0.30418 0.67344 0.0
C685 C 0.15241 0.3358 0.92158 0.0
C686 C 0.19809 0.14831 0.91964 0.0
C687 C 0.13932 0.14507 0.8771 0.0
Mg688 Mg 0.06653 0.39696 0.90588 0.0
Mg689 Mg 0.96734 0.34404 0.88995 0.0
O690 O 0.03694 0.34429 0.89258 0.0
Mg691 Mg 0.07278 0.28487 0.8999 0.0
O692 O 0.11347 0.22906 0.90728 0.0
Mg693 Mg 0.17927 0.24588 0.89791 0.0
Mg694 Mg 0.09247 0.16168 0.90706 0.0
C695 C 0.9951 0.23945 0.87539 0.0
O696 O 0.00683 0.25674 0.91399 0.0
O697 O 0.02582 0.45619 0.89186 0.0
O698 O 0.01606 0.1724 0.9149 0.0
O699 O 0.99803 0.3931 0.92149 0.0
O700 O 0.96306 0.41574 0.88009 0.0
O701 O 0.9358 0.34911 0.91086 0.0
O702 O 0.13878 0.30852 0.88581 0.0
O703 O 0.13366 0.39189 0.89056 0.0
C704 C 0.15552 0.35376 0.88462 0.0
C705 C 0.98964 0.45538 0.88274 0.0
O706 O 0.03748 0.23883 0.88183 0.0
O707 O 0.21315 0.185 0.91197 0.0
O708 O 0.96201 0.27365 0.87766 0.0
O709 O 0.16849 0.18318 0.87962 0.0
O710 O 0.15195 0.13396 0.92021 0.0
O711 O 0.10453 0.13293 0.88584 0.0
O712 O 0.10623 0.33372 0.91771 0.0
O713 O 0.1856 0.30633 0.916 0.0
C714 C 0.95414 0.37269 0.92173 0.0
C715 C 0.99109 0.21277 0.91748 0.0
H716 H 0.23703 0.0377 0.46797 0.0
H717 H 0.25608 0.91354 0.49641 0.0
H718 H 0.31294 0.01251 0.45494 0.0
H719 H 0.33038 0.88728 0.48285 0.0
H720 H 0.37555 0.82616 0.43518 0.0
H721 H 0.32299 0.85711 0.45472 0.0
H722 H 0.41496 0.99145 0.45854 0.0
H723 H 0.47021 0.95894 0.43934 0.0
C724 C 0.25785 0.0058 0.47166 0.0
C725 C 0.23977 0.97706 0.48307 0.0
C726 C 0.30137 0.99151 0.46421 0.0
C727 C 0.32716 0.94803 0.46794 0.0
C728 C 0.31091 0.92094 0.47981 0.0
C729 C 0.26798 0.93564 0.4874 0.0
C730 C 0.38615 0.86121 0.44056 0.0
C731 C 0.42764 0.8896 0.43585 0.0
C732 C 0.35578 0.87905 0.45171 0.0
C733 C 0.36518 0.92647 0.45809 0.0
C734 C 0.40735 0.95456 0.45377 0.0
C735 C 0.43889 0.93588 0.44285 0.0
H736 H 0.31446 0.87171 0.71117 0.0
H737 H 0.47651 0.86267 0.7129 0.0
H738 H 0.3212 0.92556 0.6905 0.0
H739 H 0.48332 0.9181 0.69264 0.0
H740 H 0.48746 0.00187 0.65294 0.0
H741 H 0.46698 0.92881 0.66711 0.0
H742 H 0.34971 0.01284 0.68885 0.0
H743 H 0.36924 0.08543 0.67455 0.0
C744 C 0.35147 0.88062 0.70699 0.0
C745 C 0.39504 0.86349 0.7137 0.0
C746 C 0.35529 0.91164 0.69523 0.0
C747 C 0.40271 0.92608 0.69 0.0
C748 C 0.44621 0.90707 0.69632 0.0
C749 C 0.44239 0.87602 0.70806 0.0
C750 C 0.45654 0.00443 0.66051 0.0
C751 C 0.43074 0.04983 0.66287 0.0
C752 C 0.44496 0.96261 0.66863 0.0
C753 C 0.40743 0.96551 0.67923 0.0
C754 C 0.37873 0.00941 0.68071 0.0
C755 C 0.3902 0.05119 0.67257 0.0
H756 H 0.37692 0.04492 0.99159 0.0
H757 H 0.44935 0.17245 0.97205 0.0
H758 H 0.31552 0.04081 0.97214 0.0
H759 H 0.38723 0.16983 0.95314 0.0
H760 H 0.29828 0.13894 0.91495 0.0
H761 H 0.36188 0.11951 0.93256 0.0
H762 H 0.24504 0.09059 0.96372 0.0
H763 H 0.18128 0.10828 0.94587 0.0
C764 C 0.37972 0.07197 0.98314 0.0
C765 C 0.4177 0.10922 0.98338 0.0
C766 C 0.34448 0.06978 0.97208 0.0
C767 C 0.34683 0.10467 0.96105 0.0
C768 C 0.38495 0.14171 0.96131 0.0
C769 C 0.42005 0.14384 0.9723 0.0
C770 C 0.28623 0.12725 0.92546 0.0
C771 C 0.23505 0.12591 0.92916 0.0
C772 C 0.32258 0.11641 0.93556 0.0
C773 C 0.30844 0.10488 0.94963 0.0
C774 C 0.25709 0.09937 0.95297 0.0
C775 C 0.22058 0.10956 0.94276 0.0
H776 H 0.3255 0.04703 0.24097 0.0
H777 H 0.17377 0.09518 0.25089 0.0
H778 H 0.29187 0.97726 0.22684 0.0
H779 H 0.14102 0.02135 0.23877 0.0
H780 H 0.10371 0.96366 0.19378 0.0
H781 H 0.12937 0.00834 0.21508 0.0
H782 H 0.25029 0.90285 0.22064 0.0
H783 H 0.22542 0.85887 0.19836 0.0
C784 C 0.28507 0.04271 0.24041 0.0
C785 C 0.25281 0.07917 0.24658 0.0
C786 C 0.26567 0.00144 0.23256 0.0
C787 C 0.21342 0.9944 0.23112 0.0
C788 C 0.18145 0.0267 0.23901 0.0
C789 C 0.20066 0.06908 0.24631 0.0
C790 C 0.13545 0.94925 0.19957 0.0
C791 C 0.16323 0.90827 0.19412 0.0
C792 C 0.14993 0.97474 0.21207 0.0
C793 C 0.19254 0.95991 0.21968 0.0
C794 C 0.21797 0.91619 0.21491 0.0
C795 C 0.20351 0.89064 0.2022 0.0
H796 H 0.29012 0.04755 0.55197 0.0
H797 H 0.21075 0.18836 0.55659 0.0
H798 H 0.35447 0.07981 0.56813 0.0
H799 H 0.27783 0.22238 0.57141 0.0
H800 H 0.35436 0.23271 0.61521 0.0
H801 H 0.30129 0.21452 0.59481 0.0
H802 H 0.42221 0.13195 0.57419 0.0
H803 H 0.47477 0.14807 0.59518 0.0
C804 C 0.28657 0.08563 0.55623 0.0
C805 C 0.24422 0.11466 0.55314 0.0
C806 C 0.32428 0.10464 0.56532 0.0
C807 C 0.3213 0.15367 0.57133 0.0
C808 C 0.28092 0.18399 0.56735 0.0
C809 C 0.24263 0.16459 0.55856 0.0
C810 C 0.37003 0.21117 0.60627 0.0
C811 C 0.41852 0.1909 0.607 0.0
C812 C 0.33955 0.20105 0.59442 0.0
C813 C 0.35692 0.17099 0.58281 0.0
C814 C 0.40692 0.15401 0.58307 0.0
C815 C 0.43729 0.16361 0.59507 0.0
H816 H 0.31255 0.92639 0.82969 0.0
H817 H 0.16027 0.87352 0.82234 0.0
H818 H 0.28064 0.00109 0.84185 0.0
H819 H 0.12841 0.95072 0.83308 0.0
H820 H 0.08714 0.05937 0.86973 0.0
H821 H 0.11455 0.99042 0.85448 0.0
H822 H 0.24327 0.07877 0.84116 0.0
H823 H 0.21716 0.14723 0.85739 0.0
C824 C 0.2722 0.93043 0.83065 0.0
C825 C 0.23925 0.89285 0.82516 0.0
C826 C 0.25374 0.97429 0.83736 0.0
C827 C 0.20165 0.98267 0.83856 0.0
C828 C 0.16873 0.94569 0.83271 0.0
C829 C 0.18717 0.90133 0.82629 0.0
C830 C 0.12107 0.06461 0.86345 0.0
C831 C 0.15039 0.10881 0.86506 0.0
C832 C 0.13675 0.02476 0.85452 0.0
C833 C 0.18189 0.02801 0.84664 0.0
C834 C 0.20917 0.07389 0.84736 0.0
C835 C 0.1938 0.11366 0.85653 0.0
H836 H 0.48445 0.98262 0.08387 0.0
H837 H 0.35938 0.06408 0.06694 0.0
H838 H 0.43164 0.95396 0.10351 0.0
H839 H 0.30597 0.03459 0.08641 0.0
H840 H 0.23248 0.00963 0.129 0.0
H841 H 0.29211 0.04324 0.11175 0.0
H842 H 0.36275 0.89778 0.10779 0.0
H843 H 0.3042 0.86461 0.12534 0.0
C844 C 0.44538 0.9938 0.08426 0.0
C845 C 0.42575 0.02511 0.07381 0.0
C846 C 0.41516 0.97748 0.09552 0.0
C847 C 0.36454 0.99193 0.09655 0.0
C848 C 0.34503 0.02345 0.08609 0.0
C849 C 0.37542 0.04008 0.07488 0.0
C850 C 0.26122 0.98501 0.12462 0.0
C851 C 0.26332 0.93432 0.12849 0.0
C852 C 0.29514 0.00418 0.11463 0.0
C853 C 0.33174 0.97303 0.10821 0.0
C854 C 0.33531 0.92297 0.11259 0.0
C855 C 0.30161 0.90389 0.12265 0.0
H856 H 0.42417 0.206 0.33164 0.0
H857 H 0.31877 0.09934 0.31279 0.0
H858 H 0.44257 0.14722 0.35048 0.0
H859 H 0.33891 0.03899 0.33111 0.0
H860 H 0.36119 0.95066 0.37099 0.0
H861 H 0.33373 0.01693 0.35533 0.0
H862 H 0.48694 0.07259 0.35271 0.0
H863 H 0.51357 0.00826 0.36884 0.0
C864 C 0.40514 0.16973 0.33157 0.0
C865 C 0.37043 0.15672 0.32083 0.0
C866 C 0.41579 0.13594 0.34228 0.0
C867 C 0.3927 0.08804 0.34224 0.0
C868 C 0.35691 0.07572 0.33162 0.0
C869 C 0.34557 0.11 0.32107 0.0
C870 C 0.38878 0.97745 0.36715 0.0
C871 C 0.43949 0.97432 0.37113 0.0
C872 C 0.37315 0.01524 0.35812 0.0
C873 C 0.4081 0.05012 0.35271 0.0
C874 C 0.4587 0.04716 0.35688 0.0
C875 C 0.47411 0.00999 0.36607 0.0
H876 H 0.86104 0.02525 0.59084 0.0
H877 H 0.7476 0.01761 0.55796 0.0
H878 H 0.79974 0.05759 0.6079 0.0
H879 H 0.68477 0.04787 0.57524 0.0
H880 H 0.63254 0.19314 0.6002 0.0
H881 H 0.67183 0.12924 0.58476 0.0
H882 H 0.72812 0.0558 0.62221 0.0
H883 H 0.69153 0.12206 0.63742 0.0
C884 C 0.82228 0.02844 0.58746 0.0
C885 C 0.80897 0.01972 0.57312 0.0
C886 C 0.78687 0.04687 0.59725 0.0
C887 C 0.73728 0.05629 0.5929 0.0
C888 C 0.7229 0.04236 0.57885 0.0
C889 C 0.75863 0.02469 0.569 0.0
C890 C 0.65259 0.16266 0.60503 0.0
C891 C 0.66016 0.16252 0.61982 0.0
C892 C 0.67473 0.12569 0.59625 0.0
C893 C 0.70398 0.08764 0.60222 0.0
C894 C 0.70712 0.08524 0.61722 0.0
C895 C 0.68605 0.12288 0.62593 0.0
H896 H 0.79235 0.06605 0.3406 0.0
H897 H 0.7394 0.99395 0.30146 0.0
H898 H 0.76587 0.99294 0.35397 0.0
H899 H 0.71395 0.91994 0.31474 0.0
H900 H 0.60209 0.84961 0.34791 0.0
H901 H 0.64825 0.90037 0.3309 0.0
H902 H 0.77548 0.90689 0.3596 0.0
H903 H 0.72784 0.85719 0.37679 0.0
C904 C 0.7759 0.03409 0.33482 0.0
C905 C 0.76731 0.03603 0.32003 0.0
C906 C 0.76105 0.99186 0.34246 0.0
C907 C 0.73766 0.95026 0.33547 0.0
C908 C 0.7311 0.95147 0.32053 0.0
C909 C 0.74554 0.99393 0.31292 0.0
C910 C 0.64089 0.8597 0.3502 0.0
C911 C 0.66178 0.8491 0.36352 0.0
C912 C 0.6674 0.8892 0.3405 0.0
C913 C 0.71535 0.90879 0.34398 0.0
C914 C 0.7382 0.89345 0.3567 0.0
C915 C 0.71143 0.86416 0.36644 0.0
H916 H 0.88805 0.05001 0.06519 0.0
H917 H 0.75344 0.02642 0.0903 0.0
H918 H 0.93689 0.00439 0.08281 0.0
H919 H 0.8022 0.97979 0.10776 0.0
H920 H 0.92614 0.85131 0.12174 0.0
H921 H 0.86853 0.89125 0.10507 0.0
H922 H 0.9449 0.03349 0.11244 0.0
H923 H 0.00093 0.99492 0.12921 0.0
C924 C 0.86911 0.03484 0.07445 0.0
C925 C 0.81752 0.04214 0.07662 0.0
C926 C 0.89677 0.00875 0.08443 0.0
C927 C 0.87288 0.98876 0.09649 0.0
C928 C 0.82102 0.99478 0.09846 0.0
C929 C 0.79351 0.02174 0.08861 0.0
C930 C 0.92985 0.89119 0.12001 0.0
C931 C 0.96825 0.91964 0.12676 0.0
C932 C 0.89713 0.9139 0.11049 0.0
C933 C 0.90315 0.96506 0.10747 0.0
C934 C 0.94013 0.99382 0.11456 0.0
C935 C 0.97204 0.97154 0.1242 0.0
H936 H 0.8809 0.96959 0.83442 0.0
H937 H 0.97273 0.03708 0.80161 0.0
H938 H 0.9065 0.03615 0.85141 0.0
H939 H -0.00104 0.10338 0.81875 0.0
H940 H 0.06261 0.18658 0.85936 0.0
H941 H 0.04538 0.11563 0.84287 0.0
H942 H 0.88625 0.13054 0.85134 0.0
H943 H 0.90346 0.20108 0.86796 0.0
C944 C 0.9068 -0.00146 0.8309 0.0
C945 C 0.92425 -0.00108 0.81669 0.0
C946 C 0.9214 0.03639 0.84059 0.0
C947 C 0.95394 0.07493 0.83624 0.0
C948 C 0.97381 0.07382 0.82229 0.0
C949 C 0.95894 0.036 0.81254 0.0
C950 C 0.02403 0.17434 0.85776 0.0
C951 C 0.98431 0.19865 0.865 0.0
C952 C 0.01426 0.13419 0.84828 0.0
C953 C 0.96466 0.11766 0.84604 0.0
C954 C 0.92489 0.14239 0.85312 0.0
C955 C 0.93463 0.18285 0.86249 0.0
H956 H 0.83874 0.02511 0.47169 0.0
H957 H 0.92269 0.9165 0.44635 0.0
H958 H 0.76337 0.0058 0.45745 0.0
H959 H 0.84788 0.89831 0.43188 0.0
H960 H 0.64359 0.87323 0.44017 0.0
H961 H 0.70905 0.91884 0.45394 0.0
H962 H 0.7889 0.94908 0.4147 0.0
H963 H 0.72367 0.90428 0.40106 0.0
C964 C 0.84126 0.99782 0.4629 0.0
C965 C 0.88653 0.97232 0.46006 0.0
C966 C 0.79815 0.98671 0.45484 0.0
C967 C 0.80002 0.95092 0.44355 0.0
C968 C 0.84567 0.92657 0.44044 0.0
C969 C 0.88838 0.93679 0.44871 0.0
C970 C 0.67372 0.89204 0.4345 0.0
C971 C 0.67885 0.88532 0.41961 0.0
C972 C 0.71137 0.91768 0.44235 0.0
C973 C 0.75437 0.93644 0.43535 0.0
C974 C 0.75644 0.93435 0.42034 0.0
C975 C 0.71893 0.90916 0.41255 0.0
H976 H 0.8785 0.94837 0.25667 0.0
H977 H 0.99699 0.05252 0.24517 0.0
H978 H 0.90348 0.89203 0.23686 0.0
H979 H 0.02224 0.9959 0.22552 0.0
H980 H 0.0642 0.86155 0.19482 0.0
H981 H 0.05287 0.90715 0.21779 0.0
H982 H 0.89274 0.91049 0.2105 0.0
H983 H 0.90406 0.86603 0.18763 0.0
C984 C 0.91065 0.95855 0.25015 0.0
C985 C 0.93541 0.005 0.25237 0.0
C986 C 0.92484 0.92646 0.23882 0.0
C987 C 0.96417 0.94018 0.22956 0.0
C988 C 0.99189 0.98442 0.23254 0.0
C989 C 0.97753 0.01668 0.24384 0.0
C990 C 0.02687 0.8731 0.19802 0.0
C991 C 0.98522 0.8611 0.18933 0.0
C992 C 0.02033 0.89857 0.2112 0.0
C993 C 0.97195 0.91183 0.21593 0.0
C994 C 0.93039 0.89982 0.20723 0.0
C995 C 0.93694 0.87474 0.19408 0.0
H996 H 0.74395 0.10309 0.96732 0.0
H997 H 0.70241 0.25762 0.96061 0.0
H998 H 0.8161 0.11315 0.95171 0.0
H999 H 0.77615 0.26769 0.94511 0.0
H1000 H 0.95168 0.27569 0.93789 0.0
H1001 H 0.87105 0.2668 0.95046 0.0
H1002 H 0.84024 0.12967 0.92612 0.0
H1003 H 0.92113 0.13828 0.91375 0.0
C1004 C 0.74915 0.13885 0.96219 0.0
C1005 C 0.71678 0.17944 0.96518 0.0
C1006 C 0.79094 0.14463 0.95331 0.0
C1007 C 0.80182 0.19123 0.94727 0.0
C1008 C 0.76886 0.23151 0.94981 0.0
C1009 C 0.72664 0.22566 0.95865 0.0
C1010 C 0.92697 0.24447 0.93502 0.0
C1011 C 0.94202 0.20819 0.92474 0.0
C1012 C 0.88094 0.23942 0.94215 0.0
C1013 C 0.84903 0.19816 0.93904 0.0
C1014 C 0.8641 0.1619 0.92871 0.0
C1015 C 0.9103 0.16677 0.92166 0.0
H1016 H 0.74916 0.09163 0.74526 0.0
H1017 H 0.83385 -0.00058 0.71512 0.0
H1018 H 0.71654 0.13965 0.7255 0.0
H1019 H 0.80333 0.04886 0.69554 0.0
H1020 H 0.66836 0.08151 0.66647 0.0
H1021 H 0.7209 0.04869 0.68507 0.0
H1022 H 0.72988 0.19641 0.70547 0.0
H1023 H 0.67585 0.22942 0.68683 0.0
C1024 C 0.76182 0.08244 0.73447 0.0
C1025 C 0.79369 0.04133 0.73178 0.0
C1026 C 0.74353 0.1103 0.72315 0.0
C1027 C 0.7568 0.09762 0.70892 0.0
C1028 C 0.79173 0.05905 0.70636 0.0
C1029 C 0.80981 0.03112 0.71764 0.0
C1030 C 0.6819 0.10728 0.67481 0.0
C1031 C 0.66738 0.15797 0.67525 0.0
C1032 C 0.71256 0.08851 0.68543 0.0
C1033 C 0.72966 0.11991 0.69678 0.0
C1034 C 0.71693 0.17118 0.69693 0.0
C1035 C 0.68623 0.19011 0.68622 0.0
H1036 H 0.71738 0.34818 0.98525 0.0
H1037 H 0.80167 0.48335 -0.00361 0.0
H1038 H 0.78428 0.32248 0.96867 0.0
H1039 H 0.86734 0.45872 0.97946 0.0
H1040 H 0.98517 0.39586 0.94912 0.0
H1041 H 0.93299 0.4005 0.97079 0.0
H1042 H 0.80167 0.36226 0.94553 0.0
H1043 H 0.85342 0.3564 0.92411 0.0
C1044 C 0.75075 0.37169 0.98444 0.0
C1045 C 0.75389 0.41835 0.99181 0.0
C1046 C 0.78876 0.35724 0.97485 0.0
C1047 C 0.8303 0.38926 0.9725 0.0
C1048 C 0.83577 0.43331 0.98099 0.0
C1049 C 0.79792 0.44768 0.99058 0.0
C1050 C 0.94517 0.38834 0.94825 0.0
C1051 C 0.92334 0.37608 0.93491 0.0
C1052 C 0.91542 0.39071 0.96064 0.0
C1053 C 0.86339 0.38109 0.95988 0.0
C1054 C 0.84182 0.3686 0.94654 0.0
C1055 C 0.87145 0.36588 0.93422 0.0
H1056 H 0.83312 0.36582 0.20131 0.0
H1057 H 0.95211 0.44082 0.22545 0.0
H1058 H 0.84649 0.42436 0.18189 0.0
H1059 H 0.96729 0.49632 0.20556 0.0
H1060 H 0.00737 0.54939 0.15991 0.0
H1061 H 0.99104 0.47915 0.17576 0.0
H1062 H 0.84103 0.5335 0.18381 0.0
H1063 H 0.85758 0.60478 0.1683 0.0
C1064 C 0.86213 0.39445 0.20254 0.0
C1065 C 0.89127 0.3985 0.21511 0.0
C1066 C 0.87002 0.42751 0.19132 0.0
C1067 C 0.90807 0.46427 0.19228 0.0
C1068 C 0.93815 0.46764 0.20455 0.0
C1069 C 0.92953 0.43552 0.21591 0.0
C1070 C 0.97044 0.54565 0.16474 0.0
C1071 C 0.93376 0.58264 0.16292 0.0
C1072 C 0.9613 0.50567 0.17385 0.0
C1073 C 0.91493 0.50135 0.18095 0.0
C1074 C 0.87697 0.53614 0.17835 0.0
C1075 C 0.88648 0.57682 0.16952 0.0
H1076 H 0.88778 0.68267 0.49014 0.0
H1077 H 0.93828 0.54098 0.47149 0.0
H1078 H 0.83285 0.69337 0.46959 0.0
H1079 H 0.88107 0.55077 0.4515 0.0
H1080 H 0.71617 0.5744 0.43139 0.0
H1081 H 0.77823 0.55948 0.45006 0.0
H1082 H 0.85214 0.70029 0.44078 0.0
H1083 H 0.79111 0.71494 0.42193 0.0
C1084 C 0.8873 0.65386 0.48172 0.0
C1085 C 0.91741 0.61086 0.48255 0.0
C1086 C 0.85575 0.65996 0.47001 0.0
C1087 C 0.8531 0.62283 0.45907 0.0
C1088 C 0.88243 0.57963 0.45991 0.0
C1089 C 0.91473 0.57395 0.47145 0.0
C1090 C 0.74629 0.60161 0.43314 0.0
C1091 C 0.74886 0.64579 0.42523 0.0
C1092 C 0.78161 0.59309 0.4438 0.0
C1093 C 0.81926 0.62911 0.44685 0.0
C1094 C 0.82303 0.6723 0.43862 0.0
C1095 C 0.78842 0.68035 0.42778 0.0
H1096 H 0.76742 0.59233 0.71668 0.0
H1097 H 0.65441 0.58956 0.75026 0.0
H1098 H 0.7393 0.51019 0.70812 0.0
H1099 H 0.62366 0.50824 0.74068 0.0
H1100 H 0.56897 0.43877 0.69182 0.0
H1101 H 0.58939 0.49473 0.71194 0.0
H1102 H 0.72585 0.41285 0.71893 0.0
H1103 H 0.70514 0.35538 0.69892 0.0
C1104 C 0.73723 0.57398 0.72243 0.0
C1105 C 0.71357 0.59758 0.73426 0.0
C1106 C 0.72126 0.52681 0.71752 0.0
C1107 C 0.68041 0.50272 0.72405 0.0
C1108 C 0.65605 0.52598 0.73575 0.0
C1109 C 0.67306 0.57283 0.74099 0.0
C1110 C 0.60227 0.43113 0.698 0.0
C1111 C 0.63623 0.39352 0.69355 0.0
C1112 C 0.61348 0.46286 0.70964 0.0
C1113 C 0.65918 0.45796 0.71679 0.0
C1114 C 0.69024 0.41685 0.7135 0.0
C1115 C 0.67856 0.38437 0.70199 0.0
H1116 H 0.71021 0.6957 0.0522 0.0
H1117 H 0.63349 0.69077 0.09301 0.0
H1118 H 0.78777 0.72254 0.06428 0.0
H1119 H 0.7108 0.71834 0.10506 0.0
H1120 H 0.91952 0.68521 0.09778 0.0
H1121 H 0.84646 0.67682 0.08198 0.0
H1122 H 0.77129 0.79414 0.10639 0.0
H1123 H 0.84352 0.80277 0.12209 0.0
C1124 C 0.70964 0.70142 0.06372 0.0
C1125 C 0.6658 0.69112 0.07168 0.0
C1126 C 0.75412 0.71641 0.07061 0.0
C1127 C 0.75526 0.72247 0.08558 0.0
C1128 C 0.71085 0.71438 0.09348 0.0
C1129 C 0.66667 0.69847 0.08662 0.0
C1130 C 0.88806 0.71023 0.09952 0.0
C1131 C 0.88718 0.74406 0.11135 0.0
C1132 C 0.84622 0.7054 0.09048 0.0
C1133 C 0.80294 0.73423 0.09317 0.0
C1134 C 0.80381 0.77084 0.10425 0.0
C1135 C 0.84544 0.77583 0.1132 0.0
H1136 H 0.70254 0.34863 0.34431 0.0
H1137 H 0.68391 0.42368 0.30429 0.0
H1138 H 0.66976 0.42266 0.35728 0.0
H1139 H 0.65191 0.49827 0.31729 0.0
H1140 H 0.67866 0.63385 0.35221 0.0
H1141 H 0.69466 0.56202 0.3359 0.0
H1142 H 0.58625 0.47281 0.35891 0.0
H1143 H 0.56985 0.54388 0.37509 0.0
C1144 C 0.69083 0.3808 0.33832 0.0
C1145 C 0.69526 0.38051 0.32335 0.0
C1146 C 0.67198 0.42301 0.34569 0.0
C1147 C 0.65821 0.46602 0.33824 0.0
C1148 C 0.66224 0.46556 0.32325 0.0
C1149 C 0.68016 0.42291 0.31585 0.0
C1150 C 0.65734 0.59934 0.35358 0.0
C1151 C 0.62348 0.59455 0.3651 0.0
C1152 C 0.66647 0.55829 0.34423 0.0
C1153 C 0.6422 0.51179 0.34633 0.0
C1154 C 0.60594 0.50807 0.3572 0.0
C1155 C 0.59645 0.54902 0.36642 0.0
H1156 H 0.85641 0.48764 0.56191 0.0
H1157 H 0.97277 0.52083 0.5929 0.0
H1158 H 0.80099 0.45839 0.58109 0.0
H1159 H 0.91759 0.49059 0.61211 0.0
H1160 H 0.81354 0.36525 0.63499 0.0
H1161 H 0.87356 0.40085 0.61787 0.0
H1162 H 0.76044 0.50359 0.60394 0.0
H1163 H 0.70094 0.46927 0.62103 0.0
C1164 C 0.86994 0.48871 0.57284 0.0
C1165 C 0.91846 0.50684 0.57601 0.0
C1166 C 0.83836 0.47213 0.58379 0.0
C1167 C 0.85513 0.4724 0.59805 0.0
C1168 C 0.90392 0.48997 0.6012 0.0
C1169 C 0.93518 0.50755 0.59027 0.0
C1170 C 0.80175 0.39599 0.62845 0.0
C1171 C 0.75224 0.41407 0.62936 0.0
C1172 C 0.8361 0.41634 0.61868 0.0
C1173 C 0.82125 0.45449 0.60951 0.0
C1174 C 0.77256 0.4738 0.61079 0.0
C1175 C 0.73861 0.45417 0.62066 0.0
H1176 H 0.90287 0.74294 0.84716 0.0
H1177 H 0.96126 0.65254 0.81184 0.0
H1178 H 0.92593 0.67701 0.86379 0.0
H1179 H 0.98417 0.5873 0.82838 0.0
H1180 H 0.93624 0.45944 0.85804 0.0
H1181 H 0.92282 0.53156 0.84316 0.0
H1182 H 0.00685 0.62624 0.87293 0.0
H1183 H 0.02118 0.5533 0.88797 0.0
C1184 C 0.92133 0.70943 0.84301 0.0
C1185 C 0.93035 0.7029 0.82822 0.0
C1186 C 0.93471 0.67196 0.85251 0.0
C1187 C 0.95649 0.62709 0.84732 0.0
C1188 C 0.96718 0.62147 0.83262 0.0
C1189 C 0.95445 0.65903 0.82319 0.0
C1190 C 0.95178 0.49554 0.86153 0.0
C1191 C 0.97988 0.50052 0.87422 0.0
C1192 C 0.94433 0.53678 0.85292 0.0
C1193 C 0.96418 0.58424 0.85685 0.0
C1194 C 0.99122 0.5899 0.86969 0.0
C1195 C -0.00053 0.54822 0.87825 0.0
H1196 H 0.3238 0.70569 0.05532 0.0
H1197 H 0.29298 0.54973 0.06423 0.0
H1198 H 0.25141 0.73063 0.06991 0.0
H1199 H 0.22045 0.57461 0.07878 0.0
H1200 H 0.17776 0.65623 0.12273 0.0
H1201 H 0.22135 0.61765 0.10234 0.0
H1202 H 0.15923 0.72884 0.07469 0.0
H1203 H 0.11535 0.7674 0.09536 0.0
C1204 C 0.30077 0.67667 0.06009 0.0
C1205 C 0.31462 0.62589 0.05889 0.0
C1206 C 0.25909 0.6909 0.06838 0.0
C1207 C 0.23046 0.65457 0.0756 0.0
C1208 C 0.24223 0.60349 0.07352 0.0
C1209 C 0.28387 0.58931 0.06526 0.0
C1210 C 0.17172 0.67092 0.11217 0.0
C1211 C 0.14312 0.71428 0.11049 0.0
C1212 C 0.19667 0.64893 0.10047 0.0
C1213 C 0.1941 0.6705 0.08691 0.0
C1214 C 0.16216 0.71169 0.08504 0.0
C1215 C 0.13663 0.73337 0.09678 0.0
H1216 H 0.30421 0.58615 0.8486 0.0
H1217 H 0.30211 0.4838 0.81197 0.0
H1218 H 0.28173 0.51749 0.86413 0.0
H1219 H 0.28217 0.41386 0.82755 0.0
H1220 H 0.15865 0.33829 0.85598 0.0
H1221 H 0.21068 0.38634 0.83967 0.0
H1222 H 0.29913 0.44309 0.87552 0.0
H1223 H 0.24428 0.39741 0.89181 0.0
C1224 C 0.30012 0.54852 0.84397 0.0
C1225 C 0.30404 0.54017 0.82914 0.0
C1226 C 0.28777 0.50886 0.85286 0.0
C1227 C 0.27994 0.45978 0.84712 0.0
C1228 C 0.28693 0.45117 0.83232 0.0
C1229 C 0.29838 0.4911 0.8234 0.0
C1230 C 0.1906 0.35938 0.86023 0.0
C1231 C 0.19762 0.36462 0.87504 0.0
C1232 C 0.22053 0.38714 0.85091 0.0
C1233 C 0.25836 0.41994 0.8563 0.0
C1234 C 0.26927 0.41965 0.87104 0.0
C1235 C 0.23852 0.3929 0.88036 0.0
H1236 H 0.2768 0.38321 0.56572 0.0
H1237 H 0.38007 0.50976 0.5643 0.0
H1238 H 0.32819 0.34553 0.58415 0.0
H1239 H 0.4308 0.47243 0.58286 0.0
H1240 H 0.45573 0.43419 0.62927 0.0
H1241 H 0.40511 0.46053 0.60919 0.0
H1242 H 0.41874 0.31268 0.58927 0.0
H1243 H 0.4709 0.28678 0.60922 0.0
C1244 C 0.31117 0.40225 0.56907 0.0
C1245 C 0.32429 0.44967 0.56376 0.0
C1246 C 0.34028 0.38083 0.57964 0.0
C1247 C 0.38252 0.40682 0.58505 0.0
C1248 C 0.39759 0.45239 0.57902 0.0
C1249 C 0.36875 0.47362 0.56842 0.0
C1250 C 0.44734 0.40713 0.62071 0.0
C1251 C 0.46664 0.35826 0.62084 0.0
C1252 C 0.41876 0.42226 0.6092 0.0
C1253 C 0.40896 0.38875 0.59766 0.0
C1254 C 0.42589 0.33905 0.5981 0.0
C1255 C 0.45498 0.32404 0.60959 0.0
H1256 H 0.47564 0.43217 0.33524 0.0
H1257 H 0.32174 0.48017 0.33073 0.0
H1258 H 0.49144 0.50291 0.35181 0.0
H1259 H 0.33672 0.54858 0.34791 0.0
H1260 H 0.40454 0.70427 0.35945 0.0
H1261 H 0.38182 0.62666 0.34643 0.0
H1262 H 0.47411 0.54205 0.37499 0.0
H1263 H 0.49741 0.62022 0.38781 0.0
C1264 C 0.44495 0.45715 0.33798 0.0
C1265 C 0.39757 0.45064 0.33154 0.0
C1266 C 0.45385 0.49739 0.3476 0.0
C1267 C 0.41545 0.53171 0.35103 0.0
C1268 C 0.36733 0.52334 0.34528 0.0
C1269 C 0.35855 0.48349 0.33559 0.0
C1270 C 0.4196 0.66897 0.36297 0.0
C1271 C 0.45365 0.66807 0.37435 0.0
C1272 C 0.40643 0.62448 0.35559 0.0
C1273 C 0.42651 0.57818 0.35962 0.0
C1274 C 0.45902 0.57724 0.37142 0.0
C1275 C 0.47254 0.62185 0.3787 0.0
H1276 H 0.30176 0.55869 0.97712 0.0
H1277 H 0.29373 0.41533 -0.00205 0.0
H1278 H 0.2431 0.5268 0.95891 0.0
H1279 H 0.23288 0.38515 0.98021 0.0
H1280 H 0.10457 0.36047 0.94666 0.0
H1281 H 0.13994 0.41022 0.96691 0.0
H1282 H 0.27168 0.44332 0.94153 0.0
H1283 H 0.23753 0.39227 0.92162 0.0
C1284 C 0.28675 0.52088 0.97804 0.0
C1285 C 0.30357 0.48922 0.98885 0.0
C1286 C 0.25276 0.50298 0.9677 0.0
C1287 C 0.23381 0.45366 0.96822 0.0
C1288 C 0.2467 0.42358 0.97972 0.0
C1289 C 0.28153 0.44104 0.98991 0.0
C1290 C 0.14057 0.37935 0.94537 0.0
C1291 C 0.16865 0.37251 0.9327 0.0
C1292 C 0.16069 0.40757 0.95691 0.0
C1293 C 0.20825 0.43056 0.95566 0.0
C1294 C 0.23469 0.4263 0.94265 0.0
C1295 C 0.21534 0.397 0.93132 0.0
H1296 H 0.4882 0.523 0.74394 0.0
H1297 H 0.34821 0.4422 0.75031 0.0
H1298 H 0.50778 0.46757 0.72361 0.0
H1299 H 0.36769 0.38725 0.7297 0.0
H1300 H 0.39172 0.34795 0.68137 0.0
H1301 H 0.37402 0.39755 0.70324 0.0
H1302 H 0.52739 0.37881 0.71694 0.0
H1303 H 0.54501 0.32958 0.69505 0.0
C1304 C 0.46205 0.49274 0.74125 0.0
C1305 C 0.41646 0.48731 0.74883 0.0
C1306 C 0.47324 0.4611 0.7295 0.0
C1307 C 0.43907 0.42336 0.72494 0.0
C1308 C 0.39436 0.41662 0.73279 0.0
C1309 C 0.38328 0.44806 0.74463 0.0
C1310 C 0.42168 0.35476 0.68902 0.0
C1311 C 0.47015 0.33607 0.68633 0.0
C1312 C 0.41148 0.38279 0.70159 0.0
C1313 C 0.44944 0.39236 0.71178 0.0
C1314 C 0.49765 0.37296 0.70916 0.0
C1315 C 0.50786 0.34513 0.69658 0.0
H1316 H 0.24495 0.58673 0.46712 0.0
H1317 H 0.21412 0.74614 0.46869 0.0
H1318 H 0.32015 0.60204 0.45322 0.0
H1319 H 0.29005 0.76155 0.45449 0.0
H1320 H 0.46003 0.77192 0.44346 0.0
H1321 H 0.38111 0.75924 0.45672 0.0
H1322 H 0.34939 0.62635 0.43045 0.0
H1323 H 0.42894 0.63768 0.41791 0.0
C1324 C 0.25336 0.62503 0.46416 0.0
C1325 C 0.223 0.66514 0.46895 0.0
C1326 C 0.29686 0.63385 0.4562 0.0
C1327 C 0.3113 0.68305 0.45272 0.0
C1328 C 0.28042 0.72325 0.45718 0.0
C1329 C 0.23674 0.71439 0.46523 0.0
C1330 C 0.436 0.74004 0.44063 0.0
C1331 C 0.45047 0.70553 0.4298 0.0
C1332 C 0.39075 0.73292 0.44811 0.0
C1333 C 0.3588 0.69182 0.44464 0.0
C1334 C 0.37334 0.65791 0.4336 0.0
C1335 C 0.41885 0.66442 0.42638 0.0
H1336 H 0.27248 0.45874 0.19668 0.0
H1337 H 0.31997 0.58258 0.22432 0.0
H1338 H 0.23928 0.51733 0.17972 0.0
H1339 H 0.29005 0.64227 0.20689 0.0
H1340 H 0.15818 0.72231 0.18521 0.0
H1341 H 0.2139 0.673 0.19974 0.0
H1342 H 0.24748 0.57726 0.16273 0.0
H1343 H 0.18841 0.62446 0.14864 0.0
C1344 C 0.27725 0.49879 0.19882 0.0
C1345 C 0.29836 0.51645 0.21173 0.0
C1346 C 0.25857 0.53261 0.18907 0.0
C1347 C 0.26156 0.58494 0.1919 0.0
C1348 C 0.2859 0.60239 0.20447 0.0
C1349 C 0.30349 0.56839 0.2144 0.0
C1350 C 0.17819 0.69115 0.18019 0.0
C1351 C 0.16848 0.67644 0.16594 0.0
C1352 C 0.21052 0.66295 0.18847 0.0
C1353 C 0.23472 0.62025 0.18253 0.0
C1354 C 0.22824 0.60866 0.16785 0.0
C1355 C 0.19477 0.63593 0.15971 0.0
loop_
_geom_bond_atom_site_label_1
_geom_bond_atom_site_label_2
_geom_bond_distance
_geom_bond_site_symmetry_2
_ccdc_geom_bond_type
H0 O26 0.856 . S
H1 O29 0.854 . S
H2 C37 0.930 . S
H3 C38 0.930 . S
H4 C40 0.930 1_565 S
H5 C41 0.930 1_565 S
H6 C43 0.931 . S
H7 C44 0.930 1_655 S
H8 C46 0.930 . S
H9 C47 0.929 . S
H10 C49 0.930 . S
H11 C50 0.931 . S
H12 C52 0.930 . S
H13 C53 0.929 1_565 S
H14 C55 0.931 . S
H15 C56 0.930 . S
H16 C58 0.930 . S
H17 C59 0.932 . S
H18 C61 0.930 1_545 S
H19 C62 0.929 . S
H20 C64 0.931 . S
H21 C65 0.930 . S
H22 C67 0.929 . S
H23 C68 0.931 1_545 S
H24 C70 0.930 . S
H25 C71 0.929 . S
O26 H0 0.856 . S
O26 C72 1.300 . S
O27 C72 1.209 . S
O28 C73 1.199 . S
O29 H1 0.854 . S
O29 C73 1.297 . S
C30 C31 1.404 1_455 S
C30 C35 1.397 . S
C30 C36 1.492 . S
C31 C30 1.404 1_655 S
C31 C32 1.396 . S
C31 C42 1.489 1_655 S
C32 C31 1.396 . S
C32 C33 1.397 . S
C32 C48 1.509 . S
C33 C32 1.397 . S
C33 C34 1.412 1_545 S
C33 C54 1.484 1_545 S
C34 C33 1.412 1_565 S
C34 C35 1.388 1_665 S
C34 C60 1.490 . S
C35 C30 1.397 . S
C35 C34 1.388 1_445 S
C35 C66 1.519 1_545 S
C36 C30 1.492 . S
C36 C37 1.363 . S
C36 C41 1.390 . S
C37 H2 0.930 . S
C37 C36 1.363 . S
C37 C38 1.372 . S
C38 H3 0.930 . S
C38 C37 1.372 . S
C38 C39 1.383 . S
C39 C38 1.383 . S
C39 C40 1.395 . S
C40 H4 0.930 1_545 S
C40 C39 1.395 . S
C40 C41 1.362 . S
C41 H5 0.930 1_545 S
C41 C36 1.390 . S
C41 C40 1.362 . S
C42 C31 1.489 1_455 S
C42 C43 1.374 1_455 S
C42 C47 1.405 . S
C43 H6 0.931 . S
C43 C42 1.374 1_655 S
C43 C44 1.376 1_655 S
C44 H7 0.930 1_455 S
C44 C43 1.376 1_455 S
C44 C45 1.376 . S
C45 C44 1.376 . S
C45 C46 1.378 . S
C45 C72 1.486 . S
C46 H8 0.930 . S
C46 C45 1.378 . S
C46 C47 1.376 . S
C47 H9 0.929 . S
C47 C42 1.405 . S
C47 C46 1.376 . S
C48 C32 1.509 . S
C48 C49 1.391 . S
C48 C53 1.386 . S
C49 H10 0.930 . S
C49 C48 1.391 . S
C49 C50 1.375 . S
C50 H11 0.931 . S
C50 C49 1.375 . S
C50 C51 1.375 . S
C51 C50 1.375 . S
C51 C52 1.361 . S
C52 H12 0.930 . S
C52 C51 1.361 . S
C52 C53 1.399 . S
C53 H13 0.929 1_545 S
C53 C48 1.386 . S
C53 C52 1.399 . S
C54 C33 1.484 1_565 S
C54 C55 1.391 1_565 S
C54 C59 1.365 . S
C55 H14 0.931 . S
C55 C54 1.391 1_545 S
C55 C56 1.372 . S
C56 H15 0.930 . S
C56 C55 1.372 . S
C56 C57 1.397 1_545 S
C57 C56 1.397 1_565 S
C57 C58 1.390 . S
C57 C73 1.476 . S
C58 H16 0.930 . S
C58 C57 1.390 . S
C58 C59 1.366 . S
C59 H17 0.932 . S
C59 C54 1.365 . S
C59 C58 1.366 . S
C60 C34 1.490 . S
C60 C61 1.380 . S
C60 C65 1.386 . S
C61 H18 0.930 1_565 S
C61 C60 1.380 . S
C61 C62 1.381 . S
C62 H19 0.929 . S
C62 C61 1.381 . S
C62 C63 1.371 . S
C63 C62 1.371 . S
C63 C64 1.380 . S
C64 H20 0.931 . S
C64 C63 1.380 . S
C64 C65 1.387 . S
C65 H21 0.930 . S
C65 C60 1.386 . S
C65 C64 1.387 . S
C66 C35 1.519 1_565 S
C66 C67 1.377 1_565 S
C66 C71 1.361 . S
C67 H22 0.929 . S
C67 C66 1.377 1_545 S
C67 C68 1.386 1_545 S
C68 H23 0.931 1_565 S
C68 C67 1.386 1_565 S
C68 C69 1.363 . S
C69 C68 1.363 . S
C69 C70 1.385 . S
C70 H24 0.930 . S
C70 C69 1.385 . S
C70 C71 1.396 . S
C71 H25 0.929 . S
C71 C66 1.361 . S
C71 C70 1.396 . S
C72 O26 1.300 . S
C72 O27 1.209 . S
C72 C45 1.486 . S
C73 O28 1.199 . S
C73 O29 1.297 . S
C73 C57 1.476 . S
H74 O100 0.856 . S
H75 O103 0.854 . S
H76 C111 0.930 . S
H77 C112 0.930 . S
H78 C114 0.930 . S
H79 C115 0.930 . S
H80 C117 0.931 . S
H81 C118 0.930 . S
H82 C120 0.930 . S
H83 C121 0.929 . S
H84 C123 0.930 . S
H85 C124 0.931 . S
H86 C126 0.930 . S
H87 C127 0.929 . S
H88 C129 0.931 . S
H89 C130 0.930 . S
H90 C132 0.930 . S
H91 C133 0.932 . S
H92 C135 0.930 . S
H93 C136 0.929 . S
H94 C138 0.931 . S
H95 C139 0.930 . S
H96 C141 0.929 . S
H97 C142 0.931 . S
H98 C144 0.930 . S
H99 C145 0.929 . S
O100 H74 0.856 . S
O100 C146 1.300 . S
O101 C146 1.209 . S
O102 C147 1.199 . S
O103 H75 0.854 . S
O103 C147 1.297 . S
C104 C105 1.404 . S
C104 C109 1.397 . S
C104 C110 1.492 . S
C105 C104 1.404 . S
C105 C106 1.396 . S
C105 C116 1.492 . S
C106 C105 1.396 . S
C106 C107 1.397 . S
C106 C122 1.509 . S
C107 C106 1.397 . S
C107 C108 1.412 . S
C107 C128 1.485 . S
C108 C107 1.412 . S
C108 C109 1.388 . S
C108 C134 1.490 . S
C109 C104 1.397 . S
C109 C108 1.388 . S
C109 C140 1.519 . S
C110 C104 1.492 . S
C110 C111 1.363 . S
C110 C115 1.390 . S
C111 H76 0.930 . S
C111 C110 1.363 . S
C111 C112 1.372 . S
C112 H77 0.930 . S
C112 C111 1.372 . S
C112 C113 1.383 . S
C113 C112 1.383 . S
C113 C114 1.395 . S
C114 H78 0.930 . S
C114 C113 1.395 . S
C114 C115 1.362 . S
C115 H79 0.930 . S
C115 C110 1.390 . S
C115 C114 1.362 . S
C116 C105 1.492 . S
C116 C117 1.377 . S
C116 C121 1.397 . S
C117 H80 0.931 . S
C117 C116 1.377 . S
C117 C118 1.376 . S
C118 H81 0.930 . S
C118 C117 1.376 . S
C118 C119 1.376 . S
C119 C118 1.376 . S
C119 C120 1.378 . S
C119 C146 1.486 . S
C120 H82 0.930 . S
C120 C119 1.378 . S
C120 C121 1.376 . S
C121 H83 0.929 . S
C121 C116 1.397 . S
C121 C120 1.376 . S
C122 C106 1.509 . S
C122 C123 1.391 . S
C122 C127 1.386 . S
C123 H84 0.930 . S
C123 C122 1.391 . S
C123 C124 1.375 . S
C124 H85 0.931 . S
C124 C123 1.375 . S
C124 C125 1.375 . S
C125 C124 1.375 . S
C125 C126 1.361 . S
C126 H86 0.930 . S
C126 C125 1.361 . S
C126 C127 1.399 . S
C127 H87 0.929 . S
C127 C122 1.386 . S
C127 C126 1.399 . S
C128 C107 1.485 . S
C128 C129 1.394 . S
C128 C133 1.360 . S
C129 H88 0.931 . S
C129 C128 1.394 . S
C129 C130 1.372 . S
C130 H89 0.930 . S
C130 C129 1.372 . S
C130 C131 1.397 . S
C131 C130 1.397 . S
C131 C132 1.390 . S
C131 C147 1.476 1_565 S
C132 H90 0.930 . S
C132 C131 1.390 . S
C132 C133 1.366 . S
C133 H91 0.932 . S
C133 C128 1.360 . S
C133 C132 1.366 . S
C134 C108 1.490 . S
C134 C135 1.380 . S
C134 C139 1.386 . S
C135 H92 0.930 . S
C135 C134 1.380 . S
C135 C136 1.381 . S
C136 H93 0.929 . S
C136 C135 1.381 . S
C136 C137 1.371 . S
C137 C136 1.371 . S
C137 C138 1.380 . S
C138 H94 0.931 . S
C138 C137 1.380 . S
C138 C139 1.387 . S
C139 H95 0.930 . S
C139 C134 1.386 . S
C139 C138 1.387 . S
C140 C109 1.519 . S
C140 C141 1.377 . S
C140 C145 1.361 . S
C141 H96 0.929 . S
C141 C140 1.377 . S
C141 C142 1.386 . S
C142 H97 0.931 . S
C142 C141 1.386 . S
C142 C143 1.363 . S
C143 C142 1.363 . S
C143 C144 1.385 . S
C144 H98 0.930 . S
C144 C143 1.385 . S
C144 C145 1.396 . S
C145 H99 0.929 . S
C145 C140 1.361 . S
C145 C144 1.396 . S
C146 O100 1.300 . S
C146 O101 1.209 . S
C146 C119 1.486 . S
C147 O102 1.199 . S
C147 O103 1.297 . S
C147 C131 1.476 1_545 S
H148 O174 0.856 . S
H149 O177 0.854 . S
H150 C185 0.930 . S
H151 C186 0.930 . S
H152 C188 0.930 . S
H153 C189 0.930 . S
H154 C191 0.931 . S
H155 C192 0.930 . S
H156 C194 0.930 . S
H157 C195 0.929 . S
H158 C197 0.930 . S
H159 C198 0.931 . S
H160 C200 0.930 . S
H161 C201 0.929 . S
H162 C203 0.931 . S
H163 C204 0.930 . S
H164 C206 0.930 . S
H165 C207 0.932 . S
H166 C209 0.929 1_554 S
H167 C210 0.929 . S
H168 C212 0.931 . S
H169 C213 0.930 . S
H170 C215 0.929 . S
H171 C216 0.931 1_556 S
H172 C218 0.930 . S
H173 C219 0.929 . S
O174 H148 0.856 . S
O174 C220 1.300 . S
O175 C220 1.209 . S
O176 C221 1.199 . S
O177 H149 0.854 . S
O177 C221 1.297 . S
C178 C179 1.404 . S
C178 C183 1.397 . S
C178 C184 1.492 . S
C179 C178 1.404 . S
C179 C180 1.396 . S
C179 C190 1.492 . S
C180 C179 1.396 . S
C180 C181 1.397 . S
C180 C196 1.509 . S
C181 C180 1.397 . S
C181 C182 1.412 . S
C181 C202 1.485 . S
C182 C181 1.412 . S
C182 C183 1.388 . S
C182 C208 1.490 . S
C183 C178 1.397 . S
C183 C182 1.388 . S
C183 C214 1.519 . S
C184 C178 1.492 . S
C184 C185 1.363 1_545 S
C184 C189 1.390 . S
C185 H150 0.930 . S
C185 C184 1.363 1_565 S
C185 C186 1.372 . S
C186 H151 0.930 . S
C186 C185 1.372 . S
C186 C187 1.383 1_565 S
C187 C186 1.383 1_545 S
C187 C188 1.395 . S
C188 H152 0.930 . S
C188 C187 1.395 . S
C188 C189 1.362 . S
C189 H153 0.930 . S
C189 C184 1.390 . S
C189 C188 1.362 . S
C190 C179 1.492 . S
C190 C191 1.377 1_545 S
C190 C195 1.397 . S
C191 H154 0.931 . S
C191 C190 1.377 1_565 S
C191 C192 1.376 . S
C192 H155 0.930 . S
C192 C191 1.376 . S
C192 C193 1.376 . S
C193 C192 1.376 . S
C193 C194 1.378 1_565 S
C193 C220 1.486 . S
C194 H156 0.930 . S
C194 C193 1.378 1_545 S
C194 C195 1.376 . S
C195 H157 0.929 . S
C195 C190 1.397 . S
C195 C194 1.376 . S
C196 C180 1.509 . S
C196 C197 1.391 1_545 S
C196 C201 1.386 . S
C197 H158 0.930 . S
C197 C196 1.391 1_565 S
C197 C198 1.375 . S
C198 H159 0.931 . S
C198 C197 1.375 . S
C198 C199 1.375 . S
C199 C198 1.375 . S
C199 C200 1.361 1_565 S
C200 H160 0.930 . S
C200 C199 1.361 1_545 S
C200 C201 1.399 . S
C201 H161 0.929 . S
C201 C196 1.386 . S
C201 C200 1.399 . S
C202 C181 1.485 . S
C202 C203 1.394 . S
C202 C207 1.360 . S
C203 H162 0.931 . S
C203 C202 1.394 . S
C203 C204 1.372 . S
C204 H163 0.930 . S
C204 C203 1.372 . S
C204 C205 1.397 . S
C205 C204 1.397 . S
C205 C206 1.390 . S
C205 C221 1.476 . S
C206 H164 0.930 . S
C206 C205 1.390 . S
C206 C207 1.366 . S
C207 H165 0.932 . S
C207 C202 1.360 . S
C207 C206 1.366 . S
C208 C182 1.490 . S
C208 C209 1.372 1_554 S
C208 C213 1.386 . S
C209 H166 0.929 1_556 S
C209 C208 1.372 1_556 S
C209 C210 1.390 . S
C210 H167 0.929 . S
C210 C209 1.390 . S
C210 C211 1.371 . S
C211 C210 1.371 . S
C211 C212 1.380 . S
C212 H168 0.931 . S
C212 C211 1.380 . S
C212 C213 1.387 1_556 S
C213 H169 0.930 . S
C213 C208 1.386 . S
C213 C212 1.387 1_554 S
C214 C183 1.519 . S
C214 C215 1.377 . S
C214 C219 1.361 . S
C215 H170 0.929 . S
C215 C214 1.377 . S
C215 C216 1.386 . S
C216 H171 0.931 1_554 S
C216 C215 1.386 . S
C216 C217 1.363 . S
C217 C216 1.363 . S
C217 C218 1.385 . S
C218 H172 0.930 . S
C218 C217 1.385 . S
C218 C219 1.396 . S
C219 H173 0.929 . S
C219 C214 1.361 . S
C219 C218 1.396 . S
C220 O174 1.300 . S
C220 O175 1.209 . S
C220 C193 1.486 . S
C221 O176 1.199 . S
C221 O177 1.297 . S
C221 C205 1.476 . S
H222 O248 0.856 . S
H223 O251 0.854 . S
H224 C259 0.930 . S
H225 C260 0.930 . S
H226 C262 0.930 . S
H227 C263 0.930 . S
H228 C265 0.931 . S
H229 C266 0.930 . S
H230 C268 0.930 . S
H231 C269 0.929 . S
H232 C271 0.930 . S
H233 C272 0.931 . S
H234 C274 0.930 . S
H235 C275 0.929 . S
H236 C277 0.931 . S
H237 C278 0.930 . S
H238 C280 0.930 . S
H239 C281 0.932 . S
H240 C283 0.930 . S
H241 C284 0.929 . S
H242 C286 0.931 . S
H243 C287 0.930 . S
H244 C289 0.929 . S
H245 C290 0.931 . S
H246 C292 0.930 . S
H247 C293 0.929 . S
O248 H222 0.856 . S
O248 C294 1.300 . S
O249 C294 1.209 . S
O250 C295 1.199 . S
O251 H223 0.854 . S
O251 C295 1.297 . S
C252 C253 1.404 . S
C252 C257 1.397 . S
C252 C258 1.492 . S
C253 C252 1.404 . S
C253 C254 1.396 . S
C253 C264 1.492 . S
C254 C253 1.396 . S
C254 C255 1.397 . S
C254 C270 1.509 . S
C255 C254 1.397 . S
C255 C256 1.412 . S
C255 C276 1.485 . S
C256 C255 1.412 . S
C256 C257 1.388 . S
C256 C282 1.490 . S
C257 C252 1.397 . S
C257 C256 1.388 . S
C257 C288 1.519 . S
C258 C252 1.492 . S
C258 C259 1.363 . S
C258 C263 1.390 . S
C259 H224 0.930 . S
C259 C258 1.363 . S
C259 C260 1.372 . S
C260 H225 0.930 . S
C260 C259 1.372 . S
C260 C261 1.383 . S
C261 C260 1.383 . S
C261 C262 1.395 . S
C262 H226 0.930 . S
C262 C261 1.395 . S
C262 C263 1.362 . S
C263 H227 0.930 . S
C263 C258 1.390 . S
C263 C262 1.362 . S
C264 C253 1.492 . S
C264 C265 1.377 . S
C264 C269 1.397 . S
C265 H228 0.931 . S
C265 C264 1.377 . S
C265 C266 1.376 . S
C266 H229 0.930 . S
C266 C265 1.376 . S
C266 C267 1.376 . S
C267 C266 1.376 . S
C267 C268 1.378 . S
C267 C294 1.486 . S
C268 H230 0.930 . S
C268 C267 1.378 . S
C268 C269 1.376 . S
C269 H231 0.929 . S
C269 C264 1.397 . S
C269 C268 1.376 . S
C270 C254 1.509 . S
C270 C271 1.391 . S
C270 C275 1.386 . S
C271 H232 0.930 . S
C271 C270 1.391 . S
C271 C272 1.375 . S
C272 H233 0.931 . S
C272 C271 1.375 . S
C272 C273 1.375 . S
C273 C272 1.375 . S
C273 C274 1.361 . S
C274 H234 0.930 . S
C274 C273 1.361 . S
C274 C275 1.399 . S
C275 H235 0.929 . S
C275 C270 1.386 . S
C275 C274 1.399 . S
C276 C255 1.485 . S
C276 C277 1.394 . S
C276 C281 1.360 . S
C277 H236 0.931 . S
C277 C276 1.394 . S
C277 C278 1.372 . S
C278 H237 0.930 . S
C278 C277 1.372 . S
C278 C279 1.397 . S
C279 C278 1.397 . S
C279 C280 1.390 . S
C279 C295 1.476 . S
C280 H238 0.930 . S
C280 C279 1.390 . S
C280 C281 1.366 . S
C281 H239 0.932 . S
C281 C276 1.360 . S
C281 C280 1.366 . S
C282 C256 1.490 . S
C282 C283 1.380 . S
C282 C287 1.386 . S
C283 H240 0.930 . S
C283 C282 1.380 . S
C283 C284 1.381 . S
C284 H241 0.929 . S
C284 C283 1.381 . S
C284 C285 1.371 . S
C285 C284 1.371 . S
C285 C286 1.380 . S
C286 H242 0.931 . S
C286 C285 1.380 . S
C286 C287 1.387 . S
C287 H243 0.930 . S
C287 C282 1.386 . S
C287 C286 1.387 . S
C288 C257 1.519 . S
C288 C289 1.377 . S
C288 C293 1.361 . S
C289 H244 0.929 . S
C289 C288 1.377 . S
C289 C290 1.386 . S
C290 H245 0.931 . S
C290 C289 1.386 . S
C290 C291 1.363 . S
C291 C290 1.363 . S
C291 C292 1.385 . S
C292 H246 0.930 . S
C292 C291 1.385 . S
C292 C293 1.396 . S
C293 H247 0.929 . S
C293 C288 1.361 . S
C293 C292 1.396 . S
C294 O248 1.300 . S
C294 O249 1.209 . S
C294 C267 1.486 . S
C295 O250 1.199 . S
C295 O251 1.297 . S
C295 C279 1.476 . S
H296 O322 0.856 . S
H297 O325 0.854 . S
H298 C333 0.930 . S
H299 C334 0.930 . S
H300 C336 0.930 . S
H301 C337 0.930 . S
H302 C339 0.931 . S
H303 C340 0.930 . S
H304 C342 0.930 . S
H305 C343 0.929 . S
H306 C345 0.930 . S
H307 C346 0.931 . S
H308 C348 0.930 . S
H309 C349 0.929 . S
H310 C351 0.931 . S
H311 C352 0.930 . S
H312 C354 0.930 . S
H313 C355 0.932 . S
H314 C357 0.930 . S
H315 C358 0.929 . S
H316 C360 0.931 . S
H317 C361 0.930 . S
H318 C363 0.929 . S
H319 C364 0.931 . S
H320 C366 0.930 . S
H321 C367 0.929 . S
O322 H296 0.856 . S
O322 C368 1.300 . S
O323 C368 1.209 1_455 S
O324 C369 1.199 . S
O325 H297 0.854 . S
O325 C369 1.297 . S
C326 C327 1.404 . S
C326 C331 1.397 . S
C326 C332 1.492 . S
C327 C326 1.404 . S
C327 C328 1.396 . S
C327 C338 1.492 . S
C328 C327 1.396 . S
C328 C329 1.397 . S
C328 C344 1.509 . S
C329 C328 1.397 . S
C329 C330 1.412 . S
C329 C350 1.485 . S
C330 C329 1.412 . S
C330 C331 1.388 . S
C330 C356 1.490 . S
C331 C326 1.397 . S
C331 C330 1.388 . S
C331 C362 1.519 . S
C332 C326 1.492 . S
C332 C333 1.363 . S
C332 C337 1.390 . S
C333 H298 0.930 . S
C333 C332 1.363 . S
C333 C334 1.372 . S
C334 H299 0.930 . S
C334 C333 1.372 . S
C334 C335 1.383 . S
C335 C334 1.383 . S
C335 C336 1.395 . S
C336 H300 0.930 . S
C336 C335 1.395 . S
C336 C337 1.362 . S
C337 H301 0.930 . S
C337 C332 1.390 . S
C337 C336 1.362 . S
C338 C327 1.492 . S
C338 C339 1.377 . S
C338 C343 1.397 . S
C339 H302 0.931 . S
C339 C338 1.377 . S
C339 C340 1.376 . S
C340 H303 0.930 . S
C340 C339 1.376 . S
C340 C341 1.376 . S
C341 C340 1.376 . S
C341 C342 1.378 . S
C341 C368 1.486 . S
C342 H304 0.930 . S
C342 C341 1.378 . S
C342 C343 1.376 . S
C343 H305 0.929 . S
C343 C338 1.397 . S
C343 C342 1.376 . S
C344 C328 1.509 . S
C344 C345 1.391 . S
C344 C349 1.386 . S
C345 H306 0.930 . S
C345 C344 1.391 . S
C345 C346 1.375 . S
C346 H307 0.931 . S
C346 C345 1.375 . S
C346 C347 1.375 . S
C347 C346 1.375 . S
C347 C348 1.361 . S
C348 H308 0.930 . S
C348 C347 1.361 . S
C348 C349 1.399 . S
C349 H309 0.929 . S
C349 C344 1.386 . S
C349 C348 1.399 . S
C350 C329 1.485 . S
C350 C351 1.394 . S
C350 C355 1.360 . S
C351 H310 0.931 . S
C351 C350 1.394 . S
C351 C352 1.372 . S
C352 H311 0.930 . S
C352 C351 1.372 . S
C352 C353 1.397 . S
C353 C352 1.397 . S
C353 C354 1.390 . S
C353 C369 1.476 . S
C354 H312 0.930 . S
C354 C353 1.390 . S
C354 C355 1.366 . S
C355 H313 0.932 . S
C355 C350 1.360 . S
C355 C354 1.366 . S
C356 C330 1.490 . S
C356 C357 1.380 . S
C356 C361 1.386 . S
C357 H314 0.930 . S
C357 C356 1.380 . S
C357 C358 1.381 . S
C358 H315 0.929 . S
C358 C357 1.381 . S
C358 C359 1.371 . S
C359 C358 1.371 . S
C359 C360 1.380 . S
C360 H316 0.931 . S
C360 C359 1.380 . S
C360 C361 1.387 . S
C361 H317 0.930 . S
C361 C356 1.386 . S
C361 C360 1.387 . S
C362 C331 1.519 . S
C362 C363 1.377 . S
C362 C367 1.361 . S
C363 H318 0.929 . S
C363 C362 1.377 . S
C363 C364 1.386 . S
C364 H319 0.931 . S
C364 C363 1.386 . S
C364 C365 1.363 . S
C365 C364 1.363 . S
C365 C366 1.385 . S
C366 H320 0.930 . S
C366 C365 1.385 . S
C366 C367 1.396 . S
C367 H321 0.929 . S
C367 C362 1.361 . S
C367 C366 1.396 . S
C368 O322 1.300 . S
C368 O323 1.209 1_655 S
C368 C341 1.486 . S
C369 O324 1.199 . S
C369 O325 1.297 . S
C369 C353 1.476 . S
H370 O396 0.856 . S
H371 O399 0.854 . S
H372 C407 0.930 . S
H373 C408 0.930 1_545 S
H374 C410 0.930 . S
H375 C411 0.930 . S
H376 C413 0.931 . S
H377 C414 0.930 . S
H378 C416 0.930 . S
H379 C417 0.929 . S
H380 C419 0.930 . S
H381 C420 0.931 . S
H382 C422 0.930 . S
H383 C423 0.929 . S
H384 C425 0.931 . S
H385 C426 0.930 . S
H386 C428 0.930 . S
H387 C429 0.932 . S
H388 C431 0.930 . S
H389 C432 0.929 . S
H390 C434 0.931 . S
H391 C435 0.930 . S
H392 C437 0.929 . S
H393 C438 0.931 . S
H394 C440 0.930 . S
H395 C441 0.929 . S
O396 H370 0.856 . S
O396 C442 1.300 . S
O397 C442 1.209 . S
O398 C443 1.199 . S
O399 H371 0.854 . S
O399 C443 1.297 . S
C400 C401 1.404 . S
C400 C405 1.397 . S
C400 C406 1.492 . S
C401 C400 1.404 . S
C401 C402 1.396 . S
C401 C412 1.492 . S
C402 C401 1.396 . S
C402 C403 1.397 . S
C402 C418 1.509 . S
C403 C402 1.397 . S
C403 C404 1.412 . S
C403 C424 1.485 . S
C404 C403 1.412 . S
C404 C405 1.388 . S
C404 C430 1.490 . S
C405 C400 1.397 . S
C405 C404 1.388 . S
C405 C436 1.519 . S
C406 C400 1.492 . S
C406 C407 1.363 . S
C406 C411 1.390 . S
C407 H372 0.930 . S
C407 C406 1.363 . S
C407 C408 1.372 . S
C408 H373 0.930 1_565 S
C408 C407 1.372 . S
C408 C409 1.383 1_565 S
C409 C408 1.383 1_545 S
C409 C410 1.395 . S
C410 H374 0.930 . S
C410 C409 1.395 . S
C410 C411 1.362 1_545 S
C411 H375 0.930 . S
C411 C406 1.390 . S
C411 C410 1.362 1_565 S
C412 C401 1.492 . S
C412 C413 1.377 . S
C412 C417 1.397 . S
C413 H376 0.931 . S
C413 C412 1.377 . S
C413 C414 1.376 . S
C414 H377 0.930 . S
C414 C413 1.376 . S
C414 C415 1.376 . S
C415 C414 1.376 . S
C415 C416 1.378 . S
C415 C442 1.486 . S
C416 H378 0.930 . S
C416 C415 1.378 . S
C416 C417 1.376 . S
C417 H379 0.929 . S
C417 C412 1.397 . S
C417 C416 1.376 . S
C418 C402 1.509 . S
C418 C419 1.391 . S
C418 C423 1.386 . S
C419 H380 0.930 . S
C419 C418 1.391 . S
C419 C420 1.375 . S
C420 H381 0.931 . S
C420 C419 1.375 . S
C420 C421 1.375 . S
C421 C420 1.375 . S
C421 C422 1.361 . S
C422 H382 0.930 . S
C422 C421 1.361 . S
C422 C423 1.399 . S
C423 H383 0.929 . S
C423 C418 1.386 . S
C423 C422 1.399 . S
C424 C403 1.485 . S
C424 C425 1.394 . S
C424 C429 1.360 . S
C425 H384 0.931 . S
C425 C424 1.394 . S
C425 C426 1.372 . S
C426 H385 0.930 . S
C426 C425 1.372 . S
C426 C427 1.397 . S
C427 C426 1.397 . S
C427 C428 1.390 . S
C427 C443 1.476 . S
C428 H386 0.930 . S
C428 C427 1.390 . S
C428 C429 1.366 . S
C429 H387 0.932 . S
C429 C424 1.360 . S
C429 C428 1.366 . S
C430 C404 1.490 . S
C430 C431 1.380 . S
C430 C435 1.386 . S
C431 H388 0.930 . S
C431 C430 1.380 . S
C431 C432 1.381 . S
C432 H389 0.929 . S
C432 C431 1.381 . S
C432 C433 1.371 . S
C433 C432 1.371 . S
C433 C434 1.380 . S
C434 H390 0.931 . S
C434 C433 1.380 . S
C434 C435 1.387 . S
C435 H391 0.930 . S
C435 C430 1.386 . S
C435 C434 1.387 . S
C436 C405 1.519 . S
C436 C437 1.377 . S
C436 C441 1.361 . S
C437 H392 0.929 . S
C437 C436 1.377 . S
C437 C438 1.386 . S
C438 H393 0.931 . S
C438 C437 1.386 . S
C438 C439 1.363 . S
C439 C438 1.363 . S
C439 C440 1.385 . S
C440 H394 0.930 . S
C440 C439 1.385 . S
C440 C441 1.396 . S
C441 H395 0.929 . S
C441 C436 1.361 . S
C441 C440 1.396 . S
C442 O396 1.300 . S
C442 O397 1.209 . S
C442 C415 1.486 . S
C443 O398 1.199 . S
C443 O399 1.297 . S
C443 C427 1.476 . S
H444 O470 0.856 . S
H445 O473 0.854 . S
H446 C481 0.930 1_556 S
H447 C482 0.930 . S
H448 C484 0.930 . S
H449 C485 0.930 . S
H450 C487 0.931 . S
H451 C488 0.930 . S
H452 C490 0.930 . S
H453 C491 0.929 1_554 S
H454 C493 0.930 . S
H455 C494 0.931 . S
H456 C496 0.930 . S
H457 C497 0.929 . S
H458 C499 0.931 . S
H459 C500 0.930 . S
H460 C502 0.930 . S
H461 C503 0.932 . S
H462 C505 0.930 . S
H463 C506 0.929 . S
H464 C508 0.931 . S
H465 C509 0.930 . S
H466 C511 0.929 . S
H467 C512 0.931 . S
H468 C514 0.930 . S
H469 C515 0.929 . S
O470 H444 0.856 . S
O470 C516 1.300 . S
O471 C516 1.209 . S
O472 C517 1.199 . S
O473 H445 0.854 . S
O473 C517 1.297 . S
C474 C475 1.404 . S
C474 C479 1.397 . S
C474 C480 1.492 . S
C475 C474 1.404 . S
C475 C476 1.396 . S
C475 C486 1.492 1_554 S
C476 C475 1.396 . S
C476 C477 1.397 . S
C476 C492 1.509 . S
C477 C476 1.397 . S
C477 C478 1.412 . S
C477 C498 1.485 . S
C478 C477 1.412 . S
C478 C479 1.388 . S
C478 C504 1.490 . S
C479 C474 1.397 . S
C479 C478 1.388 . S
C479 C510 1.519 . S
C480 C474 1.492 . S
C480 C481 1.363 . S
C480 C485 1.390 . S
C481 H446 0.930 1_554 S
C481 C480 1.363 . S
C481 C482 1.372 1_554 S
C482 H447 0.930 . S
C482 C481 1.372 1_556 S
C482 C483 1.383 1_556 S
C483 C482 1.383 1_554 S
C483 C484 1.395 . S
C484 H448 0.930 . S
C484 C483 1.395 . S
C484 C485 1.362 . S
C485 H449 0.930 . S
C485 C480 1.390 . S
C485 C484 1.362 . S
C486 C475 1.492 1_556 S
C486 C487 1.377 . S
C486 C491 1.397 . S
C487 H450 0.931 . S
C487 C486 1.377 . S
C487 C488 1.376 . S
C488 H451 0.930 . S
C488 C487 1.376 . S
C488 C489 1.376 . S
C489 C488 1.376 . S
C489 C490 1.378 . S
C489 C516 1.486 . S
C490 H452 0.930 . S
C490 C489 1.378 . S
C490 C491 1.376 . S
C491 H453 0.929 1_556 S
C491 C486 1.397 . S
C491 C490 1.376 . S
C492 C476 1.509 . S
C492 C493 1.391 1_554 S
C492 C497 1.386 . S
C493 H454 0.930 . S
C493 C492 1.391 1_556 S
C493 C494 1.375 . S
C494 H455 0.931 . S
C494 C493 1.375 . S
C494 C495 1.375 . S
C495 C494 1.375 . S
C495 C496 1.361 . S
C496 H456 0.930 . S
C496 C495 1.361 . S
C496 C497 1.399 1_556 S
C497 H457 0.929 . S
C497 C492 1.386 . S
C497 C496 1.399 1_554 S
C498 C477 1.485 . S
C498 C499 1.394 . S
C498 C503 1.360 . S
C499 H458 0.931 . S
C499 C498 1.394 . S
C499 C500 1.372 . S
C500 H459 0.930 . S
C500 C499 1.372 . S
C500 C501 1.397 . S
C501 C500 1.397 . S
C501 C502 1.390 . S
C501 C517 1.476 . S
C502 H460 0.930 . S
C502 C501 1.390 . S
C502 C503 1.366 . S
C503 H461 0.932 . S
C503 C498 1.360 . S
C503 C502 1.366 . S
C504 C478 1.490 . S
C504 C505 1.380 . S
C504 C509 1.386 . S
C505 H462 0.930 . S
C505 C504 1.380 . S
C505 C506 1.381 . S
C506 H463 0.929 . S
C506 C505 1.381 . S
C506 C507 1.371 . S
C507 C506 1.371 . S
C507 C508 1.380 . S
C508 H464 0.931 . S
C508 C507 1.380 . S
C508 C509 1.387 . S
C509 H465 0.930 . S
C509 C504 1.386 . S
C509 C508 1.387 . S
C510 C479 1.519 . S
C510 C511 1.377 . S
C510 C515 1.361 . S
C511 H466 0.929 . S
C511 C510 1.377 . S
C511 C512 1.386 . S
C512 H467 0.931 . S
C512 C511 1.386 . S
C512 C513 1.363 . S
C513 C512 1.363 . S
C513 C514 1.385 . S
C514 H468 0.930 . S
C514 C513 1.385 . S
C514 C515 1.396 . S
C515 H469 0.929 . S
C515 C510 1.361 . S
C515 C514 1.396 . S
C516 O470 1.300 . S
C516 O471 1.209 . S
C516 C489 1.486 . S
C517 O472 1.199 . S
C517 O473 1.297 . S
C517 C501 1.476 . S
H518 O544 0.856 . S
H519 O547 0.854 . S
H520 C555 0.930 . S
H521 C556 0.935 . S
H522 C558 0.930 . S
H523 C559 0.930 . S
H524 C561 0.931 . S
H525 C562 0.930 . S
H526 C564 0.930 . S
H527 C565 0.929 . S
H528 C567 0.930 . S
H529 C568 0.931 . S
H530 C570 0.930 . S
H531 C571 0.929 . S
H532 C573 0.931 . S
H533 C574 0.930 . S
H534 C576 0.930 . S
H535 C577 0.932 . S
H536 C579 0.930 . S
H537 C580 0.929 . S
H538 C582 0.931 . S
H539 C583 0.930 . S
H540 C585 0.929 . S
H541 C586 0.931 . S
H542 C588 0.930 . S
H543 C589 0.929 . S
O544 H518 0.856 . S
O544 C590 1.300 . S
O545 C590 1.209 . S
O546 C591 1.199 . S
O547 H519 0.854 . S
O547 C591 1.297 . S
C548 C549 1.404 . S
C548 C553 1.397 . S
C548 C554 1.492 . S
C549 C548 1.404 . S
C549 C550 1.396 . S
C549 C560 1.492 . S
C550 C549 1.396 . S
C550 C551 1.397 . S
C550 C566 1.509 . S
C551 C550 1.397 . S
C551 C552 1.412 . S
C551 C572 1.485 . S
C552 C551 1.412 . S
C552 C553 1.388 . S
C552 C578 1.490 . S
C553 C548 1.397 . S
C553 C552 1.388 . S
C553 C584 1.519 . S
C554 C548 1.492 . S
C554 C555 1.363 . S
C554 C559 1.390 . S
C555 H520 0.930 . S
C555 C554 1.363 . S
C555 C556 1.372 . S
C556 H521 0.935 . S
C556 C555 1.372 . S
C556 C557 1.383 1_455 S
C557 C556 1.383 1_655 S
C557 C558 1.395 . S
C558 H522 0.930 . S
C558 C557 1.395 . S
C558 C559 1.362 1_655 S
C559 H523 0.930 . S
C559 C554 1.390 . S
C559 C558 1.362 1_455 S
C560 C549 1.492 . S
C560 C561 1.377 . S
C560 C565 1.397 . S
C561 H524 0.931 . S
C561 C560 1.377 . S
C561 C562 1.376 . S
C562 H525 0.930 . S
C562 C561 1.376 . S
C562 C563 1.376 . S
C563 C562 1.376 . S
C563 C564 1.378 . S
C563 C590 1.486 . S
C564 H526 0.930 . S
C564 C563 1.378 . S
C564 C565 1.376 . S
C565 H527 0.929 . S
C565 C560 1.397 . S
C565 C564 1.376 . S
C566 C550 1.509 . S
C566 C567 1.391 . S
C566 C571 1.386 . S
C567 H528 0.930 . S
C567 C566 1.391 . S
C567 C568 1.375 . S
C568 H529 0.931 . S
C568 C567 1.375 . S
C568 C569 1.375 . S
C569 C568 1.375 . S
C569 C570 1.361 . S
C570 H530 0.930 . S
C570 C569 1.361 . S
C570 C571 1.399 . S
C571 H531 0.929 . S
C571 C566 1.386 . S
C571 C570 1.399 . S
C572 C551 1.485 . S
C572 C573 1.394 . S
C572 C577 1.360 . S
C573 H532 0.931 . S
C573 C572 1.394 . S
C573 C574 1.372 . S
C574 H533 0.930 . S
C574 C573 1.372 . S
C574 C575 1.397 . S
C575 C574 1.397 . S
C575 C576 1.390 . S
C575 C591 1.476 . S
C576 H534 0.930 . S
C576 C575 1.390 . S
C576 C577 1.366 . S
C577 H535 0.932 . S
C577 C572 1.360 . S
C577 C576 1.366 . S
C578 C552 1.490 . S
C578 C579 1.380 . S
C578 C583 1.386 . S
C579 H536 0.930 . S
C579 C578 1.380 . S
C579 C580 1.381 . S
C580 H537 0.929 . S
C580 C579 1.381 . S
C580 C581 1.371 . S
C581 C580 1.371 . S
C581 C582 1.380 . S
C582 H538 0.931 . S
C582 C581 1.380 . S
C582 C583 1.387 . S
C583 H539 0.930 . S
C583 C578 1.386 . S
C583 C582 1.387 . S
C584 C553 1.519 . S
C584 C585 1.377 . S
C584 C589 1.361 . S
C585 H540 0.929 . S
C585 C584 1.377 . S
C585 C586 1.386 . S
C586 H541 0.931 . S
C586 C585 1.386 . S
C586 C587 1.363 . S
C587 C586 1.363 . S
C587 C588 1.385 . S
C588 H542 0.930 . S
C588 C587 1.385 . S
C588 C589 1.396 . S
C589 H543 0.929 . S
C589 C584 1.361 . S
C589 C588 1.396 . S
C590 O544 1.300 . S
C590 O545 1.209 . S
C590 C563 1.486 . S
C591 O546 1.199 . S
C591 O547 1.297 . S
C591 C575 1.476 . S
C592 O619 1.312 . S
C592 O620 1.208 . S
C593 O614 1.331 . S
C593 O617 1.244 . S
C594 O616 1.264 . S
C594 O618 1.273 . S
Mg595 O597 1.936 . S
Mg595 O604 2.081 . S
Mg595 O606 2.023 . S
Mg595 O610 2.031 . S
Mg595 O619 2.291 . S
Mg596 O597 1.963 . S
Mg596 O607 1.942 . S
Mg596 O608 1.955 . S
Mg596 O615 1.986 . S
O597 Mg595 1.936 . S
O597 Mg596 1.963 . S
O597 Mg598 1.915 . S
Mg598 O597 1.915 . S
Mg598 O599 1.915 . S
Mg598 O603 2.013 . S
Mg598 O609 2.114 . S
Mg598 O613 2.013 . S
Mg598 O619 2.114 . S
O599 Mg598 1.915 . S
O599 Mg600 1.936 . S
O599 Mg601 1.963 1_455 S
Mg600 O599 1.936 . S
Mg600 O609 2.291 . S
Mg600 O614 2.081 1_455 S
Mg600 O616 2.023 1_455 S
Mg600 O620 2.031 . S
Mg601 O599 1.963 1_655 S
Mg601 O605 1.986 . S
Mg601 O617 1.942 . S
Mg601 O618 1.955 . S
C602 O613 1.191 . S
C602 O615 1.307 . S
O603 Mg598 2.013 . S
O603 C622 1.191 . S
O604 Mg595 2.081 . S
O604 C612 1.331 . S
O605 Mg601 1.986 . S
O605 C622 1.307 1_655 S
O606 Mg595 2.023 . S
O606 C621 1.264 . S
O607 Mg596 1.942 . S
O607 C612 1.244 . S
O608 Mg596 1.955 . S
O608 C621 1.273 . S
O609 Mg598 2.114 . S
O609 Mg600 2.291 . S
O609 C611 1.312 . S
O610 Mg595 2.031 . S
O610 C611 1.208 . S
C611 O609 1.312 . S
C611 O610 1.208 . S
C612 O604 1.331 . S
C612 O607 1.244 . S
O613 Mg598 2.013 . S
O613 C602 1.191 . S
O614 C593 1.331 . S
O614 Mg600 2.081 1_655 S
O615 Mg596 1.986 . S
O615 C602 1.307 . S
O616 C594 1.264 . S
O616 Mg600 2.023 1_655 S
O617 C593 1.244 . S
O617 Mg601 1.942 . S
O618 C594 1.273 . S
O618 Mg601 1.955 . S
O619 C592 1.312 . S
O619 Mg595 2.291 . S
O619 Mg598 2.114 . S
O620 C592 1.208 . S
O620 Mg600 2.031 . S
C621 O606 1.264 . S
C621 O608 1.273 . S
C622 O603 1.191 . S
C622 O605 1.307 1_455 S
C623 O650 1.312 . S
C623 O651 1.208 . S
C624 O645 1.331 . S
C624 O648 1.244 . S
C625 O647 1.264 . S
C625 O649 1.273 . S
Mg626 O628 1.936 . S
Mg626 O635 2.081 . S
Mg626 O637 2.023 . S
Mg626 O641 2.031 . S
Mg626 O650 2.291 . S
Mg627 O628 1.963 . S
Mg627 O638 1.942 . S
Mg627 O639 1.955 . S
Mg627 O646 1.986 . S
O628 Mg626 1.936 . S
O628 Mg627 1.963 . S
O628 Mg629 1.915 . S
Mg629 O628 1.915 . S
Mg629 O630 1.915 . S
Mg629 O634 2.013 . S
Mg629 O640 2.114 . S
Mg629 O644 2.013 . S
Mg629 O650 2.114 . S
O630 Mg629 1.915 . S
O630 Mg631 1.936 . S
O630 Mg632 1.963 . S
Mg631 O630 1.936 . S
Mg631 O640 2.291 . S
Mg631 O645 2.081 . S
Mg631 O647 2.023 . S
Mg631 O651 2.031 . S
Mg632 O630 1.963 . S
Mg632 O636 1.986 . S
Mg632 O648 1.942 . S
Mg632 O649 1.955 . S
C633 O644 1.191 . S
C633 O646 1.307 . S
O634 Mg629 2.013 . S
O634 C653 1.191 . S
O635 Mg626 2.081 . S
O635 C643 1.331 . S
O636 Mg632 1.986 . S
O636 C653 1.307 . S
O637 Mg626 2.023 . S
O637 C652 1.264 . S
O638 Mg627 1.942 . S
O638 C643 1.244 . S
O639 Mg627 1.955 . S
O639 C652 1.273 . S
O640 Mg629 2.114 . S
O640 Mg631 2.291 . S
O640 C642 1.312 . S
O641 Mg626 2.031 . S
O641 C642 1.208 . S
C642 O640 1.312 . S
C642 O641 1.208 . S
C643 O635 1.331 . S
C643 O638 1.244 . S
O644 Mg629 2.013 . S
O644 C633 1.191 . S
O645 C624 1.331 . S
O645 Mg631 2.081 . S
O646 Mg627 1.986 . S
O646 C633 1.307 . S
O647 C625 1.264 . S
O647 Mg631 2.023 . S
O648 C624 1.244 . S
O648 Mg632 1.942 . S
O649 C625 1.273 . S
O649 Mg632 1.955 . S
O650 C623 1.312 . S
O650 Mg626 2.291 . S
O650 Mg629 2.114 . S
O651 C623 1.208 . S
O651 Mg631 2.031 . S
C652 O637 1.264 . S
C652 O639 1.273 . S
C653 O634 1.191 . S
C653 O636 1.307 . S
C654 O681 1.312 . S
C654 O682 1.208 . S
C655 O676 1.331 . S
C655 O679 1.244 . S
C656 O678 1.264 . S
C656 O680 1.273 . S
Mg657 O659 1.936 . S
Mg657 O666 2.081 . S
Mg657 O668 2.023 . S
Mg657 O672 2.031 . S
Mg657 O681 2.291 . S
Mg658 O659 1.963 . S
Mg658 O669 1.942 . S
Mg658 O670 1.955 . S
Mg658 O677 1.986 . S
O659 Mg657 1.936 . S
O659 Mg658 1.963 . S
O659 Mg660 1.915 . S
Mg660 O659 1.915 . S
Mg660 O661 1.915 . S
Mg660 O665 2.013 . S
Mg660 O671 2.114 . S
Mg660 O675 2.013 . S
Mg660 O681 2.114 . S
O661 Mg660 1.915 . S
O661 Mg662 1.936 . S
O661 Mg663 1.963 . S
Mg662 O661 1.936 . S
Mg662 O671 2.291 . S
Mg662 O676 2.081 . S
Mg662 O678 2.023 . S
Mg662 O682 2.031 . S
Mg663 O661 1.963 . S
Mg663 O667 1.986 . S
Mg663 O679 1.942 . S
Mg663 O680 1.955 . S
C664 O675 1.191 . S
C664 O677 1.307 . S
O665 Mg660 2.013 . S
O665 C684 1.191 . S
O666 Mg657 2.081 . S
O666 C674 1.331 . S
O667 Mg663 1.986 . S
O667 C684 1.307 . S
O668 Mg657 2.023 . S
O668 C683 1.264 . S
O669 Mg658 1.942 . S
O669 C674 1.244 . S
O670 Mg658 1.955 . S
O670 C683 1.273 . S
O671 Mg660 2.114 . S
O671 Mg662 2.291 . S
O671 C673 1.312 . S
O672 Mg657 2.031 . S
O672 C673 1.208 . S
C673 O671 1.312 . S
C673 O672 1.208 . S
C674 O666 1.331 . S
C674 O669 1.244 . S
O675 Mg660 2.013 . S
O675 C664 1.191 . S
O676 C655 1.331 . S
O676 Mg662 2.081 . S
O677 Mg658 1.986 . S
O677 C664 1.307 . S
O678 C656 1.264 . S
O678 Mg662 2.023 . S
O679 C655 1.244 . S
O679 Mg663 1.942 . S
O680 C656 1.273 . S
O680 Mg663 1.955 . S
O681 C654 1.312 . S
O681 Mg657 2.291 . S
O681 Mg660 2.114 . S
O682 C654 1.208 . S
O682 Mg662 2.031 . S
C683 O668 1.264 . S
C683 O670 1.273 . S
C684 O665 1.191 . S
C684 O667 1.307 . S
C685 O712 1.312 . S
C685 O713 1.208 . S
C686 O707 1.331 . S
C686 O710 1.244 . S
C687 O709 1.264 . S
C687 O711 1.273 . S
Mg688 O690 1.936 . S
Mg688 O697 2.081 1_455 S
Mg688 O699 2.023 1_455 S
Mg688 O703 2.031 . S
Mg688 O712 2.291 . S
Mg689 O690 1.963 1_655 S
Mg689 O700 1.942 . S
Mg689 O701 1.955 . S
Mg689 O708 1.986 . S
O690 Mg688 1.936 . S
O690 Mg689 1.963 1_455 S
O690 Mg691 1.915 . S
Mg691 O690 1.915 . S
Mg691 O692 1.915 . S
Mg691 O696 2.013 . S
Mg691 O702 2.114 . S
Mg691 O706 2.013 . S
Mg691 O712 2.114 . S
O692 Mg691 1.915 . S
O692 Mg693 1.936 . S
O692 Mg694 1.963 . S
Mg693 O692 1.936 . S
Mg693 O702 2.291 . S
Mg693 O707 2.081 . S
Mg693 O709 2.023 . S
Mg693 O713 2.031 . S
Mg694 O692 1.963 . S
Mg694 O698 1.986 . S
Mg694 O710 1.942 . S
Mg694 O711 1.955 . S
C695 O706 1.180 1_655 S
C695 O708 1.317 . S
O696 Mg691 2.013 . S
O696 C715 1.191 . S
O697 Mg688 2.081 1_655 S
O697 C705 1.331 . S
O698 Mg694 1.986 . S
O698 C715 1.307 . S
O699 Mg688 2.023 1_655 S
O699 C714 1.264 . S
O700 Mg689 1.942 . S
O700 C705 1.244 . S
O701 Mg689 1.955 . S
O701 C714 1.273 . S
O702 Mg691 2.114 . S
O702 Mg693 2.291 . S
O702 C704 1.312 . S
O703 Mg688 2.031 . S
O703 C704 1.208 . S
C704 O702 1.312 . S
C704 O703 1.208 . S
C705 O697 1.331 . S
C705 O700 1.244 . S
O706 Mg691 2.013 . S
O706 C695 1.180 1_455 S
O707 C686 1.331 . S
O707 Mg693 2.081 . S
O708 Mg689 1.986 . S
O708 C695 1.317 . S
O709 C687 1.264 . S
O709 Mg693 2.023 . S
O710 C686 1.244 . S
O710 Mg694 1.942 . S
O711 C687 1.273 . S
O711 Mg694 1.955 . S
O712 C685 1.312 . S
O712 Mg688 2.291 . S
O712 Mg691 2.114 . S
O713 C685 1.208 . S
O713 Mg693 2.031 . S
C714 O699 1.264 . S
C714 O701 1.273 . S
C715 O696 1.191 . S
C715 O698 1.307 . S
H716 C724 0.950 . S
H717 C729 0.950 . S
H718 C726 0.950 . S
H719 C728 0.950 . S
H720 C730 0.950 . S
H721 C732 0.950 . S
H722 C734 0.950 . S
H723 C735 0.950 . S
C724 H716 0.950 . S
C724 C725 1.386 . S
C724 C726 1.391 . S
C725 C724 1.386 . S
C725 C729 1.393 . S
C726 H718 0.950 . S
C726 C724 1.391 . S
C726 C727 1.400 . S
C727 C726 1.400 . S
C727 C728 1.398 . S
C727 C733 1.491 . S
C728 H719 0.950 . S
C728 C727 1.398 . S
C728 C729 1.391 . S
C729 H717 0.950 . S
C729 C725 1.393 . S
C729 C728 1.391 . S
C730 H720 0.950 . S
C730 C731 1.386 . S
C730 C732 1.391 . S
C731 C730 1.386 . S
C731 C735 1.393 . S
C732 H721 0.950 . S
C732 C730 1.391 . S
C732 C733 1.400 . S
C733 C727 1.491 . S
C733 C732 1.400 . S
C733 C734 1.398 . S
C734 H722 0.950 . S
C734 C733 1.398 . S
C734 C735 1.391 . S
C735 H723 0.950 . S
C735 C731 1.393 . S
C735 C734 1.391 . S
H736 C744 0.950 . S
H737 C749 0.950 . S
H738 C746 0.950 . S
H739 C748 0.950 . S
H740 C750 0.950 . S
H741 C752 0.950 . S
H742 C754 0.950 . S
H743 C755 0.950 . S
C744 H736 0.950 . S
C744 C745 1.386 . S
C744 C746 1.391 1_565 S
C745 C744 1.386 . S
C745 C749 1.393 . S
C746 H738 0.950 . S
C746 C744 1.391 1_545 S
C746 C747 1.400 . S
C747 C746 1.400 . S
C747 C748 1.398 1_545 S
C747 C753 1.491 . S
C748 H739 0.950 . S
C748 C747 1.398 1_565 S
C748 C749 1.391 . S
C749 H737 0.950 . S
C749 C745 1.393 . S
C749 C748 1.391 . S
C750 H740 0.950 . S
C750 C751 1.386 . S
C750 C752 1.391 . S
C751 C750 1.386 . S
C751 C755 1.393 . S
C752 H741 0.950 . S
C752 C750 1.391 . S
C752 C753 1.400 . S
C753 C747 1.491 . S
C753 C752 1.400 . S
C753 C754 1.398 . S
C754 H742 0.950 . S
C754 C753 1.398 . S
C754 C755 1.391 . S
C755 H743 0.950 . S
C755 C751 1.393 . S
C755 C754 1.391 . S
H756 C764 0.950 1_554 S
H757 C769 0.950 . S
H758 C766 0.950 . S
H759 C768 0.950 . S
H760 C770 0.950 . S
H761 C772 0.950 . S
H762 C774 0.950 . S
H763 C775 0.950 . S
C764 H756 0.950 1_556 S
C764 C765 1.386 . S
C764 C766 1.391 . S
C765 C764 1.386 . S
C765 C769 1.393 . S
C766 H758 0.950 . S
C766 C764 1.391 . S
C766 C767 1.400 . S
C767 C766 1.400 . S
C767 C768 1.398 . S
C767 C773 1.491 . S
C768 H759 0.950 . S
C768 C767 1.398 . S
C768 C769 1.391 . S
C769 H757 0.950 . S
C769 C765 1.393 . S
C769 C768 1.391 . S
C770 H760 0.950 . S
C770 C771 1.386 . S
C770 C772 1.391 . S
C771 C770 1.386 . S
C771 C775 1.393 . S
C772 H761 0.950 . S
C772 C770 1.391 . S
C772 C773 1.400 . S
C773 C767 1.491 . S
C773 C772 1.400 . S
C773 C774 1.398 . S
C774 H762 0.950 . S
C774 C773 1.398 . S
C774 C775 1.391 . S
C775 H763 0.950 . S
C775 C771 1.393 . S
C775 C774 1.391 . S
H776 C784 0.950 . S
H777 C789 0.950 . S
H778 C786 0.950 . S
H779 C788 0.950 . S
H780 C790 0.954 . S
H781 C792 0.950 . S
H782 C794 0.950 . S
H783 C795 0.950 . S
C784 H776 0.950 . S
C784 C785 1.386 . S
C784 C786 1.391 . S
C785 C784 1.386 . S
C785 C789 1.393 . S
C786 H778 0.950 . S
C786 C784 1.391 . S
C786 C787 1.400 . S
C787 C786 1.400 . S
C787 C788 1.398 . S
C787 C793 1.491 . S
C788 H779 0.950 . S
C788 C787 1.398 . S
C788 C789 1.391 . S
C789 H777 0.950 . S
C789 C785 1.393 . S
C789 C788 1.391 . S
C790 H780 0.954 . S
C790 C791 1.386 . S
C790 C792 1.391 1_565 S
C791 C790 1.386 . S
C791 C795 1.393 . S
C792 H781 0.950 . S
C792 C790 1.391 1_545 S
C792 C793 1.400 . S
C793 C787 1.491 . S
C793 C792 1.400 . S
C793 C794 1.398 1_545 S
C794 H782 0.950 . S
C794 C793 1.398 1_565 S
C794 C795 1.391 . S
C795 H783 0.950 . S
C795 C791 1.393 . S
C795 C794 1.391 . S
H796 C804 0.950 . S
H797 C809 0.950 . S
H798 C806 0.950 . S
H799 C808 0.950 . S
H800 C810 0.950 . S
H801 C812 0.950 . S
H802 C814 0.950 . S
H803 C815 0.950 . S
C804 H796 0.950 . S
C804 C805 1.386 . S
C804 C806 1.391 . S
C805 C804 1.386 . S
C805 C809 1.393 . S
C806 H798 0.950 . S
C806 C804 1.391 . S
C806 C807 1.400 . S
C807 C806 1.400 . S
C807 C808 1.398 . S
C807 C813 1.491 . S
C808 H799 0.950 . S
C808 C807 1.398 . S
C808 C809 1.391 . S
C809 H797 0.950 . S
C809 C805 1.393 . S
C809 C808 1.391 . S
C810 H800 0.950 . S
C810 C811 1.386 . S
C810 C812 1.391 . S
C811 C810 1.386 . S
C811 C815 1.393 . S
C812 H801 0.950 . S
C812 C810 1.391 . S
C812 C813 1.400 . S
C813 C807 1.491 . S
C813 C812 1.400 . S
C813 C814 1.398 . S
C814 H802 0.950 . S
C814 C813 1.398 . S
C814 C815 1.391 . S
C815 H803 0.950 . S
C815 C811 1.393 . S
C815 C814 1.391 . S
H816 C824 0.950 . S
H817 C829 0.950 . S
H818 C826 0.950 . S
H819 C828 0.950 . S
H820 C830 0.950 . S
H821 C832 0.950 . S
H822 C834 0.950 . S
H823 C835 0.950 . S
C824 H816 0.950 . S
C824 C825 1.386 . S
C824 C826 1.391 . S
C825 C824 1.386 . S
C825 C829 1.393 . S
C826 H818 0.950 . S
C826 C824 1.391 . S
C826 C827 1.400 . S
C827 C826 1.400 . S
C827 C828 1.398 . S
C827 C833 1.491 1_565 S
C828 H819 0.950 . S
C828 C827 1.398 . S
C828 C829 1.391 . S
C829 H817 0.950 . S
C829 C825 1.393 . S
C829 C828 1.391 . S
C830 H820 0.950 . S
C830 C831 1.386 . S
C830 C832 1.391 . S
C831 C830 1.386 . S
C831 C835 1.393 . S
C832 H821 0.950 . S
C832 C830 1.391 . S
C832 C833 1.400 . S
C833 C827 1.491 1_545 S
C833 C832 1.400 . S
C833 C834 1.398 . S
C834 H822 0.950 . S
C834 C833 1.398 . S
C834 C835 1.391 . S
C835 H823 0.950 . S
C835 C831 1.393 . S
C835 C834 1.391 . S
H836 C844 0.950 . S
H837 C849 0.950 . S
H838 C846 0.950 . S
H839 C848 0.950 . S
H840 C850 0.950 . S
H841 C852 0.950 1_545 S
H842 C854 0.950 . S
H843 C855 0.950 . S
C844 H836 0.950 . S
C844 C845 1.386 . S
C844 C846 1.391 . S
C845 C844 1.386 . S
C845 C849 1.393 1_565 S
C846 H838 0.950 . S
C846 C844 1.391 . S
C846 C847 1.400 . S
C847 C846 1.400 . S
C847 C848 1.398 1_565 S
C847 C853 1.491 . S
C848 H839 0.950 . S
C848 C847 1.398 1_545 S
C848 C849 1.391 . S
C849 H837 0.950 . S
C849 C845 1.393 1_545 S
C849 C848 1.391 . S
C850 H840 0.950 . S
C850 C851 1.386 . S
C850 C852 1.391 . S
C851 C850 1.386 . S
C851 C855 1.393 . S
C852 H841 0.950 1_565 S
C852 C850 1.391 . S
C852 C853 1.400 . S
C853 C847 1.491 . S
C853 C852 1.400 . S
C853 C854 1.398 . S
C854 H842 0.950 . S
C854 C853 1.398 . S
C854 C855 1.391 . S
C855 H843 0.950 . S
C855 C851 1.393 . S
C855 C854 1.391 . S
H856 C864 0.950 . S
H857 C869 0.950 . S
H858 C866 0.950 . S
H859 C868 0.950 . S
H860 C870 0.950 . S
H861 C872 0.950 . S
H862 C874 0.950 . S
H863 C875 0.950 . S
C864 H856 0.950 . S
C864 C865 1.386 . S
C864 C866 1.391 . S
C865 C864 1.386 . S
C865 C869 1.393 . S
C866 H858 0.950 . S
C866 C864 1.391 . S
C866 C867 1.400 . S
C867 C866 1.400 . S
C867 C868 1.398 . S
C867 C873 1.491 . S
C868 H859 0.950 . S
C868 C867 1.398 . S
C868 C869 1.391 . S
C869 H857 0.950 . S
C869 C865 1.393 . S
C869 C868 1.391 . S
C870 H860 0.950 . S
C870 C871 1.386 . S
C870 C872 1.391 . S
C871 C870 1.386 . S
C871 C875 1.393 . S
C872 H861 0.950 . S
C872 C870 1.391 . S
C872 C873 1.400 1_565 S
C873 C867 1.491 . S
C873 C872 1.400 1_545 S
C873 C874 1.398 . S
C874 H862 0.950 . S
C874 C873 1.398 . S
C874 C875 1.391 1_545 S
C875 H863 0.950 . S
C875 C871 1.393 . S
C875 C874 1.391 1_565 S
H876 C884 0.950 . S
H877 C889 0.950 . S
H878 C886 0.950 . S
H879 C888 0.950 . S
H880 C890 0.950 . S
H881 C892 0.950 . S
H882 C894 0.950 . S
H883 C895 0.950 . S
C884 H876 0.950 . S
C884 C885 1.386 . S
C884 C886 1.391 . S
C885 C884 1.386 . S
C885 C889 1.393 . S
C886 H878 0.950 . S
C886 C884 1.391 . S
C886 C887 1.400 . S
C887 C886 1.400 . S
C887 C888 1.398 . S
C887 C893 1.491 . S
C888 H879 0.950 . S
C888 C887 1.398 . S
C888 C889 1.391 . S
C889 H877 0.950 . S
C889 C885 1.393 . S
C889 C888 1.391 . S
C890 H880 0.950 . S
C890 C891 1.386 . S
C890 C892 1.391 . S
C891 C890 1.386 . S
C891 C895 1.393 . S
C892 H881 0.950 . S
C892 C890 1.391 . S
C892 C893 1.400 . S
C893 C887 1.491 . S
C893 C892 1.400 . S
C893 C894 1.398 . S
C894 H882 0.950 . S
C894 C893 1.398 . S
C894 C895 1.391 . S
C895 H883 0.950 . S
C895 C891 1.393 . S
C895 C894 1.391 . S
H896 C904 0.950 . S
H897 C909 0.950 . S
H898 C906 0.950 . S
H899 C908 0.950 . S
H900 C910 0.950 . S
H901 C912 0.950 . S
H902 C914 0.950 . S
H903 C915 0.950 . S
C904 H896 0.950 . S
C904 C905 1.386 . S
C904 C906 1.391 . S
C905 C904 1.386 . S
C905 C909 1.393 . S
C906 H898 0.950 . S
C906 C904 1.391 . S
C906 C907 1.400 1_545 S
C907 C906 1.400 1_565 S
C907 C908 1.398 . S
C907 C913 1.491 . S
C908 H899 0.950 . S
C908 C907 1.398 . S
C908 C909 1.391 1_565 S
C909 H897 0.950 . S
C909 C905 1.393 . S
C909 C908 1.391 1_545 S
C910 H900 0.950 . S
C910 C911 1.386 . S
C910 C912 1.391 . S
C911 C910 1.386 . S
C911 C915 1.393 . S
C912 H901 0.950 . S
C912 C910 1.391 . S
C912 C913 1.400 . S
C913 C907 1.491 . S
C913 C912 1.400 . S
C913 C914 1.398 . S
C914 H902 0.950 . S
C914 C913 1.398 . S
C914 C915 1.391 . S
C915 H903 0.950 . S
C915 C911 1.393 . S
C915 C914 1.391 . S
H916 C924 0.950 1_545 S
H917 C929 0.950 . S
H918 C926 0.950 . S
H919 C928 0.950 . S
H920 C930 0.950 . S
H921 C932 0.950 . S
H922 C934 0.950 1_455 S
H923 C935 0.950 . S
C924 H916 0.950 1_565 S
C924 C925 1.386 . S
C924 C926 1.391 . S
C925 C924 1.386 . S
C925 C929 1.393 . S
C926 H918 0.950 . S
C926 C924 1.391 . S
C926 C927 1.400 . S
C927 C926 1.400 . S
C927 C928 1.398 . S
C927 C933 1.491 . S
C928 H919 0.950 . S
C928 C927 1.398 . S
C928 C929 1.391 . S
C929 H917 0.950 . S
C929 C925 1.393 . S
C929 C928 1.391 . S
C930 H920 0.950 . S
C930 C931 1.386 1_655 S
C930 C932 1.391 . S
C931 C930 1.386 1_455 S
C931 C935 1.393 . S
C932 H921 0.950 . S
C932 C930 1.391 . S
C932 C933 1.400 . S
C933 C927 1.491 . S
C933 C932 1.400 . S
C933 C934 1.398 . S
C934 H922 0.950 1_655 S
C934 C933 1.398 . S
C934 C935 1.391 1_655 S
C935 H923 0.950 . S
C935 C931 1.393 . S
C935 C934 1.391 1_455 S
H936 C944 0.950 . S
H937 C949 0.950 . S
H938 C946 0.950 . S
H939 C948 0.950 . S
H940 C950 0.950 . S
H941 C952 0.950 1_455 S
H942 C954 0.950 . S
H943 C955 0.950 . S
C944 H936 0.950 . S
C944 C945 1.386 . S
C944 C946 1.391 . S
C945 C944 1.386 . S
C945 C949 1.393 . S
C946 H938 0.950 . S
C946 C944 1.391 . S
C946 C947 1.400 . S
C947 C946 1.400 . S
C947 C948 1.398 . S
C947 C953 1.491 . S
C948 H939 0.950 . S
C948 C947 1.398 . S
C948 C949 1.391 . S
C949 H937 0.950 . S
C949 C945 1.393 . S
C949 C948 1.391 . S
C950 H940 0.950 . S
C950 C951 1.386 1_455 S
C950 C952 1.391 1_455 S
C951 C950 1.386 1_655 S
C951 C955 1.393 . S
C952 H941 0.950 1_655 S
C952 C950 1.391 1_655 S
C952 C953 1.400 . S
C953 C947 1.491 . S
C953 C952 1.400 . S
C953 C954 1.398 . S
C954 H942 0.950 . S
C954 C953 1.398 . S
C954 C955 1.391 . S
C955 H943 0.950 . S
C955 C951 1.393 . S
C955 C954 1.391 . S
H956 C964 0.950 . S
H957 C969 0.950 . S
H958 C966 0.950 . S
H959 C968 0.950 . S
H960 C970 0.950 . S
H961 C972 0.950 . S
H962 C974 0.950 . S
H963 C975 0.950 . S
C964 H956 0.950 . S
C964 C965 1.386 . S
C964 C966 1.391 . S
C965 C964 1.386 . S
C965 C969 1.393 . S
C966 H958 0.950 . S
C966 C964 1.391 . S
C966 C967 1.400 . S
C967 C966 1.400 . S
C967 C968 1.398 . S
C967 C973 1.491 . S
C968 H959 0.950 . S
C968 C967 1.398 . S
C968 C969 1.391 . S
C969 H957 0.950 . S
C969 C965 1.393 . S
C969 C968 1.391 . S
C970 H960 0.950 . S
C970 C971 1.386 . S
C970 C972 1.391 . S
C971 C970 1.386 . S
C971 C975 1.393 . S
C972 H961 0.950 . S
C972 C970 1.391 . S
C972 C973 1.400 . S
C973 C967 1.491 . S
C973 C972 1.400 . S
C973 C974 1.398 . S
C974 H962 0.950 . S
C974 C973 1.398 . S
C974 C975 1.391 . S
C975 H963 0.950 . S
C975 C971 1.393 . S
C975 C974 1.391 . S
H976 C984 0.950 1_545 S
H977 C989 0.950 . S
H978 C986 0.950 . S
H979 C988 0.950 . S
H980 C990 0.950 . S
H981 C992 0.950 . S
H982 C994 0.950 . S
H983 C995 0.950 . S
C984 H976 0.950 1_565 S
C984 C985 1.386 . S
C984 C986 1.391 . S
C985 C984 1.386 . S
C985 C989 1.393 . S
C986 H978 0.950 . S
C986 C984 1.391 . S
C986 C987 1.400 . S
C987 C986 1.400 . S
C987 C988 1.398 . S
C987 C993 1.491 . S
C988 H979 0.950 . S
C988 C987 1.398 . S
C988 C989 1.391 . S
C989 H977 0.950 . S
C989 C985 1.393 . S
C989 C988 1.391 . S
C990 H980 0.950 . S
C990 C991 1.386 1_455 S
C990 C992 1.391 1_455 S
C991 C990 1.386 1_655 S
C991 C995 1.393 . S
C992 H981 0.950 . S
C992 C990 1.391 1_655 S
C992 C993 1.400 . S
C993 C987 1.491 . S
C993 C992 1.400 . S
C993 C994 1.398 . S
C994 H982 0.950 . S
C994 C993 1.398 . S
C994 C995 1.391 . S
C995 H983 0.950 . S
C995 C991 1.393 . S
C995 C994 1.391 . S
H996 C1004 0.950 . S
H997 C1009 0.950 . S
H998 C1006 0.950 . S
H999 C1008 0.950 . S
H1000 C1010 0.950 . S
H1001 C1012 0.950 . S
H1002 C1014 0.950 . S
H1003 C1015 0.950 . S
C1004 H996 0.950 . S
C1004 C1005 1.386 . S
C1004 C1006 1.391 . S
C1005 C1004 1.386 . S
C1005 C1009 1.393 . S
C1006 H998 0.950 . S
C1006 C1004 1.391 . S
C1006 C1007 1.400 . S
C1007 C1006 1.400 . S
C1007 C1008 1.398 . S
C1007 C1013 1.491 . S
C1008 H999 0.950 . S
C1008 C1007 1.398 . S
C1008 C1009 1.391 . S
C1009 H997 0.950 . S
C1009 C1005 1.393 . S
C1009 C1008 1.391 . S
C1010 H1000 0.950 . S
C1010 C1011 1.386 . S
C1010 C1012 1.391 . S
C1011 C1010 1.386 . S
C1011 C1015 1.393 . S
C1012 H1001 0.950 . S
C1012 C1010 1.391 . S
C1012 C1013 1.400 . S
C1013 C1007 1.491 . S
C1013 C1012 1.400 . S
C1013 C1014 1.398 . S
C1014 H1002 0.950 . S
C1014 C1013 1.398 . S
C1014 C1015 1.391 . S
C1015 H1003 0.950 . S
C1015 C1011 1.393 . S
C1015 C1014 1.391 . S
H1016 C1024 0.950 . S
H1017 C1029 0.950 . S
H1018 C1026 0.950 . S
H1019 C1028 0.950 . S
H1020 C1030 0.950 . S
H1021 C1032 0.950 . S
H1022 C1034 0.950 . S
H1023 C1035 0.950 . S
C1024 H1016 0.950 . S
C1024 C1025 1.386 . S
C1024 C1026 1.391 . S
C1025 C1024 1.386 . S
C1025 C1029 1.393 . S
C1026 H1018 0.950 . S
C1026 C1024 1.391 . S
C1026 C1027 1.400 . S
C1027 C1026 1.400 . S
C1027 C1028 1.398 . S
C1027 C1033 1.491 . S
C1028 H1019 0.950 . S
C1028 C1027 1.398 . S
C1028 C1029 1.391 . S
C1029 H1017 0.950 . S
C1029 C1025 1.393 . S
C1029 C1028 1.391 . S
C1030 H1020 0.950 . S
C1030 C1031 1.386 . S
C1030 C1032 1.391 . S
C1031 C1030 1.386 . S
C1031 C1035 1.393 . S
C1032 H1021 0.950 . S
C1032 C1030 1.391 . S
C1032 C1033 1.400 . S
C1033 C1027 1.491 . S
C1033 C1032 1.400 . S
C1033 C1034 1.398 . S
C1034 H1022 0.950 . S
C1034 C1033 1.398 . S
C1034 C1035 1.391 . S
C1035 H1023 0.950 . S
C1035 C1031 1.393 . S
C1035 C1034 1.391 . S
H1036 C1044 0.950 . S
H1037 C1049 0.950 . S
H1038 C1046 0.950 . S
H1039 C1048 0.950 . S
H1040 C1050 0.950 . S
H1041 C1052 0.950 . S
H1042 C1054 0.950 . S
H1043 C1055 0.950 . S
C1044 H1036 0.950 . S
C1044 C1045 1.386 . S
C1044 C1046 1.391 . S
C1045 C1044 1.386 . S
C1045 C1049 1.393 . S
C1046 H1038 0.950 . S
C1046 C1044 1.391 . S
C1046 C1047 1.400 . S
C1047 C1046 1.400 . S
C1047 C1048 1.398 . S
C1047 C1053 1.491 . S
C1048 H1039 0.950 . S
C1048 C1047 1.398 . S
C1048 C1049 1.391 . S
C1049 H1037 0.950 . S
C1049 C1045 1.393 . S
C1049 C1048 1.391 . S
C1050 H1040 0.950 . S
C1050 C1051 1.386 . S
C1050 C1052 1.391 . S
C1051 C1050 1.386 . S
C1051 C1055 1.393 . S
C1052 H1041 0.950 . S
C1052 C1050 1.391 . S
C1052 C1053 1.400 . S
C1053 C1047 1.491 . S
C1053 C1052 1.400 . S
C1053 C1054 1.398 . S
C1054 H1042 0.950 . S
C1054 C1053 1.398 . S
C1054 C1055 1.391 . S
C1055 H1043 0.950 . S
C1055 C1051 1.393 . S
C1055 C1054 1.391 . S
H1056 C1064 0.950 . S
H1057 C1069 0.950 1_455 S
H1058 C1066 0.950 . S
H1059 C1068 0.950 1_455 S
H1060 C1070 0.950 1_455 S
H1061 C1072 0.950 1_455 S
H1062 C1074 0.950 . S
H1063 C1075 0.950 . S
C1064 H1056 0.950 . S
C1064 C1065 1.386 . S
C1064 C1066 1.391 . S
C1065 C1064 1.386 . S
C1065 C1069 1.393 . S
C1066 H1058 0.950 . S
C1066 C1064 1.391 . S
C1066 C1067 1.400 . S
C1067 C1066 1.400 . S
C1067 C1068 1.398 . S
C1067 C1073 1.491 . S
C1068 H1059 0.950 1_655 S
C1068 C1067 1.398 . S
C1068 C1069 1.391 . S
C1069 H1057 0.950 1_655 S
C1069 C1065 1.393 . S
C1069 C1068 1.391 . S
C1070 H1060 0.950 1_655 S
C1070 C1071 1.386 . S
C1070 C1072 1.391 . S
C1071 C1070 1.386 . S
C1071 C1075 1.393 . S
C1072 H1061 0.950 1_655 S
C1072 C1070 1.391 . S
C1072 C1073 1.400 . S
C1073 C1067 1.491 . S
C1073 C1072 1.400 . S
C1073 C1074 1.398 . S
C1074 H1062 0.950 . S
C1074 C1073 1.398 . S
C1074 C1075 1.391 . S
C1075 H1063 0.950 . S
C1075 C1071 1.393 . S
C1075 C1074 1.391 . S
H1076 C1084 0.950 . S
H1077 C1089 0.950 . S
H1078 C1086 0.950 . S
H1079 C1088 0.950 . S
H1080 C1090 0.950 . S
H1081 C1092 0.950 . S
H1082 C1094 0.950 . S
H1083 C1095 0.950 . S
C1084 H1076 0.950 . S
C1084 C1085 1.386 . S
C1084 C1086 1.391 . S
C1085 C1084 1.386 . S
C1085 C1089 1.393 . S
C1086 H1078 0.950 . S
C1086 C1084 1.391 . S
C1086 C1087 1.400 . S
C1087 C1086 1.400 . S
C1087 C1088 1.398 . S
C1087 C1093 1.491 . S
C1088 H1079 0.950 . S
C1088 C1087 1.398 . S
C1088 C1089 1.391 . S
C1089 H1077 0.950 . S
C1089 C1085 1.393 . S
C1089 C1088 1.391 . S
C1090 H1080 0.950 . S
C1090 C1091 1.386 . S
C1090 C1092 1.391 . S
C1091 C1090 1.386 . S
C1091 C1095 1.393 . S
C1092 H1081 0.950 . S
C1092 C1090 1.391 . S
C1092 C1093 1.400 . S
C1093 C1087 1.491 . S
C1093 C1092 1.400 . S
C1093 C1094 1.398 . S
C1094 H1082 0.950 . S
C1094 C1093 1.398 . S
C1094 C1095 1.391 . S
C1095 H1083 0.950 . S
C1095 C1091 1.393 . S
C1095 C1094 1.391 . S
H1096 C1104 0.950 . S
H1097 C1109 0.950 . S
H1098 C1106 0.950 . S
H1099 C1108 0.950 . S
H1100 C1110 0.950 . S
H1101 C1112 0.950 . S
H1102 C1114 0.950 . S
H1103 C1115 0.950 . S
C1104 H1096 0.950 . S
C1104 C1105 1.386 . S
C1104 C1106 1.391 . S
C1105 C1104 1.386 . S
C1105 C1109 1.393 . S
C1106 H1098 0.950 . S
C1106 C1104 1.391 . S
C1106 C1107 1.400 . S
C1107 C1106 1.400 . S
C1107 C1108 1.398 . S
C1107 C1113 1.491 . S
C1108 H1099 0.950 . S
C1108 C1107 1.398 . S
C1108 C1109 1.391 . S
C1109 H1097 0.950 . S
C1109 C1105 1.393 . S
C1109 C1108 1.391 . S
C1110 H1100 0.950 . S
C1110 C1111 1.386 . S
C1110 C1112 1.391 . S
C1111 C1110 1.386 . S
C1111 C1115 1.393 . S
C1112 H1101 0.950 . S
C1112 C1110 1.391 . S
C1112 C1113 1.400 . S
C1113 C1107 1.491 . S
C1113 C1112 1.400 . S
C1113 C1114 1.398 . S
C1114 H1102 0.950 . S
C1114 C1113 1.398 . S
C1114 C1115 1.391 . S
C1115 H1103 0.950 . S
C1115 C1111 1.393 . S
C1115 C1114 1.391 . S
H1116 C1124 0.950 . S
H1117 C1129 0.950 . S
H1118 C1126 0.950 . S
H1119 C1128 0.950 . S
H1120 C1130 0.950 . S
H1121 C1132 0.950 . S
H1122 C1134 0.950 . S
H1123 C1135 0.950 . S
C1124 H1116 0.950 . S
C1124 C1125 1.386 . S
C1124 C1126 1.391 . S
C1125 C1124 1.386 . S
C1125 C1129 1.393 . S
C1126 H1118 0.950 . S
C1126 C1124 1.391 . S
C1126 C1127 1.400 . S
C1127 C1126 1.400 . S
C1127 C1128 1.398 . S
C1127 C1133 1.491 . S
C1128 H1119 0.950 . S
C1128 C1127 1.398 . S
C1128 C1129 1.391 . S
C1129 H1117 0.950 . S
C1129 C1125 1.393 . S
C1129 C1128 1.391 . S
C1130 H1120 0.950 . S
C1130 C1131 1.386 . S
C1130 C1132 1.391 . S
C1131 C1130 1.386 . S
C1131 C1135 1.393 . S
C1132 H1121 0.950 . S
C1132 C1130 1.391 . S
C1132 C1133 1.400 . S
C1133 C1127 1.491 . S
C1133 C1132 1.400 . S
C1133 C1134 1.398 . S
C1134 H1122 0.950 . S
C1134 C1133 1.398 . S
C1134 C1135 1.391 . S
C1135 H1123 0.950 . S
C1135 C1131 1.393 . S
C1135 C1134 1.391 . S
H1136 C1144 0.950 . S
H1137 C1149 0.950 . S
H1138 C1146 0.950 . S
H1139 C1148 0.950 . S
H1140 C1150 0.950 . S
H1141 C1152 0.950 . S
H1142 C1154 0.950 . S
H1143 C1155 0.950 . S
C1144 H1136 0.950 . S
C1144 C1145 1.386 . S
C1144 C1146 1.391 . S
C1145 C1144 1.386 . S
C1145 C1149 1.393 . S
C1146 H1138 0.950 . S
C1146 C1144 1.391 . S
C1146 C1147 1.400 . S
C1147 C1146 1.400 . S
C1147 C1148 1.398 . S
C1147 C1153 1.491 . S
C1148 H1139 0.950 . S
C1148 C1147 1.398 . S
C1148 C1149 1.391 . S
C1149 H1137 0.950 . S
C1149 C1145 1.393 . S
C1149 C1148 1.391 . S
C1150 H1140 0.950 . S
C1150 C1151 1.386 . S
C1150 C1152 1.391 . S
C1151 C1150 1.386 . S
C1151 C1155 1.393 . S
C1152 H1141 0.950 . S
C1152 C1150 1.391 . S
C1152 C1153 1.400 . S
C1153 C1147 1.491 . S
C1153 C1152 1.400 . S
C1153 C1154 1.398 . S
C1154 H1142 0.950 . S
C1154 C1153 1.398 . S
C1154 C1155 1.391 . S
C1155 H1143 0.950 . S
C1155 C1151 1.393 . S
C1155 C1154 1.391 . S
H1156 C1164 0.950 . S
H1157 C1169 0.950 . S
H1158 C1166 0.950 . S
H1159 C1168 0.950 . S
H1160 C1170 0.950 . S
H1161 C1172 0.950 . S
H1162 C1174 0.950 . S
H1163 C1175 0.950 . S
C1164 H1156 0.950 . S
C1164 C1165 1.386 . S
C1164 C1166 1.391 . S
C1165 C1164 1.386 . S
C1165 C1169 1.393 . S
C1166 H1158 0.950 . S
C1166 C1164 1.391 . S
C1166 C1167 1.400 . S
C1167 C1166 1.400 . S
C1167 C1168 1.398 . S
C1167 C1173 1.491 . S
C1168 H1159 0.950 . S
C1168 C1167 1.398 . S
C1168 C1169 1.391 . S
C1169 H1157 0.950 . S
C1169 C1165 1.393 . S
C1169 C1168 1.391 . S
C1170 H1160 0.950 . S
C1170 C1171 1.386 . S
C1170 C1172 1.391 . S
C1171 C1170 1.386 . S
C1171 C1175 1.393 . S
C1172 H1161 0.950 . S
C1172 C1170 1.391 . S
C1172 C1173 1.400 . S
C1173 C1167 1.491 . S
C1173 C1172 1.400 . S
C1173 C1174 1.398 . S
C1174 H1162 0.950 . S
C1174 C1173 1.398 . S
C1174 C1175 1.391 . S
C1175 H1163 0.950 . S
C1175 C1171 1.393 . S
C1175 C1174 1.391 . S
H1176 C1184 0.950 . S
H1177 C1189 0.950 . S
H1178 C1186 0.950 . S
H1179 C1188 0.950 . S
H1180 C1190 0.950 . S
H1181 C1192 0.950 . S
H1182 C1194 0.950 . S
H1183 C1195 0.950 . S
C1184 H1176 0.950 . S
C1184 C1185 1.386 . S
C1184 C1186 1.391 . S
C1185 C1184 1.386 . S
C1185 C1189 1.393 . S
C1186 H1178 0.950 . S
C1186 C1184 1.391 . S
C1186 C1187 1.400 . S
C1187 C1186 1.400 . S
C1187 C1188 1.398 . S
C1187 C1193 1.491 . S
C1188 H1179 0.950 . S
C1188 C1187 1.398 . S
C1188 C1189 1.391 . S
C1189 H1177 0.950 . S
C1189 C1185 1.393 . S
C1189 C1188 1.391 . S
C1190 H1180 0.950 . S
C1190 C1191 1.386 . S
C1190 C1192 1.391 . S
C1191 C1190 1.386 . S
C1191 C1195 1.393 . S
C1192 H1181 0.950 . S
C1192 C1190 1.391 . S
C1192 C1193 1.400 . S
C1193 C1187 1.491 . S
C1193 C1192 1.400 . S
C1193 C1194 1.398 . S
C1194 H1182 0.950 . S
C1194 C1193 1.398 . S
C1194 C1195 1.391 . S
C1195 H1183 0.950 . S
C1195 C1191 1.393 . S
C1195 C1194 1.391 . S
H1196 C1204 0.950 . S
H1197 C1209 0.950 . S
H1198 C1206 0.950 . S
H1199 C1208 0.950 . S
H1200 C1210 0.950 . S
H1201 C1212 0.950 . S
H1202 C1214 0.950 . S
H1203 C1215 0.950 . S
C1204 H1196 0.950 . S
C1204 C1205 1.386 . S
C1204 C1206 1.391 . S
C1205 C1204 1.386 . S
C1205 C1209 1.393 . S
C1206 H1198 0.950 . S
C1206 C1204 1.391 . S
C1206 C1207 1.400 . S
C1207 C1206 1.400 . S
C1207 C1208 1.398 . S
C1207 C1213 1.491 . S
C1208 H1199 0.950 . S
C1208 C1207 1.398 . S
C1208 C1209 1.391 . S
C1209 H1197 0.950 . S
C1209 C1205 1.393 . S
C1209 C1208 1.391 . S
C1210 H1200 0.950 . S
C1210 C1211 1.386 . S
C1210 C1212 1.391 . S
C1211 C1210 1.386 . S
C1211 C1215 1.393 . S
C1212 H1201 0.950 . S
C1212 C1210 1.391 . S
C1212 C1213 1.400 . S
C1213 C1207 1.491 . S
C1213 C1212 1.400 . S
C1213 C1214 1.398 . S
C1214 H1202 0.950 . S
C1214 C1213 1.398 . S
C1214 C1215 1.391 . S
C1215 H1203 0.950 . S
C1215 C1211 1.393 . S
C1215 C1214 1.391 . S
H1216 C1224 0.950 . S
H1217 C1229 0.950 . S
H1218 C1226 0.950 . S
H1219 C1228 0.950 . S
H1220 C1230 0.950 . S
H1221 C1232 0.950 . S
H1222 C1234 0.950 . S
H1223 C1235 0.950 . S
C1224 H1216 0.950 . S
C1224 C1225 1.386 . S
C1224 C1226 1.391 . S
C1225 C1224 1.386 . S
C1225 C1229 1.393 . S
C1226 H1218 0.950 . S
C1226 C1224 1.391 . S
C1226 C1227 1.400 . S
C1227 C1226 1.400 . S
C1227 C1228 1.398 . S
C1227 C1233 1.491 . S
C1228 H1219 0.950 . S
C1228 C1227 1.398 . S
C1228 C1229 1.391 . S
C1229 H1217 0.950 . S
C1229 C1225 1.393 . S
C1229 C1228 1.391 . S
C1230 H1220 0.950 . S
C1230 C1231 1.386 . S
C1230 C1232 1.391 . S
C1231 C1230 1.386 . S
C1231 C1235 1.393 . S
C1232 H1221 0.950 . S
C1232 C1230 1.391 . S
C1232 C1233 1.400 . S
C1233 C1227 1.491 . S
C1233 C1232 1.400 . S
C1233 C1234 1.398 . S
C1234 H1222 0.950 . S
C1234 C1233 1.398 . S
C1234 C1235 1.391 . S
C1235 H1223 0.950 . S
C1235 C1231 1.393 . S
C1235 C1234 1.391 . S
H1236 C1244 0.950 . S
H1237 C1249 0.950 . S
H1238 C1246 0.950 . S
H1239 C1248 0.950 . S
H1240 C1250 0.950 . S
H1241 C1252 0.950 . S
H1242 C1254 0.950 . S
H1243 C1255 0.950 . S
C1244 H1236 0.950 . S
C1244 C1245 1.386 . S
C1244 C1246 1.391 . S
C1245 C1244 1.386 . S
C1245 C1249 1.393 . S
C1246 H1238 0.950 . S
C1246 C1244 1.391 . S
C1246 C1247 1.400 . S
C1247 C1246 1.400 . S
C1247 C1248 1.398 . S
C1247 C1253 1.491 . S
C1248 H1239 0.950 . S
C1248 C1247 1.398 . S
C1248 C1249 1.391 . S
C1249 H1237 0.950 . S
C1249 C1245 1.393 . S
C1249 C1248 1.391 . S
C1250 H1240 0.950 . S
C1250 C1251 1.386 . S
C1250 C1252 1.391 . S
C1251 C1250 1.386 . S
C1251 C1255 1.393 . S
C1252 H1241 0.950 . S
C1252 C1250 1.391 . S
C1252 C1253 1.400 . S
C1253 C1247 1.491 . S
C1253 C1252 1.400 . S
C1253 C1254 1.398 . S
C1254 H1242 0.950 . S
C1254 C1253 1.398 . S
C1254 C1255 1.391 . S
C1255 H1243 0.950 . S
C1255 C1251 1.393 . S
C1255 C1254 1.391 . S
H1256 C1264 0.950 . S
H1257 C1269 0.950 . S
H1258 C1266 0.950 . S
H1259 C1268 0.950 . S
H1260 C1270 0.950 . S
H1261 C1272 0.950 . S
H1262 C1274 0.950 . S
H1263 C1275 0.950 . S
C1264 H1256 0.950 . S
C1264 C1265 1.386 . S
C1264 C1266 1.391 . S
C1265 C1264 1.386 . S
C1265 C1269 1.393 . S
C1266 H1258 0.950 . S
C1266 C1264 1.391 . S
C1266 C1267 1.400 . S
C1267 C1266 1.400 . S
C1267 C1268 1.398 . S
C1267 C1273 1.491 . S
C1268 H1259 0.950 . S
C1268 C1267 1.398 . S
C1268 C1269 1.391 . S
C1269 H1257 0.950 . S
C1269 C1265 1.393 . S
C1269 C1268 1.391 . S
C1270 H1260 0.950 . S
C1270 C1271 1.386 . S
C1270 C1272 1.391 . S
C1271 C1270 1.386 . S
C1271 C1275 1.393 . S
C1272 H1261 0.950 . S
C1272 C1270 1.391 . S
C1272 C1273 1.400 . S
C1273 C1267 1.491 . S
C1273 C1272 1.400 . S
C1273 C1274 1.398 . S
C1274 H1262 0.950 . S
C1274 C1273 1.398 . S
C1274 C1275 1.391 . S
C1275 H1263 0.950 . S
C1275 C1271 1.393 . S
C1275 C1274 1.391 . S
H1276 C1284 0.950 . S
H1277 C1289 0.950 . S
H1278 C1286 0.950 . S
H1279 C1288 0.950 . S
H1280 C1290 0.950 . S
H1281 C1292 0.950 . S
H1282 C1294 0.950 . S
H1283 C1295 0.950 . S
C1284 H1276 0.950 . S
C1284 C1285 1.386 . S
C1284 C1286 1.391 . S
C1285 C1284 1.386 . S
C1285 C1289 1.393 . S
C1286 H1278 0.950 . S
C1286 C1284 1.391 . S
C1286 C1287 1.400 . S
C1287 C1286 1.400 . S
C1287 C1288 1.398 . S
C1287 C1293 1.491 . S
C1288 H1279 0.950 . S
C1288 C1287 1.398 . S
C1288 C1289 1.391 . S
C1289 H1277 0.950 . S
C1289 C1285 1.393 . S
C1289 C1288 1.391 . S
C1290 H1280 0.950 . S
C1290 C1291 1.386 . S
C1290 C1292 1.391 . S
C1291 C1290 1.386 . S
C1291 C1295 1.393 . S
C1292 H1281 0.950 . S
C1292 C1290 1.391 . S
C1292 C1293 1.400 . S
C1293 C1287 1.491 . S
C1293 C1292 1.400 . S
C1293 C1294 1.398 . S
C1294 H1282 0.950 . S
C1294 C1293 1.398 . S
C1294 C1295 1.391 . S
C1295 H1283 0.950 . S
C1295 C1291 1.393 . S
C1295 C1294 1.391 . S
H1296 C1304 0.950 . S
H1297 C1309 0.950 . S
H1298 C1306 0.950 . S
H1299 C1308 0.950 . S
H1300 C1310 0.950 . S
H1301 C1312 0.950 . S
H1302 C1314 0.950 . S
H1303 C1315 0.950 . S
C1304 H1296 0.950 . S
C1304 C1305 1.386 . S
C1304 C1306 1.391 . S
C1305 C1304 1.386 . S
C1305 C1309 1.393 . S
C1306 H1298 0.950 . S
C1306 C1304 1.391 . S
C1306 C1307 1.400 . S
C1307 C1306 1.400 . S
C1307 C1308 1.398 . S
C1307 C1313 1.491 . S
C1308 H1299 0.950 . S
C1308 C1307 1.398 . S
C1308 C1309 1.391 . S
C1309 H1297 0.950 . S
C1309 C1305 1.393 . S
C1309 C1308 1.391 . S
C1310 H1300 0.950 . S
C1310 C1311 1.386 . S
C1310 C1312 1.391 . S
C1311 C1310 1.386 . S
C1311 C1315 1.393 . S
C1312 H1301 0.950 . S
C1312 C1310 1.391 . S
C1312 C1313 1.400 . S
C1313 C1307 1.491 . S
C1313 C1312 1.400 . S
C1313 C1314 1.398 . S
C1314 H1302 0.950 . S
C1314 C1313 1.398 . S
C1314 C1315 1.391 . S
C1315 H1303 0.950 . S
C1315 C1311 1.393 . S
C1315 C1314 1.391 . S
H1316 C1324 0.950 . S
H1317 C1329 0.950 . S
H1318 C1326 0.950 . S
H1319 C1328 0.950 . S
H1320 C1330 0.950 . S
H1321 C1332 0.950 . S
H1322 C1334 0.950 . S
H1323 C1335 0.950 . S
C1324 H1316 0.950 . S
C1324 C1325 1.386 . S
C1324 C1326 1.391 . S
C1325 C1324 1.386 . S
C1325 C1329 1.393 . S
C1326 H1318 0.950 . S
C1326 C1324 1.391 . S
C1326 C1327 1.400 . S
C1327 C1326 1.400 . S
C1327 C1328 1.398 . S
C1327 C1333 1.491 . S
C1328 H1319 0.950 . S
C1328 C1327 1.398 . S
C1328 C1329 1.391 . S
C1329 H1317 0.950 . S
C1329 C1325 1.393 . S
C1329 C1328 1.391 . S
C1330 H1320 0.950 . S
C1330 C1331 1.386 . S
C1330 C1332 1.391 . S
C1331 C1330 1.386 . S
C1331 C1335 1.393 . S
C1332 H1321 0.950 . S
C1332 C1330 1.391 . S
C1332 C1333 1.400 . S
C1333 C1327 1.491 . S
C1333 C1332 1.400 . S
C1333 C1334 1.398 . S
C1334 H1322 0.950 . S
C1334 C1333 1.398 . S
C1334 C1335 1.391 . S
C1335 H1323 0.950 . S
C1335 C1331 1.393 . S
C1335 C1334 1.391 . S
H1336 C1344 0.950 . S
H1337 C1349 0.950 . S
H1338 C1346 0.950 . S
H1339 C1348 0.950 . S
H1340 C1350 0.950 . S
H1341 C1352 0.950 . S
H1342 C1354 0.950 . S
H1343 C1355 0.950 . S
C1344 H1336 0.950 . S
C1344 C1345 1.386 . S
C1344 C1346 1.391 . S
C1345 C1344 1.386 . S
C1345 C1349 1.393 . S
C1346 H1338 0.950 . S
C1346 C1344 1.391 . S
C1346 C1347 1.400 . S
C1347 C1346 1.400 . S
C1347 C1348 1.398 . S
C1347 C1353 1.491 . S
C1348 H1339 0.950 . S
C1348 C1347 1.398 . S
C1348 C1349 1.391 . S
C1349 H1337 0.950 . S
C1349 C1345 1.393 . S
C1349 C1348 1.391 . S
C1350 H1340 0.950 . S
C1350 C1351 1.386 . S
C1350 C1352 1.391 . S
C1351 C1350 1.386 . S
C1351 C1355 1.393 . S
C1352 H1341 0.950 . S
C1352 C1350 1.391 . S
C1352 C1353 1.400 . S
C1353 C1347 1.491 . S
C1353 C1352 1.400 . S
C1353 C1354 1.398 . S
C1354 H1342 0.950 . S
C1354 C1353 1.398 . S
C1354 C1355 1.391 . S
C1355 H1343 0.950 . S
C1355 C1351 1.393 . S
C1355 C1354 1.391 . S
C731 C652 2.243 . S
C725 C69 2.286 . S
C745 C125 1.050 . S
C751 C655 1.048 . S
C765 C217 2.186 1_556 S
C771 C686 2.163 . S
C791 C621 1.803 . S
C785 C261 1.744 . S
C811 C656 2.102 . S
C805 C39 2.031 . S
C831 C687 2.248 . S
C825 C137 2.170 . S
C851 C612 2.023 . S
C845 C187 1.918 1_565 S
C871 C643 2.387 . S
C865 C291 2.401 . S
C885 C51 0.478 . S
C891 C673 0.583 . S
C905 C365 1.802 . S
C911 C642 1.700 . S
C925 C199 0.473 . S
C931 C602 0.509 . S
C951 C695 1.472 . S
C945 C439 1.476 1_545 S
C971 C623 1.314 . S
C965 C63 1.384 . S
C985 C335 1.257 1_565 S
C991 C622 1.366 1_655 S
C1005 C211 1.255 . S
C1011 C715 1.289 1_655 S
C1031 C654 1.648 . S
C1025 C409 1.573 . S
C1045 C495 1.093 . S
C1051 C714 1.076 . S
C1065 C347 1.219 . S
C1071 C593 1.204 . S
C1085 C587 2.181 1_655 S
C1091 C624 2.169 . S
C1105 C421 1.060 . S
C1111 C683 1.030 . S
C1131 C594 2.237 . S
C1125 C507 2.158 . S
C1145 C359 1.913 . S
C1151 C625 2.001 . S
C1165 C557 1.921 . S
C1171 C674 2.020 . S
C1191 C705 2.175 . S
C1185 C433 2.064 . S
C1205 C513 1.638 . S
C1211 C611 1.524 . S
C1225 C143 1.594 . S
C1231 C704 1.506 . S
C1245 C569 0.438 . S
C1251 C664 0.456 . S
C1271 C633 1.090 . S
C1265 C285 1.055 . S
C1291 C685 1.531 . S
C1285 C483 1.434 1_556 S
C1311 C684 1.636 . S
C1305 C113 1.535 . S
C1331 C653 1.249 . S
C1325 C581 1.215 . S
C1351 C592 0.758 . S
C1345 C273 0.724 . S
