# Generated by pormake.
# Topology ant, (3,6)-cn, num edge types: 1
# Building blocks:
#     Node 0, Type 0, BuildingBlock: MIDCAF_clean_linker_0, # of connection points: 3
#     Node 1, Type 0, BuildingBlock: MIDCAF_clean_linker_0, # of connection points: 3
#     Node 2, Type 0, BuildingBlock: MIDCAF_clean_linker_0, # of connection points: 3
#     Node 3, Type 0, BuildingBlock: MIDCAF_clean_linker_0, # of connection points: 3
#     Node 4, Type 0, BuildingBlock: MIDCAF_clean_linker_0, # of connection points: 3
#     Node 5, Type 0, BuildingBlock: MIDCAF_clean_linker_0, # of connection points: 3
#     Node 6, Type 0, BuildingBlock: MIDCAF_clean_linker_0, # of connection points: 3
#     Node 7, Type 0, BuildingBlock: MIDCAF_clean_linker_0, # of connection points: 3
#     Node 8, Type 1, BuildingBlock: MIDCAF_clean_sbu_0, # of connection points: 6
#     Node 9, Type 1, BuildingBlock: MIDCAF_clean_sbu_0, # of connection points: 6
#     Node 10, Type 1, BuildingBlock: MIDCAF_clean_sbu_0, # of connection points: 6
#     Node 11, Type 1, BuildingBlock: MIDCAF_clean_sbu_0, # of connection points: 6
#     Edge 12, Type (0, 1), BuildingBlock: MIFKUJ_clean_linker_0, # of connection points: 2
#     Edge 13, Type (0, 1), BuildingBlock: MIFKUJ_clean_linker_0, # of connection points: 2
#     Edge 14, Type (0, 1), BuildingBlock: MIFKUJ_clean_linker_0, # of connection points: 2
#     Edge 15, Type (0, 1), BuildingBlock: MIFKUJ_clean_linker_0, # of connection points: 2
#     Edge 16, Type (0, 1), BuildingBlock: MIFKUJ_clean_linker_0, # of connection points: 2
#     Edge 17, Type (0, 1), BuildingBlock: MIFKUJ_clean_linker_0, # of connection points: 2
#     Edge 18, Type (0, 1), BuildingBlock: MIFKUJ_clean_linker_0, # of connection points: 2
#     Edge 19, Type (0, 1), BuildingBlock: MIFKUJ_clean_linker_0, # of connection points: 2
#     Edge 20, Type (0, 1), BuildingBlock: MIFKUJ_clean_linker_0, # of connection points: 2
#     Edge 21, Type (0, 1), BuildingBlock: MIFKUJ_clean_linker_0, # of connection points: 2
#     Edge 22, Type (0, 1), BuildingBlock: MIFKUJ_clean_linker_0, # of connection points: 2
#     Edge 23, Type (0, 1), BuildingBlock: MIFKUJ_clean_linker_0, # of connection points: 2
#     Edge 24, Type (0, 1), BuildingBlock: MIFKUJ_clean_linker_0, # of connection points: 2
#     Edge 25, Type (0, 1), BuildingBlock: MIFKUJ_clean_linker_0, # of connection points: 2
#     Edge 26, Type (0, 1), BuildingBlock: MIFKUJ_clean_linker_0, # of connection points: 2
#     Edge 27, Type (0, 1), BuildingBlock: MIFKUJ_clean_linker_0, # of connection points: 2
#     Edge 28, Type (0, 1), BuildingBlock: MIFKUJ_clean_linker_0, # of connection points: 2
#     Edge 29, Type (0, 1), BuildingBlock: MIFKUJ_clean_linker_0, # of connection points: 2
#     Edge 30, Type (0, 1), BuildingBlock: MIFKUJ_clean_linker_0, # of connection points: 2
#     Edge 31, Type (0, 1), BuildingBlock: MIFKUJ_clean_linker_0, # of connection points: 2
#     Edge 32, Type (0, 1), BuildingBlock: MIFKUJ_clean_linker_0, # of connection points: 2
#     Edge 33, Type (0, 1), BuildingBlock: MIFKUJ_clean_linker_0, # of connection points: 2
#     Edge 34, Type (0, 1), BuildingBlock: MIFKUJ_clean_linker_0, # of connection points: 2
#     Edge 35, Type (0, 1), BuildingBlock: MIFKUJ_clean_linker_0, # of connection points: 2
# Relax obj value: 0.104
# Max RMSD: 0.159
# Mean RMSD: 0.105
data_MOF--net-ant--node1-MIDCAF_clean_sbu_0--node2-MIDCAF_clean_linker_0--edge1-MIFKUJ_clean_linker_0
_symmetry_space_group_name_H-M    P1
_symmetry_Int_Tables_number       1
_symmetry_cell_setting            triclinic
loop_
_symmetry_equiv_pos_as_xyz
'x, y, z'
_cell_length_a     42.580964
_cell_length_b     42.353478
_cell_length_c     115.78808
_cell_angle_alpha  90.212318
_cell_angle_beta   93.432763
_cell_angle_gamma 90.018952
loop_
_atom_site_label
_atom_site_type_symbol
_atom_site_fract_x
_atom_site_fract_y
_atom_site_fract_z
_atom_type_partial_charge
C0 C 0.17059 0.33834 0.06471 0.0
C1 C 0.1697 0.34534 0.07654 0.0
C2 C 0.17188 0.32043 0.08455 0.0
C3 C 0.1753 0.28916 0.08079 0.0
H4 H 0.18203 0.18501 0.09051 0.0
H5 H 0.19062 0.13515 0.10102 0.0
H6 H 0.23964 0.09776 0.07239 0.0
H7 H 0.23059 0.14681 0.06191 0.0
H8 H 0.19168 0.15973 0.03717 0.0
H9 H 0.1769 0.14656 0.01712 0.0
H10 H 0.12719 0.23522 0.01328 0.0
H11 H 0.14285 0.24888 0.03322 0.0
H12 H 0.17421 0.30282 0.05174 0.0
H13 H 0.1687 0.35699 0.05833 0.0
H14 H 0.17147 0.32518 0.09374 0.0
H15 H 0.17712 0.27051 0.08717 0.0
N16 N 0.19002 0.22568 0.07202 0.0
N17 N 0.18782 0.19006 0.0564 0.0
N18 N 0.17301 0.24258 0.05334 0.0
C19 C 0.19441 0.19602 0.0678 0.0
C20 C 0.17689 0.21301 0.04912 0.0
C21 C 0.17968 0.24925 0.06473 0.0
C22 C 0.20514 0.16952 0.07532 0.0
C23 C 0.19532 0.16637 0.08663 0.0
C24 C 0.20024 0.13787 0.09263 0.0
C25 C 0.21521 0.11233 0.08741 0.0
C26 C 0.22735 0.1167 0.07652 0.0
C27 C 0.22224 0.14486 0.07053 0.0
C28 C 0.16851 0.20543 0.03682 0.0
C29 C 0.17766 0.17649 0.03205 0.0
C30 C 0.16898 0.1688 0.02056 0.0
C31 C 0.15077 0.18975 0.01357 0.0
C32 C 0.14165 0.2187 0.01835 0.0
C33 C 0.15054 0.22652 0.02981 0.0
C34 C 0.17612 0.28218 0.06893 0.0
C35 C 0.17358 0.30718 0.06095 0.0
C36 C 0.18413 0.83778 0.33869 0.0
C37 C 0.18571 0.81735 0.34821 0.0
C38 C 0.1581 0.80256 0.35151 0.0
C39 C 0.12957 0.8072 0.34509 0.0
H40 H 0.0267 0.80804 0.34526 0.0
H41 H 0.97283 0.80138 0.35121 0.0
H42 H 0.9368 0.8257 0.31673 0.0
H43 H 0.98999 0.83269 0.31084 0.0
H44 H 0.0344 0.80529 0.29118 0.0
H45 H 0.0422 0.79454 0.27089 0.0
H46 H 0.1388 0.82508 0.27575 0.0
H47 H 0.13126 0.83578 0.29617 0.0
H48 H 0.1556 0.85652 0.32448 0.0
H49 H 0.20518 0.84922 0.33594 0.0
H50 H 0.15886 0.78662 0.35881 0.0
H51 H 0.10886 0.7946 0.34754 0.0
N52 N 0.07076 0.82429 0.33111 0.0
N53 N 0.04915 0.82302 0.312 0.0
N54 N 0.10365 0.82655 0.31552 0.0
C55 C 0.04506 0.82311 0.32353 0.0
C56 C 0.07826 0.82461 0.30791 0.0
C57 C 0.10013 0.82643 0.32711 0.0
C58 C 0.01274 0.82076 0.32757 0.0
C59 C 0.00725 0.81226 0.339 0.0
C60 C 0.97644 0.80826 0.34239 0.0
C61 C 0.95058 0.81305 0.33444 0.0
C62 C 0.95615 0.82223 0.32311 0.0
C63 C 0.98677 0.82598 0.31971 0.0
C64 C 0.08228 0.82123 0.29535 0.0
C65 C 0.05725 0.8101 0.28795 0.0
C66 C 0.06171 0.80374 0.27633 0.0
C67 C 0.09113 0.80877 0.27182 0.0
C68 C 0.11585 0.82111 0.27904 0.0
C69 C 0.11153 0.82709 0.29073 0.0
C70 C 0.12847 0.82602 0.33511 0.0
C71 C 0.15584 0.84181 0.33212 0.0
C72 C 0.71449 0.85177 0.56461 0.0
C73 C 0.72124 0.85937 0.5763 0.0
C74 C 0.7321 0.83533 0.58391 0.0
C75 C 0.7363 0.80446 0.57987 0.0
H76 H 0.7378 0.70165 0.58913 0.0
H77 H 0.74417 0.65198 0.59991 0.0
H78 H 0.78639 0.60921 0.57071 0.0
H79 H 0.77978 0.65809 0.55997 0.0
H80 H 0.74089 0.67451 0.53559 0.0
H81 H 0.73005 0.66494 0.51497 0.0
H82 H 0.70701 0.76346 0.51005 0.0
H83 H 0.71827 0.77329 0.53058 0.0
H84 H 0.71348 0.81641 0.55146 0.0
H85 H 0.70652 0.86974 0.55848 0.0
H86 H 0.73721 0.84034 0.593 0.0
H87 H 0.74483 0.78658 0.58593 0.0
N88 N 0.74395 0.74026 0.57067 0.0
N89 N 0.74498 0.70647 0.55456 0.0
N90 N 0.73114 0.7594 0.55195 0.0
C91 C 0.74909 0.71106 0.56617 0.0
C92 C 0.73594 0.73041 0.54739 0.0
C93 C 0.73513 0.76469 0.56353 0.0
C94 C 0.75768 0.68361 0.57361 0.0
C95 C 0.74901 0.6818 0.58513 0.0
C96 C 0.75271 0.65342 0.5913 0.0
C97 C 0.76521 0.62656 0.58605 0.0
C98 C 0.77602 0.62928 0.57488 0.0
C99 C 0.77222 0.65736 0.56874 0.0
C100 C 0.73042 0.7247 0.53479 0.0
C101 C 0.73367 0.69422 0.53012 0.0
C102 C 0.7273 0.68864 0.5183 0.0
C103 C 0.71765 0.71342 0.51088 0.0
C104 C 0.71479 0.74394 0.51551 0.0
C105 C 0.72109 0.74952 0.52732 0.0
C106 C 0.72987 0.797 0.56812 0.0
C107 C 0.71875 0.82108 0.56057 0.0
C108 C 0.69375 0.33826 0.82087 0.0
C109 C 0.69774 0.33242 0.8328 0.0
C110 C 0.67116 0.32408 0.8388 0.0
C111 C 0.64137 0.32147 0.83297 0.0
H112 H 0.54183 0.29907 0.83656 0.0
H113 H 0.49144 0.28577 0.84469 0.0
H114 H 0.44332 0.30255 0.8114 0.0
H115 H 0.49261 0.31543 0.80335 0.0
H116 H 0.52543 0.3133 0.78163 0.0
H117 H 0.52299 0.31027 0.76065 0.0
H118 H 0.62335 0.32518 0.76092 0.0
H119 H 0.62596 0.32862 0.78201 0.0
H120 H 0.66242 0.34001 0.80584 0.0
H121 H 0.71368 0.34418 0.8159 0.0
H122 H 0.67336 0.3196 0.84802 0.0
H123 H 0.62147 0.3148 0.83782 0.0
N124 N 0.57958 0.31767 0.81999 0.0
N125 N 0.55102 0.3157 0.80203 0.0
N126 N 0.60516 0.32445 0.80269 0.0
C127 C 0.55157 0.31415 0.81374 0.0
C128 C 0.57748 0.32077 0.79641 0.0
C129 C 0.60656 0.32305 0.81446 0.0
C130 C 0.5215 0.30796 0.81925 0.0
C131 C 0.52044 0.30002 0.83102 0.0
C132 C 0.49162 0.29241 0.83567 0.0
C133 C 0.46348 0.29248 0.82862 0.0
C134 C 0.46461 0.30136 0.817 0.0
C135 C 0.49307 0.30895 0.81239 0.0
C136 C 0.57598 0.32097 0.78357 0.0
C137 C 0.54705 0.31616 0.77727 0.0
C138 C 0.54559 0.3143 0.76522 0.0
C139 C 0.57297 0.3173 0.75914 0.0
C140 C 0.60178 0.32306 0.76537 0.0
C141 C 0.60329 0.32484 0.77746 0.0
C142 C 0.63758 0.32691 0.82098 0.0
C143 C 0.6642 0.33556 0.81506 0.0
C144 C 0.0442 0.61652 0.92173 0.0
C145 C 0.03428 0.61865 0.90997 0.0
C146 C 0.02829 0.6487 0.90518 0.0
C147 C 0.03247 0.67603 0.91202 0.0
H148 H 0.06962 0.77778 0.91357 0.0
H149 H 0.07398 0.83261 0.90699 0.0
H150 H 0.03379 0.86532 0.9382 0.0
H151 H 0.02999 0.81096 0.94488 0.0
H152 H 0.05083 0.76759 0.96762 0.0
H153 H 0.0585 0.75939 0.98841 0.0
H154 H 0.06908 0.65923 0.98275 0.0
H155 H 0.06169 0.66729 0.96193 0.0
H156 H 0.05574 0.64069 0.93757 0.0
H157 H 0.04858 0.59375 0.92574 0.0
H158 H 0.02076 0.65107 0.89613 0.0
H159 H 0.02767 0.69883 0.90811 0.0
N160 N 0.04599 0.73189 0.92701 0.0
N161 N 0.0515 0.75269 0.9459 0.0
N162 N 0.04892 0.69808 0.94307 0.0
C163 C 0.04877 0.75734 0.93427 0.0
C164 C 0.05175 0.72313 0.95037 0.0
C165 C 0.04586 0.70207 0.93142 0.0
C166 C 0.04948 0.79004 0.92974 0.0
C167 C 0.06152 0.79669 0.91897 0.0
C168 C 0.06425 0.82801 0.91525 0.0
C169 C 0.05428 0.85314 0.92211 0.0
C170 C 0.04154 0.8464 0.93273 0.0
C171 C 0.03946 0.81526 0.93655 0.0
C172 C 0.05565 0.71813 0.96306 0.0
C173 C 0.05472 0.74378 0.97077 0.0
C174 C 0.05891 0.73907 0.98271 0.0
C175 C 0.06432 0.70864 0.98721 0.0
C176 C 0.0652 0.68298 0.97952 0.0
C177 C 0.06078 0.68763 0.96759 0.0
C178 C 0.04233 0.67374 0.92382 0.0
C179 C 0.04812 0.64358 0.92854 0.0
C180 C 0.56466 0.84195 0.17227 0.0
C181 C 0.55988 0.83319 0.16058 0.0
C182 C 0.58565 0.82183 0.15473 0.0
C183 C 0.61524 0.81826 0.16056 0.0
H184 H 0.72399 0.82902 0.16015 0.0
H185 H 0.77579 0.82249 0.15243 0.0
H186 H 0.79965 0.75321 0.17887 0.0
H187 H 0.74883 0.76116 0.18686 0.0
H188 H 0.71485 0.77123 0.21145 0.0
H189 H 0.71299 0.76487 0.23227 0.0
H190 H 0.63664 0.83219 0.23243 0.0
H191 H 0.63749 0.83713 0.21154 0.0
H192 H 0.59654 0.84429 0.1872 0.0
H193 H 0.5453 0.85048 0.17707 0.0
H194 H 0.58279 0.81515 0.14569 0.0
H195 H 0.63434 0.8086 0.15589 0.0
N196 N 0.67633 0.81152 0.17361 0.0
N197 N 0.70263 0.80021 0.19155 0.0
N198 N 0.64995 0.81618 0.19079 0.0
C199 C 0.70297 0.80259 0.17986 0.0
C200 C 0.67631 0.8072 0.19708 0.0
C201 C 0.64959 0.81818 0.17906 0.0
C202 C 0.73253 0.79591 0.17419 0.0
C203 C 0.74029 0.81222 0.16421 0.0
C204 C 0.76999 0.80835 0.15977 0.0
C205 C 0.79233 0.78767 0.16511 0.0
C206 C 0.78364 0.77012 0.17472 0.0
C207 C 0.75433 0.77446 0.17927 0.0
C208 C 0.67617 0.80451 0.20983 0.0
C209 C 0.69773 0.78472 0.21595 0.0
C210 C 0.69678 0.78125 0.22793 0.0
C211 C 0.67459 0.79792 0.23412 0.0
C212 C 0.65359 0.81837 0.22798 0.0
C213 C 0.65417 0.82137 0.21598 0.0
C214 C 0.61959 0.82564 0.1724 0.0
C215 C 0.59408 0.83814 0.17811 0.0
C216 C 0.56207 0.08328 0.41695 0.0
C217 C 0.5573 0.0869 0.40495 0.0
C218 C 0.55489 0.11753 0.40033 0.0
C219 C 0.55839 0.14407 0.40763 0.0
H220 H 0.56709 0.24462 0.40914 0.0
H221 H 0.5683 0.29941 0.40272 0.0
H222 H 0.58913 0.32992 0.43797 0.0
H223 H 0.58739 0.27554 0.44444 0.0
H224 H 0.6084 0.22285 0.4639 0.0
H225 H 0.61937 0.20921 0.48426 0.0
H226 H 0.57583 0.11813 0.47819 0.0
H227 H 0.56491 0.13151 0.4579 0.0
H228 H 0.56924 0.10532 0.43338 0.0
H229 H 0.56341 0.05997 0.42078 0.0
H230 H 0.55111 0.12092 0.39108 0.0
H231 H 0.55707 0.16741 0.40385 0.0
N232 N 0.57014 0.19788 0.42379 0.0
N233 N 0.58112 0.2158 0.44288 0.0
N234 N 0.57402 0.16196 0.43915 0.0
C235 C 0.57604 0.2222 0.4314 0.0
C236 C 0.58002 0.18569 0.44682 0.0
C237 C 0.56915 0.16758 0.42767 0.0
C238 C 0.57707 0.25547 0.42732 0.0
C239 C 0.57192 0.26298 0.41553 0.0
C240 C 0.57278 0.29443 0.41183 0.0
C241 C 0.57873 0.31914 0.41983 0.0
C242 C 0.58399 0.31159 0.43159 0.0
C243 C 0.58317 0.28024 0.43529 0.0
C244 C 0.58582 0.17829 0.45926 0.0
C245 C 0.60108 0.19997 0.46691 0.0
C246 C 0.60759 0.19208 0.47854 0.0
C247 C 0.59857 0.16255 0.48277 0.0
C248 C 0.58294 0.14108 0.47517 0.0
C249 C 0.57681 0.14877 0.46354 0.0
C250 C 0.56395 0.14028 0.41966 0.0
C251 C 0.56528 0.10948 0.42419 0.0
C252 C 0.06507 0.31477 0.67184 0.0
C253 C 0.06278 0.32054 0.6599 0.0
C254 C 0.09042 0.32591 0.65414 0.0
C255 C 0.11992 0.32445 0.66021 0.0
H256 H 0.21928 0.31538 0.65617 0.0
H257 H 0.26911 0.3077 0.64696 0.0
H258 H 0.31404 0.28141 0.67995 0.0
H259 H 0.26491 0.28864 0.68907 0.0
H260 H 0.22949 0.2841 0.71075 0.0
H261 H 0.22998 0.27556 0.73156 0.0
H262 H 0.13732 0.31657 0.73221 0.0
H263 H 0.13655 0.32505 0.71133 0.0
H264 H 0.09498 0.3088 0.68708 0.0
H265 H 0.0441 0.31093 0.67651 0.0
H266 H 0.08923 0.33039 0.64492 0.0
H267 H 0.14087 0.32808 0.65552 0.0
N268 N 0.18027 0.31195 0.67309 0.0
N269 N 0.20863 0.30537 0.69092 0.0
N270 N 0.15429 0.31324 0.69043 0.0
C271 C 0.20818 0.30715 0.67921 0.0
C272 C 0.18194 0.30852 0.69661 0.0
C273 C 0.15314 0.31496 0.67868 0.0
C274 C 0.23797 0.30267 0.67337 0.0
C275 C 0.23978 0.30787 0.66143 0.0
C276 C 0.26831 0.30359 0.65617 0.0
C277 C 0.2954 0.29372 0.66273 0.0
C278 C 0.29348 0.2885 0.67462 0.0
C279 C 0.26522 0.29294 0.67987 0.0
C280 C 0.18288 0.30512 0.70935 0.0
C281 C 0.20928 0.29157 0.71531 0.0
C282 C 0.20957 0.28655 0.72722 0.0
C283 C 0.18369 0.29536 0.73346 0.0
C284 C 0.15768 0.30978 0.7276 0.0
C285 C 0.15718 0.31442 0.71564 0.0
C286 C 0.12219 0.3181 0.67216 0.0
C287 C 0.09432 0.31372 0.6779 0.0
Zn288 Zn 0.21 0.69162 0.14438 0.0
Zn289 Zn 0.10972 0.79221 0.10778 0.0
Zn290 Zn 0.17588 0.72793 0.13154 0.0
C291 C 0.14176 0.72294 0.10868 0.0
C292 C 0.17936 0.79044 0.12079 0.0
O293 O 0.15279 0.7275 0.14779 0.0
O294 O 0.18544 0.69785 0.15863 0.0
C295 C 0.1882 0.65579 0.12492 0.0
O296 O 0.15977 0.70545 0.11518 0.0
O297 O 0.1353 0.75028 0.11264 0.0
O298 O 0.15236 0.77931 0.11745 0.0
O299 O 0.19758 0.77246 0.12702 0.0
O300 O 0.20329 0.65304 0.13461 0.0
O301 O 0.17636 0.68268 0.12186 0.0
O302 O 0.22096 0.75347 0.13282 0.0
O303 O 0.24926 0.71695 0.14223 0.0
C304 C 0.24759 0.74334 0.13714 0.0
O305 O 0.13227 0.74155 0.13941 0.0
O306 O 0.12262 0.76699 0.1233 0.0
C307 C 0.1611 0.71495 0.15758 0.0
C308 C 0.11298 0.75808 0.13303 0.0
Zn309 Zn 0.54668 0.67044 0.35572 0.0
Zn310 Zn 0.62323 0.77589 0.39013 0.0
Zn311 Zn 0.57343 0.70757 0.37076 0.0
C312 C 0.55618 0.7658 0.38024 0.0
C313 C 0.64108 0.75399 0.36649 0.0
O314 O 0.57676 0.66014 0.3787 0.0
O315 O 0.5636 0.63077 0.36333 0.0
C316 C 0.49888 0.70854 0.3639 0.0
O317 O 0.54047 0.74562 0.37413 0.0
O318 O 0.5824 0.75608 0.38446 0.0
O319 O 0.64578 0.77247 0.37523 0.0
O320 O 0.61812 0.73349 0.36536 0.0
O321 O 0.50211 0.68338 0.35817 0.0
O322 O 0.52339 0.72249 0.36859 0.0
O323 O 0.60042 0.71456 0.35583 0.0
O324 O 0.56853 0.69076 0.34278 0.0
C325 C 0.59245 0.70769 0.34527 0.0
O326 O 0.58976 0.68282 0.38658 0.0
O327 O 0.60478 0.73108 0.38836 0.0
C328 C 0.5733 0.63284 0.37385 0.0
C329 C 0.60522 0.70349 0.39257 0.0
Zn330 Zn 0.64811 0.28031 0.60386 0.0
Zn331 Zn 0.70562 0.21759 0.63982 0.0
Zn332 Zn 0.67703 0.24867 0.62156 0.0
C333 C 0.74473 0.26806 0.63374 0.0
C334 C 0.69886 0.17493 0.62122 0.0
O335 O 0.62979 0.26288 0.62653 0.0
O336 O 0.60845 0.28919 0.61155 0.0
C337 C 0.70287 0.31343 0.61017 0.0
O338 O 0.72262 0.27205 0.62578 0.0
O339 O 0.74251 0.24671 0.64124 0.0
O340 O 0.71029 0.17678 0.63153 0.0
O341 O 0.68554 0.19912 0.61628 0.0
O342 O 0.67971 0.3141 0.60284 0.0
O343 O 0.70567 0.29086 0.6176 0.0
O344 O 0.67066 0.21537 0.60688 0.0
O345 O 0.64833 0.24462 0.59281 0.0
C346 C 0.65921 0.21851 0.5964 0.0
O347 O 0.64735 0.25193 0.63648 0.0
O348 O 0.67097 0.22338 0.65046 0.0
C349 C 0.60641 0.2779 0.62156 0.0
C350 C 0.64846 0.24079 0.64683 0.0
Zn351 Zn 0.0495 0.20112 0.8576 0.0
Zn352 Zn 0.11833 0.27793 0.88664 0.0
Zn353 Zn 0.08345 0.24064 0.87222 0.0
C354 C 0.1095 0.22078 0.898 0.0
C355 C 0.06174 0.3095 0.88122 0.0
O356 O 0.10853 0.23562 0.85637 0.0
O357 O 0.07928 0.20394 0.84488 0.0
C358 C 0.06421 0.16736 0.8778 0.0
O359 O 0.09275 0.21488 0.8886 0.0
O360 O 0.12426 0.24655 0.89924 0.0
O361 O 0.08632 0.31162 0.88783 0.0
O362 O 0.05681 0.28497 0.87473 0.0
O363 O 0.05069 0.16388 0.86788 0.0
O364 O 0.07703 0.19399 0.88082 0.0
O365 O 0.03725 0.26364 0.86826 0.0
O366 O 0.01087 0.22785 0.85755 0.0
C367 C 0.01179 0.25419 0.86272 0.0
O368 O 0.12888 0.25144 0.86448 0.0
O369 O 0.15367 0.28514 0.87651 0.0
C370 C 0.10344 0.22102 0.84667 0.0
C371 C 0.15282 0.26915 0.86727 0.0
H372 H 0.13018 0.36944 0.09215 0.0
H373 H 0.12565 0.42444 0.09845 0.0
H374 H 0.19917 0.45101 0.07629 0.0
H375 H 0.20299 0.39636 0.06973 0.0
H376 H 0.16346 0.45991 0.10993 0.0
H377 H 0.19505 0.52524 0.06803 0.0
H378 H 0.1857 0.51988 0.04688 0.0
H379 H 0.10211 0.46591 0.05165 0.0
H380 H 0.11081 0.47121 0.07282 0.0
H381 H 0.22683 0.60518 0.12457 0.0
H382 H 0.21754 0.55507 0.11459 0.0
H383 H 0.13058 0.59104 0.09874 0.0
H384 H 0.13998 0.64187 0.10873 0.0
H385 H 0.16219 0.55263 0.08381 0.0
H386 H 0.12691 0.54617 0.12193 0.0
H387 H 0.13034 0.55281 0.14313 0.0
H388 H 0.20917 0.48952 0.14591 0.0
H389 H 0.20652 0.48287 0.1247 0.0
C390 C 0.14526 0.3871 0.0886 0.0
C391 C 0.16688 0.37863 0.08043 0.0
C392 C 0.14259 0.41854 0.09217 0.0
C393 C 0.16169 0.44214 0.08772 0.0
C394 C 0.18347 0.43358 0.07961 0.0
C395 C 0.18582 0.40225 0.07592 0.0
C396 C 0.1605 0.47519 0.09216 0.0
C397 C 0.16285 0.48008 0.10418 0.0
C398 C 0.15906 0.50179 0.08473 0.0
C399 C 0.15372 0.49844 0.07201 0.0
C400 C 0.17465 0.51228 0.06456 0.0
C401 C 0.16947 0.50924 0.05257 0.0
C402 C 0.14336 0.49251 0.04793 0.0
C403 C 0.12237 0.47879 0.05526 0.0
C404 C 0.12744 0.48176 0.06726 0.0
C405 C 0.20587 0.60264 0.11886 0.0
C406 C 0.184 0.62738 0.11751 0.0
C407 C 0.20058 0.57394 0.11317 0.0
C408 C 0.17304 0.56906 0.10613 0.0
C409 C 0.15191 0.59427 0.1042 0.0
C410 C 0.15734 0.6233 0.10987 0.0
C411 C 0.16591 0.53696 0.10149 0.0
C412 C 0.16218 0.53232 0.08949 0.0
C413 C 0.16512 0.51055 0.10893 0.0
C414 C 0.16661 0.51417 0.12171 0.0
C415 C 0.14509 0.53381 0.12706 0.0
C416 C 0.14689 0.53756 0.13908 0.0
C417 C 0.16999 0.52163 0.14586 0.0
C418 C 0.19129 0.50185 0.14064 0.0
C419 C 0.18963 0.49805 0.12862 0.0
H420 H 0.17135 0.52458 0.15517 0.0
H421 H 0.13938 0.49021 0.03864 0.0
H422 H 0.89868 0.84941 0.3292 0.0
H423 H 0.844 0.83749 0.33282 0.0
H424 H 0.87355 0.75227 0.35063 0.0
H425 H 0.92835 0.76368 0.34677 0.0
H426 H 0.82433 0.74151 0.33512 0.0
H427 H 0.84991 0.81583 0.36558 0.0
H428 H 0.86946 0.86607 0.3741 0.0
H429 H 0.79865 0.91686 0.3538 0.0
H430 H 0.77893 0.86693 0.34503 0.0
H431 H 0.68583 0.70971 0.36458 0.0
H432 H 0.73644 0.7173 0.35612 0.0
H433 H 0.70433 0.80687 0.34222 0.0
H434 H 0.65388 0.79942 0.351 0.0
H435 H 0.75464 0.81563 0.35473 0.0
H436 H 0.73552 0.74284 0.32186 0.0
H437 H 0.71823 0.69293 0.31233 0.0
H438 H 0.77649 0.64027 0.33689 0.0
H439 H 0.79439 0.68987 0.34646 0.0
C440 C 0.89355 0.82816 0.33392 0.0
C441 C 0.91783 0.80744 0.33768 0.0
C442 C 0.86231 0.8215 0.33604 0.0
C443 C 0.85471 0.79406 0.34204 0.0
C444 C 0.87892 0.77358 0.34599 0.0
C445 C 0.91023 0.78028 0.34388 0.0
C446 C 0.82138 0.7863 0.34385 0.0
C447 C 0.80914 0.75757 0.33951 0.0
C448 C 0.80135 0.8076 0.3493 0.0
C449 C 0.81316 0.83766 0.35456 0.0
C450 C 0.83868 0.83773 0.36286 0.0
C451 C 0.84976 0.86615 0.36775 0.0
C452 C 0.83537 0.89465 0.36447 0.0
C453 C 0.80981 0.89477 0.35632 0.0
C454 C 0.79865 0.86642 0.35139 0.0
C455 C 0.68917 0.73029 0.35926 0.0
C456 C 0.66604 0.75384 0.35829 0.0
C457 C 0.71811 0.73463 0.35438 0.0
C458 C 0.72432 0.76259 0.34841 0.0
C459 C 0.70013 0.78504 0.34672 0.0
C460 C 0.6713 0.78079 0.35169 0.0
C461 C 0.75722 0.77086 0.34587 0.0
C462 C 0.76958 0.79967 0.35018 0.0
C463 C 0.77735 0.7497 0.34037 0.0
C464 C 0.76579 0.7199 0.33497 0.0
C465 C 0.74436 0.72055 0.32528 0.0
C466 C 0.73463 0.69237 0.31983 0.0
C467 C 0.74607 0.66346 0.32405 0.0
C468 C 0.76752 0.66266 0.33366 0.0
C469 C 0.77757 0.69078 0.33907 0.0
H470 H 0.73842 0.64168 0.31984 0.0
H471 H 0.84397 0.91662 0.36827 0.0
H472 H 0.78277 0.60953 0.60854 0.0
H473 H 0.78005 0.55637 0.61707 0.0
H474 H 0.74203 0.51979 0.58434 0.0
H475 H 0.74444 0.57216 0.5759 0.0
H476 H 0.70793 0.50176 0.60271 0.0
H477 H 0.81733 0.50885 0.59262 0.0
H478 H 0.87094 0.53112 0.59413 0.0
H479 H 0.87872 0.51003 0.63043 0.0
H480 H 0.82491 0.48808 0.62917 0.0
H481 H 0.72273 0.34641 0.59208 0.0
H482 H 0.74369 0.40001 0.5927 0.0
H483 H 0.75073 0.39726 0.62997 0.0
H484 H 0.72957 0.34318 0.6294 0.0
H485 H 0.80127 0.43738 0.61514 0.0
H486 H 0.69215 0.42613 0.62466 0.0
H487 H 0.63996 0.40089 0.62214 0.0
H488 H 0.63249 0.42944 0.58654 0.0
H489 H 0.68493 0.45434 0.58881 0.0
C490 C 0.77384 0.59005 0.60321 0.0
C491 C 0.7641 0.59492 0.59152 0.0
C492 C 0.77244 0.55976 0.60807 0.0
C493 C 0.76093 0.53415 0.60132 0.0
C494 C 0.75102 0.53918 0.58971 0.0
C495 C 0.75264 0.56912 0.58487 0.0
C496 C 0.75823 0.50191 0.60612 0.0
C497 C 0.72834 0.48788 0.60557 0.0
C498 C 0.78474 0.4839 0.6101 0.0
C499 C 0.81693 0.4973 0.61084 0.0
C500 C 0.83032 0.50931 0.60095 0.0
C501 C 0.86078 0.5218 0.60175 0.0
C502 C 0.87817 0.52212 0.61238 0.0
C503 C 0.86518 0.50987 0.62222 0.0
C504 C 0.83471 0.49742 0.62147 0.0
C505 C 0.72988 0.35673 0.6004 0.0
C506 C 0.72432 0.34082 0.61069 0.0
C507 C 0.74196 0.3873 0.60074 0.0
C508 C 0.74843 0.4026 0.61137 0.0
C509 C 0.74602 0.3857 0.62169 0.0
C510 C 0.73396 0.35484 0.62135 0.0
C511 C 0.75115 0.43742 0.61141 0.0
C512 C 0.78083 0.45176 0.61276 0.0
C513 C 0.72447 0.45597 0.6082 0.0
C514 C 0.69252 0.44191 0.60689 0.0
C515 C 0.67944 0.42685 0.61628 0.0
C516 C 0.64983 0.41262 0.6149 0.0
C517 C 0.63294 0.41352 0.60418 0.0
C518 C 0.6456 0.42876 0.59483 0.0
C519 C 0.67525 0.44296 0.59617 0.0
H520 H 0.61003 0.40245 0.60312 0.0
H521 H 0.90176 0.53176 0.61298 0.0
H522 H 0.72418 0.29194 0.84909 0.0
H523 H 0.77874 0.29071 0.85693 0.0
H524 H 0.79896 0.37429 0.83754 0.0
H525 H 0.74435 0.37582 0.82974 0.0
H526 H 0.84066 0.32987 0.83388 0.0
H527 H 0.80044 0.37644 0.86722 0.0
H528 H 0.76513 0.38351 0.88314 0.0
H529 H 0.7927 0.29298 0.89689 0.0
H530 H 0.82786 0.28515 0.88095 0.0
H531 H 0.99986 0.31452 0.85519 0.0
H532 H 0.94821 0.34066 0.85319 0.0
H533 H 0.90547 0.25899 0.86798 0.0
H534 H 0.95695 0.23348 0.87021 0.0
H535 H 0.87772 0.31428 0.87489 0.0
H536 H 0.90907 0.26473 0.83923 0.0
H537 H 0.94447 0.2576 0.82332 0.0
H538 H 0.93315 0.35526 0.81413 0.0
H539 H 0.89798 0.36303 0.83011 0.0
C540 C 0.74 0.31052 0.84671 0.0
C541 C 0.72986 0.33384 0.83871 0.0
C542 C 0.77127 0.3098 0.8512 0.0
C543 C 0.79305 0.33249 0.84787 0.0
C544 C 0.78268 0.35646 0.84022 0.0
C545 C 0.75145 0.35721 0.83573 0.0
C546 C 0.82707 0.32942 0.85152 0.0
C547 C 0.84879 0.32724 0.84288 0.0
C548 C 0.83784 0.32562 0.86324 0.0
C549 C 0.81662 0.33011 0.87283 0.0
C550 C 0.79879 0.35792 0.87358 0.0
C551 C 0.77883 0.36208 0.88262 0.0
C552 C 0.77663 0.33868 0.89101 0.0
C553 C 0.79442 0.31108 0.89038 0.0
C554 C 0.8144 0.30679 0.88135 0.0
C555 C 0.9796 0.30287 0.85843 0.0
C556 C 0.9823 0.2723 0.863 0.0
C557 C 0.95007 0.31757 0.85717 0.0
C558 C 0.9229 0.30166 0.86037 0.0
C559 C 0.92604 0.27179 0.8655 0.0
C560 C 0.9554 0.25717 0.86672 0.0
C561 C 0.89083 0.31396 0.85723 0.0
C562 C 0.86953 0.31772 0.86593 0.0
C563 C 0.88037 0.31928 0.84557 0.0
C564 C 0.90124 0.31454 0.83592 0.0
C565 C 0.91432 0.28472 0.83386 0.0
C566 C 0.93431 0.28056 0.82483 0.0
C567 C 0.94114 0.30598 0.81774 0.0
C568 C 0.9279 0.3356 0.81965 0.0
C569 C 0.90793 0.3399 0.82868 0.0
H570 H 0.95662 0.30272 0.81075 0.0
H571 H 0.76117 0.34196 0.898 0.0
H572 H 0.0744 0.56868 0.90972 0.0
H573 H 0.06667 0.5184 0.89971 0.0
H574 H 0.97824 0.55142 0.88409 0.0
H575 H 0.98557 0.60201 0.89443 0.0
H576 H 0.97223 0.4922 0.8922 0.0
H577 H 0.03956 0.54218 0.86724 0.0
H578 H 0.08452 0.57383 0.86141 0.0
H579 H 0.14873 0.50484 0.87622 0.0
H580 H 0.1042 0.47299 0.8823 0.0
H581 H 0.0475 0.34314 0.86178 0.0
H582 H 0.02769 0.39754 0.86095 0.0
H583 H 0.0142 0.39462 0.89757 0.0
H584 H 0.03375 0.34036 0.89834 0.0
H585 H 0.05938 0.44319 0.87191 0.0
H586 H 0.95882 0.44674 0.90479 0.0
H587 H 0.91183 0.41531 0.90861 0.0
H588 H 0.90896 0.37826 0.87399 0.0
H589 H 0.95549 0.40989 0.86988 0.0
C590 C 0.0533 0.56535 0.90414 0.0
C591 C 0.03053 0.5893 0.90291 0.0
C592 C 0.04902 0.53664 0.89833 0.0
C593 C 0.02201 0.53116 0.89104 0.0
C594 C 0.99932 0.55515 0.88964 0.0
C595 C 0.00365 0.5841 0.89547 0.0
C596 C 0.01756 0.49978 0.88534 0.0
C597 C 0.99107 0.48153 0.88764 0.0
C598 C 0.04146 0.48625 0.87892 0.0
C599 C 0.06847 0.50521 0.87525 0.0
C600 C 0.06327 0.53383 0.86932 0.0
C601 C 0.08869 0.5518 0.86596 0.0
C602 C 0.11946 0.54136 0.86845 0.0
C603 C 0.12488 0.51289 0.87429 0.0
C604 C 0.09954 0.49483 0.87767 0.0
C605 C 0.03872 0.35365 0.8695 0.0
C606 C 0.04143 0.3375 0.88007 0.0
C607 C 0.02777 0.38482 0.86905 0.0
C608 C 0.01935 0.40019 0.87919 0.0
C609 C 0.02001 0.38317 0.8896 0.0
C610 C 0.03118 0.35217 0.89005 0.0
C611 C 0.01513 0.43501 0.87948 0.0
C612 C 0.04007 0.45397 0.87618 0.0
C613 C 0.98937 0.44927 0.88465 0.0
C614 C 0.96085 0.43068 0.88705 0.0
C615 C 0.94804 0.43213 0.89795 0.0
C616 C 0.92148 0.41421 0.90018 0.0
C617 C 0.90744 0.39477 0.89155 0.0
C618 C 0.91987 0.39327 0.88068 0.0
C619 C 0.94637 0.41118 0.8784 0.0
H620 H 0.88692 0.38089 0.8933 0.0
H621 H 0.13911 0.55532 0.86584 0.0
H622 H 0.84728 0.77913 0.17834 0.0
H623 H 0.90041 0.77497 0.17203 0.0
H624 H 0.86589 0.7894 0.13666 0.0
H625 H 0.81194 0.79119 0.14282 0.0
H626 H 0.90971 0.7467 0.13698 0.0
H627 H 0.90494 0.85046 0.1531 0.0
H628 H 0.89369 0.89105 0.16763 0.0
H629 H 0.95766 0.84598 0.19247 0.0
H630 H 0.96871 0.80479 0.17817 0.0
H631 H 0.06522 0.78607 0.11993 0.0
H632 H 0.01035 0.79243 0.12467 0.0
H633 H 0.03153 0.74913 0.15783 0.0
H634 H 0.08649 0.74287 0.15324 0.0
H635 H 0.99422 0.81007 0.15725 0.0
H636 H 0.99805 0.70546 0.13986 0.0
H637 H 0.01002 0.6687 0.12416 0.0
H638 H 0.94762 0.7198 0.10048 0.0
H639 H 0.93566 0.75719 0.11601 0.0
C640 C 0.85068 0.78083 0.16918 0.0
C641 C 0.825 0.78538 0.16111 0.0
C642 C 0.88133 0.77901 0.16559 0.0
C643 C 0.88739 0.78258 0.15389 0.0
C644 C 0.8619 0.7868 0.14576 0.0
C645 C 0.83104 0.78815 0.14932 0.0
C646 C 0.92036 0.78168 0.15023 0.0
C647 C 0.92806 0.76087 0.14135 0.0
C648 C 0.94453 0.80003 0.1559 0.0
C649 C 0.93773 0.82461 0.16456 0.0
C650 C 0.91648 0.84915 0.16168 0.0
C651 C 0.91011 0.87224 0.16988 0.0
C652 C 0.92497 0.87112 0.18096 0.0
C653 C 0.94621 0.84688 0.18388 0.0
C654 C 0.95258 0.82369 0.17573 0.0
C655 C 0.05837 0.7783 0.1283 0.0
C656 C 0.08036 0.76418 0.13625 0.0
C657 C 0.02695 0.78183 0.13097 0.0
C658 C 0.01697 0.77144 0.14163 0.0
C659 C 0.03891 0.75781 0.14965 0.0
C660 C 0.0703 0.75413 0.14698 0.0
C661 C 0.98354 0.77443 0.14438 0.0
C662 C 0.97579 0.79585 0.153 0.0
C663 C 0.95936 0.75703 0.13836 0.0
C664 C 0.96623 0.73432 0.12907 0.0
C665 C 0.9871 0.70903 0.13128 0.0
C666 C 0.99384 0.68805 0.12242 0.0
C667 C 0.97967 0.69197 0.11132 0.0
C668 C 0.95863 0.71682 0.10907 0.0
C669 C 0.95184 0.7379 0.11791 0.0
H670 H 0.98493 0.67571 0.10447 0.0
H671 H 0.92002 0.88903 0.18729 0.0
H672 H 0.5546 0.37109 0.43037 0.0
H673 H 0.55673 0.42617 0.42427 0.0
H674 H 0.60587 0.39836 0.39436 0.0
H675 H 0.60475 0.34326 0.40061 0.0
H676 H 0.63212 0.45034 0.40429 0.0
H677 H 0.52759 0.41632 0.39216 0.0
H678 H 0.47514 0.39345 0.39458 0.0
H679 H 0.45608 0.46573 0.4193 0.0
H680 H 0.50863 0.4888 0.41714 0.0
H681 H 0.59835 0.57849 0.36605 0.0
H682 H 0.60295 0.52773 0.37603 0.0
H683 H 0.56496 0.56944 0.40623 0.0
H684 H 0.56054 0.62055 0.39624 0.0
H685 H 0.53415 0.51297 0.39807 0.0
H686 H 0.6376 0.54967 0.40869 0.0
H687 H 0.68949 0.57285 0.40558 0.0
H688 H 0.71019 0.4958 0.38306 0.0
H689 H 0.65818 0.47237 0.3859 0.0
C690 C 0.56613 0.37668 0.42255 0.0
C691 C 0.57948 0.35267 0.41598 0.0
C692 C 0.56708 0.4082 0.41902 0.0
C693 C 0.58121 0.41643 0.4088 0.0
C694 C 0.5948 0.39259 0.40227 0.0
C695 C 0.59386 0.36104 0.40579 0.0
C696 C 0.58164 0.44984 0.40486 0.0
C697 C 0.61067 0.46392 0.40283 0.0
C698 C 0.55374 0.46792 0.40326 0.0
C699 C 0.52218 0.45405 0.40459 0.0
C700 C 0.51232 0.42717 0.39819 0.0
C701 C 0.48256 0.4142 0.3995 0.0
C702 C 0.46233 0.42807 0.40712 0.0
C703 C 0.4718 0.45498 0.41342 0.0
C704 C 0.50156 0.46802 0.41215 0.0
C705 C 0.5915 0.57695 0.37489 0.0
C706 C 0.57944 0.60348 0.38044 0.0
C707 C 0.5942 0.54799 0.38059 0.0
C708 C 0.58443 0.54486 0.39189 0.0
C709 C 0.5728 0.57144 0.39754 0.0
C710 C 0.5706 0.60064 0.39189 0.0
C711 C 0.58455 0.51326 0.39739 0.0
C712 C 0.55562 0.49948 0.39967 0.0
C713 C 0.6125 0.49544 0.39917 0.0
C714 C 0.64385 0.50939 0.39743 0.0
C715 C 0.65308 0.5378 0.40299 0.0
C716 C 0.68255 0.55096 0.40129 0.0
C717 C 0.7031 0.53584 0.3941 0.0
C718 C 0.69424 0.50749 0.38862 0.0
C719 C 0.66477 0.49424 0.39028 0.0
H720 H 0.72591 0.54606 0.3928 0.0
H721 H 0.43928 0.41801 0.40811 0.0
H722 H 0.03654 0.36479 0.64498 0.0
H723 H 0.98238 0.36536 0.63623 0.0
H724 H 0.96473 0.27546 0.65201 0.0
H725 H 0.0184 0.27482 0.66068 0.0
H726 H 0.93906 0.27854 0.62969 0.0
H727 H 0.94481 0.34261 0.66498 0.0
H728 H 0.9641 0.3875 0.67705 0.0
H729 H 0.92985 0.45234 0.65079 0.0
H730 H 0.91074 0.40775 0.6385 0.0
H731 H 0.78104 0.28679 0.65253 0.0
H732 H 0.83453 0.30766 0.65284 0.0
H733 H 0.82893 0.31097 0.61555 0.0
H734 H 0.77507 0.29004 0.61519 0.0
H735 H 0.86689 0.35951 0.64425 0.0
H736 H 0.89954 0.27734 0.60798 0.0
H737 H 0.87941 0.23 0.59744 0.0
H738 H 0.83611 0.19813 0.62786 0.0
H739 H 0.85634 0.24504 0.6386 0.0
C740 C 0.02115 0.34498 0.6464 0.0
C741 C 0.03147 0.31989 0.65358 0.0
C742 C 0.99028 0.34538 0.64144 0.0
C743 C 0.96951 0.32051 0.64353 0.0
C744 C 0.98035 0.29484 0.65027 0.0
C745 C 0.01093 0.2946 0.65528 0.0
C746 C 0.93581 0.32166 0.63947 0.0
C747 C 0.92338 0.29664 0.63266 0.0
C748 C 0.91528 0.34518 0.64337 0.0
C749 C 0.92677 0.37188 0.65076 0.0
C750 C 0.94166 0.36644 0.66174 0.0
C751 C 0.95251 0.39182 0.66863 0.0
C752 C 0.94831 0.42275 0.66467 0.0
C753 C 0.93317 0.42837 0.65383 0.0
C754 C 0.92234 0.40306 0.6469 0.0
C755 C 0.79091 0.29275 0.6444 0.0
C756 C 0.77405 0.28666 0.63384 0.0
C757 C 0.82139 0.30487 0.64459 0.0
C758 C 0.83577 0.31062 0.63422 0.0
C759 C 0.81823 0.30663 0.62364 0.0
C760 C 0.78748 0.29478 0.62346 0.0
C761 C 0.8702 0.31612 0.63465 0.0
C762 C 0.88274 0.34223 0.64084 0.0
C763 C 0.89086 0.29341 0.6303 0.0
C764 C 0.87909 0.26484 0.62402 0.0
C765 C 0.88579 0.26016 0.61241 0.0
C766 C 0.87437 0.23342 0.60641 0.0
C767 C 0.85639 0.21114 0.61196 0.0
C768 C 0.84993 0.21546 0.62356 0.0
C769 C 0.86136 0.24212 0.6296 0.0
H770 H 0.84752 0.19048 0.6073 0.0
H771 H 0.9567 0.44237 0.67002 0.0
H772 H 0.337 0.24513 0.66608 0.0
H773 H 0.38965 0.24057 0.65894 0.0
H774 H 0.3758 0.32796 0.6403 0.0
H775 H 0.32293 0.33261 0.64741 0.0
H776 H 0.40516 0.28558 0.62758 0.0
H777 H 0.4178 0.32549 0.66622 0.0
H778 H 0.41295 0.32755 0.68732 0.0
H779 H 0.46219 0.2394 0.69114 0.0
H780 H 0.46681 0.23651 0.67003 0.0
H781 H 0.56222 0.32399 0.61866 0.0
H782 H 0.50913 0.32416 0.62561 0.0
H783 H 0.52824 0.23596 0.64319 0.0
H784 H 0.58136 0.23567 0.63621 0.0
H785 H 0.4959 0.2742 0.65614 0.0
H786 H 0.48584 0.23748 0.61738 0.0
H787 H 0.4932 0.23797 0.59642 0.0
H788 H 0.44135 0.32471 0.59303 0.0
H789 H 0.43411 0.32502 0.61402 0.0
C790 C 0.34515 0.26335 0.66044 0.0
C791 C 0.32597 0.28941 0.6574 0.0
C792 C 0.37525 0.26073 0.65637 0.0
C793 C 0.3869 0.28424 0.64927 0.0
C794 C 0.36731 0.30961 0.64581 0.0
C795 C 0.33709 0.31219 0.64984 0.0
C796 C 0.41974 0.28269 0.64568 0.0
C797 C 0.42506 0.28376 0.63384 0.0
C798 C 0.44567 0.2793 0.65384 0.0
C799 C 0.44219 0.28054 0.66651 0.0
C800 C 0.4272 0.30632 0.67154 0.0
C801 C 0.42458 0.30768 0.6835 0.0
C802 C 0.43714 0.28356 0.69056 0.0
C803 C 0.45237 0.25802 0.68566 0.0
C804 C 0.45497 0.25649 0.6737 0.0
C805 C 0.55519 0.30483 0.62412 0.0
C806 C 0.57601 0.27998 0.62701 0.0
C807 C 0.52481 0.30483 0.62801 0.0
C808 C 0.51449 0.27971 0.6347 0.0
C809 C 0.53566 0.2555 0.63799 0.0
C810 C 0.56614 0.25555 0.63412 0.0
C811 C 0.48149 0.27868 0.63813 0.0
C812 C 0.47605 0.27654 0.64991 0.0
C813 C 0.4556 0.28163 0.62995 0.0
C814 C 0.45967 0.28142 0.6173 0.0
C815 C 0.47621 0.25679 0.61218 0.0
C816 C 0.48033 0.25691 0.6003 0.0
C817 C 0.46781 0.28139 0.59341 0.0
C818 C 0.45106 0.30577 0.59839 0.0
C819 C 0.44692 0.30581 0.61028 0.0
H820 H 0.47104 0.28144 0.5842 0.0
H821 H 0.43516 0.2847 0.69983 0.0
H822 H 0.53167 0.78759 0.14684 0.0
H823 H 0.47688 0.78486 0.13954 0.0
H824 H 0.4597 0.87657 0.15425 0.0
H825 H 0.51469 0.8792 0.16174 0.0
H826 H 0.41628 0.83846 0.16 0.0
H827 H 0.45655 0.864 0.12419 0.0
H828 H 0.49177 0.86192 0.10807 0.0
H829 H 0.46375 0.76617 0.10078 0.0
H830 H 0.42869 0.76747 0.11697 0.0
H831 H 0.25712 0.80719 0.13951 0.0
H832 H 0.30769 0.83524 0.13997 0.0
H833 H 0.35483 0.74756 0.13318 0.0
H834 H 0.30455 0.71974 0.13276 0.0
H835 H 0.37932 0.79845 0.12122 0.0
H836 H 0.34977 0.77241 0.16057 0.0
H837 H 0.31403 0.77601 0.17654 0.0
H838 H 0.32132 0.87714 0.17622 0.0
H839 H 0.35685 0.87409 0.16016 0.0
C840 C 0.51647 0.80755 0.14828 0.0
C841 C 0.52759 0.83361 0.15488 0.0
C842 C 0.48505 0.80601 0.14407 0.0
C843 C 0.46406 0.83068 0.1462 0.0
C844 C 0.47536 0.85722 0.15247 0.0
C845 C 0.50679 0.85868 0.15676 0.0
C846 C 0.4299 0.82716 0.14281 0.0
C847 C 0.40818 0.83056 0.15141 0.0
C848 C 0.41903 0.81681 0.13162 0.0
C849 C 0.44008 0.81581 0.12185 0.0
C850 C 0.45805 0.84241 0.11921 0.0
C851 C 0.47797 0.84139 0.11004 0.0
C852 C 0.48002 0.81392 0.10341 0.0
C853 C 0.46212 0.78743 0.10592 0.0
C854 C 0.44218 0.78832 0.11508 0.0
C855 C 0.27814 0.79423 0.13777 0.0
C856 C 0.27693 0.76141 0.13605 0.0
C857 C 0.30705 0.81017 0.13811 0.0
C858 C 0.33506 0.79347 0.13659 0.0
C859 C 0.33354 0.76096 0.1343 0.0
C860 C 0.30484 0.74506 0.13414 0.0
C861 C 0.36642 0.80859 0.13852 0.0
C862 C 0.3875 0.80732 0.12967 0.0
C863 C 0.37668 0.82128 0.14941 0.0
C864 C 0.35567 0.82305 0.15913 0.0
C865 C 0.3436 0.7954 0.16388 0.0
C866 C 0.32341 0.79734 0.17294 0.0
C867 C 0.31535 0.82679 0.17738 0.0
C868 C 0.32755 0.85436 0.17277 0.0
C869 C 0.34772 0.85254 0.1637 0.0
H870 H 0.29971 0.82825 0.18439 0.0
H871 H 0.49546 0.81317 0.09632 0.0
H872 H 0.41831 0.25452 0.81824 0.0
H873 H 0.36481 0.24582 0.82405 0.0
H874 H 0.38507 0.30123 0.8549 0.0
H875 H 0.43888 0.31032 0.84908 0.0
H876 H 0.3469 0.2455 0.85818 0.0
H877 H 0.34619 0.34001 0.83315 0.0
H878 H 0.36127 0.36573 0.81518 0.0
H879 H 0.31485 0.29226 0.795 0.0
H880 H 0.2986 0.26681 0.81281 0.0
H881 H 0.18926 0.31963 0.86282 0.0
H882 H 0.24073 0.31909 0.85447 0.0
H883 H 0.23193 0.21892 0.84835 0.0
H884 H 0.17979 0.21951 0.85643 0.0
H885 H 0.26377 0.29425 0.83209 0.0
H886 H 0.30685 0.19241 0.8606 0.0
H887 H 0.29349 0.16495 0.87843 0.0
H888 H 0.25722 0.25137 0.89184 0.0
H889 H 0.27083 0.27938 0.87418 0.0
C890 C 0.41149 0.26471 0.82631 0.0
C891 C 0.43269 0.28356 0.83311 0.0
C892 C 0.38093 0.25962 0.82962 0.0
C893 C 0.37085 0.27327 0.83981 0.0
C894 C 0.39242 0.29053 0.84699 0.0
C895 C 0.42314 0.29565 0.84367 0.0
C896 C 0.33719 0.27155 0.84244 0.0
C897 C 0.32873 0.25604 0.85247 0.0
C898 C 0.31343 0.28513 0.83496 0.0
C899 C 0.32117 0.30163 0.82427 0.0
C900 C 0.3389 0.32963 0.82485 0.0
C901 C 0.34755 0.3442 0.8147 0.0
C902 C 0.33877 0.3308 0.80394 0.0
C903 C 0.32117 0.30292 0.80331 0.0
C904 C 0.31204 0.28854 0.81343 0.0
C905 C 0.19794 0.29766 0.85941 0.0
C906 C 0.18065 0.26961 0.86026 0.0
C907 C 0.22727 0.2974 0.85463 0.0
C908 C 0.24017 0.26895 0.8509 0.0
C909 C 0.22231 0.2411 0.8512 0.0
C910 C 0.19256 0.24148 0.85577 0.0
C911 C 0.27345 0.26823 0.84785 0.0
C912 C 0.28187 0.28337 0.83774 0.0
C913 C 0.29712 0.25419 0.85525 0.0
C914 C 0.2895 0.23785 0.86602 0.0
C915 C 0.29612 0.20554 0.86738 0.0
C916 C 0.28851 0.18989 0.87745 0.0
C917 C 0.2744 0.20638 0.88624 0.0
C918 C 0.26803 0.23859 0.88501 0.0
C919 C 0.27565 0.25435 0.87496 0.0
H920 H 0.26849 0.19421 0.89403 0.0
H921 H 0.34571 0.34194 0.79609 0.0
H922 H 0.21071 0.75884 0.34999 0.0
H923 H 0.26423 0.74444 0.35647 0.0
H924 H 0.28425 0.84178 0.36547 0.0
H925 H 0.23089 0.85643 0.3582 0.0
H926 H 0.33046 0.82216 0.35561 0.0
H927 H 0.27865 0.7792 0.38655 0.0
H928 H 0.23893 0.75004 0.3969 0.0
H929 H 0.26714 0.66338 0.3812 0.0
H930 H 0.30673 0.69205 0.37061 0.0
H931 H 0.48186 0.76065 0.37642 0.0
H932 H 0.42924 0.78302 0.37758 0.0
H933 H 0.39062 0.70774 0.35596 0.0
H934 H 0.44314 0.68569 0.35444 0.0
H935 H 0.35649 0.72276 0.37661 0.0
H936 H 0.40358 0.77496 0.34352 0.0
H937 H 0.44649 0.8066 0.33599 0.0
H938 H 0.42935 0.88049 0.36032 0.0
H939 H 0.38647 0.84913 0.36804 0.0
C940 C 0.22639 0.77702 0.35357 0.0
C941 C 0.2167 0.80865 0.35372 0.0
C942 C 0.257 0.76879 0.35735 0.0
C943 C 0.27836 0.79185 0.36174 0.0
C944 C 0.26833 0.82347 0.36217 0.0
C945 C 0.23785 0.83184 0.35809 0.0
C946 C 0.31164 0.78303 0.36495 0.0
C947 C 0.336 0.8008 0.36045 0.0
C948 C 0.31939 0.75536 0.37139 0.0
C949 C 0.29559 0.73786 0.37773 0.0
C950 C 0.27626 0.75396 0.38524 0.0
C951 C 0.25377 0.7375 0.39116 0.0
C952 C 0.25048 0.70489 0.3897 0.0
C953 C 0.26972 0.68865 0.38233 0.0
C954 C 0.29223 0.70499 0.37638 0.0
C955 C 0.46233 0.74899 0.3718 0.0
C956 C 0.46695 0.7217 0.36512 0.0
C957 C 0.4322 0.76168 0.37257 0.0
C958 C 0.40615 0.74704 0.36683 0.0
C959 C 0.41048 0.71931 0.36048 0.0
C960 C 0.44058 0.70684 0.35958 0.0
C961 C 0.3744 0.76118 0.36687 0.0
C962 C 0.35057 0.74443 0.37201 0.0
C963 C 0.36729 0.7903 0.36142 0.0
C964 C 0.39199 0.80967 0.35639 0.0
C965 C 0.40899 0.79795 0.34725 0.0
C966 C 0.4333 0.81582 0.34296 0.0
C967 C 0.44067 0.84551 0.34768 0.0
C968 C 0.4236 0.85749 0.35666 0.0
C969 C 0.39926 0.83972 0.36098 0.0
H970 H 0.45959 0.85925 0.34438 0.0
H971 H 0.23306 0.69219 0.39429 0.0
H972 H 0.67346 0.90093 0.57054 0.0
H973 H 0.66837 0.95574 0.5769 0.0
H974 H 0.75555 0.94753 0.59765 0.0
H975 H 0.76082 0.89279 0.59131 0.0
H976 H 0.71215 0.9745 0.60962 0.0
H977 H 0.74881 0.98673 0.5715 0.0
H978 H 0.74863 0.98177 0.55028 0.0
H979 H 0.66095 0.03182 0.54672 0.0
H980 H 0.66013 0.03638 0.56794 0.0
H981 H 0.7469 0.13288 0.62279 0.0
H982 H 0.74862 0.08028 0.61405 0.0
H983 H 0.6564 0.09505 0.59744 0.0
H984 H 0.65431 0.14743 0.60656 0.0
H985 H 0.69858 0.06556 0.58295 0.0
H986 H 0.66148 0.0526 0.62084 0.0
H987 H 0.66238 0.05958 0.642 0.0
H988 H 0.75158 0.0123 0.64568 0.0
H989 H 0.75145 0.00545 0.62451 0.0
C990 C 0.69169 0.91087 0.57639 0.0
C991 C 0.71758 0.89244 0.58042 0.0
C992 C 0.68876 0.94225 0.58 0.0
C993 C 0.71176 0.95592 0.58764 0.0
C994 C 0.73749 0.9375 0.59174 0.0
C995 C 0.74039 0.90614 0.58817 0.0
C996 C 0.70859 0.989 0.59177 0.0
C997 C 0.70957 0.99439 0.60376 0.0
C998 C 0.70413 0.01496 0.58413 0.0
C999 C 0.70415 0.0114 0.57135 0.0
C1000 C 0.72921 0.99623 0.56622 0.0
C1001 C 0.72933 0.99357 0.55418 0.0
C1002 C 0.70471 0.0063 0.54716 0.0
C1003 C 0.67992 0.0218 0.55217 0.0
C1004 C 0.67959 0.02437 0.5642 0.0
C1005 C 0.72712 0.12499 0.61718 0.0
C1006 C 0.70071 0.14444 0.6151 0.0
C1007 C 0.72812 0.09498 0.61221 0.0
C1008 C 0.70258 0.08371 0.60514 0.0
C1009 C 0.67647 0.10341 0.60279 0.0
C1010 C 0.67543 0.13345 0.60784 0.0
C1011 C 0.70275 0.05081 0.60072 0.0
C1012 C 0.70103 0.04551 0.58874 0.0
C1013 C 0.70649 0.02484 0.60833 0.0
C1014 C 0.70658 0.02877 0.62107 0.0
C1015 C 0.68141 0.04391 0.62615 0.0
C1016 C 0.68176 0.04781 0.63815 0.0
C1017 C 0.70705 0.03645 0.64518 0.0
C1018 C 0.73202 0.02111 0.64022 0.0
C1019 C 0.73181 0.01719 0.62822 0.0
H1020 H 0.70728 0.03948 0.65447 0.0
H1021 H 0.70488 0.00422 0.53785 0.0
H1022 H 0.20007 0.05746 0.07629 0.0
H1023 H 0.19787 0.00454 0.08432 0.0
H1024 H 0.22688 0.04088 0.11812 0.0
H1025 H 0.22939 0.09456 0.11005 0.0
H1026 H 0.25766 0.98103 0.11099 0.0
H1027 H 0.15576 0.02582 0.11508 0.0
H1028 H 0.10781 0.05503 0.10867 0.0
H1029 H 0.08724 0.9861 0.082 0.0
H1030 H 0.13537 0.95673 0.08813 0.0
H1031 H 0.21073 0.83248 0.13504 0.0
H1032 H 0.22086 0.88835 0.1313 0.0
H1033 H 0.1748 0.87855 0.09723 0.0
H1034 H 0.16455 0.82279 0.10105 0.0
H1035 H 0.15346 0.92817 0.10762 0.0
H1036 H 0.25714 0.88567 0.10237 0.0
H1037 H 0.30532 0.85626 0.10842 0.0
H1038 H 0.32285 0.91997 0.137 0.0
H1039 H 0.27452 0.94953 0.13122 0.0
C1040 C 0.20649 0.05426 0.0854 0.0
C1041 C 0.21513 0.0802 0.09252 0.0
C1042 C 0.20506 0.02399 0.08998 0.0
C1043 C 0.21215 0.01885 0.1018 0.0
C1044 C 0.22141 0.04445 0.10896 0.0
C1045 C 0.22261 0.07503 0.10437 0.0
C1046 C 0.20818 0.98672 0.10652 0.0
C1047 C 0.23484 0.96955 0.11049 0.0
C1048 C 0.17845 0.97174 0.10568 0.0
C1049 C 0.14931 0.98919 0.10202 0.0
C1050 C 0.14115 0.01702 0.10779 0.0
C1051 C 0.11391 0.03359 0.10422 0.0
C1052 C 0.09452 0.02246 0.09492 0.0
C1053 C 0.10229 0.9947 0.08919 0.0
C1054 C 0.12953 0.97806 0.09272 0.0
C1055 C 0.20383 0.84208 0.12663 0.0
C1056 C 0.18773 0.82327 0.11821 0.0
C1057 C 0.20932 0.87405 0.12453 0.0
C1058 C 0.19896 0.88762 0.11392 0.0
C1059 C 0.18307 0.86863 0.10547 0.0
C1060 C 0.17732 0.8368 0.10763 0.0
C1061 C 0.20309 0.92189 0.11175 0.0
C1062 C 0.17632 0.93957 0.10827 0.0
C1063 C 0.23274 0.93716 0.11304 0.0
C1064 C 0.26205 0.91966 0.11642 0.0
C1065 C 0.27117 0.89331 0.10999 0.0
C1066 C 0.29853 0.87664 0.11336 0.0
C1067 C 0.31715 0.88627 0.12308 0.0
C1068 C 0.30843 0.91258 0.12946 0.0
C1069 C 0.28107 0.92931 0.12614 0.0
H1070 H 0.33831 0.87332 0.12568 0.0
H1071 H 0.07344 0.03532 0.09217 0.0
H1072 H 0.51249 0.07119 0.38778 0.0
H1073 H 0.50584 0.0196 0.37807 0.0
H1074 H 0.591 0.98651 0.39621 0.0
H1075 H 0.59801 0.03777 0.40557 0.0
H1076 H 0.58713 0.96279 0.37521 0.0
H1077 H 0.51598 0.97569 0.40653 0.0
H1078 H 0.47218 1.0011 0.41604 0.0
H1079 H 0.40996 0.98108 0.38635 0.0
H1080 H 0.45355 0.95587 0.37661 0.0
H1081 H 0.58053 0.81003 0.39517 0.0
H1082 H 0.57324 0.86704 0.39422 0.0
H1083 H 0.5054 0.85575 0.36534 0.0
H1084 H 0.51352 0.79825 0.36593 0.0
H1085 H 0.49214 0.90344 0.38534 0.0
H1086 H 0.56486 0.8765 0.35698 0.0
H1087 H 0.60999 0.84712 0.35007 0.0
H1088 H 0.67143 0.89217 0.37588 0.0
H1089 H 0.6264 0.9209 0.38327 0.0
C1090 C 0.53013 0.05307 0.38943 0.0
C1091 C 0.55553 0.05825 0.39753 0.0
C1092 C 0.52621 0.02358 0.38396 0.0
C1093 C 0.54765 0.99896 0.38656 0.0
C1094 C 0.57409 0.00501 0.39406 0.0
C1095 C 0.57798 0.03427 0.39948 0.0
C1096 C 0.54179 0.96604 0.38245 0.0
C1097 C 0.5662 0.94992 0.3773 0.0
C1098 C 0.51419 0.94926 0.38494 0.0
C1099 C 0.48806 0.96435 0.39079 0.0
C1100 C 0.493 0.97694 0.402 0.0
C1101 C 0.46822 0.99126 0.40744 0.0
C1102 C 0.43833 0.99281 0.40178 0.0
C1103 C 0.43314 0.97995 0.3907 0.0
C1104 C 0.45787 0.96566 0.38522 0.0
C1105 C 0.56398 0.81955 0.38862 0.0
C1106 C 0.54788 0.79966 0.38054 0.0
C1107 C 0.55972 0.85212 0.38814 0.0
C1108 C 0.53907 0.8655 0.37964 0.0
C1109 C 0.52148 0.84574 0.37195 0.0
C1110 C 0.52605 0.81296 0.37233 0.0
C1111 C 0.53798 0.90028 0.37857 0.0
C1112 C 0.51244 0.91662 0.38279 0.0
C1113 C 0.56473 0.91721 0.37539 0.0
C1114 C 0.59214 0.90078 0.37072 0.0
C1115 C 0.58794 0.87999 0.36125 0.0
C1116 C 0.61353 0.86343 0.35724 0.0
C1117 C 0.64361 0.86786 0.3625 0.0
C1118 C 0.64812 0.8888 0.3718 0.0
C1119 C 0.62255 0.9052 0.37592 0.0
H1120 H 0.66343 0.85509 0.35937 0.0
H1121 H 0.41917 0.0039 0.406 0.0
H1122 H 0.10666 0.88322 0.91508 0.0
H1123 H 0.11144 0.93882 0.90934 0.0
H1124 H 0.01318 0.95328 0.91473 0.0
H1125 H 0.00846 0.89806 0.92072 0.0
H1126 H 0.03795 0.97351 0.89193 0.0
H1127 H 0.05644 0.98412 0.93386 0.0
H1128 H 0.08434 0.97219 0.95262 0.0
H1129 H 0.17175 1.00102 0.93924 0.0
H1130 H 0.14442 0.01232 0.92031 0.0
H1131 H 0.01458 0.133 0.88384 0.0
H1132 H 0.01562 0.08175 0.89344 0.0
H1133 H 0.11679 0.08732 0.89821 0.0
H1134 H 0.11549 0.13973 0.88905 0.0
H1135 H 0.09465 0.05578 0.91562 0.0
H1136 H 0.0803 0.04812 0.87466 0.0
H1137 H 0.05641 0.05965 0.85521 0.0
H1138 H 0.96803 0.02253 0.865 0.0
H1139 H 0.99128 0.0112 0.88457 0.0
C1140 C 0.08612 0.89832 0.91501 0.0
C1141 C 0.05717 0.8864 0.91831 0.0
C1142 C 0.08893 0.93003 0.91182 0.0
C1143 C 0.0627 0.95012 0.91168 0.0
C1144 C 0.03371 0.93816 0.91484 0.0
C1145 C 0.03105 0.90668 0.91825 0.0
C1146 C 0.06499 0.98332 0.90781 0.0
C1147 C 0.0501 0.9916 0.89714 0.0
C1148 C 0.08196 0.00652 0.9144 0.0
C1149 C 0.09843 0.999 0.92568 0.0
C1150 C 0.08165 0.9876 0.93489 0.0
C1151 C 0.09736 0.98097 0.94556 0.0
C1152 C 0.1298 0.98582 0.94712 0.0
C1153 C 0.14662 0.99726 0.93802 0.0
C1154 C 0.13103 0.00379 0.92733 0.0
C1155 C 0.03694 0.12361 0.88722 0.0
C1156 C 0.06496 0.14005 0.88566 0.0
C1157 C 0.03758 0.09421 0.89261 0.0
C1158 C 0.06638 0.08006 0.89617 0.0
C1159 C 0.0943 0.09753 0.8954 0.0
C1160 C 0.09358 0.12744 0.8902 0.0
C1161 C 0.06715 0.04629 0.89977 0.0
C1162 C 0.08271 0.03777 0.91034 0.0
C1163 C 0.05152 0.02254 0.89291 0.0
C1164 C 0.03748 0.02905 0.88111 0.0
C1165 C 0.05572 0.04259 0.87269 0.0
C1166 C 0.0423 0.04908 0.86164 0.0
C1167 C 0.01071 0.04189 0.85888 0.0
C1168 C 0.99249 0.02811 0.86715 0.0
C1169 C 0.00579 0.02163 0.87822 0.0
H1170 H 1.00036 0.04693 0.85032 0.0
H1171 H 0.1419 0.98075 0.95539 0.0
H1172 H 0.14831 0.22911 0.99489 0.0
H1173 H 0.13247 0.21635 0.97486 0.0
H1174 H 0.11782 0.11922 0.98417 0.0
H1175 H 0.1328 0.13195 0.00443 0.0
H1176 H 0.15168 0.12672 0.96405 0.0
H1177 H 0.05481 0.15865 0.9781 0.0
H1178 H 0.01905 0.1916 0.98901 0.0
H1179 H 0.03739 0.27093 0.96743 0.0
H1180 H 0.07364 0.23863 0.95651 0.0
H1181 H 0.0616 0.18449 0.90539 0.0
H1182 H 0.06075 0.1574 0.92408 0.0
H1183 H 0.15818 0.18231 0.93155 0.0
H1184 H 0.15916 0.20876 0.91295 0.0
H1185 H 0.06816 0.19031 0.94348 0.0
H1186 H 0.19407 0.13292 0.95109 0.0
H1187 H 0.22957 0.10018 0.94007 0.0
H1188 H 0.15168 0.06951 0.91759 0.0
H1189 H 0.1153 0.10074 0.92881 0.0
C1190 C 0.14128 0.20511 0.99276 0.0
C1191 C 0.14158 0.18165 0.00132 0.0
C1192 C 0.13237 0.19782 0.98129 0.0
C1193 C 0.12362 0.16693 0.97808 0.0
C1194 C 0.12442 0.14321 0.9865 0.0
C1195 C 0.13314 0.15054 0.99805 0.0
C1196 C 0.11412 0.15999 0.96583 0.0
C1197 C 0.13322 0.14021 0.95949 0.0
C1198 C 0.08912 0.17663 0.96005 0.0
C1199 C 0.067 0.19617 0.96649 0.0
C1200 C 0.05134 0.18316 0.97571 0.0
C1201 C 0.03097 0.20173 0.9819 0.0
C1202 C 0.02595 0.23334 0.97891 0.0
C1203 C 0.04126 0.24643 0.96972 0.0
C1204 C 0.06168 0.22797 0.96351 0.0
C1205 C 0.08311 0.183 0.91085 0.0
C1206 C 0.11044 0.19869 0.90779 0.0
C1207 C 0.08257 0.16769 0.92153 0.0
C1208 C 0.10942 0.16773 0.9292 0.0
C1209 C 0.13732 0.18146 0.92572 0.0
C1210 C 0.1378 0.19684 0.91513 0.0
C1211 C 0.10737 0.15897 0.94151 0.0
C1212 C 0.08602 0.17585 0.94794 0.0
C1213 C 0.13019 0.13945 0.94733 0.0
C1214 C 0.15184 0.11937 0.94083 0.0
C1215 C 0.18431 0.11879 0.94393 0.0
C1216 C 0.20462 0.10042 0.93764 0.0
C1217 C 0.19284 0.08263 0.92817 0.0
C1218 C 0.16069 0.08307 0.92499 0.0
C1219 C 0.1402 0.10105 0.93133 0.0
H1220 H 0.20862 0.06859 0.92327 0.0
H1221 H 0.01019 0.24768 0.98372 0.0
H1222 H 0.07625 0.75298 0.26117 0.0
H1223 H 0.08508 0.73751 0.24122 0.0
H1224 H 0.12628 0.82861 0.23525 0.0
H1225 H 0.11773 0.84416 0.25529 0.0
H1226 H 0.0796 0.80689 0.21764 0.0
H1227 H 0.17412 0.77205 0.23876 0.0
H1228 H 0.20417 0.74376 0.25436 0.0
H1229 H 0.16284 0.656 0.2426 0.0
H1230 H 0.13215 0.68386 0.22702 0.0
H1231 H 0.14667 0.77403 0.16424 0.0
H1232 H 0.13072 0.79062 0.18319 0.0
H1233 H 0.12232 0.69283 0.19314 0.0
H1234 H 0.14143 0.67652 0.17451 0.0
H1235 H 0.15148 0.7188 0.20919 0.0
H1236 H 0.05482 0.75214 0.18866 0.0
H1237 H 0.02066 0.78007 0.17412 0.0
H1238 H 0.06234 0.86856 0.18479 0.0
H1239 H 0.09646 0.84122 0.19953 0.0
C1240 C 0.08705 0.76974 0.25558 0.0
C1241 C 0.09628 0.79977 0.25972 0.0
C1242 C 0.0922 0.76084 0.24424 0.0
C1243 C 0.1064 0.78191 0.23683 0.0
C1244 C 0.11529 0.81207 0.24088 0.0
C1245 C 0.11056 0.82084 0.2523 0.0
C1246 C 0.11198 0.7723 0.22485 0.0
C1247 C 0.09552 0.78783 0.21571 0.0
C1248 C 0.13206 0.74689 0.22246 0.0
C1249 C 0.15059 0.73009 0.2318 0.0
C1250 C 0.17121 0.74676 0.23956 0.0
C1251 C 0.18841 0.73079 0.24839 0.0
C1252 C 0.18535 0.69811 0.2495 0.0
C1253 C 0.16515 0.68132 0.24175 0.0
C1254 C 0.14787 0.69718 0.23291 0.0
C1255 C 0.14076 0.75616 0.17043 0.0
C1256 C 0.14514 0.72406 0.16799 0.0
C1257 C 0.13133 0.76562 0.18126 0.0
C1258 C 0.12477 0.74307 0.18968 0.0
C1259 C 0.12739 0.71081 0.18689 0.0
C1260 C 0.13805 0.70141 0.17623 0.0
C1261 C 0.11854 0.75294 0.20171 0.0
C1262 C 0.13514 0.73761 0.21095 0.0
C1263 C 0.0982 0.7783 0.20419 0.0
C1264 C 0.07838 0.79459 0.19511 0.0
C1265 C 0.0569 0.77752 0.18783 0.0
C1266 C 0.03752 0.79327 0.17956 0.0
C1267 C 0.03955 0.82604 0.17844 0.0
C1268 C 0.06086 0.84318 0.18564 0.0
C1269 C 0.08011 0.82759 0.19399 0.0
H1270 H 0.0245 0.83825 0.17207 0.0
H1271 H 0.19869 0.68579 0.25633 0.0
H1272 H 0.68426 0.66401 0.50096 0.0
H1273 H 0.66853 0.65632 0.48047 0.0
H1274 H 0.71735 0.74178 0.47213 0.0
H1275 H 0.73327 0.74952 0.49257 0.0
H1276 H 0.65847 0.74116 0.46266 0.0
H1277 H 0.74589 0.66908 0.46538 0.0
H1278 H 0.77683 0.62405 0.47329 0.0
H1279 H 0.6998 0.56139 0.46436 0.0
H1280 H 0.66822 0.60614 0.45655 0.0
H1281 H 0.65271 0.73759 0.40299 0.0
H1282 H 0.67505 0.73249 0.42275 0.0
H1283 H 0.61782 0.65004 0.42753 0.0
H1284 H 0.59555 0.65484 0.40754 0.0
H1285 H 0.67823 0.64606 0.43898 0.0
H1286 H 0.59116 0.71794 0.43608 0.0
H1287 H 0.56068 0.76273 0.42774 0.0
H1288 H 0.63713 0.82567 0.43714 0.0
H1289 H 0.6683 0.78114 0.44536 0.0
C1290 C 0.6921 0.68086 0.49473 0.0
C1291 C 0.70989 0.70748 0.49839 0.0
C1292 C 0.68308 0.67644 0.48303 0.0
C1293 C 0.69187 0.69842 0.47477 0.0
C1294 C 0.71021 0.72459 0.47837 0.0
C1295 C 0.71918 0.72906 0.49005 0.0
C1296 C 0.68043 0.69536 0.46247 0.0
C1297 C 0.66316 0.72051 0.45746 0.0
C1298 C 0.68561 0.66795 0.4558 0.0
C1299 C 0.70456 0.64103 0.4605 0.0
C1300 C 0.73544 0.64575 0.4652 0.0
C1301 C 0.75312 0.62026 0.46965 0.0
C1302 C 0.74026 0.5899 0.46936 0.0
C1303 C 0.70971 0.58494 0.4646 0.0
C1304 C 0.69192 0.61035 0.46015 0.0
C1305 C 0.64515 0.7181 0.40818 0.0
C1306 C 0.62197 0.69691 0.40381 0.0
C1307 C 0.658 0.71519 0.41946 0.0
C1308 C 0.64756 0.69132 0.42667 0.0
C1309 C 0.62604 0.66873 0.4221 0.0
C1310 C 0.61333 0.67149 0.41071 0.0
C1311 C 0.65698 0.69215 0.43918 0.0
C1312 C 0.67357 0.6666 0.44423 0.0
C1313 C 0.65113 0.71917 0.44595 0.0
C1314 C 0.63216 0.74615 0.44126 0.0
C1315 C 0.60154 0.7413 0.43631 0.0
C1316 C 0.58414 0.76665 0.43161 0.0
C1317 C 0.59699 0.79702 0.43189 0.0
C1318 C 0.62722 0.80212 0.43692 0.0
C1319 C 0.64476 0.77685 0.44161 0.0
H1320 H 0.5835 0.8166 0.42822 0.0
H1321 H 0.75399 0.57019 0.4728 0.0
H1322 H 0.54098 0.27186 0.74648 0.0
H1323 H 0.54178 0.26182 0.7257 0.0
H1324 H 0.60319 0.34176 0.72221 0.0
H1325 H 0.60217 0.35228 0.74303 0.0
H1326 H 0.55533 0.33494 0.70366 0.0
H1327 H 0.63568 0.27342 0.72489 0.0
H1328 H 0.65459 0.23566 0.73991 0.0
H1329 H 0.59277 0.16447 0.72492 0.0
H1330 H 0.57317 0.20201 0.70991 0.0
H1331 H 0.64039 0.30027 0.65441 0.0
H1332 H 0.61512 0.31583 0.67191 0.0
H1333 H 0.57982 0.22079 0.67524 0.0
H1334 H 0.60786 0.20479 0.65831 0.0
H1335 H 0.60707 0.23437 0.69377 0.0
H1336 H 0.53198 0.29352 0.67057 0.0
H1337 H 0.51289 0.33143 0.65553 0.0
H1338 H 0.56214 0.40652 0.67376 0.0
H1339 H 0.58201 0.36914 0.68875 0.0
C1340 C 0.55416 0.28771 0.74126 0.0
C1341 C 0.57167 0.31278 0.7464 0.0
C1342 C 0.55464 0.28187 0.7294 0.0
C1343 C 0.57264 0.30097 0.72246 0.0
C1344 C 0.58909 0.32682 0.72744 0.0
C1345 C 0.58876 0.33259 0.73934 0.0
C1346 C 0.57674 0.29219 0.71026 0.0
C1347 C 0.56671 0.31304 0.70141 0.0
C1348 C 0.59078 0.26322 0.70739 0.0
C1349 C 0.60271 0.24061 0.71637 0.0
C1350 C 0.62594 0.2498 0.72486 0.0
C1351 C 0.63681 0.22842 0.73336 0.0
C1352 C 0.62482 0.19771 0.73339 0.0
C1353 C 0.60199 0.18828 0.7249 0.0
C1354 C 0.591 0.20959 0.71639 0.0
C1355 C 0.62643 0.28304 0.65873 0.0
C1356 C 0.62599 0.25141 0.65513 0.0
C1357 C 0.61171 0.29196 0.6687 0.0
C1358 C 0.59529 0.26958 0.67498 0.0
C1359 C 0.59254 0.23851 0.67067 0.0
C1360 C 0.60833 0.22935 0.66097 0.0
C1361 C 0.58562 0.27708 0.68685 0.0
C1362 C 0.5949 0.25602 0.69578 0.0
C1363 C 0.57067 0.3058 0.68971 0.0
C1364 C 0.5586 0.32843 0.68074 0.0
C1365 C 0.53886 0.31808 0.67131 0.0
C1366 C 0.5279 0.33944 0.66281 0.0
C1367 C 0.53629 0.37127 0.6637 0.0
C1368 C 0.55565 0.38185 0.67309 0.0
C1369 C 0.56675 0.36058 0.68159 0.0
H1370 H 0.52778 0.38775 0.65711 0.0
H1371 H 0.63327 0.18119 0.73997 0.0
H1372 H 0.03122 0.73433 0.0044 0.0
H1373 H 0.04238 0.72993 0.02529 0.0
H1374 H 0.12047 0.6681 0.01958 0.0
H1375 H 0.10925 0.67222 0.99863 0.0
H1376 H 0.08858 0.64917 0.03824 0.0
H1377 H 0.13392 0.74474 0.02472 0.0
H1378 H 0.1342 0.79547 0.01434 0.0
H1379 H 0.06438 0.83214 0.03605 0.0
H1380 H 0.06334 0.78144 0.04645 0.0
H1381 H 0.16795 0.68029 0.09424 0.0
H1382 H 0.15248 0.67083 0.07376 0.0
H1383 H 0.07442 0.73501 0.07622 0.0
H1384 H 0.09 0.74477 0.09653 0.0
H1385 H 0.10872 0.7506 0.05894 0.0
H1386 H 0.06535 0.65415 0.0731 0.0
H1387 H 0.06672 0.60327 0.08339 0.0
H1388 H 0.13465 0.56786 0.06067 0.0
H1389 H 0.13428 0.61874 0.0504 0.0
C1390 C 0.05071 0.71972 0.0076 0.0
C1391 C 0.0696 0.70394 -0.00012 0.0
C1392 C 0.057 0.71713 0.01952 0.0
C1393 C 0.08257 0.69906 0.02398 0.0
C1394 C 0.10064 0.68215 0.01632 0.0
C1395 C 0.09422 0.68457 0.00436 0.0
C1396 C 0.09159 0.6997 0.03656 0.0
C1397 C 0.09332 0.67127 0.04278 0.0
C1398 C 0.09758 0.72857 0.04247 0.0
C1399 C 0.09835 0.7592 0.03629 0.0
C1400 C 0.11847 0.76355 0.02723 0.0
C1401 C 0.11878 0.7923 0.02135 0.0
C1402 C 0.09927 0.81699 0.02452 0.0
C1403 C 0.07945 0.81299 0.0336 0.0
C1404 C 0.07901 0.78426 0.03949 0.0
C1405 C 0.14712 0.69181 0.09044 0.0
C1406 C 0.13031 0.71346 0.09691 0.0
C1407 C 0.13829 0.68639 0.07875 0.0
C1408 C 0.1123 0.70227 0.07344 0.0
C1409 C 0.09468 0.72268 0.0801 0.0
C1410 C 0.10363 0.72827 0.0917 0.0
C1411 C 0.10492 0.70014 0.06077 0.0
C1412 C 0.10384 0.72841 0.05447 0.0
C1413 C 0.09978 0.67109 0.05485 0.0
C1414 C 0.10002 0.64044 0.06105 0.0
C1415 C 0.08084 0.63564 0.07037 0.0
C1416 C 0.08142 0.60676 0.07619 0.0
C1417 C 0.10081 0.58235 0.07271 0.0
C1418 C 0.1197 0.58678 0.06339 0.0
C1419 C 0.11932 0.61565 0.05756 0.0
H1420 H 0.10114 0.55998 0.0772 0.0
H1421 H 0.09954 0.83923 0.01995 0.0
H1422 H 0.7229 0.7873 0.25062 0.0
H1423 H 0.71871 0.77667 0.27124 0.0
H1424 H 0.61815 0.78851 0.26719 0.0
H1425 H 0.6217 0.79751 0.24656 0.0
H1426 H 0.6495 0.8208 0.28716 0.0
H1427 H 0.64467 0.7178 0.26738 0.0
H1428 H 0.66668 0.67612 0.25532 0.0
H1429 H 0.74799 0.66969 0.27899 0.0
H1430 H 0.72665 0.71172 0.29109 0.0
H1431 H 0.56594 0.74396 0.32839 0.0
H1432 H 0.59062 0.76559 0.31162 0.0
H1433 H 0.67944 0.7256 0.32391 0.0
H1434 H 0.65435 0.7028 0.34053 0.0
H1435 H 0.66754 0.71188 0.30173 0.0
H1436 H 0.67264 0.80571 0.32313 0.0
H1437 H 0.65602 0.84838 0.33595 0.0
H1438 H 0.58252 0.87437 0.31077 0.0
H1439 H 0.59873 0.83178 0.29781 0.0
C1440 C 0.69982 0.78739 0.25406 0.0
C1441 C 0.67263 0.79323 0.24683 0.0
C1442 C 0.69756 0.78159 0.26588 0.0
C1443 C 0.66814 0.78191 0.27071 0.0
C1444 C 0.64111 0.78848 0.26363 0.0
C1445 C 0.64326 0.79379 0.25181 0.0
C1446 C 0.66492 0.77394 0.28301 0.0
C1447 C 0.65341 0.79701 0.29038 0.0
C1448 C 0.67154 0.74333 0.28734 0.0
C1449 C 0.68427 0.71813 0.28006 0.0
C1450 C 0.66738 0.7077 0.26995 0.0
C1451 C 0.67971 0.68399 0.26312 0.0
C1452 C 0.70877 0.67034 0.26637 0.0
C1453 C 0.72552 0.68033 0.27647 0.0
C1454 C 0.71333 0.70408 0.28332 0.0
C1455 C 0.59086 0.74012 0.32754 0.0
C1456 C 0.60852 0.7223 0.33578 0.0
C1457 C 0.60502 0.7527 0.31804 0.0
C1458 C 0.63713 0.74763 0.31659 0.0
C1459 C 0.65483 0.72998 0.3249 0.0
C1460 C 0.64061 0.7173 0.33444 0.0
C1461 C 0.65098 0.75846 0.30582 0.0
C1462 C 0.66444 0.73594 0.2987 0.0
C1463 C 0.64697 0.78981 0.30182 0.0
C1464 C 0.6368 0.81541 0.30954 0.0
C1465 C 0.65279 0.82039 0.32038 0.0
C1466 C 0.64348 0.8446 0.32765 0.0
C1467 C 0.61813 0.864 0.3242 0.0
C1468 C 0.60214 0.85931 0.31344 0.0
C1469 C 0.61146 0.8352 0.3061 0.0
H1470 H 0.61092 0.88272 0.32986 0.0
H1471 H 0.71826 0.65196 0.26107 0.0
H1472 H 0.65378 0.16933 0.4958 0.0
H1473 H 0.6633 0.15916 0.51653 0.0
H1474 H 0.56753 0.1272 0.51831 0.0
H1475 H 0.55791 0.13726 0.49756 0.0
H1476 H 0.58352 0.17462 0.53367 0.0
H1477 H 0.62356 0.07533 0.52336 0.0
H1478 H 0.65493 0.03629 0.51322 0.0
H1479 H 0.74016 0.07856 0.5277 0.0
H1480 H 0.70935 0.11825 0.53776 0.0
H1481 H 0.61137 0.17725 0.59263 0.0
H1482 H 0.60083 0.14626 0.57491 0.0
H1483 H 0.69155 0.17287 0.56333 0.0
H1484 H 0.70251 0.20276 0.58127 0.0
H1485 H 0.67126 0.11562 0.5538 0.0
H1486 H 0.63011 0.22239 0.5591 0.0
H1487 H 0.59948 0.26177 0.56944 0.0
H1488 H 0.51647 0.20472 0.56401 0.0
H1489 H 0.54679 0.16479 0.55378 0.0
C1490 C 0.63488 0.15985 0.5006 0.0
C1491 C 0.60505 0.15431 0.49511 0.0
C1492 C 0.64044 0.15367 0.5124 0.0
C1493 C 0.6162 0.14211 0.51892 0.0
C1494 C 0.58662 0.13581 0.5134 0.0
C1495 C 0.58116 0.1416 0.50157 0.0
C1496 C 0.62066 0.14085 0.5317 0.0
C1497 C 0.60217 0.16102 0.53809 0.0
C1498 C 0.64532 0.12348 0.53744 0.0
C1499 C 0.66408 0.10003 0.53123 0.0
C1500 C 0.649 0.07659 0.52427 0.0
C1501 C 0.66669 0.05428 0.51855 0.0
C1502 C 0.69952 0.05505 0.51977 0.0
C1503 C 0.71472 0.07806 0.52673 0.0
C1504 C 0.69714 0.10046 0.53246 0.0
C1505 C 0.62965 0.17498 0.58655 0.0
C1506 C 0.65779 0.19201 0.58824 0.0
C1507 C 0.6236 0.15743 0.57644 0.0
C1508 C 0.64512 0.1579 0.5677 0.0
C1509 C 0.67463 0.17219 0.56996 0.0
C1510 C 0.68088 0.18929 0.58018 0.0
C1511 C 0.63467 0.14999 0.5556 0.0
C1512 C 0.65209 0.12841 0.54936 0.0
C1513 C 0.60912 0.16618 0.5499 0.0
C1514 C 0.59075 0.1905 0.5558 0.0
C1515 C 0.60535 0.21822 0.56016 0.0
C1516 C 0.58806 0.24061 0.566 0.0
C1517 C 0.55606 0.2357 0.56741 0.0
C1518 C 0.54127 0.20845 0.56294 0.0
C1519 C 0.55849 0.18593 0.55712 0.0
H1520 H 0.54271 0.25304 0.57195 0.0
H1521 H 0.71317 0.0377 0.51536 0.0
H1522 H 0.16842 0.33468 0.75106 0.0
H1523 H 0.1647 0.32102 0.77154 0.0
H1524 H 0.19318 0.22564 0.76428 0.0
H1525 H 0.19724 0.23919 0.74388 0.0
H1526 H 0.13523 0.23314 0.7759 0.0
H1527 H 0.24222 0.27038 0.77756 0.0
H1528 H 0.28311 0.31007 0.77448 0.0
H1529 H 0.24176 0.37275 0.79851 0.0
H1530 H 0.19971 0.33403 0.80135 0.0
H1531 H 0.12475 0.17785 0.83159 0.0
H1532 H 0.15023 0.18882 0.81363 0.0
H1533 H 0.15093 0.28839 0.82183 0.0
H1534 H 0.12742 0.2771 0.84013 0.0
H1535 H 0.19806 0.27735 0.80966 0.0
H1536 H 0.08848 0.25154 0.80535 0.0
H1537 H 0.04091 0.21939 0.80754 0.0
H1538 H 0.08068 0.14393 0.78831 0.0
H1539 H 0.12868 0.17552 0.78614 0.0
C1540 C 0.17412 0.3109 0.75388 0.0
C1541 C 0.18314 0.28797 0.74593 0.0
C1542 C 0.17218 0.3032 0.76555 0.0
C1543 C 0.17888 0.2724 0.76938 0.0
C1544 C 0.18814 0.24958 0.76147 0.0
C1545 C 0.19054 0.25737 0.74986 0.0
C1546 C 0.17395 0.26327 0.78144 0.0
C1547 C 0.14932 0.24233 0.78328 0.0
C1548 C 0.19163 0.2764 0.79103 0.0
C1549 C 0.21745 0.29938 0.78954 0.0
C1550 C 0.24149 0.2928 0.78206 0.0
C1551 C 0.26485 0.31519 0.78032 0.0
C1552 C 0.26493 0.34399 0.78625 0.0
C1553 C 0.24161 0.35047 0.7939 0.0
C1554 C 0.21792 0.32835 0.79553 0.0
C1555 C 0.13119 0.20193 0.82966 0.0
C1556 C 0.12389 0.22669 0.8371 0.0
C1557 C 0.14557 0.20824 0.8194 0.0
C1558 C 0.15145 0.23957 0.81616 0.0
C1559 C 0.14639 0.26406 0.82405 0.0
C1560 C 0.13289 0.25762 0.8345 0.0
C1561 C 0.15926 0.24707 0.80413 0.0
C1562 C 0.18424 0.26781 0.80228 0.0
C1563 C 0.14117 0.23474 0.79446 0.0
C1564 C 0.11229 0.21574 0.7957 0.0
C1565 C 0.08714 0.22802 0.80165 0.0
C1566 C 0.06011 0.2099 0.80289 0.0
C1567 C 0.05782 0.1796 0.7981 0.0
C1568 C 0.08252 0.16738 0.79204 0.0
C1569 C 0.10964 0.18538 0.7908 0.0
H1570 H 0.03687 0.16561 0.79906 0.0
H1571 H 0.28319 0.36118 0.78496 0.0
loop_
_geom_bond_atom_site_label_1
_geom_bond_atom_site_label_2
_geom_bond_distance
_geom_bond_site_symmetry_2
_ccdc_geom_bond_type
C0 C1 1.384 . S
C0 H13 0.947 . S
C0 C35 1.382 . S
C1 C0 1.384 . S
C1 C2 1.378 . S
C2 C1 1.378 . S
C2 C3 1.378 . S
C2 H14 0.952 . S
C3 C2 1.378 . S
C3 H15 0.950 . S
C3 C34 1.383 . S
H4 C23 0.947 . S
H5 C24 0.946 . S
H6 C26 0.953 . S
H7 C27 0.945 . S
H8 C29 0.952 . S
H9 C30 0.949 . S
H10 C32 0.950 . S
H11 C33 0.948 . S
H12 C35 0.951 . S
H13 C0 0.947 . S
H14 C2 0.952 . S
H15 C3 0.950 . S
N16 C19 1.382 . S
N16 C21 1.363 . S
N17 C19 1.371 . S
N17 C20 1.372 . S
N18 C20 1.361 . S
N18 C21 1.377 . S
C19 N16 1.382 . S
C19 N17 1.371 . S
C19 C22 1.480 . S
C20 N17 1.372 . S
C20 N18 1.361 . S
C20 C28 1.457 . S
C21 N16 1.363 . S
C21 N18 1.377 . S
C21 C34 1.479 . S
C22 C19 1.480 . S
C22 C23 1.383 . S
C22 C27 1.385 . S
C23 H4 0.947 . S
C23 C22 1.383 . S
C23 C24 1.388 . S
C24 H5 0.946 . S
C24 C23 1.388 . S
C24 C25 1.384 . S
C25 C24 1.384 . S
C25 C26 1.377 . S
C26 H6 0.953 . S
C26 C25 1.377 . S
C26 C27 1.369 . S
C27 H7 0.945 . S
C27 C22 1.385 . S
C27 C26 1.369 . S
C28 C20 1.457 . S
C28 C29 1.372 . S
C28 C33 1.364 . S
C29 H8 0.952 . S
C29 C28 1.372 . S
C29 C30 1.389 . S
C30 H9 0.949 . S
C30 C29 1.389 . S
C30 C31 1.387 . S
C31 C30 1.387 . S
C31 C32 1.372 . S
C32 H10 0.950 . S
C32 C31 1.372 . S
C32 C33 1.379 . S
C33 H11 0.948 . S
C33 C28 1.364 . S
C33 C32 1.379 . S
C34 C3 1.383 . S
C34 C21 1.479 . S
C34 C35 1.398 . S
C35 C0 1.382 . S
C35 H12 0.951 . S
C35 C34 1.398 . S
C36 C37 1.384 . S
C36 H49 0.947 . S
C36 C71 1.382 . S
C37 C36 1.384 . S
C37 C38 1.378 . S
C38 C37 1.378 . S
C38 C39 1.378 . S
C38 H50 0.952 . S
C39 C38 1.378 . S
C39 H51 0.950 . S
C39 C70 1.383 . S
H40 C59 0.947 . S
H41 C60 0.946 . S
H42 C62 0.921 1_655 S
H43 C63 0.945 . S
H44 C65 0.952 . S
H45 C66 0.949 . S
H46 C68 0.950 . S
H47 C69 0.948 . S
H48 C71 0.951 . S
H49 C36 0.947 . S
H50 C38 0.952 . S
H51 C39 0.950 . S
N52 C55 1.382 . S
N52 C57 1.363 . S
N53 C55 1.371 . S
N53 C56 1.372 . S
N54 C56 1.361 . S
N54 C57 1.377 . S
C55 N52 1.382 . S
C55 N53 1.371 . S
C55 C58 1.480 . S
C56 N53 1.372 . S
C56 N54 1.361 . S
C56 C64 1.457 . S
C57 N52 1.363 . S
C57 N54 1.377 . S
C57 C70 1.479 . S
C58 C55 1.480 . S
C58 C59 1.383 . S
C58 C63 1.385 . S
C59 H40 0.947 . S
C59 C58 1.383 . S
C59 C60 1.388 . S
C60 H41 0.946 . S
C60 C59 1.388 . S
C60 C61 1.384 . S
C61 C60 1.384 . S
C61 C62 1.376 . S
C62 H42 0.921 1_455 S
C62 C61 1.376 . S
C62 C63 1.403 . S
C63 H43 0.945 . S
C63 C58 1.385 . S
C63 C62 1.403 . S
C64 C56 1.457 . S
C64 C65 1.372 . S
C64 C69 1.364 . S
C65 H44 0.952 . S
C65 C64 1.372 . S
C65 C66 1.389 . S
C66 H45 0.949 . S
C66 C65 1.389 . S
C66 C67 1.387 . S
C67 C66 1.387 . S
C67 C68 1.372 . S
C68 H46 0.950 . S
C68 C67 1.372 . S
C68 C69 1.379 . S
C69 H47 0.948 . S
C69 C64 1.364 . S
C69 C68 1.379 . S
C70 C39 1.383 . S
C70 C57 1.479 . S
C70 C71 1.398 . S
C71 C36 1.382 . S
C71 H48 0.951 . S
C71 C70 1.398 . S
C72 C73 1.384 . S
C72 H85 0.947 . S
C72 C107 1.382 . S
C73 C72 1.384 . S
C73 C74 1.378 . S
C74 C73 1.378 . S
C74 C75 1.378 . S
C74 H86 0.952 . S
C75 C74 1.378 . S
C75 H87 0.950 . S
C75 C106 1.383 . S
H76 C95 0.947 . S
H77 C96 0.946 . S
H78 C98 0.953 . S
H79 C99 0.945 . S
H80 C101 0.952 . S
H81 C102 0.949 . S
H82 C104 0.950 . S
H83 C105 0.948 . S
H84 C107 0.951 . S
H85 C72 0.947 . S
H86 C74 0.952 . S
H87 C75 0.950 . S
N88 C91 1.382 . S
N88 C93 1.363 . S
N89 C91 1.371 . S
N89 C92 1.372 . S
N90 C92 1.361 . S
N90 C93 1.377 . S
C91 N88 1.382 . S
C91 N89 1.371 . S
C91 C94 1.480 . S
C92 N89 1.372 . S
C92 N90 1.361 . S
C92 C100 1.457 . S
C93 N88 1.363 . S
C93 N90 1.377 . S
C93 C106 1.479 . S
C94 C91 1.480 . S
C94 C95 1.383 . S
C94 C99 1.385 . S
C95 H76 0.947 . S
C95 C94 1.383 . S
C95 C96 1.388 . S
C96 H77 0.946 . S
C96 C95 1.388 . S
C96 C97 1.384 . S
C97 C96 1.384 . S
C97 C98 1.377 . S
C98 H78 0.953 . S
C98 C97 1.377 . S
C98 C99 1.369 . S
C99 H79 0.945 . S
C99 C94 1.385 . S
C99 C98 1.369 . S
C100 C92 1.457 . S
C100 C101 1.372 . S
C100 C105 1.364 . S
C101 H80 0.952 . S
C101 C100 1.372 . S
C101 C102 1.389 . S
C102 H81 0.949 . S
C102 C101 1.389 . S
C102 C103 1.387 . S
C103 C102 1.387 . S
C103 C104 1.372 . S
C104 H82 0.950 . S
C104 C103 1.372 . S
C104 C105 1.379 . S
C105 H83 0.948 . S
C105 C100 1.364 . S
C105 C104 1.379 . S
C106 C75 1.383 . S
C106 C93 1.479 . S
C106 C107 1.398 . S
C107 C72 1.382 . S
C107 H84 0.951 . S
C107 C106 1.398 . S
C108 C109 1.384 . S
C108 H121 0.947 . S
C108 C143 1.382 . S
C109 C108 1.384 . S
C109 C110 1.378 . S
C110 C109 1.378 . S
C110 C111 1.378 . S
C110 H122 0.952 . S
C111 C110 1.378 . S
C111 H123 0.950 . S
C111 C142 1.383 . S
H112 C131 0.947 . S
H113 C132 0.946 . S
H114 C134 0.953 . S
H115 C135 0.945 . S
H116 C137 0.952 . S
H117 C138 0.949 . S
H118 C140 0.950 . S
H119 C141 0.948 . S
H120 C143 0.951 . S
H121 C108 0.947 . S
H122 C110 0.952 . S
H123 C111 0.950 . S
N124 C127 1.382 . S
N124 C129 1.363 . S
N125 C127 1.371 . S
N125 C128 1.372 . S
N126 C128 1.361 . S
N126 C129 1.377 . S
C127 N124 1.382 . S
C127 N125 1.371 . S
C127 C130 1.480 . S
C128 N125 1.372 . S
C128 N126 1.361 . S
C128 C136 1.457 . S
C129 N124 1.363 . S
C129 N126 1.377 . S
C129 C142 1.479 . S
C130 C127 1.480 . S
C130 C131 1.383 . S
C130 C135 1.385 . S
C131 H112 0.947 . S
C131 C130 1.383 . S
C131 C132 1.388 . S
C132 H113 0.946 . S
C132 C131 1.388 . S
C132 C133 1.384 . S
C133 C132 1.384 . S
C133 C134 1.377 . S
C134 H114 0.953 . S
C134 C133 1.377 . S
C134 C135 1.369 . S
C135 H115 0.945 . S
C135 C130 1.385 . S
C135 C134 1.369 . S
C136 C128 1.457 . S
C136 C137 1.372 . S
C136 C141 1.364 . S
C137 H116 0.952 . S
C137 C136 1.372 . S
C137 C138 1.389 . S
C138 H117 0.949 . S
C138 C137 1.389 . S
C138 C139 1.387 . S
C139 C138 1.387 . S
C139 C140 1.372 . S
C140 H118 0.950 . S
C140 C139 1.372 . S
C140 C141 1.379 . S
C141 H119 0.948 . S
C141 C136 1.364 . S
C141 C140 1.379 . S
C142 C111 1.383 . S
C142 C129 1.479 . S
C142 C143 1.398 . S
C143 C108 1.382 . S
C143 H120 0.951 . S
C143 C142 1.398 . S
C144 C145 1.384 . S
C144 H157 0.947 . S
C144 C179 1.382 . S
C145 C144 1.384 . S
C145 C146 1.378 . S
C146 C145 1.378 . S
C146 C147 1.378 . S
C146 H158 0.952 . S
C147 C146 1.378 . S
C147 H159 0.950 . S
C147 C178 1.383 . S
H148 C167 0.947 . S
H149 C168 0.946 . S
H150 C170 0.953 . S
H151 C171 0.945 . S
H152 C173 0.952 . S
H153 C174 0.949 . S
H154 C176 0.950 . S
H155 C177 0.948 . S
H156 C179 0.951 . S
H157 C144 0.947 . S
H158 C146 0.952 . S
H159 C147 0.950 . S
N160 C163 1.382 . S
N160 C165 1.363 . S
N161 C163 1.371 . S
N161 C164 1.372 . S
N162 C164 1.361 . S
N162 C165 1.377 . S
C163 N160 1.382 . S
C163 N161 1.371 . S
C163 C166 1.480 . S
C164 N161 1.372 . S
C164 N162 1.361 . S
C164 C172 1.457 . S
C165 N160 1.363 . S
C165 N162 1.377 . S
C165 C178 1.479 . S
C166 C163 1.480 . S
C166 C167 1.383 . S
C166 C171 1.385 . S
C167 H148 0.947 . S
C167 C166 1.383 . S
C167 C168 1.388 . S
C168 H149 0.946 . S
C168 C167 1.388 . S
C168 C169 1.384 . S
C169 C168 1.384 . S
C169 C170 1.377 . S
C170 H150 0.953 . S
C170 C169 1.377 . S
C170 C171 1.369 . S
C171 H151 0.945 . S
C171 C166 1.385 . S
C171 C170 1.369 . S
C172 C164 1.457 . S
C172 C173 1.372 . S
C172 C177 1.364 . S
C173 H152 0.952 . S
C173 C172 1.372 . S
C173 C174 1.389 . S
C174 H153 0.949 . S
C174 C173 1.389 . S
C174 C175 1.387 . S
C175 C174 1.387 . S
C175 C176 1.372 . S
C176 H154 0.950 . S
C176 C175 1.372 . S
C176 C177 1.379 . S
C177 H155 0.948 . S
C177 C172 1.364 . S
C177 C176 1.379 . S
C178 C147 1.383 . S
C178 C165 1.479 . S
C178 C179 1.398 . S
C179 C144 1.382 . S
C179 H156 0.951 . S
C179 C178 1.398 . S
C180 C181 1.384 . S
C180 H193 0.947 . S
C180 C215 1.382 . S
C181 C180 1.384 . S
C181 C182 1.378 . S
C182 C181 1.378 . S
C182 C183 1.378 . S
C182 H194 0.952 . S
C183 C182 1.378 . S
C183 H195 0.950 . S
C183 C214 1.383 . S
H184 C203 0.947 . S
H185 C204 0.946 . S
H186 C206 0.953 . S
H187 C207 0.945 . S
H188 C209 0.952 . S
H189 C210 0.949 . S
H190 C212 0.950 . S
H191 C213 0.948 . S
H192 C215 0.951 . S
H193 C180 0.947 . S
H194 C182 0.952 . S
H195 C183 0.950 . S
N196 C199 1.382 . S
N196 C201 1.363 . S
N197 C199 1.371 . S
N197 C200 1.372 . S
N198 C200 1.361 . S
N198 C201 1.377 . S
C199 N196 1.382 . S
C199 N197 1.371 . S
C199 C202 1.480 . S
C200 N197 1.372 . S
C200 N198 1.361 . S
C200 C208 1.457 . S
C201 N196 1.363 . S
C201 N198 1.377 . S
C201 C214 1.479 . S
C202 C199 1.480 . S
C202 C203 1.383 . S
C202 C207 1.385 . S
C203 H184 0.947 . S
C203 C202 1.383 . S
C203 C204 1.388 . S
C204 H185 0.946 . S
C204 C203 1.388 . S
C204 C205 1.384 . S
C205 C204 1.384 . S
C205 C206 1.377 . S
C206 H186 0.953 . S
C206 C205 1.377 . S
C206 C207 1.369 . S
C207 H187 0.945 . S
C207 C202 1.385 . S
C207 C206 1.369 . S
C208 C200 1.457 . S
C208 C209 1.372 . S
C208 C213 1.364 . S
C209 H188 0.952 . S
C209 C208 1.372 . S
C209 C210 1.389 . S
C210 H189 0.949 . S
C210 C209 1.389 . S
C210 C211 1.387 . S
C211 C210 1.387 . S
C211 C212 1.372 . S
C212 H190 0.950 . S
C212 C211 1.372 . S
C212 C213 1.379 . S
C213 H191 0.948 . S
C213 C208 1.364 . S
C213 C212 1.379 . S
C214 C183 1.383 . S
C214 C201 1.479 . S
C214 C215 1.398 . S
C215 C180 1.382 . S
C215 H192 0.951 . S
C215 C214 1.398 . S
C216 C217 1.384 . S
C216 H229 0.947 . S
C216 C251 1.382 . S
C217 C216 1.384 . S
C217 C218 1.378 . S
C218 C217 1.378 . S
C218 C219 1.378 . S
C218 H230 0.952 . S
C219 C218 1.378 . S
C219 H231 0.950 . S
C219 C250 1.383 . S
H220 C239 0.947 . S
H221 C240 0.946 . S
H222 C242 0.953 . S
H223 C243 0.945 . S
H224 C245 0.952 . S
H225 C246 0.949 . S
H226 C248 0.950 . S
H227 C249 0.948 . S
H228 C251 0.951 . S
H229 C216 0.947 . S
H230 C218 0.952 . S
H231 C219 0.950 . S
N232 C235 1.382 . S
N232 C237 1.363 . S
N233 C235 1.371 . S
N233 C236 1.372 . S
N234 C236 1.361 . S
N234 C237 1.377 . S
C235 N232 1.382 . S
C235 N233 1.371 . S
C235 C238 1.480 . S
C236 N233 1.372 . S
C236 N234 1.361 . S
C236 C244 1.457 . S
C237 N232 1.363 . S
C237 N234 1.377 . S
C237 C250 1.479 . S
C238 C235 1.480 . S
C238 C239 1.383 . S
C238 C243 1.385 . S
C239 H220 0.947 . S
C239 C238 1.383 . S
C239 C240 1.388 . S
C240 H221 0.946 . S
C240 C239 1.388 . S
C240 C241 1.384 . S
C241 C240 1.384 . S
C241 C242 1.377 . S
C242 H222 0.953 . S
C242 C241 1.377 . S
C242 C243 1.369 . S
C243 H223 0.945 . S
C243 C238 1.385 . S
C243 C242 1.369 . S
C244 C236 1.457 . S
C244 C245 1.372 . S
C244 C249 1.364 . S
C245 H224 0.952 . S
C245 C244 1.372 . S
C245 C246 1.389 . S
C246 H225 0.949 . S
C246 C245 1.389 . S
C246 C247 1.387 . S
C247 C246 1.387 . S
C247 C248 1.372 . S
C248 H226 0.950 . S
C248 C247 1.372 . S
C248 C249 1.379 . S
C249 H227 0.948 . S
C249 C244 1.364 . S
C249 C248 1.379 . S
C250 C219 1.383 . S
C250 C237 1.479 . S
C250 C251 1.398 . S
C251 C216 1.382 . S
C251 H228 0.951 . S
C251 C250 1.398 . S
C252 C253 1.384 . S
C252 H265 0.947 . S
C252 C287 1.382 . S
C253 C252 1.384 . S
C253 C254 1.378 . S
C254 C253 1.378 . S
C254 C255 1.378 . S
C254 H266 0.952 . S
C255 C254 1.378 . S
C255 H267 0.950 . S
C255 C286 1.383 . S
H256 C275 0.947 . S
H257 C276 0.946 . S
H258 C278 0.953 . S
H259 C279 0.945 . S
H260 C281 0.952 . S
H261 C282 0.949 . S
H262 C284 0.950 . S
H263 C285 0.948 . S
H264 C287 0.951 . S
H265 C252 0.947 . S
H266 C254 0.952 . S
H267 C255 0.950 . S
N268 C271 1.382 . S
N268 C273 1.363 . S
N269 C271 1.371 . S
N269 C272 1.372 . S
N270 C272 1.361 . S
N270 C273 1.377 . S
C271 N268 1.382 . S
C271 N269 1.371 . S
C271 C274 1.480 . S
C272 N269 1.372 . S
C272 N270 1.361 . S
C272 C280 1.457 . S
C273 N268 1.363 . S
C273 N270 1.377 . S
C273 C286 1.479 . S
C274 C271 1.480 . S
C274 C275 1.383 . S
C274 C279 1.385 . S
C275 H256 0.947 . S
C275 C274 1.383 . S
C275 C276 1.388 . S
C276 H257 0.946 . S
C276 C275 1.388 . S
C276 C277 1.384 . S
C277 C276 1.384 . S
C277 C278 1.377 . S
C278 H258 0.953 . S
C278 C277 1.377 . S
C278 C279 1.369 . S
C279 H259 0.945 . S
C279 C274 1.385 . S
C279 C278 1.369 . S
C280 C272 1.457 . S
C280 C281 1.372 . S
C280 C285 1.364 . S
C281 H260 0.952 . S
C281 C280 1.372 . S
C281 C282 1.389 . S
C282 H261 0.949 . S
C282 C281 1.389 . S
C282 C283 1.387 . S
C283 C282 1.387 . S
C283 C284 1.372 . S
C284 H262 0.950 . S
C284 C283 1.372 . S
C284 C285 1.379 . S
C285 H263 0.948 . S
C285 C280 1.364 . S
C285 C284 1.379 . S
C286 C255 1.383 . S
C286 C273 1.479 . S
C286 C287 1.398 . S
C287 C252 1.382 . S
C287 H264 0.951 . S
C287 C286 1.398 . S
Zn288 O294 1.920 . S
Zn288 O300 1.898 . S
Zn288 O303 1.905 . S
Zn289 O297 1.905 . S
Zn289 O298 1.898 . S
Zn289 O306 1.920 . S
Zn290 O293 2.080 . S
Zn290 O296 2.114 . S
Zn290 O299 2.120 . S
Zn290 O301 2.120 . S
Zn290 O302 2.114 . S
Zn290 O305 2.080 . S
C291 O296 1.166 . S
C291 O297 1.182 . S
C292 O298 1.167 . S
C292 O299 1.299 . S
O293 Zn290 2.080 . S
O293 C307 1.305 . S
O294 Zn288 1.920 . S
O294 C307 1.234 . S
C295 O300 1.167 . S
C295 O301 1.299 . S
O296 Zn290 2.114 . S
O296 C291 1.166 . S
O297 Zn289 1.905 . S
O297 C291 1.182 . S
O298 Zn289 1.898 . S
O298 C292 1.167 . S
O299 Zn290 2.120 . S
O299 C292 1.299 . S
O300 Zn288 1.898 . S
O300 C295 1.167 . S
O301 Zn290 2.120 . S
O301 C295 1.299 . S
O302 Zn290 2.114 . S
O302 C304 1.166 . S
O303 Zn288 1.905 . S
O303 C304 1.182 . S
C304 O302 1.166 . S
C304 O303 1.182 . S
O305 Zn290 2.080 . S
O305 C308 1.305 . S
O306 Zn289 1.920 . S
O306 C308 1.234 . S
C307 O293 1.305 . S
C307 O294 1.234 . S
C308 O305 1.305 . S
C308 O306 1.234 . S
Zn309 O315 1.920 . S
Zn309 O321 1.898 . S
Zn309 O324 1.905 . S
Zn310 O318 1.905 . S
Zn310 O319 1.898 . S
Zn310 O327 1.920 . S
Zn311 O314 2.080 . S
Zn311 O317 2.114 . S
Zn311 O320 2.120 . S
Zn311 O322 2.120 . S
Zn311 O323 2.114 . S
Zn311 O326 2.080 . S
C312 O317 1.166 . S
C312 O318 1.182 . S
C313 O319 1.167 . S
C313 O320 1.299 . S
O314 Zn311 2.080 . S
O314 C328 1.305 . S
O315 Zn309 1.920 . S
O315 C328 1.234 . S
C316 O321 1.167 . S
C316 O322 1.299 . S
O317 Zn311 2.114 . S
O317 C312 1.166 . S
O318 Zn310 1.905 . S
O318 C312 1.182 . S
O319 Zn310 1.898 . S
O319 C313 1.167 . S
O320 Zn311 2.120 . S
O320 C313 1.299 . S
O321 Zn309 1.898 . S
O321 C316 1.167 . S
O322 Zn311 2.120 . S
O322 C316 1.299 . S
O323 Zn311 2.114 . S
O323 C325 1.166 . S
O324 Zn309 1.905 . S
O324 C325 1.182 . S
C325 O323 1.166 . S
C325 O324 1.182 . S
O326 Zn311 2.080 . S
O326 C329 1.305 . S
O327 Zn310 1.920 . S
O327 C329 1.234 . S
C328 O314 1.305 . S
C328 O315 1.234 . S
C329 O326 1.305 . S
C329 O327 1.234 . S
Zn330 O336 1.920 . S
Zn330 O342 1.898 . S
Zn330 O345 1.905 . S
Zn331 O339 1.905 . S
Zn331 O340 1.898 . S
Zn331 O348 1.920 . S
Zn332 O335 2.080 . S
Zn332 O338 2.114 . S
Zn332 O341 2.120 . S
Zn332 O343 2.120 . S
Zn332 O344 2.114 . S
Zn332 O347 2.080 . S
C333 O338 1.166 . S
C333 O339 1.182 . S
C334 O340 1.167 . S
C334 O341 1.299 . S
O335 Zn332 2.080 . S
O335 C349 1.305 . S
O336 Zn330 1.920 . S
O336 C349 1.234 . S
C337 O342 1.167 . S
C337 O343 1.299 . S
O338 Zn332 2.114 . S
O338 C333 1.166 . S
O339 Zn331 1.905 . S
O339 C333 1.182 . S
O340 Zn331 1.898 . S
O340 C334 1.167 . S
O341 Zn332 2.120 . S
O341 C334 1.299 . S
O342 Zn330 1.898 . S
O342 C337 1.167 . S
O343 Zn332 2.120 . S
O343 C337 1.299 . S
O344 Zn332 2.114 . S
O344 C346 1.166 . S
O345 Zn330 1.905 . S
O345 C346 1.182 . S
C346 O344 1.166 . S
C346 O345 1.182 . S
O347 Zn332 2.080 . S
O347 C350 1.305 . S
O348 Zn331 1.920 . S
O348 C350 1.234 . S
C349 O335 1.305 . S
C349 O336 1.234 . S
C350 O347 1.305 . S
C350 O348 1.234 . S
Zn351 O357 1.920 . S
Zn351 O363 1.898 . S
Zn351 O366 1.905 . S
Zn352 O360 1.905 . S
Zn352 O361 1.898 . S
Zn352 O369 1.920 . S
Zn353 O356 2.080 . S
Zn353 O359 2.114 . S
Zn353 O362 2.120 . S
Zn353 O364 2.120 . S
Zn353 O365 2.114 . S
Zn353 O368 2.080 . S
C354 O359 1.166 . S
C354 O360 1.182 . S
C355 O361 1.167 . S
C355 O362 1.299 . S
O356 Zn353 2.080 . S
O356 C370 1.305 . S
O357 Zn351 1.920 . S
O357 C370 1.234 . S
C358 O363 1.167 . S
C358 O364 1.299 . S
O359 Zn353 2.114 . S
O359 C354 1.166 . S
O360 Zn352 1.905 . S
O360 C354 1.182 . S
O361 Zn352 1.898 . S
O361 C355 1.167 . S
O362 Zn353 2.120 . S
O362 C355 1.299 . S
O363 Zn351 1.898 . S
O363 C358 1.167 . S
O364 Zn353 2.120 . S
O364 C358 1.299 . S
O365 Zn353 2.114 . S
O365 C367 1.166 . S
O366 Zn351 1.905 . S
O366 C367 1.182 . S
C367 O365 1.166 . S
C367 O366 1.182 . S
O368 Zn353 2.080 . S
O368 C371 1.305 . S
O369 Zn352 1.920 . S
O369 C371 1.234 . S
C370 O356 1.305 . S
C370 O357 1.234 . S
C371 O368 1.305 . S
C371 O369 1.234 . S
H372 C390 0.951 . S
H373 C392 0.951 . S
H374 C394 0.950 . S
H375 C395 0.950 . S
H376 C397 0.950 . S
H377 C400 0.950 . S
H378 C401 0.950 . S
H379 C403 0.950 . S
H380 C404 0.950 . S
H381 C405 0.951 . S
H382 C407 0.951 . S
H383 C409 0.950 . S
H384 C410 0.950 . S
H385 C412 0.950 . S
H386 C415 0.950 . S
H387 C416 0.950 . S
H388 C418 0.950 . S
H389 C419 0.950 . S
C390 H372 0.951 . S
C390 C391 1.366 . S
C390 C392 1.388 . S
C391 C390 1.366 . S
C391 C395 1.385 . S
C392 H373 0.951 . S
C392 C390 1.388 . S
C392 C393 1.366 . S
C393 C392 1.366 . S
C393 C394 1.414 . S
C393 C396 1.499 . S
C394 H374 0.950 . S
C394 C393 1.414 . S
C394 C395 1.374 . S
C395 H375 0.950 . S
C395 C391 1.385 . S
C395 C394 1.374 . S
C396 C393 1.499 . S
C396 C397 1.373 . S
C396 C398 1.389 . S
C397 H376 0.950 . S
C397 C396 1.373 . S
C397 C413 1.377 . S
C398 C396 1.389 . S
C398 C399 1.524 . S
C398 C412 1.377 . S
C399 C398 1.524 . S
C399 C400 1.397 . S
C399 C404 1.363 . S
C400 H377 0.950 . S
C400 C399 1.397 . S
C400 C401 1.334 . S
C401 H378 0.950 . S
C401 C400 1.334 . S
C401 C402 1.287 . S
C402 C401 1.287 . S
C402 C403 1.524 . S
C402 H421 0.913 . S
C403 H379 0.950 . S
C403 C402 1.524 . S
C403 C404 1.415 . S
C404 H380 0.950 . S
C404 C399 1.363 . S
C404 C403 1.415 . S
C405 H381 0.951 . S
C405 C406 1.366 . S
C405 C407 1.388 . S
C406 C405 1.366 . S
C406 C410 1.385 . S
C407 H382 0.951 . S
C407 C405 1.388 . S
C407 C408 1.366 . S
C408 C407 1.366 . S
C408 C409 1.414 . S
C408 C411 1.499 . S
C409 H383 0.950 . S
C409 C408 1.414 . S
C409 C410 1.374 . S
C410 H384 0.950 . S
C410 C406 1.385 . S
C410 C409 1.374 . S
C411 C408 1.499 . S
C411 C412 1.373 . S
C411 C413 1.389 . S
C412 H385 0.950 . S
C412 C398 1.377 . S
C412 C411 1.373 . S
C413 C397 1.377 . S
C413 C411 1.389 . S
C413 C414 1.524 . S
C414 C413 1.524 . S
C414 C415 1.397 . S
C414 C419 1.363 . S
C415 H386 0.950 . S
C415 C414 1.397 . S
C415 C416 1.334 . S
C416 H387 0.950 . S
C416 C415 1.334 . S
C416 C417 1.287 . S
C417 C416 1.287 . S
C417 C418 1.524 . S
C417 H420 0.999 . S
C418 H388 0.950 . S
C418 C417 1.524 . S
C418 C419 1.415 . S
C419 H389 0.950 . S
C419 C414 1.363 . S
C419 C418 1.415 . S
H420 C417 0.999 . S
H421 C402 0.913 . S
H422 C440 0.951 . S
H423 C442 0.951 . S
H424 C444 0.950 . S
H425 C445 0.950 . S
H426 C447 0.950 . S
H427 C450 0.950 . S
H428 C451 0.950 . S
H429 C453 0.950 . S
H430 C454 0.950 . S
H431 C455 0.951 . S
H432 C457 0.951 . S
H433 C459 0.950 . S
H434 C460 0.950 . S
H435 C462 0.950 . S
H436 C465 0.950 . S
H437 C466 0.950 . S
H438 C468 0.950 . S
H439 C469 0.950 . S
C440 H422 0.951 . S
C440 C441 1.366 . S
C440 C442 1.388 . S
C441 C440 1.366 . S
C441 C445 1.385 . S
C442 H423 0.951 . S
C442 C440 1.388 . S
C442 C443 1.366 . S
C443 C442 1.366 . S
C443 C444 1.414 . S
C443 C446 1.499 . S
C444 H424 0.950 . S
C444 C443 1.414 . S
C444 C445 1.374 . S
C445 H425 0.950 . S
C445 C441 1.385 . S
C445 C444 1.374 . S
C446 C443 1.499 . S
C446 C447 1.373 . S
C446 C448 1.389 . S
C447 H426 0.950 . S
C447 C446 1.373 . S
C447 C463 1.377 . S
C448 C446 1.389 . S
C448 C449 1.524 . S
C448 C462 1.377 . S
C449 C448 1.524 . S
C449 C450 1.397 . S
C449 C454 1.363 . S
C450 H427 0.950 . S
C450 C449 1.397 . S
C450 C451 1.334 . S
C451 H428 0.950 . S
C451 C450 1.334 . S
C451 C452 1.287 . S
C452 C451 1.287 . S
C452 C453 1.524 . S
C452 H471 0.913 . S
C453 H429 0.950 . S
C453 C452 1.524 . S
C453 C454 1.415 . S
C454 H430 0.950 . S
C454 C449 1.363 . S
C454 C453 1.415 . S
C455 H431 0.951 . S
C455 C456 1.366 . S
C455 C457 1.388 . S
C456 C455 1.366 . S
C456 C460 1.385 . S
C457 H432 0.951 . S
C457 C455 1.388 . S
C457 C458 1.366 . S
C458 C457 1.366 . S
C458 C459 1.414 . S
C458 C461 1.499 . S
C459 H433 0.950 . S
C459 C458 1.414 . S
C459 C460 1.374 . S
C460 H434 0.950 . S
C460 C456 1.385 . S
C460 C459 1.374 . S
C461 C458 1.499 . S
C461 C462 1.373 . S
C461 C463 1.389 . S
C462 H435 0.950 . S
C462 C448 1.377 . S
C462 C461 1.373 . S
C463 C447 1.377 . S
C463 C461 1.389 . S
C463 C464 1.524 . S
C464 C463 1.524 . S
C464 C465 1.397 . S
C464 C469 1.363 . S
C465 H436 0.950 . S
C465 C464 1.397 . S
C465 C466 1.334 . S
C466 H437 0.950 . S
C466 C465 1.334 . S
C466 C467 1.287 . S
C467 C466 1.287 . S
C467 C468 1.524 . S
C467 H470 0.999 . S
C468 H438 0.950 . S
C468 C467 1.524 . S
C468 C469 1.415 . S
C469 H439 0.950 . S
C469 C464 1.363 . S
C469 C468 1.415 . S
H470 C467 0.999 . S
H471 C452 0.913 . S
H472 C490 0.951 . S
H473 C492 0.951 . S
H474 C494 0.950 . S
H475 C495 0.950 . S
H476 C497 0.950 . S
H477 C500 0.950 . S
H478 C501 0.950 . S
H479 C503 0.950 . S
H480 C504 0.950 . S
H481 C505 0.951 . S
H482 C507 0.951 . S
H483 C509 0.950 . S
H484 C510 0.950 . S
H485 C512 0.950 . S
H486 C515 0.950 . S
H487 C516 0.950 . S
H488 C518 0.950 . S
H489 C519 0.950 . S
C490 H472 0.951 . S
C490 C491 1.366 . S
C490 C492 1.388 . S
C491 C490 1.366 . S
C491 C495 1.385 . S
C492 H473 0.951 . S
C492 C490 1.388 . S
C492 C493 1.366 . S
C493 C492 1.366 . S
C493 C494 1.414 . S
C493 C496 1.499 . S
C494 H474 0.950 . S
C494 C493 1.414 . S
C494 C495 1.374 . S
C495 H475 0.950 . S
C495 C491 1.385 . S
C495 C494 1.374 . S
C496 C493 1.499 . S
C496 C497 1.373 . S
C496 C498 1.389 . S
C497 H476 0.950 . S
C497 C496 1.373 . S
C497 C513 1.377 . S
C498 C496 1.389 . S
C498 C499 1.524 . S
C498 C512 1.377 . S
C499 C498 1.524 . S
C499 C500 1.397 . S
C499 C504 1.363 . S
C500 H477 0.950 . S
C500 C499 1.397 . S
C500 C501 1.334 . S
C501 H478 0.950 . S
C501 C500 1.334 . S
C501 C502 1.287 . S
C502 C501 1.287 . S
C502 C503 1.524 . S
C502 H521 0.913 . S
C503 H479 0.950 . S
C503 C502 1.524 . S
C503 C504 1.415 . S
C504 H480 0.950 . S
C504 C499 1.363 . S
C504 C503 1.415 . S
C505 H481 0.951 . S
C505 C506 1.366 . S
C505 C507 1.388 . S
C506 C505 1.366 . S
C506 C510 1.385 . S
C507 H482 0.951 . S
C507 C505 1.388 . S
C507 C508 1.366 . S
C508 C507 1.366 . S
C508 C509 1.414 . S
C508 C511 1.499 . S
C509 H483 0.950 . S
C509 C508 1.414 . S
C509 C510 1.374 . S
C510 H484 0.950 . S
C510 C506 1.385 . S
C510 C509 1.374 . S
C511 C508 1.499 . S
C511 C512 1.373 . S
C511 C513 1.389 . S
C512 H485 0.950 . S
C512 C498 1.377 . S
C512 C511 1.373 . S
C513 C497 1.377 . S
C513 C511 1.389 . S
C513 C514 1.524 . S
C514 C513 1.524 . S
C514 C515 1.397 . S
C514 C519 1.363 . S
C515 H486 0.950 . S
C515 C514 1.397 . S
C515 C516 1.334 . S
C516 H487 0.950 . S
C516 C515 1.334 . S
C516 C517 1.287 . S
C517 C516 1.287 . S
C517 C518 1.524 . S
C517 H520 0.999 . S
C518 H488 0.950 . S
C518 C517 1.524 . S
C518 C519 1.415 . S
C519 H489 0.950 . S
C519 C514 1.363 . S
C519 C518 1.415 . S
H520 C517 0.999 . S
H521 C502 0.913 . S
H522 C540 0.951 . S
H523 C542 0.951 . S
H524 C544 0.950 . S
H525 C545 0.950 . S
H526 C547 0.950 . S
H527 C550 0.950 . S
H528 C551 0.950 . S
H529 C553 0.950 . S
H530 C554 0.950 . S
H531 C555 0.951 . S
H532 C557 0.951 . S
H533 C559 0.950 . S
H534 C560 0.950 . S
H535 C562 0.950 . S
H536 C565 0.950 . S
H537 C566 0.950 . S
H538 C568 0.950 . S
H539 C569 0.950 . S
C540 H522 0.951 . S
C540 C541 1.366 . S
C540 C542 1.388 . S
C541 C540 1.366 . S
C541 C545 1.385 . S
C542 H523 0.951 . S
C542 C540 1.388 . S
C542 C543 1.366 . S
C543 C542 1.366 . S
C543 C544 1.414 . S
C543 C546 1.499 . S
C544 H524 0.950 . S
C544 C543 1.414 . S
C544 C545 1.374 . S
C545 H525 0.950 . S
C545 C541 1.385 . S
C545 C544 1.374 . S
C546 C543 1.499 . S
C546 C547 1.373 . S
C546 C548 1.389 . S
C547 H526 0.950 . S
C547 C546 1.373 . S
C547 C563 1.377 . S
C548 C546 1.389 . S
C548 C549 1.524 . S
C548 C562 1.377 . S
C549 C548 1.524 . S
C549 C550 1.397 . S
C549 C554 1.363 . S
C550 H527 0.950 . S
C550 C549 1.397 . S
C550 C551 1.334 . S
C551 H528 0.950 . S
C551 C550 1.334 . S
C551 C552 1.287 . S
C552 C551 1.287 . S
C552 C553 1.524 . S
C552 H571 0.913 . S
C553 H529 0.950 . S
C553 C552 1.524 . S
C553 C554 1.415 . S
C554 H530 0.950 . S
C554 C549 1.363 . S
C554 C553 1.415 . S
C555 H531 0.951 . S
C555 C556 1.366 . S
C555 C557 1.388 1_455 S
C556 C555 1.366 . S
C556 C560 1.385 . S
C557 H532 0.951 . S
C557 C555 1.388 1_655 S
C557 C558 1.366 . S
C558 C557 1.366 . S
C558 C559 1.414 . S
C558 C561 1.499 . S
C559 H533 0.950 . S
C559 C558 1.414 . S
C559 C560 1.374 1_655 S
C560 H534 0.950 . S
C560 C556 1.385 . S
C560 C559 1.374 1_455 S
C561 C558 1.499 . S
C561 C562 1.373 . S
C561 C563 1.389 . S
C562 H535 0.950 . S
C562 C548 1.377 . S
C562 C561 1.373 . S
C563 C547 1.377 . S
C563 C561 1.389 . S
C563 C564 1.524 . S
C564 C563 1.524 . S
C564 C565 1.397 . S
C564 C569 1.363 . S
C565 H536 0.950 . S
C565 C564 1.397 . S
C565 C566 1.334 . S
C566 H537 0.950 . S
C566 C565 1.334 . S
C566 C567 1.287 . S
C567 C566 1.287 . S
C567 C568 1.524 . S
C567 H570 0.999 . S
C568 H538 0.950 . S
C568 C567 1.524 . S
C568 C569 1.415 . S
C569 H539 0.950 . S
C569 C564 1.363 . S
C569 C568 1.415 . S
H570 C567 0.999 . S
H571 C552 0.913 . S
H572 C590 0.951 . S
H573 C592 0.951 . S
H574 C594 0.950 . S
H575 C595 0.950 . S
H576 C597 0.950 . S
H577 C600 0.950 . S
H578 C601 0.950 . S
H579 C603 0.950 . S
H580 C604 0.950 . S
H581 C605 0.951 . S
H582 C607 0.951 . S
H583 C609 0.950 . S
H584 C610 0.950 . S
H585 C612 0.950 . S
H586 C615 0.950 . S
H587 C616 0.950 . S
H588 C618 0.950 . S
H589 C619 0.950 . S
C590 H572 0.951 . S
C590 C591 1.366 . S
C590 C592 1.388 . S
C591 C590 1.366 . S
C591 C595 1.385 . S
C592 H573 0.951 . S
C592 C590 1.388 . S
C592 C593 1.366 . S
C593 C592 1.366 . S
C593 C594 1.414 . S
C593 C596 1.499 . S
C594 H574 0.950 . S
C594 C593 1.414 . S
C594 C595 1.374 . S
C595 H575 0.950 . S
C595 C591 1.385 . S
C595 C594 1.374 . S
C596 C593 1.499 . S
C596 C597 1.373 . S
C596 C598 1.389 . S
C597 H576 0.950 . S
C597 C596 1.373 . S
C597 C613 1.377 . S
C598 C596 1.389 . S
C598 C599 1.524 . S
C598 C612 1.377 . S
C599 C598 1.524 . S
C599 C600 1.397 . S
C599 C604 1.363 . S
C600 H577 0.950 . S
C600 C599 1.397 . S
C600 C601 1.334 . S
C601 H578 0.950 . S
C601 C600 1.334 . S
C601 C602 1.287 . S
C602 C601 1.287 . S
C602 C603 1.524 . S
C602 H621 0.913 . S
C603 H579 0.950 . S
C603 C602 1.524 . S
C603 C604 1.415 . S
C604 H580 0.950 . S
C604 C599 1.363 . S
C604 C603 1.415 . S
C605 H581 0.951 . S
C605 C606 1.366 . S
C605 C607 1.388 . S
C606 C605 1.366 . S
C606 C610 1.385 . S
C607 H582 0.951 . S
C607 C605 1.388 . S
C607 C608 1.366 . S
C608 C607 1.366 . S
C608 C609 1.414 . S
C608 C611 1.499 . S
C609 H583 0.950 . S
C609 C608 1.414 . S
C609 C610 1.374 . S
C610 H584 0.950 . S
C610 C606 1.385 . S
C610 C609 1.374 . S
C611 C608 1.499 . S
C611 C612 1.373 . S
C611 C613 1.389 . S
C612 H585 0.950 . S
C612 C598 1.377 . S
C612 C611 1.373 . S
C613 C597 1.377 . S
C613 C611 1.389 . S
C613 C614 1.524 . S
C614 C613 1.524 . S
C614 C615 1.397 . S
C614 C619 1.365 1_455 S
C615 H586 0.950 . S
C615 C614 1.397 . S
C615 C616 1.334 . S
C616 H587 0.950 . S
C616 C615 1.334 . S
C616 C617 1.287 1_455 S
C617 C616 1.287 1_655 S
C617 C618 1.524 . S
C617 H620 0.999 . S
C618 H588 0.950 . S
C618 C617 1.524 . S
C618 C619 1.413 . S
C619 H589 0.950 . S
C619 C614 1.365 1_655 S
C619 C618 1.413 . S
H620 C617 0.999 . S
H621 C602 0.913 . S
H622 C640 0.951 . S
H623 C642 0.951 . S
H624 C644 0.950 . S
H625 C645 0.950 . S
H626 C647 0.950 . S
H627 C650 0.950 . S
H628 C651 0.950 . S
H629 C653 0.950 . S
H630 C654 0.950 . S
H631 C655 0.951 . S
H632 C657 0.951 . S
H633 C659 0.950 . S
H634 C660 0.950 . S
H635 C662 0.950 . S
H636 C665 0.950 . S
H637 C666 0.950 . S
H638 C668 0.950 . S
H639 C669 0.950 . S
C640 H622 0.951 . S
C640 C641 1.366 . S
C640 C642 1.388 . S
C641 C640 1.366 . S
C641 C645 1.385 . S
C642 H623 0.951 . S
C642 C640 1.388 . S
C642 C643 1.366 . S
C643 C642 1.366 . S
C643 C644 1.414 . S
C643 C646 1.499 . S
C644 H624 0.950 . S
C644 C643 1.414 . S
C644 C645 1.374 . S
C645 H625 0.950 . S
C645 C641 1.385 . S
C645 C644 1.374 . S
C646 C643 1.499 . S
C646 C647 1.373 . S
C646 C648 1.389 . S
C647 H626 0.950 . S
C647 C646 1.373 . S
C647 C663 1.377 . S
C648 C646 1.389 . S
C648 C649 1.524 . S
C648 C662 1.377 . S
C649 C648 1.524 . S
C649 C650 1.397 . S
C649 C654 1.363 . S
C650 H627 0.950 . S
C650 C649 1.397 . S
C650 C651 1.334 . S
C651 H628 0.950 . S
C651 C650 1.334 . S
C651 C652 1.287 . S
C652 C651 1.287 . S
C652 C653 1.524 . S
C652 H671 0.913 . S
C653 H629 0.950 . S
C653 C652 1.524 . S
C653 C654 1.415 . S
C654 H630 0.950 . S
C654 C649 1.363 . S
C654 C653 1.415 . S
C655 H631 0.951 . S
C655 C656 1.366 . S
C655 C657 1.388 1_455 S
C656 C655 1.366 . S
C656 C660 1.385 . S
C657 H632 0.951 . S
C657 C655 1.388 1_655 S
C657 C658 1.366 . S
C658 C657 1.366 . S
C658 C659 1.414 . S
C658 C661 1.499 . S
C659 H633 0.950 . S
C659 C658 1.414 . S
C659 C660 1.374 1_655 S
C660 H634 0.950 . S
C660 C656 1.385 . S
C660 C659 1.374 1_455 S
C661 C658 1.499 . S
C661 C662 1.373 . S
C661 C663 1.389 . S
C662 H635 0.950 . S
C662 C648 1.377 . S
C662 C661 1.373 . S
C663 C647 1.377 . S
C663 C661 1.389 . S
C663 C664 1.524 . S
C664 C663 1.524 . S
C664 C665 1.397 . S
C664 C669 1.363 . S
C665 H636 0.950 . S
C665 C664 1.397 . S
C665 C666 1.334 . S
C666 H637 0.950 . S
C666 C665 1.334 . S
C666 C667 1.287 . S
C667 C666 1.287 . S
C667 C668 1.524 . S
C667 H670 0.999 . S
C668 H638 0.950 . S
C668 C667 1.524 . S
C668 C669 1.415 . S
C669 H639 0.950 . S
C669 C664 1.363 . S
C669 C668 1.415 . S
H670 C667 0.999 . S
H671 C652 0.913 . S
H672 C690 0.951 . S
H673 C692 0.951 . S
H674 C694 0.950 . S
H675 C695 0.950 . S
H676 C697 0.950 . S
H677 C700 0.950 . S
H678 C701 0.950 . S
H679 C703 0.950 . S
H680 C704 0.950 . S
H681 C705 0.951 . S
H682 C707 0.951 . S
H683 C709 0.950 . S
H684 C710 0.950 . S
H685 C712 0.950 . S
H686 C715 0.950 . S
H687 C716 0.950 . S
H688 C718 0.950 . S
H689 C719 0.950 . S
C690 H672 0.951 . S
C690 C691 1.366 . S
C690 C692 1.388 . S
C691 C690 1.366 . S
C691 C695 1.385 . S
C692 H673 0.951 . S
C692 C690 1.388 . S
C692 C693 1.366 . S
C693 C692 1.366 . S
C693 C694 1.414 . S
C693 C696 1.499 . S
C694 H674 0.950 . S
C694 C693 1.414 . S
C694 C695 1.374 . S
C695 H675 0.950 . S
C695 C691 1.385 . S
C695 C694 1.374 . S
C696 C693 1.499 . S
C696 C697 1.373 . S
C696 C698 1.389 . S
C697 H676 0.950 . S
C697 C696 1.373 . S
C697 C713 1.377 . S
C698 C696 1.389 . S
C698 C699 1.524 . S
C698 C712 1.377 . S
C699 C698 1.524 . S
C699 C700 1.397 . S
C699 C704 1.363 . S
C700 H677 0.950 . S
C700 C699 1.397 . S
C700 C701 1.334 . S
C701 H678 0.950 . S
C701 C700 1.334 . S
C701 C702 1.287 . S
C702 C701 1.287 . S
C702 C703 1.524 . S
C702 H721 0.913 . S
C703 H679 0.950 . S
C703 C702 1.524 . S
C703 C704 1.415 . S
C704 H680 0.950 . S
C704 C699 1.363 . S
C704 C703 1.415 . S
C705 H681 0.951 . S
C705 C706 1.366 . S
C705 C707 1.388 . S
C706 C705 1.366 . S
C706 C710 1.385 . S
C707 H682 0.951 . S
C707 C705 1.388 . S
C707 C708 1.366 . S
C708 C707 1.366 . S
C708 C709 1.414 . S
C708 C711 1.499 . S
C709 H683 0.950 . S
C709 C708 1.414 . S
C709 C710 1.374 . S
C710 H684 0.950 . S
C710 C706 1.385 . S
C710 C709 1.374 . S
C711 C708 1.499 . S
C711 C712 1.373 . S
C711 C713 1.389 . S
C712 H685 0.950 . S
C712 C698 1.377 . S
C712 C711 1.373 . S
C713 C697 1.377 . S
C713 C711 1.389 . S
C713 C714 1.524 . S
C714 C713 1.524 . S
C714 C715 1.397 . S
C714 C719 1.363 . S
C715 H686 0.950 . S
C715 C714 1.397 . S
C715 C716 1.334 . S
C716 H687 0.950 . S
C716 C715 1.334 . S
C716 C717 1.287 . S
C717 C716 1.287 . S
C717 C718 1.524 . S
C717 H720 0.999 . S
C718 H688 0.950 . S
C718 C717 1.524 . S
C718 C719 1.415 . S
C719 H689 0.950 . S
C719 C714 1.363 . S
C719 C718 1.415 . S
H720 C717 0.999 . S
H721 C702 0.913 . S
H722 C740 0.951 . S
H723 C742 0.951 . S
H724 C744 0.950 . S
H725 C745 0.950 . S
H726 C747 0.950 . S
H727 C750 0.950 . S
H728 C751 0.950 . S
H729 C753 0.950 . S
H730 C754 0.950 . S
H731 C755 0.951 . S
H732 C757 0.951 . S
H733 C759 0.950 . S
H734 C760 0.950 . S
H735 C762 0.950 . S
H736 C765 0.950 . S
H737 C766 0.950 . S
H738 C768 0.950 . S
H739 C769 0.950 . S
C740 H722 0.951 . S
C740 C741 1.366 . S
C740 C742 1.388 . S
C741 C740 1.366 . S
C741 C745 1.385 . S
C742 H723 0.951 . S
C742 C740 1.388 . S
C742 C743 1.366 . S
C743 C742 1.366 . S
C743 C744 1.414 . S
C743 C746 1.499 . S
C744 H724 0.950 . S
C744 C743 1.414 . S
C744 C745 1.374 . S
C745 H725 0.950 . S
C745 C741 1.385 . S
C745 C744 1.374 . S
C746 C743 1.499 . S
C746 C747 1.373 . S
C746 C748 1.389 . S
C747 H726 0.950 . S
C747 C746 1.373 . S
C747 C763 1.377 . S
C748 C746 1.389 . S
C748 C749 1.524 . S
C748 C762 1.377 . S
C749 C748 1.524 . S
C749 C750 1.397 . S
C749 C754 1.363 . S
C750 H727 0.950 . S
C750 C749 1.397 . S
C750 C751 1.334 . S
C751 H728 0.950 . S
C751 C750 1.334 . S
C751 C752 1.287 . S
C752 C751 1.287 . S
C752 C753 1.524 . S
C752 H771 0.913 . S
C753 H729 0.950 . S
C753 C752 1.524 . S
C753 C754 1.415 . S
C754 H730 0.950 . S
C754 C749 1.363 . S
C754 C753 1.415 . S
C755 H731 0.951 . S
C755 C756 1.366 . S
C755 C757 1.388 . S
C756 C755 1.366 . S
C756 C760 1.385 . S
C757 H732 0.951 . S
C757 C755 1.388 . S
C757 C758 1.366 . S
C758 C757 1.366 . S
C758 C759 1.414 . S
C758 C761 1.499 . S
C759 H733 0.950 . S
C759 C758 1.414 . S
C759 C760 1.374 . S
C760 H734 0.950 . S
C760 C756 1.385 . S
C760 C759 1.374 . S
C761 C758 1.499 . S
C761 C762 1.373 . S
C761 C763 1.389 . S
C762 H735 0.950 . S
C762 C748 1.377 . S
C762 C761 1.373 . S
C763 C747 1.377 . S
C763 C761 1.389 . S
C763 C764 1.524 . S
C764 C763 1.524 . S
C764 C765 1.397 . S
C764 C769 1.363 . S
C765 H736 0.950 . S
C765 C764 1.397 . S
C765 C766 1.334 . S
C766 H737 0.950 . S
C766 C765 1.334 . S
C766 C767 1.287 . S
C767 C766 1.287 . S
C767 C768 1.524 . S
C767 H770 0.999 . S
C768 H738 0.950 . S
C768 C767 1.524 . S
C768 C769 1.415 . S
C769 H739 0.950 . S
C769 C764 1.363 . S
C769 C768 1.415 . S
H770 C767 0.999 . S
H771 C752 0.913 . S
H772 C790 0.951 . S
H773 C792 0.951 . S
H774 C794 0.950 . S
H775 C795 0.950 . S
H776 C797 0.950 . S
H777 C800 0.950 . S
H778 C801 0.950 . S
H779 C803 0.950 . S
H780 C804 0.950 . S
H781 C805 0.951 . S
H782 C807 0.951 . S
H783 C809 0.950 . S
H784 C810 0.950 . S
H785 C812 0.950 . S
H786 C815 0.950 . S
H787 C816 0.950 . S
H788 C818 0.950 . S
H789 C819 0.950 . S
C790 H772 0.951 . S
C790 C791 1.366 . S
C790 C792 1.388 . S
C791 C790 1.366 . S
C791 C795 1.385 . S
C792 H773 0.951 . S
C792 C790 1.388 . S
C792 C793 1.366 . S
C793 C792 1.366 . S
C793 C794 1.414 . S
C793 C796 1.499 . S
C794 H774 0.950 . S
C794 C793 1.414 . S
C794 C795 1.374 . S
C795 H775 0.950 . S
C795 C791 1.385 . S
C795 C794 1.374 . S
C796 C793 1.499 . S
C796 C797 1.373 . S
C796 C798 1.389 . S
C797 H776 0.950 . S
C797 C796 1.373 . S
C797 C813 1.377 . S
C798 C796 1.389 . S
C798 C799 1.524 . S
C798 C812 1.377 . S
C799 C798 1.524 . S
C799 C800 1.397 . S
C799 C804 1.363 . S
C800 H777 0.950 . S
C800 C799 1.397 . S
C800 C801 1.334 . S
C801 H778 0.950 . S
C801 C800 1.334 . S
C801 C802 1.287 . S
C802 C801 1.287 . S
C802 C803 1.524 . S
C802 H821 0.913 . S
C803 H779 0.950 . S
C803 C802 1.524 . S
C803 C804 1.415 . S
C804 H780 0.950 . S
C804 C799 1.363 . S
C804 C803 1.415 . S
C805 H781 0.951 . S
C805 C806 1.366 . S
C805 C807 1.388 . S
C806 C805 1.366 . S
C806 C810 1.385 . S
C807 H782 0.951 . S
C807 C805 1.388 . S
C807 C808 1.366 . S
C808 C807 1.366 . S
C808 C809 1.414 . S
C808 C811 1.499 . S
C809 H783 0.950 . S
C809 C808 1.414 . S
C809 C810 1.374 . S
C810 H784 0.950 . S
C810 C806 1.385 . S
C810 C809 1.374 . S
C811 C808 1.499 . S
C811 C812 1.373 . S
C811 C813 1.389 . S
C812 H785 0.950 . S
C812 C798 1.377 . S
C812 C811 1.373 . S
C813 C797 1.377 . S
C813 C811 1.389 . S
C813 C814 1.524 . S
C814 C813 1.524 . S
C814 C815 1.397 . S
C814 C819 1.363 . S
C815 H786 0.950 . S
C815 C814 1.397 . S
C815 C816 1.334 . S
C816 H787 0.950 . S
C816 C815 1.334 . S
C816 C817 1.287 . S
C817 C816 1.287 . S
C817 C818 1.524 . S
C817 H820 0.999 . S
C818 H788 0.950 . S
C818 C817 1.524 . S
C818 C819 1.415 . S
C819 H789 0.950 . S
C819 C814 1.363 . S
C819 C818 1.415 . S
H820 C817 0.999 . S
H821 C802 0.913 . S
H822 C840 0.951 . S
H823 C842 0.951 . S
H824 C844 0.950 . S
H825 C845 0.950 . S
H826 C847 0.950 . S
H827 C850 0.950 . S
H828 C851 0.950 . S
H829 C853 0.950 . S
H830 C854 0.950 . S
H831 C855 0.951 . S
H832 C857 0.951 . S
H833 C859 0.950 . S
H834 C860 0.950 . S
H835 C862 0.950 . S
H836 C865 0.950 . S
H837 C866 0.950 . S
H838 C868 0.950 . S
H839 C869 0.950 . S
C840 H822 0.951 . S
C840 C841 1.366 . S
C840 C842 1.388 . S
C841 C840 1.366 . S
C841 C845 1.385 . S
C842 H823 0.951 . S
C842 C840 1.388 . S
C842 C843 1.366 . S
C843 C842 1.366 . S
C843 C844 1.414 . S
C843 C846 1.499 . S
C844 H824 0.950 . S
C844 C843 1.414 . S
C844 C845 1.374 . S
C845 H825 0.950 . S
C845 C841 1.385 . S
C845 C844 1.374 . S
C846 C843 1.499 . S
C846 C847 1.373 . S
C846 C848 1.389 . S
C847 H826 0.950 . S
C847 C846 1.373 . S
C847 C863 1.377 . S
C848 C846 1.389 . S
C848 C849 1.524 . S
C848 C862 1.377 . S
C849 C848 1.524 . S
C849 C850 1.397 . S
C849 C854 1.363 . S
C850 H827 0.950 . S
C850 C849 1.397 . S
C850 C851 1.334 . S
C851 H828 0.950 . S
C851 C850 1.334 . S
C851 C852 1.287 . S
C852 C851 1.287 . S
C852 C853 1.524 . S
C852 H871 0.913 . S
C853 H829 0.950 . S
C853 C852 1.524 . S
C853 C854 1.415 . S
C854 H830 0.950 . S
C854 C849 1.363 . S
C854 C853 1.415 . S
C855 H831 0.951 . S
C855 C856 1.366 . S
C855 C857 1.388 . S
C856 C855 1.366 . S
C856 C860 1.385 . S
C857 H832 0.951 . S
C857 C855 1.388 . S
C857 C858 1.366 . S
C858 C857 1.366 . S
C858 C859 1.414 . S
C858 C861 1.499 . S
C859 H833 0.950 . S
C859 C858 1.414 . S
C859 C860 1.374 . S
C860 H834 0.950 . S
C860 C856 1.385 . S
C860 C859 1.374 . S
C861 C858 1.499 . S
C861 C862 1.373 . S
C861 C863 1.389 . S
C862 H835 0.950 . S
C862 C848 1.377 . S
C862 C861 1.373 . S
C863 C847 1.377 . S
C863 C861 1.389 . S
C863 C864 1.524 . S
C864 C863 1.524 . S
C864 C865 1.397 . S
C864 C869 1.363 . S
C865 H836 0.950 . S
C865 C864 1.397 . S
C865 C866 1.334 . S
C866 H837 0.950 . S
C866 C865 1.334 . S
C866 C867 1.287 . S
C867 C866 1.287 . S
C867 C868 1.524 . S
C867 H870 0.999 . S
C868 H838 0.950 . S
C868 C867 1.524 . S
C868 C869 1.415 . S
C869 H839 0.950 . S
C869 C864 1.363 . S
C869 C868 1.415 . S
H870 C867 0.999 . S
H871 C852 0.913 . S
H872 C890 0.951 . S
H873 C892 0.951 . S
H874 C894 0.950 . S
H875 C895 0.950 . S
H876 C897 0.950 . S
H877 C900 0.950 . S
H878 C901 0.950 . S
H879 C903 0.950 . S
H880 C904 0.950 . S
H881 C905 0.951 . S
H882 C907 0.951 . S
H883 C909 0.950 . S
H884 C910 0.950 . S
H885 C912 0.950 . S
H886 C915 0.950 . S
H887 C916 0.950 . S
H888 C918 0.950 . S
H889 C919 0.950 . S
C890 H872 0.951 . S
C890 C891 1.366 . S
C890 C892 1.388 . S
C891 C890 1.366 . S
C891 C895 1.385 . S
C892 H873 0.951 . S
C892 C890 1.388 . S
C892 C893 1.366 . S
C893 C892 1.366 . S
C893 C894 1.414 . S
C893 C896 1.499 . S
C894 H874 0.950 . S
C894 C893 1.414 . S
C894 C895 1.374 . S
C895 H875 0.950 . S
C895 C891 1.385 . S
C895 C894 1.374 . S
C896 C893 1.499 . S
C896 C897 1.373 . S
C896 C898 1.389 . S
C897 H876 0.950 . S
C897 C896 1.373 . S
C897 C913 1.377 . S
C898 C896 1.389 . S
C898 C899 1.524 . S
C898 C912 1.377 . S
C899 C898 1.524 . S
C899 C900 1.397 . S
C899 C904 1.363 . S
C900 H877 0.950 . S
C900 C899 1.397 . S
C900 C901 1.334 . S
C901 H878 0.950 . S
C901 C900 1.334 . S
C901 C902 1.287 . S
C902 C901 1.287 . S
C902 C903 1.524 . S
C902 H921 0.913 . S
C903 H879 0.950 . S
C903 C902 1.524 . S
C903 C904 1.415 . S
C904 H880 0.950 . S
C904 C899 1.363 . S
C904 C903 1.415 . S
C905 H881 0.951 . S
C905 C906 1.366 . S
C905 C907 1.388 . S
C906 C905 1.366 . S
C906 C910 1.385 . S
C907 H882 0.951 . S
C907 C905 1.388 . S
C907 C908 1.366 . S
C908 C907 1.366 . S
C908 C909 1.414 . S
C908 C911 1.499 . S
C909 H883 0.950 . S
C909 C908 1.414 . S
C909 C910 1.374 . S
C910 H884 0.950 . S
C910 C906 1.385 . S
C910 C909 1.374 . S
C911 C908 1.499 . S
C911 C912 1.373 . S
C911 C913 1.389 . S
C912 H885 0.950 . S
C912 C898 1.377 . S
C912 C911 1.373 . S
C913 C897 1.377 . S
C913 C911 1.389 . S
C913 C914 1.524 . S
C914 C913 1.524 . S
C914 C915 1.397 . S
C914 C919 1.363 . S
C915 H886 0.950 . S
C915 C914 1.397 . S
C915 C916 1.334 . S
C916 H887 0.950 . S
C916 C915 1.334 . S
C916 C917 1.287 . S
C917 C916 1.287 . S
C917 C918 1.524 . S
C917 H920 0.999 . S
C918 H888 0.950 . S
C918 C917 1.524 . S
C918 C919 1.415 . S
C919 H889 0.950 . S
C919 C914 1.363 . S
C919 C918 1.415 . S
H920 C917 0.999 . S
H921 C902 0.913 . S
H922 C940 0.951 . S
H923 C942 0.951 . S
H924 C944 0.950 . S
H925 C945 0.950 . S
H926 C947 0.950 . S
H927 C950 0.950 . S
H928 C951 0.950 . S
H929 C953 0.950 . S
H930 C954 0.950 . S
H931 C955 0.951 . S
H932 C957 0.951 . S
H933 C959 0.950 . S
H934 C960 0.950 . S
H935 C962 0.950 . S
H936 C965 0.950 . S
H937 C966 0.950 . S
H938 C968 0.950 . S
H939 C969 0.950 . S
C940 H922 0.951 . S
C940 C941 1.366 . S
C940 C942 1.388 . S
C941 C940 1.366 . S
C941 C945 1.385 . S
C942 H923 0.951 . S
C942 C940 1.388 . S
C942 C943 1.366 . S
C943 C942 1.366 . S
C943 C944 1.414 . S
C943 C946 1.499 . S
C944 H924 0.950 . S
C944 C943 1.414 . S
C944 C945 1.374 . S
C945 H925 0.950 . S
C945 C941 1.385 . S
C945 C944 1.374 . S
C946 C943 1.499 . S
C946 C947 1.373 . S
C946 C948 1.389 . S
C947 H926 0.950 . S
C947 C946 1.373 . S
C947 C963 1.377 . S
C948 C946 1.389 . S
C948 C949 1.524 . S
C948 C962 1.377 . S
C949 C948 1.524 . S
C949 C950 1.397 . S
C949 C954 1.363 . S
C950 H927 0.950 . S
C950 C949 1.397 . S
C950 C951 1.334 . S
C951 H928 0.950 . S
C951 C950 1.334 . S
C951 C952 1.287 . S
C952 C951 1.287 . S
C952 C953 1.524 . S
C952 H971 0.913 . S
C953 H929 0.950 . S
C953 C952 1.524 . S
C953 C954 1.415 . S
C954 H930 0.950 . S
C954 C949 1.363 . S
C954 C953 1.415 . S
C955 H931 0.951 . S
C955 C956 1.366 . S
C955 C957 1.388 . S
C956 C955 1.366 . S
C956 C960 1.385 . S
C957 H932 0.951 . S
C957 C955 1.388 . S
C957 C958 1.366 . S
C958 C957 1.366 . S
C958 C959 1.414 . S
C958 C961 1.499 . S
C959 H933 0.950 . S
C959 C958 1.414 . S
C959 C960 1.374 . S
C960 H934 0.950 . S
C960 C956 1.385 . S
C960 C959 1.374 . S
C961 C958 1.499 . S
C961 C962 1.373 . S
C961 C963 1.389 . S
C962 H935 0.950 . S
C962 C948 1.377 . S
C962 C961 1.373 . S
C963 C947 1.377 . S
C963 C961 1.389 . S
C963 C964 1.524 . S
C964 C963 1.524 . S
C964 C965 1.397 . S
C964 C969 1.363 . S
C965 H936 0.950 . S
C965 C964 1.397 . S
C965 C966 1.334 . S
C966 H937 0.950 . S
C966 C965 1.334 . S
C966 C967 1.287 . S
C967 C966 1.287 . S
C967 C968 1.524 . S
C967 H970 0.999 . S
C968 H938 0.950 . S
C968 C967 1.524 . S
C968 C969 1.415 . S
C969 H939 0.950 . S
C969 C964 1.363 . S
C969 C968 1.415 . S
H970 C967 0.999 . S
H971 C952 0.913 . S
H972 C990 0.951 . S
H973 C992 0.951 . S
H974 C994 0.950 . S
H975 C995 0.950 . S
H976 C997 0.950 . S
H977 C1000 0.950 . S
H978 C1001 0.950 . S
H979 C1003 0.950 . S
H980 C1004 0.950 1_545 S
H981 C1005 0.951 . S
H982 C1007 0.951 . S
H983 C1009 0.950 . S
H984 C1010 0.950 . S
H985 C1012 0.950 . S
H986 C1015 0.950 . S
H987 C1016 0.950 . S
H988 C1018 0.950 . S
H989 C1019 0.950 . S
C990 H972 0.951 . S
C990 C991 1.366 . S
C990 C992 1.388 . S
C991 C990 1.366 . S
C991 C995 1.385 . S
C992 H973 0.951 . S
C992 C990 1.388 . S
C992 C993 1.366 . S
C993 C992 1.366 . S
C993 C994 1.414 . S
C993 C996 1.499 . S
C994 H974 0.950 . S
C994 C993 1.414 . S
C994 C995 1.374 . S
C995 H975 0.950 . S
C995 C991 1.385 . S
C995 C994 1.374 . S
C996 C993 1.499 . S
C996 C997 1.373 . S
C996 C998 1.410 . S
C997 H976 0.950 . S
C997 C996 1.373 . S
C997 C1013 1.377 1_565 S
C998 C996 1.410 . S
C998 C999 1.534 . S
C998 C1012 1.345 1_565 S
C999 C998 1.534 . S
C999 C1000 1.397 . S
C999 C1004 1.363 . S
C1000 H977 0.950 . S
C1000 C999 1.397 . S
C1000 C1001 1.334 . S
C1001 H978 0.950 . S
C1001 C1000 1.334 . S
C1001 C1002 1.287 . S
C1002 C1001 1.287 . S
C1002 C1003 1.524 . S
C1002 H1021 0.913 . S
C1003 H979 0.950 . S
C1003 C1002 1.524 . S
C1003 C1004 1.415 . S
C1004 H980 0.950 1_565 S
C1004 C999 1.363 . S
C1004 C1003 1.415 . S
C1005 H981 0.951 . S
C1005 C1006 1.366 . S
C1005 C1007 1.388 . S
C1006 C1005 1.366 . S
C1006 C1010 1.385 . S
C1007 H982 0.951 . S
C1007 C1005 1.388 . S
C1007 C1008 1.366 . S
C1008 C1007 1.366 . S
C1008 C1009 1.414 . S
C1008 C1011 1.499 . S
C1009 H983 0.950 . S
C1009 C1008 1.414 . S
C1009 C1010 1.374 . S
C1010 H984 0.950 . S
C1010 C1006 1.385 . S
C1010 C1009 1.374 . S
C1011 C1008 1.499 . S
C1011 C1012 1.373 . S
C1011 C1013 1.389 . S
C1012 H985 0.950 . S
C1012 C998 1.345 1_545 S
C1012 C1011 1.373 . S
C1013 C997 1.377 1_545 S
C1013 C1011 1.389 . S
C1013 C1014 1.524 . S
C1014 C1013 1.524 . S
C1014 C1015 1.397 . S
C1014 C1019 1.363 . S
C1015 H986 0.950 . S
C1015 C1014 1.397 . S
C1015 C1016 1.334 . S
C1016 H987 0.950 . S
C1016 C1015 1.334 . S
C1016 C1017 1.287 . S
C1017 C1016 1.287 . S
C1017 C1018 1.524 . S
C1017 H1020 0.999 . S
C1018 H988 0.950 . S
C1018 C1017 1.524 . S
C1018 C1019 1.415 . S
C1019 H989 0.950 . S
C1019 C1014 1.363 . S
C1019 C1018 1.415 . S
H1020 C1017 0.999 . S
H1021 C1002 0.913 . S
H1022 C1040 0.951 . S
H1023 C1042 0.951 . S
H1024 C1044 0.950 . S
H1025 C1045 0.950 . S
H1026 C1047 0.950 . S
H1027 C1050 0.950 . S
H1028 C1051 0.950 . S
H1029 C1053 0.950 . S
H1030 C1054 0.930 1_565 S
H1031 C1055 0.951 . S
H1032 C1057 0.951 . S
H1033 C1059 0.950 . S
H1034 C1060 0.950 . S
H1035 C1062 0.950 . S
H1036 C1065 0.950 . S
H1037 C1066 0.950 . S
H1038 C1068 0.950 . S
H1039 C1069 0.950 . S
C1040 H1022 0.951 . S
C1040 C1041 1.366 . S
C1040 C1042 1.388 . S
C1041 C1040 1.366 . S
C1041 C1045 1.385 . S
C1042 H1023 0.951 . S
C1042 C1040 1.388 . S
C1042 C1043 1.366 . S
C1043 C1042 1.366 . S
C1043 C1044 1.414 . S
C1043 C1046 1.499 . S
C1044 H1024 0.950 . S
C1044 C1043 1.414 . S
C1044 C1045 1.374 . S
C1045 H1025 0.950 . S
C1045 C1041 1.385 . S
C1045 C1044 1.374 . S
C1046 C1043 1.499 . S
C1046 C1047 1.373 1_545 S
C1046 C1048 1.389 1_545 S
C1047 H1026 0.950 . S
C1047 C1046 1.373 1_565 S
C1047 C1063 1.377 . S
C1048 C1046 1.389 1_565 S
C1048 C1049 1.524 1_565 S
C1048 C1062 1.377 . S
C1049 C1048 1.524 1_545 S
C1049 C1050 1.397 . S
C1049 C1054 1.370 . S
C1050 H1027 0.950 . S
C1050 C1049 1.397 . S
C1050 C1051 1.334 . S
C1051 H1028 0.950 . S
C1051 C1050 1.334 . S
C1051 C1052 1.287 . S
C1052 C1051 1.287 . S
C1052 C1053 1.524 . S
C1052 H1071 0.913 . S
C1053 H1029 0.950 . S
C1053 C1052 1.524 . S
C1053 C1054 1.429 . S
C1054 H1030 0.930 1_545 S
C1054 C1049 1.370 . S
C1054 C1053 1.429 . S
C1055 H1031 0.951 . S
C1055 C1056 1.366 . S
C1055 C1057 1.388 . S
C1056 C1055 1.366 . S
C1056 C1060 1.385 . S
C1057 H1032 0.951 . S
C1057 C1055 1.388 . S
C1057 C1058 1.366 . S
C1058 C1057 1.366 . S
C1058 C1059 1.414 . S
C1058 C1061 1.499 . S
C1059 H1033 0.950 . S
C1059 C1058 1.414 . S
C1059 C1060 1.374 . S
C1060 H1034 0.950 . S
C1060 C1056 1.385 . S
C1060 C1059 1.374 . S
C1061 C1058 1.499 . S
C1061 C1062 1.373 . S
C1061 C1063 1.389 . S
C1062 H1035 0.950 . S
C1062 C1048 1.377 . S
C1062 C1061 1.373 . S
C1063 C1047 1.377 . S
C1063 C1061 1.389 . S
C1063 C1064 1.524 . S
C1064 C1063 1.524 . S
C1064 C1065 1.397 . S
C1064 C1069 1.363 . S
C1065 H1036 0.950 . S
C1065 C1064 1.397 . S
C1065 C1066 1.334 . S
C1066 H1037 0.950 . S
C1066 C1065 1.334 . S
C1066 C1067 1.287 . S
C1067 C1066 1.287 . S
C1067 C1068 1.524 . S
C1067 H1070 0.999 . S
C1068 H1038 0.950 . S
C1068 C1067 1.524 . S
C1068 C1069 1.415 . S
C1069 H1039 0.950 . S
C1069 C1064 1.363 . S
C1069 C1068 1.415 . S
H1070 C1067 0.999 . S
H1071 C1052 0.913 . S
H1072 C1090 0.951 . S
H1073 C1092 0.951 . S
H1074 C1094 0.950 . S
H1075 C1095 0.950 . S
H1076 C1097 0.937 1_545 S
H1077 C1100 0.950 . S
H1078 C1101 0.950 1_545 S
H1079 C1103 0.950 . S
H1080 C1104 0.950 . S
H1081 C1105 0.951 . S
H1082 C1107 0.951 . S
H1083 C1109 0.950 . S
H1084 C1110 0.950 . S
H1085 C1112 0.950 . S
H1086 C1115 0.950 . S
H1087 C1116 0.950 . S
H1088 C1118 0.950 . S
H1089 C1119 0.950 . S
C1090 H1072 0.951 . S
C1090 C1091 1.366 . S
C1090 C1092 1.388 . S
C1091 C1090 1.366 . S
C1091 C1095 1.385 . S
C1092 H1073 0.951 . S
C1092 C1090 1.388 . S
C1092 C1093 1.366 . S
C1093 C1092 1.366 . S
C1093 C1094 1.414 . S
C1093 C1096 1.499 1_545 S
C1094 H1074 0.950 . S
C1094 C1093 1.414 . S
C1094 C1095 1.374 . S
C1095 H1075 0.950 . S
C1095 C1091 1.385 . S
C1095 C1094 1.374 . S
C1096 C1093 1.499 1_565 S
C1096 C1097 1.373 . S
C1096 C1098 1.389 . S
C1097 H1076 0.937 1_565 S
C1097 C1096 1.373 . S
C1097 C1113 1.377 . S
C1098 C1096 1.389 . S
C1098 C1099 1.524 . S
C1098 C1112 1.377 . S
C1099 C1098 1.524 . S
C1099 C1100 1.397 . S
C1099 C1104 1.363 . S
C1100 H1077 0.950 . S
C1100 C1099 1.397 . S
C1100 C1101 1.334 . S
C1101 H1078 0.950 1_565 S
C1101 C1100 1.334 . S
C1101 C1102 1.287 . S
C1102 C1101 1.287 . S
C1102 C1103 1.524 . S
C1102 H1121 0.913 . S
C1103 H1079 0.950 . S
C1103 C1102 1.524 . S
C1103 C1104 1.415 . S
C1104 H1080 0.950 . S
C1104 C1099 1.363 . S
C1104 C1103 1.415 . S
C1105 H1081 0.951 . S
C1105 C1106 1.366 . S
C1105 C1107 1.388 . S
C1106 C1105 1.366 . S
C1106 C1110 1.385 . S
C1107 H1082 0.951 . S
C1107 C1105 1.388 . S
C1107 C1108 1.366 . S
C1108 C1107 1.366 . S
C1108 C1109 1.414 . S
C1108 C1111 1.499 . S
C1109 H1083 0.950 . S
C1109 C1108 1.414 . S
C1109 C1110 1.374 . S
C1110 H1084 0.950 . S
C1110 C1106 1.385 . S
C1110 C1109 1.374 . S
C1111 C1108 1.499 . S
C1111 C1112 1.373 . S
C1111 C1113 1.389 . S
C1112 H1085 0.950 . S
C1112 C1098 1.377 . S
C1112 C1111 1.373 . S
C1113 C1097 1.377 . S
C1113 C1111 1.389 . S
C1113 C1114 1.524 . S
C1114 C1113 1.524 . S
C1114 C1115 1.397 . S
C1114 C1119 1.363 . S
C1115 H1086 0.950 . S
C1115 C1114 1.397 . S
C1115 C1116 1.334 . S
C1116 H1087 0.950 . S
C1116 C1115 1.334 . S
C1116 C1117 1.287 . S
C1117 C1116 1.287 . S
C1117 C1118 1.524 . S
C1117 H1120 0.999 . S
C1118 H1088 0.950 . S
C1118 C1117 1.524 . S
C1118 C1119 1.415 . S
C1119 H1089 0.950 . S
C1119 C1114 1.363 . S
C1119 C1118 1.415 . S
H1120 C1117 0.999 . S
H1121 C1102 0.913 . S
H1122 C1140 0.951 . S
H1123 C1142 0.951 . S
H1124 C1144 0.950 . S
H1125 C1145 0.950 . S
H1126 C1147 0.950 . S
H1127 C1150 0.950 . S
H1128 C1151 0.950 . S
H1129 C1153 0.950 . S
H1130 C1154 0.950 1_545 S
H1131 C1155 0.951 . S
H1132 C1157 0.951 . S
H1133 C1159 0.950 . S
H1134 C1160 0.950 . S
H1135 C1162 0.950 . S
H1136 C1165 0.950 . S
H1137 C1166 0.950 . S
H1138 C1168 0.950 . S
H1139 C1169 0.950 . S
C1140 H1122 0.951 . S
C1140 C1141 1.366 . S
C1140 C1142 1.388 . S
C1141 C1140 1.366 . S
C1141 C1145 1.385 . S
C1142 H1123 0.951 . S
C1142 C1140 1.388 . S
C1142 C1143 1.366 . S
C1143 C1142 1.366 . S
C1143 C1144 1.414 . S
C1143 C1146 1.499 . S
C1144 H1124 0.950 . S
C1144 C1143 1.414 . S
C1144 C1145 1.374 . S
C1145 H1125 0.950 . S
C1145 C1141 1.385 . S
C1145 C1144 1.374 . S
C1146 C1143 1.499 . S
C1146 C1147 1.373 . S
C1146 C1148 1.389 1_565 S
C1147 H1126 0.950 . S
C1147 C1146 1.373 . S
C1147 C1163 1.377 1_565 S
C1148 C1146 1.389 1_545 S
C1148 C1149 1.524 1_545 S
C1148 C1162 1.377 . S
C1149 C1148 1.524 1_565 S
C1149 C1150 1.397 . S
C1149 C1154 1.363 . S
C1150 H1127 0.950 . S
C1150 C1149 1.397 . S
C1150 C1151 1.334 . S
C1151 H1128 0.950 . S
C1151 C1150 1.334 . S
C1151 C1152 1.287 . S
C1152 C1151 1.287 . S
C1152 C1153 1.524 . S
C1152 H1171 0.913 . S
C1153 H1129 0.950 . S
C1153 C1152 1.524 . S
C1153 C1154 1.415 . S
C1154 H1130 0.950 1_565 S
C1154 C1149 1.363 . S
C1154 C1153 1.415 . S
C1155 H1131 0.951 . S
C1155 C1156 1.366 . S
C1155 C1157 1.388 . S
C1156 C1155 1.366 . S
C1156 C1160 1.385 . S
C1157 H1132 0.951 . S
C1157 C1155 1.388 . S
C1157 C1158 1.366 . S
C1158 C1157 1.366 . S
C1158 C1159 1.414 . S
C1158 C1161 1.499 . S
C1159 H1133 0.950 . S
C1159 C1158 1.414 . S
C1159 C1160 1.374 . S
C1160 H1134 0.950 . S
C1160 C1156 1.385 . S
C1160 C1159 1.374 . S
C1161 C1158 1.499 . S
C1161 C1162 1.373 . S
C1161 C1163 1.389 . S
C1162 H1135 0.950 . S
C1162 C1148 1.377 . S
C1162 C1161 1.373 . S
C1163 C1147 1.377 1_545 S
C1163 C1161 1.389 . S
C1163 C1164 1.524 . S
C1164 C1163 1.524 . S
C1164 C1165 1.397 . S
C1164 C1169 1.363 . S
C1165 H1136 0.950 . S
C1165 C1164 1.397 . S
C1165 C1166 1.334 . S
C1166 H1137 0.950 . S
C1166 C1165 1.334 . S
C1166 C1167 1.287 . S
C1167 C1166 1.287 . S
C1167 C1168 1.524 . S
C1167 H1170 0.999 . S
C1168 H1138 0.950 . S
C1168 C1167 1.524 . S
C1168 C1169 1.415 . S
C1169 H1139 0.950 . S
C1169 C1164 1.363 . S
C1169 C1168 1.415 . S
H1170 C1167 0.999 . S
H1171 C1152 0.913 . S
H1172 C1190 0.985 . S
H1173 C1192 0.951 . S
H1174 C1194 0.950 . S
H1175 C1195 0.950 . S
H1176 C1197 0.950 . S
H1177 C1200 0.950 . S
H1178 C1201 0.950 . S
H1179 C1203 0.950 . S
H1180 C1204 0.950 . S
H1181 C1205 0.951 . S
H1182 C1207 0.951 . S
H1183 C1209 0.950 . S
H1184 C1210 0.950 . S
H1185 C1212 0.950 . S
H1186 C1215 0.950 . S
H1187 C1216 0.950 . S
H1188 C1218 0.950 . S
H1189 C1219 0.950 . S
C1190 H1172 0.985 . S
C1190 C1191 1.419 . S
C1190 C1192 1.305 1_554 S
C1191 C1190 1.419 . S
C1191 C1195 1.385 . S
C1192 H1173 0.951 . S
C1192 C1190 1.305 1_556 S
C1192 C1193 1.366 . S
C1193 C1192 1.366 . S
C1193 C1194 1.414 . S
C1193 C1196 1.499 . S
C1194 H1174 0.950 . S
C1194 C1193 1.414 . S
C1194 C1195 1.374 1_556 S
C1195 H1175 0.950 . S
C1195 C1191 1.385 . S
C1195 C1194 1.374 1_554 S
C1196 C1193 1.499 . S
C1196 C1197 1.373 . S
C1196 C1198 1.389 . S
C1197 H1176 0.950 . S
C1197 C1196 1.373 . S
C1197 C1213 1.377 . S
C1198 C1196 1.389 . S
C1198 C1199 1.524 . S
C1198 C1212 1.377 . S
C1199 C1198 1.524 . S
C1199 C1200 1.397 . S
C1199 C1204 1.363 . S
C1200 H1177 0.950 . S
C1200 C1199 1.397 . S
C1200 C1201 1.334 . S
C1201 H1178 0.950 . S
C1201 C1200 1.334 . S
C1201 C1202 1.287 . S
C1202 C1201 1.287 . S
C1202 C1203 1.524 . S
C1202 H1221 0.913 . S
C1203 H1179 0.950 . S
C1203 C1202 1.524 . S
C1203 C1204 1.415 . S
C1204 H1180 0.950 . S
C1204 C1199 1.363 . S
C1204 C1203 1.415 . S
C1205 H1181 0.951 . S
C1205 C1206 1.366 . S
C1205 C1207 1.388 . S
C1206 C1205 1.366 . S
C1206 C1210 1.385 . S
C1207 H1182 0.951 . S
C1207 C1205 1.388 . S
C1207 C1208 1.366 . S
C1208 C1207 1.366 . S
C1208 C1209 1.414 . S
C1208 C1211 1.499 . S
C1209 H1183 0.950 . S
C1209 C1208 1.414 . S
C1209 C1210 1.374 . S
C1210 H1184 0.950 . S
C1210 C1206 1.385 . S
C1210 C1209 1.374 . S
C1211 C1208 1.499 . S
C1211 C1212 1.373 . S
C1211 C1213 1.389 . S
C1212 H1185 0.950 . S
C1212 C1198 1.377 . S
C1212 C1211 1.373 . S
C1213 C1197 1.377 . S
C1213 C1211 1.389 . S
C1213 C1214 1.524 . S
C1214 C1213 1.524 . S
C1214 C1215 1.397 . S
C1214 C1219 1.363 . S
C1215 H1186 0.950 . S
C1215 C1214 1.397 . S
C1215 C1216 1.334 . S
C1216 H1187 0.950 . S
C1216 C1215 1.334 . S
C1216 C1217 1.287 . S
C1217 C1216 1.287 . S
C1217 C1218 1.524 . S
C1217 H1220 0.999 . S
C1218 H1188 0.950 . S
C1218 C1217 1.524 . S
C1218 C1219 1.415 . S
C1219 H1189 0.950 . S
C1219 C1214 1.363 . S
C1219 C1218 1.415 . S
H1220 C1217 0.999 . S
H1221 C1202 0.913 . S
H1222 C1240 0.951 . S
H1223 C1242 0.951 . S
H1224 C1244 0.950 . S
H1225 C1245 0.950 . S
H1226 C1247 0.950 . S
H1227 C1250 0.950 . S
H1228 C1251 0.950 . S
H1229 C1253 0.950 . S
H1230 C1254 0.950 . S
H1231 C1255 0.951 . S
H1232 C1257 0.951 . S
H1233 C1259 0.950 . S
H1234 C1260 0.950 . S
H1235 C1262 0.950 . S
H1236 C1265 0.950 . S
H1237 C1266 0.950 . S
H1238 C1268 0.950 . S
H1239 C1269 0.950 . S
C1240 H1222 0.951 . S
C1240 C1241 1.366 . S
C1240 C1242 1.388 . S
C1241 C1240 1.366 . S
C1241 C1245 1.385 . S
C1242 H1223 0.951 . S
C1242 C1240 1.388 . S
C1242 C1243 1.366 . S
C1243 C1242 1.366 . S
C1243 C1244 1.414 . S
C1243 C1246 1.499 . S
C1244 H1224 0.950 . S
C1244 C1243 1.414 . S
C1244 C1245 1.374 . S
C1245 H1225 0.950 . S
C1245 C1241 1.385 . S
C1245 C1244 1.374 . S
C1246 C1243 1.499 . S
C1246 C1247 1.373 . S
C1246 C1248 1.389 . S
C1247 H1226 0.950 . S
C1247 C1246 1.373 . S
C1247 C1263 1.377 . S
C1248 C1246 1.389 . S
C1248 C1249 1.524 . S
C1248 C1262 1.377 . S
C1249 C1248 1.524 . S
C1249 C1250 1.397 . S
C1249 C1254 1.363 . S
C1250 H1227 0.950 . S
C1250 C1249 1.397 . S
C1250 C1251 1.334 . S
C1251 H1228 0.950 . S
C1251 C1250 1.334 . S
C1251 C1252 1.287 . S
C1252 C1251 1.287 . S
C1252 C1253 1.524 . S
C1252 H1271 0.913 . S
C1253 H1229 0.950 . S
C1253 C1252 1.524 . S
C1253 C1254 1.415 . S
C1254 H1230 0.950 . S
C1254 C1249 1.363 . S
C1254 C1253 1.415 . S
C1255 H1231 0.951 . S
C1255 C1256 1.366 . S
C1255 C1257 1.388 . S
C1256 C1255 1.366 . S
C1256 C1260 1.385 . S
C1257 H1232 0.951 . S
C1257 C1255 1.388 . S
C1257 C1258 1.366 . S
C1258 C1257 1.366 . S
C1258 C1259 1.414 . S
C1258 C1261 1.499 . S
C1259 H1233 0.950 . S
C1259 C1258 1.414 . S
C1259 C1260 1.374 . S
C1260 H1234 0.950 . S
C1260 C1256 1.385 . S
C1260 C1259 1.374 . S
C1261 C1258 1.499 . S
C1261 C1262 1.373 . S
C1261 C1263 1.389 . S
C1262 H1235 0.950 . S
C1262 C1248 1.377 . S
C1262 C1261 1.373 . S
C1263 C1247 1.377 . S
C1263 C1261 1.389 . S
C1263 C1264 1.524 . S
C1264 C1263 1.524 . S
C1264 C1265 1.397 . S
C1264 C1269 1.363 . S
C1265 H1236 0.950 . S
C1265 C1264 1.397 . S
C1265 C1266 1.334 . S
C1266 H1237 0.950 . S
C1266 C1265 1.334 . S
C1266 C1267 1.287 . S
C1267 C1266 1.287 . S
C1267 C1268 1.524 . S
C1267 H1270 0.999 . S
C1268 H1238 0.950 . S
C1268 C1267 1.524 . S
C1268 C1269 1.415 . S
C1269 H1239 0.950 . S
C1269 C1264 1.363 . S
C1269 C1268 1.415 . S
H1270 C1267 0.999 . S
H1271 C1252 0.913 . S
H1272 C1290 0.951 . S
H1273 C1292 0.951 . S
H1274 C1294 0.950 . S
H1275 C1295 0.950 . S
H1276 C1297 0.950 . S
H1277 C1300 0.950 . S
H1278 C1301 0.950 . S
H1279 C1303 0.950 . S
H1280 C1304 0.950 . S
H1281 C1305 0.951 . S
H1282 C1307 0.951 . S
H1283 C1309 0.950 . S
H1284 C1310 0.950 . S
H1285 C1312 0.950 . S
H1286 C1315 0.950 . S
H1287 C1316 0.950 . S
H1288 C1318 0.950 . S
H1289 C1319 0.950 . S
C1290 H1272 0.951 . S
C1290 C1291 1.366 . S
C1290 C1292 1.388 . S
C1291 C1290 1.366 . S
C1291 C1295 1.385 . S
C1292 H1273 0.951 . S
C1292 C1290 1.388 . S
C1292 C1293 1.366 . S
C1293 C1292 1.366 . S
C1293 C1294 1.414 . S
C1293 C1296 1.499 . S
C1294 H1274 0.950 . S
C1294 C1293 1.414 . S
C1294 C1295 1.374 . S
C1295 H1275 0.950 . S
C1295 C1291 1.385 . S
C1295 C1294 1.374 . S
C1296 C1293 1.499 . S
C1296 C1297 1.373 . S
C1296 C1298 1.389 . S
C1297 H1276 0.950 . S
C1297 C1296 1.373 . S
C1297 C1313 1.377 . S
C1298 C1296 1.389 . S
C1298 C1299 1.524 . S
C1298 C1312 1.377 . S
C1299 C1298 1.524 . S
C1299 C1300 1.397 . S
C1299 C1304 1.363 . S
C1300 H1277 0.950 . S
C1300 C1299 1.397 . S
C1300 C1301 1.334 . S
C1301 H1278 0.950 . S
C1301 C1300 1.334 . S
C1301 C1302 1.287 . S
C1302 C1301 1.287 . S
C1302 C1303 1.524 . S
C1302 H1321 0.913 . S
C1303 H1279 0.950 . S
C1303 C1302 1.524 . S
C1303 C1304 1.415 . S
C1304 H1280 0.950 . S
C1304 C1299 1.363 . S
C1304 C1303 1.415 . S
C1305 H1281 0.951 . S
C1305 C1306 1.366 . S
C1305 C1307 1.388 . S
C1306 C1305 1.366 . S
C1306 C1310 1.385 . S
C1307 H1282 0.951 . S
C1307 C1305 1.388 . S
C1307 C1308 1.366 . S
C1308 C1307 1.366 . S
C1308 C1309 1.414 . S
C1308 C1311 1.499 . S
C1309 H1283 0.950 . S
C1309 C1308 1.414 . S
C1309 C1310 1.374 . S
C1310 H1284 0.950 . S
C1310 C1306 1.385 . S
C1310 C1309 1.374 . S
C1311 C1308 1.499 . S
C1311 C1312 1.373 . S
C1311 C1313 1.389 . S
C1312 H1285 0.950 . S
C1312 C1298 1.377 . S
C1312 C1311 1.373 . S
C1313 C1297 1.377 . S
C1313 C1311 1.389 . S
C1313 C1314 1.524 . S
C1314 C1313 1.524 . S
C1314 C1315 1.397 . S
C1314 C1319 1.363 . S
C1315 H1286 0.950 . S
C1315 C1314 1.397 . S
C1315 C1316 1.334 . S
C1316 H1287 0.950 . S
C1316 C1315 1.334 . S
C1316 C1317 1.287 . S
C1317 C1316 1.287 . S
C1317 C1318 1.524 . S
C1317 H1320 0.999 . S
C1318 H1288 0.950 . S
C1318 C1317 1.524 . S
C1318 C1319 1.415 . S
C1319 H1289 0.950 . S
C1319 C1314 1.363 . S
C1319 C1318 1.415 . S
H1320 C1317 0.999 . S
H1321 C1302 0.913 . S
H1322 C1340 0.951 . S
H1323 C1342 0.951 . S
H1324 C1344 0.950 . S
H1325 C1345 0.950 . S
H1326 C1347 0.950 . S
H1327 C1350 0.950 . S
H1328 C1351 0.950 . S
H1329 C1353 0.950 . S
H1330 C1354 0.950 . S
H1331 C1355 0.951 . S
H1332 C1357 0.951 . S
H1333 C1359 0.950 . S
H1334 C1360 0.950 . S
H1335 C1362 0.950 . S
H1336 C1365 0.950 . S
H1337 C1366 0.950 . S
H1338 C1368 0.950 . S
H1339 C1369 0.950 . S
C1340 H1322 0.951 . S
C1340 C1341 1.366 . S
C1340 C1342 1.388 . S
C1341 C1340 1.366 . S
C1341 C1345 1.385 . S
C1342 H1323 0.951 . S
C1342 C1340 1.388 . S
C1342 C1343 1.366 . S
C1343 C1342 1.366 . S
C1343 C1344 1.414 . S
C1343 C1346 1.499 . S
C1344 H1324 0.950 . S
C1344 C1343 1.414 . S
C1344 C1345 1.374 . S
C1345 H1325 0.950 . S
C1345 C1341 1.385 . S
C1345 C1344 1.374 . S
C1346 C1343 1.499 . S
C1346 C1347 1.373 . S
C1346 C1348 1.389 . S
C1347 H1326 0.950 . S
C1347 C1346 1.373 . S
C1347 C1363 1.377 . S
C1348 C1346 1.389 . S
C1348 C1349 1.524 . S
C1348 C1362 1.377 . S
C1349 C1348 1.524 . S
C1349 C1350 1.397 . S
C1349 C1354 1.363 . S
C1350 H1327 0.950 . S
C1350 C1349 1.397 . S
C1350 C1351 1.334 . S
C1351 H1328 0.950 . S
C1351 C1350 1.334 . S
C1351 C1352 1.287 . S
C1352 C1351 1.287 . S
C1352 C1353 1.524 . S
C1352 H1371 0.913 . S
C1353 H1329 0.950 . S
C1353 C1352 1.524 . S
C1353 C1354 1.415 . S
C1354 H1330 0.950 . S
C1354 C1349 1.363 . S
C1354 C1353 1.415 . S
C1355 H1331 0.951 . S
C1355 C1356 1.366 . S
C1355 C1357 1.388 . S
C1356 C1355 1.366 . S
C1356 C1360 1.385 . S
C1357 H1332 0.951 . S
C1357 C1355 1.388 . S
C1357 C1358 1.366 . S
C1358 C1357 1.366 . S
C1358 C1359 1.414 . S
C1358 C1361 1.499 . S
C1359 H1333 0.950 . S
C1359 C1358 1.414 . S
C1359 C1360 1.374 . S
C1360 H1334 0.950 . S
C1360 C1356 1.385 . S
C1360 C1359 1.374 . S
C1361 C1358 1.499 . S
C1361 C1362 1.373 . S
C1361 C1363 1.389 . S
C1362 H1335 0.950 . S
C1362 C1348 1.377 . S
C1362 C1361 1.373 . S
C1363 C1347 1.377 . S
C1363 C1361 1.389 . S
C1363 C1364 1.524 . S
C1364 C1363 1.524 . S
C1364 C1365 1.397 . S
C1364 C1369 1.363 . S
C1365 H1336 0.950 . S
C1365 C1364 1.397 . S
C1365 C1366 1.334 . S
C1366 H1337 0.950 . S
C1366 C1365 1.334 . S
C1366 C1367 1.287 . S
C1367 C1366 1.287 . S
C1367 C1368 1.524 . S
C1367 H1370 0.999 . S
C1368 H1338 0.950 . S
C1368 C1367 1.524 . S
C1368 C1369 1.415 . S
C1369 H1339 0.950 . S
C1369 C1364 1.363 . S
C1369 C1368 1.415 . S
H1370 C1367 0.999 . S
H1371 C1352 0.913 . S
H1372 C1390 0.951 . S
H1373 C1392 0.951 . S
H1374 C1394 0.950 . S
H1375 C1395 0.950 . S
H1376 C1397 0.950 . S
H1377 C1400 0.950 . S
H1378 C1401 0.950 . S
H1379 C1403 0.950 . S
H1380 C1404 0.950 . S
H1381 C1405 0.951 . S
H1382 C1407 0.951 . S
H1383 C1409 0.950 . S
H1384 C1410 0.950 . S
H1385 C1412 0.950 . S
H1386 C1415 0.950 . S
H1387 C1416 0.950 . S
H1388 C1418 0.950 . S
H1389 C1419 0.950 . S
C1390 H1372 0.951 . S
C1390 C1391 1.366 . S
C1390 C1392 1.388 1_556 S
C1391 C1390 1.366 . S
C1391 C1395 1.385 . S
C1392 H1373 0.951 . S
C1392 C1390 1.388 1_554 S
C1392 C1393 1.366 . S
C1393 C1392 1.366 . S
C1393 C1394 1.414 . S
C1393 C1396 1.499 . S
C1394 H1374 0.950 . S
C1394 C1393 1.414 . S
C1394 C1395 1.374 1_554 S
C1395 H1375 0.950 . S
C1395 C1391 1.385 . S
C1395 C1394 1.374 1_556 S
C1396 C1393 1.499 . S
C1396 C1397 1.373 . S
C1396 C1398 1.389 . S
C1397 H1376 0.950 . S
C1397 C1396 1.373 . S
C1397 C1413 1.377 . S
C1398 C1396 1.389 . S
C1398 C1399 1.524 . S
C1398 C1412 1.377 . S
C1399 C1398 1.524 . S
C1399 C1400 1.397 . S
C1399 C1404 1.363 . S
C1400 H1377 0.950 . S
C1400 C1399 1.397 . S
C1400 C1401 1.334 . S
C1401 H1378 0.950 . S
C1401 C1400 1.334 . S
C1401 C1402 1.287 . S
C1402 C1401 1.287 . S
C1402 C1403 1.524 . S
C1402 H1421 0.913 . S
C1403 H1379 0.950 . S
C1403 C1402 1.524 . S
C1403 C1404 1.415 . S
C1404 H1380 0.950 . S
C1404 C1399 1.363 . S
C1404 C1403 1.415 . S
C1405 H1381 0.951 . S
C1405 C1406 1.366 . S
C1405 C1407 1.388 . S
C1406 C1405 1.366 . S
C1406 C1410 1.385 . S
C1407 H1382 0.951 . S
C1407 C1405 1.388 . S
C1407 C1408 1.366 . S
C1408 C1407 1.366 . S
C1408 C1409 1.414 . S
C1408 C1411 1.499 . S
C1409 H1383 0.950 . S
C1409 C1408 1.414 . S
C1409 C1410 1.374 . S
C1410 H1384 0.950 . S
C1410 C1406 1.385 . S
C1410 C1409 1.374 . S
C1411 C1408 1.499 . S
C1411 C1412 1.373 . S
C1411 C1413 1.389 . S
C1412 H1385 0.950 . S
C1412 C1398 1.377 . S
C1412 C1411 1.373 . S
C1413 C1397 1.377 . S
C1413 C1411 1.389 . S
C1413 C1414 1.524 . S
C1414 C1413 1.524 . S
C1414 C1415 1.397 . S
C1414 C1419 1.363 . S
C1415 H1386 0.950 . S
C1415 C1414 1.397 . S
C1415 C1416 1.334 . S
C1416 H1387 0.950 . S
C1416 C1415 1.334 . S
C1416 C1417 1.287 . S
C1417 C1416 1.287 . S
C1417 C1418 1.524 . S
C1417 H1420 0.999 . S
C1418 H1388 0.950 . S
C1418 C1417 1.524 . S
C1418 C1419 1.415 . S
C1419 H1389 0.950 . S
C1419 C1414 1.363 . S
C1419 C1418 1.415 . S
H1420 C1417 0.999 . S
H1421 C1402 0.913 . S
H1422 C1440 0.951 . S
H1423 C1442 0.951 . S
H1424 C1444 0.950 . S
H1425 C1445 0.950 . S
H1426 C1447 0.950 . S
H1427 C1450 0.950 . S
H1428 C1451 0.950 . S
H1429 C1453 0.950 . S
H1430 C1454 0.950 . S
H1431 C1455 0.951 . S
H1432 C1457 0.951 . S
H1433 C1459 0.950 . S
H1434 C1460 0.950 . S
H1435 C1462 0.950 . S
H1436 C1465 0.950 . S
H1437 C1466 0.950 . S
H1438 C1468 0.950 . S
H1439 C1469 0.950 . S
C1440 H1422 0.951 . S
C1440 C1441 1.366 . S
C1440 C1442 1.388 . S
C1441 C1440 1.366 . S
C1441 C1445 1.385 . S
C1442 H1423 0.951 . S
C1442 C1440 1.388 . S
C1442 C1443 1.366 . S
C1443 C1442 1.366 . S
C1443 C1444 1.414 . S
C1443 C1446 1.499 . S
C1444 H1424 0.950 . S
C1444 C1443 1.414 . S
C1444 C1445 1.374 . S
C1445 H1425 0.950 . S
C1445 C1441 1.385 . S
C1445 C1444 1.374 . S
C1446 C1443 1.499 . S
C1446 C1447 1.373 . S
C1446 C1448 1.389 . S
C1447 H1426 0.950 . S
C1447 C1446 1.373 . S
C1447 C1463 1.377 . S
C1448 C1446 1.389 . S
C1448 C1449 1.524 . S
C1448 C1462 1.377 . S
C1449 C1448 1.524 . S
C1449 C1450 1.397 . S
C1449 C1454 1.363 . S
C1450 H1427 0.950 . S
C1450 C1449 1.397 . S
C1450 C1451 1.334 . S
C1451 H1428 0.950 . S
C1451 C1450 1.334 . S
C1451 C1452 1.287 . S
C1452 C1451 1.287 . S
C1452 C1453 1.524 . S
C1452 H1471 0.913 . S
C1453 H1429 0.950 . S
C1453 C1452 1.524 . S
C1453 C1454 1.415 . S
C1454 H1430 0.950 . S
C1454 C1449 1.363 . S
C1454 C1453 1.415 . S
C1455 H1431 0.951 . S
C1455 C1456 1.366 . S
C1455 C1457 1.388 . S
C1456 C1455 1.366 . S
C1456 C1460 1.385 . S
C1457 H1432 0.951 . S
C1457 C1455 1.388 . S
C1457 C1458 1.366 . S
C1458 C1457 1.366 . S
C1458 C1459 1.414 . S
C1458 C1461 1.499 . S
C1459 H1433 0.950 . S
C1459 C1458 1.414 . S
C1459 C1460 1.374 . S
C1460 H1434 0.950 . S
C1460 C1456 1.385 . S
C1460 C1459 1.374 . S
C1461 C1458 1.499 . S
C1461 C1462 1.373 . S
C1461 C1463 1.389 . S
C1462 H1435 0.950 . S
C1462 C1448 1.377 . S
C1462 C1461 1.373 . S
C1463 C1447 1.377 . S
C1463 C1461 1.389 . S
C1463 C1464 1.524 . S
C1464 C1463 1.524 . S
C1464 C1465 1.397 . S
C1464 C1469 1.363 . S
C1465 H1436 0.950 . S
C1465 C1464 1.397 . S
C1465 C1466 1.334 . S
C1466 H1437 0.950 . S
C1466 C1465 1.334 . S
C1466 C1467 1.287 . S
C1467 C1466 1.287 . S
C1467 C1468 1.524 . S
C1467 H1470 0.999 . S
C1468 H1438 0.950 . S
C1468 C1467 1.524 . S
C1468 C1469 1.415 . S
C1469 H1439 0.950 . S
C1469 C1464 1.363 . S
C1469 C1468 1.415 . S
H1470 C1467 0.999 . S
H1471 C1452 0.913 . S
H1472 C1490 0.951 . S
H1473 C1492 0.951 . S
H1474 C1494 0.950 . S
H1475 C1495 0.950 . S
H1476 C1497 0.950 . S
H1477 C1500 0.950 . S
H1478 C1501 0.950 . S
H1479 C1503 0.950 . S
H1480 C1504 0.950 . S
H1481 C1505 0.951 . S
H1482 C1507 0.951 . S
H1483 C1509 0.950 . S
H1484 C1510 0.950 . S
H1485 C1512 0.950 . S
H1486 C1515 0.950 . S
H1487 C1516 0.950 . S
H1488 C1518 0.950 . S
H1489 C1519 0.950 . S
C1490 H1472 0.951 . S
C1490 C1491 1.366 . S
C1490 C1492 1.388 . S
C1491 C1490 1.366 . S
C1491 C1495 1.385 . S
C1492 H1473 0.951 . S
C1492 C1490 1.388 . S
C1492 C1493 1.366 . S
C1493 C1492 1.366 . S
C1493 C1494 1.414 . S
C1493 C1496 1.499 . S
C1494 H1474 0.950 . S
C1494 C1493 1.414 . S
C1494 C1495 1.374 . S
C1495 H1475 0.950 . S
C1495 C1491 1.385 . S
C1495 C1494 1.374 . S
C1496 C1493 1.499 . S
C1496 C1497 1.373 . S
C1496 C1498 1.389 . S
C1497 H1476 0.950 . S
C1497 C1496 1.373 . S
C1497 C1513 1.377 . S
C1498 C1496 1.389 . S
C1498 C1499 1.524 . S
C1498 C1512 1.377 . S
C1499 C1498 1.524 . S
C1499 C1500 1.397 . S
C1499 C1504 1.363 . S
C1500 H1477 0.950 . S
C1500 C1499 1.397 . S
C1500 C1501 1.334 . S
C1501 H1478 0.950 . S
C1501 C1500 1.334 . S
C1501 C1502 1.287 . S
C1502 C1501 1.287 . S
C1502 C1503 1.524 . S
C1502 H1521 0.913 . S
C1503 H1479 0.950 . S
C1503 C1502 1.524 . S
C1503 C1504 1.415 . S
C1504 H1480 0.950 . S
C1504 C1499 1.363 . S
C1504 C1503 1.415 . S
C1505 H1481 0.951 . S
C1505 C1506 1.366 . S
C1505 C1507 1.388 . S
C1506 C1505 1.366 . S
C1506 C1510 1.385 . S
C1507 H1482 0.951 . S
C1507 C1505 1.388 . S
C1507 C1508 1.366 . S
C1508 C1507 1.366 . S
C1508 C1509 1.414 . S
C1508 C1511 1.499 . S
C1509 H1483 0.950 . S
C1509 C1508 1.414 . S
C1509 C1510 1.374 . S
C1510 H1484 0.950 . S
C1510 C1506 1.385 . S
C1510 C1509 1.374 . S
C1511 C1508 1.499 . S
C1511 C1512 1.373 . S
C1511 C1513 1.389 . S
C1512 H1485 0.950 . S
C1512 C1498 1.377 . S
C1512 C1511 1.373 . S
C1513 C1497 1.377 . S
C1513 C1511 1.389 . S
C1513 C1514 1.524 . S
C1514 C1513 1.524 . S
C1514 C1515 1.397 . S
C1514 C1519 1.363 . S
C1515 H1486 0.950 . S
C1515 C1514 1.397 . S
C1515 C1516 1.334 . S
C1516 H1487 0.950 . S
C1516 C1515 1.334 . S
C1516 C1517 1.287 . S
C1517 C1516 1.287 . S
C1517 C1518 1.524 . S
C1517 H1520 0.999 . S
C1518 H1488 0.950 . S
C1518 C1517 1.524 . S
C1518 C1519 1.415 . S
C1519 H1489 0.950 . S
C1519 C1514 1.363 . S
C1519 C1518 1.415 . S
H1520 C1517 0.999 . S
H1521 C1502 0.913 . S
H1522 C1540 0.951 . S
H1523 C1542 0.951 . S
H1524 C1544 0.950 . S
H1525 C1545 0.950 . S
H1526 C1547 0.950 . S
H1527 C1550 0.950 . S
H1528 C1551 0.950 . S
H1529 C1553 0.950 . S
H1530 C1554 0.950 . S
H1531 C1555 0.951 . S
H1532 C1557 0.951 . S
H1533 C1559 0.950 . S
H1534 C1560 0.950 . S
H1535 C1562 0.950 . S
H1536 C1565 0.950 . S
H1537 C1566 0.950 . S
H1538 C1568 0.950 . S
H1539 C1569 0.950 . S
C1540 H1522 0.951 . S
C1540 C1541 1.366 . S
C1540 C1542 1.388 . S
C1541 C1540 1.366 . S
C1541 C1545 1.385 . S
C1542 H1523 0.951 . S
C1542 C1540 1.388 . S
C1542 C1543 1.366 . S
C1543 C1542 1.366 . S
C1543 C1544 1.414 . S
C1543 C1546 1.499 . S
C1544 H1524 0.950 . S
C1544 C1543 1.414 . S
C1544 C1545 1.374 . S
C1545 H1525 0.950 . S
C1545 C1541 1.385 . S
C1545 C1544 1.374 . S
C1546 C1543 1.499 . S
C1546 C1547 1.373 . S
C1546 C1548 1.389 . S
C1547 H1526 0.950 . S
C1547 C1546 1.373 . S
C1547 C1563 1.377 . S
C1548 C1546 1.389 . S
C1548 C1549 1.524 . S
C1548 C1562 1.377 . S
C1549 C1548 1.524 . S
C1549 C1550 1.397 . S
C1549 C1554 1.363 . S
C1550 H1527 0.950 . S
C1550 C1549 1.397 . S
C1550 C1551 1.334 . S
C1551 H1528 0.950 . S
C1551 C1550 1.334 . S
C1551 C1552 1.287 . S
C1552 C1551 1.287 . S
C1552 C1553 1.524 . S
C1552 H1571 0.913 . S
C1553 H1529 0.950 . S
C1553 C1552 1.524 . S
C1553 C1554 1.415 . S
C1554 H1530 0.950 . S
C1554 C1549 1.363 . S
C1554 C1553 1.415 . S
C1555 H1531 0.951 . S
C1555 C1556 1.366 . S
C1555 C1557 1.388 . S
C1556 C1555 1.366 . S
C1556 C1560 1.385 . S
C1557 H1532 0.951 . S
C1557 C1555 1.388 . S
C1557 C1558 1.366 . S
C1558 C1557 1.366 . S
C1558 C1559 1.414 . S
C1558 C1561 1.499 . S
C1559 H1533 0.950 . S
C1559 C1558 1.414 . S
C1559 C1560 1.374 . S
C1560 H1534 0.950 . S
C1560 C1556 1.385 . S
C1560 C1559 1.374 . S
C1561 C1558 1.499 . S
C1561 C1562 1.373 . S
C1561 C1563 1.389 . S
C1562 H1535 0.950 . S
C1562 C1548 1.377 . S
C1562 C1561 1.373 . S
C1563 C1547 1.377 . S
C1563 C1561 1.389 . S
C1563 C1564 1.524 . S
C1564 C1563 1.524 . S
C1564 C1565 1.397 . S
C1564 C1569 1.363 . S
C1565 H1536 0.950 . S
C1565 C1564 1.397 . S
C1565 C1566 1.334 . S
C1566 H1537 0.950 . S
C1566 C1565 1.334 . S
C1566 C1567 1.287 . S
C1567 C1566 1.287 . S
C1567 C1568 1.524 . S
C1567 H1570 0.999 . S
C1568 H1538 0.950 . S
C1568 C1567 1.524 . S
C1568 C1569 1.415 . S
C1569 H1539 0.950 . S
C1569 C1564 1.363 . S
C1569 C1568 1.415 . S
H1570 C1567 0.999 . S
H1571 C1552 0.913 . S
C406 C295 1.515 . S
C391 C1 1.660 . S
C456 C313 1.266 . S
C441 C61 1.338 1_655 S
C491 C97 1.336 . S
C506 C337 1.241 . S
C556 C367 1.270 . S
C541 C109 1.411 . S
C606 C355 1.251 . S
C591 C145 1.343 . S
C641 C205 1.349 . S
C656 C308 1.285 . S
C691 C241 1.598 . S
C706 C328 1.503 . S
C741 C253 1.410 1_655 S
C756 C333 1.268 . S
C791 C277 1.338 . S
C806 C349 1.273 . S
C841 C181 1.413 . S
C856 C304 1.267 . S
C906 C371 1.272 . S
C891 C133 1.337 . S
C956 C316 1.268 . S
C941 C37 1.417 . S
C991 C73 1.654 . S
C1006 C334 1.510 . S
C1041 C25 1.350 . S
C1056 C292 1.252 . S
C1106 C312 1.240 . S
C1091 C217 1.325 . S
C1156 C358 1.516 . S
C1141 C169 1.619 . S
C1206 C354 1.319 . S
C1191 C31 1.493 . S
C1256 C307 1.318 . S
C1241 C67 1.405 . S
C1291 C103 1.473 . S
C1306 C329 1.297 . S
C1341 C139 1.430 . S
C1356 C350 1.340 . S
C1406 C291 1.319 . S
C1391 C175 1.471 . S
C1441 C211 1.456 . S
C1456 C325 1.366 . S
C1506 C346 1.337 . S
C1491 C247 1.491 . S
C1556 C370 1.341 . S
C1541 C283 1.430 . S
