# Generated by pormake.
# Topology anh, (6,3)-cn, num edge types: 1
# Building blocks:
#     Node 0, Type 0, BuildingBlock: BETDAH_clean_sbu_0, # of connection points: 6
#     Node 1, Type 0, BuildingBlock: BETDAH_clean_sbu_0, # of connection points: 6
#     Node 2, Type 0, BuildingBlock: BETDAH_clean_sbu_0, # of connection points: 6
#     Node 3, Type 1, BuildingBlock: QEWDON_clean_linker_0, # of connection points: 3
#     Node 4, Type 1, BuildingBlock: QEWDON_clean_linker_0, # of connection points: 3
#     Node 5, Type 1, BuildingBlock: QEWDON_clean_linker_0, # of connection points: 3
#     Node 6, Type 1, BuildingBlock: QEWDON_clean_linker_0, # of connection points: 3
#     Node 7, Type 1, BuildingBlock: QEWDON_clean_linker_0, # of connection points: 3
#     Node 8, Type 1, BuildingBlock: QEWDON_clean_linker_0, # of connection points: 3
#     Edge 9, Type (0, 1), BuildingBlock: EZIPEK_clean_linker_0, # of connection points: 2
#     Edge 10, Type (0, 1), BuildingBlock: EZIPEK_clean_linker_0, # of connection points: 2
#     Edge 11, Type (0, 1), BuildingBlock: EZIPEK_clean_linker_0, # of connection points: 2
#     Edge 12, Type (0, 1), BuildingBlock: EZIPEK_clean_linker_0, # of connection points: 2
#     Edge 13, Type (0, 1), BuildingBlock: EZIPEK_clean_linker_0, # of connection points: 2
#     Edge 14, Type (0, 1), BuildingBlock: EZIPEK_clean_linker_0, # of connection points: 2
#     Edge 15, Type (0, 1), BuildingBlock: EZIPEK_clean_linker_0, # of connection points: 2
#     Edge 16, Type (0, 1), BuildingBlock: EZIPEK_clean_linker_0, # of connection points: 2
#     Edge 17, Type (0, 1), BuildingBlock: EZIPEK_clean_linker_0, # of connection points: 2
#     Edge 18, Type (0, 1), BuildingBlock: EZIPEK_clean_linker_0, # of connection points: 2
#     Edge 19, Type (0, 1), BuildingBlock: EZIPEK_clean_linker_0, # of connection points: 2
#     Edge 20, Type (0, 1), BuildingBlock: EZIPEK_clean_linker_0, # of connection points: 2
#     Edge 21, Type (0, 1), BuildingBlock: EZIPEK_clean_linker_0, # of connection points: 2
#     Edge 22, Type (0, 1), BuildingBlock: EZIPEK_clean_linker_0, # of connection points: 2
#     Edge 23, Type (0, 1), BuildingBlock: EZIPEK_clean_linker_0, # of connection points: 2
#     Edge 24, Type (0, 1), BuildingBlock: EZIPEK_clean_linker_0, # of connection points: 2
#     Edge 25, Type (0, 1), BuildingBlock: EZIPEK_clean_linker_0, # of connection points: 2
#     Edge 26, Type (0, 1), BuildingBlock: EZIPEK_clean_linker_0, # of connection points: 2
# Relax obj value: 0.189
# Max RMSD: 0.204
# Mean RMSD: 0.129
data_MOF--net-anh--node1-BETDAH_clean_sbu_0--node2-QEWDON_clean_linker_0--edge1-EZIPEK_clean_linker_0
_symmetry_space_group_name_H-M    P1
_symmetry_Int_Tables_number       1
_symmetry_cell_setting            triclinic
loop_
_symmetry_equiv_pos_as_xyz
'x, y, z'
_cell_length_a     26.207434
_cell_length_b     31.314339
_cell_length_c     35.372106
_cell_angle_alpha  96.191301
_cell_angle_beta   92.968638
_cell_angle_gamma 132.0713
loop_
_atom_site_label
_atom_site_type_symbol
_atom_site_fract_x
_atom_site_fract_y
_atom_site_fract_z
_atom_type_partial_charge
Ho0 Ho 0.10899 0.50072 0.14609 0.0
Ho1 Ho 1.02343 0.52972 0.15963 0.0
C2 C 0.18939 0.64034 0.1604 0.0
C3 C 0.19364 0.49393 0.12029 0.0
C4 C 0.25964 0.53937 0.10717 0.0
C5 C 0.26497 0.57538 0.0837 0.0
C6 C 0.33035 0.62847 0.08064 0.0
C7 C 0.39068 0.64626 0.10133 0.0
C8 C 0.3856 0.60807 0.12203 0.0
C9 C 0.32048 0.55483 0.1248 0.0
C10 C 0.08783 0.50622 0.22009 0.0
C11 C 0.94472 0.39228 0.14812 0.0
C12 C 0.96629 0.566 0.18692 0.0
C13 C 0.89821 0.54778 0.18879 0.0
C14 C 0.87117 0.53559 0.2235 0.0
C15 C 0.81715 0.53349 0.22915 0.0
C16 C 0.79091 0.54477 0.20041 0.0
C17 C 0.81251 0.55033 0.16432 0.0
C18 C 0.86583 0.55195 0.15853 0.0
C19 C 1.02052 0.49919 0.08369 0.0
O20 O 0.19473 0.60101 0.15255 0.0
O21 O 0.12838 0.62304 0.16496 0.0
O22 O 0.19497 0.50609 0.15707 0.0
O23 O 0.13631 0.47314 0.09887 0.0
O24 O 0.08865 0.46826 0.20234 0.0
O25 O 0.10088 0.54025 0.19796 0.0
O26 O 0.94569 0.43304 0.16462 0.0
O27 O 0.99947 0.40825 0.1329 0.0
O28 O 0.98864 0.57497 0.15383 0.0
O29 O 0.98103 0.54112 0.20605 0.0
O30 O 0.96686 0.48396 0.098 0.0
O31 O 0.07207 0.53081 0.11048 0.0
H32 H 0.21879 0.56458 0.06985 0.0
H33 H 0.33387 0.65704 0.0639 0.0
H34 H 0.43196 0.62119 0.13802 0.0
H35 H 0.31754 0.52795 0.14321 0.0
H36 H 0.89509 0.53197 0.24727 0.0
H37 H 0.80036 0.52834 0.25699 0.0
H38 H 0.79254 0.55886 0.1417 0.0
H39 H 0.88506 0.561 0.13139 0.0
Ho40 Ho 0.65941 0.04739 0.48154 0.0
Ho41 Ho 0.5655 0.06783 0.46804 0.0
C42 C 0.48814 0.93257 0.46538 0.0
C43 C 0.71942 0.01558 0.51071 0.0
C44 C 0.69731 0.9585 0.51134 0.0
C45 C 0.63672 0.90765 0.48703 0.0
C46 C 0.61386 0.85304 0.48908 0.0
C47 C 0.65164 0.8487 0.51521 0.0
C48 C 0.71264 0.89951 0.53924 0.0
C49 C 0.73522 0.9542 0.5374 0.0
C50 C 0.62838 0.04298 0.40654 0.0
C51 C 0.73608 0.18044 0.47737 0.0
C52 C 0.50275 0.10094 0.44629 0.0
C53 C 0.51338 0.15277 0.46012 0.0
C54 C 0.49357 0.1728 0.43493 0.0
C55 C 0.50146 0.22093 0.44839 0.0
C56 C 0.52862 0.24904 0.48728 0.0
C57 C 0.54987 0.22982 0.51226 0.0
C58 C 0.54283 0.18228 0.49871 0.0
C59 C 0.6008 0.07534 0.54344 0.0
O60 O 0.55185 0.95433 0.47728 0.0
O61 O 0.48076 0.96834 0.45613 0.0
O62 O 0.72698 0.03083 0.47699 0.0
O63 O 0.68633 0.02578 0.53011 0.0
O64 O 0.68793 0.06288 0.42281 0.0
O65 O 0.58581 0.02187 0.43011 0.0
O66 O 0.67206 0.15817 0.46567 0.0
O67 O 0.74496 0.14667 0.48923 0.0
O68 O 0.48126 0.06513 0.47029 0.0
O69 O 0.55214 0.1105 0.42979 0.0
O70 O 0.54098 0.05529 0.52812 0.0
O71 O 0.6407 0.09476 0.5187 0.0
H72 H 0.60696 0.91011 0.4666 0.0
H73 H 0.56671 0.81413 0.47034 0.0
H74 H 0.74225 0.89667 0.55953 0.0
H75 H 0.78192 0.99303 0.55646 0.0
H76 H 0.47131 0.15083 0.40502 0.0
H77 H 0.485 0.23545 0.4288 0.0
H78 H 0.57125 0.25131 0.54228 0.0
H79 H 0.55939 0.16799 0.51849 0.0
Ho80 Ho 0.67751 0.60918 0.84562 0.0
Ho81 Ho 0.58069 0.48603 0.84904 0.0
C82 C 0.50797 0.54477 0.84993 0.0
C83 C 0.75221 0.70868 0.82327 0.0
C84 C 0.7455 0.75184 0.82062 0.0
C85 C 0.68288 0.73386 0.80272 0.0
C86 C 0.67765 0.77494 0.79906 0.0
C87 C 0.73468 0.83483 0.81343 0.0
C88 C 0.79712 0.85294 0.83149 0.0
C89 C 0.80249 0.81181 0.835 0.0
C90 C 0.64554 0.58938 0.91689 0.0
C91 C 0.75201 0.55157 0.84994 0.0
C92 C 0.52066 0.3809 0.85845 0.0
C93 C 0.53972 0.34598 0.85079 0.0
C94 C 0.51001 0.297 0.86791 0.0
C95 C 0.52384 0.26128 0.85803 0.0
C96 C 0.56777 0.27424 0.83098 0.0
C97 C 0.59863 0.32391 0.81459 0.0
C98 C 0.58437 0.35913 0.82415 0.0
C99 C 0.58102 0.50809 0.77719 0.0
O100 O 0.57008 0.58813 0.83922 0.0
O101 O 0.5032 0.50146 0.85981 0.0
O102 O 0.76595 0.70371 0.85786 0.0
O103 O 0.7055 0.65786 0.7999 0.0
O104 O 0.65362 0.62857 0.90116 0.0
O105 O 0.65747 0.56394 0.8944 0.0
O106 O 0.68373 0.50183 0.84596 0.0
O107 O 0.76308 0.60101 0.85209 0.0
O108 O 0.50545 0.39249 0.8279 0.0
O109 O 0.55999 0.4266 0.88653 0.0
O110 O 0.52518 0.46896 0.79071 0.0
O111 O 0.63333 0.53289 0.80243 0.0
H112 H 0.63796 0.68804 0.79123 0.0
H113 H 0.62905 0.76002 0.78503 0.0
H114 H 0.84175 0.89898 0.84276 0.0
H115 H 0.85131 0.82688 0.84876 0.0
H116 H 0.47504 0.28571 0.88828 0.0
H117 H 0.49962 0.22316 0.87105 0.0
H118 H 0.63264 0.33468 0.79368 0.0
H119 H 0.60697 0.39586 0.8099 0.0
H120 H 0.61987 0.05813 0.22808 0.0
C121 C 0.57396 0.01297 0.21559 0.0
C122 C 0.54073 0.97217 0.24022 0.0
C123 C 0.54523 0.99746 0.17641 0.0
H124 H 0.45576 0.88287 0.24494 0.0
C125 C 0.48011 0.91356 0.22538 0.0
C126 C 0.44797 0.89446 0.18663 0.0
C127 C 0.48116 0.93719 0.16219 0.0
C128 C 0.57773 0.0462 0.15273 0.0
H129 H 0.45639 0.92338 0.13246 0.0
C130 C 0.65049 0.10045 0.16013 0.0
C131 C 0.67617 0.14714 0.13964 0.0
C132 C 0.53334 0.04059 0.12408 0.0
H133 H 0.47809 1.00208 0.11781 0.0
C134 C 0.55813 0.08552 0.104 0.0
H135 H 0.68694 0.10661 0.18155 0.0
C136 C 0.62791 0.1379 0.11181 0.0
H137 H 0.6445 0.1718 0.09578 0.0
H138 H 0.52236 0.07999 0.08241 0.0
H139 H 0.54862 0.55502 0.6032 0.0
C140 C 0.54902 0.52272 0.58921 0.0
C141 C 0.56079 0.49499 0.61195 0.0
C142 C 0.53306 0.50578 0.54872 0.0
H143 H 0.56803 0.43015 0.61125 0.0
C144 C 0.55976 0.45219 0.59393 0.0
C145 C 0.546 0.43632 0.55371 0.0
C146 C 0.5326 0.46296 0.53125 0.0
C147 C 0.51238 0.52958 0.52461 0.0
H148 H 0.52103 0.44967 0.50011 0.0
C149 C 0.54887 0.58972 0.53157 0.0
C150 C 0.52902 0.61137 0.50799 0.0
C151 C 0.45522 0.49162 0.49422 0.0
H152 H 0.42521 0.44498 0.4886 0.0
C153 C 0.43548 0.51325 0.471 0.0
H154 H 0.59324 0.6198 0.55468 0.0
C155 C 0.4723 0.57289 0.47773 0.0
H156 H 0.45653 0.58913 0.45941 0.0
H157 H 0.39145 0.48365 0.44773 0.0
H158 H 0.1286 0.53575 0.92002 0.0
C159 C 0.09474 0.53905 0.90484 0.0
C160 C 1.04674 0.53529 0.92493 0.0
C161 C 0.09883 0.54512 0.86604 0.0
H162 H 0.96541 0.53597 0.92521 0.0
C163 C 1.00006 0.53892 0.90767 0.0
C164 C 0.99529 0.5455 0.86928 0.0
C165 C 1.04688 0.54851 0.84837 0.0
C166 C 0.15462 0.54435 0.84608 0.0
H167 H 1.04586 0.55284 0.81852 0.0
C168 C 0.2124 0.54714 0.86335 0.0
C169 C 0.25817 0.54405 0.84016 0.0
C170 C 0.14723 0.53809 0.80588 0.0
H171 H 0.10817 0.5351 0.79015 0.0
C172 C 0.18754 0.53396 0.78417 0.0
H173 H 0.2223 0.55242 0.89431 0.0
C174 C 0.23976 0.53644 0.80034 0.0
H175 H 0.26721 0.53259 0.78052 0.0
H176 H 0.17775 0.52844 0.75312 0.0
H177 H 0.08284 0.50635 0.39987 0.0
C178 C 0.12386 0.5527 0.41165 0.0
C179 C 0.16244 0.59029 0.38591 0.0
C180 C 0.13807 0.57408 0.45153 0.0
H181 H 0.24864 0.67832 0.37927 0.0
C182 C 0.21886 0.65037 0.39969 0.0
C183 C 0.23673 0.67516 0.43904 0.0
C184 C 0.19499 0.63662 0.46482 0.0
C185 C 0.09527 0.53047 0.4785 0.0
H186 H 0.20718 0.65598 0.49488 0.0
C187 C 1.02815 0.47134 0.46572 0.0
C188 C 0.99262 0.43135 0.49176 0.0
C189 C 0.12368 0.54706 0.5179 0.0
H190 H 0.17454 0.58965 0.5295 0.0
C191 C 0.08836 0.50854 0.54338 0.0
H192 H 1.0029 0.4559 0.436 0.0
C193 C 1.02403 0.45167 0.53058 0.0
H194 H 0.99879 0.4229 0.55121 0.0
H195 H 0.11178 0.52276 0.57348 0.0
H196 H 0.6949 0.0665 0.71818 0.0
C197 C 0.67774 0.08652 0.73217 0.0
C198 C 0.65174 0.10471 0.7097 0.0
C199 C 0.68415 0.09643 0.77267 0.0
H200 H 0.61343 0.14789 0.71045 0.0
C201 C 0.63235 0.13306 0.72779 0.0
C202 C 0.63659 0.14196 0.768 0.0
C203 C 0.66128 0.12254 0.7901 0.0
C204 C 0.72021 0.08481 0.79734 0.0
H205 H 0.66451 0.12945 0.82115 0.0
C206 C 0.70703 0.03262 0.789 0.0
C207 C 0.74207 0.0235 0.81352 0.0
C208 C 0.76963 0.12753 0.82988 0.0
H209 H 0.78218 0.16853 0.83667 0.0
C210 C 0.80434 0.1185 0.85382 0.0
H211 H 0.66915 0.99902 0.76419 0.0
C212 C 0.79055 0.06681 0.84582 0.0
H213 H 0.81786 0.0605 0.86489 0.0
H214 H 0.84217 0.15179 0.87872 0.0
H215 H 0.70313 0.72413 0.0712 0.0
C216 C 0.70644 0.70376 0.09292 0.0
C217 C 0.69879 0.65535 0.08151 0.0
C218 C 0.71784 0.72577 0.13216 0.0
H219 H 0.69997 0.59306 0.10045 0.0
C220 C 0.70404 0.62961 0.10945 0.0
C221 C 0.71474 0.6509 0.14887 0.0
C222 C 0.71967 0.69814 0.16009 0.0
C223 C 0.72261 0.77508 0.14316 0.0
H224 H 0.72628 0.71396 0.1904 0.0
C225 C 0.66391 0.76651 0.13287 0.0
C226 C 0.66727 0.81331 0.13907 0.0
C227 C 0.7855 0.831 0.16098 0.0
H228 H 0.83165 0.83837 0.16902 0.0
C229 C 0.78937 0.87816 0.16723 0.0
H230 H 0.61519 0.72297 0.11944 0.0
C231 C 0.73062 0.86963 0.15586 0.0
H232 H 0.73434 0.90646 0.16034 0.0
H233 H 0.83817 0.92149 0.18048 0.0
C234 C 0.50064 0.72541 0.07706 0.0
C235 C 0.45859 0.70728 0.10619 0.0
C236 C 0.55943 0.78815 0.1546 0.0
C237 C 0.60233 0.79995 0.12686 0.0
N238 N 0.6158 0.79929 0.06048 0.0
N239 N 0.44167 0.73371 0.16751 0.0
C240 C 0.57293 0.77595 0.08735 0.0
C241 C 0.48604 0.74356 0.14321 0.0
N242 N 0.47284 0.69195 0.04081 0.0
N243 N 0.58888 0.8157 0.1922 0.0
H244 H 0.38756 0.70079 0.15938 0.0
H245 H 0.4579 0.76122 0.1938 0.0
H246 H 0.64258 0.84989 0.20083 0.0
H247 H 0.56057 0.80393 0.2148 0.0
H248 H 0.50251 0.69947 0.01947 0.0
H249 H 0.41981 0.65489 0.0325 0.0
H250 H 0.59797 0.7862 0.03086 0.0
H251 H 0.66926 0.83566 0.06857 0.0
C252 C 0.80307 0.29075 0.49439 0.0
C253 C 0.79953 0.24515 0.47724 0.0
C254 C 0.92067 0.32231 0.46461 0.0
C255 C 0.92309 0.36753 0.48044 0.0
N256 N 0.86016 0.3933 0.50253 0.0
N257 N 0.85002 0.21938 0.43688 0.0
C258 C 0.86199 0.351 0.49269 0.0
C259 C 0.85704 0.26161 0.45976 0.0
N260 N 0.75218 0.27727 0.51444 0.0
N261 N 0.98013 0.33717 0.45538 0.0
H262 H 0.80412 0.17525 0.43135 0.0
H263 H 0.88681 0.22872 0.42013 0.0
H264 H 1.02653 0.38053 0.45708 0.0
H265 H 0.98468 0.30677 0.44846 0.0
H266 H 0.7554 0.30869 0.53118 0.0
H267 H 0.70933 0.23474 0.5174 0.0
H268 H 0.8153 0.38421 0.50785 0.0
H269 H 0.90204 0.43726 0.50157 0.0
C270 C 0.7647 0.91698 0.78301 0.0
C271 C 0.7292 0.87877 0.80955 0.0
C272 C 0.68519 0.9253 0.82901 0.0
C273 C 0.72887 0.96871 0.80684 0.0
N274 N 0.81308 1.0084 0.76393 0.0
N275 N 0.65969 0.84894 0.86021 0.0
C276 C 0.76891 0.9649 0.78382 0.0
C277 C 0.68978 0.88309 0.8329 0.0
N278 N 0.79316 0.90666 0.75652 0.0
N279 N 0.63921 0.92456 0.84629 0.0
H280 H 0.66203 0.81772 0.86411 0.0
H281 H 0.63694 0.85447 0.88102 0.0
H282 H 0.63503 0.95511 0.84402 0.0
H283 H 0.60102 0.89089 0.85975 0.0
H284 H 0.81364 0.92918 0.73391 0.0
H285 H 0.79091 0.87196 0.75509 0.0
H286 H 0.85015 0.01233 0.75053 0.0
H287 H 0.81531 0.04273 0.7626 0.0
C288 C 0.79641 0.62449 0.22287 0.0
C289 C 0.7536 0.56392 0.20901 0.0
C290 C 0.66858 0.56159 0.17459 0.0
C291 C 0.722 0.6233 0.17756 0.0
N292 N 0.83989 0.71445 0.20503 0.0
N293 N 0.64311 0.47183 0.17764 0.0
C294 C 0.78613 0.65558 0.20291 0.0
C295 C 0.68656 0.53122 0.18772 0.0
N296 N 0.84963 0.65257 0.25305 0.0
N297 N 0.60208 0.53256 0.15804 0.0
H298 H 0.65612 0.44975 0.18817 0.0
H299 H 0.59634 0.44541 0.15836 0.0
H300 H 0.58836 0.55466 0.14857 0.0
H301 H 0.56009 0.48804 0.15692 0.0
H302 H 0.87989 0.69636 0.26592 0.0
H303 H 0.8577 0.63006 0.26789 0.0
H304 H 0.88981 0.73788 0.21989 0.0
H305 H 0.83717 0.73938 0.18945 0.0
C306 C 0.36415 0.83835 0.4317 0.0
C307 C 0.4236 0.86617 0.46041 0.0
C308 C 0.36074 0.76696 0.47584 0.0
C309 C 0.29855 0.74184 0.45099 0.0
N310 N 0.23851 0.76096 0.41355 0.0
N311 N 0.46867 0.85418 0.51602 0.0
C312 C 0.29959 0.78013 0.43186 0.0
C313 C 0.41911 0.82969 0.48428 0.0
N314 N 0.36992 0.86503 0.40193 0.0
N315 N 0.36598 0.73109 0.49028 0.0
H316 H 0.51072 0.89894 0.52481 0.0
H317 H 0.46386 0.83017 0.53618 0.0
H318 H 0.32549 0.68561 0.48482 0.0
H319 H 0.41263 0.74621 0.50466 0.0
H320 H 0.3295 0.84444 0.37885 0.0
H321 H 0.41741 0.90344 0.39711 0.0
H322 H 0.23548 0.78856 0.40189 0.0
H323 H 0.19025 0.71955 0.41394 0.0
C324 C 0.64592 0.25417 0.83273 0.0
C325 C 0.58102 0.23567 0.81872 0.0
C326 C 0.54734 0.14909 0.77779 0.0
C327 C 0.61654 0.17297 0.78697 0.0
N328 N 0.73547 0.25445 0.81884 0.0
N329 N 0.4713 0.16785 0.77504 0.0
C330 C 0.66684 0.22703 0.81353 0.0
C331 C 0.53186 0.18355 0.79054 0.0
N332 N 0.6871 0.29702 0.86489 0.0
N333 N 0.49589 0.09283 0.75791 0.0
H334 H 0.45746 0.19121 0.78419 0.0
H335 H 0.43727 0.13418 0.75128 0.0
H336 H 0.50482 0.06574 0.74907 0.0
H337 H 0.44332 0.07115 0.75359 0.0
H338 H 0.73156 0.30799 0.87881 0.0
H339 H 0.67304 0.31758 0.8797 0.0
H340 H 0.77504 0.29671 0.83487 0.0
H341 H 0.75395 0.23771 0.80418 0.0
C342 C 0.57708 0.75579 0.54116 0.0
C343 C 0.62669 0.79043 0.51714 0.0
C344 C 0.62279 0.71151 0.49385 0.0
C345 C 0.56744 0.67464 0.5144 0.0
N346 N 0.48896 0.65915 0.55639 0.0
N347 N 0.69492 0.80189 0.46903 0.0
C348 C 0.54417 0.69626 0.53804 0.0
C349 C 0.64957 0.76865 0.49328 0.0
N350 N 0.56208 0.78019 0.56714 0.0
N351 N 0.64994 0.69183 0.47517 0.0
H352 H 0.71737 0.84467 0.46875 0.0
H353 H 0.70736 0.78621 0.44758 0.0
H354 H 0.63062 0.64979 0.47448 0.0
H355 H 0.69481 0.71824 0.46289 0.0
H356 H 0.53184 0.75947 0.58824 0.0
H357 H 0.58413 0.8233 0.56954 0.0
H358 H 0.46378 0.66982 0.57027 0.0
H359 H 0.46557 0.61598 0.55605 0.0
C360 C 0.88526 0.59483 0.84219 0.0
C361 C 0.8158 0.55047 0.8522 0.0
C362 C 0.86099 0.49846 0.86172 0.0
C363 C 0.9326 0.54557 0.85666 0.0
N364 N 1.00967 0.64466 0.84695 0.0
N365 N 0.75253 0.46472 0.88145 0.0
C366 C 0.94296 0.59511 0.84824 0.0
C367 C 0.80847 0.5037 0.8643 0.0
N368 N 0.89669 0.63678 0.82488 0.0
N369 N 0.84099 0.44586 0.86325 0.0
H370 H 0.71694 0.46825 0.88743 0.0
H371 H 0.74667 0.4337 0.89452 0.0
H372 H 0.87495 0.43929 0.86115 0.0
H373 H 0.78915 0.40762 0.86167 0.0
H374 H 0.94126 0.66641 0.813 0.0
H375 H 0.85838 0.63787 0.8186 0.0
H376 H 1.02485 0.68488 0.84601 0.0
H377 H 1.05059 0.64599 0.84976 0.0
C378 C 0.29839 0.72903 0.1366 0.0
C379 C 0.25372 0.70612 0.16489 0.0
C380 C 0.32439 0.80895 0.19827 0.0
C381 C 0.37715 0.83061 0.17482 0.0
N382 N 0.41515 0.80591 0.12325 0.0
N383 N 0.234 0.72752 0.22717 0.0
C384 C 0.36414 0.78918 0.14422 0.0
C385 C 0.26932 0.74711 0.19687 0.0
N386 N 0.2766 0.69453 0.10137 0.0
N387 N 0.32564 0.84758 0.2214 0.0
H388 H 0.19614 0.68322 0.22858 0.0
H389 H 0.24788 0.7555 0.25274 0.0
H390 H 0.36252 0.89256 0.22169 0.0
H391 H 0.28552 0.83428 0.23657 0.0
H392 H 0.3026 0.71126 0.07813 0.0
H393 H 0.22852 0.65141 0.0942 0.0
H394 H 0.41045 0.77619 0.10302 0.0
H395 H 0.46427 0.84828 0.12849 0.0
C396 C 0.59708 0.35643 0.50787 0.0
C397 C 0.53251 0.29738 0.50249 0.0
C398 C 0.47713 0.3295 0.53099 0.0
C399 C 0.54104 0.38861 0.53514 0.0
N400 N 0.65942 0.45995 0.52396 0.0
N401 N 0.40924 0.22681 0.50458 0.0
C402 C 0.60038 0.40255 0.5225 0.0
C403 C 0.47192 0.28368 0.51272 0.0
N404 N 0.65541 0.36815 0.49969 0.0
N405 N 0.42202 0.31727 0.5455 0.0
H406 H 0.40383 0.19161 0.49311 0.0
H407 H 0.36162 0.21434 0.50697 0.0
H408 H 0.42276 0.34963 0.55752 0.0
H409 H 0.37677 0.27536 0.54776 0.0
H410 H 0.70566 0.40937 0.50703 0.0
H411 H 0.65427 0.33572 0.48719 0.0
H412 H 0.7021 0.47335 0.51154 0.0
H413 H 0.66435 0.49482 0.53568 0.0
C414 C 0.38448 0.51105 0.87115 0.0
C415 C 0.44385 0.54559 0.85042 0.0
C416 C 0.38964 0.589 0.83474 0.0
C417 C 0.3257 0.54907 0.85047 0.0
N418 N 0.26436 0.46442 0.87964 0.0
N419 N 0.48324 0.60878 0.80367 0.0
C420 C 0.32455 0.50826 0.86746 0.0
C421 C 0.44043 0.58215 0.8302 0.0
N422 N 0.38555 0.48177 0.89651 0.0
N423 N 0.40409 0.63643 0.82442 0.0
H424 H 0.51589 0.60255 0.79623 0.0
H425 H 0.47929 0.63046 0.78511 0.0
H426 H 0.37152 0.6443 0.82782 0.0
H427 H 0.45186 0.67115 0.8171 0.0
H428 H 0.35003 0.46127 0.91546 0.0
H429 H 0.42641 0.4836 0.90178 0.0
H430 H 0.25418 0.42865 0.88775 0.0
H431 H 0.22265 0.46209 0.87872 0.0
C432 C 0.85278 0.30709 0.1816 0.0
C433 C 0.88043 0.32714 0.14723 0.0
C434 C 0.78693 0.22389 0.11244 0.0
C435 C 0.75211 0.20639 0.14507 0.0
N436 N 0.75079 0.23645 0.21042 0.0
N437 N 0.86415 0.30292 0.07803 0.0
C438 C 0.78504 0.2494 0.17966 0.0
C439 C 0.8452 0.28482 0.11219 0.0
N440 N 0.89274 0.34211 0.21651 0.0
N441 N 0.76445 0.18186 0.08144 0.0
H442 H 0.90316 0.34689 0.07634 0.0
H443 H 0.83617 0.27518 0.05126 0.0
H444 H 0.72346 0.13722 0.08102 0.0
H445 H 0.79111 0.19084 0.05825 0.0
H446 H 0.87835 0.32854 0.24267 0.0
H447 H 0.94409 0.38174 0.21895 0.0
H448 H 0.76855 0.26789 0.2347 0.0
H449 H 0.70196 0.19539 0.21041 0.0
C450 C 1.05341 0.56216 0.03384 0.0
C451 C 1.02893 0.5087 0.04316 0.0
C452 C 1.01563 0.47217 0.97488 0.0
C453 C 1.0443 0.52697 0.96599 0.0
N454 N 0.1044 0.62827 0.98837 0.0
N455 N 1.00334 0.41912 0.0243 0.0
C456 C 1.06732 0.57322 -0.00406 0.0
C457 C 1.01495 0.46553 0.01417 0.0
N458 N 1.06189 0.60195 0.06093 0.0
N459 N 0.98668 0.42574 0.94578 0.0
H460 H 1.00473 0.41413 0.05289 0.0
H461 H 0.99951 0.38915 0.00502 0.0
H462 H 0.98589 0.42867 0.9167 0.0
H463 H 0.95831 0.38319 0.95031 0.0
H464 H 0.0719 0.63847 0.05467 0.0
H465 H 1.05344 0.59623 0.08915 0.0
H466 H 0.12917 0.66521 0.00973 0.0
H467 H 0.11609 0.63807 0.96108 0.0
C468 C 0.59552 0.05538 0.34355 0.0
C469 C 0.60653 0.02509 0.36404 0.0
C470 C 0.58583 0.9668 0.30275 0.0
C471 C 0.56557 0.99167 0.28282 0.0
N472 N 0.53528 0.04983 0.28645 0.0
N473 N 0.60138 0.94515 0.36377 0.0
C474 C 0.56594 0.03328 0.30381 0.0
C475 C 0.59854 0.97873 0.34382 0.0
N476 N 0.61581 0.1066 0.36155 0.0
N477 N 0.59522 0.93342 0.2825 0.0
H478 H 0.61026 0.95232 0.39383 0.0
H479 H 0.58875 0.90707 0.35055 0.0
H480 H 0.5883 0.92511 0.25244 0.0
H481 H 0.61638 0.91885 0.2955 0.0
H482 H 0.61472 0.13324 0.34697 0.0
H483 H 0.64102 0.12555 0.39012 0.0
H484 H 0.52854 0.07575 0.30164 0.0
H485 H 0.50989 0.03274 0.25788 0.0
C486 C 0.52686 0.50447 0.71487 0.0
C487 C 0.58186 0.51307 0.73572 0.0
C488 C 0.63273 0.52817 0.67666 0.0
C489 C 0.57091 0.5078 0.65487 0.0
N490 N 0.45298 0.4668 0.65333 0.0
N491 N 0.68095 0.52161 0.73309 0.0
C492 C 0.51632 0.49365 0.67395 0.0
C493 C 0.63387 0.52258 0.71595 0.0
N494 N 0.48533 0.50783 0.73398 0.0
N495 N 0.69036 0.5526 0.65978 0.0
H496 H 0.68084 0.5122 0.76038 0.0
H497 H 0.71519 0.52295 0.71819 0.0
H498 H 0.69136 0.55791 0.63109 0.0
H499 H 0.73875 0.57304 0.6753 0.0
H500 H 0.44889 0.5073 0.72003 0.0
H501 H 0.49277 0.51792 0.76396 0.0
H502 H 0.40948 0.45014 0.66626 0.0
H503 H 0.44161 0.45589 0.62332 0.0
C504 C 0.57266 0.03285 0.6036 0.0
C505 C 0.6201 0.08139 0.58548 0.0
C506 C 0.69629 0.14 0.64844 0.0
C507 C 0.64412 0.09431 0.66681 0.0
N508 N 0.52988 0.99865 0.66265 0.0
N509 N 0.72339 0.18443 0.59195 0.0
C510 C 0.58172 0.04093 0.64457 0.0
C511 C 0.68158 0.13571 0.60811 0.0
N512 N 0.51973 0.97843 0.58158 0.0
N513 N 0.76003 0.18763 0.66966 0.0
H514 H 0.71402 0.18437 0.56303 0.0
H515 H 0.7641 0.22643 0.60794 0.0
H516 H 0.77196 0.1925 0.69932 0.0
H517 H 0.80282 0.21951 0.65742 0.0
H518 H 0.48828 0.94026 0.59287 0.0
H519 H 0.5112 0.97044 0.55155 0.0
H520 H 0.47975 0.96203 0.64832 0.0
H521 H 0.53541 1.00201 0.69253 0.0
C522 C 0.7302 0.64518 0.97892 0.0
C523 C 0.66068 0.59862 0.95928 0.0
C524 C 0.6166 0.58503 0.02039 0.0
C525 C 0.68594 0.63213 0.03996 0.0
N526 N 0.80964 0.69813 0.04006 0.0
N527 N 0.54073 0.51481 0.96109 0.0
C528 C 0.74312 0.65934 0.01986 0.0
C529 C 0.60475 0.56542 0.98002 0.0
N530 N 0.78349 0.67702 0.95832 0.0
N531 N 0.56208 0.56062 0.04016 0.0
H532 H 0.5315 0.49907 0.93168 0.0
H533 H 0.49887 0.48571 0.97488 0.0
H534 H 0.56891 0.57284 0.06992 0.0
H535 H 0.51007 0.53084 0.0269 0.0
H536 H 0.83373 0.71605 0.97045 0.0
H537 H 0.77686 0.66591 0.92847 0.0
H538 H 0.85345 0.71507 0.02755 0.0
H539 H 0.82079 0.70991 0.0701 0.0
C540 C 0.17204 0.55117 0.28221 0.0
C541 C 0.10564 0.52522 0.26278 0.0
C542 C 0.07916 0.54645 0.32363 0.0
C543 C 0.14227 0.56668 0.3436 0.0
N544 N 0.24268 0.57794 0.34303 0.0
N545 N 0.99092 0.48839 0.26639 0.0
C546 C 0.18694 0.56595 0.32321 0.0
C547 C 1.05769 0.51997 0.28392 0.0
N548 N 0.22212 0.56417 0.26157 0.0
N549 N 1.04109 0.55476 0.34213 0.0
H550 H 0.97354 0.46874 0.23737 0.0
H551 H 0.95147 0.47751 0.28128 0.0
H552 H 1.05546 0.57481 0.37105 0.0
H553 H 0.99887 0.54681 0.3279 0.0
H554 H 0.27369 0.58882 0.27412 0.0
H555 H 0.21412 0.5553 0.23153 0.0
H556 H 0.27281 0.57211 0.32991 0.0
H557 H 0.25488 0.58846 0.37307 0.0
loop_
_geom_bond_atom_site_label_1
_geom_bond_atom_site_label_2
_geom_bond_distance
_geom_bond_site_symmetry_2
_ccdc_geom_bond_type
Ho0 C3 2.811 . S
Ho0 O20 2.322 . S
Ho0 O22 2.378 . S
Ho0 O23 2.524 . S
Ho0 O24 2.381 . S
Ho0 O25 2.669 . S
Ho0 O27 2.346 1_455 S
Ho0 O31 2.305 . S
Ho1 C12 2.811 1_455 S
Ho1 O21 2.346 . S
Ho1 O25 2.305 . S
Ho1 O26 2.322 1_455 S
Ho1 O28 2.378 1_455 S
Ho1 O29 2.524 1_455 S
Ho1 O30 2.381 . S
Ho1 O31 2.669 . S
C2 O20 1.259 . S
C2 O21 1.268 . S
C3 Ho0 2.811 . S
C3 C4 1.488 . S
C3 O22 1.215 . S
C3 O23 1.289 . S
C4 C3 1.488 . S
C4 C5 1.348 . S
C4 C9 1.413 . S
C5 C4 1.348 . S
C5 C6 1.442 . S
C5 H32 0.930 . S
C6 C5 1.442 . S
C6 C7 1.381 . S
C6 H33 0.931 . S
C7 C6 1.381 . S
C7 C8 1.321 . S
C8 C7 1.321 . S
C8 C9 1.403 . S
C8 H34 0.934 . S
C9 C4 1.413 . S
C9 C8 1.403 . S
C9 H35 0.930 . S
C10 O24 1.275 . S
C10 O25 1.256 . S
C11 O26 1.259 . S
C11 O27 1.268 . S
C12 Ho1 2.811 1_655 S
C12 C13 1.488 . S
C12 O28 1.215 . S
C12 O29 1.289 . S
C13 C12 1.488 . S
C13 C14 1.348 . S
C13 C18 1.413 . S
C14 C13 1.348 . S
C14 C15 1.442 . S
C14 H36 0.930 . S
C15 C14 1.442 . S
C15 C16 1.381 . S
C15 H37 0.931 . S
C16 C15 1.381 . S
C16 C17 1.321 . S
C17 C16 1.321 . S
C17 C18 1.403 . S
C17 H38 0.934 . S
C18 C13 1.413 . S
C18 C17 1.403 . S
C18 H39 0.930 . S
C19 O30 1.275 . S
C19 O31 1.256 . S
O20 Ho0 2.322 . S
O20 C2 1.259 . S
O21 Ho1 2.346 . S
O21 C2 1.268 . S
O22 Ho0 2.378 . S
O22 C3 1.215 . S
O23 Ho0 2.524 . S
O23 C3 1.289 . S
O24 Ho0 2.381 . S
O24 C10 1.275 . S
O25 Ho0 2.669 . S
O25 Ho1 2.305 . S
O25 C10 1.256 . S
O26 Ho1 2.322 1_655 S
O26 C11 1.259 . S
O27 Ho0 2.346 1_655 S
O27 C11 1.268 . S
O28 Ho1 2.378 1_655 S
O28 C12 1.215 . S
O29 Ho1 2.524 1_655 S
O29 C12 1.289 . S
O30 Ho1 2.381 . S
O30 C19 1.275 . S
O31 Ho0 2.305 . S
O31 Ho1 2.669 . S
O31 C19 1.256 . S
H32 C5 0.930 . S
H33 C6 0.931 . S
H34 C8 0.934 . S
H35 C9 0.930 . S
H36 C14 0.930 . S
H37 C15 0.931 . S
H38 C17 0.934 . S
H39 C18 0.930 . S
Ho40 C43 2.811 1_545 S
Ho40 O60 2.322 1_545 S
Ho40 O62 2.378 1_545 S
Ho40 O63 2.524 1_545 S
Ho40 O64 2.381 . S
Ho40 O65 2.669 . S
Ho40 O67 2.346 . S
Ho40 O71 2.305 . S
Ho41 C52 2.811 . S
Ho41 O61 2.346 1_545 S
Ho41 O65 2.305 . S
Ho41 O66 2.322 . S
Ho41 O68 2.378 . S
Ho41 O69 2.524 . S
Ho41 O70 2.381 . S
Ho41 O71 2.669 . S
C42 O60 1.259 . S
C42 O61 1.268 . S
C43 Ho40 2.811 1_565 S
C43 C44 1.488 . S
C43 O62 1.215 . S
C43 O63 1.289 . S
C44 C43 1.488 . S
C44 C45 1.348 . S
C44 C49 1.413 . S
C45 C44 1.348 . S
C45 C46 1.442 . S
C45 H72 0.930 . S
C46 C45 1.442 . S
C46 C47 1.381 . S
C46 H73 0.931 . S
C47 C46 1.381 . S
C47 C48 1.321 . S
C48 C47 1.321 . S
C48 C49 1.403 . S
C48 H74 0.934 . S
C49 C44 1.413 . S
C49 C48 1.403 . S
C49 H75 0.930 . S
C50 O64 1.275 . S
C50 O65 1.256 . S
C51 O66 1.259 . S
C51 O67 1.268 . S
C52 Ho41 2.811 . S
C52 C53 1.488 . S
C52 O68 1.215 . S
C52 O69 1.289 . S
C53 C52 1.488 . S
C53 C54 1.348 . S
C53 C58 1.413 . S
C54 C53 1.348 . S
C54 C55 1.442 . S
C54 H76 0.930 . S
C55 C54 1.442 . S
C55 C56 1.381 . S
C55 H77 0.931 . S
C56 C55 1.381 . S
C56 C57 1.321 . S
C57 C56 1.321 . S
C57 C58 1.403 . S
C57 H78 0.934 . S
C58 C53 1.413 . S
C58 C57 1.403 . S
C58 H79 0.930 . S
C59 O70 1.275 . S
C59 O71 1.256 . S
O60 Ho40 2.322 1_565 S
O60 C42 1.259 . S
O61 Ho41 2.346 1_565 S
O61 C42 1.268 . S
O62 Ho40 2.378 1_565 S
O62 C43 1.215 . S
O63 Ho40 2.524 1_565 S
O63 C43 1.289 . S
O64 Ho40 2.381 . S
O64 C50 1.275 . S
O65 Ho40 2.669 . S
O65 Ho41 2.305 . S
O65 C50 1.256 . S
O66 Ho41 2.322 . S
O66 C51 1.259 . S
O67 Ho40 2.346 . S
O67 C51 1.268 . S
O68 Ho41 2.378 . S
O68 C52 1.215 . S
O69 Ho41 2.524 . S
O69 C52 1.289 . S
O70 Ho41 2.381 . S
O70 C59 1.275 . S
O71 Ho40 2.305 . S
O71 Ho41 2.669 . S
O71 C59 1.256 . S
H72 C45 0.930 . S
H73 C46 0.931 . S
H74 C48 0.934 . S
H75 C49 0.930 . S
H76 C54 0.930 . S
H77 C55 0.931 . S
H78 C57 0.934 . S
H79 C58 0.930 . S
Ho80 C83 2.811 . S
Ho80 O100 2.322 . S
Ho80 O102 2.378 . S
Ho80 O103 2.524 . S
Ho80 O104 2.381 . S
Ho80 O105 2.669 . S
Ho80 O107 2.346 . S
Ho80 O111 2.305 . S
Ho81 C92 2.811 . S
Ho81 O101 2.346 . S
Ho81 O105 2.305 . S
Ho81 O106 2.322 . S
Ho81 O108 2.378 . S
Ho81 O109 2.524 . S
Ho81 O110 2.381 . S
Ho81 O111 2.669 . S
C82 O100 1.259 . S
C82 O101 1.268 . S
C83 Ho80 2.811 . S
C83 C84 1.488 . S
C83 O102 1.215 . S
C83 O103 1.289 . S
C84 C83 1.488 . S
C84 C85 1.348 . S
C84 C89 1.413 . S
C85 C84 1.348 . S
C85 C86 1.442 . S
C85 H112 0.930 . S
C86 C85 1.442 . S
C86 C87 1.381 . S
C86 H113 0.931 . S
C87 C86 1.381 . S
C87 C88 1.321 . S
C88 C87 1.321 . S
C88 C89 1.403 . S
C88 H114 0.934 . S
C89 C84 1.413 . S
C89 C88 1.403 . S
C89 H115 0.930 . S
C90 O104 1.275 . S
C90 O105 1.256 . S
C91 O106 1.259 . S
C91 O107 1.268 . S
C92 Ho81 2.811 . S
C92 C93 1.488 . S
C92 O108 1.215 . S
C92 O109 1.289 . S
C93 C92 1.488 . S
C93 C94 1.348 . S
C93 C98 1.413 . S
C94 C93 1.348 . S
C94 C95 1.442 . S
C94 H116 0.930 . S
C95 C94 1.442 . S
C95 C96 1.381 . S
C95 H117 0.931 . S
C96 C95 1.381 . S
C96 C97 1.321 . S
C97 C96 1.321 . S
C97 C98 1.403 . S
C97 H118 0.934 . S
C98 C93 1.413 . S
C98 C97 1.403 . S
C98 H119 0.930 . S
C99 O110 1.275 . S
C99 O111 1.256 . S
O100 Ho80 2.322 . S
O100 C82 1.259 . S
O101 Ho81 2.346 . S
O101 C82 1.268 . S
O102 Ho80 2.378 . S
O102 C83 1.215 . S
O103 Ho80 2.524 . S
O103 C83 1.289 . S
O104 Ho80 2.381 . S
O104 C90 1.275 . S
O105 Ho80 2.669 . S
O105 Ho81 2.305 . S
O105 C90 1.256 . S
O106 Ho81 2.322 . S
O106 C91 1.259 . S
O107 Ho80 2.346 . S
O107 C91 1.268 . S
O108 Ho81 2.378 . S
O108 C92 1.215 . S
O109 Ho81 2.524 . S
O109 C92 1.289 . S
O110 Ho81 2.381 . S
O110 C99 1.275 . S
O111 Ho80 2.305 . S
O111 Ho81 2.669 . S
O111 C99 1.256 . S
H112 C85 0.930 . S
H113 C86 0.931 . S
H114 C88 0.934 . S
H115 C89 0.930 . S
H116 C94 0.930 . S
H117 C95 0.931 . S
H118 C97 0.934 . S
H119 C98 0.930 . S
H120 C121 0.949 . S
C121 H120 0.949 . S
C121 C122 1.395 . S
C121 C123 1.391 . S
C122 C121 1.395 . S
C122 C125 1.390 1_545 S
C123 C121 1.391 . S
C123 C127 1.387 . S
C123 C128 1.491 . S
H124 C125 0.950 . S
C125 C122 1.390 1_565 S
C125 H124 0.950 . S
C125 C126 1.378 . S
C126 C125 1.378 . S
C126 C127 1.409 1_565 S
C127 C123 1.387 . S
C127 C126 1.409 1_545 S
C127 H129 0.951 1_545 S
C128 C123 1.491 . S
C128 C130 1.382 . S
C128 C132 1.404 . S
H129 C127 0.951 1_565 S
C130 C128 1.382 . S
C130 C131 1.390 . S
C130 H135 0.949 . S
C131 C130 1.390 . S
C131 C136 1.399 . S
C132 C128 1.404 . S
C132 H133 0.950 . S
C132 C134 1.375 . S
H133 C132 0.950 . S
C134 C132 1.375 . S
C134 C136 1.382 . S
C134 H138 0.950 . S
H135 C130 0.949 . S
C136 C131 1.399 . S
C136 C134 1.382 . S
C136 H137 0.952 . S
H137 C136 0.952 . S
H138 C134 0.950 . S
H139 C140 0.949 . S
C140 H139 0.949 . S
C140 C141 1.395 . S
C140 C142 1.391 . S
C141 C140 1.395 . S
C141 C144 1.390 . S
C142 C140 1.391 . S
C142 C146 1.387 . S
C142 C147 1.491 . S
H143 C144 0.950 . S
C144 C141 1.390 . S
C144 H143 0.950 . S
C144 C145 1.378 . S
C145 C144 1.378 . S
C145 C146 1.409 . S
C146 C142 1.387 . S
C146 C145 1.409 . S
C146 H148 0.951 . S
C147 C142 1.491 . S
C147 C149 1.382 . S
C147 C151 1.404 . S
H148 C146 0.951 . S
C149 C147 1.382 . S
C149 C150 1.390 . S
C149 H154 0.949 . S
C150 C149 1.390 . S
C150 C155 1.399 . S
C151 C147 1.404 . S
C151 H152 0.950 . S
C151 C153 1.375 . S
H152 C151 0.950 . S
C153 C151 1.375 . S
C153 C155 1.382 . S
C153 H157 0.950 . S
H154 C149 0.949 . S
C155 C150 1.399 . S
C155 C153 1.382 . S
C155 H156 0.952 . S
H156 C155 0.952 . S
H157 C153 0.950 . S
H158 C159 0.949 . S
C159 H158 0.949 . S
C159 C160 1.395 . S
C159 C161 1.391 . S
C160 C159 1.395 . S
C160 C163 1.406 . S
C161 C159 1.391 . S
C161 C165 1.387 . S
C161 C166 1.491 . S
H162 C163 0.935 1_655 S
C163 C160 1.406 . S
C163 H162 0.935 1_455 S
C163 C164 1.377 1_455 S
C164 C163 1.377 1_655 S
C164 C165 1.409 1_655 S
C165 C161 1.387 . S
C165 C164 1.409 1_455 S
C165 H167 0.951 . S
C166 C161 1.491 . S
C166 C168 1.382 . S
C166 C170 1.404 . S
H167 C165 0.951 . S
C168 C166 1.382 . S
C168 C169 1.390 . S
C168 H173 0.949 . S
C169 C168 1.390 . S
C169 C174 1.399 . S
C170 C166 1.404 . S
C170 H171 0.950 . S
C170 C172 1.375 . S
H171 C170 0.950 . S
C172 C170 1.375 . S
C172 C174 1.382 . S
C172 H176 0.950 . S
H173 C168 0.949 . S
C174 C169 1.399 . S
C174 C172 1.382 . S
C174 H175 0.952 . S
H175 C174 0.952 . S
H176 C172 0.950 . S
H177 C178 0.949 1_655 S
C178 H177 0.949 1_455 S
C178 C179 1.395 . S
C178 C180 1.391 . S
C179 C178 1.395 . S
C179 C182 1.390 . S
C180 C178 1.391 . S
C180 C184 1.387 . S
C180 C185 1.491 1_455 S
H181 C182 0.950 . S
C182 C179 1.390 . S
C182 H181 0.950 . S
C182 C183 1.378 . S
C183 C182 1.378 . S
C183 C184 1.409 . S
C184 C180 1.387 . S
C184 C183 1.409 . S
C184 H186 0.951 . S
C185 C180 1.491 1_655 S
C185 C187 1.382 . S
C185 C189 1.404 . S
H186 C184 0.951 . S
C187 C185 1.382 . S
C187 C188 1.390 . S
C187 H192 0.949 . S
C188 C187 1.390 . S
C188 C193 1.399 . S
C189 C185 1.404 . S
C189 H190 0.950 . S
C189 C191 1.375 . S
H190 C189 0.950 . S
C191 C189 1.375 . S
C191 C193 1.382 . S
C191 H195 0.950 . S
H192 C187 0.949 . S
C193 C188 1.399 . S
C193 C191 1.382 . S
C193 H194 0.952 . S
H194 C193 0.952 . S
H195 C191 0.950 . S
H196 C197 0.953 . S
C197 H196 0.953 . S
C197 C198 1.395 . S
C197 C199 1.391 . S
C198 C197 1.395 . S
C198 C201 1.390 . S
C199 C197 1.391 . S
C199 C203 1.387 . S
C199 C204 1.495 . S
H200 C201 0.950 . S
C201 C198 1.390 . S
C201 H200 0.950 . S
C201 C202 1.378 . S
C202 C201 1.378 . S
C202 C203 1.409 . S
C203 C199 1.387 . S
C203 C202 1.409 . S
C203 H205 0.951 . S
C204 C199 1.495 . S
C204 C206 1.378 1_545 S
C204 C208 1.404 1_545 S
H205 C203 0.951 . S
C206 C204 1.378 1_565 S
C206 C207 1.390 . S
C206 H211 0.949 . S
C207 C206 1.390 . S
C207 C212 1.399 . S
C208 C204 1.404 1_565 S
C208 H209 0.950 . S
C208 C210 1.375 . S
H209 C208 0.950 . S
C210 C208 1.375 . S
C210 C212 1.382 . S
C210 H214 0.950 . S
H211 C206 0.949 . S
C212 C207 1.399 . S
C212 C210 1.382 . S
C212 H213 0.952 . S
H213 C212 0.952 . S
H214 C210 0.950 . S
H215 C216 0.949 . S
C216 H215 0.949 . S
C216 C217 1.395 . S
C216 C218 1.391 . S
C217 C216 1.395 . S
C217 C220 1.390 . S
C218 C216 1.391 . S
C218 C222 1.387 . S
C218 C223 1.491 . S
H219 C220 0.950 . S
C220 C217 1.390 . S
C220 H219 0.950 . S
C220 C221 1.378 . S
C221 C220 1.378 . S
C221 C222 1.409 . S
C222 C218 1.387 . S
C222 C221 1.409 . S
C222 H224 0.951 . S
C223 C218 1.491 . S
C223 C225 1.382 . S
C223 C227 1.404 . S
H224 C222 0.951 . S
C225 C223 1.382 . S
C225 C226 1.390 . S
C225 H230 0.949 . S
C226 C225 1.390 . S
C226 C231 1.399 . S
C227 C223 1.404 . S
C227 H228 0.950 . S
C227 C229 1.375 . S
H228 C227 0.950 . S
C229 C227 1.375 . S
C229 C231 1.382 . S
C229 H233 0.950 . S
H230 C225 0.949 . S
C231 C226 1.399 . S
C231 C229 1.382 . S
C231 H232 0.952 . S
H232 C231 0.952 . S
H233 C229 0.950 . S
C234 C235 1.363 . S
C234 C240 1.379 . S
C234 N242 1.356 . S
C235 C234 1.363 . S
C235 C241 1.363 . S
C236 C237 1.363 . S
C236 C241 1.379 . S
C236 N243 1.356 . S
C237 C236 1.363 . S
C237 C240 1.363 . S
N238 C240 1.356 . S
N238 H250 0.984 . S
N238 H251 0.985 . S
N239 C241 1.356 . S
N239 H244 0.984 . S
N239 H245 0.985 . S
C240 C234 1.379 . S
C240 C237 1.363 . S
C240 N238 1.356 . S
C241 C235 1.363 . S
C241 C236 1.379 . S
C241 N239 1.356 . S
N242 C234 1.356 . S
N242 H248 0.984 . S
N242 H249 0.984 . S
N243 C236 1.356 . S
N243 H246 0.984 . S
N243 H247 0.985 . S
H244 N239 0.984 . S
H245 N239 0.985 . S
H246 N243 0.984 . S
H247 N243 0.985 . S
H248 N242 0.984 . S
H249 N242 0.984 . S
H250 N238 0.984 . S
H251 N238 0.985 . S
C252 C253 1.363 . S
C252 C258 1.379 . S
C252 N260 1.356 . S
C253 C252 1.363 . S
C253 C259 1.363 . S
C254 C255 1.363 . S
C254 C259 1.379 . S
C254 N261 1.356 . S
C255 C254 1.363 . S
C255 C258 1.363 . S
N256 C258 1.356 . S
N256 H268 0.984 . S
N256 H269 0.985 . S
N257 C259 1.356 . S
N257 H262 0.984 . S
N257 H263 0.985 . S
C258 C252 1.379 . S
C258 C255 1.363 . S
C258 N256 1.356 . S
C259 C253 1.363 . S
C259 C254 1.379 . S
C259 N257 1.356 . S
N260 C252 1.356 . S
N260 H266 0.984 . S
N260 H267 0.984 . S
N261 C254 1.356 . S
N261 H264 0.984 . S
N261 H265 0.985 . S
H262 N257 0.984 . S
H263 N257 0.985 . S
H264 N261 0.984 . S
H265 N261 0.985 . S
H266 N260 0.984 . S
H267 N260 0.984 . S
H268 N256 0.984 . S
H269 N256 0.985 . S
C270 C271 1.363 . S
C270 C276 1.379 . S
C270 N278 1.356 . S
C271 C270 1.363 . S
C271 C277 1.363 . S
C272 C273 1.363 . S
C272 C277 1.379 . S
C272 N279 1.356 . S
C273 C272 1.363 . S
C273 C276 1.363 . S
N274 C276 1.356 . S
N274 H286 0.984 . S
N274 H287 0.985 . S
N275 C277 1.356 . S
N275 H280 0.984 . S
N275 H281 0.985 . S
C276 C270 1.379 . S
C276 C273 1.363 . S
C276 N274 1.356 . S
C277 C271 1.363 . S
C277 C272 1.379 . S
C277 N275 1.356 . S
N278 C270 1.356 . S
N278 H284 0.984 . S
N278 H285 0.984 . S
N279 C272 1.356 . S
N279 H282 0.984 . S
N279 H283 0.985 . S
H280 N275 0.984 . S
H281 N275 0.985 . S
H282 N279 0.984 . S
H283 N279 0.985 . S
H284 N278 0.984 . S
H285 N278 0.984 . S
H286 N274 0.984 . S
H287 N274 0.985 . S
C288 C289 1.363 . S
C288 C294 1.379 . S
C288 N296 1.356 . S
C289 C288 1.363 . S
C289 C295 1.363 . S
C290 C291 1.363 . S
C290 C295 1.379 . S
C290 N297 1.356 . S
C291 C290 1.363 . S
C291 C294 1.363 . S
N292 C294 1.356 . S
N292 H304 0.984 . S
N292 H305 0.985 . S
N293 C295 1.356 . S
N293 H298 0.984 . S
N293 H299 0.985 . S
C294 C288 1.379 . S
C294 C291 1.363 . S
C294 N292 1.356 . S
C295 C289 1.363 . S
C295 C290 1.379 . S
C295 N293 1.356 . S
N296 C288 1.356 . S
N296 H302 0.984 . S
N296 H303 0.984 . S
N297 C290 1.356 . S
N297 H300 0.984 . S
N297 H301 0.985 . S
H298 N293 0.984 . S
H299 N293 0.985 . S
H300 N297 0.984 . S
H301 N297 0.985 . S
H302 N296 0.984 . S
H303 N296 0.984 . S
H304 N292 0.984 . S
H305 N292 0.985 . S
C306 C307 1.363 . S
C306 C312 1.379 . S
C306 N314 1.356 . S
C307 C306 1.363 . S
C307 C313 1.363 . S
C308 C309 1.363 . S
C308 C313 1.379 . S
C308 N315 1.356 . S
C309 C308 1.363 . S
C309 C312 1.363 . S
N310 C312 1.356 . S
N310 H322 0.984 . S
N310 H323 0.985 . S
N311 C313 1.356 . S
N311 H316 0.984 . S
N311 H317 0.985 . S
C312 C306 1.379 . S
C312 C309 1.363 . S
C312 N310 1.356 . S
C313 C307 1.363 . S
C313 C308 1.379 . S
C313 N311 1.356 . S
N314 C306 1.356 . S
N314 H320 0.984 . S
N314 H321 0.984 . S
N315 C308 1.356 . S
N315 H318 0.984 . S
N315 H319 0.985 . S
H316 N311 0.984 . S
H317 N311 0.985 . S
H318 N315 0.984 . S
H319 N315 0.985 . S
H320 N314 0.984 . S
H321 N314 0.984 . S
H322 N310 0.984 . S
H323 N310 0.985 . S
C324 C325 1.363 . S
C324 C330 1.379 . S
C324 N332 1.356 . S
C325 C324 1.363 . S
C325 C331 1.363 . S
C326 C327 1.363 . S
C326 C331 1.379 . S
C326 N333 1.356 . S
C327 C326 1.363 . S
C327 C330 1.363 . S
N328 C330 1.356 . S
N328 H340 0.984 . S
N328 H341 0.985 . S
N329 C331 1.356 . S
N329 H334 0.984 . S
N329 H335 0.985 . S
C330 C324 1.379 . S
C330 C327 1.363 . S
C330 N328 1.356 . S
C331 C325 1.363 . S
C331 C326 1.379 . S
C331 N329 1.356 . S
N332 C324 1.356 . S
N332 H338 0.984 . S
N332 H339 0.984 . S
N333 C326 1.356 . S
N333 H336 0.984 . S
N333 H337 0.985 . S
H334 N329 0.984 . S
H335 N329 0.985 . S
H336 N333 0.984 . S
H337 N333 0.985 . S
H338 N332 0.984 . S
H339 N332 0.984 . S
H340 N328 0.984 . S
H341 N328 0.985 . S
C342 C343 1.363 . S
C342 C348 1.379 . S
C342 N350 1.356 . S
C343 C342 1.363 . S
C343 C349 1.363 . S
C344 C345 1.363 . S
C344 C349 1.379 . S
C344 N351 1.356 . S
C345 C344 1.363 . S
C345 C348 1.363 . S
N346 C348 1.356 . S
N346 H358 0.984 . S
N346 H359 0.985 . S
N347 C349 1.356 . S
N347 H352 0.984 . S
N347 H353 0.985 . S
C348 C342 1.379 . S
C348 C345 1.363 . S
C348 N346 1.356 . S
C349 C343 1.363 . S
C349 C344 1.379 . S
C349 N347 1.356 . S
N350 C342 1.356 . S
N350 H356 0.984 . S
N350 H357 0.984 . S
N351 C344 1.356 . S
N351 H354 0.984 . S
N351 H355 0.985 . S
H352 N347 0.984 . S
H353 N347 0.985 . S
H354 N351 0.984 . S
H355 N351 0.985 . S
H356 N350 0.984 . S
H357 N350 0.984 . S
H358 N346 0.984 . S
H359 N346 0.985 . S
C360 C361 1.363 . S
C360 C366 1.379 . S
C360 N368 1.356 . S
C361 C360 1.363 . S
C361 C367 1.363 . S
C362 C363 1.363 . S
C362 C367 1.379 . S
C362 N369 1.356 . S
C363 C362 1.363 . S
C363 C366 1.363 . S
N364 C366 1.356 . S
N364 H376 0.984 . S
N364 H377 0.985 . S
N365 C367 1.356 . S
N365 H370 0.984 . S
N365 H371 0.985 . S
C366 C360 1.379 . S
C366 C363 1.363 . S
C366 N364 1.356 . S
C367 C361 1.363 . S
C367 C362 1.379 . S
C367 N365 1.356 . S
N368 C360 1.356 . S
N368 H374 0.984 . S
N368 H375 0.984 . S
N369 C362 1.356 . S
N369 H372 0.984 . S
N369 H373 0.985 . S
H370 N365 0.984 . S
H371 N365 0.985 . S
H372 N369 0.984 . S
H373 N369 0.985 . S
H374 N368 0.984 . S
H375 N368 0.984 . S
H376 N364 0.984 . S
H377 N364 0.985 . S
C378 C379 1.363 . S
C378 C384 1.379 . S
C378 N386 1.356 . S
C379 C378 1.363 . S
C379 C385 1.363 . S
C380 C381 1.363 . S
C380 C385 1.379 . S
C380 N387 1.356 . S
C381 C380 1.363 . S
C381 C384 1.363 . S
N382 C384 1.356 . S
N382 H394 0.984 . S
N382 H395 0.985 . S
N383 C385 1.356 . S
N383 H388 0.984 . S
N383 H389 0.985 . S
C384 C378 1.379 . S
C384 C381 1.363 . S
C384 N382 1.356 . S
C385 C379 1.363 . S
C385 C380 1.379 . S
C385 N383 1.356 . S
N386 C378 1.356 . S
N386 H392 0.984 . S
N386 H393 0.984 . S
N387 C380 1.356 . S
N387 H390 0.984 . S
N387 H391 0.985 . S
H388 N383 0.984 . S
H389 N383 0.985 . S
H390 N387 0.984 . S
H391 N387 0.985 . S
H392 N386 0.984 . S
H393 N386 0.984 . S
H394 N382 0.984 . S
H395 N382 0.985 . S
C396 C397 1.363 . S
C396 C402 1.379 . S
C396 N404 1.356 . S
C397 C396 1.363 . S
C397 C403 1.363 . S
C398 C399 1.363 . S
C398 C403 1.379 . S
C398 N405 1.356 . S
C399 C398 1.363 . S
C399 C402 1.363 . S
N400 C402 1.356 . S
N400 H412 0.984 . S
N400 H413 0.985 . S
N401 C403 1.356 . S
N401 H406 0.984 . S
N401 H407 0.985 . S
C402 C396 1.379 . S
C402 C399 1.363 . S
C402 N400 1.356 . S
C403 C397 1.363 . S
C403 C398 1.379 . S
C403 N401 1.356 . S
N404 C396 1.356 . S
N404 H410 0.984 . S
N404 H411 0.984 . S
N405 C398 1.356 . S
N405 H408 0.984 . S
N405 H409 0.985 . S
H406 N401 0.984 . S
H407 N401 0.985 . S
H408 N405 0.984 . S
H409 N405 0.985 . S
H410 N404 0.984 . S
H411 N404 0.984 . S
H412 N400 0.984 . S
H413 N400 0.985 . S
C414 C415 1.363 . S
C414 C420 1.379 . S
C414 N422 1.356 . S
C415 C414 1.363 . S
C415 C421 1.363 . S
C416 C417 1.363 . S
C416 C421 1.379 . S
C416 N423 1.356 . S
C417 C416 1.363 . S
C417 C420 1.363 . S
N418 C420 1.356 . S
N418 H430 0.984 . S
N418 H431 0.985 . S
N419 C421 1.356 . S
N419 H424 0.984 . S
N419 H425 0.985 . S
C420 C414 1.379 . S
C420 C417 1.363 . S
C420 N418 1.356 . S
C421 C415 1.363 . S
C421 C416 1.379 . S
C421 N419 1.356 . S
N422 C414 1.356 . S
N422 H428 0.984 . S
N422 H429 0.984 . S
N423 C416 1.356 . S
N423 H426 0.984 . S
N423 H427 0.985 . S
H424 N419 0.984 . S
H425 N419 0.985 . S
H426 N423 0.984 . S
H427 N423 0.985 . S
H428 N422 0.984 . S
H429 N422 0.984 . S
H430 N418 0.984 . S
H431 N418 0.985 . S
C432 C433 1.363 . S
C432 C438 1.379 . S
C432 N440 1.356 . S
C433 C432 1.363 . S
C433 C439 1.363 . S
C434 C435 1.363 . S
C434 C439 1.379 . S
C434 N441 1.356 . S
C435 C434 1.363 . S
C435 C438 1.363 . S
N436 C438 1.356 . S
N436 H448 0.984 . S
N436 H449 0.985 . S
N437 C439 1.356 . S
N437 H442 0.984 . S
N437 H443 0.985 . S
C438 C432 1.379 . S
C438 C435 1.363 . S
C438 N436 1.356 . S
C439 C433 1.363 . S
C439 C434 1.379 . S
C439 N437 1.356 . S
N440 C432 1.356 . S
N440 H446 0.984 . S
N440 H447 0.984 . S
N441 C434 1.356 . S
N441 H444 0.984 . S
N441 H445 0.985 . S
H442 N437 0.984 . S
H443 N437 0.985 . S
H444 N441 0.984 . S
H445 N441 0.985 . S
H446 N440 0.984 . S
H447 N440 0.984 . S
H448 N436 0.984 . S
H449 N436 0.985 . S
C450 C451 1.363 . S
C450 C456 1.379 1_554 S
C450 N458 1.356 . S
C451 C450 1.363 . S
C451 C457 1.363 . S
C452 C453 1.349 1_554 S
C452 C457 1.399 . S
C452 N459 1.343 1_554 S
C453 C452 1.349 1_556 S
C453 C456 1.363 . S
N454 C456 1.356 . S
N454 H466 0.984 . S
N454 H467 0.985 . S
N455 C457 1.356 . S
N455 H460 0.984 . S
N455 H461 0.985 . S
C456 C450 1.379 1_556 S
C456 C453 1.363 . S
C456 N454 1.356 . S
C457 C451 1.363 . S
C457 C452 1.399 . S
C457 N455 1.356 . S
N458 C450 1.356 . S
N458 H464 0.984 . S
N458 H465 0.984 . S
N459 C452 1.343 1_556 S
N459 H462 0.984 . S
N459 H463 0.985 . S
H460 N455 0.984 . S
H461 N455 0.985 . S
H462 N459 0.984 . S
H463 N459 0.985 . S
H464 N458 0.984 . S
H465 N458 0.984 . S
H466 N454 0.984 . S
H467 N454 0.985 . S
C468 C469 1.363 . S
C468 C474 1.379 . S
C468 N476 1.356 . S
C469 C468 1.363 . S
C469 C475 1.363 1_545 S
C470 C471 1.361 1_565 S
C470 C475 1.379 . S
C470 N477 1.358 . S
C471 C470 1.361 1_545 S
C471 C474 1.363 . S
N472 C474 1.356 . S
N472 H484 0.984 . S
N472 H485 0.985 . S
N473 C475 1.356 . S
N473 H478 0.984 . S
N473 H479 0.985 . S
C474 C468 1.379 . S
C474 C471 1.363 . S
C474 N472 1.356 . S
C475 C469 1.363 1_565 S
C475 C470 1.379 . S
C475 N473 1.356 . S
N476 C468 1.356 . S
N476 H482 0.984 . S
N476 H483 0.984 . S
N477 C470 1.358 . S
N477 H480 0.984 . S
N477 H481 0.985 . S
H478 N473 0.984 . S
H479 N473 0.985 . S
H480 N477 0.984 . S
H481 N477 0.985 . S
H482 N476 0.984 . S
H483 N476 0.984 . S
H484 N472 0.984 . S
H485 N472 0.985 . S
C486 C487 1.363 . S
C486 C492 1.379 . S
C486 N494 1.356 . S
C487 C486 1.363 . S
C487 C493 1.363 . S
C488 C489 1.363 . S
C488 C493 1.379 . S
C488 N495 1.356 . S
C489 C488 1.363 . S
C489 C492 1.363 . S
N490 C492 1.356 . S
N490 H502 0.984 . S
N490 H503 0.985 . S
N491 C493 1.356 . S
N491 H496 0.984 . S
N491 H497 0.985 . S
C492 C486 1.379 . S
C492 C489 1.363 . S
C492 N490 1.356 . S
C493 C487 1.363 . S
C493 C488 1.379 . S
C493 N491 1.356 . S
N494 C486 1.356 . S
N494 H500 0.984 . S
N494 H501 0.984 . S
N495 C488 1.356 . S
N495 H498 0.984 . S
N495 H499 0.985 . S
H496 N491 0.984 . S
H497 N491 0.985 . S
H498 N495 0.984 . S
H499 N495 0.985 . S
H500 N494 0.984 . S
H501 N494 0.984 . S
H502 N490 0.984 . S
H503 N490 0.985 . S
C504 C505 1.363 . S
C504 C510 1.379 . S
C504 N512 1.356 1_545 S
C505 C504 1.363 . S
C505 C511 1.363 . S
C506 C507 1.363 . S
C506 C511 1.379 . S
C506 N513 1.356 . S
C507 C506 1.363 . S
C507 C510 1.363 . S
N508 C510 1.356 1_565 S
N508 H520 0.984 . S
N508 H521 0.985 . S
N509 C511 1.356 . S
N509 H514 0.984 . S
N509 H515 0.985 . S
C510 C504 1.379 . S
C510 C507 1.363 . S
C510 N508 1.356 1_545 S
C511 C505 1.363 . S
C511 C506 1.379 . S
C511 N509 1.356 . S
N512 C504 1.356 1_565 S
N512 H518 0.984 . S
N512 H519 0.984 . S
N513 C506 1.356 . S
N513 H516 0.984 . S
N513 H517 0.985 . S
H514 N509 0.984 . S
H515 N509 0.985 . S
H516 N513 0.984 . S
H517 N513 0.985 . S
H518 N512 0.984 . S
H519 N512 0.984 . S
H520 N508 0.984 . S
H521 N508 0.985 . S
C522 C523 1.363 . S
C522 C528 1.379 1_556 S
C522 N530 1.356 . S
C523 C522 1.363 . S
C523 C529 1.363 . S
C524 C525 1.363 1_556 S
C524 C529 1.379 . S
C524 N531 1.353 1_556 S
C525 C524 1.363 1_554 S
C525 C528 1.363 . S
N526 C528 1.356 . S
N526 H538 0.984 . S
N526 H539 0.985 . S
N527 C529 1.356 . S
N527 H532 0.984 . S
N527 H533 0.985 . S
C528 C522 1.379 1_554 S
C528 C525 1.363 . S
C528 N526 1.356 . S
C529 C523 1.363 . S
C529 C524 1.379 . S
C529 N527 1.356 . S
N530 C522 1.356 . S
N530 H536 0.984 . S
N530 H537 0.984 . S
N531 C524 1.353 1_554 S
N531 H534 0.991 . S
N531 H535 0.981 1_554 S
H532 N527 0.984 . S
H533 N527 0.985 . S
H534 N531 0.991 . S
H535 N531 0.981 1_556 S
H536 N530 0.984 . S
H537 N530 0.984 . S
H538 N526 0.984 . S
H539 N526 0.985 . S
C540 C541 1.363 . S
C540 C546 1.379 . S
C540 N548 1.356 . S
C541 C540 1.363 . S
C541 C547 1.363 1_455 S
C542 C543 1.363 1_655 S
C542 C547 1.379 . S
C542 N549 1.356 . S
C543 C542 1.363 1_455 S
C543 C546 1.363 . S
N544 C546 1.356 . S
N544 H556 0.984 . S
N544 H557 0.985 . S
N545 C547 1.356 . S
N545 H550 0.984 . S
N545 H551 0.985 . S
C546 C540 1.379 . S
C546 C543 1.363 . S
C546 N544 1.356 . S
C547 C541 1.363 1_655 S
C547 C542 1.379 . S
C547 N545 1.356 . S
N548 C540 1.356 . S
N548 H554 0.984 . S
N548 H555 0.984 . S
N549 C542 1.356 . S
N549 H552 0.984 . S
N549 H553 0.985 . S
H550 N545 0.984 . S
H551 N545 0.985 . S
H552 N549 0.984 . S
H553 N549 0.985 . S
H554 N548 0.984 . S
H555 N548 0.984 . S
H556 N544 0.984 . S
H557 N544 0.985 . S
C235 C7 1.124 . S
C237 C226 0.995 . S
C253 C51 2.009 . S
C255 C188 1.956 . S
C271 C87 1.362 . S
C273 C207 1.308 . S
C289 C16 0.590 . S
C291 C221 0.438 . S
C309 C183 1.896 . S
C307 C42 1.942 . S
C327 C202 1.187 . S
C325 C96 1.191 . S
C343 C47 1.383 . S
C345 C150 1.274 . S
C361 C91 3.114 . S
C363 C164 3.076 . S
C379 C2 1.967 . S
C381 C126 1.949 . S
C399 C145 1.170 . S
C397 C56 1.163 . S
C417 C169 3.081 . S
C415 C82 3.136 . S
C433 C11 2.025 . S
C435 C131 1.983 . S
C453 C160 1.746 . S
C451 C19 1.728 . S
C469 C50 1.447 . S
C471 C122 1.512 . S
C487 C99 1.545 . S
C489 C141 1.557 . S
C507 C198 1.536 . S
C505 C59 1.552 . S
C525 C217 1.300 . S
C523 C90 1.308 . S
C541 C10 1.422 . S
C543 C179 1.460 . S
