# Generated by pormake.
# Topology zzz, (3,6)-cn, num edge types: 1
# Building blocks:
#     Node 0, Type 0, BuildingBlock: KAKCAD_clean_linker_0, # of connection points: 3
#     Node 1, Type 0, BuildingBlock: KAKCAD_clean_linker_0, # of connection points: 3
#     Node 2, Type 0, BuildingBlock: KAKCAD_clean_linker_0, # of connection points: 3
#     Node 3, Type 0, BuildingBlock: KAKCAD_clean_linker_0, # of connection points: 3
#     Node 4, Type 0, BuildingBlock: KAKCAD_clean_linker_0, # of connection points: 3
#     Node 5, Type 0, BuildingBlock: KAKCAD_clean_linker_0, # of connection points: 3
#     Node 6, Type 0, BuildingBlock: KAKCAD_clean_linker_0, # of connection points: 3
#     Node 7, Type 0, BuildingBlock: KAKCAD_clean_linker_0, # of connection points: 3
#     Node 8, Type 1, BuildingBlock: VOLQOD_clean_sbu_1, # of connection points: 6
#     Node 9, Type 1, BuildingBlock: VOLQOD_clean_sbu_1, # of connection points: 6
#     Node 10, Type 1, BuildingBlock: VOLQOD_clean_sbu_1, # of connection points: 6
#     Node 11, Type 1, BuildingBlock: VOLQOD_clean_sbu_1, # of connection points: 6
#     Edge 12, Type (0, 1), BuildingBlock: TEMPAE_clean_linker_10, # of connection points: 2
#     Edge 13, Type (0, 1), BuildingBlock: TEMPAE_clean_linker_10, # of connection points: 2
#     Edge 14, Type (0, 1), BuildingBlock: TEMPAE_clean_linker_10, # of connection points: 2
#     Edge 15, Type (0, 1), BuildingBlock: TEMPAE_clean_linker_10, # of connection points: 2
#     Edge 16, Type (0, 1), BuildingBlock: TEMPAE_clean_linker_10, # of connection points: 2
#     Edge 17, Type (0, 1), BuildingBlock: TEMPAE_clean_linker_10, # of connection points: 2
#     Edge 18, Type (0, 1), BuildingBlock: TEMPAE_clean_linker_10, # of connection points: 2
#     Edge 19, Type (0, 1), BuildingBlock: TEMPAE_clean_linker_10, # of connection points: 2
#     Edge 20, Type (0, 1), BuildingBlock: TEMPAE_clean_linker_10, # of connection points: 2
#     Edge 21, Type (0, 1), BuildingBlock: TEMPAE_clean_linker_10, # of connection points: 2
#     Edge 22, Type (0, 1), BuildingBlock: TEMPAE_clean_linker_10, # of connection points: 2
#     Edge 23, Type (0, 1), BuildingBlock: TEMPAE_clean_linker_10, # of connection points: 2
#     Edge 24, Type (0, 1), BuildingBlock: TEMPAE_clean_linker_10, # of connection points: 2
#     Edge 25, Type (0, 1), BuildingBlock: TEMPAE_clean_linker_10, # of connection points: 2
#     Edge 26, Type (0, 1), BuildingBlock: TEMPAE_clean_linker_10, # of connection points: 2
#     Edge 27, Type (0, 1), BuildingBlock: TEMPAE_clean_linker_10, # of connection points: 2
#     Edge 28, Type (0, 1), BuildingBlock: TEMPAE_clean_linker_10, # of connection points: 2
#     Edge 29, Type (0, 1), BuildingBlock: TEMPAE_clean_linker_10, # of connection points: 2
#     Edge 30, Type (0, 1), BuildingBlock: TEMPAE_clean_linker_10, # of connection points: 2
#     Edge 31, Type (0, 1), BuildingBlock: TEMPAE_clean_linker_10, # of connection points: 2
#     Edge 32, Type (0, 1), BuildingBlock: TEMPAE_clean_linker_10, # of connection points: 2
#     Edge 33, Type (0, 1), BuildingBlock: TEMPAE_clean_linker_10, # of connection points: 2
#     Edge 34, Type (0, 1), BuildingBlock: TEMPAE_clean_linker_10, # of connection points: 2
#     Edge 35, Type (0, 1), BuildingBlock: TEMPAE_clean_linker_10, # of connection points: 2
# Relax obj value: 0.359
# Max RMSD: 0.257
# Mean RMSD: 0.208
data_MOF--net-zzz--node1-VOLQOD_clean_sbu_1--node2-KAKCAD_clean_linker_0--edge1-TEMPAE_clean_linker_10
_symmetry_space_group_name_H-M    P1
_symmetry_Int_Tables_number       1
_symmetry_cell_setting            triclinic
loop_
_symmetry_equiv_pos_as_xyz
'x, y, z'
_cell_length_a     58.621002
_cell_length_b     57.710056
_cell_length_c     22.993299
_cell_angle_alpha  90.094349
_cell_angle_beta   90.330562
_cell_angle_gamma 92.271714
loop_
_atom_site_label
_atom_site_type_symbol
_atom_site_fract_x
_atom_site_fract_y
_atom_site_fract_z
_atom_type_partial_charge
C0 C 0.82814 0.42898 0.97905 0.0
C1 C 0.84742 0.41813 0.001 0.0
C2 C 0.8106 0.43513 0.01607 0.0
C3 C 0.81174 0.43026 0.07592 0.0
C4 C 0.83003 0.41747 0.09684 0.0
C5 C 0.84774 0.41156 0.05981 0.0
C6 C 0.7956 0.44107 0.11671 0.0
C7 C 0.77285 0.44445 0.1003 0.0
C8 C 0.75888 0.45851 0.13365 0.0
C9 C 0.76758 0.46879 0.18512 0.0
C10 C 0.78986 0.46445 0.20363 0.0
C11 C 0.80371 0.45073 0.16934 0.0
C12 C 0.79984 0.47512 0.25679 0.0
C13 C 0.80714 0.49857 0.25692 0.0
C14 C 0.8058 0.46092 0.30343 0.0
C15 C 0.81982 0.46971 0.34824 0.0
C16 C 0.82846 0.49278 0.34667 0.0
C17 C 0.73598 0.46376 0.11106 0.0
C18 C 0.73054 0.48676 0.09923 0.0
C19 C 0.72057 0.44565 0.09447 0.0
C20 C 0.70045 0.4504 0.06466 0.0
C21 C 0.6956 0.47331 0.04998 0.0
C22 C 0.7106 0.49148 0.06848 0.0
C23 C 0.82146 0.50732 0.30143 0.0
H24 H 0.82715 0.43384 0.93365 0.0
H25 H 0.79695 0.44505 0.99815 0.0
H26 H 0.83121 0.41296 0.14243 0.0
H27 H 0.86233 0.40315 0.0781 0.0
H28 H 0.76625 0.43701 0.05998 0.0
H29 H 0.82133 0.44877 0.18239 0.0
H30 H 0.75708 0.47998 0.21065 0.0
H31 H 0.80297 0.50969 0.22079 0.0
H32 H 0.80059 0.44269 0.30355 0.0
H33 H 0.82514 0.458 0.38204 0.0
H34 H 0.74229 0.50097 0.11108 0.0
H35 H 0.72448 0.42778 0.10298 0.0
H36 H 0.82783 0.52518 0.29923 0.0
H37 H 0.70716 0.5093 0.05788 0.0
H38 H 0.68923 0.43607 0.05059 0.0
C39 C 0.0623 0.79824 0.01224 0.0
C40 C 0.07249 0.8192 0.03277 0.0
C41 C 0.05536 0.78074 0.05082 0.0
C42 C 0.05919 0.78327 0.11103 0.0
C43 C 0.07112 0.80343 0.131 0.0
C44 C 0.07736 0.82128 0.09259 0.0
C45 C 0.04948 0.76575 0.15285 0.0
C46 C 0.04646 0.74232 0.1371 0.0
C47 C 0.03528 0.72617 0.1741 0.0
C48 C 0.02761 0.73355 0.22876 0.0
C49 C 0.03139 0.75673 0.24621 0.0
C50 C 0.04187 0.77267 0.20772 0.0
C51 C 0.02439 0.76514 0.30406 0.0
C52 C 0.0016 0.76292 0.32234 0.0
C53 C 0.04015 0.77836 0.33768 0.0
C54 C 0.03303 0.79056 0.38615 0.0
C55 C 0.00992 0.78981 0.40251 0.0
C56 C 0.03092 0.70202 0.15317 0.0
C57 C 0.00919 0.69104 0.15818 0.0
C58 C 0.04784 0.69086 0.12189 0.0
C59 C 0.04273 0.67013 0.09258 0.0
C60 C 0.02064 0.65972 0.09452 0.0
C61 C 0.00411 0.67006 0.12922 0.0
C62 C 0.99439 0.77522 0.37117 0.0
H63 H 0.05891 0.79555 0.96635 0.0
H64 H 0.04613 0.7657 0.03317 0.0
H65 H 0.07514 0.80582 0.17667 0.0
H66 H 0.08508 0.83709 0.11052 0.0
H67 H 0.05234 0.73661 0.09512 0.0
H68 H 0.04333 0.79077 0.22032 0.0
H69 H 0.01919 0.72127 0.25797 0.0
H70 H 0.98912 0.75285 0.29695 0.0
H71 H 0.05785 0.78026 0.32455 0.0
H72 H 0.04549 0.8018 0.40836 0.0
H73 H 0.99578 0.69922 0.18194 0.0
H74 H 0.06487 0.69868 0.118 0.0
H75 H 0.97653 0.77403 0.38297 0.0
H76 H 0.98705 0.66232 0.1327 0.0
H77 H 0.05591 0.66295 0.06599 0.0
C78 C 0.70222 0.06393 0.97342 0.0
C79 C 0.68445 0.0767 0.99629 0.0
C80 C 0.7211 0.05897 0.00755 0.0
C81 C 0.72283 0.06684 0.06539 0.0
C82 C 0.70587 0.0812 0.08678 0.0
C83 C 0.68683 0.08609 0.05249 0.0
C84 C 0.74058 0.05749 0.1045 0.0
C85 C 0.7622 0.0525 0.08287 0.0
C86 C 0.77715 0.03869 0.11454 0.0
C87 C 0.7708 0.03114 0.1706 0.0
C88 C 0.74981 0.03722 0.19403 0.0
C89 C 0.73483 0.05027 0.16091 0.0
C90 C 0.74175 0.02804 0.25033 0.0
C91 C 0.73278 0.00521 0.25379 0.0
C92 C 0.73892 0.04322 0.2971 0.0
C93 C 0.72611 0.03609 0.34536 0.0
C94 C 0.71541 0.01381 0.34699 0.0
C95 C 0.7984 0.03088 0.08663 0.0
C96 C 0.79829 0.02523 0.0271 0.0
C97 C 0.81885 0.02915 0.11833 0.0
C98 C 0.83881 0.02246 0.09069 0.0
C99 C 0.83876 0.01745 0.0307 0.0
C100 C 0.81818 0.01887 -0.00052 0.0
C101 C 0.71966 0.99815 0.30167 0.0
H102 H 0.70099 0.05679 0.92985 0.0
H103 H 0.73358 0.04767 0.98951 0.0
H104 H 0.70685 0.08787 0.13081 0.0
H105 H 0.67339 0.09605 0.0711 0.0
H106 H 0.76706 0.05876 0.04014 0.0
H107 H 0.71802 0.05337 0.17796 0.0
H108 H 0.78171 0.01998 0.19523 0.0
H109 H 0.73451 0.99339 0.21756 0.0
H110 H 0.74562 0.06097 0.2949 0.0
H111 H 0.72364 0.04843 0.38006 0.0
H112 H 0.78277 0.02575 0.00144 0.0
H113 H 0.81955 0.03338 0.16422 0.0
H114 H 0.71155 0.98096 0.30104 0.0
H115 H 0.81743 0.01555 0.95313 0.0
H116 H 0.85426 0.02127 0.11635 0.0
C117 C 0.54663 0.71876 0.38261 0.0
C118 C 0.55783 0.69792 0.37368 0.0
C119 C 0.5397 0.732 0.33513 0.0
C120 C 0.54375 0.72444 0.27825 0.0
C121 C 0.55646 0.70466 0.26947 0.0
C122 C 0.56353 0.69158 0.3167 0.0
C123 C 0.53169 0.73459 0.22849 0.0
C124 C 0.53572 0.75776 0.21173 0.0
C125 C 0.52449 0.76651 0.16267 0.0
C126 C 0.50914 0.75193 0.13097 0.0
C127 C 0.50503 0.72878 0.1475 0.0
C128 C 0.51627 0.72033 0.19651 0.0
C129 C 0.49094 0.71259 0.11076 0.0
C130 C 0.47527 0.69661 0.13608 0.0
C131 C 0.49502 0.7113 0.0508 0.0
C132 C 0.48487 0.69341 0.01756 0.0
C133 C 0.47024 0.67649 0.04343 0.0
C134 C 0.52975 0.79028 0.14121 0.0
C135 C 0.51194 0.80474 0.12623 0.0
C136 C 0.55238 0.79763 0.12944 0.0
C137 C 0.55699 0.81847 0.09993 0.0
C138 C 0.53906 0.83242 0.08252 0.0
C139 C 0.51656 0.82567 0.09747 0.0
C140 C 0.46492 0.67881 0.10269 0.0
H141 H 0.54216 0.72415 0.42609 0.0
H142 H 0.52983 0.74717 0.34274 0.0
H143 H 0.55973 0.69856 0.22582 0.0
H144 H 0.57191 0.67554 0.3082 0.0
H145 H 0.54781 0.76875 0.23602 0.0
H146 H 0.51356 0.70231 0.20895 0.0
H147 H 0.50088 0.75843 0.0923 0.0
H148 H 0.47163 0.69741 0.18216 0.0
H149 H 0.50722 0.72322 0.03025 0.0
H150 H 0.48973 0.69204 0.97235 0.0
H151 H 0.49436 0.79945 0.13498 0.0
H152 H 0.56638 0.78668 0.14021 0.0
H153 H 0.45343 0.66635 0.1238 0.0
H154 H 0.50238 0.83594 0.08413 0.0
H155 H 0.5745 0.82334 0.08915 0.0
C156 C 0.18751 0.59343 0.33532 0.0
C157 C 0.16633 0.58371 0.3166 0.0
C158 C 0.2073 0.59013 0.30295 0.0
C159 C 0.20638 0.57672 0.25168 0.0
C160 C 0.18489 0.56815 0.23171 0.0
C161 C 0.16517 0.57197 0.2631 0.0
C162 C 0.22759 0.57 0.22124 0.0
C163 C 0.24754 0.56537 0.25263 0.0
C164 C 0.26642 0.55576 0.22518 0.0
C165 C 0.26477 0.54985 0.16571 0.0
C166 C 0.24498 0.5545 0.1337 0.0
C167 C 0.22706 0.56549 0.16132 0.0
C168 C 0.24079 0.54499 0.07436 0.0
C169 C 0.22935 0.5582 0.03299 0.0
C170 C 0.24324 0.52124 0.06364 0.0
C171 C 0.23203 0.51046 0.01628 0.0
C172 C 0.21796 0.52317 0.97924 0.0
C173 C 0.28721 0.55088 0.26002 0.0
C174 C 0.295 0.56651 0.30345 0.0
C175 C 0.29891 0.53032 0.25193 0.0
C176 C 0.31769 0.52538 0.28702 0.0
C177 C 0.32518 0.54083 0.33124 0.0
C178 C 0.31363 0.56151 0.33874 0.0
C179 C 0.21787 0.54742 0.98636 0.0
H180 H 0.18904 0.60255 0.37643 0.0
H181 H 0.22339 0.59747 0.31918 0.0
H182 H 0.18319 0.55739 0.19326 0.0
H183 H 0.14907 0.56469 0.24666 0.0
H184 H 0.248 0.56803 0.29925 0.0
H185 H 0.21188 0.56913 0.13648 0.0
H186 H 0.27872 0.5416 0.14427 0.0
H187 H 0.22747 0.57661 0.0397 0.0
H188 H 0.25203 0.5106 0.09464 0.0
H189 H 0.23318 0.49189 0.01112 0.0
H190 H 0.2866 0.58266 0.31047 0.0
H191 H 0.29327 0.51775 0.21935 0.0
H192 H 0.20732 0.55799 0.95921 0.0
H193 H 0.31869 0.57371 0.37269 0.0
H194 H 0.32636 0.50943 0.27943 0.0
C195 C 0.01407 0.18448 0.30911 0.0
C196 C 0.0261 0.1643 0.31938 0.0
C197 C 0.02363 0.20232 0.27482 0.0
C198 C 0.04527 0.20014 0.24983 0.0
C199 C 0.05727 0.17997 0.2603 0.0
C200 C 0.0478 0.16226 0.29468 0.0
C201 C 0.05516 0.21843 0.21139 0.0
C202 C 0.05459 0.2419 0.22668 0.0
C203 C 0.06421 0.25912 0.19017 0.0
C204 C 0.07412 0.25282 0.13713 0.0
C205 C 0.07449 0.22932 0.12138 0.0
C206 C 0.06521 0.21234 0.15879 0.0
C207 C 0.08233 0.22162 0.06404 0.0
C208 C 0.06738 0.22292 0.01645 0.0
C209 C 0.10091 0.20704 0.06091 0.0
C210 C 0.10317 0.19223 0.01327 0.0
C211 C 0.08665 0.19164 0.96887 0.0
C212 C 0.06416 0.28349 0.20958 0.0
C213 C 0.04339 0.29353 0.22266 0.0
C214 C 0.08475 0.29546 0.22367 0.0
C215 C 0.08454 0.31649 0.254 0.0
C216 C 0.06372 0.32597 0.26979 0.0
C217 C 0.04316 0.31469 0.25208 0.0
C218 C 0.06943 0.20787 0.96927 0.0
H219 H 0.99738 0.18653 0.32797 0.0
H220 H 0.01394 0.21761 0.26701 0.0
H221 H 0.07405 0.1779 0.24196 0.0
H222 H 0.05737 0.1468 0.30137 0.0
H223 H 0.04718 0.24677 0.26783 0.0
H224 H 0.06508 0.19426 0.14569 0.0
H225 H 0.08118 0.26603 0.10822 0.0
H226 H 0.05269 0.23371 0.01858 0.0
H227 H 0.11235 0.2055 0.09776 0.0
H228 H 0.11641 0.17966 0.01406 0.0
H229 H 0.02732 0.28444 0.21249 0.0
H230 H 0.10094 0.28785 0.21447 0.0
H231 H 0.05643 0.20753 0.93554 0.0
H232 H 0.02689 0.32148 0.26416 0.0
H233 H 0.10061 0.32492 0.26705 0.0
C234 C 0.34031 0.93117 0.30353 0.0
C235 C 0.36087 0.94451 0.30339 0.0
C236 C 0.32219 0.93713 0.26729 0.0
C237 C 0.32444 0.95641 0.23009 0.0
C238 C 0.34537 0.96913 0.22859 0.0
C239 C 0.36337 0.96321 0.26467 0.0
C240 C 0.30482 0.96435 0.19538 0.0
C241 C 0.28316 0.96557 0.22043 0.0
C242 C 0.26509 0.97574 0.1904 0.0
C243 C 0.26912 0.98517 0.13465 0.0
C244 C 0.29067 0.98359 0.10893 0.0
C245 C 0.3082 0.9729 0.13904 0.0
C246 C 0.29638 0.99455 0.05275 0.0
C247 C 0.30216 0.98053 0.00565 0.0
C248 C 0.30191 0.01841 0.05097 0.0
C249 C 0.31498 0.02772 0.00524 0.0
C250 C 0.32257 0.01327 0.96059 0.0
C251 C 0.24261 0.97732 0.21952 0.0
C252 C 0.23408 0.9588 0.25374 0.0
C253 C 0.23037 0.99777 0.2172 0.0
C254 C 0.2106 0.99995 0.25035 0.0
C255 C 0.20269 0.98177 0.2867 0.0
C256 C 0.21451 0.96104 0.28716 0.0
C257 C 0.315 0.98984 0.9597 0.0
H258 H 0.33796 0.9167 0.33313 0.0
H259 H 0.30631 0.9269 0.269 0.0
H260 H 0.34763 0.98425 0.20106 0.0
H261 H 0.37914 0.97363 0.26323 0.0
H262 H 0.28068 0.95967 0.26476 0.0
H263 H 0.32488 0.97203 0.11911 0.0
H264 H 0.25564 0.99355 0.11125 0.0
H265 H 0.29838 0.962 0.00681 0.0
H266 H 0.29793 0.02943 0.08744 0.0
H267 H 0.32045 0.04586 0.00684 0.0
H268 H 0.24287 0.94266 0.25582 0.0
H269 H 0.23652 0.01242 0.19152 0.0
H270 H 0.32075 0.97819 0.92634 0.0
H271 H 0.20916 0.94673 0.31495 0.0
H272 H 0.20171 0.01602 0.24813 0.0
C273 C 0.44049 0.29654 0.98924 0.0
C274 C 0.45786 0.29866 0.94757 0.0
C275 C 0.44267 0.28142 0.0362 0.0
C276 C 0.46206 0.26803 0.04164 0.0
C277 C 0.47792 0.268 0.99622 0.0
C278 C 0.47589 0.2833 0.94957 0.0
C279 C 0.46935 0.26068 0.10004 0.0
C280 C 0.4728 0.23738 0.11432 0.0
C281 C 0.4822 0.23183 0.16893 0.0
C282 C 0.48822 0.24979 0.20825 0.0
C283 C 0.48507 0.27299 0.1939 0.0
C284 C 0.47538 0.27823 0.1401 0.0
C285 C 0.49281 0.29191 0.23373 0.0
C286 C 0.47896 0.31081 0.24356 0.0
C287 C 0.5145 0.29173 0.26004 0.0
C288 C 0.52232 0.31027 0.29487 0.0
C289 C 0.50851 0.32924 0.30432 0.0
C290 C 0.48586 0.20755 0.18667 0.0
C291 C 0.46824 0.19042 0.18212 0.0
C292 C 0.50622 0.20216 0.21522 0.0
C293 C 0.50829 0.18084 0.24266 0.0
C294 C 0.49013 0.16416 0.24171 0.0
C295 C 0.47035 0.1689 0.20942 0.0
C296 C 0.48671 0.32927 0.27857 0.0
H297 H 0.42648 0.30824 0.98886 0.0
H298 H 0.43041 0.28193 0.07123 0.0
H299 H 0.49317 0.25807 -4e-05 0.0
H300 H 0.48941 0.28452 0.91766 0.0
H301 H 0.4686 0.22381 0.08298 0.0
H302 H 0.47355 0.29623 0.12797 0.0
H303 H 0.49517 0.24571 0.25065 0.0
H304 H 0.46212 0.31134 0.22404 0.0
H305 H 0.52562 0.27748 0.25265 0.0
H306 H 0.53911 0.30974 0.31461 0.0
H307 H 0.45236 0.19412 0.16034 0.0
H308 H 0.52022 0.21493 0.21875 0.0
H309 H 0.47578 0.34376 0.28473 0.0
H310 H 0.4562 0.1563 0.20686 0.0
H311 H 0.5237 0.17804 0.2674 0.0
O312 O 0.07915 0.99465 0.63113 0.0
Zn313 Zn 0.05853 0.99673 0.70135 0.0
O314 O 0.026 0.99308 0.67851 0.0
Zn315 Zn 0.00995 0.02108 0.69609 0.0
Zn316 Zn 0.02356 0.98727 0.5951 0.0
Zn317 Zn 0.01129 0.96726 0.72069 0.0
O318 O 0.98383 0.01503 0.75123 0.0
O319 O 0.98444 0.97717 0.76781 0.0
O320 O 0.06503 0.02826 0.73896 0.0
O321 O 0.03158 0.04495 0.731 0.0
O322 O 0.9977 0.03565 0.62424 0.0
O323 O 0.0055 0.0112 0.55341 0.0
O324 O 0.01065 0.95516 0.57926 0.0
O325 O 0.0672 0.97177 0.75837 0.0
O326 O 0.00159 0.94093 0.66615 0.0
O327 O 0.0335 0.95427 0.77692 0.0
C328 C 0.07484 0.99204 0.57706 0.0
C329 C 0.97577 0.99679 0.776 0.0
C330 C 0.99697 0.02992 0.57083 0.0
C331 C 0.05255 0.04565 0.7458 0.0
C332 C 0.00284 0.93867 0.6111 0.0
C333 C 0.05486 0.95691 0.78603 0.0
O334 O 0.05445 0.98929 0.55835 0.0
O335 O 0.50722 0.04877 0.60297 0.0
Zn336 Zn 0.51071 0.03147 0.67907 0.0
O337 O 0.52148 0.99989 0.66453 0.0
Zn338 Zn 0.49937 0.97685 0.69422 0.0
Zn339 Zn 0.52519 0.99467 0.58126 0.0
Zn340 Zn 0.55074 0.99564 0.70314 0.0
O341 O 0.51351 0.95563 0.75202 0.0
O342 O 0.54917 0.96951 0.76176 0.0
O343 O 0.47989 0.03019 0.7196 0.0
O344 O 0.47391 0.99241 0.73426 0.0
O345 O 0.48479 0.95775 0.62985 0.0
O346 O 0.50441 0.96873 0.55187 0.0
O347 O 0.55776 0.98857 0.56063 0.0
O348 O 0.53323 0.05007 0.7303 0.0
O349 O 0.57577 0.98987 0.64571 0.0
O350 O 0.56027 0.02463 0.74518 0.0
C351 C 0.50979 0.04283 0.55003 0.0
C352 C 0.53318 0.95501 0.7756 0.0
C353 C 0.48876 0.95617 0.57567 0.0
C354 C 0.46784 0.01322 0.73993 0.0
C355 C 0.57601 0.98751 0.59065 0.0
C356 C 0.55221 0.04455 0.7525 0.0
O357 O 0.51638 0.02279 0.53647 0.0
O358 O 0.45811 0.50526 0.6455 0.0
Zn359 Zn 0.48132 0.50017 0.71008 0.0
O360 O 0.51279 0.50232 0.6787 0.0
Zn361 Zn 0.52838 0.47362 0.6922 0.0
Zn362 Zn 0.51199 0.50812 0.5952 0.0
Zn363 Zn 0.5305 0.52737 0.71652 0.0
O364 O 0.55537 0.47784 0.74677 0.0
O365 O 0.55666 0.5157 0.76395 0.0
O366 O 0.47435 0.46804 0.74455 0.0
O367 O 0.50648 0.45012 0.72625 0.0
O368 O 0.53859 0.45921 0.61805 0.0
O369 O 0.5254 0.48224 0.54974 0.0
O370 O 0.52853 0.53816 0.57509 0.0
O371 O 0.47671 0.52515 0.77132 0.0
O372 O 0.54219 0.5515 0.65937 0.0
O373 O 0.51065 0.54365 0.77157 0.0
C374 C 0.46018 0.50896 0.59105 0.0
C375 C 0.56439 0.49564 0.77195 0.0
C376 C 0.53556 0.46408 0.56472 0.0
C377 C 0.48614 0.44991 0.74524 0.0
C378 C 0.53966 0.55355 0.60459 0.0
C379 C 0.49027 0.54138 0.78997 0.0
O380 O 0.47972 0.51035 0.5672 0.0
O381 O 0.97889 0.51741 0.61913 0.0
Zn382 Zn 0.00878 0.52072 0.66475 0.0
O383 O 0.02023 0.48996 0.68577 0.0
Zn384 Zn 0.02225 0.48677 0.77019 0.0
Zn385 Zn -3e-05 0.46537 0.65449 0.0
Zn386 Zn 0.05046 0.48619 0.65353 0.0
O387 O 0.05477 0.48262 0.7973 0.0
O388 O 0.07397 0.48017 0.71479 0.0
O389 O 0.00393 0.53988 0.73746 0.0
O390 O 0.01216 0.51568 0.80902 0.0
O391 O 0.00133 0.46083 0.79907 0.0
O392 O 0.98514 0.44656 0.71852 0.0
O393 O 0.01612 0.44431 0.59955 0.0
O394 O 0.03188 0.53903 0.61551 0.0
O395 O 0.05085 0.4608 0.59353 0.0
O396 O 0.061 0.51549 0.61531 0.0
C397 C 0.96791 0.49954 0.59928 0.0
C398 C 0.07338 0.48006 0.77005 0.0
C399 C 0.98729 0.44669 0.77367 0.0
C400 C 0.00574 0.53528 0.79148 0.0
C401 C 0.03608 0.44524 0.57787 0.0
C402 C 0.05235 0.53466 0.60221 0.0
O403 O 0.97461 0.47918 0.60909 0.0
C404 C 0.17995 0.00569 0.3552 0.0
C405 C 0.1829 0.98459 0.32618 0.0
C406 C 0.16228 0.00808 0.3955 0.0
C407 C 0.14741 0.98882 0.40784 0.0
C408 C 0.15007 0.96759 0.37823 0.0
C409 C 0.16761 0.96581 0.3374 0.0
C410 C 0.15974 0.03112 0.42553 0.0
C411 C 0.13462 0.94661 0.39038 0.0
C412 C 0.11588 0.98682 0.55196 0.0
C413 C 0.09374 0.99215 0.5346 0.0
C414 C 0.13358 0.98583 0.51119 0.0
C415 C 0.1291 0.99075 0.45195 0.0
C416 C 0.10693 0.99678 0.43452 0.0
C417 C 0.08948 0.99719 0.47593 0.0
C418 C 0.15694 0.97899 0.53126 0.0
C419 C 0.10158 0.00259 0.37201 0.0
H420 H 0.19182 0.02023 0.34761 0.0
H421 H 0.16941 0.94957 0.31447 0.0
H422 H 0.14212 0.03708 0.41948 0.0
H423 H 0.1626 0.02918 0.47297 0.0
H424 H 0.17194 0.04472 0.4089 0.0
H425 H 0.13909 0.93131 0.36404 0.0
H426 H 0.13568 0.94197 0.43711 0.0
H427 H 0.11661 0.95061 0.38099 0.0
H428 H 0.11925 0.98283 0.59718 0.0
H429 H 0.07245 0.00157 0.46231 0.0
H430 H 0.16993 0.99267 0.51962 0.0
H431 H 0.16164 0.96285 0.50879 0.0
H432 H 0.15773 0.97607 0.57896 0.0
H433 H 0.11345 0.01668 0.3565 0.0
H434 H 0.08378 0.00813 0.36616 0.0
H435 H 0.10408 0.98725 0.34397 0.0
C436 C 0.47213 0.13519 0.31074 0.0
C437 C 0.49127 0.14308 0.27889 0.0
C438 C 0.4738 0.1175 0.35225 0.0
C439 C 0.49519 0.10775 0.36298 0.0
C440 C 0.51434 0.11491 0.32935 0.0
C441 C 0.51208 0.13226 0.28729 0.0
C442 C 0.45287 0.10995 0.38635 0.0
C443 C 0.53749 0.10501 0.33961 0.0
C444 C 0.50661 0.08341 0.5134 0.0
C445 C 0.50516 0.05947 0.50289 0.0
C446 C 0.50331 0.0993 0.46823 0.0
C447 C 0.49792 0.09103 0.41152 0.0
C448 C 0.49579 0.06688 0.40105 0.0
C449 C 0.49969 0.05139 0.4467 0.0
C450 C 0.50608 0.12495 0.48092 0.0
C451 C 0.48953 0.0574 0.34156 0.0
H452 H 0.45602 0.14352 0.30524 0.0
H453 H 0.52685 0.13784 0.26205 0.0
H454 H 0.45074 0.09075 0.38649 0.0
H455 H 0.45491 0.11566 0.43224 0.0
H456 H 0.43707 0.1173 0.36842 0.0
H457 H 0.55044 0.11175 0.30817 0.0
H458 H 0.5435 0.10942 0.38428 0.0
H459 H 0.53633 0.08583 0.3363 0.0
H460 H 0.51094 0.08974 0.55665 0.0
H461 H 0.49831 0.03288 0.43846 0.0
H462 H 0.49016 0.13371 0.46959 0.0
H463 H 0.51991 0.13276 0.45365 0.0
H464 H 0.51025 0.12854 0.52734 0.0
H465 H 0.47343 0.06486 0.32614 0.0
H466 H 0.48735 0.03819 0.34138 0.0
H467 H 0.50301 0.06253 0.30991 0.0
C468 C 0.36051 0.55295 0.38777 0.0
C469 C 0.34475 0.53536 0.36994 0.0
C470 C 0.37873 0.54821 0.42523 0.0
C471 C 0.3815 0.52525 0.44486 0.0
C472 C 0.36578 0.50737 0.42686 0.0
C473 C 0.34754 0.51266 0.3899 0.0
C474 C 0.3951 0.56778 0.4435 0.0
C475 C 0.36828 0.48264 0.44646 0.0
C476 C 0.44127 0.51075 0.49345 0.0
C477 C 0.43963 0.51204 0.55427 0.0
C478 C 0.42236 0.51447 0.45751 0.0
C479 C 0.40128 0.51991 0.48283 0.0
C480 C 0.39938 0.52095 0.54418 0.0
C481 C 0.41855 0.51686 0.57921 0.0
C482 C 0.42503 0.51289 0.39233 0.0
C483 C 0.37724 0.52691 0.57274 0.0
H484 H 0.35877 0.57047 0.37193 0.0
H485 H 0.33528 0.499 0.3772 0.0
H486 H 0.39599 0.56888 0.49165 0.0
H487 H 0.41252 0.56436 0.42787 0.0
H488 H 0.39007 0.58481 0.42621 0.0
H489 H 0.3546 0.47074 0.4286 0.0
H490 H 0.38506 0.47639 0.43252 0.0
H491 H 0.36785 0.48171 0.49463 0.0
H492 H 0.45743 0.50684 0.47372 0.0
H493 H 0.41714 0.51796 0.62611 0.0
H494 H 0.42202 0.52998 0.37227 0.0
H495 H 0.41211 0.5003 0.37393 0.0
H496 H 0.44228 0.50746 0.37963 0.0
H497 H 0.37249 0.54456 0.5594 0.0
H498 H 0.37836 0.52637 0.62097 0.0
H499 H 0.36328 0.51468 0.5582 0.0
C500 C 0.04872 0.36425 0.29926 0.0
C501 C 0.06317 0.34597 0.31017 0.0
C502 C 0.04579 0.38166 0.34095 0.0
C503 C 0.05728 0.38047 0.39516 0.0
C504 C 0.07252 0.36249 0.40554 0.0
C505 C 0.07539 0.34552 0.36271 0.0
C506 C 0.02973 0.40082 0.32786 0.0
C507 C 0.08487 0.36045 0.46301 0.0
C508 C 0.0604 0.43314 0.49483 0.0
C509 C 0.04194 0.42841 0.53215 0.0
C510 C 0.06554 0.41779 0.44974 0.0
C511 C 0.05214 0.39704 0.44247 0.0
C512 C 0.0337 0.39201 0.48055 0.0
C513 C 0.0287 0.40784 0.5246 0.0
C514 C 0.08511 0.4239 0.40944 0.0
C515 C 0.01922 0.36987 0.47475 0.0
H516 H 0.03935 0.36465 0.2585 0.0
H517 H 0.08634 0.33122 0.37156 0.0
H518 H 0.01455 0.39904 0.35633 0.0
H519 H 0.03818 0.41798 0.33721 0.0
H520 H 0.02386 0.40052 0.28183 0.0
H521 H 0.09729 0.34639 0.4627 0.0
H522 H 0.09412 0.37703 0.47407 0.0
H523 H 0.07229 0.35681 0.49802 0.0
H524 H 0.0706 0.4491 0.50008 0.0
H525 H 0.01448 0.40402 0.55341 0.0
H526 H 0.07877 0.42475 0.36396 0.0
H527 H 0.09786 0.41022 0.411 0.0
H528 H 0.09379 0.44079 0.42074 0.0
H529 H 0.01076 0.36918 0.43147 0.0
H530 H 0.00587 0.36829 0.50876 0.0
H531 H 0.03016 0.35466 0.47777 0.0
C532 C 0.88103 0.02293 0.01387 0.0
C533 C 0.86008 0.01161 -0.00028 0.0
C534 C 0.9007 0.01927 0.98105 0.0
C535 C 0.8993 0.00432 0.93217 0.0
C536 C 0.87846 0.99223 0.91883 0.0
C537 C 0.85922 0.99577 0.95321 0.0
C538 C 0.92278 0.03206 0.99742 0.0
C539 C 0.87619 0.97631 0.86673 0.0
C540 C 0.94093 0.01644 0.80902 0.0
C541 C 0.9562 0.99855 0.81584 0.0
C542 C 0.92229 0.01841 0.84645 0.0
C543 C 0.91917 0.00244 0.89271 0.0
C544 C 0.93474 0.98454 0.90036 0.0
C545 C 0.95292 0.98263 0.86134 0.0
C546 C 0.90577 0.03743 0.83604 0.0
C547 C 0.93229 0.96755 0.95001 0.0
H548 H 0.88193 0.03534 0.0493 0.0
H549 H 0.84333 0.98643 0.94278 0.0
H550 H 0.93695 0.01989 0.99922 0.0
H551 H 0.92718 0.04523 0.96381 0.0
H552 H 0.92169 0.04097 0.04013 0.0
H553 H 0.85901 0.96754 0.86357 0.0
H554 H 0.87932 0.98642 0.82634 0.0
H555 H 0.88919 0.96288 0.86878 0.0
H556 H 0.94334 0.02872 0.77373 0.0
H557 H 0.96484 0.96891 0.86712 0.0
H558 H 0.90527 0.04891 0.87471 0.0
H559 H 0.88828 0.02977 0.82941 0.0
H560 H 0.91041 0.04818 0.79753 0.0
H561 H 0.93227 0.97704 0.99202 0.0
H562 H 0.94625 0.95508 0.95096 0.0
H563 H 0.91574 0.95763 0.94646 0.0
C564 C 0.53235 0.87342 0.05361 0.0
C565 C 0.5433 0.85263 0.04376 0.0
C566 C 0.53334 0.89134 0.01241 0.0
C567 C 0.54533 0.88823 0.95984 0.0
C568 C 0.55746 0.86779 0.95114 0.0
C569 C 0.55637 0.85026 0.99336 0.0
C570 C 0.52049 0.91304 0.02372 0.0
C571 C 0.57031 0.86375 0.89555 0.0
C572 C 0.52163 0.91852 0.82776 0.0
C573 C 0.53712 0.93747 0.82121 0.0
C574 C 0.52439 0.90224 0.87213 0.0
C575 C 0.54296 0.90507 0.91147 0.0
C576 C 0.55882 0.92402 0.90489 0.0
C577 C 0.55579 0.93994 0.85955 0.0
C578 C 0.50725 0.88209 0.87722 0.0
C579 C 0.57869 0.92769 0.94636 0.0
H580 H 0.52243 0.87538 0.09285 0.0
H581 H 0.56467 0.83412 0.98531 0.0
H582 H 0.53144 0.9287 0.01444 0.0
H583 H 0.50545 0.91341 0.99426 0.0
H584 H 0.51443 0.91399 0.06932 0.0
H585 H 0.58096 0.84828 0.89833 0.0
H586 H 0.55797 0.86114 0.85912 0.0
H587 H 0.58148 0.87909 0.88481 0.0
H588 H 0.50725 0.91638 0.79814 0.0
H589 H 0.56777 0.95461 0.85497 0.0
H590 H 0.4984 0.88287 0.91965 0.0
H591 H 0.51612 0.86547 0.87577 0.0
H592 H 0.49421 0.88199 0.84197 0.0
H593 H 0.57227 0.93027 0.99111 0.0
H594 H 0.58983 0.94295 0.93441 0.0
H595 H 0.58915 0.9121 0.94722 0.0
C596 C 0.6792 0.49095 0.96077 0.0
C597 C 0.67589 0.47796 0.01168 0.0
C598 C 0.66115 0.49415 0.92161 0.0
C599 C 0.63916 0.48447 0.93426 0.0
C600 C 0.63562 0.47178 0.98634 0.0
C601 C 0.6541 0.46846 0.02417 0.0
C602 C 0.66572 0.50743 0.86607 0.0
C603 C 0.61234 0.46158 0.00189 0.0
C604 C 0.58868 0.50976 0.85559 0.0
C605 C 0.58375 0.49291 0.81277 0.0
C606 C 0.60648 0.50709 0.89585 0.0
C607 C 0.61998 0.48734 0.8925 0.0
C608 C 0.61527 0.47041 0.84893 0.0
C609 C 0.59706 0.47328 0.80997 0.0
C610 C 0.6107 0.52531 0.94232 0.0
C611 C 0.62956 0.44933 0.84326 0.0
H612 H 0.69613 0.49802 0.9507 0.0
H613 H 0.65154 0.45847 0.06365 0.0
H614 H 0.66169 0.49611 0.82803 0.0
H615 H 0.65451 0.52242 0.8633 0.0
H616 H 0.68377 0.51392 0.86286 0.0
H617 H 0.61223 0.45306 0.04519 0.0
H618 H 0.59966 0.47536 0.00198 0.0
H619 H 0.60666 0.44858 0.96873 0.0
H620 H 0.57833 0.52487 0.85838 0.0
H621 H 0.5934 0.46025 0.77684 0.0
H622 H 0.62821 0.53311 0.93822 0.0
H623 H 0.60949 0.51722 0.98599 0.0
H624 H 0.59834 0.53938 0.9398 0.0
H625 H 0.64773 0.45479 0.83688 0.0
H626 H 0.62395 0.43801 0.8063 0.0
H627 H 0.6286 0.43898 0.88385 0.0
C628 C 0.99352 0.6375 0.02767 0.0
C629 C 0.01468 0.6393 0.05673 0.0
C630 C 0.98886 0.61997 0.98631 0.0
C631 C 0.00594 0.60422 0.97263 0.0
C632 C 0.02696 0.60538 0.00328 0.0
C633 C 0.03092 0.62265 0.0455 0.0
C634 C 0.96598 0.61885 0.95573 0.0
C635 C 0.04571 0.589 0.98977 0.0
C636 C 0.99517 0.54752 0.89158 0.0
C637 C 0.00232 0.55355 0.8353 0.0
C638 C 0.99483 0.5642 0.93602 0.0
C639 C 0.00251 0.58726 0.92424 0.0
C640 C 0.00887 0.59362 0.86689 0.0
C641 C 0.0084 0.57672 0.82287 0.0
C642 C 0.98718 0.55691 0.99608 0.0
C643 C 0.01754 0.61794 0.85276 0.0
H644 H 0.98088 0.65033 0.03539 0.0
H645 H 0.04707 0.62346 0.06871 0.0
H646 H 0.96815 0.62424 0.90975 0.0
H647 H 0.95868 0.60081 0.95554 0.0
H648 H 0.95359 0.63032 0.97649 0.0
H649 H 0.06095 0.59201 0.01811 0.0
H650 H 0.03938 0.57077 0.99514 0.0
H651 H 0.05101 0.59115 0.94377 0.0
H652 H 0.99025 0.52963 0.90115 0.0
H653 H 0.01409 0.58138 0.7795 0.0
H654 H 0.97513 0.56942 0.01392 0.0
H655 H 0.00215 0.55684 0.02581 0.0
H656 H 0.97878 0.53931 0.99614 0.0
H657 H 0.00517 0.63076 0.86736 0.0
H658 H 0.02058 0.6204 0.80548 0.0
H659 H 0.0338 0.62178 0.87646 0.0
C660 C 0.99375 0.13692 0.3478 0.0
C661 C 0.01634 0.14531 0.35591 0.0
C662 C 0.98504 0.11783 0.37973 0.0
C663 C 0.99933 0.107 0.42045 0.0
C664 C 0.02193 0.11588 0.4299 0.0
C665 C 0.03011 0.13493 0.39759 0.0
C666 C 0.96087 0.10887 0.36871 0.0
C667 C 0.03769 0.105 0.4734 0.0
C668 C 0.98235 0.06882 0.54655 0.0
C669 C 0.99034 0.04748 0.52764 0.0
C670 C 0.98277 0.08812 0.5096 0.0
C671 C 0.99136 0.08594 0.45258 0.0
C672 C 0.99664 0.0638 0.43106 0.0
C673 C 0.99599 0.04476 0.46888 0.0
C674 C 0.9765 0.11133 0.53383 0.0
C675 C 0.00553 0.06067 0.37018 0.0
H676 H 0.98311 0.14485 0.3153 0.0
H677 H 0.04744 0.14165 0.40466 0.0
H678 H 0.96111 0.09183 0.3464 0.0
H679 H 0.9517 0.10615 0.41037 0.0
H680 H 0.95115 0.12089 0.3412 0.0
H681 H 0.0546 0.11432 0.4762 0.0
H682 H 0.02986 0.10487 0.51722 0.0
H683 H 0.04038 0.08671 0.46107 0.0
H684 H 0.97747 0.07099 0.59158 0.0
H685 H 0.00184 0.02826 0.45352 0.0
H686 H 0.9672 0.12145 0.501 0.0
H687 H 0.99232 0.12148 0.54571 0.0
H688 H 0.96579 0.10938 0.57337 0.0
H689 H 0.00481 0.04216 0.35671 0.0
H690 H 0.02358 0.0672 0.36837 0.0
H691 H 0.99567 0.07077 0.33844 0.0
C692 C 0.38912 0.95899 0.37709 0.0
C693 C 0.37925 0.94024 0.34601 0.0
C694 C 0.40724 0.95597 0.41567 0.0
C695 C 0.41576 0.93356 0.4236 0.0
C696 C 0.40545 0.91435 0.3937 0.0
C697 C 0.38721 0.91793 0.35512 0.0
C698 C 0.41754 0.97695 0.44717 0.0
C699 C 0.41408 0.89024 0.40105 0.0
C700 C 0.476 0.94189 0.47773 0.0
C701 C 0.47235 0.94292 0.53792 0.0
C702 C 0.45802 0.93594 0.43941 0.0
C703 C 0.43596 0.931 0.46196 0.0
C704 C 0.43293 0.92897 0.52277 0.0
C705 C 0.45123 0.93492 0.56018 0.0
C706 C 0.4621 0.93776 0.37479 0.0
C707 C 0.40977 0.92329 0.54856 0.0
H708 H 0.38264 0.97617 0.37101 0.0
H709 H 0.37958 0.90342 0.331 0.0
H710 H 0.41703 0.97409 0.49485 0.0
H711 H 0.4357 0.9797 0.43476 0.0
H712 H 0.40847 0.99302 0.43718 0.0
H713 H 0.40207 0.87682 0.3823 0.0
H714 H 0.43075 0.88909 0.37884 0.0
H715 H 0.41691 0.88631 0.44769 0.0
H716 H 0.49242 0.9475 0.46013 0.0
H717 H 0.44832 0.93522 0.60668 0.0
H718 H 0.45574 0.95447 0.35878 0.0
H719 H 0.45268 0.92361 0.35105 0.0
H720 H 0.48053 0.93715 0.36419 0.0
H721 H 0.39948 0.93902 0.54766 0.0
H722 H 0.41113 0.91744 0.59442 0.0
H723 H 0.40041 0.90962 0.52293 0.0
C724 C 0.53872 0.35898 0.33376 0.0
C725 C 0.51669 0.34903 0.34091 0.0
C726 C 0.54619 0.37833 0.36683 0.0
C727 C 0.53127 0.38778 0.40792 0.0
C728 C 0.50916 0.37753 0.41589 0.0
C729 C 0.50215 0.35829 0.38226 0.0
C730 C 0.56985 0.38887 0.35721 0.0
C731 C 0.49278 0.38699 0.45968 0.0
C732 C 0.54855 0.42486 0.53713 0.0
C733 C 0.54034 0.44638 0.5202 0.0
C734 C 0.54758 0.40589 0.49895 0.0
C735 C 0.53829 0.40859 0.44258 0.0
C736 C 0.53227 0.43081 0.42324 0.0
C737 C 0.53339 0.44949 0.46233 0.0
C738 C 0.55444 0.38252 0.52096 0.0
C739 C 0.52257 0.43443 0.36312 0.0
H740 H 0.54991 0.35195 0.3014 0.0
H741 H 0.48525 0.3504 0.38845 0.0
H742 H 0.56865 0.40682 0.34065 0.0
H743 H 0.57941 0.38995 0.39896 0.0
H744 H 0.57974 0.37875 0.32566 0.0
H745 H 0.47631 0.3768 0.46093 0.0
H746 H 0.50055 0.38692 0.50379 0.0
H747 H 0.48921 0.40524 0.44895 0.0
H748 H 0.55428 0.42234 0.58149 0.0
H749 H 0.52732 0.46612 0.44853 0.0
H750 H 0.56416 0.37327 0.4875 0.0
H751 H 0.53886 0.3717 0.53073 0.0
H752 H 0.56495 0.38407 0.56124 0.0
H753 H 0.53253 0.42528 0.32997 0.0
H754 H 0.52235 0.45311 0.35154 0.0
H755 H 0.50478 0.42712 0.36127 0.0
C756 C 0.1327 0.5625 0.35983 0.0
C757 C 0.14617 0.58306 0.35559 0.0
C758 C 0.11514 0.56017 0.40043 0.0
C759 C 0.111 0.57877 0.43861 0.0
C760 C 0.12366 0.60004 0.4328 0.0
C761 C 0.14121 0.60193 0.39138 0.0
C762 C 0.10207 0.53711 0.40499 0.0
C763 C 0.11956 0.62035 0.47225 0.0
C764 C 0.0574 0.56431 0.52348 0.0
C765 C 0.06661 0.55144 0.56889 0.0
C766 C 0.07183 0.57576 0.48316 0.0
C767 C 0.09581 0.57426 0.48911 0.0
C768 C 0.10501 0.56357 0.53887 0.0
C769 C 0.09027 0.55216 0.57795 0.0
C770 C 0.06142 0.5874 0.43127 0.0
C771 C 0.13045 0.56189 0.5476 0.0
H772 H 0.13661 0.54763 0.33338 0.0
H773 H 0.15134 0.61798 0.38791 0.0
H774 H 0.10652 0.52855 0.4465 0.0
H775 H 0.08343 0.5397 0.40515 0.0
H776 H 0.10594 0.52521 0.36864 0.0
H777 H 0.10107 0.62203 0.48048 0.0
H778 H 0.12804 0.61757 0.51479 0.0
H779 H 0.12661 0.63688 0.45369 0.0
H780 H 0.03907 0.56392 0.51676 0.0
H781 H 0.09737 0.5426 0.61391 0.0
H782 H 0.06164 0.5755 0.39333 0.0
H783 H 0.07138 0.60345 0.41956 0.0
H784 H 0.04343 0.59178 0.43948 0.0
H785 H 0.13705 0.54909 0.51645 0.0
H786 H 0.13479 0.55627 0.59238 0.0
H787 H 0.1394 0.57882 0.53901 0.0
C788 C 0.0936 0.85627 0.00263 0.0
C789 C 0.07592 0.83948 0.99306 0.0
C790 C 0.0949 0.87689 0.97015 0.0
C791 C 0.07849 0.88053 0.92611 0.0
C792 C 0.06156 0.86305 0.91367 0.0
C793 C 0.06025 0.843 0.9478 0.0
C794 C 0.11303 0.89527 0.98512 0.0
C795 C 0.04396 0.86601 0.8662 0.0
C796 C 0.05564 0.938 0.88232 0.0
C797 C 0.06531 0.94107 0.82731 0.0
C798 C 0.06172 0.91953 0.91782 0.0
C799 C 0.07719 0.90332 0.89664 0.0
C800 C 0.08821 0.90731 0.84268 0.0
C801 C 0.08229 0.92642 0.80876 0.0
C802 C 0.05007 0.91629 0.97582 0.0
C803 C 0.1045 0.89027 0.81814 0.0
H804 H 0.10615 0.85362 0.03649 0.0
H805 H 0.04619 0.8306 0.94035 0.0
H806 H 0.1214 0.90211 0.94521 0.0
H807 H 0.10496 0.91002 0.00683 0.0
H808 H 0.1263 0.88861 0.01472 0.0
H809 H 0.03374 0.84974 0.85747 0.0
H810 H 0.03212 0.87962 0.87908 0.0
H811 H 0.05234 0.87172 0.82523 0.0
H812 H 0.04253 0.94947 0.89645 0.0
H813 H 0.08955 0.92877 0.7658 0.0
H814 H 0.06253 0.91147 0.00977 0.0
H815 H 0.03692 0.90198 0.97249 0.0
H816 H 0.04159 0.93221 0.99 0.0
H817 H 0.11474 0.8979 0.7819 0.0
H818 H 0.09461 0.87487 0.80127 0.0
H819 H 0.11627 0.88416 0.85227 0.0
C820 C 0.65305 0.05729 0.9394 0.0
C821 C 0.66262 0.07773 0.96373 0.0
C822 C 0.63279 0.05736 0.90714 0.0
C823 C 0.62166 0.07846 0.89892 0.0
C824 C 0.63085 0.09914 0.92468 0.0
C825 C 0.65128 0.09852 0.95705 0.0
C826 C 0.62353 0.03479 0.88104 0.0
C827 C 0.61945 0.12191 0.91683 0.0
C828 C 0.58628 0.07049 0.7637 0.0
C829 C 0.56596 0.06124 0.78722 0.0
C830 C 0.60384 0.07933 0.79997 0.0
C831 C 0.60102 0.07838 0.86106 0.0
C832 C 0.57947 0.07157 0.88444 0.0
C833 C 0.56212 0.06292 0.847 0.0
C834 C 0.6264 0.08673 0.7731 0.0
C835 C 0.57565 0.07055 0.94922 0.0
H836 H 0.66146 0.04107 0.94575 0.0
H837 H 0.65865 0.11433 0.97603 0.0
H838 H 0.60578 0.03111 0.89582 0.0
H839 H 0.6231 0.03614 0.83292 0.0
H840 H 0.63396 0.01985 0.89302 0.0
H841 H 0.62689 0.13563 0.94599 0.0
H842 H 0.62149 0.12779 0.87118 0.0
H843 H 0.60087 0.11986 0.92528 0.0
H844 H 0.5892 0.06893 0.71733 0.0
H845 H 0.54642 0.05548 0.865 0.0
H846 H 0.63837 0.07237 0.77693 0.0
H847 H 0.63419 0.10202 0.79609 0.0
H848 H 0.62448 0.09101 0.72628 0.0
H849 H 0.58306 0.05458 0.96678 0.0
H850 H 0.55717 0.07011 0.95986 0.0
H851 H 0.58421 0.08561 0.97147 0.0
C852 C 0.45871 0.65619 0.95049 0.0
C853 C 0.46326 0.65513 0.0104 0.0
C854 C 0.45792 0.63604 0.91618 0.0
C855 C 0.46145 0.61433 0.94261 0.0
C856 C 0.46326 0.61287 0.00386 0.0
C857 C 0.46434 0.63331 0.03702 0.0
C858 C 0.45576 0.63836 0.85103 0.0
C859 C 0.46655 0.59 0.0339 0.0
C860 C 0.45931 0.56027 0.84674 0.0
C861 C 0.48244 0.55875 0.83225 0.0
C862 C 0.45206 0.57799 0.88369 0.0
C863 C 0.46833 0.59452 0.90615 0.0
C864 C 0.49172 0.59265 0.89278 0.0
C865 C 0.49845 0.57481 0.85632 0.0
C866 C 0.42702 0.57935 0.89747 0.0
C867 C 0.50972 0.60981 0.91601 0.0
H868 H 0.45718 0.67291 0.92977 0.0
H869 H 0.46785 0.63216 0.08322 0.0
H870 H 0.47279 0.63654 0.83101 0.0
H871 H 0.4442 0.62446 0.83288 0.0
H872 H 0.44926 0.65546 0.83825 0.0
H873 H 0.4628 0.59102 0.08113 0.0
H874 H 0.45546 0.57605 0.01415 0.0
H875 H 0.48453 0.58504 0.02883 0.0
H876 H 0.44683 0.54794 0.82833 0.0
H877 H 0.51639 0.57371 0.84598 0.0
H878 H 0.42 0.59452 0.87499 0.0
H879 H 0.42454 0.5819 0.94482 0.0
H880 H 0.41707 0.56352 0.88339 0.0
H881 H 0.50604 0.62756 0.90107 0.0
H882 H 0.52719 0.60576 0.90172 0.0
H883 H 0.50947 0.60994 0.96424 0.0
C884 C 0.88179 0.39708 0.96684 0.0
C885 C 0.86818 0.41653 0.96465 0.0
C886 C 0.90244 0.39666 0.93601 0.0
C887 C 0.90964 0.41625 0.90286 0.0
C888 C 0.89568 0.43567 0.89954 0.0
C889 C 0.87521 0.43557 0.93047 0.0
C890 C 0.91681 0.3756 0.94016 0.0
C891 C 0.90269 0.45698 0.86478 0.0
C892 C 0.97016 0.43593 0.86975 0.0
C893 C 0.97055 0.43302 0.80916 0.0
C894 C 0.95115 0.4283 0.90228 0.0
C895 C 0.93217 0.41743 0.87351 0.0
C896 C 0.9336 0.41203 0.81363 0.0
C897 C 0.95279 0.41991 0.78207 0.0
C898 C 0.95045 0.43417 0.96624 0.0
C899 C 0.91391 0.40007 0.78155 0.0
H900 H 0.87639 0.38227 0.99299 0.0
H901 H 0.8651 0.45089 0.92953 0.0
H902 H 0.92217 0.37005 0.89626 0.0
H903 H 0.93256 0.37999 0.96549 0.0
H904 H 0.90758 0.36082 0.96171 0.0
H905 H 0.88951 0.47029 0.86521 0.0
H906 H 0.91881 0.46488 0.88276 0.0
H907 H 0.90594 0.45215 0.81894 0.0
H908 H 0.98394 0.44568 0.89136 0.0
H909 H 0.95306 0.41719 0.73543 0.0
H910 H 0.94302 0.41941 0.99158 0.0
H911 H 0.9394 0.44913 0.97274 0.0
H912 H 0.96769 0.43886 0.98395 0.0
H913 H 0.9061 0.38581 0.80798 0.0
H914 H 0.91932 0.3929 0.73916 0.0
H915 H 0.90054 0.41274 0.77307 0.0
C916 C 0.06548 0.15576 0.93859 0.0
C917 C 0.08427 0.17111 0.93071 0.0
C918 C 0.06304 0.13526 0.90625 0.0
C919 C 0.07959 0.13022 0.86394 0.0
C920 C 0.09862 0.14577 0.85549 0.0
C921 C 0.10093 0.16597 0.88979 0.0
C922 C 0.04273 0.11896 0.91754 0.0
C923 C 0.11629 0.14121 0.80988 0.0
C924 C 0.07794 0.06703 0.81733 0.0
C925 C 0.06229 0.06738 0.77115 0.0
C926 C 0.08478 0.08762 0.8464 0.0
C927 C 0.07619 0.109 0.82762 0.0
C928 C 0.0617 0.10953 0.77824 0.0
C929 C 0.05465 0.08867 0.75117 0.0
C930 C 0.09988 0.08628 0.89959 0.0
C931 C 0.05261 0.13198 0.75591 0.0
H932 H 0.05286 0.15963 0.97117 0.0
H933 H 0.11555 0.17785 0.88431 0.0
H934 H 0.0318 0.11755 0.87807 0.0
H935 H 0.04857 0.10134 0.92751 0.0
H936 H 0.03216 0.12484 0.95427 0.0
H937 H 0.13012 0.15492 0.80902 0.0
H938 H 0.12399 0.12426 0.81796 0.0
H939 H 0.10805 0.14019 0.76633 0.0
H940 H 0.08381 0.05054 0.83278 0.0
H941 H 0.04279 0.08897 0.71483 0.0
H942 H 0.08971 0.08983 0.93896 0.0
H943 H 0.11399 0.09962 0.89782 0.0
H944 H 0.10726 0.06895 0.90441 0.0
H945 H 0.03977 0.13837 0.78672 0.0
H946 H 0.04438 0.12985 0.71248 0.0
H947 H 0.06655 0.14549 0.75291 0.0
C948 C 0.34137 0.01457 0.86276 0.0
C949 C 0.3414 0.02117 0.92147 0.0
C950 C 0.36121 0.01727 0.82907 0.0
C951 C 0.38159 0.02649 0.85502 0.0
C952 C 0.38119 0.03491 0.91284 0.0
C953 C 0.36107 0.03221 0.94531 0.0
C954 C 0.3608 0.00849 0.76719 0.0
C955 C 0.40253 0.04473 0.94237 0.0
C956 C 0.43624 0.99987 0.80541 0.0
C957 C 0.44613 0.01736 0.77034 0.0
C958 C 0.41539 0.00281 0.83332 0.0
C959 C 0.40387 0.02369 0.82557 0.0
C960 C 0.41373 0.04152 0.79044 0.0
C961 C 0.43487 0.03821 0.7635 0.0
C962 C 0.40568 0.98345 0.87112 0.0
C963 C 0.40181 0.0639 0.78076 0.0
H964 H 0.32613 0.00625 0.84399 0.0
H965 H 0.36133 0.03714 0.99083 0.0
H966 H 0.37008 0.02091 0.73813 0.0
H967 H 0.36955 0.99181 0.7651 0.0
H968 H 0.34309 0.00558 0.7505 0.0
H969 H 0.39866 0.05377 0.98363 0.0
H970 H 0.41401 0.03041 0.95243 0.0
H971 H 0.41196 0.05704 0.91338 0.0
H972 H 0.44488 0.98377 0.81134 0.0
H973 H 0.44234 0.05176 0.73619 0.0
H974 H 0.38883 0.97719 0.85381 0.0
H975 H 0.40294 0.98996 0.91588 0.0
H976 H 0.41702 0.96851 0.87353 0.0
H977 H 0.38492 0.06022 0.75995 0.0
H978 H 0.41186 0.07618 0.75282 0.0
H979 H 0.39864 0.07245 0.82304 0.0
C980 C 0.44096 0.32656 0.87683 0.0
C981 C 0.45954 0.31955 0.91021 0.0
C982 C 0.44219 0.34758 0.84577 0.0
C983 C 0.46223 0.36209 0.8497 0.0
C984 C 0.48095 0.35503 0.88357 0.0
C985 C 0.47944 0.33379 0.91289 0.0
C986 C 0.42212 0.35429 0.80896 0.0
C987 C 0.50252 0.3701 0.88971 0.0
C988 C 0.48143 0.40706 0.73928 0.0
C989 C 0.47638 0.42774 0.76761 0.0
C990 C 0.47515 0.38546 0.76329 0.0
C991 C 0.46416 0.38453 0.81789 0.0
C992 C 0.45795 0.40539 0.84529 0.0
C993 C 0.4639 0.42683 0.81932 0.0
C994 C 0.48156 0.36368 0.73185 0.0
C995 C 0.44658 0.40514 0.904 0.0
H996 H 0.42551 0.31561 0.87511 0.0
H997 H 0.49363 0.32867 0.9398 0.0
H998 H 0.41538 0.37077 0.82514 0.0
H999 H 0.42765 0.3573 0.76343 0.0
H1000 H 0.40809 0.34077 0.8091 0.0
H1001 H 0.51519 0.36242 0.91938 0.0
H1002 H 0.51055 0.37274 0.84655 0.0
H1003 H 0.49837 0.38743 0.90671 0.0
H1004 H 0.49085 0.40779 0.6988 0.0
H1005 H 0.46006 0.44285 0.84125 0.0
H1006 H 0.46706 0.35073 0.73161 0.0
H1007 H 0.49602 0.3558 0.75485 0.0
H1008 H 0.48676 0.36723 0.68623 0.0
H1009 H 0.4319 0.39242 0.90456 0.0
H1010 H 0.44048 0.42246 0.9162 0.0
H1011 H 0.45893 0.39969 0.93757 0.0
C1012 C 0.19337 0.52216 0.88896 0.0
C1013 C 0.20085 0.51124 0.93979 0.0
C1014 C 0.17367 0.51399 0.85922 0.0
C1015 C 0.16158 0.49389 0.87945 0.0
C1016 C 0.17029 0.48145 0.92704 0.0
C1017 C 0.18959 0.49043 0.95715 0.0
C1018 C 0.16488 0.5279 0.80881 0.0
C1019 C 0.15838 0.45947 0.94865 0.0
C1020 C 0.0975 0.49275 0.8547 0.0
C1021 C 0.09523 0.48026 0.80254 0.0
C1022 C 0.11896 0.49682 0.88084 0.0
C1023 C 0.13856 0.48758 0.85513 0.0
C1024 C 0.13615 0.47364 0.80458 0.0
C1025 C 0.11455 0.47048 0.77829 0.0
C1026 C 0.12081 0.5121 0.93422 0.0
C1027 C 0.15647 0.46277 0.77712 0.0
H1028 H 0.20227 0.53782 0.87391 0.0
H1029 H 0.19491 0.48177 0.99642 0.0
H1030 H 0.16146 0.51655 0.77055 0.0
H1031 H 0.14848 0.53552 0.82101 0.0
H1032 H 0.17706 0.54219 0.79594 0.0
H1033 H 0.16941 0.4497 0.97855 0.0
H1034 H 0.14271 0.46386 0.97242 0.0
H1035 H 0.15311 0.44804 0.9117 0.0
H1036 H 0.08267 0.50055 0.87329 0.0
H1037 H 0.11284 0.46071 0.73806 0.0
H1038 H 0.13156 0.52787 0.92447 0.0
H1039 H 0.12923 0.50287 0.97019 0.0
H1040 H 0.10389 0.51756 0.94944 0.0
H1041 H 0.1675 0.47641 0.75635 0.0
H1042 H 0.15128 0.44974 0.74347 0.0
H1043 H 0.16693 0.45427 0.81068 0.0
C1044 C 0.0162 0.81261 0.49461 0.0
C1045 C 0.0021 0.80651 0.447 0.0
C1046 C 0.01246 0.83255 0.52762 0.0
C1047 C 0.99377 0.84637 0.51375 0.0
C1048 C 0.97789 0.83872 0.47054 0.0
C1049 C 0.98236 0.819 0.43718 0.0
C1050 C 0.02983 0.84001 0.57336 0.0
C1051 C 0.95727 0.85248 0.45596 0.0
C1052 C 0.98582 0.89794 0.61427 0.0
C1053 C 0.9977 0.9157 0.58396 0.0
C1054 C 0.98325 0.87544 0.59075 0.0
C1055 C 0.99336 0.87051 0.53656 0.0
C1056 C 0.00472 0.88857 0.50508 0.0
C1057 C 0.00649 0.91093 0.52881 0.0
C1058 C 0.97041 0.85685 0.62481 0.0
C1059 C 0.01601 0.88407 0.44742 0.0
H1060 H 0.03109 0.80264 0.50372 0.0
H1061 H 0.97125 0.81449 0.40073 0.0
H1062 H 0.03997 0.85536 0.55749 0.0
H1063 H 0.02127 0.84517 0.61396 0.0
H1064 H 0.04176 0.82608 0.5837 0.0
H1065 H 0.94429 0.84195 0.43099 0.0
H1066 H 0.94928 0.85904 0.49607 0.0
H1067 H 0.9626 0.86771 0.4292 0.0
H1068 H 0.97885 0.90151 0.65677 0.0
H1069 H 0.01576 0.92447 0.50506 0.0
H1070 H 0.98271 0.84525 0.64548 0.0
H1071 H 0.95917 0.84604 0.59571 0.0
H1072 H 0.95984 0.86433 0.65958 0.0
H1073 H 0.02949 0.87129 0.45328 0.0
H1074 H 0.02391 0.90009 0.42817 0.0
H1075 H 0.00334 0.87655 0.416 0.0
C1076 C 0.68225 0.02475 0.40782 0.0
C1077 C 0.69773 0.008 0.3915 0.0
C1078 C 0.66388 0.01921 0.44462 0.0
C1079 C 0.66065 0.99624 0.46532 0.0
C1080 C 0.67655 0.97937 0.45069 0.0
C1081 C 0.69494 0.98546 0.41402 0.0
C1082 C 0.64738 0.03778 0.45937 0.0
C1083 C 0.67367 0.95472 0.47205 0.0
C1084 C 0.6188 0.99066 0.59019 0.0
C1085 C 0.59817 0.98588 0.56033 0.0
C1086 C 0.63959 0.99276 0.56025 0.0
C1087 C 0.63977 0.98987 0.49913 0.0
C1088 C 0.61925 0.9835 0.46935 0.0
C1089 C 0.5987 0.98166 0.50026 0.0
C1090 C 0.6611 0.99957 0.59358 0.0
C1091 C 0.61876 0.98001 0.40424 0.0
H1092 H 0.68387 0.04208 0.38985 0.0
H1093 H 0.70693 0.97246 0.4022 0.0
H1094 H 0.6304 0.03325 0.44002 0.0
H1095 H 0.64515 0.0389 0.50716 0.0
H1096 H 0.65317 0.05513 0.44304 0.0
H1097 H 0.68851 0.9442 0.46096 0.0
H1098 H 0.67134 0.95444 0.51989 0.0
H1099 H 0.65809 0.9464 0.45226 0.0
H1100 H 0.61861 0.99389 0.63663 0.0
H1101 H 0.58291 0.97771 0.47687 0.0
H1102 H 0.66624 0.01782 0.58337 0.0
H1103 H 0.67534 0.98864 0.58044 0.0
H1104 H 0.65873 0.99805 0.64134 0.0
H1105 H 0.6221 0.99691 0.3823 0.0
H1106 H 0.60204 0.9726 0.38864 0.0
H1107 H 0.63235 0.96833 0.3908 0.0
C1108 C 0.54157 0.67545 0.45728 0.0
C1109 C 0.5603 0.68091 0.42149 0.0
C1110 C 0.54135 0.6559 0.4934 0.0
C1111 C 0.56037 0.64153 0.49393 0.0
C1112 C 0.5801 0.64806 0.46178 0.0
C1113 C 0.5798 0.66766 0.42568 0.0
C1114 C 0.51995 0.64957 0.52706 0.0
C1115 C 0.60089 0.63345 0.46207 0.0
C1116 C 0.55815 0.5936 0.6072 0.0
C1117 C 0.54796 0.57514 0.57523 0.0
C1118 C 0.56337 0.6151 0.58081 0.0
C1119 C 0.55816 0.61821 0.52123 0.0
C1120 C 0.54894 0.59931 0.48817 0.0
C1121 C 0.54403 0.57803 0.51548 0.0
C1122 C 0.57349 0.63475 0.61725 0.0
C1123 C 0.54317 0.60187 0.42441 0.0
H1124 H 0.52634 0.68544 0.45389 0.0
H1125 H 0.59444 0.67199 0.39862 0.0
H1126 H 0.51126 0.63408 0.50699 0.0
H1127 H 0.52422 0.64507 0.5726 0.0
H1128 H 0.5078 0.66387 0.5275 0.0
H1129 H 0.61602 0.64287 0.44337 0.0
H1130 H 0.60508 0.62792 0.50694 0.0
H1131 H 0.5973 0.61753 0.4359 0.0
H1132 H 0.56137 0.59153 0.65333 0.0
H1133 H 0.53634 0.56387 0.49021 0.0
H1134 H 0.56043 0.64786 0.62426 0.0
H1135 H 0.58804 0.64353 0.59445 0.0
H1136 H 0.57946 0.62872 0.66039 0.0
H1137 H 0.52947 0.61444 0.4192 0.0
H1138 H 0.53731 0.58517 0.40418 0.0
H1139 H 0.55827 0.6088 0.40028 0.0
C1140 C 0.84533 0.49497 0.44713 0.0
C1141 C 0.84687 0.50045 0.38786 0.0
C1142 C 0.86425 0.49832 0.48439 0.0
C1143 C 0.88528 0.50704 0.4616 0.0
C1144 C 0.8865 0.51399 0.40262 0.0
C1145 C 0.86724 0.5107 0.36652 0.0
C1146 C 0.86212 0.49106 0.54723 0.0
C1147 C 0.90861 0.52316 0.37639 0.0
C1148 C 0.93512 0.52274 0.56363 0.0
C1149 C 0.94697 0.50208 0.5636 0.0
C1150 C 0.9149 0.5247 0.53091 0.0
C1151 C 0.9066 0.50567 0.49682 0.0
C1152 C 0.91871 0.48493 0.49606 0.0
C1153 C 0.9386 0.48336 0.52964 0.0
C1154 C 0.9023 0.54697 0.53326 0.0
C1155 C 0.91066 0.46431 0.4597 0.0
H1156 H 0.82954 0.48725 0.46388 0.0
H1157 H 0.86861 0.51475 0.32062 0.0
H1158 H 0.87128 0.47482 0.55413 0.0
H1159 H 0.87011 0.50448 0.57627 0.0
H1160 H 0.84403 0.48795 0.56017 0.0
H1161 H 0.90601 0.53067 0.3325 0.0
H1162 H 0.91688 0.53661 0.40481 0.0
H1163 H 0.92056 0.50881 0.3725 0.0
H1164 H 0.94142 0.53725 0.58995 0.0
H1165 H 0.94771 0.46737 0.52889 0.0
H1166 H 0.88477 0.54346 0.54993 0.0
H1167 H 0.90058 0.55425 0.4889 0.0
H1168 H 0.91105 0.56021 0.56155 0.0
H1169 H 0.89342 0.45813 0.47385 0.0
H1170 H 0.92233 0.44966 0.46292 0.0
H1171 H 0.9093 0.46944 0.41336 0.0
loop_
_geom_bond_atom_site_label_1
_geom_bond_atom_site_label_2
_geom_bond_distance
_geom_bond_site_symmetry_2
_ccdc_geom_bond_type
C0 C1 1.386 . S
C0 C2 1.397 . S
C0 H24 0.931 . S
C1 C0 1.386 . S
C1 C5 1.397 . S
C2 C0 1.397 . S
C2 C3 1.384 . S
C2 H25 0.930 . S
C3 C2 1.384 . S
C3 C4 1.377 . S
C3 C6 1.481 . S
C4 C3 1.377 . S
C4 C5 1.389 . S
C4 H26 0.929 . S
C5 C1 1.397 . S
C5 C4 1.389 . S
C5 H27 0.931 . S
C6 C3 1.481 . S
C6 C7 1.387 . S
C6 C11 1.390 1_556 S
C7 C6 1.387 . S
C7 C8 1.401 1_556 S
C7 H28 0.930 . S
C8 C7 1.401 1_554 S
C8 C9 1.376 . S
C8 C17 1.511 . S
C9 C8 1.376 . S
C9 C10 1.392 . S
C9 H30 0.931 . S
C10 C9 1.392 . S
C10 C11 1.361 . S
C10 C12 1.500 . S
C11 C6 1.390 1_554 S
C11 C10 1.361 . S
C11 H29 0.931 . S
C12 C10 1.500 . S
C12 C13 1.371 . S
C12 C14 1.365 . S
C13 C12 1.371 . S
C13 C23 1.386 . S
C13 H31 0.931 . S
C14 C12 1.365 . S
C14 C15 1.409 . S
C14 H32 0.929 . S
C15 C14 1.409 . S
C15 C16 1.380 . S
C15 H33 0.930 . S
C16 C15 1.380 . S
C16 C23 1.357 . S
C17 C8 1.511 . S
C17 C18 1.341 1_554 S
C17 C19 1.371 . S
C18 C17 1.341 1_556 S
C18 C22 1.394 . S
C18 H34 0.930 . S
C19 C17 1.371 . S
C19 C20 1.392 . S
C19 H35 0.931 . S
C20 C19 1.392 . S
C20 C21 1.331 1_554 S
C20 H38 0.932 . S
C21 C20 1.331 1_556 S
C21 C22 1.336 . S
C22 C18 1.394 . S
C22 C21 1.336 . S
C22 H37 0.929 . S
C23 C13 1.386 . S
C23 C16 1.357 . S
C23 H36 0.928 . S
H24 C0 0.931 . S
H25 C2 0.930 . S
H26 C4 0.929 . S
H27 C5 0.931 . S
H28 C7 0.930 . S
H29 C11 0.931 . S
H30 C9 0.931 . S
H31 C13 0.931 . S
H32 C14 0.929 . S
H33 C15 0.930 . S
H34 C18 0.930 . S
H35 C19 0.931 . S
H36 C23 0.928 . S
H37 C22 0.929 . S
H38 C20 0.932 . S
C39 C40 1.386 . S
C39 C41 1.397 . S
C39 H63 0.931 . S
C40 C39 1.386 . S
C40 C44 1.397 1_655 S
C41 C39 1.397 . S
C41 C42 1.384 1_556 S
C41 H64 0.930 . S
C42 C41 1.384 1_554 S
C42 C43 1.377 1_655 S
C42 C45 1.481 . S
C43 C42 1.377 1_455 S
C43 C44 1.389 1_554 S
C43 H65 0.929 . S
C44 C40 1.397 1_455 S
C44 C43 1.389 1_556 S
C44 H66 0.931 . S
C45 C42 1.481 . S
C45 C46 1.387 . S
C45 C50 1.390 . S
C46 C45 1.387 . S
C46 C47 1.401 . S
C46 H67 0.930 . S
C47 C46 1.401 . S
C47 C48 1.376 . S
C47 C56 1.511 . S
C48 C47 1.376 . S
C48 C49 1.392 . S
C48 H69 0.931 . S
C49 C48 1.392 . S
C49 C50 1.361 . S
C49 C51 1.500 . S
C50 C45 1.390 . S
C50 C49 1.361 . S
C50 H68 0.931 . S
C51 C49 1.500 . S
C51 C52 1.371 . S
C51 C53 1.365 1_655 S
C52 C51 1.371 . S
C52 C62 1.386 . S
C52 H70 0.931 . S
C53 C51 1.365 1_455 S
C53 C54 1.409 . S
C53 H71 0.929 . S
C54 C53 1.409 . S
C54 C55 1.380 1_455 S
C54 H72 0.930 . S
C55 C54 1.380 1_655 S
C55 C62 1.357 . S
C56 C47 1.511 . S
C56 C57 1.341 . S
C56 C58 1.371 . S
C57 C56 1.341 . S
C57 C61 1.394 . S
C57 H73 0.930 1_554 S
C58 C56 1.371 . S
C58 C59 1.392 . S
C58 H74 0.932 1_655 S
C59 C58 1.392 . S
C59 C60 1.331 . S
C59 H77 0.932 1_655 S
C60 C59 1.331 . S
C60 C61 1.336 . S
C61 C57 1.394 . S
C61 C60 1.336 . S
C61 H76 0.929 1_554 S
C62 C52 1.386 . S
C62 C55 1.357 . S
C62 H75 0.928 . S
H63 C39 0.931 . S
H64 C41 0.930 . S
H65 C43 0.929 . S
H66 C44 0.931 . S
H67 C46 0.930 . S
H68 C50 0.931 . S
H69 C48 0.931 . S
H70 C52 0.931 . S
H71 C53 0.929 . S
H72 C54 0.930 . S
H73 C57 0.930 1_556 S
H74 C58 0.932 1_455 S
H75 C62 0.928 . S
H76 C61 0.929 1_556 S
H77 C59 0.932 1_455 S
C78 C79 1.388 . S
C78 C80 1.397 . S
C78 H102 0.931 . S
C79 C78 1.388 . S
C79 C83 1.396 1_565 S
C80 C78 1.397 . S
C80 C81 1.385 . S
C80 H103 0.930 . S
C81 C80 1.385 . S
C81 C82 1.376 1_565 S
C81 C84 1.480 1_556 S
C82 C81 1.376 1_545 S
C82 C83 1.389 . S
C82 H104 0.929 1_556 S
C83 C79 1.396 1_545 S
C83 C82 1.389 . S
C83 H105 0.931 . S
C84 C81 1.480 1_554 S
C84 C85 1.390 . S
C84 C89 1.390 . S
C85 C84 1.390 . S
C85 C86 1.401 . S
C85 H106 0.930 1_554 S
C86 C85 1.401 . S
C86 C87 1.376 . S
C86 C95 1.514 . S
C87 C86 1.376 . S
C87 C88 1.390 . S
C87 H108 0.936 . S
C88 C87 1.390 . S
C88 C89 1.361 . S
C88 C90 1.499 1_565 S
C89 C84 1.390 . S
C89 C88 1.361 . S
C89 H107 0.931 . S
C90 C88 1.499 1_545 S
C90 C91 1.360 1_545 S
C90 C92 1.377 . S
C91 C90 1.360 1_565 S
C91 C101 1.386 . S
C91 H109 0.931 . S
C92 C90 1.377 . S
C92 C93 1.409 . S
C92 H110 0.929 . S
C93 C92 1.409 . S
C93 C94 1.381 . S
C93 H111 0.930 . S
C94 C93 1.381 . S
C94 C101 1.356 1_545 S
C95 C86 1.514 . S
C95 C96 1.341 1_554 S
C95 C97 1.371 1_565 S
C96 C95 1.341 1_556 S
C96 C100 1.394 . S
C96 H112 0.930 . S
C97 C95 1.371 1_545 S
C97 C98 1.392 . S
C97 H113 0.931 . S
C98 C97 1.392 . S
C98 C99 1.317 1_545 S
C98 H116 0.932 . S
C99 C98 1.317 1_565 S
C99 C100 1.349 1_554 S
C100 C96 1.394 . S
C100 C99 1.349 1_556 S
C100 H115 0.929 . S
C101 C91 1.386 . S
C101 C94 1.356 1_565 S
C101 H114 0.928 . S
H102 C78 0.931 . S
H103 C80 0.930 . S
H104 C82 0.929 1_554 S
H105 C83 0.931 . S
H106 C85 0.930 1_556 S
H107 C89 0.931 . S
H108 C87 0.936 . S
H109 C91 0.931 . S
H110 C92 0.929 . S
H111 C93 0.930 . S
H112 C96 0.930 . S
H113 C97 0.931 . S
H114 C101 0.928 . S
H115 C100 0.929 . S
H116 C98 0.932 . S
C117 C118 1.386 . S
C117 C119 1.397 . S
C117 H141 0.931 . S
C118 C117 1.386 . S
C118 C122 1.397 . S
C119 C117 1.397 . S
C119 C120 1.384 . S
C119 H142 0.930 . S
C120 C119 1.384 . S
C120 C121 1.377 . S
C120 C123 1.481 . S
C121 C120 1.377 . S
C121 C122 1.389 . S
C121 H143 0.929 . S
C122 C118 1.397 . S
C122 C121 1.389 . S
C122 H144 0.931 . S
C123 C120 1.481 . S
C123 C124 1.387 . S
C123 C128 1.390 . S
C124 C123 1.387 . S
C124 C125 1.401 . S
C124 H145 0.930 . S
C125 C124 1.401 . S
C125 C126 1.376 1_554 S
C125 C134 1.511 . S
C126 C125 1.376 1_556 S
C126 C127 1.392 1_556 S
C126 H147 0.931 . S
C127 C126 1.392 1_554 S
C127 C128 1.361 . S
C127 C129 1.500 1_554 S
C128 C123 1.390 . S
C128 C127 1.361 . S
C128 H146 0.931 . S
C129 C127 1.500 1_556 S
C129 C130 1.371 . S
C129 C131 1.365 . S
C130 C129 1.371 . S
C130 C140 1.386 . S
C130 H148 0.931 . S
C131 C129 1.365 . S
C131 C132 1.409 . S
C131 H149 0.929 1_556 S
C132 C131 1.409 . S
C132 C133 1.380 . S
C132 H150 0.930 . S
C133 C132 1.380 . S
C133 C140 1.357 . S
C134 C125 1.511 . S
C134 C135 1.341 . S
C134 C136 1.371 1_554 S
C135 C134 1.341 . S
C135 C139 1.394 . S
C135 H151 0.930 . S
C136 C134 1.371 1_556 S
C136 C137 1.392 . S
C136 H152 0.931 . S
C137 C136 1.392 . S
C137 C138 1.331 . S
C137 H155 0.932 . S
C138 C137 1.331 . S
C138 C139 1.336 1_556 S
C139 C135 1.394 . S
C139 C138 1.336 1_554 S
C139 H154 0.929 . S
C140 C130 1.386 . S
C140 C133 1.357 . S
C140 H153 0.928 . S
H141 C117 0.931 . S
H142 C119 0.930 . S
H143 C121 0.929 . S
H144 C122 0.931 . S
H145 C124 0.930 . S
H146 C128 0.931 . S
H147 C126 0.931 . S
H148 C130 0.931 . S
H149 C131 0.929 1_554 S
H150 C132 0.930 . S
H151 C135 0.930 . S
H152 C136 0.931 . S
H153 C140 0.928 . S
H154 C139 0.929 . S
H155 C137 0.932 . S
C156 C157 1.386 . S
C156 C158 1.397 . S
C156 H180 0.931 . S
C157 C156 1.386 . S
C157 C161 1.397 . S
C158 C156 1.397 . S
C158 C159 1.384 . S
C158 H181 0.930 . S
C159 C158 1.384 . S
C159 C160 1.377 . S
C159 C162 1.481 . S
C160 C159 1.377 . S
C160 C161 1.389 . S
C160 H182 0.929 . S
C161 C157 1.397 . S
C161 C160 1.389 . S
C161 H183 0.931 . S
C162 C159 1.481 . S
C162 C163 1.387 . S
C162 C167 1.390 . S
C163 C162 1.387 . S
C163 C164 1.401 . S
C163 H184 0.930 . S
C164 C163 1.401 . S
C164 C165 1.376 . S
C164 C173 1.511 . S
C165 C164 1.376 . S
C165 C166 1.392 . S
C165 H186 0.931 . S
C166 C165 1.392 . S
C166 C167 1.361 . S
C166 C168 1.500 . S
C167 C162 1.390 . S
C167 C166 1.361 . S
C167 H185 0.931 . S
C168 C166 1.500 . S
C168 C169 1.371 . S
C168 C170 1.365 . S
C169 C168 1.371 . S
C169 C179 1.386 . S
C169 H187 0.931 . S
C170 C168 1.365 . S
C170 C171 1.409 . S
C170 H188 0.929 . S
C171 C170 1.409 . S
C171 C172 1.380 . S
C171 H189 0.930 . S
C172 C171 1.380 . S
C172 C179 1.357 . S
C173 C164 1.511 . S
C173 C174 1.341 . S
C173 C175 1.371 . S
C174 C173 1.341 . S
C174 C178 1.394 . S
C174 H190 0.930 . S
C175 C173 1.371 . S
C175 C176 1.392 . S
C175 H191 0.931 . S
C176 C175 1.392 . S
C176 C177 1.331 . S
C176 H194 0.932 . S
C177 C176 1.331 . S
C177 C178 1.336 . S
C178 C174 1.394 . S
C178 C177 1.336 . S
C178 H193 0.929 . S
C179 C169 1.386 . S
C179 C172 1.357 . S
C179 H192 0.928 . S
H180 C156 0.931 . S
H181 C158 0.930 . S
H182 C160 0.929 . S
H183 C161 0.931 . S
H184 C163 0.930 . S
H185 C167 0.931 . S
H186 C165 0.931 . S
H187 C169 0.931 . S
H188 C170 0.929 . S
H189 C171 0.930 . S
H190 C174 0.930 . S
H191 C175 0.931 . S
H192 C179 0.928 . S
H193 C178 0.929 . S
H194 C176 0.932 . S
C195 C196 1.386 . S
C195 C197 1.397 . S
C195 H219 0.931 . S
C196 C195 1.386 . S
C196 C200 1.397 . S
C197 C195 1.397 . S
C197 C198 1.384 . S
C197 H220 0.930 . S
C198 C197 1.384 . S
C198 C199 1.377 . S
C198 C201 1.481 . S
C199 C198 1.377 . S
C199 C200 1.389 . S
C199 H221 0.929 . S
C200 C196 1.397 . S
C200 C199 1.389 . S
C200 H222 0.931 . S
C201 C198 1.481 . S
C201 C202 1.387 . S
C201 C206 1.390 . S
C202 C201 1.387 . S
C202 C203 1.401 . S
C202 H223 0.930 . S
C203 C202 1.401 . S
C203 C204 1.376 . S
C203 C212 1.511 . S
C204 C203 1.376 . S
C204 C205 1.392 . S
C204 H225 0.931 . S
C205 C204 1.392 . S
C205 C206 1.361 . S
C205 C207 1.500 . S
C206 C201 1.390 . S
C206 C205 1.361 . S
C206 H224 0.931 . S
C207 C205 1.500 . S
C207 C208 1.371 . S
C207 C209 1.365 . S
C208 C207 1.371 . S
C208 C218 1.386 . S
C208 H226 0.931 . S
C209 C207 1.365 . S
C209 C210 1.409 . S
C209 H227 0.929 . S
C210 C209 1.409 . S
C210 C211 1.380 . S
C210 H228 0.930 . S
C211 C210 1.380 . S
C211 C218 1.357 . S
C212 C203 1.511 . S
C212 C213 1.341 . S
C212 C214 1.371 . S
C213 C212 1.341 . S
C213 C217 1.394 . S
C213 H229 0.930 . S
C214 C212 1.371 . S
C214 C215 1.392 . S
C214 H230 0.931 . S
C215 C214 1.392 . S
C215 C216 1.331 . S
C215 H233 0.932 . S
C216 C215 1.331 . S
C216 C217 1.336 . S
C217 C213 1.394 . S
C217 C216 1.336 . S
C217 H232 0.929 . S
C218 C208 1.386 . S
C218 C211 1.357 . S
C218 H231 0.928 . S
H219 C195 0.931 . S
H220 C197 0.930 . S
H221 C199 0.929 . S
H222 C200 0.931 . S
H223 C202 0.930 . S
H224 C206 0.931 . S
H225 C204 0.931 . S
H226 C208 0.931 . S
H227 C209 0.929 . S
H228 C210 0.930 . S
H229 C213 0.930 . S
H230 C214 0.931 . S
H231 C218 0.928 . S
H232 C217 0.929 . S
H233 C215 0.932 . S
C234 C235 1.387 1_565 S
C234 C236 1.397 . S
C234 H258 0.931 . S
C235 C234 1.387 1_545 S
C235 C239 1.396 . S
C236 C234 1.397 . S
C236 C237 1.385 1_565 S
C236 H259 0.930 . S
C237 C236 1.385 1_545 S
C237 C238 1.376 . S
C237 C240 1.481 1_545 S
C238 C237 1.376 . S
C238 C239 1.389 . S
C238 H260 0.929 . S
C239 C235 1.396 . S
C239 C238 1.389 . S
C239 H261 0.931 . S
C240 C237 1.481 1_565 S
C240 C241 1.387 . S
C240 C245 1.390 . S
C241 C240 1.387 . S
C241 C242 1.403 . S
C241 H262 0.930 . S
C242 C241 1.403 . S
C242 C243 1.376 . S
C242 C251 1.511 . S
C243 C242 1.376 . S
C243 C244 1.393 1_565 S
C243 H264 0.932 . S
C244 C243 1.393 1_545 S
C244 C245 1.361 1_545 S
C244 C246 1.499 . S
C245 C240 1.390 . S
C245 C244 1.361 1_565 S
C245 H263 0.931 1_565 S
C246 C244 1.499 . S
C246 C247 1.357 1_545 S
C246 C248 1.380 . S
C247 C246 1.357 1_565 S
C247 C257 1.386 . S
C247 H265 0.931 . S
C248 C246 1.380 . S
C248 C249 1.409 . S
C248 H266 0.929 . S
C249 C248 1.409 . S
C249 C250 1.386 . S
C249 H267 0.930 . S
C250 C249 1.386 . S
C250 C257 1.352 1_545 S
C251 C242 1.511 . S
C251 C252 1.341 . S
C251 C253 1.371 1_565 S
C252 C251 1.341 . S
C252 C256 1.394 . S
C252 H268 0.930 . S
C253 C251 1.371 1_545 S
C253 C254 1.392 . S
C253 H269 0.931 . S
C254 C253 1.392 . S
C254 C255 1.321 1_545 S
C254 H272 0.932 . S
C255 C254 1.321 1_565 S
C255 C256 1.348 . S
C256 C252 1.394 . S
C256 C255 1.348 . S
C256 H271 0.929 . S
C257 C247 1.386 . S
C257 C250 1.352 1_565 S
C257 H270 0.928 . S
H258 C234 0.931 . S
H259 C236 0.930 . S
H260 C238 0.929 . S
H261 C239 0.931 . S
H262 C241 0.930 . S
H263 C245 0.931 1_545 S
H264 C243 0.932 . S
H265 C247 0.931 . S
H266 C248 0.929 . S
H267 C249 0.930 . S
H268 C252 0.930 . S
H269 C253 0.931 . S
H270 C257 0.928 . S
H271 C256 0.929 . S
H272 C254 0.932 . S
C273 C274 1.386 . S
C273 C275 1.397 . S
C273 H297 0.931 . S
C274 C273 1.386 . S
C274 C278 1.397 . S
C275 C273 1.397 . S
C275 C276 1.384 . S
C275 H298 0.930 . S
C276 C275 1.384 . S
C276 C277 1.377 . S
C276 C279 1.481 . S
C277 C276 1.377 . S
C277 C278 1.389 . S
C277 H299 0.929 . S
C278 C274 1.397 . S
C278 C277 1.389 . S
C278 H300 0.931 . S
C279 C276 1.481 . S
C279 C280 1.387 . S
C279 C284 1.390 . S
C280 C279 1.387 . S
C280 C281 1.401 . S
C280 H301 0.930 . S
C281 C280 1.401 . S
C281 C282 1.376 . S
C281 C290 1.511 . S
C282 C281 1.376 . S
C282 C283 1.392 . S
C282 H303 0.931 . S
C283 C282 1.392 . S
C283 C284 1.361 . S
C283 C285 1.500 . S
C284 C279 1.390 . S
C284 C283 1.361 . S
C284 H302 0.931 . S
C285 C283 1.500 . S
C285 C286 1.371 . S
C285 C287 1.365 . S
C286 C285 1.371 . S
C286 C296 1.386 . S
C286 H304 0.931 . S
C287 C285 1.365 . S
C287 C288 1.409 . S
C287 H305 0.929 . S
C288 C287 1.409 . S
C288 C289 1.380 . S
C288 H306 0.930 . S
C289 C288 1.380 . S
C289 C296 1.357 . S
C290 C281 1.511 . S
C290 C291 1.341 . S
C290 C292 1.371 . S
C291 C290 1.341 . S
C291 C295 1.394 . S
C291 H307 0.930 . S
C292 C290 1.371 . S
C292 C293 1.392 . S
C292 H308 0.931 . S
C293 C292 1.392 . S
C293 C294 1.331 . S
C293 H311 0.932 . S
C294 C293 1.331 . S
C294 C295 1.336 . S
C295 C291 1.394 . S
C295 C294 1.336 . S
C295 H310 0.929 . S
C296 C286 1.386 . S
C296 C289 1.357 . S
C296 H309 0.928 . S
H297 C273 0.931 . S
H298 C275 0.930 . S
H299 C277 0.929 . S
H300 C278 0.931 . S
H301 C280 0.930 . S
H302 C284 0.931 . S
H303 C282 0.931 . S
H304 C286 0.931 . S
H305 C287 0.929 . S
H306 C288 0.930 . S
H307 C291 0.930 . S
H308 C292 0.931 . S
H309 C296 0.928 . S
H310 C295 0.929 . S
H311 C293 0.932 . S
O312 Zn313 1.954 . S
O312 C328 1.233 . S
Zn313 O312 1.954 . S
Zn313 O314 1.948 . S
Zn313 O320 1.883 1_565 S
Zn313 O325 1.967 . S
O314 Zn313 1.948 . S
O314 Zn315 1.902 1_565 S
O314 Zn316 1.953 . S
O314 Zn317 1.962 . S
Zn315 O314 1.902 1_545 S
Zn315 O318 1.933 1_455 S
Zn315 O321 1.941 . S
Zn315 O322 1.965 . S
Zn316 O314 1.953 . S
Zn316 O323 1.938 1_565 S
Zn316 O324 1.906 . S
Zn316 O334 1.953 . S
Zn317 O314 1.962 . S
Zn317 O319 1.932 1_455 S
Zn317 O326 1.977 . S
Zn317 O327 1.910 . S
O318 Zn315 1.933 1_655 S
O318 C329 1.226 . S
O319 Zn317 1.932 1_655 S
O319 C329 1.307 1_565 S
O320 Zn313 1.883 1_545 S
O320 C331 1.253 . S
O321 Zn315 1.941 . S
O321 C331 1.283 . S
O322 Zn315 1.965 . S
O322 C330 1.303 . S
O323 Zn316 1.938 1_545 S
O323 C330 1.247 . S
O324 Zn316 1.906 . S
O324 C332 1.304 . S
O325 Zn313 1.967 . S
O325 C333 1.311 . S
O326 Zn317 1.977 . S
O326 C332 1.272 . S
O327 Zn317 1.910 . S
O327 C333 1.231 . S
C328 O312 1.233 . S
C328 O334 1.298 . S
C329 O318 1.226 . S
C329 O319 1.307 1_545 S
C330 O322 1.303 . S
C330 O323 1.247 . S
C331 O320 1.253 . S
C331 O321 1.283 . S
C332 O324 1.304 . S
C332 O326 1.272 . S
C333 O325 1.311 . S
C333 O327 1.231 . S
O334 Zn316 1.953 . S
O334 C328 1.298 . S
O335 Zn336 1.953 . S
O335 C351 1.225 . S
Zn336 O335 1.953 . S
Zn336 O337 1.949 . S
Zn336 O343 1.919 . S
Zn336 O348 1.924 . S
O337 Zn336 1.949 . S
O337 Zn338 1.923 1_545 S
O337 Zn339 1.950 . S
O337 Zn340 1.945 1_545 S
Zn338 O337 1.923 1_565 S
Zn338 O341 1.933 . S
Zn338 O344 1.941 . S
Zn338 O345 1.965 . S
Zn339 O337 1.950 . S
Zn339 O346 1.938 . S
Zn339 O347 1.889 1_545 S
Zn339 O357 1.953 . S
Zn340 O337 1.945 1_565 S
Zn340 O342 1.932 . S
Zn340 O349 1.977 . S
Zn340 O350 1.910 1_565 S
O341 Zn338 1.933 . S
O341 C352 1.226 . S
O342 Zn340 1.932 . S
O342 C352 1.307 . S
O343 Zn336 1.919 . S
O343 C354 1.253 . S
O344 Zn338 1.941 . S
O344 C354 1.283 1_565 S
O345 Zn338 1.965 . S
O345 C353 1.303 . S
O346 Zn339 1.938 . S
O346 C353 1.247 1_545 S
O347 Zn339 1.889 1_565 S
O347 C355 1.328 . S
O348 Zn336 1.924 . S
O348 C356 1.311 . S
O349 Zn340 1.977 . S
O349 C355 1.272 . S
O350 Zn340 1.910 1_545 S
O350 C356 1.231 . S
C351 O335 1.225 . S
C351 O357 1.298 . S
C352 O341 1.226 . S
C352 O342 1.307 . S
C353 O345 1.303 . S
C353 O346 1.247 1_565 S
C354 O343 1.253 . S
C354 O344 1.283 1_545 S
C355 O347 1.328 . S
C355 O349 1.272 . S
C356 O348 1.311 . S
C356 O350 1.231 . S
O357 Zn339 1.953 . S
O357 C351 1.298 . S
O358 Zn359 1.953 . S
O358 C374 1.225 . S
Zn359 O358 1.953 . S
Zn359 O360 1.949 . S
Zn359 O366 1.919 . S
Zn359 O371 1.924 . S
O360 Zn359 1.949 . S
O360 Zn361 1.923 . S
O360 Zn362 1.950 . S
O360 Zn363 1.945 . S
Zn361 O360 1.923 . S
Zn361 O364 1.933 . S
Zn361 O367 1.941 . S
Zn361 O368 1.965 . S
Zn362 O360 1.950 . S
Zn362 O369 1.938 . S
Zn362 O370 1.906 . S
Zn362 O380 1.953 . S
Zn363 O360 1.945 . S
Zn363 O365 1.932 . S
Zn363 O372 1.977 . S
Zn363 O373 1.910 . S
O364 Zn361 1.933 . S
O364 C375 1.226 . S
O365 Zn363 1.932 . S
O365 C375 1.307 . S
O366 Zn359 1.919 . S
O366 C377 1.253 . S
O367 Zn361 1.941 . S
O367 C377 1.283 . S
O368 Zn361 1.965 . S
O368 C376 1.303 . S
O369 Zn362 1.938 . S
O369 C376 1.247 . S
O370 Zn362 1.906 . S
O370 C378 1.304 . S
O371 Zn359 1.924 . S
O371 C379 1.311 . S
O372 Zn363 1.977 . S
O372 C378 1.272 . S
O373 Zn363 1.910 . S
O373 C379 1.231 . S
C374 O358 1.225 . S
C374 O380 1.298 . S
C375 O364 1.226 . S
C375 O365 1.307 . S
C376 O368 1.303 . S
C376 O369 1.247 . S
C377 O366 1.253 . S
C377 O367 1.283 . S
C378 O370 1.304 . S
C378 O372 1.272 . S
C379 O371 1.311 . S
C379 O373 1.231 . S
O380 Zn362 1.953 . S
O380 C374 1.298 . S
O381 Zn382 1.953 1_655 S
O381 C397 1.225 . S
Zn382 O381 1.953 1_455 S
Zn382 O383 1.949 . S
Zn382 O389 1.919 . S
Zn382 O394 1.924 . S
O383 Zn382 1.949 . S
O383 Zn384 1.923 . S
O383 Zn385 1.950 1_455 S
O383 Zn386 1.945 . S
Zn384 O383 1.923 . S
Zn384 O387 1.933 . S
Zn384 O390 1.941 . S
Zn384 O391 1.965 1_455 S
Zn385 O383 1.950 1_655 S
Zn385 O392 1.938 . S
Zn385 O393 1.906 1_655 S
Zn385 O403 1.953 . S
Zn386 O383 1.945 . S
Zn386 O388 1.932 . S
Zn386 O395 1.977 . S
Zn386 O396 1.910 . S
O387 Zn384 1.933 . S
O387 C398 1.226 . S
O388 Zn386 1.932 . S
O388 C398 1.307 . S
O389 Zn382 1.919 . S
O389 C400 1.253 . S
O390 Zn384 1.941 . S
O390 C400 1.283 . S
O391 Zn384 1.965 1_655 S
O391 C399 1.303 . S
O392 Zn385 1.938 . S
O392 C399 1.247 . S
O393 Zn385 1.906 1_455 S
O393 C401 1.304 . S
O394 Zn382 1.924 . S
O394 C402 1.311 . S
O395 Zn386 1.977 . S
O395 C401 1.272 . S
O396 Zn386 1.910 . S
O396 C402 1.231 . S
C397 O381 1.225 . S
C397 O403 1.298 . S
C398 O387 1.226 . S
C398 O388 1.307 . S
C399 O391 1.303 . S
C399 O392 1.247 . S
C400 O389 1.253 . S
C400 O390 1.283 . S
C401 O393 1.304 . S
C401 O395 1.272 . S
C402 O394 1.311 . S
C402 O396 1.231 . S
O403 Zn385 1.953 . S
O403 C397 1.298 . S
C404 C405 1.376 1_545 S
C404 C406 1.394 . S
C404 H420 0.931 . S
C405 C404 1.376 1_565 S
C405 C409 1.391 . S
C406 C404 1.394 . S
C406 C407 1.369 1_545 S
C406 C410 1.531 . S
C407 C406 1.369 1_565 S
C407 C408 1.410 . S
C407 C415 1.503 . S
C408 C407 1.410 . S
C408 C409 1.392 . S
C408 C411 1.511 . S
C409 C405 1.391 . S
C409 C408 1.392 . S
C409 H421 0.929 . S
C410 C406 1.531 . S
C410 H422 0.960 . S
C410 H423 0.962 . S
C410 H424 0.960 . S
C411 C408 1.511 . S
C411 H425 0.961 . S
C411 H426 0.961 . S
C411 H427 0.961 . S
C412 C413 1.370 . S
C412 C414 1.363 . S
C412 H428 0.931 . S
C413 C412 1.370 . S
C413 C417 1.398 1_565 S
C414 C412 1.363 . S
C414 C415 1.370 . S
C414 C418 1.524 . S
C415 C407 1.503 . S
C415 C414 1.370 . S
C415 C416 1.403 1_565 S
C416 C415 1.403 1_545 S
C416 C417 1.406 . S
C416 C419 1.539 . S
C417 C413 1.398 1_545 S
C417 C416 1.406 . S
C417 H429 0.939 . S
C418 C414 1.524 . S
C418 H430 0.994 . S
C418 H431 0.961 . S
C418 H432 0.961 . S
C419 C416 1.539 . S
C419 H433 0.958 . S
C419 H434 0.961 . S
C419 H435 0.960 . S
H420 C404 0.931 . S
H421 C409 0.929 . S
H422 C410 0.960 . S
H423 C410 0.962 . S
H424 C410 0.960 . S
H425 C411 0.961 . S
H426 C411 0.961 . S
H427 C411 0.961 . S
H428 C412 0.931 . S
H429 C417 0.939 . S
H430 C418 0.994 . S
H431 C418 0.961 . S
H432 C418 0.961 . S
H433 C419 0.958 . S
H434 C419 0.961 . S
H435 C419 0.960 . S
C436 C437 1.391 . S
C436 C438 1.394 . S
C436 H452 0.931 . S
C437 C436 1.391 . S
C437 C441 1.376 . S
C438 C436 1.394 . S
C438 C439 1.369 . S
C438 C442 1.531 . S
C439 C438 1.369 . S
C439 C440 1.410 . S
C439 C447 1.503 . S
C440 C439 1.410 . S
C440 C441 1.392 . S
C440 C443 1.511 . S
C441 C437 1.376 . S
C441 C440 1.392 . S
C441 H453 0.929 . S
C442 C438 1.531 . S
C442 H454 0.960 . S
C442 H455 0.962 . S
C442 H456 0.960 . S
C443 C440 1.511 . S
C443 H457 0.961 . S
C443 H458 0.961 . S
C443 H459 0.961 . S
C444 C445 1.370 . S
C444 C446 1.363 . S
C444 H460 0.931 . S
C445 C444 1.370 . S
C445 C449 1.408 . S
C446 C444 1.363 . S
C446 C447 1.370 . S
C446 C450 1.524 . S
C447 C439 1.503 . S
C447 C446 1.370 . S
C447 C448 1.403 . S
C448 C447 1.403 . S
C448 C449 1.404 . S
C448 C451 1.539 . S
C449 C445 1.408 . S
C449 C448 1.404 . S
C449 H461 0.930 . S
C450 C446 1.524 . S
C450 H462 0.956 . S
C450 H463 0.961 . S
C450 H464 0.961 . S
C451 C448 1.539 . S
C451 H465 0.958 . S
C451 H466 0.961 . S
C451 H467 0.960 . S
H452 C436 0.931 . S
H453 C441 0.929 . S
H454 C442 0.960 . S
H455 C442 0.962 . S
H456 C442 0.960 . S
H457 C443 0.961 . S
H458 C443 0.961 . S
H459 C443 0.961 . S
H460 C444 0.931 . S
H461 C449 0.930 . S
H462 C450 0.956 . S
H463 C450 0.961 . S
H464 C450 0.961 . S
H465 C451 0.958 . S
H466 C451 0.961 . S
H467 C451 0.960 . S
C468 C469 1.391 . S
C468 C470 1.394 . S
C468 H484 0.931 . S
C469 C468 1.391 . S
C469 C473 1.376 . S
C470 C468 1.394 . S
C470 C471 1.369 . S
C470 C474 1.531 . S
C471 C470 1.369 . S
C471 C472 1.410 . S
C471 C479 1.503 . S
C472 C471 1.410 . S
C472 C473 1.392 . S
C472 C475 1.511 . S
C473 C469 1.376 . S
C473 C472 1.392 . S
C473 H485 0.929 . S
C474 C470 1.531 . S
C474 H486 0.960 . S
C474 H487 0.962 . S
C474 H488 0.960 . S
C475 C472 1.511 . S
C475 H489 0.961 . S
C475 H490 0.961 . S
C475 H491 0.961 . S
C476 C477 1.370 . S
C476 C478 1.363 . S
C476 H492 0.931 . S
C477 C476 1.370 . S
C477 C481 1.408 . S
C478 C476 1.363 . S
C478 C479 1.370 . S
C478 C482 1.524 . S
C479 C471 1.503 . S
C479 C478 1.370 . S
C479 C480 1.403 . S
C480 C479 1.403 . S
C480 C481 1.404 . S
C480 C483 1.539 . S
C481 C477 1.408 . S
C481 C480 1.404 . S
C481 H493 0.930 . S
C482 C478 1.524 . S
C482 H494 0.956 . S
C482 H495 0.961 . S
C482 H496 0.961 . S
C483 C480 1.539 . S
C483 H497 0.958 . S
C483 H498 0.961 . S
C483 H499 0.960 . S
H484 C468 0.931 . S
H485 C473 0.929 . S
H486 C474 0.960 . S
H487 C474 0.962 . S
H488 C474 0.960 . S
H489 C475 0.961 . S
H490 C475 0.961 . S
H491 C475 0.961 . S
H492 C476 0.931 . S
H493 C481 0.930 . S
H494 C482 0.956 . S
H495 C482 0.961 . S
H496 C482 0.961 . S
H497 C483 0.958 . S
H498 C483 0.961 . S
H499 C483 0.960 . S
C500 C501 1.391 . S
C500 C502 1.394 . S
C500 H516 0.931 . S
C501 C500 1.391 . S
C501 C505 1.376 . S
C502 C500 1.394 . S
C502 C503 1.369 . S
C502 C506 1.531 . S
C503 C502 1.369 . S
C503 C504 1.410 . S
C503 C511 1.503 . S
C504 C503 1.410 . S
C504 C505 1.392 . S
C504 C507 1.511 . S
C505 C501 1.376 . S
C505 C504 1.392 . S
C505 H517 0.929 . S
C506 C502 1.531 . S
C506 H518 0.960 . S
C506 H519 0.962 . S
C506 H520 0.960 . S
C507 C504 1.511 . S
C507 H521 0.961 . S
C507 H522 0.961 . S
C507 H523 0.961 . S
C508 C509 1.370 . S
C508 C510 1.363 . S
C508 H524 0.931 . S
C509 C508 1.370 . S
C509 C513 1.408 . S
C510 C508 1.363 . S
C510 C511 1.370 . S
C510 C514 1.524 . S
C511 C503 1.503 . S
C511 C510 1.370 . S
C511 C512 1.403 . S
C512 C511 1.403 . S
C512 C513 1.404 . S
C512 C515 1.539 . S
C513 C509 1.408 . S
C513 C512 1.404 . S
C513 H525 0.930 . S
C514 C510 1.524 . S
C514 H526 0.956 . S
C514 H527 0.961 . S
C514 H528 0.961 . S
C515 C512 1.539 . S
C515 H529 0.958 . S
C515 H530 0.961 . S
C515 H531 0.960 . S
H516 C500 0.931 . S
H517 C505 0.929 . S
H518 C506 0.960 . S
H519 C506 0.962 . S
H520 C506 0.960 . S
H521 C507 0.961 . S
H522 C507 0.961 . S
H523 C507 0.961 . S
H524 C508 0.931 . S
H525 C513 0.930 . S
H526 C514 0.956 . S
H527 C514 0.961 . S
H528 C514 0.961 . S
H529 C515 0.958 . S
H530 C515 0.961 . S
H531 C515 0.960 . S
C532 C533 1.363 1_545 S
C532 C534 1.394 . S
C532 H548 0.931 1_556 S
C533 C532 1.363 1_565 S
C533 C537 1.407 . S
C534 C532 1.394 . S
C534 C535 1.346 1_545 S
C534 C538 1.531 . S
C535 C534 1.346 1_565 S
C535 C536 1.432 . S
C535 C543 1.502 1_565 S
C536 C535 1.432 . S
C536 C537 1.392 . S
C536 C539 1.511 . S
C537 C533 1.407 . S
C537 C536 1.392 . S
C537 H549 0.929 . S
C538 C534 1.531 . S
C538 H550 0.960 . S
C538 H551 0.962 . S
C538 H552 0.960 1_556 S
C539 C536 1.511 . S
C539 H553 0.961 . S
C539 H554 0.961 . S
C539 H555 0.961 . S
C540 C541 1.370 . S
C540 C542 1.363 . S
C540 H556 0.931 . S
C541 C540 1.370 . S
C541 C545 1.408 1_545 S
C542 C540 1.363 . S
C542 C543 1.370 . S
C542 C546 1.524 . S
C543 C535 1.502 1_545 S
C543 C542 1.370 . S
C543 C544 1.403 1_545 S
C544 C543 1.403 1_565 S
C544 C545 1.404 . S
C544 C547 1.539 . S
C545 C541 1.408 1_565 S
C545 C544 1.404 . S
C545 H557 0.930 . S
C546 C542 1.524 . S
C546 H558 0.956 . S
C546 H559 0.961 . S
C546 H560 0.961 . S
C547 C544 1.539 . S
C547 H561 0.958 . S
C547 H562 0.961 . S
C547 H563 0.960 . S
H548 C532 0.931 1_554 S
H549 C537 0.929 . S
H550 C538 0.960 . S
H551 C538 0.962 . S
H552 C538 0.960 1_554 S
H553 C539 0.961 . S
H554 C539 0.961 . S
H555 C539 0.961 . S
H556 C540 0.931 . S
H557 C545 0.930 . S
H558 C546 0.956 . S
H559 C546 0.961 . S
H560 C546 0.961 . S
H561 C547 0.958 . S
H562 C547 0.961 . S
H563 C547 0.960 . S
C564 C565 1.391 . S
C564 C566 1.394 . S
C564 H580 0.931 1_556 S
C565 C564 1.391 . S
C565 C569 1.376 . S
C566 C564 1.394 . S
C566 C567 1.369 . S
C566 C570 1.531 . S
C567 C566 1.369 . S
C567 C568 1.410 . S
C567 C575 1.503 . S
C568 C567 1.410 . S
C568 C569 1.392 . S
C568 C571 1.511 . S
C569 C565 1.376 . S
C569 C568 1.392 . S
C569 H581 0.929 . S
C570 C566 1.531 . S
C570 H582 0.960 . S
C570 H583 0.962 . S
C570 H584 0.960 . S
C571 C568 1.511 . S
C571 H585 0.961 . S
C571 H586 0.961 . S
C571 H587 0.961 . S
C572 C573 1.370 . S
C572 C574 1.363 . S
C572 H588 0.931 . S
C573 C572 1.370 . S
C573 C577 1.408 . S
C574 C572 1.363 . S
C574 C575 1.370 . S
C574 C578 1.524 . S
C575 C567 1.503 . S
C575 C574 1.370 . S
C575 C576 1.403 . S
C576 C575 1.403 . S
C576 C577 1.404 . S
C576 C579 1.539 . S
C577 C573 1.408 . S
C577 C576 1.404 . S
C577 H589 0.930 . S
C578 C574 1.524 . S
C578 H590 0.956 . S
C578 H591 0.961 . S
C578 H592 0.961 . S
C579 C576 1.539 . S
C579 H593 0.958 . S
C579 H594 0.961 . S
C579 H595 0.960 . S
H580 C564 0.931 1_554 S
H581 C569 0.929 . S
H582 C570 0.960 . S
H583 C570 0.962 . S
H584 C570 0.960 . S
H585 C571 0.961 . S
H586 C571 0.961 . S
H587 C571 0.961 . S
H588 C572 0.931 . S
H589 C577 0.930 . S
H590 C578 0.956 . S
H591 C578 0.961 . S
H592 C578 0.961 . S
H593 C579 0.958 . S
H594 C579 0.961 . S
H595 C579 0.960 . S
C596 C597 1.391 . S
C596 C598 1.394 . S
C596 H612 0.931 . S
C597 C596 1.391 . S
C597 C601 1.376 . S
C598 C596 1.394 . S
C598 C599 1.369 . S
C598 C602 1.531 . S
C599 C598 1.369 . S
C599 C600 1.410 . S
C599 C607 1.503 . S
C600 C599 1.410 . S
C600 C601 1.392 . S
C600 C603 1.511 . S
C601 C597 1.376 . S
C601 C600 1.392 . S
C601 H613 0.929 . S
C602 C598 1.531 . S
C602 H614 0.960 . S
C602 H615 0.962 . S
C602 H616 0.960 . S
C603 C600 1.511 . S
C603 H617 0.961 . S
C603 H618 0.961 . S
C603 H619 0.961 . S
C604 C605 1.370 . S
C604 C606 1.363 . S
C604 H620 0.931 . S
C605 C604 1.370 . S
C605 C609 1.408 . S
C606 C604 1.363 . S
C606 C607 1.370 . S
C606 C610 1.524 . S
C607 C599 1.503 . S
C607 C606 1.370 . S
C607 C608 1.403 . S
C608 C607 1.403 . S
C608 C609 1.404 . S
C608 C611 1.539 . S
C609 C605 1.408 . S
C609 C608 1.404 . S
C609 H621 0.930 . S
C610 C606 1.524 . S
C610 H622 0.956 . S
C610 H623 0.961 . S
C610 H624 0.961 . S
C611 C608 1.539 . S
C611 H625 0.958 . S
C611 H626 0.961 . S
C611 H627 0.960 . S
H612 C596 0.931 . S
H613 C601 0.929 . S
H614 C602 0.960 . S
H615 C602 0.962 . S
H616 C602 0.960 . S
H617 C603 0.961 . S
H618 C603 0.961 . S
H619 C603 0.961 . S
H620 C604 0.931 . S
H621 C609 0.930 . S
H622 C610 0.956 . S
H623 C610 0.961 . S
H624 C610 0.961 . S
H625 C611 0.958 . S
H626 C611 0.961 . S
H627 C611 0.960 . S
C628 C629 1.391 . S
C628 C630 1.394 . S
C628 H644 0.931 . S
C629 C628 1.391 . S
C629 C633 1.376 1_656 S
C630 C628 1.394 . S
C630 C631 1.369 1_655 S
C630 C634 1.531 . S
C631 C630 1.369 1_455 S
C631 C632 1.410 . S
C631 C639 1.503 . S
C632 C631 1.410 . S
C632 C633 1.392 1_556 S
C632 C635 1.511 . S
C633 C629 1.376 1_454 S
C633 C632 1.392 1_554 S
C633 H645 0.929 . S
C634 C630 1.531 . S
C634 H646 0.960 . S
C634 H647 0.962 . S
C634 H648 0.960 . S
C635 C632 1.511 . S
C635 H649 0.961 1_556 S
C635 H650 0.961 . S
C635 H651 0.961 . S
C636 C637 1.370 1_655 S
C636 C638 1.363 . S
C636 H652 0.931 . S
C637 C636 1.370 1_455 S
C637 C641 1.408 . S
C638 C636 1.363 . S
C638 C639 1.370 1_655 S
C638 C642 1.524 . S
C639 C631 1.503 . S
C639 C638 1.370 1_455 S
C639 C640 1.403 . S
C640 C639 1.403 . S
C640 C641 1.404 . S
C640 C643 1.539 . S
C641 C637 1.408 . S
C641 C640 1.404 . S
C641 H653 0.930 . S
C642 C638 1.524 . S
C642 H654 0.956 . S
C642 H655 0.961 . S
C642 H656 0.961 . S
C643 C640 1.539 . S
C643 H657 0.958 . S
C643 H658 0.961 . S
C643 H659 0.960 . S
H644 C628 0.931 . S
H645 C633 0.929 . S
H646 C634 0.960 . S
H647 C634 0.962 . S
H648 C634 0.960 . S
H649 C635 0.961 1_554 S
H650 C635 0.961 . S
H651 C635 0.961 . S
H652 C636 0.931 . S
H653 C641 0.930 . S
H654 C642 0.956 . S
H655 C642 0.961 . S
H656 C642 0.961 . S
H657 C643 0.958 . S
H658 C643 0.961 . S
H659 C643 0.960 . S
C660 C661 1.391 . S
C660 C662 1.394 . S
C660 H676 0.931 . S
C661 C660 1.391 . S
C661 C665 1.376 . S
C662 C660 1.394 . S
C662 C663 1.369 . S
C662 C666 1.531 . S
C663 C662 1.369 . S
C663 C664 1.410 . S
C663 C671 1.503 . S
C664 C663 1.410 . S
C664 C665 1.392 . S
C664 C667 1.511 . S
C665 C661 1.376 . S
C665 C664 1.392 . S
C665 H677 0.929 . S
C666 C662 1.531 . S
C666 H678 0.960 . S
C666 H679 0.962 . S
C666 H680 0.960 . S
C667 C664 1.511 . S
C667 H681 0.961 . S
C667 H682 0.961 . S
C667 H683 0.961 . S
C668 C669 1.370 . S
C668 C670 1.363 . S
C668 H684 0.931 . S
C669 C668 1.370 . S
C669 C673 1.408 . S
C670 C668 1.363 . S
C670 C671 1.370 . S
C670 C674 1.524 . S
C671 C663 1.503 . S
C671 C670 1.370 . S
C671 C672 1.403 . S
C672 C671 1.403 . S
C672 C673 1.404 . S
C672 C675 1.539 . S
C673 C669 1.408 . S
C673 C672 1.404 . S
C673 H685 0.930 . S
C674 C670 1.524 . S
C674 H686 0.956 . S
C674 H687 0.961 . S
C674 H688 0.961 . S
C675 C672 1.539 . S
C675 H689 0.958 . S
C675 H690 0.961 . S
C675 H691 0.960 . S
H676 C660 0.931 . S
H677 C665 0.929 . S
H678 C666 0.960 . S
H679 C666 0.962 . S
H680 C666 0.960 . S
H681 C667 0.961 . S
H682 C667 0.961 . S
H683 C667 0.961 . S
H684 C668 0.931 . S
H685 C673 0.930 . S
H686 C674 0.956 . S
H687 C674 0.961 . S
H688 C674 0.961 . S
H689 C675 0.958 . S
H690 C675 0.961 . S
H691 C675 0.960 . S
C692 C693 1.391 . S
C692 C694 1.394 . S
C692 H708 0.931 . S
C693 C692 1.391 . S
C693 C697 1.376 . S
C694 C692 1.394 . S
C694 C695 1.369 . S
C694 C698 1.531 . S
C695 C694 1.369 . S
C695 C696 1.410 . S
C695 C703 1.503 . S
C696 C695 1.410 . S
C696 C697 1.392 . S
C696 C699 1.511 . S
C697 C693 1.376 . S
C697 C696 1.392 . S
C697 H709 0.929 . S
C698 C694 1.531 . S
C698 H710 0.960 . S
C698 H711 0.962 1_565 S
C698 H712 0.960 . S
C699 C696 1.511 . S
C699 H713 0.961 1_565 S
C699 H714 0.943 1_565 S
C699 H715 0.961 . S
C700 C701 1.370 1_545 S
C700 C702 1.363 . S
C700 H716 0.931 . S
C701 C700 1.370 1_565 S
C701 C705 1.408 . S
C702 C700 1.363 . S
C702 C703 1.370 1_545 S
C702 C706 1.524 . S
C703 C695 1.503 . S
C703 C702 1.370 1_565 S
C703 C704 1.403 . S
C704 C703 1.403 . S
C704 C705 1.404 . S
C704 C707 1.539 . S
C705 C701 1.408 . S
C705 C704 1.404 . S
C705 H717 0.930 . S
C706 C702 1.524 . S
C706 H718 0.956 . S
C706 H719 0.961 . S
C706 H720 0.961 . S
C707 C704 1.539 . S
C707 H721 0.958 . S
C707 H722 0.961 . S
C707 H723 0.960 . S
H708 C692 0.931 . S
H709 C697 0.929 . S
H710 C698 0.960 . S
H711 C698 0.962 1_545 S
H712 C698 0.960 . S
H713 C699 0.961 1_545 S
H714 C699 0.943 1_545 S
H715 C699 0.961 . S
H716 C700 0.931 . S
H717 C705 0.930 . S
H718 C706 0.956 . S
H719 C706 0.961 . S
H720 C706 0.961 . S
H721 C707 0.958 . S
H722 C707 0.961 . S
H723 C707 0.960 . S
C724 C725 1.391 . S
C724 C726 1.394 . S
C724 H740 0.931 . S
C725 C724 1.391 . S
C725 C729 1.376 . S
C726 C724 1.394 . S
C726 C727 1.369 . S
C726 C730 1.531 . S
C727 C726 1.369 . S
C727 C728 1.410 . S
C727 C735 1.503 . S
C728 C727 1.410 . S
C728 C729 1.392 . S
C728 C731 1.511 . S
C729 C725 1.376 . S
C729 C728 1.392 . S
C729 H741 0.929 . S
C730 C726 1.531 . S
C730 H742 0.960 . S
C730 H743 0.962 . S
C730 H744 0.960 . S
C731 C728 1.511 . S
C731 H745 0.961 . S
C731 H746 0.961 . S
C731 H747 0.961 . S
C732 C733 1.370 . S
C732 C734 1.363 . S
C732 H748 0.931 . S
C733 C732 1.370 . S
C733 C737 1.408 . S
C734 C732 1.363 . S
C734 C735 1.370 . S
C734 C738 1.524 . S
C735 C727 1.503 . S
C735 C734 1.370 . S
C735 C736 1.403 . S
C736 C735 1.403 . S
C736 C737 1.404 . S
C736 C739 1.539 . S
C737 C733 1.408 . S
C737 C736 1.404 . S
C737 H749 0.930 . S
C738 C734 1.524 . S
C738 H750 0.956 . S
C738 H751 0.961 . S
C738 H752 0.961 . S
C739 C736 1.539 . S
C739 H753 0.958 . S
C739 H754 0.961 . S
C739 H755 0.960 . S
H740 C724 0.931 . S
H741 C729 0.929 . S
H742 C730 0.960 . S
H743 C730 0.962 . S
H744 C730 0.960 . S
H745 C731 0.961 . S
H746 C731 0.961 . S
H747 C731 0.961 . S
H748 C732 0.931 . S
H749 C737 0.930 . S
H750 C738 0.956 . S
H751 C738 0.961 . S
H752 C738 0.961 . S
H753 C739 0.958 . S
H754 C739 0.961 . S
H755 C739 0.960 . S
C756 C757 1.391 . S
C756 C758 1.394 . S
C756 H772 0.931 . S
C757 C756 1.391 . S
C757 C761 1.376 . S
C758 C756 1.394 . S
C758 C759 1.369 . S
C758 C762 1.531 . S
C759 C758 1.369 . S
C759 C760 1.410 . S
C759 C767 1.503 . S
C760 C759 1.410 . S
C760 C761 1.392 . S
C760 C763 1.511 . S
C761 C757 1.376 . S
C761 C760 1.392 . S
C761 H773 0.929 . S
C762 C758 1.531 . S
C762 H774 0.960 . S
C762 H775 0.962 . S
C762 H776 0.960 . S
C763 C760 1.511 . S
C763 H777 0.961 . S
C763 H778 0.961 . S
C763 H779 0.961 . S
C764 C765 1.370 . S
C764 C766 1.363 . S
C764 H780 0.931 . S
C765 C764 1.370 . S
C765 C769 1.408 . S
C766 C764 1.363 . S
C766 C767 1.370 . S
C766 C770 1.524 . S
C767 C759 1.503 . S
C767 C766 1.370 . S
C767 C768 1.403 . S
C768 C767 1.403 . S
C768 C769 1.404 . S
C768 C771 1.539 . S
C769 C765 1.408 . S
C769 C768 1.404 . S
C769 H781 0.930 . S
C770 C766 1.524 . S
C770 H782 0.956 . S
C770 H783 0.961 . S
C770 H784 0.961 . S
C771 C768 1.539 . S
C771 H785 0.958 . S
C771 H786 0.961 . S
C771 H787 0.960 . S
H772 C756 0.931 . S
H773 C761 0.929 . S
H774 C762 0.960 . S
H775 C762 0.962 . S
H776 C762 0.960 . S
H777 C763 0.961 . S
H778 C763 0.961 . S
H779 C763 0.961 . S
H780 C764 0.931 . S
H781 C769 0.930 . S
H782 C770 0.956 . S
H783 C770 0.961 . S
H784 C770 0.961 . S
H785 C771 0.958 . S
H786 C771 0.961 . S
H787 C771 0.960 . S
C788 C789 1.391 1_455 S
C788 C790 1.394 . S
C788 H804 0.931 . S
C789 C788 1.391 1_655 S
C789 C793 1.376 . S
C790 C788 1.394 . S
C790 C791 1.369 . S
C790 C794 1.531 . S
C791 C790 1.369 . S
C791 C792 1.410 1_455 S
C791 C799 1.503 . S
C792 C791 1.410 1_655 S
C792 C793 1.392 . S
C792 C795 1.511 . S
C793 C789 1.376 . S
C793 C792 1.392 . S
C793 H805 0.929 . S
C794 C790 1.531 . S
C794 H806 0.960 . S
C794 H807 0.962 . S
C794 H808 0.960 . S
C795 C792 1.511 . S
C795 H809 0.961 . S
C795 H810 0.961 . S
C795 H811 0.961 . S
C796 C797 1.370 . S
C796 C798 1.363 . S
C796 H812 0.931 . S
C797 C796 1.370 . S
C797 C801 1.408 . S
C798 C796 1.363 . S
C798 C799 1.370 . S
C798 C802 1.524 . S
C799 C791 1.503 . S
C799 C798 1.370 . S
C799 C800 1.403 . S
C800 C799 1.403 . S
C800 C801 1.404 . S
C800 C803 1.539 . S
C801 C797 1.408 . S
C801 C800 1.404 . S
C801 H813 0.930 . S
C802 C798 1.524 . S
C802 H814 0.956 . S
C802 H815 0.961 . S
C802 H816 0.961 . S
C803 C800 1.539 . S
C803 H817 0.958 . S
C803 H818 0.961 . S
C803 H819 0.960 1_455 S
H804 C788 0.931 . S
H805 C793 0.929 . S
H806 C794 0.960 . S
H807 C794 0.962 . S
H808 C794 0.960 . S
H809 C795 0.961 . S
H810 C795 0.961 . S
H811 C795 0.961 . S
H812 C796 0.931 . S
H813 C801 0.930 . S
H814 C802 0.956 . S
H815 C802 0.961 . S
H816 C802 0.961 . S
H817 C803 0.958 . S
H818 C803 0.961 . S
H819 C803 0.960 1_655 S
C820 C821 1.391 . S
C820 C822 1.394 . S
C820 H836 0.931 . S
C821 C820 1.391 . S
C821 C825 1.376 1_565 S
C822 C820 1.394 . S
C822 C823 1.369 1_565 S
C822 C826 1.531 . S
C823 C822 1.369 1_545 S
C823 C824 1.410 . S
C823 C831 1.503 . S
C824 C823 1.410 . S
C824 C825 1.392 . S
C824 C827 1.511 . S
C825 C821 1.376 1_545 S
C825 C824 1.392 . S
C825 H837 0.929 . S
C826 C822 1.531 . S
C826 H838 0.960 . S
C826 H839 0.962 . S
C826 H840 0.960 . S
C827 C824 1.511 . S
C827 H841 0.961 . S
C827 H842 0.961 . S
C827 H843 0.961 . S
C828 C829 1.370 . S
C828 C830 1.363 . S
C828 H844 0.931 . S
C829 C828 1.370 . S
C829 C833 1.408 . S
C830 C828 1.363 . S
C830 C831 1.370 . S
C830 C834 1.550 . S
C831 C823 1.503 . S
C831 C830 1.370 . S
C831 C832 1.403 . S
C832 C831 1.403 . S
C832 C833 1.404 . S
C832 C835 1.539 . S
C833 C829 1.408 . S
C833 C832 1.404 . S
C833 H845 0.930 . S
C834 C830 1.550 . S
C834 H846 0.914 1_545 S
C834 H847 0.981 . S
C834 H848 0.959 1_545 S
C835 C832 1.539 . S
C835 H849 0.958 . S
C835 H850 0.961 . S
C835 H851 0.960 . S
H836 C820 0.931 . S
H837 C825 0.929 . S
H838 C826 0.960 . S
H839 C826 0.962 . S
H840 C826 0.960 . S
H841 C827 0.961 . S
H842 C827 0.961 . S
H843 C827 0.961 . S
H844 C828 0.931 . S
H845 C833 0.930 . S
H846 C834 0.914 1_565 S
H847 C834 0.981 . S
H848 C834 0.959 1_565 S
H849 C835 0.958 . S
H850 C835 0.961 . S
H851 C835 0.960 . S
C852 C853 1.391 . S
C852 C854 1.394 . S
C852 H868 0.931 . S
C853 C852 1.391 . S
C853 C857 1.376 . S
C854 C852 1.394 . S
C854 C855 1.369 . S
C854 C858 1.531 . S
C855 C854 1.369 . S
C855 C856 1.410 . S
C855 C863 1.503 . S
C856 C855 1.410 . S
C856 C857 1.392 . S
C856 C859 1.511 . S
C857 C853 1.376 . S
C857 C856 1.392 . S
C857 H869 0.929 . S
C858 C854 1.531 . S
C858 H870 0.960 . S
C858 H871 0.962 . S
C858 H872 0.960 . S
C859 C856 1.511 . S
C859 H873 0.961 . S
C859 H874 0.961 . S
C859 H875 0.961 . S
C860 C861 1.370 . S
C860 C862 1.363 . S
C860 H876 0.931 . S
C861 C860 1.370 . S
C861 C865 1.408 . S
C862 C860 1.363 . S
C862 C863 1.370 . S
C862 C866 1.524 . S
C863 C855 1.503 . S
C863 C862 1.370 . S
C863 C864 1.403 . S
C864 C863 1.403 . S
C864 C865 1.404 . S
C864 C867 1.539 . S
C865 C861 1.408 . S
C865 C864 1.404 . S
C865 H877 0.930 . S
C866 C862 1.524 . S
C866 H878 0.956 . S
C866 H879 0.961 . S
C866 H880 0.961 . S
C867 C864 1.539 . S
C867 H881 0.958 . S
C867 H882 0.961 . S
C867 H883 0.960 . S
H868 C852 0.931 . S
H869 C857 0.929 . S
H870 C858 0.960 . S
H871 C858 0.962 . S
H872 C858 0.960 . S
H873 C859 0.961 . S
H874 C859 0.961 . S
H875 C859 0.961 . S
H876 C860 0.931 . S
H877 C865 0.930 . S
H878 C866 0.956 . S
H879 C866 0.961 . S
H880 C866 0.961 . S
H881 C867 0.958 . S
H882 C867 0.961 . S
H883 C867 0.960 . S
C884 C885 1.391 . S
C884 C886 1.394 . S
C884 H900 0.931 . S
C885 C884 1.391 . S
C885 C889 1.376 . S
C886 C884 1.394 . S
C886 C887 1.369 . S
C886 C890 1.531 . S
C887 C886 1.369 . S
C887 C888 1.410 . S
C887 C895 1.503 . S
C888 C887 1.410 . S
C888 C889 1.392 . S
C888 C891 1.511 . S
C889 C885 1.376 . S
C889 C888 1.392 . S
C889 H901 0.929 . S
C890 C886 1.531 . S
C890 H902 0.960 . S
C890 H903 0.962 . S
C890 H904 0.960 . S
C891 C888 1.511 . S
C891 H905 0.961 . S
C891 H906 0.961 . S
C891 H907 0.961 . S
C892 C893 1.370 . S
C892 C894 1.363 . S
C892 H908 0.931 . S
C893 C892 1.370 . S
C893 C897 1.408 . S
C894 C892 1.363 . S
C894 C895 1.370 . S
C894 C898 1.524 . S
C895 C887 1.503 . S
C895 C894 1.370 . S
C895 C896 1.403 . S
C896 C895 1.403 . S
C896 C897 1.404 . S
C896 C899 1.539 . S
C897 C893 1.408 . S
C897 C896 1.404 . S
C897 H909 0.930 . S
C898 C894 1.524 . S
C898 H910 0.956 . S
C898 H911 0.961 . S
C898 H912 0.961 . S
C899 C896 1.539 . S
C899 H913 0.958 . S
C899 H914 0.961 . S
C899 H915 0.960 . S
H900 C884 0.931 . S
H901 C889 0.929 . S
H902 C890 0.960 . S
H903 C890 0.962 . S
H904 C890 0.960 . S
H905 C891 0.961 . S
H906 C891 0.961 . S
H907 C891 0.961 . S
H908 C892 0.931 . S
H909 C897 0.930 . S
H910 C898 0.956 . S
H911 C898 0.961 . S
H912 C898 0.961 . S
H913 C899 0.958 . S
H914 C899 0.961 . S
H915 C899 0.960 . S
C916 C917 1.391 . S
C916 C918 1.394 . S
C916 H932 0.931 . S
C917 C916 1.391 . S
C917 C921 1.376 1_554 S
C918 C916 1.394 . S
C918 C919 1.369 1_554 S
C918 C922 1.531 . S
C919 C918 1.369 1_556 S
C919 C920 1.410 . S
C919 C927 1.503 . S
C920 C919 1.410 . S
C920 C921 1.392 . S
C920 C923 1.511 . S
C921 C917 1.376 1_556 S
C921 C920 1.392 . S
C921 H933 0.929 . S
C922 C918 1.531 . S
C922 H934 0.960 . S
C922 H935 0.962 . S
C922 H936 0.960 . S
C923 C920 1.511 . S
C923 H937 0.961 . S
C923 H938 0.961 . S
C923 H939 0.961 . S
C924 C925 1.370 . S
C924 C926 1.363 . S
C924 H940 0.931 . S
C925 C924 1.370 . S
C925 C929 1.408 . S
C926 C924 1.363 . S
C926 C927 1.370 . S
C926 C930 1.524 . S
C927 C919 1.503 . S
C927 C926 1.370 . S
C927 C928 1.403 . S
C928 C927 1.403 . S
C928 C929 1.404 . S
C928 C931 1.539 . S
C929 C925 1.408 . S
C929 C928 1.404 . S
C929 H941 0.930 . S
C930 C926 1.524 . S
C930 H942 0.956 . S
C930 H943 0.961 . S
C930 H944 0.961 . S
C931 C928 1.539 . S
C931 H945 0.958 . S
C931 H946 0.961 . S
C931 H947 0.960 . S
H932 C916 0.931 . S
H933 C921 0.929 . S
H934 C922 0.960 . S
H935 C922 0.962 . S
H936 C922 0.960 . S
H937 C923 0.961 . S
H938 C923 0.961 . S
H939 C923 0.961 . S
H940 C924 0.931 . S
H941 C929 0.930 . S
H942 C930 0.956 . S
H943 C930 0.961 . S
H944 C930 0.961 . S
H945 C931 0.958 . S
H946 C931 0.961 . S
H947 C931 0.960 . S
C948 C949 1.392 . S
C948 C950 1.394 . S
C948 H964 0.930 1_545 S
C949 C948 1.392 . S
C949 C953 1.376 1_556 S
C950 C948 1.394 . S
C950 C951 1.369 . S
C950 C954 1.528 1_545 S
C951 C950 1.369 . S
C951 C952 1.410 . S
C951 C959 1.503 . S
C952 C951 1.410 . S
C952 C953 1.392 1_556 S
C952 C955 1.511 1_556 S
C953 C949 1.376 1_554 S
C953 C952 1.392 1_554 S
C953 H965 0.929 . S
C954 C950 1.528 1_565 S
C954 H966 0.943 1_565 S
C954 H967 0.996 . S
C954 H968 0.948 1_565 S
C955 C952 1.511 1_554 S
C955 H969 0.961 . S
C955 H970 0.961 . S
C955 H971 0.961 . S
C956 C957 1.348 1_565 S
C956 C958 1.363 . S
C956 H972 0.931 . S
C957 C956 1.348 1_545 S
C957 C961 1.434 . S
C958 C956 1.363 . S
C958 C959 1.370 1_565 S
C958 C962 1.524 . S
C959 C951 1.503 . S
C959 C958 1.370 1_545 S
C959 C960 1.403 . S
C960 C959 1.403 . S
C960 C961 1.404 . S
C960 C963 1.539 . S
C961 C957 1.434 . S
C961 C960 1.404 . S
C961 H973 0.930 . S
C962 C958 1.524 . S
C962 H974 0.956 . S
C962 H975 0.961 . S
C962 H976 0.961 . S
C963 C960 1.539 . S
C963 H977 0.958 . S
C963 H978 0.961 . S
C963 H979 0.960 . S
H964 C948 0.930 1_565 S
H965 C953 0.929 . S
H966 C954 0.943 1_545 S
H967 C954 0.996 . S
H968 C954 0.948 1_545 S
H969 C955 0.961 . S
H970 C955 0.961 . S
H971 C955 0.961 . S
H972 C956 0.931 . S
H973 C961 0.930 . S
H974 C962 0.956 . S
H975 C962 0.961 . S
H976 C962 0.961 . S
H977 C963 0.958 . S
H978 C963 0.961 . S
H979 C963 0.960 . S
C980 C981 1.391 . S
C980 C982 1.394 . S
C980 H996 0.931 . S
C981 C980 1.391 . S
C981 C985 1.376 . S
C982 C980 1.394 . S
C982 C983 1.369 . S
C982 C986 1.531 . S
C983 C982 1.369 . S
C983 C984 1.410 . S
C983 C991 1.503 . S
C984 C983 1.410 . S
C984 C985 1.392 . S
C984 C987 1.511 . S
C985 C981 1.376 . S
C985 C984 1.392 . S
C985 H997 0.929 . S
C986 C982 1.531 . S
C986 H998 0.960 . S
C986 H999 0.962 . S
C986 H1000 0.960 . S
C987 C984 1.511 . S
C987 H1001 0.961 . S
C987 H1002 0.961 . S
C987 H1003 0.961 . S
C988 C989 1.370 . S
C988 C990 1.363 . S
C988 H1004 0.931 . S
C989 C988 1.370 . S
C989 C993 1.408 . S
C990 C988 1.363 . S
C990 C991 1.370 . S
C990 C994 1.524 . S
C991 C983 1.503 . S
C991 C990 1.370 . S
C991 C992 1.403 . S
C992 C991 1.403 . S
C992 C993 1.404 . S
C992 C995 1.539 . S
C993 C989 1.408 . S
C993 C992 1.404 . S
C993 H1005 0.930 . S
C994 C990 1.524 . S
C994 H1006 0.956 . S
C994 H1007 0.961 . S
C994 H1008 0.961 . S
C995 C992 1.539 . S
C995 H1009 0.958 . S
C995 H1010 0.961 . S
C995 H1011 0.960 . S
H996 C980 0.931 . S
H997 C985 0.929 . S
H998 C986 0.960 . S
H999 C986 0.962 . S
H1000 C986 0.960 . S
H1001 C987 0.961 . S
H1002 C987 0.961 . S
H1003 C987 0.961 . S
H1004 C988 0.931 . S
H1005 C993 0.930 . S
H1006 C994 0.956 . S
H1007 C994 0.961 . S
H1008 C994 0.961 . S
H1009 C995 0.958 . S
H1010 C995 0.961 . S
H1011 C995 0.960 . S
C1012 C1013 1.391 . S
C1012 C1014 1.394 . S
C1012 H1028 0.931 . S
C1013 C1012 1.391 . S
C1013 C1017 1.376 . S
C1014 C1012 1.394 . S
C1014 C1015 1.369 . S
C1014 C1018 1.531 . S
C1015 C1014 1.369 . S
C1015 C1016 1.410 . S
C1015 C1023 1.503 . S
C1016 C1015 1.410 . S
C1016 C1017 1.392 . S
C1016 C1019 1.511 1_556 S
C1017 C1013 1.376 . S
C1017 C1016 1.392 . S
C1017 H1029 0.929 1_556 S
C1018 C1014 1.531 . S
C1018 H1030 0.960 . S
C1018 H1031 0.962 . S
C1018 H1032 0.960 . S
C1019 C1016 1.511 1_554 S
C1019 H1033 0.961 . S
C1019 H1034 0.961 1_554 S
C1019 H1035 0.961 . S
C1020 C1021 1.370 . S
C1020 C1022 1.363 . S
C1020 H1036 0.931 . S
C1021 C1020 1.370 . S
C1021 C1025 1.408 . S
C1022 C1020 1.363 . S
C1022 C1023 1.370 . S
C1022 C1026 1.524 . S
C1023 C1015 1.503 . S
C1023 C1022 1.370 . S
C1023 C1024 1.403 . S
C1024 C1023 1.403 . S
C1024 C1025 1.404 . S
C1024 C1027 1.539 . S
C1025 C1021 1.408 . S
C1025 C1024 1.404 . S
C1025 H1037 0.930 . S
C1026 C1022 1.524 . S
C1026 H1038 0.956 . S
C1026 H1039 0.961 . S
C1026 H1040 0.961 . S
C1027 C1024 1.539 . S
C1027 H1041 0.958 . S
C1027 H1042 0.961 . S
C1027 H1043 0.960 . S
H1028 C1012 0.931 . S
H1029 C1017 0.929 1_554 S
H1030 C1018 0.960 . S
H1031 C1018 0.962 . S
H1032 C1018 0.960 . S
H1033 C1019 0.961 . S
H1034 C1019 0.961 1_556 S
H1035 C1019 0.961 . S
H1036 C1020 0.931 . S
H1037 C1025 0.930 . S
H1038 C1026 0.956 . S
H1039 C1026 0.961 . S
H1040 C1026 0.961 . S
H1041 C1027 0.958 . S
H1042 C1027 0.961 . S
H1043 C1027 0.960 . S
C1044 C1045 1.391 1_455 S
C1044 C1046 1.394 . S
C1044 H1060 0.931 . S
C1045 C1044 1.391 1_655 S
C1045 C1049 1.376 . S
C1046 C1044 1.394 . S
C1046 C1047 1.369 1_455 S
C1046 C1050 1.531 . S
C1047 C1046 1.369 1_655 S
C1047 C1048 1.410 . S
C1047 C1055 1.503 . S
C1048 C1047 1.410 . S
C1048 C1049 1.392 . S
C1048 C1051 1.511 . S
C1049 C1045 1.376 . S
C1049 C1048 1.392 . S
C1049 H1061 0.929 . S
C1050 C1046 1.531 . S
C1050 H1062 0.960 . S
C1050 H1063 0.962 . S
C1050 H1064 0.960 . S
C1051 C1048 1.511 . S
C1051 H1065 0.961 . S
C1051 H1066 0.961 . S
C1051 H1067 0.961 . S
C1052 C1053 1.370 . S
C1052 C1054 1.363 . S
C1052 H1068 0.931 . S
C1053 C1052 1.370 . S
C1053 C1057 1.405 1_655 S
C1054 C1052 1.363 . S
C1054 C1055 1.370 . S
C1054 C1058 1.524 . S
C1055 C1047 1.503 . S
C1055 C1054 1.370 . S
C1055 C1056 1.401 1_655 S
C1056 C1055 1.401 1_455 S
C1056 C1057 1.404 . S
C1056 C1059 1.540 . S
C1057 C1053 1.405 1_455 S
C1057 C1056 1.404 . S
C1057 H1069 0.933 . S
C1058 C1054 1.524 . S
C1058 H1070 0.956 1_655 S
C1058 H1071 0.961 . S
C1058 H1072 0.961 . S
C1059 C1056 1.540 . S
C1059 H1073 0.958 . S
C1059 H1074 0.961 1_455 S
C1059 H1075 0.960 1_455 S
H1060 C1044 0.931 . S
H1061 C1049 0.929 . S
H1062 C1050 0.960 . S
H1063 C1050 0.962 . S
H1064 C1050 0.960 . S
H1065 C1051 0.961 . S
H1066 C1051 0.961 . S
H1067 C1051 0.961 . S
H1068 C1052 0.931 . S
H1069 C1057 0.933 . S
H1070 C1058 0.956 1_455 S
H1071 C1058 0.961 . S
H1072 C1058 0.961 . S
H1073 C1059 0.958 . S
H1074 C1059 0.961 1_655 S
H1075 C1059 0.960 1_655 S
C1076 C1077 1.391 . S
C1076 C1078 1.394 . S
C1076 H1092 0.931 1_565 S
C1077 C1076 1.391 . S
C1077 C1081 1.376 . S
C1078 C1076 1.394 . S
C1078 C1079 1.369 . S
C1078 C1082 1.531 . S
C1079 C1078 1.369 . S
C1079 C1080 1.410 . S
C1079 C1087 1.503 . S
C1080 C1079 1.410 . S
C1080 C1081 1.392 . S
C1080 C1083 1.511 . S
C1081 C1077 1.376 . S
C1081 C1080 1.392 . S
C1081 H1093 0.929 . S
C1082 C1078 1.531 . S
C1082 H1094 0.960 . S
C1082 H1095 0.962 1_565 S
C1082 H1096 0.960 . S
C1083 C1080 1.511 . S
C1083 H1097 0.961 . S
C1083 H1098 0.961 . S
C1083 H1099 0.961 . S
C1084 C1085 1.370 1_545 S
C1084 C1086 1.363 . S
C1084 H1100 0.931 . S
C1085 C1084 1.370 1_565 S
C1085 C1089 1.408 . S
C1086 C1084 1.363 . S
C1086 C1087 1.370 1_545 S
C1086 C1090 1.524 . S
C1087 C1079 1.503 . S
C1087 C1086 1.370 1_565 S
C1087 C1088 1.403 . S
C1088 C1087 1.403 . S
C1088 C1089 1.404 . S
C1088 C1091 1.539 . S
C1089 C1085 1.408 . S
C1089 C1088 1.404 . S
C1089 H1101 0.930 . S
C1090 C1086 1.524 . S
C1090 H1102 0.956 . S
C1090 H1103 0.961 . S
C1090 H1104 0.961 . S
C1091 C1088 1.539 . S
C1091 H1105 0.958 . S
C1091 H1106 0.961 . S
C1091 H1107 0.960 . S
H1092 C1076 0.931 1_545 S
H1093 C1081 0.929 . S
H1094 C1082 0.960 . S
H1095 C1082 0.962 1_545 S
H1096 C1082 0.960 . S
H1097 C1083 0.961 . S
H1098 C1083 0.961 . S
H1099 C1083 0.961 . S
H1100 C1084 0.931 . S
H1101 C1089 0.930 . S
H1102 C1090 0.956 . S
H1103 C1090 0.961 . S
H1104 C1090 0.961 . S
H1105 C1091 0.958 . S
H1106 C1091 0.961 . S
H1107 C1091 0.960 . S
C1108 C1109 1.391 . S
C1108 C1110 1.394 . S
C1108 H1124 0.931 . S
C1109 C1108 1.391 . S
C1109 C1113 1.376 . S
C1110 C1108 1.394 . S
C1110 C1111 1.369 . S
C1110 C1114 1.531 . S
C1111 C1110 1.369 . S
C1111 C1112 1.410 . S
C1111 C1119 1.503 . S
C1112 C1111 1.410 . S
C1112 C1113 1.392 . S
C1112 C1115 1.511 . S
C1113 C1109 1.376 . S
C1113 C1112 1.392 . S
C1113 H1125 0.929 . S
C1114 C1110 1.531 . S
C1114 H1126 0.960 . S
C1114 H1127 0.962 . S
C1114 H1128 0.960 . S
C1115 C1112 1.511 . S
C1115 H1129 0.961 . S
C1115 H1130 0.961 . S
C1115 H1131 0.961 . S
C1116 C1117 1.370 . S
C1116 C1118 1.363 . S
C1116 H1132 0.931 . S
C1117 C1116 1.370 . S
C1117 C1121 1.408 . S
C1118 C1116 1.363 . S
C1118 C1119 1.370 . S
C1118 C1122 1.524 . S
C1119 C1111 1.503 . S
C1119 C1118 1.370 . S
C1119 C1120 1.403 . S
C1120 C1119 1.403 . S
C1120 C1121 1.404 . S
C1120 C1123 1.539 . S
C1121 C1117 1.408 . S
C1121 C1120 1.404 . S
C1121 H1133 0.930 . S
C1122 C1118 1.524 . S
C1122 H1134 0.956 . S
C1122 H1135 0.961 . S
C1122 H1136 0.961 . S
C1123 C1120 1.539 . S
C1123 H1137 0.958 . S
C1123 H1138 0.961 . S
C1123 H1139 0.960 . S
H1124 C1108 0.931 . S
H1125 C1113 0.929 . S
H1126 C1114 0.960 . S
H1127 C1114 0.962 . S
H1128 C1114 0.960 . S
H1129 C1115 0.961 . S
H1130 C1115 0.961 . S
H1131 C1115 0.961 . S
H1132 C1116 0.931 . S
H1133 C1121 0.930 . S
H1134 C1122 0.956 . S
H1135 C1122 0.961 . S
H1136 C1122 0.961 . S
H1137 C1123 0.958 . S
H1138 C1123 0.961 . S
H1139 C1123 0.960 . S
C1140 C1141 1.391 . S
C1140 C1142 1.394 . S
C1140 H1156 0.931 . S
C1141 C1140 1.391 . S
C1141 C1145 1.376 . S
C1142 C1140 1.394 . S
C1142 C1143 1.369 . S
C1142 C1146 1.531 . S
C1143 C1142 1.369 . S
C1143 C1144 1.410 . S
C1143 C1151 1.503 . S
C1144 C1143 1.410 . S
C1144 C1145 1.392 . S
C1144 C1147 1.511 . S
C1145 C1141 1.376 . S
C1145 C1144 1.392 . S
C1145 H1157 0.929 . S
C1146 C1142 1.531 . S
C1146 H1158 0.960 . S
C1146 H1159 0.962 . S
C1146 H1160 0.960 . S
C1147 C1144 1.511 . S
C1147 H1161 0.961 . S
C1147 H1162 0.961 . S
C1147 H1163 0.961 . S
C1148 C1149 1.370 . S
C1148 C1150 1.363 . S
C1148 H1164 0.931 . S
C1149 C1148 1.370 . S
C1149 C1153 1.408 . S
C1150 C1148 1.363 . S
C1150 C1151 1.370 . S
C1150 C1154 1.524 . S
C1151 C1143 1.503 . S
C1151 C1150 1.370 . S
C1151 C1152 1.403 . S
C1152 C1151 1.403 . S
C1152 C1153 1.404 . S
C1152 C1155 1.539 . S
C1153 C1149 1.408 . S
C1153 C1152 1.404 . S
C1153 H1165 0.930 . S
C1154 C1150 1.524 . S
C1154 H1166 0.956 . S
C1154 H1167 0.961 . S
C1154 H1168 0.961 . S
C1155 C1152 1.539 . S
C1155 H1169 0.958 . S
C1155 H1170 0.961 . S
C1155 H1171 0.960 . S
H1156 C1140 0.931 . S
H1157 C1145 0.929 . S
H1158 C1146 0.960 . S
H1159 C1146 0.962 . S
H1160 C1146 0.960 . S
H1161 C1147 0.961 . S
H1162 C1147 0.961 . S
H1163 C1147 0.961 . S
H1164 C1148 0.931 . S
H1165 C1153 0.930 . S
H1166 C1154 0.956 . S
H1167 C1154 0.961 . S
H1168 C1154 0.961 . S
H1169 C1155 0.958 . S
H1170 C1155 0.961 . S
H1171 C1155 0.960 . S
C405 C255 1.709 . S
C413 C328 1.675 . S
C445 C351 1.867 . S
C437 C294 1.879 . S
C477 C374 1.762 . S
C469 C177 1.734 . S
C509 C401 1.653 . S
C501 C216 1.701 . S
C541 C329 1.606 . S
C533 C99 1.616 1_556 S
C565 C138 1.647 . S
C573 C352 1.653 . S
C597 C21 1.488 . S
C605 C375 1.505 . S
C629 C60 1.703 1_556 S
C637 C400 1.745 . S
C669 C330 0.150 . S
C661 C196 0.597 . S
C701 C353 0.253 . S
C693 C235 0.428 1_565 S
C733 C376 0.110 . S
C725 C289 0.474 . S
C757 C157 0.433 . S
C765 C402 0.540 . S
C789 C40 0.511 . S
C797 C333 0.585 . S
C829 C356 0.656 . S
C821 C79 0.237 . S
C861 C379 0.627 . S
C853 C133 0.483 . S
C885 C1 0.397 . S
C893 C399 0.173 . S
C917 C211 1.934 . S
C925 C331 1.953 . S
C949 C250 1.849 1_556 S
C957 C354 1.880 . S
C989 C377 1.915 . S
C981 C274 1.910 1_556 S
C1021 C398 1.666 . S
C1013 C172 1.549 1_556 S
C1045 C55 1.907 . S
C1053 C332 1.936 1_655 S
C1085 C355 1.802 . S
C1077 C94 1.799 1_565 S
C1117 C378 1.806 . S
C1109 C118 1.778 . S
C1141 C16 1.935 . S
C1149 C397 2.056 . S
