# Generated by pormake.
# Topology dag, (6,3)-cn, num edge types: 1
# Building blocks:
#     Node 0, Type 0, BuildingBlock: OJICUG_clean_sbu_0, # of connection points: 6
#     Node 1, Type 0, BuildingBlock: OJICUG_clean_sbu_0, # of connection points: 6
#     Node 2, Type 0, BuildingBlock: OJICUG_clean_sbu_0, # of connection points: 6
#     Node 3, Type 0, BuildingBlock: OJICUG_clean_sbu_0, # of connection points: 6
#     Node 4, Type 1, BuildingBlock: VETTIZ_charged_linker_0, # of connection points: 3
#     Node 5, Type 1, BuildingBlock: VETTIZ_charged_linker_0, # of connection points: 3
#     Node 6, Type 1, BuildingBlock: VETTIZ_charged_linker_0, # of connection points: 3
#     Node 7, Type 1, BuildingBlock: VETTIZ_charged_linker_0, # of connection points: 3
#     Node 8, Type 1, BuildingBlock: VETTIZ_charged_linker_0, # of connection points: 3
#     Node 9, Type 1, BuildingBlock: VETTIZ_charged_linker_0, # of connection points: 3
#     Node 10, Type 1, BuildingBlock: VETTIZ_charged_linker_0, # of connection points: 3
#     Node 11, Type 1, BuildingBlock: VETTIZ_charged_linker_0, # of connection points: 3
#     Edge 12, Type (0, 1), BuildingBlock: AJUNOK_clean_linker_0, # of connection points: 2
#     Edge 13, Type (0, 1), BuildingBlock: AJUNOK_clean_linker_0, # of connection points: 2
#     Edge 14, Type (0, 1), BuildingBlock: AJUNOK_clean_linker_0, # of connection points: 2
#     Edge 15, Type (0, 1), BuildingBlock: AJUNOK_clean_linker_0, # of connection points: 2
#     Edge 16, Type (0, 1), BuildingBlock: AJUNOK_clean_linker_0, # of connection points: 2
#     Edge 17, Type (0, 1), BuildingBlock: AJUNOK_clean_linker_0, # of connection points: 2
#     Edge 18, Type (0, 1), BuildingBlock: AJUNOK_clean_linker_0, # of connection points: 2
#     Edge 19, Type (0, 1), BuildingBlock: AJUNOK_clean_linker_0, # of connection points: 2
#     Edge 20, Type (0, 1), BuildingBlock: AJUNOK_clean_linker_0, # of connection points: 2
#     Edge 21, Type (0, 1), BuildingBlock: AJUNOK_clean_linker_0, # of connection points: 2
#     Edge 22, Type (0, 1), BuildingBlock: AJUNOK_clean_linker_0, # of connection points: 2
#     Edge 23, Type (0, 1), BuildingBlock: AJUNOK_clean_linker_0, # of connection points: 2
#     Edge 24, Type (0, 1), BuildingBlock: AJUNOK_clean_linker_0, # of connection points: 2
#     Edge 25, Type (0, 1), BuildingBlock: AJUNOK_clean_linker_0, # of connection points: 2
#     Edge 26, Type (0, 1), BuildingBlock: AJUNOK_clean_linker_0, # of connection points: 2
#     Edge 27, Type (0, 1), BuildingBlock: AJUNOK_clean_linker_0, # of connection points: 2
#     Edge 28, Type (0, 1), BuildingBlock: AJUNOK_clean_linker_0, # of connection points: 2
#     Edge 29, Type (0, 1), BuildingBlock: AJUNOK_clean_linker_0, # of connection points: 2
#     Edge 30, Type (0, 1), BuildingBlock: AJUNOK_clean_linker_0, # of connection points: 2
#     Edge 31, Type (0, 1), BuildingBlock: AJUNOK_clean_linker_0, # of connection points: 2
#     Edge 32, Type (0, 1), BuildingBlock: AJUNOK_clean_linker_0, # of connection points: 2
#     Edge 33, Type (0, 1), BuildingBlock: AJUNOK_clean_linker_0, # of connection points: 2
#     Edge 34, Type (0, 1), BuildingBlock: AJUNOK_clean_linker_0, # of connection points: 2
#     Edge 35, Type (0, 1), BuildingBlock: AJUNOK_clean_linker_0, # of connection points: 2
# Relax obj value: 0.268
# Max RMSD: 0.196
# Mean RMSD: 0.162
data_MOF--net-dag--node1-OJICUG_clean_sbu_0--node2-VETTIZ_charged_linker_0--edge1-AJUNOK_clean_linker_0
_symmetry_space_group_name_H-M    P1
_symmetry_Int_Tables_number       1
_symmetry_cell_setting            triclinic
loop_
_symmetry_equiv_pos_as_xyz
'x, y, z'
_cell_length_a     35.96755
_cell_length_b     35.883613
_cell_length_c     37.612782
_cell_angle_alpha  90.221465
_cell_angle_beta   90.262011
_cell_angle_gamma 90.012197
loop_
_atom_site_label
_atom_site_type_symbol
_atom_site_fract_x
_atom_site_fract_y
_atom_site_fract_z
_atom_type_partial_charge
Sc0 Sc 0.14905 0.843 -0.00293 0.0
Sc1 Sc 0.17944 0.75001 3e-05 0.0
Sc2 Sc 0.24445 0.82483 0.99312 0.0
O3 O 0.19103 0.80585 -0.00319 0.0
C4 C 0.20308 0.87844 0.93922 0.0
C5 C 0.11451 0.77839 0.94903 0.0
C6 C 0.24383 0.75305 0.94242 0.0
C7 C 0.12125 0.78402 0.05432 0.0
C8 C 0.20904 0.88562 0.04464 0.0
C9 C 0.25117 0.75938 0.04988 0.0
O10 O 0.17165 0.87381 0.95373 0.0
O11 O 0.13427 0.75225 0.96179 0.0
O12 O 0.25741 0.78367 0.95349 0.0
O13 O 0.12193 0.81604 0.0402 0.0
O14 O 0.23716 0.86933 0.0314 0.0
O15 O 0.22278 0.74143 0.03898 0.0
O16 O 0.17585 0.87823 0.03549 0.0
O17 O 0.14028 0.75658 0.0431 0.0
O18 O 0.26206 0.78973 0.0361 0.0
O19 O 0.11737 0.81214 0.95873 0.0
O20 O 0.23263 0.86277 0.95014 0.0
O21 O 0.21613 0.73717 0.95671 0.0
Sc22 Sc 0.74808 0.67276 0.49465 0.0
Sc23 Sc 0.67746 0.74142 0.49751 0.0
Sc24 Sc 0.6606 0.64955 0.52505 0.0
O25 O 0.69524 0.68825 0.50556 0.0
C26 C 0.70543 0.60396 0.46565 0.0
C27 C 0.73455 0.73314 0.43423 0.0
C28 C 0.61258 0.69082 0.46531 0.0
C29 C 0.75559 0.7485 0.53861 0.0
C30 C 0.73129 0.6227 0.56312 0.0
C31 C 0.63062 0.72119 0.56611 0.0
O32 O 0.72964 0.6289 0.45934 0.0
O33 O 0.70587 0.74747 0.44797 0.0
O34 O 0.62092 0.66267 0.48429 0.0
O35 O 0.76745 0.71614 0.52997 0.0
O36 O 0.69821 0.63423 0.56676 0.0
O37 O 0.64478 0.74483 0.54523 0.0
O38 O 0.75143 0.63268 0.53722 0.0
O39 O 0.72488 0.76223 0.52744 0.0
O40 O 0.63426 0.68638 0.56189 0.0
O41 O 0.75315 0.70752 0.44891 0.0
O42 O 0.68212 0.60637 0.49086 0.0
O43 O 0.62928 0.72217 0.46756 0.0
Sc44 Sc 0.81739 0.24775 0.99367 0.0
Sc45 Sc 0.7506 0.17504 -0.00036 0.0
Sc46 Sc 0.84556 0.15459 -0.00441 0.0
O47 O 0.80445 0.19253 -0.00366 0.0
C48 C 0.87455 0.21432 0.93901 0.0
C49 C 0.74551 0.23987 0.94342 0.0
C50 C 0.78576 0.11342 0.94819 0.0
C51 C 0.75191 0.24812 0.04906 0.0
C52 C 0.88149 0.21683 0.04446 0.0
C53 C 0.78971 0.1205 0.0533 0.0
O54 O 0.85378 0.241 0.94882 0.0
O55 O 0.7355 0.208 0.95442 0.0
O56 O 0.81915 0.12256 0.95471 0.0
O57 O 0.78308 0.2601 0.03838 0.0
O58 O 0.87603 0.18291 0.03646 0.0
O59 O 0.76136 0.13971 0.04477 0.0
O60 O 0.86427 0.24369 0.02983 0.0
O61 O 0.73586 0.21955 0.03594 0.0
O62 O 0.82034 0.12198 0.03665 0.0
O63 O 0.7724 0.25827 0.9569 0.0
O64 O 0.87524 0.18284 0.95432 0.0
O65 O 0.75811 0.12776 0.96416 0.0
Sc66 Sc 0.34215 0.34446 0.46984 0.0
Sc67 Sc 0.25046 0.32651 0.49604 0.0
Sc68 Sc 0.31782 0.25378 0.49461 0.0
O69 O 0.30342 0.30818 0.48687 0.0
C70 C 0.36417 0.27249 0.42515 0.0
C71 C 0.27174 0.37367 0.42735 0.0
C72 C 0.23889 0.24928 0.45509 0.0
C73 C 0.29876 0.39206 0.52885 0.0
C74 C 0.38858 0.29594 0.52572 0.0
C75 C 0.2626 0.26827 0.55885 0.0
O76 O 0.36272 0.30745 0.42992 0.0
O77 O 0.24832 0.36222 0.44998 0.0
O78 O 0.26949 0.23503 0.46545 0.0
O79 O 0.32592 0.38539 0.50831 0.0
O80 O 0.36758 0.26748 0.52418 0.0
O81 O 0.24469 0.2944 0.54392 0.0
O82 O 0.38256 0.32522 0.50769 0.0
O83 O 0.26892 0.37293 0.52872 0.0
O84 O 0.28965 0.25154 0.54443 0.0
O85 O 0.30636 0.36768 0.43012 0.0
O86 O 0.34965 0.24918 0.44628 0.0
O87 O 0.22847 0.2821 0.4634 0.0
C88 C 0.20195 0.03438 0.15363 0.0
C89 C 0.19673 0.02412 0.11789 0.0
C90 C 0.17612 0.04749 0.09523 0.0
C91 C 0.16241 0.08843 0.14467 0.0
C92 C 0.185 0.06702 0.16632 0.0
C93 C 0.18781 0.08282 0.20339 0.0
H94 H 0.12677 0.20753 0.32542 0.0
C95 C 0.14538 0.11785 0.16671 0.0
C96 C 0.1605 0.1151 0.20105 0.0
H97 H 0.2214 0.1335 0.3331 0.0
H98 H 0.20749 0.10853 0.27506 0.0
H99 H 0.14616 0.23492 0.24758 0.0
H100 H 0.07095 0.15093 0.28553 0.0
H101 H 0.04973 0.17056 0.24793 0.0
H102 H 0.0591 0.19946 0.28638 0.0
H103 H 0.10451 0.24533 0.27184 0.0
H104 H 0.10384 0.23959 0.2243 0.0
C105 C 0.22833 0.09633 0.20967 0.0
C106 C 0.17472 0.05284 0.23002 0.0
C107 C 0.03716 0.19221 0.11701 0.0
C108 C 0.01071 0.21544 0.1331 0.0
C109 C 0.01515 0.22572 0.16898 0.0
C110 C 0.04543 0.21242 0.18885 0.0
C111 C 0.071 0.18799 0.17277 0.0
C112 C 0.06668 0.17841 0.13737 0.0
C113 C 0.09424 0.14943 0.12559 0.0
C114 C 0.11604 0.14332 0.15972 0.0
C115 C 0.10248 0.16617 0.18713 0.0
C116 C 0.11874 0.16648 0.09603 0.0
C117 C 0.07214 0.11423 0.11406 0.0
C118 C 0.14436 0.18573 0.31474 0.0
C119 C 0.17484 0.17211 0.33432 0.0
C120 C 0.19704 0.14376 0.31927 0.0
C121 C 0.18943 0.12979 0.28518 0.0
C122 C 0.15976 0.14473 0.26552 0.0
C123 C 0.13779 0.17222 0.28035 0.0
C124 C 0.10911 0.18663 0.25466 0.0
C125 C 0.11853 0.16429 0.22159 0.0
C126 C 0.14767 0.13924 0.22835 0.0
C127 C 0.11587 0.22889 0.24928 0.0
C128 C 0.07009 0.17675 0.26926 0.0
H129 H 0.14274 0.09575 0.09008 0.0
H130 H 0.21815 0.01696 0.17133 0.0
H131 H 0.14799 0.0403 0.221 0.0
H132 H 0.16967 0.0642 0.25686 0.0
H133 H 0.19554 0.03011 0.23233 0.0
H134 H 0.24353 0.10031 0.18426 0.0
H135 H 0.24446 0.076 0.22572 0.0
H136 H 0.22941 0.12395 0.22292 0.0
H137 H 0.03357 0.18303 0.08972 0.0
H138 H 0.99462 0.24321 0.18183 0.0
H139 H 0.04715 0.22082 0.2162 0.0
H140 H 0.12254 0.19698 0.10015 0.0
H141 H 0.10595 0.1624 0.06937 0.0
H142 H 0.14728 0.155 0.09593 0.0
H143 H 0.0481 0.10952 0.13202 0.0
H144 H 0.08844 0.08831 0.11551 0.0
H145 H 0.06105 0.11723 0.08661 0.0
H146 H 0.17181 0.03986 0.0676 0.0
C147 C 0.15898 0.07963 0.1084 0.0
C148 C 0.30764 0.54564 0.63233 0.0
C149 C 0.3231 0.53186 0.60069 0.0
C150 C 0.34974 0.55321 0.58255 0.0
C151 C 0.34911 0.59906 0.62974 0.0
C152 C 0.32119 0.57932 0.64647 0.0
C153 C 0.31015 0.59717 0.68118 0.0
H154 H 0.34729 0.72523 0.80921 0.0
C155 C 0.36039 0.63014 0.65315 0.0
C156 C 0.33762 0.62935 0.68333 0.0
H157 H 0.25414 0.64926 0.8041 0.0
H158 H 0.27644 0.6249 0.74792 0.0
H159 H 0.40832 0.67064 0.78158 0.0
H160 H 0.34021 0.75129 0.72778 0.0
H161 H 0.38572 0.75588 0.71143 0.0
H162 H 0.37702 0.76364 0.758 0.0
H163 H 0.41901 0.71944 0.78271 0.0
H164 H 0.43619 0.68929 0.74791 0.0
C165 C 0.31644 0.56857 0.71132 0.0
C166 C 0.26949 0.61099 0.6777 0.0
C167 C 0.47567 0.70487 0.62315 0.0
C168 C 0.49743 0.72992 0.64299 0.0
C169 C 0.48498 0.74236 0.67632 0.0
C170 C 0.45128 0.72924 0.69011 0.0
C171 C 0.43042 0.70286 0.6706 0.0
C172 C 0.44264 0.69135 0.63758 0.0
C173 C 0.41902 0.66072 0.62205 0.0
C174 C 0.39029 0.6559 0.65109 0.0
C175 C 0.397 0.68079 0.67922 0.0
C176 C 0.44381 0.62558 0.61736 0.0
C177 C 0.4012 0.67528 0.58721 0.0
C178 C 0.33146 0.70359 0.79585 0.0
C179 C 0.2987 0.68947 0.81074 0.0
C180 C 0.2795 0.66054 0.79305 0.0
C181 C 0.29231 0.64669 0.76037 0.0
C182 C 0.32463 0.66194 0.74536 0.0
C183 C 0.34344 0.69004 0.76307 0.0
C184 C 0.37629 0.70416 0.74275 0.0
C185 C 0.3738 0.68038 0.70952 0.0
C186 C 0.34393 0.65523 0.71137 0.0
C187 C 0.41192 0.69582 0.76475 0.0
C188 C 0.36988 0.74599 0.73462 0.0
H189 H 0.38373 0.60126 0.58219 0.0
H190 H 0.28697 0.52968 0.64656 0.0
H191 H 0.26261 0.6184 0.64973 0.0
H192 H 0.26437 0.63684 0.69301 0.0
H193 H 0.24949 0.58922 0.68619 0.0
H194 H 0.34366 0.55428 0.70799 0.0
H195 H 0.29435 0.54692 0.71109 0.0
H196 H 0.31736 0.58139 0.73799 0.0
H197 H 0.48545 0.69415 0.59788 0.0
H198 H 0.50188 0.76129 0.69204 0.0
H199 H 0.4434 0.73922 0.71591 0.0
H200 H 0.46711 0.62528 0.63693 0.0
H201 H 0.45619 0.62445 0.59038 0.0
H202 H 0.42879 0.59929 0.62239 0.0
H203 H 0.39274 0.70495 0.59016 0.0
H204 H 0.37544 0.66028 0.57987 0.0
H205 H 0.42111 0.67357 0.56478 0.0
H206 H 0.36152 0.54311 0.55786 0.0
C207 C 0.36269 0.58681 0.59679 0.0
C208 C 0.77556 0.80901 0.27723 0.0
C209 C 0.78949 0.77877 0.29685 0.0
C210 C 0.82092 0.75944 0.28421 0.0
C211 C 0.82595 0.80234 0.2351 0.0
C212 C 0.79452 0.82065 0.24687 0.0
C213 C 0.78606 0.85486 0.22535 0.0
H214 H 0.84262 0.9776 0.10117 0.0
C215 C 0.84068 0.82295 0.20448 0.0
C216 C 0.81746 0.85381 0.19858 0.0
H217 H 0.74636 0.9861 0.16881 0.0
H218 H 0.75861 0.92412 0.192 0.0
H219 H 0.89709 0.94389 0.15895 0.0
H220 H 0.82946 0.89397 0.0773 0.0
H221 H 0.86894 0.86544 0.08078 0.0
H222 H 0.87412 0.91357 0.06766 0.0
H223 H 0.90602 0.94858 0.11226 0.0
H224 H 0.92431 0.91016 0.13732 0.0
C225 C 0.78865 0.88918 0.25045 0.0
C226 C 0.74767 0.84961 0.20728 0.0
C227 C 0.96328 0.78329 0.14918 0.0
C228 C 0.98453 0.7989 0.1219 0.0
C229 C 0.97039 0.82903 0.10223 0.0
C230 C 0.93598 0.84467 0.11056 0.0
C231 C 0.9157 0.83027 0.13916 0.0
C232 C 0.92879 0.79943 0.15728 0.0
C233 C 0.90301 0.78795 0.18662 0.0
C234 C 0.87278 0.81739 0.18337 0.0
C235 C 0.88075 0.84234 0.1559 0.0
C236 C 0.92455 0.79099 0.22236 0.0
C237 C 0.88812 0.74844 0.17782 0.0
C238 C 0.82431 0.96608 0.12113 0.0
C239 C 0.79417 0.98677 0.13406 0.0
C240 C 0.7701 0.97064 0.15904 0.0
C241 C 0.77739 0.93486 0.17246 0.0
C242 C 0.80904 0.91531 0.16069 0.0
C243 C 0.83128 0.9307 0.13476 0.0
C244 C 0.86359 0.90628 0.12511 0.0
C245 C 0.85784 0.87397 0.1503 0.0
C246 C 0.82606 0.87948 0.17124 0.0
C247 C 0.89981 0.92815 0.13354 0.0
C248 C 0.85918 0.89426 0.08564 0.0
H249 H 0.86312 0.75539 0.24548 0.0
H250 H 0.75098 0.82393 0.28575 0.0
H251 H 0.74398 0.82031 0.19813 0.0
H252 H 0.74433 0.86674 0.18314 0.0
H253 H 0.72476 0.85611 0.22601 0.0
H254 H 0.81081 0.88526 0.27084 0.0
H255 H 0.76205 0.89377 0.26471 0.0
H256 H 0.79644 0.91505 0.23664 0.0
H257 H 0.97378 0.76005 0.16453 0.0
H258 H 0.98658 0.8411 0.08094 0.0
H259 H 0.92706 0.86806 0.09508 0.0
H260 H 0.94504 0.81422 0.22172 0.0
H261 H 0.94011 0.76496 0.22811 0.0
H262 H 0.90648 0.79766 0.24515 0.0
H263 H 0.8838 0.74494 0.14868 0.0
H264 H 0.86061 0.74288 0.18963 0.0
H265 H 0.90801 0.72663 0.1866 0.0
H266 H 0.83233 0.73615 0.29889 0.0
C267 C 0.839 0.77086 0.25332 0.0
C268 C 0.66285 0.29464 0.79154 0.0
C269 C 0.69274 0.30615 0.8132 0.0
C270 C 0.71652 0.3346 0.80121 0.0
C271 C 0.68128 0.33924 0.74665 0.0
C272 C 0.65789 0.31132 0.75825 0.0
C273 C 0.62832 0.30195 0.73118 0.0
H274 H 0.54828 0.33955 0.57204 0.0
C275 C 0.66942 0.35014 0.71073 0.0
C276 C 0.63875 0.32805 0.70112 0.0
H277 H 0.50918 0.26411 0.65289 0.0
H278 H 0.56468 0.27583 0.68793 0.0
H279 H 0.57185 0.40331 0.62657 0.0
H280 H 0.63382 0.3169 0.57394 0.0
H281 H 0.66429 0.35496 0.57805 0.0
H282 H 0.62226 0.3596 0.55188 0.0
H283 H 0.57937 0.40159 0.57942 0.0
H284 H 0.61233 0.42326 0.6088 0.0
C285 C 0.59 0.31173 0.74743 0.0
C286 C 0.63276 0.26054 0.72035 0.0
C287 C 0.72962 0.46144 0.65144 0.0
C288 C 0.72456 0.47754 0.61788 0.0
C289 C 0.70207 0.45943 0.59239 0.0
C290 C 0.68299 0.42675 0.60092 0.0
C291 C 0.68625 0.41224 0.63537 0.0
C292 C 0.71061 0.42845 0.6594 0.0
C293 C 0.71248 0.40733 0.69376 0.0
C294 C 0.68326 0.37745 0.68713 0.0
C295 C 0.66751 0.38099 0.6532 0.0
C296 C 0.70115 0.43412 0.72426 0.0
C297 C 0.75214 0.39067 0.6976 0.0
C298 C 0.55188 0.32533 0.59718 0.0
C299 C 0.52442 0.30102 0.60984 0.0
C300 C 0.53015 0.28273 0.64248 0.0
C301 C 0.56215 0.28994 0.66293 0.0
C302 C 0.58839 0.31599 0.65073 0.0
C303 C 0.58323 0.33269 0.61804 0.0
C304 C 0.61271 0.361 0.6099 0.0
C305 C 0.63628 0.35901 0.64335 0.0
C306 C 0.62193 0.33265 0.66719 0.0
C307 C 0.59337 0.39939 0.60571 0.0
C308 C 0.63438 0.34779 0.5766 0.0
H309 H 0.73002 0.37263 0.76062 0.0
H310 H 0.64384 0.27315 0.80024 0.0
H311 H 0.66267 0.25321 0.71757 0.0
H312 H 0.62005 0.25404 0.69429 0.0
H313 H 0.62062 0.24185 0.74071 0.0
H314 H 0.59212 0.33629 0.76549 0.0
H315 H 0.5789 0.28812 0.76317 0.0
H316 H 0.56921 0.31991 0.72724 0.0
H317 H 0.74713 0.47478 0.67125 0.0
H318 H 0.69774 0.47165 0.5664 0.0
H319 H 0.66538 0.41484 0.5808 0.0
H320 H 0.67632 0.45074 0.71648 0.0
H321 H 0.72401 0.45391 0.73064 0.0
H322 H 0.69331 0.41954 0.74886 0.0
H323 H 0.76671 0.38895 0.6716 0.0
H324 H 0.75167 0.36159 0.7074 0.0
H325 H 0.76974 0.40786 0.71564 0.0
H326 H 0.74001 0.34359 0.81723 0.0
C327 C 0.71094 0.35118 0.76814 0.0
C328 C 0.67796 0.4616 0.35146 0.0
C329 C 0.66492 0.47375 0.38474 0.0
C330 C 0.63529 0.45451 0.40082 0.0
C331 C 0.63185 0.41207 0.35081 0.0
C332 C 0.66102 0.43077 0.33503 0.0
C333 C 0.67119 0.41403 0.29962 0.0
H334 H 0.6441 0.27789 0.17715 0.0
C335 C 0.62021 0.38154 0.32685 0.0
C336 C 0.6431 0.3825 0.29676 0.0
H337 H 0.72406 0.36781 0.17401 0.0
H338 H 0.70046 0.39194 0.22959 0.0
H339 H 0.64945 0.26019 0.26089 0.0
H340 H 0.57714 0.32858 0.19751 0.0
H341 H 0.54992 0.31336 0.23319 0.0
H342 H 0.56896 0.27962 0.20248 0.0
H343 H 0.61659 0.24232 0.229 0.0
H344 H 0.60322 0.25189 0.27413 0.0
C345 C 0.7116 0.39938 0.30224 0.0
C346 C 0.66498 0.44394 0.27059 0.0
C347 C 0.51088 0.29969 0.36004 0.0
C348 C 0.49136 0.2718 0.34158 0.0
C349 C 0.50405 0.25957 0.30829 0.0
C350 C 0.53608 0.27532 0.29336 0.0
C351 C 0.55491 0.30401 0.31174 0.0
C352 C 0.5422 0.31568 0.34453 0.0
C353 C 0.56393 0.34814 0.35914 0.0
C354 C 0.5918 0.35423 0.32961 0.0
C355 C 0.58662 0.32808 0.30221 0.0
C356 C 0.58301 0.33554 0.39409 0.0
C357 C 0.53706 0.3817 0.36335 0.0
C358 C 0.65608 0.30321 0.18799 0.0
C359 C 0.68577 0.32114 0.17104 0.0
C360 C 0.70122 0.35343 0.18669 0.0
C361 C 0.68746 0.3674 0.2189 0.0
C362 C 0.6579 0.34891 0.23561 0.0
C363 C 0.64242 0.3177 0.21981 0.0
C364 C 0.61037 0.30232 0.2405 0.0
C365 C 0.60997 0.32867 0.27203 0.0
C366 C 0.63793 0.35582 0.26919 0.0
C367 C 0.62006 0.26196 0.25168 0.0
C368 C 0.57468 0.3058 0.21736 0.0
H369 H 0.59626 0.41052 0.39774 0.0
H370 H 0.70098 0.47555 0.33867 0.0
H371 H 0.64056 0.46172 0.27701 0.0
H372 H 0.65852 0.4318 0.24425 0.0
H373 H 0.68956 0.4625 0.26826 0.0
H374 H 0.71687 0.38659 0.32869 0.0
H375 H 0.73195 0.42236 0.29879 0.0
H376 H 0.71772 0.37714 0.28281 0.0
H377 H 0.50085 0.31009 0.38534 0.0
H378 H 0.48882 0.23841 0.29365 0.0
H379 H 0.54449 0.26506 0.26782 0.0
H380 H 0.59274 0.30619 0.39192 0.0
H381 H 0.56346 0.33713 0.41683 0.0
H382 H 0.60822 0.3518 0.40057 0.0
H383 H 0.5148 0.38102 0.34271 0.0
H384 H 0.55087 0.40888 0.35958 0.0
H385 H 0.52333 0.38145 0.38974 0.0
H386 H 0.62453 0.46358 0.42629 0.0
C387 C 0.61876 0.42379 0.38411 0.0
C388 C 0.1865 0.22664 0.71453 0.0
C389 C 0.21753 0.21264 0.69622 0.0
C390 C 0.23451 0.17954 0.70818 0.0
C391 C 0.18849 0.17381 0.75447 0.0
C392 C 0.17227 0.20666 0.74326 0.0
C393 C 0.13724 0.21553 0.76328 0.0
H394 H 0.00631 0.15849 0.8795 0.0
C395 C 0.16511 0.15803 0.78268 0.0
C396 C 0.1349 0.18228 0.78793 0.0
H397 H 0.00701 0.26099 0.81981 0.0
H398 H 0.06766 0.24511 0.79558 0.0
H399 H 0.03498 0.10674 0.81896 0.0
H400 H 0.08974 0.16342 0.90505 0.0
H401 H 0.11301 0.12071 0.90068 0.0
H402 H 0.0641 0.12112 0.91138 0.0
H403 H 0.03227 0.09129 0.86417 0.0
H404 H 0.06867 0.07565 0.83487 0.0
C405 C 0.10455 0.21656 0.73632 0.0
C406 C 0.14328 0.25237 0.78404 0.0
C407 C 0.19747 0.03186 0.83629 0.0
C408 C 0.17864 0.00938 0.86081 0.0
C409 C 0.1455 0.02229 0.87631 0.0
C410 C 0.13078 0.05688 0.86723 0.0
C411 C 0.14919 0.07886 0.84211 0.0
C412 C 0.18206 0.06651 0.8272 0.0
C413 C 0.19691 0.09361 0.8003 0.0
C414 C 0.16764 0.12421 0.80197 0.0
C415 C 0.13988 0.1152 0.82642 0.0
C416 C 0.19769 0.07386 0.76351 0.0
C417 C 0.23527 0.10758 0.81358 0.0
C418 C 0.01942 0.17739 0.86096 0.0
C419 C 0.00189 0.21058 0.85089 0.0
C420 C 0.0201 0.23507 0.82756 0.0
C421 C 0.05512 0.22572 0.81357 0.0
C422 C 0.07181 0.19163 0.82316 0.0
C423 C 0.05407 0.16855 0.84698 0.0
C424 C 0.07563 0.13387 0.85499 0.0
C425 C 0.10924 0.13937 0.83159 0.0
C426 C 0.10687 0.17301 0.81279 0.0
C427 C 0.05182 0.09993 0.84297 0.0
C428 C 0.08607 0.13439 0.89509 0.0
H429 H 0.23418 0.135 0.74482 0.0
H430 H 0.1728 0.25194 0.7059 0.0
H431 H 0.17219 0.25411 0.79459 0.0
H432 H 0.12527 0.25474 0.80763 0.0
H433 H 0.13865 0.27688 0.76663 0.0
H434 H 0.10776 0.19438 0.7158 0.0
H435 H 0.10338 0.24378 0.72238 0.0
H436 H 0.0773 0.21114 0.74855 0.0
H437 H 0.22299 0.02239 0.82405 0.0
H438 H 0.13095 0.00543 0.89565 0.0
H439 H 0.10536 0.06488 0.8799 0.0
H440 H 0.17659 0.05123 0.7618 0.0
H441 H 0.22529 0.06112 0.7583 0.0
H442 H 0.19045 0.09274 0.74138 0.0
H443 H 0.23461 0.11323 0.84268 0.0
H444 H 0.24375 0.13412 0.8013 0.0
H445 H 0.25718 0.08638 0.80866 0.0
H446 H 0.25778 0.16755 0.694 0.0
C447 C 0.2204 0.16031 0.73741 0.0
C448 C 0.30086 0.67198 0.19481 0.0
C449 C 0.31988 0.7012 0.17805 0.0
C450 C 0.35277 0.71515 0.19374 0.0
C451 C 0.34632 0.67188 0.24264 0.0
C452 C 0.31457 0.65771 0.22678 0.0
C453 C 0.29822 0.62581 0.2472 0.0
H454 H 0.30637 0.51171 0.38935 0.0
C455 C 0.35274 0.6511 0.27591 0.0
C456 C 0.32457 0.62411 0.27868 0.0
H457 H 0.23325 0.5029 0.2985 0.0
H458 H 0.2591 0.56 0.27425 0.0
H459 H 0.37444 0.52446 0.34705 0.0
H460 H 0.30396 0.60424 0.39881 0.0
H461 H 0.35008 0.61835 0.40675 0.0
H462 H 0.33464 0.57344 0.42232 0.0
H463 H 0.37801 0.53378 0.39381 0.0
H464 H 0.40431 0.55989 0.36164 0.0
C465 C 0.30036 0.59022 0.2237 0.0
C466 C 0.25836 0.63664 0.25863 0.0
C467 C 0.46504 0.68017 0.35435 0.0
C468 C 0.47808 0.66386 0.38591 0.0
C469 C 0.4564 0.63676 0.40304 0.0
C470 C 0.4227 0.62489 0.38834 0.0
C471 C 0.41066 0.64 0.35591 0.0
C472 C 0.43127 0.66764 0.33971 0.0
C473 C 0.41395 0.67994 0.30514 0.0
C474 C 0.38021 0.65443 0.30301 0.0
C475 C 0.37861 0.63115 0.33282 0.0
C476 C 0.44195 0.67208 0.27482 0.0
C477 C 0.40271 0.72138 0.30905 0.0
C478 C 0.2953 0.52281 0.36471 0.0
C479 C 0.26744 0.5037 0.34596 0.0
C480 C 0.25442 0.5178 0.31341 0.0
C481 C 0.26974 0.5506 0.29936 0.0
C482 C 0.29886 0.56868 0.31778 0.0
C483 C 0.31095 0.55475 0.35 0.0
C484 C 0.34422 0.57516 0.36442 0.0
C485 C 0.3503 0.60378 0.33553 0.0
C486 C 0.32351 0.60015 0.30852 0.0
C487 C 0.37702 0.5471 0.36721 0.0
C488 C 0.33302 0.59367 0.40009 0.0
H489 H 0.39102 0.71267 0.23673 0.0
H490 H 0.27558 0.66055 0.18343 0.0
H491 H 0.25774 0.66576 0.26889 0.0
H492 H 0.24763 0.61917 0.28038 0.0
H493 H 0.23874 0.63483 0.23579 0.0
H494 H 0.32307 0.59215 0.20379 0.0
H495 H 0.27399 0.58555 0.20887 0.0
H496 H 0.30712 0.56497 0.23924 0.0
H497 H 0.48138 0.70106 0.34077 0.0
H498 H 0.46601 0.62425 0.4276 0.0
H499 H 0.4078 0.60376 0.40243 0.0
H500 H 0.45778 0.646 0.28 0.0
H501 H 0.46237 0.69514 0.27234 0.0
H502 H 0.42834 0.66742 0.24882 0.0
H503 H 0.39158 0.72705 0.3361 0.0
H504 H 0.38021 0.72962 0.29065 0.0
H505 H 0.427 0.73999 0.30502 0.0
H506 H 0.36853 0.73695 0.18087 0.0
C507 C 0.36593 0.70083 0.22606 0.0
C508 C 0.79208 0.96215 0.8421 0.0
C509 C 0.79877 0.97371 0.87726 0.0
C510 C 0.82072 0.95135 0.89973 0.0
C511 C 0.833 0.90909 0.8509 0.0
C512 C 0.80918 0.92953 0.8296 0.0
C513 C 0.80559 0.91309 0.79287 0.0
H514 H 0.86554 0.78877 0.67021 0.0
C515 C 0.84974 0.87944 0.82887 0.0
C516 C 0.83352 0.88134 0.79493 0.0
H517 H 0.7701 0.86193 0.6641 0.0
H518 H 0.78451 0.8866 0.72208 0.0
H519 H 0.92157 0.84608 0.71004 0.0
H520 H 0.84759 0.76116 0.74866 0.0
H521 H 0.89012 0.75707 0.77162 0.0
H522 H 0.88907 0.75088 0.72411 0.0
H523 H 0.9329 0.79748 0.70723 0.0
H524 H 0.94391 0.82488 0.74627 0.0
C525 C 0.81737 0.94293 0.76553 0.0
C526 C 0.76516 0.89875 0.78791 0.0
C527 C 0.95901 0.80573 0.87746 0.0
C528 C 0.98478 0.78162 0.86147 0.0
C529 C 0.97962 0.77089 0.82577 0.0
C530 C 0.94925 0.78438 0.80609 0.0
C531 C 0.92423 0.80941 0.82215 0.0
C532 C 0.92933 0.81956 0.85732 0.0
C533 C 0.90208 0.84878 0.86921 0.0
C534 C 0.87947 0.85429 0.83548 0.0
C535 C 0.89241 0.83101 0.8081 0.0
C536 C 0.92443 0.88418 0.87969 0.0
C537 C 0.87828 0.83226 0.89955 0.0
C538 C 0.84786 0.8103 0.68123 0.0
C539 C 0.81707 0.82388 0.66201 0.0
C540 C 0.79473 0.85179 0.67758 0.0
C541 C 0.80267 0.86562 0.71165 0.0
C542 C 0.83287 0.85099 0.73079 0.0
C543 C 0.85483 0.82372 0.71561 0.0
C544 C 0.88417 0.80968 0.74087 0.0
C545 C 0.87537 0.83223 0.774 0.0
C546 C 0.84579 0.85689 0.76766 0.0
C547 C 0.92277 0.81967 0.72543 0.0
C548 C 0.8778 0.76743 0.74663 0.0
H549 H 0.85518 0.90383 0.90485 0.0
H550 H 0.77483 0.97872 0.82457 0.0
H551 H 0.75101 0.8944 0.81382 0.0
H552 H 0.76414 0.87114 0.77465 0.0
H553 H 0.74804 0.91879 0.77246 0.0
H554 H 0.84383 0.95647 0.77396 0.0
H555 H 0.79585 0.96498 0.7631 0.0
H556 H 0.82248 0.93126 0.73882 0.0
H557 H 0.96308 0.81532 0.90456 0.0
H558 H -0.00046 0.75268 0.81294 0.0
H559 H 0.94694 0.77552 0.77889 0.0
H560 H 0.94862 0.88808 0.86174 0.0
H561 H 0.93533 0.8821 0.9073 0.0
H562 H 0.90833 0.91016 0.87721 0.0
H563 H 0.87357 0.8019 0.89541 0.0
H564 H 0.8501 0.84449 0.90074 0.0
H565 H 0.89222 0.83586 0.92575 0.0
H566 H 0.82613 0.95991 0.92693 0.0
C567 C 0.83785 0.91908 0.88676 0.0
C568 C 0.19199 0.92136 0.09884 0.0
C569 C 0.21441 0.91777 0.0685 0.0
C570 C 0.18929 0.95543 0.11696 0.0
C571 C 0.20822 0.98712 0.10475 0.0
H572 H 0.17485 0.89826 0.10741 0.0
H573 H 0.17005 0.95771 0.13896 0.0
S574 S 0.27242 0.99162 0.02823 0.0
N575 N 0.25807 0.94788 0.02872 0.0
N576 N 0.25197 0.01234 0.06222 0.0
C577 C 0.23235 0.98336 0.07576 0.0
C578 C 0.23575 0.94848 0.05777 0.0
C579 C 0.57397 0.75722 0.58088 0.0
C580 C 0.60283 0.73353 0.59219 0.0
C581 C 0.5404 0.75899 0.59959 0.0
C582 C 0.53529 0.73795 0.63058 0.0
H583 H 0.5758 0.7714 0.55556 0.0
H584 H 0.5174 0.77455 0.58834 0.0
S585 S 0.60453 0.67688 0.67429 0.0
N586 N 0.62579 0.69229 0.63839 0.0
N587 N 0.563 0.69655 0.67413 0.0
C588 C 0.56529 0.71742 0.64415 0.0
C589 C 0.59911 0.71502 0.62479 0.0
C590 C 0.75575 0.06821 0.08227 0.0
C591 C 0.78668 0.09222 0.08138 0.0
C592 C 0.75694 0.03503 0.10194 0.0
C593 C 0.78899 0.02525 0.12126 0.0
H594 H 0.73178 0.07353 0.06549 0.0
H595 H 0.73386 0.01572 0.0999 0.0
S596 S 0.87397 0.08245 0.13325 0.0
N597 N 0.84776 0.10672 0.1056 0.0
N598 N 0.8498 0.04467 0.14277 0.0
C599 C 0.81846 0.05084 0.12332 0.0
C600 C 0.81735 0.08431 0.10328 0.0
C601 C 0.43808 0.32971 0.55928 0.0
C602 C 0.42181 0.29559 0.54919 0.0
C603 C 0.47068 0.33091 0.57951 0.0
C604 C 0.48865 0.29807 0.59034 0.0
H605 H 0.42574 0.3559 0.55128 0.0
H606 H 0.48207 0.35793 0.58653 0.0
S607 S 0.45782 0.20145 0.57124 0.0
N608 N 0.426 0.22792 0.55209 0.0
N609 N 0.48789 0.23037 0.58994 0.0
C610 C 0.47248 0.26368 0.58119 0.0
C611 C 0.43896 0.2624 0.56062 0.0
C612 C 0.70041 0.53555 0.45916 0.0
C613 C 0.70282 0.57065 0.44295 0.0
C614 C 0.69021 0.50396 0.43956 0.0
C615 C 0.68149 0.50643 0.40314 0.0
H616 H 0.70509 0.53278 0.48752 0.0
H617 H 0.68777 0.47761 0.45333 0.0
S618 S 0.68431 0.59214 0.34834 0.0
N619 N 0.69712 0.60619 0.38845 0.0
N620 N 0.677 0.5468 0.35146 0.0
C621 C 0.68536 0.54117 0.38629 0.0
C622 C 0.69622 0.57334 0.40628 0.0
C623 C 0.90598 0.19155 0.88482 0.0
C624 C 0.90121 0.22003 0.91007 0.0
C625 C 0.93711 0.19096 0.86278 0.0
C626 C 0.96478 0.21852 0.86567 0.0
H627 H 0.88669 0.16835 0.88362 0.0
H628 H 0.94101 0.16726 0.84524 0.0
S629 S 0.96338 0.3009 0.92526 0.0
N630 N 0.9246 0.27829 0.93454 0.0
N631 N 0.98389 0.27671 0.89344 0.0
C632 C 0.95885 0.24876 0.88874 0.0
C633 C 0.9268 0.24959 0.91098 0.0
C634 C 0.23718 0.43083 0.41046 0.0
C635 C 0.25988 0.40074 0.40024 0.0
C636 C 0.23607 0.46354 0.39022 0.0
C637 C 0.25681 0.46657 0.35882 0.0
H638 H 0.22343 0.43071 0.43603 0.0
H639 H 0.22163 0.48765 0.40075 0.0
S640 S 0.31474 0.39322 0.3174 0.0
N641 N 0.29932 0.37415 0.35442 0.0
N642 N 0.29643 0.43541 0.31598 0.0
C643 C 0.27603 0.43521 0.3463 0.0
C644 C 0.27773 0.40223 0.36715 0.0
C645 C 0.08556 0.78414 0.88939 0.0
C646 C 0.08435 0.76968 0.924 0.0
C647 C 0.05358 0.78487 0.86795 0.0
C648 C 0.01928 0.77206 0.88091 0.0
H649 H 0.11086 0.79682 0.8796 0.0
H650 H 0.05511 0.79805 0.84213 0.0
S651 S 0.0023 0.72973 0.96907 0.0
N652 N 0.04704 0.74021 0.96953 0.0
N653 N 0.98655 0.7424 0.92958 0.0
C654 C 0.01822 0.75584 0.91482 0.0
C655 C 0.05093 0.75447 0.93634 0.0
C656 C 0.76167 0.04945 0.93749 0.0
C657 C 0.7802 0.0811 0.92457 0.0
C658 C 0.76554 0.01477 0.92053 0.0
C659 C 0.78727 0.01102 0.88973 0.0
H660 H 0.74678 0.0508 0.96244 0.0
H661 H 0.75323 0.99038 0.93263 0.0
S662 S 0.83754 0.08651 0.84321 0.0
N663 N 0.81834 0.10729 0.87782 0.0
N664 N 0.82471 0.04236 0.84533 0.0
C665 C 0.80329 0.0431 0.875 0.0
C666 C 0.79997 0.07814 0.89261 0.0
C667 C 0.39092 0.27743 0.36484 0.0
C668 C 0.39034 0.25945 0.39798 0.0
C669 C 0.42302 0.27719 0.34394 0.0
C670 C 0.45551 0.25947 0.35593 0.0
H671 H 0.36765 0.29459 0.35661 0.0
H672 H 0.42362 0.29413 0.32015 0.0
S673 S 0.46684 0.20469 0.43839 0.0
N674 N 0.42347 0.21977 0.43969 0.0
N675 N 0.48422 0.22031 0.40068 0.0
C676 C 0.45418 0.23848 0.38723 0.0
C677 C 0.42132 0.23812 0.4082 0.0
C678 C 0.17466 0.90915 0.88708 0.0
C679 C 0.20484 0.90637 0.91077 0.0
C680 C 0.16863 0.94162 0.86756 0.0
C681 C 0.1925 0.97238 0.87126 0.0
H682 H 0.15395 0.88723 0.88574 0.0
H683 H 0.14345 0.94387 0.85179 0.0
S684 S 0.27848 0.97705 0.92556 0.0
N685 N 0.26146 0.93512 0.93341 0.0
N686 N 0.24978 0.99662 0.89673 0.0
C687 C 0.22486 0.96858 0.8919 0.0
C688 C 0.23115 0.93532 0.91172 0.0
C689 C 0.55522 0.71478 0.43488 0.0
C690 C 0.58146 0.68617 0.43997 0.0
C691 C 0.52236 0.70819 0.41546 0.0
C692 C 0.5151 0.67293 0.40057 0.0
H693 H 0.55911 0.74166 0.44757 0.0
H694 H 0.50174 0.73011 0.41363 0.0
S695 S 0.57786 0.59106 0.40096 0.0
N696 N 0.60011 0.62295 0.4246 0.0
N697 N 0.53844 0.61072 0.3884 0.0
C698 C 0.54228 0.64508 0.40335 0.0
C699 C 0.5755 0.65168 0.42299 0.0
C700 C 0.27331 0.44972 0.55788 0.0
C701 C 0.30272 0.42435 0.55301 0.0
C702 C 0.27933 0.48411 0.57511 0.0
C703 C 0.31486 0.49379 0.58791 0.0
H704 H 0.24616 0.44396 0.54654 0.0
H705 H 0.25668 0.50391 0.57683 0.0
S706 S 0.39913 0.43445 0.58722 0.0
N707 N 0.36723 0.40941 0.56637 0.0
N708 N 0.37836 0.47373 0.59857 0.0
C709 C 0.3436 0.46753 0.58546 0.0
C710 C 0.33757 0.43284 0.56804 0.0
C711 C 0.06383 0.75276 0.07462 0.0
C712 C 0.09266 0.77834 0.08145 0.0
C713 C 0.02907 0.75698 0.09098 0.0
C714 C 0.02271 0.7865 0.1148 0.0
H715 H 0.06675 0.73208 0.05375 0.0
H716 H 0.00625 0.73927 0.08255 0.0
S717 S 0.09121 0.85641 0.14606 0.0
N718 N 0.11419 0.83075 0.11698 0.0
N719 N 0.04905 0.83828 0.14807 0.0
C720 C 0.05252 0.8095 0.12471 0.0
C721 C 0.08761 0.80544 0.10795 0.0
C722 C 0.72466 0.58184 0.6161 0.0
C723 C 0.74202 0.58914 0.5834 0.0
C724 C 0.72285 0.54554 0.62953 0.0
C725 C 0.738 0.51548 0.61044 0.0
H726 H 0.70957 0.6037 0.62979 0.0
H727 H 0.70638 0.54052 0.65309 0.0
S728 S 0.79236 0.52034 0.52735 0.0
N729 N 0.77983 0.56382 0.53532 0.0
N730 N 0.7755 0.4956 0.56049 0.0
C731 C 0.75889 0.52286 0.57996 0.0
C732 C 0.76128 0.55981 0.5665 0.0
C733 C 0.91105 0.2073 0.10335 0.0
C734 C 0.91148 0.22467 0.06996 0.0
C735 C 0.94271 0.20731 0.12515 0.0
C736 C 0.97599 0.22383 0.11374 0.0
H737 H 0.88664 0.19213 0.11191 0.0
H738 H 0.94192 0.19206 0.14994 0.0
S739 S 0.99082 0.27418 0.02919 0.0
N740 N 0.94696 0.26057 0.0273 0.0
N741 N 0.00706 0.25949 0.06786 0.0
C742 C 0.97628 0.24265 0.08109 0.0
C743 C 0.94378 0.24337 0.05926 0.0
C744 C 0.27465 0.70675 0.08683 0.0
C745 C 0.27125 0.74529 0.08135 0.0
C746 C 0.29151 0.6928 0.11764 0.0
C747 C 0.30503 0.71687 0.1444 0.0
H748 H 0.2641 0.68721 0.0672 0.0
H749 H 0.29365 0.66286 0.12068 0.0
S750 S 0.301 0.82023 0.14349 0.0
N751 N 0.28228 0.80743 0.1052 0.0
N752 N 0.3128 0.78121 0.16373 0.0
C753 C 0.30192 0.75554 0.13913 0.0
C754 C 0.28527 0.76974 0.10748 0.0
C755 C 0.79244 0.74879 0.59467 0.0
C756 C 0.77593 0.76894 0.56678 0.0
C757 C 0.80683 0.76694 0.62469 0.0
C758 C 0.80586 0.80605 0.62781 0.0
H759 H 0.79245 0.7186 0.59428 0.0
H760 H 0.8172 0.74995 0.6463 0.0
S761 S 0.77102 0.8718 0.55933 0.0
N762 N 0.76249 0.8301 0.54243 0.0
N763 N 0.79113 0.8645 0.59826 0.0
C764 C 0.79155 0.82665 0.59902 0.0
C765 C 0.77623 0.80804 0.56867 0.0
C766 C 0.75655 0.28303 0.10615 0.0
C767 C 0.73424 0.26786 0.07893 0.0
C768 C 0.74065 0.30097 0.13543 0.0
C769 C 0.70188 0.30485 0.1383 0.0
H770 H 0.78653 0.28014 0.10531 0.0
H771 H 0.75885 0.31094 0.15643 0.0
S772 S 0.63164 0.27407 0.07177 0.0
N773 N 0.67175 0.26003 0.05526 0.0
N774 N 0.64175 0.29504 0.10975 0.0
C775 C 0.67933 0.29109 0.1105 0.0
C776 C 0.69554 0.27225 0.08096 0.0
C777 C 0.21401 0.25398 0.6037 0.0
C778 C 0.25175 0.25678 0.5948 0.0
C779 C 0.20322 0.24064 0.637 0.0
C780 C 0.22984 0.23027 0.66273 0.0
H781 H 0.1927 0.26085 0.58436 0.0
H782 H 0.17381 0.23723 0.64213 0.0
S783 S 0.33227 0.23793 0.65395 0.0
N784 N 0.3158 0.25137 0.61501 0.0
N785 N 0.29555 0.22762 0.67821 0.0
C786 C 0.2677 0.23484 0.65468 0.0
C787 C 0.27865 0.2478 0.62056 0.0
C788 C 0.75551 0.71918 0.37298 0.0
C789 C 0.7463 0.7457 0.399 0.0
C790 C 0.76814 0.7302 0.33955 0.0
C791 C 0.77273 0.76813 0.33126 0.0
H792 H 0.75284 0.68967 0.37849 0.0
H793 H 0.77473 0.70881 0.32018 0.0
S794 S 0.75375 0.84823 0.39138 0.0
N795 N 0.74233 0.81118 0.41483 0.0
N796 N 0.76795 0.83221 0.35254 0.0
C797 C 0.76341 0.79495 0.35721 0.0
C798 C 0.74976 0.78363 0.391 0.0
C799 C 0.72294 0.29434 0.90886 0.0
C800 C 0.7268 0.25555 0.91196 0.0
C801 C 0.70979 0.31033 0.87741 0.0
C802 C 0.70057 0.28813 0.84774 0.0
H803 H 0.73095 0.31255 0.93064 0.0
H804 H 0.70794 0.34042 0.87591 0.0
S805 S 0.70528 0.18497 0.84255 0.0
N806 N 0.71919 0.1951 0.88335 0.0
N807 N 0.69547 0.22529 0.82369 0.0
C808 C 0.703 0.24918 0.85092 0.0
C809 C 0.71594 0.23285 0.88318 0.0
C810 C 0.20066 0.24842 0.39991 0.0
C811 C 0.21713 0.22868 0.42806 0.0
C812 C 0.18572 0.22976 0.37043 0.0
C813 C 0.18609 0.19057 0.36818 0.0
H814 H 0.2013 0.27861 0.39957 0.0
H815 H 0.17555 0.24638 0.34846 0.0
S816 S 0.22017 0.12597 0.43794 0.0
N817 N 0.22955 0.16793 0.45381 0.0
N818 N 0.1999 0.13263 0.39898 0.0
C819 C 0.20012 0.17045 0.39737 0.0
C820 C 0.21597 0.18955 0.42716 0.0
C821 C 0.26012 0.69823 0.90425 0.0
C822 C 0.25873 0.73706 0.90928 0.0
C823 C 0.2729 0.68288 0.87221 0.0
C824 C 0.28421 0.70591 0.84406 0.0
H825 H 0.25161 0.67963 0.92533 0.0
H826 H 0.27434 0.65284 0.86959 0.0
S827 S 0.28121 0.8093 0.8424 0.0
N828 N 0.26715 0.79814 0.88268 0.0
N829 N 0.29003 0.76937 0.82221 0.0
C830 C 0.28182 0.74477 0.84845 0.0
C831 C 0.26937 0.76033 0.88113 0.0
loop_
_geom_bond_atom_site_label_1
_geom_bond_atom_site_label_2
_geom_bond_distance
_geom_bond_site_symmetry_2
_ccdc_geom_bond_type
Sc0 O3 2.025 . S
Sc0 O10 2.105 1_554 S
Sc0 O13 2.105 . S
Sc0 O16 2.105 . S
Sc0 O19 2.105 1_554 S
Sc1 O3 2.025 . S
Sc1 O11 2.105 1_554 S
Sc1 O15 2.105 . S
Sc1 O17 2.105 . S
Sc1 O21 2.105 1_554 S
Sc2 O3 2.025 . S
Sc2 O12 2.105 1_554 S
Sc2 O14 2.105 . S
Sc2 O18 2.105 . S
Sc2 O20 2.105 1_554 S
O3 Sc0 2.025 . S
O3 Sc1 2.025 . S
O3 Sc2 2.025 . S
C4 O10 1.268 . S
C4 O20 1.268 . S
C5 O11 1.268 . S
C5 O19 1.268 . S
C6 O12 1.268 . S
C6 O21 1.268 . S
C7 O13 1.268 . S
C7 O17 1.268 . S
C8 O14 1.268 . S
C8 O16 1.268 . S
C9 O15 1.268 . S
C9 O18 1.268 . S
O10 Sc0 2.105 1_556 S
O10 C4 1.268 . S
O11 Sc1 2.105 1_556 S
O11 C5 1.268 . S
O12 Sc2 2.105 1_556 S
O12 C6 1.268 . S
O13 Sc0 2.105 . S
O13 C7 1.268 . S
O14 Sc2 2.105 . S
O14 C8 1.268 . S
O15 Sc1 2.105 . S
O15 C9 1.268 . S
O16 Sc0 2.105 . S
O16 C8 1.268 . S
O17 Sc1 2.105 . S
O17 C7 1.268 . S
O18 Sc2 2.105 . S
O18 C9 1.268 . S
O19 Sc0 2.105 1_556 S
O19 C5 1.268 . S
O20 Sc2 2.105 1_556 S
O20 C4 1.268 . S
O21 Sc1 2.105 1_556 S
O21 C6 1.268 . S
Sc22 O25 2.025 . S
Sc22 O32 2.105 . S
Sc22 O35 2.105 . S
Sc22 O38 2.105 . S
Sc22 O41 2.105 . S
Sc23 O25 2.025 . S
Sc23 O33 2.105 . S
Sc23 O37 2.105 . S
Sc23 O39 2.105 . S
Sc23 O43 2.105 . S
Sc24 O25 2.025 . S
Sc24 O34 2.105 . S
Sc24 O36 2.105 . S
Sc24 O40 2.105 . S
Sc24 O42 2.105 . S
O25 Sc22 2.025 . S
O25 Sc23 2.025 . S
O25 Sc24 2.025 . S
C26 O32 1.268 . S
C26 O42 1.268 . S
C27 O33 1.268 . S
C27 O41 1.268 . S
C28 O34 1.268 . S
C28 O43 1.268 . S
C29 O35 1.268 . S
C29 O39 1.268 . S
C30 O36 1.268 . S
C30 O38 1.268 . S
C31 O37 1.268 . S
C31 O40 1.268 . S
O32 Sc22 2.105 . S
O32 C26 1.268 . S
O33 Sc23 2.105 . S
O33 C27 1.268 . S
O34 Sc24 2.105 . S
O34 C28 1.268 . S
O35 Sc22 2.105 . S
O35 C29 1.268 . S
O36 Sc24 2.105 . S
O36 C30 1.268 . S
O37 Sc23 2.105 . S
O37 C31 1.268 . S
O38 Sc22 2.105 . S
O38 C30 1.268 . S
O39 Sc23 2.105 . S
O39 C29 1.268 . S
O40 Sc24 2.105 . S
O40 C31 1.268 . S
O41 Sc22 2.105 . S
O41 C27 1.268 . S
O42 Sc24 2.105 . S
O42 C26 1.268 . S
O43 Sc23 2.105 . S
O43 C28 1.268 . S
Sc44 O47 2.025 . S
Sc44 O54 2.105 1_554 S
Sc44 O57 2.105 . S
Sc44 O60 2.105 . S
Sc44 O63 2.105 1_554 S
Sc45 O47 2.025 . S
Sc45 O55 2.105 1_554 S
Sc45 O59 2.105 . S
Sc45 O61 2.105 . S
Sc45 O65 2.105 1_554 S
Sc46 O47 2.025 . S
Sc46 O56 2.105 1_554 S
Sc46 O58 2.105 . S
Sc46 O62 2.105 . S
Sc46 O64 2.105 1_554 S
O47 Sc44 2.025 . S
O47 Sc45 2.025 . S
O47 Sc46 2.025 . S
C48 O54 1.268 . S
C48 O64 1.268 . S
C49 O55 1.268 . S
C49 O63 1.268 . S
C50 O56 1.268 . S
C50 O65 1.268 . S
C51 O57 1.268 . S
C51 O61 1.268 . S
C52 O58 1.268 . S
C52 O60 1.268 . S
C53 O59 1.268 . S
C53 O62 1.268 . S
O54 Sc44 2.105 1_556 S
O54 C48 1.268 . S
O55 Sc45 2.105 1_556 S
O55 C49 1.268 . S
O56 Sc46 2.105 1_556 S
O56 C50 1.268 . S
O57 Sc44 2.105 . S
O57 C51 1.268 . S
O58 Sc46 2.105 . S
O58 C52 1.268 . S
O59 Sc45 2.105 . S
O59 C53 1.268 . S
O60 Sc44 2.105 . S
O60 C52 1.268 . S
O61 Sc45 2.105 . S
O61 C51 1.268 . S
O62 Sc46 2.105 . S
O62 C53 1.268 . S
O63 Sc44 2.105 1_556 S
O63 C49 1.268 . S
O64 Sc46 2.105 1_556 S
O64 C48 1.268 . S
O65 Sc45 2.105 1_556 S
O65 C50 1.268 . S
Sc66 O69 2.025 . S
Sc66 O76 2.105 . S
Sc66 O79 2.105 . S
Sc66 O82 2.105 . S
Sc66 O85 2.105 . S
Sc67 O69 2.025 . S
Sc67 O77 2.105 . S
Sc67 O81 2.105 . S
Sc67 O83 2.105 . S
Sc67 O87 2.105 . S
Sc68 O69 2.025 . S
Sc68 O78 2.105 . S
Sc68 O80 2.105 . S
Sc68 O84 2.105 . S
Sc68 O86 2.105 . S
O69 Sc66 2.025 . S
O69 Sc67 2.025 . S
O69 Sc68 2.025 . S
C70 O76 1.268 . S
C70 O86 1.268 . S
C71 O77 1.268 . S
C71 O85 1.268 . S
C72 O78 1.268 . S
C72 O87 1.268 . S
C73 O79 1.268 . S
C73 O83 1.268 . S
C74 O80 1.268 . S
C74 O82 1.268 . S
C75 O81 1.268 . S
C75 O84 1.268 . S
O76 Sc66 2.105 . S
O76 C70 1.268 . S
O77 Sc67 2.105 . S
O77 C71 1.268 . S
O78 Sc68 2.105 . S
O78 C72 1.268 . S
O79 Sc66 2.105 . S
O79 C73 1.268 . S
O80 Sc68 2.105 . S
O80 C74 1.268 . S
O81 Sc67 2.105 . S
O81 C75 1.268 . S
O82 Sc66 2.105 . S
O82 C74 1.268 . S
O83 Sc67 2.105 . S
O83 C73 1.268 . S
O84 Sc68 2.105 . S
O84 C75 1.268 . S
O85 Sc66 2.105 . S
O85 C71 1.268 . S
O86 Sc68 2.105 . S
O86 C70 1.268 . S
O87 Sc67 2.105 . S
O87 C72 1.268 . S
C88 C89 1.391 . S
C88 C92 1.391 . S
C88 H130 0.948 . S
C89 C88 1.391 . S
C89 C90 1.391 . S
C90 C89 1.391 . S
C90 H146 0.947 . S
C90 C147 1.392 . S
C91 C92 1.391 . S
C91 C95 1.397 . S
C91 C147 1.419 . S
C92 C88 1.391 . S
C92 C91 1.391 . S
C92 C93 1.399 . S
C93 C92 1.399 . S
C93 C96 1.396 . S
C93 C105 1.453 . S
C93 C106 1.684 . S
H94 C118 0.948 . S
C95 C91 1.397 . S
C95 C96 1.394 . S
C95 C114 1.723 . S
C96 C93 1.396 . S
C96 C95 1.394 . S
C96 C126 1.723 . S
H97 C120 0.947 . S
H98 C121 0.948 . S
H99 C127 0.982 . S
H100 C128 0.979 . S
H101 C128 0.980 . S
H102 C128 0.983 . S
H103 C127 0.979 . S
H104 C127 0.977 . S
C105 C93 1.453 . S
C105 H134 0.982 . S
C105 H135 0.979 . S
C105 H136 0.977 . S
C106 C93 1.684 . S
C106 H131 0.979 . S
C106 H132 0.980 . S
C106 H133 0.983 . S
C107 C108 1.391 . S
C107 C112 1.391 . S
C107 H137 0.948 . S
C108 C107 1.391 . S
C108 C109 1.391 . S
C109 C108 1.391 . S
C109 C110 1.392 . S
C109 H138 0.947 . S
C110 C109 1.392 . S
C110 C111 1.419 . S
C110 H139 0.948 . S
C111 C110 1.419 . S
C111 C112 1.391 . S
C111 C115 1.397 . S
C112 C107 1.391 . S
C112 C111 1.391 . S
C112 C113 1.399 . S
C113 C112 1.399 . S
C113 C114 1.396 . S
C113 C116 1.453 . S
C113 C117 1.684 . S
C114 C95 1.723 . S
C114 C113 1.396 . S
C114 C115 1.394 . S
C115 C111 1.397 . S
C115 C114 1.394 . S
C115 C125 1.723 . S
C116 C113 1.453 . S
C116 H140 0.982 . S
C116 H141 0.979 . S
C116 H142 0.977 . S
C117 C113 1.684 . S
C117 H143 0.979 . S
C117 H144 0.980 . S
C117 H145 0.983 . S
C118 H94 0.948 . S
C118 C119 1.391 . S
C118 C123 1.391 . S
C119 C118 1.391 . S
C119 C120 1.391 . S
C120 H97 0.947 . S
C120 C119 1.391 . S
C120 C121 1.392 . S
C121 H98 0.948 . S
C121 C120 1.392 . S
C121 C122 1.419 . S
C122 C121 1.419 . S
C122 C123 1.391 . S
C122 C126 1.397 . S
C123 C118 1.391 . S
C123 C122 1.391 . S
C123 C124 1.399 . S
C124 C123 1.399 . S
C124 C125 1.396 . S
C124 C127 1.453 . S
C124 C128 1.684 . S
C125 C115 1.723 . S
C125 C124 1.396 . S
C125 C126 1.394 . S
C126 C96 1.723 . S
C126 C122 1.397 . S
C126 C125 1.394 . S
C127 H99 0.982 . S
C127 H103 0.979 . S
C127 H104 0.977 . S
C127 C124 1.453 . S
C128 H100 0.979 . S
C128 H101 0.980 . S
C128 H102 0.983 . S
C128 C124 1.684 . S
H129 C147 0.948 . S
H130 C88 0.948 . S
H131 C106 0.979 . S
H132 C106 0.980 . S
H133 C106 0.983 . S
H134 C105 0.982 . S
H135 C105 0.979 . S
H136 C105 0.977 . S
H137 C107 0.948 . S
H138 C109 0.947 . S
H139 C110 0.948 . S
H140 C116 0.982 . S
H141 C116 0.979 . S
H142 C116 0.977 . S
H143 C117 0.979 . S
H144 C117 0.980 . S
H145 C117 0.983 . S
H146 C90 0.947 . S
C147 C90 1.392 . S
C147 C91 1.419 . S
C147 H129 0.948 . S
C148 C149 1.391 . S
C148 C152 1.391 . S
C148 H190 0.948 . S
C149 C148 1.391 . S
C149 C150 1.391 . S
C150 C149 1.391 . S
C150 H206 0.947 . S
C150 C207 1.392 . S
C151 C152 1.391 . S
C151 C155 1.397 . S
C151 C207 1.419 . S
C152 C148 1.391 . S
C152 C151 1.391 . S
C152 C153 1.399 . S
C153 C152 1.399 . S
C153 C156 1.396 . S
C153 C165 1.453 . S
C153 C166 1.684 . S
H154 C178 0.948 . S
C155 C151 1.397 . S
C155 C156 1.394 . S
C155 C174 1.723 . S
C156 C153 1.396 . S
C156 C155 1.394 . S
C156 C186 1.723 . S
H157 C180 0.947 . S
H158 C181 0.948 . S
H159 C187 0.982 . S
H160 C188 0.979 . S
H161 C188 0.980 . S
H162 C188 0.983 . S
H163 C187 0.979 . S
H164 C187 0.977 . S
C165 C153 1.453 . S
C165 H194 0.982 . S
C165 H195 0.979 . S
C165 H196 0.977 . S
C166 C153 1.684 . S
C166 H191 0.979 . S
C166 H192 0.980 . S
C166 H193 0.983 . S
C167 C168 1.391 . S
C167 C172 1.391 . S
C167 H197 0.948 . S
C168 C167 1.391 . S
C168 C169 1.391 . S
C169 C168 1.391 . S
C169 C170 1.392 . S
C169 H198 0.947 . S
C170 C169 1.392 . S
C170 C171 1.419 . S
C170 H199 0.948 . S
C171 C170 1.419 . S
C171 C172 1.391 . S
C171 C175 1.397 . S
C172 C167 1.391 . S
C172 C171 1.391 . S
C172 C173 1.399 . S
C173 C172 1.399 . S
C173 C174 1.396 . S
C173 C176 1.453 . S
C173 C177 1.684 . S
C174 C155 1.723 . S
C174 C173 1.396 . S
C174 C175 1.394 . S
C175 C171 1.397 . S
C175 C174 1.394 . S
C175 C185 1.723 . S
C176 C173 1.453 . S
C176 H200 0.982 . S
C176 H201 0.979 . S
C176 H202 0.977 . S
C177 C173 1.684 . S
C177 H203 0.979 . S
C177 H204 0.980 . S
C177 H205 0.983 . S
C178 H154 0.948 . S
C178 C179 1.391 . S
C178 C183 1.391 . S
C179 C178 1.391 . S
C179 C180 1.391 . S
C180 H157 0.947 . S
C180 C179 1.391 . S
C180 C181 1.392 . S
C181 H158 0.948 . S
C181 C180 1.392 . S
C181 C182 1.419 . S
C182 C181 1.419 . S
C182 C183 1.391 . S
C182 C186 1.397 . S
C183 C178 1.391 . S
C183 C182 1.391 . S
C183 C184 1.399 . S
C184 C183 1.399 . S
C184 C185 1.396 . S
C184 C187 1.453 . S
C184 C188 1.684 . S
C185 C175 1.723 . S
C185 C184 1.396 . S
C185 C186 1.394 . S
C186 C156 1.723 . S
C186 C182 1.397 . S
C186 C185 1.394 . S
C187 H159 0.982 . S
C187 H163 0.979 . S
C187 H164 0.977 . S
C187 C184 1.453 . S
C188 H160 0.979 . S
C188 H161 0.980 . S
C188 H162 0.983 . S
C188 C184 1.684 . S
H189 C207 0.948 . S
H190 C148 0.948 . S
H191 C166 0.979 . S
H192 C166 0.980 . S
H193 C166 0.983 . S
H194 C165 0.982 . S
H195 C165 0.979 . S
H196 C165 0.977 . S
H197 C167 0.948 . S
H198 C169 0.947 . S
H199 C170 0.948 . S
H200 C176 0.982 . S
H201 C176 0.979 . S
H202 C176 0.977 . S
H203 C177 0.979 . S
H204 C177 0.980 . S
H205 C177 0.983 . S
H206 C150 0.947 . S
C207 C150 1.392 . S
C207 C151 1.419 . S
C207 H189 0.948 . S
C208 C209 1.391 . S
C208 C212 1.391 . S
C208 H250 0.948 . S
C209 C208 1.391 . S
C209 C210 1.391 . S
C210 C209 1.391 . S
C210 H266 0.947 . S
C210 C267 1.392 . S
C211 C212 1.391 . S
C211 C215 1.397 . S
C211 C267 1.419 . S
C212 C208 1.391 . S
C212 C211 1.391 . S
C212 C213 1.399 . S
C213 C212 1.399 . S
C213 C216 1.396 . S
C213 C225 1.453 . S
C213 C226 1.684 . S
H214 C238 0.948 . S
C215 C211 1.397 . S
C215 C216 1.394 . S
C215 C234 1.723 . S
C216 C213 1.396 . S
C216 C215 1.394 . S
C216 C246 1.723 . S
H217 C240 0.947 . S
H218 C241 0.948 . S
H219 C247 0.982 . S
H220 C248 0.979 . S
H221 C248 0.980 . S
H222 C248 0.983 . S
H223 C247 0.979 . S
H224 C247 0.977 . S
C225 C213 1.453 . S
C225 H254 0.982 . S
C225 H255 0.979 . S
C225 H256 0.977 . S
C226 C213 1.684 . S
C226 H251 0.979 . S
C226 H252 0.980 . S
C226 H253 0.983 . S
C227 C228 1.391 . S
C227 C232 1.391 . S
C227 H257 0.948 . S
C228 C227 1.391 . S
C228 C229 1.391 . S
C229 C228 1.391 . S
C229 C230 1.392 . S
C229 H258 0.947 . S
C230 C229 1.392 . S
C230 C231 1.419 . S
C230 H259 0.948 . S
C231 C230 1.419 . S
C231 C232 1.391 . S
C231 C235 1.397 . S
C232 C227 1.391 . S
C232 C231 1.391 . S
C232 C233 1.399 . S
C233 C232 1.399 . S
C233 C234 1.396 . S
C233 C236 1.453 . S
C233 C237 1.684 . S
C234 C215 1.723 . S
C234 C233 1.396 . S
C234 C235 1.394 . S
C235 C231 1.397 . S
C235 C234 1.394 . S
C235 C245 1.723 . S
C236 C233 1.453 . S
C236 H260 0.982 . S
C236 H261 0.979 . S
C236 H262 0.977 . S
C237 C233 1.684 . S
C237 H263 0.979 . S
C237 H264 0.980 . S
C237 H265 0.983 . S
C238 H214 0.948 . S
C238 C239 1.391 . S
C238 C243 1.391 . S
C239 C238 1.391 . S
C239 C240 1.391 . S
C240 H217 0.947 . S
C240 C239 1.391 . S
C240 C241 1.392 . S
C241 H218 0.948 . S
C241 C240 1.392 . S
C241 C242 1.419 . S
C242 C241 1.419 . S
C242 C243 1.391 . S
C242 C246 1.397 . S
C243 C238 1.391 . S
C243 C242 1.391 . S
C243 C244 1.399 . S
C244 C243 1.399 . S
C244 C245 1.396 . S
C244 C247 1.453 . S
C244 C248 1.684 . S
C245 C235 1.723 . S
C245 C244 1.396 . S
C245 C246 1.394 . S
C246 C216 1.723 . S
C246 C242 1.397 . S
C246 C245 1.394 . S
C247 H219 0.982 . S
C247 H223 0.979 . S
C247 H224 0.977 . S
C247 C244 1.453 . S
C248 H220 0.979 . S
C248 H221 0.980 . S
C248 H222 0.983 . S
C248 C244 1.684 . S
H249 C267 0.948 . S
H250 C208 0.948 . S
H251 C226 0.979 . S
H252 C226 0.980 . S
H253 C226 0.983 . S
H254 C225 0.982 . S
H255 C225 0.979 . S
H256 C225 0.977 . S
H257 C227 0.948 . S
H258 C229 0.947 . S
H259 C230 0.948 . S
H260 C236 0.982 . S
H261 C236 0.979 . S
H262 C236 0.977 . S
H263 C237 0.979 . S
H264 C237 0.980 . S
H265 C237 0.983 . S
H266 C210 0.947 . S
C267 C210 1.392 . S
C267 C211 1.419 . S
C267 H249 0.948 . S
C268 C269 1.391 . S
C268 C272 1.391 . S
C268 H310 0.948 . S
C269 C268 1.391 . S
C269 C270 1.391 . S
C270 C269 1.391 . S
C270 H326 0.947 . S
C270 C327 1.392 . S
C271 C272 1.391 . S
C271 C275 1.397 . S
C271 C327 1.419 . S
C272 C268 1.391 . S
C272 C271 1.391 . S
C272 C273 1.399 . S
C273 C272 1.399 . S
C273 C276 1.396 . S
C273 C285 1.453 . S
C273 C286 1.684 . S
H274 C298 0.948 . S
C275 C271 1.397 . S
C275 C276 1.394 . S
C275 C294 1.723 . S
C276 C273 1.396 . S
C276 C275 1.394 . S
C276 C306 1.723 . S
H277 C300 0.947 . S
H278 C301 0.948 . S
H279 C307 0.982 . S
H280 C308 0.979 . S
H281 C308 0.980 . S
H282 C308 0.983 . S
H283 C307 0.979 . S
H284 C307 0.977 . S
C285 C273 1.453 . S
C285 H314 0.982 . S
C285 H315 0.979 . S
C285 H316 0.977 . S
C286 C273 1.684 . S
C286 H311 0.979 . S
C286 H312 0.980 . S
C286 H313 0.983 . S
C287 C288 1.391 . S
C287 C292 1.391 . S
C287 H317 0.948 . S
C288 C287 1.391 . S
C288 C289 1.391 . S
C289 C288 1.391 . S
C289 C290 1.392 . S
C289 H318 0.947 . S
C290 C289 1.392 . S
C290 C291 1.419 . S
C290 H319 0.948 . S
C291 C290 1.419 . S
C291 C292 1.391 . S
C291 C295 1.397 . S
C292 C287 1.391 . S
C292 C291 1.391 . S
C292 C293 1.399 . S
C293 C292 1.399 . S
C293 C294 1.396 . S
C293 C296 1.453 . S
C293 C297 1.684 . S
C294 C275 1.723 . S
C294 C293 1.396 . S
C294 C295 1.394 . S
C295 C291 1.397 . S
C295 C294 1.394 . S
C295 C305 1.723 . S
C296 C293 1.453 . S
C296 H320 0.982 . S
C296 H321 0.979 . S
C296 H322 0.977 . S
C297 C293 1.684 . S
C297 H323 0.979 . S
C297 H324 0.980 . S
C297 H325 0.983 . S
C298 H274 0.948 . S
C298 C299 1.391 . S
C298 C303 1.391 . S
C299 C298 1.391 . S
C299 C300 1.391 . S
C300 H277 0.947 . S
C300 C299 1.391 . S
C300 C301 1.392 . S
C301 H278 0.948 . S
C301 C300 1.392 . S
C301 C302 1.419 . S
C302 C301 1.419 . S
C302 C303 1.391 . S
C302 C306 1.397 . S
C303 C298 1.391 . S
C303 C302 1.391 . S
C303 C304 1.399 . S
C304 C303 1.399 . S
C304 C305 1.396 . S
C304 C307 1.453 . S
C304 C308 1.684 . S
C305 C295 1.723 . S
C305 C304 1.396 . S
C305 C306 1.394 . S
C306 C276 1.723 . S
C306 C302 1.397 . S
C306 C305 1.394 . S
C307 H279 0.982 . S
C307 H283 0.979 . S
C307 H284 0.977 . S
C307 C304 1.453 . S
C308 H280 0.979 . S
C308 H281 0.980 . S
C308 H282 0.983 . S
C308 C304 1.684 . S
H309 C327 0.948 . S
H310 C268 0.948 . S
H311 C286 0.979 . S
H312 C286 0.980 . S
H313 C286 0.983 . S
H314 C285 0.982 . S
H315 C285 0.979 . S
H316 C285 0.977 . S
H317 C287 0.948 . S
H318 C289 0.947 . S
H319 C290 0.948 . S
H320 C296 0.982 . S
H321 C296 0.979 . S
H322 C296 0.977 . S
H323 C297 0.979 . S
H324 C297 0.980 . S
H325 C297 0.983 . S
H326 C270 0.947 . S
C327 C270 1.392 . S
C327 C271 1.419 . S
C327 H309 0.948 . S
C328 C329 1.391 . S
C328 C332 1.391 . S
C328 H370 0.948 . S
C329 C328 1.391 . S
C329 C330 1.391 . S
C330 C329 1.391 . S
C330 H386 0.947 . S
C330 C387 1.392 . S
C331 C332 1.391 . S
C331 C335 1.397 . S
C331 C387 1.419 . S
C332 C328 1.391 . S
C332 C331 1.391 . S
C332 C333 1.399 . S
C333 C332 1.399 . S
C333 C336 1.396 . S
C333 C345 1.453 . S
C333 C346 1.684 . S
H334 C358 0.948 . S
C335 C331 1.397 . S
C335 C336 1.394 . S
C335 C354 1.723 . S
C336 C333 1.396 . S
C336 C335 1.394 . S
C336 C366 1.723 . S
H337 C360 0.947 . S
H338 C361 0.948 . S
H339 C367 0.982 . S
H340 C368 0.979 . S
H341 C368 0.980 . S
H342 C368 0.983 . S
H343 C367 0.979 . S
H344 C367 0.977 . S
C345 C333 1.453 . S
C345 H374 0.982 . S
C345 H375 0.979 . S
C345 H376 0.977 . S
C346 C333 1.684 . S
C346 H371 0.979 . S
C346 H372 0.980 . S
C346 H373 0.983 . S
C347 C348 1.391 . S
C347 C352 1.391 . S
C347 H377 0.948 . S
C348 C347 1.391 . S
C348 C349 1.391 . S
C349 C348 1.391 . S
C349 C350 1.392 . S
C349 H378 0.947 . S
C350 C349 1.392 . S
C350 C351 1.419 . S
C350 H379 0.948 . S
C351 C350 1.419 . S
C351 C352 1.391 . S
C351 C355 1.397 . S
C352 C347 1.391 . S
C352 C351 1.391 . S
C352 C353 1.399 . S
C353 C352 1.399 . S
C353 C354 1.396 . S
C353 C356 1.453 . S
C353 C357 1.684 . S
C354 C335 1.723 . S
C354 C353 1.396 . S
C354 C355 1.394 . S
C355 C351 1.397 . S
C355 C354 1.394 . S
C355 C365 1.723 . S
C356 C353 1.453 . S
C356 H380 0.982 . S
C356 H381 0.979 . S
C356 H382 0.977 . S
C357 C353 1.684 . S
C357 H383 0.979 . S
C357 H384 0.980 . S
C357 H385 0.983 . S
C358 H334 0.948 . S
C358 C359 1.391 . S
C358 C363 1.391 . S
C359 C358 1.391 . S
C359 C360 1.391 . S
C360 H337 0.947 . S
C360 C359 1.391 . S
C360 C361 1.392 . S
C361 H338 0.948 . S
C361 C360 1.392 . S
C361 C362 1.419 . S
C362 C361 1.419 . S
C362 C363 1.391 . S
C362 C366 1.397 . S
C363 C358 1.391 . S
C363 C362 1.391 . S
C363 C364 1.399 . S
C364 C363 1.399 . S
C364 C365 1.396 . S
C364 C367 1.453 . S
C364 C368 1.684 . S
C365 C355 1.723 . S
C365 C364 1.396 . S
C365 C366 1.394 . S
C366 C336 1.723 . S
C366 C362 1.397 . S
C366 C365 1.394 . S
C367 H339 0.982 . S
C367 H343 0.979 . S
C367 H344 0.977 . S
C367 C364 1.453 . S
C368 H340 0.979 . S
C368 H341 0.980 . S
C368 H342 0.983 . S
C368 C364 1.684 . S
H369 C387 0.948 . S
H370 C328 0.948 . S
H371 C346 0.979 . S
H372 C346 0.980 . S
H373 C346 0.983 . S
H374 C345 0.982 . S
H375 C345 0.979 . S
H376 C345 0.977 . S
H377 C347 0.948 . S
H378 C349 0.947 . S
H379 C350 0.948 . S
H380 C356 0.982 . S
H381 C356 0.979 . S
H382 C356 0.977 . S
H383 C357 0.979 . S
H384 C357 0.980 . S
H385 C357 0.983 . S
H386 C330 0.947 . S
C387 C330 1.392 . S
C387 C331 1.419 . S
C387 H369 0.948 . S
C388 C389 1.391 . S
C388 C392 1.391 . S
C388 H430 0.948 . S
C389 C388 1.391 . S
C389 C390 1.391 . S
C390 C389 1.391 . S
C390 H446 0.947 . S
C390 C447 1.392 . S
C391 C392 1.391 . S
C391 C395 1.397 . S
C391 C447 1.419 . S
C392 C388 1.391 . S
C392 C391 1.391 . S
C392 C393 1.399 . S
C393 C392 1.399 . S
C393 C396 1.396 . S
C393 C405 1.453 . S
C393 C406 1.684 . S
H394 C418 0.948 . S
C395 C391 1.397 . S
C395 C396 1.394 . S
C395 C414 1.723 . S
C396 C393 1.396 . S
C396 C395 1.394 . S
C396 C426 1.723 . S
H397 C420 0.947 . S
H398 C421 0.948 . S
H399 C427 0.982 . S
H400 C428 0.979 . S
H401 C428 0.980 . S
H402 C428 0.983 . S
H403 C427 0.979 . S
H404 C427 0.977 . S
C405 C393 1.453 . S
C405 H434 0.982 . S
C405 H435 0.979 . S
C405 H436 0.977 . S
C406 C393 1.684 . S
C406 H431 0.979 . S
C406 H432 0.980 . S
C406 H433 0.983 . S
C407 C408 1.391 . S
C407 C412 1.391 . S
C407 H437 0.948 . S
C408 C407 1.391 . S
C408 C409 1.391 . S
C409 C408 1.391 . S
C409 C410 1.392 . S
C409 H438 0.947 . S
C410 C409 1.392 . S
C410 C411 1.419 . S
C410 H439 0.948 . S
C411 C410 1.419 . S
C411 C412 1.391 . S
C411 C415 1.397 . S
C412 C407 1.391 . S
C412 C411 1.391 . S
C412 C413 1.399 . S
C413 C412 1.399 . S
C413 C414 1.396 . S
C413 C416 1.453 . S
C413 C417 1.684 . S
C414 C395 1.723 . S
C414 C413 1.396 . S
C414 C415 1.394 . S
C415 C411 1.397 . S
C415 C414 1.394 . S
C415 C425 1.723 . S
C416 C413 1.453 . S
C416 H440 0.982 . S
C416 H441 0.979 . S
C416 H442 0.977 . S
C417 C413 1.684 . S
C417 H443 0.979 . S
C417 H444 0.980 . S
C417 H445 0.983 . S
C418 H394 0.948 . S
C418 C419 1.391 . S
C418 C423 1.391 . S
C419 C418 1.391 . S
C419 C420 1.391 . S
C420 H397 0.947 . S
C420 C419 1.391 . S
C420 C421 1.392 . S
C421 H398 0.948 . S
C421 C420 1.392 . S
C421 C422 1.419 . S
C422 C421 1.419 . S
C422 C423 1.391 . S
C422 C426 1.397 . S
C423 C418 1.391 . S
C423 C422 1.391 . S
C423 C424 1.399 . S
C424 C423 1.399 . S
C424 C425 1.396 . S
C424 C427 1.453 . S
C424 C428 1.684 . S
C425 C415 1.723 . S
C425 C424 1.396 . S
C425 C426 1.394 . S
C426 C396 1.723 . S
C426 C422 1.397 . S
C426 C425 1.394 . S
C427 H399 0.982 . S
C427 H403 0.979 . S
C427 H404 0.977 . S
C427 C424 1.453 . S
C428 H400 0.979 . S
C428 H401 0.980 . S
C428 H402 0.983 . S
C428 C424 1.684 . S
H429 C447 0.948 . S
H430 C388 0.948 . S
H431 C406 0.979 . S
H432 C406 0.980 . S
H433 C406 0.983 . S
H434 C405 0.982 . S
H435 C405 0.979 . S
H436 C405 0.977 . S
H437 C407 0.948 . S
H438 C409 0.947 . S
H439 C410 0.948 . S
H440 C416 0.982 . S
H441 C416 0.979 . S
H442 C416 0.977 . S
H443 C417 0.979 . S
H444 C417 0.980 . S
H445 C417 0.983 . S
H446 C390 0.947 . S
C447 C390 1.392 . S
C447 C391 1.419 . S
C447 H429 0.948 . S
C448 C449 1.391 . S
C448 C452 1.391 . S
C448 H490 0.948 . S
C449 C448 1.391 . S
C449 C450 1.391 . S
C450 C449 1.391 . S
C450 H506 0.947 . S
C450 C507 1.392 . S
C451 C452 1.391 . S
C451 C455 1.397 . S
C451 C507 1.419 . S
C452 C448 1.391 . S
C452 C451 1.391 . S
C452 C453 1.399 . S
C453 C452 1.399 . S
C453 C456 1.396 . S
C453 C465 1.453 . S
C453 C466 1.684 . S
H454 C478 0.948 . S
C455 C451 1.397 . S
C455 C456 1.394 . S
C455 C474 1.723 . S
C456 C453 1.396 . S
C456 C455 1.394 . S
C456 C486 1.723 . S
H457 C480 0.947 . S
H458 C481 0.948 . S
H459 C487 0.982 . S
H460 C488 0.979 . S
H461 C488 0.980 . S
H462 C488 0.983 . S
H463 C487 0.979 . S
H464 C487 0.977 . S
C465 C453 1.453 . S
C465 H494 0.982 . S
C465 H495 0.979 . S
C465 H496 0.977 . S
C466 C453 1.684 . S
C466 H491 0.979 . S
C466 H492 0.980 . S
C466 H493 0.983 . S
C467 C468 1.391 . S
C467 C472 1.391 . S
C467 H497 0.948 . S
C468 C467 1.391 . S
C468 C469 1.391 . S
C469 C468 1.391 . S
C469 C470 1.392 . S
C469 H498 0.947 . S
C470 C469 1.392 . S
C470 C471 1.419 . S
C470 H499 0.948 . S
C471 C470 1.419 . S
C471 C472 1.391 . S
C471 C475 1.397 . S
C472 C467 1.391 . S
C472 C471 1.391 . S
C472 C473 1.399 . S
C473 C472 1.399 . S
C473 C474 1.396 . S
C473 C476 1.453 . S
C473 C477 1.684 . S
C474 C455 1.723 . S
C474 C473 1.396 . S
C474 C475 1.394 . S
C475 C471 1.397 . S
C475 C474 1.394 . S
C475 C485 1.723 . S
C476 C473 1.453 . S
C476 H500 0.982 . S
C476 H501 0.979 . S
C476 H502 0.977 . S
C477 C473 1.684 . S
C477 H503 0.979 . S
C477 H504 0.980 . S
C477 H505 0.983 . S
C478 H454 0.948 . S
C478 C479 1.391 . S
C478 C483 1.391 . S
C479 C478 1.391 . S
C479 C480 1.391 . S
C480 H457 0.947 . S
C480 C479 1.391 . S
C480 C481 1.392 . S
C481 H458 0.948 . S
C481 C480 1.392 . S
C481 C482 1.419 . S
C482 C481 1.419 . S
C482 C483 1.391 . S
C482 C486 1.397 . S
C483 C478 1.391 . S
C483 C482 1.391 . S
C483 C484 1.399 . S
C484 C483 1.399 . S
C484 C485 1.396 . S
C484 C487 1.453 . S
C484 C488 1.684 . S
C485 C475 1.723 . S
C485 C484 1.396 . S
C485 C486 1.394 . S
C486 C456 1.723 . S
C486 C482 1.397 . S
C486 C485 1.394 . S
C487 H459 0.982 . S
C487 H463 0.979 . S
C487 H464 0.977 . S
C487 C484 1.453 . S
C488 H460 0.979 . S
C488 H461 0.980 . S
C488 H462 0.983 . S
C488 C484 1.684 . S
H489 C507 0.948 . S
H490 C448 0.948 . S
H491 C466 0.979 . S
H492 C466 0.980 . S
H493 C466 0.983 . S
H494 C465 0.982 . S
H495 C465 0.979 . S
H496 C465 0.977 . S
H497 C467 0.948 . S
H498 C469 0.947 . S
H499 C470 0.948 . S
H500 C476 0.982 . S
H501 C476 0.979 . S
H502 C476 0.977 . S
H503 C477 0.979 . S
H504 C477 0.980 . S
H505 C477 0.983 . S
H506 C450 0.947 . S
C507 C450 1.392 . S
C507 C451 1.419 . S
C507 H489 0.948 . S
C508 C509 1.391 . S
C508 C512 1.391 . S
C508 H550 0.948 . S
C509 C508 1.391 . S
C509 C510 1.391 . S
C510 C509 1.391 . S
C510 H566 0.947 . S
C510 C567 1.392 . S
C511 C512 1.391 . S
C511 C515 1.397 . S
C511 C567 1.419 . S
C512 C508 1.391 . S
C512 C511 1.391 . S
C512 C513 1.399 . S
C513 C512 1.399 . S
C513 C516 1.396 . S
C513 C525 1.453 . S
C513 C526 1.684 . S
H514 C538 0.948 . S
C515 C511 1.397 . S
C515 C516 1.394 . S
C515 C534 1.723 . S
C516 C513 1.396 . S
C516 C515 1.394 . S
C516 C546 1.723 . S
H517 C540 0.947 . S
H518 C541 0.948 . S
H519 C547 0.982 . S
H520 C548 0.979 . S
H521 C548 0.980 . S
H522 C548 0.983 . S
H523 C547 0.979 . S
H524 C547 0.977 . S
C525 C513 1.453 . S
C525 H554 0.982 . S
C525 H555 0.979 . S
C525 H556 0.977 . S
C526 C513 1.684 . S
C526 H551 0.979 . S
C526 H552 0.980 . S
C526 H553 0.983 . S
C527 C528 1.391 . S
C527 C532 1.391 . S
C527 H557 0.948 . S
C528 C527 1.391 . S
C528 C529 1.391 . S
C529 C528 1.391 . S
C529 C530 1.392 . S
C529 H558 0.947 . S
C530 C529 1.392 . S
C530 C531 1.419 . S
C530 H559 0.948 . S
C531 C530 1.419 . S
C531 C532 1.391 . S
C531 C535 1.397 . S
C532 C527 1.391 . S
C532 C531 1.391 . S
C532 C533 1.399 . S
C533 C532 1.399 . S
C533 C534 1.396 . S
C533 C536 1.453 . S
C533 C537 1.684 . S
C534 C515 1.723 . S
C534 C533 1.396 . S
C534 C535 1.394 . S
C535 C531 1.397 . S
C535 C534 1.394 . S
C535 C545 1.723 . S
C536 C533 1.453 . S
C536 H560 0.982 . S
C536 H561 0.979 . S
C536 H562 0.977 . S
C537 C533 1.684 . S
C537 H563 0.979 . S
C537 H564 0.980 . S
C537 H565 0.983 . S
C538 H514 0.948 . S
C538 C539 1.391 . S
C538 C543 1.391 . S
C539 C538 1.391 . S
C539 C540 1.391 . S
C540 H517 0.947 . S
C540 C539 1.391 . S
C540 C541 1.392 . S
C541 H518 0.948 . S
C541 C540 1.392 . S
C541 C542 1.419 . S
C542 C541 1.419 . S
C542 C543 1.391 . S
C542 C546 1.397 . S
C543 C538 1.391 . S
C543 C542 1.391 . S
C543 C544 1.399 . S
C544 C543 1.399 . S
C544 C545 1.396 . S
C544 C547 1.453 . S
C544 C548 1.684 . S
C545 C535 1.723 . S
C545 C544 1.396 . S
C545 C546 1.394 . S
C546 C516 1.723 . S
C546 C542 1.397 . S
C546 C545 1.394 . S
C547 H519 0.982 . S
C547 H523 0.979 . S
C547 H524 0.977 . S
C547 C544 1.453 . S
C548 H520 0.979 . S
C548 H521 0.980 . S
C548 H522 0.983 . S
C548 C544 1.684 . S
H549 C567 0.948 . S
H550 C508 0.948 . S
H551 C526 0.979 . S
H552 C526 0.980 . S
H553 C526 0.983 . S
H554 C525 0.982 . S
H555 C525 0.979 . S
H556 C525 0.977 . S
H557 C527 0.948 . S
H558 C529 0.947 . S
H559 C530 0.948 . S
H560 C536 0.982 . S
H561 C536 0.979 . S
H562 C536 0.977 . S
H563 C537 0.979 . S
H564 C537 0.980 . S
H565 C537 0.983 . S
H566 C510 0.947 . S
C567 C510 1.392 . S
C567 C511 1.419 . S
C567 H549 0.948 . S
C568 C569 1.369 . S
C568 C570 1.419 . S
C568 H572 0.930 . S
C569 C568 1.369 . S
C569 C578 1.429 . S
C570 C568 1.419 . S
C570 C571 1.363 . S
C570 H573 0.929 . S
C571 C570 1.363 . S
C571 C577 1.428 . S
H572 C568 0.930 . S
H573 C570 0.929 . S
S574 N575 1.613 . S
S574 N576 1.610 . S
N575 S574 1.613 . S
N575 C578 1.350 . S
N576 S574 1.610 . S
N576 C577 1.351 . S
C577 C571 1.428 . S
C577 N576 1.351 . S
C577 C578 1.434 . S
C578 C569 1.429 . S
C578 N575 1.350 . S
C578 C577 1.434 . S
C579 C580 1.369 . S
C579 C581 1.419 . S
C579 H583 0.930 . S
C580 C579 1.369 . S
C580 C589 1.429 . S
C581 C579 1.419 . S
C581 C582 1.363 . S
C581 H584 0.929 . S
C582 C581 1.363 . S
C582 C588 1.428 . S
H583 C579 0.930 . S
H584 C581 0.929 . S
S585 N586 1.613 . S
S585 N587 1.610 . S
N586 S585 1.613 . S
N586 C589 1.350 . S
N587 S585 1.610 . S
N587 C588 1.351 . S
C588 C582 1.428 . S
C588 N587 1.351 . S
C588 C589 1.434 . S
C589 C580 1.429 . S
C589 N586 1.350 . S
C589 C588 1.434 . S
C590 C591 1.369 . S
C590 C592 1.419 . S
C590 H594 0.930 . S
C591 C590 1.369 . S
C591 C600 1.429 . S
C592 C590 1.419 . S
C592 C593 1.363 . S
C592 H595 0.929 . S
C593 C592 1.363 . S
C593 C599 1.428 . S
H594 C590 0.930 . S
H595 C592 0.929 . S
S596 N597 1.613 . S
S596 N598 1.610 . S
N597 S596 1.613 . S
N597 C600 1.350 . S
N598 S596 1.610 . S
N598 C599 1.351 . S
C599 C593 1.428 . S
C599 N598 1.351 . S
C599 C600 1.434 . S
C600 C591 1.429 . S
C600 N597 1.350 . S
C600 C599 1.434 . S
C601 C602 1.369 . S
C601 C603 1.419 . S
C601 H605 0.930 . S
C602 C601 1.369 . S
C602 C611 1.429 . S
C603 C601 1.419 . S
C603 C604 1.363 . S
C603 H606 0.929 . S
C604 C603 1.363 . S
C604 C610 1.428 . S
H605 C601 0.930 . S
H606 C603 0.929 . S
S607 N608 1.613 . S
S607 N609 1.610 . S
N608 S607 1.613 . S
N608 C611 1.350 . S
N609 S607 1.610 . S
N609 C610 1.351 . S
C610 C604 1.428 . S
C610 N609 1.351 . S
C610 C611 1.434 . S
C611 C602 1.429 . S
C611 N608 1.350 . S
C611 C610 1.434 . S
C612 C613 1.369 . S
C612 C614 1.419 . S
C612 H616 0.930 . S
C613 C612 1.369 . S
C613 C622 1.429 . S
C614 C612 1.419 . S
C614 C615 1.363 . S
C614 H617 0.929 . S
C615 C614 1.363 . S
C615 C621 1.428 . S
H616 C612 0.930 . S
H617 C614 0.929 . S
S618 N619 1.613 . S
S618 N620 1.610 . S
N619 S618 1.613 . S
N619 C622 1.350 . S
N620 S618 1.610 . S
N620 C621 1.351 . S
C621 C615 1.428 . S
C621 N620 1.351 . S
C621 C622 1.434 . S
C622 C613 1.429 . S
C622 N619 1.350 . S
C622 C621 1.434 . S
C623 C624 1.369 . S
C623 C625 1.419 . S
C623 H627 0.930 . S
C624 C623 1.369 . S
C624 C633 1.429 . S
C625 C623 1.419 . S
C625 C626 1.363 . S
C625 H628 0.929 . S
C626 C625 1.363 . S
C626 C632 1.428 . S
H627 C623 0.930 . S
H628 C625 0.929 . S
S629 N630 1.613 1_455 S
S629 N631 1.610 . S
N630 S629 1.613 1_655 S
N630 C633 1.350 . S
N631 S629 1.610 . S
N631 C632 1.351 1_455 S
C632 C626 1.428 . S
C632 N631 1.351 1_655 S
C632 C633 1.434 . S
C633 C624 1.429 . S
C633 N630 1.350 . S
C633 C632 1.434 . S
C634 C635 1.369 . S
C634 C636 1.419 . S
C634 H638 0.930 . S
C635 C634 1.369 . S
C635 C644 1.429 . S
C636 C634 1.419 . S
C636 C637 1.363 . S
C636 H639 0.929 . S
C637 C636 1.363 . S
C637 C643 1.428 . S
H638 C634 0.930 . S
H639 C636 0.929 . S
S640 N641 1.613 . S
S640 N642 1.610 . S
N641 S640 1.613 . S
N641 C644 1.350 . S
N642 S640 1.610 . S
N642 C643 1.351 . S
C643 C637 1.428 . S
C643 N642 1.351 . S
C643 C644 1.434 . S
C644 C635 1.429 . S
C644 N641 1.350 . S
C644 C643 1.434 . S
C645 C646 1.369 . S
C645 C647 1.419 . S
C645 H649 0.930 . S
C646 C645 1.369 . S
C646 C655 1.429 . S
C647 C645 1.419 . S
C647 C648 1.363 . S
C647 H650 0.929 . S
C648 C647 1.363 . S
C648 C654 1.428 . S
H649 C645 0.930 . S
H650 C647 0.929 . S
S651 N652 1.613 . S
S651 N653 1.610 . S
N652 S651 1.613 . S
N652 C655 1.350 . S
N653 S651 1.610 . S
N653 C654 1.351 . S
C654 C648 1.428 . S
C654 N653 1.351 . S
C654 C655 1.434 . S
C655 C646 1.429 . S
C655 N652 1.350 . S
C655 C654 1.434 . S
C656 C657 1.369 . S
C656 C658 1.419 . S
C656 H660 0.930 . S
C657 C656 1.369 . S
C657 C666 1.429 . S
C658 C656 1.419 . S
C658 C659 1.363 . S
C658 H661 0.929 1_545 S
C659 C658 1.363 . S
C659 C665 1.428 . S
H660 C656 0.930 . S
H661 C658 0.929 1_565 S
S662 N663 1.613 . S
S662 N664 1.610 . S
N663 S662 1.613 . S
N663 C666 1.350 . S
N664 S662 1.610 . S
N664 C665 1.351 . S
C665 C659 1.428 . S
C665 N664 1.351 . S
C665 C666 1.434 . S
C666 C657 1.429 . S
C666 N663 1.350 . S
C666 C665 1.434 . S
C667 C668 1.369 . S
C667 C669 1.419 . S
C667 H671 0.930 . S
C668 C667 1.369 . S
C668 C677 1.429 . S
C669 C667 1.419 . S
C669 C670 1.363 . S
C669 H672 0.929 . S
C670 C669 1.363 . S
C670 C676 1.428 . S
H671 C667 0.930 . S
H672 C669 0.929 . S
S673 N674 1.613 . S
S673 N675 1.610 . S
N674 S673 1.613 . S
N674 C677 1.350 . S
N675 S673 1.610 . S
N675 C676 1.351 . S
C676 C670 1.428 . S
C676 N675 1.351 . S
C676 C677 1.434 . S
C677 C668 1.429 . S
C677 N674 1.350 . S
C677 C676 1.434 . S
C678 C679 1.369 . S
C678 C680 1.419 . S
C678 H682 0.930 . S
C679 C678 1.369 . S
C679 C688 1.429 . S
C680 C678 1.419 . S
C680 C681 1.363 . S
C680 H683 0.929 . S
C681 C680 1.363 . S
C681 C687 1.428 . S
H682 C678 0.930 . S
H683 C680 0.929 . S
S684 N685 1.613 1_545 S
S684 N686 1.610 . S
N685 S684 1.613 1_565 S
N685 C688 1.350 . S
N686 S684 1.610 . S
N686 C687 1.351 1_545 S
C687 C681 1.428 . S
C687 N686 1.351 1_565 S
C687 C688 1.434 . S
C688 C679 1.429 . S
C688 N685 1.350 . S
C688 C687 1.434 . S
C689 C690 1.369 . S
C689 C691 1.419 . S
C689 H693 0.930 . S
C690 C689 1.369 . S
C690 C699 1.429 . S
C691 C689 1.419 . S
C691 C692 1.363 . S
C691 H694 0.929 . S
C692 C691 1.363 . S
C692 C698 1.428 . S
H693 C689 0.930 . S
H694 C691 0.929 . S
S695 N696 1.613 . S
S695 N697 1.610 . S
N696 S695 1.613 . S
N696 C699 1.350 . S
N697 S695 1.610 . S
N697 C698 1.351 . S
C698 C692 1.428 . S
C698 N697 1.351 . S
C698 C699 1.434 . S
C699 C690 1.429 . S
C699 N696 1.350 . S
C699 C698 1.434 . S
C700 C701 1.369 . S
C700 C702 1.419 . S
C700 H704 0.930 . S
C701 C700 1.369 . S
C701 C710 1.429 . S
C702 C700 1.419 . S
C702 C703 1.363 . S
C702 H705 0.929 . S
C703 C702 1.363 . S
C703 C709 1.428 . S
H704 C700 0.930 . S
H705 C702 0.929 . S
S706 N707 1.613 . S
S706 N708 1.610 . S
N707 S706 1.613 . S
N707 C710 1.350 . S
N708 S706 1.610 . S
N708 C709 1.351 . S
C709 C703 1.428 . S
C709 N708 1.351 . S
C709 C710 1.434 . S
C710 C701 1.429 . S
C710 N707 1.350 . S
C710 C709 1.434 . S
C711 C712 1.369 . S
C711 C713 1.419 . S
C711 H715 0.930 . S
C712 C711 1.369 . S
C712 C721 1.429 . S
C713 C711 1.419 . S
C713 C714 1.363 . S
C713 H716 0.929 . S
C714 C713 1.363 . S
C714 C720 1.428 . S
H715 C711 0.930 . S
H716 C713 0.929 . S
S717 N718 1.613 . S
S717 N719 1.610 . S
N718 S717 1.613 . S
N718 C721 1.350 . S
N719 S717 1.610 . S
N719 C720 1.351 . S
C720 C714 1.428 . S
C720 N719 1.351 . S
C720 C721 1.434 . S
C721 C712 1.429 . S
C721 N718 1.350 . S
C721 C720 1.434 . S
C722 C723 1.369 . S
C722 C724 1.419 . S
C722 H726 0.930 . S
C723 C722 1.369 . S
C723 C732 1.429 . S
C724 C722 1.419 . S
C724 C725 1.363 . S
C724 H727 0.929 . S
C725 C724 1.363 . S
C725 C731 1.428 . S
H726 C722 0.930 . S
H727 C724 0.929 . S
S728 N729 1.613 . S
S728 N730 1.610 . S
N729 S728 1.613 . S
N729 C732 1.350 . S
N730 S728 1.610 . S
N730 C731 1.351 . S
C731 C725 1.428 . S
C731 N730 1.351 . S
C731 C732 1.434 . S
C732 C723 1.429 . S
C732 N729 1.350 . S
C732 C731 1.434 . S
C733 C734 1.369 . S
C733 C735 1.419 . S
C733 H737 0.930 . S
C734 C733 1.369 . S
C734 C743 1.429 . S
C735 C733 1.419 . S
C735 C736 1.363 . S
C735 H738 0.929 . S
C736 C735 1.363 . S
C736 C742 1.428 . S
H737 C733 0.930 . S
H738 C735 0.929 . S
S739 N740 1.613 . S
S739 N741 1.610 1_655 S
N740 S739 1.613 . S
N740 C743 1.350 . S
N741 S739 1.610 1_455 S
N741 C742 1.351 1_455 S
C742 C736 1.428 . S
C742 N741 1.351 1_655 S
C742 C743 1.434 . S
C743 C734 1.429 . S
C743 N740 1.350 . S
C743 C742 1.434 . S
C744 C745 1.369 . S
C744 C746 1.419 . S
C744 H748 0.930 . S
C745 C744 1.369 . S
C745 C754 1.429 . S
C746 C744 1.419 . S
C746 C747 1.363 . S
C746 H749 0.929 . S
C747 C746 1.363 . S
C747 C753 1.428 . S
H748 C744 0.930 . S
H749 C746 0.929 . S
S750 N751 1.613 . S
S750 N752 1.610 . S
N751 S750 1.613 . S
N751 C754 1.350 . S
N752 S750 1.610 . S
N752 C753 1.351 . S
C753 C747 1.428 . S
C753 N752 1.351 . S
C753 C754 1.434 . S
C754 C745 1.429 . S
C754 N751 1.350 . S
C754 C753 1.434 . S
C755 C756 1.369 . S
C755 C757 1.419 . S
C755 H759 0.930 . S
C756 C755 1.369 . S
C756 C765 1.429 . S
C757 C755 1.419 . S
C757 C758 1.363 . S
C757 H760 0.929 . S
C758 C757 1.363 . S
C758 C764 1.428 . S
H759 C755 0.930 . S
H760 C757 0.929 . S
S761 N762 1.613 . S
S761 N763 1.610 . S
N762 S761 1.613 . S
N762 C765 1.350 . S
N763 S761 1.610 . S
N763 C764 1.351 . S
C764 C758 1.428 . S
C764 N763 1.351 . S
C764 C765 1.434 . S
C765 C756 1.429 . S
C765 N762 1.350 . S
C765 C764 1.434 . S
C766 C767 1.369 . S
C766 C768 1.419 . S
C766 H770 0.930 . S
C767 C766 1.369 . S
C767 C776 1.429 . S
C768 C766 1.419 . S
C768 C769 1.363 . S
C768 H771 0.929 . S
C769 C768 1.363 . S
C769 C775 1.428 . S
H770 C766 0.930 . S
H771 C768 0.929 . S
S772 N773 1.613 . S
S772 N774 1.610 . S
N773 S772 1.613 . S
N773 C776 1.350 . S
N774 S772 1.610 . S
N774 C775 1.351 . S
C775 C769 1.428 . S
C775 N774 1.351 . S
C775 C776 1.434 . S
C776 C767 1.429 . S
C776 N773 1.350 . S
C776 C775 1.434 . S
C777 C778 1.369 . S
C777 C779 1.419 . S
C777 H781 0.930 . S
C778 C777 1.369 . S
C778 C787 1.429 . S
C779 C777 1.419 . S
C779 C780 1.363 . S
C779 H782 0.929 . S
C780 C779 1.363 . S
C780 C786 1.428 . S
H781 C777 0.930 . S
H782 C779 0.929 . S
S783 N784 1.613 . S
S783 N785 1.610 . S
N784 S783 1.613 . S
N784 C787 1.350 . S
N785 S783 1.610 . S
N785 C786 1.351 . S
C786 C780 1.428 . S
C786 N785 1.351 . S
C786 C787 1.434 . S
C787 C778 1.429 . S
C787 N784 1.350 . S
C787 C786 1.434 . S
C788 C789 1.369 . S
C788 C790 1.419 . S
C788 H792 0.930 . S
C789 C788 1.369 . S
C789 C798 1.429 . S
C790 C788 1.419 . S
C790 C791 1.363 . S
C790 H793 0.929 . S
C791 C790 1.363 . S
C791 C797 1.428 . S
H792 C788 0.930 . S
H793 C790 0.929 . S
S794 N795 1.613 . S
S794 N796 1.610 . S
N795 S794 1.613 . S
N795 C798 1.350 . S
N796 S794 1.610 . S
N796 C797 1.351 . S
C797 C791 1.428 . S
C797 N796 1.351 . S
C797 C798 1.434 . S
C798 C789 1.429 . S
C798 N795 1.350 . S
C798 C797 1.434 . S
C799 C800 1.369 . S
C799 C801 1.419 . S
C799 H803 0.930 . S
C800 C799 1.369 . S
C800 C809 1.429 . S
C801 C799 1.419 . S
C801 C802 1.363 . S
C801 H804 0.929 . S
C802 C801 1.363 . S
C802 C808 1.428 . S
H803 C799 0.930 . S
H804 C801 0.929 . S
S805 N806 1.613 . S
S805 N807 1.610 . S
N806 S805 1.613 . S
N806 C809 1.350 . S
N807 S805 1.610 . S
N807 C808 1.351 . S
C808 C802 1.428 . S
C808 N807 1.351 . S
C808 C809 1.434 . S
C809 C800 1.429 . S
C809 N806 1.350 . S
C809 C808 1.434 . S
C810 C811 1.369 . S
C810 C812 1.419 . S
C810 H814 0.930 . S
C811 C810 1.369 . S
C811 C820 1.429 . S
C812 C810 1.419 . S
C812 C813 1.363 . S
C812 H815 0.929 . S
C813 C812 1.363 . S
C813 C819 1.428 . S
H814 C810 0.930 . S
H815 C812 0.929 . S
S816 N817 1.613 . S
S816 N818 1.610 . S
N817 S816 1.613 . S
N817 C820 1.350 . S
N818 S816 1.610 . S
N818 C819 1.351 . S
C819 C813 1.428 . S
C819 N818 1.351 . S
C819 C820 1.434 . S
C820 C811 1.429 . S
C820 N817 1.350 . S
C820 C819 1.434 . S
C821 C822 1.369 . S
C821 C823 1.419 . S
C821 H825 0.930 . S
C822 C821 1.369 . S
C822 C831 1.429 . S
C823 C821 1.419 . S
C823 C824 1.363 . S
C823 H826 0.929 . S
C824 C823 1.363 . S
C824 C830 1.428 . S
H825 C821 0.930 . S
H826 C823 0.929 . S
S827 N828 1.613 . S
S827 N829 1.610 . S
N828 S827 1.613 . S
N828 C831 1.350 . S
N829 S827 1.610 . S
N829 C830 1.351 . S
C830 C824 1.428 . S
C830 N829 1.351 . S
C830 C831 1.434 . S
C831 C822 1.429 . S
C831 N828 1.350 . S
C831 C830 1.434 . S
C569 C8 1.498 . S
C571 C89 1.342 1_565 S
C580 C31 1.498 . S
C582 C168 1.484 . S
C591 C53 1.497 . S
C593 C239 1.482 1_545 S
C604 C299 1.484 . S
C602 C74 1.496 . S
C615 C329 1.342 . S
C613 C26 1.501 . S
C624 C48 1.496 . S
C626 C419 1.487 1_655 S
C635 C71 1.497 . S
C637 C479 1.484 . S
C646 C5 1.500 . S
C648 C528 1.491 1_455 S
C657 C50 1.500 . S
C659 C509 1.346 1_545 S
C670 C348 1.488 . S
C668 C70 1.497 . S
C681 C408 1.332 1_565 S
C679 C4 1.499 . S
C690 C28 1.501 . S
C692 C468 1.339 . S
C703 C149 1.336 . S
C701 C73 1.500 . S
C712 C7 1.500 . S
C714 C228 1.334 1_455 S
C725 C288 1.334 . S
C723 C30 1.496 . S
C736 C108 1.487 1_655 S
C734 C52 1.493 . S
C747 C449 1.136 . S
C745 C9 1.148 . S
C758 C539 1.139 . S
C756 C29 1.150 . S
C767 C51 1.150 . S
C769 C359 1.120 . S
C780 C389 1.136 . S
C778 C75 1.151 . S
C791 C209 1.140 . S
C789 C27 1.150 . S
C800 C49 1.151 . S
C802 C269 1.144 . S
C813 C119 1.118 . S
C811 C72 1.150 . S
C824 C179 1.139 . S
C822 C6 1.154 . S
