# Generated by pormake.
# Topology ptr, (4,4)-cn, num edge types: 1
# Building blocks:
#     Node 0, Type 0, BuildingBlock: QUQFOY_clean_sbu_1, # of connection points: 4
#     Node 1, Type 0, BuildingBlock: QUQFOY_clean_sbu_1, # of connection points: 4
#     Node 2, Type 0, BuildingBlock: QUQFOY_clean_sbu_1, # of connection points: 4
#     Node 3, Type 0, BuildingBlock: QUQFOY_clean_sbu_1, # of connection points: 4
#     Node 4, Type 0, BuildingBlock: QUQFOY_clean_sbu_1, # of connection points: 4
#     Node 5, Type 0, BuildingBlock: QUQFOY_clean_sbu_1, # of connection points: 4
#     Node 6, Type 0, BuildingBlock: QUQFOY_clean_sbu_1, # of connection points: 4
#     Node 7, Type 0, BuildingBlock: QUQFOY_clean_sbu_1, # of connection points: 4
#     Node 8, Type 0, BuildingBlock: QUQFOY_clean_sbu_1, # of connection points: 4
#     Node 9, Type 0, BuildingBlock: QUQFOY_clean_sbu_1, # of connection points: 4
#     Node 10, Type 0, BuildingBlock: QUQFOY_clean_sbu_1, # of connection points: 4
#     Node 11, Type 0, BuildingBlock: QUQFOY_clean_sbu_1, # of connection points: 4
#     Node 12, Type 0, BuildingBlock: QUQFOY_clean_sbu_1, # of connection points: 4
#     Node 13, Type 0, BuildingBlock: QUQFOY_clean_sbu_1, # of connection points: 4
#     Node 14, Type 0, BuildingBlock: QUQFOY_clean_sbu_1, # of connection points: 4
#     Node 15, Type 0, BuildingBlock: QUQFOY_clean_sbu_1, # of connection points: 4
#     Node 16, Type 0, BuildingBlock: QUQFOY_clean_sbu_1, # of connection points: 4
#     Node 17, Type 0, BuildingBlock: QUQFOY_clean_sbu_1, # of connection points: 4
#     Node 18, Type 1, BuildingBlock: MIFKUJ_clean_linker_1, # of connection points: 4
#     Node 19, Type 1, BuildingBlock: MIFKUJ_clean_linker_1, # of connection points: 4
#     Node 20, Type 1, BuildingBlock: MIFKUJ_clean_linker_1, # of connection points: 4
#     Node 21, Type 1, BuildingBlock: MIFKUJ_clean_linker_1, # of connection points: 4
#     Node 22, Type 1, BuildingBlock: MIFKUJ_clean_linker_1, # of connection points: 4
#     Node 23, Type 1, BuildingBlock: MIFKUJ_clean_linker_1, # of connection points: 4
#     Node 24, Type 1, BuildingBlock: MIFKUJ_clean_linker_1, # of connection points: 4
#     Node 25, Type 1, BuildingBlock: MIFKUJ_clean_linker_1, # of connection points: 4
#     Node 26, Type 1, BuildingBlock: MIFKUJ_clean_linker_1, # of connection points: 4
#     Node 27, Type 1, BuildingBlock: MIFKUJ_clean_linker_1, # of connection points: 4
#     Node 28, Type 1, BuildingBlock: MIFKUJ_clean_linker_1, # of connection points: 4
#     Node 29, Type 1, BuildingBlock: MIFKUJ_clean_linker_1, # of connection points: 4
#     Node 30, Type 1, BuildingBlock: MIFKUJ_clean_linker_1, # of connection points: 4
#     Node 31, Type 1, BuildingBlock: MIFKUJ_clean_linker_1, # of connection points: 4
#     Node 32, Type 1, BuildingBlock: MIFKUJ_clean_linker_1, # of connection points: 4
#     Node 33, Type 1, BuildingBlock: MIFKUJ_clean_linker_1, # of connection points: 4
#     Node 34, Type 1, BuildingBlock: MIFKUJ_clean_linker_1, # of connection points: 4
#     Node 35, Type 1, BuildingBlock: MIFKUJ_clean_linker_1, # of connection points: 4
#     Edge 36, Type (0, 1), BuildingBlock: ZUJKAS_clean_linker_0, # of connection points: 2
#     Edge 37, Type (0, 1), BuildingBlock: ZUJKAS_clean_linker_0, # of connection points: 2
#     Edge 38, Type (0, 1), BuildingBlock: ZUJKAS_clean_linker_0, # of connection points: 2
#     Edge 39, Type (0, 1), BuildingBlock: ZUJKAS_clean_linker_0, # of connection points: 2
#     Edge 40, Type (0, 1), BuildingBlock: ZUJKAS_clean_linker_0, # of connection points: 2
#     Edge 41, Type (0, 1), BuildingBlock: ZUJKAS_clean_linker_0, # of connection points: 2
#     Edge 42, Type (0, 1), BuildingBlock: ZUJKAS_clean_linker_0, # of connection points: 2
#     Edge 43, Type (0, 1), BuildingBlock: ZUJKAS_clean_linker_0, # of connection points: 2
#     Edge 44, Type (0, 1), BuildingBlock: ZUJKAS_clean_linker_0, # of connection points: 2
#     Edge 45, Type (0, 1), BuildingBlock: ZUJKAS_clean_linker_0, # of connection points: 2
#     Edge 46, Type (0, 1), BuildingBlock: ZUJKAS_clean_linker_0, # of connection points: 2
#     Edge 47, Type (0, 1), BuildingBlock: ZUJKAS_clean_linker_0, # of connection points: 2
#     Edge 48, Type (0, 1), BuildingBlock: ZUJKAS_clean_linker_0, # of connection points: 2
#     Edge 49, Type (0, 1), BuildingBlock: ZUJKAS_clean_linker_0, # of connection points: 2
#     Edge 50, Type (0, 1), BuildingBlock: ZUJKAS_clean_linker_0, # of connection points: 2
#     Edge 51, Type (0, 1), BuildingBlock: ZUJKAS_clean_linker_0, # of connection points: 2
#     Edge 52, Type (0, 1), BuildingBlock: ZUJKAS_clean_linker_0, # of connection points: 2
#     Edge 53, Type (0, 1), BuildingBlock: ZUJKAS_clean_linker_0, # of connection points: 2
#     Edge 54, Type (0, 1), BuildingBlock: ZUJKAS_clean_linker_0, # of connection points: 2
#     Edge 55, Type (0, 1), BuildingBlock: ZUJKAS_clean_linker_0, # of connection points: 2
#     Edge 56, Type (0, 1), BuildingBlock: ZUJKAS_clean_linker_0, # of connection points: 2
#     Edge 57, Type (0, 1), BuildingBlock: ZUJKAS_clean_linker_0, # of connection points: 2
#     Edge 58, Type (0, 1), BuildingBlock: ZUJKAS_clean_linker_0, # of connection points: 2
#     Edge 59, Type (0, 1), BuildingBlock: ZUJKAS_clean_linker_0, # of connection points: 2
#     Edge 60, Type (0, 1), BuildingBlock: ZUJKAS_clean_linker_0, # of connection points: 2
#     Edge 61, Type (0, 1), BuildingBlock: ZUJKAS_clean_linker_0, # of connection points: 2
#     Edge 62, Type (0, 1), BuildingBlock: ZUJKAS_clean_linker_0, # of connection points: 2
#     Edge 63, Type (0, 1), BuildingBlock: ZUJKAS_clean_linker_0, # of connection points: 2
#     Edge 64, Type (0, 1), BuildingBlock: ZUJKAS_clean_linker_0, # of connection points: 2
#     Edge 65, Type (0, 1), BuildingBlock: ZUJKAS_clean_linker_0, # of connection points: 2
#     Edge 66, Type (0, 1), BuildingBlock: ZUJKAS_clean_linker_0, # of connection points: 2
#     Edge 67, Type (0, 1), BuildingBlock: ZUJKAS_clean_linker_0, # of connection points: 2
#     Edge 68, Type (0, 1), BuildingBlock: ZUJKAS_clean_linker_0, # of connection points: 2
#     Edge 69, Type (0, 1), BuildingBlock: ZUJKAS_clean_linker_0, # of connection points: 2
#     Edge 70, Type (0, 1), BuildingBlock: ZUJKAS_clean_linker_0, # of connection points: 2
#     Edge 71, Type (0, 1), BuildingBlock: ZUJKAS_clean_linker_0, # of connection points: 2
#     Edge 72, Type (0, 1), BuildingBlock: ZUJKAS_clean_linker_0, # of connection points: 2
#     Edge 73, Type (0, 1), BuildingBlock: ZUJKAS_clean_linker_0, # of connection points: 2
#     Edge 74, Type (0, 1), BuildingBlock: ZUJKAS_clean_linker_0, # of connection points: 2
#     Edge 75, Type (0, 1), BuildingBlock: ZUJKAS_clean_linker_0, # of connection points: 2
#     Edge 76, Type (0, 1), BuildingBlock: ZUJKAS_clean_linker_0, # of connection points: 2
#     Edge 77, Type (0, 1), BuildingBlock: ZUJKAS_clean_linker_0, # of connection points: 2
#     Edge 78, Type (0, 1), BuildingBlock: ZUJKAS_clean_linker_0, # of connection points: 2
#     Edge 79, Type (0, 1), BuildingBlock: ZUJKAS_clean_linker_0, # of connection points: 2
#     Edge 80, Type (0, 1), BuildingBlock: ZUJKAS_clean_linker_0, # of connection points: 2
#     Edge 81, Type (0, 1), BuildingBlock: ZUJKAS_clean_linker_0, # of connection points: 2
#     Edge 82, Type (0, 1), BuildingBlock: ZUJKAS_clean_linker_0, # of connection points: 2
#     Edge 83, Type (0, 1), BuildingBlock: ZUJKAS_clean_linker_0, # of connection points: 2
#     Edge 84, Type (0, 1), BuildingBlock: ZUJKAS_clean_linker_0, # of connection points: 2
#     Edge 85, Type (0, 1), BuildingBlock: ZUJKAS_clean_linker_0, # of connection points: 2
#     Edge 86, Type (0, 1), BuildingBlock: ZUJKAS_clean_linker_0, # of connection points: 2
#     Edge 87, Type (0, 1), BuildingBlock: ZUJKAS_clean_linker_0, # of connection points: 2
#     Edge 88, Type (0, 1), BuildingBlock: ZUJKAS_clean_linker_0, # of connection points: 2
#     Edge 89, Type (0, 1), BuildingBlock: ZUJKAS_clean_linker_0, # of connection points: 2
#     Edge 90, Type (0, 1), BuildingBlock: ZUJKAS_clean_linker_0, # of connection points: 2
#     Edge 91, Type (0, 1), BuildingBlock: ZUJKAS_clean_linker_0, # of connection points: 2
#     Edge 92, Type (0, 1), BuildingBlock: ZUJKAS_clean_linker_0, # of connection points: 2
#     Edge 93, Type (0, 1), BuildingBlock: ZUJKAS_clean_linker_0, # of connection points: 2
#     Edge 94, Type (0, 1), BuildingBlock: ZUJKAS_clean_linker_0, # of connection points: 2
#     Edge 95, Type (0, 1), BuildingBlock: ZUJKAS_clean_linker_0, # of connection points: 2
#     Edge 96, Type (0, 1), BuildingBlock: ZUJKAS_clean_linker_0, # of connection points: 2
#     Edge 97, Type (0, 1), BuildingBlock: ZUJKAS_clean_linker_0, # of connection points: 2
#     Edge 98, Type (0, 1), BuildingBlock: ZUJKAS_clean_linker_0, # of connection points: 2
#     Edge 99, Type (0, 1), BuildingBlock: ZUJKAS_clean_linker_0, # of connection points: 2
#     Edge 100, Type (0, 1), BuildingBlock: ZUJKAS_clean_linker_0, # of connection points: 2
#     Edge 101, Type (0, 1), BuildingBlock: ZUJKAS_clean_linker_0, # of connection points: 2
#     Edge 102, Type (0, 1), BuildingBlock: ZUJKAS_clean_linker_0, # of connection points: 2
#     Edge 103, Type (0, 1), BuildingBlock: ZUJKAS_clean_linker_0, # of connection points: 2
#     Edge 104, Type (0, 1), BuildingBlock: ZUJKAS_clean_linker_0, # of connection points: 2
#     Edge 105, Type (0, 1), BuildingBlock: ZUJKAS_clean_linker_0, # of connection points: 2
#     Edge 106, Type (0, 1), BuildingBlock: ZUJKAS_clean_linker_0, # of connection points: 2
#     Edge 107, Type (0, 1), BuildingBlock: ZUJKAS_clean_linker_0, # of connection points: 2
# Relax obj value: 0.012
# Max RMSD: 0.044
# Mean RMSD: 0.040
data_MOF--net-ptr--node1-QUQFOY_clean_sbu_1--node2-MIFKUJ_clean_linker_1--edge1-ZUJKAS_clean_linker_0
_symmetry_space_group_name_H-M    P1
_symmetry_Int_Tables_number       1
_symmetry_cell_setting            triclinic
loop_
_symmetry_equiv_pos_as_xyz
'x, y, z'
_cell_length_a     114.02827
_cell_length_b     114.02601
_cell_length_c     78.659612
_cell_angle_alpha  90.088767
_cell_angle_beta   89.900135
_cell_angle_gamma 119.94066
loop_
_atom_site_label
_atom_site_type_symbol
_atom_site_fract_x
_atom_site_fract_y
_atom_site_fract_z
_atom_type_partial_charge
O0 O 0.01163 0.37251 0.04171 0.0
Cd1 Cd 0.01744 0.36517 0.02131 0.0
Cd2 Cd 0.99015 0.35164 0.01598 0.0
O3 O 0.98948 0.35963 0.03944 0.0
O4 O 0.03638 0.37 0.0269 0.0
O5 O 0.01965 0.34885 0.02502 0.0
C6 C 0.03222 0.35725 0.02834 0.0
C7 C 0.97539 0.32893 0.00904 0.0
C8 C 0.99979 0.36868 0.0473 0.0
C9 C 0.00789 0.37244 0.98984 0.0
O10 O 0.99604 0.36461 0.99547 0.0
O11 O 0.01816 0.37364 0.99775 0.0
O12 O 0.97121 0.33752 0.01042 0.0
O13 O 0.98795 0.3331 0.01242 0.0
O14 O 0.63228 0.63863 0.04024 0.0
Cd15 Cd 0.63967 0.65179 0.01992 0.0
Cd16 Cd 0.65305 0.63811 0.01441 0.0
O17 O 0.6456 0.62985 0.03815 0.0
O18 O 0.63517 0.66611 0.02587 0.0
O19 O 0.65619 0.67017 0.02348 0.0
C20 C 0.64797 0.67452 0.02711 0.0
C21 C 0.67577 0.64649 0.00716 0.0
C22 C 0.63638 0.63088 0.04595 0.0
C23 C 0.63191 0.6347 0.98868 0.0
O24 O 0.63963 0.63053 0.99433 0.0
O25 O 0.63109 0.64409 0.99639 0.0
O26 O 0.66749 0.6337 0.00887 0.0
O27 O 0.67126 0.65467 0.0102 0.0
O28 O 0.37296 0.00994 0.99355 0.0
Cd29 Cd 0.36546 0.0154 0.01412 0.0
Cd30 Cd 0.35206 0.98833 0.01871 0.0
O31 O 0.3597 0.98781 0.99499 0.0
O32 O 0.37015 0.03438 0.00897 0.0
O33 O 0.34906 0.01748 0.01044 0.0
C34 C 0.35739 0.03011 0.00738 0.0
C35 C 0.32922 0.97457 0.02571 0.0
C36 C 0.36895 0.9982 0.98748 0.0
C37 C 0.37291 0.00538 0.04499 0.0
O38 O 0.36526 0.99363 0.03891 0.0
O39 O 0.37377 0.01573 0.03769 0.0
O40 O 0.33716 0.96964 0.02388 0.0
O41 O 0.33414 0.98734 0.02283 0.0
O42 O 0.99506 0.63214 0.99415 0.0
Cd43 Cd 0.98977 0.64005 0.01456 0.0
Cd44 Cd 0.01699 0.65296 0.01909 0.0
O45 O 0.01725 0.64507 0.99549 0.0
O46 O 0.97084 0.63551 0.00939 0.0
O47 O 0.98789 0.65653 0.01056 0.0
C48 C 0.97521 0.64827 0.00767 0.0
C49 C 0.03171 0.67568 0.02594 0.0
C50 C 0.00675 0.6359 0.98808 0.0
C51 C 0.99955 0.63261 0.04565 0.0
O52 O 0.0113 0.63979 0.03935 0.0
O53 O 0.98932 0.63209 0.03845 0.0
O54 O 0.03594 0.66714 0.02447 0.0
O55 O 0.01909 0.67144 0.02278 0.0
O56 O 0.37392 0.3672 0.9926 0.0
Cd57 Cd 0.36778 0.35379 0.01272 0.0
Cd58 Cd 0.35417 0.36727 0.02058 0.0
O59 O 0.36129 0.37651 0.99724 0.0
O60 O 0.37297 0.34029 0.00512 0.0
O61 O 0.35175 0.33494 0.00983 0.0
C62 C 0.36029 0.33131 0.0049 0.0
C63 C 0.33156 0.35893 0.02848 0.0
C64 C 0.36993 0.37535 0.98822 0.0
C65 C 0.37607 0.37007 0.0448 0.0
O66 O 0.36784 0.37396 0.04041 0.0
O67 O 0.37717 0.36131 0.03595 0.0
O68 O 0.34007 0.37173 0.02781 0.0
O69 O 0.33578 0.35074 0.02406 0.0
O70 O 0.6338 0.99545 0.04286 0.0
Cd71 Cd 0.64021 0.98852 0.02263 0.0
Cd72 Cd 0.65376 0.01565 0.01542 0.0
O73 O 0.64662 0.01744 0.03898 0.0
O74 O 0.63521 0.96984 0.02982 0.0
O75 O 0.65638 0.98592 0.02547 0.0
C76 C 0.64793 0.97367 0.03014 0.0
C77 C 0.6763 0.03002 0.00737 0.0
C78 C 0.63784 0.00752 0.04767 0.0
C79 C 0.63205 0.99677 0.99079 0.0
O80 O 0.64015 0.00885 0.99551 0.0
O81 O 0.63097 0.98684 0.99939 0.0
O82 O 0.66776 0.03428 0.00847 0.0
O83 O 0.67216 0.0176 0.01156 0.0
O84 O 0.67625 0.7062 0.37473 0.0
Cd85 Cd 0.68368 0.69998 0.35484 0.0
Cd86 Cd 0.65647 0.68639 0.34655 0.0
O87 O 0.65435 0.69404 0.36957 0.0
O88 O 0.70231 0.70506 0.36244 0.0
O89 O 0.68633 0.68387 0.35814 0.0
C90 C 0.69853 0.69237 0.3629 0.0
C91 C 0.64145 0.66392 0.33879 0.0
C92 C 0.66409 0.70251 0.37877 0.0
C93 C 0.67616 0.70802 0.32227 0.0
O94 O 0.66399 0.6997 0.32638 0.0
O95 O 0.68588 0.70937 0.33157 0.0
O96 O 0.63786 0.67299 0.33879 0.0
O97 O 0.65354 0.66747 0.3439 0.0
O98 O 0.29735 0.97032 0.37455 0.0
Cd99 Cd 0.30362 0.98402 0.35483 0.0
Cd100 Cd 0.31662 0.96992 0.34562 0.0
O101 O 0.30916 0.96028 0.36874 0.0
O102 O 0.29894 0.99778 0.36287 0.0
O103 O 0.31998 0.00257 0.35823 0.0
C104 C 0.31169 0.00648 0.36329 0.0
C105 C 0.33889 0.97678 0.33734 0.0
C106 C 0.30092 0.96171 0.37826 0.0
C107 C 0.29494 0.96865 0.32205 0.0
O108 O 0.30312 0.96451 0.32568 0.0
O109 O 0.2939 0.97705 0.33171 0.0
O110 O 0.32964 0.96421 0.33766 0.0
O111 O 0.33564 0.98558 0.3424 0.0
O112 O 0.04142 0.3432 0.32781 0.0
Cd113 Cd 0.03501 0.35049 0.34764 0.0
Cd114 Cd 0.02103 0.32317 0.35525 0.0
O115 O 0.02882 0.32123 0.33225 0.0
O116 O 0.04047 0.36927 0.34029 0.0
O117 O 0.01912 0.35341 0.34384 0.0
C118 C 0.02782 0.36562 0.33934 0.0
C119 C 0.99847 0.30817 0.36265 0.0
C120 C 0.03756 0.33107 0.32342 0.0
C121 C 0.0425 0.34236 0.38011 0.0
O122 O 0.03416 0.33029 0.37562 0.0
O123 O 0.04404 0.35228 0.37109 0.0
O124 O 0.00747 0.30449 0.36261 0.0
O125 O 1.00214 0.32035 0.35778 0.0
O126 O 0.66321 0.96397 0.32636 0.0
Cd127 Cd 0.656 0.97045 0.34617 0.0
Cd128 Cd 0.68304 0.98418 0.3543 0.0
O129 O 0.68511 0.97666 0.33112 0.0
O130 O 0.63729 0.96536 0.33892 0.0
O131 O 0.65348 0.98659 0.34243 0.0
C132 C 0.64118 0.97807 0.33803 0.0
C133 C 0.69751 0.0068 0.36198 0.0
C134 C 0.67539 0.96793 0.32213 0.0
C135 C 0.66378 0.96259 0.37872 0.0
O136 O 0.67594 0.97085 0.3745 0.0
O137 O 0.65403 0.96129 0.36953 0.0
O138 O 0.70165 0.99816 0.3614 0.0
O139 O 0.68516 0.00272 0.35749 0.0
O140 O 0.04128 0.70174 0.32616 0.0
Cd141 Cd 0.03474 0.6884 0.34642 0.0
Cd142 Cd 0.02114 0.70196 0.35305 0.0
O143 O 0.02781 0.71028 0.32922 0.0
O144 O 0.04024 0.675 0.33947 0.0
O145 O 0.01888 0.6695 0.34317 0.0
C146 C 0.0276 0.66596 0.33877 0.0
C147 C 0.99857 0.69344 0.36122 0.0
C148 C 0.03688 0.70937 0.32088 0.0
C149 C 0.04288 0.70536 0.37782 0.0
O150 O 0.03513 0.7096 0.37252 0.0
O151 O 0.04353 0.69594 0.36995 0.0
O152 O 0.00685 0.70626 0.35987 0.0
O153 O 1.003 0.68531 0.35736 0.0
O154 O 0.29996 0.33013 0.37613 0.0
Cd155 Cd 0.30593 0.32254 0.35617 0.0
Cd156 Cd 0.31952 0.34953 0.3477 0.0
O157 O 0.3126 0.35197 0.37108 0.0
O158 O 0.30067 0.30398 0.3642 0.0
O159 O 0.3219 0.31961 0.35918 0.0
C160 C 0.31332 0.30757 0.3644 0.0
C161 C 0.342 0.36386 0.33941 0.0
C162 C 0.30404 0.34233 0.38031 0.0
C163 C 0.29753 0.33 0.32383 0.0
O164 O 0.30578 0.3422 0.32795 0.0
O165 O 0.29644 0.32031 0.33299 0.0
O166 O 0.33339 0.36804 0.34015 0.0
O167 O 0.33797 0.35155 0.344 0.0
O168 O 0.34337 0.04035 0.70871 0.0
Cd169 Cd 0.35103 0.03427 0.68896 0.0
Cd170 Cd 0.32384 0.02041 0.68024 0.0
O171 O 0.32153 0.02782 0.70337 0.0
O172 O 0.36983 0.03998 0.69649 0.0
O173 O 0.35426 0.01856 0.69271 0.0
C174 C 0.36641 0.02738 0.69727 0.0
C175 C 0.30908 0.99794 0.67215 0.0
C176 C 0.33114 0.0364 0.71264 0.0
C177 C 0.34351 0.04227 0.65627 0.0
O178 O 0.33131 0.03387 0.66019 0.0
O179 O 0.35316 0.04361 0.6657 0.0
O180 O 0.30525 0.00683 0.67259 0.0
O181 O 0.32127 1.00167 0.67702 0.0
O182 O 0.96531 0.30213 0.70738 0.0
Cd183 Cd 0.97142 0.31578 0.68751 0.0
Cd184 Cd 0.98536 0.3025 0.67925 0.0
O185 O 0.97787 0.29279 0.70226 0.0
O186 O 0.96569 0.32889 0.69505 0.0
O187 O 0.98712 0.33469 0.69134 0.0
C188 C 0.97829 0.33802 0.69596 0.0
C189 C 0.00808 0.31089 0.67183 0.0
C190 C 0.96927 0.29389 0.71144 0.0
C191 C 0.96377 0.30014 0.65481 0.0
O192 O 0.97205 0.29628 0.65908 0.0
O193 O 0.9624 0.30858 0.664 0.0
O194 O 0.99948 0.2981 0.67194 0.0
O195 O 0.00387 0.31902 0.67656 0.0
O196 O 0.70798 0.6771 0.6614 0.0
Cd197 Cd 0.70063 0.68339 0.68134 0.0
Cd198 Cd 0.68802 0.65633 0.6883 0.0
O199 O 0.69559 0.65501 0.66488 0.0
O200 O 0.70504 0.70199 0.67455 0.0
O201 O 0.68405 0.68509 0.67726 0.0
C202 C 0.69224 0.69757 0.67324 0.0
C203 C 0.66556 0.64133 0.69602 0.0
C204 C 0.70433 0.66514 0.65645 0.0
C205 C 0.70888 0.67551 0.71343 0.0
O206 O 0.70145 0.66339 0.70837 0.0
O207 O 0.70938 0.68527 0.70501 0.0
O208 O 0.67444 0.63752 0.69513 0.0
O209 O 0.66929 0.65366 0.69179 0.0
O210 O 0.32952 0.29842 0.66012 0.0
Cd211 Cd 0.32265 0.30482 0.68043 0.0
Cd212 Cd 0.34969 0.31836 0.6878 0.0
O213 O 0.35149 0.31111 0.66433 0.0
O214 O 0.30398 0.3002 0.67359 0.0
O215 O 0.32046 0.32123 0.67761 0.0
C216 C 0.30809 0.31298 0.67322 0.0
C217 C 0.36413 0.34091 0.69578 0.0
C218 C 0.34163 0.30241 0.6555 0.0
C219 C 0.33085 0.29655 0.71229 0.0
O220 O 0.34293 0.30478 0.70772 0.0
O221 O 0.32094 0.29544 0.7036 0.0
O222 O 0.36834 0.33233 0.69473 0.0
O223 O 0.35172 0.33682 0.69158 0.0
O224 O 0.70917 0.03391 0.65948 0.0
Cd225 Cd 0.70251 0.02068 0.6798 0.0
Cd226 Cd 0.68901 0.03438 0.68673 0.0
O227 O 0.6959 0.04266 0.66287 0.0
O228 O 0.70746 0.00679 0.67329 0.0
O229 O 0.68629 1.00204 0.67652 0.0
C230 C 0.69473 0.99805 0.67249 0.0
C231 C 0.66654 0.02653 0.69488 0.0
C232 C 0.70485 0.04164 0.65437 0.0
C233 C 0.71064 0.03745 0.71147 0.0
O234 O 0.70279 0.04165 0.70645 0.0
O235 O 0.71144 0.02827 0.70321 0.0
O236 O 0.67504 0.03926 0.69314 0.0
O237 O 0.67066 0.0181 0.69135 0.0
O238 O 0.96577 0.66245 0.70824 0.0
Cd239 Cd 0.97165 0.65471 0.68834 0.0
Cd240 Cd 0.98562 0.682 0.67978 0.0
O241 O 0.97818 0.6843 0.70285 0.0
O242 O 0.96599 0.63594 0.6959 0.0
O243 O 0.98737 0.65147 0.69174 0.0
C244 C 0.97858 0.63934 0.69642 0.0
C245 C 0.00814 0.69681 0.67203 0.0
C246 C 0.96971 0.67468 0.7122 0.0
C247 C 0.96388 0.66237 0.65559 0.0
O248 O 0.97231 0.67453 0.65961 0.0
O249 O 0.96238 0.65267 0.66502 0.0
O250 O 0.99918 0.70054 0.67196 0.0
O251 O 0.00445 0.68469 0.67716 0.0
H252 H 0.15584 0.3391 0.18924 0.0
H253 H 0.1382 0.33878 0.20716 0.0
H254 H 0.10797 0.30368 0.18006 0.0
H255 H 0.12579 0.30387 0.16236 0.0
H256 H 0.16354 0.32079 0.18651 0.0
H257 H 0.14673 0.34183 0.14934 0.0
H258 H 0.13005 0.34465 0.13319 0.0
H259 H 0.1204 0.30881 0.104 0.0
H260 H 0.13688 0.30582 0.12061 0.0
H261 H 0.17455 0.3057 0.12011 0.0
H262 H 0.1938 0.30856 0.10306 0.0
H263 H 0.22044 0.34414 0.1323 0.0
H264 H 0.20115 0.34145 0.14891 0.0
H265 H 0.16414 0.32242 0.1235 0.0
H266 H 0.18369 0.30337 0.1617 0.0
H267 H 0.20118 0.30271 0.17908 0.0
H268 H 0.20689 0.33802 0.20657 0.0
H269 H 0.18968 0.3388 0.18896 0.0
C270 C 0.14215 0.32155 0.1744 0.0
C271 C 0.14541 0.33134 0.18712 0.0
C272 C 0.13529 0.33121 0.19727 0.0
C273 C 0.12165 0.32124 0.19499 0.0
C274 C 0.11838 0.31144 0.1822 0.0
C275 C 0.12854 0.31161 0.17199 0.0
C276 C 0.15311 0.32157 0.16413 0.0
C277 C 0.16373 0.32126 0.17273 0.0
C278 C 0.15321 0.32192 0.14613 0.0
C279 C 0.14294 0.32351 0.13635 0.0
C280 C 0.14091 0.33448 0.1396 0.0
C281 C 0.13147 0.33616 0.13022 0.0
C282 C 0.12389 0.32697 0.11726 0.0
C283 C 0.12595 0.31599 0.11401 0.0
C284 C 0.13543 0.31432 0.12341 0.0
C285 C 0.1864 0.32327 0.13592 0.0
C286 C 0.18455 0.31411 0.12284 0.0
C287 C 0.19558 0.3157 0.11318 0.0
C288 C 0.20868 0.32658 0.11631 0.0
C289 C 0.21048 0.33573 0.12943 0.0
C290 C 0.19947 0.33412 0.13907 0.0
C291 C 0.17467 0.3218 0.14592 0.0
C292 C 0.16387 0.32179 0.13727 0.0
C293 C 0.17452 0.32143 0.16391 0.0
C294 C 0.18543 0.32118 0.17396 0.0
C295 C 0.18883 0.31105 0.17134 0.0
C296 C 0.19874 0.31062 0.18137 0.0
C297 C 0.20545 0.32033 0.19419 0.0
C298 C 0.20207 0.33051 0.19666 0.0
C299 C 0.19215 0.3309 0.18669 0.0
H300 H 0.71005 0.87289 0.18221 0.0
H301 H 0.71063 0.89036 0.2008 0.0
H302 H 0.67047 0.8799 0.18406 0.0
H303 H 0.67004 0.86254 0.16534 0.0
H304 H 0.69285 0.84617 0.18396 0.0
H305 H 0.70344 0.88156 0.1439 0.0
H306 H 0.7006 0.89832 0.12773 0.0
H307 H 0.66429 0.86628 0.10497 0.0
H308 H 0.66665 0.84956 0.1218 0.0
H309 H 0.66553 0.81602 0.12349 0.0
H310 H 0.66241 0.79661 0.10691 0.0
H311 H 0.70013 0.80185 0.12652 0.0
H312 H 0.70354 0.82175 0.14238 0.0
H313 H 0.68336 0.84146 0.12212 0.0
H314 H 0.67006 0.80705 0.16511 0.0
H315 H 0.67055 0.79011 0.18367 0.0
H316 H 0.71064 0.81975 0.20056 0.0
H317 H 0.71006 0.83665 0.18204 0.0
C318 C 0.69004 0.86645 0.1723 0.0
C319 C 0.70141 0.87443 0.18246 0.0
C320 C 0.7017 0.88438 0.19314 0.0
C321 C 0.69057 0.88651 0.19399 0.0
C322 C 0.67929 0.87866 0.18355 0.0
C323 C 0.67901 0.86871 0.17286 0.0
C324 C 0.68944 0.85525 0.16194 0.0
C325 C 0.69099 0.84526 0.17037 0.0
C326 C 0.68663 0.8539 0.14427 0.0
C327 C 0.68514 0.86423 0.13435 0.0
C328 C 0.6947 0.87811 0.13572 0.0
C329 C 0.69315 0.88769 0.12639 0.0
C330 C 0.68224 0.88356 0.11513 0.0
C331 C 0.67283 0.86971 0.1135 0.0
C332 C 0.67421 0.86016 0.1231 0.0
C333 C 0.6847 0.82032 0.13435 0.0
C334 C 0.67318 0.81305 0.12415 0.0
C335 C 0.67133 0.80183 0.1148 0.0
C336 C 0.68095 0.79754 0.11544 0.0
C337 C 0.69256 0.8049 0.12558 0.0
C338 C 0.69444 0.81621 0.13484 0.0
C339 C 0.68651 0.83227 0.14423 0.0
C340 C 0.68526 0.84243 0.1357 0.0
C341 C 0.68941 0.83372 0.16186 0.0
C342 C 0.69007 0.82311 0.17208 0.0
C343 C 0.67905 0.80983 0.17259 0.0
C344 C 0.67935 0.80015 0.1832 0.0
C345 C 0.69062 0.80358 0.19364 0.0
C346 C 0.70173 0.81682 0.19287 0.0
C347 C 0.70143 0.82648 0.18223 0.0
H348 H 0.13288 0.83633 0.18172 0.0
H349 H 0.11547 0.81906 0.1999 0.0
H350 H 0.12515 0.7895 0.1801 0.0
H351 H 0.14298 0.80699 0.1626 0.0
H352 H 0.1591 0.84625 0.18281 0.0
H353 H 0.12473 0.82241 0.14091 0.0
H354 H 0.10814 0.80278 0.12481 0.0
H355 H 0.14031 0.797 0.10507 0.0
H356 H 0.1567 0.81616 0.12189 0.0
H357 H 0.19187 0.85053 0.12526 0.0
H358 H 0.21146 0.86756 0.10936 0.0
H359 H 0.20149 0.89804 0.12413 0.0
H360 H 0.18182 0.88092 0.13992 0.0
H361 H 0.16494 0.8417 0.12112 0.0
H362 H 0.19813 0.86217 0.16537 0.0
H363 H 0.21496 0.87972 0.18395 0.0
H364 H 0.18558 0.89116 0.19892 0.0
H365 H 0.16882 0.87368 0.18015 0.0
C366 C 0.13919 0.82297 0.17066 0.0
C367 C 0.13122 0.82612 0.18126 0.0
C368 C 0.12118 0.81618 0.19155 0.0
C369 C 0.11886 0.80285 0.19149 0.0
C370 C 0.12673 0.79968 0.18065 0.0
C371 C 0.13684 0.80965 0.17045 0.0
C372 C 0.15045 0.83378 0.16059 0.0
C373 C 0.1602 0.84535 0.16924 0.0
C374 C 0.15213 0.83244 0.14296 0.0
C375 C 0.14198 0.82069 0.13284 0.0
C376 C 0.12819 0.81681 0.13328 0.0
C377 C 0.11872 0.80566 0.12388 0.0
C378 C 0.12284 0.79822 0.11364 0.0
C379 C 0.13669 0.80229 0.11303 0.0
C380 C 0.14613 0.81337 0.12252 0.0
C381 C 0.18543 0.86446 0.13385 0.0
C382 C 0.1939 0.86088 0.12506 0.0
C383 C 0.20514 0.87063 0.11607 0.0
C384 C 0.20804 0.88415 0.11552 0.0
C385 C 0.19946 0.8877 0.12422 0.0
C386 C 0.18829 0.87795 0.13334 0.0
C387 C 0.17353 0.85404 0.1434 0.0
C388 C 0.16368 0.84259 0.13465 0.0
C389 C 0.17177 0.85542 0.16095 0.0
C390 C 0.18225 0.86668 0.17128 0.0
C391 C 0.19537 0.86859 0.17245 0.0
C392 C 0.20494 0.87854 0.18318 0.0
C393 C 0.20158 0.8868 0.19293 0.0
C394 C 0.18851 0.88506 0.19145 0.0
C395 C 0.17891 0.87503 0.18081 0.0
H396 H 0.29763 0.16809 0.85284 0.0
H397 H 0.29711 0.18496 0.83424 0.0
H398 H 0.33753 0.21436 0.85039 0.0
H399 H 0.3379 0.19745 0.86913 0.0
H400 H 0.3145 0.1582 0.85087 0.0
H401 H 0.3047 0.18357 0.89102 0.0
H402 H 0.30785 0.20333 0.90713 0.0
H403 H 0.34422 0.20737 0.92943 0.0
H404 H 0.34153 0.18809 0.91266 0.0
H405 H 0.34218 0.15481 0.9104 0.0
H406 H 0.34489 0.1381 0.92669 0.0
H407 H 0.30568 0.10671 0.90944 0.0
H408 H 0.30303 0.1235 0.89315 0.0
H409 H 0.32459 0.1633 0.91256 0.0
H410 H 0.33688 0.14136 0.86945 0.0
H411 H 0.33593 0.12369 0.85088 0.0
H412 H 0.2958 0.11376 0.8347 0.0
H413 H 0.29689 0.13153 0.85319 0.0
C414 C 0.31777 0.18151 0.86246 0.0
C415 C 0.30634 0.1782 0.85245 0.0
C416 C 0.30608 0.18785 0.84177 0.0
C417 C 0.3173 0.20101 0.84075 0.0
C418 C 0.32865 0.20438 0.85103 0.0
C419 C 0.32889 0.19471 0.86173 0.0
C420 C 0.31832 0.1709 0.87282 0.0
C421 C 0.31649 0.15922 0.86443 0.0
C422 C 0.3213 0.17246 0.89045 0.0
C423 C 0.323 0.1844 0.90033 0.0
C424 C 0.31352 0.18884 0.89908 0.0
C425 C 0.31526 0.20008 0.90838 0.0
C426 C 0.32627 0.20684 0.9195 0.0
C427 C 0.3356 0.20227 0.92101 0.0
C428 C 0.33404 0.19124 0.91144 0.0
C429 C 0.32246 0.14043 0.90041 0.0
C430 C 0.33414 0.14434 0.91018 0.0
C431 C 0.33565 0.13477 0.91954 0.0
C432 C 0.3255 0.12105 0.9194 0.0
C433 C 0.31378 0.11715 0.90966 0.0
C434 C 0.31225 0.12675 0.90033 0.0
C435 C 0.32097 0.15073 0.89053 0.0
C436 C 0.32256 0.16231 0.89901 0.0
C437 C 0.31791 0.14919 0.87295 0.0
C438 C 0.31692 0.13773 0.8628 0.0
C439 C 0.32779 0.13522 0.86213 0.0
C440 C 0.32722 0.12509 0.8515 0.0
C441 C 0.3158 0.11732 0.84123 0.0
C442 C 0.30483 0.11968 0.84223 0.0
C443 C 0.30541 0.1298 0.85285 0.0
H444 H 0.83771 0.13234 0.85162 0.0
H445 H 0.82058 0.11525 0.83299 0.0
H446 H 0.79071 0.12412 0.85369 0.0
H447 H 0.80804 0.14165 0.87165 0.0
H448 H 0.84735 0.15854 0.85136 0.0
H449 H 0.82443 0.12355 0.89314 0.0
H450 H 0.80512 0.10649 0.90937 0.0
H451 H 0.79706 0.13751 0.92779 0.0
H452 H 0.8164 0.15449 0.91164 0.0
H453 H 0.8507 0.18921 0.91145 0.0
H454 H 0.86737 0.20865 0.92776 0.0
H455 H 0.89898 0.20138 0.90962 0.0
H456 H 0.88224 0.18195 0.89328 0.0
H457 H 0.84255 0.16316 0.91329 0.0
H458 H 0.86294 0.19729 0.86992 0.0
H459 H 0.88038 0.21448 0.85154 0.0
H460 H 0.892 0.18552 0.83521 0.0
H461 H 0.87466 0.16842 0.85379 0.0
C462 C 0.82417 0.13823 0.86318 0.0
C463 C 0.82745 0.13057 0.85219 0.0
C464 C 0.8176 0.1207 0.84164 0.0
C465 C 0.80422 0.11827 0.84181 0.0
C466 C 0.80092 0.12581 0.85305 0.0
C467 C 0.8108 0.13573 0.86353 0.0
C468 C 0.83491 0.14939 0.87345 0.0
C469 C 0.84642 0.15939 0.86497 0.0
C470 C 0.83351 0.15074 0.89114 0.0
C471 C 0.82183 0.14031 0.90105 0.0
C472 C 0.81845 0.12666 0.9006 0.0
C473 C 0.80739 0.11691 0.90987 0.0
C474 C 0.79952 0.12061 0.9199 0.0
C475 C 0.80301 0.13431 0.92042 0.0
C476 C 0.81405 0.14404 0.91114 0.0
C477 C 0.8652 0.18416 0.901 0.0
C478 C 0.86122 0.19177 0.91102 0.0
C479 C 0.87076 0.20286 0.9204 0.0
C480 C 0.88453 0.20658 0.92003 0.0
C481 C 0.8885 0.19892 0.91002 0.0
C482 C 0.87893 0.18779 0.90066 0.0
C483 C 0.85494 0.17232 0.89115 0.0
C484 C 0.84353 0.1622 0.89971 0.0
C485 C 0.85637 0.17089 0.87351 0.0
C486 C 0.86756 0.1816 0.86332 0.0
C487 C 0.86939 0.19471 0.86258 0.0
C488 C 0.87927 0.20448 0.85197 0.0
C489 C 0.88755 0.20135 0.8419 0.0
C490 C 0.88589 0.18829 0.84294 0.0
C491 C 0.87594 0.17849 0.85347 0.0
H492 H 0.81774 0.66577 0.84596 0.0
H493 H 0.80105 0.66702 0.82786 0.0
H494 H 0.808 0.70322 0.85426 0.0
H495 H 0.82451 0.70168 0.87263 0.0
H496 H 0.84425 0.68374 0.84881 0.0
H497 H 0.80557 0.66404 0.8843 0.0
H498 H 0.7862 0.66185 0.90027 0.0
H499 H 0.81316 0.69512 0.93254 0.0
H500 H 0.83258 0.69756 0.91619 0.0
H501 H 0.86962 0.69853 0.9152 0.0
H502 H 0.88623 0.69606 0.93221 0.0
H503 H 0.87774 0.66041 0.90333 0.0
H504 H 0.86093 0.66273 0.88672 0.0
H505 H 0.84252 0.68155 0.91178 0.0
H506 H 0.88145 0.70075 0.87398 0.0
H507 H 0.89969 0.70158 0.85655 0.0
H508 H 0.87031 0.6665 0.82861 0.0
H509 H 0.85224 0.66553 0.84629 0.0
C510 C 0.82236 0.68361 0.86066 0.0
C511 C 0.81564 0.67395 0.84788 0.0
C512 C 0.80615 0.67473 0.83747 0.0
C513 C 0.80325 0.6853 0.83947 0.0
C514 C 0.80987 0.69487 0.85247 0.0
C515 C 0.81934 0.69404 0.86295 0.0
C516 C 0.8329 0.683 0.87108 0.0
C517 C 0.8438 0.68313 0.86259 0.0
C518 C 0.83239 0.68244 0.88908 0.0
C519 C 0.82057 0.68115 0.89878 0.0
C520 C 0.80735 0.67107 0.89458 0.0
C521 C 0.79626 0.66978 0.90376 0.0
C522 C 0.79816 0.67837 0.91759 0.0
C523 C 0.8114 0.68833 0.92198 0.0
C524 C 0.82249 0.68973 0.91264 0.0
C525 C 0.86411 0.6809 0.89957 0.0
C526 C 0.87134 0.69018 0.91256 0.0
C527 C 0.88091 0.68881 0.92218 0.0
C528 C 0.88334 0.67805 0.91912 0.0
C529 C 0.87604 0.66874 0.90614 0.0
C530 C 0.86651 0.67014 0.89651 0.0
C531 C 0.85385 0.68227 0.88947 0.0
C532 C 0.84301 0.68229 0.89802 0.0
C533 C 0.85426 0.68275 0.87148 0.0
C534 C 0.86548 0.68302 0.86152 0.0
C535 C 0.87898 0.69313 0.86425 0.0
C536 C 0.88937 0.69367 0.85417 0.0
C537 C 0.88646 0.6841 0.84119 0.0
C538 C 0.87294 0.67391 0.83864 0.0
C539 C 0.86258 0.67341 0.84865 0.0
H540 H 0.8234 0.675 0.52104 0.0
H541 H 0.80596 0.67503 0.53904 0.0
H542 H 0.77545 0.63933 0.51318 0.0
H543 H 0.79307 0.63918 0.4954 0.0
H544 H 0.83088 0.65628 0.51899 0.0
H545 H 0.81445 0.6773 0.48044 0.0
H546 H 0.79761 0.67978 0.4642 0.0
H547 H 0.786 0.64203 0.4384 0.0
H548 H 0.80315 0.63981 0.45448 0.0
H549 H 0.84153 0.64041 0.45275 0.0
H550 H 0.86075 0.64312 0.43574 0.0
H551 H 0.88748 0.67885 0.46467 0.0
H552 H 0.86823 0.6763 0.48126 0.0
H553 H 0.8311 0.65709 0.45595 0.0
H554 H 0.8505 0.63818 0.49408 0.0
H555 H 0.86772 0.6371 0.51152 0.0
H556 H 0.87386 0.67245 0.5393 0.0
H557 H 0.85695 0.67367 0.52159 0.0
C558 C 0.80955 0.65713 0.50682 0.0
C559 C 0.81296 0.6672 0.5192 0.0
C560 C 0.80295 0.66726 0.52939 0.0
C561 C 0.7893 0.65721 0.5275 0.0
C562 C 0.78588 0.64716 0.51502 0.0
C563 C 0.79592 0.64713 0.50476 0.0
C564 C 0.82039 0.65689 0.49658 0.0
C565 C 0.831 0.65659 0.5052 0.0
C566 C 0.82035 0.65694 0.47859 0.0
C567 C 0.80997 0.6583 0.4688 0.0
C568 C 0.80821 0.66951 0.47137 0.0
C569 C 0.79852 0.67088 0.46209 0.0
C570 C 0.79034 0.66107 0.45001 0.0
C571 C 0.79219 0.64987 0.44742 0.0
C572 C 0.80196 0.64854 0.45666 0.0
C573 C 0.85344 0.65807 0.4684 0.0
C574 C 0.85154 0.64882 0.45542 0.0
C575 C 0.86255 0.65033 0.44579 0.0
C576 C 0.87566 0.6612 0.44884 0.0
C577 C 0.87751 0.67044 0.46186 0.0
C578 C 0.86652 0.66891 0.47149 0.0
C579 C 0.84174 0.6567 0.4784 0.0
C580 C 0.83093 0.65665 0.46973 0.0
C581 C 0.84168 0.6565 0.4964 0.0
C582 C 0.85248 0.65606 0.50645 0.0
C583 C 0.85569 0.64579 0.50378 0.0
C584 C 0.86544 0.64512 0.51386 0.0
C585 C 0.87217 0.65469 0.5268 0.0
C586 C 0.86901 0.66502 0.52931 0.0
C587 C 0.85926 0.66567 0.51927 0.0
H588 H 0.37508 0.2062 0.51638 0.0
H589 H 0.37572 0.22382 0.53475 0.0
H590 H 0.33557 0.2133 0.51796 0.0
H591 H 0.33508 0.1958 0.49947 0.0
H592 H 0.35776 0.1794 0.51831 0.0
H593 H 0.36849 0.21471 0.47792 0.0
H594 H 0.36548 0.23143 0.46188 0.0
H595 H 0.329 0.19932 0.43952 0.0
H596 H 0.33155 0.18265 0.45619 0.0
H597 H 0.33017 0.14885 0.4583 0.0
H598 H 0.3268 0.129 0.44242 0.0
H599 H 0.3648 0.13471 0.46161 0.0
H600 H 0.3684 0.15494 0.47686 0.0
H601 H 0.34827 0.17451 0.45645 0.0
H602 H 0.33406 0.14066 0.50019 0.0
H603 H 0.33412 0.12329 0.5184 0.0
H604 H 0.37492 0.15174 0.53424 0.0
H605 H 0.37487 0.16901 0.51582 0.0
C606 C 0.35508 0.19973 0.50646 0.0
C607 C 0.36646 0.20775 0.51658 0.0
C608 C 0.36678 0.21779 0.52713 0.0
C609 C 0.35568 0.21996 0.52789 0.0
C610 C 0.34437 0.21205 0.51752 0.0
C611 C 0.34406 0.20201 0.50696 0.0
C612 C 0.35445 0.18848 0.49619 0.0
C613 C 0.35592 0.17847 0.50471 0.0
C614 C 0.35163 0.18707 0.47851 0.0
C615 C 0.35013 0.19737 0.46855 0.0
C616 C 0.35969 0.21124 0.46983 0.0
C617 C 0.35804 0.2208 0.46058 0.0
C618 C 0.34702 0.21663 0.44949 0.0
C619 C 0.33763 0.20277 0.44791 0.0
C620 C 0.33911 0.19325 0.45742 0.0
C621 C 0.34947 0.15334 0.46894 0.0
C622 C 0.33783 0.14589 0.459 0.0
C623 C 0.33585 0.13444 0.45005 0.0
C624 C 0.34547 0.13016 0.45082 0.0
C625 C 0.35723 0.13776 0.4606 0.0
C626 C 0.35923 0.14925 0.4695 0.0
C627 C 0.35135 0.16537 0.47865 0.0
C628 C 0.35019 0.17554 0.47002 0.0
C629 C 0.3542 0.16686 0.49628 0.0
C630 C 0.3545 0.1561 0.50655 0.0
C631 C 0.34309 0.14309 0.50741 0.0
C632 C 0.34309 0.13322 0.51792 0.0
C633 C 0.35452 0.13615 0.52778 0.0
C634 C 0.36602 0.14912 0.52667 0.0
C635 C 0.36597 0.15902 0.51624 0.0
H636 H 0.80104 0.16881 0.5159 0.0
H637 H 0.78369 0.15152 0.53412 0.0
H638 H 0.79195 0.12156 0.5123 0.0
H639 H 0.80972 0.13905 0.49471 0.0
H640 H 0.82735 0.1779 0.51596 0.0
H641 H 0.79161 0.15588 0.47431 0.0
H642 H 0.77442 0.13657 0.4582 0.0
H643 H 0.80539 0.12882 0.43873 0.0
H644 H 0.82249 0.14819 0.45471 0.0
H645 H 0.85565 0.18264 0.45219 0.0
H646 H 0.87452 0.19969 0.43537 0.0
H647 H 0.87044 0.23125 0.46014 0.0
H648 H 0.85108 0.21416 0.47637 0.0
H649 H 0.83073 0.17458 0.4535 0.0
H650 H 0.86636 0.19557 0.49486 0.0
H651 H 0.88379 0.21324 0.51265 0.0
H652 H 0.85369 0.22122 0.53464 0.0
H653 H 0.8365 0.20402 0.51623 0.0
C654 C 0.80662 0.15524 0.5038 0.0
C655 C 0.79908 0.15851 0.51501 0.0
C656 C 0.78907 0.14857 0.52532 0.0
C657 C 0.78637 0.13511 0.52468 0.0
C658 C 0.79383 0.13183 0.51328 0.0
C659 C 0.8039 0.1418 0.50303 0.0
C660 C 0.81779 0.16604 0.49362 0.0
C661 C 0.82799 0.17731 0.50224 0.0
C662 C 0.81884 0.16502 0.47581 0.0
C663 C 0.80834 0.15344 0.46583 0.0
C664 C 0.79468 0.14998 0.46661 0.0
C665 C 0.78486 0.13892 0.45741 0.0
C666 C 0.7885 0.13111 0.44715 0.0
C667 C 0.80223 0.13471 0.44627 0.0
C668 C 0.81203 0.14577 0.45547 0.0
C669 C 0.85198 0.19705 0.46577 0.0
C670 C 0.85869 0.1932 0.45392 0.0
C671 C 0.86948 0.20294 0.44433 0.0
C672 C 0.87394 0.21676 0.44653 0.0
C673 C 0.86727 0.22066 0.45834 0.0
C674 C 0.85627 0.21089 0.46769 0.0
C675 C 0.8404 0.18653 0.47583 0.0
C676 C 0.8301 0.17527 0.46719 0.0
C677 C 0.83935 0.18749 0.49369 0.0
C678 C 0.85012 0.19855 0.50404 0.0
C679 C 0.86357 0.20129 0.50329 0.0
C680 C 0.8735 0.21131 0.51364 0.0
C681 C 0.87018 0.21868 0.52514 0.0
C682 C 0.8567 0.21593 0.52578 0.0
C683 C 0.84681 0.20599 0.51536 0.0
H684 H 0.97275 0.50534 0.18159 0.0
H685 H 0.97208 0.52238 0.16342 0.0
H686 H 0.00908 0.55336 0.18622 0.0
H687 H 0.01006 0.53621 0.20396 0.0
H688 H 0.98967 0.49688 0.18214 0.0
H689 H 0.97686 0.52003 0.22249 0.0
H690 H 0.97883 0.53917 0.23903 0.0
H691 H 0.01496 0.54389 0.26293 0.0
H692 H 0.01345 0.52528 0.24578 0.0
H693 H 0.01519 0.49258 0.24321 0.0
H694 H 0.01784 0.47577 0.25929 0.0
H695 H 0.98014 0.4441 0.23856 0.0
H696 H 0.97726 0.46107 0.22312 0.0
H697 H 0.997 0.50029 0.24444 0.0
H698 H 0.01164 0.4799 0.20152 0.0
H699 H 0.0112 0.46231 0.18324 0.0
H700 H 0.9715 0.45238 0.16525 0.0
H701 H 0.97208 0.47006 0.18343 0.0
C702 C 0.99139 0.51946 0.19431 0.0
C703 C 0.98075 0.51579 0.1827 0.0
C704 C 0.98035 0.52552 0.17233 0.0
C705 C 0.99051 0.53917 0.17345 0.0
C706 C 1.00104 0.54292 0.18524 0.0
C707 C 1.00157 0.53313 0.19542 0.0
C708 C 0.9921 0.50883 0.2045 0.0
C709 C 0.99105 0.49755 0.19582 0.0
C710 C 0.99427 0.50987 0.22234 0.0
C711 C 0.99513 0.52129 0.23261 0.0
C712 C 0.98535 0.52531 0.23105 0.0
C713 C 0.98642 0.53619 0.24057 0.0
C714 C 0.99704 0.54297 0.25223 0.0
C715 C 0.00663 0.53877 0.25409 0.0
C716 C 0.00574 0.52811 0.24431 0.0
C717 C 0.9961 0.47811 0.23179 0.0
C718 C 0.00744 0.48203 0.24221 0.0
C719 C 0.00901 0.47236 0.25128 0.0
C720 C 0.99926 0.45853 0.25015 0.0
C721 C 0.9878 0.45465 0.23986 0.0
C722 C 0.98621 0.46434 0.23085 0.0
C723 C 0.99466 0.48849 0.22202 0.0
C724 C 0.99555 0.49967 0.23078 0.0
C725 C 0.99237 0.48743 0.20426 0.0
C726 C 0.99186 0.47626 0.19393 0.0
C727 C 1.00277 0.47381 0.19381 0.0
C728 C 1.00249 0.46372 0.18336 0.0
C729 C 0.99132 0.45594 0.17273 0.0
C730 C 0.98034 0.45831 0.17307 0.0
C731 C 0.98063 0.46838 0.18352 0.0
H732 H 0.5035 0.46743 0.18297 0.0
H733 H 0.48637 0.45014 0.16456 0.0
H734 H 0.456 0.45756 0.18689 0.0
H735 H 0.47333 0.47534 0.20458 0.0
H736 H 0.51234 0.49358 0.1834 0.0
H737 H 0.49011 0.45746 0.22483 0.0
H738 H 0.4708 0.44028 0.241 0.0
H739 H 0.46314 0.4713 0.26049 0.0
H740 H 0.48247 0.48837 0.24445 0.0
H741 H 0.51653 0.52134 0.24745 0.0
H742 H 0.53338 0.54021 0.26442 0.0
H743 H 0.56529 0.53675 0.2396 0.0
H744 H 0.54839 0.5174 0.22319 0.0
H745 H 0.50874 0.4965 0.24588 0.0
H746 H 0.52919 0.53231 0.20487 0.0
H747 H 0.54668 0.55009 0.18725 0.0
H748 H 0.55577 0.52081 0.16511 0.0
H749 H 0.5387 0.50324 0.1833 0.0
C750 C 0.48972 0.47263 0.19531 0.0
C751 C 0.49314 0.46532 0.18392 0.0
C752 C 0.48329 0.45532 0.17349 0.0
C753 C 0.46975 0.45239 0.17422 0.0
C754 C 0.46633 0.45963 0.18581 0.0
C755 C 0.47621 0.4697 0.19614 0.0
C756 C 0.50042 0.48379 0.20562 0.0
C757 C 0.51169 0.49411 0.19711 0.0
C758 C 0.49932 0.48473 0.22344 0.0
C759 C 0.4877 0.4742 0.23333 0.0
C760 C 0.48423 0.46054 0.23254 0.0
C761 C 0.47317 0.45072 0.24177 0.0
C762 C 0.46541 0.4544 0.25208 0.0
C763 C 0.469 0.46812 0.25292 0.0
C764 C 0.48004 0.4779 0.2437 0.0
C765 C 0.53112 0.51797 0.23381 0.0
C766 C 0.52713 0.52451 0.24573 0.0
C767 C 0.53676 0.53531 0.25542 0.0
C768 C 0.55062 0.53994 0.25326 0.0
C769 C 0.55466 0.53345 0.24137 0.0
C770 C 0.545 0.52244 0.23192 0.0
C771 C 0.52072 0.50639 0.22365 0.0
C772 C 0.50949 0.49597 0.23218 0.0
C773 C 0.52175 0.50547 0.20578 0.0
C774 C 0.53271 0.51645 0.19556 0.0
C775 C 0.53511 0.52977 0.19644 0.0
C776 C 0.54503 0.53991 0.1862 0.0
C777 C 0.55265 0.53691 0.17472 0.0
C778 C 0.55027 0.52356 0.17397 0.0
C779 C 0.54041 0.51346 0.18426 0.0
H780 H 0.53609 0.03381 0.18303 0.0
H781 H 0.55413 0.03485 0.16519 0.0
H782 H 0.54672 0.99665 0.18591 0.0
H783 H 0.52824 0.99535 0.20304 0.0
H784 H 0.51004 0.01631 0.18218 0.0
H785 H 0.54492 0.02971 0.22473 0.0
H786 H 0.56219 0.02791 0.24105 0.0
H787 H 0.53181 0.98841 0.25886 0.0
H788 H 0.5146 0.99033 0.24263 0.0
H789 H 0.47958 0.98964 0.24285 0.0
H790 H 0.45998 0.98679 0.25886 0.0
H791 H 0.46599 0.02464 0.23863 0.0
H792 H 0.48597 0.0277 0.22323 0.0
H793 H 0.50537 0.00763 0.24425 0.0
H794 H 0.47072 0.99356 0.20204 0.0
H795 H 0.45331 0.99368 0.18414 0.0
H796 H 0.48292 0.03265 0.16397 0.0
H797 H 0.50011 0.03274 0.18252 0.0
C798 C 0.53086 0.01457 0.19452 0.0
C799 C 0.53836 0.02566 0.18374 0.0
C800 C 0.54878 0.02631 0.17366 0.0
C801 C 0.55194 0.01585 0.1741 0.0
C802 C 0.54449 0.00481 0.18507 0.0
C803 C 0.53401 0.00414 0.19506 0.0
C804 C 0.51932 0.01362 0.20452 0.0
C805 C 0.50914 0.01468 0.19582 0.0
C806 C 0.51793 0.01103 0.22224 0.0
C807 C 0.52846 0.01011 0.23233 0.0
C808 C 0.54199 0.02064 0.2321 0.0
C809 C 0.55187 0.01959 0.24142 0.0
C810 C 0.54841 0.00801 0.25127 0.0
C811 C 0.53481 0.99755 0.25162 0.0
C812 C 0.52496 0.99861 0.24229 0.0
C813 C 0.4842 0.00881 0.23167 0.0
C814 C 0.47674 0.99737 0.24195 0.0
C815 C 0.46543 0.9957 0.25098 0.0
C816 C 0.46131 0.00543 0.24996 0.0
C817 C 0.46892 0.01698 0.23983 0.0
C818 C 0.48027 0.01868 0.23086 0.0
C819 C 0.49609 0.01038 0.2219 0.0
C820 C 0.50633 0.00941 0.23064 0.0
C821 C 0.49749 0.01296 0.20418 0.0
C822 C 0.48672 0.01322 0.1938 0.0
C823 C 0.47341 0.00225 0.19401 0.0
C824 C 0.46349 0.00226 0.18359 0.0
C825 C 0.46669 0.01316 0.17255 0.0
C826 C 0.48002 0.02417 0.17247 0.0
C827 C 0.48991 0.02419 0.18297 0.0
H828 H 0.49186 0.01103 0.85721 0.0
H829 H 0.47385 0.01052 0.87456 0.0
H830 H 0.44413 0.97626 0.84573 0.0
H831 H 0.4623 0.97659 0.82867 0.0
H832 H 0.49941 0.99257 0.85411 0.0
H833 H 0.48324 0.0145 0.81704 0.0
H834 H 0.46643 0.01715 0.80092 0.0
H835 H 0.45787 0.98204 0.77077 0.0
H836 H 0.4744 0.97917 0.7874 0.0
H837 H 0.51083 0.97929 0.78638 0.0
H838 H 0.53008 0.9813 0.77007 0.0
H839 H 0.5575 0.01399 0.80273 0.0
H840 H 0.53828 0.01226 0.81865 0.0
H841 H 0.50141 0.99569 0.7912 0.0
H842 H 0.51924 0.97486 0.8293 0.0
H843 H 0.5363 0.97345 0.84673 0.0
H844 H 0.54241 0.00847 0.87527 0.0
H845 H 0.52565 0.01001 0.8576 0.0
C846 C 0.47844 0.9939 0.84157 0.0
C847 C 0.48147 0.0034 0.85461 0.0
C848 C 0.47114 0.00317 0.86442 0.0
C849 C 0.45753 0.99339 0.86148 0.0
C850 C 0.4545 0.98387 0.84839 0.0
C851 C 0.46487 0.98412 0.83854 0.0
C852 C 0.48959 0.99407 0.83155 0.0
C853 C 0.49992 0.99337 0.84035 0.0
C854 C 0.49008 0.99483 0.81358 0.0
C855 C 0.47996 0.99652 0.80359 0.0
C856 C 0.47764 0.00728 0.80708 0.0
C857 C 0.46813 0.00887 0.79771 0.0
C858 C 0.46079 0.99981 0.78452 0.0
C859 C 0.46321 0.9891 0.78097 0.0
C860 C 0.47273 0.98751 0.79037 0.0
C861 C 0.52307 0.99545 0.80398 0.0
C862 C 0.52098 0.98692 0.79001 0.0
C863 C 0.53198 0.98808 0.78069 0.0
C864 C 0.54529 0.99772 0.78523 0.0
C865 C 0.54737 0.0063 0.79913 0.0
C866 C 0.53637 0.00528 0.80828 0.0
C867 C 0.51134 0.99429 0.81378 0.0
C868 C 0.50086 0.99476 0.80494 0.0
C869 C 0.51077 0.99347 0.83177 0.0
C870 C 0.52123 0.9926 0.84206 0.0
C871 C 0.52436 0.9823 0.83921 0.0
C872 C 0.53403 0.98144 0.84927 0.0
C873 C 0.54075 0.99087 0.86236 0.0
C874 C 0.53758 1.00117 0.86514 0.0
C875 C 0.52791 1.002 0.85514 0.0
H876 H 0.03459 0.5353 0.85073 0.0
H877 H 0.03511 0.55299 0.86886 0.0
H878 H 0.99489 0.54212 0.85195 0.0
H879 H 0.9945 0.52454 0.83374 0.0
H880 H 0.01775 0.50858 0.8526 0.0
H881 H 0.0286 0.54319 0.81107 0.0
H882 H 0.0258 0.56004 0.79523 0.0
H883 H 0.98758 0.52836 0.77573 0.0
H884 H 0.99013 0.51168 0.79226 0.0
H885 H 0.99008 0.47745 0.79277 0.0
H886 H 0.98739 0.45804 0.77646 0.0
H887 H 0.02598 0.465 0.79512 0.0
H888 H 0.02889 0.48481 0.81078 0.0
H889 H 0.0075 0.50329 0.79092 0.0
H890 H 0.99519 0.46929 0.83417 0.0
H891 H 0.9962 0.45254 0.85253 0.0
H892 H 0.03639 0.48261 0.86859 0.0
H893 H 0.03525 0.49933 0.85032 0.0
C894 C 0.01455 0.52865 0.84077 0.0
C895 C 0.02592 0.53679 0.85086 0.0
C896 C 0.02617 0.54686 0.86127 0.0
C897 C 0.01502 0.54897 0.86191 0.0
C898 C 0.00373 0.54092 0.85159 0.0
C899 C 0.00348 0.53084 0.84118 0.0
C900 C 0.014 0.5174 0.83057 0.0
C901 C 0.01576 0.50755 0.83903 0.0
C902 C 0.011 0.51587 0.81296 0.0
C903 C 0.00949 0.52616 0.80307 0.0
C904 C 0.01953 0.53989 0.80355 0.0
C905 C 0.01799 0.54951 0.7943 0.0
C906 C 0.00644 0.54559 0.7842 0.0
C907 C 0.99649 0.5318 0.78358 0.0
C908 C 0.998 0.52221 0.79291 0.0
C909 C 0.00962 0.48254 0.80317 0.0
C910 C 0.99801 0.47485 0.79327 0.0
C911 C 0.99642 0.46365 0.78407 0.0
C912 C 0.00642 0.45986 0.78454 0.0
C913 C 0.01812 0.46767 0.79433 0.0
C914 C 0.01973 0.47892 0.80347 0.0
C915 C 0.01116 0.4944 0.81299 0.0
C916 C 0.0096 0.50437 0.80445 0.0
C917 C 0.01425 0.49602 0.83057 0.0
C918 C 0.01518 0.48556 0.84078 0.0
C919 C 0.0043 0.47222 0.84144 0.0
C920 C 0.0049 0.46264 0.85194 0.0
C921 C 0.01637 0.46623 0.86207 0.0
C922 C 0.02734 0.47955 0.86115 0.0
C923 C 0.02673 0.48911 0.85065 0.0
H924 H 0.46674 0.50387 0.84824 0.0
H925 H 0.44881 0.48734 0.86663 0.0
H926 H 0.45821 0.45676 0.85025 0.0
H927 H 0.47602 0.47331 0.83176 0.0
H928 H 0.4935 0.51249 0.85038 0.0
H929 H 0.4584 0.48986 0.80824 0.0
H930 H 0.44125 0.47046 0.79221 0.0
H931 H 0.47198 0.46155 0.77497 0.0
H932 H 0.48904 0.48097 0.79092 0.0
H933 H 0.52358 0.51509 0.78951 0.0
H934 H 0.54309 0.53155 0.77317 0.0
H935 H 0.53757 0.56379 0.79325 0.0
H936 H 0.51766 0.54717 0.80894 0.0
H937 H 0.49797 0.50731 0.78851 0.0
H938 H 0.53267 0.52804 0.83014 0.0
H939 H 0.55036 0.54535 0.84796 0.0
H940 H 0.52146 0.55571 0.86835 0.0
H941 H 0.50398 0.53882 0.84988 0.0
C942 C 0.47267 0.48982 0.83853 0.0
C943 C 0.46486 0.49357 0.84852 0.0
C944 C 0.45465 0.48412 0.85908 0.0
C945 C 0.45208 0.47072 0.85997 0.0
C946 C 0.45976 0.46693 0.8497 0.0
C947 C 0.46998 0.47639 0.83913 0.0
C948 C 0.48415 0.50016 0.82831 0.0
C949 C 0.49437 0.51152 0.83678 0.0
C950 C 0.4855 0.49856 0.81069 0.0
C951 C 0.47501 0.48683 0.80091 0.0
C952 C 0.46142 0.48368 0.80109 0.0
C953 C 0.45162 0.47257 0.79193 0.0
C954 C 0.45522 0.46443 0.78228 0.0
C955 C 0.46886 0.4677 0.78204 0.0
C956 C 0.47864 0.47879 0.79121 0.0
C957 C 0.5192 0.52987 0.80061 0.0
C958 C 0.5265 0.52569 0.7903 0.0
C959 C 0.53776 0.53515 0.78109 0.0
C960 C 0.542 0.54904 0.78197 0.0
C961 C 0.53455 0.55318 0.79214 0.0
C962 C 0.52324 0.54369 0.80129 0.0
C963 C 0.50734 0.51973 0.81058 0.0
C964 C 0.49706 0.50839 0.80208 0.0
C965 C 0.50604 0.52122 0.82826 0.0
C966 C 0.517 0.53221 0.83849 0.0
C967 C 0.5302 0.53422 0.83818 0.0
C968 C 0.54028 0.54403 0.84856 0.0
C969 C 0.53736 0.55193 0.85966 0.0
C970 C 0.52416 0.54998 0.8598 0.0
C971 C 0.5141 0.54022 0.84935 0.0
H972 H 0.63254 0.83642 0.51988 0.0
H973 H 0.63259 0.85377 0.50153 0.0
H974 H 0.6736 0.88189 0.51695 0.0
H975 H 0.67355 0.86444 0.53509 0.0
H976 H 0.64914 0.82565 0.51707 0.0
H977 H 0.6395 0.85045 0.55868 0.0
H978 H 0.64306 0.87042 0.57446 0.0
H979 H 0.68087 0.87564 0.59374 0.0
H980 H 0.67757 0.8561 0.57722 0.0
H981 H 0.67682 0.82151 0.57625 0.0
H982 H 0.67915 0.80449 0.59236 0.0
H983 H 0.63955 0.77375 0.57533 0.0
H984 H 0.63731 0.79085 0.55917 0.0
H985 H 0.65971 0.8306 0.57866 0.0
H986 H 0.67132 0.80839 0.53569 0.0
H987 H 0.67033 0.79074 0.51711 0.0
H988 H 0.63055 0.7814 0.50019 0.0
H989 H 0.63164 0.79913 0.51877 0.0
C990 C 0.65301 0.84915 0.52894 0.0
C991 C 0.6415 0.84636 0.5194 0.0
C992 C 0.64152 0.8563 0.509 0.0
C993 C 0.6531 0.8692 0.50778 0.0
C994 C 0.66456 0.87202 0.51751 0.0
C995 C 0.66451 0.8621 0.52799 0.0
C996 C 0.65325 0.83832 0.53911 0.0
C997 C 0.65119 0.8266 0.53062 0.0
C998 C 0.65638 0.83982 0.55668 0.0
C999 C 0.65836 0.85184 0.56653 0.0
C1000 C 0.64865 0.856 0.56611 0.0
C1001 C 0.65062 0.86735 0.57534 0.0
C1002 C 0.66228 0.87471 0.58538 0.0
C1003 C 0.67189 0.87039 0.58594 0.0
C1004 C 0.66995 0.85911 0.57662 0.0
C1005 C 0.65694 0.80747 0.56637 0.0
C1006 C 0.66861 0.81112 0.57604 0.0
C1007 C 0.66991 0.80137 0.5853 0.0
C1008 C 0.65953 0.78774 0.58517 0.0
C1009 C 0.64781 0.78412 0.57553 0.0
C1010 C 0.64652 0.79389 0.56628 0.0
C1011 C 0.65567 0.81794 0.55658 0.0
C1012 C 0.65754 0.82959 0.56515 0.0
C1013 C 0.65253 0.81647 0.53902 0.0
C1014 C 0.6515 0.80503 0.52875 0.0
C1015 C 0.66228 0.80238 0.52822 0.0
C1016 C 0.66169 0.79226 0.51758 0.0
C1017 C 0.65037 0.78465 0.50712 0.0
C1018 C 0.6395 0.78718 0.5079 0.0
C1019 C 0.64008 0.79728 0.51857 0.0
H1020 H 0.17064 0.80017 0.51754 0.0
H1021 H 0.15349 0.78332 0.4986 0.0
H1022 H 0.12311 0.79021 0.5217 0.0
H1023 H 0.14037 0.80752 0.54018 0.0
H1024 H 0.17981 0.8255 0.51851 0.0
H1025 H 0.15596 0.78983 0.55859 0.0
H1026 H 0.13658 0.77286 0.57493 0.0
H1027 H 0.13227 0.80458 0.59882 0.0
H1028 H 0.15115 0.8215 0.58191 0.0
H1029 H 0.18368 0.85563 0.57899 0.0
H1030 H 0.20029 0.8753 0.59494 0.0
H1031 H 0.23226 0.8692 0.57524 0.0
H1032 H 0.21548 0.84913 0.55991 0.0
H1033 H 0.17602 0.82979 0.58069 0.0
H1034 H 0.19693 0.86442 0.53717 0.0
H1035 H 0.21436 0.88103 0.51828 0.0
H1036 H 0.22419 0.85078 0.50177 0.0
H1037 H 0.20667 0.83422 0.52054 0.0
C1038 C 0.15684 0.8051 0.53043 0.0
C1039 C 0.16029 0.79806 0.51859 0.0
C1040 C 0.1505 0.78843 0.50779 0.0
C1041 C 0.137 0.78548 0.50873 0.0
C1042 C 0.13343 0.79221 0.52086 0.0
C1043 C 0.14329 0.80206 0.53146 0.0
C1044 C 0.16761 0.81622 0.54077 0.0
C1045 C 0.17905 0.82626 0.53218 0.0
C1046 C 0.1665 0.81744 0.55858 0.0
C1047 C 0.15495 0.807 0.56876 0.0
C1048 C 0.15073 0.79316 0.56712 0.0
C1049 C 0.13971 0.78346 0.57652 0.0
C1050 C 0.13297 0.78744 0.58811 0.0
C1051 C 0.13737 0.80127 0.59005 0.0
C1052 C 0.14818 0.81093 0.58039 0.0
C1053 C 0.1983 0.85095 0.56808 0.0
C1054 C 0.19426 0.85847 0.57819 0.0
C1055 C 0.2038 0.86981 0.58719 0.0
C1056 C 0.21766 0.87394 0.5863 0.0
C1057 C 0.22168 0.86628 0.57635 0.0
C1058 C 0.2121 0.85487 0.5674 0.0
C1059 C 0.18802 0.83903 0.55835 0.0
C1060 C 0.17673 0.82887 0.56705 0.0
C1061 C 0.18922 0.83764 0.54065 0.0
C1062 C 0.20053 0.84809 0.53033 0.0
C1063 C 0.20299 0.86144 0.52968 0.0
C1064 C 0.21298 0.87093 0.51888 0.0
C1065 C 0.22065 0.86722 0.50844 0.0
C1066 C 0.21834 0.85392 0.50943 0.0
C1067 C 0.20837 0.84446 0.52022 0.0
H1068 H 0.15136 0.33196 0.51422 0.0
H1069 H 0.1341 0.3324 0.49636 0.0
H1070 H 0.13961 0.36799 0.52295 0.0
H1071 H 0.15717 0.36768 0.54055 0.0
H1072 H 0.17753 0.35014 0.51658 0.0
H1073 H 0.14003 0.32946 0.55491 0.0
H1074 H 0.1207 0.32701 0.57117 0.0
H1075 H 0.14687 0.36444 0.59751 0.0
H1076 H 0.16625 0.36663 0.58139 0.0
H1077 H 0.20461 0.36688 0.58173 0.0
H1078 H 0.2218 0.36491 0.59807 0.0
H1079 H 0.21125 0.3276 0.57177 0.0
H1080 H 0.19438 0.32984 0.55528 0.0
H1081 H 0.17691 0.34952 0.57964 0.0
H1082 H 0.21512 0.36829 0.54116 0.0
H1083 H 0.23341 0.36911 0.52387 0.0
H1084 H 0.20427 0.33332 0.49685 0.0
H1085 H 0.18613 0.33238 0.5144 0.0
C1086 C 0.15552 0.34974 0.52879 0.0
C1087 C 0.14883 0.33985 0.51624 0.0
C1088 C 0.13888 0.34005 0.50613 0.0
C1089 C 0.13543 0.3502 0.50827 0.0
C1090 C 0.1421 0.36009 0.5209 0.0
C1091 C 0.15204 0.35985 0.53107 0.0
C1092 C 0.16646 0.3497 0.53901 0.0
C1093 C 0.17732 0.34986 0.53037 0.0
C1094 C 0.16632 0.34963 0.557 0.0
C1095 C 0.15457 0.3483 0.56681 0.0
C1096 C 0.14159 0.33719 0.5641 0.0
C1097 C 0.13051 0.33583 0.57339 0.0
C1098 C 0.13216 0.34556 0.58563 0.0
C1099 C 0.14522 0.35666 0.58836 0.0
C1100 C 0.15631 0.35797 0.5791 0.0
C1101 C 0.19831 0.3486 0.56715 0.0
C1102 C 0.20604 0.3583 0.5795 0.0
C1103 C 0.21582 0.35711 0.58888 0.0
C1104 C 0.21799 0.34612 0.58622 0.0
C1105 C 0.2101 0.33636 0.57393 0.0
C1106 C 0.20039 0.33759 0.56452 0.0
C1107 C 0.18791 0.3498 0.55718 0.0
C1108 C 0.17716 0.34991 0.56586 0.0
C1109 C 0.18803 0.3499 0.53918 0.0
C1110 C 0.19926 0.35022 0.52916 0.0
C1111 C 0.21271 0.36053 0.53166 0.0
C1112 C 0.22313 0.36105 0.52167 0.0
C1113 C 0.2203 0.35127 0.509 0.0
C1114 C 0.20683 0.34091 0.50665 0.0
C1115 C 0.19643 0.34042 0.51658 0.0
H1116 H 0.01959 0.38677 0.0684 0.0
H1117 H 0.01735 0.39987 0.09143 0.0
H1118 H 0.97424 0.37978 0.08324 0.0
H1119 H 0.97634 0.36642 0.06025 0.0
H1120 H 0.00803 0.41762 0.08765 0.0
H1121 H 0.97675 0.37812 0.13491 0.0
H1122 H 0.98527 0.37506 0.11756 0.0
H1123 H 0.96965 0.37494 0.11391 0.0
C1124 C 0.00958 0.38496 0.07162 0.0
C1125 C 0.99814 0.37555 0.06242 0.0
C1126 C 0.00833 0.39248 0.0848 0.0
C1127 C 0.99562 0.39075 0.08915 0.0
C1128 C 0.98412 0.38111 0.08032 0.0
H1129 H 0.98249 0.45088 0.13976 0.0
H1130 H 0.98308 0.43464 0.11999 0.0
C1131 C 0.98535 0.37353 0.06713 0.0
C1132 C 0.99466 0.39979 0.102 0.0
H1133 H 0.98015 0.40022 0.13989 0.0
C1134 C 1.00196 0.41381 0.0991 0.0
C1135 C 0.98685 0.39482 0.11701 0.0
C1136 C 0.97927 0.37992 0.12117 0.0
C1137 C 1.00155 0.42298 0.11066 0.0
C1138 C 0.99342 0.418 0.12541 0.0
C1139 C 0.98627 0.404 0.12848 0.0
C1140 C 0.99232 0.42724 0.13778 0.0
C1141 C 0.00999 0.43795 0.10709 0.0
C1142 C 0.99694 0.42817 0.15453 0.0
C1143 C 0.9965 0.43737 0.16595 0.0
C1144 C 0.99133 0.44574 0.16087 0.0
C1145 C 0.98642 0.44452 0.14418 0.0
C1146 C 0.98687 0.43534 0.13279 0.0
H1147 H 0.01817 0.44019 0.09775 0.0
H1148 H 0.00342 0.44162 0.10172 0.0
H1149 H 0.01464 0.4437 0.11895 0.0
H1150 H 1.00111 0.42195 0.15867 0.0
H1151 H 1.00018 0.43791 0.17878 0.0
H1152 H 0.64137 0.61213 0.06125 0.0
H1153 H 0.62855 0.59666 0.0845 0.0
H1154 H 0.60334 0.61483 0.08802 0.0
H1155 H 0.616 0.63029 0.06492 0.0
H1156 H 0.62219 0.60257 0.11954 0.0
H1157 H 0.5772 0.57339 0.0783 0.0
H1158 H 0.59392 0.58436 0.06981 0.0
H1159 H 0.58415 0.59144 0.07824 0.0
C1160 C 0.63319 0.61293 0.06709 0.0
C1161 C 0.62965 0.62239 0.0611 0.0
C1162 C 0.62589 0.60409 0.08037 0.0
C1163 C 0.6149 0.6045 0.08778 0.0
C1164 C 0.61169 0.61425 0.0823 0.0
H1165 H 0.55035 0.55671 0.15795 0.0
H1166 H 0.56629 0.57344 0.13793 0.0
C1167 C 0.61898 0.6231 0.0691 0.0
C1168 C 0.60637 0.59443 0.10078 0.0
H1169 H 0.5744 0.5682 0.10764 0.0
C1170 C 0.61177 0.59498 0.11697 0.0
C1171 C 0.59279 0.58458 0.09732 0.0
C1172 C 0.58665 0.58327 0.07995 0.0
C1173 C 0.60376 0.58616 0.13 0.0
C1174 C 0.59011 0.57638 0.12658 0.0
C1175 C 0.58483 0.57573 0.11028 0.0
C1176 C 0.581 0.56679 0.13971 0.0
C1177 C 0.60987 0.58766 0.14743 0.0
C1178 C 0.58398 0.55748 0.14742 0.0
C1179 C 0.57494 0.54798 0.15905 0.0
C1180 C 0.56267 0.54749 0.16309 0.0
C1181 C 0.55979 0.55691 0.1554 0.0
C1182 C 0.56885 0.56643 0.14383 0.0
H1183 H 0.61905 0.59775 0.14912 0.0
H1184 H 0.60246 0.58624 0.15753 0.0
H1185 H 0.61286 0.57985 0.14912 0.0
H1186 H 0.59316 0.55738 0.14419 0.0
H1187 H 0.57754 0.54097 0.16482 0.0
H1188 H 0.37428 0.98542 0.06246 0.0
H1189 H 0.38975 0.98795 0.0854 0.0
H1190 H 0.40657 0.03121 0.08444 0.0
H1191 H 0.39108 0.02882 0.06137 0.0
H1192 H 0.41903 0.00417 0.08199 0.0
H1193 H 0.39881 0.02043 0.13599 0.0
H1194 H 0.38868 0.01169 0.11763 0.0
H1195 H 0.40139 0.02921 0.11612 0.0
C1196 C 0.38114 0.99549 0.06722 0.0
C1197 C 0.38144 0.00693 0.06001 0.0
C1198 C 0.38998 0.9969 0.08034 0.0
C1199 C 0.39924 0.00975 0.08667 0.0
C1200 C 0.39937 0.02119 0.07987 0.0
H1201 H 0.46268 0.03414 0.16325 0.0
H1202 H 0.44664 0.03376 0.14232 0.0
C1203 C 0.39054 0.0198 0.06665 0.0
C1204 C 0.40932 0.01112 0.09956 0.0
H1205 H 0.41868 0.01938 0.14102 0.0
C1206 C 0.41897 0.0075 0.09491 0.0
C1207 C 0.40927 0.01559 0.11631 0.0
C1208 C 0.39895 0.01939 0.12195 0.0
C1209 C 0.42859 0.0082 0.10657 0.0
C1210 C 0.42833 0.0123 0.1235 0.0
C1211 C 0.41882 0.01617 0.12808 0.0
C1212 C 0.43773 0.01243 0.13665 0.0
C1213 C 0.43908 0.00475 0.10056 0.0
C1214 C 0.43786 1.00051 0.14068 0.0
C1215 C 0.44712 1.00072 0.15247 0.0
C1216 C 0.45636 0.01284 0.16066 0.0
C1217 C 0.45589 0.02468 0.15698 0.0
C1218 C 0.44666 0.02447 0.14511 0.0
H1219 H 0.44042 0.00576 0.08654 0.0
H1220 H 0.44903 0.01135 0.10667 0.0
H1221 H 0.43575 0.99408 0.1039 0.0
H1222 H 0.43087 0.99104 0.13457 0.0
H1223 H 0.44723 0.99142 0.15484 0.0
H1224 H 0.36612 0.97482 0.97345 0.0
H1225 H 0.37963 0.97293 0.95044 0.0
H1226 H 0.40081 0.01626 0.94415 0.0
H1227 H 0.38754 0.0183 0.96713 0.0
H1228 H 0.38423 0.982 0.9156 0.0
H1229 H 0.43099 0.0074 0.95452 0.0
H1230 H 0.41432 1.00087 0.96355 0.0
H1231 H 0.42231 0.01684 0.95261 0.0
C1232 C 0.37355 0.98394 0.96705 0.0
C1233 C 0.37585 0.99673 0.97229 0.0
C1234 C 0.38126 0.98283 0.95391 0.0
C1235 C 0.39139 0.99448 0.94584 0.0
C1236 C 0.39323 0.00717 0.95046 0.0
H1237 H 0.45506 0.01478 0.87274 0.0
H1238 H 0.43819 0.0143 0.89238 0.0
C1239 C 0.38558 0.0083 0.96357 0.0
C1240 C 0.40049 0.99352 0.93311 0.0
H1241 H 0.43372 0.00384 0.92541 0.0
C1242 C 0.39504 0.98668 0.91774 0.0
C1243 C 0.41457 0.9996 0.93602 0.0
C1244 C 0.42091 0.00648 0.95262 0.0
C1245 C 0.40341 0.98615 0.90495 0.0
C1246 C 0.41753 0.99247 0.90776 0.0
C1247 C 0.42291 0.9991 0.92324 0.0
C1248 C 0.42703 0.9925 0.89481 0.0
C1249 C 0.39714 0.97918 0.88838 0.0
C1250 C 0.42632 0.98038 0.8896 0.0
C1251 C 0.43601 0.98063 0.87842 0.0
C1252 C 0.44664 0.993 0.87234 0.0
C1253 C 0.44713 0.00509 0.87736 0.0
C1254 C 0.43745 0.00484 0.88851 0.0
H1255 H 0.3868 0.97765 0.88672 0.0
H1256 H 0.40349 0.98511 0.87744 0.0
H1257 H 0.39641 0.96911 0.88817 0.0
H1258 H 0.41853 0.97077 0.89458 0.0
H1259 H 0.43544 0.97115 0.87501 0.0
H1260 H 0.98817 0.37079 0.96867 0.0
H1261 H 0.99058 0.38587 0.94529 0.0
H1262 H 0.03374 0.40839 0.95325 0.0
H1263 H 0.03146 0.39319 0.9766 0.0
H1264 H 1.00039 0.41312 0.94857 0.0
H1265 H 0.03091 0.40333 0.90161 0.0
H1266 H 0.02229 0.39208 0.91917 0.0
H1267 H 0.03807 0.40744 0.92258 0.0
C1268 C 0.99822 0.37882 0.96533 0.0
C1269 C 0.00962 0.38079 0.97457 0.0
C1270 C 0.99957 0.38744 0.95194 0.0
C1271 C 0.01234 0.39819 0.94743 0.0
C1272 C 0.02381 0.40001 0.9563 0.0
H1273 H 0.02604 0.47076 0.89467 0.0
H1274 H 0.02565 0.45433 0.91489 0.0
C1275 C 0.02248 0.39134 0.9697 0.0
C1276 C 0.01342 0.40806 0.93435 0.0
H1277 H 0.02774 0.42209 0.89607 0.0
C1278 C 0.00635 0.41504 0.93707 0.0
C1279 C 0.0211 0.41048 0.91929 0.0
C1280 C 0.02844 0.40286 0.91535 0.0
C1281 C 0.00683 0.42447 0.92524 0.0
C1282 C 0.0148 0.42718 0.91041 0.0
C1283 C 0.02175 0.42008 0.90754 0.0
C1284 C 0.01591 0.43729 0.89771 0.0
C1285 C 0.99863 0.4313 0.92861 0.0
C1286 C 0.01095 0.43323 0.88115 0.0
C1287 C 0.01127 0.44264 0.86947 0.0
C1288 C 0.01664 0.4563 0.87412 0.0
C1289 C 0.02194 0.46036 0.8906 0.0
C1290 C 0.02161 0.45096 0.90224 0.0
H1291 H 0.99055 0.42572 0.93819 0.0
H1292 H 0.00539 0.44165 0.93358 0.0
H1293 H 0.99387 0.4322 0.91674 0.0
H1294 H 0.00658 0.42273 0.87738 0.0
H1295 H 0.00729 0.43921 0.85682 0.0
H1296 H 0.61363 0.64025 0.97314 0.0
H1297 H 0.59794 0.62751 0.95004 0.0
H1298 H 0.61474 0.60106 0.94734 0.0
H1299 H 0.63041 0.61364 0.9703 0.0
H1300 H 0.60361 0.62055 0.91526 0.0
H1301 H 0.57305 0.57612 0.95684 0.0
H1302 H 0.58441 0.59279 0.9652 0.0
H1303 H 0.59101 0.5825 0.95708 0.0
C1304 C 0.61407 0.6318 0.96753 0.0
C1305 C 0.62322 0.62791 0.97369 0.0
C1306 C 0.60511 0.62455 0.95433 0.0
C1307 C 0.60508 0.61326 0.94718 0.0
C1308 C 0.6145 0.60965 0.95286 0.0
H1309 H 0.55637 0.54892 0.87734 0.0
H1310 H 0.57306 0.56461 0.89756 0.0
C1311 C 0.62348 0.6169 0.96597 0.0
C1312 C 0.59492 0.60487 0.93418 0.0
H1313 H 0.56799 0.57327 0.92746 0.0
C1314 C 0.59575 0.61024 0.9179 0.0
C1315 C 0.58471 0.59145 0.93773 0.0
C1316 C 0.58311 0.58535 0.95519 0.0
C1317 C 0.58686 0.60234 0.90486 0.0
C1318 C 0.57672 0.58884 0.90836 0.0
C1319 C 0.5758 0.58359 0.92476 0.0
C1320 C 0.56709 0.57982 0.8952 0.0
C1321 C 0.58869 0.60839 0.88734 0.0
C1322 C 0.55817 0.58313 0.8871 0.0
C1323 C 0.5487 0.57423 0.87534 0.0
C1324 C 0.54786 0.56176 0.87155 0.0
C1325 C 0.55686 0.55852 0.87968 0.0
C1326 C 0.56635 0.56744 0.89137 0.0
H1327 H 0.59893 0.61736 0.88566 0.0
H1328 H 0.5871 0.60083 0.87736 0.0
H1329 H 0.58114 0.6117 0.88541 0.0
H1330 H 0.55836 0.5925 0.8901 0.0
H1331 H 0.542 0.57711 0.86924 0.0
H1332 H 0.02998 0.63854 0.97389 0.0
H1333 H 0.03175 0.62513 0.95076 0.0
H1334 H 0.98837 0.60388 0.94489 0.0
H1335 H 0.98647 0.61706 0.96811 0.0
H1336 H 0.99845 0.58675 0.94773 0.0
H1337 H 0.02756 0.62615 0.89941 0.0
H1338 H 0.0354 0.62974 0.91999 0.0
H1339 H 0.01943 0.6291 0.91731 0.0
C1340 C 0.02083 0.63116 0.96751 0.0
C1341 C 0.00807 0.62886 0.97292 0.0
C1342 C 0.02187 0.62354 0.95422 0.0
C1343 C 0.0102 0.61359 0.94597 0.0
C1344 C 0.99751 0.61153 0.95104 0.0
H1345 H 0.00544 0.56645 0.85615 0.0
H1346 H 0.00429 0.58223 0.87635 0.0
C1347 C 0.99645 0.61909 0.96434 0.0
C1348 C 0.01108 0.60459 0.93296 0.0
H1349 H 0.02498 0.60434 0.89453 0.0
C1350 C 0.0042 0.5906 0.93606 0.0
C1351 C 0.01848 0.60961 0.91767 0.0
C1352 C 0.02554 0.62446 0.91327 0.0
C1353 C 0.00469 0.58151 0.92444 0.0
C1354 C 0.01246 0.58655 0.90942 0.0
C1355 C 0.01914 0.60051 0.90614 0.0
C1356 C 0.01369 0.57742 0.89698 0.0
C1357 C 0.99671 0.56655 0.92824 0.0
C1358 C 0.01957 0.56966 0.9018 0.0
C1359 C 0.02016 0.56058 0.89035 0.0
C1360 C 0.01495 0.55912 0.87379 0.0
C1361 C 0.00937 0.56717 0.86887 0.0
C1362 C 0.00879 0.57626 0.88035 0.0
H1363 H 0.98863 0.56414 0.9378 0.0
H1364 H 0.99199 0.56061 0.91652 0.0
H1365 H 0.00363 0.56324 0.93346 0.0
H1366 H 0.0236 0.57054 0.91449 0.0
H1367 H 0.02441 0.55447 0.89463 0.0
H1368 H 0.38778 0.37465 0.9656 0.0
H1369 H 0.39998 0.39062 0.94275 0.0
H1370 H 0.37878 0.41218 0.95389 0.0
H1371 H 0.36637 0.39614 0.9768 0.0
H1372 H 0.38191 0.40854 0.91804 0.0
H1373 H 0.43022 0.42971 0.95377 0.0
H1374 H 0.42162 0.41166 0.95105 0.0
H1375 H 0.41395 0.41921 0.96364 0.0
C1376 C 0.38558 0.3827 0.96314 0.0
C1377 C 0.37618 0.38419 0.97319 0.0
C1378 C 0.39262 0.39185 0.95009 0.0
C1379 C 0.39046 0.40271 0.94685 0.0
C1380 C 0.38064 0.4039 0.95627 0.0
H1381 H 0.44728 0.47548 0.89265 0.0
H1382 H 0.43132 0.45926 0.91311 0.0
C1383 C 0.37356 0.39472 0.96936 0.0
C1384 C 0.39892 0.41313 0.93413 0.0
H1385 H 0.43163 0.43689 0.92521 0.0
C1386 C 0.39277 0.41479 0.9196 0.0
C1387 C 0.41306 0.4214 0.93635 0.0
C1388 C 0.42013 0.42054 0.95211 0.0
C1389 C 0.40047 0.42429 0.90699 0.0
C1390 C 0.41468 0.43222 0.90894 0.0
C1391 C 0.42075 0.43074 0.92366 0.0
C1392 C 0.42352 0.44216 0.89595 0.0
C1393 C 0.39332 0.4259 0.89182 0.0
C1394 C 0.42442 0.43795 0.87945 0.0
C1395 C 0.43349 0.44724 0.86765 0.0
C1396 C 0.44188 0.46092 0.87214 0.0
C1397 C 0.44083 0.46509 0.88864 0.0
C1398 C 0.43177 0.45581 0.90041 0.0
H1399 H 0.38237 0.42182 0.89438 0.0
H1400 H 0.39792 0.4367 0.88811 0.0
H1401 H 0.39424 0.42024 0.8809 0.0
H1402 H 0.41834 0.42742 0.87582 0.0
H1403 H 0.43398 0.4437 0.85503 0.0
H1404 H 0.63227 0.01573 0.96939 0.0
H1405 H 0.61696 0.01214 0.94582 0.0
H1406 H 0.59698 0.96904 0.95399 0.0
H1407 H 0.61218 0.97252 0.97784 0.0
H1408 H 0.61165 0.99703 0.91562 0.0
H1409 H 0.56595 0.97752 0.95678 0.0
H1410 H 0.58289 0.986 0.96533 0.0
H1411 H 0.57534 0.96875 0.95831 0.0
C1412 C 0.62467 0.00546 0.96618 0.0
C1413 C 0.62339 0.99441 0.97564 0.0
C1414 C 0.61594 0.00344 0.95265 0.0
C1415 C 0.6057 0.99035 0.94832 0.0
C1416 C 0.60465 0.97925 0.95733 0.0
H1417 H 0.53913 0.9681 0.87634 0.0
H1418 H 0.55521 0.96677 0.89577 0.0
C1419 C 0.61341 0.98125 0.9709 0.0
C1420 C 0.59598 0.98852 0.93464 0.0
H1421 H 0.56288 0.97907 0.92748 0.0
C1422 C 0.60097 0.99301 0.91817 0.0
C1423 C 0.58204 0.98325 0.938 0.0
C1424 C 0.5762 0.97869 0.95557 0.0
C1425 C 0.59242 0.99254 0.90503 0.0
C1426 C 0.57857 0.98767 0.90852 0.0
C1427 C 0.57351 0.98279 0.92484 0.0
C1428 C 0.56933 0.98832 0.89577 0.0
C1429 C 0.59831 0.99729 0.88752 0.0
C1430 C 0.57193 1.00087 0.88933 0.0
C1431 C 0.56281 1.00165 0.8782 0.0
C1432 C 0.55083 0.9899 0.87336 0.0
C1433 C 0.54834 0.97731 0.87965 0.0
C1434 C 0.55747 0.97654 0.89083 0.0
H1435 H 0.60769 0.99674 0.88567 0.0
H1436 H 0.59093 0.99117 0.87748 0.0
H1437 H 0.60096 0.008 0.88591 0.0
H1438 H 0.58089 0.01011 0.89321 0.0
H1439 H 0.56509 0.01149 0.87348 0.0
H1440 H 0.64285 0.03179 0.06144 0.0
H1441 H 0.6311 0.03526 0.08536 0.0
H1442 H 0.6066 0.99205 0.09179 0.0
H1443 H 0.61839 0.98849 0.0683 0.0
H1444 H 0.6043 0.02704 0.0875 0.0
H1445 H 0.61791 0.00403 0.14014 0.0
H1446 H 0.62672 0.0083 0.12002 0.0
H1447 H 0.61093 0.9927 0.12243 0.0
C1448 C 0.63511 0.02303 0.06812 0.0
C1449 C 0.63161 0.00986 0.06294 0.0
C1450 C 0.62839 0.02504 0.08178 0.0
C1451 C 0.61811 0.01392 0.09056 0.0
C1452 C 0.61473 1.0008 0.08553 0.0
H1453 H 0.55169 0.99475 0.15698 0.0
H1454 H 0.56888 0.99551 0.13772 0.0
C1455 C 0.62144 0.99879 0.07196 0.0
C1456 C 0.61018 0.01589 0.10414 0.0
H1457 H 0.59826 0.00637 0.14462 0.0
C1458 C 0.60317 0.02273 0.10009 0.0
C1459 C 0.6087 0.01027 0.12059 0.0
C1460 C 0.61658 0.00354 0.12611 0.0
C1461 C 0.59425 0.02354 0.11174 0.0
C1462 C 0.59236 0.01743 0.12789 0.0
C1463 C 0.59967 0.01096 0.13216 0.0
C1464 C 0.58234 0.01708 0.14019 0.0
C1465 C 0.58646 0.03043 0.10648 0.0
C1466 C 0.58432 0.02894 0.14817 0.0
C1467 C 0.57457 0.02854 0.15936 0.0
C1468 C 0.56263 0.01625 0.16277 0.0
C1469 C 0.56082 0.00436 0.15489 0.0
C1470 C 0.5706 0.00477 0.14379 0.0
H1471 H 0.58755 0.03286 0.09269 0.0
H1472 H 0.57554 0.02393 0.10948 0.0
H1473 H 0.59024 0.04001 0.11371 0.0
H1474 H 0.59341 0.03851 0.14571 0.0
H1475 H 0.57643 0.03785 0.1654 0.0
H1476 H 0.97742 0.61983 0.06673 0.0
H1477 H 0.97468 0.60552 0.09137 0.0
H1478 H 0.01477 0.61168 0.08299 0.0
H1479 H 0.01777 0.62635 0.05899 0.0
H1480 H 0.974 0.58247 0.09332 0.0
H1481 H 0.01696 0.61853 0.13259 0.0
H1482 H 0.01137 0.62387 0.11424 0.0
H1483 H 0.02284 0.61738 0.11188 0.0
C1484 C 0.98571 0.61828 0.07031 0.0
C1485 C 0.99786 0.62433 0.06097 0.0
C1486 C 0.98413 0.61009 0.08439 0.0
C1487 C 0.99463 0.60774 0.08933 0.0
C1488 C 0.00669 0.61369 0.07988 0.0
H1489 H 0.98771 0.53766 0.13906 0.0
H1490 H 0.9878 0.55448 0.11977 0.0
C1491 C 0.00835 0.62202 0.06602 0.0
C1492 C 0.99275 0.59838 0.10358 0.0
H1493 H 0.00864 0.59482 0.13831 0.0
C1494 C 0.98147 0.58525 0.10331 0.0
C1495 C 1.0023 0.60202 0.11691 0.0
C1496 C 0.01395 0.61628 0.11903 0.0
C1497 C 0.97984 0.57552 0.11544 0.0
C1498 C 0.99004 0.57882 0.12783 0.0
C1499 C 1.00095 0.59215 0.12864 0.0
C1500 C 0.98984 0.56854 0.13967 0.0
C1501 C 0.96716 0.56183 0.11483 0.0
C1502 C 0.99157 0.57104 0.15726 0.0
C1503 C 0.99187 0.56155 0.16827 0.0
C1504 C 0.99032 0.54934 0.1619 0.0
C1505 C 0.98868 0.54689 0.14432 0.0
C1506 C 0.98862 0.55646 0.13331 0.0
H1507 H 0.95859 0.56255 0.10926 0.0
H1508 H 0.96895 0.55496 0.10661 0.0
H1509 H 0.96415 0.55727 0.12768 0.0
H1510 H 0.99265 0.58033 0.16249 0.0
H1511 H 0.99314 0.56368 0.18178 0.0
H1512 H 0.3776 0.3904 0.06477 0.0
H1513 H 0.39319 0.40205 0.0881 0.0
H1514 H 0.41 0.37573 0.08263 0.0
H1515 H 0.39459 0.36415 0.05889 0.0
H1516 H 0.39693 0.3933 0.11877 0.0
H1517 H 0.44353 0.41286 0.07946 0.0
H1518 H 0.42686 0.40525 0.07021 0.0
H1519 H 0.4329 0.39479 0.07928 0.0
C1520 C 0.38457 0.38702 0.06851 0.0
C1521 C 0.38491 0.37639 0.05982 0.0
C1522 C 0.39348 0.3937 0.0819 0.0
C1523 C 0.40294 0.38994 0.08693 0.0
C1524 C 0.40301 0.37903 0.07871 0.0
H1525 H 0.46696 0.4281 0.16367 0.0
H1526 H 0.45055 0.41199 0.14337 0.0
C1527 C 0.39412 0.37236 0.06521 0.0
C1528 C 0.41277 0.39765 0.10064 0.0
H1529 H 0.4465 0.41812 0.10871 0.0
C1530 C 0.40777 0.39867 0.11658 0.0
C1531 C 0.42693 0.40467 0.09779 0.0
C1532 C 0.43291 0.40447 0.08073 0.0
C1533 C 0.41651 0.40663 0.12966 0.0
C1534 C 0.43062 0.41384 0.12668 0.0
C1535 C 0.43567 0.41254 0.11093 0.0
C1536 C 0.44026 0.42335 0.13941 0.0
C1537 C 0.4106 0.40731 0.14656 0.0
C1538 C 0.43997 0.43513 0.14379 0.0
C1539 C 0.44942 0.44445 0.15521 0.0
C1540 C 0.45938 0.44218 0.16252 0.0
C1541 C 0.45956 0.43028 0.15816 0.0
C1542 C 0.45014 0.42101 0.14663 0.0
H1543 H 0.40012 0.39874 0.14823 0.0
H1544 H 0.41695 0.40724 0.15721 0.0
H1545 H 0.4103 0.41687 0.14728 0.0
H1546 H 0.43259 0.43726 0.1381 0.0
H1547 H 0.44912 0.4536 0.15796 0.0
H1548 H 0.68247 0.7198 0.40187 0.0
H1549 H 0.67872 0.73186 0.42494 0.0
H1550 H 0.63625 0.71203 0.41261 0.0
H1551 H 0.63986 0.69974 0.3895 0.0
H1552 H 0.6691 0.74964 0.42067 0.0
H1553 H 0.63603 0.70794 0.46456 0.0
H1554 H 0.64581 0.7059 0.44791 0.0
H1555 H 0.63031 0.70562 0.4429 0.0
C1556 C 0.67228 0.71783 0.40416 0.0
C1557 C 0.66147 0.7088 0.39377 0.0
C1558 C 0.67016 0.72476 0.41737 0.0
C1559 C 0.6572 0.72279 0.42059 0.0
C1560 C 0.6463 0.71354 0.41055 0.0
H1561 H 0.6414 0.78025 0.4742 0.0
H1562 H 0.64225 0.76465 0.45354 0.0
C1563 C 0.6484 0.70656 0.39729 0.0
C1564 C 0.65538 0.73117 0.43364 0.0
H1565 H 0.63931 0.72975 0.47095 0.0
C1566 C 0.66259 0.74529 0.43167 0.0
C1567 C 0.64698 0.72547 0.44805 0.0
C1568 C 0.63941 0.71041 0.45113 0.0
C1569 C 0.66157 0.75387 0.44364 0.0
C1570 C 0.65294 0.74818 0.45786 0.0
C1571 C 0.64582 0.73407 0.45995 0.0
C1572 C 0.65143 0.75682 0.47079 0.0
C1573 C 0.66993 0.76899 0.44113 0.0
C1574 C 0.65592 0.75727 0.48751 0.0
C1575 C 0.65536 0.76612 0.49942 0.0
C1576 C 0.6502 0.77461 0.49485 0.0
C1577 C 0.64533 0.77379 0.47821 0.0
C1578 C 0.64591 0.76496 0.46633 0.0
H1579 H 0.6783 0.77174 0.43191 0.0
H1580 H 0.66336 0.7728 0.43612 0.0
H1581 H 0.6743 0.7742 0.45336 0.0
H1582 H 0.66015 0.75101 0.49123 0.0
H1583 H 0.65902 0.76635 0.51218 0.0
H1584 H 0.30402 0.94043 0.38888 0.0
H1585 H 0.29185 0.92448 0.41198 0.0
H1586 H 0.27169 0.94681 0.42457 0.0
H1587 H 0.28366 0.96271 0.40158 0.0
H1588 H 0.28973 0.92864 0.44827 0.0
H1589 H 0.24072 0.90773 0.41415 0.0
H1590 H 0.25682 0.91787 0.40371 0.0
H1591 H 0.2497 0.92582 0.41654 0.0
C1592 C 0.2971 0.94203 0.39666 0.0
C1593 C 0.29472 0.95278 0.39323 0.0
C1594 C 0.29017 0.93291 0.40986 0.0
C1595 C 0.28072 0.93436 0.41978 0.0
C1596 C 0.27877 0.94539 0.41687 0.0
H1597 H 0.23862 0.89435 0.51281 0.0
H1598 H 0.25387 0.91046 0.49156 0.0
C1599 C 0.28567 0.95449 0.40372 0.0
C1600 C 0.27245 0.92408 0.43272 0.0
H1601 H 0.23983 0.90069 0.44267 0.0
C1602 C 0.27882 0.92247 0.44706 0.0
C1603 C 0.25825 0.91594 0.43096 0.0
C1604 C 0.25094 0.9168 0.41545 0.0
C1605 C 0.2713 0.91314 0.45991 0.0
C1606 C 0.25705 0.90534 0.4584 0.0
C1607 C 0.25074 0.90676 0.44388 0.0
C1608 C 0.24842 0.89553 0.47163 0.0
C1609 C 0.27867 0.91159 0.47487 0.0
C1610 C 0.24014 0.88183 0.46741 0.0
C1611 C 0.23132 0.87265 0.47944 0.0
C1612 C 0.23053 0.87697 0.49595 0.0
C1613 C 0.23891 0.8907 0.50018 0.0
C1614 C 0.24776 0.89989 0.48812 0.0
H1615 H 0.28958 0.91565 0.47206 0.0
H1616 H 0.27789 0.91726 0.48587 0.0
H1617 H 0.27411 0.90079 0.4786 0.0
H1618 H 0.24039 0.87827 0.45471 0.0
H1619 H 0.22485 0.86221 0.47563 0.0
H1620 H 0.06408 0.36623 0.39147 0.0
H1621 H 0.0797 0.36911 0.41463 0.0
H1622 H 0.05602 0.32657 0.42618 0.0
H1623 H 0.04047 0.32355 0.40314 0.0
H1624 H 0.07528 0.36221 0.45092 0.0
H1625 H 0.09454 0.33321 0.41528 0.0
H1626 H 0.08496 0.33999 0.40527 0.0
H1627 H 0.07645 0.32466 0.41749 0.0
C1628 C 0.0621 0.35752 0.39907 0.0
C1629 C 0.0511 0.34463 0.3953 0.0
C1630 C 0.07104 0.35919 0.41229 0.0
C1631 C 0.06913 0.348 0.42189 0.0
C1632 C 0.0578 0.33528 0.41871 0.0
H1633 H 0.11124 0.32895 0.49781 0.0
H1634 H 0.0952 0.32933 0.47755 0.0
C1635 C 0.04889 0.3336 0.40554 0.0
C1636 C 0.07925 0.34936 0.43472 0.0
H1637 H 0.10125 0.33821 0.44411 0.0
C1638 C 0.08106 0.35707 0.44942 0.0
C1639 C 0.08678 0.34267 0.43265 0.0
C1640 C 0.08572 0.33476 0.41676 0.0
C1641 C 0.08988 0.35786 0.46243 0.0
C1642 C 0.0972 0.35091 0.46051 0.0
C1643 C 0.09556 0.34344 0.44563 0.0
C1644 C 0.10648 0.35101 0.47379 0.0
C1645 C 0.09099 0.36575 0.47834 0.0
C1646 C 0.11813 0.36309 0.47847 0.0
C1647 C 0.12735 0.3629 0.49003 0.0
C1648 C 0.12515 0.3506 0.49701 0.0
C1649 C 0.11333 0.33856 0.49251 0.0
C1650 C 0.10412 0.33877 0.481 0.0
H1651 H 0.08244 0.36775 0.47957 0.0
H1652 H 0.09126 0.36025 0.48984 0.0
H1653 H 0.10053 0.37564 0.47791 0.0
H1654 H 0.1203 0.37262 0.4728 0.0
H1655 H 0.13645 0.37232 0.49304 0.0
H1656 H 0.03459 0.30689 0.31205 0.0
H1657 H 0.0472 0.30354 0.28904 0.0
H1658 H 0.06762 0.34625 0.278 0.0
H1659 H 0.05524 0.34973 0.30089 0.0
H1660 H 0.05011 0.31064 0.25293 0.0
H1661 H 0.09839 0.33798 0.28862 0.0
H1662 H 0.08209 0.33176 0.29862 0.0
H1663 H 0.0895 0.3472 0.28654 0.0
C1664 C 0.04167 0.31555 0.30462 0.0
C1665 C 0.04401 0.32861 0.30847 0.0
C1666 C 0.04885 0.31361 0.29148 0.0
C1667 C 0.0585 0.32468 0.28204 0.0
C1668 C 0.06039 0.3376 0.28534 0.0
H1669 H 0.11908 0.34267 0.20573 0.0
H1670 H 0.10283 0.34248 0.22619 0.0
C1671 C 0.05326 0.33956 0.29843 0.0
C1672 C 0.06705 0.32298 0.26917 0.0
H1673 H 0.09997 0.33317 0.25961 0.0
C1674 C 0.061 0.31544 0.25441 0.0
C1675 C 0.08123 0.32922 0.27121 0.0
C1676 C 0.08821 0.3369 0.28717 0.0
C1677 C 0.06887 0.31444 0.2413 0.0
C1678 C 0.0831 0.32099 0.24318 0.0
C1679 C 0.08907 0.32824 0.25813 0.0
C1680 C 0.09213 0.32077 0.22972 0.0
C1681 C 0.06197 0.30677 0.22533 0.0
C1682 C 0.09146 0.3086 0.22483 0.0
C1683 C 0.10079 0.30868 0.21315 0.0
C1684 C 0.11102 0.32095 0.20628 0.0
C1685 C 0.11145 0.33307 0.21095 0.0
C1686 C 0.10213 0.33297 0.22258 0.0
H1687 H 0.05148 0.30497 0.22427 0.0
H1688 H 0.06777 0.31234 0.21387 0.0
H1689 H 0.06146 0.2968 0.22549 0.0
H1690 H 0.084 0.2991 0.23043 0.0
H1691 H 0.1003 0.2992 0.21 0.0
H1692 H 0.65783 0.70666 0.29893 0.0
H1693 H 0.66159 0.72226 0.27566 0.0
H1694 H 0.70405 0.74498 0.28806 0.0
H1695 H 0.70041 0.72929 0.31138 0.0
H1696 H 0.67122 0.74972 0.27989 0.0
H1697 H 0.70425 0.74081 0.23608 0.0
H1698 H 0.69444 0.72907 0.25272 0.0
H1699 H 0.70995 0.74426 0.25776 0.0
C1700 C 0.66802 0.71486 0.29661 0.0
C1701 C 0.67882 0.71673 0.3071 0.0
C1702 C 0.67014 0.72377 0.28328 0.0
C1703 C 0.6831 0.73473 0.28004 0.0
C1704 C 0.694 0.73646 0.29015 0.0
H1705 H 0.69954 0.80798 0.22656 0.0
H1706 H 0.69843 0.79141 0.24713 0.0
C1707 C 0.69189 0.72751 0.30353 0.0
C1708 C 0.68491 0.74486 0.26694 0.0
H1709 H 0.701 0.75935 0.22963 0.0
C1710 C 0.67772 0.75181 0.26889 0.0
C1711 C 0.69331 0.74749 0.25254 0.0
C1712 C 0.70086 0.73995 0.2495 0.0
C1713 C 0.67877 0.76139 0.25691 0.0
C1714 C 0.6874 0.76425 0.24271 0.0
C1715 C 0.69449 0.75721 0.24062 0.0
C1716 C 0.68901 0.77443 0.22983 0.0
C1717 C 0.67047 0.76823 0.25942 0.0
C1718 C 0.68444 0.77044 0.21312 0.0
C1719 C 0.68514 0.77991 0.20127 0.0
C1720 C 0.69053 0.79358 0.20588 0.0
C1721 C 0.69545 0.79758 0.22252 0.0
C1722 C 0.69471 0.7881 0.23435 0.0
H1723 H 0.66211 0.7627 0.26867 0.0
H1724 H 0.67708 0.77861 0.26439 0.0
H1725 H 0.66609 0.76905 0.24718 0.0
H1726 H 0.68005 0.75993 0.20937 0.0
H1727 H 0.68143 0.77653 0.18851 0.0
H1728 H 0.29734 0.95409 0.29602 0.0
H1729 H 0.28154 0.94281 0.27267 0.0
H1730 H 0.25643 0.95863 0.29064 0.0
H1731 H 0.27224 0.97005 0.31411 0.0
H1732 H 0.24291 0.92954 0.28524 0.0
H1733 H 0.27329 0.9586 0.22935 0.0
H1734 H 0.28194 0.95339 0.24394 0.0
H1735 H 0.27694 0.96531 0.25074 0.0
C1736 C 0.28856 0.95535 0.29491 0.0
C1737 C 0.28605 0.96297 0.30697 0.0
C1738 C 0.27958 0.94894 0.28149 0.0
C1739 C 0.26789 0.94999 0.27985 0.0
C1740 C 0.26545 0.95778 0.29164 0.0
H1741 H 0.2077 0.91303 0.19835 0.0
H1742 H 0.22347 0.92909 0.21936 0.0
C1743 C 0.27451 0.96432 0.30501 0.0
C1744 C 0.25775 0.94205 0.2666 0.0
H1745 H 0.25348 0.93737 0.22365 0.0
C1746 C 0.24515 0.93134 0.27177 0.0
C1747 C 0.2607 0.94448 0.24906 0.0
C1748 C 0.2739 0.95614 0.24287 0.0
C1749 C 0.23561 0.92266 0.25984 0.0
C1750 C 0.23877 0.92475 0.24233 0.0
C1751 C 0.25115 0.93576 0.23711 0.0
C1752 C 0.22951 0.91524 0.22934 0.0
C1753 C 0.22226 0.91118 0.266 0.0
C1754 C 0.22786 0.90224 0.22791 0.0
C1755 C 0.21895 0.8931 0.21591 0.0
C1756 C 0.21146 0.89677 0.20517 0.0
C1757 C 0.21324 0.90987 0.20654 0.0
C1758 C 0.22227 0.91907 0.21847 0.0
H1759 H 0.22033 0.91245 0.27954 0.0
H1760 H 0.2138 0.9104 0.25816 0.0
H1761 H 0.22232 0.90152 0.26471 0.0
H1762 H 0.23343 0.89915 0.23615 0.0
H1763 H 0.2177 0.88305 0.21529 0.0
H1764 H 0.657 0.94981 0.29967 0.0
H1765 H 0.66097 0.9376 0.27697 0.0
H1766 H 0.70368 0.95915 0.28809 0.0
H1767 H 0.69984 0.97157 0.31088 0.0
H1768 H 0.69697 0.95596 0.25224 0.0
H1769 H 0.67021 0.9076 0.28795 0.0
H1770 H 0.66062 0.91606 0.28526 0.0
H1771 H 0.67579 0.92383 0.29784 0.0
C1772 C 0.66728 0.95207 0.29725 0.0
C1773 C 0.67809 0.96159 0.30725 0.0
C1774 C 0.66951 0.94503 0.28428 0.0
C1775 C 0.68257 0.9473 0.28106 0.0
C1776 C 0.6935 0.9572 0.29046 0.0
H1777 H 0.6998 0.89126 0.22678 0.0
H1778 H 0.69902 0.90694 0.2473 0.0
C1779 C 0.69128 0.96428 0.30348 0.0
C1780 C 0.68468 0.9389 0.26834 0.0
H1781 H 0.67609 0.90627 0.25938 0.0
C1782 C 0.69246 0.94511 0.2538 0.0
C1783 C 0.67893 0.92477 0.27054 0.0
C1784 C 0.67102 0.91765 0.2863 0.0
C1785 C 0.6944 0.93747 0.24118 0.0
C1786 C 0.68825 0.92327 0.24311 0.0
C1787 C 0.68071 0.91714 0.25784 0.0
C1788 C 0.68954 0.91451 0.23013 0.0
C1789 C 0.70313 0.94469 0.226 0.0
C1790 C 0.68445 0.91354 0.21362 0.0
C1791 C 0.68496 0.90462 0.20179 0.0
C1792 C 0.69052 0.89645 0.20626 0.0
C1793 C 0.69567 0.89754 0.22279 0.0
C1794 C 0.69515 0.90645 0.23459 0.0
H1795 H 0.70986 0.95566 0.22853 0.0
H1796 H 0.70946 0.94021 0.22232 0.0
H1797 H 0.69655 0.94365 0.21506 0.0
H1798 H 0.67984 0.91947 0.20999 0.0
H1799 H 0.68098 0.9041 0.18915 0.0
H1800 H 0.03057 0.72726 0.30583 0.0
H1801 H 0.04186 0.7421 0.28152 0.0
H1802 H 0.06856 0.72566 0.27723 0.0
H1803 H 0.05724 0.71066 0.30115 0.0
H1804 H 0.06825 0.76179 0.2793 0.0
H1805 H 0.05706 0.72411 0.22843 0.0
H1806 H 0.04817 0.71971 0.2485 0.0
H1807 H 0.06452 0.721 0.24667 0.0
C1808 C 0.03871 0.72666 0.29955 0.0
C1809 C 0.04296 0.71772 0.30544 0.0
C1810 C 0.04517 0.73516 0.28567 0.0
C1811 C 0.05592 0.73485 0.27736 0.0
C1812 C 0.06007 0.72585 0.28312 0.0
H1813 H 0.12081 0.78324 0.2093 0.0
H1814 H 0.10442 0.76669 0.22914 0.0
C1815 C 0.05362 0.71733 0.29692 0.0
C1816 C 0.06348 0.74454 0.26347 0.0
H1817 H 0.07555 0.74657 0.22315 0.0
C1818 C 0.06966 0.75847 0.26692 0.0
C1819 C 0.06532 0.74021 0.24731 0.0
C1820 C 0.0583 0.72544 0.24244 0.0
C1821 C 0.07811 0.76814 0.25493 0.0
C1822 C 0.08034 0.76377 0.23904 0.0
C1823 C 0.07387 0.74988 0.23539 0.0
C1824 C 0.08987 0.77345 0.22637 0.0
C1825 C 0.08503 0.78295 0.25956 0.0
C1826 C 0.087 0.78259 0.21803 0.0
C1827 C 0.09629 0.792 0.20651 0.0
C1828 C 0.10865 0.79245 0.20314 0.0
C1829 C 0.11134 0.78308 0.21136 0.0
C1830 C 0.10202 0.77366 0.2228 0.0
H1831 H 0.08398 0.78454 0.27329 0.0
H1832 H 0.09597 0.78799 0.25633 0.0
H1833 H 0.08049 0.78795 0.25213 0.0
H1834 H 0.07758 0.78246 0.22046 0.0
H1835 H 0.09377 0.79888 0.20021 0.0
H1836 H 0.29756 0.34837 0.30154 0.0
H1837 H 0.28213 0.34412 0.2779 0.0
H1838 H 0.26229 0.30126 0.28786 0.0
H1839 H 0.27761 0.3054 0.3118 0.0
H1840 H 0.2768 0.32834 0.24841 0.0
H1841 H 0.23116 0.30954 0.28952 0.0
H1842 H 0.24811 0.31827 0.29802 0.0
H1843 H 0.24059 0.30087 0.29164 0.0
C1844 C 0.28996 0.33801 0.29871 0.0
C1845 C 0.28877 0.32723 0.3087 0.0
C1846 C 0.28116 0.33561 0.28514 0.0
C1847 C 0.27094 0.32241 0.28128 0.0
C1848 C 0.26996 0.31156 0.29083 0.0
H1849 H 0.20419 0.29797 0.20897 0.0
H1850 H 0.22042 0.29726 0.22873 0.0
C1851 C 0.27878 0.31394 0.30445 0.0
C1852 C 0.26117 0.32019 0.26749 0.0
H1853 H 0.22799 0.31032 0.26009 0.0
C1854 C 0.26611 0.32431 0.25093 0.0
C1855 C 0.24722 0.3149 0.27081 0.0
C1856 C 0.24141 0.31073 0.28846 0.0
C1857 C 0.25751 0.32347 0.23763 0.0
C1858 C 0.24365 0.31858 0.24106 0.0
C1859 C 0.23863 0.31406 0.2575 0.0
C1860 C 0.23435 0.31884 0.22809 0.0
C1861 C 0.26335 0.32785 0.22003 0.0
C1862 C 0.2368 0.3312 0.22118 0.0
C1863 C 0.22758 0.33164 0.20988 0.0
C1864 C 0.21567 0.31972 0.20531 0.0
C1865 C 0.21334 0.30731 0.21206 0.0
C1866 C 0.22256 0.30689 0.22342 0.0
H1867 H 0.2728 0.32739 0.21841 0.0
H1868 H 0.25599 0.32143 0.21014 0.0
H1869 H 0.26586 0.33847 0.21796 0.0
H1870 H 0.24569 0.34058 0.22485 0.0
H1871 H 0.22973 0.34134 0.20481 0.0
H1872 H 0.28602 0.32406 0.40294 0.0
H1873 H 0.2747 0.32829 0.42649 0.0
H1874 H 0.29723 0.3711 0.41604 0.0
H1875 H 0.30854 0.36695 0.39217 0.0
H1876 H 0.28477 0.3443 0.45583 0.0
H1877 H 0.25766 0.36226 0.41396 0.0
H1878 H 0.26616 0.35368 0.40574 0.0
H1879 H 0.27578 0.37113 0.41199 0.0
C1880 C 0.28866 0.3344 0.40565 0.0
C1881 C 0.29812 0.34516 0.39552 0.0
C1882 C 0.28218 0.3368 0.41917 0.0
C1883 C 0.28496 0.34998 0.42285 0.0
C1884 C 0.29475 0.36082 0.41321 0.0
H1885 H 0.24118 0.37372 0.49407 0.0
H1886 H 0.25839 0.37465 0.47454 0.0
C1887 C 0.30126 0.35843 0.39963 0.0
C1888 C 0.27723 0.35215 0.43649 0.0
H1889 H 0.25342 0.36149 0.44331 0.0
C1890 C 0.27799 0.34815 0.45313 0.0
C1891 C 0.2684 0.3572 0.43293 0.0
C1892 C 0.26682 0.36123 0.41518 0.0
C1893 C 0.27002 0.34888 0.46627 0.0
C1894 C 0.26088 0.35352 0.4626 0.0
C1895 C 0.26043 0.35793 0.44608 0.0
C1896 C 0.25112 0.35313 0.4754 0.0
C1897 C 0.27142 0.34464 0.48396 0.0
C1898 C 0.24131 0.34073 0.48234 0.0
C1899 C 0.2315 0.34017 0.49352 0.0
C1900 C 0.23125 0.352 0.49793 0.0
C1901 C 0.2412 0.36445 0.49111 0.0
C1902 C 0.25099 0.36499 0.47988 0.0
H1903 H 0.28139 0.34529 0.48576 0.0
H1904 H 0.27024 0.35101 0.49374 0.0
H1905 H 0.26343 0.33397 0.48605 0.0
H1906 H 0.24105 0.33142 0.47882 0.0
H1907 H 0.22405 0.33045 0.49863 0.0
H1908 H 0.68169 0.96506 0.40344 0.0
H1909 H 0.67799 0.94938 0.4267 0.0
H1910 H 0.63635 0.92456 0.41152 0.0
H1911 H 0.63991 0.94023 0.38817 0.0
H1912 H 0.65675 0.93883 0.45442 0.0
H1913 H 0.65483 0.90004 0.40955 0.0
H1914 H 0.66229 0.91766 0.40377 0.0
H1915 H 0.64424 0.9072 0.40495 0.0
C1916 C 0.67169 0.95635 0.40512 0.0
C1917 C 0.66112 0.95385 0.39385 0.0
C1918 C 0.6696 0.94743 0.41846 0.0
C1919 C 0.65694 0.93578 0.4207 0.0
C1920 C 0.64622 0.93347 0.40989 0.0
H1921 H 0.63352 0.87608 0.50257 0.0
H1922 H 0.63383 0.89236 0.48193 0.0
C1923 C 0.64827 0.94245 0.3966 0.0
C1924 C 0.65526 0.92573 0.43379 0.0
H1925 H 0.65256 0.89472 0.4387 0.0
C1926 C 0.65571 0.92913 0.45103 0.0
C1927 C 0.65407 0.91318 0.42926 0.0
C1928 C 0.6539 0.90924 0.4109 0.0
C1929 C 0.65502 0.92025 0.46389 0.0
C1930 C 0.65388 0.90773 0.45933 0.0
C1931 C 0.65337 0.90432 0.4421 0.0
C1932 C 0.65378 0.89824 0.47224 0.0
C1933 C 0.65587 0.92443 0.48225 0.0
C1934 C 0.66486 0.89614 0.47353 0.0
C1935 C 0.66473 0.88689 0.48528 0.0
C1936 C 0.65343 0.87946 0.49585 0.0
C1937 C 0.64233 0.88161 0.49454 0.0
C1938 C 0.64253 0.89095 0.48285 0.0
H1939 H 0.65862 0.93521 0.48358 0.0
H1940 H 0.64592 0.91805 0.48847 0.0
H1941 H 0.66346 0.92283 0.4891 0.0
H1942 H 0.6736 0.90162 0.46536 0.0
H1943 H 0.67334 0.88534 0.48581 0.0
H1944 H 0.04995 0.73008 0.39109 0.0
H1945 H 0.06536 0.74177 0.41454 0.0
H1946 H 0.07066 0.70726 0.42242 0.0
H1947 H 0.05569 0.69572 0.39829 0.0
H1948 H 0.06466 0.73704 0.44683 0.0
H1949 H 0.10921 0.73628 0.41976 0.0
H1950 H 0.09399 0.73113 0.40769 0.0
H1951 H 0.09489 0.7197 0.42271 0.0
C1952 C 0.05439 0.72495 0.39779 0.0
C1953 C 0.05167 0.712 0.39273 0.0
C1954 C 0.06321 0.73166 0.41124 0.0
C1955 C 0.06942 0.72554 0.42011 0.0
C1956 C 0.06635 0.71239 0.41547 0.0
H1957 H 0.11215 0.76359 0.51557 0.0
H1958 H 0.09548 0.74792 0.49506 0.0
C1959 C 0.05771 0.70576 0.40176 0.0
C1960 C 0.07906 0.73306 0.43413 0.0
H1961 H 0.11154 0.74497 0.44761 0.0
C1962 C 0.07491 0.73877 0.447 0.0
C1963 C 0.09251 0.73546 0.43427 0.0
C1964 C 0.09798 0.73044 0.42029 0.0
C1965 C 0.08386 0.74701 0.45976 0.0
C1966 C 0.09722 0.74918 0.46011 0.0
C1967 C 0.10128 0.74324 0.44744 0.0
C1968 C 0.10742 0.75823 0.47282 0.0
C1969 C 0.07902 0.75376 0.47223 0.0
C1970 C 0.11993 0.76891 0.46726 0.0
C1971 C 0.12957 0.77761 0.47896 0.0
C1972 C 0.12686 0.77592 0.49648 0.0
C1973 C 0.11441 0.76519 0.5021 0.0
C1974 C 0.10485 0.7563 0.49038 0.0
H1975 H 0.07016 0.75425 0.46726 0.0
H1976 H 0.07585 0.74783 0.48419 0.0
H1977 H 0.08716 0.76421 0.47524 0.0
H1978 H 0.12219 0.77064 0.45381 0.0
H1979 H 0.13906 0.78585 0.47429 0.0
H1980 H 0.30656 0.03273 0.72345 0.0
H1981 H 0.30248 0.04496 0.74626 0.0
H1982 H 0.34503 0.06629 0.75826 0.0
H1983 H 0.34925 0.05426 0.73555 0.0
H1984 H 0.30889 0.04783 0.78239 0.0
H1985 H 0.33588 0.09641 0.74716 0.0
H1986 H 0.33031 0.08023 0.73712 0.0
H1987 H 0.34541 0.08788 0.74983 0.0
C1988 C 0.31503 0.03992 0.73105 0.0
C1989 C 0.32826 0.04261 0.72752 0.0
C1990 C 0.31267 0.04689 0.74408 0.0
C1991 C 0.32349 0.05668 0.75374 0.0
C1992 C 0.33658 0.05894 0.75075 0.0
H1993 H 0.32507 0.09945 0.8459 0.0
H1994 H 0.32599 0.08404 0.82492 0.0
C1995 C 0.33895 0.05201 0.73778 0.0
C1996 C 0.32127 0.06498 0.76647 0.0
H1997 H 0.32983 0.09756 0.77571 0.0
C1998 C 0.3134 0.05869 0.78093 0.0
C1999 C 0.32702 0.07912 0.7644 0.0
C2000 C 0.33503 0.08633 0.74873 0.0
C2001 C 0.31143 0.06626 0.79361 0.0
C2002 C 0.3176 0.08047 0.79181 0.0
C2003 C 0.3252 0.08668 0.77715 0.0
C2004 C 0.31634 0.08917 0.80491 0.0
C2005 C 0.30263 0.05896 0.80872 0.0
C2006 C 0.31079 0.09733 0.80057 0.0
C2007 C 0.3104 0.10625 0.81246 0.0
C2008 C 0.31561 0.10727 0.82894 0.0
C2009 C 0.32105 0.09899 0.8333 0.0
C2010 C 0.32143 0.09005 0.82138 0.0
H2011 H 0.29589 0.04802 0.80607 0.0
H2012 H 0.30918 0.0599 0.81966 0.0
H2013 H 0.29632 0.06345 0.81246 0.0
H2014 H 0.30691 0.09691 0.78789 0.0
H2015 H 0.30634 0.11262 0.80855 0.0
H2016 H 0.97079 0.27144 0.72053 0.0
H2017 H 0.95887 0.25575 0.74396 0.0
H2018 H 0.94207 0.28054 0.7597 0.0
H2019 H 0.95385 0.29622 0.73637 0.0
H2020 H 0.95328 0.27011 0.78706 0.0
H2021 H 0.91578 0.23119 0.74298 0.0
H2022 H 0.93347 0.23843 0.73789 0.0
H2023 H 0.92575 0.24881 0.73709 0.0
C2024 C 0.96469 0.27364 0.72909 0.0
C2025 C 0.9632 0.28504 0.72649 0.0
C2026 C 0.95786 0.26465 0.74242 0.0
C2027 C 0.94953 0.26696 0.75344 0.0
C2028 C 0.94845 0.27858 0.7513 0.0
H2029 H 0.88361 0.2178 0.82031 0.0
H2030 H 0.89951 0.23377 0.79947 0.0
C2031 C 0.95516 0.28751 0.73792 0.0
C2032 C 0.94135 0.25697 0.76668 0.0
H2033 H 0.91299 0.22612 0.77219 0.0
C2034 C 0.94455 0.26043 0.78385 0.0
C2035 C 0.9299 0.24444 0.76239 0.0
C2036 C 0.92589 0.24043 0.74411 0.0
C2037 C 0.9365 0.25166 0.79689 0.0
C2038 C 0.925 0.23918 0.79258 0.0
C2039 C 0.92187 0.23569 0.77541 0.0
C2040 C 0.9157 0.22986 0.80569 0.0
C2041 C 0.94009 0.25591 0.81518 0.0
C2042 C 0.91958 0.22238 0.81606 0.0
C2043 C 0.91051 0.21321 0.82797 0.0
C2044 C 0.89743 0.21144 0.82976 0.0
C2045 C 0.89367 0.21907 0.81942 0.0
C2046 C 0.90269 0.22813 0.80745 0.0
H2047 H 0.94831 0.26661 0.81636 0.0
H2048 H 0.93106 0.25461 0.82221 0.0
H2049 H 0.94347 0.24935 0.82133 0.0
H2050 H 0.92955 0.22351 0.81479 0.0
H2051 H 0.91372 0.20753 0.83581 0.0
H2052 H 0.71164 0.65709 0.73258 0.0
H2053 H 0.72703 0.66143 0.75621 0.0
H2054 H 0.74106 0.70416 0.75279 0.0
H2055 H 0.72584 0.69995 0.7287 0.0
H2056 H 0.76181 0.69956 0.75467 0.0
H2057 H 0.72529 0.67017 0.80526 0.0
H2058 H 0.72267 0.6599 0.78682 0.0
H2059 H 0.72014 0.67426 0.78549 0.0
C2060 C 0.71786 0.66742 0.73694 0.0
C2061 C 0.71747 0.67817 0.72871 0.0
C2062 C 0.7266 0.66986 0.75059 0.0
C2063 C 0.73503 0.68309 0.75653 0.0
C2064 C 0.73457 0.69386 0.74852 0.0
H2065 H 0.78428 0.69272 0.84711 0.0
H2066 H 0.76834 0.69427 0.82768 0.0
C2067 C 0.72585 0.69143 0.73476 0.0
C2068 C 0.74502 0.68565 0.77021 0.0
H2069 H 0.74819 0.67474 0.80943 0.0
C2070 C 0.75881 0.6943 0.76675 0.0
C2071 C 0.74114 0.67901 0.78613 0.0
C2072 C 0.72649 0.67044 0.79122 0.0
C2073 C 0.76884 0.6959 0.77838 0.0
C2074 C 0.76499 0.68838 0.79369 0.0
C2075 C 0.75118 0.68033 0.79757 0.0
C2076 C 0.77509 0.68813 0.80539 0.0
C2077 C 0.78347 0.70557 0.77405 0.0
C2078 C 0.78411 0.68407 0.79938 0.0
C2079 C 0.79331 0.68332 0.81039 0.0
C2080 C 0.79358 0.68642 0.82776 0.0
C2081 C 0.78449 0.69044 0.83378 0.0
C2082 C 0.77531 0.69125 0.82271 0.0
H2083 H 0.78444 0.71371 0.76539 0.0
H2084 H 0.78956 0.71032 0.78564 0.0
H2085 H 0.78776 0.69997 0.7674 0.0
H2086 H 0.78393 0.68128 0.78617 0.0
H2087 H 0.80026 0.68036 0.80522 0.0
H2088 H 0.72258 0.68455 0.63507 0.0
H2089 H 0.73503 0.68169 0.61171 0.0
H2090 H 0.71397 0.6386 0.62028 0.0
H2091 H 0.7013 0.64132 0.64367 0.0
H2092 H 0.75208 0.67078 0.61548 0.0
H2093 H 0.71147 0.64154 0.56835 0.0
H2094 H 0.7093 0.65066 0.58574 0.0
H2095 H 0.70837 0.63469 0.5895 0.0
C2096 C 0.72044 0.67442 0.63189 0.0
C2097 C 0.71095 0.66316 0.64131 0.0
C2098 C 0.72758 0.67281 0.61852 0.0
C2099 C 0.72536 0.65993 0.61417 0.0
C2100 C 0.71567 0.64861 0.62323 0.0
H2101 H 0.76823 0.63538 0.54323 0.0
H2102 H 0.75219 0.63555 0.56388 0.0
C2103 C 0.70849 0.6502 0.63665 0.0
C2104 C 0.73396 0.6586 0.601 0.0
H2105 H 0.73334 0.64514 0.56193 0.0
C2106 C 0.74798 0.6652 0.60375 0.0
C2107 C 0.72857 0.6512 0.5858 0.0
C2108 C 0.71361 0.64419 0.58203 0.0
C2109 C 0.75678 0.66464 0.59173 0.0
C2110 C 0.75144 0.65749 0.57635 0.0
C2111 C 0.73739 0.65066 0.57369 0.0
C2112 C 0.7604 0.65722 0.56285 0.0
C2113 C 0.77171 0.67156 0.59569 0.0
C2114 C 0.77006 0.66929 0.55507 0.0
C2115 C 0.7792 0.66923 0.54328 0.0
C2116 C 0.77882 0.65707 0.53893 0.0
C2117 C 0.76875 0.6449 0.54622 0.0
C2118 C 0.75961 0.64498 0.55806 0.0
H2119 H 0.77367 0.67343 0.60954 0.0
H2120 H 0.7762 0.66544 0.59118 0.0
H2121 H 0.77694 0.68149 0.58913 0.0
H2122 H 0.77065 0.6788 0.55831 0.0
H2123 H 0.78665 0.67873 0.53764 0.0
H2124 H 0.36738 0.06487 0.64742 0.0
H2125 H 0.37111 0.08069 0.6242 0.0
H2126 H 0.32977 0.05562 0.608 0.0
H2127 H 0.3259 0.03978 0.63112 0.0
H2128 H 0.35132 0.06663 0.5808 0.0
H2129 H 0.35226 0.10482 0.62591 0.0
H2130 H 0.36297 0.09783 0.63063 0.0
H2131 H 0.34494 0.08718 0.63148 0.0
C2132 C 0.35913 0.06262 0.63879 0.0
C2133 C 0.34631 0.05111 0.64122 0.0
C2134 C 0.36127 0.0717 0.62558 0.0
C2135 C 0.35068 0.06936 0.61452 0.0
C2136 C 0.33807 0.0576 0.61644 0.0
H2137 H 0.33421 0.11976 0.54952 0.0
H2138 H 0.33401 0.10347 0.56991 0.0
C2139 C 0.33588 0.04858 0.6297 0.0
C2140 C 0.35242 0.07949 0.60152 0.0
H2141 H 0.35482 0.11038 0.59683 0.0
C2142 C 0.35221 0.07625 0.58426 0.0
C2143 C 0.35343 0.09195 0.60614 0.0
C2144 C 0.35334 0.09571 0.62453 0.0
C2145 C 0.35294 0.08519 0.57146 0.0
C2146 C 0.35387 0.09761 0.5761 0.0
C2147 C 0.35416 0.10086 0.59336 0.0
C2148 C 0.35397 0.10713 0.56325 0.0
C2149 C 0.35232 0.08117 0.55307 0.0
C2150 C 0.36528 0.11458 0.55279 0.0
C2151 C 0.36544 0.12393 0.54113 0.0
C2152 C 0.35425 0.12592 0.53971 0.0
C2153 C 0.3429 0.11833 0.55014 0.0
C2154 C 0.3428 0.10908 0.56186 0.0
H2155 H 0.3497 0.07043 0.55163 0.0
H2156 H 0.34474 0.08272 0.54611 0.0
H2157 H 0.36232 0.08768 0.54702 0.0
H2158 H 0.37404 0.11329 0.5538 0.0
H2159 H 0.3743 0.12957 0.53321 0.0
H2160 H 0.96338 0.28101 0.63352 0.0
H2161 H 0.94821 0.26977 0.60973 0.0
H2162 H 0.92953 0.29422 0.61736 0.0
H2163 H 0.94455 0.3054 0.64157 0.0
H2164 H 0.91094 0.26759 0.61413 0.0
H2165 H 0.9482 0.28235 0.56192 0.0
H2166 H 0.9522 0.27479 0.57928 0.0
H2167 H 0.95251 0.29059 0.58241 0.0
C2168 C 0.95617 0.28416 0.63006 0.0
C2169 C 0.95522 0.29415 0.63949 0.0
C2170 C 0.94755 0.27776 0.61633 0.0
C2171 C 0.93788 0.28131 0.61153 0.0
C2172 C 0.93699 0.29139 0.62076 0.0
H2173 H 0.87332 0.2432 0.5352 0.0
H2174 H 0.88962 0.25923 0.55566 0.0
C2175 C 0.94559 0.29779 0.63458 0.0
C2176 C 0.92815 0.27378 0.59766 0.0
H2177 H 0.92618 0.26312 0.55658 0.0
C2178 C 0.91426 0.26679 0.60146 0.0
C2179 C 0.93248 0.27274 0.58112 0.0
C2180 C 0.94715 0.28064 0.57588 0.0
C2181 C 0.90464 0.25835 0.58942 0.0
C2182 C 0.90903 0.25692 0.57312 0.0
C2183 C 0.92287 0.26418 0.56914 0.0
C2184 C 0.89944 0.2475 0.56029 0.0
C2185 C 0.88989 0.25059 0.59437 0.0
C2186 C 0.89974 0.23573 0.55592 0.0
C2187 C 0.89037 0.22647 0.54437 0.0
C2188 C 0.88057 0.22887 0.53683 0.0
C2189 C 0.88054 0.24088 0.54097 0.0
C2190 C 0.88988 0.2501 0.55261 0.0
H2191 H 0.88839 0.25119 0.60824 0.0
H2192 H 0.88434 0.25482 0.5875 0.0
H2193 H 0.88536 0.23978 0.5907 0.0
H2194 H 0.90705 0.23355 0.56174 0.0
H2195 H 0.8906 0.21727 0.5417 0.0
H2196 H 0.32291 0.28432 0.63329 0.0
H2197 H 0.32654 0.27196 0.61045 0.0
H2198 H 0.36938 0.29342 0.62074 0.0
H2199 H 0.36589 0.30599 0.64363 0.0
H2200 H 0.36235 0.28996 0.5851 0.0
H2201 H 0.33563 0.24189 0.62143 0.0
H2202 H 0.3261 0.25042 0.61871 0.0
H2203 H 0.34136 0.25822 0.63113 0.0
C2204 C 0.33314 0.28654 0.63064 0.0
C2205 C 0.3441 0.29606 0.64045 0.0
C2206 C 0.33518 0.27941 0.6176 0.0
C2207 C 0.34818 0.28159 0.61412 0.0
C2208 C 0.35924 0.29153 0.6233 0.0
H2209 H 0.36498 0.225 0.56064 0.0
H2210 H 0.36426 0.24087 0.5809 0.0
C2211 C 0.35722 0.2987 0.63638 0.0
C2212 C 0.35009 0.27305 0.60143 0.0
H2213 H 0.34138 0.24033 0.59289 0.0
C2214 C 0.35781 0.27912 0.58679 0.0
C2215 C 0.34432 0.25894 0.60381 0.0
C2216 C 0.33649 0.25196 0.61968 0.0
C2217 C 0.35966 0.27136 0.57427 0.0
C2218 C 0.35349 0.25718 0.5764 0.0
C2219 C 0.346 0.25118 0.5912 0.0
C2220 C 0.35475 0.24829 0.56356 0.0
C2221 C 0.36834 0.27843 0.559 0.0
C2222 C 0.34963 0.24718 0.54705 0.0
C2223 C 0.35011 0.23816 0.53536 0.0
C2224 C 0.35566 0.23002 0.53999 0.0
C2225 C 0.36085 0.23125 0.55653 0.0
C2226 C 0.36037 0.24026 0.56818 0.0
H2227 H 0.37508 0.28942 0.56136 0.0
H2228 H 0.37465 0.27391 0.5554 0.0
H2229 H 0.36172 0.2773 0.54806 0.0
H2230 H 0.34502 0.25309 0.5433 0.0
H2231 H 0.34611 0.23753 0.52271 0.0
H2232 H 0.69879 0.05984 0.63974 0.0
H2233 H 0.71001 0.07469 0.61542 0.0
H2234 H 0.73611 0.05762 0.61023 0.0
H2235 H 0.72485 0.04262 0.63419 0.0
H2236 H 0.73656 0.09407 0.613 0.0
H2237 H 0.7242 0.05648 0.56166 0.0
H2238 H 0.71549 0.05213 0.58185 0.0
H2239 H 0.73168 0.05311 0.57968 0.0
C2240 C 0.70678 0.0591 0.63327 0.0
C2241 C 0.71088 0.05 0.63892 0.0
C2242 C 0.7132 0.06761 0.61938 0.0
C2243 C 0.72377 0.06713 0.61082 0.0
C2244 C 0.72777 0.05795 0.61633 0.0
H2245 H 0.788 0.11492 0.54149 0.0
H2246 H 0.77171 0.09837 0.56144 0.0
C2247 C 0.72135 0.04943 0.63015 0.0
C2248 C 0.73131 0.07683 0.59694 0.0
H2249 H 0.74282 0.07883 0.5563 0.0
C2250 C 0.73776 0.09075 0.60051 0.0
C2251 C 0.73286 0.07249 0.58064 0.0
C2252 C 0.72557 0.05774 0.57566 0.0
C2253 C 0.74618 0.1004 0.58849 0.0
C2254 C 0.7481 0.09602 0.57243 0.0
C2255 C 0.74138 0.08214 0.56867 0.0
C2256 C 0.75753 0.10568 0.55966 0.0
C2257 C 0.75339 0.1152 0.59326 0.0
C2258 C 0.75482 0.11512 0.55182 0.0
C2259 C 0.76406 0.12453 0.54026 0.0
C2260 C 0.77619 0.12468 0.53633 0.0
C2261 C 0.7787 0.115 0.54401 0.0
C2262 C 0.76944 0.10558 0.5555 0.0
H2263 H 0.75267 0.11672 0.6071 0.0
H2264 H 0.76424 0.12013 0.58964 0.0
H2265 H 0.74879 0.12034 0.58627 0.0
H2266 H 0.74558 0.11522 0.55469 0.0
H2267 H 0.76167 0.13166 0.53438 0.0
H2268 H 0.94292 0.63806 0.64441 0.0
H2269 H 0.92784 0.63422 0.62026 0.0
H2270 H 0.95017 0.67678 0.60833 0.0
H2271 H 0.96532 0.6807 0.63216 0.0
H2272 H 0.91151 0.64557 0.61614 0.0
H2273 H 0.94708 0.65959 0.56201 0.0
H2274 H 0.95101 0.65602 0.58293 0.0
H2275 H 0.95306 0.67238 0.5782 0.0
C2276 C 0.94475 0.64657 0.63649 0.0
C2277 C 0.95535 0.65969 0.64024 0.0
C2278 C 0.93611 0.64435 0.62271 0.0
C2279 C 0.938 0.65518 0.61234 0.0
C2280 C 0.9487 0.66823 0.6159 0.0
H2281 H 0.8965 0.67534 0.53799 0.0
H2282 H 0.91211 0.67403 0.55815 0.0
C2283 C 0.9573 0.67045 0.62964 0.0
C2284 C 0.92824 0.65314 0.59862 0.0
H2285 H 0.9262 0.65928 0.55654 0.0
C2286 C 0.91466 0.64834 0.60304 0.0
C2287 C 0.93238 0.6568 0.58155 0.0
C2288 C 0.94665 0.66136 0.57583 0.0
C2289 C 0.90525 0.64771 0.59104 0.0
C2290 C 0.90951 0.6518 0.5741 0.0
C2291 C 0.92298 0.6562 0.56955 0.0
C2292 C 0.90031 0.6523 0.56118 0.0
C2293 C 0.89099 0.64326 0.59676 0.0
C2294 C 0.88862 0.64048 0.55594 0.0
C2295 C 0.87963 0.6412 0.54448 0.0
C2296 C 0.88218 0.65377 0.53803 0.0
C2297 C 0.89412 0.66553 0.54293 0.0
C2298 C 0.9031 0.66479 0.55435 0.0
H2299 H 0.8901 0.6431 0.61084 0.0
H2300 H 0.88753 0.65007 0.59154 0.0
H2301 H 0.88409 0.63289 0.59197 0.0
H2302 H 0.88638 0.63071 0.56087 0.0
H2303 H 0.87049 0.63196 0.54104 0.0
H2304 H 0.97343 0.6992 0.72324 0.0
H2305 H 0.96233 0.70338 0.74734 0.0
H2306 H 0.94135 0.66081 0.75933 0.0
H2307 H 0.95243 0.65655 0.73554 0.0
H2308 H 0.93466 0.69252 0.75163 0.0
H2309 H 0.9558 0.67797 0.80559 0.0
H2310 H 0.96327 0.68141 0.78462 0.0
H2311 H 0.94881 0.66518 0.7894 0.0
C2312 C 0.9666 0.69076 0.73115 0.0
C2313 C 0.96384 0.67754 0.72744 0.0
C2314 C 0.96025 0.69316 0.74491 0.0
C2315 C 0.95116 0.68244 0.75529 0.0
C2316 C 0.94855 0.66929 0.75175 0.0
H2317 H 0.88985 0.66325 0.82993 0.0
H2318 H 0.90666 0.66432 0.80969 0.0
C2319 C 0.95485 0.66687 0.73803 0.0
C2320 C 0.9436 0.6847 0.76907 0.0
H2321 H 0.93546 0.6787 0.8112 0.0
C2322 C 0.935 0.68973 0.76472 0.0
C2323 C 0.94404 0.68102 0.78614 0.0
C2324 C 0.95358 0.67622 0.79177 0.0
C2325 C 0.92634 0.69055 0.77679 0.0
C2326 C 0.92645 0.68642 0.79372 0.0
C2327 C 0.93536 0.68181 0.7982 0.0
C2328 C 0.91681 0.68607 0.80669 0.0
C2329 C 0.9167 0.69523 0.77115 0.0
C2330 C 0.91712 0.69797 0.81199 0.0
C2331 C 0.90747 0.69739 0.82351 0.0
C2332 C 0.89734 0.68488 0.82995 0.0
C2333 C 0.89736 0.67302 0.825 0.0
C2334 C 0.90702 0.67362 0.81353 0.0
H2335 H 0.91598 0.69542 0.75708 0.0
H2336 H 0.90641 0.68854 0.77639 0.0
H2337 H 0.92031 0.70562 0.77598 0.0
H2338 H 0.92472 0.7077 0.80706 0.0
H2339 H 0.9077 0.7067 0.82698 0.0
H2340 H 0.34971 0.29703 0.7341 0.0
H2341 H 0.3462 0.28112 0.75692 0.0
H2342 H 0.30329 0.2599 0.74714 0.0
H2343 H 0.30665 0.27588 0.72426 0.0
H2344 H 0.3106 0.26381 0.78267 0.0
H2345 H 0.33687 0.24183 0.74642 0.0
H2346 H 0.34648 0.25989 0.74886 0.0
H2347 H 0.33113 0.25238 0.73663 0.0
C2348 C 0.33949 0.28905 0.73684 0.0
C2349 C 0.32847 0.28766 0.7272 0.0
C2350 C 0.33752 0.27994 0.74987 0.0
C2351 C 0.32452 0.2692 0.75351 0.0
C2352 C 0.31342 0.26809 0.74445 0.0
H2353 H 0.30778 0.1964 0.8081 0.0
H2354 H 0.30849 0.21279 0.78758 0.0
C2355 C 0.31537 0.27722 0.73138 0.0
C2356 C 0.32266 0.25887 0.76631 0.0
H2357 H 0.33137 0.23489 0.7751 0.0
C2358 C 0.31509 0.25744 0.78103 0.0
C2359 C 0.32839 0.25046 0.764 0.0
C2360 C 0.33607 0.25109 0.74806 0.0
C2361 C 0.31333 0.248 0.7937 0.0
C2362 C 0.31944 0.23991 0.79163 0.0
C2363 C 0.32678 0.24118 0.77674 0.0
C2364 C 0.31826 0.22993 0.8046 0.0
C2365 C 0.3048 0.24663 0.80906 0.0
C2366 C 0.32354 0.23412 0.82102 0.0
C2367 C 0.32307 0.22474 0.83286 0.0
C2368 C 0.31736 0.21099 0.82847 0.0
C2369 C 0.31203 0.20685 0.81202 0.0
C2370 C 0.31251 0.21622 0.80022 0.0
H2371 H 0.29808 0.25091 0.8067 0.0
H2372 H 0.29847 0.23586 0.81283 0.0
H2373 H 0.31153 0.25222 0.81987 0.0
H2374 H 0.32825 0.24469 0.82458 0.0
H2375 H 0.32719 0.22826 0.84543 0.0
H2376 H 0.72876 0.03132 0.7262 0.0
H2377 H 0.74378 0.04267 0.75033 0.0
H2378 H 0.72747 0.06948 0.75473 0.0
H2379 H 0.71231 0.0581 0.73095 0.0
H2380 H 0.76355 0.06914 0.75268 0.0
H2381 H 0.7257 0.0576 0.80348 0.0
H2382 H 0.72138 0.04882 0.78335 0.0
H2383 H 0.72269 0.06517 0.78527 0.0
C2384 C 0.72825 0.03951 0.73243 0.0
C2385 C 0.71928 0.04375 0.72664 0.0
C2386 C 0.73685 0.046 0.74622 0.0
C2387 C 0.7366 0.05678 0.75454 0.0
C2388 C 0.72761 0.06097 0.74883 0.0
H2389 H 0.78465 0.12053 0.82437 0.0
H2390 H 0.76823 0.10457 0.80407 0.0
C2391 C 0.719 0.05449 0.73511 0.0
C2392 C 0.74626 0.06425 0.76848 0.0
H2393 H 0.74818 0.07584 0.80906 0.0
C2394 C 0.76019 0.07043 0.7651 0.0
C2395 C 0.74188 0.06593 0.7847 0.0
C2396 C 0.72709 0.05891 0.78949 0.0
C2397 C 0.76984 0.07871 0.77722 0.0
C2398 C 0.76542 0.08075 0.79319 0.0
C2399 C 0.75152 0.0743 0.79676 0.0
C2400 C 0.77508 0.09004 0.80607 0.0
C2401 C 0.78466 0.08564 0.77265 0.0
C2402 C 0.78423 0.08704 0.81414 0.0
C2403 C 0.79356 0.09608 0.82592 0.0
C2404 C 0.79392 0.10832 0.82985 0.0
C2405 C 0.78456 0.11114 0.82189 0.0
C2406 C 0.77521 0.10207 0.81019 0.0
H2407 H 0.78628 0.08487 0.75885 0.0
H2408 H 0.78977 0.0965 0.77627 0.0
H2409 H 0.78956 0.08085 0.77978 0.0
H2410 H 0.78415 0.0777 0.81131 0.0
H2411 H 0.80046 0.09346 0.832 0.0
H2412 H 0.05905 0.3728 0.03573 0.0
H2413 H 0.07376 0.36579 0.04939 0.0
H2414 H 0.04112 0.32441 0.04986 0.0
H2415 H 0.02627 0.33134 0.03604 0.0
H2416 H 0.0682 0.3531 0.08166 0.0
H2417 H 0.07383 0.32164 0.03172 0.0
H2418 H 0.06822 0.33356 0.02698 0.0
H2419 H 0.05682 0.31761 0.03669 0.0
C2420 C 0.05501 0.36217 0.03848 0.0
C2421 C 0.04145 0.35263 0.0348 0.0
C2422 C 0.06345 0.35819 0.04632 0.0
C2423 C 0.05857 0.34458 0.05056 0.0
C2424 C 0.04516 0.33494 0.04647 0.0
H2425 H 0.09845 0.3078 0.10672 0.0
H2426 H 0.08212 0.31141 0.09064 0.0
C2427 C 0.03667 0.33892 0.03861 0.0
C2428 C 0.06731 0.3408 0.06036 0.0
H2429 H 0.08403 0.32295 0.05833 0.0
C2430 C 0.07165 0.3465 0.07656 0.0
C2431 C 0.07168 0.33208 0.05375 0.0
C2432 C 0.06751 0.32591 0.03629 0.0
C2433 C 0.08034 0.3438 0.0863 0.0
C2434 C 0.08506 0.33541 0.07951 0.0
C2435 C 0.08046 0.32944 0.06347 0.0
C2436 C 0.0951 0.33311 0.0887 0.0
C2437 C 0.08429 0.34989 0.10385 0.0
C2438 C 0.10792 0.34406 0.09262 0.0
C2439 C 0.11726 0.34204 0.10176 0.0
C2440 C 0.11403 0.32899 0.10709 0.0
C2441 C 0.1013 0.31797 0.10274 0.0
C2442 C 0.09193 0.32001 0.0936 0.0
H2443 H 0.07694 0.3527 0.10899 0.0
H2444 H 0.085 0.34277 0.11284 0.0
H2445 H 0.09435 0.35923 0.10322 0.0
H2446 H 0.11071 0.35421 0.08861 0.0
H2447 H 0.12707 0.35071 0.10455 0.0
H2448 H 0.67425 0.69504 0.03125 0.0
H2449 H 0.68199 0.71728 0.04426 0.0
H2450 H 0.64053 0.7074 0.05131 0.0
H2451 H 0.63276 0.68542 0.03799 0.0
H2452 H 0.6561 0.73306 0.04008 0.0
H2453 H 0.68115 0.72369 0.09475 0.0
H2454 H 0.68732 0.72234 0.07425 0.0
H2455 H 0.6702 0.71045 0.08028 0.0
C2456 C 0.6668 0.69767 0.03545 0.0
C2457 C 0.65288 0.68842 0.03365 0.0
C2458 C 0.67124 0.71033 0.04302 0.0
C2459 C 0.66184 0.71391 0.0491 0.0
C2460 C 0.64798 0.70486 0.04681 0.0
H2461 H 0.65717 0.77383 0.11 0.0
H2462 H 0.65355 0.75438 0.09297 0.0
C2463 C 0.64355 0.69227 0.03917 0.0
C2464 C 0.66627 0.72696 0.05805 0.0
H2465 H 0.68257 0.74505 0.09361 0.0
C2466 C 0.66194 0.73569 0.05174 0.0
C2467 C 0.67389 0.73041 0.0733 0.0
C2468 C 0.67833 0.7212 0.08117 0.0
C2469 C 0.66486 0.74765 0.06034 0.0
C2470 C 0.67224 0.75095 0.0757 0.0
C2471 C 0.67692 0.74247 0.0818 0.0
C2472 C 0.67459 0.76281 0.08603 0.0
C2473 C 0.65995 0.75666 0.05301 0.0
C2474 C 0.68767 0.77392 0.08799 0.0
C2475 C 0.68978 0.78517 0.09757 0.0
C2476 C 0.67884 0.78546 0.10553 0.0
C2477 C 0.66579 0.77414 0.10377 0.0
C2478 C 0.6637 0.76296 0.0941 0.0
H2479 H 0.65705 0.75431 0.03942 0.0
H2480 H 0.65094 0.75516 0.06023 0.0
H2481 H 0.66787 0.76748 0.05414 0.0
H2482 H 0.69622 0.77396 0.08188 0.0
H2483 H 0.69994 0.79374 0.09847 0.0
H2484 H 0.31515 0.94705 0.02829 0.0
H2485 H 0.29317 0.93294 0.04181 0.0
H2486 H 0.28978 0.96832 0.05173 0.0
H2487 H 0.31181 0.98258 0.03809 0.0
H2488 H 0.28608 0.95099 0.08091 0.0
H2489 H 0.25417 0.92239 0.0258 0.0
H2490 H 0.27021 0.923 0.02705 0.0
H2491 H 0.26975 0.93832 0.02351 0.0
C2492 C 0.30965 0.95183 0.03309 0.0
C2493 C 0.31523 0.96594 0.0321 0.0
C2494 C 0.29706 0.94373 0.04076 0.0
C2495 C 0.28981 0.94957 0.04765 0.0
C2496 C 0.2952 0.96362 0.04639 0.0
H2497 H 0.2092 0.90341 0.09372 0.0
H2498 H 0.22881 0.92014 0.07741 0.0
C2499 C 0.30776 0.97173 0.03855 0.0
C2500 C 0.27712 0.94107 0.05725 0.0
H2501 H 0.24522 0.91392 0.05336 0.0
C2502 C 0.27709 0.94298 0.07487 0.0
C2503 C 0.2654 0.93067 0.04932 0.0
C2504 C 0.26477 0.92849 0.03035 0.0
C2505 C 0.26579 0.93444 0.08488 0.0
C2506 C 0.25428 0.92371 0.07704 0.0
C2507 C 0.25411 0.9221 0.05933 0.0
C2508 C 0.24248 0.91378 0.08711 0.0
C2509 C 0.26627 0.93686 0.10379 0.0
C2510 C 0.24369 0.90464 0.09787 0.0
C2511 C 0.23252 0.89505 0.10712 0.0
C2512 C 0.21994 0.89447 0.10585 0.0
C2513 C 0.21879 0.9037 0.09511 0.0
C2514 C 0.22994 0.91321 0.08572 0.0
H2515 H 0.27457 0.9471 0.10732 0.0
H2516 H 0.25652 0.93566 0.10837 0.0
H2517 H 0.26798 0.92927 0.11044 0.0
H2518 H 0.25326 0.90484 0.09899 0.0
H2519 H 0.23376 0.88815 0.11537 0.0
H2520 H 0.37271 0.05713 1.00083 0.0
H2521 H 0.36559 0.07182 0.98734 0.0
H2522 H 0.3245 0.03868 0.98531 0.0
H2523 H 0.33152 0.02386 0.999 0.0
H2524 H 0.35404 0.0675 0.95512 0.0
H2525 H 0.32028 0.07012 0.00416 0.0
H2526 H 0.33216 0.06447 0.0089 0.0
H2527 H 0.31651 0.05334 0.99834 0.0
C2528 C 0.36211 0.05298 0.99777 0.0
C2529 C 0.35268 0.0393 1.001 0.0
C2530 C 0.35807 0.0614 0.99001 0.0
C2531 C 0.34451 0.05638 0.98539 0.0
C2532 C 0.33498 0.04283 0.989 0.0
H2533 H 0.31914 0.09541 0.90973 0.0
H2534 H 0.32276 0.07908 0.92572 0.0
C2535 C 0.33902 0.03436 0.99679 0.0
C2536 C 0.34066 0.06516 0.9758 0.0
H2537 H 0.32134 0.08036 0.97757 0.0
C2538 C 0.34687 0.07029 0.96001 0.0
C2539 C 0.33137 0.06886 0.98226 0.0
C2540 C 0.32475 0.06403 0.99941 0.0
C2541 C 0.34409 0.07903 0.95052 0.0
C2542 C 0.33468 0.08261 0.95687 0.0
C2543 C 0.32846 0.0775 0.97267 0.0
C2544 C 0.33163 0.0921 0.94758 0.0
C2545 C 0.35152 0.08466 0.93398 0.0
C2546 C 0.33505 0.10468 0.95476 0.0
C2547 C 0.33291 0.11399 0.94571 0.0
C2548 C 0.32722 0.11089 0.92931 0.0
C2549 C 0.32347 0.09811 0.92235 0.0
C2550 C 0.32564 0.08881 0.93141 0.0
H2551 H 0.36053 0.08337 0.93281 0.0
H2552 H 0.34463 0.07924 0.92323 0.0
H2553 H 0.35485 0.09559 0.93279 0.0
H2554 H 0.33962 0.1074 0.96726 0.0
H2555 H 0.33571 0.12364 0.95157 0.0
H2556 H 0.94842 0.31741 1.00229 0.0
H2557 H 0.93373 0.29569 0.98862 0.0
H2558 H 0.96677 0.28749 0.98671 0.0
H2559 H 0.98157 0.30924 1.00061 0.0
H2560 H 0.93804 0.2885 0.95648 0.0
H2561 H 0.93526 0.25189 0.0051 0.0
H2562 H 0.94102 0.26942 0.00999 0.0
H2563 H 0.95207 0.2648 0.99932 0.0
C2564 C 0.95255 0.31092 0.99922 0.0
C2565 C 0.96619 0.31508 1.00255 0.0
C2566 C 0.94413 0.2985 0.99136 0.0
C2567 C 0.94911 0.28992 0.98672 0.0
C2568 C 0.96263 0.29385 0.99042 0.0
H2569 H 0.91008 0.22602 0.91033 0.0
H2570 H 0.92638 0.24587 0.92648 0.0
C2571 C 0.9711 0.3063 0.99833 0.0
C2572 C 0.94034 0.27735 0.97701 0.0
H2573 H 0.92513 0.24285 0.9784 0.0
C2574 C 0.93523 0.27852 0.96126 0.0
C2575 C 0.93662 0.26434 0.98332 0.0
C2576 C 0.94142 0.26245 1.00042 0.0
C2577 C 0.92648 0.26705 0.95167 0.0
C2578 C 0.92289 0.25404 0.95786 0.0
C2579 C 0.92799 0.25285 0.97362 0.0
C2580 C 0.91342 0.24156 0.94845 0.0
C2581 C 0.92087 0.26896 0.9352 0.0
C2582 C 0.90088 0.23233 0.95564 0.0
C2583 C 0.89158 0.22091 0.94651 0.0
C2584 C 0.89466 0.21845 0.93001 0.0
C2585 C 0.9074 0.22755 0.92303 0.0
C2586 C 0.91668 0.23898 0.93218 0.0
H2587 H 0.9221 0.27923 0.93421 0.0
H2588 H 0.92634 0.2676 0.92438 0.0
H2589 H 0.90996 0.26135 0.93392 0.0
H2590 H 0.89818 0.23409 0.96822 0.0
H2591 H 0.88198 0.214 0.95239 0.0
H2592 H 0.68948 0.63262 0.0061 0.0
H2593 H 0.71138 0.63961 0.99289 0.0
H2594 H 0.71512 0.67803 0.97963 0.0
H2595 H 0.69337 0.67124 0.9934 0.0
H2596 H 0.71739 0.64479 0.96056 0.0
H2597 H 0.75245 0.69043 0.99736 0.0
H2598 H 0.73539 0.67893 0.00432 0.0
H2599 H 0.73856 0.69155 0.98848 0.0
C2600 C 0.69508 0.64266 1.00065 0.0
C2601 C 0.6897 0.65139 1.00082 0.0
C2602 C 0.7076 0.64664 0.99306 0.0
C2603 C 0.71501 0.6594 0.98536 0.0
C2604 C 0.70979 0.66827 0.98583 0.0
H2605 H 0.77428 0.67522 0.90555 0.0
H2606 H 0.75439 0.67131 0.92194 0.0
C2607 C 0.69731 0.66435 0.99364 0.0
C2608 C 0.7276 0.66289 0.97575 0.0
H2609 H 0.76108 0.6866 0.97156 0.0
C2610 C 0.72696 0.6539 0.96305 0.0
C2611 C 0.74014 0.67471 0.97906 0.0
C2612 C 0.74174 0.68439 0.99316 0.0
C2613 C 0.73841 0.65641 0.95355 0.0
C2614 C 0.75082 0.66849 0.9564 0.0
C2615 C 0.75153 0.67743 0.96921 0.0
C2616 C 0.76322 0.67182 0.94647 0.0
C2617 C 0.73712 0.6459 0.94085 0.0
C2618 C 0.77504 0.67404 0.9548 0.0
C2619 C 0.7865 0.67647 0.94545 0.0
C2620 C 0.78633 0.67668 0.92758 0.0
C2621 C 0.77462 0.67486 0.91929 0.0
C2622 C 0.76324 0.67259 0.92865 0.0
H2623 H 0.72834 0.63577 0.94376 0.0
H2624 H 0.73555 0.64884 0.92798 0.0
H2625 H 0.7464 0.64504 0.94057 0.0
H2626 H 0.7753 0.67356 0.96854 0.0
H2627 H 0.79535 0.67778 0.95219 0.0
H2628 H 0.98151 0.67423 0.9997 0.0
H2629 H 0.96652 0.68153 0.98711 0.0
H2630 H 0.93341 0.64039 0.98851 0.0
H2631 H 0.94817 0.63308 1.00124 0.0
H2632 H 0.9531 0.67308 0.95646 0.0
H2633 H 0.91604 0.66088 0.00846 0.0
H2634 H 0.93218 0.66187 0.01171 0.0
H2635 H 0.91818 0.6468 0.00293 0.0
C2636 C 0.97098 0.66679 0.99759 0.0
C2637 C 0.96603 0.65308 1.00154 0.0
C2638 C 0.96244 0.67097 0.99035 0.0
C2639 C 0.94879 0.66155 0.98708 0.0
C2640 C 0.94381 0.64791 0.99126 0.0
H2641 H 0.88077 0.65464 0.9322 0.0
H2642 H 0.8973 0.65185 0.94887 0.0
C2643 C 0.95231 0.64373 0.99847 0.0
C2644 C 0.93991 0.66568 0.97823 0.0
H2645 H 0.90916 0.66393 0.98077 0.0
C2646 C 0.94359 0.67128 0.96187 0.0
C2647 C 0.92749 0.66332 0.98529 0.0
C2648 C 0.92329 0.65801 0.00313 0.0
C2649 C 0.93491 0.67401 0.95209 0.0
C2650 C 0.92231 0.67123 0.95896 0.0
C2651 C 0.91879 0.66599 0.97549 0.0
C2652 C 0.91236 0.67313 0.94893 0.0
C2653 C 0.93905 0.67933 0.93424 0.0
C2654 C 0.91529 0.68605 0.94356 0.0
C2655 C 0.90587 0.68768 0.93395 0.0
C2656 C 0.89334 0.67641 0.92953 0.0
C2657 C 0.8904 0.66351 0.93513 0.0
C2658 C 0.8998 0.6619 0.94477 0.0
H2659 H 0.94774 0.67833 0.92966 0.0
H2660 H 0.93046 0.67388 0.9253 0.0
H2661 H 0.94209 0.69021 0.93396 0.0
H2662 H 0.92485 0.69488 0.94683 0.0
H2663 H 0.90849 0.69774 0.92977 0.0
H2664 H 0.3353 0.30845 0.00798 0.0
H2665 H 0.32806 0.28593 0.99611 0.0
H2666 H 0.36767 0.30093 0.974 0.0
H2667 H 0.37508 0.32311 0.98641 0.0
H2668 H 0.32555 0.27734 0.96486 0.0
H2669 H 0.36329 0.26766 0.99569 0.0
H2670 H 0.36091 0.28155 1.00196 0.0
H2671 H 0.37159 0.28324 0.9841 0.0
C2672 C 0.34249 0.30686 1.00079 0.0
C2673 C 0.35581 0.31752 0.99832 0.0
C2674 C 0.33835 0.294 0.99397 0.0
C2675 C 0.3474 0.2916 0.98446 0.0
C2676 C 0.36061 0.30233 0.98178 0.0
H2677 H 0.32721 0.2298 0.90782 0.0
H2678 H 0.33139 0.24977 0.92426 0.0
C2679 C 0.36482 0.31507 0.9888 0.0
C2680 C 0.34296 0.27811 0.97664 0.0
H2681 H 0.3526 0.25445 0.97067 0.0
C2682 C 0.33136 0.27225 0.96632 0.0
C2683 C 0.35033 0.27124 0.97878 0.0
C2684 C 0.36212 0.27619 0.9909 0.0
C2685 C 0.32726 0.26003 0.9576 0.0
C2686 C 0.33525 0.25372 0.9587 0.0
C2687 C 0.34655 0.25933 0.96953 0.0
C2688 C 0.33225 0.24142 0.94867 0.0
C2689 C 0.31428 0.25396 0.94752 0.0
C2690 C 0.3318 0.2302 0.95672 0.0
C2691 C 0.32982 0.21896 0.94725 0.0
C2692 C 0.32805 0.21862 0.92956 0.0
C2693 C 0.32835 0.22975 0.92149 0.0
C2694 C 0.33062 0.24111 0.93092 0.0
H2695 H 0.30719 0.25707 0.95276 0.0
H2696 H 0.3166 0.25765 0.93422 0.0
H2697 H 0.3091 0.24273 0.94742 0.0
H2698 H 0.33307 0.23016 0.97036 0.0
H2699 H 0.32959 0.21049 0.95377 0.0
H2700 H 0.6877 0.05665 0.99874 0.0
H2701 H 0.70937 0.07083 0.98466 0.0
H2702 H 0.71773 0.03791 0.98579 0.0
H2703 H 0.69601 0.02359 1.00009 0.0
H2704 H 0.74036 0.06367 0.99428 0.0
H2705 H 0.71576 0.06549 0.93436 0.0
H2706 H 0.71005 0.07055 0.95278 0.0
H2707 H 0.7067 0.05343 0.95102 0.0
C2708 C 0.69417 0.05242 0.99614 0.0
C2709 C 0.69006 0.03893 1.00043 0.0
C2710 C 0.70653 0.06053 0.98799 0.0
C2711 C 0.71503 0.05534 0.98386 0.0
C2712 C 0.71126 0.04208 0.98875 0.0
H2713 H 0.78052 0.09502 0.90981 0.0
H2714 H 0.7607 0.0783 0.92563 0.0
C2715 C 0.69886 0.03392 0.99694 0.0
C2716 C 0.72767 0.06373 0.97409 0.0
H2717 H 0.73941 0.0809 0.93671 0.0
C2718 C 0.74018 0.06737 0.98164 0.0
C2719 C 0.7274 0.06835 0.95749 0.0
C2720 C 0.71426 0.06416 0.94834 0.0
C2721 C 0.75244 0.07591 0.97325 0.0
C2722 C 0.75216 0.08108 0.95699 0.0
C2723 C 0.73963 0.07705 0.94923 0.0
C2724 C 0.76469 0.09091 0.9479 0.0
C2725 C 0.76557 0.07926 0.98183 0.0
C2726 C 0.77351 0.10358 0.95511 0.0
C2727 C 0.7849 0.11312 0.94615 0.0
C2728 C 0.78766 0.11025 0.92969 0.0
C2729 C 0.77882 0.09751 0.92254 0.0
C2730 C 0.76744 0.08796 0.93152 0.0
H2731 H 0.76407 0.07156 0.99154 0.0
H2732 H 0.77318 0.07997 0.97243 0.0
H2733 H 0.76971 0.08918 0.98835 0.0
H2734 H 0.77146 0.1062 0.96758 0.0
H2735 H 0.79154 0.12278 0.95212 0.0
H2736 H 0.67312 0.9762 0.02723 0.0
H2737 H 0.68057 0.96104 0.0389 0.0
H2738 H 0.64084 0.9358 0.06031 0.0
H2739 H 0.63323 0.95045 0.04811 0.0
H2740 H 0.6829 0.95477 0.07008 0.0
H2741 H 0.64601 0.90747 0.03827 0.0
H2742 H 0.64818 0.92368 0.03223 0.0
H2743 H 0.63736 0.91442 0.04984 0.0
C2744 C 0.66594 0.9673 0.03422 0.0
C2745 C 0.65254 0.96444 0.03656 0.0
C2746 C 0.67021 0.95866 0.04092 0.0
C2747 C 0.66119 0.94707 0.05018 0.0
C2748 C 0.64788 0.94437 0.05272 0.0
H2749 H 0.68109 0.90548 0.12683 0.0
H2750 H 0.67702 0.92129 0.11033 0.0
C2751 C 0.64356 0.95284 0.04581 0.0
C2752 C 0.66575 0.9381 0.05792 0.0
H2753 H 0.65649 0.90489 0.06347 0.0
C2754 C 0.67723 0.94387 0.06844 0.0
C2755 C 0.65858 0.92389 0.05554 0.0
C2756 C 0.64695 0.91704 0.04319 0.0
C2757 C 0.68139 0.93581 0.07716 0.0
C2758 C 0.67356 0.92152 0.07583 0.0
C2759 C 0.6624 0.91581 0.06478 0.0
C2760 C 0.67657 0.91226 0.08589 0.0
C2761 C 0.69424 0.94276 0.08748 0.0
C2762 C 0.67722 0.90158 0.07782 0.0
C2763 C 0.67913 0.89231 0.08732 0.0
C2764 C 0.68062 0.89363 0.10505 0.0
C2765 C 0.68016 0.90437 0.11313 0.0
C2766 C 0.67795 0.91348 0.10368 0.0
H2767 H 0.70131 0.953 0.08238 0.0
H2768 H 0.69174 0.94404 0.10074 0.0
H2769 H 0.69953 0.93681 0.08766 0.0
H2770 H 0.67615 0.90035 0.06415 0.0
H2771 H 0.67949 0.88412 0.0808 0.0
H2772 H 0.0261 0.69622 0.03124 0.0
H2773 H 0.0411 0.71858 0.04364 0.0
H2774 H 0.07288 0.70868 0.0478 0.0
H2775 H 0.05816 0.68659 0.03513 0.0
H2776 H 0.05247 0.7243 0.07498 0.0
H2777 H 0.09317 0.74569 0.02674 0.0
H2778 H 0.077 0.73079 0.02276 0.0
H2779 H 0.09003 0.72949 0.03406 0.0
C2780 C 0.03636 0.69891 0.03454 0.0
C2781 C 0.04095 0.68964 0.0321 0.0
C2782 C 0.04491 0.71167 0.04167 0.0
C2783 C 0.0582 0.71542 0.04641 0.0
C2784 C 0.0628 0.7062 0.04384 0.0
H2785 H 0.12251 0.77431 0.10792 0.0
H2786 H 0.10636 0.75496 0.09101 0.0
C2787 C 0.05432 0.69351 0.03667 0.0
C2788 C 0.06704 0.72855 0.05506 0.0
H2789 H 0.09883 0.75623 0.05434 0.0
C2790 C 0.06252 0.73139 0.07032 0.0
C2791 C 0.08016 0.73783 0.04897 0.0
C2792 C 0.08532 0.73587 0.03214 0.0
C2793 C 0.07099 0.74294 0.08001 0.0
C2794 C 0.08427 0.75188 0.07425 0.0
C2795 C 0.08866 0.74927 0.05877 0.0
C2796 C 0.09396 0.7637 0.08446 0.0
C2797 C 0.06589 0.74528 0.09666 0.0
C2798 C 0.09236 0.77506 0.08628 0.0
C2799 C 0.10168 0.78625 0.09577 0.0
C2800 C 0.11278 0.78627 0.10366 0.0
C2801 C 0.11426 0.77479 0.10182 0.0
C2802 C 0.10499 0.76367 0.09225 0.0
H2803 H 0.05597 0.73652 0.10037 0.0
H2804 H 0.07332 0.74726 0.10694 0.0
H2805 H 0.06471 0.75434 0.09555 0.0
H2806 H 0.08397 0.77533 0.0802 0.0
H2807 H 0.10032 0.79497 0.09667 0.0
H2808 H 0.3201 0.37399 0.03786 0.0
H2809 H 0.29796 0.36615 0.05081 0.0
H2810 H 0.28922 0.32484 0.04685 0.0
H2811 H 0.31155 0.33263 0.03402 0.0
H2812 H 0.27183 0.34837 0.03886 0.0
H2813 H 0.28329 0.32882 0.09758 0.0
H2814 H 0.29628 0.33971 0.08277 0.0
H2815 H 0.28545 0.32211 0.07789 0.0
C2816 C 0.31347 0.36322 0.03965 0.0
C2817 C 0.31764 0.35394 0.035 0.0
C2818 C 0.3008 0.35876 0.04705 0.0
C2819 C 0.29202 0.34494 0.05005 0.0
C2820 C 0.29594 0.33558 0.04495 0.0
H2821 H 0.21466 0.30732 0.10519 0.0
H2822 H 0.23405 0.31073 0.08793 0.0
C2823 C 0.30866 0.34004 0.03751 0.0
C2824 C 0.2789 0.34051 0.05878 0.0
H2825 H 0.26166 0.32661 0.09567 0.0
C2826 C 0.26957 0.34353 0.05124 0.0
C2827 C 0.27595 0.33418 0.07491 0.0
C2828 C 0.28578 0.33108 0.08388 0.0
C2829 C 0.25745 0.34054 0.05947 0.0
C2830 C 0.25469 0.33459 0.07582 0.0
C2831 C 0.26382 0.33119 0.08315 0.0
C2832 C 0.24273 0.33242 0.08587 0.0
C2833 C 0.2477 0.34379 0.05058 0.0
C2834 C 0.24125 0.34349 0.0906 0.0
C2835 C 0.23019 0.34158 0.10039 0.0
C2836 C 0.22039 0.32854 0.10577 0.0
C2837 C 0.22193 0.31746 0.10108 0.0
C2838 C 0.23303 0.3194 0.0913 0.0
H2839 H 0.24928 0.34453 0.0366 0.0
H2840 H 0.23704 0.33601 0.0533 0.0
H2841 H 0.24935 0.35371 0.05519 0.0
H2842 H 0.24874 0.35366 0.08683 0.0
H2843 H 0.22927 0.35032 0.10363 0.0
H2844 H 0.69423 0.66643 0.36502 0.0
H2845 H 0.70919 0.65919 0.37782 0.0
H2846 H 0.7384 0.70076 0.38919 0.0
H2847 H 0.72377 0.70807 0.37609 0.0
H2848 H 0.75051 0.6874 0.37696 0.0
H2849 H 0.7146 0.65739 0.42841 0.0
H2850 H 0.70809 0.65218 0.40729 0.0
H2851 H 0.71198 0.66862 0.41486 0.0
C2852 C 0.70388 0.67402 0.37015 0.0
C2853 C 0.70777 0.68783 0.3696 0.0
C2854 C 0.71238 0.66986 0.37759 0.0
C2855 C 0.72482 0.67941 0.38478 0.0
C2856 C 0.72884 0.6932 0.3838 0.0
H2857 H 0.77389 0.67071 0.46107 0.0
H2858 H 0.75802 0.67446 0.44441 0.0
C2859 C 0.72043 0.69736 0.3763 0.0
C2860 C 0.7337 0.67521 0.39349 0.0
H2861 H 0.73521 0.65723 0.42732 0.0
C2862 C 0.74715 0.68074 0.38792 0.0
C2863 C 0.72936 0.66666 0.40794 0.0
C2864 C 0.71526 0.66095 0.41511 0.0
C2865 C 0.75641 0.67813 0.3965 0.0
C2866 C 0.75202 0.66946 0.41082 0.0
C2867 C 0.73853 0.66379 0.41627 0.0
C2868 C 0.76144 0.66675 0.42089 0.0
C2869 C 0.77093 0.68514 0.39053 0.0
C2870 C 0.76852 0.66096 0.41331 0.0
C2871 C 0.7778 0.659 0.42275 0.0
C2872 C 0.78008 0.66264 0.44006 0.0
C2873 C 0.77264 0.66805 0.44771 0.0
C2874 C 0.76344 0.67008 0.43823 0.0
H2875 H 0.77337 0.69402 0.38236 0.0
H2876 H 0.77802 0.68861 0.40146 0.0
H2877 H 0.77267 0.67795 0.38292 0.0
H2878 H 0.76695 0.65803 0.40004 0.0
H2879 H 0.78339 0.65489 0.41638 0.0
H2880 H 0.29637 0.01657 0.37633 0.0
H2881 H 0.30412 0.03835 0.39029 0.0
H2882 H 0.34557 0.04926 0.38071 0.0
H2883 H 0.3379 0.02736 0.36667 0.0
H2884 H 0.32256 0.04755 0.41971 0.0
H2885 H 0.34193 0.08258 0.36432 0.0
H2886 H 0.32981 0.06477 0.36195 0.0
H2887 H 0.3472 0.07016 0.36636 0.0
C2888 C 0.30715 0.02363 0.37699 0.0
C2889 C 0.31652 0.02021 0.37037 0.0
C2890 C 0.31155 0.03607 0.38501 0.0
C2891 C 0.3254 0.04542 0.38646 0.0
C2892 C 0.33482 0.04222 0.37955 0.0
H2893 H 0.364 0.12594 0.43344 0.0
H2894 H 0.36005 0.10542 0.41852 0.0
C2895 C 0.33042 0.0297 0.37157 0.0
C2896 C 0.32985 0.05818 0.39601 0.0
H2897 H 0.34358 0.09232 0.39127 0.0
C2898 C 0.32722 0.05736 0.41353 0.0
C2899 C 0.33602 0.07094 0.38792 0.0
C2900 C 0.33888 0.07228 0.36908 0.0
C2901 C 0.33046 0.06896 0.42317 0.0
C2902 C 0.33617 0.08169 0.41498 0.0
C2903 C 0.33915 0.08255 0.39752 0.0
C2904 C 0.33863 0.09411 0.42419 0.0
C2905 C 0.32783 0.06745 0.44207 0.0
C2906 C 0.32789 0.09464 0.43218 0.0
C2907 C 0.33013 0.10628 0.44086 0.0
C2908 C 0.34316 0.11775 0.44158 0.0
C2909 C 0.35388 0.11724 0.43338 0.0
C2910 C 0.35163 0.10555 0.42473 0.0
H2911 H 0.32757 0.05821 0.44705 0.0
H2912 H 0.33568 0.07637 0.44911 0.0
H2913 H 0.31784 0.06653 0.4447 0.0
H2914 H 0.31772 0.08604 0.43164 0.0
H2915 H 0.32165 0.10623 0.44715 0.0
H2916 H 0.98999 0.28491 0.38052 0.0
H2917 H 0.96769 0.27009 0.39252 0.0
H2918 H 0.95307 0.29522 0.37112 0.0
H2919 H 0.97571 0.31053 0.35962 0.0
H2920 H 0.9443 0.28872 0.40238 0.0
H2921 H 0.93447 0.24177 0.36995 0.0
H2922 H 0.95 0.24875 0.38161 0.0
H2923 H 0.94845 0.25808 0.36411 0.0
C2924 C 0.98202 0.28724 0.37818 0.0
C2925 C 0.9846 0.29885 0.36898 0.0
C2926 C 0.9692 0.27868 0.38498 0.0
C2927 C 0.95855 0.28129 0.38238 0.0
C2928 C 0.96109 0.2929 0.37318 0.0
H2929 H 0.87733 0.21782 0.41214 0.0
H2930 H 0.89691 0.23432 0.3957 0.0
C2931 C 0.97401 0.30163 0.36658 0.0
C2932 C 0.94499 0.27221 0.38998 0.0
H2933 H 0.92119 0.23892 0.39506 0.0
C2934 C 0.93915 0.27784 0.40059 0.0
C2935 C 0.93806 0.25802 0.38741 0.0
C2936 C 0.94301 0.25134 0.37499 0.0
C2937 C 0.9269 0.26965 0.4092 0.0
C2938 C 0.92054 0.25539 0.40766 0.0
C2939 C 0.92612 0.24982 0.39652 0.0
C2940 C 0.90825 0.24599 0.41761 0.0
C2941 C 0.92088 0.27645 0.41966 0.0
C2942 C 0.90802 0.247 0.43542 0.0
C2943 C 0.89672 0.23773 0.44477 0.0
C2944 C 0.88558 0.22704 0.43655 0.0
C2945 C 0.88582 0.22596 0.41878 0.0
C2946 C 0.897 0.23538 0.4094 0.0
H2947 H 0.92403 0.28674 0.41474 0.0
H2948 H 0.90965 0.27046 0.41976 0.0
H2949 H 0.92458 0.2776 0.43294 0.0
H2950 H 0.91671 0.25476 0.44217 0.0
H2951 H 0.89685 0.23866 0.45849 0.0
H2952 H 0.04409 0.39119 0.32739 0.0
H2953 H 0.03734 0.4059 0.31317 0.0
H2954 H 0.99534 0.37606 0.32045 0.0
H2955 H 1.002 0.36115 0.33475 0.0
H2956 H 0.01998 0.39756 0.28277 0.0
H2957 H 0.99935 0.41315 0.33703 0.0
H2958 H 0.01104 0.40699 0.34006 0.0
H2959 H 0.99374 0.39541 0.33471 0.0
C2960 C 0.0334 0.38778 0.32619 0.0
C2961 C 0.02358 0.37497 0.33222 0.0
C2962 C 0.02957 0.39621 0.31801 0.0
C2963 C 0.01586 0.3921 0.31583 0.0
C2964 C 0.00598 0.37948 0.32218 0.0
H2965 H 0.98002 0.43579 0.26675 0.0
H2966 H 0.98323 0.41887 0.28196 0.0
C2967 C 0.00981 0.37097 0.33031 0.0
C2968 C 0.01204 0.4008 0.30604 0.0
H2969 H 0.99872 0.42166 0.30997 0.0
C2970 C 0.01528 0.4028 0.28868 0.0
C2971 C 0.00581 0.40749 0.31378 0.0
C2972 C 1.00231 0.40578 0.33244 0.0
C2973 C 0.01256 0.41143 0.27884 0.0
C2974 C 0.00678 0.41854 0.28669 0.0
C2975 C 0.00322 0.41626 0.30398 0.0
C2976 C 0.00478 0.42872 0.2773 0.0
C2977 C 0.01581 0.41274 0.2601 0.0
C2978 C 0.01585 0.43996 0.26978 0.0
C2979 C 0.01404 0.44955 0.26092 0.0
C2980 C 1.00112 0.44823 0.25955 0.0
C2981 C 0.99007 0.43703 0.2673 0.0
C2982 C 0.99189 0.4274 0.27612 0.0
H2983 H 0.01608 0.40374 0.25518 0.0
H2984 H 0.00829 0.41405 0.25263 0.0
H2985 H 0.02595 0.42172 0.25798 0.0
H2986 H 0.02594 0.44136 0.27082 0.0
H2987 H 0.02276 0.45795 0.255 0.0
H2988 H 0.6184 0.65572 0.32056 0.0
H2989 H 0.60362 0.63354 0.3082 0.0
H2990 H 0.62836 0.61854 0.32983 0.0
H2991 H 0.64363 0.64105 0.34169 0.0
H2992 H 0.62218 0.61009 0.2984 0.0
H2993 H 0.57495 0.60018 0.33017 0.0
H2994 H 0.58213 0.61581 0.3187 0.0
H2995 H 0.59123 0.61405 0.33632 0.0
C2996 C 0.62065 0.64768 0.32287 0.0
C2997 C 0.63214 0.65013 0.33225 0.0
C2998 C 0.61211 0.63494 0.31587 0.0
C2999 C 0.61463 0.62422 0.31842 0.0
C3000 C 0.62612 0.62662 0.32779 0.0
H3001 H 0.55141 0.5432 0.28766 0.0
H3002 H 0.56774 0.56272 0.3043 0.0
C3003 C 0.63482 0.63947 0.3346 0.0
C3004 C 0.60558 0.61074 0.3106 0.0
H3005 H 0.57232 0.58704 0.30502 0.0
C3006 C 0.61128 0.60495 0.30003 0.0
C3007 C 0.59137 0.60383 0.31297 0.0
C3008 C 0.58459 0.60873 0.32532 0.0
C3009 C 0.60315 0.59277 0.29127 0.0
C3010 C 0.58888 0.58643 0.29261 0.0
C3011 C 0.58323 0.59195 0.3037 0.0
C3012 C 0.57955 0.57419 0.28254 0.0
C3013 C 0.61002 0.58679 0.28085 0.0
C3014 C 0.58069 0.57404 0.26474 0.0
C3015 C 0.57151 0.56277 0.25527 0.0
C3016 C 0.56078 0.55157 0.26336 0.0
C3017 C 0.55957 0.55173 0.28112 0.0
C3018 C 0.5689 0.56288 0.29062 0.0
H3019 H 0.62027 0.58992 0.28587 0.0
H3020 H 0.60402 0.57557 0.28067 0.0
H3021 H 0.61125 0.59055 0.26759 0.0
H3022 H 0.58849 0.58277 0.25809 0.0
H3023 H 0.57254 0.56297 0.24156 0.0
H3024 H 0.34779 0.96035 0.32463 0.0
H3025 H 0.36939 0.96696 0.31081 0.0
H3026 H 0.3824 0.00898 0.31996 0.0
H3027 H 0.3607 0.00246 0.33388 0.0
H3028 H 0.37938 0.98472 0.28136 0.0
H3029 H 0.41458 0.00393 0.33653 0.0
H3030 H 0.3966 0.99269 0.33905 0.0
H3031 H 0.40298 0.01019 0.33406 0.0
C3032 C 0.35528 0.97101 0.32391 0.0
C3033 C 0.3525 0.98089 0.33037 0.0
C3034 C 0.36761 0.97476 0.31597 0.0
C3035 C 0.37751 0.98844 0.31444 0.0
C3036 C 0.37495 0.99835 0.32119 0.0
H3037 H 0.45761 0.02448 0.26685 0.0
H3038 H 0.43732 0.02111 0.28185 0.0
C3039 C 0.36254 0.99461 0.32911 0.0
C3040 C 0.39015 0.99222 0.30492 0.0
H3041 H 0.4242 0.00516 0.30956 0.0
C3042 C 0.38919 0.98923 0.2875 0.0
C3043 C 0.40293 0.9982 0.31295 0.0
C3044 C 0.40444 1.0014 0.3317 0.0
C3045 C 0.40066 0.99197 0.27788 0.0
C3046 C 0.41341 0.99754 0.286 0.0
C3047 C 0.41442 1.00084 0.30336 0.0
C3048 C 0.4257 0.99961 0.2768 0.0
C3049 C 0.39902 0.98898 0.25906 0.0
C3050 C 0.42597 0.98863 0.26914 0.0
C3051 C 0.43748 0.99053 0.26041 0.0
C3052 C 0.44906 0.00346 0.2593 0.0
C3053 C 0.44882 0.01443 0.2672 0.0
C3054 C 0.43726 0.01251 0.2759 0.0
H3055 H 0.38984 0.9888 0.254 0.0
H3056 H 0.40797 0.99661 0.25184 0.0
H3057 H 0.39791 0.97887 0.25677 0.0
H3058 H 0.41728 0.97853 0.26996 0.0
H3059 H 0.43723 0.98187 0.25437 0.0
H3060 H 0.61471 0.96229 0.32905 0.0
H3061 H 0.60008 0.96928 0.31511 0.0
H3062 H 0.63208 0.01092 0.31699 0.0
H3063 H 0.64684 0.00401 0.33117 0.0
H3064 H 0.60597 0.0069 0.32547 0.0
H3065 H 0.60529 0.98143 0.26505 0.0
H3066 H 0.60044 0.97051 0.28327 0.0
H3067 H 0.61738 0.98463 0.28174 0.0
C3068 C 0.61864 0.97296 0.32664 0.0
C3069 C 0.63199 0.98258 0.33111 0.0
C3070 C 0.61027 0.97692 0.31857 0.0
C3071 C 0.61508 0.99058 0.3147 0.0
C3072 C 0.62821 1.00031 0.31976 0.0
H3073 H 0.57423 0.01534 0.24126 0.0
H3074 H 0.59122 0.01263 0.25699 0.0
C3075 C 0.63662 0.99635 0.32786 0.0
C3076 C 0.60644 0.99456 0.30504 0.0
H3077 H 0.58931 0.98899 0.26761 0.0
C3078 C 0.6024 0.00307 0.31277 0.0
C3079 C 0.60197 0.98974 0.28836 0.0
C3080 C 0.60659 0.98118 0.27902 0.0
C3081 C 0.59361 0.00651 0.30448 0.0
C3082 C 0.58861 1.00114 0.28813 0.0
C3083 C 0.59303 0.993 0.2802 0.0
C3084 C 0.57858 0.00358 0.27911 0.0
C3085 C 0.58983 0.01593 0.31326 0.0
C3086 C 0.5658 0.99935 0.28628 0.0
C3087 C 0.5561 1.00096 0.27737 0.0
C3088 C 0.55892 0.00675 0.26102 0.0
C3089 C 0.57177 0.01103 0.25391 0.0
C3090 C 0.58147 0.00941 0.26284 0.0
H3091 H 0.59739 0.02218 0.32308 0.0
H3092 H 0.58891 0.02278 0.30401 0.0
H3093 H 0.57991 0.00987 0.3197 0.0
H3094 H 0.56323 0.99456 0.29866 0.0
H3095 H 0.54637 0.99766 0.2833 0.0
H3096 H 1.0026 0.643 0.34091 0.0
H3097 H 0.99578 0.62061 0.32889 0.0
H3098 H 0.03601 0.63597 0.30862 0.0
H3099 H 0.04298 0.65801 0.32118 0.0
H3100 H 0.99417 0.61239 0.29762 0.0
H3101 H 0.03113 0.60249 0.33018 0.0
H3102 H 0.02854 0.61628 0.33628 0.0
H3103 H 0.03973 0.61821 0.31892 0.0
C3104 C 0.01002 0.64151 0.3341 0.0
C3105 C 0.02337 0.65223 0.33218 0.0
C3106 C 0.00611 0.62873 0.3272 0.0
C3107 C 0.01545 0.62646 0.31815 0.0
C3108 C 0.02872 0.63725 0.31604 0.0
H3109 H 0.99787 0.5659 0.24067 0.0
H3110 H 1.00131 0.58552 0.25734 0.0
C3111 C 0.03268 0.64992 0.32315 0.0
C3112 C 0.01128 0.61308 0.31019 0.0
H3113 H 0.02123 0.58962 0.30468 0.0
C3114 C 0.99998 0.60731 0.29936 0.0
C3115 C 0.01864 0.60623 0.31267 0.0
C3116 C 0.03008 0.61106 0.3253 0.0
C3117 C 0.99617 0.59522 0.29047 0.0
C3118 C 0.00419 0.58896 0.29193 0.0
C3119 C 0.01517 0.59447 0.30326 0.0
C3120 C 1.00155 0.57684 0.28175 0.0
C3121 C 0.98349 0.58924 0.27982 0.0
C3122 C 1.00099 0.56555 0.28975 0.0
C3123 C 0.99944 0.55452 0.28017 0.0
C3124 C 0.99822 0.55446 0.2624 0.0
C3125 C 0.99859 0.56563 0.25438 0.0
C3126 C 1.00044 0.57679 0.26394 0.0
H3127 H 0.97621 0.59222 0.28477 0.0
H3128 H 0.98616 0.59315 0.26664 0.0
H3129 H 0.97838 0.57802 0.27946 0.0
H3130 H 1.00187 0.56531 0.30344 0.0
H3131 H 0.99915 0.546 0.28664 0.0
H3132 H 0.36163 0.35737 0.33187 0.0
H3133 H 0.38346 0.37179 0.31791 0.0
H3134 H 0.37527 0.40485 0.31737 0.0
H3135 H 0.35346 0.39053 0.33103 0.0
H3136 H 0.38305 0.40026 0.28614 0.0
H3137 H 0.41872 0.40333 0.33629 0.0
H3138 H 0.406 0.38645 0.33047 0.0
H3139 H 0.40109 0.3975 0.34055 0.0
C3140 C 0.36457 0.36777 0.32899 0.0
C3141 C 0.35579 0.37279 0.33256 0.0
C3142 C 0.37707 0.37601 0.32106 0.0
C3143 C 0.38105 0.38944 0.31671 0.0
C3144 C 0.37242 0.39453 0.32061 0.0
H3145 H 0.45763 0.45632 0.28448 0.0
H3146 H 0.43731 0.43988 0.2997 0.0
C3147 C 0.35995 0.38632 0.32846 0.0
C3148 C 0.3938 0.39804 0.30721 0.0
H3149 H 0.42825 0.41321 0.30966 0.0
C3150 C 0.39293 0.40307 0.29126 0.0
C3151 C 0.40669 0.40176 0.31398 0.0
C3152 C 0.40826 0.3971 0.33132 0.0
C3153 C 0.40458 0.41179 0.28194 0.0
C3154 C 0.41747 0.41539 0.28859 0.0
C3155 C 0.41835 0.41033 0.30452 0.0
C3156 C 0.43014 0.42496 0.27957 0.0
C3157 C 0.40298 0.4174 0.26529 0.0
C3158 C 0.433 0.42193 0.2633 0.0
C3159 C 0.44454 0.43138 0.25447 0.0
C3160 C 0.45351 0.44402 0.26179 0.0
C3161 C 0.45082 0.4468 0.27833 0.0
C3162 C 0.43927 0.43737 0.28712 0.0
H3163 H 0.39275 0.41624 0.26399 0.0
H3164 H 0.41065 0.4283 0.26403 0.0
H3165 H 0.40443 0.41187 0.25463 0.0
H3166 H 0.4262 0.41232 0.25734 0.0
H3167 H 0.44625 0.42891 0.24175 0.0
H3168 H 0.29864 0.28536 0.38406 0.0
H3169 H 0.30599 0.2708 0.39721 0.0
H3170 H 0.34511 0.29384 0.37329 0.0
H3171 H 0.33797 0.30896 0.36072 0.0
H3172 H 0.31314 0.25435 0.38503 0.0
H3173 H 0.35683 0.29397 0.4209 0.0
H3174 H 0.34487 0.29733 0.41013 0.0
H3175 H 0.35824 0.29691 0.39841 0.0
C3176 C 0.30883 0.28736 0.38158 0.0
C3177 C 0.31775 0.29836 0.3714 0.0
C3178 C 0.31303 0.27901 0.38912 0.0
C3179 C 0.3262 0.28132 0.38654 0.0
C3180 C 0.33503 0.29207 0.37593 0.0
H3181 H 0.34366 0.21721 0.41527 0.0
H3182 H 0.33971 0.23327 0.39914 0.0
C3183 C 0.3309 0.30063 0.36861 0.0
C3184 C 0.33043 0.27228 0.39485 0.0
H3185 H 0.35399 0.27192 0.42134 0.0
C3186 C 0.32208 0.25822 0.39298 0.0
C3187 C 0.34199 0.27727 0.40543 0.0
C3188 C 0.35092 0.29218 0.409 0.0
C3189 C 0.3248 0.24904 0.40152 0.0
C3190 C 0.33659 0.25402 0.41168 0.0
C3191 C 0.34503 0.26808 0.41342 0.0
C3192 C 0.34001 0.24484 0.42119 0.0
C3193 C 0.31467 0.23411 0.40008 0.0
C3194 C 0.34226 0.24639 0.43883 0.0
C3195 C 0.34489 0.23744 0.44797 0.0
C3196 C 0.34518 0.22668 0.43966 0.0
C3197 C 0.34328 0.22531 0.42198 0.0
C3198 C 0.34092 0.23443 0.41279 0.0
H3199 H 0.30451 0.23232 0.39635 0.0
H3200 H 0.31807 0.22957 0.39012 0.0
H3201 H 0.31366 0.22879 0.41226 0.0
H3202 H 0.34168 0.25437 0.44561 0.0
H3203 H 0.34631 0.23868 0.4616 0.0
H3204 H 0.72412 0.01821 0.37072 0.0
H3205 H 0.73836 0.04005 0.38438 0.0
H3206 H 0.70556 0.04857 0.38251 0.0
H3207 H 0.69119 0.02668 0.3686 0.0
H3208 H 0.7311 0.071 0.37391 0.0
H3209 H 0.73336 0.04721 0.4343 0.0
H3210 H 0.73847 0.04134 0.41609 0.0
H3211 H 0.7213 0.03789 0.41776 0.0
C3212 C 0.71992 0.02474 0.37308 0.0
C3213 C 0.70646 0.02064 0.36868 0.0
C3214 C 0.72808 0.03721 0.38098 0.0
C3215 C 0.72294 0.04581 0.38479 0.0
C3216 C 0.70969 0.04203 0.3798 0.0
H3217 H 0.76307 0.11206 0.45773 0.0
H3218 H 0.74627 0.09206 0.44229 0.0
C3219 C 0.7015 0.02953 0.37184 0.0
C3220 C 0.73136 0.05858 0.39432 0.0
H3221 H 0.74879 0.07083 0.43144 0.0
C3222 C 0.7349 0.07098 0.38653 0.0
C3223 C 0.73611 0.05854 0.41092 0.0
C3224 C 0.73202 0.04553 0.42035 0.0
C3225 C 0.74345 0.08336 0.39469 0.0
C3226 C 0.74876 0.08331 0.41093 0.0
C3227 C 0.74484 0.07089 0.41892 0.0
C3228 C 0.75862 0.09597 0.41978 0.0
C3229 C 0.74665 0.09636 0.38587 0.0
C3230 C 0.77117 0.10482 0.4123 0.0
C3231 C 0.78076 0.11632 0.42105 0.0
C3232 C 0.77806 0.11917 0.43755 0.0
C3233 C 0.76543 0.11031 0.44497 0.0
C3234 C 0.75584 0.09881 0.43619 0.0
H3235 H 0.73881 0.0947 0.37629 0.0
H3236 H 0.74746 0.10409 0.39513 0.0
H3237 H 0.75647 0.10043 0.37913 0.0
H3238 H 0.77368 0.1027 0.39981 0.0
H3239 H 0.79032 0.12297 0.41488 0.0
H3240 H 0.9868 0.70834 0.36994 0.0
H3241 H 0.96467 0.70045 0.38295 0.0
H3242 H 0.95659 0.65929 0.38051 0.0
H3243 H 0.97891 0.66715 0.36765 0.0
H3244 H 0.93867 0.68227 0.37141 0.0
H3245 H 0.95057 0.66398 0.43089 0.0
H3246 H 0.96347 0.67466 0.41585 0.0
H3247 H 0.95275 0.65695 0.41148 0.0
C3248 C 0.98032 0.69759 0.37208 0.0
C3249 C 0.98468 0.68839 0.36785 0.0
C3250 C 0.96765 0.6931 0.37952 0.0
C3251 C 0.95906 0.67931 0.38295 0.0
C3252 C 0.96317 0.67001 0.37828 0.0
H3253 H 0.88167 0.64187 0.43812 0.0
H3254 H 0.90108 0.64517 0.42097 0.0
C3255 C 0.97589 0.67451 0.37082 0.0
C3256 C 0.94592 0.67487 0.39166 0.0
H3257 H 0.92881 0.66141 0.42875 0.0
C3258 C 0.93648 0.67763 0.38391 0.0
C3259 C 0.94306 0.66879 0.40795 0.0
C3260 C 0.95301 0.66599 0.41715 0.0
C3261 C 0.92434 0.67465 0.39208 0.0
C3262 C 0.92166 0.66894 0.40857 0.0
C3263 C 0.9309 0.66579 0.41612 0.0
C3264 C 0.9097 0.66683 0.41855 0.0
C3265 C 0.91448 0.67764 0.383 0.0
C3266 C 0.90818 0.67792 0.42302 0.0
C3267 C 0.89712 0.67607 0.43277 0.0
C3268 C 0.88736 0.66308 0.43833 0.0
C3269 C 0.88892 0.65198 0.43387 0.0
C3270 C 0.90003 0.65386 0.42415 0.0
H3271 H 0.91606 0.67823 0.36901 0.0
H3272 H 0.90386 0.66979 0.38578 0.0
H3273 H 0.916 0.68755 0.38739 0.0
H3274 H 0.91564 0.68806 0.41911 0.0
H3275 H 0.89618 0.68483 0.43584 0.0
H3276 H 0.36175 1.00175 0.70401 0.0
H3277 H 0.37714 0.9956 0.71809 0.0
H3278 H 0.40797 0.0377 0.72015 0.0
H3279 H 0.39273 0.04393 0.70631 0.0
H3280 H 0.40393 1.00102 0.70941 0.0
H3281 H 0.4031 0.02537 0.77016 0.0
H3282 H 0.39085 0.02165 0.7535 0.0
H3283 H 0.40745 0.03632 0.75203 0.0
C3284 C 0.37185 0.00968 0.70734 0.0
C3285 C 0.37597 0.02334 0.70417 0.0
C3286 C 0.38062 0.00615 0.71539 0.0
C3287 C 0.3936 0.01622 0.72046 0.0
C3288 C 0.3979 0.02979 0.71666 0.0
H3289 H 0.46302 0.02348 0.77291 0.0
H3290 H 0.44628 0.02652 0.75713 0.0
C3291 C 0.38918 0.03332 0.70866 0.0
C3292 C 0.40262 0.01272 0.73006 0.0
H3293 H 0.41981 0.01881 0.76753 0.0
C3294 C 0.40732 0.00479 0.72218 0.0
C3295 C 0.40698 0.01761 0.74674 0.0
C3296 C 0.40175 0.02561 0.7562 0.0
C3297 C 0.41669 0.00206 0.7303 0.0
C3298 C 0.42129 0.00725 0.74683 0.0
C3299 C 0.41634 0.01492 0.75482 0.0
C3300 C 0.4315 0.00517 0.75595 0.0
C3301 C 0.42194 0.99406 0.72094 0.0
C3302 C 0.42872 0.99215 0.76063 0.0
C3303 C 0.43825 0.99038 0.76976 0.0
C3304 C 0.45072 1.00161 0.77448 0.0
C3305 C 0.45346 0.01462 0.76971 0.0
C3306 C 0.44393 0.01638 0.7606 0.0
H3307 H 0.41976 0.99342 0.7071 0.0
H3308 H 0.43303 0.99864 0.72274 0.0
H3309 H 0.41698 0.98361 0.72608 0.0
H3310 H 0.41907 0.98338 0.75749 0.0
H3311 H 0.43572 0.98024 0.77345 0.0
H3312 H 0.00397 0.35968 0.70029 0.0
H3313 H 0.01034 0.38122 0.7146 0.0
H3314 H 0.9682 0.36838 0.72236 0.0
H3315 H 0.96174 0.34697 0.70812 0.0
H3316 H 1.001 0.40141 0.70717 0.0
H3317 H 0.98656 0.3774 0.77095 0.0
H3318 H 0.99013 0.3696 0.75319 0.0
H3319 H 0.97421 0.36919 0.75444 0.0
C3320 C 0.99606 0.3615 0.7049 0.0
C3321 C 0.98234 0.35156 0.70313 0.0
C3322 C 0.99972 0.3738 0.71307 0.0
C3323 C 0.98973 0.37628 0.71972 0.0
C3324 C 0.97606 0.36657 0.7175 0.0
H3325 H 0.98314 0.43548 0.78038 0.0
H3326 H 0.98 0.41586 0.76413 0.0
C3327 C 0.9724 0.35435 0.70929 0.0
C3328 C 0.99345 0.38883 0.7294 0.0
H3329 H 0.99143 0.40012 0.76892 0.0
C3330 C 0.99905 0.4012 0.7207 0.0
C3331 C 0.99085 0.38846 0.74702 0.0
C3332 C 0.9852 0.37549 0.75704 0.0
C3333 C 1.00166 0.41317 0.72908 0.0
C3334 C 0.99886 0.41278 0.7467 0.0
C3335 C 0.99353 0.40042 0.75542 0.0
C3336 C 1.00093 0.42492 0.75627 0.0
C3337 C 0.00687 0.42601 0.71885 0.0
C3338 C 0.01378 0.43654 0.75742 0.0
C3339 C 0.01558 0.44787 0.76656 0.0
C3340 C 0.00459 0.44778 0.77488 0.0
C3341 C 0.99178 0.43603 0.77389 0.0
C3342 C 0.98998 0.42475 0.7647 0.0
H3343 H 0.00517 0.4239 0.70501 0.0
H3344 H 1.00193 0.43185 0.72286 0.0
H3345 H 0.01793 0.43244 0.72094 0.0
H3346 H 0.02244 0.43682 0.75133 0.0
H3347 H 0.02557 0.45675 0.76694 0.0
H3348 H 0.6444 0.64616 0.70041 0.0
H3349 H 0.62254 0.63127 0.71417 0.0
H3350 H 0.63395 0.60079 0.72087 0.0
H3351 H 0.65568 0.61546 0.70717 0.0
H3352 H 0.60169 0.60212 0.70582 0.0
H3353 H 0.62505 0.60986 0.76979 0.0
H3354 H 0.63327 0.62143 0.75236 0.0
H3355 H 0.63311 0.60561 0.75313 0.0
C3356 C 0.64219 0.63623 0.70465 0.0
C3357 C 0.65182 0.63204 0.70277 0.0
C3358 C 0.62971 0.62775 0.71251 0.0
C3359 C 0.62674 0.61502 0.71871 0.0
C3360 C 0.63613 0.61065 0.71634 0.0
H3361 H 0.56593 0.54925 0.77737 0.0
H3362 H 0.58583 0.56556 0.76146 0.0
C3363 C 0.64854 0.61905 0.70845 0.0
C3364 C 0.61402 0.60637 0.72815 0.0
H3365 H 0.60215 0.59256 0.76726 0.0
C3366 C 0.60172 0.6001 0.71928 0.0
C3367 C 0.61416 0.60378 0.74569 0.0
C3368 C 0.62707 0.61059 0.7559 0.0
C3369 C 0.58956 0.59088 0.72741 0.0
C3370 C 0.58972 0.58811 0.74493 0.0
C3371 C 0.60202 0.59465 0.75384 0.0
C3372 C 0.57738 0.57812 0.75421 0.0
C3373 C 0.57676 0.5838 0.71701 0.0
C3374 C 0.56602 0.57979 0.75557 0.0
C3375 C 0.55453 0.57036 0.76452 0.0
C3376 C 0.55421 0.55913 0.77242 0.0
C3377 C 0.56569 0.55761 0.77119 0.0
C3378 C 0.57714 0.567 0.7622 0.0
H3379 H 0.57895 0.58443 0.70316 0.0
H3380 H 0.57065 0.57297 0.72063 0.0
H3381 H 0.57058 0.58867 0.71936 0.0
H3382 H 0.56607 0.58843 0.74982 0.0
H3383 H 0.54585 0.57182 0.7651 0.0
H3384 H 0.66607 0.69092 0.6659 0.0
H3385 H 0.65853 0.70508 0.65147 0.0
H3386 H 0.69966 0.73819 0.65025 0.0
H3387 H 0.70728 0.72418 0.66449 0.0
H3388 H 0.66169 0.73111 0.65996 0.0
H3389 H 0.68776 0.73227 0.59984 0.0
H3390 H 0.6847 0.72026 0.6166 0.0
H3391 H 0.69854 0.73734 0.61821 0.0
C3392 C 0.67348 0.70126 0.6627 0.0
C3393 C 0.68729 0.70638 0.66622 0.0
C3394 C 0.66916 0.70932 0.65445 0.0
C3395 C 0.67858 0.72259 0.64951 0.0
C3396 C 0.69226 0.72789 0.65365 0.0
H3397 H 0.67002 0.79012 0.61714 0.0
H3398 H 0.6734 0.77351 0.63269 0.0
C3399 C 0.69658 0.71987 0.66188 0.0
C3400 C 0.67426 0.73088 0.63966 0.0
H3401 H 0.67953 0.74772 0.60204 0.0
C3402 C 0.66549 0.73466 0.64724 0.0
C3403 C 0.67907 0.73533 0.62297 0.0
C3404 C 0.68793 0.731 0.61383 0.0
C3405 C 0.66179 0.74319 0.63879 0.0
C3406 C 0.66715 0.74818 0.62243 0.0
C3407 C 0.67553 0.744 0.61464 0.0
C3408 C 0.6645 0.75802 0.6133 0.0
C3409 C 0.65215 0.74674 0.64743 0.0
C3410 C 0.65862 0.75497 0.59706 0.0
C3411 C 0.65682 0.76452 0.58803 0.0
C3412 C 0.66098 0.77738 0.595 0.0
C3413 C 0.66681 0.78037 0.61132 0.0
C3414 C 0.66859 0.77081 0.62034 0.0
H3415 H 0.64601 0.73919 0.65731 0.0
H3416 H 0.65803 0.75673 0.65375 0.0
H3417 H 0.64521 0.7474 0.63809 0.0
H3418 H 0.6555 0.74521 0.59131 0.0
H3419 H 0.65246 0.76194 0.57541 0.0
H3420 H 0.31398 0.97675 0.6686 0.0
H3421 H 0.29942 0.95487 0.65469 0.0
H3422 H 0.2692 0.96635 0.64593 0.0
H3423 H 0.28355 0.9881 0.65976 0.0
H3424 H 0.27037 0.93409 0.66212 0.0
H3425 H 0.27894 0.95712 0.59787 0.0
H3426 H 0.29014 0.96553 0.61555 0.0
H3427 H 0.27426 0.96519 0.61404 0.0
C3428 C 0.30418 0.97456 0.66385 0.0
C3429 C 0.29997 0.98421 0.66521 0.0
C3430 C 0.29589 0.96207 0.65591 0.0
C3431 C 0.28333 0.9591 0.64909 0.0
C3432 C 0.27894 0.96853 0.65092 0.0
H3433 H 0.21808 0.89802 0.59026 0.0
H3434 H 0.2344 0.91802 0.60598 0.0
C3435 C 0.28715 0.98094 0.6589 0.0
C3436 C 0.27485 0.94633 0.63966 0.0
H3437 H 0.26149 0.93425 0.60041 0.0
C3438 C 0.26851 0.93405 0.6486 0.0
C3439 C 0.27247 0.94637 0.62203 0.0
C3440 C 0.27938 0.95923 0.61172 0.0
C3441 C 0.25939 0.92185 0.64048 0.0
C3442 C 0.2568 0.92193 0.62288 0.0
C3443 C 0.26344 0.93419 0.6139 0.0
C3444 C 0.24685 0.90955 0.61362 0.0
C3445 C 0.25221 0.9091 0.65095 0.0
C3446 C 0.24846 0.89814 0.61251 0.0
C3447 C 0.23902 0.88658 0.60366 0.0
C3448 C 0.22783 0.88624 0.59562 0.0
C3449 C 0.2264 0.89779 0.59656 0.0
C3450 C 0.23579 0.9093 0.60544 0.0
H3451 H 0.25275 0.91134 0.66478 0.0
H3452 H 0.2414 0.903 0.64723 0.0
H3453 H 0.25707 0.90288 0.64878 0.0
H3454 H 0.25706 0.89818 0.61841 0.0
H3455 H 0.24042 0.87787 0.6033 0.0
H3456 H 0.01885 0.29601 0.65931 0.0
H3457 H 0.04123 0.30417 0.64708 0.0
H3458 H 0.05157 0.34532 0.65787 0.0
H3459 H 0.02892 0.33721 0.66985 0.0
H3460 H 0.05845 0.34268 0.62581 0.0
H3461 H 0.07737 0.3182 0.66988 0.0
H3462 H 0.0614 0.30615 0.66083 0.0
H3463 H 0.06248 0.31939 0.6744 0.0
C3464 C 0.02591 0.3068 0.65929 0.0
C3465 C 0.02209 0.31595 0.66564 0.0
C3466 C 0.03877 0.31145 0.65237 0.0
C3467 C 0.04821 0.32534 0.65183 0.0
C3468 C 0.04449 0.33454 0.65827 0.0
H3469 H 0.13125 0.35128 0.61941 0.0
H3470 H 0.11168 0.34821 0.63581 0.0
C3471 C 0.03156 0.32989 0.66515 0.0
C3472 C 0.06162 0.3302 0.64363 0.0
H3473 H 0.08888 0.3254 0.64301 0.0
C3474 C 0.06519 0.33905 0.62971 0.0
C3475 C 0.07055 0.32566 0.64886 0.0
C3476 C 0.06783 0.31694 0.66443 0.0
C3477 C 0.07715 0.34299 0.62046 0.0
C3478 C 0.0856 0.33768 0.62498 0.0
C3479 C 0.08232 0.32932 0.63935 0.0
C3480 C 0.09766 0.34032 0.61473 0.0
C3481 C 0.08059 0.35282 0.60595 0.0
C3482 C 0.09632 0.33688 0.59742 0.0
C3483 C 0.10753 0.33879 0.58794 0.0
C3484 C 0.12033 0.34401 0.59561 0.0
C3485 C 0.12163 0.34744 0.61298 0.0
C3486 C 0.11041 0.3456 0.62243 0.0
H3487 H 0.07584 0.35921 0.60769 0.0
H3488 H 0.0917 0.35954 0.60466 0.0
H3489 H 0.07664 0.34708 0.59392 0.0
H3490 H 0.08655 0.33249 0.59126 0.0
H3491 H 0.10615 0.33617 0.57457 0.0
H3492 H 0.31329 0.33921 0.67092 0.0
H3493 H 0.29858 0.34705 0.65886 0.0
H3494 H 0.26801 0.30572 0.64872 0.0
H3495 H 0.28241 0.29782 0.66105 0.0
H3496 H 0.28905 0.34414 0.62695 0.0
H3497 H 0.24565 0.31967 0.67109 0.0
H3498 H 0.26177 0.32097 0.67565 0.0
H3499 H 0.24967 0.30761 0.66219 0.0
C3500 C 0.30335 0.33179 0.66635 0.0
C3501 C 0.299 0.31788 0.66705 0.0
C3502 C 0.29496 0.33629 0.65943 0.0
C3503 C 0.28207 0.32697 0.65314 0.0
C3504 C 0.27773 0.3131 0.65391 0.0
H3505 H 0.23489 0.33694 0.5754 0.0
H3506 H 0.25086 0.3335 0.59225 0.0
C3507 C 0.28604 0.3086 0.66088 0.0
C3508 C 0.27343 0.33167 0.64482 0.0
H3509 H 0.24127 0.32657 0.64406 0.0
C3510 C 0.27866 0.34044 0.63083 0.0
C3511 C 0.25993 0.32705 0.65003 0.0
C3512 C 0.25398 0.31842 0.66568 0.0
C3513 C 0.27058 0.34423 0.62148 0.0
C3514 C 0.2568 0.33884 0.62598 0.0
C3515 C 0.25176 0.33055 0.64042 0.0
C3516 C 0.24733 0.34131 0.61563 0.0
C3517 C 0.27694 0.35401 0.60691 0.0
C3518 C 0.2397 0.34648 0.62322 0.0
C3519 C 0.2303 0.34818 0.61368 0.0
C3520 C 0.2283 0.34471 0.59631 0.0
C3521 C 0.23603 0.33959 0.58875 0.0
C3522 C 0.24535 0.33782 0.59833 0.0
H3523 H 0.28804 0.3605 0.60868 0.0
H3524 H 0.27527 0.34822 0.59494 0.0
H3525 H 0.27243 0.36062 0.60549 0.0
H3526 H 0.24094 0.34913 0.63659 0.0
H3527 H 0.22439 0.35194 0.62002 0.0
H3528 H 0.66864 0.97713 0.66837 0.0
H3529 H 0.66135 0.95478 0.65592 0.0
H3530 H 0.70307 0.96552 0.64914 0.0
H3531 H 0.7104 0.98761 0.66181 0.0
H3532 H 0.66626 0.94898 0.62401 0.0
H3533 H 0.68777 0.92878 0.67083 0.0
H3534 H 0.68619 0.94349 0.67509 0.0
H3535 H 0.70029 0.94503 0.66294 0.0
C3536 C 0.67625 0.97464 0.66446 0.0
C3537 C 0.6901 0.98414 0.66618 0.0
C3538 C 0.67207 0.96188 0.65732 0.0
C3539 C 0.68166 0.95837 0.65184 0.0
C3540 C 0.69547 0.96782 0.65366 0.0
H3541 H 0.68608 0.89847 0.59058 0.0
H3542 H 0.68969 0.9181 0.60725 0.0
C3543 C 0.69965 0.98052 0.66083 0.0
C3544 C 0.67736 0.9452 0.64328 0.0
H3545 H 0.68203 0.91782 0.64354 0.0
C3546 C 0.66953 0.94206 0.62843 0.0
C3547 C 0.68161 0.93615 0.64905 0.0
C3548 C 0.68931 0.93846 0.66545 0.0
C3549 C 0.66633 0.93044 0.61882 0.0
C3550 C 0.67103 0.9217 0.62426 0.0
C3551 C 0.67854 0.92462 0.63933 0.0
C3552 C 0.66865 0.90971 0.61418 0.0
C3553 C 0.65838 0.92781 0.60258 0.0
C3554 C 0.65562 0.89844 0.61266 0.0
C3555 C 0.65353 0.8871 0.60329 0.0
C3556 C 0.66443 0.88682 0.59524 0.0
C3557 C 0.67747 0.8982 0.5968 0.0
C3558 C 0.67955 0.90948 0.60625 0.0
H3559 H 0.6573 0.9366 0.59877 0.0
H3560 H 0.66335 0.9254 0.59207 0.0
H3561 H 0.64811 0.91894 0.60436 0.0
H3562 H 0.6471 0.89835 0.61889 0.0
H3563 H 0.64339 0.87846 0.60263 0.0
H3564 H 0.03088 0.69446 0.67539 0.0
H3565 H 0.05353 0.70964 0.66384 0.0
H3566 H 0.03893 0.7345 0.64155 0.0
H3567 H 0.01661 0.71981 0.6536 0.0
H3568 H 0.0624 0.71583 0.63256 0.0
H3569 H 0.07205 0.76308 0.66403 0.0
H3570 H 0.05808 0.74681 0.67002 0.0
H3571 H 0.05657 0.75596 0.65226 0.0
C3572 C 0.03258 0.70327 0.66822 0.0
C3573 C 0.02199 0.70602 0.66559 0.0
C3574 C 0.04552 0.71193 0.66158 0.0
C3575 C 0.04807 0.72343 0.65213 0.0
C3576 C 0.03741 0.726 0.64929 0.0
H3577 H 0.11014 0.76542 0.57621 0.0
H3578 H 0.0902 0.74945 0.59251 0.0
C3579 C 0.02459 0.71751 0.65611 0.0
C3580 C 0.06165 0.73245 0.64455 0.0
H3581 H 0.08546 0.7657 0.63914 0.0
C3582 C 0.06754 0.72673 0.63419 0.0
C3583 C 0.06856 0.74666 0.64692 0.0
C3584 C 0.06355 0.75345 0.65907 0.0
C3585 C 0.07983 0.73484 0.62563 0.0
C3586 C 0.08618 0.74912 0.62695 0.0
C3587 C 0.08054 0.75479 0.63784 0.0
C3588 C 0.09852 0.75843 0.61703 0.0
C3589 C 0.08591 0.72796 0.61545 0.0
C3590 C 0.10973 0.76912 0.62521 0.0
C3591 C 0.12095 0.77846 0.61584 0.0
C3592 C 0.12129 0.77723 0.5981 0.0
C3593 C 0.1102 0.76646 0.58991 0.0
C3594 C 0.09885 0.75727 0.59925 0.0
H3595 H 0.08273 0.71772 0.62055 0.0
H3596 H 0.08228 0.72669 0.60213 0.0
H3597 H 0.09713 0.73395 0.61543 0.0
H3598 H 0.10975 0.7703 0.63888 0.0
H3599 H 0.1294 0.78667 0.62245 0.0
H3600 H 0.00429 0.64331 0.70018 0.0
H3601 H 0.01075 0.62769 0.71284 0.0
H3602 H 0.96865 0.59839 0.72087 0.0
H3603 H 0.96213 0.61371 0.70802 0.0
H3604 H 0.00576 0.61743 0.74514 0.0
H3605 H 0.98212 0.57528 0.69899 0.0
H3606 H 0.98455 0.59187 0.69452 0.0
H3607 H 0.97029 0.57996 0.70697 0.0
C3608 C 0.99641 0.63346 0.70442 0.0
C3609 C 0.98269 0.62973 0.70299 0.0
C3610 C 1.00012 0.62456 0.71169 0.0
C3611 C 0.99018 0.61177 0.71755 0.0
C3612 C 0.97649 0.60804 0.71605 0.0
H3613 H 0.98315 0.54657 0.779 0.0
H3614 H 0.98029 0.56303 0.7623 0.0
C3615 C 0.97279 0.61688 0.70877 0.0
C3616 C 0.994 0.60255 0.72614 0.0
H3617 H 0.98781 0.56998 0.72621 0.0
C3618 C 1.00202 0.60712 0.74086 0.0
C3619 C 0.98912 0.58909 0.72054 0.0
C3620 C 0.98116 0.5838 0.70429 0.0
C3621 C 0.00478 0.59842 0.75052 0.0
C3622 C 0.99948 0.58484 0.74523 0.0
C3623 C 0.99178 0.58037 0.73029 0.0
C3624 C 1.0014 0.57498 0.75535 0.0
C3625 C 0.01294 0.60363 0.76664 0.0
C3626 C 0.01422 0.5762 0.75687 0.0
C3627 C 0.01588 0.56671 0.76626 0.0
C3628 C 0.00475 0.55581 0.77433 0.0
C3629 C 0.99192 0.55468 0.77277 0.0
C3630 C 0.99027 0.56413 0.76331 0.0
H3631 H 0.01442 0.61367 0.77042 0.0
H3632 H 0.00788 0.59639 0.77723 0.0
H3633 H 0.02304 0.60463 0.7647 0.0
H3634 H 0.02291 0.5844 0.75061 0.0
H3635 H 0.02586 0.56779 0.76693 0.0
H3636 H 0.3907 0.35215 0.70468 0.0
H3637 H 0.40495 0.37386 0.71862 0.0
H3638 H 0.37228 0.38258 0.71681 0.0
H3639 H 0.35788 0.36081 0.70266 0.0
H3640 H 0.39825 0.40501 0.70823 0.0
H3641 H 0.39943 0.3807 0.76873 0.0
H3642 H 0.40444 0.37473 0.75052 0.0
H3643 H 0.38738 0.37162 0.75206 0.0
C3644 C 0.38653 0.3587 0.7071 0.0
C3645 C 0.3731 0.35468 0.70266 0.0
C3646 C 0.39469 0.37109 0.71516 0.0
C3647 C 0.38959 0.37971 0.71906 0.0
C3648 C 0.37638 0.37602 0.71403 0.0
H3649 H 0.42947 0.44581 0.79229 0.0
H3650 H 0.41267 0.42592 0.77663 0.0
C3651 C 0.36817 0.36359 0.70594 0.0
C3652 C 0.39802 0.3924 0.72871 0.0
H3653 H 0.41503 0.40429 0.76617 0.0
C3654 C 0.40185 0.40488 0.72094 0.0
C3655 C 0.40252 0.3922 0.74541 0.0
C3656 C 0.39814 0.3791 0.75477 0.0
C3657 C 0.41046 0.41717 0.72922 0.0
C3658 C 0.4155 0.41695 0.74559 0.0
C3659 C 0.41128 0.40446 0.75356 0.0
C3660 C 0.42539 0.42951 0.75458 0.0
C3661 C 0.41403 0.43028 0.7204 0.0
C3662 C 0.43815 0.43812 0.74742 0.0
C3663 C 0.44774 0.44954 0.7563 0.0
C3664 C 0.44482 0.45254 0.77259 0.0
C3665 C 0.43199 0.44392 0.77969 0.0
C3666 C 0.42241 0.4325 0.77079 0.0
H3667 H 0.40644 0.4288 0.71054 0.0
H3668 H 0.41477 0.438 0.72962 0.0
H3669 H 0.42398 0.43425 0.71401 0.0
H3670 H 0.44079 0.43589 0.73508 0.0
H3671 H 0.45746 0.45601 0.75038 0.0
H3672 H 0.65358 0.04109 0.69735 0.0
H3673 H 0.63216 0.03461 0.71162 0.0
H3674 H 0.62729 0.99544 0.72309 0.0
H3675 H 0.64858 1.00173 0.7083 0.0
H3676 H 0.60337 0.99348 0.71433 0.0
H3677 H 0.62884 0.03377 0.76264 0.0
H3678 H 0.63182 0.04038 0.74143 0.0
H3679 H 0.63812 0.02938 0.74781 0.0
C3680 C 0.6479 0.03104 0.70276 0.0
C3681 C 0.65285 0.02197 0.70184 0.0
C3682 C 0.63569 0.02739 0.71103 0.0
C3683 C 0.6283 0.01468 0.71887 0.0
C3684 C 0.63289 0.00535 0.71728 0.0
H3685 H 0.56859 0.99974 0.79762 0.0
H3686 H 0.58823 0.00258 0.78153 0.0
C3687 C 0.64504 0.00895 0.7088 0.0
C3688 C 0.61602 0.01133 0.72907 0.0
H3689 H 0.60479 0.02267 0.76203 0.0
C3690 C 0.60368 0.99981 0.72483 0.0
C3691 C 0.61647 0.01942 0.74301 0.0
C3692 C 0.62955 0.03134 0.74912 0.0
C3693 C 0.59173 0.99636 0.73386 0.0
C3694 C 0.59205 0.00487 0.74722 0.0
C3695 C 0.60446 0.01621 0.75168 0.0
C3696 C 0.57972 0.00228 0.75683 0.0
C3697 C 0.57895 0.98351 0.72917 0.0
C3698 C 0.56837 1.00117 0.74836 0.0
C3699 C 0.55707 0.9994 0.75755 0.0
C3700 C 0.55701 0.99898 0.77541 0.0
C3701 C 0.56839 1.00012 0.78387 0.0
C3702 C 0.5796 1.00171 0.77468 0.0
H3703 H 0.58123 0.97617 0.7228 0.0
H3704 H 0.5726 0.97858 0.74054 0.0
H3705 H 0.57299 0.98594 0.72016 0.0
H3706 H 0.56834 1.00198 0.73465 0.0
H3707 H 0.54853 0.99875 0.7507 0.0
loop_
_geom_bond_atom_site_label_1
_geom_bond_atom_site_label_2
_geom_bond_distance
_geom_bond_site_symmetry_2
_ccdc_geom_bond_type
O0 Cd1 2.223 . S
O0 C8 1.315 . S
Cd1 O0 2.223 . S
Cd1 O4 2.297 . S
Cd1 O5 2.439 . S
Cd1 O11 2.240 1_554 S
Cd2 O3 2.240 . S
Cd2 O10 2.191 1_554 S
Cd2 O12 2.297 1_554 S
Cd2 O13 2.439 . S
O3 Cd2 2.240 . S
O3 C8 1.279 1_655 S
O4 Cd1 2.297 . S
O4 C6 1.247 . S
O5 Cd1 2.439 . S
O5 C6 1.208 . S
C6 O4 1.247 . S
C6 O5 1.208 . S
C7 O12 1.247 . S
C7 O13 1.208 1_556 S
C8 O0 1.315 . S
C8 O3 1.279 1_455 S
C9 O10 1.338 . S
C9 O11 1.279 1_655 S
O10 Cd2 2.191 1_556 S
O10 C9 1.338 . S
O11 Cd1 2.240 1_556 S
O11 C9 1.279 1_455 S
O12 Cd2 2.297 1_556 S
O12 C7 1.247 . S
O13 Cd2 2.439 . S
O13 C7 1.208 1_554 S
O14 Cd15 2.223 . S
O14 C22 1.315 . S
Cd15 O14 2.223 . S
Cd15 O18 2.297 . S
Cd15 O19 2.439 . S
Cd15 O25 2.240 1_554 S
Cd16 O17 2.240 . S
Cd16 O24 2.223 1_554 S
Cd16 O26 2.297 1_554 S
Cd16 O27 2.439 . S
O17 Cd16 2.240 . S
O17 C22 1.279 . S
O18 Cd15 2.297 . S
O18 C20 1.247 . S
O19 Cd15 2.439 . S
O19 C20 1.208 . S
C20 O18 1.247 . S
C20 O19 1.208 . S
C21 O26 1.247 . S
C21 O27 1.208 1_556 S
C22 O14 1.315 . S
C22 O17 1.279 . S
C23 O24 1.315 . S
C23 O25 1.279 . S
O24 Cd16 2.223 1_556 S
O24 C23 1.315 . S
O25 Cd15 2.240 1_556 S
O25 C23 1.279 . S
O26 Cd16 2.297 1_556 S
O26 C21 1.247 . S
O27 Cd16 2.439 . S
O27 C21 1.208 1_554 S
O28 Cd29 2.185 1_556 S
O28 C36 1.343 . S
Cd29 O28 2.185 1_554 S
Cd29 O32 2.297 1_554 S
Cd29 O33 2.439 . S
Cd29 O39 2.240 . S
Cd30 O31 2.240 1_554 S
Cd30 O38 2.223 . S
Cd30 O40 2.297 . S
Cd30 O41 2.439 . S
O31 Cd30 2.240 1_556 S
O31 C36 1.279 1_565 S
O32 Cd29 2.297 1_556 S
O32 C34 1.247 . S
O33 Cd29 2.439 . S
O33 C34 1.208 1_554 S
C34 O32 1.247 . S
C34 O33 1.208 1_556 S
C35 O40 1.247 . S
C35 O41 1.208 . S
C36 O28 1.343 . S
C36 O31 1.279 1_545 S
C37 O38 1.315 . S
C37 O39 1.279 1_565 S
O38 Cd30 2.223 . S
O38 C37 1.315 . S
O39 Cd29 2.240 . S
O39 C37 1.279 1_545 S
O40 Cd30 2.297 . S
O40 C35 1.247 . S
O41 Cd30 2.439 . S
O41 C35 1.208 . S
O42 Cd43 2.223 1_556 S
O42 C50 1.315 . S
Cd43 O42 2.223 1_554 S
Cd43 O46 2.297 1_554 S
Cd43 O47 2.439 . S
Cd43 O53 2.240 . S
Cd44 O45 2.240 1_554 S
Cd44 O52 2.223 . S
Cd44 O54 2.297 . S
Cd44 O55 2.439 . S
O45 Cd44 2.240 1_556 S
O45 C50 1.279 1_455 S
O46 Cd43 2.297 1_556 S
O46 C48 1.247 . S
O47 Cd43 2.439 . S
O47 C48 1.208 1_554 S
C48 O46 1.247 . S
C48 O47 1.208 1_556 S
C49 O54 1.247 . S
C49 O55 1.208 . S
C50 O42 1.315 . S
C50 O45 1.279 1_655 S
C51 O52 1.315 . S
C51 O53 1.279 1_455 S
O52 Cd44 2.223 . S
O52 C51 1.315 . S
O53 Cd43 2.240 . S
O53 C51 1.279 1_655 S
O54 Cd44 2.297 . S
O54 C49 1.247 . S
O55 Cd44 2.439 . S
O55 C49 1.208 . S
O56 Cd57 2.223 1_556 S
O56 C64 1.315 . S
Cd57 O56 2.223 1_554 S
Cd57 O60 2.297 1_554 S
Cd57 O61 2.439 . S
Cd57 O67 2.240 . S
Cd58 O59 2.240 1_554 S
Cd58 O66 2.223 . S
Cd58 O68 2.297 . S
Cd58 O69 2.439 . S
O59 Cd58 2.240 1_556 S
O59 C64 1.279 . S
O60 Cd57 2.297 1_556 S
O60 C62 1.247 . S
O61 Cd57 2.439 . S
O61 C62 1.208 1_554 S
C62 O60 1.247 . S
C62 O61 1.208 1_556 S
C63 O68 1.247 . S
C63 O69 1.208 . S
C64 O56 1.315 . S
C64 O59 1.279 . S
C65 O66 1.315 . S
C65 O67 1.279 . S
O66 Cd58 2.223 . S
O66 C65 1.315 . S
O67 Cd57 2.240 . S
O67 C65 1.279 . S
O68 Cd58 2.297 . S
O68 C63 1.247 . S
O69 Cd58 2.439 . S
O69 C63 1.208 . S
O70 Cd71 2.223 . S
O70 C78 1.315 . S
Cd71 O70 2.223 . S
Cd71 O74 2.297 . S
Cd71 O75 2.439 . S
Cd71 O81 2.240 1_554 S
Cd72 O73 2.240 . S
Cd72 O80 2.204 1_554 S
Cd72 O82 2.297 1_554 S
Cd72 O83 2.439 . S
O73 Cd72 2.240 . S
O73 C78 1.279 1_545 S
O74 Cd71 2.297 . S
O74 C76 1.247 . S
O75 Cd71 2.439 . S
O75 C76 1.208 . S
C76 O74 1.247 . S
C76 O75 1.208 . S
C77 O82 1.247 . S
C77 O83 1.208 1_556 S
C78 O70 1.315 . S
C78 O73 1.279 1_565 S
C79 O80 1.328 . S
C79 O81 1.279 1_545 S
O80 Cd72 2.204 1_556 S
O80 C79 1.328 . S
O81 Cd71 2.240 1_556 S
O81 C79 1.279 1_565 S
O82 Cd72 2.297 1_556 S
O82 C77 1.247 . S
O83 Cd72 2.439 . S
O83 C77 1.208 1_554 S
O84 Cd85 2.223 . S
O84 C92 1.315 . S
Cd85 O84 2.223 . S
Cd85 O88 2.297 . S
Cd85 O89 2.439 . S
Cd85 O95 2.240 . S
Cd86 O87 2.240 . S
Cd86 O94 2.223 . S
Cd86 O96 2.297 . S
Cd86 O97 2.439 . S
O87 Cd86 2.240 . S
O87 C92 1.279 . S
O88 Cd85 2.297 . S
O88 C90 1.247 . S
O89 Cd85 2.439 . S
O89 C90 1.208 . S
C90 O88 1.247 . S
C90 O89 1.208 . S
C91 O96 1.247 . S
C91 O97 1.208 . S
C92 O84 1.315 . S
C92 O87 1.279 . S
C93 O94 1.315 . S
C93 O95 1.279 . S
O94 Cd86 2.223 . S
O94 C93 1.315 . S
O95 Cd85 2.240 . S
O95 C93 1.279 . S
O96 Cd86 2.297 . S
O96 C91 1.247 . S
O97 Cd86 2.439 . S
O97 C91 1.208 . S
O98 Cd99 2.223 . S
O98 C106 1.315 . S
Cd99 O98 2.223 . S
Cd99 O102 2.297 1_565 S
Cd99 O103 2.439 1_565 S
Cd99 O109 2.240 . S
Cd100 O101 2.240 . S
Cd100 O108 2.223 . S
Cd100 O110 2.297 . S
Cd100 O111 2.439 . S
O101 Cd100 2.240 . S
O101 C106 1.279 . S
O102 Cd99 2.297 1_545 S
O102 C104 1.247 . S
O103 Cd99 2.439 1_545 S
O103 C104 1.208 . S
C104 O102 1.247 . S
C104 O103 1.208 . S
C105 O110 1.247 . S
C105 O111 1.208 . S
C106 O98 1.315 . S
C106 O101 1.279 . S
C107 O108 1.315 . S
C107 O109 1.279 . S
O108 Cd100 2.223 . S
O108 C107 1.315 . S
O109 Cd99 2.240 . S
O109 C107 1.279 . S
O110 Cd100 2.297 . S
O110 C105 1.247 . S
O111 Cd100 2.439 . S
O111 C105 1.208 . S
O112 Cd113 2.223 . S
O112 C120 1.315 . S
Cd113 O112 2.223 . S
Cd113 O116 2.297 . S
Cd113 O117 2.439 . S
Cd113 O123 2.240 . S
Cd114 O115 2.240 . S
Cd114 O122 2.223 . S
Cd114 O124 2.297 1_455 S
Cd114 O125 2.439 1_455 S
O115 Cd114 2.240 . S
O115 C120 1.279 . S
O116 Cd113 2.297 . S
O116 C118 1.247 . S
O117 Cd113 2.439 . S
O117 C118 1.208 . S
C118 O116 1.247 . S
C118 O117 1.208 . S
C119 O124 1.247 . S
C119 O125 1.208 . S
C120 O112 1.315 . S
C120 O115 1.279 . S
C121 O122 1.315 . S
C121 O123 1.279 . S
O122 Cd114 2.223 . S
O122 C121 1.315 . S
O123 Cd113 2.240 . S
O123 C121 1.279 . S
O124 Cd114 2.297 1_655 S
O124 C119 1.247 . S
O125 Cd114 2.439 1_655 S
O125 C119 1.208 . S
O126 Cd127 2.223 . S
O126 C134 1.315 . S
Cd127 O126 2.223 . S
Cd127 O130 2.297 . S
Cd127 O131 2.439 . S
Cd127 O137 2.240 . S
Cd128 O129 2.240 . S
Cd128 O136 2.223 . S
Cd128 O138 2.297 1_565 S
Cd128 O139 2.439 1_565 S
O129 Cd128 2.240 . S
O129 C134 1.279 . S
O130 Cd127 2.297 . S
O130 C132 1.247 . S
O131 Cd127 2.439 . S
O131 C132 1.208 . S
C132 O130 1.247 . S
C132 O131 1.208 . S
C133 O138 1.247 . S
C133 O139 1.208 . S
C134 O126 1.315 . S
C134 O129 1.279 . S
C135 O136 1.315 . S
C135 O137 1.279 . S
O136 Cd128 2.223 . S
O136 C135 1.315 . S
O137 Cd127 2.240 . S
O137 C135 1.279 . S
O138 Cd128 2.297 1_545 S
O138 C133 1.247 . S
O139 Cd128 2.439 1_545 S
O139 C133 1.208 . S
O140 Cd141 2.223 . S
O140 C148 1.315 . S
Cd141 O140 2.223 . S
Cd141 O144 2.297 . S
Cd141 O145 2.439 . S
Cd141 O151 2.240 . S
Cd142 O143 2.240 . S
Cd142 O150 2.223 . S
Cd142 O152 2.297 1_455 S
Cd142 O153 2.439 1_455 S
O143 Cd142 2.240 . S
O143 C148 1.279 . S
O144 Cd141 2.297 . S
O144 C146 1.247 . S
O145 Cd141 2.439 . S
O145 C146 1.208 . S
C146 O144 1.247 . S
C146 O145 1.208 . S
C147 O152 1.247 . S
C147 O153 1.208 . S
C148 O140 1.315 . S
C148 O143 1.279 . S
C149 O150 1.315 . S
C149 O151 1.279 . S
O150 Cd142 2.223 . S
O150 C149 1.315 . S
O151 Cd141 2.240 . S
O151 C149 1.279 . S
O152 Cd142 2.297 1_655 S
O152 C147 1.247 . S
O153 Cd142 2.439 1_655 S
O153 C147 1.208 . S
O154 Cd155 2.223 . S
O154 C162 1.315 . S
Cd155 O154 2.223 . S
Cd155 O158 2.297 . S
Cd155 O159 2.439 . S
Cd155 O165 2.240 . S
Cd156 O157 2.240 . S
Cd156 O164 2.223 . S
Cd156 O166 2.297 . S
Cd156 O167 2.439 . S
O157 Cd156 2.240 . S
O157 C162 1.279 . S
O158 Cd155 2.297 . S
O158 C160 1.247 . S
O159 Cd155 2.439 . S
O159 C160 1.208 . S
C160 O158 1.247 . S
C160 O159 1.208 . S
C161 O166 1.247 . S
C161 O167 1.208 . S
C162 O154 1.315 . S
C162 O157 1.279 . S
C163 O164 1.315 . S
C163 O165 1.279 . S
O164 Cd156 2.223 . S
O164 C163 1.315 . S
O165 Cd155 2.240 . S
O165 C163 1.279 . S
O166 Cd156 2.297 . S
O166 C161 1.247 . S
O167 Cd156 2.439 . S
O167 C161 1.208 . S
O168 Cd169 2.223 . S
O168 C176 1.315 . S
Cd169 O168 2.223 . S
Cd169 O172 2.297 . S
Cd169 O173 2.439 . S
Cd169 O179 2.240 . S
Cd170 O171 2.240 . S
Cd170 O178 2.223 . S
Cd170 O180 2.297 1_545 S
Cd170 O181 2.439 1_545 S
O171 Cd170 2.240 . S
O171 C176 1.279 . S
O172 Cd169 2.297 . S
O172 C174 1.247 . S
O173 Cd169 2.439 . S
O173 C174 1.208 . S
C174 O172 1.247 . S
C174 O173 1.208 . S
C175 O180 1.247 . S
C175 O181 1.208 . S
C176 O168 1.315 . S
C176 O171 1.279 . S
C177 O178 1.315 . S
C177 O179 1.279 . S
O178 Cd170 2.223 . S
O178 C177 1.315 . S
O179 Cd169 2.240 . S
O179 C177 1.279 . S
O180 Cd170 2.297 1_565 S
O180 C175 1.247 . S
O181 Cd170 2.439 1_565 S
O181 C175 1.208 . S
O182 Cd183 2.223 . S
O182 C190 1.315 . S
Cd183 O182 2.223 . S
Cd183 O186 2.297 . S
Cd183 O187 2.439 . S
Cd183 O193 2.240 . S
Cd184 O185 2.240 . S
Cd184 O192 2.223 . S
Cd184 O194 2.297 1_655 S
Cd184 O195 2.439 1_655 S
O185 Cd184 2.240 . S
O185 C190 1.279 . S
O186 Cd183 2.297 . S
O186 C188 1.247 . S
O187 Cd183 2.439 . S
O187 C188 1.208 . S
C188 O186 1.247 . S
C188 O187 1.208 . S
C189 O194 1.247 . S
C189 O195 1.208 . S
C190 O182 1.315 . S
C190 O185 1.279 . S
C191 O192 1.315 . S
C191 O193 1.279 . S
O192 Cd184 2.223 . S
O192 C191 1.315 . S
O193 Cd183 2.240 . S
O193 C191 1.279 . S
O194 Cd184 2.297 1_455 S
O194 C189 1.247 . S
O195 Cd184 2.439 1_455 S
O195 C189 1.208 . S
O196 Cd197 2.223 . S
O196 C204 1.315 . S
Cd197 O196 2.223 . S
Cd197 O200 2.297 . S
Cd197 O201 2.439 . S
Cd197 O207 2.240 . S
Cd198 O199 2.240 . S
Cd198 O206 2.223 . S
Cd198 O208 2.297 . S
Cd198 O209 2.439 . S
O199 Cd198 2.240 . S
O199 C204 1.279 . S
O200 Cd197 2.297 . S
O200 C202 1.247 . S
O201 Cd197 2.439 . S
O201 C202 1.208 . S
C202 O200 1.247 . S
C202 O201 1.208 . S
C203 O208 1.247 . S
C203 O209 1.208 . S
C204 O196 1.315 . S
C204 O199 1.279 . S
C205 O206 1.315 . S
C205 O207 1.279 . S
O206 Cd198 2.223 . S
O206 C205 1.315 . S
O207 Cd197 2.240 . S
O207 C205 1.279 . S
O208 Cd198 2.297 . S
O208 C203 1.247 . S
O209 Cd198 2.439 . S
O209 C203 1.208 . S
O210 Cd211 2.223 . S
O210 C218 1.315 . S
Cd211 O210 2.223 . S
Cd211 O214 2.297 . S
Cd211 O215 2.439 . S
Cd211 O221 2.240 . S
Cd212 O213 2.240 . S
Cd212 O220 2.223 . S
Cd212 O222 2.297 . S
Cd212 O223 2.439 . S
O213 Cd212 2.240 . S
O213 C218 1.279 . S
O214 Cd211 2.297 . S
O214 C216 1.247 . S
O215 Cd211 2.439 . S
O215 C216 1.208 . S
C216 O214 1.247 . S
C216 O215 1.208 . S
C217 O222 1.247 . S
C217 O223 1.208 . S
C218 O210 1.315 . S
C218 O213 1.279 . S
C219 O220 1.315 . S
C219 O221 1.279 . S
O220 Cd212 2.223 . S
O220 C219 1.315 . S
O221 Cd211 2.240 . S
O221 C219 1.279 . S
O222 Cd212 2.297 . S
O222 C217 1.247 . S
O223 Cd212 2.439 . S
O223 C217 1.208 . S
O224 Cd225 2.223 . S
O224 C232 1.315 . S
Cd225 O224 2.223 . S
Cd225 O228 2.297 1_545 S
Cd225 O229 2.439 1_545 S
Cd225 O235 2.240 . S
Cd226 O227 2.240 . S
Cd226 O234 2.223 . S
Cd226 O236 2.297 . S
Cd226 O237 2.439 . S
O227 Cd226 2.240 . S
O227 C232 1.279 . S
O228 Cd225 2.297 1_565 S
O228 C230 1.247 . S
O229 Cd225 2.439 1_565 S
O229 C230 1.208 . S
C230 O228 1.247 . S
C230 O229 1.208 . S
C231 O236 1.247 . S
C231 O237 1.208 . S
C232 O224 1.315 . S
C232 O227 1.279 . S
C233 O234 1.315 . S
C233 O235 1.279 . S
O234 Cd226 2.223 . S
O234 C233 1.315 . S
O235 Cd225 2.240 . S
O235 C233 1.279 . S
O236 Cd226 2.297 . S
O236 C231 1.247 . S
O237 Cd226 2.439 . S
O237 C231 1.208 . S
O238 Cd239 2.223 . S
O238 C246 1.315 . S
Cd239 O238 2.223 . S
Cd239 O242 2.297 . S
Cd239 O243 2.439 . S
Cd239 O249 2.240 . S
Cd240 O241 2.240 . S
Cd240 O248 2.223 . S
Cd240 O250 2.297 1_655 S
Cd240 O251 2.439 1_655 S
O241 Cd240 2.240 . S
O241 C246 1.279 . S
O242 Cd239 2.297 . S
O242 C244 1.247 . S
O243 Cd239 2.439 . S
O243 C244 1.208 . S
C244 O242 1.247 . S
C244 O243 1.208 . S
C245 O250 1.247 . S
C245 O251 1.208 . S
C246 O238 1.315 . S
C246 O241 1.279 . S
C247 O248 1.315 . S
C247 O249 1.279 . S
O248 Cd240 2.223 . S
O248 C247 1.315 . S
O249 Cd239 2.240 . S
O249 C247 1.279 . S
O250 Cd240 2.297 1_455 S
O250 C245 1.247 . S
O251 Cd240 2.439 1_455 S
O251 C245 1.208 . S
H252 C271 0.949 . S
H253 C272 0.950 . S
H254 C274 0.950 . S
H255 C275 0.950 . S
H256 C277 0.950 . S
H257 C280 0.950 . S
H258 C281 0.950 . S
H259 C283 0.951 . S
H260 C284 0.949 . S
H261 C286 0.949 . S
H262 C287 0.950 . S
H263 C289 0.950 . S
H264 C290 0.950 . S
H265 C292 0.950 . S
H266 C295 0.950 . S
H267 C296 0.950 . S
H268 C298 0.951 . S
H269 C299 0.949 . S
C270 C271 1.376 . S
C270 C275 1.386 . S
C270 C276 1.483 . S
C271 H252 0.949 . S
C271 C270 1.376 . S
C271 C272 1.397 . S
C272 H253 0.950 . S
C272 C271 1.397 . S
C272 C273 1.391 . S
C273 C272 1.391 . S
C273 C274 1.405 . S
C274 H254 0.950 . S
C274 C273 1.405 . S
C274 C275 1.367 . S
C275 H255 0.950 . S
C275 C270 1.386 . S
C275 C274 1.367 . S
C276 C270 1.483 . S
C276 C277 1.382 . S
C276 C278 1.403 . S
C277 H256 0.950 . S
C277 C276 1.382 . S
C277 C293 1.411 . S
C278 C276 1.403 . S
C278 C279 1.489 . S
C278 C292 1.411 . S
C279 C278 1.489 . S
C279 C280 1.383 . S
C279 C284 1.382 . S
C280 H257 0.950 . S
C280 C279 1.383 . S
C280 C281 1.395 . S
C281 H258 0.950 . S
C281 C280 1.395 . S
C281 C282 1.288 . S
C282 C281 1.288 . S
C282 C283 1.392 . S
C283 H259 0.951 . S
C283 C282 1.392 . S
C283 C284 1.392 . S
C284 H260 0.949 . S
C284 C279 1.382 . S
C284 C283 1.392 . S
C285 C286 1.376 . S
C285 C290 1.386 . S
C285 C291 1.483 . S
C286 H261 0.949 . S
C286 C285 1.376 . S
C286 C287 1.397 . S
C287 H262 0.950 . S
C287 C286 1.397 . S
C287 C288 1.391 . S
C288 C287 1.391 . S
C288 C289 1.405 . S
C289 H263 0.950 . S
C289 C288 1.405 . S
C289 C290 1.367 . S
C290 H264 0.950 . S
C290 C285 1.386 . S
C290 C289 1.367 . S
C291 C285 1.483 . S
C291 C292 1.382 . S
C291 C293 1.403 . S
C292 H265 0.950 . S
C292 C278 1.411 . S
C292 C291 1.382 . S
C293 C277 1.411 . S
C293 C291 1.403 . S
C293 C294 1.489 . S
C294 C293 1.489 . S
C294 C295 1.383 . S
C294 C299 1.382 . S
C295 H266 0.950 . S
C295 C294 1.383 . S
C295 C296 1.395 . S
C296 H267 0.950 . S
C296 C295 1.395 . S
C296 C297 1.288 . S
C297 C296 1.288 . S
C297 C298 1.392 . S
C298 H268 0.951 . S
C298 C297 1.392 . S
C298 C299 1.392 . S
C299 H269 0.949 . S
C299 C294 1.382 . S
C299 C298 1.392 . S
H300 C319 0.949 . S
H301 C320 0.950 . S
H302 C322 0.950 . S
H303 C323 0.950 . S
H304 C325 0.950 . S
H305 C328 0.950 . S
H306 C329 0.950 . S
H307 C331 0.951 . S
H308 C332 0.949 . S
H309 C334 0.949 . S
H310 C335 0.950 . S
H311 C337 0.950 . S
H312 C338 0.950 . S
H313 C340 0.950 . S
H314 C343 0.950 . S
H315 C344 0.950 . S
H316 C346 0.951 . S
H317 C347 0.949 . S
C318 C319 1.376 . S
C318 C323 1.386 . S
C318 C324 1.483 . S
C319 H300 0.949 . S
C319 C318 1.376 . S
C319 C320 1.397 . S
C320 H301 0.950 . S
C320 C319 1.397 . S
C320 C321 1.391 . S
C321 C320 1.391 . S
C321 C322 1.405 . S
C322 H302 0.950 . S
C322 C321 1.405 . S
C322 C323 1.367 . S
C323 H303 0.950 . S
C323 C318 1.386 . S
C323 C322 1.367 . S
C324 C318 1.483 . S
C324 C325 1.382 . S
C324 C326 1.403 . S
C325 H304 0.950 . S
C325 C324 1.382 . S
C325 C341 1.411 . S
C326 C324 1.403 . S
C326 C327 1.489 . S
C326 C340 1.411 . S
C327 C326 1.489 . S
C327 C328 1.383 . S
C327 C332 1.382 . S
C328 H305 0.950 . S
C328 C327 1.383 . S
C328 C329 1.395 . S
C329 H306 0.950 . S
C329 C328 1.395 . S
C329 C330 1.288 . S
C330 C329 1.288 . S
C330 C331 1.392 . S
C331 H307 0.951 . S
C331 C330 1.392 . S
C331 C332 1.392 . S
C332 H308 0.949 . S
C332 C327 1.382 . S
C332 C331 1.392 . S
C333 C334 1.376 . S
C333 C338 1.386 . S
C333 C339 1.483 . S
C334 H309 0.949 . S
C334 C333 1.376 . S
C334 C335 1.397 . S
C335 H310 0.950 . S
C335 C334 1.397 . S
C335 C336 1.391 . S
C336 C335 1.391 . S
C336 C337 1.405 . S
C337 H311 0.950 . S
C337 C336 1.405 . S
C337 C338 1.367 . S
C338 H312 0.950 . S
C338 C333 1.386 . S
C338 C337 1.367 . S
C339 C333 1.483 . S
C339 C340 1.382 . S
C339 C341 1.403 . S
C340 H313 0.950 . S
C340 C326 1.411 . S
C340 C339 1.382 . S
C341 C325 1.411 . S
C341 C339 1.403 . S
C341 C342 1.489 . S
C342 C341 1.489 . S
C342 C343 1.383 . S
C342 C347 1.382 . S
C343 H314 0.950 . S
C343 C342 1.383 . S
C343 C344 1.395 . S
C344 H315 0.950 . S
C344 C343 1.395 . S
C344 C345 1.288 . S
C345 C344 1.288 . S
C345 C346 1.392 . S
C346 H316 0.951 . S
C346 C345 1.392 . S
C346 C347 1.392 . S
C347 H317 0.949 . S
C347 C342 1.382 . S
C347 C346 1.392 . S
H348 C367 0.949 . S
H349 C368 0.950 . S
H350 C370 0.950 . S
H351 C371 0.950 . S
H352 C373 0.950 . S
H353 C376 0.950 . S
H354 C377 0.950 . S
H355 C379 0.951 . S
H356 C380 0.949 . S
H357 C382 0.949 . S
H358 C383 0.950 . S
H359 C385 0.950 . S
H360 C386 0.950 . S
H361 C388 0.950 . S
H362 C391 0.950 . S
H363 C392 0.950 . S
H364 C394 0.951 . S
H365 C395 0.949 . S
C366 C367 1.376 . S
C366 C371 1.386 . S
C366 C372 1.483 . S
C367 H348 0.949 . S
C367 C366 1.376 . S
C367 C368 1.397 . S
C368 H349 0.950 . S
C368 C367 1.397 . S
C368 C369 1.391 . S
C369 C368 1.391 . S
C369 C370 1.405 . S
C370 H350 0.950 . S
C370 C369 1.405 . S
C370 C371 1.367 . S
C371 H351 0.950 . S
C371 C366 1.386 . S
C371 C370 1.367 . S
C372 C366 1.483 . S
C372 C373 1.382 . S
C372 C374 1.403 . S
C373 H352 0.950 . S
C373 C372 1.382 . S
C373 C389 1.411 . S
C374 C372 1.403 . S
C374 C375 1.489 . S
C374 C388 1.411 . S
C375 C374 1.489 . S
C375 C376 1.383 . S
C375 C380 1.382 . S
C376 H353 0.950 . S
C376 C375 1.383 . S
C376 C377 1.395 . S
C377 H354 0.950 . S
C377 C376 1.395 . S
C377 C378 1.288 . S
C378 C377 1.288 . S
C378 C379 1.392 . S
C379 H355 0.951 . S
C379 C378 1.392 . S
C379 C380 1.392 . S
C380 H356 0.949 . S
C380 C375 1.382 . S
C380 C379 1.392 . S
C381 C382 1.376 . S
C381 C386 1.386 . S
C381 C387 1.483 . S
C382 H357 0.949 . S
C382 C381 1.376 . S
C382 C383 1.397 . S
C383 H358 0.950 . S
C383 C382 1.397 . S
C383 C384 1.391 . S
C384 C383 1.391 . S
C384 C385 1.405 . S
C385 H359 0.950 . S
C385 C384 1.405 . S
C385 C386 1.367 . S
C386 H360 0.950 . S
C386 C381 1.386 . S
C386 C385 1.367 . S
C387 C381 1.483 . S
C387 C388 1.382 . S
C387 C389 1.403 . S
C388 H361 0.950 . S
C388 C374 1.411 . S
C388 C387 1.382 . S
C389 C373 1.411 . S
C389 C387 1.403 . S
C389 C390 1.489 . S
C390 C389 1.489 . S
C390 C391 1.383 . S
C390 C395 1.382 . S
C391 H362 0.950 . S
C391 C390 1.383 . S
C391 C392 1.395 . S
C392 H363 0.950 . S
C392 C391 1.395 . S
C392 C393 1.288 . S
C393 C392 1.288 . S
C393 C394 1.392 . S
C394 H364 0.951 . S
C394 C393 1.392 . S
C394 C395 1.392 . S
C395 H365 0.949 . S
C395 C390 1.382 . S
C395 C394 1.392 . S
H396 C415 0.949 . S
H397 C416 0.950 . S
H398 C418 0.950 . S
H399 C419 0.950 . S
H400 C421 0.950 . S
H401 C424 0.950 . S
H402 C425 0.950 . S
H403 C427 0.951 . S
H404 C428 0.949 . S
H405 C430 0.949 . S
H406 C431 0.950 . S
H407 C433 0.950 . S
H408 C434 0.950 . S
H409 C436 0.950 . S
H410 C439 0.950 . S
H411 C440 0.950 . S
H412 C442 0.951 . S
H413 C443 0.949 . S
C414 C415 1.376 . S
C414 C419 1.386 . S
C414 C420 1.483 . S
C415 H396 0.949 . S
C415 C414 1.376 . S
C415 C416 1.397 . S
C416 H397 0.950 . S
C416 C415 1.397 . S
C416 C417 1.391 . S
C417 C416 1.391 . S
C417 C418 1.405 . S
C418 H398 0.950 . S
C418 C417 1.405 . S
C418 C419 1.367 . S
C419 H399 0.950 . S
C419 C414 1.386 . S
C419 C418 1.367 . S
C420 C414 1.483 . S
C420 C421 1.382 . S
C420 C422 1.403 . S
C421 H400 0.950 . S
C421 C420 1.382 . S
C421 C437 1.411 . S
C422 C420 1.403 . S
C422 C423 1.489 . S
C422 C436 1.411 . S
C423 C422 1.489 . S
C423 C424 1.383 . S
C423 C428 1.382 . S
C424 H401 0.950 . S
C424 C423 1.383 . S
C424 C425 1.395 . S
C425 H402 0.950 . S
C425 C424 1.395 . S
C425 C426 1.288 . S
C426 C425 1.288 . S
C426 C427 1.392 . S
C427 H403 0.951 . S
C427 C426 1.392 . S
C427 C428 1.392 . S
C428 H404 0.949 . S
C428 C423 1.382 . S
C428 C427 1.392 . S
C429 C430 1.376 . S
C429 C434 1.386 . S
C429 C435 1.483 . S
C430 H405 0.949 . S
C430 C429 1.376 . S
C430 C431 1.397 . S
C431 H406 0.950 . S
C431 C430 1.397 . S
C431 C432 1.391 . S
C432 C431 1.391 . S
C432 C433 1.405 . S
C433 H407 0.950 . S
C433 C432 1.405 . S
C433 C434 1.367 . S
C434 H408 0.950 . S
C434 C429 1.386 . S
C434 C433 1.367 . S
C435 C429 1.483 . S
C435 C436 1.382 . S
C435 C437 1.403 . S
C436 H409 0.950 . S
C436 C422 1.411 . S
C436 C435 1.382 . S
C437 C421 1.411 . S
C437 C435 1.403 . S
C437 C438 1.489 . S
C438 C437 1.489 . S
C438 C439 1.383 . S
C438 C443 1.382 . S
C439 H410 0.950 . S
C439 C438 1.383 . S
C439 C440 1.395 . S
C440 H411 0.950 . S
C440 C439 1.395 . S
C440 C441 1.288 . S
C441 C440 1.288 . S
C441 C442 1.392 . S
C442 H412 0.951 . S
C442 C441 1.392 . S
C442 C443 1.392 . S
C443 H413 0.949 . S
C443 C438 1.382 . S
C443 C442 1.392 . S
H444 C463 0.949 . S
H445 C464 0.950 . S
H446 C466 0.950 . S
H447 C467 0.950 . S
H448 C469 0.950 . S
H449 C472 0.950 . S
H450 C473 0.950 . S
H451 C475 0.951 . S
H452 C476 0.949 . S
H453 C478 0.949 . S
H454 C479 0.950 . S
H455 C481 0.950 . S
H456 C482 0.950 . S
H457 C484 0.950 . S
H458 C487 0.950 . S
H459 C488 0.950 . S
H460 C490 0.951 . S
H461 C491 0.949 . S
C462 C463 1.376 . S
C462 C467 1.386 . S
C462 C468 1.483 . S
C463 H444 0.949 . S
C463 C462 1.376 . S
C463 C464 1.397 . S
C464 H445 0.950 . S
C464 C463 1.397 . S
C464 C465 1.391 . S
C465 C464 1.391 . S
C465 C466 1.405 . S
C466 H446 0.950 . S
C466 C465 1.405 . S
C466 C467 1.367 . S
C467 H447 0.950 . S
C467 C462 1.386 . S
C467 C466 1.367 . S
C468 C462 1.483 . S
C468 C469 1.382 . S
C468 C470 1.403 . S
C469 H448 0.950 . S
C469 C468 1.382 . S
C469 C485 1.411 . S
C470 C468 1.403 . S
C470 C471 1.489 . S
C470 C484 1.411 . S
C471 C470 1.489 . S
C471 C472 1.383 . S
C471 C476 1.382 . S
C472 H449 0.950 . S
C472 C471 1.383 . S
C472 C473 1.395 . S
C473 H450 0.950 . S
C473 C472 1.395 . S
C473 C474 1.288 . S
C474 C473 1.288 . S
C474 C475 1.392 . S
C475 H451 0.951 . S
C475 C474 1.392 . S
C475 C476 1.392 . S
C476 H452 0.949 . S
C476 C471 1.382 . S
C476 C475 1.392 . S
C477 C478 1.376 . S
C477 C482 1.386 . S
C477 C483 1.483 . S
C478 H453 0.949 . S
C478 C477 1.376 . S
C478 C479 1.397 . S
C479 H454 0.950 . S
C479 C478 1.397 . S
C479 C480 1.391 . S
C480 C479 1.391 . S
C480 C481 1.405 . S
C481 H455 0.950 . S
C481 C480 1.405 . S
C481 C482 1.367 . S
C482 H456 0.950 . S
C482 C477 1.386 . S
C482 C481 1.367 . S
C483 C477 1.483 . S
C483 C484 1.382 . S
C483 C485 1.403 . S
C484 H457 0.950 . S
C484 C470 1.411 . S
C484 C483 1.382 . S
C485 C469 1.411 . S
C485 C483 1.403 . S
C485 C486 1.489 . S
C486 C485 1.489 . S
C486 C487 1.383 . S
C486 C491 1.382 . S
C487 H458 0.950 . S
C487 C486 1.383 . S
C487 C488 1.395 . S
C488 H459 0.950 . S
C488 C487 1.395 . S
C488 C489 1.288 . S
C489 C488 1.288 . S
C489 C490 1.392 . S
C490 H460 0.951 . S
C490 C489 1.392 . S
C490 C491 1.392 . S
C491 H461 0.949 . S
C491 C486 1.382 . S
C491 C490 1.392 . S
H492 C511 0.949 . S
H493 C512 0.950 . S
H494 C514 0.950 . S
H495 C515 0.950 . S
H496 C517 0.950 . S
H497 C520 0.950 . S
H498 C521 0.950 . S
H499 C523 0.951 . S
H500 C524 0.949 . S
H501 C526 0.949 . S
H502 C527 0.950 . S
H503 C529 0.950 . S
H504 C530 0.950 . S
H505 C532 0.950 . S
H506 C535 0.950 . S
H507 C536 0.950 . S
H508 C538 0.951 . S
H509 C539 0.949 . S
C510 C511 1.376 . S
C510 C515 1.386 . S
C510 C516 1.483 . S
C511 H492 0.949 . S
C511 C510 1.376 . S
C511 C512 1.397 . S
C512 H493 0.950 . S
C512 C511 1.397 . S
C512 C513 1.391 . S
C513 C512 1.391 . S
C513 C514 1.405 . S
C514 H494 0.950 . S
C514 C513 1.405 . S
C514 C515 1.367 . S
C515 H495 0.950 . S
C515 C510 1.386 . S
C515 C514 1.367 . S
C516 C510 1.483 . S
C516 C517 1.382 . S
C516 C518 1.403 . S
C517 H496 0.950 . S
C517 C516 1.382 . S
C517 C533 1.411 . S
C518 C516 1.403 . S
C518 C519 1.489 . S
C518 C532 1.411 . S
C519 C518 1.489 . S
C519 C520 1.383 . S
C519 C524 1.382 . S
C520 H497 0.950 . S
C520 C519 1.383 . S
C520 C521 1.395 . S
C521 H498 0.950 . S
C521 C520 1.395 . S
C521 C522 1.288 . S
C522 C521 1.288 . S
C522 C523 1.392 . S
C523 H499 0.951 . S
C523 C522 1.392 . S
C523 C524 1.392 . S
C524 H500 0.949 . S
C524 C519 1.382 . S
C524 C523 1.392 . S
C525 C526 1.376 . S
C525 C530 1.386 . S
C525 C531 1.483 . S
C526 H501 0.949 . S
C526 C525 1.376 . S
C526 C527 1.397 . S
C527 H502 0.950 . S
C527 C526 1.397 . S
C527 C528 1.391 . S
C528 C527 1.391 . S
C528 C529 1.405 . S
C529 H503 0.950 . S
C529 C528 1.405 . S
C529 C530 1.367 . S
C530 H504 0.950 . S
C530 C525 1.386 . S
C530 C529 1.367 . S
C531 C525 1.483 . S
C531 C532 1.382 . S
C531 C533 1.403 . S
C532 H505 0.950 . S
C532 C518 1.411 . S
C532 C531 1.382 . S
C533 C517 1.411 . S
C533 C531 1.403 . S
C533 C534 1.489 . S
C534 C533 1.489 . S
C534 C535 1.383 . S
C534 C539 1.382 . S
C535 H506 0.950 . S
C535 C534 1.383 . S
C535 C536 1.395 . S
C536 H507 0.950 . S
C536 C535 1.395 . S
C536 C537 1.288 . S
C537 C536 1.288 . S
C537 C538 1.392 . S
C538 H508 0.951 . S
C538 C537 1.392 . S
C538 C539 1.392 . S
C539 H509 0.949 . S
C539 C534 1.382 . S
C539 C538 1.392 . S
H540 C559 0.949 . S
H541 C560 0.950 . S
H542 C562 0.950 . S
H543 C563 0.950 . S
H544 C565 0.950 . S
H545 C568 0.950 . S
H546 C569 0.950 . S
H547 C571 0.951 . S
H548 C572 0.949 . S
H549 C574 0.949 . S
H550 C575 0.950 . S
H551 C577 0.950 . S
H552 C578 0.950 . S
H553 C580 0.950 . S
H554 C583 0.950 . S
H555 C584 0.950 . S
H556 C586 0.951 . S
H557 C587 0.949 . S
C558 C559 1.376 . S
C558 C563 1.386 . S
C558 C564 1.483 . S
C559 H540 0.949 . S
C559 C558 1.376 . S
C559 C560 1.397 . S
C560 H541 0.950 . S
C560 C559 1.397 . S
C560 C561 1.391 . S
C561 C560 1.391 . S
C561 C562 1.405 . S
C562 H542 0.950 . S
C562 C561 1.405 . S
C562 C563 1.367 . S
C563 H543 0.950 . S
C563 C558 1.386 . S
C563 C562 1.367 . S
C564 C558 1.483 . S
C564 C565 1.382 . S
C564 C566 1.403 . S
C565 H544 0.950 . S
C565 C564 1.382 . S
C565 C581 1.411 . S
C566 C564 1.403 . S
C566 C567 1.489 . S
C566 C580 1.411 . S
C567 C566 1.489 . S
C567 C568 1.383 . S
C567 C572 1.382 . S
C568 H545 0.950 . S
C568 C567 1.383 . S
C568 C569 1.395 . S
C569 H546 0.950 . S
C569 C568 1.395 . S
C569 C570 1.288 . S
C570 C569 1.288 . S
C570 C571 1.392 . S
C571 H547 0.951 . S
C571 C570 1.392 . S
C571 C572 1.392 . S
C572 H548 0.949 . S
C572 C567 1.382 . S
C572 C571 1.392 . S
C573 C574 1.376 . S
C573 C578 1.386 . S
C573 C579 1.483 . S
C574 H549 0.949 . S
C574 C573 1.376 . S
C574 C575 1.397 . S
C575 H550 0.950 . S
C575 C574 1.397 . S
C575 C576 1.391 . S
C576 C575 1.391 . S
C576 C577 1.405 . S
C577 H551 0.950 . S
C577 C576 1.405 . S
C577 C578 1.367 . S
C578 H552 0.950 . S
C578 C573 1.386 . S
C578 C577 1.367 . S
C579 C573 1.483 . S
C579 C580 1.382 . S
C579 C581 1.403 . S
C580 H553 0.950 . S
C580 C566 1.411 . S
C580 C579 1.382 . S
C581 C565 1.411 . S
C581 C579 1.403 . S
C581 C582 1.489 . S
C582 C581 1.489 . S
C582 C583 1.383 . S
C582 C587 1.382 . S
C583 H554 0.950 . S
C583 C582 1.383 . S
C583 C584 1.395 . S
C584 H555 0.950 . S
C584 C583 1.395 . S
C584 C585 1.288 . S
C585 C584 1.288 . S
C585 C586 1.392 . S
C586 H556 0.951 . S
C586 C585 1.392 . S
C586 C587 1.392 . S
C587 H557 0.949 . S
C587 C582 1.382 . S
C587 C586 1.392 . S
H588 C607 0.949 . S
H589 C608 0.950 . S
H590 C610 0.950 . S
H591 C611 0.950 . S
H592 C613 0.950 . S
H593 C616 0.950 . S
H594 C617 0.950 . S
H595 C619 0.951 . S
H596 C620 0.949 . S
H597 C622 0.949 . S
H598 C623 0.950 . S
H599 C625 0.950 . S
H600 C626 0.950 . S
H601 C628 0.950 . S
H602 C631 0.950 . S
H603 C632 0.950 . S
H604 C634 0.951 . S
H605 C635 0.949 . S
C606 C607 1.376 . S
C606 C611 1.386 . S
C606 C612 1.483 . S
C607 H588 0.949 . S
C607 C606 1.376 . S
C607 C608 1.397 . S
C608 H589 0.950 . S
C608 C607 1.397 . S
C608 C609 1.391 . S
C609 C608 1.391 . S
C609 C610 1.405 . S
C610 H590 0.950 . S
C610 C609 1.405 . S
C610 C611 1.367 . S
C611 H591 0.950 . S
C611 C606 1.386 . S
C611 C610 1.367 . S
C612 C606 1.483 . S
C612 C613 1.382 . S
C612 C614 1.403 . S
C613 H592 0.950 . S
C613 C612 1.382 . S
C613 C629 1.411 . S
C614 C612 1.403 . S
C614 C615 1.489 . S
C614 C628 1.411 . S
C615 C614 1.489 . S
C615 C616 1.383 . S
C615 C620 1.382 . S
C616 H593 0.950 . S
C616 C615 1.383 . S
C616 C617 1.395 . S
C617 H594 0.950 . S
C617 C616 1.395 . S
C617 C618 1.288 . S
C618 C617 1.288 . S
C618 C619 1.392 . S
C619 H595 0.951 . S
C619 C618 1.392 . S
C619 C620 1.392 . S
C620 H596 0.949 . S
C620 C615 1.382 . S
C620 C619 1.392 . S
C621 C622 1.376 . S
C621 C626 1.386 . S
C621 C627 1.483 . S
C622 H597 0.949 . S
C622 C621 1.376 . S
C622 C623 1.397 . S
C623 H598 0.950 . S
C623 C622 1.397 . S
C623 C624 1.391 . S
C624 C623 1.391 . S
C624 C625 1.405 . S
C625 H599 0.950 . S
C625 C624 1.405 . S
C625 C626 1.367 . S
C626 H600 0.950 . S
C626 C621 1.386 . S
C626 C625 1.367 . S
C627 C621 1.483 . S
C627 C628 1.382 . S
C627 C629 1.403 . S
C628 H601 0.950 . S
C628 C614 1.411 . S
C628 C627 1.382 . S
C629 C613 1.411 . S
C629 C627 1.403 . S
C629 C630 1.489 . S
C630 C629 1.489 . S
C630 C631 1.383 . S
C630 C635 1.382 . S
C631 H602 0.950 . S
C631 C630 1.383 . S
C631 C632 1.395 . S
C632 H603 0.950 . S
C632 C631 1.395 . S
C632 C633 1.288 . S
C633 C632 1.288 . S
C633 C634 1.392 . S
C634 H604 0.951 . S
C634 C633 1.392 . S
C634 C635 1.392 . S
C635 H605 0.949 . S
C635 C630 1.382 . S
C635 C634 1.392 . S
H636 C655 0.949 . S
H637 C656 0.950 . S
H638 C658 0.950 . S
H639 C659 0.950 . S
H640 C661 0.950 . S
H641 C664 0.950 . S
H642 C665 0.950 . S
H643 C667 0.951 . S
H644 C668 0.949 . S
H645 C670 0.949 . S
H646 C671 0.950 . S
H647 C673 0.950 . S
H648 C674 0.950 . S
H649 C676 0.950 . S
H650 C679 0.950 . S
H651 C680 0.950 . S
H652 C682 0.951 . S
H653 C683 0.949 . S
C654 C655 1.376 . S
C654 C659 1.386 . S
C654 C660 1.483 . S
C655 H636 0.949 . S
C655 C654 1.376 . S
C655 C656 1.397 . S
C656 H637 0.950 . S
C656 C655 1.397 . S
C656 C657 1.391 . S
C657 C656 1.391 . S
C657 C658 1.405 . S
C658 H638 0.950 . S
C658 C657 1.405 . S
C658 C659 1.367 . S
C659 H639 0.950 . S
C659 C654 1.386 . S
C659 C658 1.367 . S
C660 C654 1.483 . S
C660 C661 1.382 . S
C660 C662 1.403 . S
C661 H640 0.950 . S
C661 C660 1.382 . S
C661 C677 1.411 . S
C662 C660 1.403 . S
C662 C663 1.489 . S
C662 C676 1.411 . S
C663 C662 1.489 . S
C663 C664 1.383 . S
C663 C668 1.382 . S
C664 H641 0.950 . S
C664 C663 1.383 . S
C664 C665 1.395 . S
C665 H642 0.950 . S
C665 C664 1.395 . S
C665 C666 1.288 . S
C666 C665 1.288 . S
C666 C667 1.392 . S
C667 H643 0.951 . S
C667 C666 1.392 . S
C667 C668 1.392 . S
C668 H644 0.949 . S
C668 C663 1.382 . S
C668 C667 1.392 . S
C669 C670 1.376 . S
C669 C674 1.386 . S
C669 C675 1.483 . S
C670 H645 0.949 . S
C670 C669 1.376 . S
C670 C671 1.397 . S
C671 H646 0.950 . S
C671 C670 1.397 . S
C671 C672 1.391 . S
C672 C671 1.391 . S
C672 C673 1.405 . S
C673 H647 0.950 . S
C673 C672 1.405 . S
C673 C674 1.367 . S
C674 H648 0.950 . S
C674 C669 1.386 . S
C674 C673 1.367 . S
C675 C669 1.483 . S
C675 C676 1.382 . S
C675 C677 1.403 . S
C676 H649 0.950 . S
C676 C662 1.411 . S
C676 C675 1.382 . S
C677 C661 1.411 . S
C677 C675 1.403 . S
C677 C678 1.489 . S
C678 C677 1.489 . S
C678 C679 1.383 . S
C678 C683 1.382 . S
C679 H650 0.950 . S
C679 C678 1.383 . S
C679 C680 1.395 . S
C680 H651 0.950 . S
C680 C679 1.395 . S
C680 C681 1.288 . S
C681 C680 1.288 . S
C681 C682 1.392 . S
C682 H652 0.951 . S
C682 C681 1.392 . S
C682 C683 1.392 . S
C683 H653 0.949 . S
C683 C678 1.382 . S
C683 C682 1.392 . S
H684 C703 0.949 . S
H685 C704 0.950 . S
H686 C706 0.950 . S
H687 C707 0.950 . S
H688 C709 0.950 . S
H689 C712 0.950 . S
H690 C713 0.950 . S
H691 C715 0.951 . S
H692 C716 0.949 . S
H693 C718 0.949 . S
H694 C719 0.950 . S
H695 C721 0.950 . S
H696 C722 0.950 . S
H697 C724 0.950 . S
H698 C727 0.950 . S
H699 C728 0.950 . S
H700 C730 0.951 . S
H701 C731 0.949 . S
C702 C703 1.376 . S
C702 C707 1.386 1_655 S
C702 C708 1.483 . S
C703 H684 0.949 . S
C703 C702 1.376 . S
C703 C704 1.397 . S
C704 H685 0.950 . S
C704 C703 1.397 . S
C704 C705 1.391 . S
C705 C704 1.391 . S
C705 C706 1.405 1_655 S
C706 H686 0.950 . S
C706 C705 1.405 1_455 S
C706 C707 1.367 . S
C707 H687 0.950 . S
C707 C702 1.386 1_455 S
C707 C706 1.367 . S
C708 C702 1.483 . S
C708 C709 1.382 . S
C708 C710 1.403 1_655 S
C709 H688 0.950 . S
C709 C708 1.382 . S
C709 C725 1.411 . S
C710 C708 1.403 1_455 S
C710 C711 1.489 . S
C710 C724 1.411 . S
C711 C710 1.489 . S
C711 C712 1.383 1_455 S
C711 C716 1.382 . S
C712 H689 0.950 . S
C712 C711 1.383 1_655 S
C712 C713 1.395 . S
C713 H690 0.950 . S
C713 C712 1.395 . S
C713 C714 1.288 1_655 S
C714 C713 1.288 1_455 S
C714 C715 1.392 . S
C715 H691 0.951 . S
C715 C714 1.392 . S
C715 C716 1.392 . S
C716 H692 0.949 . S
C716 C711 1.382 . S
C716 C715 1.392 . S
C717 C718 1.376 . S
C717 C722 1.386 1_455 S
C717 C723 1.483 . S
C718 H693 0.949 . S
C718 C717 1.376 . S
C718 C719 1.397 . S
C719 H694 0.950 . S
C719 C718 1.397 . S
C719 C720 1.391 . S
C720 C719 1.391 . S
C720 C721 1.405 1_455 S
C721 H695 0.950 . S
C721 C720 1.405 1_655 S
C721 C722 1.367 . S
C722 H696 0.950 . S
C722 C717 1.386 1_655 S
C722 C721 1.367 . S
C723 C717 1.483 . S
C723 C724 1.382 . S
C723 C725 1.403 1_455 S
C724 H697 0.950 . S
C724 C710 1.411 . S
C724 C723 1.382 . S
C725 C709 1.411 . S
C725 C723 1.403 1_655 S
C725 C726 1.489 . S
C726 C725 1.489 . S
C726 C727 1.383 1_655 S
C726 C731 1.382 . S
C727 H698 0.950 . S
C727 C726 1.383 1_455 S
C727 C728 1.395 . S
C728 H699 0.950 . S
C728 C727 1.395 . S
C728 C729 1.288 1_455 S
C729 C728 1.288 1_655 S
C729 C730 1.392 . S
C730 H700 0.951 . S
C730 C729 1.392 . S
C730 C731 1.392 . S
C731 H701 0.949 . S
C731 C726 1.382 . S
C731 C730 1.392 . S
H732 C751 0.949 . S
H733 C752 0.950 . S
H734 C754 0.950 . S
H735 C755 0.950 . S
H736 C757 0.950 . S
H737 C760 0.950 . S
H738 C761 0.950 . S
H739 C763 0.951 . S
H740 C764 0.949 . S
H741 C766 0.949 . S
H742 C767 0.950 . S
H743 C769 0.950 . S
H744 C770 0.950 . S
H745 C772 0.950 . S
H746 C775 0.950 . S
H747 C776 0.950 . S
H748 C778 0.951 . S
H749 C779 0.949 . S
C750 C751 1.376 . S
C750 C755 1.386 . S
C750 C756 1.483 . S
C751 H732 0.949 . S
C751 C750 1.376 . S
C751 C752 1.397 . S
C752 H733 0.950 . S
C752 C751 1.397 . S
C752 C753 1.391 . S
C753 C752 1.391 . S
C753 C754 1.405 . S
C754 H734 0.950 . S
C754 C753 1.405 . S
C754 C755 1.367 . S
C755 H735 0.950 . S
C755 C750 1.386 . S
C755 C754 1.367 . S
C756 C750 1.483 . S
C756 C757 1.382 . S
C756 C758 1.403 . S
C757 H736 0.950 . S
C757 C756 1.382 . S
C757 C773 1.411 . S
C758 C756 1.403 . S
C758 C759 1.489 . S
C758 C772 1.411 . S
C759 C758 1.489 . S
C759 C760 1.383 . S
C759 C764 1.382 . S
C760 H737 0.950 . S
C760 C759 1.383 . S
C760 C761 1.395 . S
C761 H738 0.950 . S
C761 C760 1.395 . S
C761 C762 1.288 . S
C762 C761 1.288 . S
C762 C763 1.392 . S
C763 H739 0.951 . S
C763 C762 1.392 . S
C763 C764 1.392 . S
C764 H740 0.949 . S
C764 C759 1.382 . S
C764 C763 1.392 . S
C765 C766 1.376 . S
C765 C770 1.386 . S
C765 C771 1.483 . S
C766 H741 0.949 . S
C766 C765 1.376 . S
C766 C767 1.397 . S
C767 H742 0.950 . S
C767 C766 1.397 . S
C767 C768 1.391 . S
C768 C767 1.391 . S
C768 C769 1.405 . S
C769 H743 0.950 . S
C769 C768 1.405 . S
C769 C770 1.367 . S
C770 H744 0.950 . S
C770 C765 1.386 . S
C770 C769 1.367 . S
C771 C765 1.483 . S
C771 C772 1.382 . S
C771 C773 1.403 . S
C772 H745 0.950 . S
C772 C758 1.411 . S
C772 C771 1.382 . S
C773 C757 1.411 . S
C773 C771 1.403 . S
C773 C774 1.489 . S
C774 C773 1.489 . S
C774 C775 1.383 . S
C774 C779 1.382 . S
C775 H746 0.950 . S
C775 C774 1.383 . S
C775 C776 1.395 . S
C776 H747 0.950 . S
C776 C775 1.395 . S
C776 C777 1.288 . S
C777 C776 1.288 . S
C777 C778 1.392 . S
C778 H748 0.951 . S
C778 C777 1.392 . S
C778 C779 1.392 . S
C779 H749 0.949 . S
C779 C774 1.382 . S
C779 C778 1.392 . S
H780 C799 0.949 . S
H781 C800 0.950 . S
H782 C802 0.950 . S
H783 C803 0.950 . S
H784 C805 0.950 . S
H785 C808 0.950 . S
H786 C809 0.950 . S
H787 C811 0.951 . S
H788 C812 0.949 . S
H789 C814 0.949 . S
H790 C815 0.950 . S
H791 C817 0.950 . S
H792 C818 0.950 . S
H793 C820 0.950 . S
H794 C823 0.950 . S
H795 C824 0.950 . S
H796 C826 0.951 . S
H797 C827 0.949 . S
C798 C799 1.376 . S
C798 C803 1.386 1_545 S
C798 C804 1.483 . S
C799 H780 0.949 . S
C799 C798 1.376 . S
C799 C800 1.397 . S
C800 H781 0.950 . S
C800 C799 1.397 . S
C800 C801 1.391 . S
C801 C800 1.391 . S
C801 C802 1.405 1_545 S
C802 H782 0.950 . S
C802 C801 1.405 1_565 S
C802 C803 1.367 . S
C803 H783 0.950 . S
C803 C798 1.386 1_565 S
C803 C802 1.367 . S
C804 C798 1.483 . S
C804 C805 1.382 . S
C804 C806 1.403 1_545 S
C805 H784 0.950 . S
C805 C804 1.382 . S
C805 C821 1.411 . S
C806 C804 1.403 1_565 S
C806 C807 1.489 . S
C806 C820 1.411 . S
C807 C806 1.489 . S
C807 C808 1.383 1_565 S
C807 C812 1.382 . S
C808 H785 0.950 . S
C808 C807 1.383 1_545 S
C808 C809 1.395 . S
C809 H786 0.950 . S
C809 C808 1.395 . S
C809 C810 1.288 1_545 S
C810 C809 1.288 1_565 S
C810 C811 1.392 . S
C811 H787 0.951 . S
C811 C810 1.392 . S
C811 C812 1.392 . S
C812 H788 0.949 . S
C812 C807 1.382 . S
C812 C811 1.392 . S
C813 C814 1.376 . S
C813 C818 1.386 1_565 S
C813 C819 1.483 . S
C814 H789 0.949 . S
C814 C813 1.376 . S
C814 C815 1.397 . S
C815 H790 0.950 . S
C815 C814 1.397 . S
C815 C816 1.391 . S
C816 C815 1.391 . S
C816 C817 1.405 1_565 S
C817 H791 0.950 . S
C817 C816 1.405 1_545 S
C817 C818 1.367 . S
C818 H792 0.950 . S
C818 C813 1.386 1_545 S
C818 C817 1.367 . S
C819 C813 1.483 . S
C819 C820 1.382 . S
C819 C821 1.403 1_565 S
C820 H793 0.950 . S
C820 C806 1.411 . S
C820 C819 1.382 . S
C821 C805 1.411 . S
C821 C819 1.403 1_545 S
C821 C822 1.489 . S
C822 C821 1.489 . S
C822 C823 1.383 1_545 S
C822 C827 1.382 . S
C823 H794 0.950 . S
C823 C822 1.383 1_565 S
C823 C824 1.395 . S
C824 H795 0.950 . S
C824 C823 1.395 . S
C824 C825 1.288 1_565 S
C825 C824 1.288 1_545 S
C825 C826 1.392 . S
C826 H796 0.951 . S
C826 C825 1.392 . S
C826 C827 1.392 . S
C827 H797 0.949 . S
C827 C822 1.382 . S
C827 C826 1.392 . S
H828 C847 0.949 . S
H829 C848 0.950 . S
H830 C850 0.950 . S
H831 C851 0.950 . S
H832 C853 0.950 . S
H833 C856 0.950 . S
H834 C857 0.950 . S
H835 C859 0.951 . S
H836 C860 0.949 . S
H837 C862 0.949 . S
H838 C863 0.950 . S
H839 C865 0.950 . S
H840 C866 0.950 . S
H841 C868 0.950 . S
H842 C871 0.950 . S
H843 C872 0.950 . S
H844 C874 0.951 . S
H845 C875 0.949 . S
C846 C847 1.395 . S
C846 C851 1.377 1_545 S
C846 C852 1.501 . S
C847 H828 0.949 . S
C847 C846 1.395 . S
C847 C848 1.397 . S
C848 H829 0.950 . S
C848 C847 1.397 . S
C848 C849 1.391 1_545 S
C849 C848 1.391 1_565 S
C849 C850 1.405 . S
C850 H830 0.950 . S
C850 C849 1.405 . S
C850 C851 1.367 . S
C851 H831 0.950 . S
C851 C846 1.377 1_565 S
C851 C850 1.367 . S
C852 C846 1.501 . S
C852 C853 1.356 . S
C852 C854 1.397 1_545 S
C853 H832 0.950 . S
C853 C852 1.356 . S
C853 C869 1.450 . S
C854 C852 1.397 1_565 S
C854 C855 1.488 . S
C854 C868 1.438 . S
C855 C854 1.488 . S
C855 C856 1.334 1_565 S
C855 C860 1.409 . S
C856 H833 0.950 . S
C856 C855 1.334 1_545 S
C856 C857 1.395 . S
C857 H834 0.950 . S
C857 C856 1.395 . S
C857 C858 1.320 . S
C858 C857 1.320 . S
C858 C859 1.330 1_545 S
C859 H835 0.951 . S
C859 C858 1.330 1_565 S
C859 C860 1.392 . S
C860 H836 0.949 . S
C860 C855 1.409 . S
C860 C859 1.392 . S
C861 C862 1.378 . S
C861 C866 1.385 1_565 S
C861 C867 1.501 . S
C862 H837 0.949 . S
C862 C861 1.378 . S
C862 C863 1.397 . S
C863 H838 0.950 . S
C863 C862 1.397 . S
C863 C864 1.391 1_565 S
C864 C863 1.391 1_545 S
C864 C865 1.405 . S
C865 H839 0.950 . S
C865 C864 1.405 . S
C865 C866 1.367 . S
C866 H840 0.950 . S
C866 C861 1.385 1_545 S
C866 C865 1.367 . S
C867 C861 1.501 . S
C867 C868 1.364 . S
C867 C869 1.397 1_565 S
C868 H841 0.950 . S
C868 C854 1.438 . S
C868 C867 1.364 . S
C869 C853 1.450 . S
C869 C867 1.397 1_545 S
C869 C870 1.488 . S
C870 C869 1.488 . S
C870 C871 1.312 1_545 S
C870 C875 1.422 . S
C871 H842 0.950 . S
C871 C870 1.312 1_565 S
C871 C872 1.395 . S
C872 H843 0.950 . S
C872 C871 1.395 . S
C872 C873 1.308 . S
C873 C872 1.308 . S
C873 C874 1.352 1_565 S
C874 H844 0.951 . S
C874 C873 1.352 1_545 S
C874 C875 1.392 . S
C875 H845 0.949 . S
C875 C870 1.422 . S
C875 C874 1.392 . S
H876 C895 0.949 . S
H877 C896 0.950 . S
H878 C898 0.950 . S
H879 C899 0.950 . S
H880 C901 0.950 . S
H881 C904 0.950 . S
H882 C905 0.950 . S
H883 C907 0.951 . S
H884 C908 0.949 . S
H885 C910 0.949 . S
H886 C911 0.950 . S
H887 C913 0.950 . S
H888 C914 0.950 . S
H889 C916 0.950 . S
H890 C919 0.950 . S
H891 C920 0.950 . S
H892 C922 0.951 . S
H893 C923 0.949 . S
C894 C895 1.376 . S
C894 C899 1.386 1_455 S
C894 C900 1.483 . S
C895 H876 0.949 . S
C895 C894 1.376 . S
C895 C896 1.397 . S
C896 H877 0.950 . S
C896 C895 1.397 . S
C896 C897 1.391 . S
C897 C896 1.391 . S
C897 C898 1.405 1_455 S
C898 H878 0.950 . S
C898 C897 1.405 1_655 S
C898 C899 1.367 . S
C899 H879 0.950 . S
C899 C894 1.386 1_655 S
C899 C898 1.367 . S
C900 C894 1.483 . S
C900 C901 1.382 . S
C900 C902 1.403 1_455 S
C901 H880 0.950 . S
C901 C900 1.382 . S
C901 C917 1.411 . S
C902 C900 1.403 1_655 S
C902 C903 1.489 . S
C902 C916 1.411 . S
C903 C902 1.489 . S
C903 C904 1.383 1_655 S
C903 C908 1.382 . S
C904 H881 0.950 . S
C904 C903 1.383 1_455 S
C904 C905 1.395 . S
C905 H882 0.950 . S
C905 C904 1.395 . S
C905 C906 1.288 1_455 S
C906 C905 1.288 1_655 S
C906 C907 1.392 . S
C907 H883 0.951 . S
C907 C906 1.392 . S
C907 C908 1.392 . S
C908 H884 0.949 . S
C908 C903 1.382 . S
C908 C907 1.392 . S
C909 C910 1.376 . S
C909 C914 1.386 1_655 S
C909 C915 1.483 . S
C910 H885 0.949 . S
C910 C909 1.376 . S
C910 C911 1.397 . S
C911 H886 0.950 . S
C911 C910 1.397 . S
C911 C912 1.391 . S
C912 C911 1.391 . S
C912 C913 1.405 1_655 S
C913 H887 0.950 . S
C913 C912 1.405 1_455 S
C913 C914 1.367 . S
C914 H888 0.950 . S
C914 C909 1.386 1_455 S
C914 C913 1.367 . S
C915 C909 1.483 . S
C915 C916 1.382 . S
C915 C917 1.403 1_655 S
C916 H889 0.950 . S
C916 C902 1.411 . S
C916 C915 1.382 . S
C917 C901 1.411 . S
C917 C915 1.403 1_455 S
C917 C918 1.489 . S
C918 C917 1.489 . S
C918 C919 1.383 1_455 S
C918 C923 1.382 . S
C919 H890 0.950 . S
C919 C918 1.383 1_655 S
C919 C920 1.395 . S
C920 H891 0.950 . S
C920 C919 1.395 . S
C920 C921 1.288 1_655 S
C921 C920 1.288 1_455 S
C921 C922 1.392 . S
C922 H892 0.951 . S
C922 C921 1.392 . S
C922 C923 1.392 . S
C923 H893 0.949 . S
C923 C918 1.382 . S
C923 C922 1.392 . S
H924 C943 0.949 . S
H925 C944 0.950 . S
H926 C946 0.950 . S
H927 C947 0.950 . S
H928 C949 0.950 . S
H929 C952 0.950 . S
H930 C953 0.950 . S
H931 C955 0.951 . S
H932 C956 0.949 . S
H933 C958 0.949 . S
H934 C959 0.950 . S
H935 C961 0.950 . S
H936 C962 0.950 . S
H937 C964 0.950 . S
H938 C967 0.950 . S
H939 C968 0.950 . S
H940 C970 0.951 . S
H941 C971 0.949 . S
C942 C943 1.376 . S
C942 C947 1.386 . S
C942 C948 1.483 . S
C943 H924 0.949 . S
C943 C942 1.376 . S
C943 C944 1.397 . S
C944 H925 0.950 . S
C944 C943 1.397 . S
C944 C945 1.391 . S
C945 C944 1.391 . S
C945 C946 1.405 . S
C946 H926 0.950 . S
C946 C945 1.405 . S
C946 C947 1.367 . S
C947 H927 0.950 . S
C947 C942 1.386 . S
C947 C946 1.367 . S
C948 C942 1.483 . S
C948 C949 1.382 . S
C948 C950 1.403 . S
C949 H928 0.950 . S
C949 C948 1.382 . S
C949 C965 1.411 . S
C950 C948 1.403 . S
C950 C951 1.489 . S
C950 C964 1.411 . S
C951 C950 1.489 . S
C951 C952 1.383 . S
C951 C956 1.382 . S
C952 H929 0.950 . S
C952 C951 1.383 . S
C952 C953 1.395 . S
C953 H930 0.950 . S
C953 C952 1.395 . S
C953 C954 1.288 . S
C954 C953 1.288 . S
C954 C955 1.392 . S
C955 H931 0.951 . S
C955 C954 1.392 . S
C955 C956 1.392 . S
C956 H932 0.949 . S
C956 C951 1.382 . S
C956 C955 1.392 . S
C957 C958 1.376 . S
C957 C962 1.386 . S
C957 C963 1.483 . S
C958 H933 0.949 . S
C958 C957 1.376 . S
C958 C959 1.397 . S
C959 H934 0.950 . S
C959 C958 1.397 . S
C959 C960 1.391 . S
C960 C959 1.391 . S
C960 C961 1.405 . S
C961 H935 0.950 . S
C961 C960 1.405 . S
C961 C962 1.367 . S
C962 H936 0.950 . S
C962 C957 1.386 . S
C962 C961 1.367 . S
C963 C957 1.483 . S
C963 C964 1.382 . S
C963 C965 1.403 . S
C964 H937 0.950 . S
C964 C950 1.411 . S
C964 C963 1.382 . S
C965 C949 1.411 . S
C965 C963 1.403 . S
C965 C966 1.489 . S
C966 C965 1.489 . S
C966 C967 1.383 . S
C966 C971 1.382 . S
C967 H938 0.950 . S
C967 C966 1.383 . S
C967 C968 1.395 . S
C968 H939 0.950 . S
C968 C967 1.395 . S
C968 C969 1.288 . S
C969 C968 1.288 . S
C969 C970 1.392 . S
C970 H940 0.951 . S
C970 C969 1.392 . S
C970 C971 1.392 . S
C971 H941 0.949 . S
C971 C966 1.382 . S
C971 C970 1.392 . S
H972 C991 0.949 . S
H973 C992 0.950 . S
H974 C994 0.950 . S
H975 C995 0.950 . S
H976 C997 0.950 . S
H977 C1000 0.950 . S
H978 C1001 0.950 . S
H979 C1003 0.951 . S
H980 C1004 0.949 . S
H981 C1006 0.949 . S
H982 C1007 0.950 . S
H983 C1009 0.950 . S
H984 C1010 0.950 . S
H985 C1012 0.950 . S
H986 C1015 0.950 . S
H987 C1016 0.950 . S
H988 C1018 0.951 . S
H989 C1019 0.949 . S
C990 C991 1.376 . S
C990 C995 1.386 . S
C990 C996 1.483 . S
C991 H972 0.949 . S
C991 C990 1.376 . S
C991 C992 1.397 . S
C992 H973 0.950 . S
C992 C991 1.397 . S
C992 C993 1.391 . S
C993 C992 1.391 . S
C993 C994 1.405 . S
C994 H974 0.950 . S
C994 C993 1.405 . S
C994 C995 1.367 . S
C995 H975 0.950 . S
C995 C990 1.386 . S
C995 C994 1.367 . S
C996 C990 1.483 . S
C996 C997 1.382 . S
C996 C998 1.403 . S
C997 H976 0.950 . S
C997 C996 1.382 . S
C997 C1013 1.411 . S
C998 C996 1.403 . S
C998 C999 1.489 . S
C998 C1012 1.411 . S
C999 C998 1.489 . S
C999 C1000 1.383 . S
C999 C1004 1.382 . S
C1000 H977 0.950 . S
C1000 C999 1.383 . S
C1000 C1001 1.395 . S
C1001 H978 0.950 . S
C1001 C1000 1.395 . S
C1001 C1002 1.288 . S
C1002 C1001 1.288 . S
C1002 C1003 1.392 . S
C1003 H979 0.951 . S
C1003 C1002 1.392 . S
C1003 C1004 1.392 . S
C1004 H980 0.949 . S
C1004 C999 1.382 . S
C1004 C1003 1.392 . S
C1005 C1006 1.376 . S
C1005 C1010 1.386 . S
C1005 C1011 1.483 . S
C1006 H981 0.949 . S
C1006 C1005 1.376 . S
C1006 C1007 1.397 . S
C1007 H982 0.950 . S
C1007 C1006 1.397 . S
C1007 C1008 1.391 . S
C1008 C1007 1.391 . S
C1008 C1009 1.405 . S
C1009 H983 0.950 . S
C1009 C1008 1.405 . S
C1009 C1010 1.367 . S
C1010 H984 0.950 . S
C1010 C1005 1.386 . S
C1010 C1009 1.367 . S
C1011 C1005 1.483 . S
C1011 C1012 1.382 . S
C1011 C1013 1.403 . S
C1012 H985 0.950 . S
C1012 C998 1.411 . S
C1012 C1011 1.382 . S
C1013 C997 1.411 . S
C1013 C1011 1.403 . S
C1013 C1014 1.489 . S
C1014 C1013 1.489 . S
C1014 C1015 1.383 . S
C1014 C1019 1.382 . S
C1015 H986 0.950 . S
C1015 C1014 1.383 . S
C1015 C1016 1.395 . S
C1016 H987 0.950 . S
C1016 C1015 1.395 . S
C1016 C1017 1.288 . S
C1017 C1016 1.288 . S
C1017 C1018 1.392 . S
C1018 H988 0.951 . S
C1018 C1017 1.392 . S
C1018 C1019 1.392 . S
C1019 H989 0.949 . S
C1019 C1014 1.382 . S
C1019 C1018 1.392 . S
H1020 C1039 0.949 . S
H1021 C1040 0.950 . S
H1022 C1042 0.950 . S
H1023 C1043 0.950 . S
H1024 C1045 0.950 . S
H1025 C1048 0.950 . S
H1026 C1049 0.950 . S
H1027 C1051 0.951 . S
H1028 C1052 0.949 . S
H1029 C1054 0.949 . S
H1030 C1055 0.950 . S
H1031 C1057 0.950 . S
H1032 C1058 0.950 . S
H1033 C1060 0.950 . S
H1034 C1063 0.950 . S
H1035 C1064 0.950 . S
H1036 C1066 0.951 . S
H1037 C1067 0.949 . S
C1038 C1039 1.376 . S
C1038 C1043 1.386 . S
C1038 C1044 1.483 . S
C1039 H1020 0.949 . S
C1039 C1038 1.376 . S
C1039 C1040 1.397 . S
C1040 H1021 0.950 . S
C1040 C1039 1.397 . S
C1040 C1041 1.391 . S
C1041 C1040 1.391 . S
C1041 C1042 1.405 . S
C1042 H1022 0.950 . S
C1042 C1041 1.405 . S
C1042 C1043 1.367 . S
C1043 H1023 0.950 . S
C1043 C1038 1.386 . S
C1043 C1042 1.367 . S
C1044 C1038 1.483 . S
C1044 C1045 1.382 . S
C1044 C1046 1.403 . S
C1045 H1024 0.950 . S
C1045 C1044 1.382 . S
C1045 C1061 1.411 . S
C1046 C1044 1.403 . S
C1046 C1047 1.489 . S
C1046 C1060 1.411 . S
C1047 C1046 1.489 . S
C1047 C1048 1.383 . S
C1047 C1052 1.382 . S
C1048 H1025 0.950 . S
C1048 C1047 1.383 . S
C1048 C1049 1.395 . S
C1049 H1026 0.950 . S
C1049 C1048 1.395 . S
C1049 C1050 1.288 . S
C1050 C1049 1.288 . S
C1050 C1051 1.392 . S
C1051 H1027 0.951 . S
C1051 C1050 1.392 . S
C1051 C1052 1.392 . S
C1052 H1028 0.949 . S
C1052 C1047 1.382 . S
C1052 C1051 1.392 . S
C1053 C1054 1.376 . S
C1053 C1058 1.386 . S
C1053 C1059 1.483 . S
C1054 H1029 0.949 . S
C1054 C1053 1.376 . S
C1054 C1055 1.397 . S
C1055 H1030 0.950 . S
C1055 C1054 1.397 . S
C1055 C1056 1.391 . S
C1056 C1055 1.391 . S
C1056 C1057 1.405 . S
C1057 H1031 0.950 . S
C1057 C1056 1.405 . S
C1057 C1058 1.367 . S
C1058 H1032 0.950 . S
C1058 C1053 1.386 . S
C1058 C1057 1.367 . S
C1059 C1053 1.483 . S
C1059 C1060 1.382 . S
C1059 C1061 1.403 . S
C1060 H1033 0.950 . S
C1060 C1046 1.411 . S
C1060 C1059 1.382 . S
C1061 C1045 1.411 . S
C1061 C1059 1.403 . S
C1061 C1062 1.489 . S
C1062 C1061 1.489 . S
C1062 C1063 1.383 . S
C1062 C1067 1.382 . S
C1063 H1034 0.950 . S
C1063 C1062 1.383 . S
C1063 C1064 1.395 . S
C1064 H1035 0.950 . S
C1064 C1063 1.395 . S
C1064 C1065 1.288 . S
C1065 C1064 1.288 . S
C1065 C1066 1.392 . S
C1066 H1036 0.951 . S
C1066 C1065 1.392 . S
C1066 C1067 1.392 . S
C1067 H1037 0.949 . S
C1067 C1062 1.382 . S
C1067 C1066 1.392 . S
H1068 C1087 0.949 . S
H1069 C1088 0.950 . S
H1070 C1090 0.950 . S
H1071 C1091 0.950 . S
H1072 C1093 0.950 . S
H1073 C1096 0.950 . S
H1074 C1097 0.950 . S
H1075 C1099 0.951 . S
H1076 C1100 0.949 . S
H1077 C1102 0.949 . S
H1078 C1103 0.950 . S
H1079 C1105 0.950 . S
H1080 C1106 0.950 . S
H1081 C1108 0.950 . S
H1082 C1111 0.950 . S
H1083 C1112 0.950 . S
H1084 C1114 0.951 . S
H1085 C1115 0.949 . S
C1086 C1087 1.376 . S
C1086 C1091 1.386 . S
C1086 C1092 1.483 . S
C1087 H1068 0.949 . S
C1087 C1086 1.376 . S
C1087 C1088 1.397 . S
C1088 H1069 0.950 . S
C1088 C1087 1.397 . S
C1088 C1089 1.391 . S
C1089 C1088 1.391 . S
C1089 C1090 1.405 . S
C1090 H1070 0.950 . S
C1090 C1089 1.405 . S
C1090 C1091 1.367 . S
C1091 H1071 0.950 . S
C1091 C1086 1.386 . S
C1091 C1090 1.367 . S
C1092 C1086 1.483 . S
C1092 C1093 1.382 . S
C1092 C1094 1.403 . S
C1093 H1072 0.950 . S
C1093 C1092 1.382 . S
C1093 C1109 1.411 . S
C1094 C1092 1.403 . S
C1094 C1095 1.489 . S
C1094 C1108 1.411 . S
C1095 C1094 1.489 . S
C1095 C1096 1.383 . S
C1095 C1100 1.382 . S
C1096 H1073 0.950 . S
C1096 C1095 1.383 . S
C1096 C1097 1.395 . S
C1097 H1074 0.950 . S
C1097 C1096 1.395 . S
C1097 C1098 1.288 . S
C1098 C1097 1.288 . S
C1098 C1099 1.392 . S
C1099 H1075 0.951 . S
C1099 C1098 1.392 . S
C1099 C1100 1.392 . S
C1100 H1076 0.949 . S
C1100 C1095 1.382 . S
C1100 C1099 1.392 . S
C1101 C1102 1.376 . S
C1101 C1106 1.386 . S
C1101 C1107 1.483 . S
C1102 H1077 0.949 . S
C1102 C1101 1.376 . S
C1102 C1103 1.397 . S
C1103 H1078 0.950 . S
C1103 C1102 1.397 . S
C1103 C1104 1.391 . S
C1104 C1103 1.391 . S
C1104 C1105 1.405 . S
C1105 H1079 0.950 . S
C1105 C1104 1.405 . S
C1105 C1106 1.367 . S
C1106 H1080 0.950 . S
C1106 C1101 1.386 . S
C1106 C1105 1.367 . S
C1107 C1101 1.483 . S
C1107 C1108 1.382 . S
C1107 C1109 1.403 . S
C1108 H1081 0.950 . S
C1108 C1094 1.411 . S
C1108 C1107 1.382 . S
C1109 C1093 1.411 . S
C1109 C1107 1.403 . S
C1109 C1110 1.489 . S
C1110 C1109 1.489 . S
C1110 C1111 1.383 . S
C1110 C1115 1.382 . S
C1111 H1082 0.950 . S
C1111 C1110 1.383 . S
C1111 C1112 1.395 . S
C1112 H1083 0.950 . S
C1112 C1111 1.395 . S
C1112 C1113 1.288 . S
C1113 C1112 1.288 . S
C1113 C1114 1.392 . S
C1114 H1084 0.951 . S
C1114 C1113 1.392 . S
C1114 C1115 1.392 . S
C1115 H1085 0.949 . S
C1115 C1110 1.382 . S
C1115 C1114 1.392 . S
H1116 C1124 0.929 . S
H1117 C1126 0.930 . S
H1118 C1128 0.930 . S
H1119 C1131 0.929 . S
H1120 C1134 0.930 . S
H1121 C1136 0.960 . S
H1122 C1136 0.960 . S
H1123 C1136 0.960 . S
C1124 H1116 0.929 . S
C1124 C1125 1.374 . S
C1124 C1126 1.384 . S
C1125 C1124 1.374 . S
C1125 C1131 1.396 1_455 S
C1126 H1117 0.930 . S
C1126 C1124 1.384 . S
C1126 C1127 1.370 . S
C1127 C1126 1.370 . S
C1127 C1128 1.401 1_455 S
C1127 C1132 1.499 . S
C1128 H1118 0.930 . S
C1128 C1127 1.401 1_655 S
C1128 C1131 1.386 . S
H1129 C1145 0.930 . S
H1130 C1146 0.931 . S
C1131 H1119 0.929 . S
C1131 C1125 1.396 1_655 S
C1131 C1128 1.386 . S
C1132 C1127 1.499 . S
C1132 C1134 1.404 . S
C1132 C1135 1.385 1_455 S
H1133 C1139 0.930 . S
C1134 H1120 0.930 . S
C1134 C1132 1.404 . S
C1134 C1137 1.403 . S
C1135 C1132 1.385 1_655 S
C1135 C1136 1.524 . S
C1135 C1139 1.400 . S
C1136 H1121 0.960 . S
C1136 H1122 0.960 . S
C1136 H1123 0.960 . S
C1136 C1135 1.524 . S
C1137 C1134 1.403 . S
C1137 C1138 1.392 . S
C1137 C1141 1.495 . S
C1138 C1137 1.392 . S
C1138 C1139 1.385 1_455 S
C1138 C1140 1.478 . S
C1139 H1133 0.930 . S
C1139 C1135 1.400 . S
C1139 C1138 1.385 1_655 S
C1140 C1138 1.478 . S
C1140 C1142 1.381 . S
C1140 C1146 1.383 1_455 S
C1141 C1137 1.495 . S
C1141 H1147 0.959 . S
C1141 H1148 0.961 . S
C1141 H1149 0.960 . S
C1142 C1140 1.381 . S
C1142 C1143 1.394 . S
C1142 H1150 0.930 . S
C1143 C1142 1.394 . S
C1143 C1144 1.297 1_455 S
C1143 H1151 0.929 . S
C1144 C1143 1.297 1_655 S
C1144 C1145 1.424 . S
C1145 H1129 0.930 . S
C1145 C1144 1.424 . S
C1145 C1146 1.379 . S
C1146 H1130 0.931 . S
C1146 C1140 1.383 1_655 S
C1146 C1145 1.379 . S
H1147 C1141 0.959 . S
H1148 C1141 0.961 . S
H1149 C1141 0.960 . S
H1150 C1142 0.930 . S
H1151 C1143 0.929 . S
H1152 C1160 0.929 . S
H1153 C1162 0.930 . S
H1154 C1164 0.930 . S
H1155 C1167 0.929 . S
H1156 C1170 0.930 . S
H1157 C1172 0.960 . S
H1158 C1172 0.960 . S
H1159 C1172 0.960 . S
C1160 H1152 0.929 . S
C1160 C1161 1.377 . S
C1160 C1162 1.384 . S
C1161 C1160 1.377 . S
C1161 C1167 1.390 . S
C1162 H1153 0.930 . S
C1162 C1160 1.384 . S
C1162 C1163 1.372 . S
C1163 C1162 1.372 . S
C1163 C1164 1.400 . S
C1163 C1168 1.490 . S
C1164 H1154 0.930 . S
C1164 C1163 1.400 . S
C1164 C1167 1.386 . S
H1165 C1181 0.930 . S
H1166 C1182 0.931 . S
C1167 H1155 0.929 . S
C1167 C1161 1.390 . S
C1167 C1164 1.386 . S
C1168 C1163 1.490 . S
C1168 C1170 1.395 . S
C1168 C1171 1.403 . S
H1169 C1175 0.930 . S
C1170 H1156 0.930 . S
C1170 C1168 1.395 . S
C1170 C1173 1.403 . S
C1171 C1168 1.403 . S
C1171 C1172 1.524 . S
C1171 C1175 1.400 . S
C1172 H1157 0.960 . S
C1172 H1158 0.960 . S
C1172 H1159 0.960 . S
C1172 C1171 1.524 . S
C1173 C1170 1.403 . S
C1173 C1174 1.392 . S
C1173 C1177 1.495 . S
C1174 C1173 1.392 . S
C1174 C1175 1.385 . S
C1174 C1176 1.478 . S
C1175 H1169 0.930 . S
C1175 C1171 1.400 . S
C1175 C1174 1.385 . S
C1176 C1174 1.478 . S
C1176 C1178 1.381 . S
C1176 C1182 1.383 . S
C1177 C1173 1.495 . S
C1177 H1183 0.959 . S
C1177 H1184 0.961 . S
C1177 H1185 0.960 . S
C1178 C1176 1.381 . S
C1178 C1179 1.394 . S
C1178 H1186 0.930 . S
C1179 C1178 1.394 . S
C1179 C1180 1.383 . S
C1179 H1187 0.929 . S
C1180 C1179 1.383 . S
C1180 C1181 1.377 . S
C1181 H1165 0.930 . S
C1181 C1180 1.377 . S
C1181 C1182 1.379 . S
C1182 H1166 0.931 . S
C1182 C1176 1.383 . S
C1182 C1181 1.379 . S
H1183 C1177 0.959 . S
H1184 C1177 0.961 . S
H1185 C1177 0.960 . S
H1186 C1178 0.930 . S
H1187 C1179 0.929 . S
H1188 C1196 0.929 . S
H1189 C1198 0.930 . S
H1190 C1200 0.930 . S
H1191 C1203 0.929 . S
H1192 C1206 0.930 . S
H1193 C1208 0.960 . S
H1194 C1208 0.960 . S
H1195 C1208 0.960 1_545 S
C1196 H1188 0.929 . S
C1196 C1197 1.377 1_565 S
C1196 C1198 1.384 . S
C1197 C1196 1.377 1_545 S
C1197 C1203 1.390 . S
C1198 H1189 0.930 . S
C1198 C1196 1.384 . S
C1198 C1199 1.326 1_565 S
C1199 C1198 1.326 1_545 S
C1199 C1200 1.484 . S
C1199 C1204 1.495 . S
C1200 H1190 0.930 . S
C1200 C1199 1.484 . S
C1200 C1203 1.386 . S
H1201 C1217 0.930 . S
H1202 C1218 0.931 . S
C1203 H1191 0.929 . S
C1203 C1197 1.390 . S
C1203 C1200 1.386 . S
C1204 C1199 1.495 . S
C1204 C1206 1.359 . S
C1204 C1207 1.405 1_545 S
H1205 C1211 0.931 1_565 S
C1206 H1192 0.930 . S
C1206 C1204 1.359 . S
C1206 C1209 1.403 . S
C1207 C1204 1.405 1_565 S
C1207 C1208 1.521 . S
C1207 C1211 1.414 1_565 S
C1208 H1193 0.960 . S
C1208 H1194 0.960 . S
C1208 H1195 0.960 1_565 S
C1208 C1207 1.521 . S
C1209 C1206 1.403 . S
C1209 C1210 1.392 . S
C1209 C1213 1.495 . S
C1210 C1209 1.392 . S
C1210 C1211 1.376 . S
C1210 C1212 1.478 . S
C1211 H1205 0.931 1_545 S
C1211 C1207 1.414 1_545 S
C1211 C1210 1.376 . S
C1212 C1210 1.478 . S
C1212 C1214 1.381 1_545 S
C1212 C1218 1.383 . S
C1213 C1209 1.495 . S
C1213 H1219 0.959 . S
C1213 H1220 0.961 . S
C1213 H1221 0.960 1_545 S
C1214 C1212 1.381 1_565 S
C1214 C1215 1.394 . S
C1214 H1222 0.930 . S
C1215 C1214 1.394 . S
C1215 C1216 1.383 1_565 S
C1215 H1223 0.929 . S
C1216 C1215 1.383 1_545 S
C1216 C1217 1.377 . S
C1217 H1201 0.930 . S
C1217 C1216 1.377 . S
C1217 C1218 1.379 . S
C1218 H1202 0.931 . S
C1218 C1212 1.383 . S
C1218 C1217 1.379 . S
H1219 C1213 0.959 . S
H1220 C1213 0.961 . S
H1221 C1213 0.960 1_565 S
H1222 C1214 0.930 . S
H1223 C1215 0.929 . S
H1224 C1232 0.929 . S
H1225 C1234 0.930 . S
H1226 C1236 0.930 . S
H1227 C1239 0.929 . S
H1228 C1242 0.930 . S
H1229 C1244 0.921 . S
H1230 C1244 0.960 . S
H1231 C1244 0.960 1_545 S
C1232 H1224 0.929 . S
C1232 C1233 1.382 . S
C1232 C1234 1.384 . S
C1233 C1232 1.382 . S
C1233 C1239 1.388 1_565 S
C1234 H1225 0.930 . S
C1234 C1232 1.384 . S
C1234 C1235 1.372 . S
C1235 C1234 1.372 . S
C1235 C1236 1.400 1_565 S
C1235 C1240 1.490 . S
C1236 H1226 0.930 . S
C1236 C1235 1.400 1_545 S
C1236 C1239 1.386 . S
H1237 C1253 0.930 . S
H1238 C1254 0.931 . S
C1239 H1227 0.929 . S
C1239 C1233 1.388 1_545 S
C1239 C1236 1.386 . S
C1240 C1235 1.490 . S
C1240 C1242 1.395 . S
C1240 C1243 1.403 . S
H1241 C1247 0.901 . S
C1242 H1228 0.930 . S
C1242 C1240 1.395 . S
C1242 C1245 1.403 . S
C1243 C1240 1.403 . S
C1243 C1244 1.524 . S
C1243 C1247 1.400 . S
C1244 H1229 0.921 . S
C1244 H1230 0.960 . S
C1244 H1231 0.960 1_565 S
C1244 C1243 1.524 . S
C1245 C1242 1.403 . S
C1245 C1246 1.392 . S
C1245 C1249 1.495 . S
C1246 C1245 1.392 . S
C1246 C1247 1.385 . S
C1246 C1248 1.478 . S
C1247 H1241 0.901 . S
C1247 C1243 1.400 . S
C1247 C1246 1.385 . S
C1248 C1246 1.478 . S
C1248 C1250 1.381 . S
C1248 C1254 1.383 1_565 S
C1249 C1245 1.495 . S
C1249 H1255 0.959 . S
C1249 H1256 0.961 1_565 S
C1249 H1257 0.960 . S
C1250 C1248 1.381 . S
C1250 C1251 1.394 . S
C1250 H1258 0.930 . S
C1251 C1250 1.394 . S
C1251 C1252 1.383 . S
C1251 H1259 0.929 . S
C1252 C1251 1.383 . S
C1252 C1253 1.377 1_565 S
C1253 H1237 0.930 . S
C1253 C1252 1.377 1_545 S
C1253 C1254 1.379 . S
C1254 H1238 0.931 . S
C1254 C1248 1.383 1_545 S
C1254 C1253 1.379 . S
H1255 C1249 0.959 . S
H1256 C1249 0.961 1_545 S
H1257 C1249 0.960 . S
H1258 C1250 0.930 . S
H1259 C1251 0.929 . S
H1260 C1268 0.929 . S
H1261 C1270 0.930 . S
H1262 C1272 0.930 . S
H1263 C1275 0.929 . S
H1264 C1278 0.930 . S
H1265 C1280 0.960 . S
H1266 C1280 0.960 . S
H1267 C1280 0.960 . S
C1268 H1260 0.929 . S
C1268 C1269 1.377 1_655 S
C1268 C1270 1.384 . S
C1269 C1268 1.377 1_455 S
C1269 C1275 1.390 . S
C1270 H1261 0.930 . S
C1270 C1268 1.384 . S
C1270 C1271 1.372 1_655 S
C1271 C1270 1.372 1_455 S
C1271 C1272 1.400 . S
C1271 C1276 1.523 . S
C1272 H1262 0.930 . S
C1272 C1271 1.400 . S
C1272 C1275 1.386 . S
H1273 C1289 0.930 . S
H1274 C1290 0.931 . S
C1275 H1263 0.929 . S
C1275 C1269 1.390 . S
C1275 C1272 1.386 . S
C1276 C1271 1.523 . S
C1276 C1278 1.318 1_455 S
C1276 C1279 1.447 . S
H1277 C1283 0.930 . S
C1278 H1264 0.930 . S
C1278 C1276 1.318 1_655 S
C1278 C1281 1.403 . S
C1279 C1276 1.447 . S
C1279 C1280 1.524 . S
C1279 C1283 1.400 . S
C1280 H1265 0.960 . S
C1280 H1266 0.960 . S
C1280 H1267 0.960 . S
C1280 C1279 1.524 . S
C1281 C1278 1.403 . S
C1281 C1282 1.440 . S
C1281 C1285 1.495 . S
C1282 C1281 1.440 . S
C1282 C1283 1.303 1_655 S
C1282 C1284 1.484 . S
C1283 H1277 0.930 . S
C1283 C1279 1.400 . S
C1283 C1282 1.303 1_455 S
C1284 C1282 1.484 . S
C1284 C1286 1.417 . S
C1284 C1290 1.372 1_655 S
C1285 C1281 1.495 . S
C1285 H1291 0.959 . S
C1285 H1292 0.961 . S
C1285 H1293 0.960 . S
C1286 C1284 1.417 . S
C1286 C1287 1.394 . S
C1286 H1294 0.930 . S
C1287 C1286 1.394 . S
C1287 C1288 1.383 1_655 S
C1287 H1295 0.929 . S
C1288 C1287 1.383 1_455 S
C1288 C1289 1.377 . S
C1289 H1273 0.930 . S
C1289 C1288 1.377 . S
C1289 C1290 1.379 . S
C1290 H1274 0.931 . S
C1290 C1284 1.372 1_455 S
C1290 C1289 1.379 . S
H1291 C1285 0.959 . S
H1292 C1285 0.961 . S
H1293 C1285 0.960 . S
H1294 C1286 0.930 . S
H1295 C1287 0.929 . S
H1296 C1304 0.929 . S
H1297 C1306 0.930 . S
H1298 C1308 0.930 . S
H1299 C1311 0.929 . S
H1300 C1314 0.930 . S
H1301 C1316 0.960 . S
H1302 C1316 0.960 . S
H1303 C1316 0.960 . S
C1304 H1296 0.929 . S
C1304 C1305 1.377 . S
C1304 C1306 1.384 . S
C1305 C1304 1.377 . S
C1305 C1311 1.390 . S
C1306 H1297 0.930 . S
C1306 C1304 1.384 . S
C1306 C1307 1.372 . S
C1307 C1306 1.372 . S
C1307 C1308 1.400 . S
C1307 C1312 1.490 . S
C1308 H1298 0.930 . S
C1308 C1307 1.400 . S
C1308 C1311 1.386 . S
H1309 C1325 0.930 . S
H1310 C1326 0.931 . S
C1311 H1299 0.929 . S
C1311 C1305 1.390 . S
C1311 C1308 1.386 . S
C1312 C1307 1.490 . S
C1312 C1314 1.395 . S
C1312 C1315 1.403 . S
H1313 C1319 0.930 . S
C1314 H1300 0.930 . S
C1314 C1312 1.395 . S
C1314 C1317 1.403 . S
C1315 C1312 1.403 . S
C1315 C1316 1.524 . S
C1315 C1319 1.400 . S
C1316 H1301 0.960 . S
C1316 H1302 0.960 . S
C1316 H1303 0.960 . S
C1316 C1315 1.524 . S
C1317 C1314 1.403 . S
C1317 C1318 1.392 . S
C1317 C1321 1.495 . S
C1318 C1317 1.392 . S
C1318 C1319 1.385 . S
C1318 C1320 1.478 . S
C1319 H1313 0.930 . S
C1319 C1315 1.400 . S
C1319 C1318 1.385 . S
C1320 C1318 1.478 . S
C1320 C1322 1.381 . S
C1320 C1326 1.383 . S
C1321 C1317 1.495 . S
C1321 H1327 0.959 . S
C1321 H1328 0.961 . S
C1321 H1329 0.960 . S
C1322 C1320 1.381 . S
C1322 C1323 1.394 . S
C1322 H1330 0.930 . S
C1323 C1322 1.394 . S
C1323 C1324 1.383 . S
C1323 H1331 0.929 . S
C1324 C1323 1.383 . S
C1324 C1325 1.377 . S
C1325 H1309 0.930 . S
C1325 C1324 1.377 . S
C1325 C1326 1.379 . S
C1326 H1310 0.931 . S
C1326 C1320 1.383 . S
C1326 C1325 1.379 . S
H1327 C1321 0.959 . S
H1328 C1321 0.961 . S
H1329 C1321 0.960 . S
H1330 C1322 0.930 . S
H1331 C1323 0.929 . S
H1332 C1340 0.929 . S
H1333 C1342 0.930 . S
H1334 C1344 0.930 . S
H1335 C1347 0.929 . S
H1336 C1350 0.930 . S
H1337 C1352 0.960 . S
H1338 C1352 0.960 . S
H1339 C1352 0.960 . S
C1340 H1332 0.929 . S
C1340 C1341 1.377 . S
C1340 C1342 1.384 . S
C1341 C1340 1.377 . S
C1341 C1347 1.390 . S
C1342 H1333 0.930 . S
C1342 C1340 1.384 . S
C1342 C1343 1.372 . S
C1343 C1342 1.372 . S
C1343 C1344 1.400 . S
C1343 C1348 1.490 . S
C1344 H1334 0.930 . S
C1344 C1343 1.400 . S
C1344 C1347 1.386 . S
H1345 C1361 0.944 . S
H1346 C1362 0.931 . S
C1347 H1335 0.929 . S
C1347 C1341 1.390 . S
C1347 C1344 1.386 . S
C1348 C1343 1.490 . S
C1348 C1350 1.395 1_455 S
C1348 C1351 1.403 . S
H1349 C1355 0.930 . S
C1350 H1336 0.930 . S
C1350 C1348 1.395 1_655 S
C1350 C1353 1.403 . S
C1351 C1348 1.403 . S
C1351 C1352 1.524 . S
C1351 C1355 1.400 . S
C1352 H1337 0.960 . S
C1352 H1338 0.960 . S
C1352 H1339 0.960 . S
C1352 C1351 1.524 . S
C1353 C1350 1.403 . S
C1353 C1354 1.432 . S
C1353 C1357 1.495 . S
C1354 C1353 1.432 . S
C1354 C1355 1.367 1_655 S
C1354 C1356 1.482 . S
C1355 H1349 0.930 . S
C1355 C1351 1.400 . S
C1355 C1354 1.367 1_455 S
C1356 C1354 1.482 . S
C1356 C1358 1.344 1_655 S
C1356 C1362 1.394 . S
C1357 C1353 1.495 . S
C1357 H1363 0.959 . S
C1357 H1364 0.961 . S
C1357 H1365 0.960 . S
C1358 C1356 1.344 1_455 S
C1358 C1359 1.394 . S
C1358 H1366 0.930 . S
C1359 C1358 1.394 . S
C1359 C1360 1.383 . S
C1359 H1367 0.929 . S
C1360 C1359 1.383 . S
C1360 C1361 1.335 1_455 S
C1361 H1345 0.944 . S
C1361 C1360 1.335 1_655 S
C1361 C1362 1.413 . S
C1362 H1346 0.931 . S
C1362 C1356 1.394 . S
C1362 C1361 1.413 . S
H1363 C1357 0.959 . S
H1364 C1357 0.961 . S
H1365 C1357 0.960 . S
H1366 C1358 0.930 . S
H1367 C1359 0.929 . S
H1368 C1376 0.929 . S
H1369 C1378 0.930 . S
H1370 C1380 0.930 . S
H1371 C1383 0.929 . S
H1372 C1386 0.930 . S
H1373 C1388 0.960 . S
H1374 C1388 0.960 . S
H1375 C1388 0.960 . S
C1376 H1368 0.929 . S
C1376 C1377 1.377 . S
C1376 C1378 1.384 . S
C1377 C1376 1.377 . S
C1377 C1383 1.390 . S
C1378 H1369 0.930 . S
C1378 C1376 1.384 . S
C1378 C1379 1.372 . S
C1379 C1378 1.372 . S
C1379 C1380 1.400 . S
C1379 C1384 1.490 . S
C1380 H1370 0.930 . S
C1380 C1379 1.400 . S
C1380 C1383 1.386 . S
H1381 C1397 0.930 . S
H1382 C1398 0.931 . S
C1383 H1371 0.929 . S
C1383 C1377 1.390 . S
C1383 C1380 1.386 . S
C1384 C1379 1.490 . S
C1384 C1386 1.395 . S
C1384 C1387 1.403 . S
H1385 C1391 0.930 . S
C1386 H1372 0.930 . S
C1386 C1384 1.395 . S
C1386 C1389 1.403 . S
C1387 C1384 1.403 . S
C1387 C1388 1.524 . S
C1387 C1391 1.400 . S
C1388 H1373 0.960 . S
C1388 H1374 0.960 . S
C1388 H1375 0.960 . S
C1388 C1387 1.524 . S
C1389 C1386 1.403 . S
C1389 C1390 1.392 . S
C1389 C1393 1.495 . S
C1390 C1389 1.392 . S
C1390 C1391 1.385 . S
C1390 C1392 1.478 . S
C1391 H1385 0.930 . S
C1391 C1387 1.400 . S
C1391 C1390 1.385 . S
C1392 C1390 1.478 . S
C1392 C1394 1.381 . S
C1392 C1398 1.383 . S
C1393 C1389 1.495 . S
C1393 H1399 0.959 . S
C1393 H1400 0.961 . S
C1393 H1401 0.960 . S
C1394 C1392 1.381 . S
C1394 C1395 1.394 . S
C1394 H1402 0.930 . S
C1395 C1394 1.394 . S
C1395 C1396 1.383 . S
C1395 H1403 0.929 . S
C1396 C1395 1.383 . S
C1396 C1397 1.377 . S
C1397 H1381 0.930 . S
C1397 C1396 1.377 . S
C1397 C1398 1.379 . S
C1398 H1382 0.931 . S
C1398 C1392 1.383 . S
C1398 C1397 1.379 . S
H1399 C1393 0.959 . S
H1400 C1393 0.961 . S
H1401 C1393 0.960 . S
H1402 C1394 0.930 . S
H1403 C1395 0.929 . S
H1404 C1412 0.929 . S
H1405 C1414 0.930 . S
H1406 C1416 0.930 . S
H1407 C1419 0.929 . S
H1408 C1422 0.930 . S
H1409 C1424 0.960 . S
H1410 C1424 0.960 1_545 S
H1411 C1424 0.960 . S
C1412 H1404 0.929 . S
C1412 C1413 1.347 1_545 S
C1412 C1414 1.384 . S
C1413 C1412 1.347 1_565 S
C1413 C1419 1.406 . S
C1414 H1405 0.930 . S
C1414 C1412 1.384 . S
C1414 C1415 1.369 1_545 S
C1415 C1414 1.369 1_565 S
C1415 C1416 1.405 . S
C1415 C1420 1.492 . S
C1416 H1406 0.930 . S
C1416 C1415 1.405 . S
C1416 C1419 1.386 . S
H1417 C1433 0.930 . S
H1418 C1434 0.931 . S
C1419 H1407 0.929 . S
C1419 C1413 1.406 . S
C1419 C1416 1.386 . S
C1420 C1415 1.492 . S
C1420 C1422 1.394 1_565 S
C1420 C1423 1.399 . S
H1421 C1427 0.930 . S
C1422 H1408 0.930 . S
C1422 C1420 1.394 1_545 S
C1422 C1425 1.403 . S
C1423 C1420 1.399 . S
C1423 C1424 1.524 . S
C1423 C1427 1.400 . S
C1424 H1409 0.960 . S
C1424 H1410 0.960 1_565 S
C1424 H1411 0.960 . S
C1424 C1423 1.524 . S
C1425 C1422 1.403 . S
C1425 C1426 1.403 1_545 S
C1425 C1429 1.495 . S
C1426 C1425 1.403 1_565 S
C1426 C1427 1.388 . S
C1426 C1428 1.499 . S
C1427 H1421 0.930 . S
C1427 C1423 1.400 . S
C1427 C1426 1.388 . S
C1428 C1426 1.499 . S
C1428 C1430 1.300 1_565 S
C1428 C1434 1.431 . S
C1429 C1425 1.495 . S
C1429 H1435 0.959 . S
C1429 H1436 0.961 1_545 S
C1429 H1437 0.960 . S
C1430 C1428 1.300 1_545 S
C1430 C1431 1.394 . S
C1430 H1438 0.930 . S
C1431 C1430 1.394 . S
C1431 C1432 1.383 1_545 S
C1431 H1439 0.929 . S
C1432 C1431 1.383 1_565 S
C1432 C1433 1.377 . S
C1433 H1417 0.930 . S
C1433 C1432 1.377 . S
C1433 C1434 1.379 . S
C1434 H1418 0.931 . S
C1434 C1428 1.431 . S
C1434 C1433 1.379 . S
H1435 C1429 0.959 . S
H1436 C1429 0.961 1_565 S
H1437 C1429 0.960 . S
H1438 C1430 0.930 . S
H1439 C1431 0.929 . S
H1440 C1448 0.929 . S
H1441 C1450 0.930 . S
H1442 C1452 0.930 . S
H1443 C1455 0.929 . S
H1444 C1458 0.930 . S
H1445 C1460 0.960 . S
H1446 C1460 0.960 . S
H1447 C1460 0.960 . S
C1448 H1440 0.929 . S
C1448 C1449 1.377 . S
C1448 C1450 1.384 . S
C1449 C1448 1.377 . S
C1449 C1455 1.390 1_545 S
C1450 H1441 0.930 . S
C1450 C1448 1.384 . S
C1450 C1451 1.372 . S
C1451 C1450 1.372 . S
C1451 C1452 1.400 1_545 S
C1451 C1456 1.490 . S
C1452 H1442 0.930 . S
C1452 C1451 1.400 1_565 S
C1452 C1455 1.386 . S
H1453 C1469 0.930 . S
H1454 C1470 0.931 . S
C1455 H1443 0.929 . S
C1455 C1449 1.390 1_565 S
C1455 C1452 1.386 . S
C1456 C1451 1.490 . S
C1456 C1458 1.395 . S
C1456 C1459 1.403 1_545 S
H1457 C1463 0.930 . S
C1458 H1444 0.930 . S
C1458 C1456 1.395 . S
C1458 C1461 1.403 . S
C1459 C1456 1.403 1_565 S
C1459 C1460 1.524 . S
C1459 C1463 1.400 . S
C1460 H1445 0.960 . S
C1460 H1446 0.960 . S
C1460 H1447 0.960 . S
C1460 C1459 1.524 . S
C1461 C1458 1.403 . S
C1461 C1462 1.392 . S
C1461 C1465 1.495 . S
C1462 C1461 1.392 . S
C1462 C1463 1.385 1_545 S
C1462 C1464 1.478 . S
C1463 H1457 0.930 . S
C1463 C1459 1.400 . S
C1463 C1462 1.385 1_565 S
C1464 C1462 1.478 . S
C1464 C1466 1.381 . S
C1464 C1470 1.383 1_545 S
C1465 C1461 1.495 . S
C1465 H1471 0.959 . S
C1465 H1472 0.961 . S
C1465 H1473 0.960 . S
C1466 C1464 1.381 . S
C1466 C1467 1.394 . S
C1466 H1474 0.930 . S
C1467 C1466 1.394 . S
C1467 C1468 1.383 . S
C1467 H1475 0.929 . S
C1468 C1467 1.383 . S
C1468 C1469 1.377 1_545 S
C1469 H1453 0.930 . S
C1469 C1468 1.377 1_565 S
C1469 C1470 1.379 . S
C1470 H1454 0.931 . S
C1470 C1464 1.383 1_565 S
C1470 C1469 1.379 . S
H1471 C1465 0.959 . S
H1472 C1465 0.961 . S
H1473 C1465 0.960 . S
H1474 C1466 0.930 . S
H1475 C1467 0.929 . S
H1476 C1484 0.929 . S
H1477 C1486 0.930 . S
H1478 C1488 0.930 . S
H1479 C1491 0.929 . S
H1480 C1494 0.930 . S
H1481 C1496 0.960 . S
H1482 C1496 0.960 . S
H1483 C1496 0.960 . S
C1484 H1476 0.929 . S
C1484 C1485 1.390 . S
C1484 C1486 1.384 . S
C1485 C1484 1.390 . S
C1485 C1491 1.361 1_655 S
C1486 H1477 0.930 . S
C1486 C1484 1.384 . S
C1486 C1487 1.441 . S
C1487 C1486 1.441 . S
C1487 C1488 1.373 1_655 S
C1487 C1492 1.458 . S
C1488 H1478 0.930 . S
C1488 C1487 1.373 1_455 S
C1488 C1491 1.386 . S
H1489 C1505 0.906 1_455 S
H1490 C1506 0.949 . S
C1491 H1479 0.929 . S
C1491 C1485 1.361 1_455 S
C1491 C1488 1.386 . S
C1492 C1487 1.458 . S
C1492 C1494 1.395 . S
C1492 C1495 1.403 1_655 S
H1493 C1499 0.930 . S
C1494 H1480 0.930 . S
C1494 C1492 1.395 . S
C1494 C1497 1.403 . S
C1495 C1492 1.403 1_455 S
C1495 C1496 1.524 . S
C1495 C1499 1.400 . S
C1496 H1481 0.960 . S
C1496 H1482 0.960 . S
C1496 H1483 0.960 . S
C1496 C1495 1.524 . S
C1497 C1494 1.403 . S
C1497 C1498 1.392 . S
C1497 C1501 1.495 . S
C1498 C1497 1.392 . S
C1498 C1499 1.385 1_655 S
C1498 C1500 1.478 . S
C1499 H1493 0.930 . S
C1499 C1495 1.400 . S
C1499 C1498 1.385 1_455 S
C1500 C1498 1.478 . S
C1500 C1502 1.381 . S
C1500 C1506 1.383 . S
C1501 C1497 1.495 . S
C1501 H1507 0.959 . S
C1501 H1508 0.961 . S
C1501 H1509 0.960 . S
C1502 C1500 1.381 . S
C1502 C1503 1.394 . S
C1502 H1510 0.930 . S
C1503 C1502 1.394 . S
C1503 C1504 1.383 . S
C1503 H1511 0.929 . S
C1504 C1503 1.383 . S
C1504 C1505 1.377 . S
C1505 H1489 0.906 1_655 S
C1505 C1504 1.377 . S
C1505 C1506 1.379 . S
C1506 H1490 0.949 . S
C1506 C1500 1.383 . S
C1506 C1505 1.379 . S
H1507 C1501 0.959 . S
H1508 C1501 0.961 . S
H1509 C1501 0.960 . S
H1510 C1502 0.930 . S
H1511 C1503 0.929 . S
H1512 C1520 0.929 . S
H1513 C1522 0.930 . S
H1514 C1524 0.930 . S
H1515 C1527 0.929 . S
H1516 C1530 0.930 . S
H1517 C1532 0.960 . S
H1518 C1532 0.960 . S
H1519 C1532 0.960 . S
C1520 H1512 0.929 . S
C1520 C1521 1.377 . S
C1520 C1522 1.384 . S
C1521 C1520 1.377 . S
C1521 C1527 1.390 . S
C1522 H1513 0.930 . S
C1522 C1520 1.384 . S
C1522 C1523 1.372 . S
C1523 C1522 1.372 . S
C1523 C1524 1.400 . S
C1523 C1528 1.490 . S
C1524 H1514 0.930 . S
C1524 C1523 1.400 . S
C1524 C1527 1.386 . S
H1525 C1541 0.930 . S
H1526 C1542 0.931 . S
C1527 H1515 0.929 . S
C1527 C1521 1.390 . S
C1527 C1524 1.386 . S
C1528 C1523 1.490 . S
C1528 C1530 1.395 . S
C1528 C1531 1.403 . S
H1529 C1535 0.930 . S
C1530 H1516 0.930 . S
C1530 C1528 1.395 . S
C1530 C1533 1.403 . S
C1531 C1528 1.403 . S
C1531 C1532 1.524 . S
C1531 C1535 1.400 . S
C1532 H1517 0.960 . S
C1532 H1518 0.960 . S
C1532 H1519 0.960 . S
C1532 C1531 1.524 . S
C1533 C1530 1.403 . S
C1533 C1534 1.392 . S
C1533 C1537 1.495 . S
C1534 C1533 1.392 . S
C1534 C1535 1.385 . S
C1534 C1536 1.478 . S
C1535 H1529 0.930 . S
C1535 C1531 1.400 . S
C1535 C1534 1.385 . S
C1536 C1534 1.478 . S
C1536 C1538 1.381 . S
C1536 C1542 1.383 . S
C1537 C1533 1.495 . S
C1537 H1543 0.959 . S
C1537 H1544 0.961 . S
C1537 H1545 0.960 . S
C1538 C1536 1.381 . S
C1538 C1539 1.394 . S
C1538 H1546 0.930 . S
C1539 C1538 1.394 . S
C1539 C1540 1.383 . S
C1539 H1547 0.929 . S
C1540 C1539 1.383 . S
C1540 C1541 1.377 . S
C1541 H1525 0.930 . S
C1541 C1540 1.377 . S
C1541 C1542 1.379 . S
C1542 H1526 0.931 . S
C1542 C1536 1.383 . S
C1542 C1541 1.379 . S
H1543 C1537 0.959 . S
H1544 C1537 0.961 . S
H1545 C1537 0.960 . S
H1546 C1538 0.930 . S
H1547 C1539 0.929 . S
H1548 C1556 0.929 . S
H1549 C1558 0.930 . S
H1550 C1560 0.930 . S
H1551 C1563 0.929 . S
H1552 C1566 0.930 . S
H1553 C1568 0.960 . S
H1554 C1568 0.960 . S
H1555 C1568 0.960 . S
C1556 H1548 0.929 . S
C1556 C1557 1.377 . S
C1556 C1558 1.384 . S
C1557 C1556 1.377 . S
C1557 C1563 1.390 . S
C1558 H1549 0.930 . S
C1558 C1556 1.384 . S
C1558 C1559 1.372 . S
C1559 C1558 1.372 . S
C1559 C1560 1.400 . S
C1559 C1564 1.490 . S
C1560 H1550 0.930 . S
C1560 C1559 1.400 . S
C1560 C1563 1.386 . S
H1561 C1577 0.930 . S
H1562 C1578 0.931 . S
C1563 H1551 0.929 . S
C1563 C1557 1.390 . S
C1563 C1560 1.386 . S
C1564 C1559 1.490 . S
C1564 C1566 1.395 . S
C1564 C1567 1.403 . S
H1565 C1571 0.930 . S
C1566 H1552 0.930 . S
C1566 C1564 1.395 . S
C1566 C1569 1.403 . S
C1567 C1564 1.403 . S
C1567 C1568 1.524 . S
C1567 C1571 1.400 . S
C1568 H1553 0.960 . S
C1568 H1554 0.960 . S
C1568 H1555 0.960 . S
C1568 C1567 1.524 . S
C1569 C1566 1.403 . S
C1569 C1570 1.392 . S
C1569 C1573 1.495 . S
C1570 C1569 1.392 . S
C1570 C1571 1.385 . S
C1570 C1572 1.478 . S
C1571 H1565 0.930 . S
C1571 C1567 1.400 . S
C1571 C1570 1.385 . S
C1572 C1570 1.478 . S
C1572 C1574 1.381 . S
C1572 C1578 1.383 . S
C1573 C1569 1.495 . S
C1573 H1579 0.959 . S
C1573 H1580 0.961 . S
C1573 H1581 0.960 . S
C1574 C1572 1.381 . S
C1574 C1575 1.394 . S
C1574 H1582 0.930 . S
C1575 C1574 1.394 . S
C1575 C1576 1.383 . S
C1575 H1583 0.929 . S
C1576 C1575 1.383 . S
C1576 C1577 1.377 . S
C1577 H1561 0.930 . S
C1577 C1576 1.377 . S
C1577 C1578 1.379 . S
C1578 H1562 0.931 . S
C1578 C1572 1.383 . S
C1578 C1577 1.379 . S
H1579 C1573 0.959 . S
H1580 C1573 0.961 . S
H1581 C1573 0.960 . S
H1582 C1574 0.930 . S
H1583 C1575 0.929 . S
H1584 C1592 0.929 . S
H1585 C1594 0.930 . S
H1586 C1596 0.930 . S
H1587 C1599 0.929 . S
H1588 C1602 0.930 . S
H1589 C1604 0.960 . S
H1590 C1604 0.960 . S
H1591 C1604 0.960 . S
C1592 H1584 0.929 . S
C1592 C1593 1.377 . S
C1592 C1594 1.384 . S
C1593 C1592 1.377 . S
C1593 C1599 1.390 . S
C1594 H1585 0.930 . S
C1594 C1592 1.384 . S
C1594 C1595 1.372 . S
C1595 C1594 1.372 . S
C1595 C1596 1.400 . S
C1595 C1600 1.490 . S
C1596 H1586 0.930 . S
C1596 C1595 1.400 . S
C1596 C1599 1.386 . S
H1597 C1613 0.930 . S
H1598 C1614 0.931 . S
C1599 H1587 0.929 . S
C1599 C1593 1.390 . S
C1599 C1596 1.386 . S
C1600 C1595 1.490 . S
C1600 C1602 1.395 . S
C1600 C1603 1.403 . S
H1601 C1607 0.930 . S
C1602 H1588 0.930 . S
C1602 C1600 1.395 . S
C1602 C1605 1.403 . S
C1603 C1600 1.403 . S
C1603 C1604 1.524 . S
C1603 C1607 1.400 . S
C1604 H1589 0.960 . S
C1604 H1590 0.960 . S
C1604 H1591 0.960 . S
C1604 C1603 1.524 . S
C1605 C1602 1.403 . S
C1605 C1606 1.392 . S
C1605 C1609 1.495 . S
C1606 C1605 1.392 . S
C1606 C1607 1.385 . S
C1606 C1608 1.478 . S
C1607 H1601 0.930 . S
C1607 C1603 1.400 . S
C1607 C1606 1.385 . S
C1608 C1606 1.478 . S
C1608 C1610 1.381 . S
C1608 C1614 1.383 . S
C1609 C1605 1.495 . S
C1609 H1615 0.959 . S
C1609 H1616 0.961 . S
C1609 H1617 0.960 . S
C1610 C1608 1.381 . S
C1610 C1611 1.394 . S
C1610 H1618 0.930 . S
C1611 C1610 1.394 . S
C1611 C1612 1.383 . S
C1611 H1619 0.929 . S
C1612 C1611 1.383 . S
C1612 C1613 1.377 . S
C1613 H1597 0.930 . S
C1613 C1612 1.377 . S
C1613 C1614 1.379 . S
C1614 H1598 0.931 . S
C1614 C1608 1.383 . S
C1614 C1613 1.379 . S
H1615 C1609 0.959 . S
H1616 C1609 0.961 . S
H1617 C1609 0.960 . S
H1618 C1610 0.930 . S
H1619 C1611 0.929 . S
H1620 C1628 0.929 . S
H1621 C1630 0.930 . S
H1622 C1632 0.930 . S
H1623 C1635 0.929 . S
H1624 C1638 0.930 . S
H1625 C1640 0.960 . S
H1626 C1640 0.960 . S
H1627 C1640 0.960 . S
C1628 H1620 0.929 . S
C1628 C1629 1.377 . S
C1628 C1630 1.384 . S
C1629 C1628 1.377 . S
C1629 C1635 1.390 . S
C1630 H1621 0.930 . S
C1630 C1628 1.384 . S
C1630 C1631 1.372 . S
C1631 C1630 1.372 . S
C1631 C1632 1.400 . S
C1631 C1636 1.490 . S
C1632 H1622 0.930 . S
C1632 C1631 1.400 . S
C1632 C1635 1.386 . S
H1633 C1649 0.930 . S
H1634 C1650 0.931 . S
C1635 H1623 0.929 . S
C1635 C1629 1.390 . S
C1635 C1632 1.386 . S
C1636 C1631 1.490 . S
C1636 C1638 1.395 . S
C1636 C1639 1.403 . S
H1637 C1643 0.930 . S
C1638 H1624 0.930 . S
C1638 C1636 1.395 . S
C1638 C1641 1.403 . S
C1639 C1636 1.403 . S
C1639 C1640 1.524 . S
C1639 C1643 1.400 . S
C1640 H1625 0.960 . S
C1640 H1626 0.960 . S
C1640 H1627 0.960 . S
C1640 C1639 1.524 . S
C1641 C1638 1.403 . S
C1641 C1642 1.392 . S
C1641 C1645 1.495 . S
C1642 C1641 1.392 . S
C1642 C1643 1.385 . S
C1642 C1644 1.478 . S
C1643 H1637 0.930 . S
C1643 C1639 1.400 . S
C1643 C1642 1.385 . S
C1644 C1642 1.478 . S
C1644 C1646 1.381 . S
C1644 C1650 1.383 . S
C1645 C1641 1.495 . S
C1645 H1651 0.959 . S
C1645 H1652 0.961 . S
C1645 H1653 0.960 . S
C1646 C1644 1.381 . S
C1646 C1647 1.394 . S
C1646 H1654 0.930 . S
C1647 C1646 1.394 . S
C1647 C1648 1.383 . S
C1647 H1655 0.929 . S
C1648 C1647 1.383 . S
C1648 C1649 1.377 . S
C1649 H1633 0.930 . S
C1649 C1648 1.377 . S
C1649 C1650 1.379 . S
C1650 H1634 0.931 . S
C1650 C1644 1.383 . S
C1650 C1649 1.379 . S
H1651 C1645 0.959 . S
H1652 C1645 0.961 . S
H1653 C1645 0.960 . S
H1654 C1646 0.930 . S
H1655 C1647 0.929 . S
H1656 C1664 0.929 . S
H1657 C1666 0.930 . S
H1658 C1668 0.930 . S
H1659 C1671 0.929 . S
H1660 C1674 0.930 . S
H1661 C1676 0.960 . S
H1662 C1676 0.960 . S
H1663 C1676 0.960 . S
C1664 H1656 0.929 . S
C1664 C1665 1.377 . S
C1664 C1666 1.384 . S
C1665 C1664 1.377 . S
C1665 C1671 1.390 . S
C1666 H1657 0.930 . S
C1666 C1664 1.384 . S
C1666 C1667 1.372 . S
C1667 C1666 1.372 . S
C1667 C1668 1.400 . S
C1667 C1672 1.490 . S
C1668 H1658 0.930 . S
C1668 C1667 1.400 . S
C1668 C1671 1.386 . S
H1669 C1685 0.930 . S
H1670 C1686 0.931 . S
C1671 H1659 0.929 . S
C1671 C1665 1.390 . S
C1671 C1668 1.386 . S
C1672 C1667 1.490 . S
C1672 C1674 1.395 . S
C1672 C1675 1.403 . S
H1673 C1679 0.930 . S
C1674 H1660 0.930 . S
C1674 C1672 1.395 . S
C1674 C1677 1.403 . S
C1675 C1672 1.403 . S
C1675 C1676 1.524 . S
C1675 C1679 1.400 . S
C1676 H1661 0.960 . S
C1676 H1662 0.960 . S
C1676 H1663 0.960 . S
C1676 C1675 1.524 . S
C1677 C1674 1.403 . S
C1677 C1678 1.392 . S
C1677 C1681 1.495 . S
C1678 C1677 1.392 . S
C1678 C1679 1.385 . S
C1678 C1680 1.478 . S
C1679 H1673 0.930 . S
C1679 C1675 1.400 . S
C1679 C1678 1.385 . S
C1680 C1678 1.478 . S
C1680 C1682 1.381 . S
C1680 C1686 1.383 . S
C1681 C1677 1.495 . S
C1681 H1687 0.959 . S
C1681 H1688 0.961 . S
C1681 H1689 0.960 . S
C1682 C1680 1.381 . S
C1682 C1683 1.394 . S
C1682 H1690 0.930 . S
C1683 C1682 1.394 . S
C1683 C1684 1.383 . S
C1683 H1691 0.929 . S
C1684 C1683 1.383 . S
C1684 C1685 1.377 . S
C1685 H1669 0.930 . S
C1685 C1684 1.377 . S
C1685 C1686 1.379 . S
C1686 H1670 0.931 . S
C1686 C1680 1.383 . S
C1686 C1685 1.379 . S
H1687 C1681 0.959 . S
H1688 C1681 0.961 . S
H1689 C1681 0.960 . S
H1690 C1682 0.930 . S
H1691 C1683 0.929 . S
H1692 C1700 0.929 . S
H1693 C1702 0.930 . S
H1694 C1704 0.930 . S
H1695 C1707 0.929 . S
H1696 C1710 0.930 . S
H1697 C1712 0.960 . S
H1698 C1712 0.960 . S
H1699 C1712 0.960 . S
C1700 H1692 0.929 . S
C1700 C1701 1.377 . S
C1700 C1702 1.384 . S
C1701 C1700 1.377 . S
C1701 C1707 1.390 . S
C1702 H1693 0.930 . S
C1702 C1700 1.384 . S
C1702 C1703 1.372 . S
C1703 C1702 1.372 . S
C1703 C1704 1.400 . S
C1703 C1708 1.490 . S
C1704 H1694 0.930 . S
C1704 C1703 1.400 . S
C1704 C1707 1.386 . S
H1705 C1721 0.930 . S
H1706 C1722 0.931 . S
C1707 H1695 0.929 . S
C1707 C1701 1.390 . S
C1707 C1704 1.386 . S
C1708 C1703 1.490 . S
C1708 C1710 1.395 . S
C1708 C1711 1.403 . S
H1709 C1715 0.930 . S
C1710 H1696 0.930 . S
C1710 C1708 1.395 . S
C1710 C1713 1.403 . S
C1711 C1708 1.403 . S
C1711 C1712 1.524 . S
C1711 C1715 1.400 . S
C1712 H1697 0.960 . S
C1712 H1698 0.960 . S
C1712 H1699 0.960 . S
C1712 C1711 1.524 . S
C1713 C1710 1.403 . S
C1713 C1714 1.392 . S
C1713 C1717 1.495 . S
C1714 C1713 1.392 . S
C1714 C1715 1.385 . S
C1714 C1716 1.478 . S
C1715 H1709 0.930 . S
C1715 C1711 1.400 . S
C1715 C1714 1.385 . S
C1716 C1714 1.478 . S
C1716 C1718 1.381 . S
C1716 C1722 1.383 . S
C1717 C1713 1.495 . S
C1717 H1723 0.959 . S
C1717 H1724 0.961 . S
C1717 H1725 0.960 . S
C1718 C1716 1.381 . S
C1718 C1719 1.394 . S
C1718 H1726 0.930 . S
C1719 C1718 1.394 . S
C1719 C1720 1.383 . S
C1719 H1727 0.929 . S
C1720 C1719 1.383 . S
C1720 C1721 1.377 . S
C1721 H1705 0.930 . S
C1721 C1720 1.377 . S
C1721 C1722 1.379 . S
C1722 H1706 0.931 . S
C1722 C1716 1.383 . S
C1722 C1721 1.379 . S
H1723 C1717 0.959 . S
H1724 C1717 0.961 . S
H1725 C1717 0.960 . S
H1726 C1718 0.930 . S
H1727 C1719 0.929 . S
H1728 C1736 0.929 . S
H1729 C1738 0.930 . S
H1730 C1740 0.930 . S
H1731 C1743 0.929 . S
H1732 C1746 0.930 . S
H1733 C1748 0.960 . S
H1734 C1748 0.960 . S
H1735 C1748 0.960 . S
C1736 H1728 0.929 . S
C1736 C1737 1.377 . S
C1736 C1738 1.384 . S
C1737 C1736 1.377 . S
C1737 C1743 1.390 . S
C1738 H1729 0.930 . S
C1738 C1736 1.384 . S
C1738 C1739 1.372 . S
C1739 C1738 1.372 . S
C1739 C1740 1.400 . S
C1739 C1744 1.490 . S
C1740 H1730 0.930 . S
C1740 C1739 1.400 . S
C1740 C1743 1.386 . S
H1741 C1757 0.930 . S
H1742 C1758 0.931 . S
C1743 H1731 0.929 . S
C1743 C1737 1.390 . S
C1743 C1740 1.386 . S
C1744 C1739 1.490 . S
C1744 C1746 1.395 . S
C1744 C1747 1.403 . S
H1745 C1751 0.930 . S
C1746 H1732 0.930 . S
C1746 C1744 1.395 . S
C1746 C1749 1.403 . S
C1747 C1744 1.403 . S
C1747 C1748 1.524 . S
C1747 C1751 1.400 . S
C1748 H1733 0.960 . S
C1748 H1734 0.960 . S
C1748 H1735 0.960 . S
C1748 C1747 1.524 . S
C1749 C1746 1.403 . S
C1749 C1750 1.392 . S
C1749 C1753 1.495 . S
C1750 C1749 1.392 . S
C1750 C1751 1.385 . S
C1750 C1752 1.478 . S
C1751 H1745 0.930 . S
C1751 C1747 1.400 . S
C1751 C1750 1.385 . S
C1752 C1750 1.478 . S
C1752 C1754 1.381 . S
C1752 C1758 1.383 . S
C1753 C1749 1.495 . S
C1753 H1759 0.959 . S
C1753 H1760 0.961 . S
C1753 H1761 0.960 . S
C1754 C1752 1.381 . S
C1754 C1755 1.394 . S
C1754 H1762 0.930 . S
C1755 C1754 1.394 . S
C1755 C1756 1.383 . S
C1755 H1763 0.929 . S
C1756 C1755 1.383 . S
C1756 C1757 1.377 . S
C1757 H1741 0.930 . S
C1757 C1756 1.377 . S
C1757 C1758 1.379 . S
C1758 H1742 0.931 . S
C1758 C1752 1.383 . S
C1758 C1757 1.379 . S
H1759 C1753 0.959 . S
H1760 C1753 0.961 . S
H1761 C1753 0.960 . S
H1762 C1754 0.930 . S
H1763 C1755 0.929 . S
H1764 C1772 0.929 . S
H1765 C1774 0.930 . S
H1766 C1776 0.930 . S
H1767 C1779 0.929 . S
H1768 C1782 0.930 . S
H1769 C1784 0.960 . S
H1770 C1784 0.960 . S
H1771 C1784 0.960 . S
C1772 H1764 0.929 . S
C1772 C1773 1.377 . S
C1772 C1774 1.384 . S
C1773 C1772 1.377 . S
C1773 C1779 1.390 . S
C1774 H1765 0.930 . S
C1774 C1772 1.384 . S
C1774 C1775 1.372 . S
C1775 C1774 1.372 . S
C1775 C1776 1.400 . S
C1775 C1780 1.490 . S
C1776 H1766 0.930 . S
C1776 C1775 1.400 . S
C1776 C1779 1.386 . S
H1777 C1793 0.930 . S
H1778 C1794 0.931 . S
C1779 H1767 0.929 . S
C1779 C1773 1.390 . S
C1779 C1776 1.386 . S
C1780 C1775 1.490 . S
C1780 C1782 1.395 . S
C1780 C1783 1.403 . S
H1781 C1787 0.930 . S
C1782 H1768 0.930 . S
C1782 C1780 1.395 . S
C1782 C1785 1.403 . S
C1783 C1780 1.403 . S
C1783 C1784 1.524 . S
C1783 C1787 1.400 . S
C1784 H1769 0.960 . S
C1784 H1770 0.960 . S
C1784 H1771 0.960 . S
C1784 C1783 1.524 . S
C1785 C1782 1.403 . S
C1785 C1786 1.392 . S
C1785 C1789 1.495 . S
C1786 C1785 1.392 . S
C1786 C1787 1.385 . S
C1786 C1788 1.478 . S
C1787 H1781 0.930 . S
C1787 C1783 1.400 . S
C1787 C1786 1.385 . S
C1788 C1786 1.478 . S
C1788 C1790 1.381 . S
C1788 C1794 1.383 . S
C1789 C1785 1.495 . S
C1789 H1795 0.959 . S
C1789 H1796 0.961 . S
C1789 H1797 0.960 . S
C1790 C1788 1.381 . S
C1790 C1791 1.394 . S
C1790 H1798 0.930 . S
C1791 C1790 1.394 . S
C1791 C1792 1.383 . S
C1791 H1799 0.929 . S
C1792 C1791 1.383 . S
C1792 C1793 1.377 . S
C1793 H1777 0.930 . S
C1793 C1792 1.377 . S
C1793 C1794 1.379 . S
C1794 H1778 0.931 . S
C1794 C1788 1.383 . S
C1794 C1793 1.379 . S
H1795 C1789 0.959 . S
H1796 C1789 0.961 . S
H1797 C1789 0.960 . S
H1798 C1790 0.930 . S
H1799 C1791 0.929 . S
H1800 C1808 0.929 . S
H1801 C1810 0.930 . S
H1802 C1812 0.930 . S
H1803 C1815 0.929 . S
H1804 C1818 0.930 . S
H1805 C1820 0.960 . S
H1806 C1820 0.960 . S
H1807 C1820 0.960 . S
C1808 H1800 0.929 . S
C1808 C1809 1.377 . S
C1808 C1810 1.384 . S
C1809 C1808 1.377 . S
C1809 C1815 1.390 . S
C1810 H1801 0.930 . S
C1810 C1808 1.384 . S
C1810 C1811 1.372 . S
C1811 C1810 1.372 . S
C1811 C1812 1.400 . S
C1811 C1816 1.490 . S
C1812 H1802 0.930 . S
C1812 C1811 1.400 . S
C1812 C1815 1.386 . S
H1813 C1829 0.930 . S
H1814 C1830 0.931 . S
C1815 H1803 0.929 . S
C1815 C1809 1.390 . S
C1815 C1812 1.386 . S
C1816 C1811 1.490 . S
C1816 C1818 1.395 . S
C1816 C1819 1.403 . S
H1817 C1823 0.930 . S
C1818 H1804 0.930 . S
C1818 C1816 1.395 . S
C1818 C1821 1.403 . S
C1819 C1816 1.403 . S
C1819 C1820 1.524 . S
C1819 C1823 1.400 . S
C1820 H1805 0.960 . S
C1820 H1806 0.960 . S
C1820 H1807 0.960 . S
C1820 C1819 1.524 . S
C1821 C1818 1.403 . S
C1821 C1822 1.392 . S
C1821 C1825 1.495 . S
C1822 C1821 1.392 . S
C1822 C1823 1.385 . S
C1822 C1824 1.478 . S
C1823 H1817 0.930 . S
C1823 C1819 1.400 . S
C1823 C1822 1.385 . S
C1824 C1822 1.478 . S
C1824 C1826 1.381 . S
C1824 C1830 1.383 . S
C1825 C1821 1.495 . S
C1825 H1831 0.959 . S
C1825 H1832 0.961 . S
C1825 H1833 0.960 . S
C1826 C1824 1.381 . S
C1826 C1827 1.394 . S
C1826 H1834 0.930 . S
C1827 C1826 1.394 . S
C1827 C1828 1.383 . S
C1827 H1835 0.929 . S
C1828 C1827 1.383 . S
C1828 C1829 1.377 . S
C1829 H1813 0.930 . S
C1829 C1828 1.377 . S
C1829 C1830 1.379 . S
C1830 H1814 0.931 . S
C1830 C1824 1.383 . S
C1830 C1829 1.379 . S
H1831 C1825 0.959 . S
H1832 C1825 0.961 . S
H1833 C1825 0.960 . S
H1834 C1826 0.930 . S
H1835 C1827 0.929 . S
H1836 C1844 0.929 . S
H1837 C1846 0.930 . S
H1838 C1848 0.930 . S
H1839 C1851 0.929 . S
H1840 C1854 0.930 . S
H1841 C1856 0.960 . S
H1842 C1856 0.960 . S
H1843 C1856 0.960 . S
C1844 H1836 0.929 . S
C1844 C1845 1.377 . S
C1844 C1846 1.384 . S
C1845 C1844 1.377 . S
C1845 C1851 1.390 . S
C1846 H1837 0.930 . S
C1846 C1844 1.384 . S
C1846 C1847 1.372 . S
C1847 C1846 1.372 . S
C1847 C1848 1.400 . S
C1847 C1852 1.490 . S
C1848 H1838 0.930 . S
C1848 C1847 1.400 . S
C1848 C1851 1.386 . S
H1849 C1865 0.930 . S
H1850 C1866 0.931 . S
C1851 H1839 0.929 . S
C1851 C1845 1.390 . S
C1851 C1848 1.386 . S
C1852 C1847 1.490 . S
C1852 C1854 1.395 . S
C1852 C1855 1.403 . S
H1853 C1859 0.930 . S
C1854 H1840 0.930 . S
C1854 C1852 1.395 . S
C1854 C1857 1.403 . S
C1855 C1852 1.403 . S
C1855 C1856 1.524 . S
C1855 C1859 1.400 . S
C1856 H1841 0.960 . S
C1856 H1842 0.960 . S
C1856 H1843 0.960 . S
C1856 C1855 1.524 . S
C1857 C1854 1.403 . S
C1857 C1858 1.392 . S
C1857 C1861 1.495 . S
C1858 C1857 1.392 . S
C1858 C1859 1.385 . S
C1858 C1860 1.478 . S
C1859 H1853 0.930 . S
C1859 C1855 1.400 . S
C1859 C1858 1.385 . S
C1860 C1858 1.478 . S
C1860 C1862 1.381 . S
C1860 C1866 1.383 . S
C1861 C1857 1.495 . S
C1861 H1867 0.959 . S
C1861 H1868 0.961 . S
C1861 H1869 0.960 . S
C1862 C1860 1.381 . S
C1862 C1863 1.394 . S
C1862 H1870 0.930 . S
C1863 C1862 1.394 . S
C1863 C1864 1.383 . S
C1863 H1871 0.929 . S
C1864 C1863 1.383 . S
C1864 C1865 1.377 . S
C1865 H1849 0.930 . S
C1865 C1864 1.377 . S
C1865 C1866 1.379 . S
C1866 H1850 0.931 . S
C1866 C1860 1.383 . S
C1866 C1865 1.379 . S
H1867 C1861 0.959 . S
H1868 C1861 0.961 . S
H1869 C1861 0.960 . S
H1870 C1862 0.930 . S
H1871 C1863 0.929 . S
H1872 C1880 0.929 . S
H1873 C1882 0.930 . S
H1874 C1884 0.930 . S
H1875 C1887 0.929 . S
H1876 C1890 0.930 . S
H1877 C1892 0.960 . S
H1878 C1892 0.960 . S
H1879 C1892 0.960 . S
C1880 H1872 0.929 . S
C1880 C1881 1.377 . S
C1880 C1882 1.384 . S
C1881 C1880 1.377 . S
C1881 C1887 1.390 . S
C1882 H1873 0.930 . S
C1882 C1880 1.384 . S
C1882 C1883 1.372 . S
C1883 C1882 1.372 . S
C1883 C1884 1.400 . S
C1883 C1888 1.490 . S
C1884 H1874 0.930 . S
C1884 C1883 1.400 . S
C1884 C1887 1.386 . S
H1885 C1901 0.930 . S
H1886 C1902 0.931 . S
C1887 H1875 0.929 . S
C1887 C1881 1.390 . S
C1887 C1884 1.386 . S
C1888 C1883 1.490 . S
C1888 C1890 1.395 . S
C1888 C1891 1.403 . S
H1889 C1895 0.930 . S
C1890 H1876 0.930 . S
C1890 C1888 1.395 . S
C1890 C1893 1.403 . S
C1891 C1888 1.403 . S
C1891 C1892 1.524 . S
C1891 C1895 1.400 . S
C1892 H1877 0.960 . S
C1892 H1878 0.960 . S
C1892 H1879 0.960 . S
C1892 C1891 1.524 . S
C1893 C1890 1.403 . S
C1893 C1894 1.392 . S
C1893 C1897 1.495 . S
C1894 C1893 1.392 . S
C1894 C1895 1.385 . S
C1894 C1896 1.478 . S
C1895 H1889 0.930 . S
C1895 C1891 1.400 . S
C1895 C1894 1.385 . S
C1896 C1894 1.478 . S
C1896 C1898 1.381 . S
C1896 C1902 1.383 . S
C1897 C1893 1.495 . S
C1897 H1903 0.959 . S
C1897 H1904 0.961 . S
C1897 H1905 0.960 . S
C1898 C1896 1.381 . S
C1898 C1899 1.394 . S
C1898 H1906 0.930 . S
C1899 C1898 1.394 . S
C1899 C1900 1.383 . S
C1899 H1907 0.929 . S
C1900 C1899 1.383 . S
C1900 C1901 1.377 . S
C1901 H1885 0.930 . S
C1901 C1900 1.377 . S
C1901 C1902 1.379 . S
C1902 H1886 0.931 . S
C1902 C1896 1.383 . S
C1902 C1901 1.379 . S
H1903 C1897 0.959 . S
H1904 C1897 0.961 . S
H1905 C1897 0.960 . S
H1906 C1898 0.930 . S
H1907 C1899 0.929 . S
H1908 C1916 0.929 . S
H1909 C1918 0.930 . S
H1910 C1920 0.930 . S
H1911 C1923 0.929 . S
H1912 C1926 0.930 . S
H1913 C1928 0.960 . S
H1914 C1928 0.960 . S
H1915 C1928 0.960 . S
C1916 H1908 0.929 . S
C1916 C1917 1.377 . S
C1916 C1918 1.384 . S
C1917 C1916 1.377 . S
C1917 C1923 1.390 . S
C1918 H1909 0.930 . S
C1918 C1916 1.384 . S
C1918 C1919 1.372 . S
C1919 C1918 1.372 . S
C1919 C1920 1.400 . S
C1919 C1924 1.490 . S
C1920 H1910 0.930 . S
C1920 C1919 1.400 . S
C1920 C1923 1.386 . S
H1921 C1937 0.930 . S
H1922 C1938 0.931 . S
C1923 H1911 0.929 . S
C1923 C1917 1.390 . S
C1923 C1920 1.386 . S
C1924 C1919 1.490 . S
C1924 C1926 1.395 . S
C1924 C1927 1.403 . S
H1925 C1931 0.930 . S
C1926 H1912 0.930 . S
C1926 C1924 1.395 . S
C1926 C1929 1.403 . S
C1927 C1924 1.403 . S
C1927 C1928 1.524 . S
C1927 C1931 1.400 . S
C1928 H1913 0.960 . S
C1928 H1914 0.960 . S
C1928 H1915 0.960 . S
C1928 C1927 1.524 . S
C1929 C1926 1.403 . S
C1929 C1930 1.392 . S
C1929 C1933 1.495 . S
C1930 C1929 1.392 . S
C1930 C1931 1.385 . S
C1930 C1932 1.478 . S
C1931 H1925 0.930 . S
C1931 C1927 1.400 . S
C1931 C1930 1.385 . S
C1932 C1930 1.478 . S
C1932 C1934 1.381 . S
C1932 C1938 1.383 . S
C1933 C1929 1.495 . S
C1933 H1939 0.959 . S
C1933 H1940 0.961 . S
C1933 H1941 0.960 . S
C1934 C1932 1.381 . S
C1934 C1935 1.394 . S
C1934 H1942 0.930 . S
C1935 C1934 1.394 . S
C1935 C1936 1.383 . S
C1935 H1943 0.929 . S
C1936 C1935 1.383 . S
C1936 C1937 1.377 . S
C1937 H1921 0.930 . S
C1937 C1936 1.377 . S
C1937 C1938 1.379 . S
C1938 H1922 0.931 . S
C1938 C1932 1.383 . S
C1938 C1937 1.379 . S
H1939 C1933 0.959 . S
H1940 C1933 0.961 . S
H1941 C1933 0.960 . S
H1942 C1934 0.930 . S
H1943 C1935 0.929 . S
H1944 C1952 0.929 . S
H1945 C1954 0.930 . S
H1946 C1956 0.930 . S
H1947 C1959 0.929 . S
H1948 C1962 0.930 . S
H1949 C1964 0.960 . S
H1950 C1964 0.960 . S
H1951 C1964 0.960 . S
C1952 H1944 0.929 . S
C1952 C1953 1.377 . S
C1952 C1954 1.384 . S
C1953 C1952 1.377 . S
C1953 C1959 1.390 . S
C1954 H1945 0.930 . S
C1954 C1952 1.384 . S
C1954 C1955 1.372 . S
C1955 C1954 1.372 . S
C1955 C1956 1.400 . S
C1955 C1960 1.490 . S
C1956 H1946 0.930 . S
C1956 C1955 1.400 . S
C1956 C1959 1.386 . S
H1957 C1973 0.930 . S
H1958 C1974 0.931 . S
C1959 H1947 0.929 . S
C1959 C1953 1.390 . S
C1959 C1956 1.386 . S
C1960 C1955 1.490 . S
C1960 C1962 1.395 . S
C1960 C1963 1.403 . S
H1961 C1967 0.930 . S
C1962 H1948 0.930 . S
C1962 C1960 1.395 . S
C1962 C1965 1.403 . S
C1963 C1960 1.403 . S
C1963 C1964 1.524 . S
C1963 C1967 1.400 . S
C1964 H1949 0.960 . S
C1964 H1950 0.960 . S
C1964 H1951 0.960 . S
C1964 C1963 1.524 . S
C1965 C1962 1.403 . S
C1965 C1966 1.392 . S
C1965 C1969 1.495 . S
C1966 C1965 1.392 . S
C1966 C1967 1.385 . S
C1966 C1968 1.478 . S
C1967 H1961 0.930 . S
C1967 C1963 1.400 . S
C1967 C1966 1.385 . S
C1968 C1966 1.478 . S
C1968 C1970 1.381 . S
C1968 C1974 1.383 . S
C1969 C1965 1.495 . S
C1969 H1975 0.959 . S
C1969 H1976 0.961 . S
C1969 H1977 0.960 . S
C1970 C1968 1.381 . S
C1970 C1971 1.394 . S
C1970 H1978 0.930 . S
C1971 C1970 1.394 . S
C1971 C1972 1.383 . S
C1971 H1979 0.929 . S
C1972 C1971 1.383 . S
C1972 C1973 1.377 . S
C1973 H1957 0.930 . S
C1973 C1972 1.377 . S
C1973 C1974 1.379 . S
C1974 H1958 0.931 . S
C1974 C1968 1.383 . S
C1974 C1973 1.379 . S
H1975 C1969 0.959 . S
H1976 C1969 0.961 . S
H1977 C1969 0.960 . S
H1978 C1970 0.930 . S
H1979 C1971 0.929 . S
H1980 C1988 0.929 . S
H1981 C1990 0.930 . S
H1982 C1992 0.930 . S
H1983 C1995 0.929 . S
H1984 C1998 0.930 . S
H1985 C2000 0.960 . S
H1986 C2000 0.960 . S
H1987 C2000 0.960 . S
C1988 H1980 0.929 . S
C1988 C1989 1.377 . S
C1988 C1990 1.384 . S
C1989 C1988 1.377 . S
C1989 C1995 1.390 . S
C1990 H1981 0.930 . S
C1990 C1988 1.384 . S
C1990 C1991 1.372 . S
C1991 C1990 1.372 . S
C1991 C1992 1.400 . S
C1991 C1996 1.490 . S
C1992 H1982 0.930 . S
C1992 C1991 1.400 . S
C1992 C1995 1.386 . S
H1993 C2009 0.930 . S
H1994 C2010 0.931 . S
C1995 H1983 0.929 . S
C1995 C1989 1.390 . S
C1995 C1992 1.386 . S
C1996 C1991 1.490 . S
C1996 C1998 1.395 . S
C1996 C1999 1.403 . S
H1997 C2003 0.930 . S
C1998 H1984 0.930 . S
C1998 C1996 1.395 . S
C1998 C2001 1.403 . S
C1999 C1996 1.403 . S
C1999 C2000 1.524 . S
C1999 C2003 1.400 . S
C2000 H1985 0.960 . S
C2000 H1986 0.960 . S
C2000 H1987 0.960 . S
C2000 C1999 1.524 . S
C2001 C1998 1.403 . S
C2001 C2002 1.392 . S
C2001 C2005 1.495 . S
C2002 C2001 1.392 . S
C2002 C2003 1.385 . S
C2002 C2004 1.478 . S
C2003 H1997 0.930 . S
C2003 C1999 1.400 . S
C2003 C2002 1.385 . S
C2004 C2002 1.478 . S
C2004 C2006 1.381 . S
C2004 C2010 1.383 . S
C2005 C2001 1.495 . S
C2005 H2011 0.959 . S
C2005 H2012 0.961 . S
C2005 H2013 0.960 . S
C2006 C2004 1.381 . S
C2006 C2007 1.394 . S
C2006 H2014 0.930 . S
C2007 C2006 1.394 . S
C2007 C2008 1.383 . S
C2007 H2015 0.929 . S
C2008 C2007 1.383 . S
C2008 C2009 1.377 . S
C2009 H1993 0.930 . S
C2009 C2008 1.377 . S
C2009 C2010 1.379 . S
C2010 H1994 0.931 . S
C2010 C2004 1.383 . S
C2010 C2009 1.379 . S
H2011 C2005 0.959 . S
H2012 C2005 0.961 . S
H2013 C2005 0.960 . S
H2014 C2006 0.930 . S
H2015 C2007 0.929 . S
H2016 C2024 0.929 . S
H2017 C2026 0.930 . S
H2018 C2028 0.930 . S
H2019 C2031 0.929 . S
H2020 C2034 0.930 . S
H2021 C2036 0.960 . S
H2022 C2036 0.960 . S
H2023 C2036 0.960 . S
C2024 H2016 0.929 . S
C2024 C2025 1.377 . S
C2024 C2026 1.384 . S
C2025 C2024 1.377 . S
C2025 C2031 1.390 . S
C2026 H2017 0.930 . S
C2026 C2024 1.384 . S
C2026 C2027 1.372 . S
C2027 C2026 1.372 . S
C2027 C2028 1.400 . S
C2027 C2032 1.490 . S
C2028 H2018 0.930 . S
C2028 C2027 1.400 . S
C2028 C2031 1.386 . S
H2029 C2045 0.930 . S
H2030 C2046 0.931 . S
C2031 H2019 0.929 . S
C2031 C2025 1.390 . S
C2031 C2028 1.386 . S
C2032 C2027 1.490 . S
C2032 C2034 1.395 . S
C2032 C2035 1.403 . S
H2033 C2039 0.930 . S
C2034 H2020 0.930 . S
C2034 C2032 1.395 . S
C2034 C2037 1.403 . S
C2035 C2032 1.403 . S
C2035 C2036 1.524 . S
C2035 C2039 1.400 . S
C2036 H2021 0.960 . S
C2036 H2022 0.960 . S
C2036 H2023 0.960 . S
C2036 C2035 1.524 . S
C2037 C2034 1.403 . S
C2037 C2038 1.392 . S
C2037 C2041 1.495 . S
C2038 C2037 1.392 . S
C2038 C2039 1.385 . S
C2038 C2040 1.478 . S
C2039 H2033 0.930 . S
C2039 C2035 1.400 . S
C2039 C2038 1.385 . S
C2040 C2038 1.478 . S
C2040 C2042 1.381 . S
C2040 C2046 1.383 . S
C2041 C2037 1.495 . S
C2041 H2047 0.959 . S
C2041 H2048 0.961 . S
C2041 H2049 0.960 . S
C2042 C2040 1.381 . S
C2042 C2043 1.394 . S
C2042 H2050 0.930 . S
C2043 C2042 1.394 . S
C2043 C2044 1.383 . S
C2043 H2051 0.929 . S
C2044 C2043 1.383 . S
C2044 C2045 1.377 . S
C2045 H2029 0.930 . S
C2045 C2044 1.377 . S
C2045 C2046 1.379 . S
C2046 H2030 0.931 . S
C2046 C2040 1.383 . S
C2046 C2045 1.379 . S
H2047 C2041 0.959 . S
H2048 C2041 0.961 . S
H2049 C2041 0.960 . S
H2050 C2042 0.930 . S
H2051 C2043 0.929 . S
H2052 C2060 0.929 . S
H2053 C2062 0.930 . S
H2054 C2064 0.930 . S
H2055 C2067 0.929 . S
H2056 C2070 0.930 . S
H2057 C2072 0.960 . S
H2058 C2072 0.960 . S
H2059 C2072 0.960 . S
C2060 H2052 0.929 . S
C2060 C2061 1.377 . S
C2060 C2062 1.384 . S
C2061 C2060 1.377 . S
C2061 C2067 1.390 . S
C2062 H2053 0.930 . S
C2062 C2060 1.384 . S
C2062 C2063 1.372 . S
C2063 C2062 1.372 . S
C2063 C2064 1.400 . S
C2063 C2068 1.490 . S
C2064 H2054 0.930 . S
C2064 C2063 1.400 . S
C2064 C2067 1.386 . S
H2065 C2081 0.930 . S
H2066 C2082 0.931 . S
C2067 H2055 0.929 . S
C2067 C2061 1.390 . S
C2067 C2064 1.386 . S
C2068 C2063 1.490 . S
C2068 C2070 1.395 . S
C2068 C2071 1.403 . S
H2069 C2075 0.930 . S
C2070 H2056 0.930 . S
C2070 C2068 1.395 . S
C2070 C2073 1.403 . S
C2071 C2068 1.403 . S
C2071 C2072 1.524 . S
C2071 C2075 1.400 . S
C2072 H2057 0.960 . S
C2072 H2058 0.960 . S
C2072 H2059 0.960 . S
C2072 C2071 1.524 . S
C2073 C2070 1.403 . S
C2073 C2074 1.392 . S
C2073 C2077 1.495 . S
C2074 C2073 1.392 . S
C2074 C2075 1.385 . S
C2074 C2076 1.478 . S
C2075 H2069 0.930 . S
C2075 C2071 1.400 . S
C2075 C2074 1.385 . S
C2076 C2074 1.478 . S
C2076 C2078 1.381 . S
C2076 C2082 1.383 . S
C2077 C2073 1.495 . S
C2077 H2083 0.959 . S
C2077 H2084 0.961 . S
C2077 H2085 0.960 . S
C2078 C2076 1.381 . S
C2078 C2079 1.394 . S
C2078 H2086 0.930 . S
C2079 C2078 1.394 . S
C2079 C2080 1.383 . S
C2079 H2087 0.929 . S
C2080 C2079 1.383 . S
C2080 C2081 1.377 . S
C2081 H2065 0.930 . S
C2081 C2080 1.377 . S
C2081 C2082 1.379 . S
C2082 H2066 0.931 . S
C2082 C2076 1.383 . S
C2082 C2081 1.379 . S
H2083 C2077 0.959 . S
H2084 C2077 0.961 . S
H2085 C2077 0.960 . S
H2086 C2078 0.930 . S
H2087 C2079 0.929 . S
H2088 C2096 0.929 . S
H2089 C2098 0.930 . S
H2090 C2100 0.930 . S
H2091 C2103 0.929 . S
H2092 C2106 0.930 . S
H2093 C2108 0.960 . S
H2094 C2108 0.960 . S
H2095 C2108 0.960 . S
C2096 H2088 0.929 . S
C2096 C2097 1.377 . S
C2096 C2098 1.384 . S
C2097 C2096 1.377 . S
C2097 C2103 1.390 . S
C2098 H2089 0.930 . S
C2098 C2096 1.384 . S
C2098 C2099 1.372 . S
C2099 C2098 1.372 . S
C2099 C2100 1.400 . S
C2099 C2104 1.490 . S
C2100 H2090 0.930 . S
C2100 C2099 1.400 . S
C2100 C2103 1.386 . S
H2101 C2117 0.930 . S
H2102 C2118 0.931 . S
C2103 H2091 0.929 . S
C2103 C2097 1.390 . S
C2103 C2100 1.386 . S
C2104 C2099 1.490 . S
C2104 C2106 1.395 . S
C2104 C2107 1.403 . S
H2105 C2111 0.930 . S
C2106 H2092 0.930 . S
C2106 C2104 1.395 . S
C2106 C2109 1.403 . S
C2107 C2104 1.403 . S
C2107 C2108 1.524 . S
C2107 C2111 1.400 . S
C2108 H2093 0.960 . S
C2108 H2094 0.960 . S
C2108 H2095 0.960 . S
C2108 C2107 1.524 . S
C2109 C2106 1.403 . S
C2109 C2110 1.392 . S
C2109 C2113 1.495 . S
C2110 C2109 1.392 . S
C2110 C2111 1.385 . S
C2110 C2112 1.478 . S
C2111 H2105 0.930 . S
C2111 C2107 1.400 . S
C2111 C2110 1.385 . S
C2112 C2110 1.478 . S
C2112 C2114 1.381 . S
C2112 C2118 1.383 . S
C2113 C2109 1.495 . S
C2113 H2119 0.959 . S
C2113 H2120 0.961 . S
C2113 H2121 0.960 . S
C2114 C2112 1.381 . S
C2114 C2115 1.394 . S
C2114 H2122 0.930 . S
C2115 C2114 1.394 . S
C2115 C2116 1.383 . S
C2115 H2123 0.929 . S
C2116 C2115 1.383 . S
C2116 C2117 1.377 . S
C2117 H2101 0.930 . S
C2117 C2116 1.377 . S
C2117 C2118 1.379 . S
C2118 H2102 0.931 . S
C2118 C2112 1.383 . S
C2118 C2117 1.379 . S
H2119 C2113 0.959 . S
H2120 C2113 0.961 . S
H2121 C2113 0.960 . S
H2122 C2114 0.930 . S
H2123 C2115 0.929 . S
H2124 C2132 0.929 . S
H2125 C2134 0.930 . S
H2126 C2136 0.930 . S
H2127 C2139 0.929 . S
H2128 C2142 0.930 . S
H2129 C2144 0.960 . S
H2130 C2144 0.960 . S
H2131 C2144 0.960 . S
C2132 H2124 0.929 . S
C2132 C2133 1.377 . S
C2132 C2134 1.384 . S
C2133 C2132 1.377 . S
C2133 C2139 1.390 . S
C2134 H2125 0.930 . S
C2134 C2132 1.384 . S
C2134 C2135 1.372 . S
C2135 C2134 1.372 . S
C2135 C2136 1.400 . S
C2135 C2140 1.490 . S
C2136 H2126 0.930 . S
C2136 C2135 1.400 . S
C2136 C2139 1.386 . S
H2137 C2153 0.930 . S
H2138 C2154 0.931 . S
C2139 H2127 0.929 . S
C2139 C2133 1.390 . S
C2139 C2136 1.386 . S
C2140 C2135 1.490 . S
C2140 C2142 1.395 . S
C2140 C2143 1.403 . S
H2141 C2147 0.930 . S
C2142 H2128 0.930 . S
C2142 C2140 1.395 . S
C2142 C2145 1.403 . S
C2143 C2140 1.403 . S
C2143 C2144 1.524 . S
C2143 C2147 1.400 . S
C2144 H2129 0.960 . S
C2144 H2130 0.960 . S
C2144 H2131 0.960 . S
C2144 C2143 1.524 . S
C2145 C2142 1.403 . S
C2145 C2146 1.392 . S
C2145 C2149 1.495 . S
C2146 C2145 1.392 . S
C2146 C2147 1.385 . S
C2146 C2148 1.478 . S
C2147 H2141 0.930 . S
C2147 C2143 1.400 . S
C2147 C2146 1.385 . S
C2148 C2146 1.478 . S
C2148 C2150 1.381 . S
C2148 C2154 1.383 . S
C2149 C2145 1.495 . S
C2149 H2155 0.959 . S
C2149 H2156 0.961 . S
C2149 H2157 0.960 . S
C2150 C2148 1.381 . S
C2150 C2151 1.394 . S
C2150 H2158 0.930 . S
C2151 C2150 1.394 . S
C2151 C2152 1.383 . S
C2151 H2159 0.929 . S
C2152 C2151 1.383 . S
C2152 C2153 1.377 . S
C2153 H2137 0.930 . S
C2153 C2152 1.377 . S
C2153 C2154 1.379 . S
C2154 H2138 0.931 . S
C2154 C2148 1.383 . S
C2154 C2153 1.379 . S
H2155 C2149 0.959 . S
H2156 C2149 0.961 . S
H2157 C2149 0.960 . S
H2158 C2150 0.930 . S
H2159 C2151 0.929 . S
H2160 C2168 0.929 . S
H2161 C2170 0.930 . S
H2162 C2172 0.930 . S
H2163 C2175 0.929 . S
H2164 C2178 0.930 . S
H2165 C2180 0.960 . S
H2166 C2180 0.960 . S
H2167 C2180 0.960 . S
C2168 H2160 0.929 . S
C2168 C2169 1.377 . S
C2168 C2170 1.384 . S
C2169 C2168 1.377 . S
C2169 C2175 1.390 . S
C2170 H2161 0.930 . S
C2170 C2168 1.384 . S
C2170 C2171 1.372 . S
C2171 C2170 1.372 . S
C2171 C2172 1.400 . S
C2171 C2176 1.490 . S
C2172 H2162 0.930 . S
C2172 C2171 1.400 . S
C2172 C2175 1.386 . S
H2173 C2189 0.930 . S
H2174 C2190 0.931 . S
C2175 H2163 0.929 . S
C2175 C2169 1.390 . S
C2175 C2172 1.386 . S
C2176 C2171 1.490 . S
C2176 C2178 1.395 . S
C2176 C2179 1.403 . S
H2177 C2183 0.930 . S
C2178 H2164 0.930 . S
C2178 C2176 1.395 . S
C2178 C2181 1.403 . S
C2179 C2176 1.403 . S
C2179 C2180 1.524 . S
C2179 C2183 1.400 . S
C2180 H2165 0.960 . S
C2180 H2166 0.960 . S
C2180 H2167 0.960 . S
C2180 C2179 1.524 . S
C2181 C2178 1.403 . S
C2181 C2182 1.392 . S
C2181 C2185 1.495 . S
C2182 C2181 1.392 . S
C2182 C2183 1.385 . S
C2182 C2184 1.478 . S
C2183 H2177 0.930 . S
C2183 C2179 1.400 . S
C2183 C2182 1.385 . S
C2184 C2182 1.478 . S
C2184 C2186 1.381 . S
C2184 C2190 1.383 . S
C2185 C2181 1.495 . S
C2185 H2191 0.959 . S
C2185 H2192 0.961 . S
C2185 H2193 0.960 . S
C2186 C2184 1.381 . S
C2186 C2187 1.394 . S
C2186 H2194 0.930 . S
C2187 C2186 1.394 . S
C2187 C2188 1.383 . S
C2187 H2195 0.929 . S
C2188 C2187 1.383 . S
C2188 C2189 1.377 . S
C2189 H2173 0.930 . S
C2189 C2188 1.377 . S
C2189 C2190 1.379 . S
C2190 H2174 0.931 . S
C2190 C2184 1.383 . S
C2190 C2189 1.379 . S
H2191 C2185 0.959 . S
H2192 C2185 0.961 . S
H2193 C2185 0.960 . S
H2194 C2186 0.930 . S
H2195 C2187 0.929 . S
H2196 C2204 0.929 . S
H2197 C2206 0.930 . S
H2198 C2208 0.930 . S
H2199 C2211 0.929 . S
H2200 C2214 0.930 . S
H2201 C2216 0.960 . S
H2202 C2216 0.960 . S
H2203 C2216 0.960 . S
C2204 H2196 0.929 . S
C2204 C2205 1.377 . S
C2204 C2206 1.384 . S
C2205 C2204 1.377 . S
C2205 C2211 1.390 . S
C2206 H2197 0.930 . S
C2206 C2204 1.384 . S
C2206 C2207 1.372 . S
C2207 C2206 1.372 . S
C2207 C2208 1.400 . S
C2207 C2212 1.490 . S
C2208 H2198 0.930 . S
C2208 C2207 1.400 . S
C2208 C2211 1.386 . S
H2209 C2225 0.930 . S
H2210 C2226 0.931 . S
C2211 H2199 0.929 . S
C2211 C2205 1.390 . S
C2211 C2208 1.386 . S
C2212 C2207 1.490 . S
C2212 C2214 1.395 . S
C2212 C2215 1.403 . S
H2213 C2219 0.930 . S
C2214 H2200 0.930 . S
C2214 C2212 1.395 . S
C2214 C2217 1.403 . S
C2215 C2212 1.403 . S
C2215 C2216 1.524 . S
C2215 C2219 1.400 . S
C2216 H2201 0.960 . S
C2216 H2202 0.960 . S
C2216 H2203 0.960 . S
C2216 C2215 1.524 . S
C2217 C2214 1.403 . S
C2217 C2218 1.392 . S
C2217 C2221 1.495 . S
C2218 C2217 1.392 . S
C2218 C2219 1.385 . S
C2218 C2220 1.478 . S
C2219 H2213 0.930 . S
C2219 C2215 1.400 . S
C2219 C2218 1.385 . S
C2220 C2218 1.478 . S
C2220 C2222 1.381 . S
C2220 C2226 1.383 . S
C2221 C2217 1.495 . S
C2221 H2227 0.959 . S
C2221 H2228 0.961 . S
C2221 H2229 0.960 . S
C2222 C2220 1.381 . S
C2222 C2223 1.394 . S
C2222 H2230 0.930 . S
C2223 C2222 1.394 . S
C2223 C2224 1.383 . S
C2223 H2231 0.929 . S
C2224 C2223 1.383 . S
C2224 C2225 1.377 . S
C2225 H2209 0.930 . S
C2225 C2224 1.377 . S
C2225 C2226 1.379 . S
C2226 H2210 0.931 . S
C2226 C2220 1.383 . S
C2226 C2225 1.379 . S
H2227 C2221 0.959 . S
H2228 C2221 0.961 . S
H2229 C2221 0.960 . S
H2230 C2222 0.930 . S
H2231 C2223 0.929 . S
H2232 C2240 0.929 . S
H2233 C2242 0.930 . S
H2234 C2244 0.930 . S
H2235 C2247 0.929 . S
H2236 C2250 0.930 . S
H2237 C2252 0.960 . S
H2238 C2252 0.960 . S
H2239 C2252 0.960 . S
C2240 H2232 0.929 . S
C2240 C2241 1.377 . S
C2240 C2242 1.384 . S
C2241 C2240 1.377 . S
C2241 C2247 1.390 . S
C2242 H2233 0.930 . S
C2242 C2240 1.384 . S
C2242 C2243 1.372 . S
C2243 C2242 1.372 . S
C2243 C2244 1.400 . S
C2243 C2248 1.490 . S
C2244 H2234 0.930 . S
C2244 C2243 1.400 . S
C2244 C2247 1.386 . S
H2245 C2261 0.930 . S
H2246 C2262 0.931 . S
C2247 H2235 0.929 . S
C2247 C2241 1.390 . S
C2247 C2244 1.386 . S
C2248 C2243 1.490 . S
C2248 C2250 1.395 . S
C2248 C2251 1.403 . S
H2249 C2255 0.930 . S
C2250 H2236 0.930 . S
C2250 C2248 1.395 . S
C2250 C2253 1.403 . S
C2251 C2248 1.403 . S
C2251 C2252 1.524 . S
C2251 C2255 1.400 . S
C2252 H2237 0.960 . S
C2252 H2238 0.960 . S
C2252 H2239 0.960 . S
C2252 C2251 1.524 . S
C2253 C2250 1.403 . S
C2253 C2254 1.392 . S
C2253 C2257 1.495 . S
C2254 C2253 1.392 . S
C2254 C2255 1.385 . S
C2254 C2256 1.478 . S
C2255 H2249 0.930 . S
C2255 C2251 1.400 . S
C2255 C2254 1.385 . S
C2256 C2254 1.478 . S
C2256 C2258 1.381 . S
C2256 C2262 1.383 . S
C2257 C2253 1.495 . S
C2257 H2263 0.959 . S
C2257 H2264 0.961 . S
C2257 H2265 0.960 . S
C2258 C2256 1.381 . S
C2258 C2259 1.394 . S
C2258 H2266 0.930 . S
C2259 C2258 1.394 . S
C2259 C2260 1.383 . S
C2259 H2267 0.929 . S
C2260 C2259 1.383 . S
C2260 C2261 1.377 . S
C2261 H2245 0.930 . S
C2261 C2260 1.377 . S
C2261 C2262 1.379 . S
C2262 H2246 0.931 . S
C2262 C2256 1.383 . S
C2262 C2261 1.379 . S
H2263 C2257 0.959 . S
H2264 C2257 0.961 . S
H2265 C2257 0.960 . S
H2266 C2258 0.930 . S
H2267 C2259 0.929 . S
H2268 C2276 0.929 . S
H2269 C2278 0.930 . S
H2270 C2280 0.930 . S
H2271 C2283 0.929 . S
H2272 C2286 0.930 . S
H2273 C2288 0.960 . S
H2274 C2288 0.960 . S
H2275 C2288 0.960 . S
C2276 H2268 0.929 . S
C2276 C2277 1.377 . S
C2276 C2278 1.384 . S
C2277 C2276 1.377 . S
C2277 C2283 1.390 . S
C2278 H2269 0.930 . S
C2278 C2276 1.384 . S
C2278 C2279 1.372 . S
C2279 C2278 1.372 . S
C2279 C2280 1.400 . S
C2279 C2284 1.490 . S
C2280 H2270 0.930 . S
C2280 C2279 1.400 . S
C2280 C2283 1.386 . S
H2281 C2297 0.930 . S
H2282 C2298 0.931 . S
C2283 H2271 0.929 . S
C2283 C2277 1.390 . S
C2283 C2280 1.386 . S
C2284 C2279 1.490 . S
C2284 C2286 1.395 . S
C2284 C2287 1.403 . S
H2285 C2291 0.930 . S
C2286 H2272 0.930 . S
C2286 C2284 1.395 . S
C2286 C2289 1.403 . S
C2287 C2284 1.403 . S
C2287 C2288 1.524 . S
C2287 C2291 1.400 . S
C2288 H2273 0.960 . S
C2288 H2274 0.960 . S
C2288 H2275 0.960 . S
C2288 C2287 1.524 . S
C2289 C2286 1.403 . S
C2289 C2290 1.392 . S
C2289 C2293 1.495 . S
C2290 C2289 1.392 . S
C2290 C2291 1.385 . S
C2290 C2292 1.478 . S
C2291 H2285 0.930 . S
C2291 C2287 1.400 . S
C2291 C2290 1.385 . S
C2292 C2290 1.478 . S
C2292 C2294 1.381 . S
C2292 C2298 1.383 . S
C2293 C2289 1.495 . S
C2293 H2299 0.959 . S
C2293 H2300 0.961 . S
C2293 H2301 0.960 . S
C2294 C2292 1.381 . S
C2294 C2295 1.394 . S
C2294 H2302 0.930 . S
C2295 C2294 1.394 . S
C2295 C2296 1.383 . S
C2295 H2303 0.929 . S
C2296 C2295 1.383 . S
C2296 C2297 1.377 . S
C2297 H2281 0.930 . S
C2297 C2296 1.377 . S
C2297 C2298 1.379 . S
C2298 H2282 0.931 . S
C2298 C2292 1.383 . S
C2298 C2297 1.379 . S
H2299 C2293 0.959 . S
H2300 C2293 0.961 . S
H2301 C2293 0.960 . S
H2302 C2294 0.930 . S
H2303 C2295 0.929 . S
H2304 C2312 0.929 . S
H2305 C2314 0.930 . S
H2306 C2316 0.930 . S
H2307 C2319 0.929 . S
H2308 C2322 0.930 . S
H2309 C2324 0.960 . S
H2310 C2324 0.960 . S
H2311 C2324 0.960 . S
C2312 H2304 0.929 . S
C2312 C2313 1.377 . S
C2312 C2314 1.384 . S
C2313 C2312 1.377 . S
C2313 C2319 1.390 . S
C2314 H2305 0.930 . S
C2314 C2312 1.384 . S
C2314 C2315 1.372 . S
C2315 C2314 1.372 . S
C2315 C2316 1.400 . S
C2315 C2320 1.490 . S
C2316 H2306 0.930 . S
C2316 C2315 1.400 . S
C2316 C2319 1.386 . S
H2317 C2333 0.930 . S
H2318 C2334 0.931 . S
C2319 H2307 0.929 . S
C2319 C2313 1.390 . S
C2319 C2316 1.386 . S
C2320 C2315 1.490 . S
C2320 C2322 1.395 . S
C2320 C2323 1.403 . S
H2321 C2327 0.930 . S
C2322 H2308 0.930 . S
C2322 C2320 1.395 . S
C2322 C2325 1.403 . S
C2323 C2320 1.403 . S
C2323 C2324 1.524 . S
C2323 C2327 1.400 . S
C2324 H2309 0.960 . S
C2324 H2310 0.960 . S
C2324 H2311 0.960 . S
C2324 C2323 1.524 . S
C2325 C2322 1.403 . S
C2325 C2326 1.392 . S
C2325 C2329 1.495 . S
C2326 C2325 1.392 . S
C2326 C2327 1.385 . S
C2326 C2328 1.478 . S
C2327 H2321 0.930 . S
C2327 C2323 1.400 . S
C2327 C2326 1.385 . S
C2328 C2326 1.478 . S
C2328 C2330 1.381 . S
C2328 C2334 1.383 . S
C2329 C2325 1.495 . S
C2329 H2335 0.959 . S
C2329 H2336 0.961 . S
C2329 H2337 0.960 . S
C2330 C2328 1.381 . S
C2330 C2331 1.394 . S
C2330 H2338 0.930 . S
C2331 C2330 1.394 . S
C2331 C2332 1.383 . S
C2331 H2339 0.929 . S
C2332 C2331 1.383 . S
C2332 C2333 1.377 . S
C2333 H2317 0.930 . S
C2333 C2332 1.377 . S
C2333 C2334 1.379 . S
C2334 H2318 0.931 . S
C2334 C2328 1.383 . S
C2334 C2333 1.379 . S
H2335 C2329 0.959 . S
H2336 C2329 0.961 . S
H2337 C2329 0.960 . S
H2338 C2330 0.930 . S
H2339 C2331 0.929 . S
H2340 C2348 0.929 . S
H2341 C2350 0.930 . S
H2342 C2352 0.930 . S
H2343 C2355 0.929 . S
H2344 C2358 0.930 . S
H2345 C2360 0.960 . S
H2346 C2360 0.960 . S
H2347 C2360 0.960 . S
C2348 H2340 0.929 . S
C2348 C2349 1.377 . S
C2348 C2350 1.384 . S
C2349 C2348 1.377 . S
C2349 C2355 1.390 . S
C2350 H2341 0.930 . S
C2350 C2348 1.384 . S
C2350 C2351 1.372 . S
C2351 C2350 1.372 . S
C2351 C2352 1.400 . S
C2351 C2356 1.490 . S
C2352 H2342 0.930 . S
C2352 C2351 1.400 . S
C2352 C2355 1.386 . S
H2353 C2369 0.930 . S
H2354 C2370 0.931 . S
C2355 H2343 0.929 . S
C2355 C2349 1.390 . S
C2355 C2352 1.386 . S
C2356 C2351 1.490 . S
C2356 C2358 1.395 . S
C2356 C2359 1.403 . S
H2357 C2363 0.930 . S
C2358 H2344 0.930 . S
C2358 C2356 1.395 . S
C2358 C2361 1.403 . S
C2359 C2356 1.403 . S
C2359 C2360 1.524 . S
C2359 C2363 1.400 . S
C2360 H2345 0.960 . S
C2360 H2346 0.960 . S
C2360 H2347 0.960 . S
C2360 C2359 1.524 . S
C2361 C2358 1.403 . S
C2361 C2362 1.392 . S
C2361 C2365 1.495 . S
C2362 C2361 1.392 . S
C2362 C2363 1.385 . S
C2362 C2364 1.478 . S
C2363 H2357 0.930 . S
C2363 C2359 1.400 . S
C2363 C2362 1.385 . S
C2364 C2362 1.478 . S
C2364 C2366 1.381 . S
C2364 C2370 1.383 . S
C2365 C2361 1.495 . S
C2365 H2371 0.959 . S
C2365 H2372 0.961 . S
C2365 H2373 0.960 . S
C2366 C2364 1.381 . S
C2366 C2367 1.394 . S
C2366 H2374 0.930 . S
C2367 C2366 1.394 . S
C2367 C2368 1.383 . S
C2367 H2375 0.929 . S
C2368 C2367 1.383 . S
C2368 C2369 1.377 . S
C2369 H2353 0.930 . S
C2369 C2368 1.377 . S
C2369 C2370 1.379 . S
C2370 H2354 0.931 . S
C2370 C2364 1.383 . S
C2370 C2369 1.379 . S
H2371 C2365 0.959 . S
H2372 C2365 0.961 . S
H2373 C2365 0.960 . S
H2374 C2366 0.930 . S
H2375 C2367 0.929 . S
H2376 C2384 0.929 . S
H2377 C2386 0.930 . S
H2378 C2388 0.930 . S
H2379 C2391 0.929 . S
H2380 C2394 0.930 . S
H2381 C2396 0.960 . S
H2382 C2396 0.960 . S
H2383 C2396 0.960 . S
C2384 H2376 0.929 . S
C2384 C2385 1.377 . S
C2384 C2386 1.384 . S
C2385 C2384 1.377 . S
C2385 C2391 1.390 . S
C2386 H2377 0.930 . S
C2386 C2384 1.384 . S
C2386 C2387 1.372 . S
C2387 C2386 1.372 . S
C2387 C2388 1.400 . S
C2387 C2392 1.490 . S
C2388 H2378 0.930 . S
C2388 C2387 1.400 . S
C2388 C2391 1.386 . S
H2389 C2405 0.930 . S
H2390 C2406 0.931 . S
C2391 H2379 0.929 . S
C2391 C2385 1.390 . S
C2391 C2388 1.386 . S
C2392 C2387 1.490 . S
C2392 C2394 1.395 . S
C2392 C2395 1.403 . S
H2393 C2399 0.930 . S
C2394 H2380 0.930 . S
C2394 C2392 1.395 . S
C2394 C2397 1.403 . S
C2395 C2392 1.403 . S
C2395 C2396 1.524 . S
C2395 C2399 1.400 . S
C2396 H2381 0.960 . S
C2396 H2382 0.960 . S
C2396 H2383 0.960 . S
C2396 C2395 1.524 . S
C2397 C2394 1.403 . S
C2397 C2398 1.392 . S
C2397 C2401 1.495 . S
C2398 C2397 1.392 . S
C2398 C2399 1.385 . S
C2398 C2400 1.478 . S
C2399 H2393 0.930 . S
C2399 C2395 1.400 . S
C2399 C2398 1.385 . S
C2400 C2398 1.478 . S
C2400 C2402 1.381 . S
C2400 C2406 1.383 . S
C2401 C2397 1.495 . S
C2401 H2407 0.959 . S
C2401 H2408 0.961 . S
C2401 H2409 0.960 . S
C2402 C2400 1.381 . S
C2402 C2403 1.394 . S
C2402 H2410 0.930 . S
C2403 C2402 1.394 . S
C2403 C2404 1.383 . S
C2403 H2411 0.929 . S
C2404 C2403 1.383 . S
C2404 C2405 1.377 . S
C2405 H2389 0.930 . S
C2405 C2404 1.377 . S
C2405 C2406 1.379 . S
C2406 H2390 0.931 . S
C2406 C2400 1.383 . S
C2406 C2405 1.379 . S
H2407 C2401 0.959 . S
H2408 C2401 0.961 . S
H2409 C2401 0.960 . S
H2410 C2402 0.930 . S
H2411 C2403 0.929 . S
H2412 C2420 0.929 . S
H2413 C2422 0.930 . S
H2414 C2424 0.930 . S
H2415 C2427 0.929 . S
H2416 C2430 0.930 . S
H2417 C2432 0.960 . S
H2418 C2432 0.960 . S
H2419 C2432 0.960 . S
C2420 H2412 0.929 . S
C2420 C2421 1.377 . S
C2420 C2422 1.384 . S
C2421 C2420 1.377 . S
C2421 C2427 1.390 . S
C2422 H2413 0.930 . S
C2422 C2420 1.384 . S
C2422 C2423 1.372 . S
C2423 C2422 1.372 . S
C2423 C2424 1.400 . S
C2423 C2428 1.490 . S
C2424 H2414 0.930 . S
C2424 C2423 1.400 . S
C2424 C2427 1.386 . S
H2425 C2441 0.930 . S
H2426 C2442 0.931 . S
C2427 H2415 0.929 . S
C2427 C2421 1.390 . S
C2427 C2424 1.386 . S
C2428 C2423 1.490 . S
C2428 C2430 1.395 . S
C2428 C2431 1.403 . S
H2429 C2435 0.930 . S
C2430 H2416 0.930 . S
C2430 C2428 1.395 . S
C2430 C2433 1.403 . S
C2431 C2428 1.403 . S
C2431 C2432 1.524 . S
C2431 C2435 1.400 . S
C2432 H2417 0.960 . S
C2432 H2418 0.960 . S
C2432 H2419 0.960 . S
C2432 C2431 1.524 . S
C2433 C2430 1.403 . S
C2433 C2434 1.392 . S
C2433 C2437 1.495 . S
C2434 C2433 1.392 . S
C2434 C2435 1.385 . S
C2434 C2436 1.478 . S
C2435 H2429 0.930 . S
C2435 C2431 1.400 . S
C2435 C2434 1.385 . S
C2436 C2434 1.478 . S
C2436 C2438 1.381 . S
C2436 C2442 1.383 . S
C2437 C2433 1.495 . S
C2437 H2443 0.959 . S
C2437 H2444 0.961 . S
C2437 H2445 0.960 . S
C2438 C2436 1.381 . S
C2438 C2439 1.394 . S
C2438 H2446 0.930 . S
C2439 C2438 1.394 . S
C2439 C2440 1.383 . S
C2439 H2447 0.929 . S
C2440 C2439 1.383 . S
C2440 C2441 1.377 . S
C2441 H2425 0.930 . S
C2441 C2440 1.377 . S
C2441 C2442 1.379 . S
C2442 H2426 0.931 . S
C2442 C2436 1.383 . S
C2442 C2441 1.379 . S
H2443 C2437 0.959 . S
H2444 C2437 0.961 . S
H2445 C2437 0.960 . S
H2446 C2438 0.930 . S
H2447 C2439 0.929 . S
H2448 C2456 0.929 . S
H2449 C2458 0.930 . S
H2450 C2460 0.930 . S
H2451 C2463 0.929 . S
H2452 C2466 0.930 . S
H2453 C2468 0.960 . S
H2454 C2468 0.960 . S
H2455 C2468 0.960 . S
C2456 H2448 0.929 . S
C2456 C2457 1.377 . S
C2456 C2458 1.384 . S
C2457 C2456 1.377 . S
C2457 C2463 1.390 . S
C2458 H2449 0.930 . S
C2458 C2456 1.384 . S
C2458 C2459 1.372 . S
C2459 C2458 1.372 . S
C2459 C2460 1.400 . S
C2459 C2464 1.490 . S
C2460 H2450 0.930 . S
C2460 C2459 1.400 . S
C2460 C2463 1.386 . S
H2461 C2477 0.930 . S
H2462 C2478 0.931 . S
C2463 H2451 0.929 . S
C2463 C2457 1.390 . S
C2463 C2460 1.386 . S
C2464 C2459 1.490 . S
C2464 C2466 1.395 . S
C2464 C2467 1.403 . S
H2465 C2471 0.930 . S
C2466 H2452 0.930 . S
C2466 C2464 1.395 . S
C2466 C2469 1.403 . S
C2467 C2464 1.403 . S
C2467 C2468 1.524 . S
C2467 C2471 1.400 . S
C2468 H2453 0.960 . S
C2468 H2454 0.960 . S
C2468 H2455 0.960 . S
C2468 C2467 1.524 . S
C2469 C2466 1.403 . S
C2469 C2470 1.392 . S
C2469 C2473 1.495 . S
C2470 C2469 1.392 . S
C2470 C2471 1.385 . S
C2470 C2472 1.478 . S
C2471 H2465 0.930 . S
C2471 C2467 1.400 . S
C2471 C2470 1.385 . S
C2472 C2470 1.478 . S
C2472 C2474 1.381 . S
C2472 C2478 1.383 . S
C2473 C2469 1.495 . S
C2473 H2479 0.959 . S
C2473 H2480 0.961 . S
C2473 H2481 0.960 . S
C2474 C2472 1.381 . S
C2474 C2475 1.394 . S
C2474 H2482 0.930 . S
C2475 C2474 1.394 . S
C2475 C2476 1.383 . S
C2475 H2483 0.929 . S
C2476 C2475 1.383 . S
C2476 C2477 1.377 . S
C2477 H2461 0.930 . S
C2477 C2476 1.377 . S
C2477 C2478 1.379 . S
C2478 H2462 0.931 . S
C2478 C2472 1.383 . S
C2478 C2477 1.379 . S
H2479 C2473 0.959 . S
H2480 C2473 0.961 . S
H2481 C2473 0.960 . S
H2482 C2474 0.930 . S
H2483 C2475 0.929 . S
H2484 C2492 0.929 . S
H2485 C2494 0.930 . S
H2486 C2496 0.930 . S
H2487 C2499 0.929 . S
H2488 C2502 0.930 . S
H2489 C2504 0.960 . S
H2490 C2504 0.960 . S
H2491 C2504 0.960 . S
C2492 H2484 0.929 . S
C2492 C2493 1.377 . S
C2492 C2494 1.384 . S
C2493 C2492 1.377 . S
C2493 C2499 1.390 . S
C2494 H2485 0.930 . S
C2494 C2492 1.384 . S
C2494 C2495 1.372 . S
C2495 C2494 1.372 . S
C2495 C2496 1.400 . S
C2495 C2500 1.490 . S
C2496 H2486 0.930 . S
C2496 C2495 1.400 . S
C2496 C2499 1.386 . S
H2497 C2513 0.930 . S
H2498 C2514 0.931 . S
C2499 H2487 0.929 . S
C2499 C2493 1.390 . S
C2499 C2496 1.386 . S
C2500 C2495 1.490 . S
C2500 C2502 1.395 . S
C2500 C2503 1.403 . S
H2501 C2507 0.930 . S
C2502 H2488 0.930 . S
C2502 C2500 1.395 . S
C2502 C2505 1.403 . S
C2503 C2500 1.403 . S
C2503 C2504 1.524 . S
C2503 C2507 1.400 . S
C2504 H2489 0.960 . S
C2504 H2490 0.960 . S
C2504 H2491 0.960 . S
C2504 C2503 1.524 . S
C2505 C2502 1.403 . S
C2505 C2506 1.392 . S
C2505 C2509 1.495 . S
C2506 C2505 1.392 . S
C2506 C2507 1.385 . S
C2506 C2508 1.478 . S
C2507 H2501 0.930 . S
C2507 C2503 1.400 . S
C2507 C2506 1.385 . S
C2508 C2506 1.478 . S
C2508 C2510 1.381 . S
C2508 C2514 1.383 . S
C2509 C2505 1.495 . S
C2509 H2515 0.959 . S
C2509 H2516 0.961 . S
C2509 H2517 0.960 . S
C2510 C2508 1.381 . S
C2510 C2511 1.394 . S
C2510 H2518 0.930 . S
C2511 C2510 1.394 . S
C2511 C2512 1.383 . S
C2511 H2519 0.929 . S
C2512 C2511 1.383 . S
C2512 C2513 1.377 . S
C2513 H2497 0.930 . S
C2513 C2512 1.377 . S
C2513 C2514 1.379 . S
C2514 H2498 0.931 . S
C2514 C2508 1.383 . S
C2514 C2513 1.379 . S
H2515 C2509 0.959 . S
H2516 C2509 0.961 . S
H2517 C2509 0.960 . S
H2518 C2510 0.930 . S
H2519 C2511 0.929 . S
H2520 C2528 0.929 1_554 S
H2521 C2530 0.930 . S
H2522 C2532 0.930 . S
H2523 C2535 0.929 . S
H2524 C2538 0.930 . S
H2525 C2540 0.960 . S
H2526 C2540 0.960 . S
H2527 C2540 0.960 . S
C2528 H2520 0.929 1_556 S
C2528 C2529 1.377 . S
C2528 C2530 1.384 . S
C2529 C2528 1.377 . S
C2529 C2535 1.390 . S
C2530 H2521 0.930 . S
C2530 C2528 1.384 . S
C2530 C2531 1.372 . S
C2531 C2530 1.372 . S
C2531 C2532 1.400 . S
C2531 C2536 1.490 . S
C2532 H2522 0.930 . S
C2532 C2531 1.400 . S
C2532 C2535 1.386 . S
H2533 C2549 0.930 . S
H2534 C2550 0.931 . S
C2535 H2523 0.929 . S
C2535 C2529 1.390 . S
C2535 C2532 1.386 . S
C2536 C2531 1.490 . S
C2536 C2538 1.395 . S
C2536 C2539 1.403 . S
H2537 C2543 0.930 . S
C2538 H2524 0.930 . S
C2538 C2536 1.395 . S
C2538 C2541 1.403 . S
C2539 C2536 1.403 . S
C2539 C2540 1.524 . S
C2539 C2543 1.400 . S
C2540 H2525 0.960 . S
C2540 H2526 0.960 . S
C2540 H2527 0.960 . S
C2540 C2539 1.524 . S
C2541 C2538 1.403 . S
C2541 C2542 1.392 . S
C2541 C2545 1.495 . S
C2542 C2541 1.392 . S
C2542 C2543 1.385 . S
C2542 C2544 1.478 . S
C2543 H2537 0.930 . S
C2543 C2539 1.400 . S
C2543 C2542 1.385 . S
C2544 C2542 1.478 . S
C2544 C2546 1.381 . S
C2544 C2550 1.383 . S
C2545 C2541 1.495 . S
C2545 H2551 0.959 . S
C2545 H2552 0.961 . S
C2545 H2553 0.960 . S
C2546 C2544 1.381 . S
C2546 C2547 1.394 . S
C2546 H2554 0.930 . S
C2547 C2546 1.394 . S
C2547 C2548 1.383 . S
C2547 H2555 0.929 . S
C2548 C2547 1.383 . S
C2548 C2549 1.377 . S
C2549 H2533 0.930 . S
C2549 C2548 1.377 . S
C2549 C2550 1.379 . S
C2550 H2534 0.931 . S
C2550 C2544 1.383 . S
C2550 C2549 1.379 . S
H2551 C2545 0.959 . S
H2552 C2545 0.961 . S
H2553 C2545 0.960 . S
H2554 C2546 0.930 . S
H2555 C2547 0.929 . S
H2556 C2564 0.925 . S
H2557 C2566 0.930 . S
H2558 C2568 0.930 . S
H2559 C2571 0.929 . S
H2560 C2574 0.930 . S
H2561 C2576 0.960 . S
H2562 C2576 0.960 . S
H2563 C2576 0.960 . S
C2564 H2556 0.925 . S
C2564 C2565 1.377 . S
C2564 C2566 1.384 . S
C2565 C2564 1.377 . S
C2565 C2571 1.390 . S
C2566 H2557 0.930 . S
C2566 C2564 1.384 . S
C2566 C2567 1.372 . S
C2567 C2566 1.372 . S
C2567 C2568 1.400 . S
C2567 C2572 1.490 . S
C2568 H2558 0.930 . S
C2568 C2567 1.400 . S
C2568 C2571 1.386 . S
H2569 C2585 0.930 . S
H2570 C2586 0.931 . S
C2571 H2559 0.929 . S
C2571 C2565 1.390 . S
C2571 C2568 1.386 . S
C2572 C2567 1.490 . S
C2572 C2574 1.395 . S
C2572 C2575 1.403 . S
H2573 C2579 0.930 . S
C2574 H2560 0.930 . S
C2574 C2572 1.395 . S
C2574 C2577 1.403 . S
C2575 C2572 1.403 . S
C2575 C2576 1.524 . S
C2575 C2579 1.400 . S
C2576 H2561 0.960 . S
C2576 H2562 0.960 . S
C2576 H2563 0.960 . S
C2576 C2575 1.524 . S
C2577 C2574 1.403 . S
C2577 C2578 1.392 . S
C2577 C2581 1.495 . S
C2578 C2577 1.392 . S
C2578 C2579 1.385 . S
C2578 C2580 1.478 . S
C2579 H2573 0.930 . S
C2579 C2575 1.400 . S
C2579 C2578 1.385 . S
C2580 C2578 1.478 . S
C2580 C2582 1.381 . S
C2580 C2586 1.383 . S
C2581 C2577 1.495 . S
C2581 H2587 0.959 . S
C2581 H2588 0.961 . S
C2581 H2589 0.960 . S
C2582 C2580 1.381 . S
C2582 C2583 1.394 . S
C2582 H2590 0.930 . S
C2583 C2582 1.394 . S
C2583 C2584 1.383 . S
C2583 H2591 0.929 . S
C2584 C2583 1.383 . S
C2584 C2585 1.377 . S
C2585 H2569 0.930 . S
C2585 C2584 1.377 . S
C2585 C2586 1.379 . S
C2586 H2570 0.931 . S
C2586 C2580 1.383 . S
C2586 C2585 1.379 . S
H2587 C2581 0.959 . S
H2588 C2581 0.961 . S
H2589 C2581 0.960 . S
H2590 C2582 0.930 . S
H2591 C2583 0.929 . S
H2592 C2600 0.877 1_554 S
H2593 C2602 0.930 . S
H2594 C2604 0.930 . S
H2595 C2607 0.929 . S
H2596 C2610 0.930 . S
H2597 C2612 0.960 . S
H2598 C2612 0.960 . S
H2599 C2612 0.960 . S
C2600 H2592 0.877 1_556 S
C2600 C2601 1.377 . S
C2600 C2602 1.384 . S
C2601 C2600 1.377 . S
C2601 C2607 1.390 . S
C2602 H2593 0.930 . S
C2602 C2600 1.384 . S
C2602 C2603 1.372 . S
C2603 C2602 1.372 . S
C2603 C2604 1.400 . S
C2603 C2608 1.490 . S
C2604 H2594 0.930 . S
C2604 C2603 1.400 . S
C2604 C2607 1.386 . S
H2605 C2621 0.930 . S
H2606 C2622 0.931 . S
C2607 H2595 0.929 . S
C2607 C2601 1.390 . S
C2607 C2604 1.386 . S
C2608 C2603 1.490 . S
C2608 C2610 1.395 . S
C2608 C2611 1.403 . S
H2609 C2615 0.930 . S
C2610 H2596 0.930 . S
C2610 C2608 1.395 . S
C2610 C2613 1.403 . S
C2611 C2608 1.403 . S
C2611 C2612 1.524 . S
C2611 C2615 1.400 . S
C2612 H2597 0.960 . S
C2612 H2598 0.960 . S
C2612 H2599 0.960 . S
C2612 C2611 1.524 . S
C2613 C2610 1.403 . S
C2613 C2614 1.392 . S
C2613 C2617 1.495 . S
C2614 C2613 1.392 . S
C2614 C2615 1.385 . S
C2614 C2616 1.478 . S
C2615 H2609 0.930 . S
C2615 C2611 1.400 . S
C2615 C2614 1.385 . S
C2616 C2614 1.478 . S
C2616 C2618 1.381 . S
C2616 C2622 1.383 . S
C2617 C2613 1.495 . S
C2617 H2623 0.959 . S
C2617 H2624 0.961 . S
C2617 H2625 0.960 . S
C2618 C2616 1.381 . S
C2618 C2619 1.394 . S
C2618 H2626 0.930 . S
C2619 C2618 1.394 . S
C2619 C2620 1.383 . S
C2619 H2627 0.929 . S
C2620 C2619 1.383 . S
C2620 C2621 1.377 . S
C2621 H2605 0.930 . S
C2621 C2620 1.377 . S
C2621 C2622 1.379 . S
C2622 H2606 0.931 . S
C2622 C2616 1.383 . S
C2622 C2621 1.379 . S
H2623 C2617 0.959 . S
H2624 C2617 0.961 . S
H2625 C2617 0.960 . S
H2626 C2618 0.930 . S
H2627 C2619 0.929 . S
H2628 C2636 0.929 . S
H2629 C2638 0.930 . S
H2630 C2640 0.930 . S
H2631 C2643 0.929 . S
H2632 C2646 0.930 . S
H2633 C2648 0.960 . S
H2634 C2648 0.960 . S
H2635 C2648 0.960 . S
C2636 H2628 0.929 . S
C2636 C2637 1.377 . S
C2636 C2638 1.384 . S
C2637 C2636 1.377 . S
C2637 C2643 1.390 . S
C2638 H2629 0.930 . S
C2638 C2636 1.384 . S
C2638 C2639 1.372 . S
C2639 C2638 1.372 . S
C2639 C2640 1.400 . S
C2639 C2644 1.490 . S
C2640 H2630 0.930 . S
C2640 C2639 1.400 . S
C2640 C2643 1.386 . S
H2641 C2657 0.930 . S
H2642 C2658 0.931 . S
C2643 H2631 0.929 . S
C2643 C2637 1.390 . S
C2643 C2640 1.386 . S
C2644 C2639 1.490 . S
C2644 C2646 1.395 . S
C2644 C2647 1.403 . S
H2645 C2651 0.930 . S
C2646 H2632 0.930 . S
C2646 C2644 1.395 . S
C2646 C2649 1.403 . S
C2647 C2644 1.403 . S
C2647 C2648 1.524 . S
C2647 C2651 1.400 . S
C2648 H2633 0.960 . S
C2648 H2634 0.960 . S
C2648 H2635 0.960 . S
C2648 C2647 1.524 . S
C2649 C2646 1.403 . S
C2649 C2650 1.392 . S
C2649 C2653 1.495 . S
C2650 C2649 1.392 . S
C2650 C2651 1.385 . S
C2650 C2652 1.478 . S
C2651 H2645 0.930 . S
C2651 C2647 1.400 . S
C2651 C2650 1.385 . S
C2652 C2650 1.478 . S
C2652 C2654 1.381 . S
C2652 C2658 1.383 . S
C2653 C2649 1.495 . S
C2653 H2659 0.959 . S
C2653 H2660 0.961 . S
C2653 H2661 0.960 . S
C2654 C2652 1.381 . S
C2654 C2655 1.394 . S
C2654 H2662 0.930 . S
C2655 C2654 1.394 . S
C2655 C2656 1.383 . S
C2655 H2663 0.929 . S
C2656 C2655 1.383 . S
C2656 C2657 1.377 . S
C2657 H2641 0.930 . S
C2657 C2656 1.377 . S
C2657 C2658 1.379 . S
C2658 H2642 0.931 . S
C2658 C2652 1.383 . S
C2658 C2657 1.379 . S
H2659 C2653 0.959 . S
H2660 C2653 0.961 . S
H2661 C2653 0.960 . S
H2662 C2654 0.930 . S
H2663 C2655 0.929 . S
H2664 C2672 0.929 1_554 S
H2665 C2674 0.930 . S
H2666 C2676 0.930 . S
H2667 C2679 0.929 . S
H2668 C2682 0.930 . S
H2669 C2684 0.960 . S
H2670 C2684 0.960 . S
H2671 C2684 0.960 . S
C2672 H2664 0.929 1_556 S
C2672 C2673 1.377 . S
C2672 C2674 1.384 . S
C2673 C2672 1.377 . S
C2673 C2679 1.390 . S
C2674 H2665 0.930 . S
C2674 C2672 1.384 . S
C2674 C2675 1.372 . S
C2675 C2674 1.372 . S
C2675 C2676 1.400 . S
C2675 C2680 1.490 . S
C2676 H2666 0.930 . S
C2676 C2675 1.400 . S
C2676 C2679 1.386 . S
H2677 C2693 0.930 . S
H2678 C2694 0.931 . S
C2679 H2667 0.929 . S
C2679 C2673 1.390 . S
C2679 C2676 1.386 . S
C2680 C2675 1.490 . S
C2680 C2682 1.395 . S
C2680 C2683 1.403 . S
H2681 C2687 0.930 . S
C2682 H2668 0.930 . S
C2682 C2680 1.395 . S
C2682 C2685 1.403 . S
C2683 C2680 1.403 . S
C2683 C2684 1.524 . S
C2683 C2687 1.400 . S
C2684 H2669 0.960 . S
C2684 H2670 0.960 . S
C2684 H2671 0.960 . S
C2684 C2683 1.524 . S
C2685 C2682 1.403 . S
C2685 C2686 1.392 . S
C2685 C2689 1.495 . S
C2686 C2685 1.392 . S
C2686 C2687 1.385 . S
C2686 C2688 1.478 . S
C2687 H2681 0.930 . S
C2687 C2683 1.400 . S
C2687 C2686 1.385 . S
C2688 C2686 1.478 . S
C2688 C2690 1.381 . S
C2688 C2694 1.383 . S
C2689 C2685 1.495 . S
C2689 H2695 0.959 . S
C2689 H2696 0.961 . S
C2689 H2697 0.960 . S
C2690 C2688 1.381 . S
C2690 C2691 1.394 . S
C2690 H2698 0.930 . S
C2691 C2690 1.394 . S
C2691 C2692 1.383 . S
C2691 H2699 0.929 . S
C2692 C2691 1.383 . S
C2692 C2693 1.377 . S
C2693 H2677 0.930 . S
C2693 C2692 1.377 . S
C2693 C2694 1.379 . S
C2694 H2678 0.931 . S
C2694 C2688 1.383 . S
C2694 C2693 1.379 . S
H2695 C2689 0.959 . S
H2696 C2689 0.961 . S
H2697 C2689 0.960 . S
H2698 C2690 0.930 . S
H2699 C2691 0.929 . S
H2700 C2708 0.929 1_554 S
H2701 C2710 0.930 . S
H2702 C2712 0.930 . S
H2703 C2715 0.929 . S
H2704 C2718 0.930 . S
H2705 C2720 0.960 . S
H2706 C2720 0.960 . S
H2707 C2720 0.960 . S
C2708 H2700 0.929 1_556 S
C2708 C2709 1.377 . S
C2708 C2710 1.384 . S
C2709 C2708 1.377 . S
C2709 C2715 1.390 . S
C2710 H2701 0.930 . S
C2710 C2708 1.384 . S
C2710 C2711 1.372 . S
C2711 C2710 1.372 . S
C2711 C2712 1.400 . S
C2711 C2716 1.490 . S
C2712 H2702 0.930 . S
C2712 C2711 1.400 . S
C2712 C2715 1.386 . S
H2713 C2729 0.930 . S
H2714 C2730 0.931 . S
C2715 H2703 0.929 . S
C2715 C2709 1.390 . S
C2715 C2712 1.386 . S
C2716 C2711 1.490 . S
C2716 C2718 1.395 . S
C2716 C2719 1.403 . S
H2717 C2723 0.930 . S
C2718 H2704 0.930 . S
C2718 C2716 1.395 . S
C2718 C2721 1.403 . S
C2719 C2716 1.403 . S
C2719 C2720 1.524 . S
C2719 C2723 1.400 . S
C2720 H2705 0.960 . S
C2720 H2706 0.960 . S
C2720 H2707 0.960 . S
C2720 C2719 1.524 . S
C2721 C2718 1.403 . S
C2721 C2722 1.392 . S
C2721 C2725 1.495 . S
C2722 C2721 1.392 . S
C2722 C2723 1.385 . S
C2722 C2724 1.478 . S
C2723 H2717 0.930 . S
C2723 C2719 1.400 . S
C2723 C2722 1.385 . S
C2724 C2722 1.478 . S
C2724 C2726 1.381 . S
C2724 C2730 1.383 . S
C2725 C2721 1.495 . S
C2725 H2731 0.959 . S
C2725 H2732 0.961 . S
C2725 H2733 0.960 . S
C2726 C2724 1.381 . S
C2726 C2727 1.394 . S
C2726 H2734 0.930 . S
C2727 C2726 1.394 . S
C2727 C2728 1.383 . S
C2727 H2735 0.929 . S
C2728 C2727 1.383 . S
C2728 C2729 1.377 . S
C2729 H2713 0.930 . S
C2729 C2728 1.377 . S
C2729 C2730 1.379 . S
C2730 H2714 0.931 . S
C2730 C2724 1.383 . S
C2730 C2729 1.379 . S
H2731 C2725 0.959 . S
H2732 C2725 0.961 . S
H2733 C2725 0.960 . S
H2734 C2726 0.930 . S
H2735 C2727 0.929 . S
H2736 C2744 0.929 . S
H2737 C2746 0.930 . S
H2738 C2748 0.930 . S
H2739 C2751 0.929 . S
H2740 C2754 0.930 . S
H2741 C2756 0.960 . S
H2742 C2756 0.960 . S
H2743 C2756 0.960 . S
C2744 H2736 0.929 . S
C2744 C2745 1.377 . S
C2744 C2746 1.384 . S
C2745 C2744 1.377 . S
C2745 C2751 1.390 . S
C2746 H2737 0.930 . S
C2746 C2744 1.384 . S
C2746 C2747 1.372 . S
C2747 C2746 1.372 . S
C2747 C2748 1.400 . S
C2747 C2752 1.490 . S
C2748 H2738 0.930 . S
C2748 C2747 1.400 . S
C2748 C2751 1.386 . S
H2749 C2765 0.930 . S
H2750 C2766 0.931 . S
C2751 H2739 0.929 . S
C2751 C2745 1.390 . S
C2751 C2748 1.386 . S
C2752 C2747 1.490 . S
C2752 C2754 1.395 . S
C2752 C2755 1.403 . S
H2753 C2759 0.930 . S
C2754 H2740 0.930 . S
C2754 C2752 1.395 . S
C2754 C2757 1.403 . S
C2755 C2752 1.403 . S
C2755 C2756 1.524 . S
C2755 C2759 1.400 . S
C2756 H2741 0.960 . S
C2756 H2742 0.960 . S
C2756 H2743 0.960 . S
C2756 C2755 1.524 . S
C2757 C2754 1.403 . S
C2757 C2758 1.392 . S
C2757 C2761 1.495 . S
C2758 C2757 1.392 . S
C2758 C2759 1.385 . S
C2758 C2760 1.478 . S
C2759 H2753 0.930 . S
C2759 C2755 1.400 . S
C2759 C2758 1.385 . S
C2760 C2758 1.478 . S
C2760 C2762 1.381 . S
C2760 C2766 1.383 . S
C2761 C2757 1.495 . S
C2761 H2767 0.959 . S
C2761 H2768 0.961 . S
C2761 H2769 0.960 . S
C2762 C2760 1.381 . S
C2762 C2763 1.394 . S
C2762 H2770 0.930 . S
C2763 C2762 1.394 . S
C2763 C2764 1.383 . S
C2763 H2771 0.929 . S
C2764 C2763 1.383 . S
C2764 C2765 1.377 . S
C2765 H2749 0.930 . S
C2765 C2764 1.377 . S
C2765 C2766 1.379 . S
C2766 H2750 0.931 . S
C2766 C2760 1.383 . S
C2766 C2765 1.379 . S
H2767 C2761 0.959 . S
H2768 C2761 0.961 . S
H2769 C2761 0.960 . S
H2770 C2762 0.930 . S
H2771 C2763 0.929 . S
H2772 C2780 0.929 . S
H2773 C2782 0.930 . S
H2774 C2784 0.930 . S
H2775 C2787 0.929 . S
H2776 C2790 0.930 . S
H2777 C2792 0.960 . S
H2778 C2792 0.960 . S
H2779 C2792 0.960 . S
C2780 H2772 0.929 . S
C2780 C2781 1.377 . S
C2780 C2782 1.384 . S
C2781 C2780 1.377 . S
C2781 C2787 1.390 . S
C2782 H2773 0.930 . S
C2782 C2780 1.384 . S
C2782 C2783 1.372 . S
C2783 C2782 1.372 . S
C2783 C2784 1.400 . S
C2783 C2788 1.490 . S
C2784 H2774 0.930 . S
C2784 C2783 1.400 . S
C2784 C2787 1.386 . S
H2785 C2801 0.930 . S
H2786 C2802 0.931 . S
C2787 H2775 0.929 . S
C2787 C2781 1.390 . S
C2787 C2784 1.386 . S
C2788 C2783 1.490 . S
C2788 C2790 1.395 . S
C2788 C2791 1.403 . S
H2789 C2795 0.930 . S
C2790 H2776 0.930 . S
C2790 C2788 1.395 . S
C2790 C2793 1.403 . S
C2791 C2788 1.403 . S
C2791 C2792 1.524 . S
C2791 C2795 1.400 . S
C2792 H2777 0.960 . S
C2792 H2778 0.960 . S
C2792 H2779 0.960 . S
C2792 C2791 1.524 . S
C2793 C2790 1.403 . S
C2793 C2794 1.392 . S
C2793 C2797 1.495 . S
C2794 C2793 1.392 . S
C2794 C2795 1.385 . S
C2794 C2796 1.478 . S
C2795 H2789 0.930 . S
C2795 C2791 1.400 . S
C2795 C2794 1.385 . S
C2796 C2794 1.478 . S
C2796 C2798 1.381 . S
C2796 C2802 1.383 . S
C2797 C2793 1.495 . S
C2797 H2803 0.959 . S
C2797 H2804 0.961 . S
C2797 H2805 0.960 . S
C2798 C2796 1.381 . S
C2798 C2799 1.394 . S
C2798 H2806 0.930 . S
C2799 C2798 1.394 . S
C2799 C2800 1.383 . S
C2799 H2807 0.929 . S
C2800 C2799 1.383 . S
C2800 C2801 1.377 . S
C2801 H2785 0.930 . S
C2801 C2800 1.377 . S
C2801 C2802 1.379 . S
C2802 H2786 0.931 . S
C2802 C2796 1.383 . S
C2802 C2801 1.379 . S
H2803 C2797 0.959 . S
H2804 C2797 0.961 . S
H2805 C2797 0.960 . S
H2806 C2798 0.930 . S
H2807 C2799 0.929 . S
H2808 C2816 0.929 . S
H2809 C2818 0.930 . S
H2810 C2820 0.930 . S
H2811 C2823 0.929 . S
H2812 C2826 0.930 . S
H2813 C2828 0.960 . S
H2814 C2828 0.960 . S
H2815 C2828 0.960 . S
C2816 H2808 0.929 . S
C2816 C2817 1.377 . S
C2816 C2818 1.384 . S
C2817 C2816 1.377 . S
C2817 C2823 1.390 . S
C2818 H2809 0.930 . S
C2818 C2816 1.384 . S
C2818 C2819 1.372 . S
C2819 C2818 1.372 . S
C2819 C2820 1.400 . S
C2819 C2824 1.490 . S
C2820 H2810 0.930 . S
C2820 C2819 1.400 . S
C2820 C2823 1.386 . S
H2821 C2837 0.930 . S
H2822 C2838 0.931 . S
C2823 H2811 0.929 . S
C2823 C2817 1.390 . S
C2823 C2820 1.386 . S
C2824 C2819 1.490 . S
C2824 C2826 1.395 . S
C2824 C2827 1.403 . S
H2825 C2831 0.930 . S
C2826 H2812 0.930 . S
C2826 C2824 1.395 . S
C2826 C2829 1.403 . S
C2827 C2824 1.403 . S
C2827 C2828 1.524 . S
C2827 C2831 1.400 . S
C2828 H2813 0.960 . S
C2828 H2814 0.960 . S
C2828 H2815 0.960 . S
C2828 C2827 1.524 . S
C2829 C2826 1.403 . S
C2829 C2830 1.392 . S
C2829 C2833 1.495 . S
C2830 C2829 1.392 . S
C2830 C2831 1.385 . S
C2830 C2832 1.478 . S
C2831 H2825 0.930 . S
C2831 C2827 1.400 . S
C2831 C2830 1.385 . S
C2832 C2830 1.478 . S
C2832 C2834 1.381 . S
C2832 C2838 1.383 . S
C2833 C2829 1.495 . S
C2833 H2839 0.959 . S
C2833 H2840 0.961 . S
C2833 H2841 0.960 . S
C2834 C2832 1.381 . S
C2834 C2835 1.394 . S
C2834 H2842 0.930 . S
C2835 C2834 1.394 . S
C2835 C2836 1.383 . S
C2835 H2843 0.929 . S
C2836 C2835 1.383 . S
C2836 C2837 1.377 . S
C2837 H2821 0.930 . S
C2837 C2836 1.377 . S
C2837 C2838 1.379 . S
C2838 H2822 0.931 . S
C2838 C2832 1.383 . S
C2838 C2837 1.379 . S
H2839 C2833 0.959 . S
H2840 C2833 0.961 . S
H2841 C2833 0.960 . S
H2842 C2834 0.930 . S
H2843 C2835 0.929 . S
H2844 C2852 0.929 . S
H2845 C2854 0.930 . S
H2846 C2856 0.930 . S
H2847 C2859 0.929 . S
H2848 C2862 0.930 . S
H2849 C2864 0.960 . S
H2850 C2864 0.960 . S
H2851 C2864 0.960 . S
C2852 H2844 0.929 . S
C2852 C2853 1.377 . S
C2852 C2854 1.384 . S
C2853 C2852 1.377 . S
C2853 C2859 1.390 . S
C2854 H2845 0.930 . S
C2854 C2852 1.384 . S
C2854 C2855 1.372 . S
C2855 C2854 1.372 . S
C2855 C2856 1.400 . S
C2855 C2860 1.490 . S
C2856 H2846 0.930 . S
C2856 C2855 1.400 . S
C2856 C2859 1.386 . S
H2857 C2873 0.930 . S
H2858 C2874 0.931 . S
C2859 H2847 0.929 . S
C2859 C2853 1.390 . S
C2859 C2856 1.386 . S
C2860 C2855 1.490 . S
C2860 C2862 1.395 . S
C2860 C2863 1.403 . S
H2861 C2867 0.930 . S
C2862 H2848 0.930 . S
C2862 C2860 1.395 . S
C2862 C2865 1.403 . S
C2863 C2860 1.403 . S
C2863 C2864 1.524 . S
C2863 C2867 1.400 . S
C2864 H2849 0.960 . S
C2864 H2850 0.960 . S
C2864 H2851 0.960 . S
C2864 C2863 1.524 . S
C2865 C2862 1.403 . S
C2865 C2866 1.392 . S
C2865 C2869 1.495 . S
C2866 C2865 1.392 . S
C2866 C2867 1.385 . S
C2866 C2868 1.478 . S
C2867 H2861 0.930 . S
C2867 C2863 1.400 . S
C2867 C2866 1.385 . S
C2868 C2866 1.478 . S
C2868 C2870 1.381 . S
C2868 C2874 1.383 . S
C2869 C2865 1.495 . S
C2869 H2875 0.959 . S
C2869 H2876 0.961 . S
C2869 H2877 0.960 . S
C2870 C2868 1.381 . S
C2870 C2871 1.394 . S
C2870 H2878 0.930 . S
C2871 C2870 1.394 . S
C2871 C2872 1.383 . S
C2871 H2879 0.929 . S
C2872 C2871 1.383 . S
C2872 C2873 1.377 . S
C2873 H2857 0.930 . S
C2873 C2872 1.377 . S
C2873 C2874 1.379 . S
C2874 H2858 0.931 . S
C2874 C2868 1.383 . S
C2874 C2873 1.379 . S
H2875 C2869 0.959 . S
H2876 C2869 0.961 . S
H2877 C2869 0.960 . S
H2878 C2870 0.930 . S
H2879 C2871 0.929 . S
H2880 C2888 0.929 . S
H2881 C2890 0.930 . S
H2882 C2892 0.930 . S
H2883 C2895 0.929 . S
H2884 C2898 0.930 . S
H2885 C2900 0.960 . S
H2886 C2900 0.960 . S
H2887 C2900 0.960 . S
C2888 H2880 0.929 . S
C2888 C2889 1.377 . S
C2888 C2890 1.384 . S
C2889 C2888 1.377 . S
C2889 C2895 1.390 . S
C2890 H2881 0.930 . S
C2890 C2888 1.384 . S
C2890 C2891 1.372 . S
C2891 C2890 1.372 . S
C2891 C2892 1.400 . S
C2891 C2896 1.490 . S
C2892 H2882 0.930 . S
C2892 C2891 1.400 . S
C2892 C2895 1.386 . S
H2893 C2909 0.930 . S
H2894 C2910 0.931 . S
C2895 H2883 0.929 . S
C2895 C2889 1.390 . S
C2895 C2892 1.386 . S
C2896 C2891 1.490 . S
C2896 C2898 1.395 . S
C2896 C2899 1.403 . S
H2897 C2903 0.930 . S
C2898 H2884 0.930 . S
C2898 C2896 1.395 . S
C2898 C2901 1.403 . S
C2899 C2896 1.403 . S
C2899 C2900 1.524 . S
C2899 C2903 1.400 . S
C2900 H2885 0.960 . S
C2900 H2886 0.960 . S
C2900 H2887 0.960 . S
C2900 C2899 1.524 . S
C2901 C2898 1.403 . S
C2901 C2902 1.392 . S
C2901 C2905 1.495 . S
C2902 C2901 1.392 . S
C2902 C2903 1.385 . S
C2902 C2904 1.478 . S
C2903 H2897 0.930 . S
C2903 C2899 1.400 . S
C2903 C2902 1.385 . S
C2904 C2902 1.478 . S
C2904 C2906 1.381 . S
C2904 C2910 1.383 . S
C2905 C2901 1.495 . S
C2905 H2911 0.959 . S
C2905 H2912 0.961 . S
C2905 H2913 0.960 . S
C2906 C2904 1.381 . S
C2906 C2907 1.394 . S
C2906 H2914 0.930 . S
C2907 C2906 1.394 . S
C2907 C2908 1.383 . S
C2907 H2915 0.929 . S
C2908 C2907 1.383 . S
C2908 C2909 1.377 . S
C2909 H2893 0.930 . S
C2909 C2908 1.377 . S
C2909 C2910 1.379 . S
C2910 H2894 0.931 . S
C2910 C2904 1.383 . S
C2910 C2909 1.379 . S
H2911 C2905 0.959 . S
H2912 C2905 0.961 . S
H2913 C2905 0.960 . S
H2914 C2906 0.930 . S
H2915 C2907 0.929 . S
H2916 C2924 0.929 . S
H2917 C2926 0.930 . S
H2918 C2928 0.930 . S
H2919 C2931 0.929 . S
H2920 C2934 0.930 . S
H2921 C2936 0.960 . S
H2922 C2936 0.960 . S
H2923 C2936 0.960 . S
C2924 H2916 0.929 . S
C2924 C2925 1.377 . S
C2924 C2926 1.384 . S
C2925 C2924 1.377 . S
C2925 C2931 1.390 . S
C2926 H2917 0.930 . S
C2926 C2924 1.384 . S
C2926 C2927 1.372 . S
C2927 C2926 1.372 . S
C2927 C2928 1.400 . S
C2927 C2932 1.490 . S
C2928 H2918 0.930 . S
C2928 C2927 1.400 . S
C2928 C2931 1.386 . S
H2929 C2945 0.930 . S
H2930 C2946 0.931 . S
C2931 H2919 0.929 . S
C2931 C2925 1.390 . S
C2931 C2928 1.386 . S
C2932 C2927 1.490 . S
C2932 C2934 1.395 . S
C2932 C2935 1.403 . S
H2933 C2939 0.930 . S
C2934 H2920 0.930 . S
C2934 C2932 1.395 . S
C2934 C2937 1.403 . S
C2935 C2932 1.403 . S
C2935 C2936 1.524 . S
C2935 C2939 1.400 . S
C2936 H2921 0.960 . S
C2936 H2922 0.960 . S
C2936 H2923 0.960 . S
C2936 C2935 1.524 . S
C2937 C2934 1.403 . S
C2937 C2938 1.392 . S
C2937 C2941 1.495 . S
C2938 C2937 1.392 . S
C2938 C2939 1.385 . S
C2938 C2940 1.478 . S
C2939 H2933 0.930 . S
C2939 C2935 1.400 . S
C2939 C2938 1.385 . S
C2940 C2938 1.478 . S
C2940 C2942 1.381 . S
C2940 C2946 1.383 . S
C2941 C2937 1.495 . S
C2941 H2947 0.959 . S
C2941 H2948 0.961 . S
C2941 H2949 0.960 . S
C2942 C2940 1.381 . S
C2942 C2943 1.394 . S
C2942 H2950 0.930 . S
C2943 C2942 1.394 . S
C2943 C2944 1.383 . S
C2943 H2951 0.929 . S
C2944 C2943 1.383 . S
C2944 C2945 1.377 . S
C2945 H2929 0.930 . S
C2945 C2944 1.377 . S
C2945 C2946 1.379 . S
C2946 H2930 0.931 . S
C2946 C2940 1.383 . S
C2946 C2945 1.379 . S
H2947 C2941 0.959 . S
H2948 C2941 0.961 . S
H2949 C2941 0.960 . S
H2950 C2942 0.930 . S
H2951 C2943 0.929 . S
H2952 C2960 0.929 . S
H2953 C2962 0.930 . S
H2954 C2964 0.930 . S
H2955 C2967 0.929 . S
H2956 C2970 0.930 . S
H2957 C2972 0.960 . S
H2958 C2972 0.960 1_455 S
H2959 C2972 0.960 . S
C2960 H2952 0.929 . S
C2960 C2961 1.377 . S
C2960 C2962 1.384 . S
C2961 C2960 1.377 . S
C2961 C2967 1.390 1_455 S
C2962 H2953 0.930 . S
C2962 C2960 1.384 . S
C2962 C2963 1.372 . S
C2963 C2962 1.372 . S
C2963 C2964 1.400 1_455 S
C2963 C2968 1.490 . S
C2964 H2954 0.930 . S
C2964 C2963 1.400 1_655 S
C2964 C2967 1.386 . S
H2965 C2981 0.930 . S
H2966 C2982 0.931 . S
C2967 H2955 0.929 . S
C2967 C2961 1.390 1_655 S
C2967 C2964 1.386 . S
C2968 C2963 1.490 . S
C2968 C2970 1.395 . S
C2968 C2971 1.403 . S
H2969 C2975 0.930 1_655 S
C2970 H2956 0.930 . S
C2970 C2968 1.395 . S
C2970 C2973 1.403 . S
C2971 C2968 1.403 . S
C2971 C2972 1.524 1_455 S
C2971 C2975 1.400 . S
C2972 H2957 0.960 . S
C2972 H2958 0.960 1_655 S
C2972 H2959 0.960 . S
C2972 C2971 1.524 1_655 S
C2973 C2970 1.403 . S
C2973 C2974 1.392 . S
C2973 C2977 1.495 . S
C2974 C2973 1.392 . S
C2974 C2975 1.385 . S
C2974 C2976 1.478 . S
C2975 H2969 0.930 1_455 S
C2975 C2971 1.400 . S
C2975 C2974 1.385 . S
C2976 C2974 1.478 . S
C2976 C2978 1.381 . S
C2976 C2982 1.383 1_455 S
C2977 C2973 1.495 . S
C2977 H2983 0.959 . S
C2977 H2984 0.961 . S
C2977 H2985 0.960 . S
C2978 C2976 1.381 . S
C2978 C2979 1.394 . S
C2978 H2986 0.930 . S
C2979 C2978 1.394 . S
C2979 C2980 1.383 . S
C2979 H2987 0.929 . S
C2980 C2979 1.383 . S
C2980 C2981 1.377 1_455 S
C2981 H2965 0.930 . S
C2981 C2980 1.377 1_655 S
C2981 C2982 1.379 . S
C2982 H2966 0.931 . S
C2982 C2976 1.383 1_655 S
C2982 C2981 1.379 . S
H2983 C2977 0.959 . S
H2984 C2977 0.961 . S
H2985 C2977 0.960 . S
H2986 C2978 0.930 . S
H2987 C2979 0.929 . S
H2988 C2996 0.929 . S
H2989 C2998 0.930 . S
H2990 C3000 0.930 . S
H2991 C3003 0.929 . S
H2992 C3006 0.930 . S
H2993 C3008 0.960 . S
H2994 C3008 0.960 . S
H2995 C3008 0.960 . S
C2996 H2988 0.929 . S
C2996 C2997 1.377 . S
C2996 C2998 1.384 . S
C2997 C2996 1.377 . S
C2997 C3003 1.390 . S
C2998 H2989 0.930 . S
C2998 C2996 1.384 . S
C2998 C2999 1.372 . S
C2999 C2998 1.372 . S
C2999 C3000 1.400 . S
C2999 C3004 1.490 . S
C3000 H2990 0.930 . S
C3000 C2999 1.400 . S
C3000 C3003 1.386 . S
H3001 C3017 0.930 . S
H3002 C3018 0.931 . S
C3003 H2991 0.929 . S
C3003 C2997 1.390 . S
C3003 C3000 1.386 . S
C3004 C2999 1.490 . S
C3004 C3006 1.395 . S
C3004 C3007 1.403 . S
H3005 C3011 0.930 . S
C3006 H2992 0.930 . S
C3006 C3004 1.395 . S
C3006 C3009 1.403 . S
C3007 C3004 1.403 . S
C3007 C3008 1.524 . S
C3007 C3011 1.400 . S
C3008 H2993 0.960 . S
C3008 H2994 0.960 . S
C3008 H2995 0.960 . S
C3008 C3007 1.524 . S
C3009 C3006 1.403 . S
C3009 C3010 1.392 . S
C3009 C3013 1.495 . S
C3010 C3009 1.392 . S
C3010 C3011 1.385 . S
C3010 C3012 1.478 . S
C3011 H3005 0.930 . S
C3011 C3007 1.400 . S
C3011 C3010 1.385 . S
C3012 C3010 1.478 . S
C3012 C3014 1.381 . S
C3012 C3018 1.383 . S
C3013 C3009 1.495 . S
C3013 H3019 0.959 . S
C3013 H3020 0.961 . S
C3013 H3021 0.960 . S
C3014 C3012 1.381 . S
C3014 C3015 1.394 . S
C3014 H3022 0.930 . S
C3015 C3014 1.394 . S
C3015 C3016 1.383 . S
C3015 H3023 0.929 . S
C3016 C3015 1.383 . S
C3016 C3017 1.377 . S
C3017 H3001 0.930 . S
C3017 C3016 1.377 . S
C3017 C3018 1.379 . S
C3018 H3002 0.931 . S
C3018 C3012 1.383 . S
C3018 C3017 1.379 . S
H3019 C3013 0.959 . S
H3020 C3013 0.961 . S
H3021 C3013 0.960 . S
H3022 C3014 0.930 . S
H3023 C3015 0.929 . S
H3024 C3032 0.929 . S
H3025 C3034 0.930 . S
H3026 C3036 0.931 . S
H3027 C3039 0.920 1_545 S
H3028 C3042 0.940 . S
H3029 C3044 0.960 . S
H3030 C3044 0.960 . S
H3031 C3044 0.960 . S
C3032 H3024 0.929 . S
C3032 C3033 1.377 . S
C3032 C3034 1.384 . S
C3033 C3032 1.377 . S
C3033 C3039 1.392 . S
C3034 H3025 0.930 . S
C3034 C3032 1.384 . S
C3034 C3035 1.372 . S
C3035 C3034 1.372 . S
C3035 C3036 1.394 1_565 S
C3035 C3040 1.490 . S
C3036 H3026 0.931 . S
C3036 C3035 1.394 1_545 S
C3036 C3039 1.397 1_545 S
H3037 C3053 0.930 . S
H3038 C3054 0.931 . S
C3039 H3027 0.920 1_565 S
C3039 C3033 1.392 . S
C3039 C3036 1.397 1_565 S
C3040 C3035 1.490 . S
C3040 C3042 1.395 . S
C3040 C3043 1.403 . S
H3041 C3047 0.930 . S
C3042 H3028 0.940 . S
C3042 C3040 1.395 . S
C3042 C3045 1.374 . S
C3043 C3040 1.403 . S
C3043 C3044 1.524 . S
C3043 C3047 1.400 . S
C3044 H3029 0.960 . S
C3044 H3030 0.960 . S
C3044 H3031 0.960 . S
C3044 C3043 1.524 . S
C3045 C3042 1.374 . S
C3045 C3046 1.459 . S
C3045 C3049 1.465 1_565 S
C3046 C3045 1.459 . S
C3046 C3047 1.385 . S
C3046 C3048 1.478 . S
C3047 H3041 0.930 . S
C3047 C3043 1.400 . S
C3047 C3046 1.385 . S
C3048 C3046 1.478 . S
C3048 C3050 1.381 . S
C3048 C3054 1.383 1_565 S
C3049 C3045 1.465 1_545 S
C3049 H3055 0.959 . S
C3049 H3056 0.961 . S
C3049 H3057 0.960 1_545 S
C3050 C3048 1.381 . S
C3050 C3051 1.394 . S
C3050 H3058 0.930 . S
C3051 C3050 1.394 . S
C3051 C3052 1.383 . S
C3051 H3059 0.929 . S
C3052 C3051 1.383 . S
C3052 C3053 1.377 1_565 S
C3053 H3037 0.930 . S
C3053 C3052 1.377 1_545 S
C3053 C3054 1.379 . S
C3054 H3038 0.931 . S
C3054 C3048 1.383 1_545 S
C3054 C3053 1.379 . S
H3055 C3049 0.959 . S
H3056 C3049 0.961 . S
H3057 C3049 0.960 1_565 S
H3058 C3050 0.930 . S
H3059 C3051 0.929 . S
H3060 C3068 0.929 . S
H3061 C3070 0.930 . S
H3062 C3072 0.930 . S
H3063 C3075 0.951 . S
H3064 C3078 0.930 . S
H3065 C3080 0.960 . S
H3066 C3080 0.960 . S
H3067 C3080 0.960 . S
C3068 H3060 0.929 . S
C3068 C3069 1.377 . S
C3068 C3070 1.384 . S
C3069 C3068 1.377 . S
C3069 C3075 1.333 1_565 S
C3070 H3061 0.930 . S
C3070 C3068 1.384 . S
C3070 C3071 1.372 . S
C3071 C3070 1.372 . S
C3071 C3072 1.400 1_565 S
C3071 C3076 1.490 . S
C3072 H3062 0.930 . S
C3072 C3071 1.400 1_545 S
C3072 C3075 1.429 . S
H3073 C3089 0.930 . S
H3074 C3090 0.931 . S
C3075 H3063 0.951 . S
C3075 C3069 1.333 1_545 S
C3075 C3072 1.429 . S
C3076 C3071 1.490 . S
C3076 C3078 1.395 . S
C3076 C3079 1.403 . S
H3077 C3083 0.930 . S
C3078 H3064 0.930 . S
C3078 C3076 1.395 . S
C3078 C3081 1.403 . S
C3079 C3076 1.403 . S
C3079 C3080 1.524 . S
C3079 C3083 1.400 . S
C3080 H3065 0.960 . S
C3080 H3066 0.960 . S
C3080 H3067 0.960 . S
C3080 C3079 1.524 . S
C3081 C3078 1.403 . S
C3081 C3082 1.392 . S
C3081 C3085 1.479 1_565 S
C3082 C3081 1.392 . S
C3082 C3083 1.385 . S
C3082 C3084 1.478 . S
C3083 H3077 0.930 . S
C3083 C3079 1.400 . S
C3083 C3082 1.385 . S
C3084 C3082 1.478 . S
C3084 C3086 1.381 . S
C3084 C3090 1.383 1_565 S
C3085 C3081 1.479 1_545 S
C3085 H3091 0.958 . S
C3085 H3092 0.989 . S
C3085 H3093 0.951 1_545 S
C3086 C3084 1.381 . S
C3086 C3087 1.394 . S
C3086 H3094 0.930 . S
C3087 C3086 1.394 . S
C3087 C3088 1.383 . S
C3087 H3095 0.929 . S
C3088 C3087 1.383 . S
C3088 C3089 1.377 1_565 S
C3089 H3073 0.930 . S
C3089 C3088 1.377 1_545 S
C3089 C3090 1.379 . S
C3090 H3074 0.931 . S
C3090 C3084 1.383 1_545 S
C3090 C3089 1.379 . S
H3091 C3085 0.958 . S
H3092 C3085 0.989 . S
H3093 C3085 0.951 1_565 S
H3094 C3086 0.930 . S
H3095 C3087 0.929 . S
H3096 C3104 0.927 . S
H3097 C3106 0.930 1_655 S
H3098 C3108 0.930 . S
H3099 C3111 0.929 . S
H3100 C3114 0.930 . S
H3101 C3116 0.960 . S
H3102 C3116 0.960 . S
H3103 C3116 0.960 . S
C3104 H3096 0.927 . S
C3104 C3105 1.377 . S
C3104 C3106 1.384 . S
C3105 C3104 1.377 . S
C3105 C3111 1.390 . S
C3106 H3097 0.930 1_455 S
C3106 C3104 1.384 . S
C3106 C3107 1.372 . S
C3107 C3106 1.372 . S
C3107 C3108 1.400 . S
C3107 C3112 1.490 . S
C3108 H3098 0.930 . S
C3108 C3107 1.400 . S
C3108 C3111 1.386 . S
H3109 C3125 0.930 . S
H3110 C3126 0.931 . S
C3111 H3099 0.929 . S
C3111 C3105 1.390 . S
C3111 C3108 1.386 . S
C3112 C3107 1.490 . S
C3112 C3114 1.395 1_455 S
C3112 C3115 1.403 . S
H3113 C3119 0.930 . S
C3114 H3100 0.930 . S
C3114 C3112 1.395 1_655 S
C3114 C3117 1.403 . S
C3115 C3112 1.403 . S
C3115 C3116 1.524 . S
C3115 C3119 1.400 . S
C3116 H3101 0.960 . S
C3116 H3102 0.960 . S
C3116 H3103 0.960 . S
C3116 C3115 1.524 . S
C3117 C3114 1.403 . S
C3117 C3118 1.392 1_655 S
C3117 C3121 1.495 . S
C3118 C3117 1.392 1_455 S
C3118 C3119 1.385 . S
C3118 C3120 1.478 . S
C3119 H3113 0.930 . S
C3119 C3115 1.400 . S
C3119 C3118 1.385 . S
C3120 C3118 1.478 . S
C3120 C3122 1.381 1_455 S
C3120 C3126 1.383 . S
C3121 C3117 1.495 . S
C3121 H3127 0.959 . S
C3121 H3128 0.961 . S
C3121 H3129 0.960 . S
C3122 C3120 1.381 1_655 S
C3122 C3123 1.394 . S
C3122 H3130 0.930 . S
C3123 C3122 1.394 . S
C3123 C3124 1.383 1_655 S
C3123 H3131 0.929 . S
C3124 C3123 1.383 1_455 S
C3124 C3125 1.377 . S
C3125 H3109 0.930 . S
C3125 C3124 1.377 . S
C3125 C3126 1.379 . S
C3126 H3110 0.931 . S
C3126 C3120 1.383 . S
C3126 C3125 1.379 . S
H3127 C3121 0.959 . S
H3128 C3121 0.961 . S
H3129 C3121 0.960 . S
H3130 C3122 0.930 . S
H3131 C3123 0.929 . S
H3132 C3140 0.929 . S
H3133 C3142 0.930 . S
H3134 C3144 0.930 . S
H3135 C3147 0.929 . S
H3136 C3150 0.930 . S
H3137 C3152 0.960 . S
H3138 C3152 0.960 . S
H3139 C3152 0.960 . S
C3140 H3132 0.929 . S
C3140 C3141 1.377 . S
C3140 C3142 1.384 . S
C3141 C3140 1.377 . S
C3141 C3147 1.390 . S
C3142 H3133 0.930 . S
C3142 C3140 1.384 . S
C3142 C3143 1.372 . S
C3143 C3142 1.372 . S
C3143 C3144 1.400 . S
C3143 C3148 1.490 . S
C3144 H3134 0.930 . S
C3144 C3143 1.400 . S
C3144 C3147 1.386 . S
H3145 C3161 0.930 . S
H3146 C3162 0.931 . S
C3147 H3135 0.929 . S
C3147 C3141 1.390 . S
C3147 C3144 1.386 . S
C3148 C3143 1.490 . S
C3148 C3150 1.395 . S
C3148 C3151 1.403 . S
H3149 C3155 0.930 . S
C3150 H3136 0.930 . S
C3150 C3148 1.395 . S
C3150 C3153 1.403 . S
C3151 C3148 1.403 . S
C3151 C3152 1.524 . S
C3151 C3155 1.400 . S
C3152 H3137 0.960 . S
C3152 H3138 0.960 . S
C3152 H3139 0.960 . S
C3152 C3151 1.524 . S
C3153 C3150 1.403 . S
C3153 C3154 1.392 . S
C3153 C3157 1.495 . S
C3154 C3153 1.392 . S
C3154 C3155 1.385 . S
C3154 C3156 1.478 . S
C3155 H3149 0.930 . S
C3155 C3151 1.400 . S
C3155 C3154 1.385 . S
C3156 C3154 1.478 . S
C3156 C3158 1.381 . S
C3156 C3162 1.383 . S
C3157 C3153 1.495 . S
C3157 H3163 0.959 . S
C3157 H3164 0.961 . S
C3157 H3165 0.960 . S
C3158 C3156 1.381 . S
C3158 C3159 1.394 . S
C3158 H3166 0.930 . S
C3159 C3158 1.394 . S
C3159 C3160 1.383 . S
C3159 H3167 0.929 . S
C3160 C3159 1.383 . S
C3160 C3161 1.377 . S
C3161 H3145 0.930 . S
C3161 C3160 1.377 . S
C3161 C3162 1.379 . S
C3162 H3146 0.931 . S
C3162 C3156 1.383 . S
C3162 C3161 1.379 . S
H3163 C3157 0.959 . S
H3164 C3157 0.961 . S
H3165 C3157 0.960 . S
H3166 C3158 0.930 . S
H3167 C3159 0.929 . S
H3168 C3176 0.929 . S
H3169 C3178 0.930 . S
H3170 C3180 0.930 . S
H3171 C3183 0.929 . S
H3172 C3186 0.930 . S
H3173 C3188 0.960 . S
H3174 C3188 0.960 . S
H3175 C3188 0.960 . S
C3176 H3168 0.929 . S
C3176 C3177 1.377 . S
C3176 C3178 1.384 . S
C3177 C3176 1.377 . S
C3177 C3183 1.390 . S
C3178 H3169 0.930 . S
C3178 C3176 1.384 . S
C3178 C3179 1.372 . S
C3179 C3178 1.372 . S
C3179 C3180 1.400 . S
C3179 C3184 1.490 . S
C3180 H3170 0.930 . S
C3180 C3179 1.400 . S
C3180 C3183 1.386 . S
H3181 C3197 0.930 . S
H3182 C3198 0.931 . S
C3183 H3171 0.929 . S
C3183 C3177 1.390 . S
C3183 C3180 1.386 . S
C3184 C3179 1.490 . S
C3184 C3186 1.395 . S
C3184 C3187 1.403 . S
H3185 C3191 0.930 . S
C3186 H3172 0.930 . S
C3186 C3184 1.395 . S
C3186 C3189 1.403 . S
C3187 C3184 1.403 . S
C3187 C3188 1.524 . S
C3187 C3191 1.400 . S
C3188 H3173 0.960 . S
C3188 H3174 0.960 . S
C3188 H3175 0.960 . S
C3188 C3187 1.524 . S
C3189 C3186 1.403 . S
C3189 C3190 1.392 . S
C3189 C3193 1.495 . S
C3190 C3189 1.392 . S
C3190 C3191 1.385 . S
C3190 C3192 1.478 . S
C3191 H3185 0.930 . S
C3191 C3187 1.400 . S
C3191 C3190 1.385 . S
C3192 C3190 1.478 . S
C3192 C3194 1.381 . S
C3192 C3198 1.383 . S
C3193 C3189 1.495 . S
C3193 H3199 0.959 . S
C3193 H3200 0.961 . S
C3193 H3201 0.960 . S
C3194 C3192 1.381 . S
C3194 C3195 1.394 . S
C3194 H3202 0.930 . S
C3195 C3194 1.394 . S
C3195 C3196 1.383 . S
C3195 H3203 0.929 . S
C3196 C3195 1.383 . S
C3196 C3197 1.377 . S
C3197 H3181 0.930 . S
C3197 C3196 1.377 . S
C3197 C3198 1.379 . S
C3198 H3182 0.931 . S
C3198 C3192 1.383 . S
C3198 C3197 1.379 . S
H3199 C3193 0.959 . S
H3200 C3193 0.961 . S
H3201 C3193 0.960 . S
H3202 C3194 0.930 . S
H3203 C3195 0.929 . S
H3204 C3212 0.929 . S
H3205 C3214 0.930 . S
H3206 C3216 0.930 . S
H3207 C3219 0.929 . S
H3208 C3222 0.930 . S
H3209 C3224 0.960 . S
H3210 C3224 0.960 . S
H3211 C3224 0.960 . S
C3212 H3204 0.929 . S
C3212 C3213 1.377 . S
C3212 C3214 1.384 . S
C3213 C3212 1.377 . S
C3213 C3219 1.390 . S
C3214 H3205 0.930 . S
C3214 C3212 1.384 . S
C3214 C3215 1.372 . S
C3215 C3214 1.372 . S
C3215 C3216 1.400 . S
C3215 C3220 1.490 . S
C3216 H3206 0.930 . S
C3216 C3215 1.400 . S
C3216 C3219 1.386 . S
H3217 C3233 0.930 . S
H3218 C3234 0.931 . S
C3219 H3207 0.929 . S
C3219 C3213 1.390 . S
C3219 C3216 1.386 . S
C3220 C3215 1.490 . S
C3220 C3222 1.395 . S
C3220 C3223 1.403 . S
H3221 C3227 0.930 . S
C3222 H3208 0.930 . S
C3222 C3220 1.395 . S
C3222 C3225 1.403 . S
C3223 C3220 1.403 . S
C3223 C3224 1.524 . S
C3223 C3227 1.400 . S
C3224 H3209 0.960 . S
C3224 H3210 0.960 . S
C3224 H3211 0.960 . S
C3224 C3223 1.524 . S
C3225 C3222 1.403 . S
C3225 C3226 1.392 . S
C3225 C3229 1.495 . S
C3226 C3225 1.392 . S
C3226 C3227 1.385 . S
C3226 C3228 1.478 . S
C3227 H3221 0.930 . S
C3227 C3223 1.400 . S
C3227 C3226 1.385 . S
C3228 C3226 1.478 . S
C3228 C3230 1.381 . S
C3228 C3234 1.383 . S
C3229 C3225 1.495 . S
C3229 H3235 0.959 . S
C3229 H3236 0.961 . S
C3229 H3237 0.960 . S
C3230 C3228 1.381 . S
C3230 C3231 1.394 . S
C3230 H3238 0.930 . S
C3231 C3230 1.394 . S
C3231 C3232 1.383 . S
C3231 H3239 0.929 . S
C3232 C3231 1.383 . S
C3232 C3233 1.377 . S
C3233 H3217 0.930 . S
C3233 C3232 1.377 . S
C3233 C3234 1.379 . S
C3234 H3218 0.931 . S
C3234 C3228 1.383 . S
C3234 C3233 1.379 . S
H3235 C3229 0.959 . S
H3236 C3229 0.961 . S
H3237 C3229 0.960 . S
H3238 C3230 0.930 . S
H3239 C3231 0.929 . S
H3240 C3248 0.929 . S
H3241 C3250 0.930 . S
H3242 C3252 0.930 . S
H3243 C3255 0.929 . S
H3244 C3258 0.930 . S
H3245 C3260 0.960 . S
H3246 C3260 0.960 . S
H3247 C3260 0.960 . S
C3248 H3240 0.929 . S
C3248 C3249 1.377 . S
C3248 C3250 1.384 . S
C3249 C3248 1.377 . S
C3249 C3255 1.390 . S
C3250 H3241 0.930 . S
C3250 C3248 1.384 . S
C3250 C3251 1.372 . S
C3251 C3250 1.372 . S
C3251 C3252 1.400 . S
C3251 C3256 1.490 . S
C3252 H3242 0.930 . S
C3252 C3251 1.400 . S
C3252 C3255 1.386 . S
H3253 C3269 0.930 . S
H3254 C3270 0.931 . S
C3255 H3243 0.929 . S
C3255 C3249 1.390 . S
C3255 C3252 1.386 . S
C3256 C3251 1.490 . S
C3256 C3258 1.395 . S
C3256 C3259 1.403 . S
H3257 C3263 0.930 . S
C3258 H3244 0.930 . S
C3258 C3256 1.395 . S
C3258 C3261 1.403 . S
C3259 C3256 1.403 . S
C3259 C3260 1.524 . S
C3259 C3263 1.400 . S
C3260 H3245 0.960 . S
C3260 H3246 0.960 . S
C3260 H3247 0.960 . S
C3260 C3259 1.524 . S
C3261 C3258 1.403 . S
C3261 C3262 1.392 . S
C3261 C3265 1.495 . S
C3262 C3261 1.392 . S
C3262 C3263 1.385 . S
C3262 C3264 1.478 . S
C3263 H3257 0.930 . S
C3263 C3259 1.400 . S
C3263 C3262 1.385 . S
C3264 C3262 1.478 . S
C3264 C3266 1.381 . S
C3264 C3270 1.383 . S
C3265 C3261 1.495 . S
C3265 H3271 0.959 . S
C3265 H3272 0.961 . S
C3265 H3273 0.960 . S
C3266 C3264 1.381 . S
C3266 C3267 1.394 . S
C3266 H3274 0.930 . S
C3267 C3266 1.394 . S
C3267 C3268 1.383 . S
C3267 H3275 0.929 . S
C3268 C3267 1.383 . S
C3268 C3269 1.377 . S
C3269 H3253 0.930 . S
C3269 C3268 1.377 . S
C3269 C3270 1.379 . S
C3270 H3254 0.931 . S
C3270 C3264 1.383 . S
C3270 C3269 1.379 . S
H3271 C3265 0.959 . S
H3272 C3265 0.961 . S
H3273 C3265 0.960 . S
H3274 C3266 0.930 . S
H3275 C3267 0.929 . S
H3276 C3284 0.929 . S
H3277 C3286 0.930 . S
H3278 C3288 0.930 . S
H3279 C3291 0.929 . S
H3280 C3294 0.930 . S
H3281 C3296 0.960 . S
H3282 C3296 0.960 . S
H3283 C3296 0.960 . S
C3284 H3276 0.929 . S
C3284 C3285 1.377 1_565 S
C3284 C3286 1.384 . S
C3285 C3284 1.377 1_545 S
C3285 C3291 1.390 . S
C3286 H3277 0.930 . S
C3286 C3284 1.384 . S
C3286 C3287 1.372 1_565 S
C3287 C3286 1.372 1_545 S
C3287 C3288 1.400 . S
C3287 C3292 1.490 . S
C3288 H3278 0.930 . S
C3288 C3287 1.400 . S
C3288 C3291 1.386 . S
H3289 C3305 0.930 . S
H3290 C3306 0.931 . S
C3291 H3279 0.929 . S
C3291 C3285 1.390 . S
C3291 C3288 1.386 . S
C3292 C3287 1.490 . S
C3292 C3294 1.395 1_545 S
C3292 C3295 1.403 . S
H3293 C3299 0.930 . S
C3294 H3280 0.930 . S
C3294 C3292 1.395 1_565 S
C3294 C3297 1.403 . S
C3295 C3292 1.403 . S
C3295 C3296 1.524 . S
C3295 C3299 1.400 . S
C3296 H3281 0.960 . S
C3296 H3282 0.960 . S
C3296 H3283 0.960 . S
C3296 C3295 1.524 . S
C3297 C3294 1.403 . S
C3297 C3298 1.392 1_565 S
C3297 C3301 1.495 . S
C3298 C3297 1.392 1_545 S
C3298 C3299 1.385 . S
C3298 C3300 1.478 . S
C3299 H3293 0.930 . S
C3299 C3295 1.400 . S
C3299 C3298 1.385 . S
C3300 C3298 1.478 . S
C3300 C3302 1.381 1_545 S
C3300 C3306 1.383 . S
C3301 C3297 1.495 . S
C3301 H3307 0.959 . S
C3301 H3308 0.961 . S
C3301 H3309 0.960 . S
C3302 C3300 1.381 1_565 S
C3302 C3303 1.394 . S
C3302 H3310 0.930 . S
C3303 C3302 1.394 . S
C3303 C3304 1.383 1_565 S
C3303 H3311 0.929 . S
C3304 C3303 1.383 1_545 S
C3304 C3305 1.377 . S
C3305 H3289 0.930 . S
C3305 C3304 1.377 . S
C3305 C3306 1.379 . S
C3306 H3290 0.931 . S
C3306 C3300 1.383 . S
C3306 C3305 1.379 . S
H3307 C3301 0.959 . S
H3308 C3301 0.961 . S
H3309 C3301 0.960 . S
H3310 C3302 0.930 . S
H3311 C3303 0.929 . S
H3312 C3320 0.929 . S
H3313 C3322 0.930 . S
H3314 C3324 0.930 . S
H3315 C3327 0.929 . S
H3316 C3330 0.930 . S
H3317 C3332 0.960 . S
H3318 C3332 0.960 1_455 S
H3319 C3332 0.960 . S
C3320 H3312 0.929 . S
C3320 C3321 1.377 1_455 S
C3320 C3322 1.384 . S
C3321 C3320 1.377 1_655 S
C3321 C3327 1.390 . S
C3322 H3313 0.930 . S
C3322 C3320 1.384 . S
C3322 C3323 1.372 1_455 S
C3323 C3322 1.372 1_655 S
C3323 C3324 1.400 . S
C3323 C3328 1.490 . S
C3324 H3314 0.930 . S
C3324 C3323 1.400 . S
C3324 C3327 1.386 . S
H3325 C3341 0.930 . S
H3326 C3342 0.931 . S
C3327 H3315 0.929 . S
C3327 C3321 1.390 . S
C3327 C3324 1.386 . S
C3328 C3323 1.490 . S
C3328 C3330 1.395 . S
C3328 C3331 1.403 . S
H3329 C3335 0.930 . S
C3330 H3316 0.930 . S
C3330 C3328 1.395 . S
C3330 C3333 1.403 . S
C3331 C3328 1.403 . S
C3331 C3332 1.524 . S
C3331 C3335 1.400 . S
C3332 H3317 0.960 . S
C3332 H3318 0.960 1_655 S
C3332 H3319 0.960 . S
C3332 C3331 1.524 . S
C3333 C3330 1.403 . S
C3333 C3334 1.392 . S
C3333 C3337 1.495 . S
C3334 C3333 1.392 . S
C3334 C3335 1.385 . S
C3334 C3336 1.478 . S
C3335 H3329 0.930 . S
C3335 C3331 1.400 . S
C3335 C3334 1.385 . S
C3336 C3334 1.478 . S
C3336 C3338 1.381 1_655 S
C3336 C3342 1.383 . S
C3337 C3333 1.495 . S
C3337 H3343 0.959 . S
C3337 H3344 0.961 . S
C3337 H3345 0.960 1_655 S
C3338 C3336 1.381 1_455 S
C3338 C3339 1.394 . S
C3338 H3346 0.930 . S
C3339 C3338 1.394 . S
C3339 C3340 1.383 1_455 S
C3339 H3347 0.929 . S
C3340 C3339 1.383 1_655 S
C3340 C3341 1.377 . S
C3341 H3325 0.930 . S
C3341 C3340 1.377 . S
C3341 C3342 1.379 . S
C3342 H3326 0.931 . S
C3342 C3336 1.383 . S
C3342 C3341 1.379 . S
H3343 C3337 0.959 . S
H3344 C3337 0.961 . S
H3345 C3337 0.960 1_455 S
H3346 C3338 0.930 . S
H3347 C3339 0.929 . S
H3348 C3356 0.929 . S
H3349 C3358 0.930 . S
H3350 C3360 0.930 . S
H3351 C3363 0.929 . S
H3352 C3366 0.930 . S
H3353 C3368 0.960 . S
H3354 C3368 0.960 . S
H3355 C3368 0.960 . S
C3356 H3348 0.929 . S
C3356 C3357 1.377 . S
C3356 C3358 1.384 . S
C3357 C3356 1.377 . S
C3357 C3363 1.390 . S
C3358 H3349 0.930 . S
C3358 C3356 1.384 . S
C3358 C3359 1.372 . S
C3359 C3358 1.372 . S
C3359 C3360 1.400 . S
C3359 C3364 1.490 . S
C3360 H3350 0.930 . S
C3360 C3359 1.400 . S
C3360 C3363 1.386 . S
H3361 C3377 0.930 . S
H3362 C3378 0.931 . S
C3363 H3351 0.929 . S
C3363 C3357 1.390 . S
C3363 C3360 1.386 . S
C3364 C3359 1.490 . S
C3364 C3366 1.395 . S
C3364 C3367 1.403 . S
H3365 C3371 0.930 . S
C3366 H3352 0.930 . S
C3366 C3364 1.395 . S
C3366 C3369 1.403 . S
C3367 C3364 1.403 . S
C3367 C3368 1.524 . S
C3367 C3371 1.400 . S
C3368 H3353 0.960 . S
C3368 H3354 0.960 . S
C3368 H3355 0.960 . S
C3368 C3367 1.524 . S
C3369 C3366 1.403 . S
C3369 C3370 1.392 . S
C3369 C3373 1.495 . S
C3370 C3369 1.392 . S
C3370 C3371 1.385 . S
C3370 C3372 1.478 . S
C3371 H3365 0.930 . S
C3371 C3367 1.400 . S
C3371 C3370 1.385 . S
C3372 C3370 1.478 . S
C3372 C3374 1.381 . S
C3372 C3378 1.383 . S
C3373 C3369 1.495 . S
C3373 H3379 0.959 . S
C3373 H3380 0.961 . S
C3373 H3381 0.960 . S
C3374 C3372 1.381 . S
C3374 C3375 1.394 . S
C3374 H3382 0.930 . S
C3375 C3374 1.394 . S
C3375 C3376 1.383 . S
C3375 H3383 0.929 . S
C3376 C3375 1.383 . S
C3376 C3377 1.377 . S
C3377 H3361 0.930 . S
C3377 C3376 1.377 . S
C3377 C3378 1.379 . S
C3378 H3362 0.931 . S
C3378 C3372 1.383 . S
C3378 C3377 1.379 . S
H3379 C3373 0.959 . S
H3380 C3373 0.961 . S
H3381 C3373 0.960 . S
H3382 C3374 0.930 . S
H3383 C3375 0.929 . S
H3384 C3392 0.929 . S
H3385 C3394 0.930 . S
H3386 C3396 0.930 . S
H3387 C3399 0.929 . S
H3388 C3402 0.930 . S
H3389 C3404 0.960 . S
H3390 C3404 0.960 . S
H3391 C3404 0.960 . S
C3392 H3384 0.929 . S
C3392 C3393 1.377 . S
C3392 C3394 1.384 . S
C3393 C3392 1.377 . S
C3393 C3399 1.390 . S
C3394 H3385 0.930 . S
C3394 C3392 1.384 . S
C3394 C3395 1.372 . S
C3395 C3394 1.372 . S
C3395 C3396 1.400 . S
C3395 C3400 1.490 . S
C3396 H3386 0.930 . S
C3396 C3395 1.400 . S
C3396 C3399 1.386 . S
H3397 C3413 0.930 . S
H3398 C3414 0.931 . S
C3399 H3387 0.929 . S
C3399 C3393 1.390 . S
C3399 C3396 1.386 . S
C3400 C3395 1.490 . S
C3400 C3402 1.395 . S
C3400 C3403 1.403 . S
H3401 C3407 0.930 . S
C3402 H3388 0.930 . S
C3402 C3400 1.395 . S
C3402 C3405 1.403 . S
C3403 C3400 1.403 . S
C3403 C3404 1.524 . S
C3403 C3407 1.400 . S
C3404 H3389 0.960 . S
C3404 H3390 0.960 . S
C3404 H3391 0.960 . S
C3404 C3403 1.524 . S
C3405 C3402 1.403 . S
C3405 C3406 1.392 . S
C3405 C3409 1.495 . S
C3406 C3405 1.392 . S
C3406 C3407 1.385 . S
C3406 C3408 1.478 . S
C3407 H3401 0.930 . S
C3407 C3403 1.400 . S
C3407 C3406 1.385 . S
C3408 C3406 1.478 . S
C3408 C3410 1.381 . S
C3408 C3414 1.383 . S
C3409 C3405 1.495 . S
C3409 H3415 0.959 . S
C3409 H3416 0.961 . S
C3409 H3417 0.960 . S
C3410 C3408 1.381 . S
C3410 C3411 1.394 . S
C3410 H3418 0.930 . S
C3411 C3410 1.394 . S
C3411 C3412 1.383 . S
C3411 H3419 0.929 . S
C3412 C3411 1.383 . S
C3412 C3413 1.377 . S
C3413 H3397 0.930 . S
C3413 C3412 1.377 . S
C3413 C3414 1.379 . S
C3414 H3398 0.931 . S
C3414 C3408 1.383 . S
C3414 C3413 1.379 . S
H3415 C3409 0.959 . S
H3416 C3409 0.961 . S
H3417 C3409 0.960 . S
H3418 C3410 0.930 . S
H3419 C3411 0.929 . S
H3420 C3428 0.929 . S
H3421 C3430 0.930 . S
H3422 C3432 0.930 . S
H3423 C3435 0.929 . S
H3424 C3438 0.930 . S
H3425 C3440 0.960 . S
H3426 C3440 0.960 . S
H3427 C3440 0.960 . S
C3428 H3420 0.929 . S
C3428 C3429 1.377 . S
C3428 C3430 1.384 . S
C3429 C3428 1.377 . S
C3429 C3435 1.390 . S
C3430 H3421 0.930 . S
C3430 C3428 1.384 . S
C3430 C3431 1.372 . S
C3431 C3430 1.372 . S
C3431 C3432 1.400 . S
C3431 C3436 1.490 . S
C3432 H3422 0.930 . S
C3432 C3431 1.400 . S
C3432 C3435 1.386 . S
H3433 C3449 0.930 . S
H3434 C3450 0.931 . S
C3435 H3423 0.929 . S
C3435 C3429 1.390 . S
C3435 C3432 1.386 . S
C3436 C3431 1.490 . S
C3436 C3438 1.395 . S
C3436 C3439 1.403 . S
H3437 C3443 0.930 . S
C3438 H3424 0.930 . S
C3438 C3436 1.395 . S
C3438 C3441 1.403 . S
C3439 C3436 1.403 . S
C3439 C3440 1.524 . S
C3439 C3443 1.400 . S
C3440 H3425 0.960 . S
C3440 H3426 0.960 . S
C3440 H3427 0.960 . S
C3440 C3439 1.524 . S
C3441 C3438 1.403 . S
C3441 C3442 1.392 . S
C3441 C3445 1.495 . S
C3442 C3441 1.392 . S
C3442 C3443 1.385 . S
C3442 C3444 1.478 . S
C3443 H3437 0.930 . S
C3443 C3439 1.400 . S
C3443 C3442 1.385 . S
C3444 C3442 1.478 . S
C3444 C3446 1.381 . S
C3444 C3450 1.383 . S
C3445 C3441 1.495 . S
C3445 H3451 0.959 . S
C3445 H3452 0.961 . S
C3445 H3453 0.960 . S
C3446 C3444 1.381 . S
C3446 C3447 1.394 . S
C3446 H3454 0.930 . S
C3447 C3446 1.394 . S
C3447 C3448 1.383 . S
C3447 H3455 0.929 . S
C3448 C3447 1.383 . S
C3448 C3449 1.377 . S
C3449 H3433 0.930 . S
C3449 C3448 1.377 . S
C3449 C3450 1.379 . S
C3450 H3434 0.931 . S
C3450 C3444 1.383 . S
C3450 C3449 1.379 . S
H3451 C3445 0.959 . S
H3452 C3445 0.961 . S
H3453 C3445 0.960 . S
H3454 C3446 0.930 . S
H3455 C3447 0.929 . S
H3456 C3464 0.929 . S
H3457 C3466 0.930 . S
H3458 C3468 0.930 . S
H3459 C3471 0.929 . S
H3460 C3474 0.930 . S
H3461 C3476 0.960 . S
H3462 C3476 0.960 . S
H3463 C3476 0.960 . S
C3464 H3456 0.929 . S
C3464 C3465 1.377 . S
C3464 C3466 1.384 . S
C3465 C3464 1.377 . S
C3465 C3471 1.390 . S
C3466 H3457 0.930 . S
C3466 C3464 1.384 . S
C3466 C3467 1.372 . S
C3467 C3466 1.372 . S
C3467 C3468 1.400 . S
C3467 C3472 1.490 . S
C3468 H3458 0.930 . S
C3468 C3467 1.400 . S
C3468 C3471 1.386 . S
H3469 C3485 0.930 . S
H3470 C3486 0.931 . S
C3471 H3459 0.929 . S
C3471 C3465 1.390 . S
C3471 C3468 1.386 . S
C3472 C3467 1.490 . S
C3472 C3474 1.395 . S
C3472 C3475 1.403 . S
H3473 C3479 0.930 . S
C3474 H3460 0.930 . S
C3474 C3472 1.395 . S
C3474 C3477 1.403 . S
C3475 C3472 1.403 . S
C3475 C3476 1.524 . S
C3475 C3479 1.400 . S
C3476 H3461 0.960 . S
C3476 H3462 0.960 . S
C3476 H3463 0.960 . S
C3476 C3475 1.524 . S
C3477 C3474 1.403 . S
C3477 C3478 1.392 . S
C3477 C3481 1.495 . S
C3478 C3477 1.392 . S
C3478 C3479 1.385 . S
C3478 C3480 1.478 . S
C3479 H3473 0.930 . S
C3479 C3475 1.400 . S
C3479 C3478 1.385 . S
C3480 C3478 1.478 . S
C3480 C3482 1.381 . S
C3480 C3486 1.383 . S
C3481 C3477 1.495 . S
C3481 H3487 0.959 . S
C3481 H3488 0.961 . S
C3481 H3489 0.960 . S
C3482 C3480 1.381 . S
C3482 C3483 1.394 . S
C3482 H3490 0.930 . S
C3483 C3482 1.394 . S
C3483 C3484 1.383 . S
C3483 H3491 0.929 . S
C3484 C3483 1.383 . S
C3484 C3485 1.377 . S
C3485 H3469 0.930 . S
C3485 C3484 1.377 . S
C3485 C3486 1.379 . S
C3486 H3470 0.931 . S
C3486 C3480 1.383 . S
C3486 C3485 1.379 . S
H3487 C3481 0.959 . S
H3488 C3481 0.961 . S
H3489 C3481 0.960 . S
H3490 C3482 0.930 . S
H3491 C3483 0.929 . S
H3492 C3500 0.929 . S
H3493 C3502 0.930 . S
H3494 C3504 0.930 . S
H3495 C3507 0.929 . S
H3496 C3510 0.930 . S
H3497 C3512 0.960 . S
H3498 C3512 0.960 . S
H3499 C3512 0.960 . S
C3500 H3492 0.929 . S
C3500 C3501 1.377 . S
C3500 C3502 1.384 . S
C3501 C3500 1.377 . S
C3501 C3507 1.390 . S
C3502 H3493 0.930 . S
C3502 C3500 1.384 . S
C3502 C3503 1.372 . S
C3503 C3502 1.372 . S
C3503 C3504 1.400 . S
C3503 C3508 1.490 . S
C3504 H3494 0.930 . S
C3504 C3503 1.400 . S
C3504 C3507 1.386 . S
H3505 C3521 0.930 . S
H3506 C3522 0.931 . S
C3507 H3495 0.929 . S
C3507 C3501 1.390 . S
C3507 C3504 1.386 . S
C3508 C3503 1.490 . S
C3508 C3510 1.395 . S
C3508 C3511 1.403 . S
H3509 C3515 0.930 . S
C3510 H3496 0.930 . S
C3510 C3508 1.395 . S
C3510 C3513 1.403 . S
C3511 C3508 1.403 . S
C3511 C3512 1.524 . S
C3511 C3515 1.400 . S
C3512 H3497 0.960 . S
C3512 H3498 0.960 . S
C3512 H3499 0.960 . S
C3512 C3511 1.524 . S
C3513 C3510 1.403 . S
C3513 C3514 1.392 . S
C3513 C3517 1.495 . S
C3514 C3513 1.392 . S
C3514 C3515 1.385 . S
C3514 C3516 1.478 . S
C3515 H3509 0.930 . S
C3515 C3511 1.400 . S
C3515 C3514 1.385 . S
C3516 C3514 1.478 . S
C3516 C3518 1.381 . S
C3516 C3522 1.383 . S
C3517 C3513 1.495 . S
C3517 H3523 0.959 . S
C3517 H3524 0.961 . S
C3517 H3525 0.960 . S
C3518 C3516 1.381 . S
C3518 C3519 1.394 . S
C3518 H3526 0.930 . S
C3519 C3518 1.394 . S
C3519 C3520 1.383 . S
C3519 H3527 0.929 . S
C3520 C3519 1.383 . S
C3520 C3521 1.377 . S
C3521 H3505 0.930 . S
C3521 C3520 1.377 . S
C3521 C3522 1.379 . S
C3522 H3506 0.931 . S
C3522 C3516 1.383 . S
C3522 C3521 1.379 . S
H3523 C3517 0.959 . S
H3524 C3517 0.961 . S
H3525 C3517 0.960 . S
H3526 C3518 0.930 . S
H3527 C3519 0.929 . S
H3528 C3536 0.929 . S
H3529 C3538 0.930 . S
H3530 C3540 0.930 . S
H3531 C3543 0.929 . S
H3532 C3546 0.930 . S
H3533 C3548 0.960 . S
H3534 C3548 0.960 . S
H3535 C3548 0.960 . S
C3536 H3528 0.929 . S
C3536 C3537 1.377 . S
C3536 C3538 1.384 . S
C3537 C3536 1.377 . S
C3537 C3543 1.390 . S
C3538 H3529 0.930 . S
C3538 C3536 1.384 . S
C3538 C3539 1.372 . S
C3539 C3538 1.372 . S
C3539 C3540 1.400 . S
C3539 C3544 1.490 . S
C3540 H3530 0.930 . S
C3540 C3539 1.400 . S
C3540 C3543 1.386 . S
H3541 C3557 0.930 . S
H3542 C3558 0.931 . S
C3543 H3531 0.929 . S
C3543 C3537 1.390 . S
C3543 C3540 1.386 . S
C3544 C3539 1.490 . S
C3544 C3546 1.395 . S
C3544 C3547 1.403 . S
H3545 C3551 0.930 . S
C3546 H3532 0.930 . S
C3546 C3544 1.395 . S
C3546 C3549 1.403 . S
C3547 C3544 1.403 . S
C3547 C3548 1.524 . S
C3547 C3551 1.400 . S
C3548 H3533 0.960 . S
C3548 H3534 0.960 . S
C3548 H3535 0.960 . S
C3548 C3547 1.524 . S
C3549 C3546 1.403 . S
C3549 C3550 1.392 . S
C3549 C3553 1.495 . S
C3550 C3549 1.392 . S
C3550 C3551 1.385 . S
C3550 C3552 1.478 . S
C3551 H3545 0.930 . S
C3551 C3547 1.400 . S
C3551 C3550 1.385 . S
C3552 C3550 1.478 . S
C3552 C3554 1.381 . S
C3552 C3558 1.383 . S
C3553 C3549 1.495 . S
C3553 H3559 0.959 . S
C3553 H3560 0.961 . S
C3553 H3561 0.960 . S
C3554 C3552 1.381 . S
C3554 C3555 1.394 . S
C3554 H3562 0.930 . S
C3555 C3554 1.394 . S
C3555 C3556 1.383 . S
C3555 H3563 0.929 . S
C3556 C3555 1.383 . S
C3556 C3557 1.377 . S
C3557 H3541 0.930 . S
C3557 C3556 1.377 . S
C3557 C3558 1.379 . S
C3558 H3542 0.931 . S
C3558 C3552 1.383 . S
C3558 C3557 1.379 . S
H3559 C3553 0.959 . S
H3560 C3553 0.961 . S
H3561 C3553 0.960 . S
H3562 C3554 0.930 . S
H3563 C3555 0.929 . S
H3564 C3572 0.929 . S
H3565 C3574 0.930 . S
H3566 C3576 0.930 . S
H3567 C3579 0.929 . S
H3568 C3582 0.930 . S
H3569 C3584 0.960 . S
H3570 C3584 0.960 . S
H3571 C3584 0.960 . S
C3572 H3564 0.929 . S
C3572 C3573 1.377 . S
C3572 C3574 1.384 . S
C3573 C3572 1.377 . S
C3573 C3579 1.390 . S
C3574 H3565 0.930 . S
C3574 C3572 1.384 . S
C3574 C3575 1.372 . S
C3575 C3574 1.372 . S
C3575 C3576 1.400 . S
C3575 C3580 1.490 . S
C3576 H3566 0.930 . S
C3576 C3575 1.400 . S
C3576 C3579 1.386 . S
H3577 C3593 0.930 . S
H3578 C3594 0.931 . S
C3579 H3567 0.929 . S
C3579 C3573 1.390 . S
C3579 C3576 1.386 . S
C3580 C3575 1.490 . S
C3580 C3582 1.395 . S
C3580 C3583 1.403 . S
H3581 C3587 0.930 . S
C3582 H3568 0.930 . S
C3582 C3580 1.395 . S
C3582 C3585 1.403 . S
C3583 C3580 1.403 . S
C3583 C3584 1.524 . S
C3583 C3587 1.400 . S
C3584 H3569 0.960 . S
C3584 H3570 0.960 . S
C3584 H3571 0.960 . S
C3584 C3583 1.524 . S
C3585 C3582 1.403 . S
C3585 C3586 1.392 . S
C3585 C3589 1.495 . S
C3586 C3585 1.392 . S
C3586 C3587 1.385 . S
C3586 C3588 1.478 . S
C3587 H3581 0.930 . S
C3587 C3583 1.400 . S
C3587 C3586 1.385 . S
C3588 C3586 1.478 . S
C3588 C3590 1.381 . S
C3588 C3594 1.383 . S
C3589 C3585 1.495 . S
C3589 H3595 0.959 . S
C3589 H3596 0.961 . S
C3589 H3597 0.960 . S
C3590 C3588 1.381 . S
C3590 C3591 1.394 . S
C3590 H3598 0.930 . S
C3591 C3590 1.394 . S
C3591 C3592 1.383 . S
C3591 H3599 0.929 . S
C3592 C3591 1.383 . S
C3592 C3593 1.377 . S
C3593 H3577 0.930 . S
C3593 C3592 1.377 . S
C3593 C3594 1.379 . S
C3594 H3578 0.931 . S
C3594 C3588 1.383 . S
C3594 C3593 1.379 . S
H3595 C3589 0.959 . S
H3596 C3589 0.961 . S
H3597 C3589 0.960 . S
H3598 C3590 0.930 . S
H3599 C3591 0.929 . S
H3600 C3608 0.929 . S
H3601 C3610 0.930 . S
H3602 C3612 0.930 . S
H3603 C3615 0.929 . S
H3604 C3618 0.930 . S
H3605 C3620 0.960 . S
H3606 C3620 0.960 . S
H3607 C3620 0.960 . S
C3608 H3600 0.929 . S
C3608 C3609 1.377 1_455 S
C3608 C3610 1.384 . S
C3609 C3608 1.377 1_655 S
C3609 C3615 1.390 . S
C3610 H3601 0.930 . S
C3610 C3608 1.384 . S
C3610 C3611 1.372 1_455 S
C3611 C3610 1.372 1_655 S
C3611 C3612 1.400 . S
C3611 C3616 1.490 . S
C3612 H3602 0.930 . S
C3612 C3611 1.400 . S
C3612 C3615 1.386 . S
H3613 C3629 0.930 . S
H3614 C3630 0.931 . S
C3615 H3603 0.929 . S
C3615 C3609 1.390 . S
C3615 C3612 1.386 . S
C3616 C3611 1.490 . S
C3616 C3618 1.395 1_655 S
C3616 C3619 1.403 . S
H3617 C3623 0.930 . S
C3618 H3604 0.930 . S
C3618 C3616 1.395 1_455 S
C3618 C3621 1.403 . S
C3619 C3616 1.403 . S
C3619 C3620 1.524 . S
C3619 C3623 1.400 . S
C3620 H3605 0.960 . S
C3620 H3606 0.960 . S
C3620 H3607 0.960 . S
C3620 C3619 1.524 . S
C3621 C3618 1.403 . S
C3621 C3622 1.392 1_455 S
C3621 C3625 1.495 . S
C3622 C3621 1.392 1_655 S
C3622 C3623 1.385 . S
C3622 C3624 1.478 . S
C3623 H3617 0.930 . S
C3623 C3619 1.400 . S
C3623 C3622 1.385 . S
C3624 C3622 1.478 . S
C3624 C3626 1.381 1_655 S
C3624 C3630 1.383 . S
C3625 C3621 1.495 . S
C3625 H3631 0.959 . S
C3625 H3632 0.961 . S
C3625 H3633 0.960 . S
C3626 C3624 1.381 1_455 S
C3626 C3627 1.394 . S
C3626 H3634 0.930 . S
C3627 C3626 1.394 . S
C3627 C3628 1.383 1_455 S
C3627 H3635 0.929 . S
C3628 C3627 1.383 1_655 S
C3628 C3629 1.377 . S
C3629 H3613 0.930 . S
C3629 C3628 1.377 . S
C3629 C3630 1.379 . S
C3630 H3614 0.931 . S
C3630 C3624 1.383 . S
C3630 C3629 1.379 . S
H3631 C3625 0.959 . S
H3632 C3625 0.961 . S
H3633 C3625 0.960 . S
H3634 C3626 0.930 . S
H3635 C3627 0.929 . S
H3636 C3644 0.929 . S
H3637 C3646 0.930 . S
H3638 C3648 0.930 . S
H3639 C3651 0.929 . S
H3640 C3654 0.930 . S
H3641 C3656 0.960 . S
H3642 C3656 0.960 . S
H3643 C3656 0.960 . S
C3644 H3636 0.929 . S
C3644 C3645 1.377 . S
C3644 C3646 1.384 . S
C3645 C3644 1.377 . S
C3645 C3651 1.390 . S
C3646 H3637 0.930 . S
C3646 C3644 1.384 . S
C3646 C3647 1.372 . S
C3647 C3646 1.372 . S
C3647 C3648 1.400 . S
C3647 C3652 1.490 . S
C3648 H3638 0.930 . S
C3648 C3647 1.400 . S
C3648 C3651 1.386 . S
H3649 C3665 0.930 . S
H3650 C3666 0.931 . S
C3651 H3639 0.929 . S
C3651 C3645 1.390 . S
C3651 C3648 1.386 . S
C3652 C3647 1.490 . S
C3652 C3654 1.395 . S
C3652 C3655 1.403 . S
H3653 C3659 0.930 . S
C3654 H3640 0.930 . S
C3654 C3652 1.395 . S
C3654 C3657 1.403 . S
C3655 C3652 1.403 . S
C3655 C3656 1.524 . S
C3655 C3659 1.400 . S
C3656 H3641 0.960 . S
C3656 H3642 0.960 . S
C3656 H3643 0.960 . S
C3656 C3655 1.524 . S
C3657 C3654 1.403 . S
C3657 C3658 1.392 . S
C3657 C3661 1.495 . S
C3658 C3657 1.392 . S
C3658 C3659 1.385 . S
C3658 C3660 1.478 . S
C3659 H3653 0.930 . S
C3659 C3655 1.400 . S
C3659 C3658 1.385 . S
C3660 C3658 1.478 . S
C3660 C3662 1.381 . S
C3660 C3666 1.383 . S
C3661 C3657 1.495 . S
C3661 H3667 0.959 . S
C3661 H3668 0.961 . S
C3661 H3669 0.960 . S
C3662 C3660 1.381 . S
C3662 C3663 1.394 . S
C3662 H3670 0.930 . S
C3663 C3662 1.394 . S
C3663 C3664 1.383 . S
C3663 H3671 0.929 . S
C3664 C3663 1.383 . S
C3664 C3665 1.377 . S
C3665 H3649 0.930 . S
C3665 C3664 1.377 . S
C3665 C3666 1.379 . S
C3666 H3650 0.931 . S
C3666 C3660 1.383 . S
C3666 C3665 1.379 . S
H3667 C3661 0.959 . S
H3668 C3661 0.961 . S
H3669 C3661 0.960 . S
H3670 C3662 0.930 . S
H3671 C3663 0.929 . S
H3672 C3680 0.929 . S
H3673 C3682 0.930 . S
H3674 C3684 0.913 1_565 S
H3675 C3687 0.941 . S
H3676 C3690 0.969 . S
H3677 C3692 0.960 . S
H3678 C3692 0.960 . S
H3679 C3692 0.960 . S
C3680 H3672 0.929 . S
C3680 C3681 1.377 . S
C3680 C3682 1.384 . S
C3681 C3680 1.377 . S
C3681 C3687 1.390 . S
C3682 H3673 0.930 . S
C3682 C3680 1.384 . S
C3682 C3683 1.372 . S
C3683 C3682 1.372 . S
C3683 C3684 1.400 . S
C3683 C3688 1.490 . S
C3684 H3674 0.913 1_545 S
C3684 C3683 1.400 . S
C3684 C3687 1.386 . S
H3685 C3701 0.930 . S
H3686 C3702 0.931 . S
C3687 H3675 0.941 . S
C3687 C3681 1.390 . S
C3687 C3684 1.386 . S
C3688 C3683 1.490 . S
C3688 C3690 1.390 1_545 S
C3688 C3691 1.403 . S
H3689 C3695 0.930 . S
C3690 H3676 0.969 . S
C3690 C3688 1.390 1_565 S
C3690 C3693 1.378 . S
C3691 C3688 1.403 . S
C3691 C3692 1.524 . S
C3691 C3695 1.400 . S
C3692 H3677 0.960 . S
C3692 H3678 0.960 . S
C3692 H3679 0.960 . S
C3692 C3691 1.524 . S
C3693 C3690 1.378 . S
C3693 C3694 1.392 1_565 S
C3693 C3697 1.495 . S
C3694 C3693 1.392 1_545 S
C3694 C3695 1.385 . S
C3694 C3696 1.478 . S
C3695 H3689 0.930 . S
C3695 C3691 1.400 . S
C3695 C3694 1.385 . S
C3696 C3694 1.478 . S
C3696 C3698 1.381 . S
C3696 C3702 1.383 1_545 S
C3697 C3693 1.495 . S
C3697 H3703 0.959 . S
C3697 H3704 0.961 . S
C3697 H3705 0.960 . S
C3698 C3696 1.381 . S
C3698 C3699 1.394 . S
C3698 H3706 0.930 . S
C3699 C3698 1.394 . S
C3699 C3700 1.383 . S
C3699 H3707 0.929 . S
C3700 C3699 1.383 . S
C3700 C3701 1.377 1_545 S
C3701 H3685 0.930 . S
C3701 C3700 1.377 1_565 S
C3701 C3702 1.379 . S
C3702 H3686 0.931 . S
C3702 C3696 1.383 1_565 S
C3702 C3701 1.379 . S
H3703 C3697 0.959 . S
H3704 C3697 0.961 . S
H3705 C3697 0.960 . S
H3706 C3698 0.930 . S
H3707 C3699 0.929 . S
C1125 C8 1.482 . S
C1144 C729 1.549 . S
C1161 C22 1.554 . S
C1180 C777 1.569 . S
C1216 C825 1.502 . S
C1197 C37 1.489 1_545 S
C1233 C36 1.487 1_565 S
C1252 C849 1.505 . S
C1269 C9 1.489 1_455 S
C1288 C921 1.513 . S
C1305 C23 1.553 . S
C1324 C969 1.568 . S
C1341 C50 1.483 1_455 S
C1360 C897 1.495 . S
C1396 C945 1.571 . S
C1377 C64 1.552 . S
C1432 C873 1.533 . S
C1413 C79 1.500 1_565 S
C1449 C78 1.482 1_545 S
C1468 C801 1.494 . S
C1504 C705 1.521 . S
C1485 C51 1.506 1_655 S
C1521 C65 1.554 . S
C1540 C753 1.565 . S
C1557 C92 1.597 . S
C1576 C1017 1.607 . S
C1593 C106 1.603 . S
C1612 C1065 1.611 . S
C1648 C1089 1.590 . S
C1629 C121 1.579 . S
C1665 C120 1.541 . S
C1684 C273 1.551 . S
C1701 C93 1.564 . S
C1720 C345 1.573 . S
C1737 C107 1.567 . S
C1756 C393 1.573 . S
C1773 C134 1.532 . S
C1792 C321 1.552 . S
C1809 C148 1.576 . S
C1828 C369 1.583 . S
C1864 C297 1.561 . S
C1845 C163 1.560 . S
C1900 C1113 1.595 . S
C1881 C162 1.594 . S
C1936 C993 1.587 . S
C1917 C135 1.572 . S
C1972 C1041 1.612 . S
C1953 C149 1.609 . S
C1989 C176 1.535 . S
C2008 C441 1.547 . S
C2025 C190 1.571 . S
C2044 C489 1.585 . S
C2061 C205 1.564 . S
C2080 C513 1.576 . S
C2097 C204 1.597 . S
C2116 C561 1.595 . S
C2152 C633 1.589 . S
C2133 C177 1.577 . S
C2188 C681 1.606 . S
C2169 C191 1.602 . S
C2224 C609 1.617 . S
C2205 C218 1.598 . S
C2260 C657 1.620 . S
C2241 C232 1.608 . S
C2277 C247 1.574 . S
C2296 C585 1.549 . S
C2332 C537 1.528 . S
C2313 C246 1.534 . S
C2349 C219 1.564 . S
C2368 C417 1.583 . S
C2404 C465 1.588 . S
C2385 C233 1.573 . S
C2440 C282 1.545 . S
C2421 C6 1.519 . S
C2457 C20 1.483 . S
C2476 C336 1.496 . S
C2512 C384 1.534 . S
C2493 C35 1.523 . S
C2548 C432 1.534 . S
C2529 C34 1.528 . S
C2584 C480 1.526 . S
C2565 C7 1.525 . S
C2620 C522 1.504 . S
C2601 C21 1.478 . S
C2637 C48 1.533 . S
C2656 C528 1.552 . S
C2673 C62 1.477 . S
C2692 C426 1.504 . S
C2709 C77 1.517 . S
C2728 C474 1.532 . S
C2745 C76 1.523 . S
C2764 C330 1.556 . S
C2800 C378 1.539 . S
C2781 C49 1.520 . S
C2817 C63 1.479 . S
C2836 C288 1.509 . S
C2872 C570 1.538 . S
C2853 C90 1.512 . S
C2889 C104 1.547 . S
C2908 C624 1.569 . S
C2925 C119 1.555 . S
C2944 C672 1.580 . S
C2980 C720 1.488 . S
C2961 C118 1.451 . S
C2997 C91 1.515 . S
C3016 C768 1.541 . S
C3033 C105 1.455 . S
C3052 C816 1.495 . S
C3069 C132 1.452 . S
C3088 C810 1.488 . S
C3105 C146 1.459 . S
C3124 C714 1.508 . S
C3160 C762 1.516 . S
C3141 C161 1.521 . S
C3177 C160 1.515 . S
C3196 C618 1.508 . S
C3213 C133 1.549 . S
C3232 C666 1.578 . S
C3268 C576 1.583 . S
C3249 C147 1.548 . S
C3304 C858 1.518 . S
C3285 C174 1.452 . S
C3321 C188 1.464 . S
C3340 C912 1.503 . S
C3357 C203 1.524 . S
C3376 C960 1.543 . S
C3412 C1008 1.537 . S
C3393 C202 1.511 . S
C3448 C1056 1.579 . S
C3429 C175 1.559 . S
C3465 C189 1.546 . S
C3484 C1098 1.578 . S
C3501 C216 1.512 . S
C3520 C1104 1.543 . S
C3537 C230 1.548 . S
C3556 C1002 1.576 . S
C3592 C1050 1.578 . S
C3573 C245 1.548 . S
C3628 C906 1.489 . S
C3609 C244 1.448 . S
C3664 C954 1.541 . S
C3645 C217 1.516 . S
C3681 C231 1.459 . S
C3700 C864 1.506 . S
