# Generated by pormake.
# Topology eea, (3,6)-cn, num edge types: 1
# Building blocks:
#     Node 0, Type 0, BuildingBlock: BELTOD_clean_linker_0, # of connection points: 3
#     Node 1, Type 0, BuildingBlock: BELTOD_clean_linker_0, # of connection points: 3
#     Node 2, Type 0, BuildingBlock: BELTOD_clean_linker_0, # of connection points: 3
#     Node 3, Type 0, BuildingBlock: BELTOD_clean_linker_0, # of connection points: 3
#     Node 4, Type 0, BuildingBlock: BELTOD_clean_linker_0, # of connection points: 3
#     Node 5, Type 0, BuildingBlock: BELTOD_clean_linker_0, # of connection points: 3
#     Node 6, Type 0, BuildingBlock: BELTOD_clean_linker_0, # of connection points: 3
#     Node 7, Type 0, BuildingBlock: BELTOD_clean_linker_0, # of connection points: 3
#     Node 8, Type 0, BuildingBlock: BELTOD_clean_linker_0, # of connection points: 3
#     Node 9, Type 0, BuildingBlock: BELTOD_clean_linker_0, # of connection points: 3
#     Node 10, Type 0, BuildingBlock: BELTOD_clean_linker_0, # of connection points: 3
#     Node 11, Type 0, BuildingBlock: BELTOD_clean_linker_0, # of connection points: 3
#     Node 12, Type 0, BuildingBlock: BELTOD_clean_linker_0, # of connection points: 3
#     Node 13, Type 0, BuildingBlock: BELTOD_clean_linker_0, # of connection points: 3
#     Node 14, Type 0, BuildingBlock: BELTOD_clean_linker_0, # of connection points: 3
#     Node 15, Type 0, BuildingBlock: BELTOD_clean_linker_0, # of connection points: 3
#     Node 16, Type 0, BuildingBlock: BELTOD_clean_linker_0, # of connection points: 3
#     Node 17, Type 0, BuildingBlock: BELTOD_clean_linker_0, # of connection points: 3
#     Node 18, Type 1, BuildingBlock: CUWYAW_clean_sbu_0, # of connection points: 6
#     Node 19, Type 1, BuildingBlock: CUWYAW_clean_sbu_0, # of connection points: 6
#     Node 20, Type 1, BuildingBlock: CUWYAW_clean_sbu_0, # of connection points: 6
#     Node 21, Type 1, BuildingBlock: CUWYAW_clean_sbu_0, # of connection points: 6
#     Node 22, Type 1, BuildingBlock: CUWYAW_clean_sbu_0, # of connection points: 6
#     Node 23, Type 1, BuildingBlock: CUWYAW_clean_sbu_0, # of connection points: 6
#     Node 24, Type 1, BuildingBlock: CUWYAW_clean_sbu_0, # of connection points: 6
#     Node 25, Type 1, BuildingBlock: CUWYAW_clean_sbu_0, # of connection points: 6
#     Node 26, Type 1, BuildingBlock: CUWYAW_clean_sbu_0, # of connection points: 6
#     Edge 27, Type (0, 1), BuildingBlock: XUDNAN_clean_linker_2, # of connection points: 2
#     Edge 28, Type (0, 1), BuildingBlock: XUDNAN_clean_linker_2, # of connection points: 2
#     Edge 29, Type (0, 1), BuildingBlock: XUDNAN_clean_linker_2, # of connection points: 2
#     Edge 30, Type (0, 1), BuildingBlock: XUDNAN_clean_linker_2, # of connection points: 2
#     Edge 31, Type (0, 1), BuildingBlock: XUDNAN_clean_linker_2, # of connection points: 2
#     Edge 32, Type (0, 1), BuildingBlock: XUDNAN_clean_linker_2, # of connection points: 2
#     Edge 33, Type (0, 1), BuildingBlock: XUDNAN_clean_linker_2, # of connection points: 2
#     Edge 34, Type (0, 1), BuildingBlock: XUDNAN_clean_linker_2, # of connection points: 2
#     Edge 35, Type (0, 1), BuildingBlock: XUDNAN_clean_linker_2, # of connection points: 2
#     Edge 36, Type (0, 1), BuildingBlock: XUDNAN_clean_linker_2, # of connection points: 2
#     Edge 37, Type (0, 1), BuildingBlock: XUDNAN_clean_linker_2, # of connection points: 2
#     Edge 38, Type (0, 1), BuildingBlock: XUDNAN_clean_linker_2, # of connection points: 2
#     Edge 39, Type (0, 1), BuildingBlock: XUDNAN_clean_linker_2, # of connection points: 2
#     Edge 40, Type (0, 1), BuildingBlock: XUDNAN_clean_linker_2, # of connection points: 2
#     Edge 41, Type (0, 1), BuildingBlock: XUDNAN_clean_linker_2, # of connection points: 2
#     Edge 42, Type (0, 1), BuildingBlock: XUDNAN_clean_linker_2, # of connection points: 2
#     Edge 43, Type (0, 1), BuildingBlock: XUDNAN_clean_linker_2, # of connection points: 2
#     Edge 44, Type (0, 1), BuildingBlock: XUDNAN_clean_linker_2, # of connection points: 2
#     Edge 45, Type (0, 1), BuildingBlock: XUDNAN_clean_linker_2, # of connection points: 2
#     Edge 46, Type (0, 1), BuildingBlock: XUDNAN_clean_linker_2, # of connection points: 2
#     Edge 47, Type (0, 1), BuildingBlock: XUDNAN_clean_linker_2, # of connection points: 2
#     Edge 48, Type (0, 1), BuildingBlock: XUDNAN_clean_linker_2, # of connection points: 2
#     Edge 49, Type (0, 1), BuildingBlock: XUDNAN_clean_linker_2, # of connection points: 2
#     Edge 50, Type (0, 1), BuildingBlock: XUDNAN_clean_linker_2, # of connection points: 2
#     Edge 51, Type (0, 1), BuildingBlock: XUDNAN_clean_linker_2, # of connection points: 2
#     Edge 52, Type (0, 1), BuildingBlock: XUDNAN_clean_linker_2, # of connection points: 2
#     Edge 53, Type (0, 1), BuildingBlock: XUDNAN_clean_linker_2, # of connection points: 2
#     Edge 54, Type (0, 1), BuildingBlock: XUDNAN_clean_linker_2, # of connection points: 2
#     Edge 55, Type (0, 1), BuildingBlock: XUDNAN_clean_linker_2, # of connection points: 2
#     Edge 56, Type (0, 1), BuildingBlock: XUDNAN_clean_linker_2, # of connection points: 2
#     Edge 57, Type (0, 1), BuildingBlock: XUDNAN_clean_linker_2, # of connection points: 2
#     Edge 58, Type (0, 1), BuildingBlock: XUDNAN_clean_linker_2, # of connection points: 2
#     Edge 59, Type (0, 1), BuildingBlock: XUDNAN_clean_linker_2, # of connection points: 2
#     Edge 60, Type (0, 1), BuildingBlock: XUDNAN_clean_linker_2, # of connection points: 2
#     Edge 61, Type (0, 1), BuildingBlock: XUDNAN_clean_linker_2, # of connection points: 2
#     Edge 62, Type (0, 1), BuildingBlock: XUDNAN_clean_linker_2, # of connection points: 2
#     Edge 63, Type (0, 1), BuildingBlock: XUDNAN_clean_linker_2, # of connection points: 2
#     Edge 64, Type (0, 1), BuildingBlock: XUDNAN_clean_linker_2, # of connection points: 2
#     Edge 65, Type (0, 1), BuildingBlock: XUDNAN_clean_linker_2, # of connection points: 2
#     Edge 66, Type (0, 1), BuildingBlock: XUDNAN_clean_linker_2, # of connection points: 2
#     Edge 67, Type (0, 1), BuildingBlock: XUDNAN_clean_linker_2, # of connection points: 2
#     Edge 68, Type (0, 1), BuildingBlock: XUDNAN_clean_linker_2, # of connection points: 2
#     Edge 69, Type (0, 1), BuildingBlock: XUDNAN_clean_linker_2, # of connection points: 2
#     Edge 70, Type (0, 1), BuildingBlock: XUDNAN_clean_linker_2, # of connection points: 2
#     Edge 71, Type (0, 1), BuildingBlock: XUDNAN_clean_linker_2, # of connection points: 2
#     Edge 72, Type (0, 1), BuildingBlock: XUDNAN_clean_linker_2, # of connection points: 2
#     Edge 73, Type (0, 1), BuildingBlock: XUDNAN_clean_linker_2, # of connection points: 2
#     Edge 74, Type (0, 1), BuildingBlock: XUDNAN_clean_linker_2, # of connection points: 2
#     Edge 75, Type (0, 1), BuildingBlock: XUDNAN_clean_linker_2, # of connection points: 2
#     Edge 76, Type (0, 1), BuildingBlock: XUDNAN_clean_linker_2, # of connection points: 2
#     Edge 77, Type (0, 1), BuildingBlock: XUDNAN_clean_linker_2, # of connection points: 2
#     Edge 78, Type (0, 1), BuildingBlock: XUDNAN_clean_linker_2, # of connection points: 2
#     Edge 79, Type (0, 1), BuildingBlock: XUDNAN_clean_linker_2, # of connection points: 2
#     Edge 80, Type (0, 1), BuildingBlock: XUDNAN_clean_linker_2, # of connection points: 2
# Relax obj value: 0.032
# Max RMSD: 0.129
# Mean RMSD: 0.081
data_MOF--net-eea--node1-CUWYAW_clean_sbu_0--node2-BELTOD_clean_linker_0--edge1-XUDNAN_clean_linker_2
_symmetry_space_group_name_H-M    P1
_symmetry_Int_Tables_number       1
_symmetry_cell_setting            triclinic
loop_
_symmetry_equiv_pos_as_xyz
'x, y, z'
_cell_length_a     58.397442
_cell_length_b     57.921238
_cell_length_c     83.735936
_cell_angle_alpha  93.82776
_cell_angle_beta   93.380535
_cell_angle_gamma 119.85051
loop_
_atom_site_label
_atom_site_type_symbol
_atom_site_fract_x
_atom_site_fract_y
_atom_site_fract_z
_atom_type_partial_charge
P0 P 0.28825 0.15025 0.40588 0.0
H1 H 0.25028 0.1272 0.37668 0.0
H2 H 0.22256 0.08134 0.36391 0.0
H3 H 0.25316 0.05305 0.40141 0.0
H4 H 0.28116 0.09914 0.41401 0.0
H5 H 0.31458 0.19762 0.38861 0.0
H6 H 0.30123 0.22878 0.37959 0.0
H7 H 0.22601 0.18379 0.39884 0.0
H8 H 0.23935 0.15227 0.40751 0.0
H9 H 0.3289 0.18172 0.43273 0.0
H10 H 0.24568 0.12192 0.42618 0.0
O11 O 0.31919 0.16022 0.40168 0.0
H12 H 0.32807 0.18333 0.46194 0.0
H13 H 0.24474 0.1231 0.45537 0.0
C14 C 0.26728 0.11648 0.39652 0.0
C15 C 0.25086 0.11115 0.38225 0.0
C16 C 0.23499 0.08488 0.37496 0.0
C17 C 0.23546 0.0635 0.38173 0.0
C18 C 0.25241 0.06906 0.39586 0.0
C19 C 0.26825 0.09535 0.40314 0.0
C20 C 0.278 0.17272 0.39879 0.0
C21 C 0.29519 0.19439 0.39085 0.0
C22 C 0.28758 0.21231 0.38579 0.0
C23 C 0.26262 0.20891 0.3886 0.0
C24 C 0.24528 0.18688 0.39637 0.0
C25 C 0.25294 0.16895 0.40144 0.0
C26 C 0.2875 0.1513 0.42734 0.0
C27 C 0.3105 0.16879 0.4376 0.0
C28 C 0.31 0.16966 0.45428 0.0
C29 C 0.28638 0.1532 0.46098 0.0
C30 C 0.26319 0.13617 0.4506 0.0
C31 C 0.26375 0.13531 0.43392 0.0
P32 P 0.91341 0.10183 0.43271 0.0
H33 H 0.90631 0.08715 0.39791 0.0
H34 H 0.86734 0.05636 0.37924 0.0
H35 H 0.81764 0.04128 0.41797 0.0
H36 H 0.85669 0.07193 0.43658 0.0
H37 H 0.97058 0.12745 0.43937 0.0
H38 H 0.00751 0.16577 0.42949 0.0
H39 H 0.95216 0.17613 0.3986 0.0
H40 H 0.91501 0.13759 0.40868 0.0
H41 H 0.91912 0.09618 0.46699 0.0
H42 H 0.89033 0.13614 0.43713 0.0
O43 O 0.92383 0.08104 0.43801 0.0
H44 H 0.90733 0.11286 0.49081 0.0
H45 H 0.8779 0.15253 0.46092 0.0
C46 C 0.88433 0.0825 0.41853 0.0
C47 C 0.88695 0.07778 0.40229 0.0
C48 C 0.86464 0.06015 0.39163 0.0
C49 C 0.83937 0.04652 0.39712 0.0
C50 C 0.83683 0.05145 0.41339 0.0
C51 C 0.85913 0.06919 0.42401 0.0
C52 C 0.94012 0.12932 0.4245 0.0
C53 C 0.96634 0.13775 0.43035 0.0
C54 C 0.98742 0.15976 0.42476 0.0
C55 C 0.9827 0.17389 0.41325 0.0
C56 C 0.95636 0.16538 0.40732 0.0
C57 C 0.93517 0.14342 0.41308 0.0
C58 C 0.90546 0.11484 0.45031 0.0
C59 C 0.9102 0.10851 0.46555 0.0
C60 C 0.90328 0.11794 0.47917 0.0
C61 C 0.89151 0.13391 0.47778 0.0
C62 C 0.88716 0.14051 0.46245 0.0
C63 C 0.89413 0.13107 0.44883 0.0
P64 P 0.86255 0.71528 0.42024 0.0
H65 H 0.84022 0.71342 0.3882 0.0
H66 H 0.81946 0.73699 0.37675 0.0
H67 H 0.82261 0.77306 0.42427 0.0
H68 H 0.84326 0.74907 0.43575 0.0
H69 H 0.90603 0.70457 0.41727 0.0
H70 H 0.94822 0.72885 0.40563 0.0
H71 H 0.93499 0.79527 0.40129 0.0
H72 H 0.89321 0.77123 0.41309 0.0
H73 H 0.83413 0.66812 0.43703 0.0
H74 H 0.88706 0.75292 0.44973 0.0
O75 O 0.85063 0.68522 0.4099 0.0
H76 H 0.83216 0.66137 0.46545 0.0
H77 H 0.88465 0.74624 0.47846 0.0
C78 C 0.84297 0.72918 0.41283 0.0
C79 C 0.83593 0.72592 0.39622 0.0
C80 C 0.82433 0.73963 0.38967 0.0
C81 C 0.81969 0.75708 0.39961 0.0
C82 C 0.82585 0.75963 0.41635 0.0
C83 C 0.83764 0.74591 0.42292 0.0
C84 C 0.89618 0.73578 0.41566 0.0
C85 C 0.91256 0.72463 0.41418 0.0
C86 C 0.93667 0.73854 0.40759 0.0
C87 C 0.94459 0.76373 0.40233 0.0
C88 C 0.92911 0.77569 0.40503 0.0
C89 C 0.90519 0.76191 0.41176 0.0
C90 C 0.86097 0.71099 0.44129 0.0
C91 C 0.84538 0.68532 0.44594 0.0
C92 C 0.84428 0.68145 0.46219 0.0
C93 C 0.85842 0.70326 0.47411 0.0
C94 C 0.87357 0.72912 0.46947 0.0
C95 C 0.87501 0.73293 0.45313 0.0
P96 P 0.13068 0.26866 0.5948 0.0
H97 H 0.10848 0.2868 0.61988 0.0
H98 H 0.0636 0.26983 0.62729 0.0
H99 H 0.03454 0.20412 0.58947 0.0
H100 H 0.07926 0.2223 0.58155 0.0
H101 H 0.18493 0.27939 0.59926 0.0
H102 H 0.20462 0.25329 0.60843 0.0
H103 H 0.12613 0.18657 0.61177 0.0
H104 H 0.10675 0.21298 0.60312 0.0
H105 H 0.14819 0.31378 0.57561 0.0
H106 H 0.11746 0.2287 0.56719 0.0
O107 O 0.14989 0.29931 0.60451 0.0
H108 H 0.1553 0.31798 0.54734 0.0
H109 H 0.12314 0.23241 0.53863 0.0
C110 C 0.09723 0.25602 0.60002 0.0
C111 C 0.0924 0.2689 0.61307 0.0
C112 C 0.06665 0.25892 0.61744 0.0
C113 C 0.04519 0.23551 0.60902 0.0
C114 C 0.05031 0.2225 0.59606 0.0
C115 C 0.07599 0.2328 0.59152 0.0
C116 C 0.14443 0.24842 0.60087 0.0
C117 C 0.17199 0.25914 0.602 0.0
C118 C 0.18321 0.24407 0.60706 0.0
C119 C 0.16697 0.21787 0.61095 0.0
C120 C 0.13924 0.20686 0.60916 0.0
C121 C 0.12809 0.22199 0.60416 0.0
C122 C 0.13253 0.27097 0.57353 0.0
C123 C 0.14255 0.29589 0.5676 0.0
C124 C 0.14639 0.29823 0.55134 0.0
C125 C 0.13996 0.27556 0.54061 0.0
C126 C 0.12884 0.2504 0.54655 0.0
C127 C 0.12529 0.24817 0.56287 0.0
P128 P 0.80672 0.89927 0.5936 0.0
H129 H 0.83834 0.94509 0.61741 0.0
H130 H 0.83337 0.98244 0.62782 0.0
H131 H 0.76045 0.95103 0.59634 0.0
H132 H 0.76495 0.91293 0.58662 0.0
H133 H 0.79994 0.8458 0.59039 0.0
H134 H 0.79838 0.8162 0.61038 0.0
H135 H 0.79576 0.86974 0.6477 0.0
H136 H 0.79708 0.89905 0.62777 0.0
H137 H 0.81992 0.91398 0.56159 0.0
H138 H 0.75304 0.85421 0.58283 0.0
O139 O 0.83889 0.912 0.59144 0.0
H140 H 0.79517 0.89667 0.53497 0.0
H141 H 0.72777 0.83692 0.55613 0.0
C142 C 0.80225 0.92645 0.60111 0.0
C143 C 0.82129 0.94627 0.61276 0.0
C144 C 0.81849 0.96776 0.6186 0.0
C145 C 0.79671 0.97008 0.61273 0.0
C146 C 0.7774 0.94987 0.60119 0.0
C147 C 0.78006 0.92813 0.59552 0.0
C148 C 0.79854 0.8746 0.60753 0.0
C149 C 0.79817 0.85072 0.6028 0.0
C150 C 0.79723 0.8338 0.61422 0.0
C151 C 0.79712 0.84079 0.6306 0.0
C152 C 0.79605 0.86399 0.63517 0.0
C153 C 0.79676 0.88076 0.62373 0.0
C154 C 0.78849 0.88499 0.57408 0.0
C155 C 0.79994 0.89694 0.56048 0.0
C156 C 0.78565 0.88719 0.54529 0.0
C157 C 0.75948 0.86544 0.54344 0.0
C158 C 0.74802 0.85347 0.55715 0.0
C159 C 0.7624 0.86331 0.57239 0.0
P160 P 0.12175 0.83718 0.59364 0.0
H161 H 0.13103 0.86543 0.62583 0.0
H162 H 0.16357 0.91102 0.63777 0.0
H163 H 0.19521 0.92931 0.59201 0.0
H164 H 0.16283 0.88412 0.58017 0.0
H165 H 0.08509 0.78424 0.60291 0.0
H166 H 0.04231 0.7658 0.61396 0.0
H167 H 0.04623 0.84222 0.61318 0.0
H168 H 0.08874 0.86031 0.60188 0.0
H169 H 0.15164 0.83017 0.56903 0.0
H170 H 0.0842 0.84148 0.57063 0.0
O171 O 0.1357 0.81928 0.59881 0.0
H172 H 0.15068 0.83346 0.5402 0.0
H173 H 0.08217 0.84349 0.54159 0.0
C174 C 0.14405 0.87142 0.60202 0.0
C175 C 0.14466 0.87941 0.6183 0.0
C176 C 0.16326 0.90544 0.62512 0.0
C177 C 0.18192 0.92371 0.61581 0.0
C178 C 0.18119 0.91562 0.5995 0.0
C179 C 0.16249 0.88973 0.59269 0.0
C180 C 0.09022 0.82373 0.60176 0.0
C181 C 0.07678 0.79705 0.60519 0.0
C182 C 0.05239 0.78657 0.6116 0.0
C183 C 0.04088 0.80255 0.61454 0.0
C184 C 0.05441 0.82928 0.61096 0.0
C185 C 0.07879 0.83972 0.60457 0.0
C186 C 0.11776 0.83517 0.57196 0.0
C187 C 0.13612 0.83261 0.56307 0.0
C188 C 0.13547 0.83442 0.54651 0.0
C189 C 0.1163 0.83871 0.53842 0.0
C190 C 0.09747 0.84057 0.54738 0.0
C191 C 0.09838 0.83909 0.56401 0.0
P192 P 0.93897 0.49532 0.74381 0.0
H193 H 0.92449 0.4702 0.71042 0.0
H194 H 0.91282 0.42542 0.69822 0.0
H195 H 0.92278 0.40348 0.74528 0.0
H196 H 0.93354 0.44749 0.75744 0.0
H197 H 0.94662 0.5489 0.74492 0.0
H198 H 0.91999 0.5669 0.73379 0.0
H199 H 0.85963 0.48693 0.7136 0.0
H200 H 0.88552 0.46909 0.72584 0.0
H201 H 0.97854 0.50387 0.76987 0.0
H202 H 0.89708 0.48529 0.76467 0.0
O203 O 0.97007 0.51582 0.73998 0.0
H204 H 0.97596 0.4976 0.7983 0.0
H205 H 0.89457 0.4802 0.79336 0.0
C206 C 0.92923 0.46208 0.73489 0.0
C207 C 0.92369 0.45558 0.71813 0.0
C208 C 0.9171 0.43009 0.71117 0.0
C209 C 0.91686 0.41111 0.72086 0.0
C210 C 0.92286 0.41782 0.73757 0.0
C211 C 0.92892 0.44304 0.74453 0.0
C212 C 0.91848 0.50781 0.73575 0.0
C213 C 0.9276 0.53529 0.73811 0.0
C214 C 0.91238 0.54556 0.73162 0.0
C215 C 0.88776 0.52851 0.72248 0.0
C216 C 0.87836 0.50077 0.72061 0.0
C217 C 0.8934 0.4905 0.72739 0.0
C218 C 0.93816 0.49551 0.76525 0.0
C219 C 0.96032 0.49924 0.77499 0.0
C220 C 0.9588 0.49569 0.7913 0.0
C221 C 0.93505 0.48843 0.79822 0.0
C222 C 0.91307 0.48544 0.78843 0.0
C223 C 0.91456 0.48869 0.77206 0.0
P224 P 0.57398 0.4312 0.76588 0.0
H225 H 0.54829 0.37301 0.76424 0.0
H226 H 0.50862 0.33659 0.74839 0.0
H227 H 0.49675 0.39432 0.72468 0.0
H228 H 0.53704 0.43084 0.74029 0.0
H229 H 0.61906 0.44148 0.74824 0.0
H230 H 0.64831 0.47866 0.7337 0.0
H231 H 0.60298 0.51736 0.74389 0.0
H232 H 0.5736 0.47989 0.75826 0.0
H233 H 0.5274 0.43748 0.76918 0.0
H234 H 0.59721 0.45255 0.79907 0.0
O235 O 0.59231 0.41889 0.77337 0.0
H236 H 0.51263 0.45324 0.79186 0.0
H237 H 0.58267 0.46877 0.82186 0.0
C238 C 0.5458 0.40462 0.7533 0.0
C239 C 0.53743 0.37789 0.75548 0.0
C240 C 0.51474 0.35709 0.74645 0.0
C241 C 0.49968 0.3627 0.73535 0.0
C242 C 0.50798 0.38951 0.73323 0.0
C243 C 0.53103 0.41033 0.74205 0.0
C244 C 0.59449 0.45817 0.75458 0.0
C245 C 0.61543 0.45798 0.74736 0.0
C246 C 0.63221 0.47931 0.73911 0.0
C247 C 0.62816 0.50112 0.7378 0.0
C248 C 0.60659 0.50083 0.74465 0.0
C249 C 0.58987 0.47949 0.75295 0.0
C250 C 0.56314 0.44327 0.78251 0.0
C251 C 0.53956 0.4441 0.78061 0.0
C252 C 0.53123 0.45338 0.79359 0.0
C253 C 0.54643 0.46214 0.80868 0.0
C254 C 0.57033 0.46175 0.81045 0.0
C255 C 0.57867 0.45255 0.79743 0.0
P256 P 0.55257 0.08609 0.76507 0.0
H257 H 0.52407 0.07303 0.73301 0.0
H258 H 0.49931 0.09076 0.71902 0.0
H259 H 0.51386 0.14446 0.76178 0.0
H260 H 0.54018 0.12801 0.77508 0.0
H261 H 0.59062 0.06903 0.75754 0.0
H262 H 0.6326 0.0911 0.74552 0.0
H263 H 0.629 0.16389 0.74701 0.0
H264 H 0.58718 0.14181 0.75909 0.0
H265 H 0.51273 0.08174 0.78616 0.0
H266 H 0.5923 0.09459 0.79148 0.0
O267 O 0.53876 0.05357 0.75875 0.0
H268 H 0.51216 0.08361 0.81539 0.0
H269 H 0.59128 0.09528 0.82078 0.0
C270 C 0.53314 0.0985 0.75528 0.0
C271 C 0.52176 0.08853 0.73936 0.0
C272 C 0.50747 0.09865 0.7314 0.0
C273 C 0.50421 0.11894 0.73925 0.0
C274 C 0.51607 0.12909 0.75519 0.0
C275 C 0.53077 0.11931 0.76299 0.0
C276 C 0.58545 0.10357 0.75879 0.0
C277 C 0.59906 0.08984 0.75548 0.0
C278 C 0.62313 0.10252 0.74872 0.0
C279 C 0.63387 0.1291 0.74514 0.0
C280 C 0.62096 0.14326 0.74942 0.0
C281 C 0.59705 0.13064 0.75631 0.0
C282 C 0.55298 0.08917 0.78666 0.0
C283 C 0.53029 0.08552 0.79361 0.0
C284 C 0.5299 0.08643 0.8103 0.0
C285 C 0.55181 0.08994 0.82028 0.0
C286 C 0.57425 0.09281 0.8133 0.0
C287 C 0.57487 0.09254 0.7966 0.0
P288 P 0.79241 0.61137 0.93118 0.0
H289 H 0.77232 0.58022 0.95836 0.0
H290 H 0.7311 0.56454 0.9708 0.0
H291 H 0.70076 0.59265 0.93309 0.0
H292 H 0.74202 0.60791 0.92051 0.0
H293 H 0.84547 0.63434 0.94853 0.0
H294 H 0.87366 0.61553 0.95508 0.0
H295 H 0.81141 0.53768 0.93328 0.0
H296 H 0.7834 0.55684 0.92658 0.0
H297 H 0.82413 0.65117 0.91029 0.0
H298 H 0.75819 0.57014 0.90468 0.0
O299 O 0.80743 0.64318 0.93936 0.0
H300 H 0.82373 0.65062 0.88114 0.0
H301 H 0.758 0.56913 0.87534 0.0
C302 C 0.76006 0.59473 0.93831 0.0
C303 C 0.75654 0.58233 0.95249 0.0
C304 C 0.73303 0.57363 0.9597 0.0
C305 C 0.71268 0.57752 0.95301 0.0
C306 C 0.71588 0.58907 0.93845 0.0
C307 C 0.73948 0.59779 0.93125 0.0
C308 C 0.81227 0.59693 0.93715 0.0
C309 C 0.83775 0.61317 0.9453 0.0
C310 C 0.85385 0.60235 0.9491 0.0
C311 C 0.84483 0.57509 0.94471 0.0
C312 C 0.8191 0.55882 0.93668 0.0
C313 C 0.803 0.56967 0.93292 0.0
C314 C 0.79081 0.61091 0.90962 0.0
C315 C 0.80942 0.63328 0.90275 0.0
C316 C 0.80937 0.63282 0.88606 0.0
C317 C 0.79085 0.60981 0.87586 0.0
C318 C 0.77229 0.5873 0.88282 0.0
C319 C 0.77238 0.58782 0.89958 0.0
P320 P 0.48439 0.23305 0.92167 0.0
H321 H 0.50056 0.26576 0.95264 0.0
H322 H 0.49361 0.302 0.96325 0.0
H323 H 0.44386 0.28992 0.91963 0.0
H324 H 0.45088 0.25395 0.90909 0.0
H325 H 0.50302 0.19518 0.92222 0.0
H326 H 0.49916 0.16299 0.94086 0.0
H327 H 0.44898 0.18228 0.96792 0.0
H328 H 0.45274 0.2143 0.94911 0.0
H329 H 0.49759 0.2434 0.88888 0.0
H330 H 0.43006 0.18936 0.91218 0.0
O331 O 0.51669 0.24962 0.91931 0.0
H332 H 0.4717 0.22434 0.86266 0.0
H333 H 0.40368 0.1705 0.88594 0.0
C334 C 0.47614 0.25703 0.93014 0.0
C335 C 0.48777 0.27062 0.9455 0.0
C336 C 0.48368 0.29121 0.95158 0.0
C337 C 0.46822 0.29878 0.94224 0.0
C338 C 0.45602 0.28461 0.92703 0.0
C339 C 0.45997 0.26393 0.92103 0.0
C340 C 0.47887 0.20765 0.9346 0.0
C341 C 0.49101 0.19229 0.93209 0.0
C342 C 0.48858 0.17375 0.94266 0.0
C343 C 0.47394 0.17032 0.95591 0.0
C344 C 0.46068 0.18482 0.95792 0.0
C345 C 0.46293 0.2032 0.94723 0.0
C346 C 0.46583 0.21743 0.9024 0.0
C347 C 0.47723 0.22723 0.88833 0.0
C348 C 0.46232 0.21649 0.87336 0.0
C349 C 0.43561 0.19593 0.87222 0.0
C350 C 0.4243 0.18604 0.88639 0.0
C351 C 0.43931 0.19681 0.90138 0.0
P352 P 0.80351 0.19668 0.93145 0.0
H353 H 0.79554 0.22009 0.96133 0.0
H354 H 0.8166 0.26587 0.9744 0.0
H355 H 0.86479 0.29414 0.93513 0.0
H356 H 0.84325 0.24821 0.92187 0.0
H357 H 0.78323 0.14605 0.9454 0.0
H358 H 0.74443 0.12056 0.95959 0.0
H359 H 0.71526 0.1734 0.94788 0.0
H360 H 0.75459 0.19934 0.93382 0.0
H361 H 0.83812 0.19382 0.9087 0.0
H362 H 0.76604 0.19745 0.9065 0.0
O363 O 0.82492 0.18721 0.93777 0.0
H364 H 0.83857 0.1952 0.87975 0.0
H365 H 0.76594 0.19816 0.8773 0.0
C366 C 0.81706 0.23076 0.9403 0.0
C367 C 0.81007 0.23612 0.95526 0.0
C368 C 0.82225 0.26233 0.9628 0.0
C369 C 0.84219 0.28359 0.95573 0.0
C370 C 0.84946 0.27814 0.94085 0.0
C371 C 0.83698 0.25193 0.9332 0.0
C372 C 0.772 0.17481 0.93867 0.0
C373 C 0.76837 0.15201 0.94562 0.0
C374 C 0.74619 0.13745 0.95377 0.0
C375 C 0.72703 0.14521 0.955 0.0
C376 C 0.7297 0.16694 0.94707 0.0
C377 C 0.75212 0.18171 0.939 0.0
C378 C 0.80176 0.19502 0.90978 0.0
C379 C 0.82203 0.19436 0.90194 0.0
C380 C 0.82222 0.19506 0.88531 0.0
C381 C 0.80218 0.19659 0.8761 0.0
C382 C 0.78179 0.19715 0.88401 0.0
C383 C 0.78167 0.1965 0.90071 0.0
P384 P 0.64003 0.82644 0.0723 0.0
H385 H 0.6506 0.78863 0.05384 0.0
H386 H 0.62463 0.74016 0.04686 0.0
H387 H 0.56023 0.73761 0.07112 0.0
H388 H 0.58654 0.78606 0.07828 0.0
H389 H 0.65396 0.88172 0.07894 0.0
H390 H 0.63116 0.90604 0.07224 0.0
H391 H 0.56919 0.83532 0.04319 0.0
H392 H 0.5924 0.81116 0.04972 0.0
H393 H 0.6823 0.83461 0.09668 0.0
H394 H 0.60581 0.82918 0.0954 0.0
O395 O 0.66979 0.83882 0.06553 0.0
H396 H 0.68713 0.84164 0.12614 0.0
H397 H 0.61005 0.83531 0.12468 0.0
C398 C 0.62044 0.79094 0.06651 0.0
C399 C 0.63088 0.77767 0.05761 0.0
C400 C 0.61597 0.74995 0.0536 0.0
C401 C 0.59035 0.73503 0.05844 0.0
C402 C 0.58002 0.74846 0.06741 0.0
C403 C 0.59497 0.77618 0.07142 0.0
C404 C 0.62464 0.84455 0.06508 0.0
C405 C 0.63562 0.87153 0.07098 0.0
C406 C 0.62247 0.88533 0.06725 0.0
C407 C 0.59814 0.8724 0.05745 0.0
C408 C 0.58787 0.84574 0.05081 0.0
C409 C 0.60106 0.83188 0.05462 0.0
C410 C 0.64391 0.83179 0.0939 0.0
C411 C 0.66659 0.83498 0.10274 0.0
C412 C 0.66923 0.83881 0.11957 0.0
C413 C 0.64905 0.83924 0.12776 0.0
C414 C 0.62621 0.83568 0.11877 0.0
C415 C 0.62367 0.83195 0.102 0.0
P416 P 0.25186 0.76395 0.09533 0.0
H417 H 0.24623 0.76294 0.06029 0.0
H418 H 0.21227 0.73088 0.03939 0.0
H419 H 0.16363 0.68741 0.07583 0.0
H420 H 0.19756 0.71997 0.09677 0.0
H421 H 0.3094 0.79109 0.09472 0.0
H422 H 0.34056 0.83075 0.08289 0.0
H423 H 0.27747 0.84689 0.07016 0.0
H424 H 0.24611 0.80656 0.08183 0.0
H425 H 0.26933 0.76105 0.12803 0.0
H426 H 0.21178 0.77743 0.10492 0.0
O427 O 0.26695 0.74614 0.09753 0.0
H428 H 0.25288 0.7628 0.1539 0.0
H429 H 0.19496 0.77906 0.13097 0.0
C430 C 0.22422 0.74431 0.08014 0.0
C431 C 0.22789 0.74713 0.06384 0.0
C432 C 0.20854 0.72857 0.05186 0.0
C433 C 0.18529 0.7065 0.05594 0.0
C434 C 0.18111 0.70438 0.07228 0.0
C435 C 0.20054 0.72301 0.08427 0.0
C436 C 0.27534 0.79564 0.0889 0.0
C437 C 0.30226 0.80327 0.08955 0.0
C438 C 0.32017 0.82615 0.08286 0.0
C439 C 0.31152 0.84195 0.07543 0.0
C440 C 0.28471 0.83493 0.07554 0.0
C441 C 0.26679 0.81201 0.0823 0.0
C442 C 0.24135 0.7685 0.11451 0.0
C443 C 0.25316 0.7651 0.12853 0.0
C444 C 0.24367 0.76601 0.14333 0.0
C445 C 0.2223 0.77058 0.14444 0.0
C446 C 0.21142 0.77546 0.13049 0.0
C447 C 0.22093 0.77444 0.11561 0.0
P448 P 0.19064 0.38019 0.08666 0.0
H449 H 0.16473 0.37724 0.05525 0.0
H450 H 0.14406 0.40149 0.04457 0.0
H451 H 0.16309 0.44799 0.09103 0.0
H452 H 0.18536 0.42504 0.10109 0.0
H453 H 0.20578 0.35429 0.06173 0.0
H454 H 0.24507 0.36992 0.04739 0.0
H455 H 0.28227 0.44603 0.07694 0.0
H456 H 0.24253 0.43006 0.09143 0.0
H457 H 0.1541 0.3756 0.11001 0.0
H458 H 0.23321 0.38765 0.11104 0.0
O459 O 0.16988 0.34793 0.08024 0.0
H460 H 0.15603 0.3752 0.13913 0.0
H461 H 0.23501 0.38625 0.14018 0.0
C462 C 0.17593 0.3988 0.07908 0.0
C463 C 0.16446 0.39273 0.06308 0.0
C464 C 0.15243 0.40651 0.05704 0.0
C465 C 0.15146 0.42659 0.06693 0.0
C466 C 0.16357 0.43292 0.08292 0.0
C467 C 0.17603 0.41947 0.08883 0.0
C468 C 0.22132 0.39089 0.07779 0.0
C469 C 0.22248 0.37419 0.06535 0.0
C470 C 0.24492 0.38324 0.05705 0.0
C471 C 0.26672 0.40928 0.06095 0.0
C472 C 0.26587 0.42579 0.07375 0.0
C473 C 0.24321 0.41672 0.08201 0.0
C474 C 0.19382 0.38254 0.10838 0.0
C475 C 0.17207 0.37852 0.11655 0.0
C476 C 0.17306 0.3779 0.13322 0.0
C477 C 0.19567 0.38066 0.14211 0.0
C478 C 0.21745 0.38455 0.13383 0.0
C479 C 0.21647 0.38536 0.11711 0.0
P480 P 0.46423 0.94631 0.27394 0.0
H481 H 0.43803 0.91998 0.30158 0.0
H482 H 0.39172 0.89915 0.3078 0.0
H483 H 0.36971 0.91789 0.26241 0.0
H484 H 0.41573 0.93898 0.25641 0.0
H485 H 0.51684 0.96448 0.29043 0.0
H486 H 0.54065 0.94105 0.29709 0.0
H487 H 0.47162 0.86577 0.2778 0.0
H488 H 0.44785 0.88939 0.27123 0.0
H489 H 0.49496 0.9903 0.25483 0.0
H490 H 0.43841 0.90566 0.24616 0.0
O491 O 0.4798 0.97726 0.28354 0.0
H492 H 0.49695 0.99256 0.22587 0.0
H493 H 0.4406 0.90764 0.21716 0.0
C494 C 0.43016 0.93018 0.27829 0.0
C495 C 0.42316 0.9194 0.29294 0.0
C496 C 0.3968 0.90771 0.29653 0.0
C497 C 0.37712 0.90663 0.28549 0.0
C498 C 0.38439 0.91798 0.271 0.0
C499 C 0.41071 0.92994 0.26753 0.0
C500 C 0.48049 0.92862 0.28051 0.0
C501 C 0.50666 0.94289 0.28788 0.0
C502 C 0.52024 0.92947 0.29171 0.0
C503 C 0.50799 0.90156 0.28798 0.0
C504 C 0.48163 0.8873 0.28071 0.0
C505 C 0.468 0.90074 0.27702 0.0
C506 C 0.46629 0.94788 0.25262 0.0
C507 C 0.48303 0.97218 0.2467 0.0
C508 C 0.48429 0.97339 0.23013 0.0
C509 C 0.46886 0.95028 0.2192 0.0
C510 C 0.45245 0.92586 0.22524 0.0
C511 C 0.4513 0.92467 0.24181 0.0
P512 P 0.15931 0.57346 0.25085 0.0
H513 H 0.19579 0.62814 0.26575 0.0
H514 H 0.18876 0.66311 0.27791 0.0
H515 H 0.10387 0.60818 0.27149 0.0
H516 H 0.11117 0.57418 0.25806 0.0
H517 H 0.19047 0.54911 0.26087 0.0
H518 H 0.1821 0.51343 0.27764 0.0
H519 H 0.1046 0.50249 0.28414 0.0
H520 H 0.11309 0.53825 0.2673 0.0
H521 H 0.14833 0.6011 0.22661 0.0
H522 H 0.12706 0.51974 0.23287 0.0
O523 O 0.1909 0.58786 0.24689 0.0
H524 H 0.12435 0.58637 0.19973 0.0
H525 H 0.10239 0.50467 0.20607 0.0
C526 C 0.15402 0.59845 0.26113 0.0
C527 C 0.17567 0.62363 0.26697 0.0
C528 C 0.17157 0.64361 0.27409 0.0
C529 C 0.14569 0.63863 0.2758 0.0
C530 C 0.12407 0.61306 0.27018 0.0
C531 C 0.12821 0.59331 0.26275 0.0
C532 C 0.15263 0.54678 0.26308 0.0
C533 C 0.17167 0.53911 0.26589 0.0
C534 C 0.16678 0.51852 0.27539 0.0
C535 C 0.1427 0.50518 0.28224 0.0
C536 C 0.12347 0.51264 0.27919 0.0
C537 C 0.12835 0.53315 0.26959 0.0
C538 C 0.13909 0.56148 0.23183 0.0
C539 C 0.13802 0.57996 0.22231 0.0
C540 C 0.12418 0.57147 0.20695 0.0
C541 C 0.11129 0.5443 0.20077 0.0
C542 C 0.11224 0.52576 0.21044 0.0
C543 C 0.12616 0.53432 0.22583 0.0
P544 P 0.46847 0.51312 0.26603 0.0
H545 H 0.47142 0.54716 0.29454 0.0
H546 H 0.50355 0.59342 0.30513 0.0
H547 H 0.54645 0.60174 0.26351 0.0
H548 H 0.51495 0.55524 0.25343 0.0
H549 H 0.4368 0.46874 0.2845 0.0
H550 H 0.39258 0.45118 0.29323 0.0
H551 H 0.3851 0.51319 0.27167 0.0
H552 H 0.42944 0.53048 0.26276 0.0
H553 H 0.46138 0.4687 0.24366 0.0
H554 H 0.46408 0.54408 0.2409 0.0
O555 O 0.48239 0.49624 0.27316 0.0
H556 H 0.45622 0.46094 0.21426 0.0
H557 H 0.4591 0.53653 0.21144 0.0
C558 C 0.49038 0.54798 0.27298 0.0
C559 C 0.48753 0.55908 0.2876 0.0
C560 C 0.5059 0.58559 0.29362 0.0
C561 C 0.52759 0.60138 0.28516 0.0
C562 C 0.53019 0.59012 0.27045 0.0
C563 C 0.51196 0.56359 0.26454 0.0
C564 C 0.43638 0.50097 0.27306 0.0
C565 C 0.42575 0.47868 0.28173 0.0
C566 C 0.40049 0.46873 0.28679 0.0
C567 C 0.38537 0.48087 0.2832 0.0
C568 C 0.39617 0.50328 0.2745 0.0
C569 C 0.4215 0.51325 0.26947 0.0
C570 C 0.4639 0.50731 0.24441 0.0
C571 C 0.46093 0.48361 0.23672 0.0
C572 C 0.45777 0.4791 0.21993 0.0
C573 C 0.45749 0.49825 0.21058 0.0
C574 C 0.45967 0.52164 0.21836 0.0
C575 C 0.46253 0.52597 0.23516 0.0
C576 C 0.53789 0.0351 0.06727 0.0
Eu577 Eu 0.52536 0.02571 0.03616 0.0
C578 C 0.52829 0.02125 0.08159 0.0
C579 C 0.53863 0.03564 0.09685 0.0
C580 C 0.52875 0.02339 0.11064 0.0
C581 C 0.50836 0.9964 0.10943 0.0
C582 C 0.49822 0.98195 0.09404 0.0
C583 C 0.50805 0.99432 0.08024 0.0
C584 C 0.51439 0.0574 0.0188 0.0
C585 C 0.46353 0.97865 0.02691 0.0
C586 C 0.49196 0.99569 0.96996 0.0
Eu587 Eu 0.50427 0.00323 1.00103 0.0
C588 C 0.50227 0.01067 0.95612 0.0
C589 C 0.49402 0.99703 0.94058 0.0
C590 C 0.5033 0.01092 0.92722 0.0
C591 C 0.52089 0.03874 0.92919 0.0
C592 C 0.52947 0.05233 0.94482 0.0
C593 C 0.52034 0.03834 0.95822 0.0
C594 C 0.51598 0.9721 0.01845 0.0
C595 C 0.56653 0.04852 0.0103 0.0
O596 O 0.54874 0.02572 0.0575 0.0
O597 O 0.52206 0.04156 0.05966 0.0
O598 O 0.53382 0.06625 0.0301 0.0
O599 O 0.50051 0.03219 0.01772 0.0
O600 O 0.48461 0.98969 0.03772 0.0
O601 O 0.46544 0.98364 0.01173 0.0
O602 O 0.48151 0.00504 0.98008 0.0
O603 O 0.50701 0.98792 0.97717 0.0
O604 O 0.49712 0.96246 0.00671 0.0
O605 O 0.5291 0.99725 0.0194 0.0
O606 O 0.54554 0.03847 0.99949 0.0
O607 O 0.56422 0.04351 0.02546 0.0
H608 H 0.55406 0.05654 0.09809 0.0
H609 H 0.53668 0.03533 0.12222 0.0
H610 H 0.48271 0.9611 0.09264 0.0
H611 H 0.49967 0.98296 0.06853 0.0
H612 H 0.4802 0.97564 0.93877 0.0
H613 H 0.49618 0.99998 0.9153 0.0
H614 H 0.54317 0.07374 0.94668 0.0
H615 H 0.52709 0.04917 0.97017 0.0
C616 C 0.00991 0.54395 0.04463 0.0
Eu617 Eu 1.00112 0.5175 0.01641 0.0
C618 C 0.01722 0.53956 0.06073 0.0
C619 C 0.01194 0.51397 0.06389 0.0
C620 C 0.02062 0.5101 0.07882 0.0
C621 C 0.03501 0.5318 0.09083 0.0
C622 C 0.04005 0.5574 0.08763 0.0
C623 C 0.03124 0.56123 0.07269 0.0
C624 C 0.96162 0.46607 0.00854 0.0
C625 C 0.0371 0.48837 0.01706 0.0
C626 C 0.99607 0.46195 0.95802 0.0
Eu627 Eu 0.00565 0.49018 0.9857 0.0
C628 C 0.98436 0.4612 0.94176 0.0
C629 C 0.99912 0.46415 0.92865 0.0
C630 C 0.98903 0.46484 0.91326 0.0
C631 C 0.96388 0.46243 0.91067 0.0
C632 C 0.94892 0.45903 0.92376 0.0
C633 C 0.95908 0.45848 0.93918 0.0
C634 C 0.04615 0.54094 0.99372 0.0
C635 C 0.97121 0.52095 0.98494 0.0
O636 O 0.02801 0.54996 0.03472 0.0
O637 O 0.98617 0.52622 0.03788 0.0
O638 O 0.95804 0.48476 0.01509 0.0
O639 O 0.98588 0.47491 0.00729 0.0
O640 O 0.03254 0.50686 0.02367 0.0
O641 O 0.02526 0.47515 1.00279 0.0
O642 O 0.98007 0.45421 0.96931 0.0
O643 O 0.01895 0.4833 0.96297 0.0
O644 O 0.04876 0.52172 0.98692 0.0
O645 O 0.02199 0.53314 0.99506 0.0
O646 O 0.97495 0.50182 0.97837 0.0
O647 O 0.98312 0.53384 0.99926 0.0
H648 H 1.00141 0.49703 0.05471 0.0
H649 H 0.01612 0.49009 0.08093 0.0
H650 H 0.05145 0.57463 0.09651 0.0
H651 H 0.03583 0.58118 0.07034 0.0
H652 H 0.01861 0.4662 0.93035 0.0
H653 H 1.00085 0.46711 0.90336 0.0
H654 H 0.92958 0.45734 0.92215 0.0
H655 H 0.94726 0.45625 0.94908 0.0
C656 C 0.45831 0.49503 0.95678 0.0
Eu657 Eu 0.4797 0.5051 0.98643 0.0
C658 C 0.46676 0.49312 0.94085 0.0
C659 C 0.49177 0.4959 0.93928 0.0
C660 C 0.50003 0.49513 0.92402 0.0
C661 C 0.48342 0.49167 0.9101 0.0
C662 C 0.45824 0.48857 0.9118 0.0
C663 C 0.45 0.48931 0.92705 0.0
C664 C 0.49742 0.55049 0.0062 0.0
C665 C 0.54136 0.52671 0.99495 0.0
C666 C 0.5185 0.51171 0.05072 0.0
Eu667 Eu 0.49767 0.50261 0.02099 0.0
C668 C 0.50798 0.50854 0.06641 0.0
C669 C 0.48049 0.49537 0.06734 0.0
C670 C 0.47055 0.49167 0.08231 0.0
C671 C 0.48795 0.50114 0.0966 0.0
C672 C 0.51551 0.51468 0.09556 0.0
C673 C 0.52543 0.51833 0.08058 0.0
C674 C 0.48204 0.45822 1.00015 0.0
C675 C 0.43614 0.48126 0.01295 0.0
O676 O 0.45531 0.47633 0.96581 0.0
O677 O 0.47052 0.51894 0.96475 0.0
O678 O 0.50107 0.55 0.99109 0.0
O679 O 0.48307 0.52714 0.00999 0.0
O680 O 0.52173 0.51534 0.98315 0.0
O681 O 0.53661 0.52698 0.01023 0.0
O682 O 0.51775 0.53011 0.04283 0.0
O683 O 0.5109 0.48947 0.04151 0.0
O684 O 0.47737 0.45719 0.01513 0.0
O685 O 0.49567 0.4821 0.99735 0.0
O686 O 0.45568 0.49076 0.02466 0.0
O687 O 0.44067 0.48258 0.9976 0.0
H688 H 0.505 0.49898 0.94985 0.0
H689 H 0.51963 0.49782 0.92313 0.0
H690 H 0.44483 0.48545 0.90132 0.0
H691 H 0.43062 0.4871 0.92809 0.0
H692 H 0.46674 0.48776 0.0565 0.0
H693 H 0.44924 0.48146 0.0827 0.0
H694 H 0.52942 0.52193 0.10633 0.0
H695 H 0.5467 0.52851 0.08004 0.0
C696 C 0.21236 0.37387 0.39143 0.0
Eu697 Eu 0.19026 0.36202 0.3619 0.0
C698 C 0.20521 0.35997 0.40602 0.0
C699 C 0.21067 0.37481 0.42107 0.0
C700 C 0.20299 0.36178 0.43492 0.0
C701 C 0.18973 0.33365 0.43395 0.0
C702 C 0.18428 0.31884 0.41882 0.0
C703 C 0.19188 0.33187 0.40497 0.0
C704 C 0.16582 0.38474 0.347 0.0
C705 C 0.13011 0.31054 0.36146 0.0
C706 C 0.1349 0.31756 0.30013 0.0
Eu707 Eu 0.15705 0.3309 0.32981 0.0
C708 C 0.14371 0.32693 0.28443 0.0
C709 C 0.13449 0.30861 0.27052 0.0
C710 C 0.14367 0.31712 0.25571 0.0
C711 C 0.16227 0.34419 0.25452 0.0
C712 C 0.17122 0.36249 0.26852 0.0
C713 C 0.16215 0.3539 0.28329 0.0
C714 C 0.18355 0.30978 0.34479 0.0
C715 C 0.21798 0.38246 0.33056 0.0
O716 O 0.21919 0.36285 0.37991 0.0
O717 O 0.19658 0.38223 0.38605 0.0
O718 O 0.1888 0.39841 0.35545 0.0
O719 O 0.15577 0.35989 0.34772 0.0
O720 O 0.15446 0.32527 0.36881 0.0
O721 O 0.12458 0.31109 0.34599 0.0
O722 O 0.13251 0.33412 0.31041 0.0
O723 O 0.14618 0.30557 0.30697 0.0
O724 O 0.16008 0.29518 0.33698 0.0
O725 O 0.19208 0.33417 0.34359 0.0
O726 O 0.19416 0.36679 0.32257 0.0
O727 O 0.2227 0.38216 0.34613 0.0
H728 H 0.22079 0.39648 0.42209 0.0
H729 H 0.20771 0.37375 0.44642 0.0
H730 H 0.17379 0.29716 0.41764 0.0
H731 H 0.18713 0.31995 0.39345 0.0
H732 H 0.12044 0.28762 0.27114 0.0
H733 H 0.13659 0.30235 0.24527 0.0
H734 H 0.18515 0.38356 0.2681 0.0
H735 H 0.16956 0.36837 0.29383 0.0
C736 C 0.65859 0.84783 0.38384 0.0
Eu737 Eu 0.66254 0.83539 0.35407 0.0
C738 C 0.66749 0.84498 0.40011 0.0
C739 C 0.64903 0.82629 0.4093 0.0
C740 C 0.65694 0.82367 0.42482 0.0
C741 C 0.68343 0.8399 0.43154 0.0
C742 C 0.70193 0.8586 0.42235 0.0
C743 C 0.69406 0.86112 0.40678 0.0
C744 C 0.63751 0.78517 0.33846 0.0
C745 C 0.71272 0.82547 0.35148 0.0
C746 C 0.68119 0.81312 0.29165 0.0
Eu747 Eu 0.6799 0.82933 0.32112 0.0
C748 C 0.67586 0.81873 0.27547 0.0
C749 C 0.67976 0.84402 0.27272 0.0
C750 C 0.67539 0.84928 0.25714 0.0
C751 C 0.66681 0.82925 0.24408 0.0
C752 C 0.66235 0.80376 0.24701 0.0
C753 C 0.66692 0.7986 0.26257 0.0
C754 C 0.7068 0.87966 0.33606 0.0
C755 C 0.63099 0.84135 0.32384 0.0
O756 O 0.67675 0.8644 0.37538 0.0
O757 O 0.64066 0.82578 0.37514 0.0
O758 O 0.6254 0.79465 0.34679 0.0
O759 O 0.66183 0.80197 0.3393 0.0
O760 O 0.70059 0.8345 0.36073 0.0
O761 O 0.70527 0.8181 0.33593 0.0
O762 O 0.66055 0.80071 0.29964 0.0
O763 O 0.70188 0.83257 0.30056 0.0
O764 O 0.71666 0.87015 0.32584 0.0
O765 O 0.68231 0.86369 0.33626 0.0
O766 O 0.64261 0.83146 0.31479 0.0
O767 O 0.63808 0.84822 0.33947 0.0
H768 H 0.62838 0.8138 0.40452 0.0
H769 H 0.64218 0.80934 0.43169 0.0
H770 H 0.72254 0.87122 0.42717 0.0
H771 H 0.70881 0.87578 0.40005 0.0
H772 H 0.68648 0.85978 0.28258 0.0
H773 H 0.67926 0.86918 0.25531 0.0
H774 H 0.65523 0.78772 0.23729 0.0
H775 H 0.66357 0.77889 0.26453 0.0
C776 C 0.12093 0.81346 0.28503 0.0
Eu777 Eu 0.1377 0.82979 0.31543 0.0
C778 C 0.1303 0.8047 0.27123 0.0
C779 C 0.12282 0.80751 0.2556 0.0
C780 C 0.13241 0.80031 0.24238 0.0
C781 C 0.14978 0.79026 0.24457 0.0
C782 C 0.15714 0.78741 0.26033 0.0
C783 C 0.14745 0.79452 0.27353 0.0
C784 C 0.15192 0.87868 0.32994 0.0
C785 C 0.20071 0.84901 0.32087 0.0
C786 C 0.18435 0.86182 0.37961 0.0
Eu787 Eu 0.16638 0.84321 0.34956 0.0
C788 C 0.17336 0.85991 0.3952 0.0
C789 C 0.18712 0.85826 0.40895 0.0
C790 C 0.17717 0.85642 0.42388 0.0
C791 C 0.15325 0.85632 0.42538 0.0
C792 C 0.13942 0.8579 0.41153 0.0
C793 C 0.1493 0.85953 0.39656 0.0
C794 C 0.15135 0.79381 0.3353 0.0
C795 C 0.10186 0.8204 0.34407 0.0
O796 O 0.11295 0.79761 0.29642 0.0
O797 O 0.13557 0.83872 0.29068 0.0
O798 O 0.13016 0.86394 0.32049 0.0
O799 O 0.16598 0.86777 0.33062 0.0
O800 O 0.17761 0.83366 0.31215 0.0
O801 O 0.20218 0.85947 0.33568 0.0
O802 O 0.17915 0.87499 0.36924 0.0
O803 O 0.18267 0.83993 0.37288 0.0
O804 O 0.17294 0.80804 0.34502 0.0
O805 O 0.13806 0.80549 0.33445 0.0
O806 O 0.12405 0.83175 0.35402 0.0
O807 O 0.10144 0.81521 0.32842 0.0
H808 H 0.10962 0.81537 0.25361 0.0
H809 H 0.12601 0.8024 0.23043 0.0
H810 H 0.17075 0.7801 0.26251 0.0
H811 H 0.15354 0.7923 0.28553 0.0
H812 H 0.20569 0.8585 0.40815 0.0
H813 H 0.1885 0.85561 0.43433 0.0
H814 H 0.12087 0.85769 0.41225 0.0
H815 H 0.13816 0.86054 0.38608 0.0
C816 C 0.86046 0.67177 0.71981 0.0
Eu817 Eu 0.84131 0.67785 0.6925 0.0
C818 C 0.85009 0.66064 0.73488 0.0
C819 C 0.86186 0.67663 0.74961 0.0
C820 C 0.85182 0.66708 0.76402 0.0
C821 C 0.82984 0.6412 0.76402 0.0
C822 C 0.81837 0.62499 0.74924 0.0
C823 C 0.82831 0.63462 0.73481 0.0
C824 C 0.83032 0.71697 0.6871 0.0
C825 C 0.77603 0.64294 0.68925 0.0
C826 C 0.78979 0.67249 0.6324 0.0
Eu827 Eu 0.8084 0.6684 0.66047 0.0
C828 C 0.79988 0.67558 0.61659 0.0
C829 C 0.82304 0.67463 0.61447 0.0
C830 C 0.8326 0.67724 0.59942 0.0
C831 C 0.81915 0.68086 0.5862 0.0
C832 C 0.7962 0.68235 0.58848 0.0
C833 C 0.78664 0.67972 0.60358 0.0
C834 C 0.8206 0.63008 0.66639 0.0
C835 C 0.87348 0.70554 0.66355 0.0
O836 O 0.85334 0.65488 0.70683 0.0
O837 O 0.86032 0.69365 0.71704 0.0
O838 O 0.85233 0.72124 0.6947 0.0
O839 O 0.81433 0.69221 0.68361 0.0
O840 O 0.79877 0.64679 0.69633 0.0
O841 O 0.77527 0.65418 0.67617 0.0
O842 O 0.80381 0.69284 0.64335 0.0
O843 O 0.78292 0.64956 0.63791 0.0
O844 O 0.79801 0.62489 0.65924 0.0
O845 O 0.83581 0.65495 0.66923 0.0
O846 O 0.85016 0.69921 0.65616 0.0
O847 O 0.87557 0.69636 0.6773 0.0
H848 H 0.87863 0.69675 0.74996 0.0
H849 H 0.86095 0.68026 0.77512 0.0
H850 H 0.80176 0.60479 0.74883 0.0
H851 H 0.81884 0.62177 0.72362 0.0
H852 H 0.83366 0.6717 0.62446 0.0
H853 H 0.85054 0.67644 0.59813 0.0
H854 H 0.78529 0.68491 0.57851 0.0
H855 H 0.76881 0.68067 0.60508 0.0
C856 C 0.31429 0.16746 0.71657 0.0
Eu857 Eu 0.31846 0.15603 0.68666 0.0
C858 C 0.32578 0.16717 0.73263 0.0
C859 C 0.30869 0.15229 0.74375 0.0
C860 C 0.31892 0.15098 0.75894 0.0
C861 C 0.34645 0.16478 0.76333 0.0
C862 C 0.3636 0.17987 0.75223 0.0
C863 C 0.35337 0.18094 0.73696 0.0
C864 C 0.29425 0.10566 0.67118 0.0
C865 C 0.37064 0.15012 0.68408 0.0
C866 C 0.33805 0.13553 0.62413 0.0
Eu867 Eu 0.3359 0.1505 0.65376 0.0
C868 C 0.32914 0.1383 0.608 0.0
C869 C 0.31773 0.15437 0.60587 0.0
C870 C 0.30962 0.15702 0.59038 0.0
C871 C 0.31286 0.14366 0.5768 0.0
C872 C 0.32409 0.12737 0.57909 0.0
C873 C 0.33216 0.12475 0.59456 0.0
C874 C 0.36236 0.20052 0.66918 0.0
C875 C 0.2852 0.16014 0.65697 0.0
O876 O 0.32982 0.18542 0.70759 0.0
O877 O 0.29887 0.14402 0.70842 0.0
O878 O 0.28194 0.11493 0.67946 0.0
O879 O 0.31849 0.1228 0.67191 0.0
O880 O 0.35879 0.16025 0.69265 0.0
O881 O 0.36203 0.13995 0.66889 0.0
O882 O 0.3193 0.12056 0.63281 0.0
O883 O 0.35688 0.15758 0.63237 0.0
O884 O 0.3731 0.19056 0.65994 0.0
O885 O 0.33771 0.1845 0.66887 0.0
O886 O 0.29822 0.15251 0.64753 0.0
O887 O 0.29164 0.16606 0.67264 0.0
H888 H 0.28737 0.14154 0.74066 0.0
H889 H 0.30526 0.13947 0.76733 0.0
H890 H 0.38492 0.19052 0.75529 0.0
H891 H 0.36703 0.19241 0.72856 0.0
H892 H 0.31526 0.16498 0.61617 0.0
H893 H 0.30125 0.16988 0.58903 0.0
H894 H 0.32642 0.11643 0.56892 0.0
H895 H 0.3408 0.11214 0.59603 0.0
C896 C 0.79632 0.16314 0.62442 0.0
Eu897 Eu 0.81722 0.17724 0.65427 0.0
C898 C 0.8058 0.16138 0.6087 0.0
C899 C 0.80001 0.17283 0.59598 0.0
C900 C 0.81017 0.17302 0.58127 0.0
C901 C 0.82636 0.16173 0.57898 0.0
C902 C 0.83171 0.14975 0.59166 0.0
C903 C 0.82153 0.14958 0.60639 0.0
C904 C 0.84336 0.22735 0.66988 0.0
C905 C 0.87806 0.18752 0.65597 0.0
C906 C 0.8687 0.19786 0.71693 0.0
Eu907 Eu 0.84795 0.18381 0.68698 0.0
C908 C 0.85895 0.19894 0.73266 0.0
C909 C 0.87239 0.19756 0.74666 0.0
C910 C 0.86333 0.19847 0.76167 0.0
C911 C 0.84056 0.20073 0.76297 0.0
C912 C 0.8271 0.202 0.74884 0.0
C913 C 0.83621 0.20112 0.73386 0.0
C914 C 0.82428 0.1346 0.67079 0.0
C915 C 0.78645 0.17287 0.68463 0.0
O916 O 0.79493 0.14602 0.63434 0.0
O917 O 0.80592 0.18734 0.63165 0.0
O918 O 0.82052 0.21741 0.66138 0.0
O919 O 0.85176 0.21114 0.66903 0.0
O920 O 0.8545 0.17767 0.64769 0.0
O921 O 0.88193 0.19508 0.67166 0.0
O922 O 0.869 0.21475 0.70719 0.0
O923 O 0.86 0.17393 0.70951 0.0
O924 O 0.84716 0.14541 0.67938 0.0
O925 O 0.81426 0.14948 0.67189 0.0
O926 O 0.80923 0.18104 0.6935 0.0
O927 O 0.78347 0.16708 0.66889 0.0
H928 H 0.78787 0.18198 0.5975 0.0
H929 H 0.80533 0.18202 0.57167 0.0
H930 H 0.84429 0.14109 0.59033 0.0
H931 H 0.82635 0.14064 0.61603 0.0
H932 H 0.88999 0.1959 0.74599 0.0
H933 H 0.87446 0.19787 0.77229 0.0
H934 H 0.80939 0.20348 0.74932 0.0
H935 H 0.82548 0.20223 0.72323 0.0
H936 H 0.36441 0.87895 0.08443 0.0
H937 H 0.3008 0.85511 0.04621 0.0
H938 H 0.33222 0.88928 0.03031 0.0
H939 H 0.39993 0.95078 0.07972 0.0
H940 H 0.4322 0.95418 0.08366 0.0
H941 H 0.40439 0.92949 0.09278 0.0
H942 H 0.41256 0.89228 0.08064 0.0
H943 H 0.44046 0.91682 0.07155 0.0
H944 H 0.41385 0.88814 0.05923 0.0
H945 H 0.37125 0.92331 0.01752 0.0
H946 H 0.41473 0.95605 0.00934 0.0
H947 H 0.45293 0.95758 0.05581 0.0
C948 C 0.35701 0.88106 0.07278 0.0
C949 C 0.33002 0.86437 0.06663 0.0
C950 C 0.32121 0.86793 0.05134 0.0
C951 C 0.33896 0.88718 0.04215 0.0
C952 C 0.36549 0.90289 0.04843 0.0
C953 C 0.37447 0.90022 0.06346 0.0
C954 C 0.40419 0.91888 0.06714 0.0
C955 C 0.41054 0.93956 0.08169 0.0
C956 C 0.4186 0.90308 0.06979 0.0
C957 C 0.41056 0.93202 0.0517 0.0
C958 C 0.38797 0.92261 0.04109 0.0
C959 C 0.38904 0.93103 0.0258 0.0
C960 C 0.41386 0.94958 0.02124 0.0
C961 C 0.4373 0.95953 0.03193 0.0
C962 C 0.43544 0.95063 0.04738 0.0
H963 H 0.10697 0.4065 0.04475 0.0
H964 H 0.16516 0.47919 0.07471 0.0
H965 H 0.14171 0.50205 0.06549 0.0
H966 H 0.10163 0.44066 0.01101 0.0
H967 H 0.06663 0.41747 0.00596 0.0
H968 H 0.08755 0.40637 0.01525 0.0
H969 H 0.0569 0.38984 0.03806 0.0
H970 H 0.03597 0.40102 0.0289 0.0
H971 H 0.05021 0.4129 0.04953 0.0
H972 H 0.11119 0.51663 0.05404 0.0
H973 H 0.07757 0.52333 0.0393 0.0
H974 H 0.04119 0.44274 0.01477 0.0
C975 C 0.11513 0.42733 0.04924 0.0
C976 C 0.13788 0.4408 0.0607 0.0
C977 C 0.14744 0.46803 0.06632 0.0
C978 C 0.13437 0.48134 0.06103 0.0
C979 C 0.11196 0.46738 0.0499 0.0
C980 C 0.10259 0.44111 0.04388 0.0
C981 C 0.07838 0.43096 0.03171 0.0
C982 C 0.08388 0.42343 0.01499 0.0
C983 C 0.05392 0.40728 0.0374 0.0
C984 C 0.07552 0.45561 0.03194 0.0
C985 C 0.09499 0.47626 0.04265 0.0
C986 C 0.096 0.50071 0.0455 0.0
C987 C 0.07673 0.50426 0.03711 0.0
C988 C 0.05684 0.4836 0.02582 0.0
C989 C 0.05633 0.45897 0.02318 0.0
H990 H 0.5854 0.70752 0.0294 0.0
H991 H 0.55895 0.69617 0.07709 0.0
H992 H 0.532 0.64729 0.06914 0.0
H993 H 0.52436 0.65781 0.00759 0.0
H994 H 0.53991 0.64729 0.99311 0.0
H995 H 0.55713 0.68119 1.00271 0.0
H996 H 0.59694 0.67571 0.01257 0.0
H997 H 0.57986 0.64181 1.00296 0.0
H998 H 0.59132 0.64852 0.02412 0.0
H999 H 0.50781 0.5992 0.05566 0.0
H1000 H 0.48838 0.55658 0.03767 0.0
H1001 H 0.53166 0.60054 0.99934 0.0
C1002 C 0.5742 0.69477 0.03826 0.0
C1003 C 0.57433 0.70565 0.05387 0.0
C1004 C 0.55895 0.68828 0.06499 0.0
C1005 C 0.54371 0.6605 0.06063 0.0
C1006 C 0.54408 0.65046 0.04511 0.0
C1007 C 0.55896 0.66713 0.03412 0.0
C1008 C 0.55588 0.65156 0.01816 0.0
C1009 C 0.54358 0.65997 0.0046 0.0
C1010 C 0.58259 0.65458 0.01423 0.0
C1011 C 0.53687 0.62349 0.02183 0.0
C1012 C 0.53027 0.62313 0.03743 0.0
C1013 C 0.51288 0.59927 0.04343 0.0
C1014 C 0.50198 0.57521 0.03317 0.0
C1015 C 0.50858 0.57538 0.01717 0.0
C1016 C 0.52622 0.59983 0.01152 0.0
H1017 H 0.89574 0.31946 0.96103 0.0
H1018 H 0.81903 0.30985 0.96944 0.0
H1019 H 0.84132 0.35537 0.9841 0.0
H1020 H 0.92925 0.35482 0.99955 0.0
H1021 H 0.96023 0.37675 0.99194 0.0
H1022 H 0.93833 0.34383 0.98159 0.0
H1023 H 0.93735 0.3645 0.95512 0.0
H1024 H 0.95974 0.39729 0.96546 0.0
H1025 H 0.92852 0.39024 0.95526 0.0
H1026 H 0.87183 0.40199 0.99748 0.0
H1027 H 0.9086 0.44637 0.00921 0.0
H1028 H 0.96561 0.42477 0.99351 0.0
C1029 C 0.88367 0.32709 0.96582 0.0
C1030 C 0.85566 0.31122 0.96407 0.0
C1031 C 0.84051 0.32167 0.97073 0.0
C1032 C 0.85298 0.34749 0.97902 0.0
C1033 C 0.88063 0.36253 0.98064 0.0
C1034 C 0.89582 0.35273 0.97428 0.0
C1035 C 0.92522 0.37278 0.97808 0.0
C1036 C 0.93906 0.36136 0.98841 0.0
C1037 C 0.93847 0.38173 0.96255 0.0
C1038 C 0.92417 0.39536 0.98758 0.0
C1039 C 0.89825 0.38912 0.98879 0.0
C1040 C 0.8922 0.40707 0.99666 0.0
C1041 C 0.91321 0.43218 1.00331 0.0
C1042 C 0.9399 0.43902 1.00216 0.0
C1043 C 0.94538 0.42017 0.99441 0.0
H1044 H 0.65974 0.55376 0.94102 0.0
H1045 H 0.71307 0.58874 0.98521 0.0
H1046 H 0.67527 0.58036 1.00034 0.0
H1047 H 0.6167 0.5801 0.95021 0.0
H1048 H 0.58672 0.55039 0.94139 0.0
H1049 H 0.61794 0.55908 0.93381 0.0
H1050 H 0.61109 0.51247 0.93875 0.0
H1051 H 0.57982 0.50367 0.94629 0.0
H1052 H 0.60504 0.50157 0.95852 0.0
H1053 H 0.63233 0.56871 0.0108 0.0
H1054 H 0.58616 0.55277 0.01622 0.0
H1055 H 0.55975 0.52507 0.96544 0.0
C1056 C 0.66344 0.55972 0.95387 0.0
C1057 C 0.68941 0.57172 0.96194 0.0
C1058 C 0.69336 0.57907 0.97879 0.0
C1059 C 0.67203 0.57461 0.98749 0.0
C1060 C 0.64677 0.56276 0.9792 0.0
C1061 C 0.64227 0.55529 0.9628 0.0
C1062 C 0.61296 0.54252 0.95696 0.0
C1063 C 0.60832 0.55901 0.94488 0.0
C1064 C 0.60156 0.51333 0.94971 0.0
C1065 C 0.60179 0.54399 0.97267 0.0
C1066 C 0.62173 0.55587 0.98531 0.0
C1067 C 0.61651 0.55936 1.00101 0.0
C1068 C 0.59016 0.55022 0.00396 0.0
C1069 C 0.56922 0.53761 0.99128 0.0
C1070 C 0.57526 0.5347 0.9754 0.0
H1071 H 0.46764 0.11996 0.95139 0.0
H1072 H 0.48322 0.18366 0.98837 0.0
H1073 H 0.49104 0.15912 0.00894 0.0
H1074 H 0.43518 0.06379 0.97703 0.0
H1075 H 0.44987 0.04596 0.96783 0.0
H1076 H 0.44193 0.06672 0.9563 0.0
H1077 H 0.49074 0.09327 0.9496 0.0
H1078 H 0.49831 0.07231 0.96103 0.0
H1079 H 0.51726 0.10816 0.96584 0.0
H1080 H 0.50405 0.13187 0.02456 0.0
H1081 H 0.51738 0.10095 0.03498 0.0
H1082 H 0.49166 0.05351 0.98841 0.0
C1083 C 0.47214 0.12841 0.96388 0.0
C1084 C 0.47469 0.15362 0.96833 0.0
C1085 C 0.48073 0.16417 0.98475 0.0
C1086 C 0.48532 0.15044 0.9965 0.0
C1087 C 0.48339 0.12601 0.99166 0.0
C1088 C 0.47649 0.1148 0.9758 0.0
C1089 C 0.47727 0.08901 0.97372 0.0
C1090 C 0.4494 0.06495 0.96841 0.0
C1091 C 0.4971 0.09085 0.96185 0.0
C1092 C 0.48681 0.08811 0.99076 0.0
C1093 C 0.4901 0.10963 1.00091 0.0
C1094 C 0.50095 0.11458 0.01686 0.0
C1095 C 0.50861 0.09704 0.02263 0.0
C1096 C 0.50509 0.07471 0.01252 0.0
C1097 C 0.49383 0.07003 0.99645 0.0
H1098 H 0.67295 0.12453 0.94848 0.0
H1099 H 0.73366 0.13673 0.98598 0.0
H1100 H 0.69941 0.11507 0.00441 0.0
H1101 H 0.63054 0.13532 0.97461 0.0
H1102 H 0.60005 0.10934 0.9635 0.0
H1103 H 0.62938 0.12691 0.95334 0.0
H1104 H 0.62552 0.08174 0.94317 0.0
H1105 H 0.59617 0.06416 0.95329 0.0
H1106 H 0.62399 0.05924 0.9575 0.0
H1107 H 0.65908 0.09201 0.01877 0.0
H1108 H 0.61453 0.06661 0.0278 0.0
H1109 H 0.57922 0.06779 0.98093 0.0
C1110 C 0.67895 0.12275 0.96061 0.0
C1111 C 0.70593 0.13222 0.96582 0.0
C1112 C 0.71307 0.12936 0.98172 0.0
C1113 C 0.69379 0.11724 0.9923 0.0
C1114 C 0.66738 0.10793 0.98681 0.0
C1115 C 0.65983 0.11035 0.97133 0.0
C1116 C 0.62986 0.09759 0.96837 0.0
C1117 C 0.622 0.11855 0.96474 0.0
C1118 C 0.61821 0.0743 0.95478 0.0
C1119 C 0.62189 0.08756 0.98456 0.0
C1120 C 0.64388 0.094 0.99505 0.0
C1121 C 0.64166 0.08684 0.01068 0.0
C1122 C 0.61624 0.07244 0.01571 0.0
C1123 C 0.59331 0.06514 0.0051 0.0
C1124 C 0.59631 0.07302 0.98935 0.0
H1125 H 0.87843 0.58507 0.9721 0.0
H1126 H 0.85157 0.54013 0.92463 0.0
H1127 H 0.8815 0.5222 0.92966 0.0
H1128 H 0.94715 0.60292 0.9722 0.0
H1129 H 0.95118 0.59943 0.99324 0.0
H1130 H 0.92752 0.60869 0.98601 0.0
H1131 H 0.8901 0.56845 0.998 0.0
H1132 H 0.91366 0.55913 0.00531 0.0
H1133 H 0.88423 0.53519 0.99243 0.0
H1134 H 0.91438 0.50937 0.93966 0.0
H1135 H 0.94703 0.50122 0.95427 0.0
H1136 H 0.95312 0.55471 0.99531 0.0
C1137 C 0.87895 0.57158 0.96272 0.0
C1138 C 0.86254 0.56395 0.94797 0.0
C1139 C 0.86362 0.54597 0.93611 0.0
C1140 C 0.88071 0.53584 0.9388 0.0
C1141 C 0.89664 0.54384 0.95343 0.0
C1142 C 0.89588 0.56123 0.96522 0.0
C1143 C 0.91489 0.56636 0.97995 0.0
C1144 C 0.93646 0.59612 0.98302 0.0
C1145 C 0.89981 0.5567 0.9948 0.0
C1146 C 0.92643 0.54913 0.97458 0.0
C1147 C 0.91566 0.53639 0.95923 0.0
C1148 C 0.92295 0.51923 0.95169 0.0
C1149 C 0.94155 0.51473 0.96013 0.0
C1150 C 0.95271 0.52729 0.97598 0.0
C1151 C 0.94511 0.54489 0.9832 0.0
H1152 H 0.45905 0.31312 0.9722 0.0
H1153 H 0.47521 0.33922 0.92468 0.0
H1154 H 0.47685 0.38134 0.93398 0.0
H1155 H 0.41768 0.34362 0.98087 0.0
H1156 H 0.43059 0.35287 1.00182 0.0
H1157 H 0.42834 0.32363 0.99112 0.0
H1158 H 0.47851 0.34252 0.99916 0.0
H1159 H 0.48094 0.37181 0.00982 0.0
H1160 H 0.5022 0.37537 0.99427 0.0
H1161 H 0.48256 0.42238 0.94896 0.0
H1162 H 0.48862 0.45919 0.96841 0.0
H1163 H 0.46585 0.40639 0.00611 0.0
C1164 C 0.46257 0.3276 0.96373 0.0
C1165 C 0.46683 0.32287 0.94769 0.0
C1166 C 0.47146 0.34225 0.93694 0.0
C1167 C 0.47254 0.36627 0.94212 0.0
C1168 C 0.46862 0.37047 0.95804 0.0
C1169 C 0.46339 0.35161 0.96867 0.0
C1170 C 0.4609 0.36171 0.9853 0.0
C1171 C 0.4327 0.34443 0.99005 0.0
C1172 C 0.48189 0.36293 0.99787 0.0
C1173 C 0.46639 0.38951 0.98244 0.0
C1174 C 0.47077 0.39405 0.96661 0.0
C1175 C 0.47845 0.41886 0.96128 0.0
C1176 C 0.48174 0.43964 0.97241 0.0
C1177 C 0.47692 0.4354 0.98863 0.0
C1178 C 0.46897 0.40994 0.99368 0.0
H1179 H 0.13026 0.6776 0.05206 0.0
H1180 H 0.19981 0.68427 0.03183 0.0
H1181 H 0.1711 0.64519 0.01217 0.0
H1182 H 0.09332 0.60679 0.04923 0.0
H1183 H 0.06172 0.60418 0.04383 0.0
H1184 H 0.08784 0.63388 0.05552 0.0
H1185 H 0.08356 0.66235 0.03408 0.0
H1186 H 0.05781 0.63235 0.02228 0.0
H1187 H 0.08699 0.65517 0.01336 0.0
H1188 H 0.1362 0.60299 0.99701 0.0
H1189 H 0.0963 0.56063 0.98602 0.0
H1190 H 0.04788 0.58182 0.01395 0.0
C1191 C 0.13935 0.671 0.04334 0.0
C1192 C 0.16732 0.68423 0.04338 0.0
C1193 C 0.17848 0.6749 0.03184 0.0
C1194 C 0.16233 0.6526 0.02066 0.0
C1195 C 0.13496 0.6399 0.02102 0.0
C1196 C 0.12343 0.64882 0.03191 0.0
C1197 C 0.09342 0.63073 0.02996 0.0
C1198 C 0.08351 0.61815 0.04556 0.0
C1199 C 0.07963 0.64607 0.0246 0.0
C1200 C 0.0901 0.60984 0.01663 0.0
C1201 C 0.11441 0.61564 0.01172 0.0
C1202 C 0.11698 0.59843 1.00053 0.0
C1203 C 0.09418 0.57438 0.99438 0.0
C1204 C 0.06903 0.56782 0.99925 0.0
C1205 C 0.06687 0.58618 0.01016 0.0
H1206 H 0.32045 0.43753 0.07123 0.0
H1207 H 0.26432 0.4038 0.02821 0.0
H1208 H 0.30141 0.41888 0.01138 0.0
H1209 H 0.37042 0.49627 0.05461 0.0
H1210 H 0.398 0.49553 0.06491 0.0
H1211 H 0.36705 0.4827 0.07365 0.0
H1212 H 0.36515 0.43725 0.0752 0.0
H1213 H 0.39603 0.44999 0.06641 0.0
H1214 H 0.36705 0.41968 0.05718 0.0
H1215 H 0.34427 0.43702 0.99914 0.0
H1216 H 0.39034 0.45689 0.99227 0.0
H1217 H 0.41909 0.47872 0.04313 0.0
C1218 C 0.31603 0.43356 0.05827 0.0
C1219 C 0.28946 0.41935 0.05103 0.0
C1220 C 0.28448 0.41431 0.03402 0.0
C1221 C 0.30542 0.42292 0.02436 0.0
C1222 C 0.33132 0.43657 0.03184 0.0
C1223 C 0.33677 0.44189 0.0484 0.0
C1224 C 0.36648 0.45649 0.05333 0.0
C1225 C 0.37604 0.48441 0.06214 0.0
C1226 C 0.37412 0.43985 0.06364 0.0
C1227 C 0.37677 0.45842 0.03696 0.0
C1228 C 0.35614 0.44689 0.02474 0.0
C1229 C 0.36062 0.44615 0.0086 0.0
C1230 C 0.38689 0.45751 0.00482 0.0
C1231 C 0.40843 0.46939 0.01712 0.0
C1232 C 0.40314 0.46979 0.03341 0.0
H1233 H 0.57313 0.87412 0.02901 0.0
H1234 H 0.58952 0.90266 0.07994 0.0
H1235 H 0.56683 0.92834 0.07566 0.0
H1236 H 0.58458 0.93441 0.01502 0.0
H1237 H 0.55834 0.91913 0.99866 0.0
H1238 H 0.57384 0.90107 0.00585 0.0
H1239 H 0.5279 0.86189 0.0108 0.0
H1240 H 0.51223 0.87984 1.00359 0.0
H1241 H 0.50718 0.86843 0.02328 0.0
H1242 H 0.54578 0.95352 0.06578 0.0
H1243 H 0.52735 0.97675 0.05059 0.0
H1244 H 0.5235 0.93172 0.00619 0.0
C1245 C 0.57149 0.88539 0.03928 0.0
C1246 C 0.58318 0.88653 0.05479 0.0
C1247 C 0.58101 0.90183 0.06792 0.0
C1248 C 0.56797 0.91628 0.06564 0.0
C1249 C 0.55703 0.91509 0.05018 0.0
C1250 C 0.55851 0.89999 0.03721 0.0
C1251 C 0.54632 0.90343 0.02171 0.0
C1252 C 0.56701 0.91522 0.0096 0.0
C1253 C 0.52196 0.87681 0.01442 0.0
C1254 C 0.53834 0.92329 0.02796 0.0
C1255 C 0.54458 0.92957 0.04444 0.0
C1256 C 0.54063 0.94862 0.05289 0.0
C1257 C 0.53044 0.96192 0.04421 0.0
C1258 C 0.52431 0.95611 0.02737 0.0
C1259 C 0.52776 0.93618 0.01915 0.0
H1260 H 0.99294 0.18707 0.38233 0.0
H1261 H 0.02375 0.21503 0.43255 0.0
H1262 H 0.06333 0.25383 0.42446 0.0
H1263 H 0.05469 0.20429 0.36782 0.0
H1264 H 0.04811 0.21504 0.34925 0.0
H1265 H 0.02101 0.1903 0.3588 0.0
H1266 H 0.99912 0.21973 0.35928 0.0
H1267 H 0.02612 0.24454 0.34966 0.0
H1268 H 0.01787 0.2539 0.36849 0.0
H1269 H 0.1003 0.28751 0.41143 0.0
H1270 H 0.13325 0.31562 0.39406 0.0
H1271 H 0.07962 0.26715 0.35166 0.0
C1272 C 0.00785 0.20165 0.39158 0.0
C1273 C 0.00536 0.19805 0.40808 0.0
C1274 C 0.02542 0.21729 0.41986 0.0
C1275 C 0.04788 0.23945 0.41539 0.0
C1276 C 0.05002 0.24217 0.39907 0.0
C1277 C 0.0306 0.22397 0.3873 0.0
C1278 C 0.03864 0.23128 0.37061 0.0
C1279 C 0.04074 0.20889 0.36106 0.0
C1280 C 0.01928 0.23775 0.36147 0.0
C1281 C 0.06576 0.25619 0.3749 0.0
C1282 C 0.07171 0.26203 0.39141 0.0
C1283 C 0.09582 0.28331 0.39848 0.0
C1284 C 0.11449 0.2991 0.38844 0.0
C1285 C 0.1091 0.29363 0.37144 0.0
C1286 C 0.08424 0.27198 0.36459 0.0
H1287 H 0.77945 0.76562 0.40839 0.0
H1288 H 0.83762 0.78535 0.37406 0.0
H1289 H 0.81926 0.80946 0.35992 0.0
H1290 H 0.72625 0.75224 0.38086 0.0
H1291 H 0.71184 0.76673 0.39366 0.0
H1292 H 0.73146 0.75384 0.40244 0.0
H1293 H 0.76219 0.79977 0.41916 0.0
H1294 H 0.74258 0.8128 0.41042 0.0
H1295 H 0.77784 0.8296 0.40905 0.0
H1296 H 0.79182 0.82603 0.34753 0.0
H1297 H 0.75702 0.83556 0.33783 0.0
H1298 H 0.71704 0.80738 0.38043 0.0
C1299 C 0.78866 0.7756 0.39813 0.0
C1300 C 0.80985 0.77352 0.39224 0.0
C1301 C 0.82115 0.78641 0.37863 0.0
C1302 C 0.81102 0.80035 0.3706 0.0
C1303 C 0.78974 0.80147 0.37642 0.0
C1304 C 0.77875 0.78969 0.38994 0.0
C1305 C 0.7547 0.79234 0.39287 0.0
C1306 C 0.72959 0.76464 0.39242 0.0
C1307 C 0.75963 0.80966 0.40882 0.0
C1308 C 0.7534 0.80656 0.37856 0.0
C1309 C 0.77401 0.81181 0.36935 0.0
C1310 C 0.77591 0.82258 0.35479 0.0
C1311 C 0.75603 0.82781 0.34935 0.0
C1312 C 0.73466 0.82247 0.35849 0.0
C1313 C 0.73358 0.81223 0.37344 0.0
H1314 H 0.2483 0.02393 0.37716 0.0
H1315 H 0.18359 0.03989 0.36905 0.0
H1316 H 0.15503 0.99391 0.35571 0.0
H1317 H 0.23592 0.98444 0.33996 0.0
H1318 H 0.24403 0.96112 0.34821 0.0
H1319 H 0.25923 0.99497 0.35772 0.0
H1320 H 0.24216 0.97719 0.38472 0.0
H1321 H 0.22691 0.94325 0.37527 0.0
H1322 H 0.20721 0.95445 0.3854 0.0
H1323 H 0.13391 0.94703 0.34269 0.0
H1324 H 0.12146 0.90187 0.33044 0.0
H1325 H 0.19956 0.91575 0.34707 0.0
C1326 C 0.22801 0.01763 0.37277 0.0
C1327 C 0.21819 0.03555 0.37411 0.0
C1328 C 0.19166 0.02665 0.36797 0.0
C1329 C 0.17522 1.00052 0.36048 0.0
C1330 C 0.18557 0.98347 0.35927 0.0
C1331 C 0.21131 0.99158 0.36525 0.0
C1332 C 0.21767 0.96941 0.36197 0.0
C1333 C 0.24057 0.97801 0.35133 0.0
C1334 C 0.22385 0.96056 0.37778 0.0
C1335 C 0.19158 0.94773 0.35301 0.0
C1336 C 0.17332 0.95626 0.35169 0.0
C1337 C 0.14798 0.94007 0.34369 0.0
C1338 C 0.14113 0.91449 0.33675 0.0
C1339 C 0.15956 0.90539 0.33783 0.0
C1340 C 0.18505 0.92218 0.34615 0.0
H1341 H 0.52029 0.63983 0.30155 0.0
H1342 H 0.58142 0.62548 0.28446 0.0
H1343 H 0.61562 0.67116 0.29564 0.0
H1344 H 0.55064 0.70926 0.29449 0.0
H1345 H 0.541 0.7193 0.31254 0.0
H1346 H 0.52096 0.68567 0.3027 0.0
H1347 H 0.52506 0.66673 0.32921 0.0
H1348 H 0.54508 0.70029 0.33914 0.0
H1349 H 0.55754 0.67738 0.33914 0.0
H1350 H 0.64325 0.71787 0.30869 0.0
H1351 H 0.66296 0.76285 0.32354 0.0
H1352 H 0.58449 0.74692 0.33326 0.0
C1353 C 0.54087 0.64622 0.30022 0.0
C1354 C 0.54808 0.62906 0.29195 0.0
C1355 C 0.57527 0.63837 0.29039 0.0
C1356 C 0.5949 0.66425 0.29681 0.0
C1357 C 0.5871 0.68059 0.30484 0.0
C1358 C 0.56079 0.67199 0.30664 0.0
C1359 C 0.55793 0.69349 0.31612 0.0
C1360 C 0.54167 0.70246 0.30585 0.0
C1361 C 0.54568 0.68389 0.33184 0.0
C1362 C 0.58678 0.71544 0.31942 0.0
C1363 C 0.6032 0.70755 0.31271 0.0
C1364 C 0.63063 0.72429 0.31402 0.0
C1365 C 0.64161 0.74978 0.32248 0.0
C1366 C 0.62522 0.75825 0.32956 0.0
C1367 C 0.59745 0.74086 0.32799 0.0
H1368 H 0.35667 0.91387 0.31296 0.0
H1369 H 0.33412 0.86987 0.26531 0.0
H1370 H 0.28686 0.84929 0.26982 0.0
H1371 H 0.30404 0.86142 0.33296 0.0
H1372 H 0.29905 0.88481 0.34542 0.0
H1373 H 0.33128 0.89493 0.33893 0.0
H1374 H 0.3314 0.93482 0.32658 0.0
H1375 H 0.29914 0.92477 0.33298 0.0
H1376 H 0.30432 0.92856 0.31208 0.0
H1377 H 0.24261 0.83485 0.2788 0.0
H1378 H 0.20312 0.82735 0.29156 0.0
H1379 H 0.25333 0.88097 0.33362 0.0
C1380 C 0.34173 0.89958 0.30361 0.0
C1381 C 0.34896 0.89338 0.28878 0.0
C1382 C 0.32893 0.87498 0.2767 0.0
C1383 C 0.30209 0.86312 0.27918 0.0
C1384 C 0.29558 0.86991 0.2938 0.0
C1385 C 0.31473 0.88768 0.30584 0.0
C1386 C 0.3021 0.8923 0.32014 0.0
C1387 C 0.30956 0.88279 0.33526 0.0
C1388 C 0.30969 0.92187 0.32311 0.0
C1389 C 0.27289 0.87454 0.31415 0.0
C1390 C 0.26972 0.86173 0.29897 0.0
C1391 C 0.2448 0.84467 0.29071 0.0
C1392 C 0.22244 0.84061 0.2981 0.0
C1393 C 0.225 0.85359 0.31364 0.0
C1394 C 0.25066 0.8707 0.32178 0.0
H1395 H 0.15381 0.4646 0.27763 0.0
H1396 H 0.12207 0.49889 0.31121 0.0
H1397 H 0.11854 0.46672 0.33023 0.0
H1398 H 0.11347 0.3946 0.28747 0.0
H1399 H 0.14 0.38767 0.28537 0.0
H1400 H 0.13722 0.411 0.27337 0.0
H1401 H 0.18517 0.44801 0.2839 0.0
H1402 H 0.1886 0.42475 0.29555 0.0
H1403 H 0.19463 0.45627 0.30531 0.0
H1404 H 0.12449 0.43545 0.34705 0.0
H1405 H 0.13899 0.40699 0.3601 0.0
H1406 H 0.16639 0.39296 0.31564 0.0
C1407 C 0.1458 0.4651 0.28891 0.0
C1408 C 0.13817 0.4842 0.29295 0.0
C1409 C 0.12768 0.48417 0.30778 0.0
C1410 C 0.12564 0.46601 0.31866 0.0
C1411 C 0.13385 0.44778 0.31444 0.0
C1412 C 0.14352 0.44705 0.29985 0.0
C1413 C 0.1525 0.42663 0.29861 0.0
C1414 C 0.13475 0.40362 0.28542 0.0
C1415 C 0.18197 0.43971 0.29568 0.0
C1416 C 0.14799 0.41724 0.31517 0.0
C1417 C 0.13667 0.42925 0.32402 0.0
C1418 C 0.1327 0.42541 0.34012 0.0
C1419 C 0.14094 0.40926 0.34743 0.0
C1420 C 0.1529 0.39727 0.33861 0.0
C1421 C 0.1562 0.40105 0.3223 0.0
H1422 H 0.36869 0.46273 0.31213 0.0
H1423 H 0.34063 0.47322 0.26552 0.0
H1424 H 0.29491 0.45188 0.2733 0.0
H1425 H 0.31461 0.3984 0.31483 0.0
H1426 H 0.31381 0.40373 0.3362 0.0
H1427 H 0.34454 0.42189 0.32748 0.0
H1428 H 0.34983 0.46679 0.33975 0.0
H1429 H 0.31908 0.44874 0.34853 0.0
H1430 H 0.32349 0.47394 0.33554 0.0
H1431 H 0.25182 0.42623 0.28538 0.0
H1432 H 0.21488 0.39917 0.30108 0.0
H1433 H 0.27123 0.40536 0.3397 0.0
C1434 C 0.35295 0.46067 0.30358 0.0
C1435 C 0.35822 0.46967 0.28822 0.0
C1436 C 0.33711 0.4668 0.27743 0.0
C1437 C 0.31107 0.45461 0.28171 0.0
C1438 C 0.30654 0.4456 0.29686 0.0
C1439 C 0.32692 0.44863 0.30766 0.0
C1440 C 0.31666 0.43627 0.32292 0.0
C1441 C 0.32277 0.41373 0.3255 0.0
C1442 C 0.32794 0.45772 0.33755 0.0
C1443 C 0.28723 0.4253 0.3189 0.0
C1444 C 0.28179 0.43099 0.30385 0.0
C1445 C 0.25588 0.42186 0.29723 0.0
C1446 C 0.235 0.40635 0.3062 0.0
C1447 C 0.24014 0.40011 0.3216 0.0
C1448 C 0.26666 0.41004 0.32805 0.0
H1449 H 0.54047 0.9082 0.31508 0.0
H1450 H 0.51006 0.86389 0.26758 0.0
H1451 H 0.53714 0.84252 0.27191 0.0
H1452 H 0.60667 0.92146 0.31425 0.0
H1453 H 0.61109 0.91744 0.33517 0.0
H1454 H 0.58842 0.92831 0.32862 0.0
H1455 H 0.55038 0.88888 0.3408 0.0
H1456 H 0.57297 0.87792 0.34743 0.0
H1457 H 0.54273 0.8551 0.33483 0.0
H1458 H 0.56968 0.82823 0.28073 0.0
H1459 H 0.60359 0.82018 0.29397 0.0
H1460 H 0.61198 0.873 0.33601 0.0
C1461 C 0.53946 0.89393 0.30562 0.0
C1462 C 0.52313 0.88765 0.291 0.0
C1463 C 0.52218 0.86873 0.27895 0.0
C1464 C 0.53758 0.8566 0.28127 0.0
C1465 C 0.55367 0.86344 0.29575 0.0
C1466 C 0.55454 0.88149 0.30778 0.0
C1467 C 0.5737 0.88558 0.32215 0.0
C1468 C 0.59631 0.91494 0.32522 0.0
C1469 C 0.55906 0.87631 0.33719 0.0
C1470 C 0.58374 0.8673 0.31624 0.0
C1471 C 0.57199 0.85477 0.30096 0.0
C1472 C 0.57883 0.83773 0.29275 0.0
C1473 C 0.59817 0.83335 0.30035 0.0
C1474 C 0.61033 0.84583 0.31606 0.0
C1475 C 0.60284 0.86291 0.32408 0.0
H1476 H 0.17723 0.67885 0.30015 0.0
H1477 H 0.10438 0.64763 0.26814 0.0
H1478 H 0.097 0.68278 0.28059 0.0
H1479 H 0.15638 0.69881 0.33485 0.0
H1480 H 0.1877 0.72925 0.34039 0.0
H1481 H 0.18673 0.70087 0.32946 0.0
H1482 H 0.21124 0.73021 0.30719 0.0
H1483 H 0.21244 0.75871 0.31812 0.0
H1484 H 0.19776 0.74839 0.29751 0.0
H1485 H 0.09709 0.72102 0.297 0.0
H1486 H 0.10649 0.76127 0.31481 0.0
H1487 H 0.18126 0.76977 0.33393 0.0
C1488 C 0.15984 0.67943 0.29555 0.0
C1489 C 0.14128 0.66008 0.28321 0.0
C1490 C 0.11862 0.66164 0.27784 0.0
C1491 C 0.11432 0.68172 0.28475 0.0
C1492 C 0.13303 0.70037 0.29686 0.0
C1493 C 0.15549 0.69959 0.30208 0.0
C1494 C 0.17306 0.72258 0.31485 0.0
C1495 C 0.17614 0.71225 0.33083 0.0
C1496 C 0.20023 0.74106 0.30907 0.0
C1497 C 0.15684 0.73628 0.31612 0.0
C1498 C 0.13372 0.72308 0.30573 0.0
C1499 C 0.1153 0.73171 0.30503 0.0
C1500 C 0.12085 0.75464 0.3151 0.0
C1501 C 0.1448 0.76885 0.32545 0.0
C1502 C 0.16285 0.75937 0.32604 0.0
H1503 H 0.80181 0.99647 0.40337 0.0
H1504 H 0.82518 0.04969 0.36589 0.0
H1505 H 0.78927 0.01366 0.34683 0.0
H1506 H 0.78965 0.93981 0.37958 0.0
H1507 H 0.76145 0.9165 0.38907 0.0
H1508 H 0.78643 0.94744 0.40027 0.0
H1509 H 0.75032 0.9592 0.40672 0.0
H1510 H 0.72522 0.92823 0.39544 0.0
H1511 H 0.72888 0.95963 0.39048 0.0
H1512 H 0.75502 0.97058 0.3311 0.0
H1513 H 0.72468 0.92335 0.3199 0.0
H1514 H 0.72312 0.89847 0.3676 0.0
C1515 C 0.79884 1.00081 0.39129 0.0
C1516 C 0.81617 0.02594 0.38613 0.0
C1517 C 0.81218 0.03055 0.37007 0.0
C1518 C 0.79173 0.01029 0.35921 0.0
C1519 C 0.77532 0.98558 0.36461 0.0
C1520 C 0.77855 0.9808 0.3803 0.0
C1521 C 0.75983 0.95181 0.38269 0.0
C1522 C 0.77527 0.93809 0.38822 0.0
C1523 C 0.73988 0.9496 0.39454 0.0
C1524 C 0.74621 0.94083 0.36575 0.0
C1525 C 0.75518 0.96071 0.35554 0.0
C1526 C 0.74732 0.95499 0.33903 0.0
C1527 C 0.73015 0.92821 0.33278 0.0
C1528 C 0.72098 0.9077 0.34304 0.0
C1529 C 0.72886 0.91407 0.3597 0.0
H1530 H 0.99529 0.77207 0.40824 0.0
H1531 H 0.9436 0.78183 0.3734 0.0
H1532 H 0.97868 0.79841 0.35509 0.0
H1533 H 0.0573 0.83213 0.40062 0.0
H1534 H 0.07671 0.81606 0.40327 0.0
H1535 H 0.04792 0.80635 0.41393 0.0
H1536 H 0.0291 0.75708 0.40186 0.0
H1537 H 0.0577 0.76702 0.39098 0.0
H1538 H 0.02484 0.74917 0.38031 0.0
H1539 H 0.01723 0.80979 0.33959 0.0
H1540 H 0.0593 0.82 0.32877 0.0
H1541 H 0.0877 0.8059 0.37409 0.0
C1542 C 0.99157 0.77802 0.39683 0.0
C1543 C 0.96684 0.77586 0.39225 0.0
C1544 C 0.96256 0.78373 0.37722 0.0
C1545 C 0.98229 0.79302 0.36671 0.0
C1546 C 0.00633 0.79464 0.37148 0.0
C1547 C 0.01129 0.7878 0.38627 0.0
C1548 C 0.03889 0.79135 0.3883 0.0
C1549 C 0.05622 0.81276 0.40237 0.0
C1550 C 0.03753 0.76455 0.39049 0.0
C1551 C 0.04841 0.80083 0.37225 0.0
C1552 C 0.02918 0.80233 0.3627 0.0
C1553 C 0.03262 0.80908 0.34702 0.0
C1554 C 0.05648 0.81467 0.34095 0.0
C1555 C 0.0767 0.81385 0.35063 0.0
C1556 C 0.07265 0.80698 0.36651 0.0
H1557 H 0.21408 0.19876 0.37469 0.0
H1558 H 0.29387 0.26352 0.39133 0.0
H1559 H 0.28188 0.29622 0.38244 0.0
H1560 H 0.20505 0.22578 0.3396 0.0
H1561 H 0.17056 0.21478 0.34125 0.0
H1562 H 0.18506 0.19637 0.34935 0.0
H1563 H 0.17035 0.20168 0.37731 0.0
H1564 H 0.15572 0.22005 0.36927 0.0
H1565 H 0.18013 0.2347 0.38661 0.0
H1566 H 0.2619 0.32177 0.37105 0.0
H1567 H 0.235 0.3386 0.35794 0.0
H1568 H 0.16771 0.25763 0.34932 0.0
C1569 C 0.22894 0.21984 0.37666 0.0
C1570 C 0.25498 0.22855 0.38364 0.0
C1571 C 0.27393 0.25631 0.38578 0.0
C1572 C 0.26726 0.27507 0.38088 0.0
C1573 C 0.24152 0.2658 0.37393 0.0
C1574 C 0.2226 0.23888 0.37185 0.0
C1575 C 0.19651 0.23424 0.36376 0.0
C1576 C 0.18886 0.21676 0.34753 0.0
C1577 C 0.17437 0.22194 0.37491 0.0
C1578 C 0.20383 0.26274 0.36145 0.0
C1579 C 0.22987 0.28062 0.36747 0.0
C1580 C 0.24142 0.308 0.36642 0.0
C1581 C 0.22597 0.31738 0.35901 0.0
C1582 C 0.19925 0.29944 0.35278 0.0
C1583 C 0.18806 0.27179 0.35405 0.0
H1584 H 0.68253 0.52609 0.74009 0.0
H1585 H 0.61541 0.5282 0.71663 0.0
H1586 H 0.64609 0.56613 0.7025 0.0
H1587 H 0.72736 0.59746 0.74556 0.0
H1588 H 0.75618 0.59533 0.74139 0.0
H1589 H 0.72952 0.56857 0.75014 0.0
H1590 H 0.7247 0.53413 0.72698 0.0
H1591 H 0.75194 0.56048 0.71839 0.0
H1592 H 0.72044 0.53996 0.70642 0.0
H1593 H 0.6841 0.60265 0.69009 0.0
H1594 H 0.72645 0.63513 0.68052 0.0
H1595 H 0.76856 0.60911 0.71233 0.0
C1596 C 0.67425 0.53443 0.73192 0.0
C1597 C 0.64655 0.52415 0.72944 0.0
C1598 C 0.63657 0.53592 0.71884 0.0
C1599 C 0.65382 0.55739 0.71072 0.0
C1600 C 0.681 0.56695 0.71339 0.0
C1601 C 0.69116 0.55588 0.72377 0.0
C1602 C 0.72111 0.56966 0.72443 0.0
C1603 C 0.73429 0.58356 0.7414 0.0
C1604 C 0.73006 0.54988 0.71871 0.0
C1605 C 0.72622 0.58994 0.71262 0.0
C1606 C 0.70285 0.58813 0.70641 0.0
C1607 C 0.70253 0.60435 0.69494 0.0
C1608 C 0.7267 0.62274 0.68958 0.0
C1609 C 0.75086 0.62479 0.69573 0.0
C1610 C 0.7505 0.60828 0.70751 0.0
H1611 H 0.45976 0.09146 0.717 0.0
H1612 H 0.51301 0.17047 0.74246 0.0
H1613 H 0.48544 0.18711 0.73028 0.0
H1614 H 0.44844 0.11627 0.67969 0.0
H1615 H 0.4143 0.08972 0.67587 0.0
H1616 H 0.43852 0.08397 0.68639 0.0
H1617 H 0.40961 0.06899 0.71011 0.0
H1618 H 0.38539 0.07479 0.69971 0.0
H1619 H 0.39998 0.09117 0.71973 0.0
H1620 H 0.44999 0.19417 0.7175 0.0
H1621 H 0.41083 0.19209 0.70294 0.0
H1622 H 0.38328 0.11033 0.68327 0.0
C1623 C 0.46607 0.11242 0.7198 0.0
C1624 C 0.48853 0.12947 0.73094 0.0
C1625 C 0.49558 0.15668 0.73437 0.0
C1626 C 0.48018 0.16646 0.72736 0.0
C1627 C 0.45805 0.14901 0.71666 0.0
C1628 C 0.45122 0.12269 0.71267 0.0
C1629 C 0.42632 0.10811 0.70086 0.0
C1630 C 0.43226 0.09899 0.68475 0.0
C1631 C 0.40401 0.08437 0.70804 0.0
C1632 C 0.41992 0.13022 0.69912 0.0
C1633 C 0.43843 0.1536 0.70844 0.0
C1634 C 0.43569 0.17618 0.70989 0.0
C1635 C 0.41342 0.17481 0.70163 0.0
C1636 C 0.39448 0.15124 0.69183 0.0
C1637 C 0.39791 0.12877 0.6904 0.0
H1638 H 0.87316 0.37429 0.7007 0.0
H1639 H 0.94713 0.38798 0.72511 0.0
H1640 H 0.93683 0.34278 0.71405 0.0
H1641 H 0.83457 0.30585 0.70803 0.0
H1642 H 0.81452 0.295 0.68889 0.0
H1643 H 0.82839 0.329 0.69787 0.0
H1644 H 0.85094 0.34649 0.67209 0.0
H1645 H 0.83705 0.31253 0.66301 0.0
H1646 H 0.87241 0.33518 0.66459 0.0
H1647 H 0.91862 0.29644 0.70049 0.0
H1648 H 0.8927 0.25083 0.6862 0.0
H1649 H 0.82921 0.26598 0.67177 0.0
C1650 C 0.88727 0.3678 0.70352 0.0
C1651 C 0.911 0.38451 0.71364 0.0
C1652 C 0.92885 0.37533 0.71736 0.0
C1653 C 0.92321 0.34979 0.71112 0.0
C1654 C 0.89952 0.33365 0.70129 0.0
C1655 C 0.88175 0.34218 0.69756 0.0
C1656 C 0.85716 0.32036 0.68733 0.0
C1657 C 0.83219 0.31207 0.69606 0.0
C1658 C 0.85423 0.32917 0.67077 0.0
C1659 C 0.86389 0.29826 0.68591 0.0
C1660 C 0.88853 0.30646 0.69394 0.0
C1661 C 0.89924 0.28972 0.69424 0.0
C1662 C 0.88432 0.26382 0.68616 0.0
C1663 C 0.85883 0.25482 0.67811 0.0
C1664 C 0.84857 0.27232 0.67794 0.0
H1665 H 0.17614 0.95976 0.63579 0.0
H1666 H 0.23487 0.94866 0.6124 0.0
H1667 H 0.26991 0.99378 0.62426 0.0
H1668 H 0.20386 0.02936 0.63029 0.0
H1669 H 0.19637 0.03834 0.64951 0.0
H1670 H 0.17589 0.00493 0.63946 0.0
H1671 H 0.18412 0.98535 0.66467 0.0
H1672 H 0.20462 0.01871 0.6748 0.0
H1673 H 0.21771 0.99643 0.67275 0.0
H1674 H 0.29857 0.03971 0.6387 0.0
H1675 H 0.31896 0.08429 0.65426 0.0
H1676 H 0.24173 0.06633 0.66793 0.0
C1677 C 0.19642 0.9668 0.63328 0.0
C1678 C 0.20282 0.95076 0.62316 0.0
C1679 C 0.22951 0.96075 0.61998 0.0
C1680 C 0.24955 0.98627 0.62672 0.0
C1681 C 0.24258 1.00162 0.63657 0.0
C1682 C 0.21668 0.99236 0.63982 0.0
C1683 C 0.21453 0.01319 0.65056 0.0
C1684 C 0.1966 0.02197 0.64193 0.0
C1685 C 0.20466 0.00279 0.66665 0.0
C1686 C 0.24327 0.03555 0.65285 0.0
C1687 C 0.25911 0.02838 0.64473 0.0
C1688 C 0.28637 0.04559 0.64507 0.0
C1689 C 0.29776 0.07087 0.65392 0.0
C1690 C 0.28188 0.07876 0.66219 0.0
C1691 C 0.25431 0.06081 0.66168 0.0
H1692 H 0.02876 0.23687 0.63936 0.0
H1693 H 0.99872 0.21088 0.5888 0.0
H1694 H 0.95321 0.19351 0.59586 0.0
H1695 H 0.97419 0.18249 0.65597 0.0
H1696 H 0.97406 0.20363 0.67272 0.0
H1697 H 0.0045 0.21251 0.66403 0.0
H1698 H 0.01039 0.25882 0.65931 0.0
H1699 H 0.98004 0.25013 0.66804 0.0
H1700 H 0.98403 0.26047 0.64807 0.0
H1701 H 0.91127 0.17978 0.60792 0.0
H1702 H 0.87514 0.17267 0.62403 0.0
H1703 H 0.93149 0.20977 0.66695 0.0
C1704 C 0.0127 0.22766 0.62972 0.0
C1705 C 0.01758 0.22501 0.61348 0.0
C1706 C 0.99573 0.21258 0.60135 0.0
C1707 C 0.96971 0.20278 0.60523 0.0
C1708 C 0.96571 0.20573 0.62128 0.0
C1709 C 0.98653 0.21803 0.63335 0.0
C1710 C 0.97666 0.2197 0.64954 0.0
C1711 C 0.98272 0.20362 0.66125 0.0
C1712 C 0.98848 0.24903 0.65665 0.0
C1713 C 0.94704 0.20661 0.64462 0.0
C1714 C 0.94128 0.19849 0.62827 0.0
C1715 C 0.91552 0.18607 0.62073 0.0
C1716 C 0.89508 0.18215 0.63006 0.0
C1717 C 0.90033 0.19076 0.64683 0.0
C1718 C 0.92675 0.20294 0.6542 0.0
H1719 H 0.77216 0.78618 0.63166 0.0
H1720 H 0.8332 0.86209 0.65708 0.0
H1721 H 0.84517 0.83815 0.67607 0.0
H1722 H 0.75331 0.74981 0.66831 0.0
H1723 H 0.74776 0.71902 0.65774 0.0
H1724 H 0.7419 0.74197 0.64712 0.0
H1725 H 0.77448 0.74417 0.62651 0.0
H1726 H 0.77916 0.7205 0.63694 0.0
H1727 H 0.80751 0.75211 0.6339 0.0
H1728 H 0.85502 0.80688 0.68956 0.0
H1729 H 0.85989 0.7696 0.6983 0.0
H1730 H 0.79014 0.71313 0.66612 0.0
C1731 C 0.78767 0.79766 0.64143 0.0
C1732 C 0.80163 0.82597 0.64299 0.0
C1733 C 0.82194 0.84041 0.65584 0.0
C1734 C 0.82896 0.82699 0.66664 0.0
C1735 C 0.8152 0.79912 0.66461 0.0
C1736 C 0.79467 0.78454 0.65251 0.0
C1737 C 0.7839 0.75471 0.65266 0.0
C1738 C 0.755 0.74055 0.65671 0.0
C1739 C 0.78646 0.74217 0.63656 0.0
C1740 C 0.80241 0.75495 0.66624 0.0
C1741 C 0.82025 0.78081 0.67296 0.0
C1742 C 0.84083 0.78649 0.68467 0.0
C1743 C 0.84347 0.7652 0.68952 0.0
C1744 C 0.82548 0.73856 0.68281 0.0
C1745 C 0.80426 0.73333 0.67136 0.0
H1746 H 0.02185 0.76888 0.63838 0.0
H1747 H 0.99997 0.81021 0.60465 0.0
H1748 H 0.95596 0.79135 0.61455 0.0
H1749 H 0.95834 0.70849 0.63434 0.0
H1750 H 0.95955 0.70325 0.65527 0.0
H1751 H 0.98989 0.72075 0.64603 0.0
H1752 H 0.00694 0.76116 0.66787 0.0
H1753 H 0.97661 0.74381 0.67716 0.0
H1754 H 0.9871 0.7766 0.67108 0.0
H1755 H 0.91417 0.76709 0.62699 0.0
H1756 H 0.87635 0.7388 0.6415 0.0
H1757 H 0.92423 0.71259 0.66769 0.0
C1758 C 0.00777 0.77392 0.63307 0.0
C1759 C 0.01448 0.79122 0.62079 0.0
C1760 C 0.99553 0.79743 0.61424 0.0
C1761 C 0.97041 0.7867 0.61973 0.0
C1762 C 0.96447 0.7698 0.63182 0.0
C1763 C 0.98253 0.76341 0.63846 0.0
C1764 C 0.97073 0.74434 0.65115 0.0
C1765 C 0.96956 0.71762 0.64641 0.0
C1766 C 0.98627 0.75726 0.66781 0.0
C1767 C 0.94313 0.74083 0.65046 0.0
C1768 C 0.9401 0.75578 0.6392 0.0
C1769 C 0.91631 0.7554 0.63589 0.0
C1770 C 0.8949 0.73916 0.64421 0.0
C1771 C 0.89729 0.72346 0.65578 0.0
C1772 C 0.92188 0.72456 0.65906 0.0
H1773 H 0.21062 0.21514 0.60225 0.0
H1774 H 0.15096 0.18743 0.63595 0.0
H1775 H 0.17232 0.16535 0.64921 0.0
H1776 H 0.21933 0.15557 0.59986 0.0
H1777 H 0.25466 0.17549 0.59907 0.0
H1778 H 0.23295 0.18646 0.59077 0.0
H1779 H 0.2599 0.23168 0.60884 0.0
H1780 H 0.28164 0.22085 0.61717 0.0
H1781 H 0.26463 0.23169 0.63031 0.0
H1782 H 0.20248 0.15137 0.66097 0.0
H1783 H 0.23953 0.14488 0.67021 0.0
H1784 H 0.27993 0.18022 0.62891 0.0
C1785 C 0.20187 0.20413 0.61229 0.0
C1786 C 0.1789 0.20283 0.61795 0.0
C1787 C 0.16814 0.18826 0.63114 0.0
C1788 C 0.1802 0.17571 0.63882 0.0
C1789 C 0.20296 0.1777 0.63311 0.0
C1790 C 0.21364 0.19133 0.62008 0.0
C1791 C 0.23928 0.19179 0.61711 0.0
C1792 C 0.23637 0.17641 0.60073 0.0
C1793 C 0.26274 0.22072 0.61844 0.0
C1794 C 0.24175 0.17714 0.63087 0.0
C1795 C 0.2204 0.16905 0.63984 0.0
C1796 C 0.21905 0.15712 0.6539 0.0
C1797 C 0.24021 0.15363 0.65908 0.0
C1798 C 0.26234 0.16184 0.65017 0.0
C1799 C 0.26292 0.17327 0.63572 0.0
H1800 H 0.83685 0.02211 0.62041 0.0
H1801 H 0.75137 0.97121 0.61895 0.0
H1802 H 0.74836 0.00976 0.6307 0.0
H1803 H 0.84588 0.05468 0.65838 0.0
H1804 H 0.87215 0.08674 0.65408 0.0
H1805 H 0.86698 0.05653 0.64305 0.0
H1806 H 0.86231 0.07448 0.61618 0.0
H1807 H 0.86746 0.1048 0.6272 0.0
H1808 H 0.83816 0.08496 0.61321 0.0
H1809 H 0.75533 0.0536 0.64464 0.0
H1810 H 0.77216 0.09722 0.66123 0.0
H1811 H 0.85294 0.117 0.6554 0.0
C1812 C 0.81742 0.01897 0.62247 0.0
C1813 C 0.79435 0.99353 0.61872 0.0
C1814 C 0.76932 0.99056 0.62145 0.0
C1815 C 0.76741 0.01235 0.62816 0.0
C1816 C 0.79068 0.03698 0.63206 0.0
C1817 C 0.81521 0.04032 0.62931 0.0
C1818 C 0.8375 0.06793 0.63594 0.0
C1819 C 0.85674 0.06636 0.64862 0.0
C1820 C 0.85222 0.08398 0.62232 0.0
C1821 C 0.8218 0.07926 0.64346 0.0
C1822 C 0.79478 0.06151 0.64071 0.0
C1823 C 0.77645 0.06766 0.64679 0.0
C1824 C 0.7861 0.09237 0.65617 0.0
C1825 C 0.81374 0.11006 0.65965 0.0
C1826 C 0.83168 0.10358 0.653 0.0
H1827 H 0.49483 0.31907 0.71753 0.0
H1828 H 0.4499 0.35646 0.73227 0.0
H1829 H 0.40897 0.31834 0.71747 0.0
H1830 H 0.46146 0.29457 0.67756 0.0
H1831 H 0.46283 0.26412 0.67697 0.0
H1832 H 0.48805 0.29384 0.68917 0.0
H1833 H 0.47795 0.26792 0.71444 0.0
H1834 H 0.45317 0.23821 0.70205 0.0
H1835 H 0.44433 0.25036 0.71966 0.0
H1836 H 0.37253 0.27469 0.70167 0.0
H1837 H 0.34494 0.23177 0.68414 0.0
H1838 H 0.41498 0.2253 0.67879 0.0
C1839 C 0.47633 0.31913 0.71768 0.0
C1840 C 0.47536 0.3405 0.72608 0.0
C1841 C 0.45095 0.34022 0.72583 0.0
C1842 C 0.42765 0.31863 0.71755 0.0
C1843 C 0.42924 0.29771 0.70945 0.0
C1844 C 0.45306 0.29801 0.70931 0.0
C1845 C 0.44983 0.27376 0.69919 0.0
C1846 C 0.46653 0.28208 0.68487 0.0
C1847 C 0.45671 0.25655 0.70946 0.0
C1848 C 0.42045 0.25968 0.69368 0.0
C1849 C 0.40875 0.27353 0.69985 0.0
C1850 C 0.38155 0.26382 0.69666 0.0
C1851 C 0.36604 0.23949 0.68675 0.0
C1852 C 0.37797 0.22556 0.68 0.0
C1853 C 0.40544 0.23579 0.68361 0.0
H1854 H 0.68115 0.12915 0.7494 0.0
H1855 H 0.63771 0.15508 0.71871 0.0
H1856 H 0.67344 0.17144 0.70086 0.0
H1857 H 0.74848 0.18547 0.74471 0.0
H1858 H 0.76272 0.16409 0.7448 0.0
H1859 H 0.73468 0.15666 0.7558 0.0
H1860 H 0.70931 0.10899 0.74017 0.0
H1861 H 0.7372 0.11687 0.72896 0.0
H1862 H 0.7049 0.10541 0.71848 0.0
H1863 H 0.71067 0.18011 0.68478 0.0
H1864 H 0.74984 0.18453 0.67248 0.0
H1865 H 0.77137 0.15591 0.71413 0.0
C1866 C 0.67941 0.13863 0.73904 0.0
C1867 C 0.65675 0.14104 0.73548 0.0
C1868 C 0.65508 0.15344 0.7218 0.0
C1869 C 0.67521 0.16267 0.71155 0.0
C1870 C 0.69708 0.1597 0.71525 0.0
C1871 C 0.69959 0.14837 0.72878 0.0
C1872 C 0.72492 0.147 0.72967 0.0
C1873 C 0.74382 0.16436 0.74463 0.0
C1874 C 0.7187 0.11783 0.72929 0.0
C1875 C 0.73587 0.15874 0.71433 0.0
C1876 C 0.71935 0.16578 0.70619 0.0
C1877 C 0.72403 0.17515 0.69115 0.0
C1878 C 0.74621 0.17744 0.68423 0.0
C1879 C 0.76362 0.17075 0.69243 0.0
C1880 C 0.75855 0.16158 0.70776 0.0
H1881 H 0.90717 0.57656 0.70959 0.0
H1882 H 0.83332 0.50596 0.71747 0.0
H1883 H 0.80816 0.52357 0.7032 0.0
H1884 H 0.88298 0.62316 0.71659 0.0
H1885 H 0.90195 0.64397 0.70179 0.0
H1886 H 0.914 0.62552 0.7125 0.0
H1887 H 0.91693 0.60343 0.68528 0.0
H1888 H 0.90457 0.62158 0.67452 0.0
H1889 H 0.88777 0.58555 0.67095 0.0
H1890 H 0.79099 0.54851 0.68741 0.0
H1891 H 0.7833 0.58039 0.67298 0.0
H1892 H 0.86823 0.6355 0.67694 0.0
C1893 C 0.88571 0.56488 0.70861 0.0
C1894 C 0.87235 0.53967 0.71461 0.0
C1895 C 0.84417 0.52502 0.71271 0.0
C1896 C 0.82964 0.53495 0.70471 0.0
C1897 C 0.84351 0.55972 0.69886 0.0
C1898 C 0.87091 0.57465 0.70091 0.0
C1899 C 0.88106 0.60095 0.69378 0.0
C1900 C 0.89587 0.62481 0.70695 0.0
C1901 C 0.89861 0.60298 0.68033 0.0
C1902 C 0.85511 0.59826 0.68711 0.0
C1903 C 0.83365 0.57433 0.69014 0.0
C1904 C 0.80764 0.56733 0.68502 0.0
C1905 C 0.80347 0.58544 0.67676 0.0
C1906 C 0.8252 0.61027 0.67387 0.0
C1907 C 0.8513 0.61661 0.67901 0.0
H1908 H 0.51244 0.97785 0.20291 0.0
H1909 H 0.42678 0.92642 0.19565 0.0
H1910 H 0.42771 0.93032 0.16646 0.0
H1911 H 0.51678 0.02279 0.17499 0.0
H1912 H 0.54728 0.02738 0.16808 0.0
H1913 H 0.53999 0.01909 0.1882 0.0
H1914 H 0.54573 0.97777 0.1827 0.0
H1915 H 0.55307 0.98596 0.16254 0.0
H1916 H 0.52653 0.9533 0.16571 0.0
H1917 H 0.4378 0.94222 0.13826 0.0
H1918 H 0.45624 0.96095 0.11335 0.0
H1919 H 0.53542 0.00369 0.13908 0.0
C1920 C 0.49387 0.96737 0.19519 0.0
C1921 C 0.46954 0.95178 0.20157 0.0
C1922 C 0.4457 0.93818 0.19101 0.0
C1923 C 0.44601 0.94037 0.17443 0.0
C1924 C 0.47033 0.95608 0.16856 0.0
C1925 C 0.49383 0.96925 0.17862 0.0
C1926 C 0.51722 0.98547 0.16938 0.0
C1927 C 0.53113 0.01545 0.17553 0.0
C1928 C 0.53679 0.97499 0.17013 0.0
C1929 C 0.50316 0.9798 0.1526 0.0
C1930 C 0.47614 0.96271 0.15234 0.0
C1931 C 0.45897 0.95538 0.13828 0.0
C1932 C 0.46968 0.96601 0.12416 0.0
C1933 C 0.49733 0.9838 0.12418 0.0
C1934 C 0.51419 0.9904 0.13862 0.0
H1935 H 0.08073 0.56145 0.18515 0.0
H1936 H 0.11269 0.5084 0.17836 0.0
H1937 H 0.09401 0.4971 0.14985 0.0
H1938 H 0.01978 0.52159 0.15762 0.0
H1939 H 0.02098 0.55079 0.15045 0.0
H1940 H 0.0346 0.55261 0.17068 0.0
H1941 H 0.07974 0.59237 0.16509 0.0
H1942 H 0.06634 0.59058 0.14483 0.0
H1943 H 0.09593 0.58841 0.1483 0.0
H1944 H 0.07531 0.49464 0.12162 0.0
H1945 H 0.05696 0.50028 0.09585 0.0
H1946 H 0.03708 0.55487 0.12109 0.0
C1947 C 0.08366 0.54731 0.1777 0.0
C1948 C 0.09811 0.53574 0.18402 0.0
C1949 C 0.10132 0.51718 0.17388 0.0
C1950 C 0.09091 0.51075 0.15764 0.0
C1951 C 0.07726 0.52296 0.15175 0.0
C1952 C 0.07345 0.54071 0.16149 0.0
C1953 C 0.05914 0.55202 0.15203 0.0
C1954 C 0.03201 0.54375 0.15806 0.0
C1955 C 0.07632 0.58266 0.1526 0.0
C1956 C 0.05601 0.53831 0.13537 0.0
C1957 C 0.06642 0.52149 0.13548 0.0
C1958 C 0.06674 0.50744 0.12141 0.0
C1959 C 0.05615 0.51069 0.10684 0.0
C1960 C 0.04538 0.52788 0.10643 0.0
C1961 C 0.04526 0.5417 0.12095 0.0
H1962 H 0.48804 0.53442 0.19058 0.0
H1963 H 0.42366 0.45272 0.19054 0.0
H1964 H 0.42278 0.44524 0.16102 0.0
H1965 H 0.46553 0.54697 0.15205 0.0
H1966 H 0.49881 0.56636 0.14658 0.0
H1967 H 0.49295 0.56574 0.16748 0.0
H1968 H 0.52674 0.54991 0.17327 0.0
H1969 H 0.5326 0.55034 0.1524 0.0
H1970 H 0.52226 0.52013 0.1619 0.0
H1971 H 0.43031 0.44618 0.13174 0.0
H1972 H 0.44646 0.45501 0.10496 0.0
H1973 H 0.506 0.53615 0.12425 0.0
C1974 C 0.47342 0.51513 0.18431 0.0
C1975 C 0.4558 0.49417 0.19279 0.0
C1976 C 0.43738 0.46899 0.18424 0.0
C1977 C 0.43665 0.46461 0.16749 0.0
C1978 C 0.45451 0.48562 0.15951 0.0
C1979 C 0.47255 0.51038 0.16763 0.0
C1980 C 0.49053 0.52916 0.15637 0.0
C1981 C 0.48671 0.55349 0.15557 0.0
C1982 C 0.51976 0.53788 0.16128 0.0
C1983 C 0.48003 0.51098 0.14067 0.0
C1984 C 0.45909 0.48604 0.1427 0.0
C1985 C 0.44655 0.46571 0.12998 0.0
C1986 C 0.45578 0.47095 0.1148 0.0
C1987 C 0.47746 0.49628 0.1125 0.0
C1988 C 0.48952 0.51654 0.12564 0.0
H1989 H 0.97327 0.51396 0.82413 0.0
H1990 H 0.89222 0.44902 0.81096 0.0
H1991 H 0.88972 0.43731 0.83881 0.0
H1992 H 0.99255 0.47788 0.84846 0.0
H1993 H 0.01379 0.50612 0.86309 0.0
H1994 H 0.00827 0.51136 0.84261 0.0
H1995 H 0.99203 0.54362 0.85245 0.0
H1996 H 0.9976 0.53855 0.87299 0.0
H1997 H 0.96537 0.53228 0.86512 0.0
H1998 H 0.89696 0.43083 0.86774 0.0
H1999 H 0.91378 0.42977 0.89534 0.0
H2000 H 0.99053 0.49768 0.88913 0.0
C2001 C 0.95493 0.49731 0.82706 0.0
C2002 C 0.93289 0.48257 0.81529 0.0
C2003 C 0.90922 0.46106 0.81978 0.0
C2004 C 0.90764 0.4541 0.83557 0.0
C2005 C 0.92991 0.46878 0.84675 0.0
C2006 C 0.95309 0.48994 0.84269 0.0
C2007 C 0.97469 0.50151 0.85668 0.0
C2008 C 0.99874 0.49906 0.85245 0.0
C2009 C 0.9829 0.53072 0.86213 0.0
C2010 C 0.96016 0.48324 0.86916 0.0
C2011 C 0.93426 0.46468 0.86327 0.0
C2012 C 0.91715 0.44538 0.87252 0.0
C2013 C 0.92684 0.44498 0.88818 0.0
C2014 C 0.95344 0.4636 0.89434 0.0
C2015 C 0.97017 0.48304 0.88469 0.0
H2016 H 0.54699 0.45015 0.83981 0.0
H2017 H 0.52452 0.49442 0.80887 0.0
H2018 H 0.50704 0.50778 0.83166 0.0
H2019 H 0.49079 0.42509 0.86163 0.0
H2020 H 0.50883 0.42817 0.88063 0.0
H2021 H 0.52065 0.42307 0.8621 0.0
H2022 H 0.5662 0.46597 0.87064 0.0
H2023 H 0.55452 0.47116 0.88923 0.0
H2024 H 0.56747 0.49726 0.87609 0.0
H2025 H 0.4908 0.51513 0.85751 0.0
H2026 H 0.47703 0.51616 0.88474 0.0
H2027 H 0.50999 0.46696 0.89878 0.0
C2028 C 0.53879 0.46302 0.83789 0.0
C2029 C 0.53711 0.47125 0.82256 0.0
C2030 C 0.52575 0.48765 0.82047 0.0
C2031 C 0.51592 0.49547 0.83335 0.0
C2032 C 0.51765 0.48678 0.84826 0.0
C2033 C 0.52886 0.47098 0.85061 0.0
C2034 C 0.52758 0.46371 0.86771 0.0
C2035 C 0.51097 0.4332 0.86802 0.0
C2036 C 0.55561 0.47522 0.87643 0.0
C2037 C 0.51368 0.47769 0.87456 0.0
C2038 C 0.50821 0.49095 0.86316 0.0
C2039 C 0.495 0.50486 0.86655 0.0
C2040 C 0.4871 0.50517 0.88201 0.0
C2041 C 0.49236 0.49159 0.89388 0.0
C2042 C 0.50596 0.4778 0.89005 0.0
H2043 H 0.55813 0.05639 0.83907 0.0
H2044 H 0.54154 0.12152 0.84075 0.0
H2045 H 0.53613 0.11842 0.8698 0.0
H2046 H 0.50938 0.01766 0.86349 0.0
H2047 H 0.52828 0.00484 0.8734 0.0
H2048 H 0.53432 0.01454 0.85342 0.0
H2049 H 0.58406 0.04697 0.86318 0.0
H2050 H 0.57818 0.0373 0.88322 0.0
H2051 H 0.59313 0.07211 0.87998 0.0
H2052 H 0.53008 0.10644 0.89822 0.0
H2053 H 0.52064 0.08447 0.92329 0.0
H2054 H 0.53919 0.02581 0.90263 0.0
C2055 C 0.55398 0.07038 0.8457 0.0
C2056 C 0.55062 0.08946 0.83785 0.0
C2057 C 0.54437 0.10692 0.84668 0.0
C2058 C 0.54137 0.10536 0.86314 0.0
C2059 C 0.54447 0.08606 0.87052 0.0
C2060 C 0.5505 0.06878 0.86206 0.0
C2061 C 0.55035 0.04826 0.87242 0.0
C2062 C 0.52933 0.01964 0.86525 0.0
C2063 C 0.57809 0.05136 0.87485 0.0
C2064 C 0.54282 0.05636 0.88793 0.0
C2065 C 0.53999 0.07851 0.8867 0.0
C2066 C 0.53243 0.08922 0.89937 0.0
C2067 C 0.52722 0.0767 0.91356 0.0
C2068 C 0.52922 0.0535 0.91486 0.0
C2069 C 0.53746 0.04349 0.90193 0.0
H2070 H 0.13658 0.30996 0.52053 0.0
H2071 H 0.15804 0.24822 0.5221 0.0
H2072 H 0.17055 0.25456 0.49448 0.0
H2073 H 0.11115 0.29557 0.47812 0.0
H2074 H 0.12491 0.33042 0.47528 0.0
H2075 H 0.11536 0.31938 0.49467 0.0
H2076 H 0.16276 0.35399 0.50784 0.0
H2077 H 0.17247 0.36507 0.48849 0.0
H2078 H 0.19096 0.35372 0.50034 0.0
H2079 H 0.18296 0.26915 0.46715 0.0
H2080 H 0.19491 0.29145 0.44234 0.0
H2081 H 0.16695 0.34474 0.45894 0.0
C2082 C 0.14388 0.29771 0.51511 0.0
C2083 C 0.14608 0.27842 0.52356 0.0
C2084 C 0.15554 0.26271 0.51584 0.0
C2085 C 0.16291 0.26629 0.50016 0.0
C2086 C 0.16081 0.28572 0.49231 0.0
C2087 C 0.15153 0.30117 0.49951 0.0
C2088 C 0.15237 0.32153 0.48874 0.0
C2089 C 0.12427 0.31641 0.48392 0.0
C2090 C 0.17074 0.35028 0.49684 0.0
C2091 C 0.16397 0.31539 0.47447 0.0
C2092 C 0.16845 0.29449 0.47669 0.0
C2093 C 0.17939 0.28543 0.46523 0.0
C2094 C 0.18601 0.29815 0.45116 0.0
C2095 C 0.18187 0.31982 0.44869 0.0
C2096 C 0.17058 0.32839 0.46053 0.0
H2097 H 0.75778 0.89566 0.52014 0.0
H2098 H 0.72688 0.81334 0.53014 0.0
H2099 H 0.70305 0.79754 0.50271 0.0
H2100 H 0.69934 0.88492 0.49586 0.0
H2101 H 0.71824 0.90855 0.48223 0.0
H2102 H 0.73172 0.91308 0.50285 0.0
H2103 H 0.77357 0.91409 0.49323 0.0
H2104 H 0.76018 0.90944 0.47258 0.0
H2105 H 0.76979 0.88651 0.47976 0.0
H2106 H 0.68384 0.79099 0.47374 0.0
H2107 H 0.67043 0.79421 0.44576 0.0
H2108 H 0.71469 0.88092 0.45501 0.0
C2109 C 0.74609 0.87429 0.51656 0.0
C2110 C 0.74425 0.85571 0.52726 0.0
C2111 C 0.72835 0.82792 0.52219 0.0
C2112 C 0.71487 0.81877 0.50662 0.0
C2113 C 0.71744 0.83769 0.49632 0.0
C2114 C 0.73258 0.86486 0.50113 0.0
C2115 C 0.73248 0.88112 0.48775 0.0
C2116 C 0.71968 0.8979 0.49246 0.0
C2117 C 0.76068 0.89883 0.48306 0.0
C2118 C 0.71523 0.85887 0.47456 0.0
C2119 C 0.70658 0.83395 0.47973 0.0
C2120 C 0.6904 0.8104 0.46959 0.0
C2121 C 0.68284 0.81242 0.45376 0.0
C2122 C 0.69159 0.83781 0.44823 0.0
C2123 C 0.70798 0.86125 0.45883 0.0
H2124 H 0.12949 0.81382 0.51434 0.0
H2125 H 0.1053 0.87303 0.52287 0.0
H2126 H 0.10886 0.88142 0.49442 0.0
H2127 H 0.17904 0.85105 0.4894 0.0
H2128 H 0.17319 0.82231 0.47622 0.0
H2129 H 0.16599 0.8188 0.49682 0.0
H2130 H 0.11756 0.78161 0.48727 0.0
H2131 H 0.12462 0.78497 0.46662 0.0
H2132 H 0.09754 0.78838 0.47327 0.0
H2133 H 0.11764 0.88543 0.46534 0.0
H2134 H 0.13206 0.88545 0.43818 0.0
H2135 H 0.15206 0.82493 0.44892 0.0
C2136 C 0.12486 0.82854 0.51028 0.0
C2137 C 0.1169 0.84258 0.52096 0.0
C2138 C 0.11085 0.8615 0.51496 0.0
C2139 C 0.11299 0.86657 0.4988 0.0
C2140 C 0.12127 0.85266 0.48872 0.0
C2141 C 0.12713 0.83404 0.49424 0.0
C2142 C 0.13705 0.82291 0.48119 0.0
C2143 C 0.1655 0.82915 0.48621 0.0
C2144 C 0.11805 0.79267 0.47683 0.0
C2145 C 0.1363 0.83853 0.46756 0.0
C2146 C 0.12685 0.85536 0.47209 0.0
C2147 C 0.12488 0.87218 0.46163 0.0
C2148 C 0.13301 0.87196 0.4462 0.0
C2149 C 0.14319 0.8552 0.44139 0.0
C2150 C 0.14458 0.83813 0.45225 0.0
H2151 H 0.66857 0.81732 0.14884 0.0
H2152 H 0.63463 0.86903 0.14705 0.0
H2153 H 0.63602 0.87268 0.17667 0.0
H2154 H 0.63438 0.78167 0.18031 0.0
H2155 H 0.66197 0.77985 0.18964 0.0
H2156 H 0.65918 0.782 0.16833 0.0
H2157 H 0.70617 0.82414 0.17126 0.0
H2158 H 0.7092 0.82198 0.19257 0.0
H2159 H 0.71359 0.85245 0.1854 0.0
H2160 H 0.63926 0.86902 0.20637 0.0
H2161 H 0.64541 0.8594 0.23408 0.0
H2162 H 0.67933 0.81202 0.21637 0.0
C2163 C 0.66186 0.8298 0.15467 0.0
C2164 C 0.65141 0.84281 0.14561 0.0
C2165 C 0.64237 0.85856 0.15372 0.0
C2166 C 0.64322 0.86089 0.17054 0.0
C2167 C 0.65333 0.84752 0.17907 0.0
C2168 C 0.66268 0.83246 0.17143 0.0
C2169 C 0.67218 0.81975 0.18336 0.0
C2170 C 0.65595 0.78899 0.18022 0.0
C2171 C 0.70206 0.83022 0.18313 0.0
C2172 C 0.66642 0.82976 0.1989 0.0
C2173 C 0.65558 0.84576 0.19618 0.0
C2174 C 0.648 0.85675 0.20867 0.0
C2175 C 0.6517 0.85127 0.22438 0.0
C2176 C 0.66292 0.83501 0.22744 0.0
C2177 C 0.67041 0.82426 0.21446 0.0
H2178 H 0.20728 0.80453 0.15888 0.0
H2179 H 0.2112 0.73274 0.1651 0.0
H2180 H 0.19297 0.7299 0.19119 0.0
H2181 H 0.22633 0.83254 0.20031 0.0
H2182 H 0.2042 0.84579 0.20038 0.0
H2183 H 0.21713 0.84202 0.18199 0.0
H2184 H 0.16922 0.81305 0.16786 0.0
H2185 H 0.15614 0.81675 0.1862 0.0
H2186 H 0.14566 0.78379 0.17652 0.0
H2187 H 0.17445 0.73471 0.21658 0.0
H2188 H 0.15699 0.74707 0.23973 0.0
H2189 H 0.16587 0.8163 0.21746 0.0
C2190 C 0.20409 0.78812 0.16568 0.0
C2191 C 0.2108 0.76893 0.15999 0.0
C2192 C 0.20657 0.74789 0.16933 0.0
C2193 C 0.19609 0.746 0.18413 0.0
C2194 C 0.18992 0.76533 0.18946 0.0
C2195 C 0.19376 0.78601 0.18057 0.0
C2196 C 0.18583 0.80437 0.18924 0.0
C2197 C 0.2098 0.83286 0.19321 0.0
C2198 C 0.16284 0.80449 0.17936 0.0
C2199 C 0.17692 0.79073 0.20436 0.0
C2200 C 0.17941 0.76823 0.20422 0.0
C2201 C 0.17249 0.75235 0.21686 0.0
C2202 C 0.16276 0.75965 0.23002 0.0
C2203 C 0.1601 0.78271 0.2305 0.0
C2204 C 0.16732 0.79838 0.21742 0.0
H2205 H 0.15469 0.34755 0.15902 0.0
H2206 H 0.23781 0.40982 0.16547 0.0
H2207 H 0.23854 0.40684 0.19476 0.0
H2208 H 0.13643 0.3701 0.19462 0.0
H2209 H 0.11332 0.33669 0.19894 0.0
H2210 H 0.11962 0.3433 0.17847 0.0
H2211 H 0.13243 0.30647 0.17531 0.0
H2212 H 0.12626 0.29981 0.1958 0.0
H2213 H 0.15809 0.30817 0.18926 0.0
H2214 H 0.23007 0.39704 0.2235 0.0
H2215 H 0.2131 0.38157 0.24931 0.0
H2216 H 0.13491 0.32735 0.22411 0.0
C2217 C 0.17303 0.3608 0.16655 0.0
C2218 C 0.19622 0.37894 0.15983 0.0
C2219 C 0.21987 0.39549 0.17022 0.0
C2220 C 0.22045 0.39406 0.18691 0.0
C2221 C 0.19721 0.37603 0.19309 0.0
C2222 C 0.17393 0.35975 0.18322 0.0
C2223 C 0.1516 0.34226 0.19287 0.0
C2224 C 0.12891 0.34847 0.19112 0.0
C2225 C 0.14151 0.31241 0.18802 0.0
C2226 C 0.16594 0.35123 0.20974 0.0
C2227 C 0.19224 0.37068 0.20961 0.0
C2228 C 0.20947 0.38193 0.22374 0.0
C2229 C 0.19955 0.37311 0.23838 0.0
C2230 C 0.17257 0.35329 0.23885 0.0
C2231 C 0.15567 0.34229 0.22424 0.0
H2232 H 0.83416 0.63077 0.85864 0.0
H2233 H 0.74798 0.58841 0.8528 0.0
H2234 H 0.74845 0.58963 0.82337 0.0
H2235 H 0.84336 0.67522 0.82932 0.0
H2236 H 0.87188 0.67507 0.8223 0.0
H2237 H 0.86467 0.66923 0.84274 0.0
H2238 H 0.86421 0.62425 0.83847 0.0
H2239 H 0.87146 0.62998 0.81801 0.0
H2240 H 0.84266 0.59956 0.8221 0.0
H2241 H 0.75851 0.59786 0.79467 0.0
H2242 H 0.77729 0.61223 0.76909 0.0
H2243 H 0.85686 0.64888 0.79377 0.0
C2244 C 0.81535 0.62175 0.8512 0.0
C2245 C 0.79102 0.60948 0.85807 0.0
C2246 C 0.76687 0.59761 0.84783 0.0
C2247 C 0.76694 0.59832 0.8311 0.0
C2248 C 0.79131 0.61086 0.82477 0.0
C2249 C 0.81506 0.62228 0.83451 0.0
C2250 C 0.83855 0.63521 0.8248 0.0
C2251 C 0.85561 0.66548 0.83011 0.0
C2252 C 0.85519 0.62142 0.82591 0.0
C2253 C 0.82431 0.62969 0.80808 0.0
C2254 C 0.79708 0.61549 0.80829 0.0
C2255 C 0.77981 0.60872 0.79434 0.0
C2256 C 0.79068 0.61682 0.77983 0.0
C2257 C 0.81856 0.63154 0.77933 0.0
C2258 C 0.83548 0.63782 0.79371 0.0
H2259 H 0.43528 0.22476 0.84769 0.0
H2260 H 0.39939 0.14366 0.86088 0.0
H2261 H 0.37256 0.12665 0.83436 0.0
H2262 H 0.37718 0.21761 0.82585 0.0
H2263 H 0.39514 0.23835 0.81074 0.0
H2264 H 0.41121 0.24398 0.83079 0.0
H2265 H 0.44878 0.23874 0.81919 0.0
H2266 H 0.4328 0.23306 0.7991 0.0
H2267 H 0.44042 0.20878 0.80635 0.0
H2268 H 0.34959 0.1187 0.80639 0.0
H2269 H 0.3324 0.1204 0.77902 0.0
H2270 H 0.38437 0.20664 0.78419 0.0
C2271 C 0.42201 0.20338 0.84496 0.0
C2272 C 0.41949 0.18551 0.85633 0.0
C2273 C 0.40145 0.15773 0.8524 0.0
C2274 C 0.38625 0.14788 0.83735 0.0
C2275 C 0.38936 0.16609 0.82641 0.0
C2276 C 0.4068 0.19324 0.83004 0.0
C2277 C 0.40639 0.20864 0.81623 0.0
C2278 C 0.39691 0.2283 0.8212 0.0
C2279 C 0.43373 0.22315 0.80984 0.0
C2280 C 0.38611 0.18588 0.80419 0.0
C2281 C 0.3764 0.1615 0.8103 0.0
C2282 C 0.35707 0.13767 0.80147 0.0
C2283 C 0.34738 0.13883 0.786 0.0
C2284 C 0.35716 0.16363 0.77953 0.0
C2285 C 0.37683 0.18738 0.78876 0.0
H2286 H 0.81702 0.17017 0.85418 0.0
H2287 H 0.79052 0.22813 0.85811 0.0
H2288 H 0.7952 0.23373 0.8293 0.0
H2289 H 0.86692 0.20446 0.82871 0.0
H2290 H 0.86157 0.17457 0.81704 0.0
H2291 H 0.85407 0.17344 0.83762 0.0
H2292 H 0.80588 0.13521 0.82861 0.0
H2293 H 0.81327 0.13614 0.80799 0.0
H2294 H 0.78586 0.14 0.81344 0.0
H2295 H 0.80554 0.23519 0.80042 0.0
H2296 H 0.82017 0.23198 0.77374 0.0
H2297 H 0.83992 0.17305 0.78867 0.0
C2298 C 0.81212 0.18402 0.849 0.0
C2299 C 0.80331 0.19865 0.85847 0.0
C2300 C 0.79688 0.21634 0.85111 0.0
C2301 C 0.79963 0.21979 0.83475 0.0
C2302 C 0.80877 0.20537 0.82587 0.0
C2303 C 0.8148 0.18774 0.83272 0.0
C2304 C 0.8251 0.17535 0.82069 0.0
C2305 C 0.85361 0.18238 0.82636 0.0
C2306 C 0.80641 0.14487 0.81749 0.0
C2307 C 0.82437 0.18911 0.80607 0.0
C2308 C 0.81474 0.20622 0.80927 0.0
C2309 C 0.81286 0.22163 0.79774 0.0
C2310 C 0.8211 0.21955 0.78256 0.0
C2311 C 0.83116 0.20219 0.779 0.0
C2312 C 0.8326 0.18671 0.79098 0.0
H2313 H 0.32372 0.15424 0.48286 0.0
H2314 H 0.24824 0.15212 0.47914 0.0
H2315 H 0.24723 0.15075 0.50855 0.0
H2316 H 0.30912 0.10935 0.51241 0.0
H2317 H 0.34211 0.127 0.52291 0.0
H2318 H 0.33732 0.12887 0.5017 0.0
H2319 H 0.36194 0.1807 0.50676 0.0
H2320 H 0.36692 0.179 0.52799 0.0
H2321 H 0.35072 0.1966 0.52102 0.0
H2322 H 0.25411 0.14843 0.53839 0.0
H2323 H 0.26798 0.14468 0.56612 0.0
H2324 H 0.3394 0.14943 0.55008 0.0
C2325 C 0.30716 0.15391 0.48825 0.0
C2326 C 0.28608 0.15335 0.47871 0.0
C2327 C 0.2645 0.15232 0.4862 0.0
C2328 C 0.26383 0.1517 0.5029 0.0
C2329 C 0.2849 0.15214 0.51192 0.0
C2330 C 0.30617 0.15327 0.50485 0.0
C2331 C 0.32597 0.1528 0.51713 0.0
C2332 C 0.32878 0.12803 0.5133 0.0
C2333 C 0.35298 0.17883 0.51829 0.0
C2334 C 0.3124 0.15099 0.53221 0.0
C2335 C 0.28881 0.15077 0.52901 0.0
C2336 C 0.27263 0.14876 0.54106 0.0
C2337 C 0.28073 0.14677 0.55678 0.0
C2338 C 0.30475 0.14671 0.56028 0.0
C2339 C 0.32078 0.14907 0.54778 0.0
H2340 H 0.86805 0.10582 0.50297 0.0
H2341 H 0.89707 0.18343 0.48536 0.0
H2342 H 0.88366 0.199 0.50933 0.0
H2343 H 0.8114 0.10209 0.5195 0.0
H2344 H 0.81433 0.08627 0.53671 0.0
H2345 H 0.82624 0.08128 0.51818 0.0
H2346 H 0.87275 0.09827 0.53332 0.0
H2347 H 0.86098 0.10331 0.5519 0.0
H2348 H 0.88968 0.13068 0.54499 0.0
H2349 H 0.86707 0.20608 0.53521 0.0
H2350 H 0.84843 0.20416 0.56112 0.0
H2351 H 0.83055 0.122 0.56188 0.0
C2352 C 0.87186 0.12619 0.50421 0.0
C2353 C 0.88363 0.1434 0.49225 0.0
C2354 C 0.8878 0.16976 0.49424 0.0
C2355 C 0.8804 0.17884 0.50786 0.0
C2356 C 0.86888 0.16135 0.5194 0.0
C2357 C 0.86464 0.13558 0.51772 0.0
C2358 C 0.85175 0.12072 0.53181 0.0
C2359 C 0.8243 0.09614 0.52621 0.0
C2360 C 0.86988 0.11278 0.54105 0.0
C2361 C 0.84938 0.14215 0.54169 0.0
C2362 C 0.85936 0.16543 0.53431 0.0
C2363 C 0.85915 0.18794 0.54108 0.0
C2364 C 0.84837 0.18659 0.55575 0.0
C2365 C 0.83794 0.1629 0.56351 0.0
C2366 C 0.8386 0.14047 0.55635 0.0
H2367 H 0.84655 0.7286 0.49832 0.0
H2368 H 0.86688 0.66692 0.48838 0.0
H2369 H 0.86142 0.65626 0.51648 0.0
H2370 H 0.87821 0.75046 0.54015 0.0
H2371 H 0.85209 0.7554 0.54697 0.0
H2372 H 0.85999 0.75987 0.52651 0.0
H2373 H 0.81098 0.72542 0.51617 0.0
H2374 H 0.80298 0.7207 0.53657 0.0
H2375 H 0.7958 0.69232 0.52258 0.0
H2376 H 0.85131 0.65047 0.54492 0.0
H2377 H 0.83671 0.64951 0.57202 0.0
H2378 H 0.82241 0.71468 0.56367 0.0
C2379 C 0.85037 0.71325 0.5022 0.0
C2380 C 0.85726 0.69864 0.49128 0.0
C2381 C 0.86153 0.67827 0.49662 0.0
C2382 C 0.85858 0.67216 0.51253 0.0
C2383 C 0.85127 0.68656 0.52294 0.0
C2384 C 0.84724 0.70671 0.51804 0.0
C2385 C 0.83796 0.71798 0.5314 0.0
C2386 C 0.85828 0.74769 0.53657 0.0
C2387 C 0.81029 0.71385 0.52637 0.0
C2388 C 0.83701 0.70072 0.54447 0.0
C2389 C 0.84503 0.68293 0.53937 0.0
C2390 C 0.84526 0.66449 0.54913 0.0
C2391 C 0.83702 0.66418 0.56453 0.0
C2392 C 0.82855 0.68211 0.57001 0.0
C2393 C 0.82865 0.70064 0.5598 0.0
loop_
_geom_bond_atom_site_label_1
_geom_bond_atom_site_label_2
_geom_bond_distance
_geom_bond_site_symmetry_2
_ccdc_geom_bond_type
P0 O11 1.490 . S
P0 C14 1.812 . S
P0 C20 1.803 . S
P0 C26 1.819 . S
H1 C15 0.941 . S
H2 C16 0.939 . S
H3 C18 0.940 . S
H4 C19 0.940 . S
H5 C21 0.939 . S
H6 C22 0.942 . S
H7 C24 0.940 . S
H8 C25 0.939 . S
H9 C27 0.941 . S
H10 C31 0.939 . S
O11 P0 1.490 . S
H12 C28 0.939 . S
H13 C30 0.940 . S
C14 P0 1.812 . S
C14 C15 1.389 . S
C14 C19 1.391 . S
C15 H1 0.941 . S
C15 C14 1.389 . S
C15 C16 1.397 . S
C16 H2 0.939 . S
C16 C15 1.397 . S
C16 C17 1.378 . S
C17 C16 1.378 . S
C17 C18 1.378 . S
C18 H3 0.940 . S
C18 C17 1.378 . S
C18 C19 1.396 . S
C19 H4 0.940 . S
C19 C14 1.391 . S
C19 C18 1.396 . S
C20 P0 1.803 . S
C20 C21 1.378 . S
C20 C25 1.400 . S
C21 H5 0.939 . S
C21 C20 1.378 . S
C21 C22 1.361 . S
C22 H6 0.942 . S
C22 C21 1.361 . S
C22 C23 1.369 . S
C23 C22 1.369 . S
C23 C24 1.404 . S
C24 H7 0.940 . S
C24 C23 1.404 . S
C24 C25 1.389 . S
C25 H8 0.939 . S
C25 C20 1.400 . S
C25 C24 1.389 . S
C26 P0 1.819 . S
C26 C27 1.391 . S
C26 C31 1.391 . S
C27 H9 0.941 . S
C27 C26 1.391 . S
C27 C28 1.396 . S
C28 H12 0.939 . S
C28 C27 1.396 . S
C28 C29 1.397 . S
C29 C28 1.397 . S
C29 C30 1.385 . S
C30 H13 0.940 . S
C30 C29 1.385 . S
C30 C31 1.388 . S
C31 H10 0.939 . S
C31 C26 1.391 . S
C31 C30 1.388 . S
P32 O43 1.490 . S
P32 C46 1.812 . S
P32 C52 1.803 . S
P32 C58 1.819 . S
H33 C47 0.941 . S
H34 C48 0.939 . S
H35 C50 0.940 . S
H36 C51 0.940 . S
H37 C53 0.939 . S
H38 C54 0.942 . S
H39 C56 0.940 . S
H40 C57 0.939 . S
H41 C59 0.941 . S
H42 C63 0.939 . S
O43 P32 1.490 . S
H44 C60 0.939 . S
H45 C62 0.940 . S
C46 P32 1.812 . S
C46 C47 1.389 . S
C46 C51 1.391 . S
C47 H33 0.941 . S
C47 C46 1.389 . S
C47 C48 1.397 . S
C48 H34 0.939 . S
C48 C47 1.397 . S
C48 C49 1.378 . S
C49 C48 1.378 . S
C49 C50 1.378 . S
C50 H35 0.940 . S
C50 C49 1.378 . S
C50 C51 1.396 . S
C51 H36 0.940 . S
C51 C46 1.391 . S
C51 C50 1.396 . S
C52 P32 1.803 . S
C52 C53 1.378 . S
C52 C57 1.400 . S
C53 H37 0.939 . S
C53 C52 1.378 . S
C53 C54 1.361 . S
C54 H38 0.942 . S
C54 C53 1.361 . S
C54 C55 1.369 . S
C55 C54 1.369 . S
C55 C56 1.404 . S
C56 H39 0.940 . S
C56 C55 1.404 . S
C56 C57 1.389 . S
C57 H40 0.939 . S
C57 C52 1.400 . S
C57 C56 1.389 . S
C58 P32 1.819 . S
C58 C59 1.391 . S
C58 C63 1.391 . S
C59 H41 0.941 . S
C59 C58 1.391 . S
C59 C60 1.396 . S
C60 H44 0.939 . S
C60 C59 1.396 . S
C60 C61 1.397 . S
C61 C60 1.397 . S
C61 C62 1.385 . S
C62 H45 0.940 . S
C62 C61 1.385 . S
C62 C63 1.388 . S
C63 H42 0.939 . S
C63 C58 1.391 . S
C63 C62 1.388 . S
P64 O75 1.490 . S
P64 C78 1.812 . S
P64 C84 1.803 . S
P64 C90 1.819 . S
H65 C79 0.941 . S
H66 C80 0.939 . S
H67 C82 0.940 . S
H68 C83 0.940 . S
H69 C85 0.939 . S
H70 C86 0.942 . S
H71 C88 0.940 . S
H72 C89 0.939 . S
H73 C91 0.941 . S
H74 C95 0.939 . S
O75 P64 1.490 . S
H76 C92 0.939 . S
H77 C94 0.940 . S
C78 P64 1.812 . S
C78 C79 1.389 . S
C78 C83 1.391 . S
C79 H65 0.941 . S
C79 C78 1.389 . S
C79 C80 1.397 . S
C80 H66 0.939 . S
C80 C79 1.397 . S
C80 C81 1.378 . S
C81 C80 1.378 . S
C81 C82 1.378 . S
C82 H67 0.940 . S
C82 C81 1.378 . S
C82 C83 1.396 . S
C83 H68 0.940 . S
C83 C78 1.391 . S
C83 C82 1.396 . S
C84 P64 1.803 . S
C84 C85 1.378 . S
C84 C89 1.400 . S
C85 H69 0.939 . S
C85 C84 1.378 . S
C85 C86 1.361 . S
C86 H70 0.942 . S
C86 C85 1.361 . S
C86 C87 1.369 . S
C87 C86 1.369 . S
C87 C88 1.404 . S
C88 H71 0.940 . S
C88 C87 1.404 . S
C88 C89 1.389 . S
C89 H72 0.939 . S
C89 C84 1.400 . S
C89 C88 1.389 . S
C90 P64 1.819 . S
C90 C91 1.391 . S
C90 C95 1.391 . S
C91 H73 0.941 . S
C91 C90 1.391 . S
C91 C92 1.396 . S
C92 H76 0.939 . S
C92 C91 1.396 . S
C92 C93 1.397 . S
C93 C92 1.397 . S
C93 C94 1.385 . S
C94 H77 0.940 . S
C94 C93 1.385 . S
C94 C95 1.388 . S
C95 H74 0.939 . S
C95 C90 1.391 . S
C95 C94 1.388 . S
P96 O107 1.490 . S
P96 C110 1.812 . S
P96 C116 1.803 . S
P96 C122 1.819 . S
H97 C111 0.941 . S
H98 C112 0.939 . S
H99 C114 0.940 . S
H100 C115 0.940 . S
H101 C117 0.939 . S
H102 C118 0.942 . S
H103 C120 0.940 . S
H104 C121 0.939 . S
H105 C123 0.941 . S
H106 C127 0.939 . S
O107 P96 1.490 . S
H108 C124 0.939 . S
H109 C126 0.940 . S
C110 P96 1.812 . S
C110 C111 1.389 . S
C110 C115 1.391 . S
C111 H97 0.941 . S
C111 C110 1.389 . S
C111 C112 1.397 . S
C112 H98 0.939 . S
C112 C111 1.397 . S
C112 C113 1.378 . S
C113 C112 1.378 . S
C113 C114 1.378 . S
C114 H99 0.940 . S
C114 C113 1.378 . S
C114 C115 1.396 . S
C115 H100 0.940 . S
C115 C110 1.391 . S
C115 C114 1.396 . S
C116 P96 1.803 . S
C116 C117 1.378 . S
C116 C121 1.400 . S
C117 H101 0.939 . S
C117 C116 1.378 . S
C117 C118 1.361 . S
C118 H102 0.942 . S
C118 C117 1.361 . S
C118 C119 1.369 . S
C119 C118 1.369 . S
C119 C120 1.404 . S
C120 H103 0.940 . S
C120 C119 1.404 . S
C120 C121 1.389 . S
C121 H104 0.939 . S
C121 C116 1.400 . S
C121 C120 1.389 . S
C122 P96 1.819 . S
C122 C123 1.391 . S
C122 C127 1.391 . S
C123 H105 0.941 . S
C123 C122 1.391 . S
C123 C124 1.396 . S
C124 H108 0.939 . S
C124 C123 1.396 . S
C124 C125 1.397 . S
C125 C124 1.397 . S
C125 C126 1.385 . S
C126 H109 0.940 . S
C126 C125 1.385 . S
C126 C127 1.388 . S
C127 H106 0.939 . S
C127 C122 1.391 . S
C127 C126 1.388 . S
P128 O139 1.490 . S
P128 C142 1.812 . S
P128 C148 1.803 . S
P128 C154 1.819 . S
H129 C143 0.941 . S
H130 C144 0.939 . S
H131 C146 0.940 . S
H132 C147 0.940 . S
H133 C149 0.939 . S
H134 C150 0.942 . S
H135 C152 0.940 . S
H136 C153 0.939 . S
H137 C155 0.941 . S
H138 C159 0.939 . S
O139 P128 1.490 . S
H140 C156 0.939 . S
H141 C158 0.940 . S
C142 P128 1.812 . S
C142 C143 1.389 . S
C142 C147 1.391 . S
C143 H129 0.941 . S
C143 C142 1.389 . S
C143 C144 1.397 . S
C144 H130 0.939 . S
C144 C143 1.397 . S
C144 C145 1.378 . S
C145 C144 1.378 . S
C145 C146 1.378 . S
C146 H131 0.940 . S
C146 C145 1.378 . S
C146 C147 1.396 . S
C147 H132 0.940 . S
C147 C142 1.391 . S
C147 C146 1.396 . S
C148 P128 1.803 . S
C148 C149 1.378 . S
C148 C153 1.400 . S
C149 H133 0.939 . S
C149 C148 1.378 . S
C149 C150 1.361 . S
C150 H134 0.942 . S
C150 C149 1.361 . S
C150 C151 1.369 . S
C151 C150 1.369 . S
C151 C152 1.404 . S
C152 H135 0.940 . S
C152 C151 1.404 . S
C152 C153 1.389 . S
C153 H136 0.939 . S
C153 C148 1.400 . S
C153 C152 1.389 . S
C154 P128 1.819 . S
C154 C155 1.391 . S
C154 C159 1.391 . S
C155 H137 0.941 . S
C155 C154 1.391 . S
C155 C156 1.396 . S
C156 H140 0.939 . S
C156 C155 1.396 . S
C156 C157 1.397 . S
C157 C156 1.397 . S
C157 C158 1.385 . S
C158 H141 0.940 . S
C158 C157 1.385 . S
C158 C159 1.388 . S
C159 H138 0.939 . S
C159 C154 1.391 . S
C159 C158 1.388 . S
P160 O171 1.490 . S
P160 C174 1.812 . S
P160 C180 1.803 . S
P160 C186 1.819 . S
H161 C175 0.941 . S
H162 C176 0.939 . S
H163 C178 0.940 . S
H164 C179 0.940 . S
H165 C181 0.939 . S
H166 C182 0.942 . S
H167 C184 0.940 . S
H168 C185 0.939 . S
H169 C187 0.941 . S
H170 C191 0.939 . S
O171 P160 1.490 . S
H172 C188 0.939 . S
H173 C190 0.940 . S
C174 P160 1.812 . S
C174 C175 1.389 . S
C174 C179 1.391 . S
C175 H161 0.941 . S
C175 C174 1.389 . S
C175 C176 1.397 . S
C176 H162 0.939 . S
C176 C175 1.397 . S
C176 C177 1.378 . S
C177 C176 1.378 . S
C177 C178 1.378 . S
C178 H163 0.940 . S
C178 C177 1.378 . S
C178 C179 1.396 . S
C179 H164 0.940 . S
C179 C174 1.391 . S
C179 C178 1.396 . S
C180 P160 1.803 . S
C180 C181 1.378 . S
C180 C185 1.400 . S
C181 H165 0.939 . S
C181 C180 1.378 . S
C181 C182 1.361 . S
C182 H166 0.942 . S
C182 C181 1.361 . S
C182 C183 1.369 . S
C183 C182 1.369 . S
C183 C184 1.404 . S
C184 H167 0.940 . S
C184 C183 1.404 . S
C184 C185 1.389 . S
C185 H168 0.939 . S
C185 C180 1.400 . S
C185 C184 1.389 . S
C186 P160 1.819 . S
C186 C187 1.391 . S
C186 C191 1.391 . S
C187 H169 0.941 . S
C187 C186 1.391 . S
C187 C188 1.396 . S
C188 H172 0.939 . S
C188 C187 1.396 . S
C188 C189 1.397 . S
C189 C188 1.397 . S
C189 C190 1.385 . S
C190 H173 0.940 . S
C190 C189 1.385 . S
C190 C191 1.388 . S
C191 H170 0.939 . S
C191 C186 1.391 . S
C191 C190 1.388 . S
P192 O203 1.490 1_655 S
P192 C206 1.812 . S
P192 C212 1.803 . S
P192 C218 1.819 . S
H193 C207 0.941 . S
H194 C208 0.939 . S
H195 C210 0.940 . S
H196 C211 0.940 . S
H197 C213 0.939 1_455 S
H198 C214 0.942 . S
H199 C216 0.940 . S
H200 C217 0.939 . S
H201 C219 0.941 . S
H202 C223 0.939 . S
O203 P192 1.490 1_455 S
H204 C220 0.939 . S
H205 C222 0.940 . S
C206 P192 1.812 . S
C206 C207 1.389 . S
C206 C211 1.391 . S
C207 H193 0.941 . S
C207 C206 1.389 . S
C207 C208 1.397 . S
C208 H194 0.939 . S
C208 C207 1.397 . S
C208 C209 1.378 . S
C209 C208 1.378 . S
C209 C210 1.378 . S
C210 H195 0.940 . S
C210 C209 1.378 . S
C210 C211 1.396 . S
C211 H196 0.940 . S
C211 C206 1.391 . S
C211 C210 1.396 . S
C212 P192 1.803 . S
C212 C213 1.378 . S
C212 C217 1.400 . S
C213 H197 0.939 1_655 S
C213 C212 1.378 . S
C213 C214 1.361 . S
C214 H198 0.942 . S
C214 C213 1.361 . S
C214 C215 1.369 . S
C215 C214 1.369 . S
C215 C216 1.404 . S
C216 H199 0.940 . S
C216 C215 1.404 . S
C216 C217 1.389 . S
C217 H200 0.939 . S
C217 C212 1.400 . S
C217 C216 1.389 . S
C218 P192 1.819 . S
C218 C219 1.391 1_655 S
C218 C223 1.391 . S
C219 H201 0.941 . S
C219 C218 1.391 1_455 S
C219 C220 1.396 . S
C220 H204 0.939 . S
C220 C219 1.396 . S
C220 C221 1.397 1_455 S
C221 C220 1.397 1_655 S
C221 C222 1.385 . S
C222 H205 0.940 . S
C222 C221 1.385 . S
C222 C223 1.388 . S
C223 H202 0.939 . S
C223 C218 1.391 . S
C223 C222 1.388 . S
P224 O235 1.490 . S
P224 C238 1.812 . S
P224 C244 1.803 . S
P224 C250 1.819 . S
H225 C239 0.941 . S
H226 C240 0.939 . S
H227 C242 0.940 . S
H228 C243 0.940 . S
H229 C245 0.939 . S
H230 C246 0.942 . S
H231 C248 0.940 . S
H232 C249 0.939 . S
H233 C251 0.941 . S
H234 C255 0.939 . S
O235 P224 1.490 . S
H236 C252 0.939 . S
H237 C254 0.940 . S
C238 P224 1.812 . S
C238 C239 1.389 . S
C238 C243 1.391 . S
C239 H225 0.941 . S
C239 C238 1.389 . S
C239 C240 1.397 . S
C240 H226 0.939 . S
C240 C239 1.397 . S
C240 C241 1.378 . S
C241 C240 1.378 . S
C241 C242 1.378 . S
C242 H227 0.940 . S
C242 C241 1.378 . S
C242 C243 1.396 . S
C243 H228 0.940 . S
C243 C238 1.391 . S
C243 C242 1.396 . S
C244 P224 1.803 . S
C244 C245 1.378 . S
C244 C249 1.400 . S
C245 H229 0.939 . S
C245 C244 1.378 . S
C245 C246 1.361 . S
C246 H230 0.942 . S
C246 C245 1.361 . S
C246 C247 1.369 . S
C247 C246 1.369 . S
C247 C248 1.404 . S
C248 H231 0.940 . S
C248 C247 1.404 . S
C248 C249 1.389 . S
C249 H232 0.939 . S
C249 C244 1.400 . S
C249 C248 1.389 . S
C250 P224 1.819 . S
C250 C251 1.391 . S
C250 C255 1.391 . S
C251 H233 0.941 . S
C251 C250 1.391 . S
C251 C252 1.396 . S
C252 H236 0.939 . S
C252 C251 1.396 . S
C252 C253 1.397 . S
C253 C252 1.397 . S
C253 C254 1.385 . S
C254 H237 0.940 . S
C254 C253 1.385 . S
C254 C255 1.388 . S
C255 H234 0.939 . S
C255 C250 1.391 . S
C255 C254 1.388 . S
P256 O267 1.490 . S
P256 C270 1.812 . S
P256 C276 1.803 . S
P256 C282 1.819 . S
H257 C271 0.941 . S
H258 C272 0.939 . S
H259 C274 0.940 . S
H260 C275 0.940 . S
H261 C277 0.939 . S
H262 C278 0.942 . S
H263 C280 0.940 . S
H264 C281 0.939 . S
H265 C283 0.941 . S
H266 C287 0.939 . S
O267 P256 1.490 . S
H268 C284 0.939 . S
H269 C286 0.940 . S
C270 P256 1.812 . S
C270 C271 1.389 . S
C270 C275 1.391 . S
C271 H257 0.941 . S
C271 C270 1.389 . S
C271 C272 1.397 . S
C272 H258 0.939 . S
C272 C271 1.397 . S
C272 C273 1.378 . S
C273 C272 1.378 . S
C273 C274 1.378 . S
C274 H259 0.940 . S
C274 C273 1.378 . S
C274 C275 1.396 . S
C275 H260 0.940 . S
C275 C270 1.391 . S
C275 C274 1.396 . S
C276 P256 1.803 . S
C276 C277 1.378 . S
C276 C281 1.400 . S
C277 H261 0.939 . S
C277 C276 1.378 . S
C277 C278 1.361 . S
C278 H262 0.942 . S
C278 C277 1.361 . S
C278 C279 1.369 . S
C279 C278 1.369 . S
C279 C280 1.404 . S
C280 H263 0.940 . S
C280 C279 1.404 . S
C280 C281 1.389 . S
C281 H264 0.939 . S
C281 C276 1.400 . S
C281 C280 1.389 . S
C282 P256 1.819 . S
C282 C283 1.391 . S
C282 C287 1.391 . S
C283 H265 0.941 . S
C283 C282 1.391 . S
C283 C284 1.396 . S
C284 H268 0.939 . S
C284 C283 1.396 . S
C284 C285 1.397 . S
C285 C284 1.397 . S
C285 C286 1.385 . S
C286 H269 0.940 . S
C286 C285 1.385 . S
C286 C287 1.388 . S
C287 H266 0.939 . S
C287 C282 1.391 . S
C287 C286 1.388 . S
P288 O299 1.490 . S
P288 C302 1.812 . S
P288 C308 1.803 . S
P288 C314 1.819 . S
H289 C303 0.941 . S
H290 C304 0.939 . S
H291 C306 0.940 . S
H292 C307 0.940 . S
H293 C309 0.939 . S
H294 C310 0.942 . S
H295 C312 0.940 . S
H296 C313 0.939 . S
H297 C315 0.941 . S
H298 C319 0.939 . S
O299 P288 1.490 . S
H300 C316 0.939 . S
H301 C318 0.940 . S
C302 P288 1.812 . S
C302 C303 1.389 . S
C302 C307 1.391 . S
C303 H289 0.941 . S
C303 C302 1.389 . S
C303 C304 1.397 . S
C304 H290 0.939 . S
C304 C303 1.397 . S
C304 C305 1.378 . S
C305 C304 1.378 . S
C305 C306 1.378 . S
C306 H291 0.940 . S
C306 C305 1.378 . S
C306 C307 1.396 . S
C307 H292 0.940 . S
C307 C302 1.391 . S
C307 C306 1.396 . S
C308 P288 1.803 . S
C308 C309 1.378 . S
C308 C313 1.400 . S
C309 H293 0.939 . S
C309 C308 1.378 . S
C309 C310 1.361 . S
C310 H294 0.942 . S
C310 C309 1.361 . S
C310 C311 1.369 . S
C311 C310 1.369 . S
C311 C312 1.404 . S
C312 H295 0.940 . S
C312 C311 1.404 . S
C312 C313 1.389 . S
C313 H296 0.939 . S
C313 C308 1.400 . S
C313 C312 1.389 . S
C314 P288 1.819 . S
C314 C315 1.391 . S
C314 C319 1.391 . S
C315 H297 0.941 . S
C315 C314 1.391 . S
C315 C316 1.396 . S
C316 H300 0.939 . S
C316 C315 1.396 . S
C316 C317 1.397 . S
C317 C316 1.397 . S
C317 C318 1.385 . S
C318 H301 0.940 . S
C318 C317 1.385 . S
C318 C319 1.388 . S
C319 H298 0.939 . S
C319 C314 1.391 . S
C319 C318 1.388 . S
P320 O331 1.490 . S
P320 C334 1.812 . S
P320 C340 1.803 . S
P320 C346 1.819 . S
H321 C335 0.941 . S
H322 C336 0.939 . S
H323 C338 0.940 . S
H324 C339 0.940 . S
H325 C341 0.939 . S
H326 C342 0.942 . S
H327 C344 0.940 . S
H328 C345 0.939 . S
H329 C347 0.941 . S
H330 C351 0.939 . S
O331 P320 1.490 . S
H332 C348 0.939 . S
H333 C350 0.940 . S
C334 P320 1.812 . S
C334 C335 1.389 . S
C334 C339 1.391 . S
C335 H321 0.941 . S
C335 C334 1.389 . S
C335 C336 1.397 . S
C336 H322 0.939 . S
C336 C335 1.397 . S
C336 C337 1.378 . S
C337 C336 1.378 . S
C337 C338 1.378 . S
C338 H323 0.940 . S
C338 C337 1.378 . S
C338 C339 1.396 . S
C339 H324 0.940 . S
C339 C334 1.391 . S
C339 C338 1.396 . S
C340 P320 1.803 . S
C340 C341 1.378 . S
C340 C345 1.400 . S
C341 H325 0.939 . S
C341 C340 1.378 . S
C341 C342 1.361 . S
C342 H326 0.942 . S
C342 C341 1.361 . S
C342 C343 1.369 . S
C343 C342 1.369 . S
C343 C344 1.404 . S
C344 H327 0.940 . S
C344 C343 1.404 . S
C344 C345 1.389 . S
C345 H328 0.939 . S
C345 C340 1.400 . S
C345 C344 1.389 . S
C346 P320 1.819 . S
C346 C347 1.391 . S
C346 C351 1.391 . S
C347 H329 0.941 . S
C347 C346 1.391 . S
C347 C348 1.396 . S
C348 H332 0.939 . S
C348 C347 1.396 . S
C348 C349 1.397 . S
C349 C348 1.397 . S
C349 C350 1.385 . S
C350 H333 0.940 . S
C350 C349 1.385 . S
C350 C351 1.388 . S
C351 H330 0.939 . S
C351 C346 1.391 . S
C351 C350 1.388 . S
P352 O363 1.490 . S
P352 C366 1.812 . S
P352 C372 1.803 . S
P352 C378 1.819 . S
H353 C367 0.941 . S
H354 C368 0.939 . S
H355 C370 0.940 . S
H356 C371 0.940 . S
H357 C373 0.939 . S
H358 C374 0.942 . S
H359 C376 0.940 . S
H360 C377 0.939 . S
H361 C379 0.941 . S
H362 C383 0.939 . S
O363 P352 1.490 . S
H364 C380 0.939 . S
H365 C382 0.940 . S
C366 P352 1.812 . S
C366 C367 1.389 . S
C366 C371 1.391 . S
C367 H353 0.941 . S
C367 C366 1.389 . S
C367 C368 1.397 . S
C368 H354 0.939 . S
C368 C367 1.397 . S
C368 C369 1.378 . S
C369 C368 1.378 . S
C369 C370 1.378 . S
C370 H355 0.940 . S
C370 C369 1.378 . S
C370 C371 1.396 . S
C371 H356 0.940 . S
C371 C366 1.391 . S
C371 C370 1.396 . S
C372 P352 1.803 . S
C372 C373 1.378 . S
C372 C377 1.400 . S
C373 H357 0.939 . S
C373 C372 1.378 . S
C373 C374 1.361 . S
C374 H358 0.942 . S
C374 C373 1.361 . S
C374 C375 1.369 . S
C375 C374 1.369 . S
C375 C376 1.404 . S
C376 H359 0.940 . S
C376 C375 1.404 . S
C376 C377 1.389 . S
C377 H360 0.939 . S
C377 C372 1.400 . S
C377 C376 1.389 . S
C378 P352 1.819 . S
C378 C379 1.391 . S
C378 C383 1.391 . S
C379 H361 0.941 . S
C379 C378 1.391 . S
C379 C380 1.396 . S
C380 H364 0.939 . S
C380 C379 1.396 . S
C380 C381 1.397 . S
C381 C380 1.397 . S
C381 C382 1.385 . S
C382 H365 0.940 . S
C382 C381 1.385 . S
C382 C383 1.388 . S
C383 H362 0.939 . S
C383 C378 1.391 . S
C383 C382 1.388 . S
P384 O395 1.490 . S
P384 C398 1.812 . S
P384 C404 1.803 . S
P384 C410 1.819 . S
H385 C399 0.941 . S
H386 C400 0.939 . S
H387 C402 0.940 . S
H388 C403 0.940 . S
H389 C405 0.939 . S
H390 C406 0.942 . S
H391 C408 0.940 . S
H392 C409 0.939 . S
H393 C411 0.941 . S
H394 C415 0.939 . S
O395 P384 1.490 . S
H396 C412 0.939 . S
H397 C414 0.940 . S
C398 P384 1.812 . S
C398 C399 1.389 . S
C398 C403 1.391 . S
C399 H385 0.941 . S
C399 C398 1.389 . S
C399 C400 1.397 . S
C400 H386 0.939 . S
C400 C399 1.397 . S
C400 C401 1.378 . S
C401 C400 1.378 . S
C401 C402 1.378 . S
C402 H387 0.940 . S
C402 C401 1.378 . S
C402 C403 1.396 . S
C403 H388 0.940 . S
C403 C398 1.391 . S
C403 C402 1.396 . S
C404 P384 1.803 . S
C404 C405 1.378 . S
C404 C409 1.400 . S
C405 H389 0.939 . S
C405 C404 1.378 . S
C405 C406 1.361 . S
C406 H390 0.942 . S
C406 C405 1.361 . S
C406 C407 1.369 . S
C407 C406 1.369 . S
C407 C408 1.404 . S
C408 H391 0.940 . S
C408 C407 1.404 . S
C408 C409 1.389 . S
C409 H392 0.939 . S
C409 C404 1.400 . S
C409 C408 1.389 . S
C410 P384 1.819 . S
C410 C411 1.391 . S
C410 C415 1.391 . S
C411 H393 0.941 . S
C411 C410 1.391 . S
C411 C412 1.396 . S
C412 H396 0.939 . S
C412 C411 1.396 . S
C412 C413 1.397 . S
C413 C412 1.397 . S
C413 C414 1.385 . S
C414 H397 0.940 . S
C414 C413 1.385 . S
C414 C415 1.388 . S
C415 H394 0.939 . S
C415 C410 1.391 . S
C415 C414 1.388 . S
P416 O427 1.490 . S
P416 C430 1.812 . S
P416 C436 1.803 . S
P416 C442 1.819 . S
H417 C431 0.941 . S
H418 C432 0.939 . S
H419 C434 0.940 . S
H420 C435 0.940 . S
H421 C437 0.939 . S
H422 C438 0.942 . S
H423 C440 0.940 . S
H424 C441 0.939 . S
H425 C443 0.941 . S
H426 C447 0.939 . S
O427 P416 1.490 . S
H428 C444 0.939 . S
H429 C446 0.940 . S
C430 P416 1.812 . S
C430 C431 1.389 . S
C430 C435 1.391 . S
C431 H417 0.941 . S
C431 C430 1.389 . S
C431 C432 1.397 . S
C432 H418 0.939 . S
C432 C431 1.397 . S
C432 C433 1.378 . S
C433 C432 1.378 . S
C433 C434 1.378 . S
C434 H419 0.940 . S
C434 C433 1.378 . S
C434 C435 1.396 . S
C435 H420 0.940 . S
C435 C430 1.391 . S
C435 C434 1.396 . S
C436 P416 1.803 . S
C436 C437 1.378 . S
C436 C441 1.400 . S
C437 H421 0.939 . S
C437 C436 1.378 . S
C437 C438 1.361 . S
C438 H422 0.942 . S
C438 C437 1.361 . S
C438 C439 1.369 . S
C439 C438 1.369 . S
C439 C440 1.404 . S
C440 H423 0.940 . S
C440 C439 1.404 . S
C440 C441 1.389 . S
C441 H424 0.939 . S
C441 C436 1.400 . S
C441 C440 1.389 . S
C442 P416 1.819 . S
C442 C443 1.391 . S
C442 C447 1.391 . S
C443 H425 0.941 . S
C443 C442 1.391 . S
C443 C444 1.396 . S
C444 H428 0.939 . S
C444 C443 1.396 . S
C444 C445 1.397 . S
C445 C444 1.397 . S
C445 C446 1.385 . S
C446 H429 0.940 . S
C446 C445 1.385 . S
C446 C447 1.388 . S
C447 H426 0.939 . S
C447 C442 1.391 . S
C447 C446 1.388 . S
P448 O459 1.490 . S
P448 C462 1.812 . S
P448 C468 1.803 . S
P448 C474 1.819 . S
H449 C463 0.941 . S
H450 C464 0.939 . S
H451 C466 0.940 . S
H452 C467 0.940 . S
H453 C469 0.939 . S
H454 C470 0.942 . S
H455 C472 0.940 . S
H456 C473 0.939 . S
H457 C475 0.941 . S
H458 C479 0.939 . S
O459 P448 1.490 . S
H460 C476 0.939 . S
H461 C478 0.940 . S
C462 P448 1.812 . S
C462 C463 1.389 . S
C462 C467 1.391 . S
C463 H449 0.941 . S
C463 C462 1.389 . S
C463 C464 1.397 . S
C464 H450 0.939 . S
C464 C463 1.397 . S
C464 C465 1.378 . S
C465 C464 1.378 . S
C465 C466 1.378 . S
C466 H451 0.940 . S
C466 C465 1.378 . S
C466 C467 1.396 . S
C467 H452 0.940 . S
C467 C462 1.391 . S
C467 C466 1.396 . S
C468 P448 1.803 . S
C468 C469 1.378 . S
C468 C473 1.400 . S
C469 H453 0.939 . S
C469 C468 1.378 . S
C469 C470 1.361 . S
C470 H454 0.942 . S
C470 C469 1.361 . S
C470 C471 1.369 . S
C471 C470 1.369 . S
C471 C472 1.404 . S
C472 H455 0.940 . S
C472 C471 1.404 . S
C472 C473 1.389 . S
C473 H456 0.939 . S
C473 C468 1.400 . S
C473 C472 1.389 . S
C474 P448 1.819 . S
C474 C475 1.391 . S
C474 C479 1.391 . S
C475 H457 0.941 . S
C475 C474 1.391 . S
C475 C476 1.396 . S
C476 H460 0.939 . S
C476 C475 1.396 . S
C476 C477 1.397 . S
C477 C476 1.397 . S
C477 C478 1.385 . S
C478 H461 0.940 . S
C478 C477 1.385 . S
C478 C479 1.388 . S
C479 H458 0.939 . S
C479 C474 1.391 . S
C479 C478 1.388 . S
P480 O491 1.490 . S
P480 C494 1.812 . S
P480 C500 1.803 . S
P480 C506 1.819 . S
H481 C495 0.941 . S
H482 C496 0.939 . S
H483 C498 0.940 . S
H484 C499 0.940 . S
H485 C501 0.939 . S
H486 C502 0.942 . S
H487 C504 0.940 . S
H488 C505 0.939 . S
H489 C507 0.941 . S
H490 C511 0.939 . S
O491 P480 1.490 . S
H492 C508 0.939 . S
H493 C510 0.940 . S
C494 P480 1.812 . S
C494 C495 1.389 . S
C494 C499 1.391 . S
C495 H481 0.941 . S
C495 C494 1.389 . S
C495 C496 1.397 . S
C496 H482 0.939 . S
C496 C495 1.397 . S
C496 C497 1.378 . S
C497 C496 1.378 . S
C497 C498 1.378 . S
C498 H483 0.940 . S
C498 C497 1.378 . S
C498 C499 1.396 . S
C499 H484 0.940 . S
C499 C494 1.391 . S
C499 C498 1.396 . S
C500 P480 1.803 . S
C500 C501 1.378 . S
C500 C505 1.400 . S
C501 H485 0.939 . S
C501 C500 1.378 . S
C501 C502 1.361 . S
C502 H486 0.942 . S
C502 C501 1.361 . S
C502 C503 1.369 . S
C503 C502 1.369 . S
C503 C504 1.404 . S
C504 H487 0.940 . S
C504 C503 1.404 . S
C504 C505 1.389 . S
C505 H488 0.939 . S
C505 C500 1.400 . S
C505 C504 1.389 . S
C506 P480 1.819 . S
C506 C507 1.391 . S
C506 C511 1.391 . S
C507 H489 0.941 . S
C507 C506 1.391 . S
C507 C508 1.396 . S
C508 H492 0.939 . S
C508 C507 1.396 . S
C508 C509 1.397 . S
C509 C508 1.397 . S
C509 C510 1.385 . S
C510 H493 0.940 . S
C510 C509 1.385 . S
C510 C511 1.388 . S
C511 H490 0.939 . S
C511 C506 1.391 . S
C511 C510 1.388 . S
P512 O523 1.490 . S
P512 C526 1.812 . S
P512 C532 1.803 . S
P512 C538 1.819 . S
H513 C527 0.941 . S
H514 C528 0.939 . S
H515 C530 0.940 . S
H516 C531 0.940 . S
H517 C533 0.939 . S
H518 C534 0.942 . S
H519 C536 0.940 . S
H520 C537 0.939 . S
H521 C539 0.941 . S
H522 C543 0.939 . S
O523 P512 1.490 . S
H524 C540 0.939 . S
H525 C542 0.940 . S
C526 P512 1.812 . S
C526 C527 1.389 . S
C526 C531 1.391 . S
C527 H513 0.941 . S
C527 C526 1.389 . S
C527 C528 1.397 . S
C528 H514 0.939 . S
C528 C527 1.397 . S
C528 C529 1.378 . S
C529 C528 1.378 . S
C529 C530 1.378 . S
C530 H515 0.940 . S
C530 C529 1.378 . S
C530 C531 1.396 . S
C531 H516 0.940 . S
C531 C526 1.391 . S
C531 C530 1.396 . S
C532 P512 1.803 . S
C532 C533 1.378 . S
C532 C537 1.400 . S
C533 H517 0.939 . S
C533 C532 1.378 . S
C533 C534 1.361 . S
C534 H518 0.942 . S
C534 C533 1.361 . S
C534 C535 1.369 . S
C535 C534 1.369 . S
C535 C536 1.404 . S
C536 H519 0.940 . S
C536 C535 1.404 . S
C536 C537 1.389 . S
C537 H520 0.939 . S
C537 C532 1.400 . S
C537 C536 1.389 . S
C538 P512 1.819 . S
C538 C539 1.391 . S
C538 C543 1.391 . S
C539 H521 0.941 . S
C539 C538 1.391 . S
C539 C540 1.396 . S
C540 H524 0.939 . S
C540 C539 1.396 . S
C540 C541 1.397 . S
C541 C540 1.397 . S
C541 C542 1.385 . S
C542 H525 0.940 . S
C542 C541 1.385 . S
C542 C543 1.388 . S
C543 H522 0.939 . S
C543 C538 1.391 . S
C543 C542 1.388 . S
P544 O555 1.490 . S
P544 C558 1.812 . S
P544 C564 1.803 . S
P544 C570 1.819 . S
H545 C559 0.941 . S
H546 C560 0.939 . S
H547 C562 0.940 . S
H548 C563 0.940 . S
H549 C565 0.939 . S
H550 C566 0.942 . S
H551 C568 0.940 . S
H552 C569 0.939 . S
H553 C571 0.941 . S
H554 C575 0.939 . S
O555 P544 1.490 . S
H556 C572 0.939 . S
H557 C574 0.940 . S
C558 P544 1.812 . S
C558 C559 1.389 . S
C558 C563 1.391 . S
C559 H545 0.941 . S
C559 C558 1.389 . S
C559 C560 1.397 . S
C560 H546 0.939 . S
C560 C559 1.397 . S
C560 C561 1.378 . S
C561 C560 1.378 . S
C561 C562 1.378 . S
C562 H547 0.940 . S
C562 C561 1.378 . S
C562 C563 1.396 . S
C563 H548 0.940 . S
C563 C558 1.391 . S
C563 C562 1.396 . S
C564 P544 1.803 . S
C564 C565 1.378 . S
C564 C569 1.400 . S
C565 H549 0.939 . S
C565 C564 1.378 . S
C565 C566 1.361 . S
C566 H550 0.942 . S
C566 C565 1.361 . S
C566 C567 1.369 . S
C567 C566 1.369 . S
C567 C568 1.404 . S
C568 H551 0.940 . S
C568 C567 1.404 . S
C568 C569 1.389 . S
C569 H552 0.939 . S
C569 C564 1.400 . S
C569 C568 1.389 . S
C570 P544 1.819 . S
C570 C571 1.391 . S
C570 C575 1.391 . S
C571 H553 0.941 . S
C571 C570 1.391 . S
C571 C572 1.396 . S
C572 H556 0.939 . S
C572 C571 1.396 . S
C572 C573 1.397 . S
C573 C572 1.397 . S
C573 C574 1.385 . S
C574 H557 0.940 . S
C574 C573 1.385 . S
C574 C575 1.388 . S
C575 H554 0.939 . S
C575 C570 1.391 . S
C575 C574 1.388 . S
C576 Eu577 2.835 . S
C576 C578 1.500 . S
C576 O596 1.257 1_545 S
C576 O597 1.260 . S
Eu577 C576 2.835 . S
Eu577 O596 2.473 1_545 S
Eu577 O597 2.480 . S
Eu577 O598 2.430 . S
Eu577 O599 2.670 1_554 S
Eu577 O600 2.394 1_545 S
Eu577 O605 2.355 1_545 S
Eu577 O607 2.374 . S
C578 C576 1.500 . S
C578 C579 1.377 . S
C578 C583 1.377 1_545 S
C579 C578 1.377 . S
C579 C580 1.395 . S
C579 H608 0.931 . S
C580 C579 1.395 . S
C580 C581 1.383 1_545 S
C580 H609 0.931 . S
C581 C580 1.383 1_565 S
C581 C582 1.394 . S
C582 C581 1.394 . S
C582 C583 1.378 . S
C582 H610 0.931 . S
C583 C578 1.377 1_565 S
C583 C582 1.378 . S
C583 H611 0.931 . S
C584 O598 1.323 . S
C584 O599 1.248 1_554 S
C585 O600 1.251 . S
C585 O601 1.251 1_554 S
C586 Eu587 2.835 . S
C586 C588 1.500 . S
C586 O602 1.257 1_565 S
C586 O603 1.260 . S
Eu587 C586 2.835 . S
Eu587 O599 2.355 1_565 S
Eu587 O601 2.374 . S
Eu587 O602 2.473 1_565 S
Eu587 O603 2.480 . S
Eu587 O604 2.430 . S
Eu587 O605 2.670 1_556 S
Eu587 O606 2.394 1_565 S
C588 C586 1.500 . S
C588 C589 1.377 . S
C588 C593 1.377 1_565 S
C589 C588 1.377 . S
C589 C590 1.395 . S
C589 H612 0.931 . S
C590 C589 1.395 . S
C590 C591 1.383 1_565 S
C590 H613 0.931 . S
C591 C590 1.383 1_545 S
C591 C592 1.394 . S
C592 C591 1.394 . S
C592 C593 1.378 . S
C592 H614 0.931 . S
C593 C588 1.377 1_545 S
C593 C592 1.378 . S
C593 H615 0.931 . S
C594 O604 1.259 1_554 S
C594 O605 1.270 . S
C595 O606 1.251 . S
C595 O607 1.251 1_556 S
O596 C576 1.257 1_565 S
O596 Eu577 2.473 1_565 S
O597 C576 1.260 . S
O597 Eu577 2.480 . S
O598 Eu577 2.430 . S
O598 C584 1.323 . S
O599 Eu577 2.670 1_556 S
O599 C584 1.248 1_556 S
O599 Eu587 2.355 1_545 S
O600 Eu577 2.394 1_565 S
O600 C585 1.251 . S
O601 C585 1.251 1_556 S
O601 Eu587 2.374 . S
O602 C586 1.257 1_545 S
O602 Eu587 2.473 1_545 S
O603 C586 1.260 . S
O603 Eu587 2.480 . S
O604 Eu587 2.430 . S
O604 C594 1.259 1_556 S
O605 Eu577 2.355 1_565 S
O605 Eu587 2.670 1_554 S
O605 C594 1.270 . S
O606 Eu587 2.394 1_545 S
O606 C595 1.251 . S
O607 Eu577 2.374 . S
O607 C595 1.251 1_554 S
H608 C579 0.931 . S
H609 C580 0.931 . S
H610 C582 0.931 . S
H611 C583 0.931 . S
H612 C589 0.931 . S
H613 C590 0.931 . S
H614 C592 0.931 . S
H615 C593 0.931 . S
C616 Eu617 2.835 . S
C616 C618 1.500 1_655 S
C616 O636 1.257 1_655 S
C616 O637 1.260 . S
Eu617 C616 2.835 . S
Eu617 O636 2.473 1_655 S
Eu617 O637 2.480 . S
Eu617 O638 2.430 . S
Eu617 O639 2.670 1_554 S
Eu617 O640 2.394 1_655 S
Eu617 O645 2.355 1_655 S
Eu617 O647 2.374 . S
C618 C616 1.500 1_455 S
C618 C619 1.377 1_455 S
C618 C623 1.377 . S
C619 C618 1.377 1_655 S
C619 C620 1.395 . S
C619 H648 0.931 . S
C620 C619 1.395 . S
C620 C621 1.383 1_655 S
C620 H649 0.931 . S
C621 C620 1.383 1_455 S
C621 C622 1.394 . S
C622 C621 1.394 . S
C622 C623 1.378 . S
C622 H650 0.931 . S
C623 C618 1.377 . S
C623 C622 1.378 . S
C623 H651 0.931 . S
C624 O638 1.259 1_556 S
C624 O639 1.270 . S
C625 O640 1.251 . S
C625 O641 1.251 . S
C626 Eu627 2.835 . S
C626 C628 1.500 1_455 S
C626 O642 1.257 1_455 S
C626 O643 1.260 . S
Eu627 C626 2.835 . S
Eu627 O639 2.355 1_455 S
Eu627 O641 2.374 1_556 S
Eu627 O642 2.473 1_455 S
Eu627 O643 2.480 . S
Eu627 O644 2.430 . S
Eu627 O645 2.670 1_556 S
Eu627 O646 2.394 1_455 S
C628 C626 1.500 1_655 S
C628 C629 1.377 1_655 S
C628 C633 1.377 . S
C629 C628 1.377 1_455 S
C629 C630 1.395 . S
C629 H652 0.931 . S
C630 C629 1.395 . S
C630 C631 1.383 1_455 S
C630 H653 0.931 . S
C631 C630 1.383 1_655 S
C631 C632 1.394 . S
C632 C631 1.394 . S
C632 C633 1.378 . S
C632 H654 0.931 . S
C633 C628 1.377 . S
C633 C632 1.378 . S
C633 H655 0.931 . S
C634 O644 1.259 1_554 S
C634 O645 1.270 . S
C635 O646 1.251 . S
C635 O647 1.251 1_556 S
O636 C616 1.257 1_455 S
O636 Eu617 2.473 1_455 S
O637 C616 1.260 . S
O637 Eu617 2.480 . S
O638 Eu617 2.430 . S
O638 C624 1.259 1_554 S
O639 Eu617 2.670 1_556 S
O639 C624 1.270 . S
O639 Eu627 2.355 1_655 S
O640 Eu617 2.394 1_455 S
O640 C625 1.251 . S
O641 C625 1.251 . S
O641 Eu627 2.374 1_554 S
O642 C626 1.257 1_655 S
O642 Eu627 2.473 1_655 S
O643 C626 1.260 . S
O643 Eu627 2.480 . S
O644 Eu627 2.430 . S
O644 C634 1.259 1_556 S
O645 Eu617 2.355 1_455 S
O645 Eu627 2.670 1_554 S
O645 C634 1.270 . S
O646 Eu627 2.394 1_655 S
O646 C635 1.251 . S
O647 Eu617 2.374 . S
O647 C635 1.251 1_554 S
H648 C619 0.931 . S
H649 C620 0.931 . S
H650 C622 0.931 . S
H651 C623 0.931 . S
H652 C629 0.931 . S
H653 C630 0.931 . S
H654 C632 0.931 . S
H655 C633 0.931 . S
C656 Eu657 2.835 . S
C656 C658 1.500 . S
C656 O676 1.257 . S
C656 O677 1.260 . S
Eu657 C656 2.835 . S
Eu657 O676 2.473 . S
Eu657 O677 2.480 . S
Eu657 O678 2.430 . S
Eu657 O679 2.670 1_556 S
Eu657 O680 2.394 . S
Eu657 O685 2.355 . S
Eu657 O687 2.350 1_556 S
C658 C656 1.500 . S
C658 C659 1.377 . S
C658 C663 1.377 . S
C659 C658 1.377 . S
C659 C660 1.395 . S
C659 H688 0.931 . S
C660 C659 1.395 . S
C660 C661 1.383 . S
C660 H689 0.931 . S
C661 C660 1.383 . S
C661 C662 1.394 . S
C662 C661 1.394 . S
C662 C663 1.378 . S
C662 H690 0.931 . S
C663 C658 1.377 . S
C663 C662 1.378 . S
C663 H691 0.931 . S
C664 O678 1.259 1_554 S
C664 O679 1.270 . S
C665 O680 1.251 . S
C665 O681 1.251 1_556 S
C666 Eu667 2.835 . S
C666 C668 1.500 . S
C666 O682 1.257 . S
C666 O683 1.260 . S
Eu667 C666 2.835 . S
Eu667 O679 2.355 . S
Eu667 O681 2.374 . S
Eu667 O682 2.473 . S
Eu667 O683 2.480 . S
Eu667 O684 2.430 . S
Eu667 O685 2.670 1_554 S
Eu667 O686 2.394 . S
C668 C666 1.500 . S
C668 C669 1.377 . S
C668 C673 1.377 . S
C669 C668 1.377 . S
C669 C670 1.395 . S
C669 H692 0.931 . S
C670 C669 1.395 . S
C670 C671 1.383 . S
C670 H693 0.931 . S
C671 C670 1.383 . S
C671 C672 1.394 . S
C672 C671 1.394 . S
C672 C673 1.378 . S
C672 H694 0.931 . S
C673 C668 1.377 . S
C673 C672 1.378 . S
C673 H695 0.931 . S
C674 O684 1.259 1_556 S
C674 O685 1.270 . S
C675 O686 1.251 . S
C675 O687 1.283 . S
O676 C656 1.257 . S
O676 Eu657 2.473 . S
O677 C656 1.260 . S
O677 Eu657 2.480 . S
O678 Eu657 2.430 . S
O678 C664 1.259 1_556 S
O679 Eu657 2.670 1_554 S
O679 C664 1.270 . S
O679 Eu667 2.355 . S
O680 Eu657 2.394 . S
O680 C665 1.251 . S
O681 C665 1.251 1_554 S
O681 Eu667 2.374 . S
O682 C666 1.257 . S
O682 Eu667 2.473 . S
O683 C666 1.260 . S
O683 Eu667 2.480 . S
O684 Eu667 2.430 . S
O684 C674 1.259 1_554 S
O685 Eu657 2.355 . S
O685 Eu667 2.670 1_556 S
O685 C674 1.270 . S
O686 Eu667 2.394 . S
O686 C675 1.251 . S
O687 Eu657 2.350 1_554 S
O687 C675 1.283 . S
H688 C659 0.931 . S
H689 C660 0.931 . S
H690 C662 0.931 . S
H691 C663 0.931 . S
H692 C669 0.931 . S
H693 C670 0.931 . S
H694 C672 0.931 . S
H695 C673 0.931 . S
C696 Eu697 2.835 . S
C696 C698 1.500 . S
C696 O716 1.257 . S
C696 O717 1.260 . S
Eu697 C696 2.835 . S
Eu697 O716 2.473 . S
Eu697 O717 2.480 . S
Eu697 O718 2.430 . S
Eu697 O719 2.670 . S
Eu697 O720 2.394 . S
Eu697 O725 2.355 . S
Eu697 O727 2.374 . S
C698 C696 1.500 . S
C698 C699 1.377 . S
C698 C703 1.377 . S
C699 C698 1.377 . S
C699 C700 1.395 . S
C699 H728 0.931 . S
C700 C699 1.395 . S
C700 C701 1.383 . S
C700 H729 0.931 . S
C701 C700 1.383 . S
C701 C702 1.394 . S
C702 C701 1.394 . S
C702 C703 1.378 . S
C702 H730 0.931 . S
C703 C698 1.377 . S
C703 C702 1.378 . S
C703 H731 0.931 . S
C704 O718 1.259 . S
C704 O719 1.270 . S
C705 O720 1.251 . S
C705 O721 1.251 . S
C706 Eu707 2.835 . S
C706 C708 1.500 . S
C706 O722 1.257 . S
C706 O723 1.260 . S
Eu707 C706 2.835 . S
Eu707 O719 2.355 . S
Eu707 O721 2.374 . S
Eu707 O722 2.473 . S
Eu707 O723 2.480 . S
Eu707 O724 2.430 . S
Eu707 O725 2.670 . S
Eu707 O726 2.394 . S
C708 C706 1.500 . S
C708 C709 1.377 . S
C708 C713 1.377 . S
C709 C708 1.377 . S
C709 C710 1.395 . S
C709 H732 0.931 . S
C710 C709 1.395 . S
C710 C711 1.383 . S
C710 H733 0.931 . S
C711 C710 1.383 . S
C711 C712 1.394 . S
C712 C711 1.394 . S
C712 C713 1.378 . S
C712 H734 0.931 . S
C713 C708 1.377 . S
C713 C712 1.378 . S
C713 H735 0.931 . S
C714 O724 1.259 . S
C714 O725 1.270 . S
C715 O726 1.251 . S
C715 O727 1.251 . S
O716 C696 1.257 . S
O716 Eu697 2.473 . S
O717 C696 1.260 . S
O717 Eu697 2.480 . S
O718 Eu697 2.430 . S
O718 C704 1.259 . S
O719 Eu697 2.670 . S
O719 C704 1.270 . S
O719 Eu707 2.355 . S
O720 Eu697 2.394 . S
O720 C705 1.251 . S
O721 C705 1.251 . S
O721 Eu707 2.374 . S
O722 C706 1.257 . S
O722 Eu707 2.473 . S
O723 C706 1.260 . S
O723 Eu707 2.480 . S
O724 Eu707 2.430 . S
O724 C714 1.259 . S
O725 Eu697 2.355 . S
O725 Eu707 2.670 . S
O725 C714 1.270 . S
O726 Eu707 2.394 . S
O726 C715 1.251 . S
O727 Eu697 2.374 . S
O727 C715 1.251 . S
H728 C699 0.931 . S
H729 C700 0.931 . S
H730 C702 0.931 . S
H731 C703 0.931 . S
H732 C709 0.931 . S
H733 C710 0.931 . S
H734 C712 0.931 . S
H735 C713 0.931 . S
C736 Eu737 2.835 . S
C736 C738 1.500 . S
C736 O756 1.257 . S
C736 O757 1.260 . S
Eu737 C736 2.835 . S
Eu737 O756 2.473 . S
Eu737 O757 2.480 . S
Eu737 O758 2.430 . S
Eu737 O759 2.670 . S
Eu737 O760 2.394 . S
Eu737 O765 2.355 . S
Eu737 O767 2.374 . S
C738 C736 1.500 . S
C738 C739 1.377 . S
C738 C743 1.377 . S
C739 C738 1.377 . S
C739 C740 1.395 . S
C739 H768 0.931 . S
C740 C739 1.395 . S
C740 C741 1.383 . S
C740 H769 0.931 . S
C741 C740 1.383 . S
C741 C742 1.394 . S
C742 C741 1.394 . S
C742 C743 1.378 . S
C742 H770 0.931 . S
C743 C738 1.377 . S
C743 C742 1.378 . S
C743 H771 0.931 . S
C744 O758 1.259 . S
C744 O759 1.270 . S
C745 O760 1.251 . S
C745 O761 1.251 . S
C746 Eu747 2.835 . S
C746 C748 1.500 . S
C746 O762 1.257 . S
C746 O763 1.260 . S
Eu747 C746 2.835 . S
Eu747 O759 2.355 . S
Eu747 O761 2.374 . S
Eu747 O762 2.473 . S
Eu747 O763 2.480 . S
Eu747 O764 2.430 . S
Eu747 O765 2.670 . S
Eu747 O766 2.394 . S
C748 C746 1.500 . S
C748 C749 1.377 . S
C748 C753 1.377 . S
C749 C748 1.377 . S
C749 C750 1.395 . S
C749 H772 0.931 . S
C750 C749 1.395 . S
C750 C751 1.383 . S
C750 H773 0.931 . S
C751 C750 1.383 . S
C751 C752 1.394 . S
C752 C751 1.394 . S
C752 C753 1.378 . S
C752 H774 0.931 . S
C753 C748 1.377 . S
C753 C752 1.378 . S
C753 H775 0.931 . S
C754 O764 1.259 . S
C754 O765 1.270 . S
C755 O766 1.251 . S
C755 O767 1.251 . S
O756 C736 1.257 . S
O756 Eu737 2.473 . S
O757 C736 1.260 . S
O757 Eu737 2.480 . S
O758 Eu737 2.430 . S
O758 C744 1.259 . S
O759 Eu737 2.670 . S
O759 C744 1.270 . S
O759 Eu747 2.355 . S
O760 Eu737 2.394 . S
O760 C745 1.251 . S
O761 C745 1.251 . S
O761 Eu747 2.374 . S
O762 C746 1.257 . S
O762 Eu747 2.473 . S
O763 C746 1.260 . S
O763 Eu747 2.480 . S
O764 Eu747 2.430 . S
O764 C754 1.259 . S
O765 Eu737 2.355 . S
O765 Eu747 2.670 . S
O765 C754 1.270 . S
O766 Eu747 2.394 . S
O766 C755 1.251 . S
O767 Eu737 2.374 . S
O767 C755 1.251 . S
H768 C739 0.931 . S
H769 C740 0.931 . S
H770 C742 0.931 . S
H771 C743 0.931 . S
H772 C749 0.931 . S
H773 C750 0.931 . S
H774 C752 0.931 . S
H775 C753 0.931 . S
C776 Eu777 2.835 . S
C776 C778 1.500 . S
C776 O796 1.257 . S
C776 O797 1.260 . S
Eu777 C776 2.835 . S
Eu777 O796 2.473 . S
Eu777 O797 2.480 . S
Eu777 O798 2.430 . S
Eu777 O799 2.670 . S
Eu777 O800 2.394 . S
Eu777 O805 2.355 . S
Eu777 O807 2.374 . S
C778 C776 1.500 . S
C778 C779 1.377 . S
C778 C783 1.377 . S
C779 C778 1.377 . S
C779 C780 1.395 . S
C779 H808 0.931 . S
C780 C779 1.395 . S
C780 C781 1.383 . S
C780 H809 0.931 . S
C781 C780 1.383 . S
C781 C782 1.394 . S
C782 C781 1.394 . S
C782 C783 1.378 . S
C782 H810 0.931 . S
C783 C778 1.377 . S
C783 C782 1.378 . S
C783 H811 0.931 . S
C784 O798 1.259 . S
C784 O799 1.270 . S
C785 O800 1.251 . S
C785 O801 1.251 . S
C786 Eu787 2.835 . S
C786 C788 1.500 . S
C786 O802 1.257 . S
C786 O803 1.260 . S
Eu787 C786 2.835 . S
Eu787 O799 2.355 . S
Eu787 O801 2.374 . S
Eu787 O802 2.473 . S
Eu787 O803 2.480 . S
Eu787 O804 2.430 . S
Eu787 O805 2.670 . S
Eu787 O806 2.394 . S
C788 C786 1.500 . S
C788 C789 1.377 . S
C788 C793 1.377 . S
C789 C788 1.377 . S
C789 C790 1.395 . S
C789 H812 0.931 . S
C790 C789 1.395 . S
C790 C791 1.383 . S
C790 H813 0.931 . S
C791 C790 1.383 . S
C791 C792 1.394 . S
C792 C791 1.394 . S
C792 C793 1.378 . S
C792 H814 0.931 . S
C793 C788 1.377 . S
C793 C792 1.378 . S
C793 H815 0.931 . S
C794 O804 1.259 . S
C794 O805 1.270 . S
C795 O806 1.251 . S
C795 O807 1.251 . S
O796 C776 1.257 . S
O796 Eu777 2.473 . S
O797 C776 1.260 . S
O797 Eu777 2.480 . S
O798 Eu777 2.430 . S
O798 C784 1.259 . S
O799 Eu777 2.670 . S
O799 C784 1.270 . S
O799 Eu787 2.355 . S
O800 Eu777 2.394 . S
O800 C785 1.251 . S
O801 C785 1.251 . S
O801 Eu787 2.374 . S
O802 C786 1.257 . S
O802 Eu787 2.473 . S
O803 C786 1.260 . S
O803 Eu787 2.480 . S
O804 Eu787 2.430 . S
O804 C794 1.259 . S
O805 Eu777 2.355 . S
O805 Eu787 2.670 . S
O805 C794 1.270 . S
O806 Eu787 2.394 . S
O806 C795 1.251 . S
O807 Eu777 2.374 . S
O807 C795 1.251 . S
H808 C779 0.931 . S
H809 C780 0.931 . S
H810 C782 0.931 . S
H811 C783 0.931 . S
H812 C789 0.931 . S
H813 C790 0.931 . S
H814 C792 0.931 . S
H815 C793 0.931 . S
C816 Eu817 2.835 . S
C816 C818 1.500 . S
C816 O836 1.257 . S
C816 O837 1.260 . S
Eu817 C816 2.835 . S
Eu817 O836 2.473 . S
Eu817 O837 2.480 . S
Eu817 O838 2.430 . S
Eu817 O839 2.670 . S
Eu817 O840 2.394 . S
Eu817 O845 2.355 . S
Eu817 O847 2.374 . S
C818 C816 1.500 . S
C818 C819 1.377 . S
C818 C823 1.377 . S
C819 C818 1.377 . S
C819 C820 1.395 . S
C819 H848 0.931 . S
C820 C819 1.395 . S
C820 C821 1.383 . S
C820 H849 0.931 . S
C821 C820 1.383 . S
C821 C822 1.394 . S
C822 C821 1.394 . S
C822 C823 1.378 . S
C822 H850 0.931 . S
C823 C818 1.377 . S
C823 C822 1.378 . S
C823 H851 0.931 . S
C824 O838 1.259 . S
C824 O839 1.270 . S
C825 O840 1.251 . S
C825 O841 1.251 . S
C826 Eu827 2.835 . S
C826 C828 1.500 . S
C826 O842 1.257 . S
C826 O843 1.260 . S
Eu827 C826 2.835 . S
Eu827 O839 2.355 . S
Eu827 O841 2.374 . S
Eu827 O842 2.473 . S
Eu827 O843 2.480 . S
Eu827 O844 2.430 . S
Eu827 O845 2.670 . S
Eu827 O846 2.394 . S
C828 C826 1.500 . S
C828 C829 1.377 . S
C828 C833 1.377 . S
C829 C828 1.377 . S
C829 C830 1.395 . S
C829 H852 0.931 . S
C830 C829 1.395 . S
C830 C831 1.383 . S
C830 H853 0.931 . S
C831 C830 1.383 . S
C831 C832 1.394 . S
C832 C831 1.394 . S
C832 C833 1.378 . S
C832 H854 0.931 . S
C833 C828 1.377 . S
C833 C832 1.378 . S
C833 H855 0.931 . S
C834 O844 1.259 . S
C834 O845 1.270 . S
C835 O846 1.251 . S
C835 O847 1.251 . S
O836 C816 1.257 . S
O836 Eu817 2.473 . S
O837 C816 1.260 . S
O837 Eu817 2.480 . S
O838 Eu817 2.430 . S
O838 C824 1.259 . S
O839 Eu817 2.670 . S
O839 C824 1.270 . S
O839 Eu827 2.355 . S
O840 Eu817 2.394 . S
O840 C825 1.251 . S
O841 C825 1.251 . S
O841 Eu827 2.374 . S
O842 C826 1.257 . S
O842 Eu827 2.473 . S
O843 C826 1.260 . S
O843 Eu827 2.480 . S
O844 Eu827 2.430 . S
O844 C834 1.259 . S
O845 Eu817 2.355 . S
O845 Eu827 2.670 . S
O845 C834 1.270 . S
O846 Eu827 2.394 . S
O846 C835 1.251 . S
O847 Eu817 2.374 . S
O847 C835 1.251 . S
H848 C819 0.931 . S
H849 C820 0.931 . S
H850 C822 0.931 . S
H851 C823 0.931 . S
H852 C829 0.931 . S
H853 C830 0.931 . S
H854 C832 0.931 . S
H855 C833 0.931 . S
C856 Eu857 2.835 . S
C856 C858 1.500 . S
C856 O876 1.257 . S
C856 O877 1.260 . S
Eu857 C856 2.835 . S
Eu857 O876 2.473 . S
Eu857 O877 2.480 . S
Eu857 O878 2.430 . S
Eu857 O879 2.670 . S
Eu857 O880 2.394 . S
Eu857 O885 2.355 . S
Eu857 O887 2.374 . S
C858 C856 1.500 . S
C858 C859 1.377 . S
C858 C863 1.377 . S
C859 C858 1.377 . S
C859 C860 1.395 . S
C859 H888 0.931 . S
C860 C859 1.395 . S
C860 C861 1.383 . S
C860 H889 0.931 . S
C861 C860 1.383 . S
C861 C862 1.394 . S
C862 C861 1.394 . S
C862 C863 1.378 . S
C862 H890 0.931 . S
C863 C858 1.377 . S
C863 C862 1.378 . S
C863 H891 0.931 . S
C864 O878 1.259 . S
C864 O879 1.270 . S
C865 O880 1.251 . S
C865 O881 1.251 . S
C866 Eu867 2.835 . S
C866 C868 1.500 . S
C866 O882 1.257 . S
C866 O883 1.260 . S
Eu867 C866 2.835 . S
Eu867 O879 2.355 . S
Eu867 O881 2.374 . S
Eu867 O882 2.473 . S
Eu867 O883 2.480 . S
Eu867 O884 2.430 . S
Eu867 O885 2.670 . S
Eu867 O886 2.394 . S
C868 C866 1.500 . S
C868 C869 1.377 . S
C868 C873 1.377 . S
C869 C868 1.377 . S
C869 C870 1.395 . S
C869 H892 0.931 . S
C870 C869 1.395 . S
C870 C871 1.383 . S
C870 H893 0.931 . S
C871 C870 1.383 . S
C871 C872 1.394 . S
C872 C871 1.394 . S
C872 C873 1.378 . S
C872 H894 0.931 . S
C873 C868 1.377 . S
C873 C872 1.378 . S
C873 H895 0.931 . S
C874 O884 1.259 . S
C874 O885 1.270 . S
C875 O886 1.251 . S
C875 O887 1.251 . S
O876 C856 1.257 . S
O876 Eu857 2.473 . S
O877 C856 1.260 . S
O877 Eu857 2.480 . S
O878 Eu857 2.430 . S
O878 C864 1.259 . S
O879 Eu857 2.670 . S
O879 C864 1.270 . S
O879 Eu867 2.355 . S
O880 Eu857 2.394 . S
O880 C865 1.251 . S
O881 C865 1.251 . S
O881 Eu867 2.374 . S
O882 C866 1.257 . S
O882 Eu867 2.473 . S
O883 C866 1.260 . S
O883 Eu867 2.480 . S
O884 Eu867 2.430 . S
O884 C874 1.259 . S
O885 Eu857 2.355 . S
O885 Eu867 2.670 . S
O885 C874 1.270 . S
O886 Eu867 2.394 . S
O886 C875 1.251 . S
O887 Eu857 2.374 . S
O887 C875 1.251 . S
H888 C859 0.931 . S
H889 C860 0.931 . S
H890 C862 0.931 . S
H891 C863 0.931 . S
H892 C869 0.931 . S
H893 C870 0.931 . S
H894 C872 0.931 . S
H895 C873 0.931 . S
C896 Eu897 2.835 . S
C896 C898 1.500 . S
C896 O916 1.257 . S
C896 O917 1.260 . S
Eu897 C896 2.835 . S
Eu897 O916 2.473 . S
Eu897 O917 2.480 . S
Eu897 O918 2.430 . S
Eu897 O919 2.670 . S
Eu897 O920 2.394 . S
Eu897 O925 2.355 . S
Eu897 O927 2.374 . S
C898 C896 1.500 . S
C898 C899 1.377 . S
C898 C903 1.377 . S
C899 C898 1.377 . S
C899 C900 1.395 . S
C899 H928 0.931 . S
C900 C899 1.395 . S
C900 C901 1.383 . S
C900 H929 0.931 . S
C901 C900 1.383 . S
C901 C902 1.394 . S
C902 C901 1.394 . S
C902 C903 1.378 . S
C902 H930 0.931 . S
C903 C898 1.377 . S
C903 C902 1.378 . S
C903 H931 0.931 . S
C904 O918 1.259 . S
C904 O919 1.270 . S
C905 O920 1.251 . S
C905 O921 1.251 . S
C906 Eu907 2.835 . S
C906 C908 1.500 . S
C906 O922 1.257 . S
C906 O923 1.260 . S
Eu907 C906 2.835 . S
Eu907 O919 2.355 . S
Eu907 O921 2.374 . S
Eu907 O922 2.473 . S
Eu907 O923 2.480 . S
Eu907 O924 2.430 . S
Eu907 O925 2.670 . S
Eu907 O926 2.394 . S
C908 C906 1.500 . S
C908 C909 1.377 . S
C908 C913 1.377 . S
C909 C908 1.377 . S
C909 C910 1.395 . S
C909 H932 0.931 . S
C910 C909 1.395 . S
C910 C911 1.383 . S
C910 H933 0.931 . S
C911 C910 1.383 . S
C911 C912 1.394 . S
C912 C911 1.394 . S
C912 C913 1.378 . S
C912 H934 0.931 . S
C913 C908 1.377 . S
C913 C912 1.378 . S
C913 H935 0.931 . S
C914 O924 1.259 . S
C914 O925 1.270 . S
C915 O926 1.251 . S
C915 O927 1.251 . S
O916 C896 1.257 . S
O916 Eu897 2.473 . S
O917 C896 1.260 . S
O917 Eu897 2.480 . S
O918 Eu897 2.430 . S
O918 C904 1.259 . S
O919 Eu897 2.670 . S
O919 C904 1.270 . S
O919 Eu907 2.355 . S
O920 Eu897 2.394 . S
O920 C905 1.251 . S
O921 C905 1.251 . S
O921 Eu907 2.374 . S
O922 C906 1.257 . S
O922 Eu907 2.473 . S
O923 C906 1.260 . S
O923 Eu907 2.480 . S
O924 Eu907 2.430 . S
O924 C914 1.259 . S
O925 Eu897 2.355 . S
O925 Eu907 2.670 . S
O925 C914 1.270 . S
O926 Eu907 2.394 . S
O926 C915 1.251 . S
O927 Eu897 2.374 . S
O927 C915 1.251 . S
H928 C899 0.931 . S
H929 C900 0.931 . S
H930 C902 0.931 . S
H931 C903 0.931 . S
H932 C909 0.931 . S
H933 C910 0.931 . S
H934 C912 0.931 . S
H935 C913 0.931 . S
H936 C948 0.930 . S
H937 C950 0.930 . S
H938 C951 0.930 . S
H939 C955 0.959 . S
H940 C955 0.959 . S
H941 C955 0.961 . S
H942 C956 0.960 . S
H943 C956 0.961 . S
H944 C956 0.959 . S
H945 C959 0.929 . S
H946 C960 0.931 . S
H947 C962 0.930 . S
C948 H936 0.930 . S
C948 C949 1.399 . S
C948 C953 1.399 . S
C949 C948 1.399 . S
C949 C950 1.376 . S
C950 H937 0.930 . S
C950 C949 1.376 . S
C950 C951 1.388 . S
C951 H938 0.930 . S
C951 C950 1.388 . S
C951 C952 1.390 . S
C952 C951 1.390 . S
C952 C953 1.394 . S
C952 C958 1.465 . S
C953 C948 1.399 . S
C953 C952 1.394 . S
C953 C954 1.516 . S
C954 C953 1.516 . S
C954 C955 1.502 . S
C954 C956 1.561 . S
C954 C957 1.526 . S
C955 H939 0.959 . S
C955 H940 0.959 . S
C955 H941 0.961 . S
C955 C954 1.502 . S
C956 H942 0.960 . S
C956 H943 0.961 . S
C956 H944 0.959 . S
C956 C954 1.561 . S
C957 C954 1.526 . S
C957 C958 1.396 . S
C957 C962 1.390 . S
C958 C952 1.465 . S
C958 C957 1.396 . S
C958 C959 1.399 . S
C959 H945 0.929 . S
C959 C958 1.399 . S
C959 C960 1.385 . S
C960 H946 0.931 . S
C960 C959 1.385 . S
C960 C961 1.389 . S
C961 C960 1.389 . S
C961 C962 1.387 . S
C962 H947 0.930 . S
C962 C957 1.390 . S
C962 C961 1.387 . S
H963 C975 0.930 . S
H964 C977 0.930 . S
H965 C978 0.930 . S
H966 C982 0.959 . S
H967 C982 0.959 . S
H968 C982 0.961 . S
H969 C983 0.960 . S
H970 C983 0.961 . S
H971 C983 0.959 . S
H972 C986 0.929 . S
H973 C987 0.931 . S
H974 C989 0.930 . S
C975 H963 0.930 . S
C975 C976 1.399 . S
C975 C980 1.399 . S
C976 C975 1.399 . S
C976 C977 1.376 . S
C977 H964 0.930 . S
C977 C976 1.376 . S
C977 C978 1.388 . S
C978 H965 0.930 . S
C978 C977 1.388 . S
C978 C979 1.390 . S
C979 C978 1.390 . S
C979 C980 1.394 . S
C979 C985 1.465 . S
C980 C975 1.399 . S
C980 C979 1.394 . S
C980 C981 1.516 . S
C981 C980 1.516 . S
C981 C982 1.502 . S
C981 C983 1.561 . S
C981 C984 1.526 . S
C982 H966 0.959 . S
C982 H967 0.959 . S
C982 H968 0.961 . S
C982 C981 1.502 . S
C983 H969 0.960 . S
C983 H970 0.961 . S
C983 H971 0.959 . S
C983 C981 1.561 . S
C984 C981 1.526 . S
C984 C985 1.396 . S
C984 C989 1.390 . S
C985 C979 1.465 . S
C985 C984 1.396 . S
C985 C986 1.399 . S
C986 H972 0.929 . S
C986 C985 1.399 . S
C986 C987 1.385 . S
C987 H973 0.931 . S
C987 C986 1.385 . S
C987 C988 1.389 . S
C988 C987 1.389 . S
C988 C989 1.387 . S
C989 H974 0.930 . S
C989 C984 1.390 . S
C989 C988 1.387 . S
H990 C1002 0.930 . S
H991 C1004 0.930 . S
H992 C1005 0.930 . S
H993 C1009 0.959 . S
H994 C1009 0.959 . S
H995 C1009 0.961 . S
H996 C1010 0.960 . S
H997 C1010 0.961 1_556 S
H998 C1010 0.959 . S
H999 C1013 0.929 . S
H1000 C1014 0.931 . S
H1001 C1016 0.930 1_556 S
C1002 H990 0.930 . S
C1002 C1003 1.399 . S
C1002 C1007 1.399 . S
C1003 C1002 1.399 . S
C1003 C1004 1.376 . S
C1004 H991 0.930 . S
C1004 C1003 1.376 . S
C1004 C1005 1.388 . S
C1005 H992 0.930 . S
C1005 C1004 1.388 . S
C1005 C1006 1.390 . S
C1006 C1005 1.390 . S
C1006 C1007 1.394 . S
C1006 C1012 1.465 . S
C1007 C1002 1.399 . S
C1007 C1006 1.394 . S
C1007 C1008 1.516 . S
C1008 C1007 1.516 . S
C1008 C1009 1.502 1_554 S
C1008 C1010 1.561 . S
C1008 C1011 1.526 . S
C1009 H993 0.959 . S
C1009 H994 0.959 . S
C1009 H995 0.961 . S
C1009 C1008 1.502 1_556 S
C1010 H996 0.960 . S
C1010 H997 0.961 1_554 S
C1010 H998 0.959 . S
C1010 C1008 1.561 . S
C1011 C1008 1.526 . S
C1011 C1012 1.396 . S
C1011 C1016 1.390 . S
C1012 C1006 1.465 . S
C1012 C1011 1.396 . S
C1012 C1013 1.399 . S
C1013 H999 0.929 . S
C1013 C1012 1.399 . S
C1013 C1014 1.385 . S
C1014 H1000 0.931 . S
C1014 C1013 1.385 . S
C1014 C1015 1.389 . S
C1015 C1014 1.389 . S
C1015 C1016 1.387 . S
C1016 H1001 0.930 1_554 S
C1016 C1011 1.390 . S
C1016 C1015 1.387 . S
H1017 C1029 0.930 . S
H1018 C1031 0.930 . S
H1019 C1032 0.930 1_554 S
H1020 C1036 0.959 . S
H1021 C1036 0.959 . S
H1022 C1036 0.961 . S
H1023 C1037 0.960 . S
H1024 C1037 0.961 . S
H1025 C1037 0.959 . S
H1026 C1040 0.929 . S
H1027 C1041 0.931 . S
H1028 C1043 0.930 . S
C1029 H1017 0.930 . S
C1029 C1030 1.399 . S
C1029 C1034 1.399 . S
C1030 C1029 1.399 . S
C1030 C1031 1.376 . S
C1031 H1018 0.930 . S
C1031 C1030 1.376 . S
C1031 C1032 1.388 . S
C1032 H1019 0.930 1_556 S
C1032 C1031 1.388 . S
C1032 C1033 1.390 . S
C1033 C1032 1.390 . S
C1033 C1034 1.394 . S
C1033 C1039 1.465 . S
C1034 C1029 1.399 . S
C1034 C1033 1.394 . S
C1034 C1035 1.516 . S
C1035 C1034 1.516 . S
C1035 C1036 1.502 . S
C1035 C1037 1.561 . S
C1035 C1038 1.526 . S
C1036 H1020 0.959 . S
C1036 H1021 0.959 . S
C1036 H1022 0.961 . S
C1036 C1035 1.502 . S
C1037 H1023 0.960 . S
C1037 H1024 0.961 . S
C1037 H1025 0.959 . S
C1037 C1035 1.561 . S
C1038 C1035 1.526 . S
C1038 C1039 1.396 . S
C1038 C1043 1.390 . S
C1039 C1033 1.465 . S
C1039 C1038 1.396 . S
C1039 C1040 1.399 1_556 S
C1040 H1026 0.929 . S
C1040 C1039 1.399 1_554 S
C1040 C1041 1.385 . S
C1041 H1027 0.931 . S
C1041 C1040 1.385 . S
C1041 C1042 1.389 1_554 S
C1042 C1041 1.389 1_556 S
C1042 C1043 1.387 . S
C1043 H1028 0.930 . S
C1043 C1038 1.390 . S
C1043 C1042 1.387 . S
H1044 C1056 0.930 . S
H1045 C1058 0.930 . S
H1046 C1059 0.930 . S
H1047 C1063 0.959 . S
H1048 C1063 0.959 . S
H1049 C1063 0.961 . S
H1050 C1064 0.960 . S
H1051 C1064 0.961 . S
H1052 C1064 0.959 . S
H1053 C1067 0.929 . S
H1054 C1068 0.931 1_554 S
H1055 C1070 0.930 . S
C1056 H1044 0.930 . S
C1056 C1057 1.399 . S
C1056 C1061 1.399 . S
C1057 C1056 1.399 . S
C1057 C1058 1.376 . S
C1058 H1045 0.930 . S
C1058 C1057 1.376 . S
C1058 C1059 1.388 . S
C1059 H1046 0.930 . S
C1059 C1058 1.388 . S
C1059 C1060 1.390 . S
C1060 C1059 1.390 . S
C1060 C1061 1.394 . S
C1060 C1066 1.465 . S
C1061 C1056 1.399 . S
C1061 C1060 1.394 . S
C1061 C1062 1.516 . S
C1062 C1061 1.516 . S
C1062 C1063 1.502 . S
C1062 C1064 1.561 . S
C1062 C1065 1.526 . S
C1063 H1047 0.959 . S
C1063 H1048 0.959 . S
C1063 H1049 0.961 . S
C1063 C1062 1.502 . S
C1064 H1050 0.960 . S
C1064 H1051 0.961 . S
C1064 H1052 0.959 . S
C1064 C1062 1.561 . S
C1065 C1062 1.526 . S
C1065 C1066 1.396 . S
C1065 C1070 1.390 . S
C1066 C1060 1.465 . S
C1066 C1065 1.396 . S
C1066 C1067 1.399 . S
C1067 H1053 0.929 . S
C1067 C1066 1.399 . S
C1067 C1068 1.385 . S
C1068 H1054 0.931 1_556 S
C1068 C1067 1.385 . S
C1068 C1069 1.389 . S
C1069 C1068 1.389 . S
C1069 C1070 1.387 . S
C1070 H1055 0.930 . S
C1070 C1065 1.390 . S
C1070 C1069 1.387 . S
H1071 C1083 0.930 . S
H1072 C1085 0.930 . S
H1073 C1086 0.930 . S
H1074 C1090 0.959 . S
H1075 C1090 0.959 . S
H1076 C1090 0.961 . S
H1077 C1091 0.960 . S
H1078 C1091 0.961 . S
H1079 C1091 0.959 . S
H1080 C1094 0.929 . S
H1081 C1095 0.931 . S
H1082 C1097 0.933 . S
C1083 H1071 0.930 . S
C1083 C1084 1.399 . S
C1083 C1088 1.399 . S
C1084 C1083 1.399 . S
C1084 C1085 1.376 . S
C1085 H1072 0.930 . S
C1085 C1084 1.376 . S
C1085 C1086 1.388 . S
C1086 H1073 0.930 . S
C1086 C1085 1.388 . S
C1086 C1087 1.390 . S
C1087 C1086 1.390 . S
C1087 C1088 1.394 . S
C1087 C1093 1.465 . S
C1088 C1083 1.399 . S
C1088 C1087 1.394 . S
C1088 C1089 1.516 . S
C1089 C1088 1.516 . S
C1089 C1090 1.502 1_556 S
C1089 C1091 1.561 . S
C1089 C1092 1.526 . S
C1090 H1074 0.959 . S
C1090 H1075 0.959 . S
C1090 H1076 0.961 . S
C1090 C1089 1.502 1_554 S
C1091 H1077 0.960 . S
C1091 H1078 0.961 . S
C1091 H1079 0.959 . S
C1091 C1089 1.561 . S
C1092 C1089 1.526 . S
C1092 C1093 1.396 . S
C1092 C1097 1.390 . S
C1093 C1087 1.465 . S
C1093 C1092 1.396 . S
C1093 C1094 1.399 . S
C1094 H1080 0.929 . S
C1094 C1093 1.399 . S
C1094 C1095 1.385 . S
C1095 H1081 0.931 . S
C1095 C1094 1.385 . S
C1095 C1096 1.389 . S
C1096 C1095 1.389 . S
C1096 C1097 1.387 . S
C1097 H1082 0.933 . S
C1097 C1092 1.390 . S
C1097 C1096 1.387 . S
H1098 C1110 0.930 . S
H1099 C1112 0.930 . S
H1100 C1113 0.930 . S
H1101 C1117 0.959 . S
H1102 C1117 0.959 . S
H1103 C1117 0.961 . S
H1104 C1118 0.960 . S
H1105 C1118 0.961 . S
H1106 C1118 0.959 . S
H1107 C1121 0.929 1_554 S
H1108 C1122 0.931 1_554 S
H1109 C1124 0.930 . S
C1110 H1098 0.930 . S
C1110 C1111 1.399 . S
C1110 C1115 1.399 . S
C1111 C1110 1.399 . S
C1111 C1112 1.376 . S
C1112 H1099 0.930 . S
C1112 C1111 1.376 . S
C1112 C1113 1.388 . S
C1113 H1100 0.930 . S
C1113 C1112 1.388 . S
C1113 C1114 1.390 . S
C1114 C1113 1.390 . S
C1114 C1115 1.394 . S
C1114 C1120 1.465 . S
C1115 C1110 1.399 . S
C1115 C1114 1.394 . S
C1115 C1116 1.516 . S
C1116 C1115 1.516 . S
C1116 C1117 1.502 . S
C1116 C1118 1.561 . S
C1116 C1119 1.526 . S
C1117 H1101 0.959 . S
C1117 H1102 0.959 . S
C1117 H1103 0.961 . S
C1117 C1116 1.502 . S
C1118 H1104 0.960 . S
C1118 H1105 0.961 . S
C1118 H1106 0.959 . S
C1118 C1116 1.561 . S
C1119 C1116 1.526 . S
C1119 C1120 1.396 . S
C1119 C1124 1.390 . S
C1120 C1114 1.465 . S
C1120 C1119 1.396 . S
C1120 C1121 1.399 . S
C1121 H1107 0.929 1_556 S
C1121 C1120 1.399 . S
C1121 C1122 1.385 . S
C1122 H1108 0.931 1_556 S
C1122 C1121 1.385 . S
C1122 C1123 1.389 . S
C1123 C1122 1.389 . S
C1123 C1124 1.387 . S
C1124 H1109 0.930 . S
C1124 C1119 1.390 . S
C1124 C1123 1.387 . S
H1125 C1137 0.930 . S
H1126 C1139 0.930 . S
H1127 C1140 0.930 . S
H1128 C1144 0.959 . S
H1129 C1144 0.959 . S
H1130 C1144 0.961 . S
H1131 C1145 0.960 . S
H1132 C1145 0.962 . S
H1133 C1145 0.972 . S
H1134 C1148 0.929 . S
H1135 C1149 0.931 . S
H1136 C1151 0.930 . S
C1137 H1125 0.930 . S
C1137 C1138 1.399 . S
C1137 C1142 1.399 . S
C1138 C1137 1.399 . S
C1138 C1139 1.376 . S
C1139 H1126 0.930 . S
C1139 C1138 1.376 . S
C1139 C1140 1.388 . S
C1140 H1127 0.930 . S
C1140 C1139 1.388 . S
C1140 C1141 1.390 . S
C1141 C1140 1.390 . S
C1141 C1142 1.394 . S
C1141 C1147 1.465 . S
C1142 C1137 1.399 . S
C1142 C1141 1.394 . S
C1142 C1143 1.516 . S
C1143 C1142 1.516 . S
C1143 C1144 1.502 . S
C1143 C1145 1.561 . S
C1143 C1146 1.526 . S
C1144 H1128 0.959 . S
C1144 H1129 0.959 . S
C1144 H1130 0.961 . S
C1144 C1143 1.502 . S
C1145 H1131 0.960 . S
C1145 H1132 0.962 . S
C1145 H1133 0.972 . S
C1145 C1143 1.561 . S
C1146 C1143 1.526 . S
C1146 C1147 1.396 . S
C1146 C1151 1.390 . S
C1147 C1141 1.465 . S
C1147 C1146 1.396 . S
C1147 C1148 1.399 . S
C1148 H1134 0.929 . S
C1148 C1147 1.399 . S
C1148 C1149 1.385 . S
C1149 H1135 0.931 . S
C1149 C1148 1.385 . S
C1149 C1150 1.389 . S
C1150 C1149 1.389 . S
C1150 C1151 1.387 . S
C1151 H1136 0.930 . S
C1151 C1146 1.390 . S
C1151 C1150 1.387 . S
H1152 C1164 0.930 . S
H1153 C1166 0.930 . S
H1154 C1167 0.930 . S
H1155 C1171 0.959 1_556 S
H1156 C1171 0.959 . S
H1157 C1171 0.961 . S
H1158 C1172 0.960 . S
H1159 C1172 0.961 . S
H1160 C1172 0.959 . S
H1161 C1175 0.929 . S
H1162 C1176 0.931 . S
H1163 C1178 0.930 1_554 S
C1164 H1152 0.930 . S
C1164 C1165 1.399 . S
C1164 C1169 1.399 . S
C1165 C1164 1.399 . S
C1165 C1166 1.376 . S
C1166 H1153 0.930 . S
C1166 C1165 1.376 . S
C1166 C1167 1.388 . S
C1167 H1154 0.930 . S
C1167 C1166 1.388 . S
C1167 C1168 1.390 . S
C1168 C1167 1.390 . S
C1168 C1169 1.394 . S
C1168 C1174 1.465 . S
C1169 C1164 1.399 . S
C1169 C1168 1.394 . S
C1169 C1170 1.476 1_556 S
C1170 C1169 1.476 1_554 S
C1170 C1171 1.525 . S
C1170 C1172 1.611 . S
C1170 C1173 1.493 1_554 S
C1171 H1155 0.959 1_554 S
C1171 H1156 0.959 . S
C1171 H1157 0.961 . S
C1171 C1170 1.525 . S
C1172 H1158 0.960 . S
C1172 H1159 0.961 . S
C1172 H1160 0.959 . S
C1172 C1170 1.611 . S
C1173 C1170 1.493 1_556 S
C1173 C1174 1.396 . S
C1173 C1178 1.390 . S
C1174 C1168 1.465 . S
C1174 C1173 1.396 . S
C1174 C1175 1.399 . S
C1175 H1161 0.929 . S
C1175 C1174 1.399 . S
C1175 C1176 1.385 . S
C1176 H1162 0.931 . S
C1176 C1175 1.385 . S
C1176 C1177 1.389 . S
C1177 C1176 1.389 . S
C1177 C1178 1.387 . S
C1178 H1163 0.930 1_556 S
C1178 C1173 1.390 . S
C1178 C1177 1.387 . S
H1179 C1191 0.930 . S
H1180 C1193 0.930 . S
H1181 C1194 0.930 . S
H1182 C1198 0.959 . S
H1183 C1198 0.959 . S
H1184 C1198 0.961 . S
H1185 C1199 0.954 1_556 S
H1186 C1199 0.947 1_556 S
H1187 C1199 0.940 1_556 S
H1188 C1202 0.929 . S
H1189 C1203 0.931 . S
H1190 C1205 0.930 . S
C1191 H1179 0.930 . S
C1191 C1192 1.399 . S
C1191 C1196 1.399 . S
C1192 C1191 1.399 . S
C1192 C1193 1.376 . S
C1193 H1180 0.930 . S
C1193 C1192 1.376 . S
C1193 C1194 1.388 . S
C1194 H1181 0.930 . S
C1194 C1193 1.388 . S
C1194 C1195 1.390 . S
C1195 C1194 1.390 . S
C1195 C1196 1.394 . S
C1195 C1201 1.465 . S
C1196 C1191 1.399 . S
C1196 C1195 1.394 . S
C1196 C1197 1.516 . S
C1197 C1196 1.516 . S
C1197 C1198 1.502 . S
C1197 C1199 1.601 . S
C1197 C1200 1.526 . S
C1198 H1182 0.959 . S
C1198 H1183 0.959 . S
C1198 H1184 0.961 . S
C1198 C1197 1.502 . S
C1199 H1185 0.954 1_554 S
C1199 H1186 0.947 1_554 S
C1199 H1187 0.940 1_554 S
C1199 C1197 1.601 . S
C1200 C1197 1.526 . S
C1200 C1201 1.396 . S
C1200 C1205 1.390 . S
C1201 C1195 1.465 . S
C1201 C1200 1.396 . S
C1201 C1202 1.399 . S
C1202 H1188 0.929 . S
C1202 C1201 1.399 . S
C1202 C1203 1.385 . S
C1203 H1189 0.931 . S
C1203 C1202 1.385 . S
C1203 C1204 1.389 . S
C1204 C1203 1.389 . S
C1204 C1205 1.387 . S
C1205 H1190 0.930 . S
C1205 C1200 1.390 . S
C1205 C1204 1.387 . S
H1206 C1218 0.930 . S
H1207 C1220 0.930 . S
H1208 C1221 0.930 . S
H1209 C1225 0.959 . S
H1210 C1225 0.959 . S
H1211 C1225 0.961 . S
H1212 C1226 0.960 . S
H1213 C1226 0.961 . S
H1214 C1226 0.959 . S
H1215 C1229 0.929 . S
H1216 C1230 0.885 1_556 S
H1217 C1232 0.930 . S
C1218 H1206 0.930 . S
C1218 C1219 1.399 . S
C1218 C1223 1.399 . S
C1219 C1218 1.399 . S
C1219 C1220 1.376 . S
C1220 H1207 0.930 . S
C1220 C1219 1.376 . S
C1220 C1221 1.388 . S
C1221 H1208 0.930 . S
C1221 C1220 1.388 . S
C1221 C1222 1.390 . S
C1222 C1221 1.390 . S
C1222 C1223 1.394 . S
C1222 C1228 1.465 . S
C1223 C1218 1.399 . S
C1223 C1222 1.394 . S
C1223 C1224 1.516 . S
C1224 C1223 1.516 . S
C1224 C1225 1.502 . S
C1224 C1226 1.561 . S
C1224 C1227 1.526 . S
C1225 H1209 0.959 . S
C1225 H1210 0.959 . S
C1225 H1211 0.961 . S
C1225 C1224 1.502 . S
C1226 H1212 0.960 . S
C1226 H1213 0.961 . S
C1226 H1214 0.959 . S
C1226 C1224 1.561 . S
C1227 C1224 1.526 . S
C1227 C1228 1.396 . S
C1227 C1232 1.390 . S
C1228 C1222 1.465 . S
C1228 C1227 1.396 . S
C1228 C1229 1.399 . S
C1229 H1215 0.929 . S
C1229 C1228 1.399 . S
C1229 C1230 1.385 . S
C1230 H1216 0.885 1_554 S
C1230 C1229 1.385 . S
C1230 C1231 1.389 . S
C1231 C1230 1.389 . S
C1231 C1232 1.387 . S
C1232 H1217 0.930 . S
C1232 C1227 1.390 . S
C1232 C1231 1.387 . S
H1233 C1245 0.930 . S
H1234 C1247 0.930 . S
H1235 C1248 0.930 . S
H1236 C1252 0.959 . S
H1237 C1252 0.959 . S
H1238 C1252 0.961 . S
H1239 C1253 0.960 . S
H1240 C1253 0.961 . S
H1241 C1253 0.959 1_554 S
H1242 C1256 0.929 . S
H1243 C1257 0.931 . S
H1244 C1259 0.930 1_556 S
C1245 H1233 0.930 . S
C1245 C1246 1.399 . S
C1245 C1250 1.399 . S
C1246 C1245 1.399 . S
C1246 C1247 1.376 . S
C1247 H1234 0.930 . S
C1247 C1246 1.376 . S
C1247 C1248 1.388 . S
C1248 H1235 0.930 . S
C1248 C1247 1.388 . S
C1248 C1249 1.390 . S
C1249 C1248 1.390 . S
C1249 C1250 1.394 . S
C1249 C1255 1.465 . S
C1250 C1245 1.399 . S
C1250 C1249 1.394 . S
C1250 C1251 1.516 . S
C1251 C1250 1.516 . S
C1251 C1252 1.502 1_554 S
C1251 C1253 1.561 1_554 S
C1251 C1254 1.526 . S
C1252 H1236 0.959 . S
C1252 H1237 0.959 . S
C1252 H1238 0.961 . S
C1252 C1251 1.502 1_556 S
C1253 H1239 0.960 . S
C1253 H1240 0.961 . S
C1253 H1241 0.959 1_556 S
C1253 C1251 1.561 1_556 S
C1254 C1251 1.526 . S
C1254 C1255 1.396 . S
C1254 C1259 1.390 . S
C1255 C1249 1.465 . S
C1255 C1254 1.396 . S
C1255 C1256 1.399 . S
C1256 H1242 0.929 . S
C1256 C1255 1.399 . S
C1256 C1257 1.385 . S
C1257 H1243 0.931 . S
C1257 C1256 1.385 . S
C1257 C1258 1.389 . S
C1258 C1257 1.389 . S
C1258 C1259 1.387 . S
C1259 H1244 0.930 1_554 S
C1259 C1254 1.390 . S
C1259 C1258 1.387 . S
H1260 C1272 0.930 . S
H1261 C1274 0.930 . S
H1262 C1275 0.930 . S
H1263 C1279 0.959 . S
H1264 C1279 0.959 . S
H1265 C1279 0.961 . S
H1266 C1280 0.960 1_655 S
H1267 C1280 0.961 . S
H1268 C1280 0.959 . S
H1269 C1283 0.929 . S
H1270 C1284 0.931 . S
H1271 C1286 0.930 . S
C1272 H1260 0.930 . S
C1272 C1273 1.399 . S
C1272 C1277 1.399 1_655 S
C1273 C1272 1.399 . S
C1273 C1274 1.376 . S
C1274 H1261 0.930 . S
C1274 C1273 1.376 . S
C1274 C1275 1.388 1_655 S
C1275 H1262 0.930 . S
C1275 C1274 1.388 1_455 S
C1275 C1276 1.390 . S
C1276 C1275 1.390 . S
C1276 C1277 1.394 . S
C1276 C1282 1.465 . S
C1277 C1272 1.399 1_455 S
C1277 C1276 1.394 . S
C1277 C1278 1.516 . S
C1278 C1277 1.516 . S
C1278 C1279 1.502 . S
C1278 C1280 1.561 . S
C1278 C1281 1.526 . S
C1279 H1263 0.959 . S
C1279 H1264 0.959 . S
C1279 H1265 0.961 . S
C1279 C1278 1.502 . S
C1280 H1266 0.960 1_455 S
C1280 H1267 0.961 . S
C1280 H1268 0.959 . S
C1280 C1278 1.561 . S
C1281 C1278 1.526 . S
C1281 C1282 1.396 . S
C1281 C1286 1.390 . S
C1282 C1276 1.465 . S
C1282 C1281 1.396 . S
C1282 C1283 1.399 . S
C1283 H1269 0.929 . S
C1283 C1282 1.399 . S
C1283 C1284 1.385 . S
C1284 H1270 0.931 . S
C1284 C1283 1.385 . S
C1284 C1285 1.389 . S
C1285 C1284 1.389 . S
C1285 C1286 1.387 . S
C1286 H1271 0.930 . S
C1286 C1281 1.390 . S
C1286 C1285 1.387 . S
H1287 C1299 0.930 . S
H1288 C1301 0.930 . S
H1289 C1302 0.930 . S
H1290 C1306 0.959 . S
H1291 C1306 0.959 . S
H1292 C1306 0.961 . S
H1293 C1307 0.960 . S
H1294 C1307 0.961 . S
H1295 C1307 0.959 . S
H1296 C1310 0.929 . S
H1297 C1311 0.931 . S
H1298 C1313 0.930 . S
C1299 H1287 0.930 . S
C1299 C1300 1.399 . S
C1299 C1304 1.399 . S
C1300 C1299 1.399 . S
C1300 C1301 1.376 . S
C1301 H1288 0.930 . S
C1301 C1300 1.376 . S
C1301 C1302 1.388 . S
C1302 H1289 0.930 . S
C1302 C1301 1.388 . S
C1302 C1303 1.390 . S
C1303 C1302 1.390 . S
C1303 C1304 1.394 . S
C1303 C1309 1.465 . S
C1304 C1299 1.399 . S
C1304 C1303 1.394 . S
C1304 C1305 1.516 . S
C1305 C1304 1.516 . S
C1305 C1306 1.502 . S
C1305 C1307 1.561 . S
C1305 C1308 1.526 . S
C1306 H1290 0.959 . S
C1306 H1291 0.959 . S
C1306 H1292 0.961 . S
C1306 C1305 1.502 . S
C1307 H1293 0.960 . S
C1307 H1294 0.961 . S
C1307 H1295 0.959 . S
C1307 C1305 1.561 . S
C1308 C1305 1.526 . S
C1308 C1309 1.396 . S
C1308 C1313 1.390 . S
C1309 C1303 1.465 . S
C1309 C1308 1.396 . S
C1309 C1310 1.399 . S
C1310 H1296 0.929 . S
C1310 C1309 1.399 . S
C1310 C1311 1.385 . S
C1311 H1297 0.931 . S
C1311 C1310 1.385 . S
C1311 C1312 1.389 . S
C1312 C1311 1.389 . S
C1312 C1313 1.387 . S
C1313 H1298 0.930 . S
C1313 C1308 1.390 . S
C1313 C1312 1.387 . S
H1314 C1326 0.930 . S
H1315 C1328 0.930 . S
H1316 C1329 0.930 . S
H1317 C1333 0.959 . S
H1318 C1333 0.959 . S
H1319 C1333 0.961 . S
H1320 C1334 0.960 . S
H1321 C1334 0.961 . S
H1322 C1334 0.959 . S
H1323 C1337 0.929 . S
H1324 C1338 0.931 . S
H1325 C1340 0.930 . S
C1326 H1314 0.930 . S
C1326 C1327 1.399 . S
C1326 C1331 1.399 . S
C1327 C1326 1.399 . S
C1327 C1328 1.376 . S
C1328 H1315 0.930 . S
C1328 C1327 1.376 . S
C1328 C1329 1.388 . S
C1329 H1316 0.930 . S
C1329 C1328 1.388 . S
C1329 C1330 1.392 1_545 S
C1330 C1329 1.392 1_565 S
C1330 C1331 1.394 1_565 S
C1330 C1336 1.462 . S
C1331 C1326 1.399 . S
C1331 C1330 1.394 1_545 S
C1331 C1332 1.516 1_545 S
C1332 C1331 1.516 1_565 S
C1332 C1333 1.502 . S
C1332 C1334 1.561 . S
C1332 C1335 1.526 . S
C1333 H1317 0.959 . S
C1333 H1318 0.959 . S
C1333 H1319 0.961 . S
C1333 C1332 1.502 . S
C1334 H1320 0.960 . S
C1334 H1321 0.961 . S
C1334 H1322 0.959 . S
C1334 C1332 1.561 . S
C1335 C1332 1.526 . S
C1335 C1336 1.396 . S
C1335 C1340 1.390 . S
C1336 C1330 1.462 . S
C1336 C1335 1.396 . S
C1336 C1337 1.399 . S
C1337 H1323 0.929 . S
C1337 C1336 1.399 . S
C1337 C1338 1.385 . S
C1338 H1324 0.931 . S
C1338 C1337 1.385 . S
C1338 C1339 1.389 . S
C1339 C1338 1.389 . S
C1339 C1340 1.387 . S
C1340 H1325 0.930 . S
C1340 C1335 1.390 . S
C1340 C1339 1.387 . S
H1341 C1353 0.930 . S
H1342 C1355 0.930 . S
H1343 C1356 0.930 . S
H1344 C1360 0.959 . S
H1345 C1360 0.959 . S
H1346 C1360 0.961 . S
H1347 C1361 0.960 . S
H1348 C1361 0.961 . S
H1349 C1361 0.959 . S
H1350 C1364 0.929 . S
H1351 C1365 0.931 . S
H1352 C1367 0.930 . S
C1353 H1341 0.930 . S
C1353 C1354 1.399 . S
C1353 C1358 1.399 . S
C1354 C1353 1.399 . S
C1354 C1355 1.376 . S
C1355 H1342 0.930 . S
C1355 C1354 1.376 . S
C1355 C1356 1.388 . S
C1356 H1343 0.930 . S
C1356 C1355 1.388 . S
C1356 C1357 1.390 . S
C1357 C1356 1.390 . S
C1357 C1358 1.394 . S
C1357 C1363 1.465 . S
C1358 C1353 1.399 . S
C1358 C1357 1.394 . S
C1358 C1359 1.516 . S
C1359 C1358 1.516 . S
C1359 C1360 1.502 . S
C1359 C1361 1.561 . S
C1359 C1362 1.526 . S
C1360 H1344 0.959 . S
C1360 H1345 0.959 . S
C1360 H1346 0.961 . S
C1360 C1359 1.502 . S
C1361 H1347 0.960 . S
C1361 H1348 0.961 . S
C1361 H1349 0.959 . S
C1361 C1359 1.561 . S
C1362 C1359 1.526 . S
C1362 C1363 1.396 . S
C1362 C1367 1.390 . S
C1363 C1357 1.465 . S
C1363 C1362 1.396 . S
C1363 C1364 1.399 . S
C1364 H1350 0.929 . S
C1364 C1363 1.399 . S
C1364 C1365 1.385 . S
C1365 H1351 0.931 . S
C1365 C1364 1.385 . S
C1365 C1366 1.389 . S
C1366 C1365 1.389 . S
C1366 C1367 1.387 . S
C1367 H1352 0.930 . S
C1367 C1362 1.390 . S
C1367 C1366 1.387 . S
H1368 C1380 0.930 . S
H1369 C1382 0.930 . S
H1370 C1383 0.930 . S
H1371 C1387 0.959 . S
H1372 C1387 0.959 . S
H1373 C1387 0.961 . S
H1374 C1388 0.960 . S
H1375 C1388 0.961 . S
H1376 C1388 0.959 . S
H1377 C1391 0.929 . S
H1378 C1392 0.931 . S
H1379 C1394 0.930 . S
C1380 H1368 0.930 . S
C1380 C1381 1.399 . S
C1380 C1385 1.399 . S
C1381 C1380 1.399 . S
C1381 C1382 1.376 . S
C1382 H1369 0.930 . S
C1382 C1381 1.376 . S
C1382 C1383 1.388 . S
C1383 H1370 0.930 . S
C1383 C1382 1.388 . S
C1383 C1384 1.390 . S
C1384 C1383 1.390 . S
C1384 C1385 1.394 . S
C1384 C1390 1.465 . S
C1385 C1380 1.399 . S
C1385 C1384 1.394 . S
C1385 C1386 1.516 . S
C1386 C1385 1.516 . S
C1386 C1387 1.502 . S
C1386 C1388 1.561 . S
C1386 C1389 1.526 . S
C1387 H1371 0.959 . S
C1387 H1372 0.959 . S
C1387 H1373 0.961 . S
C1387 C1386 1.502 . S
C1388 H1374 0.960 . S
C1388 H1375 0.961 . S
C1388 H1376 0.959 . S
C1388 C1386 1.561 . S
C1389 C1386 1.526 . S
C1389 C1390 1.396 . S
C1389 C1394 1.390 . S
C1390 C1384 1.465 . S
C1390 C1389 1.396 . S
C1390 C1391 1.399 . S
C1391 H1377 0.929 . S
C1391 C1390 1.399 . S
C1391 C1392 1.385 . S
C1392 H1378 0.931 . S
C1392 C1391 1.385 . S
C1392 C1393 1.389 . S
C1393 C1392 1.389 . S
C1393 C1394 1.387 . S
C1394 H1379 0.930 . S
C1394 C1389 1.390 . S
C1394 C1393 1.387 . S
H1395 C1407 0.930 . S
H1396 C1409 0.930 . S
H1397 C1410 0.930 . S
H1398 C1414 0.959 . S
H1399 C1414 0.959 . S
H1400 C1414 0.961 . S
H1401 C1415 0.960 . S
H1402 C1415 0.961 . S
H1403 C1415 0.959 . S
H1404 C1418 0.929 . S
H1405 C1419 0.931 . S
H1406 C1421 0.930 . S
C1407 H1395 0.930 . S
C1407 C1408 1.399 . S
C1407 C1412 1.399 . S
C1408 C1407 1.399 . S
C1408 C1409 1.376 . S
C1409 H1396 0.930 . S
C1409 C1408 1.376 . S
C1409 C1410 1.388 . S
C1410 H1397 0.930 . S
C1410 C1409 1.388 . S
C1410 C1411 1.390 . S
C1411 C1410 1.390 . S
C1411 C1412 1.394 . S
C1411 C1417 1.465 . S
C1412 C1407 1.399 . S
C1412 C1411 1.394 . S
C1412 C1413 1.516 . S
C1413 C1412 1.516 . S
C1413 C1414 1.502 . S
C1413 C1415 1.561 . S
C1413 C1416 1.526 . S
C1414 H1398 0.959 . S
C1414 H1399 0.959 . S
C1414 H1400 0.961 . S
C1414 C1413 1.502 . S
C1415 H1401 0.960 . S
C1415 H1402 0.961 . S
C1415 H1403 0.959 . S
C1415 C1413 1.561 . S
C1416 C1413 1.526 . S
C1416 C1417 1.396 . S
C1416 C1421 1.390 . S
C1417 C1411 1.465 . S
C1417 C1416 1.396 . S
C1417 C1418 1.399 . S
C1418 H1404 0.929 . S
C1418 C1417 1.399 . S
C1418 C1419 1.385 . S
C1419 H1405 0.931 . S
C1419 C1418 1.385 . S
C1419 C1420 1.389 . S
C1420 C1419 1.389 . S
C1420 C1421 1.387 . S
C1421 H1406 0.930 . S
C1421 C1416 1.390 . S
C1421 C1420 1.387 . S
H1422 C1434 0.930 . S
H1423 C1436 0.930 . S
H1424 C1437 0.930 . S
H1425 C1441 0.959 . S
H1426 C1441 0.959 . S
H1427 C1441 0.961 . S
H1428 C1442 0.960 . S
H1429 C1442 0.961 . S
H1430 C1442 0.959 . S
H1431 C1445 0.929 . S
H1432 C1446 0.931 . S
H1433 C1448 0.930 . S
C1434 H1422 0.930 . S
C1434 C1435 1.399 . S
C1434 C1439 1.399 . S
C1435 C1434 1.399 . S
C1435 C1436 1.376 . S
C1436 H1423 0.930 . S
C1436 C1435 1.376 . S
C1436 C1437 1.388 . S
C1437 H1424 0.930 . S
C1437 C1436 1.388 . S
C1437 C1438 1.390 . S
C1438 C1437 1.390 . S
C1438 C1439 1.394 . S
C1438 C1444 1.465 . S
C1439 C1434 1.399 . S
C1439 C1438 1.394 . S
C1439 C1440 1.516 . S
C1440 C1439 1.516 . S
C1440 C1441 1.502 . S
C1440 C1442 1.561 . S
C1440 C1443 1.526 . S
C1441 H1425 0.959 . S
C1441 H1426 0.959 . S
C1441 H1427 0.961 . S
C1441 C1440 1.502 . S
C1442 H1428 0.960 . S
C1442 H1429 0.961 . S
C1442 H1430 0.959 . S
C1442 C1440 1.561 . S
C1443 C1440 1.526 . S
C1443 C1444 1.396 . S
C1443 C1448 1.390 . S
C1444 C1438 1.465 . S
C1444 C1443 1.396 . S
C1444 C1445 1.399 . S
C1445 H1431 0.929 . S
C1445 C1444 1.399 . S
C1445 C1446 1.385 . S
C1446 H1432 0.931 . S
C1446 C1445 1.385 . S
C1446 C1447 1.389 . S
C1447 C1446 1.389 . S
C1447 C1448 1.387 . S
C1448 H1433 0.930 . S
C1448 C1443 1.390 . S
C1448 C1447 1.387 . S
H1449 C1461 0.930 . S
H1450 C1463 0.930 . S
H1451 C1464 0.930 . S
H1452 C1468 0.959 . S
H1453 C1468 0.959 . S
H1454 C1468 0.961 . S
H1455 C1469 0.960 . S
H1456 C1469 0.961 . S
H1457 C1469 0.959 . S
H1458 C1472 0.929 . S
H1459 C1473 0.931 . S
H1460 C1475 0.930 . S
C1461 H1449 0.930 . S
C1461 C1462 1.399 . S
C1461 C1466 1.399 . S
C1462 C1461 1.399 . S
C1462 C1463 1.376 . S
C1463 H1450 0.930 . S
C1463 C1462 1.376 . S
C1463 C1464 1.388 . S
C1464 H1451 0.930 . S
C1464 C1463 1.388 . S
C1464 C1465 1.390 . S
C1465 C1464 1.390 . S
C1465 C1466 1.394 . S
C1465 C1471 1.465 . S
C1466 C1461 1.399 . S
C1466 C1465 1.394 . S
C1466 C1467 1.516 . S
C1467 C1466 1.516 . S
C1467 C1468 1.502 . S
C1467 C1469 1.561 . S
C1467 C1470 1.526 . S
C1468 H1452 0.959 . S
C1468 H1453 0.959 . S
C1468 H1454 0.961 . S
C1468 C1467 1.502 . S
C1469 H1455 0.960 . S
C1469 H1456 0.961 . S
C1469 H1457 0.959 . S
C1469 C1467 1.561 . S
C1470 C1467 1.526 . S
C1470 C1471 1.396 . S
C1470 C1475 1.390 . S
C1471 C1465 1.465 . S
C1471 C1470 1.396 . S
C1471 C1472 1.399 . S
C1472 H1458 0.929 . S
C1472 C1471 1.399 . S
C1472 C1473 1.385 . S
C1473 H1459 0.931 . S
C1473 C1472 1.385 . S
C1473 C1474 1.389 . S
C1474 C1473 1.389 . S
C1474 C1475 1.387 . S
C1475 H1460 0.930 . S
C1475 C1470 1.390 . S
C1475 C1474 1.387 . S
H1476 C1488 0.930 . S
H1477 C1490 0.930 . S
H1478 C1491 0.930 . S
H1479 C1495 0.959 . S
H1480 C1495 0.959 . S
H1481 C1495 0.961 . S
H1482 C1496 0.960 . S
H1483 C1496 0.961 . S
H1484 C1496 0.959 . S
H1485 C1499 0.929 . S
H1486 C1500 0.931 . S
H1487 C1502 0.930 . S
C1488 H1476 0.930 . S
C1488 C1489 1.399 . S
C1488 C1493 1.399 . S
C1489 C1488 1.399 . S
C1489 C1490 1.376 . S
C1490 H1477 0.930 . S
C1490 C1489 1.376 . S
C1490 C1491 1.388 . S
C1491 H1478 0.930 . S
C1491 C1490 1.388 . S
C1491 C1492 1.390 . S
C1492 C1491 1.390 . S
C1492 C1493 1.394 . S
C1492 C1498 1.465 . S
C1493 C1488 1.399 . S
C1493 C1492 1.394 . S
C1493 C1494 1.516 . S
C1494 C1493 1.516 . S
C1494 C1495 1.502 . S
C1494 C1496 1.561 . S
C1494 C1497 1.526 . S
C1495 H1479 0.959 . S
C1495 H1480 0.959 . S
C1495 H1481 0.961 . S
C1495 C1494 1.502 . S
C1496 H1482 0.960 . S
C1496 H1483 0.961 . S
C1496 H1484 0.959 . S
C1496 C1494 1.561 . S
C1497 C1494 1.526 . S
C1497 C1498 1.396 . S
C1497 C1502 1.390 . S
C1498 C1492 1.465 . S
C1498 C1497 1.396 . S
C1498 C1499 1.399 . S
C1499 H1485 0.929 . S
C1499 C1498 1.399 . S
C1499 C1500 1.385 . S
C1500 H1486 0.931 . S
C1500 C1499 1.385 . S
C1500 C1501 1.389 . S
C1501 C1500 1.389 . S
C1501 C1502 1.387 . S
C1502 H1487 0.930 . S
C1502 C1497 1.390 . S
C1502 C1501 1.387 . S
H1503 C1515 0.930 . S
H1504 C1517 0.930 . S
H1505 C1518 0.930 . S
H1506 C1522 0.959 . S
H1507 C1522 0.959 . S
H1508 C1522 0.961 . S
H1509 C1523 0.960 . S
H1510 C1523 0.961 . S
H1511 C1523 0.959 . S
H1512 C1526 0.929 . S
H1513 C1527 0.931 . S
H1514 C1529 0.930 . S
C1515 H1503 0.930 . S
C1515 C1516 1.399 . S
C1515 C1520 1.404 . S
C1516 C1515 1.399 . S
C1516 C1517 1.376 . S
C1517 H1504 0.930 . S
C1517 C1516 1.376 . S
C1517 C1518 1.388 . S
C1518 H1505 0.930 . S
C1518 C1517 1.388 . S
C1518 C1519 1.390 1_545 S
C1519 C1518 1.390 1_565 S
C1519 C1520 1.394 1_565 S
C1519 C1525 1.465 . S
C1520 C1515 1.404 . S
C1520 C1519 1.394 1_545 S
C1520 C1521 1.510 1_545 S
C1521 C1520 1.510 1_565 S
C1521 C1522 1.502 . S
C1521 C1523 1.561 . S
C1521 C1524 1.526 . S
C1522 H1506 0.959 . S
C1522 H1507 0.959 . S
C1522 H1508 0.961 . S
C1522 C1521 1.502 . S
C1523 H1509 0.960 . S
C1523 H1510 0.961 . S
C1523 H1511 0.959 . S
C1523 C1521 1.561 . S
C1524 C1521 1.526 . S
C1524 C1525 1.396 . S
C1524 C1529 1.390 . S
C1525 C1519 1.465 . S
C1525 C1524 1.396 . S
C1525 C1526 1.399 . S
C1526 H1512 0.929 . S
C1526 C1525 1.399 . S
C1526 C1527 1.385 . S
C1527 H1513 0.931 . S
C1527 C1526 1.385 . S
C1527 C1528 1.389 . S
C1528 C1527 1.389 . S
C1528 C1529 1.387 . S
C1529 H1514 0.930 . S
C1529 C1524 1.390 . S
C1529 C1528 1.387 . S
H1530 C1542 0.930 . S
H1531 C1544 0.930 . S
H1532 C1545 0.930 . S
H1533 C1549 0.959 . S
H1534 C1549 0.959 . S
H1535 C1549 0.961 . S
H1536 C1550 0.960 . S
H1537 C1550 0.961 . S
H1538 C1550 0.959 . S
H1539 C1553 0.929 . S
H1540 C1554 0.931 . S
H1541 C1556 0.930 . S
C1542 H1530 0.930 . S
C1542 C1543 1.399 . S
C1542 C1547 1.399 1_655 S
C1543 C1542 1.399 . S
C1543 C1544 1.376 . S
C1544 H1531 0.930 . S
C1544 C1543 1.376 . S
C1544 C1545 1.388 . S
C1545 H1532 0.930 . S
C1545 C1544 1.388 . S
C1545 C1546 1.390 1_655 S
C1546 C1545 1.390 1_455 S
C1546 C1547 1.394 . S
C1546 C1552 1.465 . S
C1547 C1542 1.399 1_455 S
C1547 C1546 1.394 . S
C1547 C1548 1.516 . S
C1548 C1547 1.516 . S
C1548 C1549 1.502 . S
C1548 C1550 1.561 . S
C1548 C1551 1.526 . S
C1549 H1533 0.959 . S
C1549 H1534 0.959 . S
C1549 H1535 0.961 . S
C1549 C1548 1.502 . S
C1550 H1536 0.960 . S
C1550 H1537 0.961 . S
C1550 H1538 0.959 . S
C1550 C1548 1.561 . S
C1551 C1548 1.526 . S
C1551 C1552 1.396 . S
C1551 C1556 1.390 . S
C1552 C1546 1.465 . S
C1552 C1551 1.396 . S
C1552 C1553 1.399 . S
C1553 H1539 0.929 . S
C1553 C1552 1.399 . S
C1553 C1554 1.385 . S
C1554 H1540 0.931 . S
C1554 C1553 1.385 . S
C1554 C1555 1.389 . S
C1555 C1554 1.389 . S
C1555 C1556 1.387 . S
C1556 H1541 0.930 . S
C1556 C1551 1.390 . S
C1556 C1555 1.387 . S
H1557 C1569 0.930 . S
H1558 C1571 0.930 . S
H1559 C1572 0.930 . S
H1560 C1576 0.959 . S
H1561 C1576 0.959 . S
H1562 C1576 0.961 . S
H1563 C1577 0.960 . S
H1564 C1577 0.961 . S
H1565 C1577 0.959 . S
H1566 C1580 0.929 . S
H1567 C1581 0.931 . S
H1568 C1583 0.930 . S
C1569 H1557 0.930 . S
C1569 C1570 1.399 . S
C1569 C1574 1.399 . S
C1570 C1569 1.399 . S
C1570 C1571 1.376 . S
C1571 H1558 0.930 . S
C1571 C1570 1.376 . S
C1571 C1572 1.388 . S
C1572 H1559 0.930 . S
C1572 C1571 1.388 . S
C1572 C1573 1.390 . S
C1573 C1572 1.390 . S
C1573 C1574 1.394 . S
C1573 C1579 1.465 . S
C1574 C1569 1.399 . S
C1574 C1573 1.394 . S
C1574 C1575 1.516 . S
C1575 C1574 1.516 . S
C1575 C1576 1.502 . S
C1575 C1577 1.561 . S
C1575 C1578 1.526 . S
C1576 H1560 0.959 . S
C1576 H1561 0.959 . S
C1576 H1562 0.961 . S
C1576 C1575 1.502 . S
C1577 H1563 0.960 . S
C1577 H1564 0.961 . S
C1577 H1565 0.959 . S
C1577 C1575 1.561 . S
C1578 C1575 1.526 . S
C1578 C1579 1.396 . S
C1578 C1583 1.390 . S
C1579 C1573 1.465 . S
C1579 C1578 1.396 . S
C1579 C1580 1.399 . S
C1580 H1566 0.929 . S
C1580 C1579 1.399 . S
C1580 C1581 1.385 . S
C1581 H1567 0.931 . S
C1581 C1580 1.385 . S
C1581 C1582 1.389 . S
C1582 C1581 1.389 . S
C1582 C1583 1.387 . S
C1583 H1568 0.930 . S
C1583 C1578 1.390 . S
C1583 C1582 1.387 . S
H1584 C1596 0.930 . S
H1585 C1598 0.930 . S
H1586 C1599 0.930 . S
H1587 C1603 0.959 . S
H1588 C1603 0.959 . S
H1589 C1603 0.961 . S
H1590 C1604 0.960 . S
H1591 C1604 0.961 . S
H1592 C1604 0.959 . S
H1593 C1607 0.929 . S
H1594 C1608 0.931 . S
H1595 C1610 0.930 . S
C1596 H1584 0.930 . S
C1596 C1597 1.399 . S
C1596 C1601 1.399 . S
C1597 C1596 1.399 . S
C1597 C1598 1.376 . S
C1598 H1585 0.930 . S
C1598 C1597 1.376 . S
C1598 C1599 1.388 . S
C1599 H1586 0.930 . S
C1599 C1598 1.388 . S
C1599 C1600 1.390 . S
C1600 C1599 1.390 . S
C1600 C1601 1.394 . S
C1600 C1606 1.465 . S
C1601 C1596 1.399 . S
C1601 C1600 1.394 . S
C1601 C1602 1.516 . S
C1602 C1601 1.516 . S
C1602 C1603 1.502 . S
C1602 C1604 1.561 . S
C1602 C1605 1.526 . S
C1603 H1587 0.959 . S
C1603 H1588 0.959 . S
C1603 H1589 0.961 . S
C1603 C1602 1.502 . S
C1604 H1590 0.960 . S
C1604 H1591 0.961 . S
C1604 H1592 0.959 . S
C1604 C1602 1.561 . S
C1605 C1602 1.526 . S
C1605 C1606 1.396 . S
C1605 C1610 1.390 . S
C1606 C1600 1.465 . S
C1606 C1605 1.396 . S
C1606 C1607 1.399 . S
C1607 H1593 0.929 . S
C1607 C1606 1.399 . S
C1607 C1608 1.385 . S
C1608 H1594 0.931 . S
C1608 C1607 1.385 . S
C1608 C1609 1.389 . S
C1609 C1608 1.389 . S
C1609 C1610 1.387 . S
C1610 H1595 0.930 . S
C1610 C1605 1.390 . S
C1610 C1609 1.387 . S
H1611 C1623 0.930 . S
H1612 C1625 0.930 . S
H1613 C1626 0.930 . S
H1614 C1630 0.959 . S
H1615 C1630 0.959 . S
H1616 C1630 0.961 . S
H1617 C1631 0.960 . S
H1618 C1631 0.961 . S
H1619 C1631 0.959 . S
H1620 C1634 0.929 . S
H1621 C1635 0.931 . S
H1622 C1637 0.930 . S
C1623 H1611 0.930 . S
C1623 C1624 1.399 . S
C1623 C1628 1.399 . S
C1624 C1623 1.399 . S
C1624 C1625 1.376 . S
C1625 H1612 0.930 . S
C1625 C1624 1.376 . S
C1625 C1626 1.388 . S
C1626 H1613 0.930 . S
C1626 C1625 1.388 . S
C1626 C1627 1.390 . S
C1627 C1626 1.390 . S
C1627 C1628 1.394 . S
C1627 C1633 1.465 . S
C1628 C1623 1.399 . S
C1628 C1627 1.394 . S
C1628 C1629 1.516 . S
C1629 C1628 1.516 . S
C1629 C1630 1.502 . S
C1629 C1631 1.561 . S
C1629 C1632 1.526 . S
C1630 H1614 0.959 . S
C1630 H1615 0.959 . S
C1630 H1616 0.961 . S
C1630 C1629 1.502 . S
C1631 H1617 0.960 . S
C1631 H1618 0.961 . S
C1631 H1619 0.959 . S
C1631 C1629 1.561 . S
C1632 C1629 1.526 . S
C1632 C1633 1.396 . S
C1632 C1637 1.390 . S
C1633 C1627 1.465 . S
C1633 C1632 1.396 . S
C1633 C1634 1.399 . S
C1634 H1620 0.929 . S
C1634 C1633 1.399 . S
C1634 C1635 1.385 . S
C1635 H1621 0.931 . S
C1635 C1634 1.385 . S
C1635 C1636 1.389 . S
C1636 C1635 1.389 . S
C1636 C1637 1.387 . S
C1637 H1622 0.930 . S
C1637 C1632 1.390 . S
C1637 C1636 1.387 . S
H1638 C1650 0.930 . S
H1639 C1652 0.930 . S
H1640 C1653 0.930 . S
H1641 C1657 0.959 . S
H1642 C1657 0.959 . S
H1643 C1657 0.961 . S
H1644 C1658 0.960 . S
H1645 C1658 0.961 . S
H1646 C1658 0.959 . S
H1647 C1661 0.929 . S
H1648 C1662 0.931 . S
H1649 C1664 0.930 . S
C1650 H1638 0.930 . S
C1650 C1651 1.399 . S
C1650 C1655 1.399 . S
C1651 C1650 1.399 . S
C1651 C1652 1.376 . S
C1652 H1639 0.930 . S
C1652 C1651 1.376 . S
C1652 C1653 1.388 . S
C1653 H1640 0.930 . S
C1653 C1652 1.388 . S
C1653 C1654 1.390 . S
C1654 C1653 1.390 . S
C1654 C1655 1.394 . S
C1654 C1660 1.465 . S
C1655 C1650 1.399 . S
C1655 C1654 1.394 . S
C1655 C1656 1.516 . S
C1656 C1655 1.516 . S
C1656 C1657 1.502 . S
C1656 C1658 1.561 . S
C1656 C1659 1.526 . S
C1657 H1641 0.959 . S
C1657 H1642 0.959 . S
C1657 H1643 0.961 . S
C1657 C1656 1.502 . S
C1658 H1644 0.960 . S
C1658 H1645 0.961 . S
C1658 H1646 0.959 . S
C1658 C1656 1.561 . S
C1659 C1656 1.526 . S
C1659 C1660 1.396 . S
C1659 C1664 1.390 . S
C1660 C1654 1.465 . S
C1660 C1659 1.396 . S
C1660 C1661 1.399 . S
C1661 H1647 0.929 . S
C1661 C1660 1.399 . S
C1661 C1662 1.385 . S
C1662 H1648 0.931 . S
C1662 C1661 1.385 . S
C1662 C1663 1.389 . S
C1663 C1662 1.389 . S
C1663 C1664 1.387 . S
C1664 H1649 0.930 . S
C1664 C1659 1.390 . S
C1664 C1663 1.387 . S
H1665 C1677 0.930 . S
H1666 C1679 0.930 . S
H1667 C1680 0.923 1_545 S
H1668 C1684 0.959 . S
H1669 C1684 0.959 . S
H1670 C1684 0.961 1_565 S
H1671 C1685 0.960 1_565 S
H1672 C1685 0.961 . S
H1673 C1685 0.959 . S
H1674 C1688 0.929 . S
H1675 C1689 0.931 . S
H1676 C1691 0.930 . S
C1677 H1665 0.930 . S
C1677 C1678 1.399 . S
C1677 C1682 1.399 . S
C1678 C1677 1.399 . S
C1678 C1679 1.376 . S
C1679 H1666 0.930 . S
C1679 C1678 1.376 . S
C1679 C1680 1.388 . S
C1680 H1667 0.923 1_565 S
C1680 C1679 1.388 . S
C1680 C1681 1.390 1_565 S
C1681 C1680 1.390 1_545 S
C1681 C1682 1.394 1_545 S
C1681 C1687 1.465 . S
C1682 C1677 1.399 . S
C1682 C1681 1.394 1_565 S
C1682 C1683 1.516 1_565 S
C1683 C1682 1.516 1_545 S
C1683 C1684 1.502 . S
C1683 C1685 1.561 . S
C1683 C1686 1.526 . S
C1684 H1668 0.959 . S
C1684 H1669 0.959 . S
C1684 H1670 0.961 1_545 S
C1684 C1683 1.502 . S
C1685 H1671 0.960 1_545 S
C1685 H1672 0.961 . S
C1685 H1673 0.959 . S
C1685 C1683 1.561 . S
C1686 C1683 1.526 . S
C1686 C1687 1.396 . S
C1686 C1691 1.390 . S
C1687 C1681 1.465 . S
C1687 C1686 1.396 . S
C1687 C1688 1.399 . S
C1688 H1674 0.929 . S
C1688 C1687 1.399 . S
C1688 C1689 1.385 . S
C1689 H1675 0.931 . S
C1689 C1688 1.385 . S
C1689 C1690 1.389 . S
C1690 C1689 1.389 . S
C1690 C1691 1.387 . S
C1691 H1676 0.930 . S
C1691 C1686 1.390 . S
C1691 C1690 1.387 . S
H1692 C1704 0.930 . S
H1693 C1706 0.930 . S
H1694 C1707 0.930 . S
H1695 C1711 0.959 . S
H1696 C1711 0.959 . S
H1697 C1711 0.961 . S
H1698 C1712 0.960 1_455 S
H1699 C1712 0.961 . S
H1700 C1712 0.959 . S
H1701 C1715 0.929 . S
H1702 C1716 0.931 . S
H1703 C1718 0.930 . S
C1704 H1692 0.930 . S
C1704 C1705 1.399 . S
C1704 C1709 1.399 1_455 S
C1705 C1704 1.399 . S
C1705 C1706 1.376 . S
C1706 H1693 0.930 . S
C1706 C1705 1.376 . S
C1706 C1707 1.388 1_455 S
C1707 H1694 0.930 . S
C1707 C1706 1.388 1_655 S
C1707 C1708 1.390 . S
C1708 C1707 1.390 . S
C1708 C1709 1.394 . S
C1708 C1714 1.465 . S
C1709 C1704 1.399 1_655 S
C1709 C1708 1.394 . S
C1709 C1710 1.516 . S
C1710 C1709 1.516 . S
C1710 C1711 1.502 . S
C1710 C1712 1.561 . S
C1710 C1713 1.526 . S
C1711 H1695 0.959 . S
C1711 H1696 0.959 . S
C1711 H1697 0.961 . S
C1711 C1710 1.502 . S
C1712 H1698 0.960 1_655 S
C1712 H1699 0.961 . S
C1712 H1700 0.959 . S
C1712 C1710 1.561 . S
C1713 C1710 1.526 . S
C1713 C1714 1.396 . S
C1713 C1718 1.390 . S
C1714 C1708 1.465 . S
C1714 C1713 1.396 . S
C1714 C1715 1.399 . S
C1715 H1701 0.929 . S
C1715 C1714 1.399 . S
C1715 C1716 1.385 . S
C1716 H1702 0.931 . S
C1716 C1715 1.385 . S
C1716 C1717 1.389 . S
C1717 C1716 1.389 . S
C1717 C1718 1.387 . S
C1718 H1703 0.930 . S
C1718 C1713 1.390 . S
C1718 C1717 1.387 . S
H1719 C1731 0.930 . S
H1720 C1733 0.930 . S
H1721 C1734 0.930 . S
H1722 C1738 0.959 . S
H1723 C1738 0.959 . S
H1724 C1738 0.961 . S
H1725 C1739 0.960 . S
H1726 C1739 0.961 . S
H1727 C1739 0.959 . S
H1728 C1742 0.929 . S
H1729 C1743 0.931 . S
H1730 C1745 0.930 . S
C1731 H1719 0.930 . S
C1731 C1732 1.399 . S
C1731 C1736 1.399 . S
C1732 C1731 1.399 . S
C1732 C1733 1.376 . S
C1733 H1720 0.930 . S
C1733 C1732 1.376 . S
C1733 C1734 1.388 . S
C1734 H1721 0.930 . S
C1734 C1733 1.388 . S
C1734 C1735 1.390 . S
C1735 C1734 1.390 . S
C1735 C1736 1.394 . S
C1735 C1741 1.465 . S
C1736 C1731 1.399 . S
C1736 C1735 1.394 . S
C1736 C1737 1.516 . S
C1737 C1736 1.516 . S
C1737 C1738 1.502 . S
C1737 C1739 1.561 . S
C1737 C1740 1.526 . S
C1738 H1722 0.959 . S
C1738 H1723 0.959 . S
C1738 H1724 0.961 . S
C1738 C1737 1.502 . S
C1739 H1725 0.960 . S
C1739 H1726 0.961 . S
C1739 H1727 0.959 . S
C1739 C1737 1.561 . S
C1740 C1737 1.526 . S
C1740 C1741 1.396 . S
C1740 C1745 1.390 . S
C1741 C1735 1.465 . S
C1741 C1740 1.396 . S
C1741 C1742 1.399 . S
C1742 H1728 0.929 . S
C1742 C1741 1.399 . S
C1742 C1743 1.385 . S
C1743 H1729 0.931 . S
C1743 C1742 1.385 . S
C1743 C1744 1.389 . S
C1744 C1743 1.389 . S
C1744 C1745 1.387 . S
C1745 H1730 0.930 . S
C1745 C1740 1.390 . S
C1745 C1744 1.387 . S
H1746 C1758 0.930 . S
H1747 C1760 0.930 . S
H1748 C1761 0.930 . S
H1749 C1765 0.959 . S
H1750 C1765 0.959 . S
H1751 C1765 0.961 1_455 S
H1752 C1766 0.960 1_455 S
H1753 C1766 0.961 . S
H1754 C1766 0.959 . S
H1755 C1769 0.929 . S
H1756 C1770 0.931 . S
H1757 C1772 0.930 . S
C1758 H1746 0.930 . S
C1758 C1759 1.399 . S
C1758 C1763 1.399 1_455 S
C1759 C1758 1.399 . S
C1759 C1760 1.376 . S
C1760 H1747 0.930 . S
C1760 C1759 1.376 . S
C1760 C1761 1.388 1_455 S
C1761 H1748 0.930 . S
C1761 C1760 1.388 1_655 S
C1761 C1762 1.390 . S
C1762 C1761 1.390 . S
C1762 C1763 1.394 . S
C1762 C1768 1.465 . S
C1763 C1758 1.399 1_655 S
C1763 C1762 1.394 . S
C1763 C1764 1.516 . S
C1764 C1763 1.516 . S
C1764 C1765 1.502 . S
C1764 C1766 1.561 . S
C1764 C1767 1.526 . S
C1765 H1749 0.959 . S
C1765 H1750 0.959 . S
C1765 H1751 0.961 1_655 S
C1765 C1764 1.502 . S
C1766 H1752 0.960 1_655 S
C1766 H1753 0.961 . S
C1766 H1754 0.959 . S
C1766 C1764 1.561 . S
C1767 C1764 1.526 . S
C1767 C1768 1.396 . S
C1767 C1772 1.390 . S
C1768 C1762 1.465 . S
C1768 C1767 1.396 . S
C1768 C1769 1.399 . S
C1769 H1755 0.929 . S
C1769 C1768 1.399 . S
C1769 C1770 1.385 . S
C1770 H1756 0.931 . S
C1770 C1769 1.385 . S
C1770 C1771 1.389 . S
C1771 C1770 1.389 . S
C1771 C1772 1.387 . S
C1772 H1757 0.930 . S
C1772 C1767 1.390 . S
C1772 C1771 1.387 . S
H1773 C1785 0.930 . S
H1774 C1787 0.930 . S
H1775 C1788 0.930 . S
H1776 C1792 0.959 . S
H1777 C1792 0.959 . S
H1778 C1792 0.961 . S
H1779 C1793 0.960 . S
H1780 C1793 0.961 . S
H1781 C1793 0.959 . S
H1782 C1796 0.929 . S
H1783 C1797 0.931 . S
H1784 C1799 0.930 . S
C1785 H1773 0.930 . S
C1785 C1786 1.399 . S
C1785 C1790 1.399 . S
C1786 C1785 1.399 . S
C1786 C1787 1.376 . S
C1787 H1774 0.930 . S
C1787 C1786 1.376 . S
C1787 C1788 1.388 . S
C1788 H1775 0.930 . S
C1788 C1787 1.388 . S
C1788 C1789 1.390 . S
C1789 C1788 1.390 . S
C1789 C1790 1.394 . S
C1789 C1795 1.465 . S
C1790 C1785 1.399 . S
C1790 C1789 1.394 . S
C1790 C1791 1.516 . S
C1791 C1790 1.516 . S
C1791 C1792 1.502 . S
C1791 C1793 1.561 . S
C1791 C1794 1.526 . S
C1792 H1776 0.959 . S
C1792 H1777 0.959 . S
C1792 H1778 0.961 . S
C1792 C1791 1.502 . S
C1793 H1779 0.960 . S
C1793 H1780 0.961 . S
C1793 H1781 0.959 . S
C1793 C1791 1.561 . S
C1794 C1791 1.526 . S
C1794 C1795 1.396 . S
C1794 C1799 1.390 . S
C1795 C1789 1.465 . S
C1795 C1794 1.396 . S
C1795 C1796 1.399 . S
C1796 H1782 0.929 . S
C1796 C1795 1.399 . S
C1796 C1797 1.385 . S
C1797 H1783 0.931 . S
C1797 C1796 1.385 . S
C1797 C1798 1.389 . S
C1798 C1797 1.389 . S
C1798 C1799 1.387 . S
C1799 H1784 0.930 . S
C1799 C1794 1.390 . S
C1799 C1798 1.387 . S
H1800 C1812 0.930 . S
H1801 C1814 0.930 . S
H1802 C1815 0.930 . S
H1803 C1819 0.959 . S
H1804 C1819 0.959 . S
H1805 C1819 0.961 . S
H1806 C1820 0.955 1_565 S
H1807 C1820 0.961 . S
H1808 C1820 0.959 . S
H1809 C1823 0.929 . S
H1810 C1824 0.931 . S
H1811 C1826 0.930 . S
C1812 H1800 0.930 . S
C1812 C1813 1.399 . S
C1812 C1817 1.399 . S
C1813 C1812 1.399 . S
C1813 C1814 1.376 . S
C1814 H1801 0.930 . S
C1814 C1813 1.376 . S
C1814 C1815 1.388 . S
C1815 H1802 0.930 . S
C1815 C1814 1.388 . S
C1815 C1816 1.390 1_565 S
C1816 C1815 1.390 1_545 S
C1816 C1817 1.394 1_545 S
C1816 C1822 1.465 . S
C1817 C1812 1.399 . S
C1817 C1816 1.394 1_565 S
C1817 C1818 1.516 1_565 S
C1818 C1817 1.516 1_545 S
C1818 C1819 1.502 . S
C1818 C1820 1.561 . S
C1818 C1821 1.526 . S
C1819 H1803 0.959 . S
C1819 H1804 0.959 . S
C1819 H1805 0.961 . S
C1819 C1818 1.502 . S
C1820 H1806 0.955 1_545 S
C1820 H1807 0.961 . S
C1820 H1808 0.959 . S
C1820 C1818 1.561 . S
C1821 C1818 1.526 . S
C1821 C1822 1.396 . S
C1821 C1826 1.390 . S
C1822 C1816 1.465 . S
C1822 C1821 1.396 . S
C1822 C1823 1.399 . S
C1823 H1809 0.929 . S
C1823 C1822 1.399 . S
C1823 C1824 1.385 . S
C1824 H1810 0.931 . S
C1824 C1823 1.385 . S
C1824 C1825 1.389 . S
C1825 C1824 1.389 . S
C1825 C1826 1.387 . S
C1826 H1811 0.930 . S
C1826 C1821 1.390 . S
C1826 C1825 1.387 . S
H1827 C1839 0.930 . S
H1828 C1841 0.930 . S
H1829 C1842 0.930 . S
H1830 C1846 0.959 . S
H1831 C1846 0.959 . S
H1832 C1846 0.961 . S
H1833 C1847 0.960 . S
H1834 C1847 0.961 . S
H1835 C1847 0.959 . S
H1836 C1850 0.929 . S
H1837 C1851 0.931 . S
H1838 C1853 0.930 . S
C1839 H1827 0.930 . S
C1839 C1840 1.399 . S
C1839 C1844 1.399 . S
C1840 C1839 1.399 . S
C1840 C1841 1.376 . S
C1841 H1828 0.930 . S
C1841 C1840 1.376 . S
C1841 C1842 1.388 . S
C1842 H1829 0.930 . S
C1842 C1841 1.388 . S
C1842 C1843 1.390 . S
C1843 C1842 1.390 . S
C1843 C1844 1.394 . S
C1843 C1849 1.465 . S
C1844 C1839 1.399 . S
C1844 C1843 1.394 . S
C1844 C1845 1.516 . S
C1845 C1844 1.516 . S
C1845 C1846 1.502 . S
C1845 C1847 1.561 . S
C1845 C1848 1.526 . S
C1846 H1830 0.959 . S
C1846 H1831 0.959 . S
C1846 H1832 0.961 . S
C1846 C1845 1.502 . S
C1847 H1833 0.960 . S
C1847 H1834 0.961 . S
C1847 H1835 0.959 . S
C1847 C1845 1.561 . S
C1848 C1845 1.526 . S
C1848 C1849 1.396 . S
C1848 C1853 1.390 . S
C1849 C1843 1.465 . S
C1849 C1848 1.396 . S
C1849 C1850 1.399 . S
C1850 H1836 0.929 . S
C1850 C1849 1.399 . S
C1850 C1851 1.385 . S
C1851 H1837 0.931 . S
C1851 C1850 1.385 . S
C1851 C1852 1.389 . S
C1852 C1851 1.389 . S
C1852 C1853 1.387 . S
C1853 H1838 0.930 . S
C1853 C1848 1.390 . S
C1853 C1852 1.387 . S
H1854 C1866 0.930 . S
H1855 C1868 0.930 . S
H1856 C1869 0.930 . S
H1857 C1873 0.959 . S
H1858 C1873 0.959 . S
H1859 C1873 0.961 . S
H1860 C1874 0.960 . S
H1861 C1874 0.961 . S
H1862 C1874 0.959 . S
H1863 C1877 0.929 . S
H1864 C1878 0.931 . S
H1865 C1880 0.930 . S
C1866 H1854 0.930 . S
C1866 C1867 1.399 . S
C1866 C1871 1.399 . S
C1867 C1866 1.399 . S
C1867 C1868 1.376 . S
C1868 H1855 0.930 . S
C1868 C1867 1.376 . S
C1868 C1869 1.388 . S
C1869 H1856 0.930 . S
C1869 C1868 1.388 . S
C1869 C1870 1.390 . S
C1870 C1869 1.390 . S
C1870 C1871 1.394 . S
C1870 C1876 1.465 . S
C1871 C1866 1.399 . S
C1871 C1870 1.394 . S
C1871 C1872 1.516 . S
C1872 C1871 1.516 . S
C1872 C1873 1.502 . S
C1872 C1874 1.561 . S
C1872 C1875 1.526 . S
C1873 H1857 0.959 . S
C1873 H1858 0.959 . S
C1873 H1859 0.961 . S
C1873 C1872 1.502 . S
C1874 H1860 0.960 . S
C1874 H1861 0.961 . S
C1874 H1862 0.959 . S
C1874 C1872 1.561 . S
C1875 C1872 1.526 . S
C1875 C1876 1.396 . S
C1875 C1880 1.390 . S
C1876 C1870 1.465 . S
C1876 C1875 1.396 . S
C1876 C1877 1.399 . S
C1877 H1863 0.929 . S
C1877 C1876 1.399 . S
C1877 C1878 1.385 . S
C1878 H1864 0.931 . S
C1878 C1877 1.385 . S
C1878 C1879 1.389 . S
C1879 C1878 1.389 . S
C1879 C1880 1.387 . S
C1880 H1865 0.930 . S
C1880 C1875 1.390 . S
C1880 C1879 1.387 . S
H1881 C1893 0.930 . S
H1882 C1895 0.930 . S
H1883 C1896 0.930 . S
H1884 C1900 0.959 . S
H1885 C1900 0.959 . S
H1886 C1900 0.961 . S
H1887 C1901 0.960 . S
H1888 C1901 0.961 . S
H1889 C1901 0.959 . S
H1890 C1904 0.929 . S
H1891 C1905 0.931 . S
H1892 C1907 0.930 . S
C1893 H1881 0.930 . S
C1893 C1894 1.399 . S
C1893 C1898 1.399 . S
C1894 C1893 1.399 . S
C1894 C1895 1.376 . S
C1895 H1882 0.930 . S
C1895 C1894 1.376 . S
C1895 C1896 1.388 . S
C1896 H1883 0.930 . S
C1896 C1895 1.388 . S
C1896 C1897 1.390 . S
C1897 C1896 1.390 . S
C1897 C1898 1.394 . S
C1897 C1903 1.465 . S
C1898 C1893 1.399 . S
C1898 C1897 1.394 . S
C1898 C1899 1.516 . S
C1899 C1898 1.516 . S
C1899 C1900 1.502 . S
C1899 C1901 1.561 . S
C1899 C1902 1.526 . S
C1900 H1884 0.959 . S
C1900 H1885 0.959 . S
C1900 H1886 0.961 . S
C1900 C1899 1.502 . S
C1901 H1887 0.960 . S
C1901 H1888 0.961 . S
C1901 H1889 0.959 . S
C1901 C1899 1.561 . S
C1902 C1899 1.526 . S
C1902 C1903 1.396 . S
C1902 C1907 1.390 . S
C1903 C1897 1.465 . S
C1903 C1902 1.396 . S
C1903 C1904 1.399 . S
C1904 H1890 0.929 . S
C1904 C1903 1.399 . S
C1904 C1905 1.385 . S
C1905 H1891 0.931 . S
C1905 C1904 1.385 . S
C1905 C1906 1.389 . S
C1906 C1905 1.389 . S
C1906 C1907 1.387 . S
C1907 H1892 0.930 . S
C1907 C1902 1.390 . S
C1907 C1906 1.387 . S
H1908 C1920 0.930 . S
H1909 C1922 0.930 . S
H1910 C1923 0.930 . S
H1911 C1927 0.959 . S
H1912 C1927 0.959 . S
H1913 C1927 0.961 . S
H1914 C1928 0.960 . S
H1915 C1928 0.961 . S
H1916 C1928 0.959 . S
H1917 C1931 0.929 . S
H1918 C1932 0.931 . S
H1919 C1934 0.930 . S
C1920 H1908 0.930 . S
C1920 C1921 1.399 . S
C1920 C1925 1.399 . S
C1921 C1920 1.399 . S
C1921 C1922 1.376 . S
C1922 H1909 0.930 . S
C1922 C1921 1.376 . S
C1922 C1923 1.388 . S
C1923 H1910 0.930 . S
C1923 C1922 1.388 . S
C1923 C1924 1.390 . S
C1924 C1923 1.390 . S
C1924 C1925 1.394 . S
C1924 C1930 1.465 . S
C1925 C1920 1.399 . S
C1925 C1924 1.394 . S
C1925 C1926 1.516 1_565 S
C1926 C1925 1.516 1_545 S
C1926 C1927 1.502 . S
C1926 C1928 1.561 . S
C1926 C1929 1.526 1_545 S
C1927 H1911 0.959 . S
C1927 H1912 0.959 . S
C1927 H1913 0.961 . S
C1927 C1926 1.502 . S
C1928 H1914 0.960 . S
C1928 H1915 0.961 . S
C1928 H1916 0.959 . S
C1928 C1926 1.561 . S
C1929 C1926 1.526 1_565 S
C1929 C1930 1.396 . S
C1929 C1934 1.390 1_565 S
C1930 C1924 1.465 . S
C1930 C1929 1.396 . S
C1930 C1931 1.399 . S
C1931 H1917 0.929 . S
C1931 C1930 1.399 . S
C1931 C1932 1.385 . S
C1932 H1918 0.931 . S
C1932 C1931 1.385 . S
C1932 C1933 1.389 . S
C1933 C1932 1.389 . S
C1933 C1934 1.387 1_565 S
C1934 H1919 0.930 . S
C1934 C1929 1.390 1_545 S
C1934 C1933 1.387 1_545 S
H1935 C1947 0.930 . S
H1936 C1949 0.930 . S
H1937 C1950 0.930 . S
H1938 C1954 0.959 . S
H1939 C1954 0.959 . S
H1940 C1954 0.961 . S
H1941 C1955 0.960 . S
H1942 C1955 0.961 . S
H1943 C1955 0.959 . S
H1944 C1958 0.929 . S
H1945 C1959 0.931 . S
H1946 C1961 0.930 . S
C1947 H1935 0.930 . S
C1947 C1948 1.399 . S
C1947 C1952 1.399 . S
C1948 C1947 1.399 . S
C1948 C1949 1.376 . S
C1949 H1936 0.930 . S
C1949 C1948 1.376 . S
C1949 C1950 1.388 . S
C1950 H1937 0.930 . S
C1950 C1949 1.388 . S
C1950 C1951 1.390 . S
C1951 C1950 1.390 . S
C1951 C1952 1.394 . S
C1951 C1957 1.465 . S
C1952 C1947 1.399 . S
C1952 C1951 1.394 . S
C1952 C1953 1.516 . S
C1953 C1952 1.516 . S
C1953 C1954 1.502 1_455 S
C1953 C1955 1.561 . S
C1953 C1956 1.526 . S
C1954 H1938 0.959 . S
C1954 H1939 0.959 . S
C1954 H1940 0.961 . S
C1954 C1953 1.502 1_655 S
C1955 H1941 0.960 . S
C1955 H1942 0.961 . S
C1955 H1943 0.959 . S
C1955 C1953 1.561 . S
C1956 C1953 1.526 . S
C1956 C1957 1.396 . S
C1956 C1961 1.390 . S
C1957 C1951 1.465 . S
C1957 C1956 1.396 . S
C1957 C1958 1.399 . S
C1958 H1944 0.929 . S
C1958 C1957 1.399 . S
C1958 C1959 1.385 . S
C1959 H1945 0.931 . S
C1959 C1958 1.385 . S
C1959 C1960 1.389 . S
C1960 C1959 1.389 . S
C1960 C1961 1.387 . S
C1961 H1946 0.930 . S
C1961 C1956 1.390 . S
C1961 C1960 1.387 . S
H1962 C1974 0.930 . S
H1963 C1976 0.930 . S
H1964 C1977 0.930 . S
H1965 C1981 0.959 . S
H1966 C1981 0.959 . S
H1967 C1981 0.961 . S
H1968 C1982 0.960 . S
H1969 C1982 0.961 . S
H1970 C1982 0.959 . S
H1971 C1985 0.929 . S
H1972 C1986 0.931 . S
H1973 C1988 0.930 . S
C1974 H1962 0.930 . S
C1974 C1975 1.399 . S
C1974 C1979 1.399 . S
C1975 C1974 1.399 . S
C1975 C1976 1.376 . S
C1976 H1963 0.930 . S
C1976 C1975 1.376 . S
C1976 C1977 1.388 . S
C1977 H1964 0.930 . S
C1977 C1976 1.388 . S
C1977 C1978 1.390 . S
C1978 C1977 1.390 . S
C1978 C1979 1.394 . S
C1978 C1984 1.465 . S
C1979 C1974 1.399 . S
C1979 C1978 1.394 . S
C1979 C1980 1.516 . S
C1980 C1979 1.516 . S
C1980 C1981 1.502 . S
C1980 C1982 1.561 . S
C1980 C1983 1.526 . S
C1981 H1965 0.959 . S
C1981 H1966 0.959 . S
C1981 H1967 0.961 . S
C1981 C1980 1.502 . S
C1982 H1968 0.960 . S
C1982 H1969 0.961 . S
C1982 H1970 0.959 . S
C1982 C1980 1.561 . S
C1983 C1980 1.526 . S
C1983 C1984 1.396 . S
C1983 C1988 1.390 . S
C1984 C1978 1.465 . S
C1984 C1983 1.396 . S
C1984 C1985 1.399 . S
C1985 H1971 0.929 . S
C1985 C1984 1.399 . S
C1985 C1986 1.385 . S
C1986 H1972 0.931 . S
C1986 C1985 1.385 . S
C1986 C1987 1.389 . S
C1987 C1986 1.389 . S
C1987 C1988 1.387 . S
C1988 H1973 0.930 . S
C1988 C1983 1.390 . S
C1988 C1987 1.387 . S
H1989 C2001 0.924 1_455 S
H1990 C2003 0.930 . S
H1991 C2004 0.930 . S
H1992 C2008 0.959 . S
H1993 C2008 0.959 . S
H1994 C2008 0.961 . S
H1995 C2009 0.960 . S
H1996 C2009 0.961 . S
H1997 C2009 0.959 1_655 S
H1998 C2012 0.929 . S
H1999 C2013 0.931 . S
H2000 C2015 0.930 1_455 S
C2001 H1989 0.924 1_655 S
C2001 C2002 1.402 . S
C2001 C2006 1.401 . S
C2002 C2001 1.402 . S
C2002 C2003 1.376 . S
C2003 H1990 0.930 . S
C2003 C2002 1.376 . S
C2003 C2004 1.388 . S
C2004 H1991 0.930 . S
C2004 C2003 1.388 . S
C2004 C2005 1.390 . S
C2005 C2004 1.390 . S
C2005 C2006 1.394 . S
C2005 C2011 1.465 . S
C2006 C2001 1.401 . S
C2006 C2005 1.394 . S
C2006 C2007 1.516 1_655 S
C2007 C2006 1.516 1_455 S
C2007 C2008 1.502 . S
C2007 C2009 1.561 . S
C2007 C2010 1.526 1_455 S
C2008 H1992 0.959 . S
C2008 H1993 0.959 . S
C2008 H1994 0.961 . S
C2008 C2007 1.502 . S
C2009 H1995 0.960 . S
C2009 H1996 0.961 . S
C2009 H1997 0.959 1_455 S
C2009 C2007 1.561 . S
C2010 C2007 1.526 1_655 S
C2010 C2011 1.396 . S
C2010 C2015 1.390 . S
C2011 C2005 1.465 . S
C2011 C2010 1.396 . S
C2011 C2012 1.399 . S
C2012 H1998 0.929 . S
C2012 C2011 1.399 . S
C2012 C2013 1.385 . S
C2013 H1999 0.931 . S
C2013 C2012 1.385 . S
C2013 C2014 1.389 . S
C2014 C2013 1.389 . S
C2014 C2015 1.387 . S
C2015 H2000 0.930 1_655 S
C2015 C2010 1.390 . S
C2015 C2014 1.387 . S
H2016 C2028 0.930 . S
H2017 C2030 0.930 . S
H2018 C2031 0.930 . S
H2019 C2035 0.959 . S
H2020 C2035 0.959 . S
H2021 C2035 0.961 . S
H2022 C2036 0.960 . S
H2023 C2036 0.961 . S
H2024 C2036 0.959 . S
H2025 C2039 0.929 . S
H2026 C2040 0.931 . S
H2027 C2042 0.930 . S
C2028 H2016 0.930 . S
C2028 C2029 1.399 . S
C2028 C2033 1.399 . S
C2029 C2028 1.399 . S
C2029 C2030 1.376 . S
C2030 H2017 0.930 . S
C2030 C2029 1.376 . S
C2030 C2031 1.388 . S
C2031 H2018 0.930 . S
C2031 C2030 1.388 . S
C2031 C2032 1.390 . S
C2032 C2031 1.390 . S
C2032 C2033 1.394 . S
C2032 C2038 1.465 . S
C2033 C2028 1.399 . S
C2033 C2032 1.394 . S
C2033 C2034 1.516 . S
C2034 C2033 1.516 . S
C2034 C2035 1.502 . S
C2034 C2036 1.561 . S
C2034 C2037 1.526 . S
C2035 H2019 0.959 . S
C2035 H2020 0.959 . S
C2035 H2021 0.961 . S
C2035 C2034 1.502 . S
C2036 H2022 0.960 . S
C2036 H2023 0.961 . S
C2036 H2024 0.959 . S
C2036 C2034 1.561 . S
C2037 C2034 1.526 . S
C2037 C2038 1.396 . S
C2037 C2042 1.390 . S
C2038 C2032 1.465 . S
C2038 C2037 1.396 . S
C2038 C2039 1.399 . S
C2039 H2025 0.929 . S
C2039 C2038 1.399 . S
C2039 C2040 1.385 . S
C2040 H2026 0.931 . S
C2040 C2039 1.385 . S
C2040 C2041 1.389 . S
C2041 C2040 1.389 . S
C2041 C2042 1.387 . S
C2042 H2027 0.930 . S
C2042 C2037 1.390 . S
C2042 C2041 1.387 . S
H2043 C2055 0.930 . S
H2044 C2057 0.930 . S
H2045 C2058 0.930 . S
H2046 C2062 0.959 . S
H2047 C2062 0.959 . S
H2048 C2062 0.961 . S
H2049 C2063 0.960 . S
H2050 C2063 0.961 . S
H2051 C2063 0.959 . S
H2052 C2066 0.929 1_565 S
H2053 C2067 0.931 . S
H2054 C2069 0.930 . S
C2055 H2043 0.930 . S
C2055 C2056 1.399 . S
C2055 C2060 1.399 . S
C2056 C2055 1.399 . S
C2056 C2057 1.376 . S
C2057 H2044 0.930 . S
C2057 C2056 1.376 . S
C2057 C2058 1.388 . S
C2058 H2045 0.930 . S
C2058 C2057 1.388 . S
C2058 C2059 1.390 . S
C2059 C2058 1.390 . S
C2059 C2060 1.394 . S
C2059 C2065 1.465 . S
C2060 C2055 1.399 . S
C2060 C2059 1.394 . S
C2060 C2061 1.516 . S
C2061 C2060 1.516 . S
C2061 C2062 1.502 . S
C2061 C2063 1.561 . S
C2061 C2064 1.526 . S
C2062 H2046 0.959 . S
C2062 H2047 0.959 . S
C2062 H2048 0.961 . S
C2062 C2061 1.502 . S
C2063 H2049 0.960 . S
C2063 H2050 0.961 . S
C2063 H2051 0.959 . S
C2063 C2061 1.561 . S
C2064 C2061 1.526 . S
C2064 C2065 1.396 . S
C2064 C2069 1.390 . S
C2065 C2059 1.465 . S
C2065 C2064 1.396 . S
C2065 C2066 1.399 . S
C2066 H2052 0.929 1_545 S
C2066 C2065 1.399 . S
C2066 C2067 1.385 1_545 S
C2067 H2053 0.931 . S
C2067 C2066 1.385 1_565 S
C2067 C2068 1.389 1_565 S
C2068 C2067 1.389 1_545 S
C2068 C2069 1.387 . S
C2069 H2054 0.930 . S
C2069 C2064 1.390 . S
C2069 C2068 1.387 . S
H2070 C2082 0.930 . S
H2071 C2084 0.930 . S
H2072 C2085 0.930 . S
H2073 C2089 0.959 . S
H2074 C2089 0.959 . S
H2075 C2089 0.961 . S
H2076 C2090 0.960 . S
H2077 C2090 0.961 . S
H2078 C2090 0.959 . S
H2079 C2093 0.929 . S
H2080 C2094 0.931 . S
H2081 C2096 0.930 . S
C2082 H2070 0.930 . S
C2082 C2083 1.399 . S
C2082 C2087 1.399 . S
C2083 C2082 1.399 . S
C2083 C2084 1.376 . S
C2084 H2071 0.930 . S
C2084 C2083 1.376 . S
C2084 C2085 1.388 . S
C2085 H2072 0.930 . S
C2085 C2084 1.388 . S
C2085 C2086 1.390 . S
C2086 C2085 1.390 . S
C2086 C2087 1.394 . S
C2086 C2092 1.465 . S
C2087 C2082 1.399 . S
C2087 C2086 1.394 . S
C2087 C2088 1.516 . S
C2088 C2087 1.516 . S
C2088 C2089 1.502 . S
C2088 C2090 1.561 . S
C2088 C2091 1.526 . S
C2089 H2073 0.959 . S
C2089 H2074 0.959 . S
C2089 H2075 0.961 . S
C2089 C2088 1.502 . S
C2090 H2076 0.960 . S
C2090 H2077 0.961 . S
C2090 H2078 0.959 . S
C2090 C2088 1.561 . S
C2091 C2088 1.526 . S
C2091 C2092 1.396 . S
C2091 C2096 1.390 . S
C2092 C2086 1.465 . S
C2092 C2091 1.396 . S
C2092 C2093 1.399 . S
C2093 H2079 0.929 . S
C2093 C2092 1.399 . S
C2093 C2094 1.385 . S
C2094 H2080 0.931 . S
C2094 C2093 1.385 . S
C2094 C2095 1.389 . S
C2095 C2094 1.389 . S
C2095 C2096 1.387 . S
C2096 H2081 0.930 . S
C2096 C2091 1.390 . S
C2096 C2095 1.387 . S
H2097 C2109 0.930 . S
H2098 C2111 0.930 . S
H2099 C2112 0.930 . S
H2100 C2116 0.959 . S
H2101 C2116 0.959 . S
H2102 C2116 0.961 . S
H2103 C2117 0.960 . S
H2104 C2117 0.961 . S
H2105 C2117 0.959 . S
H2106 C2120 0.929 . S
H2107 C2121 0.931 . S
H2108 C2123 0.930 . S
C2109 H2097 0.930 . S
C2109 C2110 1.399 . S
C2109 C2114 1.399 . S
C2110 C2109 1.399 . S
C2110 C2111 1.376 . S
C2111 H2098 0.930 . S
C2111 C2110 1.376 . S
C2111 C2112 1.388 . S
C2112 H2099 0.930 . S
C2112 C2111 1.388 . S
C2112 C2113 1.390 . S
C2113 C2112 1.390 . S
C2113 C2114 1.394 . S
C2113 C2119 1.465 . S
C2114 C2109 1.399 . S
C2114 C2113 1.394 . S
C2114 C2115 1.516 . S
C2115 C2114 1.516 . S
C2115 C2116 1.502 . S
C2115 C2117 1.561 . S
C2115 C2118 1.526 . S
C2116 H2100 0.959 . S
C2116 H2101 0.959 . S
C2116 H2102 0.961 . S
C2116 C2115 1.502 . S
C2117 H2103 0.960 . S
C2117 H2104 0.961 . S
C2117 H2105 0.959 . S
C2117 C2115 1.561 . S
C2118 C2115 1.526 . S
C2118 C2119 1.396 . S
C2118 C2123 1.390 . S
C2119 C2113 1.465 . S
C2119 C2118 1.396 . S
C2119 C2120 1.399 . S
C2120 H2106 0.929 . S
C2120 C2119 1.399 . S
C2120 C2121 1.385 . S
C2121 H2107 0.931 . S
C2121 C2120 1.385 . S
C2121 C2122 1.389 . S
C2122 C2121 1.389 . S
C2122 C2123 1.387 . S
C2123 H2108 0.930 . S
C2123 C2118 1.390 . S
C2123 C2122 1.387 . S
H2124 C2136 0.930 . S
H2125 C2138 0.930 . S
H2126 C2139 0.930 . S
H2127 C2143 0.959 . S
H2128 C2143 0.959 . S
H2129 C2143 0.961 . S
H2130 C2144 0.960 . S
H2131 C2144 0.961 . S
H2132 C2144 0.959 . S
H2133 C2147 0.929 . S
H2134 C2148 0.931 . S
H2135 C2150 0.930 . S
C2136 H2124 0.930 . S
C2136 C2137 1.399 . S
C2136 C2141 1.399 . S
C2137 C2136 1.399 . S
C2137 C2138 1.376 . S
C2138 H2125 0.930 . S
C2138 C2137 1.376 . S
C2138 C2139 1.388 . S
C2139 H2126 0.930 . S
C2139 C2138 1.388 . S
C2139 C2140 1.390 . S
C2140 C2139 1.390 . S
C2140 C2141 1.394 . S
C2140 C2146 1.465 . S
C2141 C2136 1.399 . S
C2141 C2140 1.394 . S
C2141 C2142 1.516 . S
C2142 C2141 1.516 . S
C2142 C2143 1.502 . S
C2142 C2144 1.561 . S
C2142 C2145 1.526 . S
C2143 H2127 0.959 . S
C2143 H2128 0.959 . S
C2143 H2129 0.961 . S
C2143 C2142 1.502 . S
C2144 H2130 0.960 . S
C2144 H2131 0.961 . S
C2144 H2132 0.959 . S
C2144 C2142 1.561 . S
C2145 C2142 1.526 . S
C2145 C2146 1.396 . S
C2145 C2150 1.390 . S
C2146 C2140 1.465 . S
C2146 C2145 1.396 . S
C2146 C2147 1.399 . S
C2147 H2133 0.929 . S
C2147 C2146 1.399 . S
C2147 C2148 1.385 . S
C2148 H2134 0.931 . S
C2148 C2147 1.385 . S
C2148 C2149 1.389 . S
C2149 C2148 1.389 . S
C2149 C2150 1.387 . S
C2150 H2135 0.930 . S
C2150 C2145 1.390 . S
C2150 C2149 1.387 . S
H2151 C2163 0.930 . S
H2152 C2165 0.930 . S
H2153 C2166 0.930 . S
H2154 C2170 0.959 . S
H2155 C2170 0.959 . S
H2156 C2170 0.961 . S
H2157 C2171 0.960 . S
H2158 C2171 0.961 . S
H2159 C2171 0.959 . S
H2160 C2174 0.929 . S
H2161 C2175 0.931 . S
H2162 C2177 0.930 . S
C2163 H2151 0.930 . S
C2163 C2164 1.399 . S
C2163 C2168 1.399 . S
C2164 C2163 1.399 . S
C2164 C2165 1.376 . S
C2165 H2152 0.930 . S
C2165 C2164 1.376 . S
C2165 C2166 1.388 . S
C2166 H2153 0.930 . S
C2166 C2165 1.388 . S
C2166 C2167 1.390 . S
C2167 C2166 1.390 . S
C2167 C2168 1.394 . S
C2167 C2173 1.465 . S
C2168 C2163 1.399 . S
C2168 C2167 1.394 . S
C2168 C2169 1.516 . S
C2169 C2168 1.516 . S
C2169 C2170 1.502 . S
C2169 C2171 1.561 . S
C2169 C2172 1.526 . S
C2170 H2154 0.959 . S
C2170 H2155 0.959 . S
C2170 H2156 0.961 . S
C2170 C2169 1.502 . S
C2171 H2157 0.960 . S
C2171 H2158 0.961 . S
C2171 H2159 0.959 . S
C2171 C2169 1.561 . S
C2172 C2169 1.526 . S
C2172 C2173 1.396 . S
C2172 C2177 1.390 . S
C2173 C2167 1.465 . S
C2173 C2172 1.396 . S
C2173 C2174 1.399 . S
C2174 H2160 0.929 . S
C2174 C2173 1.399 . S
C2174 C2175 1.385 . S
C2175 H2161 0.931 . S
C2175 C2174 1.385 . S
C2175 C2176 1.389 . S
C2176 C2175 1.389 . S
C2176 C2177 1.387 . S
C2177 H2162 0.930 . S
C2177 C2172 1.390 . S
C2177 C2176 1.387 . S
H2178 C2190 0.930 . S
H2179 C2192 0.930 . S
H2180 C2193 0.930 . S
H2181 C2197 0.959 . S
H2182 C2197 0.959 . S
H2183 C2197 0.961 . S
H2184 C2198 0.960 . S
H2185 C2198 0.961 . S
H2186 C2198 0.959 . S
H2187 C2201 0.929 . S
H2188 C2202 0.931 . S
H2189 C2204 0.930 . S
C2190 H2178 0.930 . S
C2190 C2191 1.399 . S
C2190 C2195 1.399 . S
C2191 C2190 1.399 . S
C2191 C2192 1.376 . S
C2192 H2179 0.930 . S
C2192 C2191 1.376 . S
C2192 C2193 1.388 . S
C2193 H2180 0.930 . S
C2193 C2192 1.388 . S
C2193 C2194 1.390 . S
C2194 C2193 1.390 . S
C2194 C2195 1.394 . S
C2194 C2200 1.465 . S
C2195 C2190 1.399 . S
C2195 C2194 1.394 . S
C2195 C2196 1.516 . S
C2196 C2195 1.516 . S
C2196 C2197 1.502 . S
C2196 C2198 1.561 . S
C2196 C2199 1.526 . S
C2197 H2181 0.959 . S
C2197 H2182 0.959 . S
C2197 H2183 0.961 . S
C2197 C2196 1.502 . S
C2198 H2184 0.960 . S
C2198 H2185 0.961 . S
C2198 H2186 0.959 . S
C2198 C2196 1.561 . S
C2199 C2196 1.526 . S
C2199 C2200 1.396 . S
C2199 C2204 1.390 . S
C2200 C2194 1.465 . S
C2200 C2199 1.396 . S
C2200 C2201 1.399 . S
C2201 H2187 0.929 . S
C2201 C2200 1.399 . S
C2201 C2202 1.385 . S
C2202 H2188 0.931 . S
C2202 C2201 1.385 . S
C2202 C2203 1.389 . S
C2203 C2202 1.389 . S
C2203 C2204 1.387 . S
C2204 H2189 0.930 . S
C2204 C2199 1.390 . S
C2204 C2203 1.387 . S
H2205 C2217 0.930 . S
H2206 C2219 0.930 . S
H2207 C2220 0.930 . S
H2208 C2224 0.959 . S
H2209 C2224 0.959 . S
H2210 C2224 0.961 . S
H2211 C2225 0.960 . S
H2212 C2225 0.961 . S
H2213 C2225 0.959 . S
H2214 C2228 0.929 . S
H2215 C2229 0.931 . S
H2216 C2231 0.930 . S
C2217 H2205 0.930 . S
C2217 C2218 1.399 . S
C2217 C2222 1.399 . S
C2218 C2217 1.399 . S
C2218 C2219 1.376 . S
C2219 H2206 0.930 . S
C2219 C2218 1.376 . S
C2219 C2220 1.388 . S
C2220 H2207 0.930 . S
C2220 C2219 1.388 . S
C2220 C2221 1.390 . S
C2221 C2220 1.390 . S
C2221 C2222 1.394 . S
C2221 C2227 1.465 . S
C2222 C2217 1.399 . S
C2222 C2221 1.394 . S
C2222 C2223 1.516 . S
C2223 C2222 1.516 . S
C2223 C2224 1.502 . S
C2223 C2225 1.561 . S
C2223 C2226 1.526 . S
C2224 H2208 0.959 . S
C2224 H2209 0.959 . S
C2224 H2210 0.961 . S
C2224 C2223 1.502 . S
C2225 H2211 0.960 . S
C2225 H2212 0.961 . S
C2225 H2213 0.959 . S
C2225 C2223 1.561 . S
C2226 C2223 1.526 . S
C2226 C2227 1.396 . S
C2226 C2231 1.390 . S
C2227 C2221 1.465 . S
C2227 C2226 1.396 . S
C2227 C2228 1.399 . S
C2228 H2214 0.929 . S
C2228 C2227 1.399 . S
C2228 C2229 1.385 . S
C2229 H2215 0.931 . S
C2229 C2228 1.385 . S
C2229 C2230 1.389 . S
C2230 C2229 1.389 . S
C2230 C2231 1.387 . S
C2231 H2216 0.930 . S
C2231 C2226 1.390 . S
C2231 C2230 1.387 . S
H2232 C2244 0.930 . S
H2233 C2246 0.930 . S
H2234 C2247 0.930 . S
H2235 C2251 0.959 . S
H2236 C2251 0.959 . S
H2237 C2251 0.961 . S
H2238 C2252 0.960 . S
H2239 C2252 0.961 . S
H2240 C2252 0.959 . S
H2241 C2255 0.929 . S
H2242 C2256 0.931 . S
H2243 C2258 0.930 . S
C2244 H2232 0.930 . S
C2244 C2245 1.399 . S
C2244 C2249 1.399 . S
C2245 C2244 1.399 . S
C2245 C2246 1.376 . S
C2246 H2233 0.930 . S
C2246 C2245 1.376 . S
C2246 C2247 1.388 . S
C2247 H2234 0.930 . S
C2247 C2246 1.388 . S
C2247 C2248 1.390 . S
C2248 C2247 1.390 . S
C2248 C2249 1.394 . S
C2248 C2254 1.465 . S
C2249 C2244 1.399 . S
C2249 C2248 1.394 . S
C2249 C2250 1.516 . S
C2250 C2249 1.516 . S
C2250 C2251 1.502 . S
C2250 C2252 1.561 . S
C2250 C2253 1.526 . S
C2251 H2235 0.959 . S
C2251 H2236 0.959 . S
C2251 H2237 0.961 . S
C2251 C2250 1.502 . S
C2252 H2238 0.960 . S
C2252 H2239 0.961 . S
C2252 H2240 0.959 . S
C2252 C2250 1.561 . S
C2253 C2250 1.526 . S
C2253 C2254 1.396 . S
C2253 C2258 1.390 . S
C2254 C2248 1.465 . S
C2254 C2253 1.396 . S
C2254 C2255 1.399 . S
C2255 H2241 0.929 . S
C2255 C2254 1.399 . S
C2255 C2256 1.385 . S
C2256 H2242 0.931 . S
C2256 C2255 1.385 . S
C2256 C2257 1.389 . S
C2257 C2256 1.389 . S
C2257 C2258 1.387 . S
C2258 H2243 0.930 . S
C2258 C2253 1.390 . S
C2258 C2257 1.387 . S
H2259 C2271 0.930 . S
H2260 C2273 0.930 . S
H2261 C2274 0.930 . S
H2262 C2278 0.959 . S
H2263 C2278 0.959 . S
H2264 C2278 0.961 . S
H2265 C2279 0.960 . S
H2266 C2279 0.961 . S
H2267 C2279 0.959 . S
H2268 C2282 0.929 . S
H2269 C2283 0.931 . S
H2270 C2285 0.930 . S
C2271 H2259 0.930 . S
C2271 C2272 1.399 . S
C2271 C2276 1.399 . S
C2272 C2271 1.399 . S
C2272 C2273 1.376 . S
C2273 H2260 0.930 . S
C2273 C2272 1.376 . S
C2273 C2274 1.388 . S
C2274 H2261 0.930 . S
C2274 C2273 1.388 . S
C2274 C2275 1.390 . S
C2275 C2274 1.390 . S
C2275 C2276 1.394 . S
C2275 C2281 1.465 . S
C2276 C2271 1.399 . S
C2276 C2275 1.394 . S
C2276 C2277 1.516 . S
C2277 C2276 1.516 . S
C2277 C2278 1.502 . S
C2277 C2279 1.561 . S
C2277 C2280 1.526 . S
C2278 H2262 0.959 . S
C2278 H2263 0.959 . S
C2278 H2264 0.961 . S
C2278 C2277 1.502 . S
C2279 H2265 0.960 . S
C2279 H2266 0.961 . S
C2279 H2267 0.959 . S
C2279 C2277 1.561 . S
C2280 C2277 1.526 . S
C2280 C2281 1.396 . S
C2280 C2285 1.390 . S
C2281 C2275 1.465 . S
C2281 C2280 1.396 . S
C2281 C2282 1.399 . S
C2282 H2268 0.929 . S
C2282 C2281 1.399 . S
C2282 C2283 1.385 . S
C2283 H2269 0.931 . S
C2283 C2282 1.385 . S
C2283 C2284 1.389 . S
C2284 C2283 1.389 . S
C2284 C2285 1.387 . S
C2285 H2270 0.930 . S
C2285 C2280 1.390 . S
C2285 C2284 1.387 . S
H2286 C2298 0.930 . S
H2287 C2300 0.930 . S
H2288 C2301 0.930 . S
H2289 C2305 0.959 . S
H2290 C2305 0.959 . S
H2291 C2305 0.961 . S
H2292 C2306 0.960 . S
H2293 C2306 0.961 . S
H2294 C2306 0.959 . S
H2295 C2309 0.929 . S
H2296 C2310 0.931 . S
H2297 C2312 0.930 . S
C2298 H2286 0.930 . S
C2298 C2299 1.399 . S
C2298 C2303 1.399 . S
C2299 C2298 1.399 . S
C2299 C2300 1.376 . S
C2300 H2287 0.930 . S
C2300 C2299 1.376 . S
C2300 C2301 1.388 . S
C2301 H2288 0.930 . S
C2301 C2300 1.388 . S
C2301 C2302 1.390 . S
C2302 C2301 1.390 . S
C2302 C2303 1.394 . S
C2302 C2308 1.465 . S
C2303 C2298 1.399 . S
C2303 C2302 1.394 . S
C2303 C2304 1.516 . S
C2304 C2303 1.516 . S
C2304 C2305 1.502 . S
C2304 C2306 1.561 . S
C2304 C2307 1.526 . S
C2305 H2289 0.959 . S
C2305 H2290 0.959 . S
C2305 H2291 0.961 . S
C2305 C2304 1.502 . S
C2306 H2292 0.960 . S
C2306 H2293 0.961 . S
C2306 H2294 0.959 . S
C2306 C2304 1.561 . S
C2307 C2304 1.526 . S
C2307 C2308 1.396 . S
C2307 C2312 1.390 . S
C2308 C2302 1.465 . S
C2308 C2307 1.396 . S
C2308 C2309 1.399 . S
C2309 H2295 0.929 . S
C2309 C2308 1.399 . S
C2309 C2310 1.385 . S
C2310 H2296 0.931 . S
C2310 C2309 1.385 . S
C2310 C2311 1.389 . S
C2311 C2310 1.389 . S
C2311 C2312 1.387 . S
C2312 H2297 0.930 . S
C2312 C2307 1.390 . S
C2312 C2311 1.387 . S
H2313 C2325 0.930 . S
H2314 C2327 0.930 . S
H2315 C2328 0.930 . S
H2316 C2332 0.959 . S
H2317 C2332 0.959 . S
H2318 C2332 0.961 . S
H2319 C2333 0.960 . S
H2320 C2333 0.961 . S
H2321 C2333 0.959 . S
H2322 C2336 0.929 . S
H2323 C2337 0.931 . S
H2324 C2339 0.930 . S
C2325 H2313 0.930 . S
C2325 C2326 1.399 . S
C2325 C2330 1.399 . S
C2326 C2325 1.399 . S
C2326 C2327 1.376 . S
C2327 H2314 0.930 . S
C2327 C2326 1.376 . S
C2327 C2328 1.388 . S
C2328 H2315 0.930 . S
C2328 C2327 1.388 . S
C2328 C2329 1.390 . S
C2329 C2328 1.390 . S
C2329 C2330 1.394 . S
C2329 C2335 1.465 . S
C2330 C2325 1.399 . S
C2330 C2329 1.394 . S
C2330 C2331 1.516 . S
C2331 C2330 1.516 . S
C2331 C2332 1.502 . S
C2331 C2333 1.561 . S
C2331 C2334 1.526 . S
C2332 H2316 0.959 . S
C2332 H2317 0.959 . S
C2332 H2318 0.961 . S
C2332 C2331 1.502 . S
C2333 H2319 0.960 . S
C2333 H2320 0.961 . S
C2333 H2321 0.959 . S
C2333 C2331 1.561 . S
C2334 C2331 1.526 . S
C2334 C2335 1.396 . S
C2334 C2339 1.390 . S
C2335 C2329 1.465 . S
C2335 C2334 1.396 . S
C2335 C2336 1.399 . S
C2336 H2322 0.929 . S
C2336 C2335 1.399 . S
C2336 C2337 1.385 . S
C2337 H2323 0.931 . S
C2337 C2336 1.385 . S
C2337 C2338 1.389 . S
C2338 C2337 1.389 . S
C2338 C2339 1.387 . S
C2339 H2324 0.930 . S
C2339 C2334 1.390 . S
C2339 C2338 1.387 . S
H2340 C2352 0.930 . S
H2341 C2354 0.930 . S
H2342 C2355 0.930 . S
H2343 C2359 0.959 . S
H2344 C2359 0.959 . S
H2345 C2359 0.961 . S
H2346 C2360 0.960 . S
H2347 C2360 0.961 . S
H2348 C2360 0.959 . S
H2349 C2363 0.929 . S
H2350 C2364 0.931 . S
H2351 C2366 0.930 . S
C2352 H2340 0.930 . S
C2352 C2353 1.399 . S
C2352 C2357 1.399 . S
C2353 C2352 1.399 . S
C2353 C2354 1.376 . S
C2354 H2341 0.930 . S
C2354 C2353 1.376 . S
C2354 C2355 1.388 . S
C2355 H2342 0.930 . S
C2355 C2354 1.388 . S
C2355 C2356 1.390 . S
C2356 C2355 1.390 . S
C2356 C2357 1.394 . S
C2356 C2362 1.465 . S
C2357 C2352 1.399 . S
C2357 C2356 1.394 . S
C2357 C2358 1.516 . S
C2358 C2357 1.516 . S
C2358 C2359 1.502 . S
C2358 C2360 1.561 . S
C2358 C2361 1.526 . S
C2359 H2343 0.959 . S
C2359 H2344 0.959 . S
C2359 H2345 0.961 . S
C2359 C2358 1.502 . S
C2360 H2346 0.960 . S
C2360 H2347 0.961 . S
C2360 H2348 0.959 . S
C2360 C2358 1.561 . S
C2361 C2358 1.526 . S
C2361 C2362 1.396 . S
C2361 C2366 1.390 . S
C2362 C2356 1.465 . S
C2362 C2361 1.396 . S
C2362 C2363 1.399 . S
C2363 H2349 0.929 . S
C2363 C2362 1.399 . S
C2363 C2364 1.385 . S
C2364 H2350 0.931 . S
C2364 C2363 1.385 . S
C2364 C2365 1.389 . S
C2365 C2364 1.389 . S
C2365 C2366 1.387 . S
C2366 H2351 0.930 . S
C2366 C2361 1.390 . S
C2366 C2365 1.387 . S
H2367 C2379 0.930 . S
H2368 C2381 0.930 . S
H2369 C2382 0.930 . S
H2370 C2386 0.959 . S
H2371 C2386 0.959 . S
H2372 C2386 0.961 . S
H2373 C2387 0.960 . S
H2374 C2387 0.961 . S
H2375 C2387 0.959 . S
H2376 C2390 0.929 . S
H2377 C2391 0.931 . S
H2378 C2393 0.930 . S
C2379 H2367 0.930 . S
C2379 C2380 1.399 . S
C2379 C2384 1.399 . S
C2380 C2379 1.399 . S
C2380 C2381 1.376 . S
C2381 H2368 0.930 . S
C2381 C2380 1.376 . S
C2381 C2382 1.388 . S
C2382 H2369 0.930 . S
C2382 C2381 1.388 . S
C2382 C2383 1.390 . S
C2383 C2382 1.390 . S
C2383 C2384 1.394 . S
C2383 C2389 1.465 . S
C2384 C2379 1.399 . S
C2384 C2383 1.394 . S
C2384 C2385 1.516 . S
C2385 C2384 1.516 . S
C2385 C2386 1.502 . S
C2385 C2387 1.561 . S
C2385 C2388 1.526 . S
C2386 H2370 0.959 . S
C2386 H2371 0.959 . S
C2386 H2372 0.961 . S
C2386 C2385 1.502 . S
C2387 H2373 0.960 . S
C2387 H2374 0.961 . S
C2387 H2375 0.959 . S
C2387 C2385 1.561 . S
C2388 C2385 1.526 . S
C2388 C2389 1.396 . S
C2388 C2393 1.390 . S
C2389 C2383 1.465 . S
C2389 C2388 1.396 . S
C2389 C2390 1.399 . S
C2390 H2376 0.929 . S
C2390 C2389 1.399 . S
C2390 C2391 1.385 . S
C2391 H2377 0.931 . S
C2391 C2390 1.385 . S
C2391 C2392 1.389 . S
C2392 C2391 1.389 . S
C2392 C2393 1.387 . S
C2393 H2378 0.930 . S
C2393 C2388 1.390 . S
C2393 C2392 1.387 . S
C949 C439 1.455 . S
C961 C585 1.602 . S
C976 C465 1.797 . S
C988 C625 1.781 . S
C1003 C401 1.700 . S
C1015 C664 1.691 . S
C1030 C369 1.555 . S
C1042 C624 1.480 . S
C1069 C665 1.456 . S
C1057 C305 1.485 . S
C1084 C343 1.212 . S
C1096 C584 1.348 1_556 S
C1123 C595 1.581 . S
C1111 C375 1.659 . S
C1150 C635 1.741 . S
C1138 C311 1.760 . S
C1165 C337 1.533 . S
C1177 C674 1.687 . S
C1192 C433 1.411 . S
C1204 C634 1.506 . S
C1219 C471 1.454 . S
C1231 C675 1.419 . S
C1258 C594 1.435 . S
C1246 C407 1.424 . S
C1285 C705 1.555 . S
C1273 C55 1.550 . S
C1300 C81 1.787 . S
C1312 C745 1.739 . S
C1327 C17 1.714 . S
C1339 C784 1.637 . S
C1354 C561 1.551 . S
C1366 C744 1.543 . S
C1381 C497 1.514 . S
C1393 C785 1.501 . S
C1408 C535 1.253 . S
C1420 C704 1.341 . S
C1435 C567 1.659 . S
C1447 C715 1.629 . S
C1462 C503 1.761 . S
C1474 C755 1.746 . S
C1501 C794 1.686 . S
C1489 C529 1.533 . S
C1516 C49 1.500 . S
C1528 C754 1.490 . S
C1555 C795 1.451 . S
C1543 C87 1.452 . S
C1570 C23 1.426 . S
C1582 C714 1.435 . S
C1609 C825 1.551 . S
C1597 C247 1.530 . S
C1624 C273 1.796 . S
C1636 C865 1.781 . S
C1663 C904 1.694 . S
C1651 C209 1.707 . S
C1690 C864 1.544 . S
C1678 C177 1.551 . S
C1717 C905 1.461 . S
C1705 C113 1.503 . S
C1732 C151 1.282 . S
C1744 C824 1.342 . S
C1759 C183 1.659 . S
C1771 C835 1.631 . S
C1786 C119 1.757 . S
C1798 C875 1.730 . S
C1825 C914 1.648 . S
C1813 C145 1.568 . S
C1840 C241 1.413 . S
C1852 C874 1.539 . S
C1867 C279 1.451 . S
C1879 C915 1.439 . S
C1894 C215 1.422 . S
C1906 C834 1.408 . S
C1921 C509 1.363 . S
C1933 C581 1.346 . S
C1960 C621 1.800 . S
C1948 C541 1.655 . S
C1975 C573 1.536 . S
C1987 C671 1.557 . S
C2002 C221 1.822 . S
C2014 C631 1.816 . S
C2029 C253 1.471 . S
C2041 C661 1.530 . S
C2068 C591 1.349 . S
C2056 C285 1.343 . S
C2083 C125 1.347 . S
C2095 C701 1.345 . S
C2110 C157 1.660 . S
C2122 C741 1.799 . S
C2137 C189 1.564 . S
C2149 C791 1.558 . S
C2164 C413 1.808 . S
C2176 C751 1.808 . S
C2203 C781 1.530 . S
C2191 C445 1.469 . S
C2218 C477 1.354 . S
C2230 C711 1.351 . S
C2245 C317 1.373 . S
C2257 C821 1.353 . S
C2272 C349 1.663 . S
C2284 C861 1.798 . S
C2311 C911 1.558 . S
C2299 C381 1.564 . S
C2326 C29 1.808 . S
C2338 C871 1.810 . S
C2353 C61 1.436 . S
C2365 C901 1.534 . S
C2380 C93 1.324 . S
C2392 C831 1.360 . S
