# Generated by pormake.
# Topology ctn, (3,4)-cn, num edge types: 1
# Building blocks:
#     Node 0, Type 0, BuildingBlock: VETTIZ_charged_linker_0, # of connection points: 3
#     Node 1, Type 0, BuildingBlock: VETTIZ_charged_linker_0, # of connection points: 3
#     Node 2, Type 0, BuildingBlock: VETTIZ_charged_linker_0, # of connection points: 3
#     Node 3, Type 0, BuildingBlock: VETTIZ_charged_linker_0, # of connection points: 3
#     Node 4, Type 0, BuildingBlock: VETTIZ_charged_linker_0, # of connection points: 3
#     Node 5, Type 0, BuildingBlock: VETTIZ_charged_linker_0, # of connection points: 3
#     Node 6, Type 0, BuildingBlock: VETTIZ_charged_linker_0, # of connection points: 3
#     Node 7, Type 0, BuildingBlock: VETTIZ_charged_linker_0, # of connection points: 3
#     Node 8, Type 0, BuildingBlock: VETTIZ_charged_linker_0, # of connection points: 3
#     Node 9, Type 0, BuildingBlock: VETTIZ_charged_linker_0, # of connection points: 3
#     Node 10, Type 0, BuildingBlock: VETTIZ_charged_linker_0, # of connection points: 3
#     Node 11, Type 0, BuildingBlock: VETTIZ_charged_linker_0, # of connection points: 3
#     Node 12, Type 0, BuildingBlock: VETTIZ_charged_linker_0, # of connection points: 3
#     Node 13, Type 0, BuildingBlock: VETTIZ_charged_linker_0, # of connection points: 3
#     Node 14, Type 0, BuildingBlock: VETTIZ_charged_linker_0, # of connection points: 3
#     Node 15, Type 0, BuildingBlock: VETTIZ_charged_linker_0, # of connection points: 3
#     Node 16, Type 1, BuildingBlock: KUFVIS_clean_sbu_0, # of connection points: 4
#     Node 17, Type 1, BuildingBlock: KUFVIS_clean_sbu_0, # of connection points: 4
#     Node 18, Type 1, BuildingBlock: KUFVIS_clean_sbu_0, # of connection points: 4
#     Node 19, Type 1, BuildingBlock: KUFVIS_clean_sbu_0, # of connection points: 4
#     Node 20, Type 1, BuildingBlock: KUFVIS_clean_sbu_0, # of connection points: 4
#     Node 21, Type 1, BuildingBlock: KUFVIS_clean_sbu_0, # of connection points: 4
#     Node 22, Type 1, BuildingBlock: KUFVIS_clean_sbu_0, # of connection points: 4
#     Node 23, Type 1, BuildingBlock: KUFVIS_clean_sbu_0, # of connection points: 4
#     Node 24, Type 1, BuildingBlock: KUFVIS_clean_sbu_0, # of connection points: 4
#     Node 25, Type 1, BuildingBlock: KUFVIS_clean_sbu_0, # of connection points: 4
#     Node 26, Type 1, BuildingBlock: KUFVIS_clean_sbu_0, # of connection points: 4
#     Node 27, Type 1, BuildingBlock: KUFVIS_clean_sbu_0, # of connection points: 4
#     Edge 28, Type (0, 1), BuildingBlock: AJUNOK_clean_linker_0, # of connection points: 2
#     Edge 29, Type (0, 1), BuildingBlock: AJUNOK_clean_linker_0, # of connection points: 2
#     Edge 30, Type (0, 1), BuildingBlock: AJUNOK_clean_linker_0, # of connection points: 2
#     Edge 31, Type (0, 1), BuildingBlock: AJUNOK_clean_linker_0, # of connection points: 2
#     Edge 32, Type (0, 1), BuildingBlock: AJUNOK_clean_linker_0, # of connection points: 2
#     Edge 33, Type (0, 1), BuildingBlock: AJUNOK_clean_linker_0, # of connection points: 2
#     Edge 34, Type (0, 1), BuildingBlock: AJUNOK_clean_linker_0, # of connection points: 2
#     Edge 35, Type (0, 1), BuildingBlock: AJUNOK_clean_linker_0, # of connection points: 2
#     Edge 36, Type (0, 1), BuildingBlock: AJUNOK_clean_linker_0, # of connection points: 2
#     Edge 37, Type (0, 1), BuildingBlock: AJUNOK_clean_linker_0, # of connection points: 2
#     Edge 38, Type (0, 1), BuildingBlock: AJUNOK_clean_linker_0, # of connection points: 2
#     Edge 39, Type (0, 1), BuildingBlock: AJUNOK_clean_linker_0, # of connection points: 2
#     Edge 40, Type (0, 1), BuildingBlock: AJUNOK_clean_linker_0, # of connection points: 2
#     Edge 41, Type (0, 1), BuildingBlock: AJUNOK_clean_linker_0, # of connection points: 2
#     Edge 42, Type (0, 1), BuildingBlock: AJUNOK_clean_linker_0, # of connection points: 2
#     Edge 43, Type (0, 1), BuildingBlock: AJUNOK_clean_linker_0, # of connection points: 2
#     Edge 44, Type (0, 1), BuildingBlock: AJUNOK_clean_linker_0, # of connection points: 2
#     Edge 45, Type (0, 1), BuildingBlock: AJUNOK_clean_linker_0, # of connection points: 2
#     Edge 46, Type (0, 1), BuildingBlock: AJUNOK_clean_linker_0, # of connection points: 2
#     Edge 47, Type (0, 1), BuildingBlock: AJUNOK_clean_linker_0, # of connection points: 2
#     Edge 48, Type (0, 1), BuildingBlock: AJUNOK_clean_linker_0, # of connection points: 2
#     Edge 49, Type (0, 1), BuildingBlock: AJUNOK_clean_linker_0, # of connection points: 2
#     Edge 50, Type (0, 1), BuildingBlock: AJUNOK_clean_linker_0, # of connection points: 2
#     Edge 51, Type (0, 1), BuildingBlock: AJUNOK_clean_linker_0, # of connection points: 2
#     Edge 52, Type (0, 1), BuildingBlock: AJUNOK_clean_linker_0, # of connection points: 2
#     Edge 53, Type (0, 1), BuildingBlock: AJUNOK_clean_linker_0, # of connection points: 2
#     Edge 54, Type (0, 1), BuildingBlock: AJUNOK_clean_linker_0, # of connection points: 2
#     Edge 55, Type (0, 1), BuildingBlock: AJUNOK_clean_linker_0, # of connection points: 2
#     Edge 56, Type (0, 1), BuildingBlock: AJUNOK_clean_linker_0, # of connection points: 2
#     Edge 57, Type (0, 1), BuildingBlock: AJUNOK_clean_linker_0, # of connection points: 2
#     Edge 58, Type (0, 1), BuildingBlock: AJUNOK_clean_linker_0, # of connection points: 2
#     Edge 59, Type (0, 1), BuildingBlock: AJUNOK_clean_linker_0, # of connection points: 2
#     Edge 60, Type (0, 1), BuildingBlock: AJUNOK_clean_linker_0, # of connection points: 2
#     Edge 61, Type (0, 1), BuildingBlock: AJUNOK_clean_linker_0, # of connection points: 2
#     Edge 62, Type (0, 1), BuildingBlock: AJUNOK_clean_linker_0, # of connection points: 2
#     Edge 63, Type (0, 1), BuildingBlock: AJUNOK_clean_linker_0, # of connection points: 2
#     Edge 64, Type (0, 1), BuildingBlock: AJUNOK_clean_linker_0, # of connection points: 2
#     Edge 65, Type (0, 1), BuildingBlock: AJUNOK_clean_linker_0, # of connection points: 2
#     Edge 66, Type (0, 1), BuildingBlock: AJUNOK_clean_linker_0, # of connection points: 2
#     Edge 67, Type (0, 1), BuildingBlock: AJUNOK_clean_linker_0, # of connection points: 2
#     Edge 68, Type (0, 1), BuildingBlock: AJUNOK_clean_linker_0, # of connection points: 2
#     Edge 69, Type (0, 1), BuildingBlock: AJUNOK_clean_linker_0, # of connection points: 2
#     Edge 70, Type (0, 1), BuildingBlock: AJUNOK_clean_linker_0, # of connection points: 2
#     Edge 71, Type (0, 1), BuildingBlock: AJUNOK_clean_linker_0, # of connection points: 2
#     Edge 72, Type (0, 1), BuildingBlock: AJUNOK_clean_linker_0, # of connection points: 2
#     Edge 73, Type (0, 1), BuildingBlock: AJUNOK_clean_linker_0, # of connection points: 2
#     Edge 74, Type (0, 1), BuildingBlock: AJUNOK_clean_linker_0, # of connection points: 2
#     Edge 75, Type (0, 1), BuildingBlock: AJUNOK_clean_linker_0, # of connection points: 2
# Relax obj value: 0.012
# Max RMSD: 0.062
# Mean RMSD: 0.030
data_MOF--net-ctn--node1-KUFVIS_clean_sbu_0--node2-VETTIZ_charged_linker_0--edge1-AJUNOK_clean_linker_0
_symmetry_space_group_name_H-M    P1
_symmetry_Int_Tables_number       1
_symmetry_cell_setting            triclinic
loop_
_symmetry_equiv_pos_as_xyz
'x, y, z'
_cell_length_a     51.370599
_cell_length_b     51.288413
_cell_length_c     51.520863
_cell_angle_alpha  90.883469
_cell_angle_beta   90.245842
_cell_angle_gamma 91.464283
loop_
_atom_site_label
_atom_site_type_symbol
_atom_site_fract_x
_atom_site_fract_y
_atom_site_fract_z
_atom_type_partial_charge
C0 C 0.04364 0.12036 0.99103 0.0
C1 C 0.0221 0.13653 0.99459 0.0
C2 C 1.00456 0.13074 0.01488 0.0
C3 C 0.03059 0.09439 0.02812 0.0
C4 C 0.04734 0.09939 1.00778 0.0
C5 C 0.06839 0.07952 1.00584 0.0
H6 H 0.12832 0.97514 0.05601 0.0
C7 C 0.03978 0.07116 0.04186 0.0
C8 C 0.06181 0.06217 0.02872 0.0
H9 H 0.14607 0.01529 0.98473 0.0
H10 H 0.11069 0.04421 0.99232 0.0
H11 H 0.11188 0.0267 0.09184 0.0
H12 H 0.06923 0.97035 0.04448 0.0
H13 H 0.04828 0.97917 0.06975 0.0
H14 H 0.07841 0.96339 0.07722 0.0
H15 H 0.10911 0.99254 0.09885 0.0
H16 H 0.08466 0.0148 0.10927 0.0
C17 C 0.09501 0.09394 0.00955 0.0
C18 C 0.06528 0.06467 0.97951 0.0
C19 C 0.99386 0.04093 0.12405 0.0
C20 C 0.99726 0.01955 0.14051 0.0
C21 C 0.01713 1.0019 0.13453 0.0
C22 C 0.03373 1.0059 0.11333 0.0
C23 C 0.03026 0.0275 0.09736 0.0
C24 C 0.01031 0.04435 0.10258 0.0
C25 C 1.00837 0.06516 0.08239 0.0
C26 C 0.0308 0.05834 0.06455 0.0
C27 C 0.04373 0.03641 0.07359 0.0
C28 C 0.01292 0.09199 0.09603 0.0
C29 C 0.9816 0.06183 0.06852 0.0
C30 C 0.12466 0.99017 0.04201 0.0
C31 C 0.14083 0.99333 0.02017 0.0
C32 C 0.13488 0.01299 1.00234 0.0
C33 C 0.11399 0.02962 1.00656 0.0
C34 C 0.09831 0.02638 0.02861 0.0
C35 C 0.1035 1.00664 0.04568 0.0
C36 C 0.08364 1.00493 0.06706 0.0
C37 C 0.06605 0.02728 0.06031 0.0
C38 C 0.07491 0.03996 0.0379 0.0
C39 C 0.09791 0.00984 0.09326 0.0
C40 C 0.06916 0.97807 0.06478 0.0
H41 H 0.99481 0.10687 0.0468 0.0
H42 H 0.05737 0.12388 0.9755 0.0
H43 H 0.04472 0.06442 0.9726 0.0
H44 H 0.07013 0.04384 0.98087 0.0
H45 H 0.07742 0.0739 0.96423 0.0
H46 H 0.0942 0.10813 0.02606 0.0
H47 H 0.10043 0.10494 0.99188 0.0
H48 H 0.11093 0.08077 0.01427 0.0
H49 H 0.97867 0.05475 0.12771 0.0
H50 H 0.01961 0.98459 0.14595 0.0
H51 H 0.04849 0.99183 0.11003 0.0
H52 H 0.02973 0.09136 0.10968 0.0
H53 H 0.99554 0.09758 0.10738 0.0
H54 H 0.01773 0.10776 0.08241 0.0
H55 H 0.97411 0.0413 0.06918 0.0
H56 H 0.98268 0.06615 0.04757 0.0
H57 H 0.96678 0.07432 0.07774 0.0
H58 H 0.98715 0.1419 0.01751 0.0
C59 C 0.00882 0.11004 0.03173 0.0
C60 C 0.26469 0.63073 0.22654 0.0
C61 C 0.24204 0.62619 0.21158 0.0
C62 C 0.23605 0.64389 0.19186 0.0
C63 C 0.2751 0.6698 0.20221 0.0
C64 C 0.28075 0.65251 0.22163 0.0
C65 C 0.305 0.66038 0.23648 0.0
H66 H 0.4091 0.7421 0.25356 0.0
C67 C 0.29592 0.69037 0.20228 0.0
C68 C 0.31347 0.68485 0.22231 0.0
H69 H 0.38453 0.67713 0.30093 0.0
H70 H 0.34802 0.66841 0.27254 0.0
H71 H 0.35062 0.76466 0.2481 0.0
H72 H 0.39594 0.71586 0.19766 0.0
H73 H 0.37928 0.73775 0.17808 0.0
H74 H 0.40288 0.75018 0.20153 0.0
H75 H 0.37916 0.77648 0.23157 0.0
H76 H 0.34763 0.77592 0.21617 0.0
C77 C 0.2973 0.66631 0.26505 0.0
C78 C 0.32486 0.63837 0.23317 0.0
C79 C 0.29343 0.76388 0.13709 0.0
C80 C 0.31078 0.78463 0.13141 0.0
C81 C 0.33422 0.78742 0.14557 0.0
C82 C 0.34013 0.77003 0.16542 0.0
C83 C 0.32248 0.74949 0.17109 0.0
C84 C 0.29976 0.74645 0.15672 0.0
C85 C 0.28394 0.72275 0.16454 0.0
C86 C 0.30053 0.71245 0.1864 0.0
C87 C 0.32298 0.72833 0.19035 0.0
C88 C 0.25718 0.73185 0.17439 0.0
C89 C 0.28239 0.70357 0.14102 0.0
C90 C 0.39588 0.72594 0.25776 0.0
C91 C 0.40024 0.70984 0.2792 0.0
C92 C 0.38233 0.68922 0.28406 0.0
C93 C 0.36083 0.68442 0.26772 0.0
C94 C 0.35677 0.70063 0.24641 0.0
C95 C 0.374 0.72112 0.24182 0.0
C96 C 0.36573 0.73707 0.21901 0.0
C97 C 0.34071 0.72271 0.21071 0.0
C98 C 0.33577 0.70126 0.22672 0.0
C99 C 0.36062 0.76511 0.22899 0.0
C100 C 0.38704 0.73541 0.19792 0.0
H101 H 0.24678 0.67843 0.1719 0.0
H102 H 0.26979 0.61761 0.24192 0.0
H103 H 0.32486 0.6309 0.21277 0.0
H104 H 0.34513 0.64491 0.23718 0.0
H105 H 0.31994 0.6217 0.24592 0.0
H106 H 0.27665 0.6722 0.26655 0.0
H107 H 0.29963 0.64897 0.27741 0.0
H108 H 0.3086 0.68299 0.27362 0.0
H109 H 0.27542 0.76114 0.12625 0.0
H110 H 0.3478 0.80333 0.14149 0.0
H111 H 0.35819 0.77329 0.17564 0.0
H112 H 0.25944 0.75019 0.18609 0.0
H113 H 0.24387 0.73571 0.15791 0.0
H114 H 0.24757 0.71774 0.18742 0.0
H115 H 0.30075 0.70436 0.12963 0.0
H116 H 0.2801 0.683 0.14676 0.0
H117 H 0.2662 0.70844 0.12772 0.0
H118 H 0.21834 0.64129 0.18053 0.0
C119 C 0.25248 0.6656 0.18705 0.0
C120 C 1.00152 0.39462 1.00336 0.0
C121 C 0.98967 0.38869 0.97928 0.0
C122 C 0.97195 0.40627 0.96882 0.0
C123 C 0.97692 0.43443 1.00691 0.0
C124 C 0.99506 0.41763 0.01666 0.0
C125 C 1.00625 0.42716 0.04223 0.0
H126 H 0.01555 0.52173 0.13507 0.0
C127 C 0.97398 0.45611 0.02594 0.0
C128 C 0.99139 0.45208 0.04654 0.0
H129 H 0.05696 0.44935 0.13082 0.0
H130 H 0.0334 0.43696 0.09186 0.0
H131 H 0.96154 0.49469 0.12554 0.0
H132 H 0.0131 0.535 0.07351 0.0
H133 H 0.98116 0.54624 0.06914 0.0
H134 H 0.99662 0.54994 0.10037 0.0
H135 H 0.96036 0.52931 0.12186 0.0
H136 H 0.94127 0.50709 0.10142 0.0
C137 C 0.99965 0.40656 0.06306 0.0
C138 C 0.03577 0.43265 0.03843 0.0
C139 C 0.90469 0.52426 0.01235 0.0
C140 C 0.89597 0.54508 0.028 0.0
C141 C 0.90933 0.5509 0.05149 0.0
C142 C 0.93055 0.53629 0.05938 0.0
C143 C 0.93853 0.51523 0.04391 0.0
C144 C 0.92564 0.50942 0.02086 0.0
C145 C 0.93628 0.48558 1.00755 0.0
C146 C 0.95728 0.47785 0.0267 0.0
C147 C 0.95868 0.49554 0.04777 0.0
C148 C 0.91402 0.46472 1.00535 0.0
C149 C 0.94795 0.49388 0.98117 0.0
C150 C 0.0193 0.50298 0.12613 0.0
C151 C 0.03839 0.48662 0.13624 0.0
C152 C 0.04278 0.46263 0.12336 0.0
C153 C 0.02898 0.45538 0.10072 0.0
C154 C 0.01027 0.4721 0.09077 0.0
C155 C 1.00527 0.49517 0.10379 0.0
C156 C 0.98335 0.50957 0.09146 0.0
C157 C 0.97707 0.49206 0.06806 0.0
C158 C 0.99307 0.47027 0.06763 0.0
C159 C 0.96043 0.51045 0.11099 0.0
C160 C 0.99391 0.53673 0.08323 0.0
H161 H 0.95156 0.44147 0.9737 0.0
H162 H 0.01545 0.38158 0.01167 0.0
H163 H 0.0396 0.44131 0.0191 0.0
H164 H 0.04406 0.447 0.05254 0.0
H165 H 0.04686 0.41439 0.03954 0.0
H166 H 0.98026 0.39708 0.0592 0.0
H167 H 0.01428 0.39098 0.06322 0.0
H168 H 0.99812 0.41512 0.08278 0.0
H169 H 0.89544 0.51948 0.99392 0.0
H170 H 0.90303 0.56653 0.06417 0.0
H171 H 0.93975 0.54181 0.07742 0.0
H172 H 0.90257 0.46406 0.02363 0.0
H173 H 0.90043 0.46922 0.98929 0.0
H174 H 0.92104 0.44478 1.00237 0.0
H175 H 0.95636 0.51408 0.98238 0.0
H176 H 0.96434 0.48169 0.97507 0.0
H177 H 0.93285 0.49341 0.96566 0.0
H178 H 0.9626 0.40201 0.95029 0.0
C179 C 0.96546 0.42905 0.98252 0.0
C180 C 0.64449 0.81504 0.27566 0.0
C181 C 0.62518 0.79516 0.27477 0.0
C182 C 0.62487 0.77708 0.2539 0.0
C183 C 0.66331 0.79821 0.23572 0.0
C184 C 0.66317 0.8163 0.25591 0.0
C185 C 0.68468 0.83656 0.25358 0.0
H186 H 0.79351 0.88043 0.19311 0.0
C187 C 0.6856 0.80478 0.21867 0.0
C188 C 0.69805 0.82739 0.22895 0.0
H189 H 0.75391 0.91527 0.25843 0.0
H190 H 0.72077 0.88131 0.25624 0.0
H191 H 0.74277 0.87148 0.15979 0.0
H192 H 0.78406 0.8193 0.20883 0.0
H193 H 0.77656 0.80301 0.17924 0.0
H194 H 0.79685 0.83213 0.17912 0.0
H195 H 0.77101 0.85494 0.14855 0.0
H196 H 0.73871 0.84037 0.14552 0.0
C197 C 0.67221 0.86356 0.25027 0.0
C198 C 0.70259 0.83465 0.2777 0.0
C199 C 0.70595 0.74665 0.14061 0.0
C200 C 0.7249 0.74843 0.12109 0.0
C201 C 0.74336 0.76919 0.12191 0.0
C202 C 0.74302 0.78798 0.14194 0.0
C203 C 0.72386 0.78615 0.16128 0.0
C204 C 0.70562 0.76584 0.16033 0.0
C205 C 0.68608 0.76773 0.18195 0.0
C206 C 0.69568 0.79241 0.19607 0.0
C207 C 0.71797 0.80295 0.18398 0.0
C208 C 0.65873 0.77096 0.16975 0.0
C209 C 0.6885 0.74332 0.199 0.0
C210 C 0.77748 0.881 0.20667 0.0
C211 C 0.77642 0.90064 0.226 0.0
C212 C 0.75541 0.90024 0.24355 0.0
C213 C 0.73607 0.88053 0.24219 0.0
C214 C 0.73753 0.86094 0.22296 0.0
C215 C 0.75773 0.86161 0.20534 0.0
C216 C 0.75531 0.83985 0.18547 0.0
C217 C 0.73059 0.82579 0.19442 0.0
C218 C 0.72049 0.83806 0.21659 0.0
C219 C 0.75194 0.85209 0.15834 0.0
C220 C 0.77946 0.82262 0.18804 0.0
H221 H 0.64275 0.76392 0.21921 0.0
H222 H 0.6449 0.82942 0.29129 0.0
H223 H 0.70609 0.81389 0.28226 0.0
H224 H 0.72208 0.84365 0.2749 0.0
H225 H 0.69356 0.84382 0.29502 0.0
H226 H 0.6525 0.86163 0.24127 0.0
H227 H 0.67006 0.87379 0.26927 0.0
H228 H 0.68337 0.8763 0.23696 0.0
H229 H 0.69142 0.73097 0.14022 0.0
H230 H 0.75816 0.77075 0.10706 0.0
H231 H 0.75766 0.80324 0.14155 0.0
H232 H 0.66001 0.78179 0.15123 0.0
H233 H 0.64915 0.75172 0.16543 0.0
H234 H 0.64578 0.78266 0.18213 0.0
H235 H 0.70933 0.73872 0.20208 0.0
H236 H 0.6804 0.74597 0.21862 0.0
H237 H 0.6788 0.72601 0.18958 0.0
H238 H 0.61012 0.76161 0.25291 0.0
C239 C 0.64387 0.77841 0.23444 0.0
C240 C 0.03323 0.90932 0.54779 0.0
C241 C 0.01442 0.88929 0.54337 0.0
C242 C 0.99772 0.89108 0.52165 0.0
C243 C 0.02034 0.93087 0.50824 0.0
C244 C 0.03628 0.92935 0.52982 0.0
C245 C 0.05752 0.95006 0.53026 0.0
H246 H 0.1228 0.04692 0.46909 0.0
C247 C 0.02982 0.95324 0.49263 0.0
C248 C 0.05186 0.96426 0.50534 0.0
H249 H 0.1396 0.01511 0.54429 0.0
H250 H 0.10147 0.98664 0.54067 0.0
H251 H 0.06392 0.05369 0.47939 0.0
H252 H 0.10469 0.99283 0.43989 0.0
H253 H 0.07745 1.00054 0.42087 0.0
H254 H 0.10204 0.02535 0.42788 0.0
H255 H 0.07393 0.05676 0.44626 0.0
H256 H 0.0428 0.04217 0.45469 0.0
C257 C 0.05374 0.96774 0.55453 0.0
C258 C 0.08405 0.9363 0.5293 0.0
C259 C 0.98244 0.97838 0.40968 0.0
C260 C 0.9879 0.99725 0.39075 0.0
C261 C 0.01028 0.01345 0.39355 0.0
C262 C 0.02691 0.01117 0.41499 0.0
C263 C 0.02136 0.99219 0.43374 0.0
C264 C 0.9995 0.97608 0.43089 0.0
C265 C 0.99754 0.95623 0.45216 0.0
C266 C 0.02113 0.9639 0.46882 0.0
C267 C 0.03504 0.9849 0.45779 0.0
C268 C 0.97174 0.96022 0.46688 0.0
C269 C 1.00003 0.9287 0.43973 0.0
C270 C 0.11838 0.03382 0.48476 0.0
C271 C 0.13443 0.03319 0.50692 0.0
C272 C 0.1276 0.01599 0.527 0.0
C273 C 0.10549 0.99942 0.52481 0.0
C274 C 0.08985 1.00011 0.50233 0.0
C275 C 0.09618 0.01749 0.48302 0.0
C276 C 0.07659 0.01671 0.46121 0.0
C277 C 0.05779 0.99542 0.47027 0.0
C278 C 0.06586 0.98549 0.49415 0.0
C279 C 0.06365 0.04369 0.46007 0.0
C280 C 0.09078 0.0086 0.43599 0.0
H281 H 0.9874 0.9119 0.48789 0.0
H282 H 0.04589 0.90916 0.56464 0.0
H283 H 0.08291 0.91881 0.51625 0.0
H284 H 0.09992 0.94858 0.52132 0.0
H285 H 0.08989 0.92972 0.54887 0.0
H286 H 0.0327 0.96979 0.55896 0.0
H287 H 0.06319 0.9595 0.5719 0.0
H288 H 0.06118 0.98791 0.55178 0.0
H289 H 0.96565 0.96529 0.40763 0.0
H290 H 0.01487 0.02794 0.37908 0.0
H291 H 0.0436 0.02414 0.41601 0.0
H292 H 0.969 0.98129 0.47116 0.0
H293 H 0.95483 0.95297 0.45508 0.0
H294 H 0.97122 0.95046 0.4858 0.0
H295 H 0.01238 0.92932 0.42205 0.0
H296 H 0.00982 0.91498 0.45266 0.0
H297 H 0.98068 0.92032 0.43393 0.0
H298 H 0.98301 0.87603 0.51771 0.0
C299 C 1.00048 0.9118 0.50419 0.0
C300 C 0.27755 0.6434 0.81823 0.0
C301 C 0.27664 0.62414 0.79857 0.0
C302 C 0.25574 0.62355 0.78076 0.0
C303 C 0.23775 0.66185 0.80155 0.0
C304 C 0.25789 0.66186 0.81947 0.0
C305 C 0.25561 0.68323 0.83956 0.0
H306 H 0.19595 0.79117 0.88357 0.0
C307 C 0.22101 0.6842 0.80786 0.0
C308 C 0.23135 0.69666 0.83022 0.0
H309 H 0.25955 0.75053 0.91877 0.0
H310 H 0.25792 0.71847 0.88423 0.0
H311 H 0.16167 0.73832 0.87099 0.0
H312 H 0.21404 0.78476 0.8245 0.0
H313 H 0.18711 0.77566 0.80492 0.0
H314 H 0.18236 0.79558 0.8336 0.0
H315 H 0.15339 0.76988 0.85941 0.0
H316 H 0.14757 0.7407 0.84005 0.0
C317 C 0.25155 0.67048 0.86643 0.0
C318 C 0.28017 0.70126 0.83783 0.0
C319 C 0.14327 0.70417 0.7503 0.0
C320 C 0.12511 0.72427 0.75072 0.0
C321 C 0.12761 0.74414 0.76983 0.0
C322 C 0.14745 0.74372 0.78859 0.0
C323 C 0.16516 0.72326 0.78826 0.0
C324 C 0.1631 0.7041 0.76914 0.0
C325 C 0.18415 0.68432 0.7714 0.0
C326 C 0.19881 0.69445 0.79535 0.0
C327 C 0.1875 0.71723 0.8052 0.0
C328 C 0.17106 0.65725 0.77593 0.0
C329 C 0.20111 0.6858 0.74666 0.0
C330 C 0.2092 0.77509 0.8841 0.0
C331 C 0.22788 0.77342 0.90405 0.0
C332 C 0.24513 0.75246 0.90355 0.0
C333 C 0.24409 0.73374 0.88351 0.0
C334 C 0.22548 0.73574 0.86366 0.0
C335 C 0.20818 0.75593 0.86434 0.0
C336 C 0.18909 0.75422 0.84207 0.0
C337 C 0.19786 0.72969 0.82797 0.0
C338 C 0.21942 0.71922 0.84056 0.0
C339 C 0.16139 0.75077 0.8535 0.0
C340 C 0.19306 0.77885 0.82536 0.0
H341 H 0.22109 0.64101 0.76779 0.0
H342 H 0.29317 0.64397 0.83244 0.0
H343 H 0.28505 0.70516 0.8172 0.0
H344 H 0.27763 0.7206 0.84699 0.0
H345 H 0.29726 0.69208 0.84689 0.0
H346 H 0.24297 0.6504 0.8645 0.0
H347 H 0.27026 0.66908 0.87714 0.0
H348 H 0.23752 0.68109 0.87866 0.0
H349 H 0.14215 0.68892 0.73553 0.0
H350 H 0.11388 0.75981 0.77051 0.0
H351 H 0.14815 0.75931 0.80272 0.0
H352 H 0.15358 0.65905 0.78845 0.0
H353 H 0.16465 0.64793 0.75728 0.0
H354 H 0.1838 0.64384 0.78631 0.0
H355 H 0.20386 0.70637 0.74045 0.0
H356 H 0.22098 0.67872 0.74963 0.0
H357 H 0.19179 0.67465 0.73031 0.0
H358 H 0.25468 0.60877 0.76551 0.0
C359 C 0.23636 0.64234 0.78206 0.0
C360 C 0.90061 0.50126 0.50246 0.0
C361 C 0.89412 0.47744 0.49003 0.0
C362 C 0.91146 0.46694 0.47176 0.0
C363 C 0.9406 0.50466 0.47745 0.0
C364 C 0.92396 0.51433 0.4961 0.0
C365 C 0.93388 0.53967 0.50785 0.0
H366 H 0.02665 0.63537 0.51615 0.0
C367 C 0.96279 0.52352 0.47489 0.0
C368 C 0.95906 0.54386 0.49299 0.0
H369 H 0.95485 0.62749 0.55913 0.0
H370 H 0.94372 0.58817 0.53586 0.0
H371 H 1.00098 0.62216 0.46289 0.0
H372 H 0.04177 0.57313 0.51536 0.0
H373 H 0.05302 0.56679 0.48366 0.0
H374 H 0.05702 0.59912 0.49753 0.0
H375 H 0.03584 0.62132 0.46335 0.0
H376 H 0.01643 0.59909 0.44327 0.0
C377 C 0.91386 0.56095 0.50191 0.0
C378 C 0.93889 0.5353 0.53715 0.0
C379 C 0.02926 0.51302 0.40234 0.0
C380 C 0.05023 0.52907 0.39431 0.0
C381 C 0.05777 0.55093 0.40967 0.0
C382 C 0.04412 0.55739 0.43222 0.0
C383 C 0.02241 0.54202 0.43943 0.0
C384 C 0.01553 0.51994 0.42492 0.0
C385 C 0.99153 0.50635 0.43551 0.0
C386 C 0.98463 0.52453 0.45796 0.0
C387 C 1.0029 0.54535 0.46014 0.0
C388 C 0.9703 0.50559 0.41408 0.0
C389 C 0.99927 0.47913 0.44506 0.0
C390 C 0.00885 0.62485 0.52101 0.0
C391 C 0.99225 0.63419 0.54062 0.0
C392 C 0.9685 0.62054 0.54494 0.0
C393 C 0.96195 0.59758 0.53124 0.0
C394 C 0.97906 0.58805 0.51243 0.0
C395 C 1.00184 0.60183 0.50721 0.0
C396 C 0.01669 0.58947 0.48526 0.0
C397 C 0.99949 0.56553 0.47899 0.0
C398 C 0.97756 0.56484 0.4951 0.0
C399 C 0.01781 0.60892 0.46249 0.0
C400 C 0.04367 0.58179 0.49577 0.0
H401 H 0.94686 0.47173 0.45096 0.0
H402 H 0.8877 0.5096 0.51675 0.0
H403 H 0.94643 0.51547 0.54046 0.0
H404 H 0.95393 0.54874 0.54551 0.0
H405 H 0.92067 0.5371 0.5485 0.0
H406 H 0.90387 0.55697 0.483 0.0
H407 H 0.89862 0.56178 0.51712 0.0
H408 H 0.92298 0.58055 0.49981 0.0
H409 H 0.02297 0.49625 0.39069 0.0
H410 H 0.07388 0.56349 0.40374 0.0
H411 H 0.05062 0.57452 0.4428 0.0
H412 H 0.96943 0.52479 0.4044 0.0
H413 H 0.97452 0.4906 0.39899 0.0
H414 H 0.95057 0.50166 0.42161 0.0
H415 H 0.01962 0.47952 0.45256 0.0
H416 H 0.9873 0.47239 0.46155 0.0
H417 H 0.99797 0.46435 0.42909 0.0
H418 H 0.90671 0.44858 0.46197 0.0
C419 C 0.93464 0.48046 0.46534 0.0
C420 C 0.81707 0.75323 0.88873 0.0
C421 C 0.79644 0.7535 0.90653 0.0
C422 C 0.77843 0.77375 0.90546 0.0
C423 C 0.80112 0.7924 0.86864 0.0
C424 C 0.81914 0.77292 0.87017 0.0
C425 C 0.83985 0.77547 0.84976 0.0
H426 H 0.88391 0.83089 0.73959 0.0
C427 C 0.80824 0.80916 0.84646 0.0
C428 C 0.83114 0.79953 0.83554 0.0
H429 H 0.91629 0.76746 0.78231 0.0
H430 H 0.88482 0.77327 0.81619 0.0
H431 H 0.87549 0.86847 0.79104 0.0
H432 H 0.82331 0.81567 0.74912 0.0
H433 H 0.80772 0.84545 0.75475 0.0
H434 H 0.8368 0.84508 0.73553 0.0
H435 H 0.86084 0.87729 0.76085 0.0
H436 H 0.84455 0.88225 0.79149 0.0
C437 C 0.8665 0.78017 0.86357 0.0
C438 C 0.83818 0.75064 0.83223 0.0
C439 C 0.74854 0.88193 0.81994 0.0
C440 C 0.74996 0.90064 0.80033 0.0
C441 C 0.77165 0.90111 0.78366 0.0
C442 C 0.79139 0.88287 0.78611 0.0
C443 C 0.78956 0.86401 0.80557 0.0
C444 C 0.76859 0.86402 0.82233 0.0
C445 C 0.77047 0.8433 0.84256 0.0
C446 C 0.79587 0.83069 0.83506 0.0
C447 C 0.80683 0.84267 0.81313 0.0
C448 C 0.77226 0.85684 0.86965 0.0
C449 C 0.74681 0.82424 0.83901 0.0
C450 C 0.88439 0.81868 0.75654 0.0
C451 C 0.90242 0.79856 0.75829 0.0
C452 C 0.90246 0.78294 0.78053 0.0
C453 C 0.88405 0.78624 0.80011 0.0
C454 C 0.86511 0.80526 0.79747 0.0
C455 C 0.86589 0.82167 0.7764 0.0
C456 C 0.84428 0.84106 0.77742 0.0
C457 C 0.83005 0.83289 0.80202 0.0
C458 C 0.84227 0.81171 0.81344 0.0
C459 C 0.85674 0.8688 0.78016 0.0
C460 C 0.82708 0.83685 0.75291 0.0
H461 H 0.76613 0.80783 0.88666 0.0
H462 H 0.83121 0.73793 0.88916 0.0
H463 H 0.81751 0.74479 0.8283 0.0
H464 H 0.84691 0.75336 0.81293 0.0
H465 H 0.84762 0.73401 0.84172 0.0
H466 H 0.86415 0.78991 0.88284 0.0
H467 H 0.87645 0.76152 0.86682 0.0
H468 H 0.87963 0.79352 0.85277 0.0
H469 H 0.73232 0.88145 0.8333 0.0
H470 H 0.77311 0.91543 0.76845 0.0
H471 H 0.80725 0.88407 0.77267 0.0
H472 H 0.78203 0.8764 0.86849 0.0
H473 H 0.75261 0.85962 0.87802 0.0
H474 H 0.78425 0.84607 0.88354 0.0
H475 H 0.74308 0.82005 0.81805 0.0
H476 H 0.74976 0.80506 0.84777 0.0
H477 H 0.72891 0.8327 0.8473 0.0
H478 H 0.76215 0.77413 0.91874 0.0
C479 C 0.78067 0.79318 0.88666 0.0
C480 C 0.3228 0.25675 0.39152 0.0
C481 C 0.30105 0.25631 0.40794 0.0
C482 C 0.28408 0.27743 0.40789 0.0
C483 C 0.30877 0.29763 0.3733 0.0
C484 C 0.32625 0.27759 0.37434 0.0
C485 C 0.34712 0.2803 0.35404 0.0
H486 H 0.3887 0.33391 0.24227 0.0
C487 C 0.31623 0.31474 0.35153 0.0
C488 C 0.33891 0.30492 0.34036 0.0
H489 H 0.42262 0.27173 0.28553 0.0
H490 H 0.39272 0.27896 0.32068 0.0
H491 H 0.38316 0.37303 0.29322 0.0
H492 H 0.32844 0.32021 0.25467 0.0
H493 H 0.31396 0.3507 0.25982 0.0
H494 H 0.34235 0.34878 0.23979 0.0
H495 H 0.36688 0.38175 0.26385 0.0
H496 H 0.35239 0.38705 0.29535 0.0
C497 C 0.37377 0.28415 0.36801 0.0
C498 C 0.34511 0.25592 0.33591 0.0
C499 C 0.25613 0.38722 0.32517 0.0
C500 C 0.25715 0.4057 0.30532 0.0
C501 C 0.27882 0.40635 0.28863 0.0
C502 C 0.29882 0.38838 0.29117 0.0
C503 C 0.29724 0.36957 0.31072 0.0
C504 C 0.27639 0.36957 0.32762 0.0
C505 C 0.27836 0.3488 0.34777 0.0
C506 C 0.3038 0.33631 0.34021 0.0
C507 C 0.31458 0.34824 0.31819 0.0
C508 C 0.28012 0.36226 0.3749 0.0
C509 C 0.25469 0.32972 0.34408 0.0
C510 C 0.38987 0.32229 0.25959 0.0
C511 C 0.40772 0.30201 0.26113 0.0
C512 C 0.40885 0.28729 0.28394 0.0
C513 C 0.39134 0.29137 0.30421 0.0
C514 C 0.37224 0.31025 0.30165 0.0
C515 C 0.37232 0.32611 0.28016 0.0
C516 C 0.35101 0.34579 0.28156 0.0
C517 C 0.33753 0.33823 0.30675 0.0
C518 C 0.34988 0.31707 0.31815 0.0
C519 C 0.36383 0.37342 0.28342 0.0
C520 C 0.33294 0.34138 0.2577 0.0
H521 H 0.27389 0.31329 0.3913 0.0
H522 H 0.33595 0.24058 0.39107 0.0
H523 H 0.32439 0.25103 0.33114 0.0
H524 H 0.35475 0.25863 0.31706 0.0
H525 H 0.35351 0.23869 0.34536 0.0
H526 H 0.37151 0.29301 0.3877 0.0
H527 H 0.38358 0.26528 0.37037 0.0
H528 H 0.38697 0.29789 0.35777 0.0
H529 H 0.23991 0.38657 0.33853 0.0
H530 H 0.27999 0.42048 0.27323 0.0
H531 H 0.31459 0.3896 0.27764 0.0
H532 H 0.28989 0.38182 0.3738 0.0
H533 H 0.26048 0.365 0.38327 0.0
H534 H 0.29212 0.35144 0.38875 0.0
H535 H 0.25058 0.3261 0.32309 0.0
H536 H 0.25785 0.31026 0.35213 0.0
H537 H 0.23689 0.33783 0.35293 0.0
H538 H 0.26716 0.27731 0.4204 0.0
C539 C 0.2879 0.29814 0.39082 0.0
C540 C 0.50156 0.89798 0.49961 0.0
C541 C 0.48824 0.89081 0.47664 0.0
C542 C 0.46858 0.9069 0.46731 0.0
C543 C 0.47506 0.93647 0.50416 0.0
C544 C 0.49489 0.92098 0.51286 0.0
C545 C 0.50767 0.93196 0.53713 0.0
H546 H 0.50963 0.02165 0.63489 0.0
C547 C 0.4726 0.95866 0.52269 0.0
C548 C 0.49191 0.95623 0.5419 0.0
H549 H 0.56444 0.96039 0.62096 0.0
H550 H 0.54056 0.94677 0.58242 0.0
H551 H 0.45603 0.98991 0.61542 0.0
H552 H 0.5119 0.04181 0.58016 0.0
H553 H 0.48272 0.0466 0.56329 0.0
H554 H 0.48464 0.05407 0.59766 0.0
H555 H 0.46107 0.02368 0.62432 0.0
H556 H 0.43919 0.01393 0.59845 0.0
C557 C 0.50385 0.91185 0.55897 0.0
C558 C 0.53655 0.93879 0.53097 0.0
C559 C 0.39841 0.02276 0.51366 0.0
C560 C 0.3915 0.04487 0.52849 0.0
C561 C 0.40812 0.05342 0.54893 0.0
C562 C 0.43003 0.0394 0.55574 0.0
C563 C 0.43595 0.01668 0.54172 0.0
C564 C 0.42078 0.00905 0.52057 0.0
C565 C 0.43137 0.98521 0.50712 0.0
C566 C 0.45476 0.97946 0.52427 0.0
C567 C 0.45701 0.99784 0.54469 0.0
C568 C 0.41031 0.96315 0.50804 0.0
C569 C 0.43967 0.99283 0.47932 0.0
C570 C 0.51684 1.00555 0.62343 0.0
C571 C 0.53926 0.99234 0.63105 0.0
C572 C 0.54719 0.97089 0.61577 0.0
C573 C 0.53342 0.96313 0.59321 0.0
C574 C 0.51152 0.97707 0.58554 0.0
C575 C 0.50377 0.99804 0.60048 0.0
C576 C 0.48127 0.01178 0.58855 0.0
C577 C 0.47642 0.99529 0.56416 0.0
C578 C 0.49393 0.97476 0.56267 0.0
C579 C 0.45809 0.00996 0.60761 0.0
C580 C 0.49037 0.04008 0.58218 0.0
H581 H 0.44649 0.94092 0.47309 0.0
H582 H 0.51686 0.88597 0.50704 0.0
H583 H 0.5391 0.94384 0.51019 0.0
H584 H 0.54393 0.95624 0.54183 0.0
H585 H 0.54927 0.92212 0.53502 0.0
H586 H 0.48354 0.90378 0.55879 0.0
H587 H 0.51717 0.89529 0.55636 0.0
H588 H 0.50692 0.92033 0.57857 0.0
H589 H 0.38638 0.01596 0.49749 0.0
H590 H 0.40402 0.07099 0.55996 0.0
H591 H 0.44136 0.04672 0.57189 0.0
H592 H 0.40159 0.9621 0.52774 0.0
H593 H 0.39436 0.96667 0.49398 0.0
H594 H 0.41806 0.94367 0.50401 0.0
H595 H 0.4462 0.01366 0.47862 0.0
H596 H 0.45657 0.98184 0.47233 0.0
H597 H 0.42328 0.99002 0.46535 0.0
H598 H 0.45805 0.90154 0.44968 0.0
C599 C 0.46186 0.92964 0.48098 0.0
C600 C 0.14085 0.31642 0.77369 0.0
C601 C 0.12154 0.29659 0.77227 0.0
C602 C 0.12137 0.27888 0.75108 0.0
C603 C 0.15982 0.30048 0.73346 0.0
C604 C 0.15958 0.31815 0.75401 0.0
C605 C 0.1809 0.33867 0.75201 0.0
H606 H 0.2929 0.38089 0.69659 0.0
C607 C 0.18234 0.30726 0.71679 0.0
C608 C 0.19472 0.32966 0.72755 0.0
H609 H 0.24837 0.41864 0.75685 0.0
H610 H 0.21536 0.38477 0.75355 0.0
H611 H 0.24282 0.37204 0.66021 0.0
H612 H 0.28144 0.32033 0.71202 0.0
H613 H 0.27462 0.30332 0.6827 0.0
H614 H 0.29576 0.33189 0.68248 0.0
H615 H 0.27254 0.35661 0.65144 0.0
H616 H 0.24114 0.34092 0.64562 0.0
C617 C 0.1682 0.36555 0.74857 0.0
C618 C 0.1985 0.33701 0.77636 0.0
C619 C 0.2029 0.25068 0.63777 0.0
C620 C 0.22341 0.25125 0.61986 0.0
C621 C 0.24346 0.2703 0.62262 0.0
C622 C 0.24294 0.28889 0.64286 0.0
C623 C 0.22222 0.28828 0.66063 0.0
C624 C 0.20278 0.26924 0.65805 0.0
C625 C 0.18277 0.27114 0.67922 0.0
C626 C 0.19289 0.29497 0.69437 0.0
C627 C 0.21605 0.3049 0.6834 0.0
C628 C 0.15595 0.27582 0.66651 0.0
C629 C 0.18386 0.246 0.69546 0.0
C630 C 0.276 0.38188 0.70904 0.0
C631 C 0.27396 0.4019 0.72789 0.0
C632 C 0.25125 0.40276 0.74317 0.0
C633 C 0.23183 0.38322 0.741 0.0
C634 C 0.23465 0.36281 0.72289 0.0
C635 C 0.256 0.36281 0.70666 0.0
C636 C 0.25424 0.3409 0.68686 0.0
C637 C 0.22871 0.32744 0.69445 0.0
C638 C 0.21769 0.34007 0.71595 0.0
C639 C 0.25278 0.35303 0.65953 0.0
C640 C 0.27777 0.32313 0.69095 0.0
H641 H 0.13932 0.26654 0.71616 0.0
H642 H 0.14112 0.33047 0.78962 0.0
H643 H 0.20349 0.3164 0.78002 0.0
H644 H 0.21721 0.3478 0.77447 0.0
H645 H 0.18844 0.34464 0.79384 0.0
H646 H 0.14779 0.36349 0.74134 0.0
H647 H 0.16772 0.37671 0.76721 0.0
H648 H 0.17831 0.37754 0.7338 0.0
H649 H 0.18743 0.23598 0.6361 0.0
H650 H 0.25945 0.27084 0.60898 0.0
H651 H 0.25871 0.30298 0.64391 0.0
H652 H 0.15808 0.28864 0.64938 0.0
H653 H 0.14655 0.25717 0.65976 0.0
H654 H 0.14248 0.28607 0.67957 0.0
H655 H 0.20426 0.2395 0.69747 0.0
H656 H 0.17703 0.24877 0.71556 0.0
H657 H 0.17234 0.2298 0.68608 0.0
H658 H 0.10663 0.26342 0.74973 0.0
C659 C 0.14042 0.28067 0.73172 0.0
C660 C 0.76711 0.12733 0.72293 0.0
C661 C 0.74489 0.1222 0.7075 0.0
C662 C 0.73929 0.13936 0.68718 0.0
C663 C 0.77739 0.16633 0.69844 0.0
C664 C 0.78282 0.14941 0.71824 0.0
C665 C 0.80613 0.15819 0.73404 0.0
H666 H 0.90667 0.24328 0.755 0.0
C667 C 0.79726 0.18782 0.69944 0.0
C668 C 0.81406 0.18309 0.72034 0.0
H669 H 0.88349 0.17647 0.8005 0.0
H670 H 0.84758 0.16737 0.77152 0.0
H671 H 0.84981 0.26429 0.75095 0.0
H672 H 0.89343 0.21807 0.69678 0.0
H673 H 0.87865 0.24345 0.67988 0.0
H674 H 0.90192 0.25133 0.7052 0.0
H675 H 0.87448 0.27864 0.73076 0.0
H676 H 0.84119 0.27435 0.71975 0.0
C677 C 0.79712 0.16356 0.76231 0.0
C678 C 0.82702 0.13706 0.73132 0.0
C679 C 0.79514 0.261 0.63374 0.0
C680 C 0.81026 0.28398 0.63076 0.0
C681 C 0.83136 0.28915 0.64777 0.0
C682 C 0.83732 0.27171 0.66753 0.0
C683 C 0.82187 0.24891 0.67051 0.0
C684 C 0.8011 0.24392 0.65383 0.0
C685 C 0.78616 0.21932 0.66063 0.0
C686 C 0.80149 0.21026 0.68396 0.0
C687 C 0.8225 0.22761 0.68958 0.0
C688 C 0.75805 0.2267 0.66801 0.0
C689 C 0.78782 0.19997 0.63739 0.0
C690 C 0.89391 0.22662 0.75864 0.0
C691 C 0.89857 0.21005 0.77966 0.0
C692 C 0.88114 0.18888 0.78389 0.0
C693 C 0.85998 0.18384 0.76719 0.0
C694 C 0.85576 0.20037 0.74617 0.0
C695 C 0.87236 0.22154 0.74234 0.0
C696 C 0.86375 0.23789 0.71994 0.0
C697 C 0.83959 0.22263 0.71065 0.0
C698 C 0.83522 0.2006 0.726 0.0
C699 C 0.85708 0.26532 0.73067 0.0
C700 C 0.88554 0.23795 0.6993 0.0
H701 H 0.75006 0.17371 0.66689 0.0
H702 H 0.772 0.11461 0.73873 0.0
H703 H 0.82781 0.12949 0.71099 0.0
H704 H 0.84693 0.1445 0.73568 0.0
H705 H 0.82254 0.12028 0.74407 0.0
H706 H 0.77628 0.16893 0.76299 0.0
H707 H 0.79932 0.14611 0.77456 0.0
H708 H 0.80765 0.18037 0.77155 0.0
H709 H 0.77863 0.25674 0.62108 0.0
H710 H 0.84329 0.30672 0.64569 0.0
H711 H 0.85365 0.27671 0.67983 0.0
H712 H 0.75785 0.24612 0.67793 0.0
H713 H 0.74542 0.22764 0.65051 0.0
H714 H 0.74899 0.21315 0.68198 0.0
H715 H 0.80778 0.20034 0.62908 0.0
H716 H 0.78398 0.17952 0.64286 0.0
H717 H 0.77404 0.20511 0.62171 0.0
H718 H 0.72199 0.1363 0.67535 0.0
C719 C 0.75547 0.16129 0.68248 0.0
C720 C 0.54252 0.62002 0.49067 0.0
C721 C 0.52107 0.63633 0.49429 0.0
C722 C 0.50345 0.63051 0.51449 0.0
C723 C 0.52925 0.59398 0.52765 0.0
C724 C 0.54606 0.59893 0.50734 0.0
C725 C 0.56695 0.57885 0.50537 0.0
H726 H 0.62522 0.47353 0.55583 0.0
C727 C 0.53825 0.57067 0.54135 0.0
C728 C 0.56022 0.5615 0.52822 0.0
H729 H 0.64419 0.51307 0.4845 0.0
H730 H 0.60945 0.543 0.49208 0.0
H731 H 0.61011 0.5252 0.59116 0.0
H732 H 0.56653 0.46936 0.54418 0.0
H733 H 0.54546 0.47879 0.56912 0.0
H734 H 0.57522 0.46258 0.57709 0.0
H735 H 0.60638 0.49119 0.59853 0.0
H736 H 0.5826 0.5143 0.60871 0.0
C737 C 0.5937 0.59298 0.50906 0.0
C738 C 0.56369 0.56408 0.47903 0.0
C739 C 0.49197 0.54066 0.62347 0.0
C740 C 0.4953 0.51925 0.63992 0.0
C741 C 0.51508 0.50153 0.63396 0.0
C742 C 0.5317 0.50546 0.61279 0.0
C743 C 0.52831 0.52706 0.59681 0.0
C744 C 0.50846 0.54402 0.60202 0.0
C745 C 0.5067 0.56488 0.58184 0.0
C746 C 0.52912 0.55792 0.56403 0.0
C747 C 0.54186 0.53591 0.57307 0.0
C748 C 0.5114 0.59166 0.59553 0.0
C749 C 0.47993 0.56175 0.56792 0.0
C750 C 0.62174 0.48827 0.54151 0.0
C751 C 0.6376 0.49059 0.51937 0.0
C752 C 0.63258 0.51082 0.50185 0.0
C753 C 0.6122 0.52811 0.50616 0.0
C754 C 0.59629 0.52514 0.5281 0.0
C755 C 0.60107 0.50529 0.54519 0.0
C756 C 0.58127 0.50397 0.56659 0.0
C757 C 0.56407 0.52657 0.55981 0.0
C758 C 0.57311 0.53915 0.53741 0.0
C759 C 0.59569 0.50876 0.59275 0.0
C760 C 0.56637 0.4773 0.5644 0.0
H761 H 0.4935 0.60658 0.54628 0.0
H762 H 0.55629 0.62353 0.47518 0.0
H763 H 0.54297 0.56331 0.47261 0.0
H764 H 0.56916 0.54342 0.48012 0.0
H765 H 0.57522 0.57376 0.46356 0.0
H766 H 0.59305 0.60718 0.52558 0.0
H767 H 0.59924 0.60392 0.4914 0.0
H768 H 0.60946 0.57961 0.51377 0.0
H769 H 0.47683 0.55453 0.62713 0.0
H770 H 0.51749 0.48422 0.64539 0.0
H771 H 0.54641 0.49133 0.60954 0.0
H772 H 0.52819 0.59089 0.60919 0.0
H773 H 0.49405 0.59733 0.60689 0.0
H774 H 0.51632 0.60743 0.58195 0.0
H775 H 0.4722 0.54131 0.56871 0.0
H776 H 0.48112 0.5659 0.54694 0.0
H777 H 0.46523 0.57448 0.577 0.0
H778 H 0.48607 0.64172 0.51713 0.0
C779 C 0.50757 0.60973 0.53126 0.0
C780 C 0.53412 0.40653 0.04336 0.0
C781 C 0.51129 0.39074 0.04182 0.0
C782 C 0.49229 0.39671 0.02307 0.0
C783 C 0.51979 0.43201 1.00678 0.0
C784 C 0.53784 0.42703 0.02593 0.0
C785 C 0.56067 0.44602 0.02558 0.0
H786 H 0.62612 0.54431 0.96625 0.0
C787 C 0.53009 0.45399 0.99114 0.0
C788 C 0.55398 0.46237 1.00226 0.0
H789 H 0.64472 0.50893 0.03935 0.0
H790 H 0.60655 0.48049 0.03527 0.0
H791 H 0.56802 0.55146 0.97768 0.0
H792 H 0.60657 0.4905 0.93598 0.0
H793 H 0.57858 0.49808 0.91816 0.0
H794 H 0.60353 0.52291 0.92388 0.0
H795 H 0.57883 0.5554 0.94487 0.0
H796 H 0.54699 0.54188 0.95214 0.0
C797 C 0.56069 0.46227 0.05124 0.0
C798 C 0.58572 0.43048 0.02108 0.0
C799 C 0.48211 0.4818 0.90952 0.0
C800 C 0.48859 0.49955 0.88987 0.0
C801 C 0.51198 0.51433 0.89188 0.0
C802 C 0.52872 0.51159 0.91318 0.0
C803 C 0.52225 0.49352 0.93254 0.0
C804 C 0.4993 0.47893 0.93051 0.0
C805 C 0.49627 0.45991 0.9524 0.0
C806 C 0.521 0.46574 0.96803 0.0
C807 C 0.53604 0.48553 0.95631 0.0
C808 C 0.47153 0.46676 0.96786 0.0
C809 C 0.49575 0.43197 0.94054 0.0
C810 C 0.62206 0.53045 0.98137 0.0
C811 C 0.63852 0.52892 1.00315 0.0
C812 C 0.6323 0.5106 0.02244 0.0
C813 C 0.61012 0.49413 0.02004 0.0
C814 C 0.59372 0.49616 0.99826 0.0
C815 C 0.59974 0.51428 0.97951 0.0
C816 C 0.57948 0.5147 0.95835 0.0
C817 C 0.56007 0.49412 0.9677 0.0
C818 C 0.56878 0.48292 0.99077 0.0
C819 C 0.56772 0.54226 0.95798 0.0
C820 C 0.59256 0.50631 0.93261 0.0
H821 H 0.48137 0.42041 0.99159 0.0
H822 H 0.54906 0.40283 0.05763 0.0
H823 H 0.58264 0.41573 1.00523 0.0
H824 H 0.60243 0.44284 0.01506 0.0
H825 H 0.59131 0.41999 0.03889 0.0
H826 H 0.54086 0.46309 0.05977 0.0
H827 H 0.57367 0.45379 0.06602 0.0
H828 H 0.56653 0.48293 0.04831 0.0
H829 H 0.46443 0.46987 0.90814 0.0
H830 H 0.51733 0.52799 0.87685 0.0
H831 H 0.54619 0.5235 0.91362 0.0
H832 H 0.46893 0.48824 0.96866 0.0
H833 H 0.45381 0.45774 0.95869 0.0
H834 H 0.47253 0.46086 0.98836 0.0
H835 H 0.51033 0.43036 0.92472 0.0
H836 H 0.50096 0.41695 0.95457 0.0
H837 H 0.4763 0.42685 0.93213 0.0
H838 H 0.47402 0.38574 0.02202 0.0
C839 C 0.49648 0.41707 1.0055 0.0
C840 C 0.77658 0.14122 0.3175 0.0
C841 C 0.77596 0.1227 0.29716 0.0
C842 C 0.75574 0.1232 0.27862 0.0
C843 C 0.73752 0.16083 0.30041 0.0
C844 C 0.75709 0.15987 0.31889 0.0
C845 C 0.75424 0.18028 0.33989 0.0
H846 H 0.69766 0.28986 0.38377 0.0
C847 C 0.72084 0.18311 0.30709 0.0
C848 C 0.73056 0.19452 0.33025 0.0
H849 H 0.75558 0.24401 0.42201 0.0
H850 H 0.75382 0.21262 0.38692 0.0
H851 H 0.66105 0.23895 0.36984 0.0
H852 H 0.71716 0.28276 0.32515 0.0
H853 H 0.6901 0.27564 0.305 0.0
H854 H 0.68609 0.29536 0.33394 0.0
H855 H 0.65445 0.27067 0.35757 0.0
H856 H 0.6483 0.24143 0.33836 0.0
C857 C 0.74888 0.16629 0.36592 0.0
C858 C 0.77907 0.19802 0.34009 0.0
C859 C 0.64478 0.20608 0.24849 0.0
C860 C 0.62758 0.22696 0.2487 0.0
C861 C 0.63038 0.2466 0.26795 0.0
C862 C 0.64973 0.24527 0.28712 0.0
C863 C 0.66665 0.22414 0.28695 0.0
C864 C 0.66433 0.20523 0.26758 0.0
C865 C 0.68498 0.18501 0.26975 0.0
C866 C 0.69931 0.19427 0.29422 0.0
C867 C 0.68837 0.21715 0.30426 0.0
C868 C 0.67136 0.15803 0.27333 0.0
C869 C 0.70246 0.18685 0.24539 0.0
C870 C 0.70986 0.27298 0.38463 0.0
C871 C 0.7276 0.27007 0.40524 0.0
C872 C 0.74267 0.24747 0.40583 0.0
C873 C 0.74143 0.22903 0.38553 0.0
C874 C 0.72449 0.23277 0.36456 0.0
C875 C 0.70846 0.25399 0.36472 0.0
C876 C 0.69016 0.25347 0.34179 0.0
C877 C 0.69827 0.22871 0.32767 0.0
C878 C 0.71878 0.21703 0.34087 0.0
C879 C 0.66194 0.2512 0.35221 0.0
C880 C 0.69589 0.27812 0.32557 0.0
H881 H 0.72174 0.14163 0.26534 0.0
H882 H 0.7917 0.14092 0.3322 0.0
H883 H 0.7842 0.20386 0.32 0.0
H884 H 0.7768 0.21634 0.35122 0.0
H885 H 0.79589 0.18767 0.34829 0.0
H886 H 0.74131 0.14595 0.36278 0.0
H887 H 0.76687 0.16525 0.37786 0.0
H888 H 0.73358 0.17588 0.37747 0.0
H889 H 0.64317 0.19091 0.23366 0.0
H890 H 0.61727 0.26283 0.26834 0.0
H891 H 0.65074 0.26074 0.30137 0.0
H892 H 0.65408 0.15973 0.28614 0.0
H893 H 0.66457 0.14964 0.25441 0.0
H894 H 0.68393 0.1439 0.28293 0.0
H895 H 0.7051 0.20747 0.2393 0.0
H896 H 0.72238 0.18008 0.24878 0.0
H897 H 0.69366 0.17566 0.22878 0.0
H898 H 0.75497 0.109 0.26283 0.0
C899 C 0.73658 0.1422 0.28008 0.0
C900 C 0.40211 1.00312 1.0032 0.0
C901 C 0.39552 0.97941 0.99059 0.0
C902 C 0.41251 0.96938 0.97171 0.0
C903 C 0.44142 1.00732 0.97721 0.0
C904 C 0.42514 0.01654 0.99641 0.0
C905 C 0.43504 0.04187 1.00821 0.0
H906 H 0.52712 0.13837 0.01623 0.0
C907 C 0.46335 0.02645 0.97439 0.0
C908 C 0.45982 0.04652 0.99282 0.0
H909 H 0.45532 0.13 0.05905 0.0
H910 H 0.44461 0.09039 0.0361 0.0
H911 H 0.50139 0.12597 0.96326 0.0
H912 H 0.54244 0.07563 0.01419 0.0
H913 H 0.55355 0.07035 0.98221 0.0
H914 H 0.55735 0.10227 0.99702 0.0
H915 H 0.53619 0.12433 0.96263 0.0
H916 H 0.5157 0.10275 0.94292 0.0
C917 C 0.4146 0.06297 1.003 0.0
C918 C 0.44079 0.03725 0.03732 0.0
C919 C 0.52839 0.01761 0.90028 0.0
C920 C 0.54916 0.03389 0.8921 0.0
C921 C 0.55688 0.05551 0.90776 0.0
C922 C 0.54361 0.06152 0.93066 0.0
C923 C 0.5221 0.04594 0.93799 0.0
C924 C 0.51505 0.02409 0.92322 0.0
C925 C 0.4914 0.01012 0.93413 0.0
C926 C 0.48484 0.02788 0.95702 0.0
C927 C 0.50302 0.04879 0.95918 0.0
C928 C 0.4697 0.0095 0.91318 0.0
C929 C 0.49958 0.98282 0.94305 0.0
C930 C 0.50925 0.12779 0.02079 0.0
C931 C 0.4923 0.13729 0.03998 0.0
C932 C 0.46892 0.12321 0.04473 0.0
C933 C 0.46266 0.10004 0.03128 0.0
C934 C 0.47974 0.0907 0.01236 0.0
C935 C 0.5024 0.10468 1.00703 0.0
C936 C 0.51704 0.09261 0.98476 0.0
C937 C 0.49984 0.06867 0.9784 0.0
C938 C 0.47819 0.06763 0.99485 0.0
C939 C 0.51788 0.11234 0.9622 0.0
C940 C 0.54414 0.08488 0.99485 0.0
H941 H 0.44732 0.97485 0.95007 0.0
H942 H 0.38952 0.01111 0.01797 0.0
H943 H 0.44915 0.01768 0.04013 0.0
H944 H 0.45544 0.05113 0.04565 0.0
H945 H 0.42271 0.03815 0.04902 0.0
H946 H 0.40368 0.05874 0.98465 0.0
H947 H 0.40015 0.06398 0.01893 0.0
H948 H 0.42353 0.08257 1.0002 0.0
H949 H 0.52198 1.00097 0.88851 0.0
H950 H 0.57294 0.06817 0.90189 0.0
H951 H 0.55026 0.07845 0.94147 0.0
H952 H 0.46839 0.02887 0.90389 0.0
H953 H 0.47375 0.99485 0.89772 0.0
H954 H 0.45019 1.0052 0.92109 0.0
H955 H 0.52008 0.98329 0.95015 0.0
H956 H 0.488 0.97569 0.95965 0.0
H957 H 0.49811 0.96831 0.92685 0.0
H958 H 0.40772 0.95112 0.96175 0.0
C959 C 0.43538 0.98323 0.96489 0.0
Mn960 Mn 0.26107 0.87908 0.0168 0.0
Mn961 Mn 0.26006 0.90204 0.9556 0.0
C962 C 0.24212 0.8544 0.98337 0.0
C963 C 0.28022 0.85581 0.05035 0.0
C964 C 0.22522 0.92204 0.99848 0.0
O965 O 0.28978 0.90767 0.01749 0.0
O966 O 0.28889 0.91965 0.97536 0.0
C967 C 0.31001 0.88185 0.93638 0.0
N968 N 0.28365 0.8832 0.93421 0.0
C969 C 0.28316 0.85526 0.89623 0.0
C970 C 0.31032 0.85369 0.89797 0.0
C971 C 0.32379 0.86701 0.91815 0.0
C972 C 0.27049 0.8705 0.91485 0.0
H973 H 0.32043 0.89195 0.95193 0.0
C974 C 0.29842 0.92101 0.99839 0.0
O975 O 0.2633 0.87363 0.05494 0.0
O976 O 0.28684 0.8522 0.02629 0.0
N977 N 0.23313 0.886 0.93454 0.0
C978 C 0.20684 0.88812 0.93663 0.0
C979 C 0.19044 0.87515 0.91847 0.0
C980 C 0.20124 0.86019 0.89834 0.0
C981 C 0.22836 0.85845 0.89648 0.0
C982 C 0.24373 0.872 0.915 0.0
H983 H 0.19842 0.89946 0.95215 0.0
O984 O 0.23531 0.85039 1.00724 0.0
O985 O 0.25934 0.87295 0.97989 0.0
O986 O 0.2324 0.90622 0.01578 0.0
O987 O 0.23476 0.92261 0.97566 0.0
C988 C 0.24072 0.84336 0.8773 0.0
C989 C 0.26809 0.84177 0.87717 0.0
H990 H 0.321 0.8421 0.88408 0.0
H991 H 0.34473 0.86578 0.9197 0.0
H992 H 0.16953 0.87651 0.92009 0.0
H993 H 0.18852 0.84994 0.88457 0.0
H994 H 0.22933 0.83257 0.8628 0.0
H995 H 0.27734 0.82977 0.86258 0.0
Mn996 Mn 0.14899 0.50813 0.26071 0.0
Mn997 Mn 0.1222 0.56743 0.25583 0.0
C998 C 0.17054 0.5414 0.23878 0.0
C999 C 0.17543 0.47812 0.28128 0.0
C1000 C 0.104 0.52029 0.22391 0.0
O1001 O 0.12151 0.50769 0.28964 0.0
O1002 O 0.10695 0.54853 0.28563 0.0
C1003 C 0.14287 0.59171 0.30445 0.0
N1004 N 0.14036 0.59192 0.27813 0.0
C1005 C 0.16534 0.63214 0.27558 0.0
C1006 C 0.16807 0.63242 0.30268 0.0
C1007 C 0.15683 0.61209 0.31716 0.0
C1008 C 0.15111 0.61137 0.264 0.0
H1009 H 0.13433 0.57609 0.31565 0.0
C1010 C 0.10713 0.52646 0.29698 0.0
O1011 O 0.15682 0.47065 0.26555 0.0
O1012 O 0.17783 0.50298 0.28614 0.0
N1013 N 0.1357 0.58784 0.22789 0.0
C1014 C 0.13238 0.58397 0.20184 0.0
C1015 C 0.14303 0.60224 0.18456 0.0
C1016 C 0.15683 0.62433 0.19422 0.0
C1017 C 0.15976 0.62802 0.22111 0.0
C1018 C 0.14853 0.60928 0.23739 0.0
H1019 H 0.12184 0.567 0.19429 0.0
O1020 O 0.17578 0.51722 0.23382 0.0
O1021 O 0.15279 0.54531 0.25615 0.0
O1022 O 0.12072 0.50467 0.23261 0.0
O1023 O 0.10237 0.54394 0.23166 0.0
C1024 C 0.17378 0.64933 0.23236 0.0
C1025 C 0.17661 0.65136 0.25958 0.0
H1026 H 0.17895 0.64803 0.31254 0.0
H1027 H 0.15896 0.61211 0.33806 0.0
H1028 H 0.14072 0.59922 0.16383 0.0
H1029 H 0.16525 0.63822 0.18082 0.0
H1030 H 0.1828 0.66405 0.22025 0.0
H1031 H 0.18776 0.66762 0.26798 0.0
Mn1032 Mn 0.76394 0.62804 0.01405 0.0
Mn1033 Mn 0.70927 0.65061 0.9865 0.0
C1034 C 0.72561 0.60308 0.01482 0.0
C1035 C 0.80328 0.60611 0.0118 0.0
C1036 C 0.73155 0.67124 0.03772 0.0
O1037 O 0.77733 0.65768 0.99097 0.0
O1038 O 0.74007 0.66751 0.97009 0.0
C1039 C 0.71401 0.62933 0.93305 0.0
N1040 N 0.70041 0.63126 0.95559 0.0
C1041 C 0.66432 0.60621 0.93746 0.0
C1042 C 0.67789 0.60402 0.91399 0.0
C1043 C 0.70291 0.6155 0.91184 0.0
C1044 C 0.67649 0.62003 0.95799 0.0
H1045 H 0.73313 0.63838 0.93126 0.0
C1046 C 0.76465 0.6701 0.97391 0.0
O1047 O 0.79915 0.62382 0.02942 0.0
O1048 O 0.78485 0.6016 0.99485 0.0
N1049 N 0.67796 0.63577 1.00058 0.0
C1050 C 0.66768 0.63931 0.02468 0.0
C1051 C 0.643 0.62846 0.03027 0.0
C1052 C 0.62896 0.61449 0.01091 0.0
C1053 C 0.6398 0.61146 0.98614 0.0
C1054 C 0.66455 0.62246 0.98178 0.0
H1055 H 0.67824 0.65031 0.03953 0.0
O1056 O 0.74413 0.59895 0.03137 0.0
O1057 O 0.73019 0.62146 0.99825 0.0
O1058 O 0.74948 0.65472 0.03975 0.0
O1059 O 0.71614 0.67198 0.01825 0.0
C1060 C 0.62693 0.59799 0.9656 0.0
C1061 C 0.63926 0.59519 0.94132 0.0
H1062 H 0.66935 0.59344 0.89756 0.0
H1063 H 0.71353 0.61383 0.89383 0.0
H1064 H 0.63475 0.63096 0.04941 0.0
H1065 H 0.60992 0.6062 0.01526 0.0
H1066 H 0.60765 0.58952 0.96835 0.0
H1067 H 0.62929 0.58444 0.92579 0.0
Mn1068 Mn 0.88143 0.01357 0.26141 0.0
Mn1069 Mn 0.90595 0.95306 0.25936 0.0
C1070 C 0.85856 0.9795 0.24114 0.0
C1071 C 0.85533 0.04553 0.28002 0.0
C1072 C 0.92591 0.99704 0.22565 0.0
O1073 O 0.90852 0.01497 0.2908 0.0
O1074 O 0.92279 0.97358 0.28815 0.0
C1075 C 0.88537 0.93344 0.30917 0.0
N1076 N 0.88716 0.93117 0.28287 0.0
C1077 C 0.85928 0.89272 0.28226 0.0
C1078 C 0.8573 0.89454 0.30936 0.0
C1079 C 0.87039 0.91501 0.32286 0.0
C1080 C 0.87472 0.9115 0.26969 0.0
H1081 H 0.89523 0.94924 0.31961 0.0
C1082 C 0.92277 0.99645 0.29857 0.0
O1083 O 0.87437 0.05161 0.26458 0.0
O1084 O 0.85269 0.02115 0.28605 0.0
N1085 N 0.89073 0.93133 0.23248 0.0
C1086 C 0.89314 0.93344 0.20627 0.0
C1087 C 0.88037 0.91505 0.18987 0.0
C1088 C 0.86529 0.89471 0.20057 0.0
C1089 C 0.86323 0.89285 0.22761 0.0
C1090 C 0.87662 0.91158 0.243 0.0
H1091 H 0.9045 0.94918 0.19792 0.0
O1092 O 0.85449 1.00339 0.2346 0.0
O1093 O 0.87636 0.97639 0.25869 0.0
O1094 O 0.91006 0.01409 0.23367 0.0
O1095 O 0.92632 0.9738 0.23413 0.0
C1096 C 0.84791 0.87352 0.23988 0.0
C1097 C 0.84596 0.87344 0.26719 0.0
H1098 H 0.84555 0.88052 0.31998 0.0
H1099 H 0.86881 0.91664 0.34376 0.0
H1100 H 0.88195 0.91669 0.16902 0.0
H1101 H 0.85516 0.88078 0.18785 0.0
H1102 H 0.83721 0.85887 0.22848 0.0
H1103 H 0.8338 0.85872 0.27637 0.0
Mn1104 Mn 0.26144 0.13069 0.51207 0.0
Mn1105 Mn 0.20577 0.15212 0.48565 0.0
C1106 C 0.22289 0.10607 0.51512 0.0
C1107 C 0.30016 0.10771 0.51139 0.0
C1108 C 0.22948 0.17474 0.53542 0.0
O1109 O 0.27454 0.15892 0.48687 0.0
O1110 O 0.23619 0.16842 0.46813 0.0
C1111 C 0.2101 0.12763 0.43344 0.0
N1112 N 0.19634 0.13163 0.45561 0.0
C1113 C 0.15966 0.10654 0.43874 0.0
C1114 C 0.17313 0.10282 0.41541 0.0
C1115 C 0.19857 0.11317 0.41286 0.0
C1116 C 0.17223 0.12102 0.4586 0.0
H1117 H 0.22976 0.13523 0.43161 0.0
C1118 C 0.26102 0.17091 0.47002 0.0
O1119 O 0.29638 0.1267 0.52769 0.0
O1120 O 0.28206 0.10291 0.49413 0.0
N1121 N 0.17466 0.13789 0.50073 0.0
C1122 C 0.16475 0.14241 0.52484 0.0
C1123 C 0.13996 0.13224 0.53106 0.0
C1124 C 0.12538 0.11801 0.51228 0.0
C1125 C 0.1358 0.11402 0.48747 0.0
C1126 C 0.16068 0.12439 0.48247 0.0
H1127 H 0.1757 0.15367 0.53923 0.0
O1128 O 0.24175 0.10277 0.53146 0.0
O1129 O 0.22714 0.12349 0.49755 0.0
O1130 O 0.24799 0.15879 0.53669 0.0
O1131 O 0.21308 0.17443 0.51674 0.0
C1132 C 0.12241 0.10019 0.46748 0.0
C1133 C 0.13442 0.09625 0.4432 0.0
H1134 H 0.1643 0.09167 0.3995 0.0
H1135 H 0.20928 0.10997 0.39511 0.0
H1136 H 0.13202 0.13551 0.55023 0.0
H1137 H 0.10625 0.11024 0.51712 0.0
H1138 H 0.10302 0.09217 0.47072 0.0
H1139 H 0.12413 0.08507 0.42817 0.0
Mn1140 Mn 0.38069 0.51426 0.76168 0.0
Mn1141 Mn 0.40485 0.45356 0.76002 0.0
C1142 C 0.3571 0.47998 0.74259 0.0
C1143 C 0.35578 0.54708 0.78039 0.0
C1144 C 0.42423 0.49688 0.72523 0.0
O1145 O 0.40844 0.51594 0.79042 0.0
O1146 O 0.42251 0.47447 0.78808 0.0
C1147 C 0.38669 0.43395 0.81075 0.0
N1148 N 0.38676 0.43201 0.78435 0.0
C1149 C 0.35935 0.39326 0.78504 0.0
C1150 C 0.35913 0.39474 0.81224 0.0
C1151 C 0.37282 0.41521 0.82513 0.0
C1152 C 0.37375 0.41233 0.77175 0.0
H1153 H 0.39717 0.44963 0.82076 0.0
C1154 C 0.42279 0.49749 0.79817 0.0
O1155 O 0.37442 0.5524 0.76425 0.0
O1156 O 0.35257 0.52284 0.78681 0.0
N1157 N 0.38875 0.43158 0.73385 0.0
C1158 C 0.3907 0.43311 0.70755 0.0
C1159 C 0.37758 0.41442 0.69175 0.0
C1160 C 0.36266 0.39435 0.70315 0.0
C1161 C 0.36112 0.39307 0.73027 0.0
C1162 C 0.37474 0.41214 0.74502 0.0
H1163 H 0.40204 0.44856 0.69869 0.0
O1164 O 0.35306 0.50378 0.7357 0.0
O1165 O 0.37531 0.47705 0.75977 0.0
O1166 O 0.40866 0.5141 0.73335 0.0
O1167 O 0.42468 0.47377 0.73399 0.0
C1168 C 0.34635 0.37379 0.74323 0.0
C1169 C 0.34553 0.37384 0.77059 0.0
H1170 H 0.34829 0.38045 0.8234 0.0
H1171 H 0.37262 0.41657 0.84611 0.0
H1172 H 0.37884 0.41557 0.67084 0.0
H1173 H 0.35237 0.38012 0.69091 0.0
H1174 H 0.33544 0.35891 0.73233 0.0
H1175 H 0.33404 0.35897 0.78034 0.0
Mn1176 Mn 0.75965 0.37782 0.51611 0.0
Mn1177 Mn 0.75753 0.40047 0.45484 0.0
C1178 C 0.7405 0.35282 0.48304 0.0
C1179 C 0.77935 0.35476 0.5495 0.0
C1180 C 0.72283 0.42014 0.49789 0.0
O1181 O 0.78833 0.40635 0.51624 0.0
O1182 O 0.7861 0.41888 0.47435 0.0
C1183 C 0.808 0.38244 0.43472 0.0
N1184 N 0.7815 0.38215 0.43342 0.0
C1185 C 0.7815 0.35411 0.39552 0.0
C1186 C 0.80879 0.35422 0.39638 0.0
C1187 C 0.82209 0.36841 0.4161 0.0
C1188 C 0.76853 0.36864 0.41446 0.0
H1189 H 0.81833 0.39334 0.4498 0.0
C1190 C 0.79625 0.42009 0.49713 0.0
O1191 O 0.76272 0.3728 0.5543 0.0
O1192 O 0.78534 0.35079 0.52533 0.0
N1193 N 0.73088 0.38352 0.4341 0.0
C1194 C 0.70453 0.38521 0.43614 0.0
C1195 C 0.68837 0.37169 0.41816 0.0
C1196 C 0.69944 0.35668 0.39822 0.0
C1197 C 0.7266 0.35537 0.39641 0.0
C1198 C 0.74173 0.36934 0.41483 0.0
H1199 H 0.69592 0.39667 0.45145 0.0
O1200 O 0.73384 0.34903 0.507 0.0
O1201 O 0.75748 0.37153 0.4793 0.0
O1202 O 0.73092 0.40494 0.51535 0.0
O1203 O 0.73179 0.42052 0.47485 0.0
C1204 C 0.73924 0.34053 0.37723 0.0
C1205 C 0.76667 0.33992 0.37677 0.0
H1206 H 0.81972 0.34328 0.38217 0.0
H1207 H 0.84314 0.3685 0.41697 0.0
H1208 H 0.66742 0.37277 0.41971 0.0
H1209 H 0.6869 0.34613 0.3845 0.0
H1210 H 0.72805 0.32942 0.36281 0.0
H1211 H 0.77616 0.32836 0.36199 0.0
Mn1212 Mn 0.6466 0.00882 0.75833 0.0
Mn1213 Mn 0.62452 0.07011 0.75407 0.0
C1214 C 0.67042 0.04065 0.7365 0.0
C1215 C 0.67129 0.97689 0.7782 0.0
C1216 C 0.60327 0.02503 0.72087 0.0
O1217 O 0.61972 0.00996 0.78762 0.0
O1218 O 0.60689 0.05126 0.78277 0.0
C1219 C 0.64511 0.09097 0.80424 0.0
N1220 N 0.64337 0.09252 0.77793 0.0
C1221 C 0.67022 0.13167 0.7779 0.0
C1222 C 0.67216 0.13057 0.80502 0.0
C1223 C 0.6596 0.1101 0.81823 0.0
C1224 C 0.65542 0.11211 0.76501 0.0
H1225 H 0.63553 0.07526 0.8145 0.0
C1226 C 0.60596 0.02935 0.79445 0.0
O1227 O 0.652 0.97073 0.76275 0.0
O1228 O 0.67528 1.00154 0.78321 0.0
N1229 N 0.6403 0.09081 0.72749 0.0
C1230 C 0.63832 0.08789 0.70122 0.0
C1231 C 0.65019 0.1065 0.68511 0.0
C1232 C 0.66412 0.12785 0.69615 0.0
C1233 C 0.66617 0.1303 0.72322 0.0
C1234 C 0.65359 0.11136 0.73831 0.0
H1235 H 0.62824 0.0712 0.69262 0.0
O1236 O 0.67353 0.01614 0.73108 0.0
O1237 O 0.65332 0.0458 0.7542 0.0
O1238 O 0.61753 1.00769 0.73073 0.0
O1239 O 0.60433 0.04891 0.72828 0.0
C1240 C 0.68073 0.15048 0.73581 0.0
C1241 C 0.6828 0.15112 0.76313 0.0
H1242 H 0.68343 0.14522 0.81587 0.0
H1243 H 0.66111 0.10905 0.83914 0.0
H1244 H 0.64886 0.10424 0.66422 0.0
H1245 H 0.67348 0.14201 0.68365 0.0
H1246 H 0.69079 0.16531 0.72464 0.0
H1247 H 0.69441 0.16648 0.77256 0.0
Mn1248 Mn 0.01318 0.25569 0.87824 0.0
Mn1249 Mn 0.95277 0.25121 0.90375 0.0
C1250 C 0.97994 0.23394 0.85575 0.0
C1251 C 0.04458 0.27586 0.85209 0.0
C1252 C 0.99775 0.21938 0.92267 0.0
O1253 O 0.01365 0.28515 0.90558 0.0
O1254 O 0.97225 0.28114 0.92019 0.0
C1255 C 0.93135 0.30009 0.88381 0.0
N1256 N 0.93003 0.27363 0.88559 0.0
C1257 C 0.89125 0.27106 0.85919 0.0
C1258 C 0.8921 0.2983 0.85721 0.0
C1259 C 0.91226 0.31287 0.86955 0.0
C1260 C 0.91069 0.25942 0.87385 0.0
H1261 H 0.94688 0.31135 0.89314 0.0
C1262 C 0.99487 0.29233 0.92009 0.0
O1263 O 0.05105 0.26049 0.8707 0.0
O1264 O 0.02004 0.28083 0.84985 0.0
N1265 N 0.93201 0.22314 0.88902 0.0
C1266 C 0.93508 0.19696 0.89127 0.0
C1267 C 0.9171 0.17957 0.87917 0.0
C1268 C 0.89615 0.18926 0.86496 0.0
C1269 C 0.89331 0.21628 0.86305 0.0
C1270 C 0.91171 0.23267 0.8757 0.0
H1271 H 0.95124 0.1894 0.90202 0.0
O1272 O 1.00403 0.22844 0.85122 0.0
O1273 O 0.97611 0.25141 0.87374 0.0
O1274 O 0.01451 0.22785 0.90647 0.0
O1275 O 0.97434 0.22705 0.92361 0.0
C1276 C 0.8733 0.22759 0.84858 0.0
C1277 C 0.87227 0.25495 0.84666 0.0
H1278 H 0.87755 0.30822 0.84605 0.0
H1279 H 0.91313 0.33389 0.86798 0.0
H1280 H 0.91949 0.15874 0.88063 0.0
H1281 H 0.88251 0.17579 0.85539 0.0
H1282 H 0.85887 0.2154 0.83849 0.0
H1283 H 0.85705 0.2634 0.83513 0.0
Mn1284 Mn 0.51429 0.75591 0.37859 0.0
Mn1285 Mn 0.45332 0.75221 0.40289 0.0
C1286 C 0.4813 0.73431 0.35553 0.0
C1287 C 0.54692 0.77559 0.35357 0.0
C1288 C 0.49757 0.72004 0.42294 0.0
O1289 O 0.51436 0.78566 0.40565 0.0
O1290 O 0.47262 0.78226 0.41933 0.0
C1291 C 0.43267 0.80099 0.38189 0.0
N1292 N 0.4311 0.77456 0.38401 0.0
C1293 C 0.3927 0.77195 0.35708 0.0
C1294 C 0.3938 0.79916 0.35475 0.0
C1295 C 0.4139 0.81372 0.36717 0.0
C1296 C 0.41183 0.76035 0.37216 0.0
H1297 H 0.44815 0.81226 0.3913 0.0
C1298 C 0.49527 0.79337 0.41948 0.0
O1299 O 0.55238 0.76013 0.37241 0.0
O1300 O 0.52254 0.78073 0.35013 0.0
N1301 N 0.43264 0.7241 0.38811 0.0
C1302 C 0.43541 0.69793 0.3908 0.0
C1303 C 0.41743 0.68053 0.37873 0.0
C1304 C 0.39676 0.6902 0.3641 0.0
C1305 C 0.39422 0.71722 0.36173 0.0
C1306 C 0.41261 0.73362 0.37437 0.0
H1307 H 0.45134 0.69038 0.40191 0.0
O1308 O 0.50544 0.72855 0.35156 0.0
O1309 O 0.47727 0.75198 0.37328 0.0
O1310 O 0.51464 0.72824 0.40695 0.0
O1311 O 0.47427 0.72805 0.42351 0.0
C1312 C 0.37449 0.72849 0.34686 0.0
C1313 C 0.37373 0.75583 0.34453 0.0
H1314 H 0.37948 0.80904 0.34325 0.0
H1315 H 0.41496 0.83472 0.36534 0.0
H1316 H 0.41959 0.65971 0.38055 0.0
H1317 H 0.38311 0.67671 0.35458 0.0
H1318 H 0.36006 0.71629 0.33679 0.0
H1319 H 0.35873 0.76424 0.33269 0.0
Mn1320 Mn 0.01148 0.76093 0.63541 0.0
Mn1321 Mn 0.98669 0.70457 0.65929 0.0
C1322 C 0.013 0.72218 0.61118 0.0
C1323 C 0.00896 0.7995 0.61193 0.0
C1324 C 0.03802 0.72914 0.67758 0.0
O1325 O 0.98748 0.77386 0.66458 0.0
O1326 O 0.97088 0.73486 0.67677 0.0
C1327 C 0.93219 0.70831 0.64105 0.0
N1328 N 0.95476 0.695 0.64214 0.0
C1329 C 0.93507 0.65794 0.61979 0.0
C1330 C 0.91156 0.67118 0.61853 0.0
C1331 C 0.91018 0.69656 0.62904 0.0
C1332 C 0.95645 0.67082 0.6316 0.0
H1333 H 0.93098 0.72769 0.64938 0.0
C1334 C 0.97197 0.75982 0.67829 0.0
O1335 O 0.02657 0.79638 0.62961 0.0
O1336 O 0.99176 0.7807 0.60868 0.0
N1337 N 1.0001 0.67357 0.64381 0.0
C1338 C 0.02452 0.66398 0.64556 0.0
C1339 C 0.02945 0.63912 0.63518 0.0
C1340 C 0.00915 0.62424 0.6235 0.0
C1341 C 0.98411 0.63441 0.62222 0.0
C1342 C 0.98044 0.65941 0.63261 0.0
H1343 H 0.04015 0.67526 0.65466 0.0
O1344 O 0.02933 0.74127 0.60667 0.0
O1345 O 0.99652 0.72622 0.62971 0.0
O1346 O 0.03777 0.74835 0.6622 0.0
O1347 O 0.01967 0.71196 0.67828 0.0
C1348 C 0.96262 0.62068 0.61114 0.0
C1349 C 0.93813 0.63248 0.60982 0.0
H1350 H 0.89448 0.6621 0.60948 0.0
H1351 H 0.89213 0.70694 0.62808 0.0
H1352 H 0.04884 0.63142 0.63626 0.0
H1353 H 0.01301 0.60505 0.61556 0.0
H1354 H 0.9648 0.60119 0.60316 0.0
H1355 H 0.92187 0.6219 0.60082 0.0
Mn1356 Mn 0.5113 0.26355 0.13465 0.0
Mn1357 Mn 0.48966 0.20638 0.15918 0.0
C1358 C 0.51415 0.2248 0.11052 0.0
C1359 C 0.5055 0.30164 0.11105 0.0
C1360 C 0.54023 0.2334 0.17641 0.0
O1361 O 0.48736 0.27532 0.1644 0.0
O1362 O 0.47247 0.2358 0.17691 0.0
C1363 C 0.43506 0.20771 0.14059 0.0
N1364 N 0.45809 0.19526 0.14218 0.0
C1365 C 0.44003 0.15732 0.12001 0.0
C1366 C 0.41591 0.16944 0.11875 0.0
C1367 C 0.4135 0.19488 0.12881 0.0
C1368 C 0.46089 0.17122 0.13165 0.0
H1369 H 0.43322 0.22732 0.14813 0.0
C1370 C 0.47258 0.26075 0.17836 0.0
O1371 O 0.52375 0.30004 0.12837 0.0
O1372 O 0.48982 0.28152 0.10823 0.0
N1373 N 0.50448 0.17613 0.1436 0.0
C1374 C 0.52936 0.16769 0.14533 0.0
C1375 C 0.53545 0.14318 0.13482 0.0
C1376 C 0.51581 0.12737 0.12316 0.0
C1377 C 0.49027 0.1363 0.122 0.0
C1378 C 0.48544 0.16105 0.13244 0.0
H1379 H 0.54443 0.17956 0.15467 0.0
O1380 O 0.52939 0.24462 0.10544 0.0
O1381 O 0.49813 0.22824 0.12952 0.0
O1382 O 0.53887 0.2524 0.16084 0.0
O1383 O 0.52253 0.21555 0.17774 0.0
C1384 C 0.46937 0.12155 0.11105 0.0
C1385 C 0.44425 0.13205 0.11009 0.0
H1386 H 0.39921 0.15954 0.10979 0.0
H1387 H 0.39507 0.20454 0.12755 0.0
H1388 H 0.55519 0.13638 0.13589 0.0
H1389 H 0.52055 0.10841 0.11521 0.0
H1390 H 0.47245 0.10225 0.103 0.0
H1391 H 0.42842 0.12067 0.10126 0.0
C1392 C 0.25546 0.80359 0.93178 0.0
C1393 C 0.2305 0.79389 0.92476 0.0
C1394 C 0.25883 0.82303 0.95089 0.0
C1395 C 0.23739 0.8339 0.96346 0.0
H1396 H 0.27261 0.79646 0.92209 0.0
H1397 H 0.27844 0.82983 0.95568 0.0
S1398 S 0.16818 0.81398 0.95431 0.0
N1399 N 0.18399 0.79547 0.93346 0.0
N1400 N 0.19057 0.83244 0.96931 0.0
C1401 C 0.21241 0.82388 0.95749 0.0
C1402 C 0.20888 0.80398 0.93796 0.0
C1403 C 0.05963 0.5449 0.35004 0.0
C1404 C 0.06248 0.52543 0.36856 0.0
C1405 C 0.07318 0.54415 0.32659 0.0
C1406 C 0.09055 0.52403 0.32063 0.0
H1407 H 0.04722 0.56125 0.354 0.0
H1408 H 0.07047 0.56009 0.31337 0.0
S1409 S 0.10353 0.46735 0.36241 0.0
N1410 N 0.08254 0.48463 0.37923 0.0
N1411 N 0.10855 0.48319 0.33512 0.0
C1412 C 0.09273 0.50375 0.33867 0.0
C1413 C 0.07861 0.50448 0.36263 0.0
C1414 C 0.79032 0.70593 0.91562 0.0
C1415 C 0.7925 0.73183 0.92502 0.0
C1416 C 0.78292 0.68547 0.93205 0.0
C1417 C 0.77813 0.69016 0.95851 0.0
H1418 H 0.79294 0.70168 0.89515 0.0
H1419 H 0.77985 0.66606 0.9238 0.0
S1420 S 0.78303 0.75388 0.99315 0.0
N1421 N 0.79065 0.76069 0.96282 0.0
N1422 N 0.77711 0.72208 0.99368 0.0
C1423 C 0.78148 0.71564 0.96842 0.0
C1424 C 0.78861 0.73654 0.95167 0.0
C1425 C 0.98175 0.99444 0.34262 0.0
C1426 C 0.97119 0.99921 0.36733 0.0
C1427 C 0.9661 0.9947 0.32024 0.0
C1428 C 0.93953 1.00051 0.3217 0.0
H1429 H 1.00207 0.98963 0.34069 0.0
H1430 H 0.97471 0.98981 0.30168 0.0
S1431 S 0.90276 0.01537 0.3816 0.0
N1432 N 0.9327 0.01038 0.39192 0.0
N1433 N 0.90344 0.01162 0.34969 0.0
C1434 C 0.92893 1.00618 0.34616 0.0
C1435 C 0.94473 1.00531 0.36903 0.0
C1436 C 0.24075 0.21065 0.59999 0.0
C1437 C 0.22416 0.23186 0.5984 0.0
C1438 C 0.24214 0.19226 0.57964 0.0
C1439 C 0.22707 0.19445 0.55682 0.0
H1440 H 0.25272 0.20826 0.61711 0.0
H1441 H 0.25519 0.17619 0.5819 0.0
S1442 S 0.18116 0.24753 0.54328 0.0
N1443 N 0.19272 0.25462 0.57258 0.0
N1444 N 0.19528 0.22036 0.53405 0.0
C1445 C 0.21039 0.21582 0.55513 0.0
C1446 C 0.20897 0.23445 0.57598 0.0
C1447 C 0.4507 0.51899 0.66027 0.0
C1448 C 0.47766 0.51482 0.66257 0.0
C1449 C 0.43358 0.51381 0.68088 0.0
C1450 C 0.44267 0.50381 0.70437 0.0
H1451 H 0.4426 0.52571 0.64221 0.0
H1452 H 0.41297 0.51691 0.67813 0.0
S1453 S 0.51134 0.49208 0.72179 0.0
N1454 N 0.51268 0.50253 0.69165 0.0
N1455 N 0.4802 0.49147 0.7296 0.0
C1456 C 0.46946 0.50003 0.70724 0.0
C1457 C 0.48701 0.50585 0.68655 0.0
C1458 C 0.8035 0.29493 0.58399 0.0
C1459 C 0.80371 0.30279 0.61026 0.0
C1460 C 0.79663 0.31224 0.56438 0.0
C1461 C 0.78915 0.33787 0.57036 0.0
H1462 H 0.80863 0.27522 0.5786 0.0
H1463 H 0.79639 0.30519 0.54444 0.0
S1464 S 0.78686 0.36796 0.63627 0.0
N1465 N 0.79647 0.33795 0.64125 0.0
N1466 N 0.78295 0.37031 0.60456 0.0
C1467 C 0.78953 0.34599 0.59658 0.0
C1468 C 0.79698 0.32851 0.61648 0.0
C1469 C 0.5651 0.98288 0.67141 0.0
C1470 C 0.5547 1.00121 0.65439 0.0
C1471 C 0.58031 0.99073 0.69301 0.0
C1472 C 0.58555 0.0173 0.69882 0.0
H1473 H 0.56147 0.9622 0.66805 0.0
H1474 H 0.58807 0.97575 0.70522 0.0
S1475 S 0.56311 0.07326 0.66023 0.0
N1476 N 0.55159 0.04724 0.64439 0.0
N1477 N 0.57845 0.06204 0.68575 0.0
C1478 C 0.57474 0.03588 0.68226 0.0
C1479 C 0.55979 0.02785 0.65991 0.0
C1480 C 0.92591 0.24137 0.80662 0.0
C1481 C 0.9206 0.2156 0.79799 0.0
C1482 C 0.94529 0.24701 0.8252 0.0
C1483 C 0.95978 0.22709 0.83622 0.0
H1484 H 0.91452 0.25729 0.79957 0.0
H1485 H 0.94872 0.26713 0.83128 0.0
S1486 S 0.95622 0.15702 0.8181 0.0
N1487 N 0.93361 0.17031 0.80005 0.0
N1488 N 0.96963 0.18114 0.83553 0.0
C1489 C 0.95574 0.2015 0.82695 0.0
C1490 C 0.93609 0.19567 0.80788 0.0
C1491 C 0.48585 0.84217 0.47429 0.0
C1492 C 0.4937 0.86588 0.46307 0.0
C1493 C 0.48774 0.81848 0.4605 0.0
C1494 C 0.49817 0.81761 0.43528 0.0
H1495 H 0.4771 0.8421 0.49339 0.0
H1496 H 0.48027 0.80078 0.46932 0.0
S1497 S 0.52281 0.87424 0.39797 0.0
N1498 N 0.51302 0.8871 0.42576 0.0
N1499 N 0.51735 0.84245 0.40009 0.0
C1500 C 0.50724 0.84107 0.42437 0.0
C1501 C 0.50477 0.86526 0.4382 0.0
C1502 C 0.10933 0.28864 0.81852 0.0
C1503 C 0.10173 0.29401 0.79295 0.0
C1504 C 0.09071 0.28371 0.83785 0.0
C1505 C 0.06385 0.2845 0.8324 0.0
H1506 H 0.12979 0.28732 0.82337 0.0
H1507 H 0.09742 0.27872 0.85706 0.0
S1508 S 0.03417 0.29962 0.76865 0.0
N1509 N 0.06585 0.30105 0.76334 0.0
N1510 N 0.03078 0.2924 0.7996 0.0
C1511 C 0.05611 0.291 0.80708 0.0
C1512 C 0.07507 0.29555 0.78736 0.0
C1513 C 0.52064 0.65592 0.44961 0.0
C1514 C 0.51643 0.65867 0.47656 0.0
C1515 C 0.51518 0.67613 0.43243 0.0
C1516 C 0.50484 0.69968 0.44145 0.0
H1517 H 0.52761 0.63777 0.44156 0.0
H1518 H 0.51831 0.67301 0.41184 0.0
S1519 S 0.49281 0.71829 0.51 0.0
N1520 N 0.50372 0.68833 0.51142 0.0
N1521 N 0.4921 0.72547 0.47887 0.0
C1522 C 0.501 0.70301 0.46821 0.0
C1523 C 0.50712 0.68274 0.48581 0.0
C1524 C 0.9164 0.76551 0.72609 0.0
C1525 C 0.919 0.79104 0.73601 0.0
C1526 C 0.93314 0.75623 0.70703 0.0
C1527 C 0.95352 0.77198 0.69694 0.0
H1528 H 0.90147 0.75233 0.73351 0.0
H1529 H 0.93017 0.73619 0.70052 0.0
S1530 S 0.96754 0.8412 0.71546 0.0
N1531 N 0.94242 0.83266 0.73369 0.0
N1532 N 0.97432 0.8152 0.69762 0.0
C1533 C 0.95573 0.79805 0.70597 0.0
C1534 C 0.93838 0.80758 0.72553 0.0
C1535 C 0.98893 0.85535 0.56868 0.0
C1536 C 0.0131 0.86613 0.5607 0.0
C1537 C 0.98755 0.83369 0.58516 0.0
C1538 C 0.01027 0.82235 0.59465 0.0
H1539 H 0.97094 0.86387 0.56238 0.0
H1540 H 0.9686 0.82606 0.59084 0.0
S1541 S 0.07819 0.84087 0.57728 0.0
N1542 N 0.06018 0.86171 0.56159 0.0
N1543 N 0.05751 0.82218 0.59345 0.0
C1544 C 0.03447 0.8326 0.58652 0.0
C1545 C 0.0359 0.85417 0.56935 0.0
C1546 C 0.09885 0.74727 0.71732 0.0
C1547 C 0.10341 0.72462 0.73151 0.0
C1548 C 0.07798 0.74837 0.69972 0.0
C1549 C 0.06053 0.72697 0.69581 0.0
H1550 H 0.11158 0.7643 0.71981 0.0
H1551 H 0.07534 0.76636 0.6894 0.0
S1552 S 0.06397 0.66307 0.72869 0.0
N1553 N 0.08891 0.68032 0.74069 0.0
N1554 N 0.04958 0.68225 0.7079 0.0
C1555 C 0.065 0.70413 0.70995 0.0
C1556 C 0.08644 0.70298 0.72766 0.0
C1557 C 0.97944 0.67541 0.56368 0.0
C1558 C 0.99907 0.65791 0.55677 0.0
C1559 C 0.98433 0.69621 0.58109 0.0
C1560 C 0.0091 0.70061 0.59213 0.0
H1561 H 0.95992 0.67288 0.55586 0.0
H1562 H 0.96847 0.70883 0.58617 0.0
S1563 S 0.06782 0.66215 0.5796 0.0
N1564 N 0.04471 0.64718 0.56216 0.0
N1565 N 0.05401 0.68735 0.59376 0.0
C1566 C 0.02932 0.68441 0.58443 0.0
C1567 C 0.02427 0.66276 0.56709 0.0
C1568 C 0.80718 0.92746 0.25376 0.0
C1569 C 0.79749 0.92095 0.22884 0.0
C1570 C 0.82695 0.94642 0.25735 0.0
C1571 C 0.83822 0.95927 0.23616 0.0
H1572 H 0.79969 0.91758 0.27071 0.0
H1573 H 0.83356 0.95098 0.27694 0.0
S1574 S 0.81877 0.95127 0.1672 0.0
N1575 N 0.79968 0.93033 0.18269 0.0
N1576 N 0.83735 0.96577 0.18966 0.0
C1577 C 0.82837 0.95368 0.21123 0.0
C1578 C 0.80809 0.93435 0.20749 0.0
C1579 C 0.82237 0.11048 0.29027 0.0
C1580 C 0.79638 0.10287 0.29512 0.0
C1581 C 0.84159 0.09183 0.28625 0.0
C1582 C 0.83559 0.06492 0.28752 0.0
H1583 H 0.82768 0.13098 0.28874 0.0
H1584 H 0.86118 0.09854 0.28167 0.0
S1585 S 0.77048 0.0352 0.30126 0.0
N1586 N 0.76572 0.06693 0.30193 0.0
N1587 N 0.80173 0.03182 0.29505 0.0
C1588 C 0.80978 0.05719 0.29339 0.0
C1589 C 0.79019 0.07617 0.29698 0.0
C1590 C 0.36975 0.93979 1.0045 0.0
C1591 C 0.37035 0.96578 0.99607 0.0
C1592 C 0.34599 0.92593 1.0075 0.0
C1593 C 0.32218 0.93749 1.00169 0.0
H1594 H 0.38777 0.92995 1.00818 0.0
H1595 H 0.34636 0.9056 0.01288 0.0
S1596 S 0.31315 1.00516 0.97984 0.0
N1597 N 0.34501 1.00281 0.98313 0.0
N1598 N 0.30054 0.97649 0.98797 0.0
C1599 C 0.32251 0.96364 0.994 0.0
C1600 C 0.34657 0.97787 0.99143 0.0
C1601 C 0.24053 0.45102 0.30125 0.0
C1602 C 0.23549 0.42395 0.30155 0.0
C1603 C 0.22061 0.46851 0.2961 0.0
C1604 C 0.19502 0.45953 0.2905 0.0
H1605 H 0.26009 0.45871 0.30473 0.0
H1606 H 0.22558 0.48914 0.29543 0.0
S1607 S 0.1716 0.39047 0.28986 0.0
N1608 N 0.20293 0.38901 0.29686 0.0
N1609 N 0.16561 0.42175 0.28664 0.0
C1610 C 0.18964 0.43252 0.29135 0.0
C1611 C 0.20983 0.41477 0.29702 0.0
C1612 C 0.16287 0.06525 0.53229 0.0
C1613 C 0.15791 0.05076 0.50923 0.0
C1614 C 0.18425 0.08284 0.53437 0.0
C1615 C 0.20095 0.08699 0.51325 0.0
H1616 H 0.14982 0.06343 0.54866 0.0
H1617 H 0.18724 0.09387 0.55228 0.0
S1618 S 0.19956 0.05061 0.45057 0.0
N1619 N 0.17377 0.03932 0.46624 0.0
N1620 N 0.21343 0.07281 0.47003 0.0
C1621 C 0.19704 0.07177 0.49064 0.0
C1622 C 0.17555 0.05367 0.4886 0.0
C1623 C 0.7202 0.09601 0.74023 0.0
C1624 C 0.72678 0.10017 0.71408 0.0
C1625 C 0.7023 0.07636 0.74718 0.0
C1626 C 0.68996 0.06034 0.72828 0.0
H1627 H 0.72834 0.10853 0.75549 0.0
H1628 H 0.69768 0.07403 0.76753 0.0
S1629 S 0.70239 0.06078 0.65758 0.0
N1630 N 0.72118 0.08478 0.66941 0.0
N1631 N 0.68717 0.04795 0.68272 0.0
C1632 C 0.69724 0.06321 0.70227 0.0
C1633 C 0.71552 0.08328 0.69508 0.0
C1634 C 0.35956 0.06623 0.49834 0.0
C1635 C 0.36689 0.05893 0.52359 0.0
C1636 C 0.33753 0.08154 0.49413 0.0
C1637 C 0.32244 0.09034 0.51508 0.0
H1638 H 0.37132 0.06072 0.48185 0.0
H1639 H 0.33279 0.0872 0.47454 0.0
S1640 S 0.33069 0.07314 0.58423 0.0
N1641 N 0.35496 0.05888 0.56924 0.0
N1642 N 0.31463 0.08839 0.56146 0.0
C1643 C 0.32891 0.08225 0.54016 0.0
C1644 C 0.35084 0.06635 0.54438 0.0
C1645 C 0.6832 0.48141 0.50431 0.0
C1646 C 0.65927 0.47213 0.51442 0.0
C1647 C 0.70369 0.4645 0.49905 0.0
C1648 C 0.70133 0.43775 0.50428 0.0
H1649 H 0.68626 0.50197 0.50053 0.0
H1650 H 0.72164 0.47247 0.49109 0.0
S1651 S 0.64266 0.40284 0.5288 0.0
N1652 N 0.63413 0.43362 0.52756 0.0
N1653 N 0.67322 0.40238 0.51905 0.0
C1654 C 0.67774 0.42811 0.51438 0.0
C1655 C 0.6566 0.44514 0.51915 0.0
C1656 C 0.70913 0.30251 0.43703 0.0
C1657 C 0.73095 0.29076 0.42568 0.0
C1658 C 0.7121 0.32239 0.45602 0.0
C1659 C 0.73697 0.33152 0.46375 0.0
H1660 H 0.68963 0.29625 0.43128 0.0
H1661 H 0.69492 0.33105 0.46424 0.0
S1662 S 0.80023 0.30587 0.44218 0.0
N1663 N 0.77829 0.2892 0.42479 0.0
N1664 N 0.78361 0.32584 0.46083 0.0
C1665 C 0.75883 0.31937 0.45334 0.0
C1666 C 0.7559 0.29925 0.43413 0.0
C1667 C 0.56131 0.05108 0.84884 0.0
C1668 C 0.56146 0.03035 0.86628 0.0
C1669 C 0.57474 0.04987 0.82533 0.0
C1670 C 0.58929 0.02793 0.81816 0.0
H1671 H 0.55104 0.0687 0.85366 0.0
H1672 H 0.57422 0.06681 0.81306 0.0
S1673 S 0.59458 0.9676 0.85671 0.0
N1674 N 0.57602 0.9866 0.87455 0.0
N1675 N 0.60173 0.98421 0.83033 0.0
C1676 C 0.58878 1.00653 0.83509 0.0
C1677 C 0.57477 1.00776 0.85911 0.0
C1678 C 0.30635 0.22493 0.44474 0.0
C1679 C 0.29338 0.23242 0.42206 0.0
C1680 C 0.29672 0.20395 0.45963 0.0
C1681 C 0.27379 0.18997 0.45226 0.0
H1682 H 0.32338 0.23596 0.45153 0.0
H1683 H 0.30656 0.19952 0.4776 0.0
S1684 S 0.23498 0.2003 0.39227 0.0
N1685 N 0.25829 0.223 0.39154 0.0
N1686 N 0.2401 0.18391 0.41903 0.0
C1687 C 0.26168 0.1966 0.42869 0.0
C1688 C 0.27148 0.21776 0.41373 0.0
C1689 C 0.48185 0.49433 0.84202 0.0
C1690 C 0.47194 0.50149 0.86643 0.0
C1691 C 0.46604 0.49415 0.81974 0.0
C1692 C 0.43998 0.50186 0.82096 0.0
H1693 H 0.50172 0.48793 0.84031 0.0
H1694 H 0.47409 0.48744 0.80149 0.0
S1695 S 0.4051 0.52336 0.88002 0.0
N1696 N 0.43469 0.51698 0.89048 0.0
N1697 N 0.40515 0.51742 0.8484 0.0
C1698 C 0.43011 0.50997 0.84507 0.0
C1699 C 0.44605 0.50955 0.86788 0.0
C1700 C 0.73044 0.70261 0.10502 0.0
C1701 C 0.72547 0.72883 0.09971 0.0
C1702 C 0.73241 0.68404 0.08484 0.0
C1703 C 0.72881 0.69095 0.05876 0.0
H1704 H 0.73337 0.69657 0.12486 0.0
H1705 H 0.73662 0.6641 0.0897 0.0
S1706 S 0.71503 0.75707 0.03484 0.0
N1707 N 0.71699 0.76082 0.0667 0.0
N1708 N 0.71995 0.72586 0.02881 0.0
C1709 C 0.72337 0.71705 0.0533 0.0
C1710 C 0.72192 0.73601 0.07378 0.0
C1711 C 0.95264 0.01935 0.16085 0.0
C1712 C 0.97958 0.01507 0.16316 0.0
C1713 C 0.93547 0.01424 0.18144 0.0
C1714 C 0.94448 1.00418 0.20494 0.0
H1715 H 0.94457 0.02611 0.14279 0.0
H1716 H 0.91487 0.01738 0.17865 0.0
S1717 S 0.01307 0.99205 0.22237 0.0
N1718 N 0.0145 1.00255 0.19225 0.0
N1719 N 0.98192 0.99159 0.23016 0.0
C1720 C 0.97125 1.00026 0.20781 0.0
C1721 C 0.98886 1.00603 0.18714 0.0
C1722 C 0.28147 0.81803 0.11319 0.0
C1723 C 0.30419 0.80349 0.11099 0.0
C1724 C 0.27444 0.83558 0.09388 0.0
C1725 C 0.28957 0.83884 0.07137 0.0
H1726 H 0.26902 0.8158 0.12997 0.0
H1727 H 0.25658 0.84611 0.09633 0.0
S1728 S 0.35112 0.80541 0.05658 0.0
N1729 N 0.34213 0.7938 0.08499 0.0
N1730 N 0.32864 0.82626 0.04833 0.0
C1731 C 0.31247 0.8245 0.06906 0.0
C1732 C 0.31986 0.80698 0.08897 0.0
C1733 C 0.08124 0.48966 0.16007 0.0
C1734 C 0.05437 0.49469 0.1595 0.0
C1735 C 0.09696 0.49742 0.18128 0.0
C1736 C 0.08661 0.51103 0.20257 0.0
H1737 H 0.09041 0.48008 0.14376 0.0
H1738 H 0.11756 0.4934 0.18067 0.0
S1739 S 0.01745 0.52737 0.21212 0.0
N1740 N 0.01789 0.51242 0.18351 0.0
N1741 N 0.04789 0.52827 0.22259 0.0
C1742 C 0.05988 0.51606 0.20252 0.0
C1743 C 0.04367 0.50761 0.1812 0.0
C1744 C 0.42793 0.74138 0.30557 0.0
C1745 C 0.42235 0.7155 0.29743 0.0
C1746 C 0.44722 0.74716 0.32422 0.0
C1747 C 0.46138 0.72731 0.33577 0.0
H1748 H 0.41678 0.75728 0.2981 0.0
H1749 H 0.45078 0.76735 0.32997 0.0
S1750 S 0.45702 0.65691 0.31909 0.0
N1751 N 0.43471 0.6701 0.30059 0.0
N1752 N 0.47065 0.68122 0.33609 0.0
C1753 C 0.45711 0.70158 0.32696 0.0
C1754 C 0.4375 0.6956 0.30787 0.0
C1755 C 1.0036 0.3634 0.93981 0.0
C1756 C 0.99456 0.36363 0.96558 0.0
C1757 C 1.00565 0.33987 0.92567 0.0
C1758 C 0.99817 0.31592 0.93668 0.0
H1759 H 1.00849 0.38158 0.93036 0.0
H1760 H 0.01168 0.34058 0.90556 0.0
S1761 S 0.97441 0.30588 1.00371 0.0
N1762 N 0.97938 0.33775 1.00187 0.0
N1763 N 0.98251 0.29371 0.97508 0.0
C1764 C 0.98991 0.31586 0.96264 0.0
C1765 C 0.98831 0.33967 0.97716 0.0
C1766 C 0.57885 0.7929 0.28966 0.0
C1767 C 0.60556 0.79284 0.29571 0.0
C1768 C 0.55996 0.78884 0.30888 0.0
C1769 C 0.56711 0.784 0.33475 0.0
H1770 H 0.57254 0.79574 0.26983 0.0
H1771 H 0.53964 0.78834 0.30316 0.0
S1772 S 0.63457 0.78302 0.36071 0.0
N1773 N 0.63826 0.78882 0.32948 0.0
N1774 N 0.60283 0.78059 0.36554 0.0
C1775 C 0.59378 0.7846 0.34115 0.0
C1776 C 0.61298 0.78918 0.32164 0.0
C1777 C 0.02141 0.15569 0.94974 0.0
C1778 C 0.01732 0.15868 0.97669 0.0
C1779 C 0.01584 0.17573 0.9324 0.0
C1780 C 1.00552 0.19932 0.94128 0.0
H1781 H 0.02835 0.13748 0.94182 0.0
H1782 H 0.0188 0.17241 0.91182 0.0
S1783 S 0.99381 0.21855 0.00973 0.0
N1784 N 1.00474 0.18862 0.01137 0.0
N1785 N 0.99296 0.22545 0.97855 0.0
C1786 C 1.00184 0.20291 0.96804 0.0
C1787 C 1.00806 0.18282 0.98579 0.0
C1788 C 0.44287 0.30835 0.2274 0.0
C1789 C 0.42251 0.29317 0.23809 0.0
C1790 C 0.4586 0.29822 0.20742 0.0
C1791 C 0.45447 0.27258 0.19761 0.0
H1792 H 0.4472 0.32775 0.23512 0.0
H1793 H 0.47459 0.31021 0.20027 0.0
S1794 S 0.40115 0.22652 0.21739 0.0
N1795 N 0.39741 0.25257 0.23601 0.0
N1796 N 0.42657 0.23335 0.19905 0.0
C1797 C 0.43321 0.25786 0.20756 0.0
C1798 C 0.41735 0.26821 0.22763 0.0
C1799 C 0.51536 0.37045 0.08587 0.0
C1800 C 0.50761 0.36814 0.05962 0.0
C1801 C 0.51395 0.34905 0.10254 0.0
C1802 C 0.50425 0.32454 0.09385 0.0
H1803 H 0.52285 0.38891 0.09362 0.0
H1804 H 0.52073 0.35169 0.12237 0.0
S1805 S 0.48191 0.3076 0.02699 0.0
N1806 N 0.49053 0.33878 0.0257 0.0
N1807 N 0.48683 0.29904 0.05734 0.0
C1808 C 0.4958 0.32202 0.06792 0.0
C1809 C 0.4977 0.34367 0.05076 0.0
C1810 C 0.58581 0.20969 0.22929 0.0
C1811 C 0.60638 0.22822 0.22922 0.0
C1812 C 0.56468 0.21148 0.2121 0.0
C1813 C 0.56336 0.2318 0.19397 0.0
H1814 H 0.5858 0.19399 0.24313 0.0
H1815 H 0.54916 0.19686 0.21326 0.0
S1816 S 0.61392 0.28409 0.18498 0.0
N1817 N 0.62512 0.2667 0.20911 0.0
N1818 N 0.5858 0.27011 0.17642 0.0
C1819 C 0.58438 0.25009 0.19338 0.0
C1820 C 0.60575 0.2483 0.21108 0.0
C1821 C 0.5237 0.16533 0.06677 0.0
C1822 C 0.49877 0.16141 0.05554 0.0
C1823 C 0.52908 0.18641 0.08399 0.0
C1824 C 0.50952 0.20378 0.091 0.0
H1825 H 0.53886 0.15149 0.06301 0.0
H1826 H 0.54826 0.18846 0.09271 0.0
S1827 S 0.44292 0.20538 0.06332 0.0
N1828 N 0.45578 0.17938 0.04973 0.0
N1829 N 0.46565 0.21806 0.0828 0.0
C1830 C 0.48514 0.20104 0.07877 0.0
C1831 C 0.47979 0.18004 0.06095 0.0
C1832 C 0.30771 0.43345 0.71033 0.0
C1833 C 0.29535 0.42177 0.7318 0.0
C1834 C 0.32768 0.45247 0.71376 0.0
C1835 C 0.33633 0.45995 0.73872 0.0
H1836 H 0.30168 0.42812 0.69075 0.0
H1837 H 0.33665 0.46109 0.69683 0.0
S1838 S 0.30923 0.43732 0.80124 0.0
N1839 N 0.29296 0.42006 0.77896 0.0
N1840 N 0.32965 0.45635 0.78513 0.0
C1841 C 0.32373 0.44909 0.76026 0.0
C1842 C 0.30355 0.42977 0.75687 0.0
C1843 C 0.29158 0.57802 0.79725 0.0
C1844 C 0.2976 0.60488 0.79627 0.0
C1845 C 0.31091 0.55946 0.79357 0.0
C1846 C 0.33684 0.56708 0.78818 0.0
H1847 H 0.27172 0.57134 0.80058 0.0
H1848 H 0.30521 0.53898 0.79383 0.0
S1849 S 0.36271 0.63514 0.78459 0.0
N1850 N 0.3314 0.63826 0.79071 0.0
N1851 N 0.36762 0.60344 0.78311 0.0
C1852 C 0.34318 0.59392 0.78775 0.0
C1853 C 0.32359 0.6128 0.79197 0.0
C1854 C 0.8675 0.43885 0.50503 0.0
C1855 C 0.86867 0.46422 0.495 0.0
C1856 C 0.84353 0.42533 0.50778 0.0
C1857 C 0.82009 0.43656 0.50003 0.0
H1858 H 0.88527 0.42924 0.51024 0.0
H1859 H 0.8435 0.40543 0.51455 0.0
S1860 S 0.81267 0.50275 0.47358 0.0
N1861 N 0.84431 0.50045 0.47854 0.0
N1862 N 0.79944 0.47473 0.48285 0.0
C1863 C 0.821 0.46214 0.49069 0.0
C1864 C 0.84526 0.47606 0.4884 0.0
C1865 C 0.73501 0.94661 0.7976 0.0
C1866 C 0.72897 0.91972 0.79705 0.0
C1867 C 0.71584 0.96499 0.79286 0.0
C1868 C 0.69 0.95716 0.78684 0.0
H1869 H 0.7548 0.95347 0.80142 0.0
H1870 H 0.72162 0.98545 0.79287 0.0
S1871 S 0.66404 0.88897 0.78404 0.0
N1872 N 0.69521 0.88613 0.79118 0.0
N1873 N 0.65924 0.92058 0.78169 0.0
C1874 C 0.6836 0.93031 0.78686 0.0
C1875 C 0.70306 0.91163 0.79212 0.0
C1876 C 0.66602 0.56072 0.02973 0.0
C1877 C 0.66154 0.54699 1.00614 0.0
C1878 C 0.68696 0.57873 0.03257 0.0
C1879 C 0.70373 0.58406 0.01176 0.0
H1880 H 0.65296 0.55791 0.04594 0.0
H1881 H 0.68964 0.58906 0.05092 0.0
S1882 S 0.7034 0.5502 0.94772 0.0
N1883 N 0.67775 0.53774 0.96278 0.0
N1884 N 0.71674 0.57187 0.96811 0.0
C1885 C 0.70025 0.56968 0.98856 0.0
C1886 C 0.67915 0.55119 0.9857 0.0
C1887 C 0.21767 0.59896 0.2437 0.0
C1888 C 0.22417 0.60385 0.21767 0.0
C1889 C 0.20045 0.57855 0.2502 0.0
C1890 C 0.18882 0.56241 0.23095 0.0
H1891 H 0.2255 0.61138 0.2592 0.0
H1892 H 0.19594 0.57557 0.27048 0.0
S1893 S 0.20119 0.56492 0.16032 0.0
N1894 N 0.21904 0.58937 0.17268 0.0
N1895 N 0.18646 0.55096 0.18515 0.0
C1896 C 0.1959 0.56619 0.20501 0.0
C1897 C 0.21342 0.58709 0.19829 0.0
C1898 C 0.87297 0.58771 0.02552 0.0
C1899 C 0.87281 0.56057 0.02066 0.0
C1900 C 0.85063 0.6024 0.02179 0.0
C1901 C 0.82733 0.59074 0.01241 0.0
H1902 H 0.8904 0.5977 0.0328 0.0
H1903 H 0.85154 0.62304 0.02664 0.0
S1904 S 0.81623 0.52067 0.9961 0.0
N1905 N 0.84687 0.52272 1.0059 0.0
N1906 N 0.80538 0.55068 0.9977 0.0
C1907 C 0.82705 0.56392 1.00636 0.0
C1908 C 0.84966 0.54877 0.01071 0.0
C1909 C 0.16051 0.94873 0.02053 0.0
C1910 C 0.16318 0.97565 0.01552 0.0
C1911 C 0.18088 0.93158 0.01557 0.0
C1912 C 0.20452 0.94056 1.00492 0.0
H1913 H 0.14234 0.94066 0.02786 0.0
H1914 H 0.17783 0.91101 0.01941 0.0
S1915 S 0.22287 0.00913 0.99062 0.0
N1916 N 0.19274 0.01055 1.00152 0.0
N1917 N 0.23025 0.97799 0.99091 0.0
C1918 C 0.20773 0.9673 1.00017 0.0
C1919 C 0.18727 0.9849 1.00577 0.0
loop_
_geom_bond_atom_site_label_1
_geom_bond_atom_site_label_2
_geom_bond_distance
_geom_bond_site_symmetry_2
_ccdc_geom_bond_type
C0 C1 1.391 . S
C0 C4 1.391 . S
C0 H42 0.948 . S
C1 C0 1.391 . S
C1 C2 1.391 1_455 S
C2 C1 1.391 1_655 S
C2 H58 0.947 . S
C2 C59 1.394 1_556 S
C3 C4 1.391 1_554 S
C3 C7 1.397 . S
C3 C59 1.392 1_455 S
C4 C0 1.391 . S
C4 C3 1.391 1_556 S
C4 C5 1.399 . S
C5 C4 1.399 . S
C5 C8 1.396 1_556 S
C5 C17 1.453 . S
C5 C18 1.684 . S
H6 C30 0.948 . S
C7 C3 1.397 . S
C7 C8 1.394 . S
C7 C26 1.723 . S
C8 C5 1.396 1_554 S
C8 C7 1.394 . S
C8 C38 1.723 . S
H9 C32 0.947 . S
H10 C33 0.978 . S
H11 C39 0.982 1_545 S
H12 C40 0.979 . S
H13 C40 0.980 . S
H14 C40 0.983 . S
H15 C39 0.979 . S
H16 C39 0.977 . S
C17 C5 1.453 . S
C17 H46 0.982 1_556 S
C17 H47 0.979 . S
C17 H48 0.977 . S
C18 C5 1.684 . S
C18 H43 0.979 . S
C18 H44 0.980 . S
C18 H45 0.983 . S
C19 C20 1.391 . S
C19 C24 1.391 . S
C19 H49 0.948 . S
C20 C19 1.391 . S
C20 C21 1.391 1_545 S
C21 C20 1.391 1_565 S
C21 C22 1.392 1_655 S
C21 H50 0.947 . S
C22 C21 1.392 1_455 S
C22 C23 1.419 1_565 S
C22 H51 0.948 . S
C23 C22 1.419 1_545 S
C23 C24 1.391 1_455 S
C23 C27 1.397 . S
C24 C19 1.391 . S
C24 C23 1.391 1_655 S
C24 C25 1.399 . S
C25 C24 1.399 . S
C25 C26 1.396 1_655 S
C25 C28 1.453 . S
C25 C29 1.684 . S
C26 C7 1.723 . S
C26 C25 1.396 1_455 S
C26 C27 1.394 . S
C27 C23 1.397 . S
C27 C26 1.394 . S
C27 C37 1.723 . S
C28 C25 1.453 . S
C28 H52 0.982 1_655 S
C28 H53 0.979 . S
C28 H54 0.977 . S
C29 C25 1.684 . S
C29 H55 0.979 . S
C29 H56 0.980 . S
C29 H57 0.983 . S
C30 H6 0.948 . S
C30 C31 1.391 . S
C30 C35 1.391 . S
C31 C30 1.391 . S
C31 C32 1.391 1_554 S
C32 H9 0.947 . S
C32 C31 1.391 1_556 S
C32 C33 1.394 1_565 S
C33 H10 0.978 . S
C33 C32 1.394 1_545 S
C33 C34 1.387 1_556 S
C34 C33 1.387 1_554 S
C34 C35 1.391 1_545 S
C34 C38 1.397 . S
C35 C30 1.391 . S
C35 C34 1.391 1_565 S
C35 C36 1.399 . S
C36 C35 1.399 . S
C36 C37 1.396 1_565 S
C36 C39 1.453 . S
C36 C40 1.684 . S
C37 C27 1.723 . S
C37 C36 1.396 1_545 S
C37 C38 1.394 . S
C38 C8 1.723 . S
C38 C34 1.397 . S
C38 C37 1.394 . S
C39 H11 0.982 1_565 S
C39 H15 0.979 . S
C39 H16 0.977 . S
C39 C36 1.453 . S
C40 H12 0.979 . S
C40 H13 0.980 . S
C40 H14 0.983 . S
C40 C36 1.684 . S
H41 C59 0.973 . S
H42 C0 0.948 . S
H43 C18 0.979 . S
H44 C18 0.980 . S
H45 C18 0.983 . S
H46 C17 0.982 1_554 S
H47 C17 0.979 . S
H48 C17 0.977 . S
H49 C19 0.948 . S
H50 C21 0.947 . S
H51 C22 0.948 . S
H52 C28 0.982 1_455 S
H53 C28 0.979 . S
H54 C28 0.977 . S
H55 C29 0.979 . S
H56 C29 0.980 . S
H57 C29 0.983 . S
H58 C2 0.947 . S
C59 C2 1.394 1_554 S
C59 C3 1.392 1_655 S
C59 H41 0.973 . S
C60 C61 1.391 . S
C60 C64 1.391 . S
C60 H102 0.948 . S
C61 C60 1.391 . S
C61 C62 1.391 . S
C62 C61 1.391 . S
C62 H118 0.947 . S
C62 C119 1.392 . S
C63 C64 1.391 . S
C63 C67 1.397 . S
C63 C119 1.419 . S
C64 C60 1.391 . S
C64 C63 1.391 . S
C64 C65 1.399 . S
C65 C64 1.399 . S
C65 C68 1.396 . S
C65 C77 1.453 . S
C65 C78 1.684 . S
H66 C90 0.948 . S
C67 C63 1.397 . S
C67 C68 1.394 . S
C67 C86 1.723 . S
C68 C65 1.396 . S
C68 C67 1.394 . S
C68 C98 1.723 . S
H69 C92 0.947 . S
H70 C93 0.948 . S
H71 C99 0.982 . S
H72 C100 0.979 . S
H73 C100 0.980 . S
H74 C100 0.983 . S
H75 C99 0.979 . S
H76 C99 0.977 . S
C77 C65 1.453 . S
C77 H106 0.982 . S
C77 H107 0.979 . S
C77 H108 0.977 . S
C78 C65 1.684 . S
C78 H103 0.979 . S
C78 H104 0.980 . S
C78 H105 0.983 . S
C79 C80 1.391 . S
C79 C84 1.391 . S
C79 H109 0.948 . S
C80 C79 1.391 . S
C80 C81 1.391 . S
C81 C80 1.391 . S
C81 C82 1.392 . S
C81 H110 0.947 . S
C82 C81 1.392 . S
C82 C83 1.419 . S
C82 H111 0.948 . S
C83 C82 1.419 . S
C83 C84 1.391 . S
C83 C87 1.397 . S
C84 C79 1.391 . S
C84 C83 1.391 . S
C84 C85 1.399 . S
C85 C84 1.399 . S
C85 C86 1.396 . S
C85 C88 1.453 . S
C85 C89 1.684 . S
C86 C67 1.723 . S
C86 C85 1.396 . S
C86 C87 1.394 . S
C87 C83 1.397 . S
C87 C86 1.394 . S
C87 C97 1.723 . S
C88 C85 1.453 . S
C88 H112 0.982 . S
C88 H113 0.979 . S
C88 H114 0.977 . S
C89 C85 1.684 . S
C89 H115 0.979 . S
C89 H116 0.980 . S
C89 H117 0.983 . S
C90 H66 0.948 . S
C90 C91 1.391 . S
C90 C95 1.391 . S
C91 C90 1.391 . S
C91 C92 1.391 . S
C92 H69 0.947 . S
C92 C91 1.391 . S
C92 C93 1.392 . S
C93 H70 0.948 . S
C93 C92 1.392 . S
C93 C94 1.419 . S
C94 C93 1.419 . S
C94 C95 1.391 . S
C94 C98 1.397 . S
C95 C90 1.391 . S
C95 C94 1.391 . S
C95 C96 1.399 . S
C96 C95 1.399 . S
C96 C97 1.396 . S
C96 C99 1.453 . S
C96 C100 1.684 . S
C97 C87 1.723 . S
C97 C96 1.396 . S
C97 C98 1.394 . S
C98 C68 1.723 . S
C98 C94 1.397 . S
C98 C97 1.394 . S
C99 H71 0.982 . S
C99 H75 0.979 . S
C99 H76 0.977 . S
C99 C96 1.453 . S
C100 H72 0.979 . S
C100 H73 0.980 . S
C100 H74 0.983 . S
C100 C96 1.684 . S
H101 C119 0.948 . S
H102 C60 0.948 . S
H103 C78 0.979 . S
H104 C78 0.980 . S
H105 C78 0.983 . S
H106 C77 0.982 . S
H107 C77 0.979 . S
H108 C77 0.977 . S
H109 C79 0.948 . S
H110 C81 0.947 . S
H111 C82 0.948 . S
H112 C88 0.982 . S
H113 C88 0.979 . S
H114 C88 0.977 . S
H115 C89 0.979 . S
H116 C89 0.980 . S
H117 C89 0.983 . S
H118 C62 0.947 . S
C119 C62 1.392 . S
C119 C63 1.419 . S
C119 H101 0.948 . S
C120 C121 1.391 . S
C120 C124 1.411 . S
C120 H162 0.948 1_655 S
C121 C120 1.391 . S
C121 C122 1.391 . S
C122 C121 1.391 . S
C122 H178 0.947 . S
C122 C179 1.392 . S
C123 C124 1.397 . S
C123 C127 1.397 1_556 S
C123 C179 1.419 . S
C124 C120 1.411 . S
C124 C123 1.397 . S
C124 C125 1.370 1_656 S
C125 C124 1.370 1_454 S
C125 C128 1.396 1_455 S
C125 C137 1.453 . S
C125 C138 1.684 . S
H126 C150 0.948 . S
C127 C123 1.397 1_554 S
C127 C128 1.394 . S
C127 C146 1.723 . S
C128 C125 1.396 1_655 S
C128 C127 1.394 . S
C128 C158 1.723 . S
H129 C152 0.947 . S
H130 C153 0.948 . S
H131 C159 0.982 . S
H132 C160 0.979 . S
H133 C160 0.980 . S
H134 C160 0.983 . S
H135 C159 0.979 . S
H136 C159 0.977 . S
C137 C125 1.453 . S
C137 H166 0.982 1_455 S
C137 H167 0.979 . S
C137 H168 0.977 . S
C138 C125 1.684 . S
C138 H163 0.979 . S
C138 H164 0.980 . S
C138 H165 0.983 . S
C139 C140 1.391 . S
C139 C144 1.391 . S
C139 H169 0.948 1_554 S
C140 C139 1.391 . S
C140 C141 1.391 . S
C141 C140 1.391 . S
C141 C142 1.392 . S
C141 H170 0.947 . S
C142 C141 1.392 . S
C142 C143 1.419 . S
C142 H171 0.948 . S
C143 C142 1.419 . S
C143 C144 1.391 . S
C143 C147 1.397 . S
C144 C139 1.391 . S
C144 C143 1.391 . S
C144 C145 1.399 1_554 S
C145 C144 1.399 1_556 S
C145 C146 1.396 1_556 S
C145 C148 1.453 . S
C145 C149 1.684 . S
C146 C127 1.723 . S
C146 C145 1.396 1_554 S
C146 C147 1.394 . S
C147 C143 1.397 . S
C147 C146 1.394 . S
C147 C157 1.723 . S
C148 C145 1.453 . S
C148 H172 0.982 1_556 S
C148 H173 0.979 . S
C148 H174 0.977 . S
C149 C145 1.684 . S
C149 H175 0.979 . S
C149 H176 0.980 . S
C149 H177 0.983 . S
C150 H126 0.948 . S
C150 C151 1.391 . S
C150 C155 1.391 . S
C151 C150 1.391 . S
C151 C152 1.391 . S
C152 H129 0.947 . S
C152 C151 1.391 . S
C152 C153 1.392 . S
C153 H130 0.948 . S
C153 C152 1.392 . S
C153 C154 1.419 . S
C154 C153 1.419 . S
C154 C155 1.391 . S
C154 C158 1.397 1_455 S
C155 C150 1.391 . S
C155 C154 1.391 . S
C155 C156 1.399 1_455 S
C156 C155 1.399 1_655 S
C156 C157 1.396 . S
C156 C159 1.453 . S
C156 C160 1.684 . S
C157 C147 1.723 . S
C157 C156 1.396 . S
C157 C158 1.394 . S
C158 C128 1.723 . S
C158 C154 1.397 1_655 S
C158 C157 1.394 . S
C159 H131 0.982 . S
C159 H135 0.979 . S
C159 H136 0.977 . S
C159 C156 1.453 . S
C160 H132 0.979 . S
C160 H133 0.980 . S
C160 H134 0.983 . S
C160 C156 1.684 . S
H161 C179 0.948 . S
H162 C120 0.948 1_455 S
H163 C138 0.979 . S
H164 C138 0.980 . S
H165 C138 0.983 . S
H166 C137 0.982 1_655 S
H167 C137 0.979 . S
H168 C137 0.977 . S
H169 C139 0.948 1_556 S
H170 C141 0.947 . S
H171 C142 0.948 . S
H172 C148 0.982 1_554 S
H173 C148 0.979 . S
H174 C148 0.977 . S
H175 C149 0.979 . S
H176 C149 0.980 . S
H177 C149 0.983 . S
H178 C122 0.947 . S
C179 C122 1.392 . S
C179 C123 1.419 . S
C179 H161 0.948 . S
C180 C181 1.391 . S
C180 C184 1.391 . S
C180 H222 0.948 . S
C181 C180 1.391 . S
C181 C182 1.391 . S
C182 C181 1.391 . S
C182 H238 0.947 . S
C182 C239 1.392 . S
C183 C184 1.391 . S
C183 C187 1.397 . S
C183 C239 1.419 . S
C184 C180 1.391 . S
C184 C183 1.391 . S
C184 C185 1.399 . S
C185 C184 1.399 . S
C185 C188 1.396 . S
C185 C197 1.453 . S
C185 C198 1.684 . S
H186 C210 0.948 . S
C187 C183 1.397 . S
C187 C188 1.394 . S
C187 C206 1.723 . S
C188 C185 1.396 . S
C188 C187 1.394 . S
C188 C218 1.723 . S
H189 C212 0.947 . S
H190 C213 0.948 . S
H191 C219 0.982 . S
H192 C220 0.979 . S
H193 C220 0.980 . S
H194 C220 0.983 . S
H195 C219 0.979 . S
H196 C219 0.977 . S
C197 C185 1.453 . S
C197 H226 0.982 . S
C197 H227 0.979 . S
C197 H228 0.977 . S
C198 C185 1.684 . S
C198 H223 0.979 . S
C198 H224 0.980 . S
C198 H225 0.983 . S
C199 C200 1.391 . S
C199 C204 1.391 . S
C199 H229 0.948 . S
C200 C199 1.391 . S
C200 C201 1.391 . S
C201 C200 1.391 . S
C201 C202 1.392 . S
C201 H230 0.947 . S
C202 C201 1.392 . S
C202 C203 1.419 . S
C202 H231 0.948 . S
C203 C202 1.419 . S
C203 C204 1.391 . S
C203 C207 1.397 . S
C204 C199 1.391 . S
C204 C203 1.391 . S
C204 C205 1.399 . S
C205 C204 1.399 . S
C205 C206 1.396 . S
C205 C208 1.453 . S
C205 C209 1.684 . S
C206 C187 1.723 . S
C206 C205 1.396 . S
C206 C207 1.394 . S
C207 C203 1.397 . S
C207 C206 1.394 . S
C207 C217 1.723 . S
C208 C205 1.453 . S
C208 H232 0.982 . S
C208 H233 0.979 . S
C208 H234 0.977 . S
C209 C205 1.684 . S
C209 H235 0.979 . S
C209 H236 0.980 . S
C209 H237 0.983 . S
C210 H186 0.948 . S
C210 C211 1.391 . S
C210 C215 1.391 . S
C211 C210 1.391 . S
C211 C212 1.391 . S
C212 H189 0.947 . S
C212 C211 1.391 . S
C212 C213 1.392 . S
C213 H190 0.948 . S
C213 C212 1.392 . S
C213 C214 1.419 . S
C214 C213 1.419 . S
C214 C215 1.391 . S
C214 C218 1.397 . S
C215 C210 1.391 . S
C215 C214 1.391 . S
C215 C216 1.399 . S
C216 C215 1.399 . S
C216 C217 1.396 . S
C216 C219 1.453 . S
C216 C220 1.684 . S
C217 C207 1.723 . S
C217 C216 1.396 . S
C217 C218 1.394 . S
C218 C188 1.723 . S
C218 C214 1.397 . S
C218 C217 1.394 . S
C219 H191 0.982 . S
C219 H195 0.979 . S
C219 H196 0.977 . S
C219 C216 1.453 . S
C220 H192 0.979 . S
C220 H193 0.980 . S
C220 H194 0.983 . S
C220 C216 1.684 . S
H221 C239 0.948 . S
H222 C180 0.948 . S
H223 C198 0.979 . S
H224 C198 0.980 . S
H225 C198 0.983 . S
H226 C197 0.982 . S
H227 C197 0.979 . S
H228 C197 0.977 . S
H229 C199 0.948 . S
H230 C201 0.947 . S
H231 C202 0.948 . S
H232 C208 0.982 . S
H233 C208 0.979 . S
H234 C208 0.977 . S
H235 C209 0.979 . S
H236 C209 0.980 . S
H237 C209 0.983 . S
H238 C182 0.947 . S
C239 C182 1.392 . S
C239 C183 1.419 . S
C239 H221 0.948 . S
C240 C241 1.391 . S
C240 C244 1.391 . S
C240 H282 0.948 . S
C241 C240 1.391 . S
C241 C242 1.391 . S
C242 C241 1.391 . S
C242 H298 0.947 1_455 S
C242 C299 1.392 . S
C243 C244 1.391 . S
C243 C247 1.397 . S
C243 C299 1.419 . S
C244 C240 1.391 . S
C244 C243 1.391 . S
C244 C245 1.399 . S
C245 C244 1.399 . S
C245 C248 1.396 . S
C245 C257 1.453 . S
C245 C258 1.684 . S
H246 C270 0.948 . S
C247 C243 1.397 . S
C247 C248 1.394 . S
C247 C266 1.723 . S
C248 C245 1.396 . S
C248 C247 1.394 . S
C248 C278 1.723 . S
H249 C272 0.947 . S
H250 C273 0.948 . S
H251 C279 0.982 . S
H252 C280 0.979 . S
H253 C280 0.980 . S
H254 C280 0.983 . S
H255 C279 0.979 . S
H256 C279 0.977 . S
C257 C245 1.453 . S
C257 H286 0.982 . S
C257 H287 0.979 . S
C257 H288 0.977 . S
C258 C245 1.684 . S
C258 H283 0.979 . S
C258 H284 0.980 . S
C258 H285 0.983 . S
C259 C260 1.391 . S
C259 C264 1.391 . S
C259 H289 0.948 . S
C260 C259 1.391 . S
C260 C261 1.391 1_565 S
C261 C260 1.391 1_545 S
C261 C262 1.392 1_655 S
C261 H290 0.947 . S
C262 C261 1.392 1_455 S
C262 C263 1.419 1_545 S
C262 H291 0.948 . S
C263 C262 1.419 1_565 S
C263 C264 1.391 1_455 S
C263 C267 1.397 . S
C264 C259 1.391 . S
C264 C263 1.391 1_655 S
C264 C265 1.399 . S
C265 C264 1.399 . S
C265 C266 1.396 1_655 S
C265 C268 1.453 . S
C265 C269 1.684 . S
C266 C247 1.723 . S
C266 C265 1.396 1_455 S
C266 C267 1.394 . S
C267 C263 1.397 . S
C267 C266 1.394 . S
C267 C277 1.723 . S
C268 C265 1.453 . S
C268 H292 0.982 . S
C268 H293 0.979 . S
C268 H294 0.977 . S
C269 C265 1.684 . S
C269 H295 0.979 1_655 S
C269 H296 0.980 . S
C269 H297 0.983 . S
C270 H246 0.948 . S
C270 C271 1.391 . S
C270 C275 1.391 . S
C271 C270 1.391 . S
C271 C272 1.391 . S
C272 H249 0.947 . S
C272 C271 1.391 . S
C272 C273 1.392 1_545 S
C273 H250 0.948 . S
C273 C272 1.392 1_565 S
C273 C274 1.419 1_565 S
C274 C273 1.419 1_545 S
C274 C275 1.391 . S
C274 C278 1.397 1_545 S
C275 C270 1.391 . S
C275 C274 1.391 . S
C275 C276 1.399 . S
C276 C275 1.399 . S
C276 C277 1.396 1_545 S
C276 C279 1.453 . S
C276 C280 1.684 . S
C277 C267 1.723 . S
C277 C276 1.396 1_565 S
C277 C278 1.394 . S
C278 C248 1.723 . S
C278 C274 1.397 1_565 S
C278 C277 1.394 . S
C279 H251 0.982 . S
C279 H255 0.979 . S
C279 H256 0.977 . S
C279 C276 1.453 . S
C280 H252 0.979 . S
C280 H253 0.980 . S
C280 H254 0.983 . S
C280 C276 1.684 . S
H281 C299 0.948 1_655 S
H282 C240 0.948 . S
H283 C258 0.979 . S
H284 C258 0.980 . S
H285 C258 0.983 . S
H286 C257 0.982 . S
H287 C257 0.979 . S
H288 C257 0.977 . S
H289 C259 0.948 . S
H290 C261 0.947 . S
H291 C262 0.948 . S
H292 C268 0.982 . S
H293 C268 0.979 . S
H294 C268 0.977 . S
H295 C269 0.979 1_455 S
H296 C269 0.980 . S
H297 C269 0.983 . S
H298 C242 0.947 1_655 S
C299 C242 1.392 . S
C299 C243 1.419 . S
C299 H281 0.948 1_455 S
C300 C301 1.391 . S
C300 C304 1.391 . S
C300 H342 0.948 . S
C301 C300 1.391 . S
C301 C302 1.391 . S
C302 C301 1.391 . S
C302 H358 0.947 . S
C302 C359 1.392 . S
C303 C304 1.391 . S
C303 C307 1.397 . S
C303 C359 1.419 . S
C304 C300 1.391 . S
C304 C303 1.391 . S
C304 C305 1.399 . S
C305 C304 1.399 . S
C305 C308 1.396 . S
C305 C317 1.453 . S
C305 C318 1.684 . S
H306 C330 0.948 . S
C307 C303 1.397 . S
C307 C308 1.394 . S
C307 C326 1.723 . S
C308 C305 1.396 . S
C308 C307 1.394 . S
C308 C338 1.723 . S
H309 C332 0.947 . S
H310 C333 0.948 . S
H311 C339 0.982 . S
H312 C340 0.979 . S
H313 C340 0.980 . S
H314 C340 0.983 . S
H315 C339 0.979 . S
H316 C339 0.977 . S
C317 C305 1.453 . S
C317 H346 0.982 . S
C317 H347 0.979 . S
C317 H348 0.977 . S
C318 C305 1.684 . S
C318 H343 0.979 . S
C318 H344 0.980 . S
C318 H345 0.983 . S
C319 C320 1.391 . S
C319 C324 1.391 . S
C319 H349 0.948 . S
C320 C319 1.391 . S
C320 C321 1.391 . S
C321 C320 1.391 . S
C321 C322 1.392 . S
C321 H350 0.947 . S
C322 C321 1.392 . S
C322 C323 1.419 . S
C322 H351 0.948 . S
C323 C322 1.419 . S
C323 C324 1.391 . S
C323 C327 1.397 . S
C324 C319 1.391 . S
C324 C323 1.391 . S
C324 C325 1.399 . S
C325 C324 1.399 . S
C325 C326 1.396 . S
C325 C328 1.453 . S
C325 C329 1.684 . S
C326 C307 1.723 . S
C326 C325 1.396 . S
C326 C327 1.394 . S
C327 C323 1.397 . S
C327 C326 1.394 . S
C327 C337 1.723 . S
C328 C325 1.453 . S
C328 H352 0.982 . S
C328 H353 0.979 . S
C328 H354 0.977 . S
C329 C325 1.684 . S
C329 H355 0.979 . S
C329 H356 0.980 . S
C329 H357 0.983 . S
C330 H306 0.948 . S
C330 C331 1.391 . S
C330 C335 1.391 . S
C331 C330 1.391 . S
C331 C332 1.391 . S
C332 H309 0.947 . S
C332 C331 1.391 . S
C332 C333 1.392 . S
C333 H310 0.948 . S
C333 C332 1.392 . S
C333 C334 1.419 . S
C334 C333 1.419 . S
C334 C335 1.391 . S
C334 C338 1.397 . S
C335 C330 1.391 . S
C335 C334 1.391 . S
C335 C336 1.399 . S
C336 C335 1.399 . S
C336 C337 1.396 . S
C336 C339 1.453 . S
C336 C340 1.684 . S
C337 C327 1.723 . S
C337 C336 1.396 . S
C337 C338 1.394 . S
C338 C308 1.723 . S
C338 C334 1.397 . S
C338 C337 1.394 . S
C339 H311 0.982 . S
C339 H315 0.979 . S
C339 H316 0.977 . S
C339 C336 1.453 . S
C340 H312 0.979 . S
C340 H313 0.980 . S
C340 H314 0.983 . S
C340 C336 1.684 . S
H341 C359 0.948 . S
H342 C300 0.948 . S
H343 C318 0.979 . S
H344 C318 0.980 . S
H345 C318 0.983 . S
H346 C317 0.982 . S
H347 C317 0.979 . S
H348 C317 0.977 . S
H349 C319 0.948 . S
H350 C321 0.947 . S
H351 C322 0.948 . S
H352 C328 0.982 . S
H353 C328 0.979 . S
H354 C328 0.977 . S
H355 C329 0.979 . S
H356 C329 0.980 . S
H357 C329 0.983 . S
H358 C302 0.947 . S
C359 C302 1.392 . S
C359 C303 1.419 . S
C359 H341 0.948 . S
C360 C361 1.391 . S
C360 C364 1.391 . S
C360 H402 0.948 . S
C361 C360 1.391 . S
C361 C362 1.391 . S
C362 C361 1.391 . S
C362 H418 0.947 . S
C362 C419 1.392 . S
C363 C364 1.391 . S
C363 C367 1.397 . S
C363 C419 1.419 . S
C364 C360 1.391 . S
C364 C363 1.391 . S
C364 C365 1.399 . S
C365 C364 1.399 . S
C365 C368 1.396 . S
C365 C377 1.453 . S
C365 C378 1.684 . S
H366 C390 0.948 . S
C367 C363 1.397 . S
C367 C368 1.394 . S
C367 C386 1.723 . S
C368 C365 1.396 . S
C368 C367 1.394 . S
C368 C398 1.723 . S
H369 C392 0.947 . S
H370 C393 0.948 . S
H371 C399 0.982 1_655 S
H372 C400 0.979 . S
H373 C400 0.980 . S
H374 C400 0.983 . S
H375 C399 0.979 . S
H376 C399 0.977 . S
C377 C365 1.453 . S
C377 H406 0.982 . S
C377 H407 0.979 . S
C377 H408 0.977 . S
C378 C365 1.684 . S
C378 H403 0.979 . S
C378 H404 0.980 . S
C378 H405 0.983 . S
C379 C380 1.391 . S
C379 C384 1.391 . S
C379 H409 0.948 . S
C380 C379 1.391 . S
C380 C381 1.391 . S
C381 C380 1.391 . S
C381 C382 1.392 . S
C381 H410 0.947 . S
C382 C381 1.392 . S
C382 C383 1.419 . S
C382 H411 0.948 . S
C383 C382 1.419 . S
C383 C384 1.391 . S
C383 C387 1.397 1_455 S
C384 C379 1.391 . S
C384 C383 1.391 . S
C384 C385 1.399 1_455 S
C385 C384 1.399 1_655 S
C385 C386 1.396 . S
C385 C388 1.453 . S
C385 C389 1.684 . S
C386 C367 1.723 . S
C386 C385 1.396 . S
C386 C387 1.394 . S
C387 C383 1.397 1_655 S
C387 C386 1.394 . S
C387 C397 1.723 . S
C388 C385 1.453 . S
C388 H412 0.982 . S
C388 H413 0.979 . S
C388 H414 0.977 . S
C389 C385 1.684 . S
C389 H415 0.979 . S
C389 H416 0.980 . S
C389 H417 0.983 . S
C390 H366 0.948 . S
C390 C391 1.391 1_455 S
C390 C395 1.391 1_455 S
C391 C390 1.391 1_655 S
C391 C392 1.391 . S
C392 H369 0.947 . S
C392 C391 1.391 . S
C392 C393 1.392 . S
C393 H370 0.948 . S
C393 C392 1.392 . S
C393 C394 1.419 . S
C394 C393 1.419 . S
C394 C395 1.391 . S
C394 C398 1.397 . S
C395 C390 1.391 1_655 S
C395 C394 1.391 . S
C395 C396 1.399 1_655 S
C396 C395 1.399 1_455 S
C396 C397 1.396 1_455 S
C396 C399 1.453 . S
C396 C400 1.684 . S
C397 C387 1.723 . S
C397 C396 1.396 1_655 S
C397 C398 1.394 . S
C398 C368 1.723 . S
C398 C394 1.397 . S
C398 C397 1.394 . S
C399 H371 0.982 1_455 S
C399 H375 0.979 . S
C399 H376 0.977 . S
C399 C396 1.453 . S
C400 H372 0.979 . S
C400 H373 0.980 . S
C400 H374 0.983 . S
C400 C396 1.684 . S
H401 C419 0.948 . S
H402 C360 0.948 . S
H403 C378 0.979 . S
H404 C378 0.980 . S
H405 C378 0.983 . S
H406 C377 0.982 . S
H407 C377 0.979 . S
H408 C377 0.977 . S
H409 C379 0.948 . S
H410 C381 0.947 . S
H411 C382 0.948 . S
H412 C388 0.982 . S
H413 C388 0.979 . S
H414 C388 0.977 . S
H415 C389 0.979 . S
H416 C389 0.980 . S
H417 C389 0.983 . S
H418 C362 0.947 . S
C419 C362 1.392 . S
C419 C363 1.419 . S
C419 H401 0.948 . S
C420 C421 1.391 . S
C420 C424 1.391 . S
C420 H462 0.948 . S
C421 C420 1.391 . S
C421 C422 1.391 . S
C422 C421 1.391 . S
C422 H478 0.947 . S
C422 C479 1.392 . S
C423 C424 1.391 . S
C423 C427 1.397 . S
C423 C479 1.419 . S
C424 C420 1.391 . S
C424 C423 1.391 . S
C424 C425 1.399 . S
C425 C424 1.399 . S
C425 C428 1.396 . S
C425 C437 1.453 . S
C425 C438 1.684 . S
H426 C450 0.948 . S
C427 C423 1.397 . S
C427 C428 1.394 . S
C427 C446 1.723 . S
C428 C425 1.396 . S
C428 C427 1.394 . S
C428 C458 1.723 . S
H429 C452 0.947 . S
H430 C453 0.948 . S
H431 C459 0.982 . S
H432 C460 0.979 . S
H433 C460 0.980 . S
H434 C460 0.983 . S
H435 C459 0.979 . S
H436 C459 0.977 . S
C437 C425 1.453 . S
C437 H466 0.982 . S
C437 H467 0.979 . S
C437 H468 0.977 . S
C438 C425 1.684 . S
C438 H463 0.979 . S
C438 H464 0.980 . S
C438 H465 0.983 . S
C439 C440 1.391 . S
C439 C444 1.391 . S
C439 H469 0.948 . S
C440 C439 1.391 . S
C440 C441 1.391 . S
C441 C440 1.391 . S
C441 C442 1.392 . S
C441 H470 0.947 . S
C442 C441 1.392 . S
C442 C443 1.419 . S
C442 H471 0.948 . S
C443 C442 1.419 . S
C443 C444 1.391 . S
C443 C447 1.397 . S
C444 C439 1.391 . S
C444 C443 1.391 . S
C444 C445 1.399 . S
C445 C444 1.399 . S
C445 C446 1.396 . S
C445 C448 1.453 . S
C445 C449 1.684 . S
C446 C427 1.723 . S
C446 C445 1.396 . S
C446 C447 1.394 . S
C447 C443 1.397 . S
C447 C446 1.394 . S
C447 C457 1.723 . S
C448 C445 1.453 . S
C448 H472 0.982 . S
C448 H473 0.979 . S
C448 H474 0.977 . S
C449 C445 1.684 . S
C449 H475 0.979 . S
C449 H476 0.980 . S
C449 H477 0.983 . S
C450 H426 0.948 . S
C450 C451 1.391 . S
C450 C455 1.391 . S
C451 C450 1.391 . S
C451 C452 1.391 . S
C452 H429 0.947 . S
C452 C451 1.391 . S
C452 C453 1.392 . S
C453 H430 0.948 . S
C453 C452 1.392 . S
C453 C454 1.419 . S
C454 C453 1.419 . S
C454 C455 1.391 . S
C454 C458 1.397 . S
C455 C450 1.391 . S
C455 C454 1.391 . S
C455 C456 1.399 . S
C456 C455 1.399 . S
C456 C457 1.396 . S
C456 C459 1.453 . S
C456 C460 1.684 . S
C457 C447 1.723 . S
C457 C456 1.396 . S
C457 C458 1.394 . S
C458 C428 1.723 . S
C458 C454 1.397 . S
C458 C457 1.394 . S
C459 H431 0.982 . S
C459 H435 0.979 . S
C459 H436 0.977 . S
C459 C456 1.453 . S
C460 H432 0.979 . S
C460 H433 0.980 . S
C460 H434 0.983 . S
C460 C456 1.684 . S
H461 C479 0.948 . S
H462 C420 0.948 . S
H463 C438 0.979 . S
H464 C438 0.980 . S
H465 C438 0.983 . S
H466 C437 0.982 . S
H467 C437 0.979 . S
H468 C437 0.977 . S
H469 C439 0.948 . S
H470 C441 0.947 . S
H471 C442 0.948 . S
H472 C448 0.982 . S
H473 C448 0.979 . S
H474 C448 0.977 . S
H475 C449 0.979 . S
H476 C449 0.980 . S
H477 C449 0.983 . S
H478 C422 0.947 . S
C479 C422 1.392 . S
C479 C423 1.419 . S
C479 H461 0.948 . S
C480 C481 1.391 . S
C480 C484 1.391 . S
C480 H522 0.948 . S
C481 C480 1.391 . S
C481 C482 1.391 . S
C482 C481 1.391 . S
C482 H538 0.947 . S
C482 C539 1.392 . S
C483 C484 1.391 . S
C483 C487 1.397 . S
C483 C539 1.419 . S
C484 C480 1.391 . S
C484 C483 1.391 . S
C484 C485 1.399 . S
C485 C484 1.399 . S
C485 C488 1.396 . S
C485 C497 1.453 . S
C485 C498 1.684 . S
H486 C510 0.948 . S
C487 C483 1.397 . S
C487 C488 1.394 . S
C487 C506 1.723 . S
C488 C485 1.396 . S
C488 C487 1.394 . S
C488 C518 1.723 . S
H489 C512 0.947 . S
H490 C513 0.948 . S
H491 C519 0.982 . S
H492 C520 0.979 . S
H493 C520 0.980 . S
H494 C520 0.983 . S
H495 C519 0.979 . S
H496 C519 0.977 . S
C497 C485 1.453 . S
C497 H526 0.982 . S
C497 H527 0.979 . S
C497 H528 0.977 . S
C498 C485 1.684 . S
C498 H523 0.979 . S
C498 H524 0.980 . S
C498 H525 0.983 . S
C499 C500 1.391 . S
C499 C504 1.391 . S
C499 H529 0.948 . S
C500 C499 1.391 . S
C500 C501 1.391 . S
C501 C500 1.391 . S
C501 C502 1.392 . S
C501 H530 0.947 . S
C502 C501 1.392 . S
C502 C503 1.419 . S
C502 H531 0.948 . S
C503 C502 1.419 . S
C503 C504 1.391 . S
C503 C507 1.397 . S
C504 C499 1.391 . S
C504 C503 1.391 . S
C504 C505 1.399 . S
C505 C504 1.399 . S
C505 C506 1.396 . S
C505 C508 1.453 . S
C505 C509 1.684 . S
C506 C487 1.723 . S
C506 C505 1.396 . S
C506 C507 1.394 . S
C507 C503 1.397 . S
C507 C506 1.394 . S
C507 C517 1.723 . S
C508 C505 1.453 . S
C508 H532 0.982 . S
C508 H533 0.979 . S
C508 H534 0.977 . S
C509 C505 1.684 . S
C509 H535 0.979 . S
C509 H536 0.980 . S
C509 H537 0.983 . S
C510 H486 0.948 . S
C510 C511 1.391 . S
C510 C515 1.391 . S
C511 C510 1.391 . S
C511 C512 1.391 . S
C512 H489 0.947 . S
C512 C511 1.391 . S
C512 C513 1.392 . S
C513 H490 0.948 . S
C513 C512 1.392 . S
C513 C514 1.419 . S
C514 C513 1.419 . S
C514 C515 1.391 . S
C514 C518 1.397 . S
C515 C510 1.391 . S
C515 C514 1.391 . S
C515 C516 1.399 . S
C516 C515 1.399 . S
C516 C517 1.396 . S
C516 C519 1.453 . S
C516 C520 1.684 . S
C517 C507 1.723 . S
C517 C516 1.396 . S
C517 C518 1.394 . S
C518 C488 1.723 . S
C518 C514 1.397 . S
C518 C517 1.394 . S
C519 H491 0.982 . S
C519 H495 0.979 . S
C519 H496 0.977 . S
C519 C516 1.453 . S
C520 H492 0.979 . S
C520 H493 0.980 . S
C520 H494 0.983 . S
C520 C516 1.684 . S
H521 C539 0.948 . S
H522 C480 0.948 . S
H523 C498 0.979 . S
H524 C498 0.980 . S
H525 C498 0.983 . S
H526 C497 0.982 . S
H527 C497 0.979 . S
H528 C497 0.977 . S
H529 C499 0.948 . S
H530 C501 0.947 . S
H531 C502 0.948 . S
H532 C508 0.982 . S
H533 C508 0.979 . S
H534 C508 0.977 . S
H535 C509 0.979 . S
H536 C509 0.980 . S
H537 C509 0.983 . S
H538 C482 0.947 . S
C539 C482 1.392 . S
C539 C483 1.419 . S
C539 H521 0.948 . S
C540 C541 1.391 . S
C540 C544 1.391 . S
C540 H582 0.948 . S
C541 C540 1.391 . S
C541 C542 1.391 . S
C542 C541 1.391 . S
C542 H598 0.947 . S
C542 C599 1.392 . S
C543 C544 1.391 . S
C543 C547 1.397 . S
C543 C599 1.419 . S
C544 C540 1.391 . S
C544 C543 1.391 . S
C544 C545 1.399 . S
C545 C544 1.399 . S
C545 C548 1.396 . S
C545 C557 1.453 . S
C545 C558 1.684 . S
H546 C570 0.948 1_545 S
C547 C543 1.397 . S
C547 C548 1.394 . S
C547 C566 1.723 . S
C548 C545 1.396 . S
C548 C547 1.394 . S
C548 C578 1.723 . S
H549 C572 0.947 . S
H550 C573 0.948 . S
H551 C579 0.982 1_565 S
H552 C580 0.979 . S
H553 C580 0.980 . S
H554 C580 0.983 . S
H555 C579 0.979 . S
H556 C579 0.977 . S
C557 C545 1.453 . S
C557 H586 0.982 . S
C557 H587 0.979 . S
C557 H588 0.977 . S
C558 C545 1.684 . S
C558 H583 0.979 . S
C558 H584 0.980 . S
C558 H585 0.983 . S
C559 C560 1.391 . S
C559 C564 1.391 . S
C559 H589 0.948 . S
C560 C559 1.391 . S
C560 C561 1.391 . S
C561 C560 1.391 . S
C561 C562 1.392 . S
C561 H590 0.947 . S
C562 C561 1.392 . S
C562 C563 1.419 . S
C562 H591 0.948 . S
C563 C562 1.419 . S
C563 C564 1.391 . S
C563 C567 1.397 1_545 S
C564 C559 1.391 . S
C564 C563 1.391 . S
C564 C565 1.399 1_545 S
C565 C564 1.399 1_565 S
C565 C566 1.396 . S
C565 C568 1.453 . S
C565 C569 1.684 . S
C566 C547 1.723 . S
C566 C565 1.396 . S
C566 C567 1.394 . S
C567 C563 1.397 1_565 S
C567 C566 1.394 . S
C567 C577 1.723 . S
C568 C565 1.453 . S
C568 H592 0.982 . S
C568 H593 0.979 . S
C568 H594 0.977 . S
C569 C565 1.684 . S
C569 H595 0.979 . S
C569 H596 0.980 . S
C569 H597 0.983 . S
C570 H546 0.948 1_565 S
C570 C571 1.391 . S
C570 C575 1.391 . S
C571 C570 1.391 . S
C571 C572 1.391 . S
C572 H549 0.947 . S
C572 C571 1.391 . S
C572 C573 1.392 . S
C573 H550 0.948 . S
C573 C572 1.392 . S
C573 C574 1.419 . S
C574 C573 1.419 . S
C574 C575 1.391 . S
C574 C578 1.397 . S
C575 C570 1.391 . S
C575 C574 1.391 . S
C575 C576 1.399 1_565 S
C576 C575 1.399 1_545 S
C576 C577 1.396 1_545 S
C576 C579 1.453 . S
C576 C580 1.684 . S
C577 C567 1.723 . S
C577 C576 1.396 1_565 S
C577 C578 1.394 . S
C578 C548 1.723 . S
C578 C574 1.397 . S
C578 C577 1.394 . S
C579 H551 0.982 1_545 S
C579 H555 0.979 . S
C579 H556 0.977 . S
C579 C576 1.453 . S
C580 H552 0.979 . S
C580 H553 0.980 . S
C580 H554 0.983 . S
C580 C576 1.684 . S
H581 C599 0.948 . S
H582 C540 0.948 . S
H583 C558 0.979 . S
H584 C558 0.980 . S
H585 C558 0.983 . S
H586 C557 0.982 . S
H587 C557 0.979 . S
H588 C557 0.977 . S
H589 C559 0.948 . S
H590 C561 0.947 . S
H591 C562 0.948 . S
H592 C568 0.982 . S
H593 C568 0.979 . S
H594 C568 0.977 . S
H595 C569 0.979 . S
H596 C569 0.980 . S
H597 C569 0.983 . S
H598 C542 0.947 . S
C599 C542 1.392 . S
C599 C543 1.419 . S
C599 H581 0.948 . S
C600 C601 1.391 . S
C600 C604 1.391 . S
C600 H642 0.948 . S
C601 C600 1.391 . S
C601 C602 1.391 . S
C602 C601 1.391 . S
C602 H658 0.947 . S
C602 C659 1.392 . S
C603 C604 1.391 . S
C603 C607 1.397 . S
C603 C659 1.419 . S
C604 C600 1.391 . S
C604 C603 1.391 . S
C604 C605 1.399 . S
C605 C604 1.399 . S
C605 C608 1.396 . S
C605 C617 1.453 . S
C605 C618 1.684 . S
H606 C630 0.948 . S
C607 C603 1.397 . S
C607 C608 1.394 . S
C607 C626 1.723 . S
C608 C605 1.396 . S
C608 C607 1.394 . S
C608 C638 1.723 . S
H609 C632 0.947 . S
H610 C633 0.948 . S
H611 C639 0.982 . S
H612 C640 0.979 . S
H613 C640 0.980 . S
H614 C640 0.983 . S
H615 C639 0.979 . S
H616 C639 0.977 . S
C617 C605 1.453 . S
C617 H646 0.982 . S
C617 H647 0.979 . S
C617 H648 0.977 . S
C618 C605 1.684 . S
C618 H643 0.979 . S
C618 H644 0.980 . S
C618 H645 0.983 . S
C619 C620 1.391 . S
C619 C624 1.391 . S
C619 H649 0.948 . S
C620 C619 1.391 . S
C620 C621 1.391 . S
C621 C620 1.391 . S
C621 C622 1.392 . S
C621 H650 0.947 . S
C622 C621 1.392 . S
C622 C623 1.419 . S
C622 H651 0.948 . S
C623 C622 1.419 . S
C623 C624 1.391 . S
C623 C627 1.397 . S
C624 C619 1.391 . S
C624 C623 1.391 . S
C624 C625 1.399 . S
C625 C624 1.399 . S
C625 C626 1.396 . S
C625 C628 1.453 . S
C625 C629 1.684 . S
C626 C607 1.723 . S
C626 C625 1.396 . S
C626 C627 1.394 . S
C627 C623 1.397 . S
C627 C626 1.394 . S
C627 C637 1.723 . S
C628 C625 1.453 . S
C628 H652 0.982 . S
C628 H653 0.979 . S
C628 H654 0.977 . S
C629 C625 1.684 . S
C629 H655 0.979 . S
C629 H656 0.980 . S
C629 H657 0.983 . S
C630 H606 0.948 . S
C630 C631 1.391 . S
C630 C635 1.391 . S
C631 C630 1.391 . S
C631 C632 1.391 . S
C632 H609 0.947 . S
C632 C631 1.391 . S
C632 C633 1.392 . S
C633 H610 0.948 . S
C633 C632 1.392 . S
C633 C634 1.419 . S
C634 C633 1.419 . S
C634 C635 1.391 . S
C634 C638 1.397 . S
C635 C630 1.391 . S
C635 C634 1.391 . S
C635 C636 1.399 . S
C636 C635 1.399 . S
C636 C637 1.396 . S
C636 C639 1.453 . S
C636 C640 1.684 . S
C637 C627 1.723 . S
C637 C636 1.396 . S
C637 C638 1.394 . S
C638 C608 1.723 . S
C638 C634 1.397 . S
C638 C637 1.394 . S
C639 H611 0.982 . S
C639 H615 0.979 . S
C639 H616 0.977 . S
C639 C636 1.453 . S
C640 H612 0.979 . S
C640 H613 0.980 . S
C640 H614 0.983 . S
C640 C636 1.684 . S
H641 C659 0.948 . S
H642 C600 0.948 . S
H643 C618 0.979 . S
H644 C618 0.980 . S
H645 C618 0.983 . S
H646 C617 0.982 . S
H647 C617 0.979 . S
H648 C617 0.977 . S
H649 C619 0.948 . S
H650 C621 0.947 . S
H651 C622 0.948 . S
H652 C628 0.982 . S
H653 C628 0.979 . S
H654 C628 0.977 . S
H655 C629 0.979 . S
H656 C629 0.980 . S
H657 C629 0.983 . S
H658 C602 0.947 . S
C659 C602 1.392 . S
C659 C603 1.419 . S
C659 H641 0.948 . S
C660 C661 1.391 . S
C660 C664 1.391 . S
C660 H702 0.948 . S
C661 C660 1.391 . S
C661 C662 1.391 . S
C662 C661 1.391 . S
C662 H718 0.947 . S
C662 C719 1.392 . S
C663 C664 1.391 . S
C663 C667 1.397 . S
C663 C719 1.419 . S
C664 C660 1.391 . S
C664 C663 1.391 . S
C664 C665 1.399 . S
C665 C664 1.399 . S
C665 C668 1.396 . S
C665 C677 1.453 . S
C665 C678 1.684 . S
H666 C690 0.948 . S
C667 C663 1.397 . S
C667 C668 1.394 . S
C667 C686 1.723 . S
C668 C665 1.396 . S
C668 C667 1.394 . S
C668 C698 1.723 . S
H669 C692 0.947 . S
H670 C693 0.948 . S
H671 C699 0.982 . S
H672 C700 0.979 . S
H673 C700 0.980 . S
H674 C700 0.983 . S
H675 C699 0.979 . S
H676 C699 0.977 . S
C677 C665 1.453 . S
C677 H706 0.982 . S
C677 H707 0.979 . S
C677 H708 0.977 . S
C678 C665 1.684 . S
C678 H703 0.979 . S
C678 H704 0.980 . S
C678 H705 0.983 . S
C679 C680 1.391 . S
C679 C684 1.391 . S
C679 H709 0.948 . S
C680 C679 1.391 . S
C680 C681 1.391 . S
C681 C680 1.391 . S
C681 C682 1.392 . S
C681 H710 0.947 . S
C682 C681 1.392 . S
C682 C683 1.419 . S
C682 H711 0.948 . S
C683 C682 1.419 . S
C683 C684 1.391 . S
C683 C687 1.397 . S
C684 C679 1.391 . S
C684 C683 1.391 . S
C684 C685 1.399 . S
C685 C684 1.399 . S
C685 C686 1.396 . S
C685 C688 1.453 . S
C685 C689 1.684 . S
C686 C667 1.723 . S
C686 C685 1.396 . S
C686 C687 1.394 . S
C687 C683 1.397 . S
C687 C686 1.394 . S
C687 C697 1.723 . S
C688 C685 1.453 . S
C688 H712 0.982 . S
C688 H713 0.979 . S
C688 H714 0.977 . S
C689 C685 1.684 . S
C689 H715 0.979 . S
C689 H716 0.980 . S
C689 H717 0.983 . S
C690 H666 0.948 . S
C690 C691 1.391 . S
C690 C695 1.391 . S
C691 C690 1.391 . S
C691 C692 1.391 . S
C692 H669 0.947 . S
C692 C691 1.391 . S
C692 C693 1.392 . S
C693 H670 0.948 . S
C693 C692 1.392 . S
C693 C694 1.419 . S
C694 C693 1.419 . S
C694 C695 1.391 . S
C694 C698 1.397 . S
C695 C690 1.391 . S
C695 C694 1.391 . S
C695 C696 1.399 . S
C696 C695 1.399 . S
C696 C697 1.396 . S
C696 C699 1.453 . S
C696 C700 1.684 . S
C697 C687 1.723 . S
C697 C696 1.396 . S
C697 C698 1.394 . S
C698 C668 1.723 . S
C698 C694 1.397 . S
C698 C697 1.394 . S
C699 H671 0.982 . S
C699 H675 0.979 . S
C699 H676 0.977 . S
C699 C696 1.453 . S
C700 H672 0.979 . S
C700 H673 0.980 . S
C700 H674 0.983 . S
C700 C696 1.684 . S
H701 C719 0.948 . S
H702 C660 0.948 . S
H703 C678 0.979 . S
H704 C678 0.980 . S
H705 C678 0.983 . S
H706 C677 0.982 . S
H707 C677 0.979 . S
H708 C677 0.977 . S
H709 C679 0.948 . S
H710 C681 0.947 . S
H711 C682 0.948 . S
H712 C688 0.982 . S
H713 C688 0.979 . S
H714 C688 0.977 . S
H715 C689 0.979 . S
H716 C689 0.980 . S
H717 C689 0.983 . S
H718 C662 0.947 . S
C719 C662 1.392 . S
C719 C663 1.419 . S
C719 H701 0.948 . S
C720 C721 1.391 . S
C720 C724 1.391 . S
C720 H762 0.948 . S
C721 C720 1.391 . S
C721 C722 1.391 . S
C722 C721 1.391 . S
C722 H778 0.947 . S
C722 C779 1.392 . S
C723 C724 1.391 . S
C723 C727 1.397 . S
C723 C779 1.419 . S
C724 C720 1.391 . S
C724 C723 1.391 . S
C724 C725 1.399 . S
C725 C724 1.399 . S
C725 C728 1.396 . S
C725 C737 1.453 . S
C725 C738 1.684 . S
H726 C750 0.948 . S
C727 C723 1.397 . S
C727 C728 1.394 . S
C727 C746 1.723 . S
C728 C725 1.396 . S
C728 C727 1.394 . S
C728 C758 1.723 . S
H729 C752 0.947 . S
H730 C753 0.948 . S
H731 C759 0.982 . S
H732 C760 0.979 . S
H733 C760 0.980 . S
H734 C760 0.983 . S
H735 C759 0.979 . S
H736 C759 0.977 . S
C737 C725 1.453 . S
C737 H766 0.982 . S
C737 H767 0.979 . S
C737 H768 0.977 . S
C738 C725 1.684 . S
C738 H763 0.979 . S
C738 H764 0.980 . S
C738 H765 0.983 . S
C739 C740 1.391 . S
C739 C744 1.391 . S
C739 H769 0.948 . S
C740 C739 1.391 . S
C740 C741 1.391 . S
C741 C740 1.391 . S
C741 C742 1.392 . S
C741 H770 0.947 . S
C742 C741 1.392 . S
C742 C743 1.419 . S
C742 H771 0.948 . S
C743 C742 1.419 . S
C743 C744 1.391 . S
C743 C747 1.397 . S
C744 C739 1.391 . S
C744 C743 1.391 . S
C744 C745 1.399 . S
C745 C744 1.399 . S
C745 C746 1.396 . S
C745 C748 1.453 . S
C745 C749 1.684 . S
C746 C727 1.723 . S
C746 C745 1.396 . S
C746 C747 1.394 . S
C747 C743 1.397 . S
C747 C746 1.394 . S
C747 C757 1.723 . S
C748 C745 1.453 . S
C748 H772 0.982 . S
C748 H773 0.979 . S
C748 H774 0.977 . S
C749 C745 1.684 . S
C749 H775 0.979 . S
C749 H776 0.980 . S
C749 H777 0.983 . S
C750 H726 0.948 . S
C750 C751 1.391 . S
C750 C755 1.391 . S
C751 C750 1.391 . S
C751 C752 1.391 . S
C752 H729 0.947 . S
C752 C751 1.391 . S
C752 C753 1.392 . S
C753 H730 0.948 . S
C753 C752 1.392 . S
C753 C754 1.419 . S
C754 C753 1.419 . S
C754 C755 1.391 . S
C754 C758 1.397 . S
C755 C750 1.391 . S
C755 C754 1.391 . S
C755 C756 1.399 . S
C756 C755 1.399 . S
C756 C757 1.396 . S
C756 C759 1.453 . S
C756 C760 1.684 . S
C757 C747 1.723 . S
C757 C756 1.396 . S
C757 C758 1.394 . S
C758 C728 1.723 . S
C758 C754 1.397 . S
C758 C757 1.394 . S
C759 H731 0.982 . S
C759 H735 0.979 . S
C759 H736 0.977 . S
C759 C756 1.453 . S
C760 H732 0.979 . S
C760 H733 0.980 . S
C760 H734 0.983 . S
C760 C756 1.684 . S
H761 C779 0.948 . S
H762 C720 0.948 . S
H763 C738 0.979 . S
H764 C738 0.980 . S
H765 C738 0.983 . S
H766 C737 0.982 . S
H767 C737 0.979 . S
H768 C737 0.977 . S
H769 C739 0.948 . S
H770 C741 0.947 . S
H771 C742 0.948 . S
H772 C748 0.982 . S
H773 C748 0.979 . S
H774 C748 0.977 . S
H775 C749 0.979 . S
H776 C749 0.980 . S
H777 C749 0.983 . S
H778 C722 0.947 . S
C779 C722 1.392 . S
C779 C723 1.419 . S
C779 H761 0.948 . S
C780 C781 1.391 . S
C780 C784 1.391 . S
C780 H822 0.948 . S
C781 C780 1.391 . S
C781 C782 1.391 . S
C782 C781 1.391 . S
C782 H838 0.947 . S
C782 C839 1.392 1_554 S
C783 C784 1.391 1_556 S
C783 C787 1.397 . S
C783 C839 1.419 . S
C784 C780 1.391 . S
C784 C783 1.391 1_554 S
C784 C785 1.399 . S
C785 C784 1.399 . S
C785 C788 1.396 1_554 S
C785 C797 1.453 . S
C785 C798 1.684 . S
H786 C810 0.948 . S
C787 C783 1.397 . S
C787 C788 1.394 . S
C787 C806 1.723 . S
C788 C785 1.396 1_556 S
C788 C787 1.394 . S
C788 C818 1.723 . S
H789 C812 0.947 . S
H790 C813 0.929 1_554 S
H791 C819 0.982 . S
H792 C820 0.979 . S
H793 C820 0.980 . S
H794 C820 0.983 . S
H795 C819 0.979 . S
H796 C819 0.977 . S
C797 C785 1.453 . S
C797 H826 0.982 . S
C797 H827 0.979 . S
C797 H828 0.977 . S
C798 C785 1.684 . S
C798 H823 0.979 . S
C798 H824 0.980 . S
C798 H825 0.983 . S
C799 C800 1.391 . S
C799 C804 1.391 . S
C799 H829 0.948 . S
C800 C799 1.391 . S
C800 C801 1.391 . S
C801 C800 1.391 . S
C801 C802 1.392 . S
C801 H830 0.947 . S
C802 C801 1.392 . S
C802 C803 1.419 . S
C802 H831 0.948 . S
C803 C802 1.419 . S
C803 C804 1.391 . S
C803 C807 1.397 . S
C804 C799 1.391 . S
C804 C803 1.391 . S
C804 C805 1.399 . S
C805 C804 1.399 . S
C805 C806 1.396 . S
C805 C808 1.453 . S
C805 C809 1.684 . S
C806 C787 1.723 . S
C806 C805 1.396 . S
C806 C807 1.394 . S
C807 C803 1.397 . S
C807 C806 1.394 . S
C807 C817 1.723 . S
C808 C805 1.453 . S
C808 H832 0.982 . S
C808 H833 0.979 . S
C808 H834 0.977 . S
C809 C805 1.684 . S
C809 H835 0.979 . S
C809 H836 0.980 . S
C809 H837 0.983 . S
C810 H786 0.948 . S
C810 C811 1.391 . S
C810 C815 1.391 . S
C811 C810 1.391 . S
C811 C812 1.391 1_556 S
C812 H789 0.947 . S
C812 C811 1.391 1_554 S
C812 C813 1.390 1_554 S
C813 H790 0.929 1_556 S
C813 C812 1.390 1_556 S
C813 C814 1.440 . S
C814 C813 1.440 . S
C814 C815 1.391 . S
C814 C818 1.397 . S
C815 C810 1.391 . S
C815 C814 1.391 . S
C815 C816 1.399 . S
C816 C815 1.399 . S
C816 C817 1.396 . S
C816 C819 1.453 . S
C816 C820 1.684 . S
C817 C807 1.723 . S
C817 C816 1.396 . S
C817 C818 1.394 . S
C818 C788 1.723 . S
C818 C814 1.397 . S
C818 C817 1.394 . S
C819 H791 0.982 . S
C819 H795 0.979 . S
C819 H796 0.977 . S
C819 C816 1.453 . S
C820 H792 0.979 . S
C820 H793 0.980 . S
C820 H794 0.983 . S
C820 C816 1.684 . S
H821 C839 0.948 . S
H822 C780 0.948 . S
H823 C798 0.979 . S
H824 C798 0.980 . S
H825 C798 0.983 . S
H826 C797 0.982 . S
H827 C797 0.979 . S
H828 C797 0.977 . S
H829 C799 0.948 . S
H830 C801 0.947 . S
H831 C802 0.948 . S
H832 C808 0.982 . S
H833 C808 0.979 . S
H834 C808 0.977 . S
H835 C809 0.979 . S
H836 C809 0.980 . S
H837 C809 0.983 . S
H838 C782 0.947 . S
C839 C782 1.392 1_556 S
C839 C783 1.419 . S
C839 H821 0.948 . S
C840 C841 1.391 . S
C840 C844 1.391 . S
C840 H882 0.948 . S
C841 C840 1.391 . S
C841 C842 1.391 . S
C842 C841 1.391 . S
C842 H898 0.947 . S
C842 C899 1.392 . S
C843 C844 1.391 . S
C843 C847 1.397 . S
C843 C899 1.419 . S
C844 C840 1.391 . S
C844 C843 1.391 . S
C844 C845 1.399 . S
C845 C844 1.399 . S
C845 C848 1.396 . S
C845 C857 1.453 . S
C845 C858 1.684 . S
H846 C870 0.948 . S
C847 C843 1.397 . S
C847 C848 1.394 . S
C847 C866 1.723 . S
C848 C845 1.396 . S
C848 C847 1.394 . S
C848 C878 1.723 . S
H849 C872 0.947 . S
H850 C873 0.948 . S
H851 C879 0.982 . S
H852 C880 0.979 . S
H853 C880 0.980 . S
H854 C880 0.983 . S
H855 C879 0.979 . S
H856 C879 0.977 . S
C857 C845 1.453 . S
C857 H886 0.982 . S
C857 H887 0.979 . S
C857 H888 0.977 . S
C858 C845 1.684 . S
C858 H883 0.979 . S
C858 H884 0.980 . S
C858 H885 0.983 . S
C859 C860 1.391 . S
C859 C864 1.391 . S
C859 H889 0.948 . S
C860 C859 1.391 . S
C860 C861 1.391 . S
C861 C860 1.391 . S
C861 C862 1.392 . S
C861 H890 0.947 . S
C862 C861 1.392 . S
C862 C863 1.419 . S
C862 H891 0.948 . S
C863 C862 1.419 . S
C863 C864 1.391 . S
C863 C867 1.397 . S
C864 C859 1.391 . S
C864 C863 1.391 . S
C864 C865 1.399 . S
C865 C864 1.399 . S
C865 C866 1.396 . S
C865 C868 1.453 . S
C865 C869 1.684 . S
C866 C847 1.723 . S
C866 C865 1.396 . S
C866 C867 1.394 . S
C867 C863 1.397 . S
C867 C866 1.394 . S
C867 C877 1.723 . S
C868 C865 1.453 . S
C868 H892 0.982 . S
C868 H893 0.979 . S
C868 H894 0.977 . S
C869 C865 1.684 . S
C869 H895 0.979 . S
C869 H896 0.980 . S
C869 H897 0.983 . S
C870 H846 0.948 . S
C870 C871 1.391 . S
C870 C875 1.391 . S
C871 C870 1.391 . S
C871 C872 1.391 . S
C872 H849 0.947 . S
C872 C871 1.391 . S
C872 C873 1.392 . S
C873 H850 0.948 . S
C873 C872 1.392 . S
C873 C874 1.419 . S
C874 C873 1.419 . S
C874 C875 1.391 . S
C874 C878 1.397 . S
C875 C870 1.391 . S
C875 C874 1.391 . S
C875 C876 1.399 . S
C876 C875 1.399 . S
C876 C877 1.396 . S
C876 C879 1.453 . S
C876 C880 1.684 . S
C877 C867 1.723 . S
C877 C876 1.396 . S
C877 C878 1.394 . S
C878 C848 1.723 . S
C878 C874 1.397 . S
C878 C877 1.394 . S
C879 H851 0.982 . S
C879 H855 0.979 . S
C879 H856 0.977 . S
C879 C876 1.453 . S
C880 H852 0.979 . S
C880 H853 0.980 . S
C880 H854 0.983 . S
C880 C876 1.684 . S
H881 C899 0.948 . S
H882 C840 0.948 . S
H883 C858 0.979 . S
H884 C858 0.980 . S
H885 C858 0.983 . S
H886 C857 0.982 . S
H887 C857 0.979 . S
H888 C857 0.977 . S
H889 C859 0.948 . S
H890 C861 0.947 . S
H891 C862 0.948 . S
H892 C868 0.982 . S
H893 C868 0.979 . S
H894 C868 0.977 . S
H895 C869 0.979 . S
H896 C869 0.980 . S
H897 C869 0.983 . S
H898 C842 0.947 . S
C899 C842 1.392 . S
C899 C843 1.419 . S
C899 H881 0.948 . S
C900 C901 1.391 1_554 S
C900 C904 1.391 1_564 S
C900 H942 0.948 . S
C901 C900 1.391 1_556 S
C901 C902 1.391 . S
C902 C901 1.391 . S
C902 H958 0.947 . S
C902 C959 1.392 . S
C903 C904 1.391 1_565 S
C903 C907 1.397 1_565 S
C903 C959 1.419 . S
C904 C900 1.391 1_546 S
C904 C903 1.391 1_545 S
C904 C905 1.399 1_556 S
C905 C904 1.399 1_554 S
C905 C908 1.396 1_554 S
C905 C917 1.453 . S
C905 C918 1.684 . S
H906 C930 0.948 . S
C907 C903 1.397 1_545 S
C907 C908 1.394 . S
C907 C926 1.723 . S
C908 C905 1.396 1_556 S
C908 C907 1.394 . S
C908 C938 1.723 . S
H909 C932 0.947 . S
H910 C933 0.948 . S
H911 C939 0.982 . S
H912 C940 0.979 . S
H913 C940 0.980 . S
H914 C940 0.983 . S
H915 C939 0.979 . S
H916 C939 0.977 . S
C917 C905 1.453 . S
C917 H946 0.982 1_554 S
C917 H947 0.979 . S
C917 H948 0.977 . S
C918 C905 1.684 . S
C918 H943 0.979 . S
C918 H944 0.980 . S
C918 H945 0.983 . S
C919 C920 1.391 . S
C919 C924 1.391 . S
C919 H949 0.948 1_545 S
C920 C919 1.391 . S
C920 C921 1.391 . S
C921 C920 1.391 . S
C921 C922 1.392 . S
C921 H950 0.947 . S
C922 C921 1.392 . S
C922 C923 1.419 . S
C922 H951 0.948 . S
C923 C922 1.419 . S
C923 C924 1.391 . S
C923 C927 1.397 . S
C924 C919 1.391 . S
C924 C923 1.391 . S
C924 C925 1.412 . S
C925 C924 1.412 . S
C925 C926 1.415 . S
C925 C928 1.450 1_545 S
C925 C929 1.654 1_545 S
C926 C907 1.723 . S
C926 C925 1.415 . S
C926 C927 1.394 . S
C927 C923 1.397 . S
C927 C926 1.394 . S
C927 C937 1.723 . S
C928 C925 1.450 1_565 S
C928 H952 0.982 1_565 S
C928 H953 0.979 . S
C928 H954 0.977 . S
C929 C925 1.654 1_565 S
C929 H955 0.979 . S
C929 H956 0.980 . S
C929 H957 0.983 . S
C930 H906 0.948 . S
C930 C931 1.391 . S
C930 C935 1.391 . S
C931 C930 1.391 . S
C931 C932 1.391 . S
C932 H909 0.947 . S
C932 C931 1.391 . S
C932 C933 1.392 . S
C933 H910 0.948 . S
C933 C932 1.392 . S
C933 C934 1.419 . S
C934 C933 1.419 . S
C934 C935 1.391 . S
C934 C938 1.397 1_554 S
C935 C930 1.391 . S
C935 C934 1.391 . S
C935 C936 1.399 1_554 S
C936 C935 1.399 1_556 S
C936 C937 1.396 . S
C936 C939 1.453 . S
C936 C940 1.684 . S
C937 C927 1.723 . S
C937 C936 1.396 . S
C937 C938 1.394 . S
C938 C908 1.723 . S
C938 C934 1.397 1_556 S
C938 C937 1.394 . S
C939 H911 0.982 . S
C939 H915 0.979 . S
C939 H916 0.977 . S
C939 C936 1.453 . S
C940 H912 0.979 . S
C940 H913 0.980 . S
C940 H914 0.983 . S
C940 C936 1.684 . S
H941 C959 0.948 . S
H942 C900 0.948 . S
H943 C918 0.979 . S
H944 C918 0.980 . S
H945 C918 0.983 . S
H946 C917 0.982 1_556 S
H947 C917 0.979 . S
H948 C917 0.977 . S
H949 C919 0.948 1_565 S
H950 C921 0.947 . S
H951 C922 0.948 . S
H952 C928 0.982 1_545 S
H953 C928 0.979 . S
H954 C928 0.977 . S
H955 C929 0.979 . S
H956 C929 0.980 . S
H957 C929 0.983 . S
H958 C902 0.947 . S
C959 C902 1.392 . S
C959 C903 1.419 . S
C959 H941 0.948 . S
Mn960 O965 2.095 . S
Mn960 O975 2.162 . S
Mn960 O976 2.297 . S
Mn960 O984 2.385 1_554 S
Mn960 O985 2.209 1_554 S
Mn960 O986 2.094 . S
Mn961 O966 2.121 . S
Mn961 N968 2.257 . S
Mn961 N977 2.282 . S
Mn961 O985 2.215 . S
Mn961 O987 2.117 . S
C962 O984 1.234 . S
C962 O985 1.283 . S
C963 O975 1.281 . S
C963 O976 1.236 . S
C964 O986 1.240 . S
C964 O987 1.264 1_554 S
O965 Mn960 2.095 . S
O965 C974 1.273 . S
O966 Mn961 2.121 . S
O966 C974 1.228 1_556 S
C967 N968 1.326 . S
C967 C971 1.460 . S
C967 H973 0.929 . S
N968 Mn961 2.257 . S
N968 C967 1.326 . S
N968 C972 1.362 . S
C969 C970 1.258 . S
C969 C972 1.431 . S
C969 C989 1.449 . S
C970 C969 1.258 . S
C970 C971 1.477 . S
C970 H990 0.931 . S
C971 C967 1.460 . S
C971 C970 1.477 . S
C971 H991 0.930 . S
C972 N968 1.362 . S
C972 C969 1.431 . S
C972 C982 1.476 . S
H973 C967 0.929 . S
C974 O965 1.273 . S
C974 O966 1.228 1_554 S
O975 Mn960 2.162 . S
O975 C963 1.281 . S
O976 Mn960 2.297 . S
O976 C963 1.236 . S
N977 Mn961 2.282 . S
N977 C978 1.328 . S
N977 C982 1.318 . S
C978 N977 1.328 . S
C978 C979 1.457 . S
C978 H983 0.929 . S
C979 C978 1.457 . S
C979 C980 1.291 . S
C979 H992 0.931 . S
C980 C979 1.291 . S
C980 C981 1.373 . S
C980 H993 0.929 . S
C981 C980 1.373 . S
C981 C982 1.396 . S
C981 C988 1.403 . S
C982 C972 1.476 . S
C982 N977 1.318 . S
C982 C981 1.396 . S
H983 C978 0.929 . S
O984 Mn960 2.385 1_556 S
O984 C962 1.234 . S
O985 Mn960 2.209 1_556 S
O985 Mn961 2.215 . S
O985 C962 1.283 . S
O986 Mn960 2.094 . S
O986 C964 1.240 . S
O987 Mn961 2.117 . S
O987 C964 1.264 1_556 S
C988 C981 1.403 . S
C988 C989 1.399 . S
C988 H994 0.929 . S
C989 C969 1.449 . S
C989 C988 1.399 . S
C989 H995 0.930 . S
H990 C970 0.931 . S
H991 C971 0.930 . S
H992 C979 0.931 . S
H993 C980 0.929 . S
H994 C988 0.929 . S
H995 C989 0.930 . S
Mn996 O1001 2.095 . S
Mn996 O1011 2.162 . S
Mn996 O1012 2.297 . S
Mn996 O1020 2.385 . S
Mn996 O1021 2.209 . S
Mn996 O1022 2.094 . S
Mn997 O1002 2.121 . S
Mn997 N1004 2.257 . S
Mn997 N1013 2.282 . S
Mn997 O1021 2.215 . S
Mn997 O1023 2.117 . S
C998 O1020 1.234 . S
C998 O1021 1.283 . S
C999 O1011 1.281 . S
C999 O1012 1.236 . S
C1000 O1022 1.240 . S
C1000 O1023 1.264 . S
O1001 Mn996 2.095 . S
O1001 C1010 1.250 . S
O1002 Mn997 2.121 . S
O1002 C1010 1.258 . S
C1003 N1004 1.326 . S
C1003 C1007 1.460 . S
C1003 H1009 0.929 . S
N1004 Mn997 2.257 . S
N1004 C1003 1.326 . S
N1004 C1008 1.362 . S
C1005 C1006 1.258 . S
C1005 C1008 1.431 . S
C1005 C1025 1.449 . S
C1006 C1005 1.258 . S
C1006 C1007 1.477 . S
C1006 H1026 0.931 . S
C1007 C1003 1.460 . S
C1007 C1006 1.477 . S
C1007 H1027 0.930 . S
C1008 N1004 1.362 . S
C1008 C1005 1.431 . S
C1008 C1018 1.476 . S
H1009 C1003 0.929 . S
C1010 O1001 1.250 . S
C1010 O1002 1.258 . S
O1011 Mn996 2.162 . S
O1011 C999 1.281 . S
O1012 Mn996 2.297 . S
O1012 C999 1.236 . S
N1013 Mn997 2.282 . S
N1013 C1014 1.328 . S
N1013 C1018 1.318 . S
C1014 N1013 1.328 . S
C1014 C1015 1.457 . S
C1014 H1019 0.929 . S
C1015 C1014 1.457 . S
C1015 C1016 1.291 . S
C1015 H1028 0.931 . S
C1016 C1015 1.291 . S
C1016 C1017 1.373 . S
C1016 H1029 0.929 . S
C1017 C1016 1.373 . S
C1017 C1018 1.396 . S
C1017 C1024 1.403 . S
C1018 C1008 1.476 . S
C1018 N1013 1.318 . S
C1018 C1017 1.396 . S
H1019 C1014 0.929 . S
O1020 Mn996 2.385 . S
O1020 C998 1.234 . S
O1021 Mn996 2.209 . S
O1021 Mn997 2.215 . S
O1021 C998 1.283 . S
O1022 Mn996 2.094 . S
O1022 C1000 1.240 . S
O1023 Mn997 2.117 . S
O1023 C1000 1.264 . S
C1024 C1017 1.403 . S
C1024 C1025 1.399 . S
C1024 H1030 0.929 . S
C1025 C1005 1.449 . S
C1025 C1024 1.399 . S
C1025 H1031 0.930 . S
H1026 C1006 0.931 . S
H1027 C1007 0.930 . S
H1028 C1015 0.931 . S
H1029 C1016 0.929 . S
H1030 C1024 0.929 . S
H1031 C1025 0.930 . S
Mn1032 O1037 2.095 1_554 S
Mn1032 O1047 2.162 . S
Mn1032 O1048 2.297 1_554 S
Mn1032 O1056 2.385 . S
Mn1032 O1057 2.209 1_554 S
Mn1032 O1058 2.094 . S
Mn1033 O1038 2.121 . S
Mn1033 N1040 2.257 . S
Mn1033 N1049 2.282 . S
Mn1033 O1057 2.215 . S
Mn1033 O1059 2.117 1_556 S
C1034 O1056 1.231 . S
C1034 O1057 1.285 1_554 S
C1035 O1047 1.281 . S
C1035 O1048 1.236 1_554 S
C1036 O1058 1.240 . S
C1036 O1059 1.264 . S
O1037 Mn1032 2.095 1_556 S
O1037 C1046 1.250 . S
O1038 Mn1033 2.121 . S
O1038 C1046 1.258 . S
C1039 N1040 1.326 . S
C1039 C1043 1.460 . S
C1039 H1045 0.929 . S
N1040 Mn1033 2.257 . S
N1040 C1039 1.326 . S
N1040 C1044 1.362 . S
C1041 C1042 1.258 . S
C1041 C1044 1.431 . S
C1041 C1061 1.449 . S
C1042 C1041 1.258 . S
C1042 C1043 1.477 . S
C1042 H1062 0.931 . S
C1043 C1039 1.460 . S
C1043 C1042 1.477 . S
C1043 H1063 0.930 . S
C1044 N1040 1.362 . S
C1044 C1041 1.431 . S
C1044 C1054 1.476 . S
H1045 C1039 0.929 . S
C1046 O1037 1.250 . S
C1046 O1038 1.258 . S
O1047 Mn1032 2.162 . S
O1047 C1035 1.281 . S
O1048 Mn1032 2.297 1_556 S
O1048 C1035 1.236 1_556 S
N1049 Mn1033 2.282 . S
N1049 C1050 1.328 1_556 S
N1049 C1054 1.318 . S
C1050 N1049 1.328 1_554 S
C1050 C1051 1.457 . S
C1050 H1055 0.929 . S
C1051 C1050 1.457 . S
C1051 C1052 1.291 . S
C1051 H1064 0.931 . S
C1052 C1051 1.291 . S
C1052 C1053 1.373 1_554 S
C1052 H1065 0.929 . S
C1053 C1052 1.373 1_556 S
C1053 C1054 1.396 . S
C1053 C1060 1.403 . S
C1054 C1044 1.476 . S
C1054 N1049 1.318 . S
C1054 C1053 1.396 . S
H1055 C1050 0.929 . S
O1056 Mn1032 2.385 . S
O1056 C1034 1.231 . S
O1057 Mn1032 2.209 1_556 S
O1057 Mn1033 2.215 . S
O1057 C1034 1.285 1_556 S
O1058 Mn1032 2.094 . S
O1058 C1036 1.240 . S
O1059 Mn1033 2.117 1_554 S
O1059 C1036 1.264 . S
C1060 C1053 1.403 . S
C1060 C1061 1.399 . S
C1060 H1066 0.929 . S
C1061 C1041 1.449 . S
C1061 C1060 1.399 . S
C1061 H1067 0.930 . S
H1062 C1042 0.931 . S
H1063 C1043 0.930 . S
H1064 C1051 0.931 . S
H1065 C1052 0.929 . S
H1066 C1060 0.929 . S
H1067 C1061 0.930 . S
Mn1068 O1073 2.095 . S
Mn1068 O1083 2.162 . S
Mn1068 O1084 2.297 . S
Mn1068 O1092 2.385 1_545 S
Mn1068 O1093 2.209 1_545 S
Mn1068 O1094 2.094 . S
Mn1069 O1074 2.121 . S
Mn1069 N1076 2.257 . S
Mn1069 N1085 2.282 . S
Mn1069 O1093 2.215 . S
Mn1069 O1095 2.117 . S
C1070 O1092 1.234 . S
C1070 O1093 1.283 . S
C1071 O1083 1.281 . S
C1071 O1084 1.236 . S
C1072 O1094 1.240 . S
C1072 O1095 1.264 1_545 S
O1073 Mn1068 2.095 . S
O1073 C1082 1.250 1_545 S
O1074 Mn1069 2.121 . S
O1074 C1082 1.258 . S
C1075 N1076 1.326 . S
C1075 C1079 1.460 . S
C1075 H1081 0.929 . S
N1076 Mn1069 2.257 . S
N1076 C1075 1.326 . S
N1076 C1080 1.362 . S
C1077 C1078 1.258 . S
C1077 C1080 1.431 . S
C1077 C1097 1.449 . S
C1078 C1077 1.258 . S
C1078 C1079 1.477 . S
C1078 H1098 0.931 . S
C1079 C1075 1.460 . S
C1079 C1078 1.477 . S
C1079 H1099 0.930 . S
C1080 N1076 1.362 . S
C1080 C1077 1.431 . S
C1080 C1090 1.476 . S
H1081 C1075 0.929 . S
C1082 O1073 1.250 1_565 S
C1082 O1074 1.258 . S
O1083 Mn1068 2.162 . S
O1083 C1071 1.281 . S
O1084 Mn1068 2.297 . S
O1084 C1071 1.236 . S
N1085 Mn1069 2.282 . S
N1085 C1086 1.328 . S
N1085 C1090 1.318 . S
C1086 N1085 1.328 . S
C1086 C1087 1.457 . S
C1086 H1091 0.929 . S
C1087 C1086 1.457 . S
C1087 C1088 1.291 . S
C1087 H1100 0.931 . S
C1088 C1087 1.291 . S
C1088 C1089 1.373 . S
C1088 H1101 0.929 . S
C1089 C1088 1.373 . S
C1089 C1090 1.396 . S
C1089 C1096 1.403 . S
C1090 C1080 1.476 . S
C1090 N1085 1.318 . S
C1090 C1089 1.396 . S
H1091 C1086 0.929 . S
O1092 Mn1068 2.385 1_565 S
O1092 C1070 1.234 . S
O1093 Mn1068 2.209 1_565 S
O1093 Mn1069 2.215 . S
O1093 C1070 1.283 . S
O1094 Mn1068 2.094 . S
O1094 C1072 1.240 . S
O1095 Mn1069 2.117 . S
O1095 C1072 1.264 1_565 S
C1096 C1089 1.403 . S
C1096 C1097 1.399 . S
C1096 H1102 0.929 . S
C1097 C1077 1.449 . S
C1097 C1096 1.399 . S
C1097 H1103 0.930 . S
H1098 C1078 0.931 . S
H1099 C1079 0.930 . S
H1100 C1087 0.931 . S
H1101 C1088 0.929 . S
H1102 C1096 0.929 . S
H1103 C1097 0.930 . S
Mn1104 O1109 2.095 . S
Mn1104 O1119 2.162 . S
Mn1104 O1120 2.297 . S
Mn1104 O1128 2.385 . S
Mn1104 O1129 2.209 . S
Mn1104 O1130 2.094 . S
Mn1105 O1110 2.121 . S
Mn1105 N1112 2.257 . S
Mn1105 N1121 2.282 . S
Mn1105 O1129 2.215 . S
Mn1105 O1131 2.117 . S
C1106 O1128 1.234 . S
C1106 O1129 1.283 . S
C1107 O1119 1.281 . S
C1107 O1120 1.236 . S
C1108 O1130 1.240 . S
C1108 O1131 1.264 . S
O1109 Mn1104 2.095 . S
O1109 C1118 1.250 . S
O1110 Mn1105 2.121 . S
O1110 C1118 1.258 . S
C1111 N1112 1.326 . S
C1111 C1115 1.460 . S
C1111 H1117 0.929 . S
N1112 Mn1105 2.257 . S
N1112 C1111 1.326 . S
N1112 C1116 1.362 . S
C1113 C1114 1.258 . S
C1113 C1116 1.431 . S
C1113 C1133 1.449 . S
C1114 C1113 1.258 . S
C1114 C1115 1.477 . S
C1114 H1134 0.931 . S
C1115 C1111 1.460 . S
C1115 C1114 1.477 . S
C1115 H1135 0.930 . S
C1116 N1112 1.362 . S
C1116 C1113 1.431 . S
C1116 C1126 1.476 . S
H1117 C1111 0.929 . S
C1118 O1109 1.250 . S
C1118 O1110 1.258 . S
O1119 Mn1104 2.162 . S
O1119 C1107 1.281 . S
O1120 Mn1104 2.297 . S
O1120 C1107 1.236 . S
N1121 Mn1105 2.282 . S
N1121 C1122 1.328 . S
N1121 C1126 1.318 . S
C1122 N1121 1.328 . S
C1122 C1123 1.457 . S
C1122 H1127 0.929 . S
C1123 C1122 1.457 . S
C1123 C1124 1.291 . S
C1123 H1136 0.931 . S
C1124 C1123 1.291 . S
C1124 C1125 1.373 . S
C1124 H1137 0.929 . S
C1125 C1124 1.373 . S
C1125 C1126 1.396 . S
C1125 C1132 1.403 . S
C1126 C1116 1.476 . S
C1126 N1121 1.318 . S
C1126 C1125 1.396 . S
H1127 C1122 0.929 . S
O1128 Mn1104 2.385 . S
O1128 C1106 1.234 . S
O1129 Mn1104 2.209 . S
O1129 Mn1105 2.215 . S
O1129 C1106 1.283 . S
O1130 Mn1104 2.094 . S
O1130 C1108 1.240 . S
O1131 Mn1105 2.117 . S
O1131 C1108 1.264 . S
C1132 C1125 1.403 . S
C1132 C1133 1.399 . S
C1132 H1138 0.929 . S
C1133 C1113 1.449 . S
C1133 C1132 1.399 . S
C1133 H1139 0.930 . S
H1134 C1114 0.931 . S
H1135 C1115 0.930 . S
H1136 C1123 0.931 . S
H1137 C1124 0.929 . S
H1138 C1132 0.929 . S
H1139 C1133 0.930 . S
Mn1140 O1145 2.095 . S
Mn1140 O1155 2.162 . S
Mn1140 O1156 2.297 . S
Mn1140 O1164 2.385 . S
Mn1140 O1165 2.209 . S
Mn1140 O1166 2.094 . S
Mn1141 O1146 2.121 . S
Mn1141 N1148 2.257 . S
Mn1141 N1157 2.282 . S
Mn1141 O1165 2.215 . S
Mn1141 O1167 2.117 . S
C1142 O1164 1.234 . S
C1142 O1165 1.283 . S
C1143 O1155 1.281 . S
C1143 O1156 1.236 . S
C1144 O1166 1.240 . S
C1144 O1167 1.264 . S
O1145 Mn1140 2.095 . S
O1145 C1154 1.250 . S
O1146 Mn1141 2.121 . S
O1146 C1154 1.258 . S
C1147 N1148 1.326 . S
C1147 C1151 1.460 . S
C1147 H1153 0.929 . S
N1148 Mn1141 2.257 . S
N1148 C1147 1.326 . S
N1148 C1152 1.362 . S
C1149 C1150 1.258 . S
C1149 C1152 1.431 . S
C1149 C1169 1.449 . S
C1150 C1149 1.258 . S
C1150 C1151 1.477 . S
C1150 H1170 0.931 . S
C1151 C1147 1.460 . S
C1151 C1150 1.477 . S
C1151 H1171 0.930 . S
C1152 N1148 1.362 . S
C1152 C1149 1.431 . S
C1152 C1162 1.476 . S
H1153 C1147 0.929 . S
C1154 O1145 1.250 . S
C1154 O1146 1.258 . S
O1155 Mn1140 2.162 . S
O1155 C1143 1.281 . S
O1156 Mn1140 2.297 . S
O1156 C1143 1.236 . S
N1157 Mn1141 2.282 . S
N1157 C1158 1.328 . S
N1157 C1162 1.318 . S
C1158 N1157 1.328 . S
C1158 C1159 1.457 . S
C1158 H1163 0.929 . S
C1159 C1158 1.457 . S
C1159 C1160 1.291 . S
C1159 H1172 0.931 . S
C1160 C1159 1.291 . S
C1160 C1161 1.373 . S
C1160 H1173 0.929 . S
C1161 C1160 1.373 . S
C1161 C1162 1.396 . S
C1161 C1168 1.403 . S
C1162 C1152 1.476 . S
C1162 N1157 1.318 . S
C1162 C1161 1.396 . S
H1163 C1158 0.929 . S
O1164 Mn1140 2.385 . S
O1164 C1142 1.234 . S
O1165 Mn1140 2.209 . S
O1165 Mn1141 2.215 . S
O1165 C1142 1.283 . S
O1166 Mn1140 2.094 . S
O1166 C1144 1.240 . S
O1167 Mn1141 2.117 . S
O1167 C1144 1.264 . S
C1168 C1161 1.403 . S
C1168 C1169 1.399 . S
C1168 H1174 0.929 . S
C1169 C1149 1.449 . S
C1169 C1168 1.399 . S
C1169 H1175 0.930 . S
H1170 C1150 0.931 . S
H1171 C1151 0.930 . S
H1172 C1159 0.931 . S
H1173 C1160 0.929 . S
H1174 C1168 0.929 . S
H1175 C1169 0.930 . S
Mn1176 O1181 2.095 . S
Mn1176 O1191 2.162 . S
Mn1176 O1192 2.297 . S
Mn1176 O1200 2.385 . S
Mn1176 O1201 2.209 . S
Mn1176 O1202 2.094 . S
Mn1177 O1182 2.121 . S
Mn1177 N1184 2.257 . S
Mn1177 N1193 2.282 . S
Mn1177 O1201 2.215 . S
Mn1177 O1203 2.117 . S
C1178 O1200 1.234 . S
C1178 O1201 1.283 . S
C1179 O1191 1.281 . S
C1179 O1192 1.236 . S
C1180 O1202 1.240 . S
C1180 O1203 1.264 . S
O1181 Mn1176 2.095 . S
O1181 C1190 1.250 . S
O1182 Mn1177 2.121 . S
O1182 C1190 1.258 . S
C1183 N1184 1.326 . S
C1183 C1187 1.460 . S
C1183 H1189 0.929 . S
N1184 Mn1177 2.257 . S
N1184 C1183 1.326 . S
N1184 C1188 1.362 . S
C1185 C1186 1.258 . S
C1185 C1188 1.431 . S
C1185 C1205 1.449 . S
C1186 C1185 1.258 . S
C1186 C1187 1.477 . S
C1186 H1206 0.931 . S
C1187 C1183 1.460 . S
C1187 C1186 1.477 . S
C1187 H1207 0.930 . S
C1188 N1184 1.362 . S
C1188 C1185 1.431 . S
C1188 C1198 1.476 . S
H1189 C1183 0.929 . S
C1190 O1181 1.250 . S
C1190 O1182 1.258 . S
O1191 Mn1176 2.162 . S
O1191 C1179 1.281 . S
O1192 Mn1176 2.297 . S
O1192 C1179 1.236 . S
N1193 Mn1177 2.282 . S
N1193 C1194 1.328 . S
N1193 C1198 1.318 . S
C1194 N1193 1.328 . S
C1194 C1195 1.457 . S
C1194 H1199 0.929 . S
C1195 C1194 1.457 . S
C1195 C1196 1.291 . S
C1195 H1208 0.931 . S
C1196 C1195 1.291 . S
C1196 C1197 1.373 . S
C1196 H1209 0.929 . S
C1197 C1196 1.373 . S
C1197 C1198 1.396 . S
C1197 C1204 1.403 . S
C1198 C1188 1.476 . S
C1198 N1193 1.318 . S
C1198 C1197 1.396 . S
H1199 C1194 0.929 . S
O1200 Mn1176 2.385 . S
O1200 C1178 1.234 . S
O1201 Mn1176 2.209 . S
O1201 Mn1177 2.215 . S
O1201 C1178 1.283 . S
O1202 Mn1176 2.094 . S
O1202 C1180 1.240 . S
O1203 Mn1177 2.117 . S
O1203 C1180 1.264 . S
C1204 C1197 1.403 . S
C1204 C1205 1.399 . S
C1204 H1210 0.929 . S
C1205 C1185 1.449 . S
C1205 C1204 1.399 . S
C1205 H1211 0.930 . S
H1206 C1186 0.931 . S
H1207 C1187 0.930 . S
H1208 C1195 0.931 . S
H1209 C1196 0.929 . S
H1210 C1204 0.929 . S
H1211 C1205 0.930 . S
Mn1212 O1217 2.095 . S
Mn1212 O1227 2.162 . S
Mn1212 O1228 2.297 . S
Mn1212 O1236 2.385 1_565 S
Mn1212 O1237 2.209 1_565 S
Mn1212 O1238 2.094 . S
Mn1213 O1218 2.121 . S
Mn1213 N1220 2.257 . S
Mn1213 N1229 2.282 . S
Mn1213 O1237 2.215 . S
Mn1213 O1239 2.117 . S
C1214 O1236 1.234 . S
C1214 O1237 1.283 . S
C1215 O1227 1.281 . S
C1215 O1228 1.236 . S
C1216 O1238 1.219 1_545 S
C1216 O1239 1.292 . S
O1217 Mn1212 2.095 . S
O1217 C1226 1.250 1_565 S
O1218 Mn1213 2.121 . S
O1218 C1226 1.258 . S
C1219 N1220 1.326 . S
C1219 C1223 1.460 . S
C1219 H1225 0.929 . S
N1220 Mn1213 2.257 . S
N1220 C1219 1.326 . S
N1220 C1224 1.362 . S
C1221 C1222 1.258 . S
C1221 C1224 1.431 . S
C1221 C1241 1.449 . S
C1222 C1221 1.258 . S
C1222 C1223 1.477 . S
C1222 H1242 0.931 . S
C1223 C1219 1.460 . S
C1223 C1222 1.477 . S
C1223 H1243 0.930 . S
C1224 N1220 1.362 . S
C1224 C1221 1.431 . S
C1224 C1234 1.476 . S
H1225 C1219 0.929 . S
C1226 O1217 1.250 1_545 S
C1226 O1218 1.258 . S
O1227 Mn1212 2.162 . S
O1227 C1215 1.281 . S
O1228 Mn1212 2.297 . S
O1228 C1215 1.236 . S
N1229 Mn1213 2.282 . S
N1229 C1230 1.328 . S
N1229 C1234 1.318 . S
C1230 N1229 1.328 . S
C1230 C1231 1.457 . S
C1230 H1235 0.929 . S
C1231 C1230 1.457 . S
C1231 C1232 1.291 . S
C1231 H1244 0.931 . S
C1232 C1231 1.291 . S
C1232 C1233 1.373 . S
C1232 H1245 0.929 . S
C1233 C1232 1.373 . S
C1233 C1234 1.396 . S
C1233 C1240 1.403 . S
C1234 C1224 1.476 . S
C1234 N1229 1.318 . S
C1234 C1233 1.396 . S
H1235 C1230 0.929 . S
O1236 Mn1212 2.385 1_545 S
O1236 C1214 1.234 . S
O1237 Mn1212 2.209 1_545 S
O1237 Mn1213 2.215 . S
O1237 C1214 1.283 . S
O1238 Mn1212 2.094 . S
O1238 C1216 1.219 1_565 S
O1239 Mn1213 2.117 . S
O1239 C1216 1.292 . S
C1240 C1233 1.403 . S
C1240 C1241 1.399 . S
C1240 H1246 0.929 . S
C1241 C1221 1.449 . S
C1241 C1240 1.399 . S
C1241 H1247 0.930 . S
H1242 C1222 0.931 . S
H1243 C1223 0.930 . S
H1244 C1231 0.931 . S
H1245 C1232 0.929 . S
H1246 C1240 0.929 . S
H1247 C1241 0.930 . S
Mn1248 O1253 2.095 . S
Mn1248 O1263 2.162 . S
Mn1248 O1264 2.297 . S
Mn1248 O1272 2.385 1_455 S
Mn1248 O1273 2.209 1_455 S
Mn1248 O1274 2.094 . S
Mn1249 O1254 2.121 . S
Mn1249 N1256 2.257 . S
Mn1249 N1265 2.282 . S
Mn1249 O1273 2.215 . S
Mn1249 O1275 2.117 . S
C1250 O1272 1.234 . S
C1250 O1273 1.283 . S
C1251 O1263 1.281 . S
C1251 O1264 1.236 . S
C1252 O1274 1.240 . S
C1252 O1275 1.264 1_455 S
O1253 Mn1248 2.095 . S
O1253 C1262 1.250 1_455 S
O1254 Mn1249 2.121 . S
O1254 C1262 1.258 . S
C1255 N1256 1.326 . S
C1255 C1259 1.460 . S
C1255 H1261 0.929 . S
N1256 Mn1249 2.257 . S
N1256 C1255 1.326 . S
N1256 C1260 1.362 . S
C1257 C1258 1.258 . S
C1257 C1260 1.431 . S
C1257 C1277 1.449 . S
C1258 C1257 1.258 . S
C1258 C1259 1.477 . S
C1258 H1278 0.931 . S
C1259 C1255 1.460 . S
C1259 C1258 1.477 . S
C1259 H1279 0.930 . S
C1260 N1256 1.362 . S
C1260 C1257 1.431 . S
C1260 C1270 1.476 . S
H1261 C1255 0.929 . S
C1262 O1253 1.250 1_655 S
C1262 O1254 1.258 . S
O1263 Mn1248 2.162 . S
O1263 C1251 1.281 . S
O1264 Mn1248 2.297 . S
O1264 C1251 1.236 . S
N1265 Mn1249 2.282 . S
N1265 C1266 1.328 . S
N1265 C1270 1.318 . S
C1266 N1265 1.328 . S
C1266 C1267 1.457 . S
C1266 H1271 0.929 . S
C1267 C1266 1.457 . S
C1267 C1268 1.291 . S
C1267 H1280 0.931 . S
C1268 C1267 1.291 . S
C1268 C1269 1.373 . S
C1268 H1281 0.929 . S
C1269 C1268 1.373 . S
C1269 C1270 1.396 . S
C1269 C1276 1.403 . S
C1270 C1260 1.476 . S
C1270 N1265 1.318 . S
C1270 C1269 1.396 . S
H1271 C1266 0.929 . S
O1272 Mn1248 2.385 1_655 S
O1272 C1250 1.234 . S
O1273 Mn1248 2.209 1_655 S
O1273 Mn1249 2.215 . S
O1273 C1250 1.283 . S
O1274 Mn1248 2.094 . S
O1274 C1252 1.240 . S
O1275 Mn1249 2.117 . S
O1275 C1252 1.264 1_655 S
C1276 C1269 1.403 . S
C1276 C1277 1.399 . S
C1276 H1282 0.929 . S
C1277 C1257 1.449 . S
C1277 C1276 1.399 . S
C1277 H1283 0.930 . S
H1278 C1258 0.931 . S
H1279 C1259 0.930 . S
H1280 C1267 0.931 . S
H1281 C1268 0.929 . S
H1282 C1276 0.929 . S
H1283 C1277 0.930 . S
Mn1284 O1289 2.095 . S
Mn1284 O1299 2.162 . S
Mn1284 O1300 2.297 . S
Mn1284 O1308 2.385 . S
Mn1284 O1309 2.209 . S
Mn1284 O1310 2.094 . S
Mn1285 O1290 2.121 . S
Mn1285 N1292 2.257 . S
Mn1285 N1301 2.282 . S
Mn1285 O1309 2.215 . S
Mn1285 O1311 2.117 . S
C1286 O1308 1.234 . S
C1286 O1309 1.283 . S
C1287 O1299 1.281 . S
C1287 O1300 1.236 . S
C1288 O1310 1.240 . S
C1288 O1311 1.264 . S
O1289 Mn1284 2.095 . S
O1289 C1298 1.250 . S
O1290 Mn1285 2.121 . S
O1290 C1298 1.258 . S
C1291 N1292 1.326 . S
C1291 C1295 1.460 . S
C1291 H1297 0.929 . S
N1292 Mn1285 2.257 . S
N1292 C1291 1.326 . S
N1292 C1296 1.362 . S
C1293 C1294 1.258 . S
C1293 C1296 1.431 . S
C1293 C1313 1.449 . S
C1294 C1293 1.258 . S
C1294 C1295 1.477 . S
C1294 H1314 0.931 . S
C1295 C1291 1.460 . S
C1295 C1294 1.477 . S
C1295 H1315 0.930 . S
C1296 N1292 1.362 . S
C1296 C1293 1.431 . S
C1296 C1306 1.476 . S
H1297 C1291 0.929 . S
C1298 O1289 1.250 . S
C1298 O1290 1.258 . S
O1299 Mn1284 2.162 . S
O1299 C1287 1.281 . S
O1300 Mn1284 2.297 . S
O1300 C1287 1.236 . S
N1301 Mn1285 2.282 . S
N1301 C1302 1.328 . S
N1301 C1306 1.318 . S
C1302 N1301 1.328 . S
C1302 C1303 1.457 . S
C1302 H1307 0.929 . S
C1303 C1302 1.457 . S
C1303 C1304 1.291 . S
C1303 H1316 0.931 . S
C1304 C1303 1.291 . S
C1304 C1305 1.373 . S
C1304 H1317 0.929 . S
C1305 C1304 1.373 . S
C1305 C1306 1.396 . S
C1305 C1312 1.403 . S
C1306 C1296 1.476 . S
C1306 N1301 1.318 . S
C1306 C1305 1.396 . S
H1307 C1302 0.929 . S
O1308 Mn1284 2.385 . S
O1308 C1286 1.234 . S
O1309 Mn1284 2.209 . S
O1309 Mn1285 2.215 . S
O1309 C1286 1.283 . S
O1310 Mn1284 2.094 . S
O1310 C1288 1.240 . S
O1311 Mn1285 2.117 . S
O1311 C1288 1.264 . S
C1312 C1305 1.403 . S
C1312 C1313 1.399 . S
C1312 H1318 0.929 . S
C1313 C1293 1.449 . S
C1313 C1312 1.399 . S
C1313 H1319 0.930 . S
H1314 C1294 0.931 . S
H1315 C1295 0.930 . S
H1316 C1303 0.931 . S
H1317 C1304 0.929 . S
H1318 C1312 0.929 . S
H1319 C1313 0.930 . S
Mn1320 O1325 2.095 1_455 S
Mn1320 O1335 2.162 . S
Mn1320 O1336 2.297 1_455 S
Mn1320 O1344 2.385 . S
Mn1320 O1345 2.209 1_455 S
Mn1320 O1346 2.094 . S
Mn1321 O1326 2.121 . S
Mn1321 N1328 2.257 . S
Mn1321 N1337 2.282 1_655 S
Mn1321 O1345 2.215 . S
Mn1321 O1347 2.117 1_655 S
C1322 O1344 1.234 . S
C1322 O1345 1.283 1_455 S
C1323 O1335 1.281 . S
C1323 O1336 1.236 1_455 S
C1324 O1346 1.240 . S
C1324 O1347 1.264 . S
O1325 Mn1320 2.095 1_655 S
O1325 C1334 1.250 . S
O1326 Mn1321 2.121 . S
O1326 C1334 1.258 . S
C1327 N1328 1.326 . S
C1327 C1331 1.460 . S
C1327 H1333 0.929 . S
N1328 Mn1321 2.257 . S
N1328 C1327 1.326 . S
N1328 C1332 1.362 . S
C1329 C1330 1.258 . S
C1329 C1332 1.431 . S
C1329 C1349 1.449 . S
C1330 C1329 1.258 . S
C1330 C1331 1.477 . S
C1330 H1350 0.931 . S
C1331 C1327 1.460 . S
C1331 C1330 1.477 . S
C1331 H1351 0.930 . S
C1332 N1328 1.362 . S
C1332 C1329 1.431 . S
C1332 C1342 1.476 . S
H1333 C1327 0.929 . S
C1334 O1325 1.250 . S
C1334 O1326 1.258 . S
O1335 Mn1320 2.162 . S
O1335 C1323 1.281 . S
O1336 Mn1320 2.297 1_655 S
O1336 C1323 1.236 1_655 S
N1337 Mn1321 2.282 1_455 S
N1337 C1338 1.328 . S
N1337 C1342 1.318 1_455 S
C1338 N1337 1.328 . S
C1338 C1339 1.457 . S
C1338 H1343 0.929 . S
C1339 C1338 1.457 . S
C1339 C1340 1.291 . S
C1339 H1352 0.931 . S
C1340 C1339 1.291 . S
C1340 C1341 1.373 1_455 S
C1340 H1353 0.929 . S
C1341 C1340 1.373 1_655 S
C1341 C1342 1.396 . S
C1341 C1348 1.403 . S
C1342 C1332 1.476 . S
C1342 N1337 1.318 1_655 S
C1342 C1341 1.396 . S
H1343 C1338 0.929 . S
O1344 Mn1320 2.385 . S
O1344 C1322 1.234 . S
O1345 Mn1320 2.209 1_655 S
O1345 Mn1321 2.215 . S
O1345 C1322 1.283 1_655 S
O1346 Mn1320 2.094 . S
O1346 C1324 1.240 . S
O1347 Mn1321 2.117 1_455 S
O1347 C1324 1.264 . S
C1348 C1341 1.403 . S
C1348 C1349 1.399 . S
C1348 H1354 0.929 . S
C1349 C1329 1.449 . S
C1349 C1348 1.399 . S
C1349 H1355 0.930 . S
H1350 C1330 0.931 . S
H1351 C1331 0.930 . S
H1352 C1339 0.931 . S
H1353 C1340 0.929 . S
H1354 C1348 0.929 . S
H1355 C1349 0.930 . S
Mn1356 O1361 2.095 . S
Mn1356 O1371 2.162 . S
Mn1356 O1372 2.297 . S
Mn1356 O1380 2.385 . S
Mn1356 O1381 2.209 . S
Mn1356 O1382 2.094 . S
Mn1357 O1362 2.121 . S
Mn1357 N1364 2.257 . S
Mn1357 N1373 2.282 . S
Mn1357 O1381 2.215 . S
Mn1357 O1383 2.117 . S
C1358 O1380 1.234 . S
C1358 O1381 1.283 . S
C1359 O1371 1.281 . S
C1359 O1372 1.236 . S
C1360 O1382 1.240 . S
C1360 O1383 1.264 . S
O1361 Mn1356 2.095 . S
O1361 C1370 1.250 . S
O1362 Mn1357 2.121 . S
O1362 C1370 1.258 . S
C1363 N1364 1.326 . S
C1363 C1367 1.460 . S
C1363 H1369 0.929 . S
N1364 Mn1357 2.257 . S
N1364 C1363 1.326 . S
N1364 C1368 1.362 . S
C1365 C1366 1.258 . S
C1365 C1368 1.431 . S
C1365 C1385 1.449 . S
C1366 C1365 1.258 . S
C1366 C1367 1.477 . S
C1366 H1386 0.931 . S
C1367 C1363 1.460 . S
C1367 C1366 1.477 . S
C1367 H1387 0.930 . S
C1368 N1364 1.362 . S
C1368 C1365 1.431 . S
C1368 C1378 1.476 . S
H1369 C1363 0.929 . S
C1370 O1361 1.250 . S
C1370 O1362 1.258 . S
O1371 Mn1356 2.162 . S
O1371 C1359 1.281 . S
O1372 Mn1356 2.297 . S
O1372 C1359 1.236 . S
N1373 Mn1357 2.282 . S
N1373 C1374 1.328 . S
N1373 C1378 1.318 . S
C1374 N1373 1.328 . S
C1374 C1375 1.457 . S
C1374 H1379 0.929 . S
C1375 C1374 1.457 . S
C1375 C1376 1.291 . S
C1375 H1388 0.931 . S
C1376 C1375 1.291 . S
C1376 C1377 1.373 . S
C1376 H1389 0.929 . S
C1377 C1376 1.373 . S
C1377 C1378 1.396 . S
C1377 C1384 1.403 . S
C1378 C1368 1.476 . S
C1378 N1373 1.318 . S
C1378 C1377 1.396 . S
H1379 C1374 0.929 . S
O1380 Mn1356 2.385 . S
O1380 C1358 1.234 . S
O1381 Mn1356 2.209 . S
O1381 Mn1357 2.215 . S
O1381 C1358 1.283 . S
O1382 Mn1356 2.094 . S
O1382 C1360 1.240 . S
O1383 Mn1357 2.117 . S
O1383 C1360 1.264 . S
C1384 C1377 1.403 . S
C1384 C1385 1.399 . S
C1384 H1390 0.929 . S
C1385 C1365 1.449 . S
C1385 C1384 1.399 . S
C1385 H1391 0.930 . S
H1386 C1366 0.931 . S
H1387 C1367 0.930 . S
H1388 C1375 0.931 . S
H1389 C1376 0.929 . S
H1390 C1384 0.929 . S
H1391 C1385 0.930 . S
C1392 C1393 1.369 . S
C1392 C1394 1.419 . S
C1392 H1396 0.930 . S
C1393 C1392 1.369 . S
C1393 C1402 1.429 . S
C1394 C1392 1.419 . S
C1394 C1395 1.363 . S
C1394 H1397 0.929 . S
C1395 C1394 1.363 . S
C1395 C1401 1.428 . S
H1396 C1392 0.930 . S
H1397 C1394 0.929 . S
S1398 N1399 1.613 . S
S1398 N1400 1.610 . S
N1399 S1398 1.613 . S
N1399 C1402 1.350 . S
N1400 S1398 1.610 . S
N1400 C1401 1.351 . S
C1401 C1395 1.428 . S
C1401 N1400 1.351 . S
C1401 C1402 1.434 . S
C1402 C1393 1.429 . S
C1402 N1399 1.350 . S
C1402 C1401 1.434 . S
C1403 C1404 1.369 . S
C1403 C1405 1.419 . S
C1403 H1407 0.930 . S
C1404 C1403 1.369 . S
C1404 C1413 1.429 . S
C1405 C1403 1.419 . S
C1405 C1406 1.363 . S
C1405 H1408 0.929 . S
C1406 C1405 1.363 . S
C1406 C1412 1.428 . S
H1407 C1403 0.930 . S
H1408 C1405 0.929 . S
S1409 N1410 1.613 . S
S1409 N1411 1.610 . S
N1410 S1409 1.613 . S
N1410 C1413 1.350 . S
N1411 S1409 1.610 . S
N1411 C1412 1.351 . S
C1412 C1406 1.428 . S
C1412 N1411 1.351 . S
C1412 C1413 1.434 . S
C1413 C1404 1.429 . S
C1413 N1410 1.350 . S
C1413 C1412 1.434 . S
C1414 C1415 1.369 . S
C1414 C1416 1.419 . S
C1414 H1418 0.930 . S
C1415 C1414 1.369 . S
C1415 C1424 1.429 . S
C1416 C1414 1.419 . S
C1416 C1417 1.363 . S
C1416 H1419 0.929 . S
C1417 C1416 1.363 . S
C1417 C1423 1.428 . S
H1418 C1414 0.930 . S
H1419 C1416 0.929 . S
S1420 N1421 1.613 . S
S1420 N1422 1.610 . S
N1421 S1420 1.613 . S
N1421 C1424 1.350 . S
N1422 S1420 1.610 . S
N1422 C1423 1.351 . S
C1423 C1417 1.428 . S
C1423 N1422 1.351 . S
C1423 C1424 1.434 . S
C1424 C1415 1.429 . S
C1424 N1421 1.350 . S
C1424 C1423 1.434 . S
C1425 C1426 1.369 1_545 S
C1425 C1427 1.419 . S
C1425 H1429 0.930 . S
C1426 C1425 1.369 1_565 S
C1426 C1435 1.429 . S
C1427 C1425 1.419 . S
C1427 C1428 1.363 1_545 S
C1427 H1430 0.929 . S
C1428 C1427 1.363 1_565 S
C1428 C1434 1.428 . S
H1429 C1425 0.930 . S
H1430 C1427 0.929 . S
S1431 N1432 1.613 . S
S1431 N1433 1.610 . S
N1432 S1431 1.613 . S
N1432 C1435 1.350 . S
N1433 S1431 1.610 . S
N1433 C1434 1.351 . S
C1434 C1428 1.428 . S
C1434 N1433 1.351 . S
C1434 C1435 1.434 . S
C1435 C1426 1.429 . S
C1435 N1432 1.350 . S
C1435 C1434 1.434 . S
C1436 C1437 1.369 . S
C1436 C1438 1.419 . S
C1436 H1440 0.930 . S
C1437 C1436 1.369 . S
C1437 C1446 1.429 . S
C1438 C1436 1.419 . S
C1438 C1439 1.363 . S
C1438 H1441 0.929 . S
C1439 C1438 1.363 . S
C1439 C1445 1.428 . S
H1440 C1436 0.930 . S
H1441 C1438 0.929 . S
S1442 N1443 1.613 . S
S1442 N1444 1.610 . S
N1443 S1442 1.613 . S
N1443 C1446 1.350 . S
N1444 S1442 1.610 . S
N1444 C1445 1.351 . S
C1445 C1439 1.428 . S
C1445 N1444 1.351 . S
C1445 C1446 1.434 . S
C1446 C1437 1.429 . S
C1446 N1443 1.350 . S
C1446 C1445 1.434 . S
C1447 C1448 1.369 . S
C1447 C1449 1.419 . S
C1447 H1451 0.930 . S
C1448 C1447 1.369 . S
C1448 C1457 1.429 . S
C1449 C1447 1.419 . S
C1449 C1450 1.363 . S
C1449 H1452 0.929 . S
C1450 C1449 1.363 . S
C1450 C1456 1.428 . S
H1451 C1447 0.930 . S
H1452 C1449 0.929 . S
S1453 N1454 1.613 . S
S1453 N1455 1.610 . S
N1454 S1453 1.613 . S
N1454 C1457 1.350 . S
N1455 S1453 1.610 . S
N1455 C1456 1.351 . S
C1456 C1450 1.428 . S
C1456 N1455 1.351 . S
C1456 C1457 1.434 . S
C1457 C1448 1.429 . S
C1457 N1454 1.350 . S
C1457 C1456 1.434 . S
C1458 C1459 1.369 . S
C1458 C1460 1.419 . S
C1458 H1462 0.930 . S
C1459 C1458 1.369 . S
C1459 C1468 1.429 . S
C1460 C1458 1.419 . S
C1460 C1461 1.363 . S
C1460 H1463 0.929 . S
C1461 C1460 1.363 . S
C1461 C1467 1.428 . S
H1462 C1458 0.930 . S
H1463 C1460 0.929 . S
S1464 N1465 1.613 . S
S1464 N1466 1.610 . S
N1465 S1464 1.613 . S
N1465 C1468 1.350 . S
N1466 S1464 1.610 . S
N1466 C1467 1.351 . S
C1467 C1461 1.428 . S
C1467 N1466 1.351 . S
C1467 C1468 1.434 . S
C1468 C1459 1.429 . S
C1468 N1465 1.350 . S
C1468 C1467 1.434 . S
C1469 C1470 1.369 . S
C1469 C1471 1.419 . S
C1469 H1473 0.930 . S
C1470 C1469 1.369 . S
C1470 C1479 1.429 1_565 S
C1471 C1469 1.419 . S
C1471 C1472 1.363 . S
C1471 H1474 0.929 . S
C1472 C1471 1.363 . S
C1472 C1478 1.428 1_565 S
H1473 C1469 0.930 . S
H1474 C1471 0.929 . S
S1475 N1476 1.613 . S
S1475 N1477 1.610 . S
N1476 S1475 1.613 . S
N1476 C1479 1.350 . S
N1477 S1475 1.610 . S
N1477 C1478 1.351 . S
C1478 C1472 1.428 1_545 S
C1478 N1477 1.351 . S
C1478 C1479 1.434 . S
C1479 C1470 1.429 1_545 S
C1479 N1476 1.350 . S
C1479 C1478 1.434 . S
C1480 C1481 1.369 . S
C1480 C1482 1.419 . S
C1480 H1484 0.930 . S
C1481 C1480 1.369 . S
C1481 C1490 1.429 . S
C1482 C1480 1.419 . S
C1482 C1483 1.363 . S
C1482 H1485 0.929 . S
C1483 C1482 1.363 . S
C1483 C1489 1.428 . S
H1484 C1480 0.930 . S
H1485 C1482 0.929 . S
S1486 N1487 1.613 . S
S1486 N1488 1.610 . S
N1487 S1486 1.613 . S
N1487 C1490 1.350 . S
N1488 S1486 1.610 . S
N1488 C1489 1.351 . S
C1489 C1483 1.428 . S
C1489 N1488 1.351 . S
C1489 C1490 1.434 . S
C1490 C1481 1.429 . S
C1490 N1487 1.350 . S
C1490 C1489 1.434 . S
C1491 C1492 1.369 . S
C1491 C1493 1.419 . S
C1491 H1495 0.930 . S
C1492 C1491 1.369 . S
C1492 C1501 1.429 . S
C1493 C1491 1.419 . S
C1493 C1494 1.363 . S
C1493 H1496 0.929 . S
C1494 C1493 1.363 . S
C1494 C1500 1.428 . S
H1495 C1491 0.930 . S
H1496 C1493 0.929 . S
S1497 N1498 1.613 . S
S1497 N1499 1.610 . S
N1498 S1497 1.613 . S
N1498 C1501 1.350 . S
N1499 S1497 1.610 . S
N1499 C1500 1.351 . S
C1500 C1494 1.428 . S
C1500 N1499 1.351 . S
C1500 C1501 1.434 . S
C1501 C1492 1.429 . S
C1501 N1498 1.350 . S
C1501 C1500 1.434 . S
C1502 C1503 1.369 . S
C1502 C1504 1.419 . S
C1502 H1506 0.930 . S
C1503 C1502 1.369 . S
C1503 C1512 1.429 . S
C1504 C1502 1.419 . S
C1504 C1505 1.363 . S
C1504 H1507 0.929 . S
C1505 C1504 1.363 . S
C1505 C1511 1.428 . S
H1506 C1502 0.930 . S
H1507 C1504 0.929 . S
S1508 N1509 1.613 . S
S1508 N1510 1.610 . S
N1509 S1508 1.613 . S
N1509 C1512 1.350 . S
N1510 S1508 1.610 . S
N1510 C1511 1.351 . S
C1511 C1505 1.428 . S
C1511 N1510 1.351 . S
C1511 C1512 1.434 . S
C1512 C1503 1.429 . S
C1512 N1509 1.350 . S
C1512 C1511 1.434 . S
C1513 C1514 1.369 . S
C1513 C1515 1.419 . S
C1513 H1517 0.930 . S
C1514 C1513 1.369 . S
C1514 C1523 1.429 . S
C1515 C1513 1.419 . S
C1515 C1516 1.363 . S
C1515 H1518 0.929 . S
C1516 C1515 1.363 . S
C1516 C1522 1.428 . S
H1517 C1513 0.930 . S
H1518 C1515 0.929 . S
S1519 N1520 1.613 . S
S1519 N1521 1.610 . S
N1520 S1519 1.613 . S
N1520 C1523 1.350 . S
N1521 S1519 1.610 . S
N1521 C1522 1.351 . S
C1522 C1516 1.428 . S
C1522 N1521 1.351 . S
C1522 C1523 1.434 . S
C1523 C1514 1.429 . S
C1523 N1520 1.350 . S
C1523 C1522 1.434 . S
C1524 C1525 1.369 . S
C1524 C1526 1.419 . S
C1524 H1528 0.930 . S
C1525 C1524 1.369 . S
C1525 C1534 1.429 . S
C1526 C1524 1.419 . S
C1526 C1527 1.363 . S
C1526 H1529 0.929 . S
C1527 C1526 1.363 . S
C1527 C1533 1.428 . S
H1528 C1524 0.930 . S
H1529 C1526 0.929 . S
S1530 N1531 1.613 . S
S1530 N1532 1.610 . S
N1531 S1530 1.613 . S
N1531 C1534 1.350 . S
N1532 S1530 1.610 . S
N1532 C1533 1.351 . S
C1533 C1527 1.428 . S
C1533 N1532 1.351 . S
C1533 C1534 1.434 . S
C1534 C1525 1.429 . S
C1534 N1531 1.350 . S
C1534 C1533 1.434 . S
C1535 C1536 1.369 . S
C1535 C1537 1.419 1_455 S
C1535 H1539 0.930 1_455 S
C1536 C1535 1.369 . S
C1536 C1545 1.429 . S
C1537 C1535 1.419 1_655 S
C1537 C1538 1.363 1_655 S
C1537 H1540 0.929 . S
C1538 C1537 1.363 1_455 S
C1538 C1544 1.428 . S
H1539 C1535 0.930 1_655 S
H1540 C1537 0.929 . S
S1541 N1542 1.613 . S
S1541 N1543 1.610 . S
N1542 S1541 1.613 . S
N1542 C1545 1.350 . S
N1543 S1541 1.610 . S
N1543 C1544 1.351 . S
C1544 C1538 1.428 . S
C1544 N1543 1.351 . S
C1544 C1545 1.434 . S
C1545 C1536 1.429 . S
C1545 N1542 1.350 . S
C1545 C1544 1.434 . S
C1546 C1547 1.369 . S
C1546 C1548 1.419 . S
C1546 H1550 0.930 . S
C1547 C1546 1.369 . S
C1547 C1556 1.429 . S
C1548 C1546 1.419 . S
C1548 C1549 1.363 . S
C1548 H1551 0.929 . S
C1549 C1548 1.363 . S
C1549 C1555 1.428 . S
H1550 C1546 0.930 . S
H1551 C1548 0.929 . S
S1552 N1553 1.613 . S
S1552 N1554 1.610 . S
N1553 S1552 1.613 . S
N1553 C1556 1.350 . S
N1554 S1552 1.610 . S
N1554 C1555 1.351 . S
C1555 C1549 1.428 . S
C1555 N1554 1.351 . S
C1555 C1556 1.434 . S
C1556 C1547 1.429 . S
C1556 N1553 1.350 . S
C1556 C1555 1.434 . S
C1557 C1558 1.369 . S
C1557 C1559 1.419 . S
C1557 H1561 0.930 . S
C1558 C1557 1.369 . S
C1558 C1567 1.429 1_655 S
C1559 C1557 1.419 . S
C1559 C1560 1.382 . S
C1559 H1562 0.929 . S
C1560 C1559 1.382 . S
C1560 C1566 1.414 1_655 S
H1561 C1557 0.930 . S
H1562 C1559 0.929 . S
S1563 N1564 1.613 . S
S1563 N1565 1.610 . S
N1564 S1563 1.613 . S
N1564 C1567 1.350 . S
N1565 S1563 1.610 . S
N1565 C1566 1.351 . S
C1566 C1560 1.414 1_455 S
C1566 N1565 1.351 . S
C1566 C1567 1.434 . S
C1567 C1558 1.429 1_455 S
C1567 N1564 1.350 . S
C1567 C1566 1.434 . S
C1568 C1569 1.369 . S
C1568 C1570 1.419 . S
C1568 H1572 0.930 . S
C1569 C1568 1.369 . S
C1569 C1578 1.429 . S
C1570 C1568 1.419 . S
C1570 C1571 1.363 . S
C1570 H1573 0.929 . S
C1571 C1570 1.363 . S
C1571 C1577 1.428 . S
H1572 C1568 0.930 . S
H1573 C1570 0.929 . S
S1574 N1575 1.613 . S
S1574 N1576 1.610 . S
N1575 S1574 1.613 . S
N1575 C1578 1.350 . S
N1576 S1574 1.610 . S
N1576 C1577 1.351 . S
C1577 C1571 1.428 . S
C1577 N1576 1.351 . S
C1577 C1578 1.434 . S
C1578 C1569 1.429 . S
C1578 N1575 1.350 . S
C1578 C1577 1.434 . S
C1579 C1580 1.369 . S
C1579 C1581 1.419 . S
C1579 H1583 0.930 . S
C1580 C1579 1.369 . S
C1580 C1589 1.429 . S
C1581 C1579 1.419 . S
C1581 C1582 1.363 . S
C1581 H1584 0.929 . S
C1582 C1581 1.363 . S
C1582 C1588 1.428 . S
H1583 C1579 0.930 . S
H1584 C1581 0.929 . S
S1585 N1586 1.613 . S
S1585 N1587 1.610 . S
N1586 S1585 1.613 . S
N1586 C1589 1.350 . S
N1587 S1585 1.610 . S
N1587 C1588 1.351 . S
C1588 C1582 1.428 . S
C1588 N1587 1.351 . S
C1588 C1589 1.434 . S
C1589 C1580 1.429 . S
C1589 N1586 1.350 . S
C1589 C1588 1.434 . S
C1590 C1591 1.369 . S
C1590 C1592 1.419 . S
C1590 H1594 0.930 . S
C1591 C1590 1.369 . S
C1591 C1600 1.429 . S
C1592 C1590 1.419 . S
C1592 C1593 1.363 1_556 S
C1592 H1595 0.929 . S
C1593 C1592 1.363 1_554 S
C1593 C1599 1.428 . S
H1594 C1590 0.930 . S
H1595 C1592 0.929 . S
S1596 N1597 1.620 . S
S1596 N1598 1.610 . S
N1597 S1596 1.620 . S
N1597 C1600 1.348 1_554 S
N1598 S1596 1.610 . S
N1598 C1599 1.351 . S
C1599 C1593 1.428 . S
C1599 N1598 1.351 . S
C1599 C1600 1.434 1_554 S
C1600 C1591 1.429 . S
C1600 N1597 1.348 1_556 S
C1600 C1599 1.434 1_556 S
C1601 C1602 1.369 . S
C1601 C1603 1.419 . S
C1601 H1605 0.930 . S
C1602 C1601 1.369 . S
C1602 C1611 1.429 . S
C1603 C1601 1.419 . S
C1603 C1604 1.363 . S
C1603 H1606 0.929 . S
C1604 C1603 1.363 . S
C1604 C1610 1.428 . S
H1605 C1601 0.930 . S
H1606 C1603 0.929 . S
S1607 N1608 1.613 . S
S1607 N1609 1.610 . S
N1608 S1607 1.613 . S
N1608 C1611 1.350 . S
N1609 S1607 1.610 . S
N1609 C1610 1.351 . S
C1610 C1604 1.428 . S
C1610 N1609 1.351 . S
C1610 C1611 1.434 . S
C1611 C1602 1.429 . S
C1611 N1608 1.350 . S
C1611 C1610 1.434 . S
C1612 C1613 1.369 . S
C1612 C1614 1.419 . S
C1612 H1616 0.930 . S
C1613 C1612 1.369 . S
C1613 C1622 1.429 . S
C1614 C1612 1.419 . S
C1614 C1615 1.363 . S
C1614 H1617 0.929 . S
C1615 C1614 1.363 . S
C1615 C1621 1.428 . S
H1616 C1612 0.930 . S
H1617 C1614 0.929 . S
S1618 N1619 1.613 . S
S1618 N1620 1.610 . S
N1619 S1618 1.613 . S
N1619 C1622 1.350 . S
N1620 S1618 1.610 . S
N1620 C1621 1.351 . S
C1621 C1615 1.428 . S
C1621 N1620 1.351 . S
C1621 C1622 1.434 . S
C1622 C1613 1.429 . S
C1622 N1619 1.350 . S
C1622 C1621 1.434 . S
C1623 C1624 1.369 . S
C1623 C1625 1.419 . S
C1623 H1627 0.930 . S
C1624 C1623 1.369 . S
C1624 C1633 1.429 . S
C1625 C1623 1.419 . S
C1625 C1626 1.363 . S
C1625 H1628 0.929 . S
C1626 C1625 1.363 . S
C1626 C1632 1.428 . S
H1627 C1623 0.930 . S
H1628 C1625 0.929 . S
S1629 N1630 1.613 . S
S1629 N1631 1.610 . S
N1630 S1629 1.613 . S
N1630 C1633 1.350 . S
N1631 S1629 1.610 . S
N1631 C1632 1.351 . S
C1632 C1626 1.428 . S
C1632 N1631 1.351 . S
C1632 C1633 1.434 . S
C1633 C1624 1.429 . S
C1633 N1630 1.350 . S
C1633 C1632 1.434 . S
C1634 C1635 1.369 . S
C1634 C1636 1.419 . S
C1634 H1638 0.930 . S
C1635 C1634 1.369 . S
C1635 C1644 1.429 . S
C1636 C1634 1.419 . S
C1636 C1637 1.363 . S
C1636 H1639 0.929 . S
C1637 C1636 1.363 . S
C1637 C1643 1.428 . S
H1638 C1634 0.930 . S
H1639 C1636 0.929 . S
S1640 N1641 1.613 . S
S1640 N1642 1.610 . S
N1641 S1640 1.613 . S
N1641 C1644 1.350 . S
N1642 S1640 1.610 . S
N1642 C1643 1.351 . S
C1643 C1637 1.428 . S
C1643 N1642 1.351 . S
C1643 C1644 1.434 . S
C1644 C1635 1.429 . S
C1644 N1641 1.350 . S
C1644 C1643 1.434 . S
C1645 C1646 1.369 . S
C1645 C1647 1.419 . S
C1645 H1649 0.930 . S
C1646 C1645 1.369 . S
C1646 C1655 1.429 . S
C1647 C1645 1.419 . S
C1647 C1648 1.363 . S
C1647 H1650 0.929 . S
C1648 C1647 1.363 . S
C1648 C1654 1.428 . S
H1649 C1645 0.930 . S
H1650 C1647 0.929 . S
S1651 N1652 1.613 . S
S1651 N1653 1.610 . S
N1652 S1651 1.613 . S
N1652 C1655 1.350 . S
N1653 S1651 1.610 . S
N1653 C1654 1.351 . S
C1654 C1648 1.428 . S
C1654 N1653 1.351 . S
C1654 C1655 1.434 . S
C1655 C1646 1.429 . S
C1655 N1652 1.350 . S
C1655 C1654 1.434 . S
C1656 C1657 1.369 . S
C1656 C1658 1.419 . S
C1656 H1660 0.930 . S
C1657 C1656 1.369 . S
C1657 C1666 1.429 . S
C1658 C1656 1.419 . S
C1658 C1659 1.363 . S
C1658 H1661 0.929 . S
C1659 C1658 1.363 . S
C1659 C1665 1.428 . S
H1660 C1656 0.930 . S
H1661 C1658 0.929 . S
S1662 N1663 1.613 . S
S1662 N1664 1.610 . S
N1663 S1662 1.613 . S
N1663 C1666 1.350 . S
N1664 S1662 1.610 . S
N1664 C1665 1.351 . S
C1665 C1659 1.428 . S
C1665 N1664 1.351 . S
C1665 C1666 1.434 . S
C1666 C1657 1.429 . S
C1666 N1663 1.350 . S
C1666 C1665 1.434 . S
C1667 C1668 1.369 . S
C1667 C1669 1.419 . S
C1667 H1671 0.930 . S
C1668 C1667 1.369 . S
C1668 C1677 1.429 1_545 S
C1669 C1667 1.419 . S
C1669 C1670 1.363 . S
C1669 H1672 0.929 . S
C1670 C1669 1.363 . S
C1670 C1676 1.428 1_545 S
H1671 C1667 0.930 . S
H1672 C1669 0.929 . S
S1673 N1674 1.613 . S
S1673 N1675 1.610 . S
N1674 S1673 1.613 . S
N1674 C1677 1.350 . S
N1675 S1673 1.610 . S
N1675 C1676 1.351 . S
C1676 C1670 1.428 1_565 S
C1676 N1675 1.351 . S
C1676 C1677 1.434 . S
C1677 C1668 1.429 1_565 S
C1677 N1674 1.350 . S
C1677 C1676 1.434 . S
C1678 C1679 1.369 . S
C1678 C1680 1.419 . S
C1678 H1682 0.930 . S
C1679 C1678 1.369 . S
C1679 C1688 1.429 . S
C1680 C1678 1.419 . S
C1680 C1681 1.363 . S
C1680 H1683 0.929 . S
C1681 C1680 1.363 . S
C1681 C1687 1.428 . S
H1682 C1678 0.930 . S
H1683 C1680 0.929 . S
S1684 N1685 1.613 . S
S1684 N1686 1.610 . S
N1685 S1684 1.613 . S
N1685 C1688 1.350 . S
N1686 S1684 1.610 . S
N1686 C1687 1.351 . S
C1687 C1681 1.428 . S
C1687 N1686 1.351 . S
C1687 C1688 1.434 . S
C1688 C1679 1.429 . S
C1688 N1685 1.350 . S
C1688 C1687 1.434 . S
C1689 C1690 1.369 . S
C1689 C1691 1.419 . S
C1689 H1693 0.930 . S
C1690 C1689 1.369 . S
C1690 C1699 1.429 . S
C1691 C1689 1.419 . S
C1691 C1692 1.363 . S
C1691 H1694 0.929 . S
C1692 C1691 1.363 . S
C1692 C1698 1.428 . S
H1693 C1689 0.930 . S
H1694 C1691 0.929 . S
S1695 N1696 1.613 . S
S1695 N1697 1.610 . S
N1696 S1695 1.613 . S
N1696 C1699 1.350 . S
N1697 S1695 1.610 . S
N1697 C1698 1.351 . S
C1698 C1692 1.428 . S
C1698 N1697 1.351 . S
C1698 C1699 1.434 . S
C1699 C1690 1.429 . S
C1699 N1696 1.350 . S
C1699 C1698 1.434 . S
C1700 C1701 1.369 . S
C1700 C1702 1.419 . S
C1700 H1704 0.930 . S
C1701 C1700 1.369 . S
C1701 C1710 1.429 . S
C1702 C1700 1.419 . S
C1702 C1703 1.363 . S
C1702 H1705 0.929 . S
C1703 C1702 1.363 . S
C1703 C1709 1.428 . S
H1704 C1700 0.930 . S
H1705 C1702 0.929 . S
S1706 N1707 1.613 . S
S1706 N1708 1.610 . S
N1707 S1706 1.613 . S
N1707 C1710 1.350 . S
N1708 S1706 1.610 . S
N1708 C1709 1.351 . S
C1709 C1703 1.428 . S
C1709 N1708 1.351 . S
C1709 C1710 1.434 . S
C1710 C1701 1.429 . S
C1710 N1707 1.350 . S
C1710 C1709 1.434 . S
C1711 C1712 1.369 . S
C1711 C1713 1.419 . S
C1711 H1715 0.930 . S
C1712 C1711 1.369 . S
C1712 C1721 1.429 . S
C1713 C1711 1.419 . S
C1713 C1714 1.363 . S
C1713 H1716 0.929 . S
C1714 C1713 1.363 . S
C1714 C1720 1.428 . S
H1715 C1711 0.930 . S
H1716 C1713 0.929 . S
S1717 N1718 1.606 1_565 S
S1717 N1719 1.610 . S
N1718 S1717 1.606 1_545 S
N1718 C1721 1.358 . S
N1719 S1717 1.610 . S
N1719 C1720 1.351 1_565 S
C1720 C1714 1.428 . S
C1720 N1719 1.351 1_545 S
C1720 C1721 1.434 . S
C1721 C1712 1.429 . S
C1721 N1718 1.358 . S
C1721 C1720 1.434 . S
C1722 C1723 1.369 . S
C1722 C1724 1.419 . S
C1722 H1726 0.930 . S
C1723 C1722 1.369 . S
C1723 C1732 1.429 . S
C1724 C1722 1.419 . S
C1724 C1725 1.363 . S
C1724 H1727 0.929 . S
C1725 C1724 1.363 . S
C1725 C1731 1.428 . S
H1726 C1722 0.930 . S
H1727 C1724 0.929 . S
S1728 N1729 1.613 . S
S1728 N1730 1.610 . S
N1729 S1728 1.613 . S
N1729 C1732 1.350 . S
N1730 S1728 1.610 . S
N1730 C1731 1.351 . S
C1731 C1725 1.428 . S
C1731 N1730 1.351 . S
C1731 C1732 1.434 . S
C1732 C1723 1.429 . S
C1732 N1729 1.350 . S
C1732 C1731 1.434 . S
C1733 C1734 1.369 . S
C1733 C1735 1.419 . S
C1733 H1737 0.930 . S
C1734 C1733 1.369 . S
C1734 C1743 1.429 . S
C1735 C1733 1.419 . S
C1735 C1736 1.363 . S
C1735 H1738 0.929 . S
C1736 C1735 1.363 . S
C1736 C1742 1.428 . S
H1737 C1733 0.930 . S
H1738 C1735 0.929 . S
S1739 N1740 1.613 . S
S1739 N1741 1.610 . S
N1740 S1739 1.613 . S
N1740 C1743 1.350 . S
N1741 S1739 1.610 . S
N1741 C1742 1.351 . S
C1742 C1736 1.428 . S
C1742 N1741 1.351 . S
C1742 C1743 1.434 . S
C1743 C1734 1.429 . S
C1743 N1740 1.350 . S
C1743 C1742 1.434 . S
C1744 C1745 1.369 . S
C1744 C1746 1.419 . S
C1744 H1748 0.930 . S
C1745 C1744 1.369 . S
C1745 C1754 1.429 . S
C1746 C1744 1.419 . S
C1746 C1747 1.363 . S
C1746 H1749 0.929 . S
C1747 C1746 1.363 . S
C1747 C1753 1.428 . S
H1748 C1744 0.930 . S
H1749 C1746 0.929 . S
S1750 N1751 1.613 . S
S1750 N1752 1.610 . S
N1751 S1750 1.613 . S
N1751 C1754 1.350 . S
N1752 S1750 1.610 . S
N1752 C1753 1.351 . S
C1753 C1747 1.428 . S
C1753 N1752 1.351 . S
C1753 C1754 1.434 . S
C1754 C1745 1.429 . S
C1754 N1751 1.350 . S
C1754 C1753 1.434 . S
C1755 C1756 1.369 1_455 S
C1755 C1757 1.419 . S
C1755 H1759 0.930 . S
C1756 C1755 1.369 1_655 S
C1756 C1765 1.429 . S
C1757 C1755 1.419 . S
C1757 C1758 1.363 1_455 S
C1757 H1760 0.929 . S
C1758 C1757 1.363 1_655 S
C1758 C1764 1.428 . S
H1759 C1755 0.930 . S
H1760 C1757 0.929 . S
S1761 N1762 1.613 . S
S1761 N1763 1.610 . S
N1762 S1761 1.613 . S
N1762 C1765 1.350 . S
N1763 S1761 1.610 . S
N1763 C1764 1.351 . S
C1764 C1758 1.428 . S
C1764 N1763 1.351 . S
C1764 C1765 1.434 . S
C1765 C1756 1.429 . S
C1765 N1762 1.350 . S
C1765 C1764 1.434 . S
C1766 C1767 1.369 . S
C1766 C1768 1.419 . S
C1766 H1770 0.930 . S
C1767 C1766 1.369 . S
C1767 C1776 1.429 . S
C1768 C1766 1.419 . S
C1768 C1769 1.363 . S
C1768 H1771 0.929 . S
C1769 C1768 1.363 . S
C1769 C1775 1.428 . S
H1770 C1766 0.930 . S
H1771 C1768 0.929 . S
S1772 N1773 1.613 . S
S1772 N1774 1.610 . S
N1773 S1772 1.613 . S
N1773 C1776 1.350 . S
N1774 S1772 1.610 . S
N1774 C1775 1.351 . S
C1775 C1769 1.428 . S
C1775 N1774 1.351 . S
C1775 C1776 1.434 . S
C1776 C1767 1.429 . S
C1776 N1773 1.350 . S
C1776 C1775 1.434 . S
C1777 C1778 1.369 . S
C1777 C1779 1.419 . S
C1777 H1781 0.930 . S
C1778 C1777 1.369 . S
C1778 C1787 1.429 1_455 S
C1779 C1777 1.419 . S
C1779 C1780 1.363 . S
C1779 H1782 0.929 . S
C1780 C1779 1.363 . S
C1780 C1786 1.428 1_455 S
H1781 C1777 0.930 . S
H1782 C1779 0.929 . S
S1783 N1784 1.613 . S
S1783 N1785 1.610 . S
N1784 S1783 1.613 . S
N1784 C1787 1.350 . S
N1785 S1783 1.610 . S
N1785 C1786 1.351 . S
C1786 C1780 1.428 1_655 S
C1786 N1785 1.351 . S
C1786 C1787 1.434 . S
C1787 C1778 1.429 1_655 S
C1787 N1784 1.350 . S
C1787 C1786 1.434 . S
C1788 C1789 1.369 . S
C1788 C1790 1.419 . S
C1788 H1792 0.930 . S
C1789 C1788 1.369 . S
C1789 C1798 1.429 . S
C1790 C1788 1.419 . S
C1790 C1791 1.363 . S
C1790 H1793 0.929 . S
C1791 C1790 1.363 . S
C1791 C1797 1.428 . S
H1792 C1788 0.930 . S
H1793 C1790 0.929 . S
S1794 N1795 1.613 . S
S1794 N1796 1.610 . S
N1795 S1794 1.613 . S
N1795 C1798 1.350 . S
N1796 S1794 1.610 . S
N1796 C1797 1.351 . S
C1797 C1791 1.428 . S
C1797 N1796 1.351 . S
C1797 C1798 1.434 . S
C1798 C1789 1.429 . S
C1798 N1795 1.350 . S
C1798 C1797 1.434 . S
C1799 C1800 1.369 . S
C1799 C1801 1.419 . S
C1799 H1803 0.930 . S
C1800 C1799 1.369 . S
C1800 C1809 1.429 . S
C1801 C1799 1.419 . S
C1801 C1802 1.363 . S
C1801 H1804 0.929 . S
C1802 C1801 1.363 . S
C1802 C1808 1.428 . S
H1803 C1799 0.930 . S
H1804 C1801 0.929 . S
S1805 N1806 1.613 . S
S1805 N1807 1.610 . S
N1806 S1805 1.613 . S
N1806 C1809 1.350 . S
N1807 S1805 1.610 . S
N1807 C1808 1.351 . S
C1808 C1802 1.428 . S
C1808 N1807 1.351 . S
C1808 C1809 1.434 . S
C1809 C1800 1.429 . S
C1809 N1806 1.350 . S
C1809 C1808 1.434 . S
C1810 C1811 1.369 . S
C1810 C1812 1.419 . S
C1810 H1814 0.930 . S
C1811 C1810 1.369 . S
C1811 C1820 1.429 . S
C1812 C1810 1.419 . S
C1812 C1813 1.363 . S
C1812 H1815 0.929 . S
C1813 C1812 1.363 . S
C1813 C1819 1.428 . S
H1814 C1810 0.930 . S
H1815 C1812 0.929 . S
S1816 N1817 1.613 . S
S1816 N1818 1.610 . S
N1817 S1816 1.613 . S
N1817 C1820 1.350 . S
N1818 S1816 1.610 . S
N1818 C1819 1.351 . S
C1819 C1813 1.428 . S
C1819 N1818 1.351 . S
C1819 C1820 1.434 . S
C1820 C1811 1.429 . S
C1820 N1817 1.350 . S
C1820 C1819 1.434 . S
C1821 C1822 1.369 . S
C1821 C1823 1.419 . S
C1821 H1825 0.930 . S
C1822 C1821 1.369 . S
C1822 C1831 1.429 . S
C1823 C1821 1.419 . S
C1823 C1824 1.363 . S
C1823 H1826 0.929 . S
C1824 C1823 1.363 . S
C1824 C1830 1.428 . S
H1825 C1821 0.930 . S
H1826 C1823 0.929 . S
S1827 N1828 1.613 . S
S1827 N1829 1.610 . S
N1828 S1827 1.613 . S
N1828 C1831 1.350 . S
N1829 S1827 1.610 . S
N1829 C1830 1.351 . S
C1830 C1824 1.428 . S
C1830 N1829 1.351 . S
C1830 C1831 1.434 . S
C1831 C1822 1.429 . S
C1831 N1828 1.350 . S
C1831 C1830 1.434 . S
C1832 C1833 1.369 . S
C1832 C1834 1.419 . S
C1832 H1836 0.930 . S
C1833 C1832 1.369 . S
C1833 C1842 1.429 . S
C1834 C1832 1.419 . S
C1834 C1835 1.363 . S
C1834 H1837 0.929 . S
C1835 C1834 1.363 . S
C1835 C1841 1.428 . S
H1836 C1832 0.930 . S
H1837 C1834 0.929 . S
S1838 N1839 1.613 . S
S1838 N1840 1.610 . S
N1839 S1838 1.613 . S
N1839 C1842 1.350 . S
N1840 S1838 1.610 . S
N1840 C1841 1.351 . S
C1841 C1835 1.428 . S
C1841 N1840 1.351 . S
C1841 C1842 1.434 . S
C1842 C1833 1.429 . S
C1842 N1839 1.350 . S
C1842 C1841 1.434 . S
C1843 C1844 1.369 . S
C1843 C1845 1.419 . S
C1843 H1847 0.930 . S
C1844 C1843 1.369 . S
C1844 C1853 1.429 . S
C1845 C1843 1.419 . S
C1845 C1846 1.363 . S
C1845 H1848 0.929 . S
C1846 C1845 1.363 . S
C1846 C1852 1.428 . S
H1847 C1843 0.930 . S
H1848 C1845 0.929 . S
S1849 N1850 1.613 . S
S1849 N1851 1.610 . S
N1850 S1849 1.613 . S
N1850 C1853 1.350 . S
N1851 S1849 1.610 . S
N1851 C1852 1.351 . S
C1852 C1846 1.428 . S
C1852 N1851 1.351 . S
C1852 C1853 1.434 . S
C1853 C1844 1.429 . S
C1853 N1850 1.350 . S
C1853 C1852 1.434 . S
C1854 C1855 1.369 . S
C1854 C1856 1.419 . S
C1854 H1858 0.930 . S
C1855 C1854 1.369 . S
C1855 C1864 1.429 . S
C1856 C1854 1.419 . S
C1856 C1857 1.363 . S
C1856 H1859 0.929 . S
C1857 C1856 1.363 . S
C1857 C1863 1.428 . S
H1858 C1854 0.930 . S
H1859 C1856 0.929 . S
S1860 N1861 1.613 . S
S1860 N1862 1.610 . S
N1861 S1860 1.613 . S
N1861 C1864 1.350 . S
N1862 S1860 1.610 . S
N1862 C1863 1.351 . S
C1863 C1857 1.428 . S
C1863 N1862 1.351 . S
C1863 C1864 1.434 . S
C1864 C1855 1.429 . S
C1864 N1861 1.350 . S
C1864 C1863 1.434 . S
C1865 C1866 1.369 . S
C1865 C1867 1.419 . S
C1865 H1869 0.930 . S
C1866 C1865 1.369 . S
C1866 C1875 1.429 . S
C1867 C1865 1.419 . S
C1867 C1868 1.363 . S
C1867 H1870 0.929 . S
C1868 C1867 1.363 . S
C1868 C1874 1.428 . S
H1869 C1865 0.930 . S
H1870 C1867 0.929 . S
S1871 N1872 1.613 . S
S1871 N1873 1.610 . S
N1872 S1871 1.613 . S
N1872 C1875 1.350 . S
N1873 S1871 1.610 . S
N1873 C1874 1.351 . S
C1874 C1868 1.428 . S
C1874 N1873 1.351 . S
C1874 C1875 1.434 . S
C1875 C1866 1.429 . S
C1875 N1872 1.350 . S
C1875 C1874 1.434 . S
C1876 C1877 1.369 . S
C1876 C1878 1.417 1_556 S
C1876 H1880 0.930 1_556 S
C1877 C1876 1.369 . S
C1877 C1886 1.429 . S
C1878 C1876 1.417 1_554 S
C1878 C1879 1.360 1_554 S
C1878 H1881 0.934 . S
C1879 C1878 1.360 1_556 S
C1879 C1885 1.428 . S
H1880 C1876 0.930 1_554 S
H1881 C1878 0.934 . S
S1882 N1883 1.613 . S
S1882 N1884 1.610 . S
N1883 S1882 1.613 . S
N1883 C1886 1.350 . S
N1884 S1882 1.610 . S
N1884 C1885 1.351 . S
C1885 C1879 1.428 . S
C1885 N1884 1.351 . S
C1885 C1886 1.434 . S
C1886 C1877 1.429 . S
C1886 N1883 1.350 . S
C1886 C1885 1.434 . S
C1887 C1888 1.369 . S
C1887 C1889 1.419 . S
C1887 H1891 0.930 . S
C1888 C1887 1.369 . S
C1888 C1897 1.429 . S
C1889 C1887 1.419 . S
C1889 C1890 1.363 . S
C1889 H1892 0.929 . S
C1890 C1889 1.363 . S
C1890 C1896 1.428 . S
H1891 C1887 0.930 . S
H1892 C1889 0.929 . S
S1893 N1894 1.613 . S
S1893 N1895 1.610 . S
N1894 S1893 1.613 . S
N1894 C1897 1.350 . S
N1895 S1893 1.610 . S
N1895 C1896 1.351 . S
C1896 C1890 1.428 . S
C1896 N1895 1.351 . S
C1896 C1897 1.434 . S
C1897 C1888 1.429 . S
C1897 N1894 1.350 . S
C1897 C1896 1.434 . S
C1898 C1899 1.369 . S
C1898 C1900 1.419 . S
C1898 H1902 0.930 . S
C1899 C1898 1.369 . S
C1899 C1908 1.429 1_554 S
C1900 C1898 1.419 . S
C1900 C1901 1.363 . S
C1900 H1903 0.929 . S
C1901 C1900 1.363 . S
C1901 C1907 1.428 1_554 S
H1902 C1898 0.930 . S
H1903 C1900 0.929 . S
S1904 N1905 1.613 . S
S1904 N1906 1.610 . S
N1905 S1904 1.613 . S
N1905 C1908 1.350 . S
N1906 S1904 1.610 . S
N1906 C1907 1.351 . S
C1907 C1901 1.428 1_556 S
C1907 N1906 1.351 . S
C1907 C1908 1.434 . S
C1908 C1899 1.429 1_556 S
C1908 N1905 1.350 . S
C1908 C1907 1.434 . S
C1909 C1910 1.369 . S
C1909 C1911 1.419 . S
C1909 H1913 0.930 1_554 S
C1910 C1909 1.369 . S
C1910 C1919 1.429 . S
C1911 C1909 1.419 . S
C1911 C1912 1.363 . S
C1911 H1914 0.929 1_554 S
C1912 C1911 1.363 . S
C1912 C1918 1.428 . S
H1913 C1909 0.930 1_556 S
H1914 C1911 0.929 1_556 S
S1915 N1916 1.613 . S
S1915 N1917 1.610 . S
N1916 S1915 1.613 . S
N1916 C1919 1.350 . S
N1917 S1915 1.610 . S
N1917 C1918 1.351 . S
C1918 C1912 1.428 . S
C1918 N1917 1.351 . S
C1918 C1919 1.434 . S
C1919 C1910 1.429 . S
C1919 N1916 1.350 . S
C1919 C1918 1.434 . S
C1395 C962 1.482 . S
C1393 C331 1.446 . S
C1406 C1010 1.609 . S
C1404 C380 1.640 . S
C1415 C421 1.430 . S
C1417 C1046 1.406 . S
C1428 C1082 1.554 . S
C1426 C260 1.564 . S
C1439 C1108 1.507 . S
C1437 C620 1.464 . S
C1450 C1144 1.566 . S
C1448 C740 1.546 . S
C1459 C680 1.509 . S
C1461 C1179 1.539 . S
C1472 C1216 1.584 1_565 S
C1470 C571 1.580 . S
C1481 C691 1.475 . S
C1483 C1250 1.472 . S
C1494 C1298 1.539 . S
C1492 C541 1.577 . S
C1503 C601 1.443 . S
C1505 C1251 1.504 . S
C1516 C1288 1.596 . S
C1514 C721 1.568 . S
C1525 C451 1.462 . S
C1527 C1334 1.440 . S
C1536 C241 1.570 . S
C1538 C1323 1.600 . S
C1547 C320 1.490 . S
C1549 C1324 1.522 . S
C1558 C391 1.609 . S
C1560 C1322 1.616 1_655 S
C1569 C211 1.462 . S
C1571 C1070 1.490 . S
C1580 C841 1.440 . S
C1582 C1071 1.494 . S
C1593 C974 1.580 . S
C1591 C901 1.616 . S
C1604 C999 1.502 . S
C1602 C500 1.458 . S
C1613 C271 1.572 . S
C1615 C1106 1.607 . S
C1626 C1214 1.499 . S
C1624 C661 1.510 . S
C1637 C1107 1.573 . S
C1635 C560 1.567 . S
C1648 C1180 1.595 . S
C1646 C751 1.584 . S
C1659 C1178 1.481 . S
C1657 C871 1.444 . S
C1668 C920 1.638 . S
C1670 C1226 1.610 . S
C1679 C481 1.421 . S
C1681 C1118 1.404 . S
C1692 C1154 1.553 . S
C1690 C800 1.564 . S
C1701 C200 1.469 . S
C1703 C1036 1.506 . S
C1714 C1072 1.567 . S
C1712 C20 1.546 . S
C1725 C963 1.539 . S
C1723 C80 1.509 . S
C1736 C1000 1.589 . S
C1734 C151 1.579 . S
C1745 C91 1.475 . S
C1747 C1286 1.472 . S
C1756 C121 1.578 . S
C1758 C1262 1.538 . S
C1767 C181 1.432 . S
C1769 C1287 1.505 . S
C1778 C1 1.565 . S
C1780 C1252 1.594 . S
C1791 C1370 1.433 . S
C1789 C511 1.455 . S
C1802 C1359 1.600 . S
C1800 C781 1.571 . S
C1813 C1360 1.526 . S
C1811 C860 1.481 . S
C1822 C931 1.610 . S
C1824 C1358 1.624 . S
C1833 C631 1.458 . S
C1835 C1142 1.491 . S
C1846 C1143 1.496 . S
C1844 C301 1.431 . S
C1857 C1190 1.579 . S
C1855 C361 1.616 . S
C1868 C1215 1.502 . S
C1866 C440 1.461 . S
C1877 C811 1.569 . S
C1879 C1034 1.607 1_556 S
C1890 C998 1.503 . S
C1888 C61 1.509 . S
C1899 C140 1.568 . S
C1901 C1035 1.573 . S
C1912 C964 1.596 . S
C1910 C31 1.580 . S
