# Generated by pormake.
# Topology anh, (6,3)-cn, num edge types: 1
# Building blocks:
#     Node 0, Type 0, BuildingBlock: BETFEN_clean_sbu_0, # of connection points: 6
#     Node 1, Type 0, BuildingBlock: BETFEN_clean_sbu_0, # of connection points: 6
#     Node 2, Type 0, BuildingBlock: BETFEN_clean_sbu_0, # of connection points: 6
#     Node 3, Type 1, BuildingBlock: KAKCAD_clean_linker_0, # of connection points: 3
#     Node 4, Type 1, BuildingBlock: KAKCAD_clean_linker_0, # of connection points: 3
#     Node 5, Type 1, BuildingBlock: KAKCAD_clean_linker_0, # of connection points: 3
#     Node 6, Type 1, BuildingBlock: KAKCAD_clean_linker_0, # of connection points: 3
#     Node 7, Type 1, BuildingBlock: KAKCAD_clean_linker_0, # of connection points: 3
#     Node 8, Type 1, BuildingBlock: KAKCAD_clean_linker_0, # of connection points: 3
#     Edge 9, Type (0, 1), BuildingBlock: ZUJKAS_clean_linker_0, # of connection points: 2
#     Edge 10, Type (0, 1), BuildingBlock: ZUJKAS_clean_linker_0, # of connection points: 2
#     Edge 11, Type (0, 1), BuildingBlock: ZUJKAS_clean_linker_0, # of connection points: 2
#     Edge 12, Type (0, 1), BuildingBlock: ZUJKAS_clean_linker_0, # of connection points: 2
#     Edge 13, Type (0, 1), BuildingBlock: ZUJKAS_clean_linker_0, # of connection points: 2
#     Edge 14, Type (0, 1), BuildingBlock: ZUJKAS_clean_linker_0, # of connection points: 2
#     Edge 15, Type (0, 1), BuildingBlock: ZUJKAS_clean_linker_0, # of connection points: 2
#     Edge 16, Type (0, 1), BuildingBlock: ZUJKAS_clean_linker_0, # of connection points: 2
#     Edge 17, Type (0, 1), BuildingBlock: ZUJKAS_clean_linker_0, # of connection points: 2
#     Edge 18, Type (0, 1), BuildingBlock: ZUJKAS_clean_linker_0, # of connection points: 2
#     Edge 19, Type (0, 1), BuildingBlock: ZUJKAS_clean_linker_0, # of connection points: 2
#     Edge 20, Type (0, 1), BuildingBlock: ZUJKAS_clean_linker_0, # of connection points: 2
#     Edge 21, Type (0, 1), BuildingBlock: ZUJKAS_clean_linker_0, # of connection points: 2
#     Edge 22, Type (0, 1), BuildingBlock: ZUJKAS_clean_linker_0, # of connection points: 2
#     Edge 23, Type (0, 1), BuildingBlock: ZUJKAS_clean_linker_0, # of connection points: 2
#     Edge 24, Type (0, 1), BuildingBlock: ZUJKAS_clean_linker_0, # of connection points: 2
#     Edge 25, Type (0, 1), BuildingBlock: ZUJKAS_clean_linker_0, # of connection points: 2
#     Edge 26, Type (0, 1), BuildingBlock: ZUJKAS_clean_linker_0, # of connection points: 2
# Relax obj value: 0.164
# Max RMSD: 0.197
# Mean RMSD: 0.149
data_MOF--net-anh--node1-BETFEN_clean_sbu_0--node2-KAKCAD_clean_linker_0--edge1-ZUJKAS_clean_linker_0
_symmetry_space_group_name_H-M    P1
_symmetry_Int_Tables_number       1
_symmetry_cell_setting            triclinic
loop_
_symmetry_equiv_pos_as_xyz
'x, y, z'
_cell_length_a     44.742665
_cell_length_b     46.83602
_cell_length_c     83.149532
_cell_angle_alpha  90.675546
_cell_angle_beta   92.481506
_cell_angle_gamma 108.91663
loop_
_atom_site_label
_atom_site_type_symbol
_atom_site_fract_x
_atom_site_fract_y
_atom_site_fract_z
_atom_type_partial_charge
Pr0 Pr 1.01234 0.52475 0.15689 0.0
Pr1 Pr 0.03751 0.5899 0.15408 0.0
C2 C 0.97743 0.46754 0.16289 0.0
C3 C 0.94381 0.44825 0.16119 0.0
C4 C 0.93208 0.43023 0.1472 0.0
C5 C 0.9013 0.40981 0.14623 0.0
C6 C 0.88163 0.4068 0.15927 0.0
C7 C 0.89276 0.42593 0.17292 0.0
C8 C 0.92354 0.44637 0.17389 0.0
C9 C 0.02348 0.5427 0.12522 0.0
C10 C 0.96246 0.56419 0.15344 0.0
C11 C 0.07301 0.64698 0.14812 0.0
C12 C 0.10626 0.66652 0.15124 0.0
C13 C 0.11805 0.67734 0.16687 0.0
C14 C 0.14873 0.69753 0.16943 0.0
C15 C 0.16831 0.70742 0.15644 0.0
C16 C 0.15708 0.69544 0.14093 0.0
C17 C 0.12632 0.67528 0.13836 0.0
C18 C 0.02734 0.57133 0.18579 0.0
C19 C 0.08747 0.5503 0.1566 0.0
O20 O 0.98504 0.48933 0.17383 0.0
O21 O 0.99252 0.4752 0.14968 0.0
O22 O 1.00977 0.55447 0.135 0.0
O23 O 0.03194 0.52125 0.13164 0.0
O24 O 0.98526 0.5855 0.14694 0.0
O25 O 0.96818 0.54113 0.16029 0.0
O26 O 0.06805 0.6246 0.13772 0.0
O27 O 0.05505 0.63988 0.16043 0.0
O28 O 0.04096 0.5601 0.17574 0.0
O29 O 0.0182 0.5926 0.17964 0.0
O30 O 0.06493 0.52862 0.16306 0.0
O31 O 0.08142 0.57368 0.15034 0.0
H32 H 0.94697 0.43123 0.13715 0.0
H33 H 0.89322 0.39569 0.13546 0.0
H34 H 0.87832 0.424 0.18323 0.0
H35 H 0.93178 0.45994 0.18483 0.0
H36 H 0.10343 0.67075 0.17712 0.0
H37 H 0.15694 0.70587 0.18158 0.0
H38 H 0.17151 0.70266 0.13067 0.0
H39 H 0.11793 0.66713 0.1262 0.0
Pr40 Pr 0.57428 0.05276 0.50157 0.0
Pr41 Pr 0.499 0.02703 0.50254 0.0
C42 C 0.63471 0.0858 0.49742 0.0
C43 C 0.65331 0.11831 0.49774 0.0
C44 C 0.67653 0.13037 0.51016 0.0
C45 C 0.69532 0.16075 0.5103 0.0
C46 C 0.6914 0.17955 0.49793 0.0
C47 C 0.66718 0.16784 0.48594 0.0
C48 C 0.64829 0.13754 0.48584 0.0
C49 C 0.54931 0.03796 0.53084 0.0
C50 C 0.53219 0.10332 0.50508 0.0
C51 C 0.44189 0.99656 0.51305 0.0
C52 C 0.41898 0.96577 0.50984 0.0
C53 C 0.39552 0.96026 0.49732 0.0
C54 C 0.37413 0.93121 0.49431 0.0
C55 C 0.37567 0.90681 0.50368 0.0
C56 C 0.39941 0.91233 0.51609 0.0
C57 C 0.42062 0.94143 0.51919 0.0
C58 C 0.51555 0.02932 0.47041 0.0
C59 C 0.54199 0.97709 0.50229 0.0
O60 O 0.61413 0.07502 0.48531 0.0
O61 O 0.62453 0.07468 0.51126 0.0
O62 O 0.53906 0.05184 0.52029 0.0
O63 O 0.57433 0.03187 0.52677 0.0
O64 O 0.50543 0.07998 0.50576 0.0
O65 O 0.55969 0.09838 0.5031 0.0
O66 O 0.46842 0.99809 0.52094 0.0
O67 O 0.44574 1.01605 0.50143 0.0
O68 O 0.5343 0.03675 0.48261 0.0
O69 O 0.4865 1.02026 0.47473 0.0
O70 O 0.56808 0.99985 0.49927 0.0
O71 O 0.51485 0.98238 0.50448 0.0
H72 H 0.68063 0.11611 0.51959 0.0
H73 H 0.71382 0.16914 0.51968 0.0
H74 H 0.66329 0.18201 0.47641 0.0
H75 H 0.63019 0.12914 0.47628 0.0
H76 H 0.39351 0.97845 0.48989 0.0
H77 H 0.35593 0.92811 0.48482 0.0
H78 H 0.4018 0.89415 0.52341 0.0
H79 H 0.4384 0.94477 0.52893 0.0
Pr80 Pr 0.5048 0.50631 0.83292 0.0
Pr81 Pr 0.53488 0.5736 0.83353 0.0
C82 C 0.48747 0.44925 0.82368 0.0
C83 C 0.50897 0.43209 0.8271 0.0
C84 C 0.50129 0.40938 0.83846 0.0
C85 C 0.52328 0.3955 0.84318 0.0
C86 C 0.55321 0.4041 0.83651 0.0
C87 C 0.56173 0.42835 0.82612 0.0
C88 C 0.53973 0.44208 0.82134 0.0
C89 C 0.51261 0.52278 0.86567 0.0
C90 C 0.58304 0.53339 0.83416 0.0
C91 C 0.56258 0.62958 0.84498 0.0
C92 C 0.54592 0.65073 0.84854 0.0
C93 C 0.54746 0.67347 0.83753 0.0
C94 C 0.52391 0.68665 0.83675 0.0
C95 C 0.49911 0.67785 0.84729 0.0
C96 C 0.4989 0.65711 0.85924 0.0
C97 C 0.52215 0.64338 0.85982 0.0
C98 C 0.52457 0.55804 0.80068 0.0
C99 C 0.45664 0.54667 0.83395 0.0
O100 O 0.49714 0.4707 0.81329 0.0
O101 O 0.47588 0.45755 0.83642 0.0
O102 O 0.52057 0.54095 0.8542 0.0
O103 O 0.50056 0.49527 0.86019 0.0
O104 O 0.58016 0.56017 0.83273 0.0
O105 O 0.55827 0.509 0.83525 0.0
O106 O 0.55713 0.60626 0.85423 0.0
O107 O 0.56146 0.62242 0.82969 0.0
O108 O 0.51732 0.53901 0.81189 0.0
O109 O 0.53499 0.58544 0.8065 0.0
O110 O 0.45907 0.51972 0.83129 0.0
O111 O 0.4818 0.5712 0.83579 0.0
H112 H 0.47822 0.40222 0.84357 0.0
H113 H 0.51593 0.37649 0.85107 0.0
H114 H 0.58461 0.43518 0.82082 0.0
H115 H 0.54694 0.46045 0.81305 0.0
H116 H 0.56544 0.67931 0.82869 0.0
H117 H 0.52496 0.70363 0.82785 0.0
H118 H 0.48035 0.65101 0.86776 0.0
H119 H 0.52032 0.6258 0.86843 0.0
C120 C 0.54727 0.08067 0.29306 0.0
C121 C 0.53945 0.05321 0.30104 0.0
C122 C 0.54504 0.08099 0.27628 0.0
C123 C 0.53548 0.05381 0.26708 0.0
C124 C 0.52752 0.0263 0.27515 0.0
C125 C 0.52926 0.02601 0.29197 0.0
C126 C 0.53418 0.05435 0.24917 0.0
C127 C 0.5569 0.07692 0.24119 0.0
C128 C 0.55534 0.07868 0.22433 0.0
C129 C 0.53131 0.05662 0.21534 0.0
C130 C 0.50899 0.03325 0.22307 0.0
C131 C 0.5103 0.03255 0.23998 0.0
C132 C 0.48446 1.00923 0.21356 0.0
C133 C 0.46737 1.01635 0.20047 0.0
C134 C 0.47788 0.97886 0.21766 0.0
C135 C 0.45455 0.95609 0.20896 0.0
C136 C 0.43725 0.96329 0.19611 0.0
C137 C 0.57868 0.10387 0.2163 0.0
C138 C 0.58891 0.13301 0.22343 0.0
C139 C 0.59113 0.09913 0.20163 0.0
C140 C 0.6134 0.12299 0.19434 0.0
C141 C 0.62379 0.15205 0.20159 0.0
C142 C 0.61132 0.1567 0.21624 0.0
C143 C 0.44371 0.9935 0.19188 0.0
H144 H 0.55472 0.10192 0.29983 0.0
H145 H 0.5506 0.10259 0.27053 0.0
H146 H 0.5205 1.00496 0.2685 0.0
H147 H 0.52326 1.00455 0.2979 0.0
H148 H 0.57623 0.09302 0.24813 0.0
H149 H 0.49226 1.01528 0.24596 0.0
H150 H 0.52997 0.05755 0.20233 0.0
H151 H 0.47182 0.03958 0.19712 0.0
H152 H 0.49087 0.97268 0.22756 0.0
H153 H 0.44962 0.93284 0.21244 0.0
H154 H 0.5795 0.13764 0.23458 0.0
H155 H 0.58403 0.07691 0.19589 0.0
H156 H 0.43037 0.99936 0.18202 0.0
H157 H 0.61916 0.17864 0.22232 0.0
H158 H 0.62234 0.11869 0.18298 0.0
C159 C 0.51808 0.55693 0.61666 0.0
C160 C 0.53402 0.54068 0.62584 0.0
C161 C 0.5189 0.55741 0.59974 0.0
C162 C 0.53589 0.54185 0.59133 0.0
C163 C 0.55207 0.52582 0.60056 0.0
C164 C 0.55104 0.52514 0.61747 0.0
C165 C 0.53641 0.54204 0.57309 0.0
C166 C 0.53642 0.5679 0.56455 0.0
C167 C 0.53593 0.56888 0.54749 0.0
C168 C 0.53676 0.54199 0.53889 0.0
C169 C 0.53748 0.51522 0.54733 0.0
C170 C 0.53673 0.51624 0.56431 0.0
C171 C 0.53949 0.48548 0.53972 0.0
C172 C 0.51774 0.46785 0.52767 0.0
C173 C 0.56075 0.47172 0.5467 0.0
C174 C 0.55985 0.44201 0.54237 0.0
C175 C 0.53758 0.42378 0.53073 0.0
C176 C 0.53447 0.59871 0.53988 0.0
C177 C 0.5164 0.61517 0.54694 0.0
C178 C 0.55306 0.61319 0.52707 0.0
C179 C 0.55446 0.64291 0.5222 0.0
C180 C 0.53706 0.65944 0.52976 0.0
C181 C 0.51768 0.64451 0.54205 0.0
C182 C 0.51675 0.43778 0.52333 0.0
H183 H 0.50432 0.56887 0.62252 0.0
H184 H 0.5056 0.56961 0.59325 0.0
H185 H 0.566 0.51399 0.59475 0.0
H186 H 0.56409 0.51277 0.62401 0.0
H187 H 0.5375 0.58802 0.57141 0.0
H188 H 0.53582 0.49613 0.57084 0.0
H189 H 0.5369 0.54189 0.52588 0.0
H190 H 0.50052 0.47678 0.52202 0.0
H191 H 0.57787 0.48381 0.55608 0.0
H192 H 0.57625 0.43302 0.54876 0.0
H193 H 0.50125 0.60546 0.55663 0.0
H194 H 0.56752 0.60207 0.52116 0.0
H195 H 0.4993 0.42543 0.51416 0.0
H196 H 0.50373 0.65588 0.54822 0.0
H197 H 0.56954 0.65313 0.51258 0.0
C198 C 0.05788 0.57503 0.94531 0.0
C199 C 0.03137 0.55732 0.95326 0.0
C200 C 0.05756 0.57516 0.92848 0.0
C201 C 0.03084 0.55726 0.9192 0.0
C202 C 1.00455 0.53916 0.92724 0.0
C203 C 1.00473 0.53936 0.94404 0.0
C204 C 0.03026 0.55749 0.90125 0.0
C205 C 0.05754 0.55968 0.89293 0.0
C206 C 0.05701 0.55938 0.87598 0.0
C207 C 0.02836 0.55638 0.86723 0.0
C208 C 1.00076 0.55383 0.87542 0.0
C209 C 1.00214 0.5549 0.89232 0.0
C210 C 0.96966 0.54886 0.86684 0.0
C211 C 0.96452 0.57038 0.85642 0.0
C212 C 0.94378 0.52413 0.87088 0.0
C213 C 0.91314 0.52179 0.86544 0.0
C214 C 0.90746 0.54435 0.85598 0.0
C215 C 0.08642 0.56081 0.8678 0.0
C216 C 0.11572 0.58117 0.87356 0.0
C217 C 0.08601 0.54005 0.85535 0.0
C218 C 0.11443 0.53857 0.84948 0.0
C219 C 0.14361 0.55823 0.85574 0.0
C220 C 0.14398 0.57996 0.86754 0.0
C221 C 0.93362 0.56818 0.85104 0.0
H222 H 0.07864 0.58931 0.95212 0.0
H223 H 0.07807 0.58972 0.92278 0.0
H224 H 0.98383 0.5245 0.92056 0.0
H225 H 0.98415 0.52513 0.94985 0.0
H226 H 0.07911 0.56056 0.89967 0.0
H227 H 0.98099 0.55382 0.89852 0.0
H228 H 0.02741 0.55563 0.85418 0.0
H229 H 0.98413 0.58974 0.85321 0.0
H230 H 0.94718 0.50711 0.8788 0.0
H231 H 0.89376 0.50264 0.86908 0.0
H232 H 0.11683 0.59756 0.88306 0.0
H233 H 0.06386 0.524 0.85071 0.0
H234 H 0.93015 0.58596 0.84375 0.0
H235 H 0.16624 0.59523 0.87259 0.0
H236 H 0.11369 0.52166 0.84033 0.0
C237 C 0.99003 0.53708 0.3655 0.0
C238 C 0.01857 0.5483 0.35761 0.0
C239 C 0.98992 0.53708 0.38233 0.0
C240 C 0.01838 0.54791 0.39178 0.0
C241 C 0.04692 0.55881 0.38388 0.0
C242 C 0.04699 0.55928 0.36707 0.0
C243 C 0.0184 0.54798 0.40977 0.0
C244 C 0.99639 0.52482 0.41782 0.0
C245 C 0.99613 0.52492 0.43476 0.0
C246 C 0.01925 0.54797 0.44371 0.0
C247 C 0.04199 0.57092 0.43593 0.0
C248 C 0.04072 0.57113 0.41899 0.0
C249 C 0.06758 0.5945 0.44529 0.0
C250 C 0.06183 0.60711 0.45984 0.0
C251 C 0.09818 0.60495 0.43945 0.0
C252 C 0.12192 0.62836 0.44744 0.0
C253 C 0.1159 0.64156 0.46162 0.0
C254 C 0.97177 0.50075 0.44299 0.0
C255 C 0.94075 0.48906 0.43617 0.0
C256 C 0.97926 0.48882 0.45752 0.0
C257 C 0.95646 0.46536 0.46481 0.0
C258 C 0.92593 0.45309 0.45759 0.0
C259 C 0.9182 0.46536 0.44332 0.0
C260 C 0.08592 0.63036 0.468 0.0
H261 H 0.96766 0.52799 0.3587 0.0
H262 H 0.96739 0.52885 0.3879 0.0
H263 H 0.06942 0.56686 0.39064 0.0
H264 H 0.06945 0.56858 0.36155 0.0
H265 H 0.97982 0.50624 0.4109 0.0
H266 H 0.05705 0.58972 0.41297 0.0
H267 H 0.01967 0.54799 0.45673 0.0
H268 H 0.03855 0.59972 0.46467 0.0
H269 H 0.10381 0.59518 0.42859 0.0
H270 H 0.14506 0.63638 0.44244 0.0
H271 H 0.93381 0.49816 0.42526 0.0
H272 H 1.00294 0.49697 0.46306 0.0
H273 H 0.08082 0.64032 0.47894 0.0
H274 H 0.89463 0.45654 0.43766 0.0
H275 H 0.96298 0.45612 0.47579 0.0
C276 C 0.4854 1.01452 0.70311 0.0
C277 C 0.50465 0.04045 0.69585 0.0
C278 C 0.48368 1.01401 0.71969 0.0
C279 C 0.50095 0.03951 0.72902 0.0
C280 C 0.51908 0.06589 0.72182 0.0
C281 C 0.521 0.06636 0.7052 0.0
C282 C 0.5018 0.0377 0.74636 0.0
C283 C 0.5167 1.01896 0.75374 0.0
C284 C 0.51659 1.016 0.77044 0.0
C285 C 0.50142 0.03215 0.77954 0.0
C286 C 0.48801 0.05185 0.77214 0.0
C287 C 0.48804 0.05469 0.75552 0.0
C288 C 0.48008 0.0736 0.78214 0.0
C289 C 0.45403 0.06488 0.79193 0.0
C290 C 0.50148 0.10291 0.78317 0.0
C291 C 0.49693 0.12363 0.7939 0.0
C292 C 0.47075 0.11529 0.80355 0.0
C293 C 0.52809 0.99332 0.77833 0.0
C294 C 0.52173 0.96487 0.77079 0.0
C295 C 0.53729 0.99697 0.79479 0.0
C296 C 0.53147 0.97173 0.80424 0.0
C297 C 0.51874 0.94285 0.79699 0.0
C298 C 0.51785 0.93976 0.78013 0.0
C299 C 0.44916 0.08597 0.8026 0.0
H300 H 0.47225 0.99452 0.69597 0.0
H301 H 0.46946 0.99361 0.72528 0.0
H302 H 0.53262 0.08558 0.72907 0.0
H303 H 0.53613 0.08644 0.69973 0.0
H304 H 0.52812 1.00669 0.74638 0.0
H305 H 0.47788 0.07035 0.74978 0.0
H306 H 0.50025 0.02998 0.79248 0.0
H307 H 0.43784 0.04193 0.79135 0.0
H308 H 0.52215 0.10948 0.77597 0.0
H309 H 0.51385 0.14628 0.79469 0.0
H310 H 0.51572 0.96116 0.75802 0.0
H311 H 0.54457 1.01904 0.80073 0.0
H312 H 0.42894 0.07953 0.81009 0.0
H313 H 0.51056 0.91773 0.77416 0.0
H314 H 0.53374 0.97515 0.81718 0.0
C315 C 0.53015 0.53953 0.04796 0.0
C316 C 0.51964 0.56002 0.03898 0.0
C317 C 0.53113 0.54064 0.06481 0.0
C318 C 0.52142 0.56214 0.07316 0.0
C319 C 0.5107 0.58254 0.06421 0.0
C320 C 0.51 0.58161 0.04732 0.0
C321 C 0.52261 0.56319 0.09113 0.0
C322 C 0.54891 0.56033 0.09991 0.0
C323 C 0.55013 0.56013 0.11685 0.0
C324 C 0.52444 0.56325 0.12514 0.0
C325 C 0.49782 0.56637 0.1165 0.0
C326 C 0.49731 0.56634 0.09953 0.0
C327 C 0.46969 0.56866 0.12475 0.0
C328 C 0.45532 0.54821 0.1366 0.0
C329 C 0.45501 0.58948 0.11947 0.0
C330 C 0.42575 0.58864 0.12505 0.0
C331 C 0.41021 0.56689 0.13606 0.0
C332 C 0.57866 0.55654 0.1254 0.0
C333 C 0.59148 0.53494 0.11957 0.0
C334 C 0.59529 0.57647 0.138 0.0
C335 C 0.62527 0.57622 0.14373 0.0
C336 C 0.63904 0.55608 0.13692 0.0
C337 C 0.62122 0.53475 0.12523 0.0
C338 C 0.42583 0.54731 0.1422 0.0
H339 H 0.53802 0.52279 0.04196 0.0
H340 H 0.53922 0.5244 0.07132 0.0
H341 H 0.50323 0.59949 0.07027 0.0
H342 H 0.50155 0.59758 0.04079 0.0
H343 H 0.56887 0.55869 0.09347 0.0
H344 H 0.47657 0.56774 0.09279 0.0
H345 H 0.52507 0.56306 0.13818 0.0
H346 H 0.46599 0.53182 0.14089 0.0
H347 H 0.46577 0.60593 0.11059 0.0
H348 H 0.41493 0.60466 0.12041 0.0
H349 H 0.57897 0.51883 0.11013 0.0
H350 H 0.586 0.59334 0.14275 0.0
H351 H 0.41459 0.5303 0.15071 0.0
H352 H 0.63074 0.5184 0.12004 0.0
H353 H 0.63835 0.59285 0.15283 0.0
H354 H 0.12065 0.5276 0.17872 0.0
H355 H 0.17641 0.53021 0.17798 0.0
H356 H 0.182 0.57069 0.13138 0.0
H357 H 0.12727 0.56963 0.13251 0.0
H358 H 0.20894 0.50714 0.15906 0.0
H359 H 0.25584 0.63101 0.15377 0.0
H360 H 0.21527 0.61176 0.15823 0.0
H361 H 0.22728 0.61442 0.13771 0.0
C362 C 0.13391 0.53701 0.16835 0.0
C363 C 0.11987 0.54881 0.15579 0.0
C364 C 0.16574 0.53857 0.16793 0.0
C365 C 0.18386 0.55158 0.15485 0.0
C366 C 0.16911 0.56176 0.14192 0.0
H367 H 0.36191 0.57029 0.11576 0.0
H368 H 0.30803 0.5662 0.12217 0.0
C369 C 0.13769 0.56087 0.14251 0.0
C370 C 0.21799 0.5543 0.15449 0.0
H371 H 0.29069 0.60366 0.14659 0.0
C372 C 0.22688 0.52836 0.15659 0.0
C373 C 0.24163 0.58206 0.15142 0.0
C374 C 0.23455 0.61141 0.15034 0.0
C375 C 0.25831 0.52912 0.1549 0.0
C376 C 0.28145 0.5565 0.15101 0.0
C377 C 0.27284 0.58262 0.14944 0.0
C378 C 0.31425 0.55823 0.14745 0.0
C379 C 0.2664 0.50043 0.15666 0.0
C380 C 0.33579 0.55519 0.15958 0.0
C381 C 0.36694 0.5578 0.15598 0.0
C382 C 0.37711 0.56368 0.14019 0.0
C383 C 0.35522 0.56642 0.12811 0.0
C384 C 0.32428 0.56387 0.13172 0.0
H385 H 0.24503 0.48034 0.15777 0.0
H386 H 0.27937 0.49681 0.14615 0.0
H387 H 0.28214 0.50242 0.1676 0.0
H388 H 0.32864 0.55121 0.17186 0.0
H389 H 0.38319 0.55577 0.16559 0.0
H390 H 0.7202 0.20454 0.47112 0.0
H391 H 0.75951 0.25411 0.46852 0.0
H392 H 0.75458 0.27375 0.51896 0.0
H393 H 0.71505 0.22359 0.52171 0.0
H394 H 0.7525 0.30984 0.47453 0.0
H395 H 0.85013 0.29377 0.51339 0.0
H396 H 0.81626 0.26248 0.50622 0.0
H397 H 0.81258 0.28689 0.52228 0.0
C398 C 0.72719 0.21948 0.48164 0.0
C399 C 0.71437 0.21029 0.49658 0.0
C400 C 0.74982 0.24772 0.48016 0.0
C401 C 0.76016 0.26746 0.49357 0.0
C402 C 0.74731 0.25859 0.50854 0.0
H403 H 0.90726 0.44568 0.48866 0.0
H404 H 0.86622 0.4022 0.4993 0.0
C405 C 0.72468 0.23007 0.51006 0.0
C406 C 0.78381 0.29749 0.49139 0.0
H407 H 0.86115 0.33947 0.49971 0.0
C408 C 0.77615 0.31649 0.48019 0.0
C409 C 0.81456 0.30613 0.49887 0.0
C410 C 0.82413 0.28626 0.5108 0.0
C411 C 0.79872 0.34335 0.47576 0.0
C412 C 0.8299 0.35128 0.4826 0.0
C413 C 0.83722 0.33316 0.49445 0.0
C414 C 0.85558 0.377 0.47662 0.0
C415 C 0.78914 0.36271 0.46351 0.0
C416 C 0.86356 0.37676 0.46051 0.0
C417 C 0.88658 0.40145 0.45443 0.0
C418 C 0.90242 0.42666 0.46442 0.0
C419 C 0.89532 0.42647 0.48073 0.0
C420 C 0.87196 0.40176 0.4868 0.0
H421 H 0.76317 0.3583 0.46296 0.0
H422 H 0.8013 0.38708 0.4663 0.0
H423 H 0.79583 0.3574 0.45141 0.0
H424 H 0.85175 0.35751 0.45258 0.0
H425 H 0.89209 0.40083 0.44189 0.0
H426 H 0.45972 0.68045 0.82215 0.0
H427 H 0.44406 0.72512 0.81719 0.0
H428 H 0.47419 0.757 0.86603 0.0
H429 H 0.49001 0.71266 0.87098 0.0
H430 H 0.41183 0.7667 0.83562 0.0
H431 H 0.54266 0.80352 0.83101 0.0
H432 H 0.51839 0.76433 0.83006 0.0
H433 H 0.52816 0.78441 0.84912 0.0
C434 C 0.46097 0.69609 0.83207 0.0
C435 C 0.47624 0.6938 0.84685 0.0
C436 C 0.45211 0.72145 0.82923 0.0
C437 C 0.45839 0.744 0.84127 0.0
C438 C 0.46903 0.73937 0.85677 0.0
H439 H 0.53255 0.93125 0.8283 0.0
H440 H 0.50715 0.88588 0.84284 0.0
C441 C 0.47787 0.71407 0.8596 0.0
C442 C 0.46197 0.77464 0.83669 0.0
H443 H 0.51851 0.8407 0.82914 0.0
C444 C 0.43502 0.7832 0.83434 0.0
C445 C 0.49243 0.79532 0.83469 0.0
C446 C 0.52209 0.78647 0.8362 0.0
C447 C 0.4378 0.81287 0.8305 0.0
C448 C 0.46834 0.83385 0.82894 0.0
C449 C 0.49519 0.82481 0.83098 0.0
C450 C 0.47378 0.86436 0.82319 0.0
C451 C 0.40813 0.82122 0.8281 0.0
C452 C 0.46176 0.86788 0.80783 0.0
C453 C 0.47538 0.89422 0.79973 0.0
C454 C 0.50222 0.91674 0.80656 0.0
C455 C 0.5123 0.91424 0.82254 0.0
C456 C 0.49767 0.8884 0.83092 0.0
H457 H 0.38907 0.80716 0.83553 0.0
H458 H 0.4124 0.84539 0.83113 0.0
H459 H 0.3995 0.8168 0.81529 0.0
H460 H 0.4437 0.84946 0.80153 0.0
H461 H 0.46567 0.89617 0.78779 0.0
H462 H 0.92366 0.56372 0.12729 0.0
H463 H 0.86829 0.56272 0.12711 0.0
H464 H 0.87334 0.56722 0.17903 0.0
H465 H 0.92838 0.56728 0.17921 0.0
H466 H 0.81643 0.51737 0.14472 0.0
H467 H 0.83886 0.63762 0.16285 0.0
H468 H 0.86866 0.62478 0.15408 0.0
H469 H 0.85897 0.61665 0.17459 0.0
C470 C 0.91294 0.56481 0.13862 0.0
C471 C 0.93011 0.56582 0.15325 0.0
C472 C 0.88138 0.5641 0.13853 0.0
C473 C 0.86682 0.56514 0.15306 0.0
C474 C 0.88419 0.5666 0.1677 0.0
H475 H 0.67084 0.56292 0.16673 0.0
H476 H 0.72599 0.56475 0.17248 0.0
C477 C 0.91551 0.56662 0.16779 0.0
C478 C 0.83319 0.56388 0.15287 0.0
H479 H 0.78549 0.6068 0.15893 0.0
C480 C 0.80964 0.53687 0.14789 0.0
C481 C 0.8244 0.58925 0.15719 0.0
C482 C 0.84894 0.61886 0.16241 0.0
C483 C 0.77754 0.53471 0.14685 0.0
C484 C 0.7688 0.56038 0.15062 0.0
C485 C 0.79225 0.58715 0.15607 0.0
C486 C 0.73585 0.56041 0.14749 0.0
C487 C 0.75311 0.50501 0.14164 0.0
C488 C 0.72344 0.55803 0.13158 0.0
C489 C 0.69226 0.55702 0.1283 0.0
C490 C 0.67262 0.55843 0.14085 0.0
C491 C 0.68535 0.56176 0.15681 0.0
C492 C 0.71677 0.56273 0.1601 0.0
H493 H 0.76258 0.4859 0.14281 0.0
H494 H 0.73186 0.50043 0.1489 0.0
H495 H 0.7456 0.50606 0.12883 0.0
H496 H 0.73793 0.55684 0.12165 0.0
H497 H 0.68351 0.55522 0.11585 0.0
H498 H 0.34943 0.86426 0.52609 0.0
H499 H 0.30885 0.81516 0.52156 0.0
H500 H 0.30521 0.83155 0.47069 0.0
H501 H 0.34758 0.87945 0.47488 0.0
H502 H 0.25054 0.80296 0.5115 0.0
H503 H 0.30599 0.74762 0.46845 0.0
H504 H 0.32818 0.78221 0.47918 0.0
H505 H 0.30532 0.78301 0.46086 0.0
C506 C 0.34077 0.85712 0.51385 0.0
C507 C 0.35197 0.87607 0.50086 0.0
C508 C 0.31725 0.82907 0.51131 0.0
C509 C 0.30418 0.81933 0.49576 0.0
C510 C 0.31542 0.83806 0.48276 0.0
H511 H 0.14506 0.69405 0.44737 0.0
H512 H 0.19028 0.73608 0.45804 0.0
C513 C 0.33931 0.86586 0.48524 0.0
C514 C 0.27728 0.79074 0.49322 0.0
H515 H 0.24892 0.728 0.4686 0.0
C516 C 0.25042 0.78629 0.50232 0.0
C517 C 0.27715 0.76872 0.48137 0.0
C518 C 0.30589 0.7705 0.47206 0.0
C519 C 0.22286 0.76146 0.49921 0.0
C520 C 0.22218 0.74066 0.48666 0.0
C521 C 0.24943 0.74428 0.47809 0.0
C522 C 0.19286 0.71633 0.48124 0.0
C523 C 0.19422 0.75833 0.50885 0.0
C524 C 0.17892 0.6916 0.49091 0.0
C525 C 0.15279 0.66762 0.48485 0.0
C526 C 0.14074 0.66803 0.46901 0.0
C527 C 0.15416 0.69321 0.45959 0.0
C528 C 0.17993 0.71715 0.46566 0.0
H529 H 0.19732 0.77847 0.51676 0.0
H530 H 0.17293 0.75472 0.50069 0.0
H531 H 0.18986 0.73833 0.51654 0.0
H532 H 0.18884 0.6904 0.5029 0.0
H533 H 0.14288 0.64826 0.49226 0.0
H534 H 0.57156 0.37619 0.86201 0.0
H535 H 0.56728 0.32297 0.85983 0.0
H536 H 0.5635 0.32785 0.808 0.0
H537 H 0.56975 0.3807 0.81014 0.0
H538 H 0.50935 0.29475 0.8464 0.0
H539 H 0.59636 0.25977 0.81244 0.0
H540 H 0.60576 0.29724 0.82131 0.0
H541 H 0.58356 0.28758 0.80231 0.0
C542 C 0.57244 0.36637 0.85025 0.0
C543 C 0.57 0.38201 0.83625 0.0
C544 C 0.56969 0.33597 0.84899 0.0
C545 C 0.56445 0.32146 0.83376 0.0
C546 C 0.56797 0.33858 0.81986 0.0
H547 H 0.44072 0.15431 0.79562 0.0
H548 H 0.45939 0.20666 0.80574 0.0
C549 C 0.57157 0.36905 0.82113 0.0
C550 C 0.54676 0.2891 0.83235 0.0
H551 H 0.54364 0.2237 0.81308 0.0
C552 C 0.51727 0.27903 0.83946 0.0
C553 C 0.55647 0.26915 0.82265 0.0
C554 C 0.58739 0.279 0.81435 0.0
C555 C 0.49736 0.24926 0.83725 0.0
C556 C 0.50742 0.2294 0.82785 0.0
C557 C 0.53655 0.23934 0.82053 0.0
C558 C 0.4882 0.19788 0.8254 0.0
C559 C 0.46565 0.23903 0.84475 0.0
C560 C 0.49684 0.17592 0.83388 0.0
C561 C 0.48604 0.14614 0.82821 0.0
C562 C 0.46679 0.13859 0.81403 0.0
C563 C 0.45488 0.15982 0.80684 0.0
C564 C 0.46583 0.18964 0.81245 0.0
H565 H 0.46117 0.25748 0.85172 0.0
H566 H 0.44657 0.23047 0.83519 0.0
H567 H 0.46441 0.22005 0.85286 0.0
H568 H 0.51438 0.18235 0.84382 0.0
H569 H 0.49603 0.13007 0.83359 0.0
H570 H 0.49416 0.9224 0.49548 0.0
H571 H 0.49437 0.87036 0.49903 0.0
H572 H 0.59113 0.9044 0.51733 0.0
H573 H 0.59133 0.95652 0.51325 0.0
H574 H 0.53424 0.83645 0.48634 0.0
H575 H 0.54618 0.84506 0.55294 0.0
H576 H 0.53334 0.8713 0.54101 0.0
H577 H 0.57449 0.87466 0.54266 0.0
C578 C 0.5157 0.91902 0.50016 0.0
C579 C 0.5428 0.94449 0.50392 0.0
C580 C 0.51579 0.88884 0.50222 0.0
C581 C 0.54265 0.88241 0.50866 0.0
C582 C 0.56976 0.90785 0.51246 0.0
H583 H 0.58306 0.71417 0.53884 0.0
H584 H 0.58441 0.76618 0.53342 0.0
C585 C 0.56995 0.93806 0.50999 0.0
C586 C 0.54222 0.84955 0.51142 0.0
H587 H 0.54912 0.80022 0.54089 0.0
C588 C 0.5374 0.8287 0.49833 0.0
C589 C 0.54634 0.83836 0.52695 0.0
C590 C 0.55013 0.85828 0.54177 0.0
C591 C 0.53733 0.79826 0.50023 0.0
C592 C 0.54129 0.78695 0.5158 0.0
C593 C 0.54608 0.8079 0.52888 0.0
C594 C 0.54068 0.754 0.5188 0.0
C595 C 0.5341 0.77881 0.48526 0.0
C596 C 0.51566 0.72835 0.51273 0.0
C597 C 0.51482 0.69821 0.51596 0.0
C598 C 0.53907 0.69197 0.52531 0.0
C599 C 0.56408 0.7175 0.53138 0.0
C600 C 0.56474 0.74764 0.52831 0.0
H601 H 0.54124 0.7927 0.47447 0.0
H602 H 0.54872 0.76374 0.48651 0.0
H603 H 0.50899 0.76462 0.48316 0.0
H604 H 0.49608 0.73151 0.50572 0.0
H605 H 0.49481 0.67961 0.51121 0.0
H606 H 0.60769 0.49771 0.85284 0.0
H607 H 0.66354 0.50051 0.85569 0.0
H608 H 0.68647 0.56716 0.8188 0.0
H609 H 0.63141 0.56561 0.81663 0.0
H610 H 0.70324 0.4893 0.83607 0.0
H611 H 0.75011 0.6111 0.8528 0.0
H612 H 0.70834 0.59039 0.85175 0.0
H613 H 0.72852 0.6044 0.83373 0.0
C614 C 0.62473 0.51277 0.84531 0.0
C615 C 0.61539 0.53159 0.8346 0.0
C616 C 0.65662 0.51449 0.84698 0.0
C617 C 0.6795 0.53473 0.83779 0.0
C618 C 0.66966 0.55228 0.82649 0.0
H619 H 0.88142 0.55972 0.82796 0.0
H620 H 0.82634 0.55796 0.82255 0.0
C621 C 0.63809 0.55109 0.82511 0.0
C622 C 0.71351 0.53719 0.83978 0.0
H623 H 0.78816 0.58746 0.8466 0.0
C624 C 0.72172 0.51078 0.83842 0.0
C625 C 0.73781 0.56525 0.84289 0.0
C626 C 0.73074 0.59432 0.84554 0.0
C627 C 0.7534 0.51167 0.83996 0.0
C628 C 0.77753 0.53965 0.84287 0.0
C629 C 0.76953 0.56611 0.84413 0.0
C630 C 0.81093 0.54142 0.84598 0.0
C631 C 0.76103 0.48268 0.83856 0.0
C632 C 0.82043 0.5332 0.86099 0.0
C633 C 0.85171 0.53445 0.86417 0.0
C634 C 0.87428 0.54376 0.85235 0.0
C635 C 0.86475 0.5525 0.83734 0.0
C636 C 0.8333 0.55139 0.83421 0.0
H637 H 0.74028 0.4635 0.83399 0.0
H638 H 0.78073 0.48546 0.83041 0.0
H639 H 0.76889 0.477 0.8506 0.0
H640 H 0.80357 0.52585 0.87029 0.0
H641 H 0.85826 0.52837 0.87601 0.0
H642 H 0.22516 0.71237 0.14316 0.0
H643 H 0.27522 0.75437 0.14699 0.0
H644 H 0.23071 0.79983 0.17883 0.0
H645 H 0.18092 0.75856 0.17498 0.0
H646 H 0.28611 0.81966 0.14154 0.0
H647 H 0.31056 0.79476 0.20489 0.0
H648 H 0.28437 0.76682 0.19104 0.0
H649 H 0.27081 0.79464 0.20064 0.0
C650 C 0.2261 0.73136 0.15096 0.0
C651 C 0.19915 0.73196 0.15894 0.0
C652 C 0.25466 0.75526 0.15313 0.0
C653 C 0.25664 0.77993 0.16334 0.0
C654 C 0.22976 0.78069 0.17113 0.0
H655 H 0.3746 0.95064 0.19964 0.0
H656 H 0.33189 0.90569 0.18928 0.0
C657 C 0.20136 0.75698 0.16899 0.0
C658 C 0.28652 0.80527 0.16603 0.0
H659 H 0.33831 0.84427 0.19616 0.0
C660 C 0.29796 0.82484 0.15338 0.0
C661 C 0.30187 0.81181 0.18149 0.0
C662 C 0.29151 0.79077 0.19528 0.0
C663 C 0.32344 0.85175 0.15609 0.0
C664 C 0.3376 0.85895 0.17176 0.0
C665 C 0.32705 0.83873 0.1842 0.0
C666 C 0.3626 0.88788 0.17586 0.0
C667 C 0.33424 0.873 0.14245 0.0
C668 C 0.39378 0.89273 0.17154 0.0
C669 C 0.41813 0.91818 0.17757 0.0
C670 C 0.41141 0.9391 0.18781 0.0
C671 C 0.38007 0.93489 0.19157 0.0
C672 C 0.35581 0.90931 0.1857 0.0
H673 H 0.31894 0.86537 0.1313 0.0
H674 H 0.33436 0.89597 0.146 0.0
H675 H 0.35884 0.87466 0.13978 0.0
H676 H 0.39943 0.87621 0.16411 0.0
H677 H 0.4423 0.92106 0.17468 0.0
H678 H 0.48102 0.12552 0.5069 0.0
H679 H 0.4812 0.17786 0.50996 0.0
H680 H 0.58302 0.20906 0.51193 0.0
H681 H 0.58282 0.15717 0.50818 0.0
H682 H 0.49656 0.22123 0.53046 0.0
H683 H 0.5763 0.26997 0.48213 0.0
H684 H 0.56127 0.22985 0.48488 0.0
H685 H 0.59567 0.25308 0.4966 0.0
C686 C 0.50358 0.14345 0.5078 0.0
C687 C 0.5319 0.13618 0.50704 0.0
C688 C 0.50369 0.17389 0.50963 0.0
C689 C 0.53212 0.19886 0.51081 0.0
C690 C 0.56039 0.19139 0.51043 0.0
H691 H 0.58583 0.39731 0.5324 0.0
H692 H 0.58326 0.34494 0.52759 0.0
C693 C 0.56028 0.16107 0.50843 0.0
C694 C 0.53219 0.23205 0.51287 0.0
H695 H 0.56758 0.30538 0.50072 0.0
C696 C 0.51202 0.23935 0.52374 0.0
C697 C 0.55189 0.2569 0.50428 0.0
C698 C 0.57221 0.25205 0.4912 0.0
C699 C 0.51171 0.26954 0.52653 0.0
C700 C 0.53204 0.29436 0.51828 0.0
C701 C 0.55201 0.28714 0.50733 0.0
C702 C 0.53326 0.32763 0.521 0.0
C703 C 0.49004 0.27469 0.5388 0.0
C704 C 0.50633 0.33709 0.51876 0.0
C705 C 0.50771 0.36769 0.52154 0.0
C706 C 0.5361 0.39066 0.52682 0.0
C707 C 0.56312 0.3811 0.52874 0.0
C708 C 0.56176 0.35062 0.52582 0.0
H709 H 0.48154 0.2552 0.54682 0.0
H710 H 0.50216 0.29529 0.54633 0.0
H711 H 0.46908 0.27793 0.53247 0.0
H712 H 0.48393 0.32075 0.51472 0.0
H713 H 0.48608 0.37311 0.51981 0.0
H714 H 0.40585 0.50397 0.84548 0.0
H715 H 0.35235 0.50603 0.84817 0.0
H716 H 0.38072 0.59533 0.82887 0.0
H717 H 0.43486 0.59375 0.82648 0.0
H718 H 0.3355 0.55642 0.8659 0.0
H719 H 0.2983 0.53751 0.80081 0.0
H720 H 0.32985 0.52576 0.80971 0.0
H721 H 0.33641 0.56493 0.80611 0.0
C722 C 0.40073 0.52405 0.84175 0.0
C723 C 0.4245 0.54863 0.83563 0.0
C724 C 0.37016 0.52519 0.84335 0.0
C725 C 0.36252 0.55067 0.83858 0.0
C726 C 0.38616 0.57537 0.83253 0.0
H727 H 0.1902 0.59804 0.83949 0.0
H728 H 0.24294 0.59504 0.83455 0.0
C729 C 0.41703 0.57449 0.83121 0.0
C730 C 0.32981 0.55132 0.8401 0.0
H731 H 0.26163 0.54613 0.81826 0.0
C732 C 0.31933 0.55421 0.8555 0.0
C733 C 0.30875 0.54813 0.82651 0.0
C734 C 0.31861 0.54371 0.80981 0.0
C735 C 0.28844 0.55453 0.85766 0.0
C736 C 0.26738 0.55146 0.84406 0.0
C737 C 0.27784 0.54851 0.82865 0.0
C738 C 0.23458 0.55182 0.8457 0.0
C739 C 0.27865 0.55863 0.87444 0.0
C740 C 0.21215 0.5281 0.85315 0.0
C741 C 0.18195 0.52957 0.85571 0.0
C742 C 0.17385 0.55491 0.851 0.0
C743 C 0.19598 0.57826 0.84317 0.0
C744 C 0.22601 0.57657 0.84037 0.0
H745 H 0.29927 0.56641 0.88321 0.0
H746 H 0.26566 0.57521 0.87458 0.0
H747 H 0.26252 0.53676 0.87846 0.0
H748 H 0.21824 0.50873 0.85727 0.0
H749 H 0.16533 0.51147 0.86193 0.0
H750 H 0.87028 0.34853 0.1493 0.0
H751 H 0.82309 0.30531 0.15299 0.0
H752 H 0.77762 0.36393 0.17412 0.0
H753 H 0.82477 0.40766 0.17023 0.0
H754 H 0.80056 0.29176 0.18547 0.0
H755 H 0.70918 0.30536 0.14144 0.0
H756 H 0.75109 0.32269 0.13895 0.0
H757 H 0.73159 0.33823 0.15341 0.0
C758 C 0.84994 0.35246 0.15429 0.0
C759 C 0.85127 0.38156 0.15947 0.0
C760 C 0.82308 0.32768 0.15647 0.0
C761 C 0.79693 0.33153 0.16373 0.0
C762 C 0.79751 0.36063 0.16832 0.0
H763 H 0.6256 0.2109 0.20002 0.0
H764 H 0.6677 0.25361 0.19014 0.0
C765 C 0.82451 0.3855 0.16621 0.0
C766 C 0.77066 0.30472 0.16807 0.0
H767 H 0.69237 0.26625 0.16011 0.0
C768 C 0.77691 0.28602 0.17988 0.0
C769 C 0.73994 0.2976 0.16079 0.0
C770 C 0.73238 0.31684 0.14785 0.0
C771 C 0.75304 0.26049 0.18484 0.0
C772 C 0.72229 0.25315 0.17748 0.0
C773 C 0.71604 0.27187 0.16564 0.0
C774 C 0.69605 0.2268 0.18244 0.0
C775 C 0.76077 0.24219 0.19826 0.0
C776 C 0.69773 0.19748 0.18104 0.0
C777 C 0.67395 0.17302 0.18694 0.0
C778 C 0.6479 0.17748 0.19417 0.0
C779 C 0.64568 0.20676 0.19486 0.0
C780 C 0.66955 0.23117 0.18908 0.0
H781 H 0.78295 0.25498 0.20522 0.0
H782 H 0.74127 0.23514 0.20669 0.0
H783 H 0.76402 0.22154 0.19304 0.0
H784 H 0.71773 0.19358 0.17565 0.0
H785 H 0.67648 0.15083 0.18626 0.0
H786 H 0.06609 0.53274 0.10574 0.0
H787 H 0.06965 0.54034 0.07677 0.0
H788 H 0.99161 0.57547 0.07689 0.0
H789 H 0.98888 0.569 0.10611 0.0
H790 H 0.02486 0.51194 0.05472 0.0
H791 H 0.0508 0.63538 0.04886 0.0
H792 H 0.05484 0.61848 0.06788 0.0
H793 H 1.01649 0.61775 0.06002 0.0
C794 C 0.05 0.54249 0.09961 0.0
C795 C 0.02707 0.55009 0.10808 0.0
C796 C 0.05207 0.54686 0.08307 0.0
C797 C 0.03102 0.55861 0.07462 0.0
C798 C 1.00857 0.56698 0.08317 0.0
H799 H 0.98493 0.5626 0.97217 0.0
H800 H 0.98486 0.56308 0.00167 0.0
C801 C 1.00686 0.56309 0.09983 0.0
C802 C 0.031 0.55945 0.05676 0.0
H803 H 0.03651 0.60543 0.02462 0.0
C804 C 0.02763 0.53246 0.04817 0.0
C805 C 0.03448 0.5862 0.04819 0.0
C806 C 0.03966 0.61616 0.0567 0.0
C807 C 0.02746 0.53143 0.03131 0.0
C808 C 0.03079 0.55807 0.02278 0.0
C809 C 0.03393 0.58504 0.03126 0.0
C810 C 0.03115 0.55825 0.005 0.0
C811 C 0.02337 0.5018 0.02266 0.0
C812 C 0.0573 0.55551 -0.00281 0.0
C813 C 0.05747 0.55535 0.98037 0.0
C814 C 0.03137 0.55771 0.97111 0.0
C815 C 1.00522 0.56046 0.979 0.0
C816 C 1.00522 0.56092 0.99582 0.0
H817 H 1.01609 0.48239 0.03082 0.0
H818 H 1.0054 0.49795 0.01252 0.0
H819 H 0.0461 0.50253 0.01755 0.0
H820 H 0.07756 0.55349 0.00411 0.0
H821 H 0.07781 0.55296 0.97461 0.0
H822 H 0.5745 0.05509 0.45858 0.0
H823 H 0.58672 0.06504 0.43015 0.0
H824 H 0.48792 0.02375 0.4161 0.0
H825 H 0.47566 1.01393 0.44416 0.0
H826 H 0.57163 1.0214 0.40277 0.0
H827 H 0.51326 0.10874 0.39607 0.0
H828 H 0.52564 0.09815 0.41544 0.0
H829 H 0.48928 0.07516 0.40535 0.0
C830 C 0.55553 0.04807 0.44937 0.0
C831 C 0.52415 0.03389 0.45353 0.0
C832 C 0.56249 0.05381 0.43321 0.0
C833 C 0.53808 0.0456 0.42113 0.0
C834 C 0.50696 0.03079 0.42529 0.0
H835 H 0.49423 1.02258 0.32114 0.0
H836 H 0.49802 1.02327 0.35069 0.0
C837 C 0.50004 0.02505 0.44132 0.0
C838 C 0.5445 0.05176 0.40403 0.0
H839 H 0.52125 0.08488 0.37163 0.0
C840 C 0.56127 0.03578 0.39598 0.0
C841 C 0.53092 0.07058 0.39528 0.0
C842 C 0.51402 0.08938 0.40349 0.0
C843 C 0.56314 0.03674 0.37917 0.0
C844 C 0.548 0.0542 0.37037 0.0
C845 C 0.53258 0.07133 0.37849 0.0
C846 C 0.54628 0.05356 0.35262 0.0
C847 C 0.57989 1.01804 0.37078 0.0
C848 C 0.57216 0.0705 0.34409 0.0
C849 C 0.56994 0.07036 0.32727 0.0
C850 C 0.54192 0.05303 0.31881 0.0
C851 C 0.51615 0.03588 0.32741 0.0
C852 C 0.51825 0.03634 0.34422 0.0
H853 H 0.58908 1.00442 0.3793 0.0
H854 H 0.56348 1.00261 0.36164 0.0
H855 H 0.6 0.03311 0.36434 0.0
H856 H 0.59391 0.08396 0.35045 0.0
H857 H 0.59017 0.08361 0.32086 0.0
H858 H 0.53258 0.59861 0.77698 0.0
H859 H 0.53303 0.59091 0.74803 0.0
H860 H 0.51309 0.49545 0.7544 0.0
H861 H 0.51217 0.50311 0.78378 0.0
H862 H 0.5723 0.5707 0.73109 0.0
H863 H 0.44921 0.49489 0.71802 0.0
H864 H 0.46167 0.51546 0.73696 0.0
H865 H 0.47155 0.48188 0.73301 0.0
C866 C 0.52795 0.57581 0.77231 0.0
C867 C 0.52223 0.55148 0.78286 0.0
C868 C 0.52831 0.57146 0.75563 0.0
C869 C 0.5229 0.54258 0.74876 0.0
C870 C 0.51678 0.51797 0.75921 0.0
H871 H 0.52925 0.49283 0.64592 0.0
H872 H 0.52734 0.49193 0.67538 0.0
C873 C 0.51634 0.52235 0.77607 0.0
C874 C 0.52496 0.53915 0.73078 0.0
H875 H 0.48261 0.50648 0.69609 0.0
C876 C 0.55262 0.55655 0.7235 0.0
C877 C 0.49948 0.5207 0.72066 0.0
C878 C 0.46866 0.50232 0.72747 0.0
C879 C 0.55541 0.55625 0.70664 0.0
C880 C 0.52973 0.53835 0.6965 0.0
C881 C 0.50234 0.52032 0.70375 0.0
C882 C 0.5307 0.5388 0.6784 0.0
C883 C 0.58604 0.57501 0.69978 0.0
C884 C 0.53299 0.56533 0.67005 0.0
C885 C 0.53399 0.56592 0.65315 0.0
C886 C 0.53289 0.53999 0.644 0.0
C887 C 0.53055 0.5134 0.65243 0.0
C888 C 0.52923 0.51277 0.66934 0.0
H889 H 0.60578 0.58172 0.7091 0.0
H890 H 0.59259 0.56246 0.68985 0.0
H891 H 0.58312 0.59587 0.6948 0.0
H892 H 0.53385 0.58571 0.67662 0.0
H893 H 0.53606 0.58692 0.64725 0.0
H894 H 0.55436 0.99452 0.55075 0.0
H895 H 0.53827 0.98846 0.5786 0.0
H896 H 0.49854 0.06069 0.57331 0.0
H897 H 0.51331 0.06589 0.54534 0.0
H898 H 0.56615 0.0375 0.59854 0.0
H899 H 0.43532 1.00244 0.60086 0.0
H900 H 0.45479 0.99702 0.58304 0.0
H901 H 0.45168 0.03343 0.5879 0.0
C902 C 0.5414 1.00843 0.55549 0.0
C903 C 0.53541 0.03095 0.54628 0.0
C904 C 0.53207 1.00484 0.57123 0.0
C905 C 0.51718 0.02405 0.5778 0.0
C906 C 0.50935 0.04523 0.56824 0.0
H907 H 0.49989 0.08197 0.67432 0.0
H908 H 0.50515 0.07947 0.64513 0.0
C909 C 0.5181 0.0484 0.55239 0.0
C910 C 0.51544 0.02599 0.5952 0.0
H911 H 0.46543 0.02366 0.62513 0.0
C912 C 0.5441 0.03407 0.60441 0.0
C913 C 0.48666 1.02213 0.60257 0.0
C914 C 0.45533 1.01302 0.59309 0.0
C915 C 0.54473 0.03848 0.62101 0.0
C916 C 0.51598 0.03457 0.62833 0.0
C917 C 0.48733 0.02668 0.61919 0.0
C918 C 0.51496 0.03719 0.64566 0.0
C919 C 0.57596 0.04755 0.6306 0.0
C920 C 0.51902 1.01423 0.65519 0.0
C921 C 0.51601 1.01555 0.67166 0.0
C922 C 0.50885 0.03982 0.67862 0.0
C923 C 0.50547 0.06314 0.66906 0.0
C924 C 0.50837 0.06173 0.65255 0.0
H925 H 0.59642 0.0548 0.62274 0.0
H926 H 0.5776 0.06623 0.6393 0.0
H927 H 0.57767 0.02804 0.63758 0.0
H928 H 0.52399 0.99514 0.64983 0.0
H929 H 0.51913 0.9976 0.67895 0.0
H930 H 0.49311 0.48408 0.88997 0.0
H931 H 0.49547 0.49496 0.91881 0.0
H932 H 0.53874 0.58984 0.91055 0.0
H933 H 0.53606 0.57901 0.88135 0.0
H934 H 0.5495 0.5219 0.93875 0.0
H935 H 0.46658 0.58824 0.94034 0.0
H936 H 0.46779 0.56468 0.92319 0.0
H937 H 0.49803 0.60059 0.92666 0.0
C938 C 0.50312 0.50735 0.8942 0.0
C939 C 0.51455 0.53067 0.88324 0.0
C940 C 0.50442 0.51352 0.91077 0.0
C941 C 0.51705 0.54322 0.91695 0.0
C942 C 0.52843 0.56674 0.9061 0.0
H943 H 0.5385 0.60716 0.01827 0.0
H944 H 0.53888 0.60457 0.98879 0.0
C945 C 0.52712 0.56053 0.88939 0.0
C946 C 0.51912 0.54886 0.9348 0.0
H947 H 0.49058 0.58128 0.96511 0.0
C948 C 0.5367 0.53501 0.94448 0.0
C949 C 0.50251 0.566 0.94236 0.0
C950 C 0.48243 0.58061 0.93268 0.0
C951 C 0.53803 0.53766 0.9614 0.0
C952 C 0.52074 0.55411 0.96899 0.0
C953 C 0.50374 0.56858 0.95933 0.0
C954 C 0.51949 0.55585 0.9869 0.0
C955 C 0.55825 0.52303 0.97101 0.0
C956 C 0.50787 0.52941 0.9957 0.0
C957 C 0.50771 0.53082 0.01253 0.0
C958 C 0.51883 0.55875 0.021 0.0
C959 C 0.52961 0.58529 0.01214 0.0
C960 C 0.52992 0.58384 0.99528 0.0
H961 H 0.57667 0.51897 0.96363 0.0
H962 H 0.57003 0.5372 0.98174 0.0
H963 H 0.54308 0.50087 0.97519 0.0
H964 H 0.49887 0.50758 0.98954 0.0
H965 H 0.49866 0.51 0.01893 0.0
H966 H 0.07023 0.5564 0.20532 0.0
H967 H 0.0679 0.54839 0.23451 0.0
H968 H 0.97608 0.55993 0.23374 0.0
H969 H 0.97884 0.56901 0.20472 0.0
H970 H 0.05532 0.59609 0.25737 0.0
H971 H 0.97202 0.47864 0.25975 0.0
H972 H 0.99571 0.49223 0.24264 0.0
H973 H 0.96175 0.50356 0.24582 0.0
C974 C 0.04945 0.55687 0.21139 0.0
C975 C 0.02482 0.56355 0.2029 0.0
C976 C 0.04814 0.55233 0.22801 0.0
C977 C 0.02177 0.55348 0.23621 0.0
C978 C 0.99658 0.55888 0.22759 0.0
H979 H 0.97443 0.55785 0.33603 0.0
H980 H 0.97508 0.55816 0.30664 0.0
C981 C 0.99823 0.56419 0.21108 0.0
C982 C 0.02154 0.55149 0.25397 0.0
H983 H 0.9867 0.50636 0.28451 0.0
C984 C 0.04051 0.57642 0.26333 0.0
C985 C 1.00201 0.52586 0.26163 0.0
C986 C 0.98178 0.49838 0.25202 0.0
C987 C 0.04013 0.57653 0.28021 0.0
C988 C 0.02054 0.55095 0.28788 0.0
C989 C 1.00164 0.52595 0.27854 0.0
C990 C 0.01972 0.54982 0.30564 0.0
C991 C 0.06018 0.60414 0.2898 0.0
C992 C 0.04448 0.54472 0.31476 0.0
C993 C 0.04397 0.54394 0.33156 0.0
C994 C 0.01879 0.54859 0.33963 0.0
C995 C 0.99396 0.55367 0.33034 0.0
C996 C 0.99435 0.55408 0.31351 0.0
H997 H 0.07124 0.62342 0.28198 0.0
H998 H 0.04559 0.61115 0.29852 0.0
H999 H 0.07921 0.59867 0.2968 0.0
H1000 H 0.06419 0.54123 0.30886 0.0
H1001 H 0.06322 0.53936 0.33817 0.0
loop_
_geom_bond_atom_site_label_1
_geom_bond_atom_site_label_2
_geom_bond_distance
_geom_bond_site_symmetry_2
_ccdc_geom_bond_type
Pr0 C2 2.880 . S
Pr0 O20 2.562 . S
Pr0 O21 2.490 . S
Pr0 O22 2.695 1_655 S
Pr0 O23 2.512 . S
Pr0 O25 2.437 . S
Pr0 O28 2.434 . S
Pr0 O30 2.438 1_655 S
Pr1 C11 2.880 . S
Pr1 O22 2.436 . S
Pr1 O24 2.438 1_455 S
Pr1 O26 2.562 . S
Pr1 O27 2.490 . S
Pr1 O28 2.694 1_455 S
Pr1 O29 2.512 . S
Pr1 O31 2.437 . S
C2 Pr0 2.880 . S
C2 C3 1.491 . S
C2 O20 1.254 . S
C2 O21 1.225 . S
C3 C2 1.491 . S
C3 C4 1.392 . S
C3 C8 1.356 . S
C4 C3 1.392 . S
C4 C5 1.368 . S
C4 H32 0.929 . S
C5 C4 1.368 . S
C5 C6 1.386 . S
C5 H33 0.929 . S
C6 C5 1.386 . S
C6 C7 1.373 . S
C7 C6 1.373 . S
C7 C8 1.409 . S
C7 H34 0.931 . S
C8 C3 1.356 . S
C8 C7 1.409 . S
C8 H35 0.930 . S
C9 O22 1.270 . S
C9 O23 1.248 1_455 S
C10 O24 1.267 . S
C10 O25 1.278 . S
C11 Pr1 2.880 . S
C11 C12 1.491 . S
C11 O26 1.254 . S
C11 O27 1.225 . S
C12 C11 1.491 . S
C12 C13 1.392 . S
C12 C17 1.356 . S
C13 C12 1.392 . S
C13 C14 1.368 . S
C13 H36 0.929 . S
C14 C13 1.368 . S
C14 C15 1.386 . S
C14 H37 0.929 . S
C15 C14 1.386 . S
C15 C16 1.373 . S
C16 C15 1.373 . S
C16 C17 1.409 . S
C16 H38 0.931 . S
C17 C12 1.356 . S
C17 C16 1.409 . S
C17 H39 0.930 . S
C18 O28 1.269 1_455 S
C18 O29 1.248 . S
C19 O30 1.267 . S
C19 O31 1.278 . S
O20 Pr0 2.562 . S
O20 C2 1.254 . S
O21 Pr0 2.490 . S
O21 C2 1.225 . S
O22 Pr0 2.695 1_455 S
O22 Pr1 2.436 . S
O22 C9 1.270 . S
O23 Pr0 2.512 . S
O23 C9 1.248 1_655 S
O24 Pr1 2.438 1_655 S
O24 C10 1.267 . S
O25 Pr0 2.437 . S
O25 C10 1.278 . S
O26 Pr1 2.562 . S
O26 C11 1.254 . S
O27 Pr1 2.490 . S
O27 C11 1.225 . S
O28 Pr0 2.434 . S
O28 Pr1 2.694 1_655 S
O28 C18 1.269 1_655 S
O29 Pr1 2.512 . S
O29 C18 1.248 . S
O30 Pr0 2.438 1_455 S
O30 C19 1.267 . S
O31 Pr1 2.437 . S
O31 C19 1.278 . S
H32 C4 0.929 . S
H33 C5 0.929 . S
H34 C7 0.931 . S
H35 C8 0.930 . S
H36 C13 0.929 . S
H37 C14 0.929 . S
H38 C16 0.931 . S
H39 C17 0.930 . S
Pr40 C42 2.880 . S
Pr40 O60 2.562 . S
Pr40 O61 2.490 . S
Pr40 O62 2.695 . S
Pr40 O63 2.512 . S
Pr40 O65 2.437 . S
Pr40 O68 2.436 . S
Pr40 O70 2.438 1_545 S
Pr41 C51 2.880 1_545 S
Pr41 O62 2.436 . S
Pr41 O64 2.438 . S
Pr41 O66 2.562 1_545 S
Pr41 O67 2.490 1_545 S
Pr41 O68 2.695 . S
Pr41 O69 2.512 . S
Pr41 O71 2.437 1_545 S
C42 Pr40 2.880 . S
C42 C43 1.491 . S
C42 O60 1.254 . S
C42 O61 1.225 . S
C43 C42 1.491 . S
C43 C44 1.392 . S
C43 C48 1.356 . S
C44 C43 1.392 . S
C44 C45 1.368 . S
C44 H72 0.929 . S
C45 C44 1.368 . S
C45 C46 1.386 . S
C45 H73 0.929 . S
C46 C45 1.386 . S
C46 C47 1.373 . S
C47 C46 1.373 . S
C47 C48 1.409 . S
C47 H74 0.931 . S
C48 C43 1.356 . S
C48 C47 1.409 . S
C48 H75 0.930 . S
C49 O62 1.270 . S
C49 O63 1.248 . S
C50 O64 1.267 . S
C50 O65 1.278 . S
C51 Pr41 2.880 1_565 S
C51 C52 1.491 . S
C51 O66 1.254 . S
C51 O67 1.225 . S
C52 C51 1.491 . S
C52 C53 1.392 . S
C52 C57 1.356 . S
C53 C52 1.392 . S
C53 C54 1.368 . S
C53 H76 0.929 . S
C54 C53 1.368 . S
C54 C55 1.386 . S
C54 H77 0.929 . S
C55 C54 1.386 . S
C55 C56 1.373 . S
C56 C55 1.373 . S
C56 C57 1.409 . S
C56 H78 0.931 . S
C57 C52 1.356 . S
C57 C56 1.409 . S
C57 H79 0.930 . S
C58 O68 1.270 . S
C58 O69 1.248 . S
C59 O70 1.267 . S
C59 O71 1.278 . S
O60 Pr40 2.562 . S
O60 C42 1.254 . S
O61 Pr40 2.490 . S
O61 C42 1.225 . S
O62 Pr40 2.695 . S
O62 Pr41 2.436 . S
O62 C49 1.270 . S
O63 Pr40 2.512 . S
O63 C49 1.248 . S
O64 Pr41 2.438 . S
O64 C50 1.267 . S
O65 Pr40 2.437 . S
O65 C50 1.278 . S
O66 Pr41 2.562 1_565 S
O66 C51 1.254 . S
O67 Pr41 2.490 1_565 S
O67 C51 1.225 . S
O68 Pr40 2.436 . S
O68 Pr41 2.695 . S
O68 C58 1.270 . S
O69 Pr41 2.512 . S
O69 C58 1.248 . S
O70 Pr40 2.438 1_565 S
O70 C59 1.267 . S
O71 Pr41 2.437 1_565 S
O71 C59 1.278 . S
H72 C44 0.929 . S
H73 C45 0.929 . S
H74 C47 0.931 . S
H75 C48 0.930 . S
H76 C53 0.929 . S
H77 C54 0.929 . S
H78 C56 0.931 . S
H79 C57 0.930 . S
Pr80 C82 2.880 . S
Pr80 O100 2.562 . S
Pr80 O101 2.490 . S
Pr80 O102 2.695 . S
Pr80 O103 2.512 . S
Pr80 O105 2.437 . S
Pr80 O108 2.436 . S
Pr80 O110 2.438 . S
Pr81 C91 2.880 . S
Pr81 O102 2.436 . S
Pr81 O104 2.438 . S
Pr81 O106 2.562 . S
Pr81 O107 2.490 . S
Pr81 O108 2.695 . S
Pr81 O109 2.512 . S
Pr81 O111 2.437 . S
C82 Pr80 2.880 . S
C82 C83 1.491 . S
C82 O100 1.254 . S
C82 O101 1.225 . S
C83 C82 1.491 . S
C83 C84 1.392 . S
C83 C88 1.356 . S
C84 C83 1.392 . S
C84 C85 1.368 . S
C84 H112 0.929 . S
C85 C84 1.368 . S
C85 C86 1.386 . S
C85 H113 0.929 . S
C86 C85 1.386 . S
C86 C87 1.373 . S
C87 C86 1.373 . S
C87 C88 1.409 . S
C87 H114 0.931 . S
C88 C83 1.356 . S
C88 C87 1.409 . S
C88 H115 0.930 . S
C89 O102 1.270 . S
C89 O103 1.248 . S
C90 O104 1.267 . S
C90 O105 1.278 . S
C91 Pr81 2.880 . S
C91 C92 1.491 . S
C91 O106 1.254 . S
C91 O107 1.225 . S
C92 C91 1.491 . S
C92 C93 1.392 . S
C92 C97 1.356 . S
C93 C92 1.392 . S
C93 C94 1.368 . S
C93 H116 0.929 . S
C94 C93 1.368 . S
C94 C95 1.386 . S
C94 H117 0.929 . S
C95 C94 1.386 . S
C95 C96 1.373 . S
C96 C95 1.373 . S
C96 C97 1.409 . S
C96 H118 0.931 . S
C97 C92 1.356 . S
C97 C96 1.409 . S
C97 H119 0.930 . S
C98 O108 1.270 . S
C98 O109 1.248 . S
C99 O110 1.267 . S
C99 O111 1.278 . S
O100 Pr80 2.562 . S
O100 C82 1.254 . S
O101 Pr80 2.490 . S
O101 C82 1.225 . S
O102 Pr80 2.695 . S
O102 Pr81 2.436 . S
O102 C89 1.270 . S
O103 Pr80 2.512 . S
O103 C89 1.248 . S
O104 Pr81 2.438 . S
O104 C90 1.267 . S
O105 Pr80 2.437 . S
O105 C90 1.278 . S
O106 Pr81 2.562 . S
O106 C91 1.254 . S
O107 Pr81 2.490 . S
O107 C91 1.225 . S
O108 Pr80 2.436 . S
O108 Pr81 2.695 . S
O108 C98 1.270 . S
O109 Pr81 2.512 . S
O109 C98 1.248 . S
O110 Pr80 2.438 . S
O110 C99 1.267 . S
O111 Pr81 2.437 . S
O111 C99 1.278 . S
H112 C84 0.929 . S
H113 C85 0.929 . S
H114 C87 0.931 . S
H115 C88 0.930 . S
H116 C93 0.929 . S
H117 C94 0.929 . S
H118 C96 0.931 . S
H119 C97 0.930 . S
C120 C121 1.386 . S
C120 C122 1.397 . S
C120 H144 0.931 . S
C121 C120 1.386 . S
C121 C125 1.397 . S
C122 C120 1.397 . S
C122 C123 1.384 . S
C122 H145 0.930 . S
C123 C122 1.384 . S
C123 C124 1.377 . S
C123 C126 1.481 . S
C124 C123 1.377 . S
C124 C125 1.389 . S
C124 H146 0.929 1_545 S
C125 C121 1.397 . S
C125 C124 1.389 . S
C125 H147 0.931 1_545 S
C126 C123 1.481 . S
C126 C127 1.387 . S
C126 C131 1.390 . S
C127 C126 1.387 . S
C127 C128 1.401 . S
C127 H148 0.930 . S
C128 C127 1.401 . S
C128 C129 1.376 . S
C128 C137 1.511 . S
C129 C128 1.376 . S
C129 C130 1.392 . S
C129 H150 0.931 . S
C130 C129 1.392 . S
C130 C131 1.361 . S
C130 C132 1.500 1_545 S
C131 C126 1.390 . S
C131 C130 1.361 . S
C131 H149 0.931 1_545 S
C132 C130 1.500 1_565 S
C132 C133 1.371 . S
C132 C134 1.365 . S
C133 C132 1.371 . S
C133 C143 1.386 . S
C133 H151 0.931 1_565 S
C134 C132 1.365 . S
C134 C135 1.409 . S
C134 H152 0.929 . S
C135 C134 1.409 . S
C135 C136 1.380 . S
C135 H153 0.930 . S
C136 C135 1.380 . S
C136 C143 1.357 . S
C137 C128 1.511 . S
C137 C138 1.341 . S
C137 C139 1.371 . S
C138 C137 1.341 . S
C138 C142 1.394 . S
C138 H154 0.930 . S
C139 C137 1.371 . S
C139 C140 1.392 . S
C139 H155 0.931 . S
C140 C139 1.392 . S
C140 C141 1.331 . S
C140 H158 0.932 . S
C141 C140 1.331 . S
C141 C142 1.336 . S
C142 C138 1.394 . S
C142 C141 1.336 . S
C142 H157 0.929 . S
C143 C133 1.386 . S
C143 C136 1.357 . S
C143 H156 0.928 . S
H144 C120 0.931 . S
H145 C122 0.930 . S
H146 C124 0.929 1_565 S
H147 C125 0.931 1_565 S
H148 C127 0.930 . S
H149 C131 0.931 1_565 S
H150 C129 0.931 . S
H151 C133 0.931 1_545 S
H152 C134 0.929 . S
H153 C135 0.930 . S
H154 C138 0.930 . S
H155 C139 0.931 . S
H156 C143 0.928 . S
H157 C142 0.929 . S
H158 C140 0.932 . S
C159 C160 1.386 . S
C159 C161 1.397 . S
C159 H183 0.931 . S
C160 C159 1.386 . S
C160 C164 1.397 . S
C161 C159 1.397 . S
C161 C162 1.384 . S
C161 H184 0.930 . S
C162 C161 1.384 . S
C162 C163 1.377 . S
C162 C165 1.481 . S
C163 C162 1.377 . S
C163 C164 1.389 . S
C163 H185 0.929 . S
C164 C160 1.397 . S
C164 C163 1.389 . S
C164 H186 0.931 . S
C165 C162 1.481 . S
C165 C166 1.387 . S
C165 C170 1.390 . S
C166 C165 1.387 . S
C166 C167 1.401 . S
C166 H187 0.930 . S
C167 C166 1.401 . S
C167 C168 1.376 . S
C167 C176 1.511 . S
C168 C167 1.376 . S
C168 C169 1.392 . S
C168 H189 0.931 . S
C169 C168 1.392 . S
C169 C170 1.361 . S
C169 C171 1.500 . S
C170 C165 1.390 . S
C170 C169 1.361 . S
C170 H188 0.931 . S
C171 C169 1.500 . S
C171 C172 1.371 . S
C171 C173 1.365 . S
C172 C171 1.371 . S
C172 C182 1.386 . S
C172 H190 0.931 . S
C173 C171 1.365 . S
C173 C174 1.409 . S
C173 H191 0.929 . S
C174 C173 1.409 . S
C174 C175 1.380 . S
C174 H192 0.930 . S
C175 C174 1.380 . S
C175 C182 1.357 . S
C176 C167 1.511 . S
C176 C177 1.341 . S
C176 C178 1.371 . S
C177 C176 1.341 . S
C177 C181 1.394 . S
C177 H193 0.930 . S
C178 C176 1.371 . S
C178 C179 1.392 . S
C178 H194 0.931 . S
C179 C178 1.392 . S
C179 C180 1.331 . S
C179 H197 0.932 . S
C180 C179 1.331 . S
C180 C181 1.336 . S
C181 C177 1.394 . S
C181 C180 1.336 . S
C181 H196 0.929 . S
C182 C172 1.386 . S
C182 C175 1.357 . S
C182 H195 0.928 . S
H183 C159 0.931 . S
H184 C161 0.930 . S
H185 C163 0.929 . S
H186 C164 0.931 . S
H187 C166 0.930 . S
H188 C170 0.931 . S
H189 C168 0.931 . S
H190 C172 0.931 . S
H191 C173 0.929 . S
H192 C174 0.930 . S
H193 C177 0.930 . S
H194 C178 0.931 . S
H195 C182 0.928 . S
H196 C181 0.929 . S
H197 C179 0.932 . S
C198 C199 1.386 . S
C198 C200 1.397 . S
C198 H222 0.931 . S
C199 C198 1.386 . S
C199 C203 1.397 1_455 S
C200 C198 1.397 . S
C200 C201 1.384 . S
C200 H223 0.930 . S
C201 C200 1.384 . S
C201 C202 1.377 1_455 S
C201 C204 1.481 . S
C202 C201 1.377 1_655 S
C202 C203 1.389 . S
C202 H224 0.929 . S
C203 C199 1.397 1_655 S
C203 C202 1.389 . S
C203 H225 0.931 . S
C204 C201 1.481 . S
C204 C205 1.387 . S
C204 C209 1.390 1_455 S
C205 C204 1.387 . S
C205 C206 1.401 . S
C205 H226 0.930 . S
C206 C205 1.401 . S
C206 C207 1.376 . S
C206 C215 1.511 . S
C207 C206 1.376 . S
C207 C208 1.392 1_455 S
C207 H228 0.931 . S
C208 C207 1.392 1_655 S
C208 C209 1.361 . S
C208 C210 1.500 . S
C209 C204 1.390 1_655 S
C209 C208 1.361 . S
C209 H227 0.931 . S
C210 C208 1.500 . S
C210 C211 1.371 . S
C210 C212 1.365 . S
C211 C210 1.371 . S
C211 C221 1.386 . S
C211 H229 0.931 . S
C212 C210 1.365 . S
C212 C213 1.409 . S
C212 H230 0.929 . S
C213 C212 1.409 . S
C213 C214 1.380 . S
C213 H231 0.930 . S
C214 C213 1.380 . S
C214 C221 1.357 . S
C215 C206 1.511 . S
C215 C216 1.341 . S
C215 C217 1.371 . S
C216 C215 1.341 . S
C216 C220 1.394 . S
C216 H232 0.930 . S
C217 C215 1.371 . S
C217 C218 1.392 . S
C217 H233 0.931 . S
C218 C217 1.392 . S
C218 C219 1.331 . S
C218 H236 0.932 . S
C219 C218 1.331 . S
C219 C220 1.336 . S
C220 C216 1.394 . S
C220 C219 1.336 . S
C220 H235 0.929 . S
C221 C211 1.386 . S
C221 C214 1.357 . S
C221 H234 0.928 . S
H222 C198 0.931 . S
H223 C200 0.930 . S
H224 C202 0.929 . S
H225 C203 0.931 . S
H226 C205 0.930 . S
H227 C209 0.931 . S
H228 C207 0.931 . S
H229 C211 0.931 . S
H230 C212 0.929 . S
H231 C213 0.930 . S
H232 C216 0.930 . S
H233 C217 0.931 . S
H234 C221 0.928 . S
H235 C220 0.929 . S
H236 C218 0.932 . S
C237 C238 1.386 . S
C237 C239 1.397 . S
C237 H261 0.931 . S
C238 C237 1.386 . S
C238 C242 1.397 1_655 S
C239 C237 1.397 . S
C239 C240 1.384 . S
C239 H262 0.930 . S
C240 C239 1.384 . S
C240 C241 1.377 1_655 S
C240 C243 1.480 . S
C241 C240 1.377 1_455 S
C241 C242 1.389 . S
C241 H263 0.929 . S
C242 C238 1.397 1_455 S
C242 C241 1.389 . S
C242 H264 0.931 . S
C243 C240 1.480 . S
C243 C244 1.400 . S
C243 C248 1.378 1_655 S
C244 C243 1.400 . S
C244 C245 1.401 . S
C244 H265 0.930 . S
C245 C244 1.401 . S
C245 C246 1.376 1_655 S
C245 C254 1.511 . S
C246 C245 1.376 1_455 S
C246 C247 1.392 . S
C246 H267 0.931 . S
C247 C246 1.392 . S
C247 C248 1.361 . S
C247 C249 1.500 . S
C248 C243 1.378 1_455 S
C248 C247 1.361 . S
C248 H266 0.931 . S
C249 C247 1.500 . S
C249 C250 1.371 . S
C249 C251 1.365 . S
C250 C249 1.371 . S
C250 C260 1.386 . S
C250 H268 0.931 . S
C251 C249 1.365 . S
C251 C252 1.409 . S
C251 H269 0.929 . S
C252 C251 1.409 . S
C252 C253 1.380 . S
C252 H270 0.930 . S
C253 C252 1.380 . S
C253 C260 1.357 . S
C254 C245 1.511 . S
C254 C255 1.341 . S
C254 C256 1.371 . S
C255 C254 1.341 . S
C255 C259 1.394 . S
C255 H271 0.930 . S
C256 C254 1.371 . S
C256 C257 1.392 . S
C256 H272 0.931 . S
C257 C256 1.392 . S
C257 C258 1.331 . S
C257 H275 0.932 . S
C258 C257 1.331 . S
C258 C259 1.336 . S
C259 C255 1.394 . S
C259 C258 1.336 . S
C259 H274 0.929 . S
C260 C250 1.386 . S
C260 C253 1.357 . S
C260 H273 0.928 . S
H261 C237 0.931 . S
H262 C239 0.930 . S
H263 C241 0.929 . S
H264 C242 0.931 . S
H265 C244 0.930 . S
H266 C248 0.931 . S
H267 C246 0.931 . S
H268 C250 0.931 . S
H269 C251 0.929 . S
H270 C252 0.930 . S
H271 C255 0.930 . S
H272 C256 0.931 . S
H273 C260 0.928 . S
H274 C259 0.929 . S
H275 C257 0.932 . S
C276 C277 1.386 1_565 S
C276 C278 1.397 . S
C276 H300 0.931 . S
C277 C276 1.386 1_545 S
C277 C281 1.397 . S
C278 C276 1.397 . S
C278 C279 1.384 1_565 S
C278 H301 0.930 . S
C279 C278 1.384 1_545 S
C279 C280 1.377 . S
C279 C282 1.481 . S
C280 C279 1.377 . S
C280 C281 1.389 . S
C280 H302 0.929 . S
C281 C277 1.397 . S
C281 C280 1.389 . S
C281 H303 0.931 . S
C282 C279 1.481 . S
C282 C283 1.387 1_545 S
C282 C287 1.390 . S
C283 C282 1.387 1_565 S
C283 C284 1.401 . S
C283 H304 0.930 . S
C284 C283 1.401 . S
C284 C285 1.376 1_565 S
C284 C293 1.511 . S
C285 C284 1.376 1_545 S
C285 C286 1.392 . S
C285 H306 0.931 . S
C286 C285 1.392 . S
C286 C287 1.361 . S
C286 C288 1.500 . S
C287 C282 1.390 . S
C287 C286 1.361 . S
C287 H305 0.931 . S
C288 C286 1.500 . S
C288 C289 1.371 . S
C288 C290 1.365 . S
C289 C288 1.371 . S
C289 C299 1.386 . S
C289 H307 0.931 . S
C290 C288 1.365 . S
C290 C291 1.409 . S
C290 H308 0.929 . S
C291 C290 1.409 . S
C291 C292 1.380 . S
C291 H309 0.930 . S
C292 C291 1.380 . S
C292 C299 1.357 . S
C293 C284 1.511 . S
C293 C294 1.341 . S
C293 C295 1.371 . S
C294 C293 1.341 . S
C294 C298 1.394 . S
C294 H310 0.930 . S
C295 C293 1.371 . S
C295 C296 1.392 . S
C295 H311 0.931 . S
C296 C295 1.392 . S
C296 C297 1.331 . S
C296 H314 0.932 . S
C297 C296 1.331 . S
C297 C298 1.336 . S
C298 C294 1.394 . S
C298 C297 1.336 . S
C298 H313 0.929 . S
C299 C289 1.386 . S
C299 C292 1.357 . S
C299 H312 0.928 . S
H300 C276 0.931 . S
H301 C278 0.930 . S
H302 C280 0.929 . S
H303 C281 0.931 . S
H304 C283 0.930 . S
H305 C287 0.931 . S
H306 C285 0.931 . S
H307 C289 0.931 . S
H308 C290 0.929 . S
H309 C291 0.930 . S
H310 C294 0.930 . S
H311 C295 0.931 . S
H312 C299 0.928 . S
H313 C298 0.929 . S
H314 C296 0.932 . S
C315 C316 1.386 . S
C315 C317 1.397 . S
C315 H339 0.931 . S
C316 C315 1.386 . S
C316 C320 1.397 . S
C317 C315 1.397 . S
C317 C318 1.384 . S
C317 H340 0.930 . S
C318 C317 1.384 . S
C318 C319 1.377 . S
C318 C321 1.481 . S
C319 C318 1.377 . S
C319 C320 1.389 . S
C319 H341 0.929 . S
C320 C316 1.397 . S
C320 C319 1.389 . S
C320 H342 0.931 . S
C321 C318 1.481 . S
C321 C322 1.387 . S
C321 C326 1.390 . S
C322 C321 1.387 . S
C322 C323 1.401 . S
C322 H343 0.930 . S
C323 C322 1.401 . S
C323 C324 1.376 . S
C323 C332 1.511 . S
C324 C323 1.376 . S
C324 C325 1.392 . S
C324 H345 0.931 . S
C325 C324 1.392 . S
C325 C326 1.361 . S
C325 C327 1.500 . S
C326 C321 1.390 . S
C326 C325 1.361 . S
C326 H344 0.931 . S
C327 C325 1.500 . S
C327 C328 1.371 . S
C327 C329 1.365 . S
C328 C327 1.371 . S
C328 C338 1.386 . S
C328 H346 0.931 . S
C329 C327 1.365 . S
C329 C330 1.409 . S
C329 H347 0.929 . S
C330 C329 1.409 . S
C330 C331 1.380 . S
C330 H348 0.930 . S
C331 C330 1.380 . S
C331 C338 1.357 . S
C332 C323 1.511 . S
C332 C333 1.341 . S
C332 C334 1.371 . S
C333 C332 1.341 . S
C333 C337 1.394 . S
C333 H349 0.930 . S
C334 C332 1.371 . S
C334 C335 1.392 . S
C334 H350 0.931 . S
C335 C334 1.392 . S
C335 C336 1.331 . S
C335 H353 0.932 . S
C336 C335 1.331 . S
C336 C337 1.336 . S
C337 C333 1.394 . S
C337 C336 1.336 . S
C337 H352 0.929 . S
C338 C328 1.386 . S
C338 C331 1.357 . S
C338 H351 0.928 . S
H339 C315 0.931 . S
H340 C317 0.930 . S
H341 C319 0.929 . S
H342 C320 0.931 . S
H343 C322 0.930 . S
H344 C326 0.931 . S
H345 C324 0.931 . S
H346 C328 0.931 . S
H347 C329 0.929 . S
H348 C330 0.930 . S
H349 C333 0.930 . S
H350 C334 0.931 . S
H351 C338 0.928 . S
H352 C337 0.929 . S
H353 C335 0.932 . S
H354 C362 0.929 . S
H355 C364 0.930 . S
H356 C366 0.930 . S
H357 C369 0.929 . S
H358 C372 0.930 . S
H359 C374 0.960 . S
H360 C374 0.960 . S
H361 C374 0.960 . S
C362 H354 0.929 . S
C362 C363 1.377 . S
C362 C364 1.384 . S
C363 C362 1.377 . S
C363 C369 1.390 . S
C364 H355 0.930 . S
C364 C362 1.384 . S
C364 C365 1.372 . S
C365 C364 1.372 . S
C365 C366 1.400 . S
C365 C370 1.490 . S
C366 H356 0.930 . S
C366 C365 1.400 . S
C366 C369 1.386 . S
H367 C383 0.930 . S
H368 C384 0.931 . S
C369 H357 0.929 . S
C369 C363 1.390 . S
C369 C366 1.386 . S
C370 C365 1.490 . S
C370 C372 1.395 . S
C370 C373 1.403 . S
H371 C377 0.930 . S
C372 H358 0.930 . S
C372 C370 1.395 . S
C372 C375 1.403 . S
C373 C370 1.403 . S
C373 C374 1.524 . S
C373 C377 1.400 . S
C374 H359 0.960 . S
C374 H360 0.960 . S
C374 H361 0.960 . S
C374 C373 1.524 . S
C375 C372 1.403 . S
C375 C376 1.392 . S
C375 C379 1.495 . S
C376 C375 1.392 . S
C376 C377 1.385 . S
C376 C378 1.478 . S
C377 H371 0.930 . S
C377 C373 1.400 . S
C377 C376 1.385 . S
C378 C376 1.478 . S
C378 C380 1.381 . S
C378 C384 1.383 . S
C379 C375 1.495 . S
C379 H385 0.959 . S
C379 H386 0.961 . S
C379 H387 0.960 . S
C380 C378 1.381 . S
C380 C381 1.394 . S
C380 H388 0.930 . S
C381 C380 1.394 . S
C381 C382 1.383 . S
C381 H389 0.929 . S
C382 C381 1.383 . S
C382 C383 1.377 . S
C383 H367 0.930 . S
C383 C382 1.377 . S
C383 C384 1.379 . S
C384 H368 0.931 . S
C384 C378 1.383 . S
C384 C383 1.379 . S
H385 C379 0.959 . S
H386 C379 0.961 . S
H387 C379 0.960 . S
H388 C380 0.930 . S
H389 C381 0.929 . S
H390 C398 0.929 . S
H391 C400 0.930 . S
H392 C402 0.930 . S
H393 C405 0.929 . S
H394 C408 0.930 . S
H395 C410 0.960 . S
H396 C410 0.960 . S
H397 C410 0.960 . S
C398 H390 0.929 . S
C398 C399 1.377 . S
C398 C400 1.384 . S
C399 C398 1.377 . S
C399 C405 1.390 . S
C400 H391 0.930 . S
C400 C398 1.384 . S
C400 C401 1.372 . S
C401 C400 1.372 . S
C401 C402 1.400 . S
C401 C406 1.490 . S
C402 H392 0.930 . S
C402 C401 1.400 . S
C402 C405 1.386 . S
H403 C419 0.930 . S
H404 C420 0.931 . S
C405 H393 0.929 . S
C405 C399 1.390 . S
C405 C402 1.386 . S
C406 C401 1.490 . S
C406 C408 1.395 . S
C406 C409 1.403 . S
H407 C413 0.930 . S
C408 H394 0.930 . S
C408 C406 1.395 . S
C408 C411 1.403 . S
C409 C406 1.403 . S
C409 C410 1.524 . S
C409 C413 1.400 . S
C410 H395 0.960 . S
C410 H396 0.960 . S
C410 H397 0.960 . S
C410 C409 1.524 . S
C411 C408 1.403 . S
C411 C412 1.392 . S
C411 C415 1.495 . S
C412 C411 1.392 . S
C412 C413 1.385 . S
C412 C414 1.478 . S
C413 H407 0.930 . S
C413 C409 1.400 . S
C413 C412 1.385 . S
C414 C412 1.478 . S
C414 C416 1.381 . S
C414 C420 1.383 . S
C415 C411 1.495 . S
C415 H421 0.959 . S
C415 H422 0.961 . S
C415 H423 0.960 . S
C416 C414 1.381 . S
C416 C417 1.394 . S
C416 H424 0.930 . S
C417 C416 1.394 . S
C417 C418 1.383 . S
C417 H425 0.929 . S
C418 C417 1.383 . S
C418 C419 1.377 . S
C419 H403 0.930 . S
C419 C418 1.377 . S
C419 C420 1.379 . S
C420 H404 0.931 . S
C420 C414 1.383 . S
C420 C419 1.379 . S
H421 C415 0.959 . S
H422 C415 0.961 . S
H423 C415 0.960 . S
H424 C416 0.930 . S
H425 C417 0.929 . S
H426 C434 0.929 . S
H427 C436 0.930 . S
H428 C438 0.930 . S
H429 C441 0.929 . S
H430 C444 0.930 . S
H431 C446 0.960 . S
H432 C446 0.960 . S
H433 C446 0.960 . S
C434 H426 0.929 . S
C434 C435 1.377 . S
C434 C436 1.384 . S
C435 C434 1.377 . S
C435 C441 1.390 . S
C436 H427 0.930 . S
C436 C434 1.384 . S
C436 C437 1.372 . S
C437 C436 1.372 . S
C437 C438 1.400 . S
C437 C442 1.490 . S
C438 H428 0.930 . S
C438 C437 1.400 . S
C438 C441 1.386 . S
H439 C455 0.930 . S
H440 C456 0.931 . S
C441 H429 0.929 . S
C441 C435 1.390 . S
C441 C438 1.386 . S
C442 C437 1.490 . S
C442 C444 1.395 . S
C442 C445 1.403 . S
H443 C449 0.930 . S
C444 H430 0.930 . S
C444 C442 1.395 . S
C444 C447 1.403 . S
C445 C442 1.403 . S
C445 C446 1.524 . S
C445 C449 1.400 . S
C446 H431 0.960 . S
C446 H432 0.960 . S
C446 H433 0.960 . S
C446 C445 1.524 . S
C447 C444 1.403 . S
C447 C448 1.392 . S
C447 C451 1.495 . S
C448 C447 1.392 . S
C448 C449 1.385 . S
C448 C450 1.478 . S
C449 H443 0.930 . S
C449 C445 1.400 . S
C449 C448 1.385 . S
C450 C448 1.478 . S
C450 C452 1.381 . S
C450 C456 1.383 . S
C451 C447 1.495 . S
C451 H457 0.959 . S
C451 H458 0.961 . S
C451 H459 0.960 . S
C452 C450 1.381 . S
C452 C453 1.394 . S
C452 H460 0.930 . S
C453 C452 1.394 . S
C453 C454 1.383 . S
C453 H461 0.929 . S
C454 C453 1.383 . S
C454 C455 1.377 . S
C455 H439 0.930 . S
C455 C454 1.377 . S
C455 C456 1.379 . S
C456 H440 0.931 . S
C456 C450 1.383 . S
C456 C455 1.379 . S
H457 C451 0.959 . S
H458 C451 0.961 . S
H459 C451 0.960 . S
H460 C452 0.930 . S
H461 C453 0.929 . S
H462 C470 0.929 . S
H463 C472 0.930 . S
H464 C474 0.930 . S
H465 C477 0.929 . S
H466 C480 0.930 . S
H467 C482 0.960 . S
H468 C482 0.960 . S
H469 C482 0.960 . S
C470 H462 0.929 . S
C470 C471 1.377 . S
C470 C472 1.384 . S
C471 C470 1.377 . S
C471 C477 1.390 . S
C472 H463 0.930 . S
C472 C470 1.384 . S
C472 C473 1.372 . S
C473 C472 1.372 . S
C473 C474 1.400 . S
C473 C478 1.490 . S
C474 H464 0.930 . S
C474 C473 1.400 . S
C474 C477 1.386 . S
H475 C491 0.930 . S
H476 C492 0.931 . S
C477 H465 0.929 . S
C477 C471 1.390 . S
C477 C474 1.386 . S
C478 C473 1.490 . S
C478 C480 1.395 . S
C478 C481 1.403 . S
H479 C485 0.930 . S
C480 H466 0.930 . S
C480 C478 1.395 . S
C480 C483 1.403 . S
C481 C478 1.403 . S
C481 C482 1.524 . S
C481 C485 1.400 . S
C482 H467 0.960 . S
C482 H468 0.960 . S
C482 H469 0.960 . S
C482 C481 1.524 . S
C483 C480 1.403 . S
C483 C484 1.392 . S
C483 C487 1.495 . S
C484 C483 1.392 . S
C484 C485 1.385 . S
C484 C486 1.478 . S
C485 H479 0.930 . S
C485 C481 1.400 . S
C485 C484 1.385 . S
C486 C484 1.478 . S
C486 C488 1.381 . S
C486 C492 1.383 . S
C487 C483 1.495 . S
C487 H493 0.959 . S
C487 H494 0.961 . S
C487 H495 0.960 . S
C488 C486 1.381 . S
C488 C489 1.394 . S
C488 H496 0.930 . S
C489 C488 1.394 . S
C489 C490 1.383 . S
C489 H497 0.929 . S
C490 C489 1.383 . S
C490 C491 1.377 . S
C491 H475 0.930 . S
C491 C490 1.377 . S
C491 C492 1.379 . S
C492 H476 0.931 . S
C492 C486 1.383 . S
C492 C491 1.379 . S
H493 C487 0.959 . S
H494 C487 0.961 . S
H495 C487 0.960 . S
H496 C488 0.930 . S
H497 C489 0.929 . S
H498 C506 0.929 . S
H499 C508 0.930 . S
H500 C510 0.930 . S
H501 C513 0.929 . S
H502 C516 0.930 . S
H503 C518 0.960 . S
H504 C518 0.960 . S
H505 C518 0.960 . S
C506 H498 0.929 . S
C506 C507 1.377 . S
C506 C508 1.384 . S
C507 C506 1.377 . S
C507 C513 1.390 . S
C508 H499 0.930 . S
C508 C506 1.384 . S
C508 C509 1.372 . S
C509 C508 1.372 . S
C509 C510 1.400 . S
C509 C514 1.490 . S
C510 H500 0.930 . S
C510 C509 1.400 . S
C510 C513 1.386 . S
H511 C527 0.930 . S
H512 C528 0.931 . S
C513 H501 0.929 . S
C513 C507 1.390 . S
C513 C510 1.386 . S
C514 C509 1.490 . S
C514 C516 1.395 . S
C514 C517 1.403 . S
H515 C521 0.930 . S
C516 H502 0.930 . S
C516 C514 1.395 . S
C516 C519 1.403 . S
C517 C514 1.403 . S
C517 C518 1.524 . S
C517 C521 1.400 . S
C518 H503 0.960 . S
C518 H504 0.960 . S
C518 H505 0.960 . S
C518 C517 1.524 . S
C519 C516 1.403 . S
C519 C520 1.392 . S
C519 C523 1.495 . S
C520 C519 1.392 . S
C520 C521 1.385 . S
C520 C522 1.478 . S
C521 H515 0.930 . S
C521 C517 1.400 . S
C521 C520 1.385 . S
C522 C520 1.478 . S
C522 C524 1.381 . S
C522 C528 1.383 . S
C523 C519 1.495 . S
C523 H529 0.959 . S
C523 H530 0.961 . S
C523 H531 0.960 . S
C524 C522 1.381 . S
C524 C525 1.394 . S
C524 H532 0.930 . S
C525 C524 1.394 . S
C525 C526 1.383 . S
C525 H533 0.929 . S
C526 C525 1.383 . S
C526 C527 1.377 . S
C527 H511 0.930 . S
C527 C526 1.377 . S
C527 C528 1.379 . S
C528 H512 0.931 . S
C528 C522 1.383 . S
C528 C527 1.379 . S
H529 C523 0.959 . S
H530 C523 0.961 . S
H531 C523 0.960 . S
H532 C524 0.930 . S
H533 C525 0.929 . S
H534 C542 0.929 . S
H535 C544 0.930 . S
H536 C546 0.930 . S
H537 C549 0.929 . S
H538 C552 0.930 . S
H539 C554 0.960 . S
H540 C554 0.960 . S
H541 C554 0.960 . S
C542 H534 0.929 . S
C542 C543 1.377 . S
C542 C544 1.384 . S
C543 C542 1.377 . S
C543 C549 1.390 . S
C544 H535 0.930 . S
C544 C542 1.384 . S
C544 C545 1.372 . S
C545 C544 1.372 . S
C545 C546 1.400 . S
C545 C550 1.490 . S
C546 H536 0.930 . S
C546 C545 1.400 . S
C546 C549 1.386 . S
H547 C563 0.930 . S
H548 C564 0.931 . S
C549 H537 0.929 . S
C549 C543 1.390 . S
C549 C546 1.386 . S
C550 C545 1.490 . S
C550 C552 1.395 . S
C550 C553 1.403 . S
H551 C557 0.930 . S
C552 H538 0.930 . S
C552 C550 1.395 . S
C552 C555 1.403 . S
C553 C550 1.403 . S
C553 C554 1.524 . S
C553 C557 1.400 . S
C554 H539 0.960 . S
C554 H540 0.960 . S
C554 H541 0.960 . S
C554 C553 1.524 . S
C555 C552 1.403 . S
C555 C556 1.392 . S
C555 C559 1.495 . S
C556 C555 1.392 . S
C556 C557 1.385 . S
C556 C558 1.478 . S
C557 H551 0.930 . S
C557 C553 1.400 . S
C557 C556 1.385 . S
C558 C556 1.478 . S
C558 C560 1.381 . S
C558 C564 1.383 . S
C559 C555 1.495 . S
C559 H565 0.959 . S
C559 H566 0.961 . S
C559 H567 0.960 . S
C560 C558 1.381 . S
C560 C561 1.394 . S
C560 H568 0.930 . S
C561 C560 1.394 . S
C561 C562 1.383 . S
C561 H569 0.929 . S
C562 C561 1.383 . S
C562 C563 1.377 . S
C563 H547 0.930 . S
C563 C562 1.377 . S
C563 C564 1.379 . S
C564 H548 0.931 . S
C564 C558 1.383 . S
C564 C563 1.379 . S
H565 C559 0.959 . S
H566 C559 0.961 . S
H567 C559 0.960 . S
H568 C560 0.930 . S
H569 C561 0.929 . S
H570 C578 0.929 . S
H571 C580 0.930 . S
H572 C582 0.930 . S
H573 C585 0.929 . S
H574 C588 0.930 . S
H575 C590 0.960 . S
H576 C590 0.960 . S
H577 C590 0.960 . S
C578 H570 0.929 . S
C578 C579 1.377 . S
C578 C580 1.384 . S
C579 C578 1.377 . S
C579 C585 1.390 . S
C580 H571 0.930 . S
C580 C578 1.384 . S
C580 C581 1.372 . S
C581 C580 1.372 . S
C581 C582 1.400 . S
C581 C586 1.490 . S
C582 H572 0.930 . S
C582 C581 1.400 . S
C582 C585 1.386 . S
H583 C599 0.930 . S
H584 C600 0.931 . S
C585 H573 0.929 . S
C585 C579 1.390 . S
C585 C582 1.386 . S
C586 C581 1.490 . S
C586 C588 1.395 . S
C586 C589 1.403 . S
H587 C593 0.930 . S
C588 H574 0.930 . S
C588 C586 1.395 . S
C588 C591 1.403 . S
C589 C586 1.403 . S
C589 C590 1.524 . S
C589 C593 1.400 . S
C590 H575 0.960 . S
C590 H576 0.960 . S
C590 H577 0.960 . S
C590 C589 1.524 . S
C591 C588 1.403 . S
C591 C592 1.392 . S
C591 C595 1.495 . S
C592 C591 1.392 . S
C592 C593 1.385 . S
C592 C594 1.478 . S
C593 H587 0.930 . S
C593 C589 1.400 . S
C593 C592 1.385 . S
C594 C592 1.478 . S
C594 C596 1.381 . S
C594 C600 1.383 . S
C595 C591 1.495 . S
C595 H601 0.959 . S
C595 H602 0.961 . S
C595 H603 0.960 . S
C596 C594 1.381 . S
C596 C597 1.394 . S
C596 H604 0.930 . S
C597 C596 1.394 . S
C597 C598 1.383 . S
C597 H605 0.929 . S
C598 C597 1.383 . S
C598 C599 1.377 . S
C599 H583 0.930 . S
C599 C598 1.377 . S
C599 C600 1.379 . S
C600 H584 0.931 . S
C600 C594 1.383 . S
C600 C599 1.379 . S
H601 C595 0.959 . S
H602 C595 0.961 . S
H603 C595 0.960 . S
H604 C596 0.930 . S
H605 C597 0.929 . S
H606 C614 0.929 . S
H607 C616 0.930 . S
H608 C618 0.930 . S
H609 C621 0.929 . S
H610 C624 0.930 . S
H611 C626 0.960 . S
H612 C626 0.960 . S
H613 C626 0.960 . S
C614 H606 0.929 . S
C614 C615 1.377 . S
C614 C616 1.384 . S
C615 C614 1.377 . S
C615 C621 1.390 . S
C616 H607 0.930 . S
C616 C614 1.384 . S
C616 C617 1.372 . S
C617 C616 1.372 . S
C617 C618 1.400 . S
C617 C622 1.490 . S
C618 H608 0.930 . S
C618 C617 1.400 . S
C618 C621 1.386 . S
H619 C635 0.930 . S
H620 C636 0.931 . S
C621 H609 0.929 . S
C621 C615 1.390 . S
C621 C618 1.386 . S
C622 C617 1.490 . S
C622 C624 1.395 . S
C622 C625 1.403 . S
H623 C629 0.930 . S
C624 H610 0.930 . S
C624 C622 1.395 . S
C624 C627 1.403 . S
C625 C622 1.403 . S
C625 C626 1.524 . S
C625 C629 1.400 . S
C626 H611 0.960 . S
C626 H612 0.960 . S
C626 H613 0.960 . S
C626 C625 1.524 . S
C627 C624 1.403 . S
C627 C628 1.392 . S
C627 C631 1.495 . S
C628 C627 1.392 . S
C628 C629 1.385 . S
C628 C630 1.478 . S
C629 H623 0.930 . S
C629 C625 1.400 . S
C629 C628 1.385 . S
C630 C628 1.478 . S
C630 C632 1.381 . S
C630 C636 1.383 . S
C631 C627 1.495 . S
C631 H637 0.959 . S
C631 H638 0.961 . S
C631 H639 0.960 . S
C632 C630 1.381 . S
C632 C633 1.394 . S
C632 H640 0.930 . S
C633 C632 1.394 . S
C633 C634 1.383 . S
C633 H641 0.929 . S
C634 C633 1.383 . S
C634 C635 1.377 . S
C635 H619 0.930 . S
C635 C634 1.377 . S
C635 C636 1.379 . S
C636 H620 0.931 . S
C636 C630 1.383 . S
C636 C635 1.379 . S
H637 C631 0.959 . S
H638 C631 0.961 . S
H639 C631 0.960 . S
H640 C632 0.930 . S
H641 C633 0.929 . S
H642 C650 0.929 . S
H643 C652 0.930 . S
H644 C654 0.930 . S
H645 C657 0.929 . S
H646 C660 0.930 . S
H647 C662 0.960 . S
H648 C662 0.960 . S
H649 C662 0.960 . S
C650 H642 0.929 . S
C650 C651 1.377 . S
C650 C652 1.384 . S
C651 C650 1.377 . S
C651 C657 1.390 . S
C652 H643 0.930 . S
C652 C650 1.384 . S
C652 C653 1.372 . S
C653 C652 1.372 . S
C653 C654 1.400 . S
C653 C658 1.490 . S
C654 H644 0.930 . S
C654 C653 1.400 . S
C654 C657 1.386 . S
H655 C671 0.930 . S
H656 C672 0.931 . S
C657 H645 0.929 . S
C657 C651 1.390 . S
C657 C654 1.386 . S
C658 C653 1.490 . S
C658 C660 1.395 . S
C658 C661 1.403 . S
H659 C665 0.930 . S
C660 H646 0.930 . S
C660 C658 1.395 . S
C660 C663 1.403 . S
C661 C658 1.403 . S
C661 C662 1.524 . S
C661 C665 1.400 . S
C662 H647 0.960 . S
C662 H648 0.960 . S
C662 H649 0.960 . S
C662 C661 1.524 . S
C663 C660 1.403 . S
C663 C664 1.392 . S
C663 C667 1.495 . S
C664 C663 1.392 . S
C664 C665 1.385 . S
C664 C666 1.478 . S
C665 H659 0.930 . S
C665 C661 1.400 . S
C665 C664 1.385 . S
C666 C664 1.478 . S
C666 C668 1.381 . S
C666 C672 1.383 . S
C667 C663 1.495 . S
C667 H673 0.959 . S
C667 H674 0.961 . S
C667 H675 0.960 . S
C668 C666 1.381 . S
C668 C669 1.394 . S
C668 H676 0.930 . S
C669 C668 1.394 . S
C669 C670 1.383 . S
C669 H677 0.929 . S
C670 C669 1.383 . S
C670 C671 1.377 . S
C671 H655 0.930 . S
C671 C670 1.377 . S
C671 C672 1.379 . S
C672 H656 0.931 . S
C672 C666 1.383 . S
C672 C671 1.379 . S
H673 C667 0.959 . S
H674 C667 0.961 . S
H675 C667 0.960 . S
H676 C668 0.930 . S
H677 C669 0.929 . S
H678 C686 0.929 . S
H679 C688 0.930 . S
H680 C690 0.930 . S
H681 C693 0.929 . S
H682 C696 0.930 . S
H683 C698 0.960 . S
H684 C698 0.960 . S
H685 C698 0.960 . S
C686 H678 0.929 . S
C686 C687 1.377 . S
C686 C688 1.384 . S
C687 C686 1.377 . S
C687 C693 1.390 . S
C688 H679 0.930 . S
C688 C686 1.384 . S
C688 C689 1.372 . S
C689 C688 1.372 . S
C689 C690 1.400 . S
C689 C694 1.490 . S
C690 H680 0.930 . S
C690 C689 1.400 . S
C690 C693 1.386 . S
H691 C707 0.930 . S
H692 C708 0.931 . S
C693 H681 0.929 . S
C693 C687 1.390 . S
C693 C690 1.386 . S
C694 C689 1.490 . S
C694 C696 1.395 . S
C694 C697 1.403 . S
H695 C701 0.930 . S
C696 H682 0.930 . S
C696 C694 1.395 . S
C696 C699 1.403 . S
C697 C694 1.403 . S
C697 C698 1.524 . S
C697 C701 1.400 . S
C698 H683 0.960 . S
C698 H684 0.960 . S
C698 H685 0.960 . S
C698 C697 1.524 . S
C699 C696 1.403 . S
C699 C700 1.392 . S
C699 C703 1.495 . S
C700 C699 1.392 . S
C700 C701 1.385 . S
C700 C702 1.478 . S
C701 H695 0.930 . S
C701 C697 1.400 . S
C701 C700 1.385 . S
C702 C700 1.478 . S
C702 C704 1.381 . S
C702 C708 1.383 . S
C703 C699 1.495 . S
C703 H709 0.959 . S
C703 H710 0.961 . S
C703 H711 0.960 . S
C704 C702 1.381 . S
C704 C705 1.394 . S
C704 H712 0.930 . S
C705 C704 1.394 . S
C705 C706 1.383 . S
C705 H713 0.929 . S
C706 C705 1.383 . S
C706 C707 1.377 . S
C707 H691 0.930 . S
C707 C706 1.377 . S
C707 C708 1.379 . S
C708 H692 0.931 . S
C708 C702 1.383 . S
C708 C707 1.379 . S
H709 C703 0.959 . S
H710 C703 0.961 . S
H711 C703 0.960 . S
H712 C704 0.930 . S
H713 C705 0.929 . S
H714 C722 0.929 . S
H715 C724 0.930 . S
H716 C726 0.930 . S
H717 C729 0.929 . S
H718 C732 0.930 . S
H719 C734 0.960 . S
H720 C734 0.960 . S
H721 C734 0.960 . S
C722 H714 0.929 . S
C722 C723 1.377 . S
C722 C724 1.384 . S
C723 C722 1.377 . S
C723 C729 1.390 . S
C724 H715 0.930 . S
C724 C722 1.384 . S
C724 C725 1.372 . S
C725 C724 1.372 . S
C725 C726 1.400 . S
C725 C730 1.490 . S
C726 H716 0.930 . S
C726 C725 1.400 . S
C726 C729 1.386 . S
H727 C743 0.930 . S
H728 C744 0.931 . S
C729 H717 0.929 . S
C729 C723 1.390 . S
C729 C726 1.386 . S
C730 C725 1.490 . S
C730 C732 1.395 . S
C730 C733 1.403 . S
H731 C737 0.930 . S
C732 H718 0.930 . S
C732 C730 1.395 . S
C732 C735 1.403 . S
C733 C730 1.403 . S
C733 C734 1.524 . S
C733 C737 1.400 . S
C734 H719 0.960 . S
C734 H720 0.960 . S
C734 H721 0.960 . S
C734 C733 1.524 . S
C735 C732 1.403 . S
C735 C736 1.392 . S
C735 C739 1.495 . S
C736 C735 1.392 . S
C736 C737 1.385 . S
C736 C738 1.478 . S
C737 H731 0.930 . S
C737 C733 1.400 . S
C737 C736 1.385 . S
C738 C736 1.478 . S
C738 C740 1.381 . S
C738 C744 1.383 . S
C739 C735 1.495 . S
C739 H745 0.959 . S
C739 H746 0.961 . S
C739 H747 0.960 . S
C740 C738 1.381 . S
C740 C741 1.394 . S
C740 H748 0.930 . S
C741 C740 1.394 . S
C741 C742 1.383 . S
C741 H749 0.929 . S
C742 C741 1.383 . S
C742 C743 1.377 . S
C743 H727 0.930 . S
C743 C742 1.377 . S
C743 C744 1.379 . S
C744 H728 0.931 . S
C744 C738 1.383 . S
C744 C743 1.379 . S
H745 C739 0.959 . S
H746 C739 0.961 . S
H747 C739 0.960 . S
H748 C740 0.930 . S
H749 C741 0.929 . S
H750 C758 0.929 . S
H751 C760 0.930 . S
H752 C762 0.930 . S
H753 C765 0.929 . S
H754 C768 0.930 . S
H755 C770 0.960 . S
H756 C770 0.960 . S
H757 C770 0.960 . S
C758 H750 0.929 . S
C758 C759 1.377 . S
C758 C760 1.384 . S
C759 C758 1.377 . S
C759 C765 1.390 . S
C760 H751 0.930 . S
C760 C758 1.384 . S
C760 C761 1.372 . S
C761 C760 1.372 . S
C761 C762 1.400 . S
C761 C766 1.490 . S
C762 H752 0.930 . S
C762 C761 1.400 . S
C762 C765 1.386 . S
H763 C779 0.930 . S
H764 C780 0.931 . S
C765 H753 0.929 . S
C765 C759 1.390 . S
C765 C762 1.386 . S
C766 C761 1.490 . S
C766 C768 1.395 . S
C766 C769 1.403 . S
H767 C773 0.930 . S
C768 H754 0.930 . S
C768 C766 1.395 . S
C768 C771 1.403 . S
C769 C766 1.403 . S
C769 C770 1.524 . S
C769 C773 1.400 . S
C770 H755 0.960 . S
C770 H756 0.960 . S
C770 H757 0.960 . S
C770 C769 1.524 . S
C771 C768 1.403 . S
C771 C772 1.392 . S
C771 C775 1.495 . S
C772 C771 1.392 . S
C772 C773 1.385 . S
C772 C774 1.478 . S
C773 H767 0.930 . S
C773 C769 1.400 . S
C773 C772 1.385 . S
C774 C772 1.478 . S
C774 C776 1.381 . S
C774 C780 1.383 . S
C775 C771 1.495 . S
C775 H781 0.959 . S
C775 H782 0.961 . S
C775 H783 0.960 . S
C776 C774 1.381 . S
C776 C777 1.394 . S
C776 H784 0.930 . S
C777 C776 1.394 . S
C777 C778 1.383 . S
C777 H785 0.929 . S
C778 C777 1.383 . S
C778 C779 1.377 . S
C779 H763 0.930 . S
C779 C778 1.377 . S
C779 C780 1.379 . S
C780 H764 0.931 . S
C780 C774 1.383 . S
C780 C779 1.379 . S
H781 C775 0.959 . S
H782 C775 0.961 . S
H783 C775 0.960 . S
H784 C776 0.930 . S
H785 C777 0.929 . S
H786 C794 0.929 . S
H787 C796 0.930 . S
H788 C798 0.930 . S
H789 C801 0.929 . S
H790 C804 0.930 . S
H791 C806 0.960 . S
H792 C806 0.960 . S
H793 C806 0.960 . S
C794 H786 0.929 . S
C794 C795 1.377 . S
C794 C796 1.384 . S
C795 C794 1.377 . S
C795 C801 1.390 1_455 S
C796 H787 0.930 . S
C796 C794 1.384 . S
C796 C797 1.372 . S
C797 C796 1.372 . S
C797 C798 1.400 1_455 S
C797 C802 1.490 . S
C798 H788 0.930 . S
C798 C797 1.400 1_655 S
C798 C801 1.386 . S
H799 C815 0.930 . S
H800 C816 0.934 1_554 S
C801 H789 0.929 . S
C801 C795 1.390 1_655 S
C801 C798 1.386 . S
C802 C797 1.490 . S
C802 C804 1.395 . S
C802 C805 1.403 . S
H803 C809 0.930 . S
C804 H790 0.930 . S
C804 C802 1.395 . S
C804 C807 1.403 . S
C805 C802 1.403 . S
C805 C806 1.524 . S
C805 C809 1.400 . S
C806 H791 0.960 . S
C806 H792 0.960 . S
C806 H793 0.960 . S
C806 C805 1.524 . S
C807 C804 1.403 . S
C807 C808 1.392 . S
C807 C811 1.495 . S
C808 C807 1.392 . S
C808 C809 1.385 . S
C808 C810 1.478 . S
C809 H803 0.930 . S
C809 C805 1.400 . S
C809 C808 1.385 . S
C810 C808 1.478 . S
C810 C812 1.413 . S
C810 C816 1.385 1_454 S
C811 C807 1.495 . S
C811 H817 0.959 . S
C811 H818 0.961 1_455 S
C811 H819 0.960 . S
C812 C810 1.413 . S
C812 C813 1.335 1_554 S
C812 H820 0.960 . S
C813 C812 1.335 1_556 S
C813 C814 1.383 . S
C813 H821 0.929 . S
C814 C813 1.383 . S
C814 C815 1.377 1_455 S
C815 H799 0.930 . S
C815 C814 1.377 1_655 S
C815 C816 1.374 . S
C816 H800 0.934 1_556 S
C816 C810 1.385 1_656 S
C816 C815 1.374 . S
H817 C811 0.959 . S
H818 C811 0.961 1_655 S
H819 C811 0.960 . S
H820 C812 0.960 . S
H821 C813 0.929 . S
H822 C830 0.929 . S
H823 C832 0.930 . S
H824 C834 0.930 . S
H825 C837 0.929 . S
H826 C840 0.930 . S
H827 C842 0.960 . S
H828 C842 0.960 . S
H829 C842 0.960 . S
C830 H822 0.929 . S
C830 C831 1.377 . S
C830 C832 1.384 . S
C831 C830 1.377 . S
C831 C837 1.390 . S
C832 H823 0.930 . S
C832 C830 1.384 . S
C832 C833 1.372 . S
C833 C832 1.372 . S
C833 C834 1.400 . S
C833 C838 1.490 . S
C834 H824 0.930 . S
C834 C833 1.400 . S
C834 C837 1.386 . S
H835 C851 0.930 . S
H836 C852 0.931 . S
C837 H825 0.929 . S
C837 C831 1.390 . S
C837 C834 1.386 . S
C838 C833 1.490 . S
C838 C840 1.395 . S
C838 C841 1.403 . S
H839 C845 0.930 . S
C840 H826 0.930 . S
C840 C838 1.395 . S
C840 C843 1.403 . S
C841 C838 1.403 . S
C841 C842 1.524 . S
C841 C845 1.400 . S
C842 H827 0.960 . S
C842 H828 0.960 . S
C842 H829 0.960 . S
C842 C841 1.524 . S
C843 C840 1.403 . S
C843 C844 1.392 . S
C843 C847 1.495 1_545 S
C844 C843 1.392 . S
C844 C845 1.385 . S
C844 C846 1.478 . S
C845 H839 0.930 . S
C845 C841 1.400 . S
C845 C844 1.385 . S
C846 C844 1.478 . S
C846 C848 1.381 . S
C846 C852 1.383 . S
C847 C843 1.495 1_565 S
C847 H853 0.959 . S
C847 H854 0.961 . S
C847 H855 0.960 1_565 S
C848 C846 1.381 . S
C848 C849 1.394 . S
C848 H856 0.930 . S
C849 C848 1.394 . S
C849 C850 1.383 . S
C849 H857 0.929 . S
C850 C849 1.383 . S
C850 C851 1.377 . S
C851 H835 0.930 . S
C851 C850 1.377 . S
C851 C852 1.379 . S
C852 H836 0.931 . S
C852 C846 1.383 . S
C852 C851 1.379 . S
H853 C847 0.959 . S
H854 C847 0.961 . S
H855 C847 0.960 1_545 S
H856 C848 0.930 . S
H857 C849 0.929 . S
H858 C866 0.929 . S
H859 C868 0.930 . S
H860 C870 0.930 . S
H861 C873 0.929 . S
H862 C876 0.930 . S
H863 C878 0.960 . S
H864 C878 0.960 . S
H865 C878 0.960 . S
C866 H858 0.929 . S
C866 C867 1.377 . S
C866 C868 1.384 . S
C867 C866 1.377 . S
C867 C873 1.390 . S
C868 H859 0.930 . S
C868 C866 1.384 . S
C868 C869 1.372 . S
C869 C868 1.372 . S
C869 C870 1.400 . S
C869 C874 1.490 . S
C870 H860 0.930 . S
C870 C869 1.400 . S
C870 C873 1.386 . S
H871 C887 0.930 . S
H872 C888 0.931 . S
C873 H861 0.929 . S
C873 C867 1.390 . S
C873 C870 1.386 . S
C874 C869 1.490 . S
C874 C876 1.395 . S
C874 C877 1.403 . S
H875 C881 0.930 . S
C876 H862 0.930 . S
C876 C874 1.395 . S
C876 C879 1.403 . S
C877 C874 1.403 . S
C877 C878 1.524 . S
C877 C881 1.400 . S
C878 H863 0.960 . S
C878 H864 0.960 . S
C878 H865 0.960 . S
C878 C877 1.524 . S
C879 C876 1.403 . S
C879 C880 1.392 . S
C879 C883 1.495 . S
C880 C879 1.392 . S
C880 C881 1.385 . S
C880 C882 1.478 . S
C881 H875 0.930 . S
C881 C877 1.400 . S
C881 C880 1.385 . S
C882 C880 1.478 . S
C882 C884 1.381 . S
C882 C888 1.383 . S
C883 C879 1.495 . S
C883 H889 0.959 . S
C883 H890 0.961 . S
C883 H891 0.960 . S
C884 C882 1.381 . S
C884 C885 1.394 . S
C884 H892 0.930 . S
C885 C884 1.394 . S
C885 C886 1.383 . S
C885 H893 0.929 . S
C886 C885 1.383 . S
C886 C887 1.377 . S
C887 H871 0.930 . S
C887 C886 1.377 . S
C887 C888 1.379 . S
C888 H872 0.931 . S
C888 C882 1.383 . S
C888 C887 1.379 . S
H889 C883 0.959 . S
H890 C883 0.961 . S
H891 C883 0.960 . S
H892 C884 0.930 . S
H893 C885 0.929 . S
H894 C902 0.929 . S
H895 C904 0.930 . S
H896 C906 0.930 . S
H897 C909 0.929 . S
H898 C912 0.930 . S
H899 C914 0.960 . S
H900 C914 0.960 . S
H901 C914 0.960 1_545 S
C902 H894 0.929 . S
C902 C903 1.377 1_565 S
C902 C904 1.384 . S
C903 C902 1.377 1_545 S
C903 C909 1.390 . S
C904 H895 0.930 . S
C904 C902 1.384 . S
C904 C905 1.372 1_565 S
C905 C904 1.372 1_545 S
C905 C906 1.400 . S
C905 C910 1.490 . S
C906 H896 0.930 . S
C906 C905 1.400 . S
C906 C909 1.386 . S
H907 C923 0.930 . S
H908 C924 0.931 . S
C909 H897 0.929 . S
C909 C903 1.390 . S
C909 C906 1.386 . S
C910 C905 1.490 . S
C910 C912 1.395 . S
C910 C913 1.403 . S
H911 C917 0.930 . S
C912 H898 0.930 . S
C912 C910 1.395 . S
C912 C915 1.403 . S
C913 C910 1.403 . S
C913 C914 1.524 1_545 S
C913 C917 1.400 . S
C914 H899 0.960 . S
C914 H900 0.960 . S
C914 H901 0.960 1_565 S
C914 C913 1.524 1_565 S
C915 C912 1.403 . S
C915 C916 1.392 . S
C915 C919 1.495 . S
C916 C915 1.392 . S
C916 C917 1.385 . S
C916 C918 1.478 . S
C917 H911 0.930 . S
C917 C913 1.400 . S
C917 C916 1.385 . S
C918 C916 1.478 . S
C918 C920 1.381 1_545 S
C918 C924 1.383 . S
C919 C915 1.495 . S
C919 H925 0.959 . S
C919 H926 0.961 . S
C919 H927 0.960 . S
C920 C918 1.381 1_565 S
C920 C921 1.394 . S
C920 H928 0.930 . S
C921 C920 1.394 . S
C921 C922 1.383 1_565 S
C921 H929 0.929 . S
C922 C921 1.383 1_545 S
C922 C923 1.377 . S
C923 H907 0.930 . S
C923 C922 1.377 . S
C923 C924 1.379 . S
C924 H908 0.931 . S
C924 C918 1.383 . S
C924 C923 1.379 . S
H925 C919 0.959 . S
H926 C919 0.961 . S
H927 C919 0.960 . S
H928 C920 0.930 . S
H929 C921 0.929 . S
H930 C938 0.929 . S
H931 C940 0.930 . S
H932 C942 0.930 . S
H933 C945 0.929 . S
H934 C948 0.930 . S
H935 C950 0.960 . S
H936 C950 0.960 . S
H937 C950 0.960 . S
C938 H930 0.929 . S
C938 C939 1.377 . S
C938 C940 1.384 . S
C939 C938 1.377 . S
C939 C945 1.390 . S
C940 H931 0.930 . S
C940 C938 1.384 . S
C940 C941 1.372 . S
C941 C940 1.372 . S
C941 C942 1.400 . S
C941 C946 1.490 . S
C942 H932 0.930 . S
C942 C941 1.400 . S
C942 C945 1.386 . S
H943 C959 0.930 . S
H944 C960 0.917 1_556 S
C945 H933 0.929 . S
C945 C939 1.390 . S
C945 C942 1.386 . S
C946 C941 1.490 . S
C946 C948 1.395 . S
C946 C949 1.403 . S
H947 C953 0.930 . S
C948 H934 0.930 . S
C948 C946 1.395 . S
C948 C951 1.403 . S
C949 C946 1.403 . S
C949 C950 1.524 . S
C949 C953 1.400 . S
C950 H935 0.960 . S
C950 H936 0.960 . S
C950 H937 0.960 . S
C950 C949 1.524 . S
C951 C948 1.403 . S
C951 C952 1.392 . S
C951 C955 1.495 . S
C952 C951 1.392 . S
C952 C953 1.385 . S
C952 C954 1.478 . S
C953 H947 0.930 . S
C953 C949 1.400 . S
C953 C952 1.385 . S
C954 C952 1.478 . S
C954 C956 1.381 1_556 S
C954 C960 1.371 1_556 S
C955 C951 1.495 . S
C955 H961 0.959 . S
C955 H962 0.961 . S
C955 H963 0.960 . S
C956 C954 1.381 1_554 S
C956 C957 1.394 . S
C956 H964 0.930 1_554 S
C957 C956 1.394 . S
C957 C958 1.383 . S
C957 H965 0.929 . S
C958 C957 1.383 . S
C958 C959 1.377 . S
C959 H943 0.930 . S
C959 C958 1.377 . S
C959 C960 1.405 . S
C960 H944 0.917 1_554 S
C960 C954 1.371 1_554 S
C960 C959 1.405 . S
H961 C955 0.959 . S
H962 C955 0.961 . S
H963 C955 0.960 . S
H964 C956 0.930 1_556 S
H965 C957 0.929 . S
H966 C974 0.929 . S
H967 C976 0.930 . S
H968 C978 0.930 . S
H969 C981 0.929 . S
H970 C984 0.930 . S
H971 C986 0.960 . S
H972 C986 0.960 . S
H973 C986 0.960 . S
C974 H966 0.929 . S
C974 C975 1.377 . S
C974 C976 1.384 . S
C975 C974 1.377 . S
C975 C981 1.390 1_455 S
C976 H967 0.930 . S
C976 C974 1.384 . S
C976 C977 1.372 . S
C977 C976 1.372 . S
C977 C978 1.400 1_455 S
C977 C982 1.490 . S
C978 H968 0.930 . S
C978 C977 1.400 1_655 S
C978 C981 1.386 . S
H979 C995 0.930 . S
H980 C996 0.931 . S
C981 H969 0.929 . S
C981 C975 1.390 1_655 S
C981 C978 1.386 . S
C982 C977 1.490 . S
C982 C984 1.395 . S
C982 C985 1.403 1_455 S
H983 C989 0.930 . S
C984 H970 0.930 . S
C984 C982 1.395 . S
C984 C987 1.403 . S
C985 C982 1.403 1_655 S
C985 C986 1.524 . S
C985 C989 1.400 . S
C986 H971 0.960 . S
C986 H972 0.960 . S
C986 H973 0.960 . S
C986 C985 1.524 . S
C987 C984 1.403 . S
C987 C988 1.392 . S
C987 C991 1.495 . S
C988 C987 1.392 . S
C988 C989 1.385 1_455 S
C988 C990 1.478 . S
C989 H983 0.930 . S
C989 C985 1.400 . S
C989 C988 1.385 1_655 S
C990 C988 1.478 . S
C990 C992 1.381 . S
C990 C996 1.383 1_455 S
C991 C987 1.495 . S
C991 H997 0.959 . S
C991 H998 0.961 . S
C991 H999 0.960 . S
C992 C990 1.381 . S
C992 C993 1.394 . S
C992 H1000 0.930 . S
C993 C992 1.394 . S
C993 C994 1.383 1_455 S
C993 H1001 0.929 . S
C994 C993 1.383 1_655 S
C994 C995 1.377 . S
C995 H979 0.930 . S
C995 C994 1.377 . S
C995 C996 1.379 . S
C996 H980 0.931 . S
C996 C990 1.383 1_655 S
C996 C995 1.379 . S
H997 C991 0.959 . S
H998 C991 0.961 . S
H999 C991 0.960 . S
H1000 C992 0.930 . S
H1001 C993 0.929 . S
C363 C19 1.869 . S
C382 C331 1.834 . S
C399 C46 1.152 . S
C418 C258 1.144 . S
C435 C95 0.310 . S
C454 C297 0.235 . S
C471 C10 1.945 . S
C490 C336 1.910 . S
C526 C253 1.258 . S
C507 C55 1.249 . S
C562 C292 0.469 . S
C543 C86 0.440 . S
C579 C59 3.061 . S
C598 C180 3.023 . S
C615 C90 1.987 . S
C634 C214 1.968 . S
C651 C15 1.231 . S
C670 C136 1.249 . S
C706 C175 2.890 . S
C687 C50 2.925 . S
C742 C219 1.797 . S
C723 C99 1.839 . S
C759 C6 1.157 . S
C778 C141 1.146 . S
C814 C199 1.378 . S
C795 C9 1.336 . S
C831 C58 1.453 . S
C850 C121 1.504 . S
C867 C98 1.688 . S
C886 C160 1.758 . S
C922 C277 1.105 . S
C903 C49 1.091 . S
C958 C316 1.365 . S
C939 C89 1.327 . S
C975 C18 1.443 . S
C994 C238 1.484 . S
