# Generated by pormake.
# Topology anh, (6,3)-cn, num edge types: 1
# Building blocks:
#     Node 0, Type 0, BuildingBlock: VOLQOD_clean_sbu_1, # of connection points: 6
#     Node 1, Type 0, BuildingBlock: VOLQOD_clean_sbu_1, # of connection points: 6
#     Node 2, Type 0, BuildingBlock: VOLQOD_clean_sbu_1, # of connection points: 6
#     Node 3, Type 1, BuildingBlock: CUQRIR_clean_linker_1, # of connection points: 3
#     Node 4, Type 1, BuildingBlock: CUQRIR_clean_linker_1, # of connection points: 3
#     Node 5, Type 1, BuildingBlock: CUQRIR_clean_linker_1, # of connection points: 3
#     Node 6, Type 1, BuildingBlock: CUQRIR_clean_linker_1, # of connection points: 3
#     Node 7, Type 1, BuildingBlock: CUQRIR_clean_linker_1, # of connection points: 3
#     Node 8, Type 1, BuildingBlock: CUQRIR_clean_linker_1, # of connection points: 3
#     Edge 9, Type (0, 1), BuildingBlock: FUNLAD_clean_linker_0, # of connection points: 2
#     Edge 10, Type (0, 1), BuildingBlock: FUNLAD_clean_linker_0, # of connection points: 2
#     Edge 11, Type (0, 1), BuildingBlock: FUNLAD_clean_linker_0, # of connection points: 2
#     Edge 12, Type (0, 1), BuildingBlock: FUNLAD_clean_linker_0, # of connection points: 2
#     Edge 13, Type (0, 1), BuildingBlock: FUNLAD_clean_linker_0, # of connection points: 2
#     Edge 14, Type (0, 1), BuildingBlock: FUNLAD_clean_linker_0, # of connection points: 2
#     Edge 15, Type (0, 1), BuildingBlock: FUNLAD_clean_linker_0, # of connection points: 2
#     Edge 16, Type (0, 1), BuildingBlock: FUNLAD_clean_linker_0, # of connection points: 2
#     Edge 17, Type (0, 1), BuildingBlock: FUNLAD_clean_linker_0, # of connection points: 2
#     Edge 18, Type (0, 1), BuildingBlock: FUNLAD_clean_linker_0, # of connection points: 2
#     Edge 19, Type (0, 1), BuildingBlock: FUNLAD_clean_linker_0, # of connection points: 2
#     Edge 20, Type (0, 1), BuildingBlock: FUNLAD_clean_linker_0, # of connection points: 2
#     Edge 21, Type (0, 1), BuildingBlock: FUNLAD_clean_linker_0, # of connection points: 2
#     Edge 22, Type (0, 1), BuildingBlock: FUNLAD_clean_linker_0, # of connection points: 2
#     Edge 23, Type (0, 1), BuildingBlock: FUNLAD_clean_linker_0, # of connection points: 2
#     Edge 24, Type (0, 1), BuildingBlock: FUNLAD_clean_linker_0, # of connection points: 2
#     Edge 25, Type (0, 1), BuildingBlock: FUNLAD_clean_linker_0, # of connection points: 2
#     Edge 26, Type (0, 1), BuildingBlock: FUNLAD_clean_linker_0, # of connection points: 2
# Relax obj value: 0.186
# Max RMSD: 0.221
# Mean RMSD: 0.171
data_MOF--net-anh--node1-VOLQOD_clean_sbu_1--node2-CUQRIR_clean_linker_1--edge1-FUNLAD_clean_linker_0
_symmetry_space_group_name_H-M    P1
_symmetry_Int_Tables_number       1
_symmetry_cell_setting            triclinic
loop_
_symmetry_equiv_pos_as_xyz
'x, y, z'
_cell_length_a     31.854422
_cell_length_b     31.743705
_cell_length_c     62.444353
_cell_angle_alpha  85.235551
_cell_angle_beta   90.084103
_cell_angle_gamma 120.39779
loop_
_atom_site_label
_atom_site_type_symbol
_atom_site_fract_x
_atom_site_fract_y
_atom_site_fract_z
_atom_type_partial_charge
O0 O 0.97643 0.50851 0.21152 0.0
Zn1 Zn 0.98704 0.52391 0.17926 0.0
O2 O -0.00162 0.47674 0.16597 0.0
Zn3 Zn 0.94642 0.43927 0.14718 0.0
Zn4 Zn 0.00302 0.43294 0.1886 0.0
Zn5 Zn 0.05767 0.51152 0.14812 0.0
O6 O 0.97078 0.4416 0.11693 0.0
O7 O 0.04633 0.50448 0.11668 0.0
O8 O 0.93096 0.52735 0.16606 0.0
O9 O 0.90421 0.469 0.14368 0.0
O10 O 0.90496 0.36971 0.16012 0.0
O11 O 0.94455 0.36492 0.18869 0.0
O12 O 0.06508 0.43063 0.18487 0.0
O13 O 0.04652 0.59132 0.175 0.0
O14 O 0.09969 0.48391 0.15601 0.0
O15 O 0.0957 0.58267 0.15303 0.0
C16 C 0.98722 0.48274 0.22459 0.0
C17 C 0.01084 0.4727 0.10685 0.0
C18 C 0.90855 0.34545 0.17661 0.0
C19 C 0.90197 0.50333 0.1518 0.0
C20 C 0.09962 0.45333 0.17054 0.0
C21 C 0.08682 0.60913 0.1643 0.0
O22 O 0.00112 0.45473 0.21784 0.0
O23 O 0.59564 0.0829 0.45168 0.0
Zn24 Zn 0.5751 0.07354 0.48279 0.0
O25 O 0.61679 0.05861 0.50033 0.0
Zn26 Zn 0.65688 0.11247 0.51714 0.0
Zn27 Zn 0.65743 0.0457 0.48167 0.0
Zn28 Zn 0.57624 0.00221 0.52028 0.0
O29 O 0.64654 0.09181 0.54904 0.0
O30 O 0.57717 0.02041 0.55042 0.0
O31 O 0.57553 0.13366 0.49111 0.0
O32 O 0.63724 0.1632 0.51291 0.0
O33 O 0.72741 0.14507 0.50758 0.0
O34 O 0.72706 0.10218 0.4811 0.0
O35 O 0.65544 0.98246 0.49296 0.0
O36 O 0.50673 0.01623 0.48484 0.0
O37 O 0.60401 0.95855 0.52154 0.0
O38 O 0.50723 0.96399 0.51059 0.0
C39 C 0.61635 0.06517 0.44115 0.0
C40 C 0.61033 0.05581 0.55975 0.0
C41 C 0.74948 0.13807 0.49252 0.0
C42 C 0.60403 0.16651 0.50291 0.0
C43 C 0.63359 0.95363 0.50983 0.0
C44 C 0.4852 0.97499 0.49613 0.0
O45 O 0.63732 0.04416 0.4507 0.0
O46 O 0.51001 0.58157 0.78984 0.0
Zn47 Zn 0.50395 0.56473 0.82204 0.0
O48 O 0.56136 0.61304 0.83585 0.0
Zn49 Zn 0.54397 0.64696 0.85551 0.0
Zn50 Zn 0.60928 0.65993 0.81367 0.0
Zn51 Zn 0.58891 0.58005 0.85278 0.0
O52 O 0.56348 0.64083 0.88604 0.0
O53 O 0.58029 0.58139 0.88441 0.0
O54 O 0.44263 0.55941 0.83424 0.0
O55 O 0.47131 0.61618 0.8574 0.0
O56 O 0.57191 0.71783 0.84439 0.0
O57 O 0.61432 0.72553 0.8146 0.0
O58 O 0.6762 0.66824 0.81797 0.0
O59 O 0.49757 0.49808 0.82641 0.0
O60 O 0.66053 0.61481 0.84655 0.0
O61 O 0.55967 0.51004 0.84639 0.0
C62 C 0.54628 0.61023 0.77697 0.0
C63 C 0.57353 0.60984 0.89523 0.0
C64 C 0.59813 0.74337 0.82765 0.0
C65 C 0.43577 0.58234 0.84837 0.0
C66 C 0.69018 0.64796 0.83246 0.0
C67 C 0.52285 0.48218 0.83602 0.0
O68 O 0.58765 0.63989 0.78396 0.0
C69 C 0.46394 -0.00375 0.22618 0.0
N70 N 0.50213 0.01687 0.23902 0.0
N71 N 0.42489 0.95822 0.23725 0.0
C72 C 0.466 0.01028 0.20241 0.0
C73 C 0.44077 0.95596 0.25719 0.0
N74 N 0.48795 0.99159 0.25826 0.0
C75 C 0.40926 0.92058 0.27577 0.0
H76 H 0.45667 0.03955 0.19993 0.0
H77 H 0.43956 0.97856 0.19396 0.0
H78 H 0.50309 0.02458 0.19518 0.0
H79 H 0.41428 0.88834 0.27701 0.0
H80 H 0.3702 0.90755 0.27333 0.0
H81 H 0.41964 0.93795 0.29109 0.0
C82 C 0.51836 0.50431 0.55773 0.0
N83 N 0.52661 0.53922 0.57093 0.0
N84 N 0.51377 0.4639 0.56915 0.0
C85 C 0.52104 0.512 0.53351 0.0
C86 C 0.52019 0.47578 0.58969 0.0
N87 N 0.52824 0.52162 0.59077 0.0
C88 C 0.51857 0.44249 0.60866 0.0
H89 H 0.48452 0.50278 0.52795 0.0
H90 H 0.5321 0.4883 0.52614 0.0
H91 H 0.54722 0.55081 0.52774 0.0
H92 H 0.5562 0.45109 0.61194 0.0
H93 H 0.49673 0.40345 0.60536 0.0
H94 H 0.50288 0.44828 0.62322 0.0
C95 C 0.04012 0.57319 0.87724 0.0
N96 N 0.05593 0.56009 0.89535 0.0
N97 N 0.00795 0.58712 0.8823 0.0
C98 C 0.05964 0.57718 0.85477 0.0
C99 C 0.00477 0.58223 0.90405 0.0
N100 N 0.03416 0.5661 0.912 0.0
C101 C 0.97166 0.59165 0.91743 0.0
H102 H 0.09933 0.59082 0.85463 0.0
H103 H 0.05301 0.60205 0.84362 0.0
H104 H 0.04111 0.54024 0.84886 0.0
H105 H 0.93931 0.5858 0.90846 0.0
H106 H -0.00817 0.63032 0.92135 0.0
H107 H 0.9595 0.56737 0.93271 0.0
C108 C 0.09373 0.57062 0.44662 0.0
N109 N 0.06806 0.54112 0.43127 0.0
N110 N 0.12007 0.61795 0.43811 0.0
C111 C 0.09481 0.55298 0.46964 0.0
C112 C 0.10921 0.61617 0.41709 0.0
N113 N 0.07724 0.56954 0.41298 0.0
C114 C 0.13241 0.65934 0.40028 0.0
H115 H 0.10285 0.58154 0.48061 0.0
H116 H 0.12391 0.54358 0.47092 0.0
H117 H 0.05952 0.51979 0.47502 0.0
H118 H 0.159 0.65614 0.39009 0.0
H119 H 0.15141 0.69463 0.40762 0.0
H120 H 0.10458 0.65954 0.38968 0.0
C121 C 0.50967 0.08963 0.77965 0.0
N122 N 0.51929 0.06659 0.76478 0.0
N123 N 0.49547 0.11996 0.77008 0.0
C124 C 0.51099 0.08022 0.80359 0.0
C125 C 0.49664 0.11444 0.74885 0.0
N126 N 0.51067 0.08161 0.74566 0.0
C127 C 0.4889 0.14469 0.73115 0.0
H128 H 0.50162 0.04177 0.80805 0.0
H129 H 0.48526 0.08748 0.81226 0.0
H130 H 0.5483 0.10501 0.80876 0.0
H131 H 0.51021 0.14927 0.71622 0.0
H132 H 0.49951 0.18147 0.73605 0.0
H133 H 0.4497 0.12572 0.72762 0.0
C134 C 0.53215 0.54364 0.12576 0.0
N135 N 0.56063 0.55539 0.10771 0.0
N136 N 0.49785 0.55622 0.1225 0.0
C137 C 0.53864 0.52118 0.14675 0.0
C138 C 0.50637 0.57595 0.10176 0.0
N139 N 0.54511 0.576 0.0928 0.0
C140 C 0.47351 0.58978 0.08964 0.0
H141 H 0.51933 0.48074 0.14651 0.0
H142 H 0.52326 0.52995 0.16048 0.0
H143 H 0.57778 0.53442 0.14907 0.0
H144 H 0.43582 0.56922 0.09686 0.0
H145 H 0.47248 0.58251 0.07252 0.0
H146 H 0.48773 0.62956 0.09029 0.0
C147 C 0.17342 0.46286 0.15245 0.0
C148 C 0.14258 0.44732 0.17102 0.0
C149 C 0.21846 0.46611 0.15326 0.0
C150 C 0.2338 0.45391 0.17264 0.0
C151 C 0.20168 0.43443 0.19084 0.0
C152 C 0.15616 0.43132 0.19008 0.0
C153 C 0.28441 0.46431 0.17359 0.0
C154 C 0.32088 0.50895 0.16586 0.0
C155 C 0.37036 0.5205 0.15903 0.0
C156 C 0.38114 0.48372 0.1554 0.0
C157 C 0.42441 0.4959 0.14429 0.0
C158 C 0.45732 0.54475 0.13665 0.0
H159 H 0.39764 0.59875 0.15503 0.0
C160 C 0.44817 0.58174 0.1414 0.0
C161 C 0.40506 0.56971 0.15253 0.0
H162 H 0.4735 0.61962 0.13567 0.0
H163 H 0.1636 0.47441 0.13739 0.0
H164 H 0.24216 0.47983 0.13884 0.0
H165 H 0.21277 0.42418 0.20585 0.0
H166 H 0.1329 0.41892 0.20459 0.0
H167 H 0.29081 0.43486 0.17917 0.0
H168 H 0.31236 0.53786 0.16213 0.0
H169 H 0.35521 0.44533 0.15978 0.0
H170 H 0.43092 0.46693 0.14055 0.0
C171 C 0.8186 0.18396 0.46508 0.0
C172 C 0.80047 0.1763 0.48644 0.0
C173 C 0.86281 0.22605 0.45821 0.0
C174 C 0.88991 0.2608 0.47267 0.0
C175 C 0.87387 0.25099 0.49437 0.0
C176 C 0.82926 0.20943 0.50117 0.0
C177 C 0.93276 0.30916 0.46531 0.0
C178 C 0.9333 0.3345 0.44681 0.0
C179 C 0.97007 0.38707 0.44151 0.0
C180 C 0.95553 0.41778 0.43065 0.0
C181 C 0.98794 0.46825 0.42707 0.0
C182 C 0.0357 0.48875 0.43394 0.0
H183 H 0.03125 0.38442 0.45547 0.0
C184 C 0.05115 0.45779 0.44373 0.0
C185 C 0.01854 0.40736 0.44764 0.0
H186 H 0.08834 0.47275 0.44852 0.0
H187 H 0.79732 0.15903 0.45336 0.0
H188 H 0.87498 0.23213 0.44146 0.0
H189 H 0.89442 0.27703 0.50585 0.0
H190 H 0.81641 0.20426 0.51777 0.0
H191 H 0.96078 0.32711 0.47673 0.0
H192 H 0.90241 0.31825 0.43658 0.0
H193 H 0.91847 0.40296 0.42564 0.0
H194 H 0.9754 0.49153 0.41945 0.0
C195 C 0.61932 0.81502 0.80079 0.0
C196 C 0.60526 0.79282 0.822 0.0
C197 C 0.61869 0.85795 0.79452 0.0
C198 C 0.60439 0.87971 0.8094 0.0
C199 C 0.59375 0.85957 0.83091 0.0
C200 C 0.59368 0.81623 0.83713 0.0
C201 C 0.5981 0.92199 0.80275 0.0
C202 C 0.57988 0.92609 0.78372 0.0
C203 C 0.56649 0.96392 0.77814 0.0
C204 C 0.52671 0.95254 0.76519 0.0
C205 C 0.51135 0.98635 0.76067 0.0
C206 C 0.53607 0.03236 0.76873 0.0
H207 H 0.62388 0.02118 0.7951 0.0
C208 C 0.57705 0.0446 0.78092 0.0
C209 C 0.59212 0.01066 0.78566 0.0
H210 H 0.59731 0.08046 0.78678 0.0
H211 H 0.62875 0.79813 0.78875 0.0
H212 H 0.62848 0.87351 0.77794 0.0
H213 H 0.5832 0.8761 0.84271 0.0
H214 H 0.58314 0.80031 0.85364 0.0
H215 H 0.60321 0.94694 0.81472 0.0
H216 H 0.56983 0.89791 0.77277 0.0
H217 H 0.50662 0.9169 0.75907 0.0
H218 H 0.47962 0.9763 0.75125 0.0
C219 C 0.83898 0.49515 0.12591 0.0
C220 C 0.8662 0.51667 0.1437 0.0
C221 C 0.80573 0.50801 0.11788 0.0
C222 C 0.79843 0.54228 0.12766 0.0
C223 C 0.8264 0.56464 0.14511 0.0
C224 C 0.8599 0.55192 0.15311 0.0
C225 C 0.76146 0.55487 0.12037 0.0
C226 C 0.72112 0.52367 0.11062 0.0
C227 C 0.68038 0.53273 0.1069 0.0
C228 C 0.68793 0.58035 0.10247 0.0
C229 C 0.64819 0.58763 0.10158 0.0
C230 C 0.60079 0.54757 0.10522 0.0
H231 H 0.62593 0.45549 0.11213 0.0
C232 C 0.59311 0.49994 0.10833 0.0
C233 C 0.63264 0.49253 0.10896 0.0
H234 H 0.55649 0.46874 0.11094 0.0
H235 H 0.84357 0.46854 0.118 0.0
H236 H 0.78622 0.49126 0.10391 0.0
H237 H 0.82173 0.59143 0.15283 0.0
H238 H 0.88061 0.56952 0.16671 0.0
H239 H 0.76518 0.5887 0.12515 0.0
H240 H 0.71473 0.48766 0.10775 0.0
H241 H 0.72435 0.61196 0.10015 0.0
H242 H 0.65437 0.62454 0.09903 0.0
C243 C 0.40947 0.89204 0.50302 0.0
C244 C 0.43573 0.93737 0.4905 0.0
C245 C 0.36597 0.85423 0.49593 0.0
C246 C 0.34817 0.86103 0.47609 0.0
C247 C 0.37344 0.90681 0.46402 0.0
C248 C 0.41643 0.94472 0.47121 0.0
C249 C 0.30663 0.81996 0.46643 0.0
C250 C 0.26949 0.78139 0.47797 0.0
C251 C 0.23092 0.73951 0.46747 0.0
C252 C 0.18239 0.71639 0.47543 0.0
C253 C 0.14572 0.67684 0.4656 0.0
C254 C 0.15736 0.65899 0.44811 0.0
H255 H 0.2797 0.73786 0.44373 0.0
C256 C 0.20594 0.68152 0.44038 0.0
C257 C 0.24241 0.72156 0.44989 0.0
H258 H 0.21552 0.66783 0.42703 0.0
H259 H 0.42337 0.88514 0.51793 0.0
H260 H 0.34786 0.81906 0.50545 0.0
H261 H 0.36056 0.91289 0.44865 0.0
H262 H 0.43565 0.97906 0.4611 0.0
H263 H 0.30647 0.82192 0.44896 0.0
H264 H 0.26637 0.78107 0.49531 0.0
H265 H 0.17276 0.72946 0.48902 0.0
H266 H 0.10828 0.66013 0.4716 0.0
C267 C 0.47202 0.40022 0.82183 0.0
C268 C 0.51097 0.4312 0.83406 0.0
C269 C 0.46376 0.35377 0.81831 0.0
C270 C 0.49459 0.33748 0.82686 0.0
C271 C 0.53178 0.3674 0.84002 0.0
C272 C 0.54002 0.41377 0.84355 0.0
C273 C 0.49113 0.29099 0.82171 0.0
C274 C 0.47016 0.26814 0.80414 0.0
C275 C 0.47522 0.2274 0.79707 0.0
C276 C 0.43969 0.19388 0.78427 0.0
C277 C 0.44562 0.15765 0.77585 0.0
C278 C 0.48751 0.15486 0.77987 0.0
H279 H 0.5461 0.25034 0.81029 0.0
C280 C 0.52292 0.1881 0.79272 0.0
C281 C 0.51695 0.22406 0.80124 0.0
H282 H 0.55602 0.18722 0.79555 0.0
H283 H 0.44845 0.41219 0.81456 0.0
H284 H 0.43353 0.33124 0.80875 0.0
H285 H 0.55577 0.35563 0.84701 0.0
H286 H 0.57006 0.43643 0.85324 0.0
H287 H 0.51001 0.27728 0.83198 0.0
H288 H 0.45037 0.28064 0.79387 0.0
H289 H 0.40754 0.19604 0.7806 0.0
H290 H 0.41793 0.13221 0.76596 0.0
C291 C 0.63722 0.87958 0.50205 0.0
C292 C 0.64171 0.91298 0.51652 0.0
C293 C 0.63469 0.83559 0.50972 0.0
C294 C 0.63748 0.82514 0.53187 0.0
C295 C 0.64612 0.86055 0.54593 0.0
C296 C 0.64746 0.90378 0.53838 0.0
C297 C 0.62782 0.77644 0.54109 0.0
C298 C 0.59151 0.73481 0.53429 0.0
C299 C 0.57487 0.68527 0.54529 0.0
C300 C 0.52736 0.64732 0.54216 0.0
C301 C 0.51062 0.59977 0.55155 0.0
C302 C 0.54118 0.58924 0.56414 0.0
H303 H 0.64241 0.70252 0.56069 0.0
C304 C 0.58832 0.62704 0.56767 0.0
C305 C 0.60519 0.67471 0.5583 0.0
H306 H 0.61276 0.61913 0.57688 0.0
H307 H 0.63262 0.88603 0.48513 0.0
H308 H 0.62907 0.8092 0.49847 0.0
H309 H 0.6488 0.85345 0.56301 0.0
H310 H 0.65117 0.92928 0.54978 0.0
H311 H 0.64626 0.7751 0.55554 0.0
H312 H 0.5703 0.73733 0.5211 0.0
H313 H 0.50325 0.65436 0.53221 0.0
H314 H 0.47431 0.57074 0.54852 0.0
C315 C 0.7623 0.67184 0.85419 0.0
C316 C 0.74201 0.66387 0.83394 0.0
C317 C 0.80933 0.6805 0.85674 0.0
C318 C 0.83644 0.67984 0.83925 0.0
C319 C 0.81713 0.67424 0.81868 0.0
C320 C 0.77021 0.66679 0.81602 0.0
C321 C 0.88267 0.6811 0.8437 0.0
C322 C 0.89597 0.65267 0.8343 0.0
C323 C 0.9313 0.64007 0.84403 0.0
C324 C 0.92518 0.59371 0.8415 0.0
C325 C 0.95189 0.57696 0.85346 0.0
C326 C 0.98507 0.60638 0.86806 0.0
H327 H 0.9749 0.70765 0.85916 0.0
C328 C -0.00616 0.65392 0.86952 0.0
C329 C 0.96758 0.67093 0.85745 0.0
H330 H 0.02021 0.67733 0.88043 0.0
H331 H 0.74121 0.67008 0.86819 0.0
H332 H 0.8235 0.68499 0.8727 0.0
H333 H 0.8377 0.6745 0.80484 0.0
H334 H 0.75508 0.66076 0.80026 0.0
H335 H 0.90082 0.6986 0.85785 0.0
H336 H 0.87465 0.63158 0.82145 0.0
H337 H 0.89785 0.56936 0.83115 0.0
H338 H 0.94514 0.54027 0.8521 0.0
C339 C 0.11969 0.68755 0.18167 0.0
C340 C 0.12632 0.65961 0.16715 0.0
C341 C 0.15935 0.73115 0.18742 0.0
C342 C 0.2064 0.74777 0.17863 0.0
C343 C 0.21237 0.72147 0.1631 0.0
C344 C 0.17278 0.67799 0.15733 0.0
C345 C 0.25063 0.78819 0.18715 0.0
C346 C 0.25083 0.8225 0.1985 0.0
C347 C 0.29497 0.85719 0.2092 0.0
C348 C 0.30666 0.906 0.20989 0.0
C349 C 0.34916 0.93927 0.21941 0.0
C350 C 0.37966 0.92371 0.22878 0.0
H351 H 0.31626 0.80377 0.21938 0.0
C352 C 0.36709 0.87461 0.22883 0.0
C353 C 0.32513 0.84156 0.2191 0.0
H354 H 0.39045 0.86224 0.23598 0.0
H355 H 0.08437 0.67448 0.18952 0.0
H356 H 0.15324 0.74985 0.19969 0.0
H357 H 0.2482 0.73347 0.15608 0.0
H358 H 0.17919 0.6576 0.14599 0.0
H359 H 0.28469 0.78885 0.18442 0.0
H360 H 0.21875 0.82596 0.19976 0.0
H361 H 0.2836 0.91862 0.2026 0.0
H362 H 0.35858 0.97719 0.21934 0.0
C363 C 0.5531 0.20629 0.50149 0.0
C364 C 0.59717 0.20819 0.50618 0.0
C365 C 0.54511 0.24367 0.50682 0.0
C366 C 0.58128 0.2837 0.51683 0.0
C367 C 0.62616 0.28676 0.52039 0.0
C368 C 0.63394 0.24928 0.51529 0.0
C369 C 0.57365 0.32234 0.52447 0.0
C370 C 0.52976 0.31514 0.53049 0.0
C371 C 0.52485 0.35246 0.54119 0.0
C372 C 0.48375 0.3572 0.53794 0.0
C373 C 0.47939 0.39321 0.54752 0.0
C374 C 0.51568 0.42421 0.56073 0.0
H375 H 0.5915 0.37878 0.55859 0.0
C376 C 0.55581 0.41835 0.5646 0.0
C377 C 0.56029 0.38266 0.55504 0.0
H378 H 0.58426 0.44225 0.57465 0.0
H379 H 0.52421 0.17522 0.49432 0.0
H380 H 0.5106 0.24086 0.50322 0.0
H381 H 0.65482 0.31746 0.52786 0.0
H382 H 0.66853 0.25214 0.51887 0.0
H383 H 0.60617 0.35715 0.52674 0.0
H384 H 0.49667 0.28107 0.52803 0.0
H385 H 0.45565 0.33386 0.5276 0.0
H386 H 0.44823 0.39748 0.54442 0.0
C387 C 0.37778 0.59365 0.87072 0.0
C388 C 0.38557 0.56936 0.85473 0.0
C389 C 0.33075 0.58212 0.87673 0.0
C390 C 0.29017 0.54563 0.86701 0.0
C391 C 0.2979 0.52143 0.85099 0.0
C392 C 0.34508 0.53294 0.84497 0.0
C393 C 0.23993 0.53493 0.87196 0.0
C394 C 0.22635 0.54441 0.89056 0.0
C395 C 0.17953 0.54295 0.8937 0.0
C396 C 0.1783 0.57665 0.90651 0.0
C397 C 0.13694 0.58098 0.90771 0.0
C398 C 0.09576 0.55099 0.89647 0.0
H399 H 0.13638 0.48349 0.87397 0.0
C400 C 0.09566 0.51505 0.88481 0.0
C401 C 0.13725 0.51102 0.88338 0.0
H402 H 0.06383 0.49112 0.87632 0.0
H403 H 0.40809 0.62213 0.87849 0.0
H404 H 0.32678 0.60311 0.88853 0.0
H405 H 0.26734 0.49367 0.84303 0.0
H406 H 0.34977 0.51357 0.83256 0.0
H407 H 0.21416 0.52099 0.85934 0.0
H408 H 0.25197 0.55818 0.90323 0.0
H409 H 0.21029 0.60145 0.91471 0.0
H410 H 0.13792 0.60931 0.91659 0.0
C411 C 0.82604 0.27463 0.17071 0.0
C412 C 0.86716 0.2957 0.18327 0.0
C413 C 0.78361 0.23196 0.17864 0.0
C414 C 0.78133 0.20961 0.19936 0.0
C415 C 0.82352 0.22825 0.21117 0.0
C416 C 0.86606 0.27108 0.20326 0.0
C417 C 0.73483 0.16847 0.20934 0.0
C418 C 0.69203 0.16603 0.20561 0.0
C419 C 0.64431 0.12769 0.21587 0.0
C420 C 0.60513 0.13621 0.21464 0.0
C421 C 0.5588 0.10038 0.22287 0.0
C422 C 0.55071 0.05527 0.23243 0.0
H423 H 0.66498 0.07397 0.22681 0.0
C424 C 0.58972 0.04677 0.23417 0.0
C425 C 0.63622 0.08259 0.22589 0.0
H426 H 0.58372 0.01174 0.24128 0.0
H427 H 0.82587 0.2921 0.15508 0.0
H428 H 0.75227 0.21726 0.16873 0.0
H429 H 0.82286 0.21115 0.22702 0.0
H430 H 0.89725 0.28603 0.21327 0.0
H431 H 0.73674 0.14273 0.22129 0.0
H432 H 0.69198 0.19506 0.19509 0.0
H433 H 0.61022 0.17053 0.20703 0.0
H434 H 0.52895 0.1074 0.22149 0.0
C435 C 0.05959 0.50833 0.07187 0.0
C436 C 0.01569 0.47373 0.08316 0.0
C437 C 0.06324 0.51221 0.04943 0.0
C438 C 0.02291 0.48174 0.0377 0.0
C439 C 0.97983 0.44558 0.04899 0.0
C440 C 0.97612 0.44172 0.07147 0.0
C441 C 0.02421 0.48754 0.01379 0.0
C442 C 0.05199 0.53119 0.00225 0.0
C443 C 0.04926 0.53934 0.97865 0.0
C444 C 0.06054 0.58623 0.96981 0.0
C445 C 0.05622 0.5951 0.94789 0.0
C446 C 0.04118 0.55744 0.93433 0.0
H447 H 0.02814 0.46576 0.97101 0.0
C448 C 0.03185 0.51108 0.94285 0.0
C449 C 0.03569 0.50194 0.96488 0.0
H450 H 0.02062 0.48179 0.93249 0.0
H451 H 0.09107 0.53311 0.08034 0.0
H452 H 0.09766 0.53929 0.04135 0.0
H453 H 0.9484 0.42124 0.04036 0.0
H454 H 0.94188 0.41437 0.07964 0.0
H455 H -0.00182 0.45615 0.00573 0.0
H456 H 0.07438 0.56351 0.01059 0.0
H457 H 0.07166 0.61584 0.97998 0.0
H458 H 0.06434 0.63131 0.94146 0.0
C459 C 0.62997 0.04296 0.40504 0.0
C460 C 0.61376 0.0675 0.41741 0.0
C461 C 0.62384 0.04253 0.38282 0.0
C462 C 0.60119 0.06657 0.37257 0.0
C463 C 0.5871 0.09281 0.38484 0.0
C464 C 0.5931 0.09316 0.40695 0.0
C465 C 0.58995 0.06434 0.34942 0.0
C466 C 0.58606 0.02899 0.33758 0.0
C467 C 0.56572 0.02201 0.31581 0.0
C468 C 0.54468 0.9752 0.30844 0.0
C469 C 0.52047 0.96557 0.2892 0.0
C470 C 0.51682 0.00257 0.27697 0.0
H471 H 0.58212 0.09698 0.30727 0.0
C472 C 0.54008 0.05003 0.2836 0.0
C473 C 0.56468 0.05987 0.30274 0.0
H474 H 0.53797 0.07915 0.27427 0.0
H475 H 0.64655 0.0233 0.41256 0.0
H476 H 0.63671 0.02319 0.37388 0.0
H477 H 0.57003 0.11209 0.3774 0.0
H478 H 0.58065 0.11295 0.41587 0.0
H479 H 0.57947 0.0901 0.34267 0.0
H480 H 0.59283 0.00084 0.34482 0.0
H481 H 0.54553 0.94551 0.31795 0.0
H482 H 0.50375 0.92899 0.28405 0.0
C483 C 0.58009 0.63893 0.73885 0.0
C484 C 0.54053 0.60822 0.75343 0.0
C485 C 0.57533 0.63537 0.71671 0.0
C486 C 0.5309 0.60072 0.70863 0.0
C487 C 0.49093 0.57142 0.72313 0.0
C488 C 0.49567 0.57493 0.74526 0.0
C489 C 0.52502 0.59309 0.68537 0.0
C490 C 0.56231 0.60278 0.67176 0.0
C491 C 0.55523 0.58699 0.64965 0.0
C492 C 0.5881 0.57505 0.64097 0.0
C493 C 0.58012 0.55522 0.62123 0.0
C494 C 0.53956 0.54768 0.60965 0.0
H495 H 0.49077 0.59218 0.64329 0.0
C496 C 0.50832 0.56245 0.6175 0.0
C497 C 0.51594 0.58187 0.63742 0.0
H498 H 0.47709 0.55715 0.60859 0.0
H499 H 0.615 0.6655 0.74453 0.0
H500 H 0.60656 0.65985 0.70605 0.0
H501 H 0.45614 0.54474 0.71736 0.0
H502 H 0.46429 0.55097 0.75598 0.0
H503 H 0.48807 0.57408 0.67991 0.0
H504 H 0.59868 0.61752 0.6777 0.0
H505 H 0.61897 0.5792 0.64989 0.0
H506 H 0.60491 0.54459 0.61517 0.0
C507 C 0.56687 0.01605 0.59559 0.0
C508 C 0.6058 0.05593 0.58335 0.0
C509 C 0.56097 0.0173 0.61765 0.0
C510 C 0.5937 0.05874 0.62795 0.0
C511 C 0.63361 0.0977 0.61589 0.0
C512 C 0.63957 0.09644 0.59383 0.0
C513 C 0.58715 0.06308 0.65108 0.0
C514 C 0.5434 0.03927 0.66184 0.0
C515 C 0.53564 0.04803 0.68411 0.0
C516 C 0.48925 0.03862 0.69062 0.0
C517 C 0.48093 0.04891 0.71097 0.0
C518 C 0.5187 0.06833 0.72525 0.0
H519 H 0.6089 0.07217 0.69471 0.0
C520 C 0.56464 0.07616 0.71919 0.0
C521 C 0.57309 0.06593 0.69881 0.0
H522 H 0.59414 0.09106 0.73009 0.0
H523 H 0.54058 0.98392 0.58811 0.0
H524 H 0.53077 0.98569 0.6265 0.0
H525 H 0.65969 0.12984 0.62344 0.0
H526 H 0.67018 0.12766 0.58495 0.0
H527 H 0.6188 0.09015 0.65881 0.0
H528 H 0.51106 0.01566 0.65347 0.0
H529 H 0.45961 0.02436 0.67975 0.0
H530 H 0.44514 0.04224 0.71554 0.0
C531 C 0.57335 0.63887 0.93152 0.0
C532 C 0.57624 0.60556 0.91896 0.0
C533 C 0.57413 0.63328 0.95397 0.0
C534 C 0.57773 0.59414 0.9643 0.0
C535 C 0.58085 0.56114 0.95172 0.0
C536 C 0.5805 0.56694 0.92934 0.0
C537 C 0.57474 0.58425 0.98808 0.0
C538 C 0.58866 0.61924 1.00176 0.0
C539 C 0.58201 0.60859 0.02562 0.0
C540 C 0.58304 0.64416 0.03794 0.0
C541 C 0.57286 0.63422 0.06016 0.0
C542 C 0.56152 0.58853 0.07049 0.0
H543 H 0.57398 0.53587 0.02775 0.0
C544 C 0.56279 0.55379 0.05847 0.0
C545 C 0.57333 0.56377 0.0363 0.0
H546 H 0.55391 0.51821 0.06613 0.0
H547 H 0.56985 0.66891 0.92404 0.0
H548 H 0.57028 0.65869 0.96314 0.0
H549 H 0.58325 0.53047 0.95926 0.0
H550 H 0.58266 0.54046 0.92023 0.0
H551 H 0.55995 0.54625 0.99427 0.0
H552 H 0.60372 0.65718 0.99529 0.0
H553 H 0.59024 0.67923 0.03028 0.0
H554 H 0.57251 0.66165 0.06925 0.0
C555 C -0.00032 0.46072 0.26266 0.0
C556 C 0.98614 0.48737 0.24801 0.0
C557 C 0.00224 0.46774 0.28454 0.0
C558 C -0.00842 0.50188 0.29227 0.0
C559 C 0.97605 0.52691 0.27779 0.0
C560 C 0.97355 0.51995 0.25589 0.0
C561 C -0.00338 0.51271 0.31518 0.0
C562 C 0.02818 0.50764 0.32805 0.0
C563 C 0.0373 0.52197 0.35048 0.0
C564 C 0.06446 0.50672 0.36327 0.0
C565 C 0.0768 0.52166 0.38391 0.0
C566 C 0.06247 0.5524 0.39214 0.0
H567 H 0.00199 0.5657 0.34984 0.0
C568 C 0.03455 0.567 0.37973 0.0
C569 C 0.0222 0.5522 0.35905 0.0
H570 H 0.02275 0.59029 0.38603 0.0
H571 H 0.009 0.43482 0.25722 0.0
H572 H 0.01249 0.44625 0.29527 0.0
H573 H 0.96704 0.55297 0.28332 0.0
H574 H 0.96264 0.54087 0.24512 0.0
H575 H 0.97527 0.5276 0.32104 0.0
H576 H 0.04983 0.49345 0.32176 0.0
H577 H 0.07675 0.48361 0.35717 0.0
H578 H 0.09838 0.51009 0.39334 0.0
loop_
_geom_bond_atom_site_label_1
_geom_bond_atom_site_label_2
_geom_bond_distance
_geom_bond_site_symmetry_2
_ccdc_geom_bond_type
O0 Zn1 1.953 . S
O0 C16 1.225 . S
Zn1 O0 1.953 . S
Zn1 O2 1.949 . S
Zn1 O8 1.919 1_455 S
Zn1 O13 1.924 . S
O2 Zn1 1.949 . S
O2 Zn3 1.923 1_455 S
O2 Zn4 1.950 . S
O2 Zn5 1.945 . S
Zn3 O2 1.923 1_655 S
Zn3 O6 1.933 . S
Zn3 O9 1.941 . S
Zn3 O10 1.965 . S
Zn4 O2 1.950 . S
Zn4 O11 1.938 1_455 S
Zn4 O12 1.906 . S
Zn4 O22 1.953 . S
Zn5 O2 1.945 . S
Zn5 O7 1.932 . S
Zn5 O14 1.977 . S
Zn5 O15 1.910 . S
O6 Zn3 1.933 . S
O6 C17 1.226 1_655 S
O7 Zn5 1.932 . S
O7 C17 1.307 . S
O8 Zn1 1.919 1_655 S
O8 C19 1.253 . S
O9 Zn3 1.941 . S
O9 C19 1.283 . S
O10 Zn3 1.965 . S
O10 C18 1.303 . S
O11 Zn4 1.938 1_655 S
O11 C18 1.247 . S
O12 Zn4 1.906 . S
O12 C20 1.304 . S
O13 Zn1 1.924 . S
O13 C21 1.311 . S
O14 Zn5 1.977 . S
O14 C20 1.272 . S
O15 Zn5 1.910 . S
O15 C21 1.231 . S
C16 O0 1.225 . S
C16 O22 1.298 . S
C17 O6 1.226 1_455 S
C17 O7 1.307 . S
C18 O10 1.303 . S
C18 O11 1.247 . S
C19 O8 1.253 . S
C19 O9 1.283 . S
C20 O12 1.304 . S
C20 O14 1.272 . S
C21 O13 1.311 . S
C21 O15 1.231 . S
O22 Zn4 1.953 . S
O22 C16 1.298 . S
O23 Zn24 1.953 . S
O23 C39 1.225 . S
Zn24 O23 1.953 . S
Zn24 O25 1.949 . S
Zn24 O31 1.919 . S
Zn24 O36 1.924 . S
O25 Zn24 1.949 . S
O25 Zn26 1.923 . S
O25 Zn27 1.950 . S
O25 Zn28 1.945 1_545 S
Zn26 O25 1.923 . S
Zn26 O29 1.933 . S
Zn26 O32 1.941 . S
Zn26 O33 1.965 . S
Zn27 O25 1.950 . S
Zn27 O34 1.938 . S
Zn27 O35 1.906 1_545 S
Zn27 O45 1.953 . S
Zn28 O25 1.945 1_565 S
Zn28 O30 1.932 1_565 S
Zn28 O37 1.977 . S
Zn28 O38 1.910 . S
O29 Zn26 1.933 . S
O29 C40 1.226 . S
O30 Zn28 1.932 1_545 S
O30 C40 1.307 . S
O31 Zn24 1.919 . S
O31 C42 1.253 . S
O32 Zn26 1.941 . S
O32 C42 1.283 . S
O33 Zn26 1.965 . S
O33 C41 1.303 . S
O34 Zn27 1.938 . S
O34 C41 1.247 . S
O35 Zn27 1.906 1_565 S
O35 C43 1.304 . S
O36 Zn24 1.924 . S
O36 C44 1.311 1_545 S
O37 Zn28 1.977 . S
O37 C43 1.272 . S
O38 Zn28 1.910 . S
O38 C44 1.231 . S
C39 O23 1.225 . S
C39 O45 1.298 . S
C40 O29 1.226 . S
C40 O30 1.307 . S
C41 O33 1.303 . S
C41 O34 1.247 . S
C42 O31 1.253 . S
C42 O32 1.283 . S
C43 O35 1.304 . S
C43 O37 1.272 . S
C44 O36 1.311 1_565 S
C44 O38 1.231 . S
O45 Zn27 1.953 . S
O45 C39 1.298 . S
O46 Zn47 1.953 . S
O46 C62 1.225 . S
Zn47 O46 1.953 . S
Zn47 O48 1.949 . S
Zn47 O54 1.919 . S
Zn47 O59 1.924 . S
O48 Zn47 1.949 . S
O48 Zn49 1.923 . S
O48 Zn50 1.950 . S
O48 Zn51 1.945 . S
Zn49 O48 1.923 . S
Zn49 O52 1.933 . S
Zn49 O55 1.941 . S
Zn49 O56 1.965 . S
Zn50 O48 1.950 . S
Zn50 O57 1.938 . S
Zn50 O58 1.906 . S
Zn50 O68 1.953 . S
Zn51 O48 1.945 . S
Zn51 O53 1.932 . S
Zn51 O60 1.977 . S
Zn51 O61 1.910 . S
O52 Zn49 1.933 . S
O52 C63 1.226 . S
O53 Zn51 1.932 . S
O53 C63 1.307 . S
O54 Zn47 1.919 . S
O54 C65 1.253 . S
O55 Zn49 1.941 . S
O55 C65 1.283 . S
O56 Zn49 1.965 . S
O56 C64 1.303 . S
O57 Zn50 1.938 . S
O57 C64 1.247 . S
O58 Zn50 1.906 . S
O58 C66 1.304 . S
O59 Zn47 1.924 . S
O59 C67 1.311 . S
O60 Zn51 1.977 . S
O60 C66 1.272 . S
O61 Zn51 1.910 . S
O61 C67 1.231 . S
C62 O46 1.225 . S
C62 O68 1.298 . S
C63 O52 1.226 . S
C63 O53 1.307 . S
C64 O56 1.303 . S
C64 O57 1.247 . S
C65 O54 1.253 . S
C65 O55 1.283 . S
C66 O58 1.304 . S
C66 O60 1.272 . S
C67 O59 1.311 . S
C67 O61 1.231 . S
O68 Zn50 1.953 . S
O68 C62 1.298 . S
C69 N70 1.317 . S
C69 N71 1.348 1_545 S
C69 C72 1.485 . S
N70 C69 1.317 . S
N70 N74 1.370 . S
N71 C69 1.348 1_565 S
N71 C73 1.346 . S
C72 C69 1.485 . S
C72 H76 0.960 . S
C72 H77 0.961 . S
C72 H78 0.960 . S
C73 N71 1.346 . S
C73 N74 1.307 1_565 S
C73 C75 1.486 . S
N74 N70 1.370 . S
N74 C73 1.307 1_545 S
C75 C73 1.486 . S
C75 H79 0.960 . S
C75 H80 0.960 . S
C75 H81 0.959 . S
H76 C72 0.960 . S
H77 C72 0.961 . S
H78 C72 0.960 . S
H79 C75 0.960 . S
H80 C75 0.960 . S
H81 C75 0.959 . S
C82 N83 1.317 . S
C82 N84 1.348 . S
C82 C85 1.485 . S
N83 C82 1.317 . S
N83 N87 1.370 . S
N84 C82 1.348 . S
N84 C86 1.346 . S
C85 C82 1.485 . S
C85 H89 0.960 . S
C85 H90 0.961 . S
C85 H91 0.960 . S
C86 N84 1.346 . S
C86 N87 1.307 . S
C86 C88 1.486 . S
N87 N83 1.370 . S
N87 C86 1.307 . S
C88 C86 1.486 . S
C88 H92 0.960 . S
C88 H93 0.960 . S
C88 H94 0.959 . S
H89 C85 0.960 . S
H90 C85 0.961 . S
H91 C85 0.960 . S
H92 C88 0.960 . S
H93 C88 0.960 . S
H94 C88 0.959 . S
C95 N96 1.317 . S
C95 N97 1.348 . S
C95 C98 1.485 . S
N96 C95 1.317 . S
N96 N100 1.370 . S
N97 C95 1.348 . S
N97 C99 1.346 . S
C98 C95 1.485 . S
C98 H102 0.960 . S
C98 H103 0.961 . S
C98 H104 0.960 . S
C99 N97 1.346 . S
C99 N100 1.307 . S
C99 C101 1.486 1_455 S
N100 N96 1.370 . S
N100 C99 1.307 . S
C101 C99 1.486 1_655 S
C101 H105 0.960 . S
C101 H106 0.960 . S
C101 H107 0.959 . S
H102 C98 0.960 . S
H103 C98 0.961 . S
H104 C98 0.960 . S
H105 C101 0.960 . S
H106 C101 0.960 . S
H107 C101 0.959 . S
C108 N109 1.317 . S
C108 N110 1.348 . S
C108 C111 1.485 . S
N109 C108 1.317 . S
N109 N113 1.370 . S
N110 C108 1.348 . S
N110 C112 1.346 . S
C111 C108 1.485 . S
C111 H115 0.960 . S
C111 H116 0.961 . S
C111 H117 0.960 . S
C112 N110 1.346 . S
C112 N113 1.307 . S
C112 C114 1.486 . S
N113 N109 1.370 . S
N113 C112 1.307 . S
C114 C112 1.486 . S
C114 H118 0.960 . S
C114 H119 0.960 . S
C114 H120 0.959 . S
H115 C111 0.960 . S
H116 C111 0.961 . S
H117 C111 0.960 . S
H118 C114 0.960 . S
H119 C114 0.960 . S
H120 C114 0.959 . S
C121 N122 1.317 . S
C121 N123 1.348 . S
C121 C124 1.485 . S
N122 C121 1.317 . S
N122 N126 1.370 . S
N123 C121 1.348 . S
N123 C125 1.346 . S
C124 C121 1.485 . S
C124 H128 0.960 . S
C124 H129 0.961 . S
C124 H130 0.960 . S
C125 N123 1.346 . S
C125 N126 1.307 . S
C125 C127 1.486 . S
N126 N122 1.370 . S
N126 C125 1.307 . S
C127 C125 1.486 . S
C127 H131 0.960 . S
C127 H132 0.960 . S
C127 H133 0.959 . S
H128 C124 0.960 . S
H129 C124 0.961 . S
H130 C124 0.960 . S
H131 C127 0.960 . S
H132 C127 0.960 . S
H133 C127 0.959 . S
C134 N135 1.317 . S
C134 N136 1.348 . S
C134 C137 1.485 . S
N135 C134 1.317 . S
N135 N139 1.370 . S
N136 C134 1.348 . S
N136 C138 1.346 . S
C137 C134 1.485 . S
C137 H141 0.960 . S
C137 H142 0.961 . S
C137 H143 0.960 . S
C138 N136 1.346 . S
C138 N139 1.307 . S
C138 C140 1.486 . S
N139 N135 1.370 . S
N139 C138 1.307 . S
C140 C138 1.486 . S
C140 H144 0.960 . S
C140 H145 0.960 . S
C140 H146 0.959 . S
H141 C137 0.960 . S
H142 C137 0.961 . S
H143 C137 0.960 . S
H144 C140 0.960 . S
H145 C140 0.960 . S
H146 C140 0.959 . S
C147 C148 1.386 . S
C147 C149 1.383 . S
C147 H163 0.951 . S
C148 C147 1.386 . S
C148 C152 1.383 . S
C149 C147 1.383 . S
C149 C150 1.402 . S
C149 H164 0.951 . S
C150 C149 1.402 . S
C150 C151 1.375 . S
C150 C153 1.481 . S
C151 C150 1.375 . S
C151 C152 1.367 . S
C151 H165 0.951 . S
C152 C148 1.383 . S
C152 C151 1.367 . S
C152 H166 0.950 . S
C153 C150 1.481 . S
C153 C154 1.297 . S
C153 H167 0.950 . S
C154 C153 1.297 . S
C154 C155 1.479 . S
C154 H168 0.950 . S
C155 C154 1.479 . S
C155 C156 1.375 . S
C155 C161 1.404 . S
C156 C155 1.375 . S
C156 C157 1.369 . S
C156 H169 0.950 . S
C157 C156 1.369 . S
C157 C158 1.392 . S
C157 H170 0.951 . S
C158 C157 1.392 . S
C158 C160 1.384 . S
H159 C161 0.949 . S
C160 C158 1.384 . S
C160 C161 1.385 . S
C160 H162 0.950 . S
C161 C155 1.404 . S
C161 H159 0.949 . S
C161 C160 1.385 . S
H162 C160 0.950 . S
H163 C147 0.951 . S
H164 C149 0.951 . S
H165 C151 0.951 . S
H166 C152 0.950 . S
H167 C153 0.950 . S
H168 C154 0.950 . S
H169 C156 0.950 . S
H170 C157 0.951 . S
C171 C172 1.386 . S
C171 C173 1.383 . S
C171 H187 0.951 . S
C172 C171 1.386 . S
C172 C176 1.383 . S
C173 C171 1.383 . S
C173 C174 1.402 . S
C173 H188 0.951 . S
C174 C173 1.402 . S
C174 C175 1.375 . S
C174 C177 1.481 . S
C175 C174 1.375 . S
C175 C176 1.367 . S
C175 H189 0.951 . S
C176 C172 1.383 . S
C176 C175 1.367 . S
C176 H190 0.950 . S
C177 C174 1.481 . S
C177 C178 1.297 . S
C177 H191 0.950 . S
C178 C177 1.297 . S
C178 C179 1.479 . S
C178 H192 0.950 . S
C179 C178 1.479 . S
C179 C180 1.375 . S
C179 C185 1.404 . S
C180 C179 1.375 . S
C180 C181 1.369 . S
C180 H193 0.950 . S
C181 C180 1.369 . S
C181 C182 1.392 1_655 S
C181 H194 0.951 . S
C182 C181 1.392 1_455 S
C182 C184 1.384 . S
H183 C185 0.949 . S
C184 C182 1.384 . S
C184 C185 1.385 1_455 S
C184 H186 0.950 . S
C185 C179 1.404 . S
C185 H183 0.949 . S
C185 C184 1.385 1_655 S
H186 C184 0.950 . S
H187 C171 0.951 . S
H188 C173 0.951 . S
H189 C175 0.951 . S
H190 C176 0.950 . S
H191 C177 0.950 . S
H192 C178 0.950 . S
H193 C180 0.950 . S
H194 C181 0.951 . S
C195 C196 1.386 . S
C195 C197 1.383 . S
C195 H211 0.951 . S
C196 C195 1.386 . S
C196 C200 1.383 . S
C197 C195 1.383 . S
C197 C198 1.402 . S
C197 H212 0.951 . S
C198 C197 1.402 . S
C198 C199 1.375 . S
C198 C201 1.481 . S
C199 C198 1.375 . S
C199 C200 1.367 . S
C199 H213 0.951 . S
C200 C196 1.383 . S
C200 C199 1.367 . S
C200 H214 0.950 . S
C201 C198 1.481 . S
C201 C202 1.297 . S
C201 H215 0.950 . S
C202 C201 1.297 . S
C202 C203 1.479 . S
C202 H216 0.950 . S
C203 C202 1.479 . S
C203 C204 1.375 . S
C203 C209 1.404 . S
C204 C203 1.375 . S
C204 C205 1.369 . S
C204 H217 0.950 . S
C205 C204 1.369 . S
C205 C206 1.392 1_565 S
C205 H218 0.951 . S
C206 C205 1.392 1_545 S
C206 C208 1.384 . S
H207 C209 0.949 . S
C208 C206 1.384 . S
C208 C209 1.385 1_545 S
C208 H210 0.950 . S
C209 C203 1.404 . S
C209 H207 0.949 . S
C209 C208 1.385 1_565 S
H210 C208 0.950 . S
H211 C195 0.951 . S
H212 C197 0.951 . S
H213 C199 0.951 . S
H214 C200 0.950 . S
H215 C201 0.950 . S
H216 C202 0.950 . S
H217 C204 0.950 . S
H218 C205 0.951 . S
C219 C220 1.386 . S
C219 C221 1.383 . S
C219 H235 0.951 . S
C220 C219 1.386 . S
C220 C224 1.383 . S
C221 C219 1.383 . S
C221 C222 1.402 . S
C221 H236 0.951 . S
C222 C221 1.402 . S
C222 C223 1.375 . S
C222 C225 1.481 . S
C223 C222 1.375 . S
C223 C224 1.367 . S
C223 H237 0.951 . S
C224 C220 1.383 . S
C224 C223 1.367 . S
C224 H238 0.950 . S
C225 C222 1.481 . S
C225 C226 1.297 . S
C225 H239 0.950 . S
C226 C225 1.297 . S
C226 C227 1.479 . S
C226 H240 0.950 . S
C227 C226 1.479 . S
C227 C228 1.375 . S
C227 C233 1.404 . S
C228 C227 1.375 . S
C228 C229 1.369 . S
C228 H241 0.950 . S
C229 C228 1.369 . S
C229 C230 1.392 . S
C229 H242 0.951 . S
C230 C229 1.392 . S
C230 C232 1.384 . S
H231 C233 0.949 . S
C232 C230 1.384 . S
C232 C233 1.385 . S
C232 H234 0.950 . S
C233 C227 1.404 . S
C233 H231 0.949 . S
C233 C232 1.385 . S
H234 C232 0.950 . S
H235 C219 0.951 . S
H236 C221 0.951 . S
H237 C223 0.951 . S
H238 C224 0.950 . S
H239 C225 0.950 . S
H240 C226 0.950 . S
H241 C228 0.950 . S
H242 C229 0.951 . S
C243 C244 1.386 . S
C243 C245 1.383 . S
C243 H259 0.951 . S
C244 C243 1.386 . S
C244 C248 1.383 . S
C245 C243 1.383 . S
C245 C246 1.402 . S
C245 H260 0.951 . S
C246 C245 1.402 . S
C246 C247 1.375 . S
C246 C249 1.481 . S
C247 C246 1.375 . S
C247 C248 1.367 . S
C247 H261 0.951 . S
C248 C244 1.383 . S
C248 C247 1.367 . S
C248 H262 0.950 . S
C249 C246 1.481 . S
C249 C250 1.297 . S
C249 H263 0.950 . S
C250 C249 1.297 . S
C250 C251 1.479 . S
C250 H264 0.950 . S
C251 C250 1.479 . S
C251 C252 1.375 . S
C251 C257 1.404 . S
C252 C251 1.375 . S
C252 C253 1.369 . S
C252 H265 0.950 . S
C253 C252 1.369 . S
C253 C254 1.392 . S
C253 H266 0.951 . S
C254 C253 1.392 . S
C254 C256 1.384 . S
H255 C257 0.949 . S
C256 C254 1.384 . S
C256 C257 1.385 . S
C256 H258 0.950 . S
C257 C251 1.404 . S
C257 H255 0.949 . S
C257 C256 1.385 . S
H258 C256 0.950 . S
H259 C243 0.951 . S
H260 C245 0.951 . S
H261 C247 0.951 . S
H262 C248 0.950 . S
H263 C249 0.950 . S
H264 C250 0.950 . S
H265 C252 0.950 . S
H266 C253 0.951 . S
C267 C268 1.386 . S
C267 C269 1.383 . S
C267 H283 0.951 . S
C268 C267 1.386 . S
C268 C272 1.383 . S
C269 C267 1.383 . S
C269 C270 1.402 . S
C269 H284 0.951 . S
C270 C269 1.402 . S
C270 C271 1.375 . S
C270 C273 1.481 . S
C271 C270 1.375 . S
C271 C272 1.367 . S
C271 H285 0.951 . S
C272 C268 1.383 . S
C272 C271 1.367 . S
C272 H286 0.950 . S
C273 C270 1.481 . S
C273 C274 1.297 . S
C273 H287 0.950 . S
C274 C273 1.297 . S
C274 C275 1.479 . S
C274 H288 0.950 . S
C275 C274 1.479 . S
C275 C276 1.375 . S
C275 C281 1.404 . S
C276 C275 1.375 . S
C276 C277 1.369 . S
C276 H289 0.950 . S
C277 C276 1.369 . S
C277 C278 1.392 . S
C277 H290 0.951 . S
C278 C277 1.392 . S
C278 C280 1.384 . S
H279 C281 0.949 . S
C280 C278 1.384 . S
C280 C281 1.385 . S
C280 H282 0.950 . S
C281 C275 1.404 . S
C281 H279 0.949 . S
C281 C280 1.385 . S
H282 C280 0.950 . S
H283 C267 0.951 . S
H284 C269 0.951 . S
H285 C271 0.951 . S
H286 C272 0.950 . S
H287 C273 0.950 . S
H288 C274 0.950 . S
H289 C276 0.950 . S
H290 C277 0.951 . S
C291 C292 1.386 . S
C291 C293 1.383 . S
C291 H307 0.951 . S
C292 C291 1.386 . S
C292 C296 1.383 . S
C293 C291 1.383 . S
C293 C294 1.402 . S
C293 H308 0.951 . S
C294 C293 1.402 . S
C294 C295 1.375 . S
C294 C297 1.481 . S
C295 C294 1.375 . S
C295 C296 1.367 . S
C295 H309 0.951 . S
C296 C292 1.383 . S
C296 C295 1.367 . S
C296 H310 0.950 . S
C297 C294 1.481 . S
C297 C298 1.297 . S
C297 H311 0.950 . S
C298 C297 1.297 . S
C298 C299 1.479 . S
C298 H312 0.950 . S
C299 C298 1.479 . S
C299 C300 1.375 . S
C299 C305 1.404 . S
C300 C299 1.375 . S
C300 C301 1.369 . S
C300 H313 0.950 . S
C301 C300 1.369 . S
C301 C302 1.392 . S
C301 H314 0.951 . S
C302 C301 1.392 . S
C302 C304 1.384 . S
H303 C305 0.949 . S
C304 C302 1.384 . S
C304 C305 1.385 . S
C304 H306 0.950 . S
C305 C299 1.404 . S
C305 H303 0.949 . S
C305 C304 1.385 . S
H306 C304 0.950 . S
H307 C291 0.951 . S
H308 C293 0.951 . S
H309 C295 0.951 . S
H310 C296 0.950 . S
H311 C297 0.950 . S
H312 C298 0.950 . S
H313 C300 0.950 . S
H314 C301 0.951 . S
C315 C316 1.386 . S
C315 C317 1.383 . S
C315 H331 0.951 . S
C316 C315 1.386 . S
C316 C320 1.383 . S
C317 C315 1.383 . S
C317 C318 1.402 . S
C317 H332 0.951 . S
C318 C317 1.402 . S
C318 C319 1.375 . S
C318 C321 1.481 . S
C319 C318 1.375 . S
C319 C320 1.367 . S
C319 H333 0.951 . S
C320 C316 1.383 . S
C320 C319 1.367 . S
C320 H334 0.950 . S
C321 C318 1.481 . S
C321 C322 1.297 . S
C321 H335 0.950 . S
C322 C321 1.297 . S
C322 C323 1.479 . S
C322 H336 0.950 . S
C323 C322 1.479 . S
C323 C324 1.375 . S
C323 C329 1.404 . S
C324 C323 1.375 . S
C324 C325 1.369 . S
C324 H337 0.950 . S
C325 C324 1.369 . S
C325 C326 1.392 . S
C325 H338 0.951 . S
C326 C325 1.392 . S
C326 C328 1.384 . S
H327 C329 0.949 . S
C328 C326 1.384 . S
C328 C329 1.385 . S
C328 H330 0.950 . S
C329 C323 1.404 . S
C329 H327 0.949 . S
C329 C328 1.385 . S
H330 C328 0.950 . S
H331 C315 0.951 . S
H332 C317 0.951 . S
H333 C319 0.951 . S
H334 C320 0.950 . S
H335 C321 0.950 . S
H336 C322 0.950 . S
H337 C324 0.950 . S
H338 C325 0.951 . S
C339 C340 1.386 . S
C339 C341 1.383 . S
C339 H355 0.951 . S
C340 C339 1.386 . S
C340 C344 1.383 . S
C341 C339 1.383 . S
C341 C342 1.402 . S
C341 H356 0.951 . S
C342 C341 1.402 . S
C342 C343 1.375 . S
C342 C345 1.481 . S
C343 C342 1.375 . S
C343 C344 1.367 . S
C343 H357 0.951 . S
C344 C340 1.383 . S
C344 C343 1.367 . S
C344 H358 0.950 . S
C345 C342 1.481 . S
C345 C346 1.297 . S
C345 H359 0.950 . S
C346 C345 1.297 . S
C346 C347 1.479 . S
C346 H360 0.950 . S
C347 C346 1.479 . S
C347 C348 1.375 . S
C347 C353 1.404 . S
C348 C347 1.375 . S
C348 C349 1.369 . S
C348 H361 0.950 . S
C349 C348 1.369 . S
C349 C350 1.392 . S
C349 H362 0.951 . S
C350 C349 1.392 . S
C350 C352 1.384 . S
H351 C353 0.949 . S
C352 C350 1.384 . S
C352 C353 1.385 . S
C352 H354 0.950 . S
C353 C347 1.404 . S
C353 H351 0.949 . S
C353 C352 1.385 . S
H354 C352 0.950 . S
H355 C339 0.951 . S
H356 C341 0.951 . S
H357 C343 0.951 . S
H358 C344 0.950 . S
H359 C345 0.950 . S
H360 C346 0.950 . S
H361 C348 0.950 . S
H362 C349 0.951 . S
C363 C364 1.386 . S
C363 C365 1.383 . S
C363 H379 0.951 . S
C364 C363 1.386 . S
C364 C368 1.383 . S
C365 C363 1.383 . S
C365 C366 1.402 . S
C365 H380 0.951 . S
C366 C365 1.402 . S
C366 C367 1.375 . S
C366 C369 1.481 . S
C367 C366 1.375 . S
C367 C368 1.367 . S
C367 H381 0.951 . S
C368 C364 1.383 . S
C368 C367 1.367 . S
C368 H382 0.950 . S
C369 C366 1.481 . S
C369 C370 1.297 . S
C369 H383 0.950 . S
C370 C369 1.297 . S
C370 C371 1.479 . S
C370 H384 0.950 . S
C371 C370 1.479 . S
C371 C372 1.375 . S
C371 C377 1.404 . S
C372 C371 1.375 . S
C372 C373 1.369 . S
C372 H385 0.950 . S
C373 C372 1.369 . S
C373 C374 1.392 . S
C373 H386 0.951 . S
C374 C373 1.392 . S
C374 C376 1.384 . S
H375 C377 0.949 . S
C376 C374 1.384 . S
C376 C377 1.385 . S
C376 H378 0.950 . S
C377 C371 1.404 . S
C377 H375 0.949 . S
C377 C376 1.385 . S
H378 C376 0.950 . S
H379 C363 0.951 . S
H380 C365 0.951 . S
H381 C367 0.951 . S
H382 C368 0.950 . S
H383 C369 0.950 . S
H384 C370 0.950 . S
H385 C372 0.950 . S
H386 C373 0.951 . S
C387 C388 1.386 . S
C387 C389 1.383 . S
C387 H403 0.951 . S
C388 C387 1.386 . S
C388 C392 1.383 . S
C389 C387 1.383 . S
C389 C390 1.402 . S
C389 H404 0.951 . S
C390 C389 1.402 . S
C390 C391 1.375 . S
C390 C393 1.481 . S
C391 C390 1.375 . S
C391 C392 1.367 . S
C391 H405 0.951 . S
C392 C388 1.383 . S
C392 C391 1.367 . S
C392 H406 0.950 . S
C393 C390 1.481 . S
C393 C394 1.297 . S
C393 H407 0.950 . S
C394 C393 1.297 . S
C394 C395 1.479 . S
C394 H408 0.950 . S
C395 C394 1.479 . S
C395 C396 1.375 . S
C395 C401 1.404 . S
C396 C395 1.375 . S
C396 C397 1.369 . S
C396 H409 0.950 . S
C397 C396 1.369 . S
C397 C398 1.392 . S
C397 H410 0.951 . S
C398 C397 1.392 . S
C398 C400 1.384 . S
H399 C401 0.949 . S
C400 C398 1.384 . S
C400 C401 1.385 . S
C400 H402 0.950 . S
C401 C395 1.404 . S
C401 H399 0.949 . S
C401 C400 1.385 . S
H402 C400 0.950 . S
H403 C387 0.951 . S
H404 C389 0.951 . S
H405 C391 0.951 . S
H406 C392 0.950 . S
H407 C393 0.950 . S
H408 C394 0.950 . S
H409 C396 0.950 . S
H410 C397 0.951 . S
C411 C412 1.386 . S
C411 C413 1.383 . S
C411 H427 0.951 . S
C412 C411 1.386 . S
C412 C416 1.383 . S
C413 C411 1.383 . S
C413 C414 1.402 . S
C413 H428 0.951 . S
C414 C413 1.402 . S
C414 C415 1.375 . S
C414 C417 1.481 . S
C415 C414 1.375 . S
C415 C416 1.367 . S
C415 H429 0.951 . S
C416 C412 1.383 . S
C416 C415 1.367 . S
C416 H430 0.950 . S
C417 C414 1.481 . S
C417 C418 1.297 . S
C417 H431 0.950 . S
C418 C417 1.297 . S
C418 C419 1.479 . S
C418 H432 0.950 . S
C419 C418 1.479 . S
C419 C420 1.375 . S
C419 C425 1.404 . S
C420 C419 1.375 . S
C420 C421 1.369 . S
C420 H433 0.950 . S
C421 C420 1.369 . S
C421 C422 1.392 . S
C421 H434 0.951 . S
C422 C421 1.392 . S
C422 C424 1.384 . S
H423 C425 0.949 . S
C424 C422 1.384 . S
C424 C425 1.385 . S
C424 H426 0.950 . S
C425 C419 1.404 . S
C425 H423 0.949 . S
C425 C424 1.385 . S
H426 C424 0.950 . S
H427 C411 0.951 . S
H428 C413 0.951 . S
H429 C415 0.951 . S
H430 C416 0.950 . S
H431 C417 0.950 . S
H432 C418 0.950 . S
H433 C420 0.950 . S
H434 C421 0.951 . S
C435 C436 1.386 . S
C435 C437 1.383 . S
C435 H451 0.951 . S
C436 C435 1.386 . S
C436 C440 1.383 1_455 S
C437 C435 1.383 . S
C437 C438 1.402 . S
C437 H452 0.951 . S
C438 C437 1.402 . S
C438 C439 1.375 . S
C438 C441 1.481 . S
C439 C438 1.375 . S
C439 C440 1.367 1_455 S
C439 H453 0.951 1_455 S
C440 C436 1.383 1_655 S
C440 C439 1.367 1_655 S
C440 H454 0.950 . S
C441 C438 1.481 . S
C441 C442 1.297 . S
C441 H455 0.950 . S
C442 C441 1.297 . S
C442 C443 1.479 1_554 S
C442 H456 0.950 . S
C443 C442 1.479 1_556 S
C443 C444 1.375 . S
C443 C449 1.404 . S
C444 C443 1.375 . S
C444 C445 1.369 . S
C444 H457 0.950 . S
C445 C444 1.369 . S
C445 C446 1.392 . S
C445 H458 0.951 . S
C446 C445 1.392 . S
C446 C448 1.384 . S
H447 C449 0.949 . S
C448 C446 1.384 . S
C448 C449 1.385 . S
C448 H450 0.950 . S
C449 C443 1.404 . S
C449 H447 0.949 . S
C449 C448 1.385 . S
H450 C448 0.950 . S
H451 C435 0.951 . S
H452 C437 0.951 . S
H453 C439 0.951 1_655 S
H454 C440 0.950 . S
H455 C441 0.950 . S
H456 C442 0.950 . S
H457 C444 0.950 . S
H458 C445 0.951 . S
C459 C460 1.386 . S
C459 C461 1.383 . S
C459 H475 0.951 . S
C460 C459 1.386 . S
C460 C464 1.383 . S
C461 C459 1.383 . S
C461 C462 1.402 . S
C461 H476 0.951 . S
C462 C461 1.402 . S
C462 C463 1.375 . S
C462 C465 1.481 . S
C463 C462 1.375 . S
C463 C464 1.367 . S
C463 H477 0.951 . S
C464 C460 1.383 . S
C464 C463 1.367 . S
C464 H478 0.950 . S
C465 C462 1.481 . S
C465 C466 1.297 . S
C465 H479 0.950 . S
C466 C465 1.297 . S
C466 C467 1.479 . S
C466 H480 0.950 . S
C467 C466 1.479 . S
C467 C468 1.375 . S
C467 C473 1.404 . S
C468 C467 1.375 . S
C468 C469 1.369 . S
C468 H481 0.950 1_545 S
C469 C468 1.369 . S
C469 C470 1.392 . S
C469 H482 0.951 . S
C470 C469 1.392 . S
C470 C472 1.384 . S
H471 C473 0.949 . S
C472 C470 1.384 . S
C472 C473 1.385 . S
C472 H474 0.950 . S
C473 C467 1.404 . S
C473 H471 0.949 . S
C473 C472 1.385 . S
H474 C472 0.950 . S
H475 C459 0.951 . S
H476 C461 0.951 . S
H477 C463 0.951 . S
H478 C464 0.950 . S
H479 C465 0.950 . S
H480 C466 0.950 . S
H481 C468 0.950 1_565 S
H482 C469 0.951 . S
C483 C484 1.386 . S
C483 C485 1.383 . S
C483 H499 0.951 . S
C484 C483 1.386 . S
C484 C488 1.383 . S
C485 C483 1.383 . S
C485 C486 1.402 . S
C485 H500 0.951 . S
C486 C485 1.402 . S
C486 C487 1.375 . S
C486 C489 1.481 . S
C487 C486 1.375 . S
C487 C488 1.367 . S
C487 H501 0.951 . S
C488 C484 1.383 . S
C488 C487 1.367 . S
C488 H502 0.950 . S
C489 C486 1.481 . S
C489 C490 1.297 . S
C489 H503 0.950 . S
C490 C489 1.297 . S
C490 C491 1.479 . S
C490 H504 0.950 . S
C491 C490 1.479 . S
C491 C492 1.375 . S
C491 C497 1.404 . S
C492 C491 1.375 . S
C492 C493 1.369 . S
C492 H505 0.950 . S
C493 C492 1.369 . S
C493 C494 1.392 . S
C493 H506 0.951 . S
C494 C493 1.392 . S
C494 C496 1.384 . S
H495 C497 0.949 . S
C496 C494 1.384 . S
C496 C497 1.385 . S
C496 H498 0.950 . S
C497 C491 1.404 . S
C497 H495 0.949 . S
C497 C496 1.385 . S
H498 C496 0.950 . S
H499 C483 0.951 . S
H500 C485 0.951 . S
H501 C487 0.951 . S
H502 C488 0.950 . S
H503 C489 0.950 . S
H504 C490 0.950 . S
H505 C492 0.950 . S
H506 C493 0.951 . S
C507 C508 1.386 . S
C507 C509 1.383 . S
C507 H523 0.951 1_545 S
C508 C507 1.386 . S
C508 C512 1.383 . S
C509 C507 1.383 . S
C509 C510 1.402 . S
C509 H524 0.951 . S
C510 C509 1.402 . S
C510 C511 1.375 . S
C510 C513 1.481 . S
C511 C510 1.375 . S
C511 C512 1.367 . S
C511 H525 0.951 . S
C512 C508 1.383 . S
C512 C511 1.367 . S
C512 H526 0.950 . S
C513 C510 1.481 . S
C513 C514 1.297 . S
C513 H527 0.950 . S
C514 C513 1.297 . S
C514 C515 1.479 . S
C514 H528 0.950 . S
C515 C514 1.479 . S
C515 C516 1.375 . S
C515 C521 1.404 . S
C516 C515 1.375 . S
C516 C517 1.369 . S
C516 H529 0.950 1_545 S
C517 C516 1.369 . S
C517 C518 1.392 . S
C517 H530 0.935 1_545 S
C518 C517 1.392 . S
C518 C520 1.384 . S
H519 C521 0.949 . S
C520 C518 1.384 . S
C520 C521 1.385 . S
C520 H522 0.950 . S
C521 C515 1.404 . S
C521 H519 0.949 . S
C521 C520 1.385 . S
H522 C520 0.950 . S
H523 C507 0.951 1_565 S
H524 C509 0.951 . S
H525 C511 0.951 . S
H526 C512 0.950 . S
H527 C513 0.950 . S
H528 C514 0.950 . S
H529 C516 0.950 1_565 S
H530 C517 0.935 1_565 S
C531 C532 1.386 . S
C531 C533 1.383 . S
C531 H547 0.951 . S
C532 C531 1.386 . S
C532 C536 1.383 . S
C533 C531 1.383 . S
C533 C534 1.402 . S
C533 H548 0.951 . S
C534 C533 1.402 . S
C534 C535 1.375 . S
C534 C537 1.481 . S
C535 C534 1.375 . S
C535 C536 1.367 . S
C535 H549 0.951 . S
C536 C532 1.383 . S
C536 C535 1.367 . S
C536 H550 0.950 . S
C537 C534 1.481 . S
C537 C538 1.297 . S
C537 H551 0.950 . S
C538 C537 1.297 . S
C538 C539 1.479 1_556 S
C538 H552 0.950 . S
C539 C538 1.479 1_554 S
C539 C540 1.375 . S
C539 C545 1.404 . S
C540 C539 1.375 . S
C540 C541 1.369 . S
C540 H553 0.950 . S
C541 C540 1.369 . S
C541 C542 1.392 . S
C541 H554 0.951 . S
C542 C541 1.392 . S
C542 C544 1.384 . S
H543 C545 0.949 . S
C544 C542 1.384 . S
C544 C545 1.385 . S
C544 H546 0.950 . S
C545 C539 1.404 . S
C545 H543 0.949 . S
C545 C544 1.385 . S
H546 C544 0.950 . S
H547 C531 0.951 . S
H548 C533 0.951 . S
H549 C535 0.951 . S
H550 C536 0.950 . S
H551 C537 0.950 . S
H552 C538 0.950 . S
H553 C540 0.950 . S
H554 C541 0.951 . S
C555 C556 1.386 . S
C555 C557 1.383 . S
C555 H571 0.951 . S
C556 C555 1.386 . S
C556 C560 1.383 . S
C557 C555 1.383 . S
C557 C558 1.402 . S
C557 H572 0.951 . S
C558 C557 1.402 . S
C558 C559 1.375 . S
C558 C561 1.481 . S
C559 C558 1.375 . S
C559 C560 1.367 . S
C559 H573 0.954 . S
C560 C556 1.383 . S
C560 C559 1.367 . S
C560 H574 0.950 1_455 S
C561 C558 1.481 . S
C561 C562 1.297 . S
C561 H575 0.950 . S
C562 C561 1.297 . S
C562 C563 1.479 . S
C562 H576 0.950 . S
C563 C562 1.479 . S
C563 C564 1.375 . S
C563 C569 1.404 . S
C564 C563 1.375 . S
C564 C565 1.369 . S
C564 H577 0.950 . S
C565 C564 1.369 . S
C565 C566 1.392 . S
C565 H578 0.951 . S
C566 C565 1.392 . S
C566 C568 1.384 . S
H567 C569 0.949 . S
C568 C566 1.384 . S
C568 C569 1.385 . S
C568 H570 0.950 . S
C569 C563 1.404 . S
C569 H567 0.949 . S
C569 C568 1.385 . S
H570 C568 0.950 . S
H571 C555 0.951 . S
H572 C557 0.951 . S
H573 C559 0.954 . S
H574 C560 0.950 1_655 S
H575 C561 0.950 . S
H576 C562 0.950 . S
H577 C564 0.950 . S
H578 C565 0.951 . S
C148 C20 0.854 . S
C158 N136 0.905 . S
C172 C41 1.251 . S
C182 N109 1.229 . S
C196 C64 1.240 . S
C206 N122 1.267 . S
C220 C19 1.522 . S
C230 N135 1.589 . S
C254 N110 1.288 . S
C244 C44 1.300 . S
C278 N123 1.271 . S
C268 C67 1.291 . S
C292 C43 1.205 . S
C302 N83 1.171 . S
C316 C66 0.864 . S
C326 N97 0.926 1_655 S
C340 C21 1.294 . S
C350 N71 1.275 . S
C374 N84 1.272 . S
C364 C42 1.269 . S
C398 N96 1.569 . S
C388 C65 1.540 . S
C412 C18 1.229 . S
C422 N70 1.207 . S
C446 N100 1.525 . S
C436 C17 1.530 . S
C460 C39 1.529 . S
C470 N74 1.502 . S
C484 C62 1.527 . S
C494 N87 1.501 . S
C518 N126 1.512 . S
C508 C40 1.530 . S
C542 N139 1.448 . S
C532 C63 1.530 . S
C556 C16 1.514 . S
C566 N113 1.487 . S
