# Generated by pormake.
# Topology dag, (6,3)-cn, num edge types: 1
# Building blocks:
#     Node 0, Type 0, BuildingBlock: OJICUG_clean_sbu_0, # of connection points: 6
#     Node 1, Type 0, BuildingBlock: OJICUG_clean_sbu_0, # of connection points: 6
#     Node 2, Type 0, BuildingBlock: OJICUG_clean_sbu_0, # of connection points: 6
#     Node 3, Type 0, BuildingBlock: OJICUG_clean_sbu_0, # of connection points: 6
#     Node 4, Type 1, BuildingBlock: ESEHIV_clean_linker_0, # of connection points: 3
#     Node 5, Type 1, BuildingBlock: ESEHIV_clean_linker_0, # of connection points: 3
#     Node 6, Type 1, BuildingBlock: ESEHIV_clean_linker_0, # of connection points: 3
#     Node 7, Type 1, BuildingBlock: ESEHIV_clean_linker_0, # of connection points: 3
#     Node 8, Type 1, BuildingBlock: ESEHIV_clean_linker_0, # of connection points: 3
#     Node 9, Type 1, BuildingBlock: ESEHIV_clean_linker_0, # of connection points: 3
#     Node 10, Type 1, BuildingBlock: ESEHIV_clean_linker_0, # of connection points: 3
#     Node 11, Type 1, BuildingBlock: ESEHIV_clean_linker_0, # of connection points: 3
#     Edge 12, Type (0, 1), BuildingBlock: UVAHIK_clean_linker_0, # of connection points: 2
#     Edge 13, Type (0, 1), BuildingBlock: UVAHIK_clean_linker_0, # of connection points: 2
#     Edge 14, Type (0, 1), BuildingBlock: UVAHIK_clean_linker_0, # of connection points: 2
#     Edge 15, Type (0, 1), BuildingBlock: UVAHIK_clean_linker_0, # of connection points: 2
#     Edge 16, Type (0, 1), BuildingBlock: UVAHIK_clean_linker_0, # of connection points: 2
#     Edge 17, Type (0, 1), BuildingBlock: UVAHIK_clean_linker_0, # of connection points: 2
#     Edge 18, Type (0, 1), BuildingBlock: UVAHIK_clean_linker_0, # of connection points: 2
#     Edge 19, Type (0, 1), BuildingBlock: UVAHIK_clean_linker_0, # of connection points: 2
#     Edge 20, Type (0, 1), BuildingBlock: UVAHIK_clean_linker_0, # of connection points: 2
#     Edge 21, Type (0, 1), BuildingBlock: UVAHIK_clean_linker_0, # of connection points: 2
#     Edge 22, Type (0, 1), BuildingBlock: UVAHIK_clean_linker_0, # of connection points: 2
#     Edge 23, Type (0, 1), BuildingBlock: UVAHIK_clean_linker_0, # of connection points: 2
#     Edge 24, Type (0, 1), BuildingBlock: UVAHIK_clean_linker_0, # of connection points: 2
#     Edge 25, Type (0, 1), BuildingBlock: UVAHIK_clean_linker_0, # of connection points: 2
#     Edge 26, Type (0, 1), BuildingBlock: UVAHIK_clean_linker_0, # of connection points: 2
#     Edge 27, Type (0, 1), BuildingBlock: UVAHIK_clean_linker_0, # of connection points: 2
#     Edge 28, Type (0, 1), BuildingBlock: UVAHIK_clean_linker_0, # of connection points: 2
#     Edge 29, Type (0, 1), BuildingBlock: UVAHIK_clean_linker_0, # of connection points: 2
#     Edge 30, Type (0, 1), BuildingBlock: UVAHIK_clean_linker_0, # of connection points: 2
#     Edge 31, Type (0, 1), BuildingBlock: UVAHIK_clean_linker_0, # of connection points: 2
#     Edge 32, Type (0, 1), BuildingBlock: UVAHIK_clean_linker_0, # of connection points: 2
#     Edge 33, Type (0, 1), BuildingBlock: UVAHIK_clean_linker_0, # of connection points: 2
#     Edge 34, Type (0, 1), BuildingBlock: UVAHIK_clean_linker_0, # of connection points: 2
#     Edge 35, Type (0, 1), BuildingBlock: UVAHIK_clean_linker_0, # of connection points: 2
# Relax obj value: 0.253
# Max RMSD: 0.198
# Mean RMSD: 0.163
data_MOF--net-dag--node1-OJICUG_clean_sbu_0--node2-ESEHIV_clean_linker_0--edge1-UVAHIK_clean_linker_0
_symmetry_space_group_name_H-M    P1
_symmetry_Int_Tables_number       1
_symmetry_cell_setting            triclinic
loop_
_symmetry_equiv_pos_as_xyz
'x, y, z'
_cell_length_a     44.208919
_cell_length_b     46.196613
_cell_length_c     45.351715
_cell_angle_alpha  95.24302
_cell_angle_beta   90.049157
_cell_angle_gamma 90.044074
loop_
_atom_site_label
_atom_site_type_symbol
_atom_site_fract_x
_atom_site_fract_y
_atom_site_fract_z
_atom_type_partial_charge
Sc0 Sc 0.12549 0.848 0.03747 0.0
Sc1 Sc 0.13583 0.77266 0.03994 0.0
Sc2 Sc 0.18538 0.82302 0.0791 0.0
O3 O 0.14892 0.8145 0.05216 0.0
C4 C 0.19338 0.87167 0.03465 0.0
C5 C 0.12692 0.80327 0.97997 0.0
C6 C 0.20787 0.76918 0.03517 0.0
C7 C 0.07226 0.80376 0.0508 0.0
C8 C 0.13786 0.87086 0.10483 0.0
C9 C 0.1545 0.76979 0.1077 0.0
O10 O 0.16564 0.87162 0.02731 0.0
O11 O 0.12859 0.78069 0.99401 0.0
O12 O 0.21274 0.79111 0.05368 0.0
O13 O 0.08238 0.82856 0.04563 0.0
O14 O 0.16175 0.85589 0.10718 0.0
O15 O 0.14106 0.75935 0.08428 0.0
O16 O 0.12225 0.87002 0.08121 0.0
O17 O 0.08893 0.78132 0.0504 0.0
O18 O 0.17088 0.79241 0.10873 0.0
O19 O 0.1266 0.82893 0.99265 0.0
O20 O 0.20406 0.85518 0.05297 0.0
O21 O 0.18141 0.76012 0.0281 0.0
Sc22 Sc 0.68299 0.67093 0.46703 0.0
Sc23 Sc 0.63682 0.72546 0.50418 0.0
Sc24 Sc 0.62291 0.65121 0.51141 0.0
O25 O 0.64758 0.68261 0.49421 0.0
C26 C 0.63389 0.6235 0.44493 0.0
C27 C 0.65452 0.72418 0.43601 0.0
C28 C 0.57168 0.69599 0.49508 0.0
C29 C 0.7092 0.72554 0.50719 0.0
C30 C 0.68923 0.62536 0.51544 0.0
C31 C 0.62689 0.69957 0.56625 0.0
O32 O 0.65663 0.6393 0.4402 0.0
O33 O 0.64058 0.73536 0.45875 0.0
O34 O 0.58082 0.67079 0.50004 0.0
O35 O 0.71252 0.70148 0.4915 0.0
O36 O 0.6623 0.62856 0.52481 0.0
O37 O 0.6315 0.72095 0.55105 0.0
O38 O 0.69957 0.63822 0.494 0.0
O39 O 0.68352 0.73722 0.51289 0.0
O40 O 0.6233 0.67368 0.55486 0.0
O41 O 0.6709 0.70164 0.43626 0.0
O42 O 0.62022 0.6249 0.46969 0.0
O43 O 0.58912 0.718 0.49619 0.0
Sc44 Sc 0.8582 0.2215 0.0046 0.0
Sc45 Sc 0.8082 0.16798 0.97118 0.0
Sc46 Sc 0.87177 0.14694 0.00956 0.0
O47 O 0.84603 0.17892 0.99512 0.0
C48 C 0.92291 0.19277 0.99481 0.0
C49 C 0.83591 0.21989 0.93757 0.0
C50 C 0.85689 0.1216 0.94394 0.0
C51 C 0.78631 0.22366 0.01251 0.0
C52 C 0.86939 0.19316 0.06568 0.0
C53 C 0.80565 0.11959 0.0159 0.0
O54 O 0.90527 0.21427 0.99324 0.0
O55 O 0.81982 0.19728 0.93907 0.0
O56 O 0.87505 0.12493 0.96578 0.0
O57 O 0.81268 0.23414 0.01719 0.0
O58 O 0.86988 0.16706 0.054 0.0
O59 O 0.79219 0.1369 0.00015 0.0
O60 O 0.86722 0.2152 0.05077 0.0
O61 O 0.7813 0.20012 0.99647 0.0
O62 O 0.83405 0.12036 0.01996 0.0
O63 O 0.85074 0.23186 0.95949 0.0
O64 O 0.91365 0.16821 0.00148 0.0
O65 O 0.83141 0.13443 0.94354 0.0
Sc66 Sc 0.3803 0.35309 0.5436 0.0
Sc67 Sc 0.31504 0.3326 0.58026 0.0
Sc68 Sc 0.36326 0.27867 0.5449 0.0
O69 O 0.35283 0.32138 0.55623 0.0
C70 C 0.37943 0.30824 0.48576 0.0
C71 C 0.31562 0.382 0.53565 0.0
C72 C 0.29145 0.28012 0.53546 0.0
C73 C 0.36396 0.37716 0.60982 0.0
C74 C 0.42835 0.30556 0.5605 0.0
C75 C 0.33903 0.27737 0.61097 0.0
O76 O 0.38276 0.33343 0.49911 0.0
O77 O 0.30203 0.36663 0.55334 0.0
O78 O 0.31748 0.26875 0.5313 0.0
O79 O 0.38061 0.37584 0.58693 0.0
O80 O 0.41045 0.28394 0.55719 0.0
O81 O 0.32361 0.30043 0.61015 0.0
O82 O 0.42032 0.3312 0.55615 0.0
O83 O 0.33941 0.36288 0.61095 0.0
O84 O 0.35467 0.26641 0.58919 0.0
O85 O 0.34362 0.3792 0.52988 0.0
O86 O 0.37271 0.28606 0.49919 0.0
O87 O 0.28697 0.30328 0.55232 0.0
H88 H 0.00652 0.09897 0.29393 0.0
H89 H 0.08194 0.09717 0.35354 0.0
H90 H 0.02985 0.17557 0.34987 0.0
C91 C 0.02017 0.10926 0.31179 0.0
C92 C 0.01434 0.13834 0.32189 0.0
C93 C 0.04488 0.09432 0.32256 0.0
C94 C 0.0632 0.10868 0.34459 0.0
C95 C 0.05817 0.13805 0.35453 0.0
C96 C 0.03353 0.15273 0.3431 0.0
H97 H 0.50752 0.60493 0.79925 0.0
H98 H 0.42456 0.60155 0.84812 0.0
H99 H 0.47667 0.68054 0.85279 0.0
C100 C 0.49126 0.61508 0.81477 0.0
C101 C 0.4953 0.64432 0.82544 0.0
C102 C 0.46541 0.59956 0.82211 0.0
C103 C 0.44464 0.61316 0.84228 0.0
C104 C 0.44871 0.64221 0.8539 0.0
C105 C 0.47404 0.65775 0.84516 0.0
H106 H 0.75989 0.8519 0.0922 0.0
H107 H 0.75319 0.79791 0.16413 0.0
H108 H 0.6851 0.86242 0.15272 0.0
C109 C 0.7472 0.84445 0.1105 0.0
C110 C 0.72039 0.8589 0.11972 0.0
C111 C 0.75944 0.82263 0.12651 0.0
C112 C 0.74392 0.81466 0.15151 0.0
C113 C 0.71708 0.82883 0.16102 0.0
C114 C 0.70523 0.85074 0.14488 0.0
H115 H 0.73836 0.36783 0.59933 0.0
H116 H 0.7472 0.30197 0.65958 0.0
H117 H 0.8154 0.36842 0.65716 0.0
C118 C 0.75157 0.35753 0.6156 0.0
C119 C 0.77867 0.37046 0.62618 0.0
C120 C 0.73998 0.33295 0.62768 0.0
C121 C 0.75672 0.32025 0.64937 0.0
C122 C 0.78407 0.3328 0.66014 0.0
C123 C 0.79485 0.35803 0.64846 0.0
H124 H 0.49361 0.38687 0.25542 0.0
H125 H 0.57568 0.39385 0.20585 0.0
H126 H 0.5186 0.3182 0.19028 0.0
C127 C 0.509 0.37843 0.23813 0.0
C128 C 0.50349 0.35088 0.2236 0.0
C129 C 0.53512 0.39412 0.23209 0.0
C130 C 0.55485 0.38248 0.20977 0.0
C131 C 0.54901 0.35531 0.19399 0.0
C132 C 0.52324 0.33951 0.20138 0.0
H133 H 0.23942 0.12963 0.95549 0.0
H134 H 0.23434 0.18831 0.88723 0.0
H135 H 0.30509 0.1242 0.88577 0.0
C136 C 0.24852 0.13809 0.93582 0.0
C137 C 0.27381 0.12452 0.92206 0.0
C138 C 0.23363 0.16084 0.92322 0.0
C139 C 0.246 0.17136 0.89771 0.0
C140 C 0.27213 0.15869 0.8843 0.0
C141 C 0.28562 0.13489 0.89639 0.0
H142 H 0.2659 0.64902 0.44955 0.0
H143 H 0.2519 0.70288 0.3785 0.0
H144 H 0.1884 0.63477 0.39295 0.0
C145 C 0.2518 0.65576 0.43184 0.0
C146 C 0.2256 0.6398 0.42371 0.0
C147 C 0.26156 0.67846 0.41564 0.0
C148 C 0.24416 0.68576 0.39149 0.0
C149 C 0.21763 0.6702 0.38317 0.0
C150 C 0.20854 0.64718 0.39941 0.0
H151 H 0.98984 0.8947 0.75389 0.0
H152 H 0.97856 0.82418 0.68652 0.0
H153 H 0.91762 0.89737 0.69092 0.0
C154 C 0.97825 0.88551 0.73413 0.0
C155 C 0.953 0.89976 0.72358 0.0
C156 C 0.98749 0.85836 0.72087 0.0
C157 C 0.97142 0.84527 0.69651 0.0
C158 C 0.94626 0.85938 0.68518 0.0
C159 C 0.93737 0.88665 0.69889 0.0
C160 C 0.14781 0.90139 0.15245 0.0
C161 C 0.12733 0.88981 0.13081 0.0
C162 C 0.13774 0.9201 0.17642 0.0
C163 C 0.07241 0.96762 0.19956 0.0
H164 H 0.11263 0.97232 0.27589 0.0
C165 C 0.03112 0.04521 0.29731 0.0
C166 C 0.05344 0.06519 0.30815 0.0
C167 C 0.03905 0.02018 0.27935 0.0
C168 C 0.10116 0.97108 0.25469 0.0
H169 H 0.08007 0.88754 0.118 0.0
H170 H 0.06231 0.919 0.16029 0.0
H171 H 0.12817 0.93525 0.23693 0.0
H172 H 0.10187 0.07337 0.30982 0.0
H173 H 0.11557 0.02922 0.2794 0.0
H174 H 0.04523 0.00326 0.21754 0.0
C175 C 0.08633 0.91474 0.15831 0.0
C176 C 0.11017 0.95005 0.23227 0.0
C177 C 0.09648 0.89655 0.13408 0.0
C178 C 0.08403 0.0584 0.3023 0.0
C179 C 0.09195 0.03313 0.28472 0.0
C180 C 0.06309 0.98824 0.22211 0.0
C181 C 0.10686 0.92719 0.17958 0.0
C182 C 0.0962 0.9483 0.20423 0.0
C183 C 0.06948 0.01432 0.27231 0.0
C184 C 0.07761 0.99043 0.24973 0.0
H185 H 0.17175 0.89661 0.15044 0.0
H186 H 0.15435 0.92955 0.19201 0.0
H187 H 0.06149 0.96752 0.17818 0.0
H188 H 0.00741 0.04938 0.30189 0.0
H189 H 0.02133 0.00578 0.27029 0.0
C190 C 0.64132 0.68577 0.61585 0.0
C191 C 0.62534 0.70437 0.59871 0.0
C192 C 0.63608 0.68632 0.6462 0.0
C193 C 0.59331 0.72403 0.71004 0.0
H194 H 0.58639 0.64516 0.73203 0.0
C195 C 0.51138 0.686 0.79772 0.0
C196 C 0.51923 0.66135 0.81203 0.0
C197 C 0.53151 0.69729 0.77792 0.0
C198 C 0.58885 0.66743 0.7267 0.0
H199 H 0.59263 0.73923 0.59972 0.0
H200 H 0.58214 0.73933 0.6527 0.0
H201 H 0.60837 0.65361 0.68496 0.0
H202 H 0.55534 0.6313 0.81968 0.0
H203 H 0.59077 0.65135 0.7856 0.0
H204 H 0.57187 0.73736 0.75155 0.0
C205 C 0.59944 0.72486 0.64301 0.0
C206 C 0.60156 0.67234 0.69953 0.0
C207 C 0.6053 0.72479 0.61264 0.0
C208 C 0.54865 0.65012 0.80863 0.0
C209 C 0.56883 0.66151 0.78903 0.0
C210 C 0.5803 0.71905 0.73731 0.0
C211 C 0.61396 0.70483 0.65994 0.0
C212 C 0.60357 0.70062 0.69054 0.0
C213 C 0.55985 0.68416 0.77222 0.0
C214 C 0.57751 0.6906 0.7457 0.0
H215 H 0.65716 0.67006 0.60554 0.0
H216 H 0.64843 0.67125 0.65864 0.0
H217 H 0.59481 0.74613 0.70401 0.0
H218 H 0.48876 0.69495 0.79979 0.0
H219 H 0.52382 0.71467 0.76527 0.0
C220 C 0.7568 0.09308 0.02358 0.0
C221 C 0.78826 0.09589 0.02799 0.0
C222 C 0.74139 0.06862 0.03198 0.0
C223 C 0.71637 0.01879 0.06829 0.0
H224 H 0.75592 0.94646 0.04054 0.0
C225 C 0.70725 0.9117 0.12327 0.0
C226 C 0.71155 0.88537 0.10569 0.0
C227 C 0.70696 0.93803 0.11036 0.0
C228 C 0.74412 0.96633 0.04799 0.0
H229 H 0.82775 0.07584 0.04616 0.0
H230 H 0.80097 0.0334 0.06036 0.0
H231 H 0.77549 0.99211 0.02587 0.0
H232 H 0.71538 0.86555 0.0607 0.0
H233 H 0.7145 0.91153 0.03805 0.0
H234 H 0.68563 0.99285 0.0914 0.0
C235 C 0.78834 0.04996 0.0502 0.0
C236 C 0.7556 0.99251 0.03986 0.0
C237 C 0.80362 0.07439 0.04216 0.0
C238 C 0.71246 0.88561 0.07476 0.0
C239 C 0.71203 0.9119 0.06185 0.0
C240 C 0.70497 0.99246 0.07672 0.0
C241 C 0.75728 0.0465 0.04457 0.0
C242 C 0.74237 0.01899 0.05053 0.0
C243 C 0.71093 0.93846 0.07965 0.0
C244 C 0.71916 0.96599 0.06714 0.0
H245 H 0.74424 0.10931 0.01287 0.0
H246 H 0.71738 0.0664 0.02753 0.0
H247 H 0.70578 0.039 0.07673 0.0
H248 H 0.7067 0.9122 0.14719 0.0
H249 H 0.70624 0.95809 0.12472 0.0
C250 C 0.47657 0.3256 0.58228 0.0
C251 C 0.45985 0.30139 0.57042 0.0
C252 C 0.5064 0.32253 0.59126 0.0
C253 C 0.57389 0.27876 0.57794 0.0
H254 H 0.60098 0.32418 0.64928 0.0
C255 C 0.70069 0.29411 0.61511 0.0
C256 C 0.70839 0.32361 0.62116 0.0
C257 C 0.67037 0.28584 0.61061 0.0
C258 C 0.59374 0.31123 0.62939 0.0
H259 H 0.46144 0.25481 0.55884 0.0
H260 H 0.5143 0.24951 0.57435 0.0
H261 H 0.54701 0.31898 0.63916 0.0
H262 H 0.69049 0.36742 0.62778 0.0
H263 H 0.63799 0.35306 0.61999 0.0
H264 H 0.62097 0.272 0.56779 0.0
C265 C 0.50394 0.27083 0.57669 0.0
C266 C 0.56289 0.30826 0.6236 0.0
C267 C 0.47373 0.27386 0.56795 0.0
C268 C 0.68533 0.34458 0.62268 0.0
C269 C 0.65523 0.33633 0.61859 0.0
C270 C 0.60494 0.28168 0.58382 0.0
C271 C 0.52048 0.2952 0.58854 0.0
C272 C 0.55267 0.29301 0.59726 0.0
C273 C 0.64738 0.30692 0.61276 0.0
C274 C 0.61507 0.29893 0.60904 0.0
H275 H 0.46664 0.34712 0.58467 0.0
H276 H 0.51869 0.3418 0.59984 0.0
H277 H 0.56662 0.26694 0.55744 0.0
H278 H 0.71808 0.27754 0.6139 0.0
H279 H 0.66484 0.26302 0.6061 0.0
C280 C 0.63311 0.60367 0.39142 0.0
C281 C 0.62271 0.60257 0.42061 0.0
C282 C 0.62233 0.58394 0.36857 0.0
C283 C 0.55971 0.53147 0.3502 0.0
H284 H 0.61569 0.49718 0.29117 0.0
C285 C 0.53726 0.42308 0.28165 0.0
C286 C 0.54317 0.4211 0.25104 0.0
C287 C 0.54546 0.4478 0.29984 0.0
C288 C 0.59972 0.50689 0.30725 0.0
H289 H 0.59299 0.57962 0.44862 0.0
H290 H 0.5749 0.54491 0.40913 0.0
H291 H 0.6332 0.53541 0.32799 0.0
H292 H 0.56239 0.44389 0.21568 0.0
H293 H 0.57759 0.48691 0.24789 0.0
H294 H 0.5266 0.50207 0.33012 0.0
C295 C 0.59078 0.56145 0.40364 0.0
C296 C 0.6097 0.52883 0.32834 0.0
C297 C 0.60136 0.58127 0.4264 0.0
C298 C 0.55772 0.44454 0.23916 0.0
C299 C 0.56633 0.4692 0.25753 0.0
C300 C 0.54985 0.50938 0.32934 0.0
C301 C 0.60105 0.56255 0.37442 0.0
C302 C 0.58994 0.541 0.35043 0.0
C303 C 0.5602 0.47104 0.28803 0.0
C304 C 0.56988 0.49654 0.30799 0.0
H305 H 0.6494 0.61994 0.38613 0.0
H306 H 0.63047 0.58565 0.34628 0.0
H307 H 0.54366 0.54083 0.36639 0.0
H308 H 0.52696 0.40522 0.29185 0.0
H309 H 0.54099 0.4484 0.32337 0.0
C310 C 0.97542 0.17285 0.99342 0.0
C311 C 0.95579 0.19612 0.98945 0.0
C312 C 0.00645 0.17558 0.98933 0.0
C313 C 0.06406 0.21471 0.95132 0.0
H314 H 0.11702 0.17817 0.00521 0.0
C315 C 0.19459 0.20044 0.9343 0.0
C316 C 0.2036 0.17122 0.9348 0.0
C317 C 0.1656 0.20934 0.94378 0.0
C318 C 0.10255 0.18867 0.9901 0.0
H319 H 0.95365 0.24055 0.97763 0.0
H320 H 0.00837 0.24521 0.97025 0.0
H321 H 0.06337 0.18358 0.01669 0.0
H322 H 0.18849 0.12847 0.94504 0.0
H323 H 0.13893 0.14422 0.96248 0.0
H324 H 0.10342 0.2189 0.9243 0.0
C325 C 0.99939 0.22489 0.97664 0.0
C326 C 0.07185 0.19169 0.9966 0.0
C327 C 0.96811 0.22221 0.98092 0.0
C328 C 0.18297 0.15131 0.94521 0.0
C329 C 0.15437 0.16028 0.95506 0.0
C330 C 0.09497 0.21181 0.94487 0.0
C331 C 0.01887 0.20163 0.98112 0.0
C332 C 0.05205 0.20365 0.97671 0.0
C333 C 0.14531 0.1893 0.95435 0.0
C334 C 0.11421 0.19774 0.96369 0.0
H335 H 0.96691 0.15235 -0.00016 0.0
H336 H 0.02073 0.15702 0.99229 0.0
H337 H 0.04934 0.22399 0.93557 0.0
H338 H 0.20991 0.21643 0.92661 0.0
H339 H 0.15909 0.23186 0.94303 0.0
C340 C 0.26747 0.40922 0.52736 0.0
C341 C 0.29883 0.40565 0.52289 0.0
C342 C 0.25251 0.4334 0.51785 0.0
C343 C 0.2275 0.48125 0.47969 0.0
H344 H 0.26817 0.55427 0.50275 0.0
C345 C 0.21467 0.58654 0.42153 0.0
C346 C 0.2188 0.61326 0.43849 0.0
C347 C 0.21585 0.56051 0.43495 0.0
C348 C 0.25614 0.53419 0.49657 0.0
H349 H 0.33866 0.42412 0.50368 0.0
H350 H 0.31261 0.46617 0.4875 0.0
H351 H 0.28828 0.5094 0.51888 0.0
H352 H 0.22392 0.634 0.48301 0.0
H353 H 0.2257 0.58854 0.50653 0.0
H354 H 0.19585 0.50619 0.4565 0.0
C355 C 0.29971 0.45037 0.49853 0.0
C356 C 0.26791 0.50846 0.50551 0.0
C357 C 0.31457 0.42617 0.50769 0.0
C358 C 0.22115 0.61364 0.4694 0.0
C359 C 0.22222 0.58766 0.48282 0.0
C360 C 0.21581 0.50711 0.47042 0.0
C361 C 0.26873 0.45453 0.50405 0.0
C362 C 0.25412 0.48171 0.49665 0.0
C363 C 0.22112 0.56081 0.46555 0.0
C364 C 0.23033 0.53379 0.47842 0.0
H365 H 0.25463 0.39373 0.53884 0.0
H366 H 0.22856 0.43617 0.52229 0.0
H367 H 0.21648 0.46083 0.47263 0.0
H368 H 0.213 0.58561 0.39762 0.0
H369 H 0.21508 0.54019 0.42102 0.0
C370 C 0.13769 0.8207 0.93083 0.0
C371 C 0.124 0.80013 0.94744 0.0
C372 C 0.13116 0.82116 0.9008 0.0
C373 C 0.09021 0.7828 0.83629 0.0
H374 H 0.07509 0.86197 0.81842 0.0
C375 C 0.00632 0.81709 0.74766 0.0
C376 C 0.01222 0.84309 0.73493 0.0
C377 C 0.02671 0.8069 0.76796 0.0
C378 C 0.07981 0.83971 0.82261 0.0
H379 H 0.09423 0.76279 0.94551 0.0
H380 H 0.08163 0.76429 0.89312 0.0
H381 H 0.09833 0.8533 0.86492 0.0
H382 H 0.04506 0.8772 0.73076 0.0
H383 H 0.08117 0.85899 0.76538 0.0
H384 H 0.07002 0.76948 0.79412 0.0
C385 C 0.09801 0.77967 0.90306 0.0
C386 C 0.09323 0.83469 0.84943 0.0
C387 C 0.1051 0.77884 0.9331 0.0
C388 C 0.04003 0.85717 0.74048 0.0
C389 C 0.06052 0.84685 0.76045 0.0
C390 C 0.07654 0.78787 0.80932 0.0
C391 C 0.11012 0.80155 0.88684 0.0
C392 C 0.09837 0.80621 0.85685 0.0
C393 C 0.05334 0.82253 0.77565 0.0
C394 C 0.07092 0.81643 0.80235 0.0
H395 H 0.15276 0.83707 0.94131 0.0
H396 H 0.14167 0.83773 0.88883 0.0
H397 H 0.09405 0.76059 0.84118 0.0
H398 H 0.98486 0.80602 0.74384 0.0
H399 H 0.02043 0.78817 0.77933 0.0
C400 C 0.89616 0.09405 0.91303 0.0
C401 C 0.86569 0.10179 0.91787 0.0
C402 C 0.9044 0.07502 0.88866 0.0
C403 C 0.87547 0.01486 0.83987 0.0
H404 H 0.94279 0.03067 0.78897 0.0
C405 C 0.91046 0.93151 0.74434 0.0
C406 C 0.94166 0.92698 0.74004 0.0
C407 C 0.89992 0.95543 0.76249 0.0
C408 C 0.92413 0.02576 0.80314 0.0
H409 H 0.82001 0.09574 0.90081 0.0
H410 H 0.83446 0.06195 0.85857 0.0
H411 H 0.9272 0.06733 0.82822 0.0
H412 H 0.98614 0.94514 0.75024 0.0
H413 H 0.96793 0.98588 0.78302 0.0
H414 H 0.87308 0.97291 0.81606 0.0
C415 C 0.85189 0.07084 0.87359 0.0
C416 C 0.91516 0.04682 0.82551 0.0
C417 C 0.84368 0.09023 0.89769 0.0
C418 C 0.96197 0.94762 0.75346 0.0
C419 C 0.95146 0.9713 0.77196 0.0
C420 C 0.88469 0.99364 0.81784 0.0
C421 C 0.8823 0.06301 0.8689 0.0
C422 C 0.89088 0.04146 0.84419 0.0
C423 C 0.92031 0.97521 0.7772 0.0
C424 C 0.9093 -0.00131 0.79929 0.0
H425 H 0.91367 0.10272 0.92807 0.0
H426 H 0.92799 0.06913 0.88565 0.0
H427 H 0.8569 0.01006 0.85423 0.0
H428 H 0.89408 0.91599 0.73466 0.0
H429 H 0.87574 0.95803 0.76545 0.0
C430 C 0.39288 0.32943 0.43884 0.0
C431 C 0.38351 0.30521 0.45314 0.0
C432 C 0.3968 0.32739 0.40831 0.0
C433 C 0.41282 0.27605 0.34398 0.0
H434 H 0.39806 0.34559 0.30447 0.0
C435 C 0.44967 0.3409 0.23583 0.0
C436 C 0.48013 0.33256 0.23577 0.0
C437 C 0.42906 0.32881 0.25463 0.0
C438 C 0.40173 0.3255 0.31447 0.0
H439 H 0.37078 0.25972 0.44622 0.0
H440 H 0.37762 0.25621 0.39232 0.0
H441 H 0.37719 0.34163 0.353 0.0
H442 H 0.51277 0.30386 0.25334 0.0
H443 H 0.47768 0.28391 0.28719 0.0
H444 H 0.43728 0.25982 0.30526 0.0
C445 C 0.38201 0.27676 0.40509 0.0
C446 C 0.3901 0.32349 0.34275 0.0
C447 C 0.37809 0.27878 0.43593 0.0
C448 C 0.48923 0.31035 0.25287 0.0
C449 C 0.46891 0.29884 0.27225 0.0
C450 C 0.42407 0.27781 0.31532 0.0
C451 C 0.3913 0.30115 0.39095 0.0
C452 C 0.39703 0.29957 0.35854 0.0
C453 C 0.43888 0.30905 0.27457 0.0
C454 C 0.42016 0.3033 0.30086 0.0
H455 H 0.39752 0.35013 0.45122 0.0
H456 H 0.40484 0.34642 0.39838 0.0
H457 H 0.41831 0.25714 0.35539 0.0
H458 H 0.44224 0.35803 0.22272 0.0
H459 H 0.40594 0.3365 0.25492 0.0
C460 C 0.23846 0.90455 0.03876 0.0
C461 C 0.2138 0.89268 0.02217 0.0
C462 C 0.25592 0.92662 0.02819 0.0
C463 C 0.27835 0.96176 0.9629 0.0
H464 H 0.26881 0.03476 0.01126 0.0
C465 C 0.27999 0.07109 0.9137 0.0
C466 C 0.2843 0.09678 0.93214 0.0
C467 C 0.28212 0.04415 0.92518 0.0
C468 C 0.27275 0.0146 0.99772 0.0
H469 H 0.18916 0.89326 0.98087 0.0
H470 H 0.22027 0.93135 0.96209 0.0
H471 H 0.25274 0.98989 0.03034 0.0
H472 H 0.29695 0.11483 0.97608 0.0
H473 H 0.30275 0.06772 0.99588 0.0
H474 H 0.29836 0.98622 0.93019 0.0
C475 C 0.22581 0.92375 0.98334 0.0
C476 C 0.26327 0.98886 0.0087 0.0
C477 C 0.20791 0.90218 0.99419 0.0
C478 C 0.29346 0.09517 0.96154 0.0
C479 C 0.29636 0.06817 0.97288 0.0
C480 C 0.28855 0.98745 0.95213 0.0
C481 C 0.24949 0.93658 0.00056 0.0
C482 C 0.26497 0.96244 0.99097 0.0
C483 C 0.28914 0.04234 0.95528 0.0
C484 C 0.28469 0.01442 0.96889 0.0
H485 H 0.24343 0.89767 0.06045 0.0
H486 H 0.27401 0.93637 0.04185 0.0
H487 H 0.28006 0.94149 0.94897 0.0
H488 H 0.27254 0.0719 0.89102 0.0
H489 H 0.276 0.02503 0.91085 0.0
C490 C 0.5212 0.67477 0.48019 0.0
C491 C 0.53954 0.69944 0.48663 0.0
C492 C 0.49131 0.67763 0.47104 0.0
C493 C 0.42709 0.72765 0.47283 0.0
H494 H 0.39841 0.67423 0.40784 0.0
C495 C 0.31243 0.69445 0.39887 0.0
C496 C 0.29176 0.69174 0.42199 0.0
C497 C 0.34262 0.70165 0.40508 0.0
C498 C 0.4061 0.68965 0.42571 0.0
H499 H 0.54044 0.74659 0.48895 0.0
H500 H 0.4879 0.7515 0.47313 0.0
H501 H 0.45153 0.67389 0.4219 0.0
H502 H 0.28595 0.69675 0.46963 0.0
H503 H 0.33873 0.70899 0.4805 0.0
H504 H 0.38137 0.74301 0.47693 0.0
C505 C 0.4969 0.72997 0.47518 0.0
C506 C 0.43647 0.68919 0.43399 0.0
C507 C 0.527 0.72712 0.48413 0.0
C508 C 0.30145 0.69838 0.45137 0.0
C509 C 0.33164 0.70564 0.45757 0.0
C510 C 0.39655 0.72799 0.46464 0.0
C511 C 0.47888 0.70521 0.46823 0.0
C512 C 0.44719 0.70777 0.45798 0.0
C513 C 0.35278 0.70634 0.43452 0.0
C514 C 0.38564 0.70867 0.44126 0.0
H515 H 0.53 0.6531 0.48185 0.0
H516 H 0.47783 0.65817 0.46628 0.0
H517 H 0.43473 0.74218 0.49145 0.0
H518 H 0.30575 0.6893 0.37601 0.0
H519 H 0.3583 0.70243 0.38682 0.0
C520 C 0.39909 0.41455 0.63389 0.0
C521 C 0.37427 0.39586 0.63623 0.0
C522 C 0.40974 0.43172 0.65854 0.0
C523 C 0.38763 0.46477 0.73213 0.0
H524 H 0.47384 0.48012 0.73785 0.0
C525 C 0.44239 0.54918 0.81988 0.0
C526 C 0.45838 0.57066 0.80609 0.0
C527 C 0.4333 0.52339 0.80362 0.0
C528 C 0.44976 0.47579 0.7367 0.0
H529 H 0.34114 0.38067 0.66658 0.0
H530 H 0.36004 0.41075 0.70997 0.0
H531 H 0.455 0.4426 0.7011 0.0
H532 H 0.47721 0.58136 0.76411 0.0
H533 H 0.46278 0.5361 0.73659 0.0
H534 H 0.38262 0.49852 0.76757 0.0
C535 C 0.37103 0.41215 0.68881 0.0
C536 C 0.43891 0.45449 0.71555 0.0
C537 C 0.36023 0.39493 0.66397 0.0
C538 C 0.46581 0.56519 0.77592 0.0
C539 C 0.45732 0.53927 0.75995 0.0
C540 C 0.39858 0.48592 0.75358 0.0
C541 C 0.39606 0.43061 0.68637 0.0
C542 C 0.40763 0.44954 0.7122 0.0
C543 C 0.44064 0.51834 0.77349 0.0
C544 C 0.42963 0.49228 0.75527 0.0
H545 H 0.41036 0.41609 0.61289 0.0
H546 H 0.42852 0.44625 0.65562 0.0
H547 H 0.36343 0.46157 0.73008 0.0
H548 H 0.43657 0.55238 0.84313 0.0
H549 H 0.42048 0.50745 0.81451 0.0
C550 C 0.02609 0.7741 0.06048 0.0
C551 C 0.03976 0.80135 0.05831 0.0
C552 C 0.99554 0.77222 0.06824 0.0
C553 C 0.93534 0.81499 0.10711 0.0
H554 H 0.87986 0.76193 0.06342 0.0
C555 C 0.79971 0.80544 0.08983 0.0
C556 C 0.79028 0.81125 0.11939 0.0
C557 C 0.83002 0.79907 0.08321 0.0
C558 C 0.89513 0.77679 0.07584 0.0
H559 H 0.03184 0.84796 0.06243 0.0
H560 H 0.97889 0.84458 0.07594 0.0
H561 H 0.93352 0.76177 0.04986 0.0
H562 H 0.80512 0.81354 0.16519 0.0
H563 H 0.85766 0.80184 0.15363 0.0
H564 H 0.89716 0.83064 0.13257 0.0
C565 C 0.99181 0.8247 0.07183 0.0
C566 C 0.92583 0.77655 0.06823 0.0
C567 C 0.02215 0.82659 0.06388 0.0
C568 C 0.81148 0.80894 0.14218 0.0
C569 C 0.84171 0.80258 0.13556 0.0
C570 C 0.90482 0.8151 0.11482 0.0
C571 C 0.97821 0.79755 0.07429 0.0
C572 C 0.94612 0.79602 0.0835 0.0
C573 C 0.8515 0.79844 0.10601 0.0
C574 C 0.88428 0.79628 0.09907 0.0
H575 H 0.03897 0.75422 0.05628 0.0
H576 H 0.98564 0.75101 0.07009 0.0
H577 H 0.95052 0.83 0.11949 0.0
H578 H 0.78385 0.80676 0.07179 0.0
H579 H 0.83686 0.7961 0.0602 0.0
C580 C 0.72811 0.58606 0.51254 0.0
C581 C 0.70896 0.60505 0.52965 0.0
C582 C 0.74416 0.56453 0.52568 0.0
C583 C 0.74121 0.5246 0.59322 0.0
H584 H 0.81328 0.48764 0.55873 0.0
C585 C 0.78882 0.42321 0.63858 0.0
C586 C 0.78679 0.3994 0.61709 0.0
C587 C 0.78832 0.45154 0.63016 0.0
C588 C 0.79335 0.49802 0.56873 0.0
H589 H 0.69322 0.61817 0.57403 0.0
H590 H 0.72263 0.58203 0.59737 0.0
H591 H 0.79501 0.53277 0.54069 0.0
H592 H 0.78548 0.38623 0.57005 0.0
H593 H 0.78527 0.43588 0.55525 0.0
H594 H 0.73972 0.48989 0.62127 0.0
C595 C 0.72421 0.58248 0.5736 0.0
C596 C 0.78264 0.52369 0.55825 0.0
C597 C 0.7075 0.6034 0.56032 0.0
C598 C 0.7871 0.4043 0.58698 0.0
C599 C 0.78709 0.43264 0.57854 0.0
C600 C 0.7523 0.49942 0.60408 0.0
C601 C 0.74196 0.56205 0.55635 0.0
C602 C 0.75591 0.53694 0.56983 0.0
C603 C 0.78626 0.45645 0.60012 0.0
C604 C 0.77803 0.48552 0.5915 0.0
H605 H 0.72949 0.58689 0.48878 0.0
H606 H 0.75714 0.5491 0.51145 0.0
H607 H 0.72023 0.53348 0.60237 0.0
H608 H 0.7883 0.41998 0.66194 0.0
H609 H 0.78773 0.4696 0.64716 0.0
C610 C 0.8934 0.21804 0.11112 0.0
C611 C 0.87288 0.19751 0.09807 0.0
C612 C 0.90125 0.21775 0.14103 0.0
C613 C 0.90436 0.16414 0.1962 0.0
H614 H 0.93452 0.22896 0.24833 0.0
C615 C 0.96134 0.14166 0.30359 0.0
C616 C 0.99025 0.15404 0.30726 0.0
C617 C 0.94069 0.15246 0.28406 0.0
C618 C 0.92604 0.21069 0.23403 0.0
H619 H 0.84211 0.16268 0.10629 0.0
H620 H 0.85446 0.16312 0.15864 0.0
H621 H 0.90886 0.23813 0.20218 0.0
H622 H 0.0195 0.18872 0.29531 0.0
H623 H 0.9836 0.20735 0.26069 0.0
H624 H 0.92213 0.13663 0.2272 0.0
C625 C 0.86563 0.17859 0.14575 0.0
C626 C 0.91144 0.21591 0.20757 0.0
C627 C 0.85835 0.17845 0.11583 0.0
C628 C 0.99726 0.17891 0.29297 0.0
C629 C 0.97666 0.18959 0.27317 0.0
C630 C 0.9187 0.15898 0.22254 0.0
C631 C 0.88829 0.19721 0.1584 0.0
C632 C 0.90081 0.19262 0.18811 0.0
C633 C 0.9487 0.1756 0.26751 0.0
C634 C 0.93014 0.18209 0.24159 0.0
H635 H 0.90496 0.23288 0.09776 0.0
H636 H 0.91887 0.23233 0.14993 0.0
H637 H 0.89732 0.14554 0.18153 0.0
H638 H 0.95535 0.12263 0.31462 0.0
H639 H 0.91906 0.14162 0.28067 0.0
C640 C 0.15526 0.77224 0.16271 0.0
C641 C 0.15076 0.75573 0.13547 0.0
C642 C 0.15355 0.75931 0.18919 0.0
C643 C 0.16701 0.69087 0.21949 0.0
H644 H 0.13326 0.73171 0.29047 0.0
C645 C 0.19126 0.65417 0.33541 0.0
C646 C 0.20079 0.67674 0.35627 0.0
C647 C 0.17781 0.66044 0.30882 0.0
C648 C 0.14276 0.72001 0.27086 0.0
H649 H 0.14007 0.71282 0.11466 0.0
H650 H 0.13769 0.68988 0.1614 0.0
H651 H 0.12211 0.74861 0.2422 0.0
H652 H 0.20244 0.72349 0.36625 0.0
H653 H 0.17948 0.73449 0.31974 0.0
H654 H 0.18891 0.66315 0.24819 0.0
C655 C 0.14239 0.71294 0.162 0.0
C656 C 0.13629 0.72961 0.24325 0.0
C657 C 0.14368 0.72605 0.13534 0.0
C658 C 0.19559 0.70566 0.35047 0.0
C659 C 0.1821 0.71192 0.32397 0.0
C660 C 0.17356 0.68129 0.24715 0.0
C661 C 0.14755 0.72948 0.18916 0.0
C662 C 0.14923 0.71577 0.2174 0.0
C663 C 0.1735 0.6894 0.30262 0.0
C664 C 0.16236 0.6964 0.2732 0.0
H665 H 0.16045 0.79523 0.16362 0.0
H666 H 0.15806 0.77255 0.2097 0.0
H667 H 0.17749 0.67992 0.19997 0.0
H668 H 0.19519 0.63165 0.33913 0.0
H669 H 0.17124 0.64263 0.29291 0.0
C670 C 0.7614 0.72352 0.52803 0.0
C671 C 0.73642 0.74005 0.52041 0.0
C672 C 0.78641 0.73696 0.5423 0.0
C673 C 0.80864 0.80626 0.58544 0.0
H674 H 0.88901 0.7729 0.57696 0.0
C675 C 0.91386 0.8618 0.63985 0.0
C676 C 0.92777 0.84508 0.6605 0.0
C677 C 0.89308 0.84919 0.61933 0.0
C678 C 0.86666 0.78241 0.5794 0.0
H679 H 0.71849 0.78366 0.52049 0.0
H680 H 0.7627 0.80737 0.54389 0.0
H681 H 0.84753 0.75143 0.54674 0.0
H682 H 0.9318 0.80148 0.67442 0.0
H683 H 0.89642 0.77935 0.63761 0.0
H684 H 0.82822 0.83768 0.61756 0.0
C685 C 0.76263 0.7839 0.54008 0.0
C686 C 0.84279 0.77003 0.56231 0.0
C687 C 0.73732 0.77037 0.52644 0.0
C688 C 0.92186 0.81502 0.65874 0.0
C689 C 0.90149 0.80231 0.63777 0.0
C690 C 0.83261 0.81896 0.60197 0.0
C691 C 0.78734 0.76735 0.54872 0.0
C692 C 0.81332 0.78155 0.5654 0.0
C693 C 0.88633 0.81948 0.6185 0.0
C694 C 0.8617 0.80694 0.59935 0.0
H695 H 0.76119 0.70004 0.52388 0.0
H696 H 0.80458 0.72331 0.54904 0.0
H697 H 0.7863 0.81545 0.58909 0.0
H698 H 0.91843 0.88484 0.63999 0.0
H699 H 0.88184 0.86276 0.60442 0.0
C700 C 0.73444 0.22329 0.03425 0.0
C701 C 0.76034 0.23892 0.02733 0.0
C702 C 0.71046 0.23726 0.04965 0.0
C703 C 0.6922 0.30511 0.09711 0.0
H704 H 0.61011 0.27646 0.08585 0.0
C705 C 0.587 0.36092 0.1535 0.0
C706 C 0.57096 0.34278 0.17135 0.0
C707 C 0.609 0.34943 0.13366 0.0
C708 C 0.63296 0.28465 0.0891 0.0
H709 H 0.78103 0.28161 0.03015 0.0
H710 H 0.7386 0.30636 0.05573 0.0
H711 H 0.65053 0.25505 0.05443 0.0
H712 H 0.56561 0.29804 0.1818 0.0
H713 H 0.60291 0.27803 0.14609 0.0
H714 H 0.67409 0.33526 0.13133 0.0
C715 C 0.73717 0.28309 0.05031 0.0
C716 C 0.65621 0.27228 0.07132 0.0
C717 C 0.76145 0.26896 0.03545 0.0
C718 C 0.5769 0.3127 0.1681 0.0
C719 C 0.59843 0.30118 0.14779 0.0
C720 C 0.66881 0.31786 0.11443 0.0
C721 C 0.71147 0.26736 0.05798 0.0
C722 C 0.68628 0.28198 0.07541 0.0
C723 C 0.61492 0.3195 0.13074 0.0
C724 C 0.63913 0.30743 0.11086 0.0
H725 H 0.73307 0.20003 0.02856 0.0
H726 H 0.69149 0.22419 0.05565 0.0
H727 H 0.71502 0.31288 0.10141 0.0
H728 H 0.58268 0.38407 0.15488 0.0
H729 H 0.62137 0.36391 0.12052 0.0
C730 C 0.34297 0.23324 0.63957 0.0
C731 C 0.33835 0.26328 0.63892 0.0
C732 C 0.33887 0.22015 0.666 0.0
C733 C 0.29749 0.23335 0.73637 0.0
H734 H 0.34852 0.17329 0.76425 0.0
C735 C 0.28525 0.19925 0.8536 0.0
C736 C 0.284 0.16929 0.85664 0.0
C737 C 0.29427 0.20935 0.82692 0.0
C738 C 0.33398 0.1899 0.75655 0.0
H739 H 0.32824 0.30344 0.66577 0.0
H740 H 0.32178 0.28087 0.71151 0.0
H741 H 0.36036 0.19321 0.71727 0.0
H742 H 0.29197 0.12643 0.83424 0.0
H743 H 0.30798 0.1442 0.78758 0.0
H744 H 0.27121 0.23033 0.77544 0.0
C745 C 0.32748 0.26719 0.69161 0.0
C746 C 0.34071 0.20124 0.7297 0.0
C747 C 0.33129 0.28013 0.66537 0.0
C748 C 0.29299 0.14966 0.8327 0.0
C749 C 0.30213 0.1598 0.80597 0.0
C750 C 0.29087 0.22217 0.7631 0.0
C751 C 0.3303 0.23697 0.6921 0.0
C752 C 0.32276 0.22342 0.71959 0.0
C753 C 0.30229 0.18973 0.80267 0.0
C754 C 0.30924 0.20064 0.77371 0.0
H755 H 0.34851 0.21976 0.61951 0.0
H756 H 0.34124 0.19679 0.66575 0.0
H757 H 0.28271 0.24985 0.72881 0.0
H758 H 0.279 0.21491 0.87181 0.0
H759 H 0.29473 0.23258 0.82518 0.0
C760 C 0.64201 0.76669 0.40736 0.0
C761 C 0.65178 0.73778 0.40784 0.0
C762 C 0.64132 0.77977 0.38072 0.0
C763 C 0.64261 0.76391 0.29923 0.0
H764 H 0.68741 0.83614 0.29965 0.0
C765 C 0.72166 0.82274 0.21484 0.0
C766 C 0.70336 0.82272 0.18952 0.0
C767 C 0.70933 0.81647 0.24178 0.0
C768 C 0.67457 0.81612 0.29925 0.0
H769 H 0.66707 0.69952 0.38055 0.0
H770 H 0.66583 0.72228 0.33435 0.0
H771 H 0.67546 0.81651 0.34646 0.0
H772 H 0.65779 0.81674 0.1725 0.0
H773 H 0.63611 0.80513 0.2199 0.0
H774 H 0.64301 0.76285 0.25191 0.0
C775 C 0.65867 0.73485 0.35446 0.0
C776 C 0.66751 0.80502 0.32602 0.0
C777 C 0.6597 0.72192 0.38103 0.0
C778 C 0.67232 0.81682 0.19175 0.0
C779 C 0.65999 0.81015 0.21875 0.0
C780 C 0.64947 0.77513 0.27245 0.0
C781 C 0.64993 0.76402 0.35407 0.0
C782 C 0.65237 0.7783 0.32622 0.0
C783 C 0.67846 0.80983 0.24398 0.0
C784 C 0.66642 0.80083 0.27219 0.0
H785 H 0.63569 0.77946 0.42764 0.0
H786 H 0.63441 0.80229 0.38099 0.0
H787 H 0.63064 0.7434 0.29879 0.0
H788 H 0.7456 0.82758 0.21377 0.0
H789 H 0.72418 0.81601 0.26075 0.0
C790 C 0.83178 0.21371 0.88267 0.0
C791 C 0.83755 0.23199 0.90855 0.0
C792 C 0.83122 0.22479 0.85516 0.0
C793 C 0.8513 0.28809 0.81444 0.0
H794 H 0.78587 0.25808 0.76338 0.0
C795 C 0.80831 0.3404 0.7103 0.0
C796 C 0.79905 0.32138 0.68597 0.0
C797 C 0.81799 0.3295 0.73648 0.0
C798 C 0.80455 0.26638 0.77714 0.0
H799 H 0.84847 0.27606 0.92578 0.0
H800 H 0.84659 0.2958 0.87742 0.0
H801 H 0.79268 0.23978 0.81135 0.0
H802 H 0.79485 0.27611 0.66919 0.0
H803 H 0.8117 0.25707 0.71489 0.0
H804 H 0.86244 0.31535 0.78011 0.0
C805 C 0.84293 0.27274 0.8785 0.0
C806 C 0.80848 0.25589 0.8047 0.0
C807 C 0.84387 0.26151 0.90619 0.0
C808 C 0.80138 0.29127 0.68774 0.0
C809 C 0.81099 0.2804 0.71388 0.0
C810 C 0.84721 0.29878 0.78678 0.0
C811 C 0.83596 0.25455 0.85277 0.0
C812 C 0.83201 0.26641 0.82363 0.0
C813 C 0.81848 0.2994 0.73882 0.0
C814 C 0.82388 0.28785 0.7678 0.0
H815 H 0.82749 0.19072 0.88365 0.0
H816 H 0.82667 0.20999 0.83574 0.0
H817 H 0.86975 0.29651 0.82843 0.0
H818 H 0.80647 0.36372 0.70974 0.0
H819 H 0.82342 0.34465 0.7554 0.0
C820 C 0.27053 0.24365 0.49653 0.0
C821 C 0.2655 0.26624 0.51894 0.0
C822 C 0.24649 0.23141 0.47981 0.0
C823 C 0.16457 0.22007 0.47918 0.0
H824 H 0.17607 0.20816 0.39417 0.0
C825 C 0.07068 0.1743 0.39779 0.0
C826 C 0.08026 0.15389 0.37479 0.0
C827 C 0.09187 0.18962 0.41613 0.0
C828 C 0.17257 0.21108 0.41789 0.0
H829 H 0.23099 0.29316 0.54174 0.0
H830 H 0.18886 0.27147 0.51247 0.0
H831 H 0.21565 0.23157 0.42515 0.0
H832 H 0.11964 0.13391 0.35282 0.0
H833 H 0.15628 0.15977 0.38518 0.0
H834 H 0.12166 0.19896 0.4719 0.0
C835 C 0.21154 0.26338 0.50797 0.0
C836 C 0.19523 0.22454 0.43561 0.0
C837 C 0.23569 0.27585 0.52462 0.0
C838 C 0.11141 0.14911 0.37061 0.0
C839 C 0.13249 0.1643 0.3889 0.0
C840 C 0.14187 0.20639 0.46141 0.0
C841 C 0.21681 0.2413 0.48515 0.0
C842 C 0.19169 0.22876 0.46646 0.0
C843 C 0.12303 0.1849 0.41173 0.0
C844 C 0.14588 0.20131 0.4306 0.0
H845 H 0.29313 0.23563 0.49151 0.0
H846 H 0.25116 0.21411 0.46265 0.0
H847 H 0.16132 0.22297 0.50294 0.0
H848 H 0.04682 0.17836 0.40166 0.0
H849 H 0.08387 0.20548 0.43343 0.0
C850 C 0.22932 0.73353 0.99576 0.0
C851 C 0.23403 0.75471 0.01964 0.0
C852 C 0.25369 0.72185 0.9792 0.0
C853 C 0.3358 0.71035 0.9796 0.0
H854 H 0.32681 0.70694 0.89428 0.0
C855 C 0.43336 0.67521 0.89859 0.0
C856 C 0.42527 0.65675 0.87345 0.0
C857 C 0.41104 0.68841 0.91711 0.0
C858 C 0.3296 0.70744 0.91805 0.0
H859 H 0.26836 0.77928 0.04549 0.0
H860 H 0.31098 0.75861 0.01652 0.0
H861 H 0.28591 0.72635 0.92605 0.0
H862 H 0.38741 0.63837 0.84758 0.0
H863 H 0.34874 0.66051 0.88018 0.0
H864 H 0.37935 0.69093 0.97155 0.0
C865 C 0.28831 0.7512 0.0107 0.0
C866 C 0.30617 0.71859 0.93623 0.0
C867 C 0.26387 0.76308 0.02721 0.0
C868 C 0.39445 0.65206 0.86705 0.0
C869 C 0.37224 0.66512 0.88554 0.0
C870 C 0.35925 0.69897 0.96136 0.0
C871 C 0.28338 0.7309 0.98619 0.0
C872 C 0.30887 0.71986 0.96718 0.0
C873 C 0.38021 0.68346 0.91078 0.0
C874 C 0.35624 0.69709 0.93035 0.0
H875 H 0.20671 0.72646 0.9893 0.0
H876 H 0.24928 0.70588 0.96068 0.0
H877 H 0.33841 0.71098 0.00341 0.0
H878 H 0.45692 0.67916 0.90415 0.0
H879 H 0.41793 0.70265 0.93623 0.0
loop_
_geom_bond_atom_site_label_1
_geom_bond_atom_site_label_2
_geom_bond_distance
_geom_bond_site_symmetry_2
_ccdc_geom_bond_type
Sc0 O3 2.025 . S
Sc0 O10 2.105 . S
Sc0 O13 2.105 . S
Sc0 O16 2.105 . S
Sc0 O19 2.075 1_554 S
Sc1 O3 2.025 . S
Sc1 O11 2.105 1_554 S
Sc1 O15 2.105 . S
Sc1 O17 2.105 . S
Sc1 O21 2.105 . S
Sc2 O3 2.025 . S
Sc2 O12 2.105 . S
Sc2 O14 2.105 . S
Sc2 O18 2.105 . S
Sc2 O20 2.105 . S
O3 Sc0 2.025 . S
O3 Sc1 2.025 . S
O3 Sc2 2.025 . S
C4 O10 1.268 . S
C4 O20 1.268 . S
C5 O11 1.268 . S
C5 O19 1.282 . S
C6 O12 1.268 . S
C6 O21 1.268 . S
C7 O13 1.268 . S
C7 O17 1.268 . S
C8 O14 1.268 . S
C8 O16 1.268 . S
C9 O15 1.268 . S
C9 O18 1.268 . S
O10 Sc0 2.105 . S
O10 C4 1.268 . S
O11 Sc1 2.105 1_556 S
O11 C5 1.268 . S
O12 Sc2 2.105 . S
O12 C6 1.268 . S
O13 Sc0 2.105 . S
O13 C7 1.268 . S
O14 Sc2 2.105 . S
O14 C8 1.268 . S
O15 Sc1 2.105 . S
O15 C9 1.268 . S
O16 Sc0 2.105 . S
O16 C8 1.268 . S
O17 Sc1 2.105 . S
O17 C7 1.268 . S
O18 Sc2 2.105 . S
O18 C9 1.268 . S
O19 Sc0 2.075 1_556 S
O19 C5 1.282 . S
O20 Sc2 2.105 . S
O20 C4 1.268 . S
O21 Sc1 2.105 . S
O21 C6 1.268 . S
Sc22 O25 2.025 . S
Sc22 O32 2.105 . S
Sc22 O35 2.105 . S
Sc22 O38 2.105 . S
Sc22 O41 2.105 . S
Sc23 O25 2.025 . S
Sc23 O33 2.105 . S
Sc23 O37 2.105 . S
Sc23 O39 2.105 . S
Sc23 O43 2.105 . S
Sc24 O25 2.025 . S
Sc24 O34 2.105 . S
Sc24 O36 2.105 . S
Sc24 O40 2.105 . S
Sc24 O42 2.105 . S
O25 Sc22 2.025 . S
O25 Sc23 2.025 . S
O25 Sc24 2.025 . S
C26 O32 1.268 . S
C26 O42 1.268 . S
C27 O33 1.268 . S
C27 O41 1.268 . S
C28 O34 1.268 . S
C28 O43 1.268 . S
C29 O35 1.268 . S
C29 O39 1.268 . S
C30 O36 1.268 . S
C30 O38 1.268 . S
C31 O37 1.268 . S
C31 O40 1.268 . S
O32 Sc22 2.105 . S
O32 C26 1.268 . S
O33 Sc23 2.105 . S
O33 C27 1.268 . S
O34 Sc24 2.105 . S
O34 C28 1.268 . S
O35 Sc22 2.105 . S
O35 C29 1.268 . S
O36 Sc24 2.105 . S
O36 C30 1.268 . S
O37 Sc23 2.105 . S
O37 C31 1.268 . S
O38 Sc22 2.105 . S
O38 C30 1.268 . S
O39 Sc23 2.105 . S
O39 C29 1.268 . S
O40 Sc24 2.105 . S
O40 C31 1.268 . S
O41 Sc22 2.105 . S
O41 C27 1.268 . S
O42 Sc24 2.105 . S
O42 C26 1.268 . S
O43 Sc23 2.105 . S
O43 C28 1.268 . S
Sc44 O47 2.025 . S
Sc44 O54 2.105 1_554 S
Sc44 O57 2.105 . S
Sc44 O60 2.105 . S
Sc44 O63 2.105 1_554 S
Sc45 O47 2.025 1_556 S
Sc45 O55 2.105 . S
Sc45 O59 2.105 1_556 S
Sc45 O61 2.105 1_556 S
Sc45 O65 2.105 . S
Sc46 O47 2.025 . S
Sc46 O56 2.105 1_554 S
Sc46 O58 2.105 . S
Sc46 O62 2.105 . S
Sc46 O64 2.105 1_554 S
O47 Sc44 2.025 . S
O47 Sc45 2.025 1_554 S
O47 Sc46 2.025 . S
C48 O54 1.268 . S
C48 O64 1.268 . S
C49 O55 1.268 . S
C49 O63 1.268 . S
C50 O56 1.268 . S
C50 O65 1.268 . S
C51 O57 1.268 . S
C51 O61 1.268 . S
C52 O58 1.268 . S
C52 O60 1.268 . S
C53 O59 1.268 . S
C53 O62 1.268 . S
O54 Sc44 2.105 1_556 S
O54 C48 1.268 . S
O55 Sc45 2.105 . S
O55 C49 1.268 . S
O56 Sc46 2.105 1_556 S
O56 C50 1.268 . S
O57 Sc44 2.105 . S
O57 C51 1.268 . S
O58 Sc46 2.105 . S
O58 C52 1.268 . S
O59 Sc45 2.105 1_554 S
O59 C53 1.268 . S
O60 Sc44 2.105 . S
O60 C52 1.268 . S
O61 Sc45 2.105 1_554 S
O61 C51 1.268 . S
O62 Sc46 2.105 . S
O62 C53 1.268 . S
O63 Sc44 2.105 1_556 S
O63 C49 1.268 . S
O64 Sc46 2.105 1_556 S
O64 C48 1.268 . S
O65 Sc45 2.105 . S
O65 C50 1.268 . S
Sc66 O69 2.025 . S
Sc66 O76 2.105 . S
Sc66 O79 2.105 . S
Sc66 O82 2.105 . S
Sc66 O85 2.105 . S
Sc67 O69 2.025 . S
Sc67 O77 2.105 . S
Sc67 O81 2.105 . S
Sc67 O83 2.105 . S
Sc67 O87 2.105 . S
Sc68 O69 2.025 . S
Sc68 O78 2.105 . S
Sc68 O80 2.105 . S
Sc68 O84 2.105 . S
Sc68 O86 2.105 . S
O69 Sc66 2.025 . S
O69 Sc67 2.025 . S
O69 Sc68 2.025 . S
C70 O76 1.268 . S
C70 O86 1.268 . S
C71 O77 1.268 . S
C71 O85 1.268 . S
C72 O78 1.268 . S
C72 O87 1.268 . S
C73 O79 1.268 . S
C73 O83 1.268 . S
C74 O80 1.268 . S
C74 O82 1.268 . S
C75 O81 1.268 . S
C75 O84 1.268 . S
O76 Sc66 2.105 . S
O76 C70 1.268 . S
O77 Sc67 2.105 . S
O77 C71 1.268 . S
O78 Sc68 2.105 . S
O78 C72 1.268 . S
O79 Sc66 2.105 . S
O79 C73 1.268 . S
O80 Sc68 2.105 . S
O80 C74 1.268 . S
O81 Sc67 2.105 . S
O81 C75 1.268 . S
O82 Sc66 2.105 . S
O82 C74 1.268 . S
O83 Sc67 2.105 . S
O83 C73 1.268 . S
O84 Sc68 2.105 . S
O84 C75 1.268 . S
O85 Sc66 2.105 . S
O85 C71 1.268 . S
O86 Sc68 2.105 . S
O86 C70 1.268 . S
O87 Sc67 2.105 . S
O87 C72 1.268 . S
H88 C91 0.931 . S
H89 C94 0.928 . S
H90 C96 0.930 . S
C91 H88 0.931 . S
C91 C92 1.413 . S
C91 C93 1.360 . S
C92 C91 1.413 . S
C92 C96 1.429 . S
C93 C91 1.360 . S
C93 C94 1.372 . S
C94 H89 0.928 . S
C94 C93 1.372 . S
C94 C95 1.404 . S
C95 C94 1.404 . S
C95 C96 1.391 . S
C96 H90 0.930 . S
C96 C92 1.429 . S
C96 C95 1.391 . S
H97 C100 0.931 . S
H98 C103 0.928 . S
H99 C105 0.930 . S
C100 H97 0.931 . S
C100 C101 1.413 . S
C100 C102 1.360 . S
C101 C100 1.413 . S
C101 C105 1.429 . S
C102 C100 1.360 . S
C102 C103 1.372 . S
C103 H98 0.928 . S
C103 C102 1.372 . S
C103 C104 1.404 . S
C104 C103 1.404 . S
C104 C105 1.391 . S
C105 H99 0.930 . S
C105 C101 1.429 . S
C105 C104 1.391 . S
H106 C109 0.931 . S
H107 C112 0.928 . S
H108 C114 0.930 . S
C109 H106 0.931 . S
C109 C110 1.413 . S
C109 C111 1.360 . S
C110 C109 1.413 . S
C110 C114 1.429 . S
C111 C109 1.360 . S
C111 C112 1.372 . S
C112 H107 0.928 . S
C112 C111 1.372 . S
C112 C113 1.404 . S
C113 C112 1.404 . S
C113 C114 1.391 . S
C114 H108 0.930 . S
C114 C110 1.429 . S
C114 C113 1.391 . S
H115 C118 0.931 . S
H116 C121 0.928 . S
H117 C123 0.930 . S
C118 H115 0.931 . S
C118 C119 1.413 . S
C118 C120 1.360 . S
C119 C118 1.413 . S
C119 C123 1.429 . S
C120 C118 1.360 . S
C120 C121 1.372 . S
C121 H116 0.928 . S
C121 C120 1.372 . S
C121 C122 1.404 . S
C122 C121 1.404 . S
C122 C123 1.391 . S
C123 H117 0.930 . S
C123 C119 1.429 . S
C123 C122 1.391 . S
H124 C127 0.931 . S
H125 C130 0.928 . S
H126 C132 0.930 . S
C127 H124 0.931 . S
C127 C128 1.413 . S
C127 C129 1.360 . S
C128 C127 1.413 . S
C128 C132 1.429 . S
C129 C127 1.360 . S
C129 C130 1.372 . S
C130 H125 0.928 . S
C130 C129 1.372 . S
C130 C131 1.404 . S
C131 C130 1.404 . S
C131 C132 1.391 . S
C132 H126 0.930 . S
C132 C128 1.429 . S
C132 C131 1.391 . S
H133 C136 0.931 . S
H134 C139 0.928 . S
H135 C141 0.930 . S
C136 H133 0.931 . S
C136 C137 1.413 . S
C136 C138 1.360 . S
C137 C136 1.413 . S
C137 C141 1.429 . S
C138 C136 1.360 . S
C138 C139 1.372 . S
C139 H134 0.928 . S
C139 C138 1.372 . S
C139 C140 1.404 . S
C140 C139 1.404 . S
C140 C141 1.391 . S
C141 H135 0.930 . S
C141 C137 1.429 . S
C141 C140 1.391 . S
H142 C145 0.931 . S
H143 C148 0.928 . S
H144 C150 0.930 . S
C145 H142 0.931 . S
C145 C146 1.413 . S
C145 C147 1.360 . S
C146 C145 1.413 . S
C146 C150 1.429 . S
C147 C145 1.360 . S
C147 C148 1.372 . S
C148 H143 0.928 . S
C148 C147 1.372 . S
C148 C149 1.404 . S
C149 C148 1.404 . S
C149 C150 1.391 . S
C150 H144 0.930 . S
C150 C146 1.429 . S
C150 C149 1.391 . S
H151 C154 0.931 . S
H152 C157 0.928 . S
H153 C159 0.930 . S
C154 H151 0.931 . S
C154 C155 1.413 . S
C154 C156 1.360 . S
C155 C154 1.413 . S
C155 C159 1.429 . S
C156 C154 1.360 . S
C156 C157 1.372 . S
C157 H152 0.928 . S
C157 C156 1.372 . S
C157 C158 1.404 . S
C158 C157 1.404 . S
C158 C159 1.391 . S
C159 H153 0.930 . S
C159 C155 1.429 . S
C159 C158 1.391 . S
C160 C161 1.349 . S
C160 C162 1.327 . S
C160 H185 0.950 . S
C161 C160 1.349 . S
C161 C177 1.349 . S
C162 C160 1.327 . S
C162 C181 1.429 . S
C162 H186 0.950 . S
C163 C180 1.584 . S
C163 C182 1.368 . S
C163 H187 0.949 . S
H164 C168 0.949 . S
C165 C166 1.349 . S
C165 C167 1.327 . S
C165 H188 0.950 . S
C166 C165 1.349 . S
C166 C178 1.349 . S
C167 C165 1.327 . S
C167 C183 1.429 . S
C167 H189 0.950 . S
C168 H164 0.949 . S
C168 C176 1.574 . S
C168 C184 1.368 1_565 S
H169 C177 0.950 . S
H170 C175 0.950 . S
H171 C176 0.949 . S
H172 C178 0.950 . S
H173 C179 0.950 . S
H174 C180 0.941 1_545 S
C175 H170 0.950 . S
C175 C177 1.327 . S
C175 C181 1.429 . S
C176 C168 1.574 . S
C176 H171 0.949 . S
C176 C182 1.368 . S
C177 C161 1.349 . S
C177 H169 0.950 . S
C177 C175 1.327 . S
C178 C166 1.349 . S
C178 H172 0.950 . S
C178 C179 1.327 . S
C179 H173 0.950 . S
C179 C178 1.327 . S
C179 C183 1.429 . S
C180 C163 1.584 . S
C180 H174 0.941 1_565 S
C180 C184 1.368 1_565 S
C181 C162 1.429 . S
C181 C175 1.429 . S
C181 C182 1.523 . S
C182 C163 1.368 . S
C182 C176 1.368 . S
C182 C181 1.523 . S
C183 C167 1.429 . S
C183 C179 1.429 . S
C183 C184 1.523 . S
C184 C168 1.368 1_545 S
C184 C180 1.368 1_545 S
C184 C183 1.523 . S
H185 C160 0.950 . S
H186 C162 0.950 . S
H187 C163 0.949 . S
H188 C165 0.950 . S
H189 C167 0.950 . S
C190 C191 1.349 . S
C190 C192 1.327 . S
C190 H215 0.950 . S
C191 C190 1.349 . S
C191 C207 1.349 . S
C192 C190 1.327 . S
C192 C211 1.429 . S
C192 H216 0.950 . S
C193 C210 1.574 . S
C193 C212 1.368 . S
C193 H217 0.949 . S
H194 C198 0.949 . S
C195 C196 1.349 . S
C195 C197 1.327 . S
C195 H218 0.950 . S
C196 C195 1.349 . S
C196 C208 1.349 . S
C197 C195 1.327 . S
C197 C213 1.429 . S
C197 H219 0.950 . S
C198 H194 0.949 . S
C198 C206 1.574 . S
C198 C214 1.368 . S
H199 C207 0.950 . S
H200 C205 0.950 . S
H201 C206 0.949 . S
H202 C208 0.950 . S
H203 C209 0.950 . S
H204 C210 0.949 . S
C205 H200 0.950 . S
C205 C207 1.327 . S
C205 C211 1.429 . S
C206 C198 1.574 . S
C206 H201 0.949 . S
C206 C212 1.368 . S
C207 C191 1.349 . S
C207 H199 0.950 . S
C207 C205 1.327 . S
C208 C196 1.349 . S
C208 H202 0.950 . S
C208 C209 1.327 . S
C209 H203 0.950 . S
C209 C208 1.327 . S
C209 C213 1.429 . S
C210 C193 1.574 . S
C210 H204 0.949 . S
C210 C214 1.368 . S
C211 C192 1.429 . S
C211 C205 1.429 . S
C211 C212 1.523 . S
C212 C193 1.368 . S
C212 C206 1.368 . S
C212 C211 1.523 . S
C213 C197 1.429 . S
C213 C209 1.429 . S
C213 C214 1.523 . S
C214 C198 1.368 . S
C214 C210 1.368 . S
C214 C213 1.523 . S
H215 C190 0.950 . S
H216 C192 0.950 . S
H217 C193 0.949 . S
H218 C195 0.950 . S
H219 C197 0.950 . S
C220 C221 1.349 . S
C220 C222 1.327 . S
C220 H245 0.950 . S
C221 C220 1.349 . S
C221 C237 1.349 . S
C222 C220 1.327 . S
C222 C241 1.429 . S
C222 H246 0.950 . S
C223 C240 1.574 1_545 S
C223 C242 1.368 . S
C223 H247 0.949 . S
H224 C228 0.949 . S
C225 C226 1.349 . S
C225 C227 1.327 . S
C225 H248 0.950 . S
C226 C225 1.349 . S
C226 C238 1.349 . S
C227 C225 1.327 . S
C227 C243 1.429 . S
C227 H249 0.950 . S
C228 H224 0.949 . S
C228 C236 1.574 . S
C228 C244 1.368 . S
H229 C237 0.950 . S
H230 C235 0.950 . S
H231 C236 0.949 . S
H232 C238 0.950 . S
H233 C239 0.950 . S
H234 C240 0.949 . S
C235 H230 0.950 . S
C235 C237 1.327 . S
C235 C241 1.429 . S
C236 C228 1.574 . S
C236 H231 0.949 . S
C236 C242 1.368 1_565 S
C237 C221 1.349 . S
C237 H229 0.950 . S
C237 C235 1.327 . S
C238 C226 1.349 . S
C238 H232 0.950 . S
C238 C239 1.327 . S
C239 H233 0.950 . S
C239 C238 1.327 . S
C239 C243 1.429 . S
C240 C223 1.574 1_565 S
C240 H234 0.949 . S
C240 C244 1.368 . S
C241 C222 1.429 . S
C241 C235 1.429 . S
C241 C242 1.523 . S
C242 C223 1.368 . S
C242 C236 1.368 1_545 S
C242 C241 1.523 . S
C243 C227 1.429 . S
C243 C239 1.429 . S
C243 C244 1.523 . S
C244 C228 1.368 . S
C244 C240 1.368 . S
C244 C243 1.523 . S
H245 C220 0.950 . S
H246 C222 0.950 . S
H247 C223 0.949 . S
H248 C225 0.950 . S
H249 C227 0.950 . S
C250 C251 1.349 . S
C250 C252 1.327 . S
C250 H275 0.950 . S
C251 C250 1.349 . S
C251 C267 1.349 . S
C252 C250 1.327 . S
C252 C271 1.429 . S
C252 H276 0.950 . S
C253 C270 1.574 . S
C253 C272 1.368 . S
C253 H277 0.949 . S
H254 C258 0.949 . S
C255 C256 1.349 . S
C255 C257 1.327 . S
C255 H278 0.950 . S
C256 C255 1.349 . S
C256 C268 1.349 . S
C257 C255 1.327 . S
C257 C273 1.429 . S
C257 H279 0.950 . S
C258 H254 0.949 . S
C258 C266 1.574 . S
C258 C274 1.368 . S
H259 C267 0.950 . S
H260 C265 0.950 . S
H261 C266 0.949 . S
H262 C268 0.950 . S
H263 C269 0.950 . S
H264 C270 0.949 . S
C265 H260 0.950 . S
C265 C267 1.327 . S
C265 C271 1.429 . S
C266 C258 1.574 . S
C266 H261 0.949 . S
C266 C272 1.368 . S
C267 C251 1.349 . S
C267 H259 0.950 . S
C267 C265 1.327 . S
C268 C256 1.349 . S
C268 H262 0.950 . S
C268 C269 1.327 . S
C269 H263 0.950 . S
C269 C268 1.327 . S
C269 C273 1.429 . S
C270 C253 1.574 . S
C270 H264 0.949 . S
C270 C274 1.368 . S
C271 C252 1.429 . S
C271 C265 1.429 . S
C271 C272 1.523 . S
C272 C253 1.368 . S
C272 C266 1.368 . S
C272 C271 1.523 . S
C273 C257 1.429 . S
C273 C269 1.429 . S
C273 C274 1.523 . S
C274 C258 1.368 . S
C274 C270 1.368 . S
C274 C273 1.523 . S
H275 C250 0.950 . S
H276 C252 0.950 . S
H277 C253 0.949 . S
H278 C255 0.950 . S
H279 C257 0.950 . S
C280 C281 1.349 . S
C280 C282 1.327 . S
C280 H305 0.950 . S
C281 C280 1.349 . S
C281 C297 1.349 . S
C282 C280 1.327 . S
C282 C301 1.429 . S
C282 H306 0.950 . S
C283 C300 1.574 . S
C283 C302 1.368 . S
C283 H307 0.949 . S
H284 C288 0.949 . S
C285 C286 1.349 . S
C285 C287 1.327 . S
C285 H308 0.950 . S
C286 C285 1.349 . S
C286 C298 1.349 . S
C287 C285 1.327 . S
C287 C303 1.429 . S
C287 H309 0.950 . S
C288 H284 0.949 . S
C288 C296 1.574 . S
C288 C304 1.368 . S
H289 C297 0.950 . S
H290 C295 0.950 . S
H291 C296 0.949 . S
H292 C298 0.950 . S
H293 C299 0.950 . S
H294 C300 0.949 . S
C295 H290 0.950 . S
C295 C297 1.327 . S
C295 C301 1.429 . S
C296 C288 1.574 . S
C296 H291 0.949 . S
C296 C302 1.368 . S
C297 C281 1.349 . S
C297 H289 0.950 . S
C297 C295 1.327 . S
C298 C286 1.349 . S
C298 H292 0.950 . S
C298 C299 1.327 . S
C299 H293 0.950 . S
C299 C298 1.327 . S
C299 C303 1.429 . S
C300 C283 1.574 . S
C300 H294 0.949 . S
C300 C304 1.368 . S
C301 C282 1.429 . S
C301 C295 1.429 . S
C301 C302 1.523 . S
C302 C283 1.368 . S
C302 C296 1.368 . S
C302 C301 1.523 . S
C303 C287 1.429 . S
C303 C299 1.429 . S
C303 C304 1.523 . S
C304 C288 1.368 . S
C304 C300 1.368 . S
C304 C303 1.523 . S
H305 C280 0.950 . S
H306 C282 0.950 . S
H307 C283 0.949 . S
H308 C285 0.950 . S
H309 C287 0.950 . S
C310 C311 1.349 . S
C310 C312 1.327 . S
C310 H335 0.950 . S
C311 C310 1.349 . S
C311 C327 1.349 . S
C312 C310 1.327 . S
C312 C331 1.429 1_655 S
C312 H336 0.950 . S
C313 C330 1.574 . S
C313 C332 1.368 . S
C313 H337 0.949 . S
H314 C318 0.949 . S
C315 C316 1.349 . S
C315 C317 1.327 . S
C315 H338 0.950 . S
C316 C315 1.349 . S
C316 C328 1.349 . S
C317 C315 1.327 . S
C317 C333 1.429 . S
C317 H339 0.950 . S
C318 H314 0.949 . S
C318 C326 1.574 . S
C318 C334 1.368 . S
H319 C327 0.950 . S
H320 C325 0.950 1_455 S
H321 C326 0.949 . S
H322 C328 0.950 . S
H323 C329 0.950 . S
H324 C330 0.949 . S
C325 H320 0.950 1_655 S
C325 C327 1.327 . S
C325 C331 1.429 1_655 S
C326 C318 1.574 . S
C326 H321 0.949 . S
C326 C332 1.368 . S
C327 C311 1.349 . S
C327 H319 0.950 . S
C327 C325 1.327 . S
C328 C316 1.349 . S
C328 H322 0.950 . S
C328 C329 1.327 . S
C329 H323 0.950 . S
C329 C328 1.327 . S
C329 C333 1.429 . S
C330 C313 1.574 . S
C330 H324 0.949 . S
C330 C334 1.368 . S
C331 C312 1.429 1_455 S
C331 C325 1.429 1_455 S
C331 C332 1.523 . S
C332 C313 1.368 . S
C332 C326 1.368 . S
C332 C331 1.523 . S
C333 C317 1.429 . S
C333 C329 1.429 . S
C333 C334 1.523 . S
C334 C318 1.368 . S
C334 C330 1.368 . S
C334 C333 1.523 . S
H335 C310 0.950 . S
H336 C312 0.950 . S
H337 C313 0.949 . S
H338 C315 0.950 . S
H339 C317 0.950 . S
C340 C341 1.349 . S
C340 C342 1.327 . S
C340 H365 0.950 . S
C341 C340 1.349 . S
C341 C357 1.349 . S
C342 C340 1.327 . S
C342 C361 1.429 . S
C342 H366 0.950 . S
C343 C360 1.574 . S
C343 C362 1.368 . S
C343 H367 0.949 . S
H344 C348 0.949 . S
C345 C346 1.349 . S
C345 C347 1.327 . S
C345 H368 0.950 . S
C346 C345 1.349 . S
C346 C358 1.349 . S
C347 C345 1.327 . S
C347 C363 1.429 . S
C347 H369 0.950 . S
C348 H344 0.949 . S
C348 C356 1.574 . S
C348 C364 1.368 . S
H349 C357 0.950 . S
H350 C355 0.950 . S
H351 C356 0.949 . S
H352 C358 0.950 . S
H353 C359 0.950 . S
H354 C360 0.949 . S
C355 H350 0.950 . S
C355 C357 1.327 . S
C355 C361 1.429 . S
C356 C348 1.574 . S
C356 H351 0.949 . S
C356 C362 1.368 . S
C357 C341 1.349 . S
C357 H349 0.950 . S
C357 C355 1.327 . S
C358 C346 1.349 . S
C358 H352 0.950 . S
C358 C359 1.327 . S
C359 H353 0.950 . S
C359 C358 1.327 . S
C359 C363 1.429 . S
C360 C343 1.574 . S
C360 H354 0.949 . S
C360 C364 1.368 . S
C361 C342 1.429 . S
C361 C355 1.429 . S
C361 C362 1.523 . S
C362 C343 1.368 . S
C362 C356 1.368 . S
C362 C361 1.523 . S
C363 C347 1.429 . S
C363 C359 1.429 . S
C363 C364 1.523 . S
C364 C348 1.368 . S
C364 C360 1.368 . S
C364 C363 1.523 . S
H365 C340 0.950 . S
H366 C342 0.950 . S
H367 C343 0.949 . S
H368 C345 0.950 . S
H369 C347 0.950 . S
C370 C371 1.349 . S
C370 C372 1.327 . S
C370 H395 0.950 . S
C371 C370 1.349 . S
C371 C387 1.349 . S
C372 C370 1.327 . S
C372 C391 1.429 . S
C372 H396 0.950 . S
C373 C390 1.574 . S
C373 C392 1.368 . S
C373 H397 0.949 . S
H374 C378 0.949 . S
C375 C376 1.349 . S
C375 C377 1.327 . S
C375 H398 0.950 . S
C376 C375 1.349 . S
C376 C388 1.349 1_655 S
C377 C375 1.327 . S
C377 C393 1.429 1_655 S
C377 H399 0.950 . S
C378 H374 0.949 . S
C378 C386 1.574 . S
C378 C394 1.368 . S
H379 C387 0.950 . S
H380 C385 0.950 . S
H381 C386 0.949 . S
H382 C388 0.950 . S
H383 C389 0.950 . S
H384 C390 0.949 1_655 S
C385 H380 0.950 . S
C385 C387 1.327 . S
C385 C391 1.429 . S
C386 C378 1.574 . S
C386 H381 0.949 . S
C386 C392 1.368 . S
C387 C371 1.349 . S
C387 H379 0.950 . S
C387 C385 1.327 . S
C388 C376 1.349 1_455 S
C388 H382 0.950 . S
C388 C389 1.327 . S
C389 H383 0.950 . S
C389 C388 1.327 . S
C389 C393 1.429 . S
C390 C373 1.574 . S
C390 H384 0.949 1_455 S
C390 C394 1.368 . S
C391 C372 1.429 . S
C391 C385 1.429 . S
C391 C392 1.523 . S
C392 C373 1.368 . S
C392 C386 1.368 . S
C392 C391 1.523 . S
C393 C377 1.429 1_455 S
C393 C389 1.429 . S
C393 C394 1.523 . S
C394 C378 1.368 . S
C394 C390 1.368 . S
C394 C393 1.523 . S
H395 C370 0.950 . S
H396 C372 0.950 . S
H397 C373 0.949 . S
H398 C375 0.950 . S
H399 C377 0.950 . S
C400 C401 1.349 . S
C400 C402 1.327 . S
C400 H425 0.950 . S
C401 C400 1.349 . S
C401 C417 1.349 . S
C402 C400 1.327 . S
C402 C421 1.429 . S
C402 H426 0.950 . S
C403 C420 1.574 1_545 S
C403 C422 1.368 . S
C403 H427 0.949 . S
H404 C408 0.949 . S
C405 C406 1.349 . S
C405 C407 1.327 . S
C405 H428 0.950 . S
C406 C405 1.349 . S
C406 C418 1.349 . S
C407 C405 1.327 . S
C407 C423 1.429 . S
C407 H429 0.950 . S
C408 H404 0.949 . S
C408 C416 1.574 . S
C408 C424 1.368 1_545 S
H409 C417 0.950 . S
H410 C415 0.950 . S
H411 C416 0.949 . S
H412 C418 0.950 . S
H413 C419 0.950 . S
H414 C420 0.949 . S
C415 H410 0.950 . S
C415 C417 1.327 . S
C415 C421 1.429 . S
C416 C408 1.574 . S
C416 H411 0.949 . S
C416 C422 1.368 . S
C417 C401 1.349 . S
C417 H409 0.950 . S
C417 C415 1.327 . S
C418 C406 1.349 . S
C418 H412 0.950 . S
C418 C419 1.327 . S
C419 H413 0.950 . S
C419 C418 1.327 . S
C419 C423 1.429 . S
C420 C403 1.574 1_565 S
C420 H414 0.949 . S
C420 C424 1.368 . S
C421 C402 1.429 . S
C421 C415 1.429 . S
C421 C422 1.523 . S
C422 C403 1.368 . S
C422 C416 1.368 . S
C422 C421 1.523 . S
C423 C407 1.429 . S
C423 C419 1.429 . S
C423 C424 1.523 . S
C424 C408 1.368 1_565 S
C424 C420 1.368 . S
C424 C423 1.523 . S
H425 C400 0.950 . S
H426 C402 0.950 . S
H427 C403 0.949 . S
H428 C405 0.950 . S
H429 C407 0.950 . S
C430 C431 1.349 . S
C430 C432 1.327 . S
C430 H455 0.950 . S
C431 C430 1.349 . S
C431 C447 1.349 . S
C432 C430 1.327 . S
C432 C451 1.429 . S
C432 H456 0.950 . S
C433 C450 1.574 . S
C433 C452 1.368 . S
C433 H457 0.949 . S
H434 C438 0.949 . S
C435 C436 1.349 . S
C435 C437 1.327 . S
C435 H458 0.950 . S
C436 C435 1.349 . S
C436 C448 1.349 . S
C437 C435 1.327 . S
C437 C453 1.429 . S
C437 H459 0.950 . S
C438 H434 0.949 . S
C438 C446 1.574 . S
C438 C454 1.368 . S
H439 C447 0.950 . S
H440 C445 0.950 . S
H441 C446 0.949 . S
H442 C448 0.950 . S
H443 C449 0.950 . S
H444 C450 0.949 . S
C445 H440 0.950 . S
C445 C447 1.327 . S
C445 C451 1.429 . S
C446 C438 1.574 . S
C446 H441 0.949 . S
C446 C452 1.368 . S
C447 C431 1.349 . S
C447 H439 0.950 . S
C447 C445 1.327 . S
C448 C436 1.349 . S
C448 H442 0.950 . S
C448 C449 1.327 . S
C449 H443 0.950 . S
C449 C448 1.327 . S
C449 C453 1.429 . S
C450 C433 1.574 . S
C450 H444 0.949 . S
C450 C454 1.368 . S
C451 C432 1.429 . S
C451 C445 1.429 . S
C451 C452 1.523 . S
C452 C433 1.368 . S
C452 C446 1.368 . S
C452 C451 1.523 . S
C453 C437 1.429 . S
C453 C449 1.429 . S
C453 C454 1.523 . S
C454 C438 1.368 . S
C454 C450 1.368 . S
C454 C453 1.523 . S
H455 C430 0.950 . S
H456 C432 0.950 . S
H457 C433 0.949 . S
H458 C435 0.950 . S
H459 C437 0.950 . S
C460 C461 1.349 . S
C460 C462 1.327 . S
C460 H485 0.950 . S
C461 C460 1.349 . S
C461 C477 1.349 1_554 S
C462 C460 1.327 . S
C462 C481 1.429 1_554 S
C462 H486 0.950 . S
C463 C480 1.574 1_565 S
C463 C482 1.368 . S
C463 H487 0.949 . S
H464 C468 0.949 . S
C465 C466 1.349 . S
C465 C467 1.327 . S
C465 H488 0.950 . S
C466 C465 1.349 . S
C466 C478 1.349 . S
C467 C465 1.327 . S
C467 C483 1.429 . S
C467 H489 0.950 . S
C468 H464 0.949 . S
C468 C476 1.574 1_545 S
C468 C484 1.368 . S
H469 C477 0.950 . S
H470 C475 0.950 . S
H471 C476 0.949 1_554 S
H472 C478 0.950 . S
H473 C479 0.950 . S
H474 C480 0.949 . S
C475 H470 0.950 . S
C475 C477 1.327 . S
C475 C481 1.429 . S
C476 C468 1.574 1_565 S
C476 H471 0.949 1_556 S
C476 C482 1.368 . S
C477 C461 1.349 1_556 S
C477 H469 0.950 . S
C477 C475 1.327 . S
C478 C466 1.349 . S
C478 H472 0.950 . S
C478 C479 1.327 . S
C479 H473 0.950 . S
C479 C478 1.327 . S
C479 C483 1.429 . S
C480 C463 1.574 1_545 S
C480 H474 0.949 . S
C480 C484 1.368 . S
C481 C462 1.429 1_556 S
C481 C475 1.429 . S
C481 C482 1.523 . S
C482 C463 1.368 . S
C482 C476 1.368 . S
C482 C481 1.523 . S
C483 C467 1.429 . S
C483 C479 1.429 . S
C483 C484 1.523 . S
C484 C468 1.368 . S
C484 C480 1.368 . S
C484 C483 1.523 . S
H485 C460 0.950 . S
H486 C462 0.950 . S
H487 C463 0.949 . S
H488 C465 0.950 . S
H489 C467 0.950 . S
C490 C491 1.349 . S
C490 C492 1.327 . S
C490 H515 0.950 . S
C491 C490 1.349 . S
C491 C507 1.349 . S
C492 C490 1.327 . S
C492 C511 1.429 . S
C492 H516 0.950 . S
C493 C510 1.574 . S
C493 C512 1.368 . S
C493 H517 0.949 . S
H494 C498 0.949 . S
C495 C496 1.349 . S
C495 C497 1.327 . S
C495 H518 0.950 . S
C496 C495 1.349 . S
C496 C508 1.349 . S
C497 C495 1.327 . S
C497 C513 1.429 . S
C497 H519 0.950 . S
C498 H494 0.949 . S
C498 C506 1.574 . S
C498 C514 1.368 . S
H499 C507 0.950 . S
H500 C505 0.950 . S
H501 C506 0.949 . S
H502 C508 0.950 . S
H503 C509 0.950 . S
H504 C510 0.949 . S
C505 H500 0.950 . S
C505 C507 1.327 . S
C505 C511 1.429 . S
C506 C498 1.574 . S
C506 H501 0.949 . S
C506 C512 1.368 . S
C507 C491 1.349 . S
C507 H499 0.950 . S
C507 C505 1.327 . S
C508 C496 1.349 . S
C508 H502 0.950 . S
C508 C509 1.327 . S
C509 H503 0.950 . S
C509 C508 1.327 . S
C509 C513 1.429 . S
C510 C493 1.574 . S
C510 H504 0.949 . S
C510 C514 1.368 . S
C511 C492 1.429 . S
C511 C505 1.429 . S
C511 C512 1.523 . S
C512 C493 1.368 . S
C512 C506 1.368 . S
C512 C511 1.523 . S
C513 C497 1.429 . S
C513 C509 1.429 . S
C513 C514 1.523 . S
C514 C498 1.368 . S
C514 C510 1.368 . S
C514 C513 1.523 . S
H515 C490 0.950 . S
H516 C492 0.950 . S
H517 C493 0.949 . S
H518 C495 0.950 . S
H519 C497 0.950 . S
C520 C521 1.349 . S
C520 C522 1.327 . S
C520 H545 0.950 . S
C521 C520 1.349 . S
C521 C537 1.349 . S
C522 C520 1.327 . S
C522 C541 1.429 . S
C522 H546 0.950 . S
C523 C540 1.574 . S
C523 C542 1.368 . S
C523 H547 0.949 . S
H524 C528 0.949 . S
C525 C526 1.349 . S
C525 C527 1.327 . S
C525 H548 0.950 . S
C526 C525 1.349 . S
C526 C538 1.349 . S
C527 C525 1.327 . S
C527 C543 1.429 . S
C527 H549 0.950 . S
C528 H524 0.949 . S
C528 C536 1.574 . S
C528 C544 1.368 . S
H529 C537 0.950 . S
H530 C535 0.950 . S
H531 C536 0.949 . S
H532 C538 0.950 . S
H533 C539 0.950 . S
H534 C540 0.949 . S
C535 H530 0.950 . S
C535 C537 1.327 . S
C535 C541 1.429 . S
C536 C528 1.574 . S
C536 H531 0.949 . S
C536 C542 1.368 . S
C537 C521 1.349 . S
C537 H529 0.950 . S
C537 C535 1.327 . S
C538 C526 1.349 . S
C538 H532 0.950 . S
C538 C539 1.327 . S
C539 H533 0.950 . S
C539 C538 1.327 . S
C539 C543 1.429 . S
C540 C523 1.574 . S
C540 H534 0.949 . S
C540 C544 1.368 . S
C541 C522 1.429 . S
C541 C535 1.429 . S
C541 C542 1.523 . S
C542 C523 1.368 . S
C542 C536 1.368 . S
C542 C541 1.523 . S
C543 C527 1.429 . S
C543 C539 1.429 . S
C543 C544 1.523 . S
C544 C528 1.368 . S
C544 C540 1.368 . S
C544 C543 1.523 . S
H545 C520 0.950 . S
H546 C522 0.950 . S
H547 C523 0.949 . S
H548 C525 0.950 . S
H549 C527 0.950 . S
C550 C551 1.349 . S
C550 C552 1.327 . S
C550 H575 0.950 . S
C551 C550 1.349 . S
C551 C567 1.349 . S
C552 C550 1.327 . S
C552 C571 1.429 1_455 S
C552 H576 0.950 . S
C553 C570 1.574 . S
C553 C572 1.368 . S
C553 H577 0.949 . S
H554 C558 0.949 . S
C555 C556 1.349 . S
C555 C557 1.327 . S
C555 H578 0.950 . S
C556 C555 1.349 . S
C556 C568 1.349 . S
C557 C555 1.327 . S
C557 C573 1.429 . S
C557 H579 0.950 . S
C558 H554 0.949 . S
C558 C566 1.574 . S
C558 C574 1.368 . S
H559 C567 0.950 . S
H560 C565 0.950 1_655 S
H561 C566 0.949 . S
H562 C568 0.950 . S
H563 C569 0.950 . S
H564 C570 0.949 . S
C565 H560 0.950 1_455 S
C565 C567 1.327 . S
C565 C571 1.429 1_455 S
C566 C558 1.574 . S
C566 H561 0.949 . S
C566 C572 1.368 . S
C567 C551 1.349 . S
C567 H559 0.950 . S
C567 C565 1.327 . S
C568 C556 1.349 . S
C568 H562 0.950 . S
C568 C569 1.327 . S
C569 H563 0.950 . S
C569 C568 1.327 . S
C569 C573 1.429 . S
C570 C553 1.574 . S
C570 H564 0.949 . S
C570 C574 1.368 . S
C571 C552 1.429 1_655 S
C571 C565 1.429 1_655 S
C571 C572 1.523 . S
C572 C553 1.368 . S
C572 C566 1.368 . S
C572 C571 1.523 . S
C573 C557 1.429 . S
C573 C569 1.429 . S
C573 C574 1.523 . S
C574 C558 1.368 . S
C574 C570 1.368 . S
C574 C573 1.523 . S
H575 C550 0.950 . S
H576 C552 0.950 . S
H577 C553 0.949 . S
H578 C555 0.950 . S
H579 C557 0.950 . S
C580 C581 1.349 . S
C580 C582 1.327 . S
C580 H605 0.950 . S
C581 C580 1.349 . S
C581 C597 1.349 . S
C582 C580 1.327 . S
C582 C601 1.429 . S
C582 H606 0.950 . S
C583 C600 1.574 . S
C583 C602 1.368 . S
C583 H607 0.949 . S
H584 C588 0.949 . S
C585 C586 1.349 . S
C585 C587 1.327 . S
C585 H608 0.950 . S
C586 C585 1.349 . S
C586 C598 1.349 . S
C587 C585 1.327 . S
C587 C603 1.429 . S
C587 H609 0.950 . S
C588 H584 0.949 . S
C588 C596 1.574 . S
C588 C604 1.368 . S
H589 C597 0.950 . S
H590 C595 0.950 . S
H591 C596 0.949 . S
H592 C598 0.950 . S
H593 C599 0.950 . S
H594 C600 0.949 . S
C595 H590 0.950 . S
C595 C597 1.327 . S
C595 C601 1.429 . S
C596 C588 1.574 . S
C596 H591 0.949 . S
C596 C602 1.368 . S
C597 C581 1.349 . S
C597 H589 0.950 . S
C597 C595 1.327 . S
C598 C586 1.349 . S
C598 H592 0.950 . S
C598 C599 1.327 . S
C599 H593 0.950 . S
C599 C598 1.327 . S
C599 C603 1.429 . S
C600 C583 1.574 . S
C600 H594 0.949 . S
C600 C604 1.368 . S
C601 C582 1.429 . S
C601 C595 1.429 . S
C601 C602 1.523 . S
C602 C583 1.368 . S
C602 C596 1.368 . S
C602 C601 1.523 . S
C603 C587 1.429 . S
C603 C599 1.429 . S
C603 C604 1.523 . S
C604 C588 1.368 . S
C604 C600 1.368 . S
C604 C603 1.523 . S
H605 C580 0.950 . S
H606 C582 0.950 . S
H607 C583 0.949 . S
H608 C585 0.950 . S
H609 C587 0.950 . S
C610 C611 1.349 . S
C610 C612 1.327 . S
C610 H635 0.950 . S
C611 C610 1.349 . S
C611 C627 1.349 . S
C612 C610 1.327 . S
C612 C631 1.429 . S
C612 H636 0.950 . S
C613 C630 1.574 . S
C613 C632 1.368 . S
C613 H637 0.949 . S
H614 C618 0.949 . S
C615 C616 1.364 . S
C615 C617 1.313 1_455 S
C615 H638 0.949 . S
C616 C615 1.364 . S
C616 C628 1.349 . S
C617 C615 1.313 1_655 S
C617 C633 1.429 . S
C617 H639 0.950 . S
C618 H614 0.949 . S
C618 C626 1.574 . S
C618 C634 1.368 . S
H619 C627 0.950 . S
H620 C625 0.950 . S
H621 C626 0.949 . S
H622 C628 0.950 . S
H623 C629 0.950 . S
H624 C630 0.949 . S
C625 H620 0.950 . S
C625 C627 1.327 . S
C625 C631 1.429 . S
C626 C618 1.574 . S
C626 H621 0.949 . S
C626 C632 1.368 . S
C627 C611 1.349 . S
C627 H619 0.950 . S
C627 C625 1.327 . S
C628 C616 1.349 . S
C628 H622 0.950 . S
C628 C629 1.327 . S
C629 H623 0.950 . S
C629 C628 1.327 . S
C629 C633 1.429 1_455 S
C630 C613 1.574 . S
C630 H624 0.949 . S
C630 C634 1.368 . S
C631 C612 1.429 . S
C631 C625 1.429 . S
C631 C632 1.523 . S
C632 C613 1.368 . S
C632 C626 1.368 . S
C632 C631 1.523 . S
C633 C617 1.429 . S
C633 C629 1.429 1_655 S
C633 C634 1.523 . S
C634 C618 1.368 . S
C634 C630 1.368 . S
C634 C633 1.523 . S
H635 C610 0.950 . S
H636 C612 0.950 . S
H637 C613 0.949 . S
H638 C615 0.949 . S
H639 C617 0.950 . S
C640 C641 1.349 . S
C640 C642 1.327 . S
C640 H665 0.950 . S
C641 C640 1.349 . S
C641 C657 1.349 . S
C642 C640 1.327 . S
C642 C661 1.429 . S
C642 H666 0.950 . S
C643 C660 1.574 . S
C643 C662 1.368 . S
C643 H667 0.949 . S
H644 C648 0.949 . S
C645 C646 1.349 . S
C645 C647 1.327 . S
C645 H668 0.950 . S
C646 C645 1.349 . S
C646 C658 1.349 . S
C647 C645 1.327 . S
C647 C663 1.429 . S
C647 H669 0.950 . S
C648 H644 0.949 . S
C648 C656 1.574 . S
C648 C664 1.368 . S
H649 C657 0.950 . S
H650 C655 0.950 . S
H651 C656 0.949 . S
H652 C658 0.950 . S
H653 C659 0.950 . S
H654 C660 0.949 . S
C655 H650 0.950 . S
C655 C657 1.327 . S
C655 C661 1.429 . S
C656 C648 1.574 . S
C656 H651 0.949 . S
C656 C662 1.368 . S
C657 C641 1.349 . S
C657 H649 0.950 . S
C657 C655 1.327 . S
C658 C646 1.349 . S
C658 H652 0.950 . S
C658 C659 1.327 . S
C659 H653 0.950 . S
C659 C658 1.327 . S
C659 C663 1.429 . S
C660 C643 1.574 . S
C660 H654 0.949 . S
C660 C664 1.368 . S
C661 C642 1.429 . S
C661 C655 1.429 . S
C661 C662 1.523 . S
C662 C643 1.368 . S
C662 C656 1.368 . S
C662 C661 1.523 . S
C663 C647 1.429 . S
C663 C659 1.429 . S
C663 C664 1.523 . S
C664 C648 1.368 . S
C664 C660 1.368 . S
C664 C663 1.523 . S
H665 C640 0.950 . S
H666 C642 0.950 . S
H667 C643 0.949 . S
H668 C645 0.950 . S
H669 C647 0.950 . S
C670 C671 1.349 . S
C670 C672 1.327 . S
C670 H695 0.950 . S
C671 C670 1.349 . S
C671 C687 1.349 . S
C672 C670 1.327 . S
C672 C691 1.429 . S
C672 H696 0.950 . S
C673 C690 1.574 . S
C673 C692 1.368 . S
C673 H697 0.949 . S
H674 C678 0.949 . S
C675 C676 1.349 . S
C675 C677 1.327 . S
C675 H698 0.950 . S
C676 C675 1.349 . S
C676 C688 1.349 . S
C677 C675 1.327 . S
C677 C693 1.429 . S
C677 H699 0.950 . S
C678 H674 0.949 . S
C678 C686 1.574 . S
C678 C694 1.368 . S
H679 C687 0.950 . S
H680 C685 0.950 . S
H681 C686 0.949 . S
H682 C688 0.950 . S
H683 C689 0.950 . S
H684 C690 0.949 . S
C685 H680 0.950 . S
C685 C687 1.327 . S
C685 C691 1.429 . S
C686 C678 1.574 . S
C686 H681 0.949 . S
C686 C692 1.368 . S
C687 C671 1.349 . S
C687 H679 0.950 . S
C687 C685 1.327 . S
C688 C676 1.349 . S
C688 H682 0.950 . S
C688 C689 1.327 . S
C689 H683 0.950 . S
C689 C688 1.327 . S
C689 C693 1.429 . S
C690 C673 1.574 . S
C690 H684 0.949 . S
C690 C694 1.368 . S
C691 C672 1.429 . S
C691 C685 1.429 . S
C691 C692 1.523 . S
C692 C673 1.368 . S
C692 C686 1.368 . S
C692 C691 1.523 . S
C693 C677 1.429 . S
C693 C689 1.429 . S
C693 C694 1.523 . S
C694 C678 1.368 . S
C694 C690 1.368 . S
C694 C693 1.523 . S
H695 C670 0.950 . S
H696 C672 0.950 . S
H697 C673 0.949 . S
H698 C675 0.950 . S
H699 C677 0.950 . S
C700 C701 1.349 . S
C700 C702 1.327 . S
C700 H725 0.950 . S
C701 C700 1.349 . S
C701 C717 1.349 . S
C702 C700 1.327 . S
C702 C721 1.429 . S
C702 H726 0.950 . S
C703 C720 1.574 . S
C703 C722 1.368 . S
C703 H727 0.949 . S
H704 C708 0.949 . S
C705 C706 1.349 . S
C705 C707 1.327 . S
C705 H728 0.950 . S
C706 C705 1.349 . S
C706 C718 1.349 . S
C707 C705 1.327 . S
C707 C723 1.429 . S
C707 H729 0.950 . S
C708 H704 0.949 . S
C708 C716 1.574 . S
C708 C724 1.368 . S
H709 C717 0.950 . S
H710 C715 0.950 . S
H711 C716 0.949 . S
H712 C718 0.950 . S
H713 C719 0.950 . S
H714 C720 0.949 . S
C715 H710 0.950 . S
C715 C717 1.327 . S
C715 C721 1.429 . S
C716 C708 1.574 . S
C716 H711 0.949 . S
C716 C722 1.368 . S
C717 C701 1.349 . S
C717 H709 0.950 . S
C717 C715 1.327 . S
C718 C706 1.349 . S
C718 H712 0.950 . S
C718 C719 1.327 . S
C719 H713 0.950 . S
C719 C718 1.327 . S
C719 C723 1.429 . S
C720 C703 1.574 . S
C720 H714 0.949 . S
C720 C724 1.368 . S
C721 C702 1.429 . S
C721 C715 1.429 . S
C721 C722 1.523 . S
C722 C703 1.368 . S
C722 C716 1.368 . S
C722 C721 1.523 . S
C723 C707 1.429 . S
C723 C719 1.429 . S
C723 C724 1.523 . S
C724 C708 1.368 . S
C724 C720 1.368 . S
C724 C723 1.523 . S
H725 C700 0.950 . S
H726 C702 0.950 . S
H727 C703 0.949 . S
H728 C705 0.950 . S
H729 C707 0.950 . S
C730 C731 1.349 . S
C730 C732 1.327 . S
C730 H755 0.950 . S
C731 C730 1.349 . S
C731 C747 1.349 . S
C732 C730 1.327 . S
C732 C751 1.429 . S
C732 H756 0.950 . S
C733 C750 1.574 . S
C733 C752 1.368 . S
C733 H757 0.949 . S
H734 C738 0.949 . S
C735 C736 1.349 . S
C735 C737 1.327 . S
C735 H758 0.950 . S
C736 C735 1.349 . S
C736 C748 1.349 . S
C737 C735 1.327 . S
C737 C753 1.429 . S
C737 H759 0.950 . S
C738 H734 0.949 . S
C738 C746 1.574 . S
C738 C754 1.368 . S
H739 C747 0.950 . S
H740 C745 0.950 . S
H741 C746 0.949 . S
H742 C748 0.950 . S
H743 C749 0.950 . S
H744 C750 0.949 . S
C745 H740 0.950 . S
C745 C747 1.327 . S
C745 C751 1.429 . S
C746 C738 1.574 . S
C746 H741 0.949 . S
C746 C752 1.368 . S
C747 C731 1.349 . S
C747 H739 0.950 . S
C747 C745 1.327 . S
C748 C736 1.349 . S
C748 H742 0.950 . S
C748 C749 1.327 . S
C749 H743 0.950 . S
C749 C748 1.327 . S
C749 C753 1.429 . S
C750 C733 1.574 . S
C750 H744 0.949 . S
C750 C754 1.368 . S
C751 C732 1.429 . S
C751 C745 1.429 . S
C751 C752 1.523 . S
C752 C733 1.368 . S
C752 C746 1.368 . S
C752 C751 1.523 . S
C753 C737 1.429 . S
C753 C749 1.429 . S
C753 C754 1.523 . S
C754 C738 1.368 . S
C754 C750 1.368 . S
C754 C753 1.523 . S
H755 C730 0.950 . S
H756 C732 0.950 . S
H757 C733 0.949 . S
H758 C735 0.950 . S
H759 C737 0.950 . S
C760 C761 1.349 . S
C760 C762 1.327 . S
C760 H785 0.950 . S
C761 C760 1.349 . S
C761 C777 1.349 . S
C762 C760 1.327 . S
C762 C781 1.429 . S
C762 H786 0.950 . S
C763 C780 1.574 . S
C763 C782 1.368 . S
C763 H787 0.949 . S
H764 C768 0.949 . S
C765 C766 1.349 . S
C765 C767 1.327 . S
C765 H788 0.950 . S
C766 C765 1.349 . S
C766 C778 1.349 . S
C767 C765 1.327 . S
C767 C783 1.429 . S
C767 H789 0.950 . S
C768 H764 0.949 . S
C768 C776 1.574 . S
C768 C784 1.368 . S
H769 C777 0.950 . S
H770 C775 0.950 . S
H771 C776 0.949 . S
H772 C778 0.950 . S
H773 C779 0.950 . S
H774 C780 0.949 . S
C775 H770 0.950 . S
C775 C777 1.327 . S
C775 C781 1.429 . S
C776 C768 1.574 . S
C776 H771 0.949 . S
C776 C782 1.368 . S
C777 C761 1.349 . S
C777 H769 0.950 . S
C777 C775 1.327 . S
C778 C766 1.349 . S
C778 H772 0.950 . S
C778 C779 1.327 . S
C779 H773 0.950 . S
C779 C778 1.327 . S
C779 C783 1.429 . S
C780 C763 1.574 . S
C780 H774 0.949 . S
C780 C784 1.368 . S
C781 C762 1.429 . S
C781 C775 1.429 . S
C781 C782 1.523 . S
C782 C763 1.368 . S
C782 C776 1.368 . S
C782 C781 1.523 . S
C783 C767 1.429 . S
C783 C779 1.429 . S
C783 C784 1.523 . S
C784 C768 1.368 . S
C784 C780 1.368 . S
C784 C783 1.523 . S
H785 C760 0.950 . S
H786 C762 0.950 . S
H787 C763 0.949 . S
H788 C765 0.950 . S
H789 C767 0.950 . S
C790 C791 1.349 . S
C790 C792 1.327 . S
C790 H815 0.950 . S
C791 C790 1.349 . S
C791 C807 1.349 . S
C792 C790 1.327 . S
C792 C811 1.429 . S
C792 H816 0.950 . S
C793 C810 1.574 . S
C793 C812 1.368 . S
C793 H817 0.949 . S
H794 C798 0.949 . S
C795 C796 1.349 . S
C795 C797 1.327 . S
C795 H818 0.950 . S
C796 C795 1.349 . S
C796 C808 1.349 . S
C797 C795 1.327 . S
C797 C813 1.429 . S
C797 H819 0.950 . S
C798 H794 0.949 . S
C798 C806 1.574 . S
C798 C814 1.368 . S
H799 C807 0.950 . S
H800 C805 0.950 . S
H801 C806 0.949 . S
H802 C808 0.950 . S
H803 C809 0.950 . S
H804 C810 0.949 . S
C805 H800 0.950 . S
C805 C807 1.327 . S
C805 C811 1.429 . S
C806 C798 1.574 . S
C806 H801 0.949 . S
C806 C812 1.368 . S
C807 C791 1.349 . S
C807 H799 0.950 . S
C807 C805 1.327 . S
C808 C796 1.349 . S
C808 H802 0.950 . S
C808 C809 1.327 . S
C809 H803 0.950 . S
C809 C808 1.327 . S
C809 C813 1.429 . S
C810 C793 1.574 . S
C810 H804 0.949 . S
C810 C814 1.368 . S
C811 C792 1.429 . S
C811 C805 1.429 . S
C811 C812 1.523 . S
C812 C793 1.368 . S
C812 C806 1.368 . S
C812 C811 1.523 . S
C813 C797 1.429 . S
C813 C809 1.429 . S
C813 C814 1.523 . S
C814 C798 1.368 . S
C814 C810 1.368 . S
C814 C813 1.523 . S
H815 C790 0.950 . S
H816 C792 0.950 . S
H817 C793 0.949 . S
H818 C795 0.950 . S
H819 C797 0.950 . S
C820 C821 1.349 . S
C820 C822 1.327 . S
C820 H845 0.950 . S
C821 C820 1.349 . S
C821 C837 1.349 . S
C822 C820 1.327 . S
C822 C841 1.429 . S
C822 H846 0.950 . S
C823 C840 1.574 . S
C823 C842 1.368 . S
C823 H847 0.949 . S
H824 C828 0.949 . S
C825 C826 1.349 . S
C825 C827 1.327 . S
C825 H848 0.950 . S
C826 C825 1.349 . S
C826 C838 1.349 . S
C827 C825 1.327 . S
C827 C843 1.429 . S
C827 H849 0.950 . S
C828 H824 0.949 . S
C828 C836 1.574 . S
C828 C844 1.368 . S
H829 C837 0.950 . S
H830 C835 0.950 . S
H831 C836 0.949 . S
H832 C838 0.950 . S
H833 C839 0.950 . S
H834 C840 0.949 . S
C835 H830 0.950 . S
C835 C837 1.327 . S
C835 C841 1.429 . S
C836 C828 1.574 . S
C836 H831 0.949 . S
C836 C842 1.368 . S
C837 C821 1.349 . S
C837 H829 0.950 . S
C837 C835 1.327 . S
C838 C826 1.349 . S
C838 H832 0.950 . S
C838 C839 1.327 . S
C839 H833 0.950 . S
C839 C838 1.327 . S
C839 C843 1.429 . S
C840 C823 1.574 . S
C840 H834 0.949 . S
C840 C844 1.368 . S
C841 C822 1.429 . S
C841 C835 1.429 . S
C841 C842 1.523 . S
C842 C823 1.368 . S
C842 C836 1.368 . S
C842 C841 1.523 . S
C843 C827 1.429 . S
C843 C839 1.429 . S
C843 C844 1.523 . S
C844 C828 1.368 . S
C844 C840 1.368 . S
C844 C843 1.523 . S
H845 C820 0.950 . S
H846 C822 0.950 . S
H847 C823 0.949 . S
H848 C825 0.950 . S
H849 C827 0.950 . S
C850 C851 1.349 . S
C850 C852 1.327 . S
C850 H875 0.950 . S
C851 C850 1.349 . S
C851 C867 1.349 1_556 S
C852 C850 1.327 . S
C852 C871 1.429 . S
C852 H876 0.950 . S
C853 C870 1.574 . S
C853 C872 1.368 . S
C853 H877 0.949 . S
H854 C858 0.949 . S
C855 C856 1.349 . S
C855 C857 1.327 . S
C855 H878 0.950 . S
C856 C855 1.349 . S
C856 C868 1.349 . S
C857 C855 1.327 . S
C857 C873 1.429 . S
C857 H879 0.950 . S
C858 H854 0.949 . S
C858 C866 1.574 . S
C858 C874 1.368 . S
H859 C867 0.950 . S
H860 C865 0.950 1_554 S
H861 C866 0.949 . S
H862 C868 0.950 . S
H863 C869 0.950 . S
H864 C870 0.949 . S
C865 H860 0.950 1_556 S
C865 C867 1.327 1_556 S
C865 C871 1.429 . S
C866 C858 1.574 . S
C866 H861 0.949 . S
C866 C872 1.368 . S
C867 C851 1.349 1_554 S
C867 H859 0.950 . S
C867 C865 1.327 1_554 S
C868 C856 1.349 . S
C868 H862 0.950 . S
C868 C869 1.327 . S
C869 H863 0.950 . S
C869 C868 1.327 . S
C869 C873 1.429 . S
C870 C853 1.574 . S
C870 H864 0.949 . S
C870 C874 1.368 . S
C871 C852 1.429 . S
C871 C865 1.429 . S
C871 C872 1.523 . S
C872 C853 1.368 . S
C872 C866 1.368 . S
C872 C871 1.523 . S
C873 C857 1.429 . S
C873 C869 1.429 . S
C873 C874 1.523 . S
C874 C858 1.368 . S
C874 C870 1.368 . S
C874 C873 1.523 . S
H875 C850 0.950 . S
H876 C852 0.950 . S
H877 C853 0.949 . S
H878 C855 0.950 . S
H879 C857 0.950 . S
C161 C8 1.308 . S
C166 C93 1.310 . S
C191 C31 1.094 . S
C196 C101 1.088 . S
C221 C53 1.308 . S
C226 C110 1.300 . S
C256 C120 1.277 . S
C251 C74 1.258 . S
C286 C129 1.307 . S
C281 C26 1.305 . S
C311 C48 1.259 . S
C316 C138 1.277 . S
C341 C71 1.305 . S
C346 C146 1.296 . S
C371 C5 1.097 . S
C376 C156 1.094 . S
C401 C50 1.304 . S
C406 C155 1.304 . S
C436 C128 1.090 . S
C431 C70 1.094 . S
C466 C137 1.296 . S
C461 C4 1.308 . S
C491 C28 1.259 . S
C496 C147 1.282 . S
C526 C102 1.302 . S
C521 C73 1.306 . S
C551 C7 1.259 . S
C556 C111 1.281 . S
C586 C119 1.293 . S
C581 C30 1.304 . S
C616 C92 1.089 . S
C611 C52 1.093 . S
C646 C149 1.294 . S
C641 C9 1.312 . S
C676 C158 1.227 . S
C671 C29 1.229 . S
C701 C51 1.227 . S
C706 C131 1.224 . S
C736 C140 1.291 . S
C731 C75 1.314 . S
C766 C113 1.296 . S
C761 C27 1.314 . S
C791 C49 1.310 . S
C796 C122 1.288 . S
C826 C95 1.225 . S
C821 C72 1.229 . S
C856 C104 1.222 . S
C851 C6 1.229 1_556 S
