# Generated by pormake.
# Topology pth, (4,4)-cn, num edge types: 1
# Building blocks:
#     Node 0, Type 0, BuildingBlock: UXUYUI_clean_sbu_0, # of connection points: 4
#     Node 1, Type 0, BuildingBlock: UXUYUI_clean_sbu_0, # of connection points: 4
#     Node 2, Type 0, BuildingBlock: UXUYUI_clean_sbu_0, # of connection points: 4
#     Node 3, Type 1, BuildingBlock: NAWXER_clean_linker_0, # of connection points: 4
#     Node 4, Type 1, BuildingBlock: NAWXER_clean_linker_0, # of connection points: 4
#     Node 5, Type 1, BuildingBlock: NAWXER_clean_linker_0, # of connection points: 4
#     Edge 6, Type (0, 1), BuildingBlock: XUDNAN_clean_linker_2, # of connection points: 2
#     Edge 7, Type (0, 1), BuildingBlock: XUDNAN_clean_linker_2, # of connection points: 2
#     Edge 8, Type (0, 1), BuildingBlock: XUDNAN_clean_linker_2, # of connection points: 2
#     Edge 9, Type (0, 1), BuildingBlock: XUDNAN_clean_linker_2, # of connection points: 2
#     Edge 10, Type (0, 1), BuildingBlock: XUDNAN_clean_linker_2, # of connection points: 2
#     Edge 11, Type (0, 1), BuildingBlock: XUDNAN_clean_linker_2, # of connection points: 2
#     Edge 12, Type (0, 1), BuildingBlock: XUDNAN_clean_linker_2, # of connection points: 2
#     Edge 13, Type (0, 1), BuildingBlock: XUDNAN_clean_linker_2, # of connection points: 2
#     Edge 14, Type (0, 1), BuildingBlock: XUDNAN_clean_linker_2, # of connection points: 2
#     Edge 15, Type (0, 1), BuildingBlock: XUDNAN_clean_linker_2, # of connection points: 2
#     Edge 16, Type (0, 1), BuildingBlock: XUDNAN_clean_linker_2, # of connection points: 2
#     Edge 17, Type (0, 1), BuildingBlock: XUDNAN_clean_linker_2, # of connection points: 2
# Relax obj value: 0.074
# Max RMSD: 0.209
# Mean RMSD: 0.112
data_MOF--net-pth--node1-UXUYUI_clean_sbu_0--node2-NAWXER_clean_linker_0--edge1-XUDNAN_clean_linker_2
_symmetry_space_group_name_H-M    P1
_symmetry_Int_Tables_number       1
_symmetry_cell_setting            triclinic
loop_
_symmetry_equiv_pos_as_xyz
'x, y, z'
_cell_length_a     34.370991
_cell_length_b     34.376135
_cell_length_c     77.599433
_cell_angle_alpha  90.042136
_cell_angle_beta   89.969702
_cell_angle_gamma 119.96735
loop_
_atom_site_label
_atom_site_type_symbol
_atom_site_fract_x
_atom_site_fract_y
_atom_site_fract_z
_atom_type_partial_charge
Li0 Li 0.04405 0.03379 0.04378 0.0
Li1 Li 0.99535 0.0365 0.0661 0.0
Li2 Li 0.01322 0.97484 0.06572 0.0
Li3 Li 0.96389 0.97787 0.04383 0.0
C4 C 0.09797 0.06284 0.07371 0.0
N5 N 0.18746 0.1099 0.08301 0.0
C6 C 0.11793 0.10814 0.07827 0.0
C7 C 0.1232 0.0412 0.07425 0.0
C8 C 0.16332 0.13144 0.08282 0.0
C9 C 0.16848 0.06565 0.07888 0.0
C10 C 0.95964 0.05489 0.03704 0.0
C11 C 0.8883 0.04934 0.04332 0.0
N12 N 0.89353 0.07557 0.02941 0.0
C13 C 0.96433 0.08181 0.02282 0.0
C14 C 0.92134 0.03852 0.0474 0.0
C15 C 0.93053 0.09189 0.01918 0.0
C16 C 0.09531 0.05167 0.01352 0.0
N17 N 0.09266 0.07013 0.02866 0.0
C18 C 0.15519 0.14111 0.02065 0.0
C19 C 0.12132 0.11413 0.0323 0.0
C20 C 0.15927 0.12265 0.00505 0.0
C21 C 0.12876 0.07727 1.00156 0.0
H22 H 0.07093 0.01715 0.01058 0.0
H23 H 0.11736 0.12856 0.04406 0.0
C24 C 0.96608 0.055 0.09679 0.0
N25 N 0.98582 0.0737 0.08151 0.0
C26 C 0.95907 0.08036 0.10913 0.0
C27 C 0.99346 0.14413 0.08988 0.0
C28 C 0.99963 0.11736 0.07784 0.0
C29 C 0.97282 0.12557 0.10577 0.0
H30 H 0.95626 0.02042 0.09945 0.0
H31 H 0.0156 0.13139 0.0656 0.0
C32 C 0.03521 0.94378 0.03567 0.0
N33 N 0.07553 0.89474 0.02616 0.0
C34 C 0.00906 0.89949 0.02996 0.0
C35 C 0.08191 0.96321 0.03641 0.0
C36 C 0.03006 0.87522 0.02525 0.0
C37 C 0.10165 0.93786 0.03157 0.0
C38 C 0.92027 0.92859 0.07306 0.0
C39 C 0.92015 0.89127 0.06585 0.0
C40 C 0.88606 0.92234 0.08442 0.0
C41 C 0.88586 0.84822 0.07018 0.0
C42 C 0.85231 0.87873 0.08842 0.0
N43 N 0.85293 0.84289 0.08129 0.0
C44 C 0.00299 0.93595 0.09742 0.0
C45 C 0.03253 0.90527 0.07743 0.0
C46 C 0.99661 0.9035 0.1096 0.0
N47 N 0.01928 0.93542 0.08151 0.0
C48 C 0.02735 0.87252 0.08935 0.0
C49 C 0.00781 0.8706 0.10545 0.0
H50 H 0.99272 0.96029 0.10033 0.0
H51 H 0.04532 0.90515 0.06477 0.0
C52 C 0.92174 0.92602 0.01456 0.0
N53 N 0.91359 0.94061 0.02969 0.0
C54 C 0.88625 0.89306 0.00492 0.0
C55 C 0.83453 0.89237 0.02621 0.0
C56 C 0.871 0.92545 0.0354 0.0
C57 C 0.84203 0.87493 0.01098 0.0
H58 H 0.956 0.93864 0.01036 0.0
H59 H 0.86535 0.93767 0.04744 0.0
O60 O 0.05353 0.03952 0.06933 0.0
O61 O 0.99253 0.04478 0.04069 0.0
O62 O 0.01512 0.96806 0.04023 0.0
O63 O 0.95354 0.97112 0.06902 0.0
H64 H 0.0986 0.12517 0.07815 0.0
H65 H 0.10793 0.00584 0.07126 0.0
H66 H 0.17933 0.16662 0.08623 0.0
H67 H 0.18849 0.04939 0.07927 0.0
H68 H 0.85849 0.03687 0.05122 0.0
H69 H 0.9938 0.09474 0.01468 0.0
H70 H 0.91704 0.01768 0.05847 0.0
H71 H 0.93371 0.11267 0.0082 0.0
H72 H 0.17793 0.17599 0.02382 0.0
H73 H 0.13001 0.06198 0.98952 0.0
H74 H 0.94375 0.06492 0.12131 0.0
H75 H 0.00429 0.17876 0.08674 0.0
H76 H 0.97289 0.88394 0.02918 0.0
H77 H 0.10276 0.99755 0.04061 0.0
H78 H 0.01022 0.84087 0.02087 0.0
H79 H 0.13774 0.95248 0.0321 0.0
H80 H 0.94628 0.8955 0.05703 0.0
H81 H 0.88549 0.95088 0.09004 0.0
H82 H 0.88543 0.81906 0.06471 0.0
H83 H 0.82561 0.87339 0.0972 0.0
H84 H 0.98188 0.90336 0.12196 0.0
H85 H 0.03625 0.84755 0.08569 0.0
H86 H 0.89357 0.88033 0.99333 0.0
H87 H 0.8009 0.87975 0.0312 0.0
Li88 Li 0.98766 0.96335 0.37573 0.0
Li89 Li 0.04583 0.00969 0.39625 0.0
Li90 Li 0.96742 0.99342 0.40088 0.0
Li91 Li 0.01387 0.04433 0.3779 0.0
C92 C 0.00132 0.91764 0.40347 0.0
N93 N 0.02333 0.85166 0.40931 0.0
C94 C 0.02794 0.91069 0.39165 0.0
C95 C 0.98575 0.89091 0.41823 0.0
C96 C 0.03875 0.87721 0.39483 0.0
C97 C 0.99728 0.85776 0.42096 0.0
C98 C 0.09145 0.03571 0.365 0.0
C99 C 0.16457 0.10201 0.36288 0.0
N100 N 0.17964 0.07809 0.35394 0.0
C101 C 0.10754 0.01186 0.35567 0.0
C102 C 0.12007 0.08119 0.36854 0.0
C103 C 0.15228 0.03385 0.35024 0.0
C104 C 0.98741 0.92392 0.34407 0.0
N105 N 0.96884 0.91447 0.36006 0.0
C106 C 0.93194 0.83571 0.35423 0.0
C107 C 0.94097 0.87146 0.36522 0.0
C108 C 0.95199 0.84439 0.33784 0.0
C109 C 0.97953 0.88922 0.33271 0.0
H110 H 0.00936 0.95847 0.34031 0.0
H111 H 0.92704 0.86484 0.37809 0.0
C112 C 0.10715 0.03573 0.42412 0.0
N113 N 0.09804 0.01727 0.40809 0.0
C114 C 0.14367 0.03952 0.43349 0.0
C115 C 0.16035 0.00473 0.40975 0.0
C116 C 0.12387 0.00197 0.40084 0.0
C117 C 0.17079 0.0237 0.42633 0.0
H118 H 0.08575 0.0471 0.42972 0.0
H119 H 0.11567 0.98657 0.38827 0.0
C120 C 0.90684 0.96256 0.37315 0.0
N121 N 0.81817 0.89957 0.36673 0.0
C122 C 0.88304 0.97018 0.36027 0.0
C123 C 0.88557 0.92292 0.38277 0.0
C124 C 0.83822 0.93792 0.35722 0.0
C125 C 0.84073 0.89149 0.37933 0.0
C126 C 0.04043 0.09317 0.40937 0.0
C127 C 0.01097 0.10621 0.41613 0.0
C128 C 0.08661 0.12354 0.40942 0.0
C129 C 0.02812 0.14989 0.42237 0.0
C130 C 0.10245 0.16691 0.41579 0.0
N131 N 0.07312 0.17911 0.42205 0.0
C132 C 0.92466 0.96619 0.43321 0.0
C133 C 0.89296 0.99722 0.41441 0.0
C134 C 0.89362 0.96019 0.44604 0.0
N135 N 0.92363 0.98427 0.41778 0.0
C136 C 0.86138 0.99199 0.42688 0.0
C137 C 0.86144 0.97323 0.44296 0.0
H138 H 0.94992 0.95687 0.4356 0.0
H139 H 0.89324 0.01193 0.40206 0.0
C140 C 0.04534 0.10674 0.34989 0.0
N141 N 0.02326 0.09594 0.36524 0.0
C142 C 0.05061 0.14384 0.34053 0.0
C143 C 0.0095 0.15732 0.36276 0.0
C144 C 0.00463 0.11978 0.37157 0.0
C145 C 0.03286 0.16986 0.34706 0.0
H146 H 0.05849 0.08634 0.3448 0.0
H147 H 0.98525 0.10918 0.38331 0.0
O148 O 0.99013 0.95011 0.40061 0.0
O149 O 0.04786 0.01455 0.37058 0.0
O150 O 0.95076 0.99387 0.37622 0.0
O151 O 0.02421 0.05039 0.40334 0.0
H152 H 0.04016 0.93092 0.38013 0.0
H153 H 0.9649 0.89565 0.42747 0.0
H154 H 0.05937 0.87155 0.38579 0.0
H155 H 0.98548 0.83685 0.43234 0.0
H156 H 0.18708 0.1372 0.36555 0.0
H157 H 0.08588 0.97659 0.35283 0.0
H158 H 0.10792 0.10031 0.37543 0.0
H159 H 0.16527 0.01573 0.34311 0.0
H160 H 0.91088 0.80165 0.35877 0.0
H161 H 0.99515 0.89737 0.3201 0.0
H162 H 0.15055 0.05471 0.44616 0.0
H163 H 0.17945 0.99103 0.40382 0.0
H164 H 0.89907 0.00072 0.35272 0.0
H165 H 0.90342 0.91644 0.3928 0.0
H166 H 0.81937 0.94336 0.34729 0.0
H167 H 0.82386 0.86067 0.38667 0.0
H168 H 0.9752 0.08299 0.41641 0.0
H169 H 0.11006 0.11366 0.40478 0.0
H170 H 0.00564 0.16055 0.42748 0.0
H171 H 0.13809 0.1908 0.41584 0.0
H172 H 0.89527 0.94619 0.45833 0.0
H173 H 0.83693 0.00209 0.4239 0.0
H174 H 0.06866 0.15229 0.32841 0.0
H175 H 0.9943 0.1758 0.36802 0.0
Li176 Li 0.03086 0.98663 0.70927 0.0
Li177 Li 0.03473 0.04024 0.73223 0.0
Li178 Li 0.97412 0.96291 0.73193 0.0
Li179 Li 0.97428 0.01414 0.71113 0.0
C180 C 0.03928 0.96266 0.74895 0.0
N181 N 0.03366 0.91517 0.77846 0.0
C182 C 0.04024 0.98084 0.76516 0.0
C183 C 0.03539 0.92028 0.74774 0.0
C184 C 0.03739 0.95633 0.77993 0.0
C185 C 0.03261 0.89681 0.76281 0.0
C186 C 0.07532 0.09059 0.70359 0.0
C187 C 0.10728 0.171 0.70268 0.0
N188 N 0.14752 0.17559 0.69803 0.0
C189 C 0.1169 0.09608 0.69865 0.0
C190 C 0.07035 0.12831 0.70548 0.0
C191 C 0.15302 0.13934 0.69595 0.0
C192 C 0.06913 0.98629 0.67726 0.0
N193 N 0.06574 0.9732 0.69398 0.0
C194 C 0.11575 0.94501 0.68895 0.0
C195 C 0.08838 0.95298 0.69999 0.0
C196 C 0.12046 0.95876 0.67168 0.0
C197 C 0.09676 0.97967 0.66583 0.0
H198 H 0.05099 0.00266 0.6729 0.0
H199 H 0.0858 0.94373 0.7134 0.0
C200 C 0.0642 0.10745 0.75863 0.0
N201 N 0.07729 0.08932 0.74586 0.0
C202 C 0.09631 0.14373 0.76827 0.0
C203 C 0.15455 0.14136 0.75161 0.0
C204 C 0.12145 0.10463 0.74259 0.0
C205 C 0.14205 0.16147 0.76454 0.0
H206 H 0.0289 0.0937 0.76138 0.0
H207 H 0.13098 0.08828 0.73294 0.0
C208 C 0.93341 0.90923 0.70383 0.0
N209 N 0.87015 0.8202 0.69824 0.0
C210 C 0.88852 0.8931 0.70831 0.0
C211 C 0.9461 0.88017 0.6964 0.0
C212 C 0.85707 0.84794 0.70543 0.0
C213 C 0.9136 0.83525 0.69369 0.0
C214 C 0.94294 0.03538 0.73845 0.0
C215 C 0.89721 0.00756 0.7419 0.0
C216 C 0.96032 0.08159 0.73663 0.0
C217 C 0.86956 0.02645 0.74332 0.0
C218 C 0.93159 0.09919 0.73813 0.0
N219 N 0.88718 0.07149 0.7414 0.0
C220 C 0.91855 0.92296 0.76084 0.0
C221 C 0.92547 0.87062 0.74312 0.0
C222 C 0.8868 0.88837 0.77115 0.0
N223 N 0.93586 0.91348 0.74674 0.0
C224 C 0.89356 0.83495 0.75298 0.0
C225 C 0.87293 0.84359 0.76693 0.0
H226 H 0.92856 0.95742 0.76383 0.0
H227 H 0.94112 0.86391 0.73235 0.0
C228 C 0.95779 0.06067 0.6844 0.0
N229 N 0.93803 0.02905 0.69691 0.0
C230 C 0.93161 0.07001 0.67321 0.0
C231 C 0.86524 0.01413 0.688 0.0
C232 C 0.89265 0.00573 0.69879 0.0
C233 C 0.88457 0.04638 0.67487 0.0
H234 H 0.99383 0.07794 0.68282 0.0
H235 H 0.87751 0.98016 0.70855 0.0
O236 O 0.04069 0.98565 0.73436 0.0
O237 O 0.03966 0.0485 0.70646 0.0
O238 O 0.96482 0.95329 0.7065 0.0
O239 O 0.97052 0.01749 0.73686 0.0
H240 H 0.04261 0.0133 0.76635 0.0
H241 H 0.03354 0.90519 0.73531 0.0
H242 H 0.03795 0.96994 0.79256 0.0
H243 H 0.02931 0.86387 0.76207 0.0
H244 H 0.10393 0.20048 0.70417 0.0
H245 H 0.12149 0.06735 0.69719 0.0
H246 H 0.0383 0.1247 0.70902 0.0
H247 H 0.18547 0.14408 0.69227 0.0
H248 H 0.13394 0.92928 0.69398 0.0
H249 H 0.09942 0.99057 0.65258 0.0
H250 H 0.08558 0.15832 0.77827 0.0
H251 H 0.1896 0.1537 0.74863 0.0
H252 H 0.87826 0.91488 0.71432 0.0
H253 H 0.98068 0.89214 0.69282 0.0
H254 H 0.82229 0.8349 0.70899 0.0
H255 H 0.92295 0.81235 0.688 0.0
H256 H 0.88295 0.97165 0.74313 0.0
H257 H 0.99561 0.10366 0.7341 0.0
H258 H 0.83406 0.00526 0.74585 0.0
H259 H 0.94461 0.1349 0.73669 0.0
H260 H 0.87185 0.8965 0.78185 0.0
H261 H 0.88453 0.80092 0.74955 0.0
H262 H 0.948 0.09459 0.6631 0.0
H263 H 0.82924 0.99543 0.68993 0.0
C264 C 0.99337 0.37203 0.25653 0.0
C265 C 0.03072 0.39181 0.26763 0.0
C266 C 0.98643 0.39817 0.24443 0.0
C267 C 0.01706 0.44441 0.24307 0.0
C268 C 0.0618 0.43787 0.26591 0.0
C269 C 0.05488 0.46388 0.25384 0.0
C270 C 0.00807 0.47389 0.23189 0.0
C271 C 0.01877 0.37616 0.19527 0.0
C272 C 0.97842 0.34957 0.18627 0.0
C273 C 0.0252 0.41386 0.2046 0.0
C274 C 0.99146 0.42558 0.20495 0.0
C275 C 0.94498 0.36166 0.18661 0.0
C276 C 0.95159 0.39943 0.19574 0.0
C277 C 0.99739 0.46581 0.21418 0.0
C278 C 0.01669 0.64215 0.1919 0.0
C279 C 0.98096 0.62762 0.18018 0.0
C280 C 0.02041 0.61128 0.20245 0.0
C281 C 0.98862 0.56529 0.2014 0.0
C282 C 0.94946 0.58154 0.17899 0.0
C283 C 0.95357 0.55058 0.18938 0.0
C284 C 0.99251 0.53254 0.21256 0.0
C285 C 0.94393 0.6021 0.24772 0.0
C286 C 0.97258 0.62672 0.26137 0.0
C287 C 0.95332 0.57447 0.23746 0.0
C288 C 0.99197 0.57127 0.24039 0.0
C289 C 0.01155 0.62393 0.26422 0.0
C290 C 0.02096 0.59617 0.2539 0.0
C291 C 0.99942 0.53857 0.23052 0.0
H292 H 0.9685 0.33677 0.2577 0.0
H293 H 0.95629 0.38255 0.23662 0.0
H294 H 0.09122 0.45401 0.27409 0.0
H295 H 0.07882 0.49952 0.25308 0.0
H296 H 0.04509 0.36756 0.19521 0.0
H297 H 0.05657 0.43406 0.21137 0.0
H298 H 0.91386 0.34225 0.17958 0.0
H299 H 0.9253 0.40811 0.1957 0.0
H300 H 0.04131 0.67749 0.1931 0.0
H301 H 0.04822 0.6233 0.21142 0.0
H302 H 0.92184 0.56947 0.16994 0.0
H303 H 0.92893 0.51522 0.18826 0.0
H304 H 0.91384 0.60374 0.24509 0.0
H305 H 0.92947 0.55453 0.22754 0.0
H306 H 0.03402 0.64207 0.27476 0.0
H307 H 0.05057 0.59371 0.2566 0.0
N308 N 0.00806 0.50967 0.2394 0.0
N309 N 0.99063 0.49583 0.20516 0.0
C310 C 0.65143 0.02144 0.52896 0.0
C311 C 0.63887 0.98063 0.52049 0.0
C312 C 0.61926 0.02774 0.53765 0.0
C313 C 0.57409 0.99341 0.5379 0.0
C314 C 0.59355 0.94667 0.52063 0.0
C315 C 0.56146 0.95316 0.52913 0.0
C316 C 0.53917 0.99884 0.54688 0.0
C317 C 0.63282 0.99726 0.587 0.0
C318 C 0.65305 0.03635 0.5972 0.0
C319 C 0.59589 0.98761 0.57657 0.0
C320 C 0.57889 0.01721 0.57592 0.0
C321 C 0.63501 0.06515 0.59689 0.0
C322 C 0.59824 0.05558 0.5864 0.0
C323 C 0.54056 0.00837 0.56465 0.0
C324 C 0.34835 0.94694 0.57915 0.0
C325 C 0.35246 0.9758 0.59274 0.0
C326 C 0.38546 0.95597 0.56898 0.0
C327 C 0.42748 0.99414 0.57214 0.0
C328 C 0.39428 0.0145 0.59568 0.0
C329 C 0.43156 0.02333 0.58557 0.0
C330 C 0.46779 0.00103 0.56258 0.0
C331 C 0.38795 0.02474 0.52215 0.0
C332 C 0.37825 0.99923 0.50699 0.0
C333 C 0.41584 0.02242 0.53474 0.0
C334 C 0.43357 0.9936 0.53261 0.0
C335 C 0.39508 0.96975 0.50501 0.0
C336 C 0.42234 0.96689 0.5177 0.0
C337 C 0.46811 0.99514 0.54455 0.0
H338 H 0.68615 0.04816 0.52903 0.0
H339 H 0.62957 0.05934 0.54413 0.0
H340 H 0.58279 0.91517 0.51399 0.0
H341 H 0.52672 0.92642 0.52903 0.0
H342 H 0.64588 0.97438 0.58687 0.0
H343 H 0.58073 0.95706 0.569 0.0
H344 H 0.64908 0.09501 0.60485 0.0
H345 H 0.58525 0.07853 0.58631 0.0
H346 H 0.31651 0.91699 0.57653 0.0
H347 H 0.38157 0.93226 0.55899 0.0
H348 H 0.39854 0.03707 0.60618 0.0
H349 H 0.46374 0.05267 0.58839 0.0
H350 H 0.37586 0.04818 0.52385 0.0
H351 H 0.42513 0.04476 0.54572 0.0
H352 H 0.38785 0.94954 0.49347 0.0
H353 H 0.43566 0.94459 0.51563 0.0
N354 N 0.50336 0.99322 0.53753 0.0
N355 N 0.50454 0.00858 0.57185 0.0
C356 C 0.37961 0.36983 0.85531 0.0
C357 C 0.36135 0.38784 0.84372 0.0
C358 C 0.412 0.39757 0.86736 0.0
C359 C 0.42583 0.44355 0.86826 0.0
C360 C 0.3745 0.43353 0.84491 0.0
C361 C 0.40638 0.46105 0.85703 0.0
C362 C 0.46385 0.47501 0.87928 0.0
C363 C 0.36119 0.37494 0.91656 0.0
C364 C 0.37715 0.35022 0.92557 0.0
C365 C 0.39074 0.41291 0.90701 0.0
C366 C 0.4367 0.42675 0.90636 0.0
C367 C 0.42322 0.36446 0.92497 0.0
C368 C 0.4527 0.40252 0.91557 0.0
C369 C 0.46895 0.46739 0.89679 0.0
C370 C 0.61445 0.64822 0.92052 0.0
C371 C 0.63103 0.63375 0.93415 0.0
C372 C 0.58529 0.61749 0.90833 0.0
C373 C 0.57293 0.57188 0.90934 0.0
C374 C 0.61949 0.5884 0.93491 0.0
C375 C 0.59072 0.55782 0.92265 0.0
C376 C 0.53762 0.5378 0.89798 0.0
C377 C 0.64665 0.62237 0.85955 0.0
C378 C 0.63337 0.63879 0.84551 0.0
C379 C 0.61478 0.59325 0.87146 0.0
C380 C 0.56928 0.58096 0.86975 0.0
C381 C 0.5883 0.62782 0.84416 0.0
C382 C 0.55664 0.5993 0.85616 0.0
C383 C 0.53378 0.54424 0.88021 0.0
H384 H 0.37047 0.33482 0.8545 0.0
H385 H 0.42747 0.3834 0.87543 0.0
H386 H 0.36072 0.44819 0.8362 0.0
H387 H 0.41665 0.49641 0.85738 0.0
H388 H 0.32584 0.3647 0.91678 0.0
H389 H 0.37779 0.43165 0.90027 0.0
H390 H 0.43662 0.34655 0.932 0.0
H391 H 0.4881 0.41291 0.91539 0.0
H392 H 0.62232 0.68286 0.91976 0.0
H393 H 0.57099 0.62914 0.89858 0.0
H394 H 0.63213 0.5764 0.94517 0.0
H395 H 0.58156 0.52285 0.9238 0.0
H396 H 0.68114 0.62996 0.86074 0.0
H397 H 0.62544 0.57857 0.88142 0.0
H398 H 0.5773 0.64031 0.8335 0.0
H399 H 0.52183 0.59025 0.85445 0.0
N400 N 0.49668 0.5129 0.87173 0.0
N401 N 0.5054 0.49923 0.90544 0.0
H402 H 0.0315 0.21256 0.11575 0.0
H403 H 0.89779 0.10035 0.12535 0.0
H404 H 0.88605 0.14454 0.14771 0.0
H405 H 0.05797 0.24907 0.15986 0.0
H406 H 0.08776 0.30801 0.15461 0.0
H407 H 0.08606 0.26761 0.13938 0.0
H408 H 0.05331 0.29736 0.11616 0.0
H409 H 0.05523 0.33807 0.13127 0.0
H410 H 0.00307 0.2996 0.12084 0.0
H411 H 0.88812 0.20086 0.16859 0.0
H412 H 0.90352 0.26646 0.18649 0.0
H413 H 0.03585 0.34243 0.16348 0.0
C414 C 0.99963 0.19743 0.12247 0.0
C415 C 0.96559 0.15291 0.11884 0.0
C416 C 0.92456 0.13415 0.12807 0.0
C417 C 0.91751 0.15903 0.14074 0.0
C418 C 0.95186 0.20262 0.14409 0.0
C419 C 0.99209 0.22175 0.13523 0.0
C420 C 0.02336 0.26938 0.1413 0.0
C421 C 0.06633 0.27375 0.14926 0.0
C422 C 0.03437 0.30309 0.12651 0.0
C423 C 0.99426 0.27409 0.15487 0.0
C424 C 0.95317 0.23513 0.15627 0.0
C425 C 0.92018 0.23154 0.16764 0.0
C426 C 0.92917 0.26897 0.17771 0.0
C427 C 0.97084 0.30944 0.17637 0.0
C428 C 0.00394 0.31173 0.16493 0.0
H429 H 0.83252 0.03193 0.45212 0.0
H430 H 0.81464 0.90067 0.46414 0.0
H431 H 0.75846 0.88996 0.48625 0.0
H432 H 0.82067 0.06216 0.49578 0.0
H433 H 0.7904 0.09005 0.48933 0.0
H434 H 0.83042 0.08817 0.47485 0.0
H435 H 0.76902 0.05195 0.45131 0.0
H436 H 0.72889 0.05389 0.46569 0.0
H437 H 0.7172 0.00128 0.45618 0.0
H438 H 0.70191 0.89201 0.50609 0.0
H439 H 0.64919 0.90702 0.52252 0.0
H440 H 0.70383 0.03697 0.4977 0.0
C441 C 0.81671 0.00088 0.45937 0.0
C442 C 0.82807 0.96715 0.45642 0.0
C443 C 0.80694 0.92721 0.46633 0.0
C444 C 0.77485 0.92074 0.47886 0.0
C445 C 0.7644 0.95461 0.48141 0.0
C446 C 0.78474 0.99394 0.47198 0.0
C447 C 0.76687 0.02469 0.47705 0.0
C448 C 0.80433 0.06888 0.48471 0.0
C449 C 0.74414 0.03345 0.46164 0.0
C450 C 0.7329 0.99626 0.49066 0.0
C451 C 0.73207 0.95599 0.49299 0.0
C452 C 0.70241 0.92351 0.50444 0.0
C453 C 0.67251 0.93225 0.51366 0.0
C454 C 0.67255 0.97316 0.5114 0.0
C455 C 0.70353 0.0057 0.49987 0.0
H456 H 0.85784 0.83332 0.80196 0.0
H457 H 0.80163 0.77004 0.75276 0.0
H458 H 0.73538 0.71005 0.76767 0.0
H459 H 0.81827 0.72911 0.82628 0.0
H460 H 0.80657 0.7512 0.84543 0.0
H461 H 0.85055 0.78833 0.83097 0.0
H462 H 0.8131 0.83736 0.82815 0.0
H463 H 0.76891 0.80029 0.84253 0.0
H464 H 0.75529 0.81171 0.82139 0.0
H465 H 0.67329 0.66015 0.78746 0.0
H466 H 0.62089 0.6199 0.81131 0.0
H467 H 0.71756 0.71355 0.84799 0.0
C468 C 0.83167 0.80665 0.79436 0.0
C469 C 0.83493 0.80617 0.7762 0.0
C470 C 0.80013 0.77067 0.76669 0.0
C471 C 0.76226 0.73662 0.77503 0.0
C472 C 0.75985 0.73831 0.79291 0.0
C473 C 0.79377 0.77207 0.80251 0.0
C474 C 0.78251 0.766 0.82157 0.0
C475 C 0.8165 0.75819 0.83166 0.0
C476 C 0.77979 0.80623 0.82883 0.0
C477 C 0.73666 0.72396 0.82113 0.0
C478 C 0.72425 0.70873 0.80444 0.0
C479 C 0.68274 0.6715 0.8006 0.0
C480 C 0.65314 0.64906 0.8142 0.0
C481 C 0.66526 0.66372 0.83143 0.0
C482 C 0.70769 0.70151 0.83493 0.0
H483 H 0.06123 0.83707 0.11658 0.0
H484 H 0.92703 0.8182 0.1209 0.0
H485 H 0.90535 0.75351 0.14025 0.0
H486 H 0.02932 0.72015 0.11663 0.0
H487 H 0.07645 0.72823 0.1295 0.0
H488 H 0.08141 0.77285 0.11585 0.0
H489 H 0.10546 0.82642 0.14215 0.0
H490 H 0.10063 0.78199 0.15587 0.0
H491 H 0.06985 0.81031 0.16093 0.0
H492 H 0.89754 0.68983 0.15838 0.0
H493 H 0.90559 0.63391 0.17572 0.0
H494 H 0.04548 0.69552 0.16053 0.0
C495 C 0.02731 0.81919 0.12161 0.0
C496 C 0.99578 0.83256 0.11733 0.0
C497 C 0.95177 0.80869 0.12421 0.0
C498 C 0.93909 0.77182 0.13511 0.0
C499 C 0.97093 0.75946 0.1391 0.0
C500 C 0.01423 0.7826 0.1327 0.0
C501 C 0.04216 0.76291 0.13935 0.0
C502 C 0.05827 0.74496 0.12444 0.0
C503 C 0.08186 0.79747 0.15022 0.0
C504 C 0.00771 0.725 0.15041 0.0
C505 C 0.96675 0.72341 0.14997 0.0
C506 C 0.92948 0.69081 0.15889 0.0
C507 C 0.93428 0.65911 0.16861 0.0
C508 C 0.97611 0.66055 0.16946 0.0
C509 C 0.01323 0.69397 0.16022 0.0
H510 H 0.17592 0.01069 0.46118 0.0
H511 H 0.25256 0.04137 0.41364 0.0
H512 H 0.31365 0.03885 0.42922 0.0
H513 H 0.2728 0.07872 0.48905 0.0
H514 H 0.25041 0.03952 0.5067 0.0
H515 H 0.21289 0.04465 0.49187 0.0
H516 H 0.17375 0.95925 0.48568 0.0
H517 H 0.21134 0.95389 0.50037 0.0
H518 H 0.20683 0.93502 0.4784 0.0
H519 H 0.36431 0.02853 0.44936 0.0
H520 H 0.40409 0.0165 0.47345 0.0
H521 H 0.29714 0.99687 0.50834 0.0
C522 C 0.20585 0.01773 0.45407 0.0
C523 C 0.20907 0.02579 0.4361 0.0
C524 C 0.24872 0.03416 0.42731 0.0
C525 C 0.28381 0.03312 0.43607 0.0
C526 C 0.27913 0.02426 0.45368 0.0
C527 C 0.24147 0.01729 0.46265 0.0
C528 C 0.24492 0.0082 0.48155 0.0
C529 C 0.24529 0.04497 0.49297 0.0
C530 C 0.20695 0.9613 0.4868 0.0
C531 C 0.29014 0.01057 0.48172 0.0
C532 C 0.30915 0.01968 0.46547 0.0
C533 C 0.34999 0.02178 0.46218 0.0
C534 C 0.37216 0.01462 0.47589 0.0
C535 C 0.35362 0.0058 0.49269 0.0
C536 C 0.31217 0.00396 0.49563 0.0
H537 H 0.1561 0.17246 0.79942 0.0
H538 H 0.20664 0.23939 0.7504 0.0
H539 H 0.26673 0.30555 0.76551 0.0
H540 H 0.17974 0.27141 0.82454 0.0
H541 H 0.19703 0.25335 0.8434 0.0
H542 H 0.1564 0.21235 0.82884 0.0
H543 H 0.20646 0.17622 0.82526 0.0
H544 H 0.24728 0.21717 0.83977 0.0
H545 H 0.26398 0.21054 0.81844 0.0
H546 H 0.32111 0.3637 0.78569 0.0
H547 H 0.36941 0.40944 0.8097 0.0
H548 H 0.28621 0.30383 0.84577 0.0
C549 C 0.1796 0.20134 0.79196 0.0
C550 C 0.17682 0.20125 0.7738 0.0
C551 C 0.20845 0.23908 0.76433 0.0
C552 C 0.24249 0.27673 0.77279 0.0
C553 C 0.24464 0.27572 0.7907 0.0
C554 C 0.21429 0.23897 0.8002 0.0
C555 C 0.22559 0.24581 0.81925 0.0
C556 C 0.18741 0.24573 0.82961 0.0
C557 C 0.23648 0.21033 0.82607 0.0
C558 C 0.26705 0.29209 0.81895 0.0
C559 C 0.27709 0.30884 0.80236 0.0
C560 C 0.31359 0.35101 0.79875 0.0
C561 C 0.34068 0.37679 0.81246 0.0
C562 C 0.3314 0.36018 0.82955 0.0
C563 C 0.29413 0.3172 0.8328 0.0
H564 H 0.80365 0.98395 0.66086 0.0
H565 H 0.9 0.1269 0.66143 0.0
H566 H 0.85203 0.13982 0.64126 0.0
H567 H 0.77274 0.97575 0.6164 0.0
H568 H 0.71434 0.93577 0.6202 0.0
H569 H 0.75666 0.93771 0.63442 0.0
H570 H 0.71646 0.94907 0.66058 0.0
H571 H 0.6739 0.94698 0.64645 0.0
H572 H 0.70481 0.99472 0.66039 0.0
H573 H 0.79309 0.13703 0.6211 0.0
H574 H 0.72766 0.11891 0.60267 0.0
H575 H 0.66861 0.97818 0.61641 0.0
C576 C 0.81458 0.01808 0.65691 0.0
C577 C 0.85572 0.05442 0.66277 0.0
C578 C 0.86898 0.09842 0.65697 0.0
C579 C 0.84182 0.10614 0.64559 0.0
C580 C 0.80147 0.06953 0.64013 0.0
C581 C 0.78786 0.0264 0.64563 0.0
C582 C 0.74282 0.9929 0.63799 0.0
C583 C 0.74691 0.95851 0.62657 0.0
C584 C 0.70741 0.96956 0.6522 0.0
C585 C 0.73314 0.02394 0.62733 0.0
C586 C 0.76739 0.06799 0.6287 0.0
C587 C 0.76598 0.10267 0.61999 0.0
C588 C 0.7285 0.09206 0.60964 0.0
C589 C 0.6928 0.04713 0.60811 0.0
C590 C 0.69545 0.01277 0.61711 0.0
H591 H 0.8254 0.86093 0.97612 0.0
H592 H 0.77449 0.79977 0.02609 0.0
H593 H 0.7144 0.73235 0.01183 0.0
H594 H 0.71652 0.81631 0.95519 0.0
H595 H 0.73625 0.80746 0.93485 0.0
H596 H 0.77438 0.85178 0.94899 0.0
H597 H 0.82789 0.81907 0.9486 0.0
H598 H 0.78987 0.77457 0.93452 0.0
H599 H 0.80669 0.7613 0.95466 0.0
H600 H 0.66247 0.67026 0.99234 0.0
H601 H 0.61913 0.61855 0.96872 0.0
H602 H 0.70293 0.71959 0.93124 0.0
C603 C 0.80148 0.8334 0.98405 0.0
C604 C 0.80446 0.83574 0.00223 0.0
C605 C 0.77241 0.79909 0.01216 0.0
C606 C 0.73835 0.76051 0.00418 0.0
C607 C 0.73661 0.75913 0.98625 0.0
C608 C 0.76705 0.79467 0.97628 0.0
C609 C 0.7578 0.78428 0.95724 0.0
C610 C 0.7455 0.81689 0.94856 0.0
C611 C 0.79795 0.78483 0.94823 0.0
C612 C 0.71771 0.73717 0.95808 0.0
C613 C 0.70618 0.72333 0.97495 0.0
C614 C 0.67103 0.68075 0.97907 0.0
C615 C 0.64684 0.65153 0.96558 0.0
C616 C 0.65777 0.66504 0.94818 0.0
C617 C 0.69363 0.70853 0.94443 0.0
H618 H 0.01587 0.83797 0.31882 0.0
H619 H 0.87379 0.7659 0.3313 0.0
H620 H 0.86366 0.70257 0.31303 0.0
H621 H 0.0045 0.80221 0.27431 0.0
H622 H 0.05447 0.79758 0.27468 0.0
H623 H 0.05024 0.83741 0.28852 0.0
H624 H 0.06641 0.80208 0.31509 0.0
H625 H 0.07046 0.76199 0.30135 0.0
H626 H 0.03149 0.74278 0.31913 0.0
H627 H 0.86917 0.64705 0.29364 0.0
H628 H 0.88979 0.60272 0.2746 0.0
H629 H 0.02833 0.71127 0.2745 0.0
C630 C 0.98251 0.80911 0.31754 0.0
C631 C 0.94554 0.8069 0.32644 0.0
C632 C 0.90261 0.76815 0.3247 0.0
C633 C 0.89651 0.73213 0.3143 0.0
C634 C 0.93371 0.73534 0.30578 0.0
C635 C 0.97587 0.77281 0.30728 0.0
C636 C 0.01041 0.76746 0.29699 0.0
C637 C 0.03111 0.80329 0.28278 0.0
C638 C 0.04683 0.76864 0.30885 0.0
C639 C 0.98107 0.72109 0.28946 0.0
C640 C 0.93694 0.70323 0.29466 0.0
C641 C 0.90358 0.66078 0.28941 0.0
C642 C 0.9156 0.63597 0.27852 0.0
C643 C 0.96063 0.6536 0.27296 0.0
C644 C 0.99371 0.69673 0.2786 0.0
H645 H 0.18524 0.02048 0.65021 0.0
H646 H 0.12388 0.88182 0.66691 0.0
H647 H 0.17525 0.8706 0.6479 0.0
H648 H 0.20461 0.00243 0.60566 0.0
H649 H 0.25807 0.05357 0.60442 0.0
H650 H 0.2152 0.05008 0.61876 0.0
H651 H 0.27059 0.07287 0.64441 0.0
H652 H 0.31359 0.07633 0.63017 0.0
H653 H 0.29774 0.04066 0.64891 0.0
H654 H 0.23328 0.87461 0.62725 0.0
H655 H 0.29647 0.8943 0.60732 0.0
H656 H 0.32169 0.03106 0.60457 0.0
C657 C 0.18233 0.98764 0.64968 0.0
C658 C 0.15049 0.95188 0.65992 0.0
C659 C 0.14818 0.90963 0.65919 0.0
C660 C 0.17705 0.90293 0.64839 0.0
C661 C 0.20824 0.93894 0.63853 0.0
C662 C 0.21126 0.98054 0.63913 0.0
C663 C 0.24896 0.0141 0.62774 0.0
C664 C 0.2306 0.03103 0.61329 0.0
C665 C 0.28484 0.0533 0.63845 0.0
C666 C 0.26672 0.98487 0.62066 0.0
C667 C 0.24249 0.94155 0.62694 0.0
C668 C 0.25244 0.90839 0.62222 0.0
C669 C 0.28822 0.91983 0.61083 0.0
C670 C 0.31386 0.96414 0.60437 0.0
C671 C 0.30284 0.997 0.60939 0.0
H672 H 0.18544 0.20879 0.99477 0.0
H673 H 0.21242 0.0996 0.98643 0.0
H674 H 0.26981 0.14528 0.96472 0.0
H675 H 0.19781 0.24481 0.95068 0.0
H676 H 0.22454 0.30369 0.95592 0.0
H677 H 0.18559 0.26251 0.97085 0.0
H678 H 0.24619 0.29433 0.99481 0.0
H679 H 0.28523 0.33578 0.97999 0.0
H680 H 0.29998 0.29874 0.99096 0.0
H681 H 0.32486 0.20307 0.94425 0.0
H682 H 0.37385 0.26911 0.92634 0.0
H683 H 0.31105 0.34069 0.94798 0.0
C684 C 0.20371 0.19464 0.98849 0.0
C685 C 0.19446 0.15061 0.99229 0.0
C686 C 0.21863 0.13307 0.98359 0.0
C687 C 0.25138 0.15881 0.9713 0.0
C688 C 0.25948 0.20197 0.9678 0.0
C689 C 0.23636 0.21978 0.97612 0.0
C690 C 0.25145 0.26703 0.96994 0.0
C691 C 0.21252 0.26964 0.96134 0.0
C692 C 0.27194 0.30097 0.98481 0.0
C693 C 0.28682 0.27307 0.95689 0.0
C694 C 0.29094 0.23515 0.95587 0.0
C695 C 0.32193 0.23294 0.94493 0.0
C696 C 0.3497 0.27064 0.93487 0.0
C697 C 0.34623 0.30997 0.93577 0.0
C698 C 0.31407 0.3109 0.94686 0.0
H699 H 0.01967 0.17666 0.31249 0.0
H700 H 0.05723 0.25257 0.36024 0.0
H701 H 0.06286 0.31808 0.34487 0.0
H702 H 0.09214 0.2698 0.28415 0.0
H703 H 0.05148 0.25109 0.26695 0.0
H704 H 0.05246 0.21081 0.28153 0.0
H705 H 0.96858 0.18058 0.28878 0.0
H706 H 0.9674 0.22087 0.27429 0.0
H707 H 0.95097 0.21887 0.29648 0.0
H708 H 0.06244 0.37433 0.32469 0.0
H709 H 0.0549 0.41785 0.30101 0.0
H710 H 0.0175 0.3058 0.26614 0.0
C711 C 0.0297 0.2073 0.31964 0.0
C712 C 0.03811 0.20963 0.33755 0.0
C713 C 0.05034 0.25001 0.34654 0.0
C714 C 0.05383 0.28742 0.33791 0.0
C715 C 0.04487 0.28389 0.3203 0.0
C716 C 0.03304 0.24492 0.31124 0.0
C717 C 0.02363 0.24958 0.29249 0.0
C718 C 0.05692 0.24506 0.28058 0.0
C719 C 0.97474 0.21545 0.28774 0.0
C720 C 0.03171 0.29715 0.29248 0.0
C721 C 0.04422 0.31636 0.30864 0.0
C722 C 0.053 0.35981 0.31194 0.0
C723 C 0.04887 0.38434 0.29837 0.0
C724 C 0.03596 0.36541 0.28168 0.0
C725 C 0.02726 0.32115 0.27876 0.0
loop_
_geom_bond_atom_site_label_1
_geom_bond_atom_site_label_2
_geom_bond_distance
_geom_bond_site_symmetry_2
_ccdc_geom_bond_type
Li0 N17 1.990 . S
Li0 O60 1.956 . S
Li0 O61 1.970 1_455 S
Li0 O62 1.961 1_545 S
Li1 N25 1.990 . S
Li1 O60 1.970 1_655 S
Li1 O61 1.956 . S
Li1 O63 1.961 1_545 S
Li2 N47 1.990 . S
Li2 O60 1.961 1_565 S
Li2 O62 1.956 . S
Li2 O63 1.970 1_455 S
Li3 N53 1.990 . S
Li3 O61 1.961 1_565 S
Li3 O62 1.970 1_655 S
Li3 O63 1.956 . S
C4 C6 1.348 . S
C4 C7 1.356 . S
C4 O60 1.325 . S
N5 C8 1.314 . S
N5 C9 1.279 . S
C6 C4 1.348 . S
C6 C8 1.353 . S
C6 H64 0.929 . S
C7 C4 1.356 . S
C7 C9 1.358 . S
C7 H65 0.930 . S
C8 N5 1.314 . S
C8 C6 1.353 . S
C8 H66 0.930 . S
C9 N5 1.279 . S
C9 C7 1.358 . S
C9 H67 0.930 . S
C10 C13 1.348 1_655 S
C10 C14 1.356 . S
C10 O61 1.325 . S
C11 N12 1.279 . S
C11 C14 1.358 . S
C11 H68 0.930 . S
N12 C11 1.279 . S
N12 C15 1.314 . S
C13 C10 1.348 1_455 S
C13 C15 1.353 1_455 S
C13 H69 0.929 . S
C14 C10 1.356 . S
C14 C11 1.358 . S
C14 H70 0.930 . S
C15 N12 1.314 . S
C15 C13 1.353 1_655 S
C15 H71 0.930 1_655 S
C16 N17 1.314 . S
C16 C21 1.359 . S
C16 H22 0.930 . S
N17 Li0 1.990 . S
N17 C16 1.314 . S
N17 C19 1.279 . S
C18 C19 1.358 . S
C18 C20 1.356 . S
C18 H72 0.930 . S
C19 N17 1.279 . S
C19 C18 1.358 . S
C19 H23 0.930 . S
C20 C18 1.356 . S
C20 C21 1.350 . S
C21 C16 1.359 . S
C21 C20 1.350 . S
C21 H73 0.921 1_554 S
H22 C16 0.930 . S
H23 C19 0.930 . S
C24 N25 1.314 . S
C24 C26 1.353 . S
C24 H30 0.930 . S
N25 Li1 1.990 . S
N25 C24 1.314 . S
N25 C28 1.279 . S
C26 C24 1.353 . S
C26 C29 1.348 . S
C26 H74 0.929 . S
C27 C28 1.358 . S
C27 C29 1.356 . S
C27 H75 0.930 . S
C28 N25 1.279 . S
C28 C27 1.358 . S
C28 H31 0.930 . S
C29 C26 1.348 . S
C29 C27 1.356 . S
H30 C24 0.930 . S
H31 C28 0.930 . S
C32 C34 1.348 1_455 S
C32 C35 1.356 . S
C32 O62 1.325 . S
N33 C36 1.314 . S
N33 C37 1.279 . S
C34 C32 1.348 1_655 S
C34 C36 1.353 1_655 S
C34 H76 0.929 . S
C35 C32 1.356 . S
C35 C37 1.358 . S
C35 H77 0.930 . S
C36 N33 1.314 . S
C36 C34 1.353 1_455 S
C36 H78 0.930 1_455 S
C37 N33 1.279 . S
C37 C35 1.358 . S
C37 H79 0.930 . S
C38 C39 1.348 . S
C38 C40 1.356 . S
C38 O63 1.325 . S
C39 C38 1.348 . S
C39 C41 1.353 . S
C39 H80 0.929 . S
C40 C38 1.356 . S
C40 C42 1.358 . S
C40 H81 0.930 . S
C41 C39 1.353 . S
C41 N43 1.314 . S
C41 H82 0.930 . S
C42 C40 1.358 . S
C42 N43 1.279 . S
C42 H83 0.930 . S
N43 C41 1.314 . S
N43 C42 1.279 . S
C44 C46 1.353 . S
C44 N47 1.314 . S
C44 H50 0.930 . S
C45 N47 1.279 . S
C45 C48 1.358 . S
C45 H51 0.930 . S
C46 C44 1.353 . S
C46 C49 1.348 . S
C46 H84 0.929 . S
N47 Li2 1.990 . S
N47 C44 1.314 . S
N47 C45 1.279 . S
C48 C45 1.358 . S
C48 C49 1.356 . S
C48 H85 0.930 . S
C49 C46 1.348 . S
C49 C48 1.356 . S
H50 C44 0.930 . S
H51 C45 0.930 . S
C52 N53 1.314 . S
C52 C54 1.359 . S
C52 H58 0.930 . S
N53 Li3 1.990 . S
N53 C52 1.314 . S
N53 C56 1.279 . S
C54 C52 1.359 . S
C54 C57 1.350 . S
C54 H86 0.921 1_554 S
C55 C56 1.358 . S
C55 C57 1.356 . S
C55 H87 0.930 . S
C56 N53 1.279 . S
C56 C55 1.358 . S
C56 H59 0.930 . S
C57 C54 1.350 . S
C57 C55 1.356 . S
H58 C52 0.930 . S
H59 C56 0.930 . S
O60 Li0 1.956 . S
O60 Li1 1.970 1_455 S
O60 Li2 1.961 1_545 S
O60 C4 1.325 . S
O61 Li0 1.970 1_655 S
O61 Li1 1.956 . S
O61 Li3 1.961 1_545 S
O61 C10 1.325 . S
O62 Li0 1.961 1_565 S
O62 Li2 1.956 . S
O62 Li3 1.970 1_455 S
O62 C32 1.325 . S
O63 Li1 1.961 1_565 S
O63 Li2 1.970 1_655 S
O63 Li3 1.956 . S
O63 C38 1.325 . S
H64 C6 0.929 . S
H65 C7 0.930 . S
H66 C8 0.930 . S
H67 C9 0.930 . S
H68 C11 0.930 . S
H69 C13 0.929 . S
H70 C14 0.930 . S
H71 C15 0.930 1_455 S
H72 C18 0.930 . S
H73 C21 0.921 1_556 S
H74 C26 0.929 . S
H75 C27 0.930 . S
H76 C34 0.929 . S
H77 C35 0.930 . S
H78 C36 0.930 1_655 S
H79 C37 0.930 . S
H80 C39 0.929 . S
H81 C40 0.930 . S
H82 C41 0.930 . S
H83 C42 0.930 . S
H84 C46 0.929 . S
H85 C48 0.930 . S
H86 C54 0.921 1_556 S
H87 C55 0.930 . S
Li88 N105 1.990 . S
Li88 O148 1.956 . S
Li88 O149 1.970 1_665 S
Li88 O150 1.961 . S
Li89 N113 1.990 . S
Li89 O148 1.970 1_445 S
Li89 O149 1.956 . S
Li89 O151 1.961 . S
Li90 N135 1.990 . S
Li90 O148 1.961 . S
Li90 O150 1.956 . S
Li90 O151 1.970 1_665 S
Li91 N141 1.990 . S
Li91 O149 1.961 . S
Li91 O150 1.970 1_445 S
Li91 O151 1.956 . S
C92 C94 1.348 1_655 S
C92 C95 1.356 . S
C92 O148 1.325 . S
N93 C96 1.314 . S
N93 C97 1.279 . S
C94 C92 1.348 1_455 S
C94 C96 1.353 1_455 S
C94 H152 0.929 . S
C95 C92 1.356 . S
C95 C97 1.358 . S
C95 H153 0.930 . S
C96 N93 1.314 . S
C96 C94 1.353 1_655 S
C96 H154 0.930 1_655 S
C97 N93 1.279 . S
C97 C95 1.358 . S
C97 H155 0.930 . S
C98 C101 1.348 1_545 S
C98 C102 1.356 . S
C98 O149 1.325 . S
C99 N100 1.279 . S
C99 C102 1.358 . S
C99 H156 0.930 . S
N100 C99 1.279 . S
N100 C103 1.314 . S
C101 C98 1.348 1_565 S
C101 C103 1.353 1_565 S
C101 H157 0.929 . S
C102 C98 1.356 . S
C102 C99 1.358 . S
C102 H158 0.930 . S
C103 N100 1.314 . S
C103 C101 1.353 1_545 S
C103 H159 0.930 1_545 S
C104 N105 1.314 . S
C104 C109 1.353 . S
C104 H110 0.930 . S
N105 Li88 1.990 . S
N105 C104 1.314 . S
N105 C107 1.279 . S
C106 C107 1.358 . S
C106 C108 1.356 . S
C106 H160 0.930 . S
C107 N105 1.279 . S
C107 C106 1.358 . S
C107 H111 0.930 . S
C108 C106 1.356 . S
C108 C109 1.348 . S
C109 C104 1.353 . S
C109 C108 1.348 . S
C109 H161 0.929 . S
H110 C104 0.930 . S
H111 C107 0.930 . S
C112 N113 1.314 . S
C112 C114 1.353 . S
C112 H118 0.930 . S
N113 Li89 1.990 . S
N113 C112 1.314 . S
N113 C116 1.279 . S
C114 C112 1.353 . S
C114 C117 1.348 . S
C114 H162 0.929 . S
C115 C116 1.358 . S
C115 C117 1.356 . S
C115 H163 0.930 . S
C116 N113 1.279 . S
C116 C115 1.358 . S
C116 H119 0.930 . S
C117 C114 1.348 . S
C117 C115 1.356 . S
H118 C112 0.930 . S
H119 C116 0.930 . S
C120 C122 1.348 1_565 S
C120 C123 1.356 . S
C120 O150 1.325 . S
N121 C124 1.314 . S
N121 C125 1.279 . S
C122 C120 1.348 1_545 S
C122 C124 1.353 1_545 S
C122 H164 0.929 . S
C123 C120 1.356 . S
C123 C125 1.358 . S
C123 H165 0.930 . S
C124 N121 1.314 . S
C124 C122 1.353 1_565 S
C124 H166 0.930 1_565 S
C125 N121 1.279 . S
C125 C123 1.358 . S
C125 H167 0.930 . S
C126 C127 1.348 1_455 S
C126 C128 1.356 . S
C126 O151 1.325 . S
C127 C126 1.348 1_655 S
C127 C129 1.353 1_655 S
C127 H168 0.929 . S
C128 C126 1.356 . S
C128 C130 1.358 . S
C128 H169 0.930 . S
C129 C127 1.353 1_455 S
C129 N131 1.314 . S
C129 H170 0.930 1_455 S
C130 C128 1.358 . S
C130 N131 1.279 . S
C130 H171 0.930 . S
N131 C129 1.314 . S
N131 C130 1.279 . S
C132 C134 1.353 . S
C132 N135 1.314 . S
C132 H138 0.930 . S
C133 N135 1.279 . S
C133 C136 1.358 . S
C133 H139 0.930 . S
C134 C132 1.353 . S
C134 C137 1.348 . S
C134 H172 0.929 . S
N135 Li90 1.990 . S
N135 C132 1.314 . S
N135 C133 1.279 . S
C136 C133 1.358 . S
C136 C137 1.356 . S
C136 H173 0.930 . S
C137 C134 1.348 . S
C137 C136 1.356 . S
H138 C132 0.930 . S
H139 C133 0.930 . S
C140 N141 1.314 . S
C140 C142 1.353 . S
C140 H146 0.930 . S
N141 Li91 1.990 . S
N141 C140 1.314 . S
N141 C144 1.279 . S
C142 C140 1.353 . S
C142 C145 1.348 . S
C142 H174 0.929 . S
C143 C144 1.358 . S
C143 C145 1.356 . S
C143 H175 0.930 . S
C144 N141 1.279 . S
C144 C143 1.358 . S
C144 H147 0.930 . S
C145 C142 1.348 . S
C145 C143 1.356 . S
H146 C140 0.930 . S
H147 C144 0.930 . S
O148 Li88 1.956 . S
O148 Li89 1.970 1_665 S
O148 Li90 1.961 . S
O148 C92 1.325 . S
O149 Li88 1.970 1_445 S
O149 Li89 1.956 . S
O149 Li91 1.961 . S
O149 C98 1.325 . S
O150 Li88 1.961 . S
O150 Li90 1.956 . S
O150 Li91 1.970 1_665 S
O150 C120 1.325 . S
O151 Li89 1.961 . S
O151 Li90 1.970 1_445 S
O151 Li91 1.956 . S
O151 C126 1.325 . S
H152 C94 0.929 . S
H153 C95 0.930 . S
H154 C96 0.930 1_455 S
H155 C97 0.930 . S
H156 C99 0.930 . S
H157 C101 0.929 . S
H158 C102 0.930 . S
H159 C103 0.930 1_565 S
H160 C106 0.930 . S
H161 C109 0.929 . S
H162 C114 0.929 . S
H163 C115 0.930 . S
H164 C122 0.929 . S
H165 C123 0.930 . S
H166 C124 0.930 1_545 S
H167 C125 0.930 . S
H168 C127 0.929 . S
H169 C128 0.930 . S
H170 C129 0.930 1_655 S
H171 C130 0.930 . S
H172 C134 0.929 . S
H173 C136 0.930 . S
H174 C142 0.929 . S
H175 C143 0.930 . S
Li176 N193 1.990 . S
Li176 O236 1.956 . S
Li176 O237 1.970 1_565 S
Li176 O238 1.961 1_455 S
Li177 N201 1.990 . S
Li177 O236 1.970 1_545 S
Li177 O237 1.956 . S
Li177 O239 1.961 1_455 S
Li178 N223 1.990 . S
Li178 O236 1.961 1_655 S
Li178 O238 1.956 . S
Li178 O239 1.970 1_565 S
Li179 N229 1.990 . S
Li179 O237 1.961 1_655 S
Li179 O238 1.970 1_545 S
Li179 O239 1.956 . S
C180 C182 1.348 1_565 S
C180 C183 1.356 . S
C180 O236 1.325 . S
N181 C184 1.314 . S
N181 C185 1.279 . S
C182 C180 1.348 1_545 S
C182 C184 1.353 1_545 S
C182 H240 0.929 . S
C183 C180 1.356 . S
C183 C185 1.358 . S
C183 H241 0.930 . S
C184 N181 1.314 . S
C184 C182 1.353 1_565 S
C184 H242 0.930 1_565 S
C185 N181 1.279 . S
C185 C183 1.358 . S
C185 H243 0.930 . S
C186 C189 1.348 . S
C186 C190 1.356 . S
C186 O237 1.325 . S
C187 N188 1.279 . S
C187 C190 1.358 . S
C187 H244 0.930 . S
N188 C187 1.279 . S
N188 C191 1.314 . S
C189 C186 1.348 . S
C189 C191 1.353 . S
C189 H245 0.929 . S
C190 C186 1.356 . S
C190 C187 1.358 . S
C190 H246 0.930 . S
C191 N188 1.314 . S
C191 C189 1.353 . S
C191 H247 0.930 . S
C192 N193 1.314 . S
C192 C197 1.353 . S
C192 H198 0.930 . S
N193 Li176 1.990 . S
N193 C192 1.314 . S
N193 C195 1.279 . S
C194 C195 1.358 . S
C194 C196 1.356 . S
C194 H248 0.930 . S
C195 N193 1.279 . S
C195 C194 1.358 . S
C195 H199 0.930 . S
C196 C194 1.356 . S
C196 C197 1.348 . S
C197 C192 1.353 . S
C197 C196 1.348 . S
C197 H249 0.929 . S
H198 C192 0.930 . S
H199 C195 0.930 . S
C200 N201 1.314 . S
C200 C202 1.353 . S
C200 H206 0.930 . S
N201 Li177 1.990 . S
N201 C200 1.314 . S
N201 C204 1.279 . S
C202 C200 1.353 . S
C202 C205 1.348 . S
C202 H250 0.929 . S
C203 C204 1.358 . S
C203 C205 1.356 . S
C203 H251 0.930 . S
C204 N201 1.279 . S
C204 C203 1.358 . S
C204 H207 0.930 . S
C205 C202 1.348 . S
C205 C203 1.356 . S
H206 C200 0.930 . S
H207 C204 0.930 . S
C208 C210 1.348 . S
C208 C211 1.356 . S
C208 O238 1.325 . S
N209 C212 1.314 . S
N209 C213 1.279 . S
C210 C208 1.348 . S
C210 C212 1.353 . S
C210 H252 0.929 . S
C211 C208 1.356 . S
C211 C213 1.358 . S
C211 H253 0.930 . S
C212 N209 1.314 . S
C212 C210 1.353 . S
C212 H254 0.930 . S
C213 N209 1.279 . S
C213 C211 1.358 . S
C213 H255 0.930 . S
C214 C215 1.348 1_545 S
C214 C216 1.356 . S
C214 O239 1.325 . S
C215 C214 1.348 1_565 S
C215 C217 1.353 1_565 S
C215 H256 0.929 . S
C216 C214 1.356 . S
C216 C218 1.358 . S
C216 H257 0.930 . S
C217 C215 1.353 1_545 S
C217 N219 1.314 . S
C217 H258 0.930 1_545 S
C218 C216 1.358 . S
C218 N219 1.279 . S
C218 H259 0.930 . S
N219 C217 1.314 . S
N219 C218 1.279 . S
C220 C222 1.353 . S
C220 N223 1.314 . S
C220 H226 0.930 . S
C221 N223 1.279 . S
C221 C224 1.358 . S
C221 H227 0.930 . S
C222 C220 1.353 . S
C222 C225 1.348 . S
C222 H260 0.929 . S
N223 Li178 1.990 . S
N223 C220 1.314 . S
N223 C221 1.279 . S
C224 C221 1.358 . S
C224 C225 1.356 . S
C224 H261 0.930 . S
C225 C222 1.348 . S
C225 C224 1.356 . S
H226 C220 0.930 . S
H227 C221 0.930 . S
C228 N229 1.314 . S
C228 C230 1.353 . S
C228 H234 0.930 . S
N229 Li179 1.990 . S
N229 C228 1.314 . S
N229 C232 1.279 . S
C230 C228 1.353 . S
C230 C233 1.348 . S
C230 H262 0.929 . S
C231 C232 1.358 . S
C231 C233 1.356 . S
C231 H263 0.930 . S
C232 N229 1.279 . S
C232 C231 1.358 . S
C232 H235 0.930 . S
C233 C230 1.348 . S
C233 C231 1.356 . S
H234 C228 0.930 . S
H235 C232 0.930 . S
O236 Li176 1.956 . S
O236 Li177 1.970 1_565 S
O236 Li178 1.961 1_455 S
O236 C180 1.325 . S
O237 Li176 1.970 1_545 S
O237 Li177 1.956 . S
O237 Li179 1.961 1_455 S
O237 C186 1.325 . S
O238 Li176 1.961 1_655 S
O238 Li178 1.956 . S
O238 Li179 1.970 1_565 S
O238 C208 1.325 . S
O239 Li177 1.961 1_655 S
O239 Li178 1.970 1_545 S
O239 Li179 1.956 . S
O239 C214 1.325 . S
H240 C182 0.929 . S
H241 C183 0.930 . S
H242 C184 0.930 1_545 S
H243 C185 0.930 . S
H244 C187 0.930 . S
H245 C189 0.929 . S
H246 C190 0.930 . S
H247 C191 0.930 . S
H248 C194 0.930 . S
H249 C197 0.929 . S
H250 C202 0.929 . S
H251 C203 0.930 . S
H252 C210 0.929 . S
H253 C211 0.930 . S
H254 C212 0.930 . S
H255 C213 0.930 . S
H256 C215 0.929 . S
H257 C216 0.930 . S
H258 C217 0.930 1_565 S
H259 C218 0.930 . S
H260 C222 0.929 . S
H261 C224 0.930 . S
H262 C230 0.929 . S
H263 C231 0.930 . S
C264 C265 1.384 1_655 S
C264 C266 1.384 . S
C264 H292 0.931 . S
C265 C264 1.384 1_455 S
C265 C268 1.382 . S
C266 C264 1.384 . S
C266 C267 1.381 1_655 S
C266 H293 0.930 . S
C267 C266 1.381 1_455 S
C267 C269 1.381 . S
C267 C270 1.487 . S
C268 C265 1.382 . S
C268 C269 1.387 . S
C268 H294 0.930 . S
C269 C267 1.381 . S
C269 C268 1.387 . S
C269 H295 0.931 . S
C270 C267 1.487 . S
C270 C277 1.399 1_455 S
C270 N308 1.343 . S
C271 C272 1.384 1_455 S
C271 C273 1.384 . S
C271 H296 0.931 . S
C272 C271 1.384 1_655 S
C272 C275 1.382 . S
C273 C271 1.384 . S
C273 C274 1.381 1_455 S
C273 H297 0.930 . S
C274 C273 1.381 1_655 S
C274 C276 1.381 . S
C274 C277 1.487 . S
C275 C272 1.382 . S
C275 C276 1.387 . S
C275 H298 0.930 . S
C276 C274 1.381 . S
C276 C275 1.387 . S
C276 H299 0.931 . S
C277 C270 1.399 1_655 S
C277 C274 1.487 . S
C277 N309 1.343 . S
C278 C279 1.384 1_455 S
C278 C280 1.384 . S
C278 H300 0.931 . S
C279 C278 1.384 1_655 S
C279 C282 1.382 . S
C280 C278 1.384 . S
C280 C281 1.381 1_455 S
C280 H301 0.930 . S
C281 C280 1.381 1_655 S
C281 C283 1.381 . S
C281 C284 1.487 . S
C282 C279 1.382 . S
C282 C283 1.387 . S
C282 H302 0.930 . S
C283 C281 1.381 . S
C283 C282 1.387 . S
C283 H303 0.931 . S
C284 C281 1.487 . S
C284 C291 1.399 1_655 S
C284 N309 1.343 . S
C285 C286 1.384 1_655 S
C285 C287 1.384 . S
C285 H304 0.931 . S
C286 C285 1.384 1_455 S
C286 C289 1.382 . S
C287 C285 1.384 . S
C287 C288 1.381 1_655 S
C287 H305 0.930 . S
C288 C287 1.381 1_455 S
C288 C290 1.381 . S
C288 C291 1.487 . S
C289 C286 1.382 . S
C289 C290 1.387 . S
C289 H306 0.930 . S
C290 C288 1.381 . S
C290 C289 1.387 . S
C290 H307 0.931 . S
C291 C284 1.399 1_455 S
C291 C288 1.487 . S
C291 N308 1.343 . S
H292 C264 0.931 . S
H293 C266 0.930 . S
H294 C268 0.930 . S
H295 C269 0.931 . S
H296 C271 0.931 . S
H297 C273 0.930 . S
H298 C275 0.930 . S
H299 C276 0.931 . S
H300 C278 0.931 . S
H301 C280 0.930 . S
H302 C282 0.930 . S
H303 C283 0.931 . S
H304 C285 0.931 . S
H305 C287 0.930 . S
H306 C289 0.930 . S
H307 C290 0.931 . S
N308 C270 1.343 . S
N308 C291 1.343 . S
N309 C277 1.343 . S
N309 C284 1.343 . S
C310 C311 1.384 1_545 S
C310 C312 1.384 . S
C310 H338 0.931 . S
C311 C310 1.384 1_565 S
C311 C314 1.382 . S
C312 C310 1.384 . S
C312 C313 1.381 1_545 S
C312 H339 0.930 . S
C313 C312 1.381 1_565 S
C313 C315 1.381 . S
C313 C316 1.487 . S
C314 C311 1.382 . S
C314 C315 1.387 . S
C314 H340 0.930 . S
C315 C313 1.381 . S
C315 C314 1.387 . S
C315 H341 0.931 . S
C316 C313 1.487 . S
C316 C323 1.399 1_565 S
C316 N354 1.343 . S
C317 C318 1.384 1_565 S
C317 C319 1.384 . S
C317 H342 0.931 . S
C318 C317 1.384 1_545 S
C318 C321 1.382 . S
C319 C317 1.384 . S
C319 C320 1.381 1_565 S
C319 H343 0.930 . S
C320 C319 1.381 1_545 S
C320 C322 1.381 . S
C320 C323 1.487 . S
C321 C318 1.382 . S
C321 C322 1.387 . S
C321 H344 0.930 . S
C322 C320 1.381 . S
C322 C321 1.387 . S
C322 H345 0.931 . S
C323 C316 1.399 1_545 S
C323 C320 1.487 . S
C323 N355 1.343 . S
C324 C325 1.384 1_565 S
C324 C326 1.384 . S
C324 H346 0.931 . S
C325 C324 1.384 1_545 S
C325 C328 1.382 . S
C326 C324 1.384 . S
C326 C327 1.381 1_565 S
C326 H347 0.930 . S
C327 C326 1.381 1_545 S
C327 C329 1.381 . S
C327 C330 1.487 . S
C328 C325 1.382 . S
C328 C329 1.387 . S
C328 H348 0.930 . S
C329 C327 1.381 . S
C329 C328 1.387 . S
C329 H349 0.931 . S
C330 C327 1.487 . S
C330 C337 1.399 1_545 S
C330 N355 1.343 . S
C331 C332 1.384 1_545 S
C331 C333 1.384 . S
C331 H350 0.931 . S
C332 C331 1.384 1_565 S
C332 C335 1.382 . S
C333 C331 1.384 . S
C333 C334 1.381 1_545 S
C333 H351 0.930 . S
C334 C333 1.381 1_565 S
C334 C336 1.381 . S
C334 C337 1.487 . S
C335 C332 1.382 . S
C335 C336 1.387 . S
C335 H352 0.930 . S
C336 C334 1.381 . S
C336 C335 1.387 . S
C336 H353 0.931 . S
C337 C330 1.399 1_565 S
C337 C334 1.487 . S
C337 N354 1.343 . S
H338 C310 0.931 . S
H339 C312 0.930 . S
H340 C314 0.930 . S
H341 C315 0.931 . S
H342 C317 0.931 . S
H343 C319 0.930 . S
H344 C321 0.930 . S
H345 C322 0.931 . S
H346 C324 0.931 . S
H347 C326 0.930 . S
H348 C328 0.930 . S
H349 C329 0.931 . S
H350 C331 0.931 . S
H351 C333 0.930 . S
H352 C335 0.930 . S
H353 C336 0.931 . S
N354 C316 1.343 . S
N354 C337 1.343 . S
N355 C323 1.343 . S
N355 C330 1.343 . S
C356 C357 1.384 . S
C356 C358 1.384 . S
C356 H384 0.931 . S
C357 C356 1.384 . S
C357 C360 1.382 . S
C358 C356 1.384 . S
C358 C359 1.381 . S
C358 H385 0.930 . S
C359 C358 1.381 . S
C359 C361 1.381 . S
C359 C362 1.487 . S
C360 C357 1.382 . S
C360 C361 1.387 . S
C360 H386 0.930 . S
C361 C359 1.381 . S
C361 C360 1.387 . S
C361 H387 0.931 . S
C362 C359 1.487 . S
C362 C369 1.399 . S
C362 N400 1.343 . S
C363 C364 1.384 . S
C363 C365 1.384 . S
C363 H388 0.931 . S
C364 C363 1.384 . S
C364 C367 1.382 . S
C365 C363 1.384 . S
C365 C366 1.381 . S
C365 H389 0.930 . S
C366 C365 1.381 . S
C366 C368 1.381 . S
C366 C369 1.487 . S
C367 C364 1.382 . S
C367 C368 1.387 . S
C367 H390 0.930 . S
C368 C366 1.381 . S
C368 C367 1.387 . S
C368 H391 0.931 . S
C369 C362 1.399 . S
C369 C366 1.487 . S
C369 N401 1.343 . S
C370 C371 1.384 . S
C370 C372 1.384 . S
C370 H392 0.931 . S
C371 C370 1.384 . S
C371 C374 1.382 . S
C372 C370 1.384 . S
C372 C373 1.381 . S
C372 H393 0.930 . S
C373 C372 1.381 . S
C373 C375 1.381 . S
C373 C376 1.487 . S
C374 C371 1.382 . S
C374 C375 1.387 . S
C374 H394 0.930 . S
C375 C373 1.381 . S
C375 C374 1.387 . S
C375 H395 0.931 . S
C376 C373 1.487 . S
C376 C383 1.399 . S
C376 N401 1.343 . S
C377 C378 1.384 . S
C377 C379 1.384 . S
C377 H396 0.931 . S
C378 C377 1.384 . S
C378 C381 1.382 . S
C379 C377 1.384 . S
C379 C380 1.381 . S
C379 H397 0.930 . S
C380 C379 1.381 . S
C380 C382 1.381 . S
C380 C383 1.487 . S
C381 C378 1.382 . S
C381 C382 1.387 . S
C381 H398 0.930 . S
C382 C380 1.381 . S
C382 C381 1.387 . S
C382 H399 0.931 . S
C383 C376 1.399 . S
C383 C380 1.487 . S
C383 N400 1.343 . S
H384 C356 0.931 . S
H385 C358 0.930 . S
H386 C360 0.930 . S
H387 C361 0.931 . S
H388 C363 0.931 . S
H389 C365 0.930 . S
H390 C367 0.930 . S
H391 C368 0.931 . S
H392 C370 0.931 . S
H393 C372 0.930 . S
H394 C374 0.930 . S
H395 C375 0.931 . S
H396 C377 0.931 . S
H397 C379 0.930 . S
H398 C381 0.930 . S
H399 C382 0.931 . S
N400 C362 1.343 . S
N400 C383 1.343 . S
N401 C369 1.343 . S
N401 C376 1.343 . S
H402 C414 0.930 . S
H403 C416 0.930 . S
H404 C417 0.930 . S
H405 C421 0.959 . S
H406 C421 0.959 . S
H407 C421 0.961 . S
H408 C422 0.960 . S
H409 C422 0.961 1_455 S
H410 C422 0.959 . S
H411 C425 0.929 . S
H412 C426 0.931 . S
H413 C428 0.930 . S
C414 H402 0.930 . S
C414 C415 1.399 . S
C414 C419 1.399 . S
C415 C414 1.399 . S
C415 C416 1.376 . S
C416 H403 0.930 . S
C416 C415 1.376 . S
C416 C417 1.388 . S
C417 H404 0.930 . S
C417 C416 1.388 . S
C417 C418 1.390 . S
C418 C417 1.390 . S
C418 C419 1.394 . S
C418 C424 1.465 . S
C419 C414 1.399 . S
C419 C418 1.394 . S
C419 C420 1.516 1_655 S
C420 C419 1.516 1_455 S
C420 C421 1.502 . S
C420 C422 1.561 1_455 S
C420 C423 1.526 1_455 S
C421 H405 0.959 . S
C421 H406 0.959 . S
C421 H407 0.961 . S
C421 C420 1.502 . S
C422 H408 0.960 . S
C422 H409 0.961 1_655 S
C422 H410 0.959 . S
C422 C420 1.561 1_655 S
C423 C420 1.526 1_655 S
C423 C424 1.396 . S
C423 C428 1.390 1_655 S
C424 C418 1.465 . S
C424 C423 1.396 . S
C424 C425 1.399 . S
C425 H411 0.929 . S
C425 C424 1.399 . S
C425 C426 1.385 . S
C426 H412 0.931 . S
C426 C425 1.385 . S
C426 C427 1.389 . S
C427 C426 1.389 . S
C427 C428 1.387 1_655 S
C428 H413 0.930 . S
C428 C423 1.390 1_455 S
C428 C427 1.387 1_455 S
H429 C441 0.930 1_545 S
H430 C443 0.930 . S
H431 C444 0.930 . S
H432 C448 0.959 . S
H433 C448 0.959 . S
H434 C448 0.961 . S
H435 C449 0.960 . S
H436 C449 0.961 . S
H437 C449 0.959 . S
H438 C452 0.929 . S
H439 C453 0.931 . S
H440 C455 0.930 . S
C441 H429 0.930 1_565 S
C441 C442 1.399 . S
C441 C446 1.399 . S
C442 C441 1.399 . S
C442 C443 1.376 . S
C443 H430 0.930 . S
C443 C442 1.376 . S
C443 C444 1.388 . S
C444 H431 0.930 . S
C444 C443 1.388 . S
C444 C445 1.390 . S
C445 C444 1.390 . S
C445 C446 1.394 . S
C445 C451 1.465 . S
C446 C441 1.399 . S
C446 C445 1.394 . S
C446 C447 1.516 1_565 S
C447 C446 1.516 1_545 S
C447 C448 1.502 . S
C447 C449 1.561 . S
C447 C450 1.526 . S
C448 H432 0.959 . S
C448 H433 0.959 . S
C448 H434 0.961 . S
C448 C447 1.502 . S
C449 H435 0.960 . S
C449 H436 0.961 . S
C449 H437 0.959 . S
C449 C447 1.561 . S
C450 C447 1.526 . S
C450 C451 1.396 1_545 S
C450 C455 1.390 . S
C451 C445 1.465 . S
C451 C450 1.396 1_565 S
C451 C452 1.399 . S
C452 H438 0.929 . S
C452 C451 1.399 . S
C452 C453 1.385 . S
C453 H439 0.931 . S
C453 C452 1.385 . S
C453 C454 1.389 . S
C454 C453 1.389 . S
C454 C455 1.387 1_565 S
C455 H440 0.930 . S
C455 C450 1.390 . S
C455 C454 1.387 1_545 S
H456 C468 0.930 . S
H457 C470 0.930 . S
H458 C471 0.930 . S
H459 C475 0.959 . S
H460 C475 0.959 . S
H461 C475 0.961 . S
H462 C476 0.960 . S
H463 C476 0.961 . S
H464 C476 0.959 . S
H465 C479 0.929 . S
H466 C480 0.931 . S
H467 C482 0.930 . S
C468 H456 0.930 . S
C468 C469 1.399 . S
C468 C473 1.399 . S
C469 C468 1.399 . S
C469 C470 1.376 . S
C470 H457 0.930 . S
C470 C469 1.376 . S
C470 C471 1.388 . S
C471 H458 0.930 . S
C471 C470 1.388 . S
C471 C472 1.390 . S
C472 C471 1.390 . S
C472 C473 1.394 . S
C472 C478 1.465 . S
C473 C468 1.399 . S
C473 C472 1.394 . S
C473 C474 1.516 . S
C474 C473 1.516 . S
C474 C475 1.502 . S
C474 C476 1.561 . S
C474 C477 1.526 . S
C475 H459 0.959 . S
C475 H460 0.959 . S
C475 H461 0.961 . S
C475 C474 1.502 . S
C476 H462 0.960 . S
C476 H463 0.961 . S
C476 H464 0.959 . S
C476 C474 1.561 . S
C477 C474 1.526 . S
C477 C478 1.396 . S
C477 C482 1.390 . S
C478 C472 1.465 . S
C478 C477 1.396 . S
C478 C479 1.399 . S
C479 H465 0.929 . S
C479 C478 1.399 . S
C479 C480 1.385 . S
C480 H466 0.931 . S
C480 C479 1.385 . S
C480 C481 1.389 . S
C481 C480 1.389 . S
C481 C482 1.387 . S
C482 H467 0.930 . S
C482 C477 1.390 . S
C482 C481 1.387 . S
H483 C495 0.930 . S
H484 C497 0.930 1_655 S
H485 C498 0.930 . S
H486 C502 0.959 . S
H487 C502 0.959 . S
H488 C502 0.961 . S
H489 C503 0.960 . S
H490 C503 0.961 . S
H491 C503 0.959 . S
H492 C506 0.929 . S
H493 C507 0.931 . S
H494 C509 0.930 . S
C495 H483 0.930 . S
C495 C496 1.399 . S
C495 C500 1.399 . S
C496 C495 1.399 . S
C496 C497 1.376 . S
C497 H484 0.930 1_455 S
C497 C496 1.376 . S
C497 C498 1.388 1_455 S
C498 H485 0.930 . S
C498 C497 1.388 1_655 S
C498 C499 1.390 1_655 S
C499 C498 1.390 1_455 S
C499 C500 1.394 . S
C499 C505 1.465 . S
C500 C495 1.399 . S
C500 C499 1.394 . S
C500 C501 1.516 . S
C501 C500 1.516 . S
C501 C502 1.502 . S
C501 C503 1.561 . S
C501 C504 1.526 . S
C502 H486 0.959 . S
C502 H487 0.959 . S
C502 H488 0.961 . S
C502 C501 1.502 . S
C503 H489 0.960 . S
C503 H490 0.961 . S
C503 H491 0.959 . S
C503 C501 1.561 . S
C504 C501 1.526 . S
C504 C505 1.396 . S
C504 C509 1.390 . S
C505 C499 1.465 . S
C505 C504 1.396 . S
C505 C506 1.399 1_455 S
C506 H492 0.929 . S
C506 C505 1.399 1_655 S
C506 C507 1.385 . S
C507 H493 0.931 . S
C507 C506 1.385 . S
C507 C508 1.371 1_655 S
C508 C507 1.371 1_455 S
C508 C509 1.397 . S
C509 H494 0.930 . S
C509 C504 1.390 . S
C509 C508 1.397 . S
H510 C522 0.930 . S
H511 C524 0.930 . S
H512 C525 0.930 . S
H513 C529 0.961 1_545 S
H514 C529 0.958 . S
H515 C529 0.961 . S
H516 C530 0.960 . S
H517 C530 0.961 . S
H518 C530 0.959 . S
H519 C533 0.929 . S
H520 C534 0.931 . S
H521 C536 0.930 . S
C522 H510 0.930 . S
C522 C523 1.399 . S
C522 C527 1.399 . S
C523 C522 1.399 . S
C523 C524 1.376 . S
C524 H511 0.930 . S
C524 C523 1.376 . S
C524 C525 1.388 . S
C525 H512 0.930 . S
C525 C524 1.388 . S
C525 C526 1.390 . S
C526 C525 1.390 . S
C526 C527 1.394 . S
C526 C532 1.465 . S
C527 C522 1.399 . S
C527 C526 1.394 . S
C527 C528 1.516 1_545 S
C528 C527 1.516 1_565 S
C528 C529 1.501 . S
C528 C530 1.561 . S
C528 C531 1.526 1_565 S
C529 H513 0.961 1_565 S
C529 H514 0.958 . S
C529 H515 0.961 . S
C529 C528 1.501 . S
C530 H516 0.960 . S
C530 H517 0.961 . S
C530 H518 0.959 . S
C530 C528 1.561 . S
C531 C528 1.526 1_545 S
C531 C532 1.396 . S
C531 C536 1.390 1_545 S
C532 C526 1.465 . S
C532 C531 1.396 . S
C532 C533 1.399 . S
C533 H519 0.929 . S
C533 C532 1.399 . S
C533 C534 1.385 . S
C534 H520 0.931 . S
C534 C533 1.385 . S
C534 C535 1.389 . S
C535 C534 1.389 . S
C535 C536 1.387 1_545 S
C536 H521 0.930 . S
C536 C531 1.390 1_565 S
C536 C535 1.387 1_565 S
H537 C549 0.930 . S
H538 C551 0.930 . S
H539 C552 0.930 . S
H540 C556 0.959 . S
H541 C556 0.959 . S
H542 C556 0.961 . S
H543 C557 0.960 . S
H544 C557 0.961 . S
H545 C557 0.959 . S
H546 C560 0.929 . S
H547 C561 0.931 . S
H548 C563 0.930 . S
C549 H537 0.930 . S
C549 C550 1.399 . S
C549 C554 1.399 . S
C550 C549 1.399 . S
C550 C551 1.376 . S
C551 H538 0.930 . S
C551 C550 1.376 . S
C551 C552 1.388 . S
C552 H539 0.930 . S
C552 C551 1.388 . S
C552 C553 1.390 . S
C553 C552 1.390 . S
C553 C554 1.394 . S
C553 C559 1.465 . S
C554 C549 1.399 . S
C554 C553 1.394 . S
C554 C555 1.516 . S
C555 C554 1.516 . S
C555 C556 1.502 . S
C555 C557 1.561 . S
C555 C558 1.526 . S
C556 H540 0.959 . S
C556 H541 0.959 . S
C556 H542 0.961 . S
C556 C555 1.502 . S
C557 H543 0.960 . S
C557 H544 0.961 . S
C557 H545 0.959 . S
C557 C555 1.561 . S
C558 C555 1.526 . S
C558 C559 1.396 . S
C558 C563 1.390 . S
C559 C553 1.465 . S
C559 C558 1.396 . S
C559 C560 1.399 . S
C560 H546 0.929 . S
C560 C559 1.399 . S
C560 C561 1.385 . S
C561 H547 0.931 . S
C561 C560 1.385 . S
C561 C562 1.389 . S
C562 C561 1.389 . S
C562 C563 1.387 . S
C563 H548 0.930 . S
C563 C558 1.390 . S
C563 C562 1.387 . S
H564 C576 0.930 1_565 S
H565 C578 0.930 . S
H566 C579 0.930 . S
H567 C583 0.959 . S
H568 C583 0.959 . S
H569 C583 0.961 . S
H570 C584 0.960 . S
H571 C584 0.961 . S
H572 C584 0.959 . S
H573 C587 0.929 . S
H574 C588 0.931 . S
H575 C590 0.930 . S
C576 H564 0.930 1_545 S
C576 C577 1.399 . S
C576 C581 1.399 . S
C577 C576 1.399 . S
C577 C578 1.376 . S
C578 H565 0.930 . S
C578 C577 1.376 . S
C578 C579 1.388 . S
C579 H566 0.930 . S
C579 C578 1.388 . S
C579 C580 1.390 . S
C580 C579 1.390 . S
C580 C581 1.394 . S
C580 C586 1.465 . S
C581 C576 1.399 . S
C581 C580 1.394 . S
C581 C582 1.516 1_545 S
C582 C581 1.516 1_565 S
C582 C583 1.502 . S
C582 C584 1.561 . S
C582 C585 1.526 . S
C583 H567 0.959 . S
C583 H568 0.959 . S
C583 H569 0.961 . S
C583 C582 1.502 . S
C584 H570 0.960 . S
C584 H571 0.961 . S
C584 H572 0.959 . S
C584 C582 1.561 . S
C585 C582 1.526 . S
C585 C586 1.396 1_565 S
C585 C590 1.390 . S
C586 C580 1.465 . S
C586 C585 1.396 1_545 S
C586 C587 1.399 . S
C587 H573 0.929 . S
C587 C586 1.399 . S
C587 C588 1.385 . S
C588 H574 0.931 . S
C588 C587 1.385 . S
C588 C589 1.389 . S
C589 C588 1.389 . S
C589 C590 1.387 1_545 S
C590 H575 0.930 . S
C590 C585 1.390 . S
C590 C589 1.387 1_565 S
H591 C603 0.930 . S
H592 C605 0.930 . S
H593 C606 0.930 . S
H594 C610 0.959 . S
H595 C610 0.959 . S
H596 C610 0.961 . S
H597 C611 0.960 . S
H598 C611 0.961 . S
H599 C611 0.959 . S
H600 C614 0.929 . S
H601 C615 0.931 . S
H602 C617 0.930 . S
C603 H591 0.930 . S
C603 C604 1.399 . S
C603 C608 1.399 . S
C604 C603 1.399 . S
C604 C605 1.376 1_556 S
C605 H592 0.930 . S
C605 C604 1.376 1_554 S
C605 C606 1.388 1_554 S
C606 H593 0.930 . S
C606 C605 1.388 1_556 S
C606 C607 1.390 . S
C607 C606 1.390 . S
C607 C608 1.394 . S
C607 C613 1.465 . S
C608 C603 1.399 . S
C608 C607 1.394 . S
C608 C609 1.516 . S
C609 C608 1.516 . S
C609 C610 1.502 . S
C609 C611 1.561 . S
C609 C612 1.526 . S
C610 H594 0.959 . S
C610 H595 0.959 . S
C610 H596 0.961 . S
C610 C609 1.502 . S
C611 H597 0.960 . S
C611 H598 0.961 . S
C611 H599 0.959 . S
C611 C609 1.561 . S
C612 C609 1.526 . S
C612 C613 1.396 . S
C612 C617 1.390 . S
C613 C607 1.465 . S
C613 C612 1.396 . S
C613 C614 1.399 . S
C614 H600 0.929 . S
C614 C613 1.399 . S
C614 C615 1.385 . S
C615 H601 0.931 . S
C615 C614 1.385 . S
C615 C616 1.389 . S
C616 C615 1.389 . S
C616 C617 1.387 . S
C617 H602 0.930 . S
C617 C612 1.390 . S
C617 C616 1.387 . S
H618 C630 0.930 1_455 S
H619 C632 0.930 . S
H620 C633 0.930 . S
H621 C637 0.959 . S
H622 C637 0.959 . S
H623 C637 0.961 . S
H624 C638 0.960 . S
H625 C638 0.961 . S
H626 C638 0.959 . S
H627 C641 0.929 . S
H628 C642 0.931 . S
H629 C644 0.930 . S
C630 H618 0.930 1_655 S
C630 C631 1.399 . S
C630 C635 1.399 . S
C631 C630 1.399 . S
C631 C632 1.376 . S
C632 H619 0.930 . S
C632 C631 1.376 . S
C632 C633 1.388 . S
C633 H620 0.930 . S
C633 C632 1.388 . S
C633 C634 1.390 . S
C634 C633 1.390 . S
C634 C635 1.394 . S
C634 C640 1.465 . S
C635 C630 1.399 . S
C635 C634 1.394 . S
C635 C636 1.516 1_655 S
C636 C635 1.516 1_455 S
C636 C637 1.502 . S
C636 C638 1.561 . S
C636 C639 1.526 . S
C637 H621 0.959 . S
C637 H622 0.959 . S
C637 H623 0.961 . S
C637 C636 1.502 . S
C638 H624 0.960 . S
C638 H625 0.961 . S
C638 H626 0.959 . S
C638 C636 1.561 . S
C639 C636 1.526 . S
C639 C640 1.396 1_455 S
C639 C644 1.390 . S
C640 C634 1.465 . S
C640 C639 1.396 1_655 S
C640 C641 1.399 . S
C641 H627 0.929 . S
C641 C640 1.399 . S
C641 C642 1.385 . S
C642 H628 0.931 . S
C642 C641 1.385 . S
C642 C643 1.389 . S
C643 C642 1.389 . S
C643 C644 1.387 1_655 S
C644 H629 0.930 . S
C644 C639 1.390 . S
C644 C643 1.387 1_455 S
H645 C657 0.930 1_545 S
H646 C659 0.930 . S
H647 C660 0.930 . S
H648 C664 0.959 . S
H649 C664 0.959 . S
H650 C664 0.961 . S
H651 C665 0.960 . S
H652 C665 0.961 . S
H653 C665 0.959 . S
H654 C668 0.929 . S
H655 C669 0.931 . S
H656 C671 0.930 . S
C657 H645 0.930 1_565 S
C657 C658 1.399 . S
C657 C662 1.399 . S
C658 C657 1.399 . S
C658 C659 1.376 . S
C659 H646 0.930 . S
C659 C658 1.376 . S
C659 C660 1.388 . S
C660 H647 0.930 . S
C660 C659 1.388 . S
C660 C661 1.390 . S
C661 C660 1.390 . S
C661 C662 1.394 . S
C661 C667 1.465 . S
C662 C657 1.399 . S
C662 C661 1.394 . S
C662 C663 1.516 1_565 S
C663 C662 1.516 1_545 S
C663 C664 1.502 . S
C663 C665 1.561 . S
C663 C666 1.526 . S
C664 H648 0.959 . S
C664 H649 0.959 . S
C664 H650 0.961 . S
C664 C663 1.502 . S
C665 H651 0.960 . S
C665 H652 0.961 . S
C665 H653 0.959 . S
C665 C663 1.561 . S
C666 C663 1.526 . S
C666 C667 1.396 1_545 S
C666 C671 1.390 . S
C667 C661 1.465 . S
C667 C666 1.396 1_565 S
C667 C668 1.399 . S
C668 H654 0.929 . S
C668 C667 1.399 . S
C668 C669 1.385 . S
C669 H655 0.931 . S
C669 C668 1.385 . S
C669 C670 1.389 . S
C670 C669 1.389 . S
C670 C671 1.387 1_565 S
C671 H656 0.930 . S
C671 C666 1.390 . S
C671 C670 1.387 1_545 S
H672 C684 0.930 1_554 S
H673 C686 0.930 . S
H674 C687 0.930 . S
H675 C691 0.959 . S
H676 C691 0.959 . S
H677 C691 0.912 1_554 S
H678 C692 0.960 1_554 S
H679 C692 0.961 . S
H680 C692 0.959 . S
H681 C695 0.929 . S
H682 C696 0.931 . S
H683 C698 0.930 . S
C684 H672 0.930 1_556 S
C684 C685 1.399 . S
C684 C689 1.399 . S
C685 C684 1.399 . S
C685 C686 1.376 . S
C686 H673 0.930 . S
C686 C685 1.376 . S
C686 C687 1.388 . S
C687 H674 0.930 . S
C687 C686 1.388 . S
C687 C688 1.390 . S
C688 C687 1.390 . S
C688 C689 1.394 . S
C688 C694 1.465 . S
C689 C684 1.399 . S
C689 C688 1.394 . S
C689 C690 1.516 . S
C690 C689 1.516 . S
C690 C691 1.502 . S
C690 C692 1.561 . S
C690 C693 1.526 . S
C691 H675 0.959 . S
C691 H676 0.959 . S
C691 H677 0.912 1_556 S
C691 C690 1.502 . S
C692 H678 0.960 1_556 S
C692 H679 0.961 . S
C692 H680 0.959 . S
C692 C690 1.561 . S
C693 C690 1.526 . S
C693 C694 1.396 . S
C693 C698 1.390 . S
C694 C688 1.465 . S
C694 C693 1.396 . S
C694 C695 1.399 . S
C695 H681 0.929 . S
C695 C694 1.399 . S
C695 C696 1.385 . S
C696 H682 0.931 . S
C696 C695 1.385 . S
C696 C697 1.389 . S
C697 C696 1.389 . S
C697 C698 1.387 . S
C698 H683 0.930 . S
C698 C693 1.390 . S
C698 C697 1.387 . S
H699 C711 0.930 . S
H700 C713 0.930 . S
H701 C714 0.930 . S
H702 C718 0.959 . S
H703 C718 0.959 . S
H704 C718 0.961 . S
H705 C719 0.960 . S
H706 C719 0.961 . S
H707 C719 0.959 . S
H708 C722 0.929 . S
H709 C723 0.915 1_655 S
H710 C725 0.930 . S
C711 H699 0.930 . S
C711 C712 1.399 . S
C711 C716 1.399 . S
C712 C711 1.399 . S
C712 C713 1.376 . S
C713 H700 0.930 . S
C713 C712 1.376 . S
C713 C714 1.388 . S
C714 H701 0.930 . S
C714 C713 1.388 . S
C714 C715 1.390 . S
C715 C714 1.390 . S
C715 C716 1.394 . S
C715 C721 1.465 . S
C716 C711 1.399 . S
C716 C715 1.394 . S
C716 C717 1.516 . S
C717 C716 1.516 . S
C717 C718 1.502 . S
C717 C719 1.561 1_455 S
C717 C720 1.526 . S
C718 H702 0.959 . S
C718 H703 0.959 . S
C718 H704 0.961 . S
C718 C717 1.502 . S
C719 H705 0.960 . S
C719 H706 0.961 . S
C719 H707 0.959 . S
C719 C717 1.561 1_655 S
C720 C717 1.526 . S
C720 C721 1.396 . S
C720 C725 1.390 . S
C721 C715 1.465 . S
C721 C720 1.396 . S
C721 C722 1.399 . S
C722 H708 0.929 . S
C722 C721 1.399 . S
C722 C723 1.396 . S
C723 H709 0.915 1_455 S
C723 C722 1.396 . S
C723 C724 1.395 . S
C724 C723 1.395 . S
C724 C725 1.387 . S
C725 H710 0.930 . S
C725 C720 1.390 . S
C725 C724 1.387 . S
C427 C272 1.433 . S
C415 C29 1.456 . S
C442 C137 1.460 . S
C454 C311 1.434 . S
C469 C225 1.415 . S
C481 C378 1.463 . S
C496 C49 1.418 . S
C508 C279 1.470 1_455 S
C535 C332 1.452 1_545 S
C523 C117 1.436 . S
C550 C205 1.424 . S
C562 C357 1.449 . S
C589 C318 1.434 . S
C577 C233 1.456 . S
C604 C57 1.408 1_556 S
C616 C371 1.466 . S
C643 C286 1.447 1_655 S
C631 C108 1.453 . S
C670 C325 1.447 1_565 S
C658 C196 1.449 . S
C697 C364 1.436 . S
C685 C20 1.452 1_556 S
C712 C145 1.420 . S
C724 C265 1.451 . S
