# Generated by pormake.
# Topology ptr, (4,4)-cn, num edge types: 1
# Building blocks:
#     Node 0, Type 0, BuildingBlock: GALJAG_clean_sbu_0, # of connection points: 4
#     Node 1, Type 0, BuildingBlock: GALJAG_clean_sbu_0, # of connection points: 4
#     Node 2, Type 0, BuildingBlock: GALJAG_clean_sbu_0, # of connection points: 4
#     Node 3, Type 0, BuildingBlock: GALJAG_clean_sbu_0, # of connection points: 4
#     Node 4, Type 0, BuildingBlock: GALJAG_clean_sbu_0, # of connection points: 4
#     Node 5, Type 0, BuildingBlock: GALJAG_clean_sbu_0, # of connection points: 4
#     Node 6, Type 0, BuildingBlock: GALJAG_clean_sbu_0, # of connection points: 4
#     Node 7, Type 0, BuildingBlock: GALJAG_clean_sbu_0, # of connection points: 4
#     Node 8, Type 0, BuildingBlock: GALJAG_clean_sbu_0, # of connection points: 4
#     Node 9, Type 0, BuildingBlock: GALJAG_clean_sbu_0, # of connection points: 4
#     Node 10, Type 0, BuildingBlock: GALJAG_clean_sbu_0, # of connection points: 4
#     Node 11, Type 0, BuildingBlock: GALJAG_clean_sbu_0, # of connection points: 4
#     Node 12, Type 0, BuildingBlock: GALJAG_clean_sbu_0, # of connection points: 4
#     Node 13, Type 0, BuildingBlock: GALJAG_clean_sbu_0, # of connection points: 4
#     Node 14, Type 0, BuildingBlock: GALJAG_clean_sbu_0, # of connection points: 4
#     Node 15, Type 0, BuildingBlock: GALJAG_clean_sbu_0, # of connection points: 4
#     Node 16, Type 0, BuildingBlock: GALJAG_clean_sbu_0, # of connection points: 4
#     Node 17, Type 0, BuildingBlock: GALJAG_clean_sbu_0, # of connection points: 4
#     Node 18, Type 1, BuildingBlock: KUFVIS_clean_linker_0, # of connection points: 4
#     Node 19, Type 1, BuildingBlock: KUFVIS_clean_linker_0, # of connection points: 4
#     Node 20, Type 1, BuildingBlock: KUFVIS_clean_linker_0, # of connection points: 4
#     Node 21, Type 1, BuildingBlock: KUFVIS_clean_linker_0, # of connection points: 4
#     Node 22, Type 1, BuildingBlock: KUFVIS_clean_linker_0, # of connection points: 4
#     Node 23, Type 1, BuildingBlock: KUFVIS_clean_linker_0, # of connection points: 4
#     Node 24, Type 1, BuildingBlock: KUFVIS_clean_linker_0, # of connection points: 4
#     Node 25, Type 1, BuildingBlock: KUFVIS_clean_linker_0, # of connection points: 4
#     Node 26, Type 1, BuildingBlock: KUFVIS_clean_linker_0, # of connection points: 4
#     Node 27, Type 1, BuildingBlock: KUFVIS_clean_linker_0, # of connection points: 4
#     Node 28, Type 1, BuildingBlock: KUFVIS_clean_linker_0, # of connection points: 4
#     Node 29, Type 1, BuildingBlock: KUFVIS_clean_linker_0, # of connection points: 4
#     Node 30, Type 1, BuildingBlock: KUFVIS_clean_linker_0, # of connection points: 4
#     Node 31, Type 1, BuildingBlock: KUFVIS_clean_linker_0, # of connection points: 4
#     Node 32, Type 1, BuildingBlock: KUFVIS_clean_linker_0, # of connection points: 4
#     Node 33, Type 1, BuildingBlock: KUFVIS_clean_linker_0, # of connection points: 4
#     Node 34, Type 1, BuildingBlock: KUFVIS_clean_linker_0, # of connection points: 4
#     Node 35, Type 1, BuildingBlock: KUFVIS_clean_linker_0, # of connection points: 4
#     Edge 36, Type (0, 1), BuildingBlock: ZUJKAS_clean_linker_0, # of connection points: 2
#     Edge 37, Type (0, 1), BuildingBlock: ZUJKAS_clean_linker_0, # of connection points: 2
#     Edge 38, Type (0, 1), BuildingBlock: ZUJKAS_clean_linker_0, # of connection points: 2
#     Edge 39, Type (0, 1), BuildingBlock: ZUJKAS_clean_linker_0, # of connection points: 2
#     Edge 40, Type (0, 1), BuildingBlock: ZUJKAS_clean_linker_0, # of connection points: 2
#     Edge 41, Type (0, 1), BuildingBlock: ZUJKAS_clean_linker_0, # of connection points: 2
#     Edge 42, Type (0, 1), BuildingBlock: ZUJKAS_clean_linker_0, # of connection points: 2
#     Edge 43, Type (0, 1), BuildingBlock: ZUJKAS_clean_linker_0, # of connection points: 2
#     Edge 44, Type (0, 1), BuildingBlock: ZUJKAS_clean_linker_0, # of connection points: 2
#     Edge 45, Type (0, 1), BuildingBlock: ZUJKAS_clean_linker_0, # of connection points: 2
#     Edge 46, Type (0, 1), BuildingBlock: ZUJKAS_clean_linker_0, # of connection points: 2
#     Edge 47, Type (0, 1), BuildingBlock: ZUJKAS_clean_linker_0, # of connection points: 2
#     Edge 48, Type (0, 1), BuildingBlock: ZUJKAS_clean_linker_0, # of connection points: 2
#     Edge 49, Type (0, 1), BuildingBlock: ZUJKAS_clean_linker_0, # of connection points: 2
#     Edge 50, Type (0, 1), BuildingBlock: ZUJKAS_clean_linker_0, # of connection points: 2
#     Edge 51, Type (0, 1), BuildingBlock: ZUJKAS_clean_linker_0, # of connection points: 2
#     Edge 52, Type (0, 1), BuildingBlock: ZUJKAS_clean_linker_0, # of connection points: 2
#     Edge 53, Type (0, 1), BuildingBlock: ZUJKAS_clean_linker_0, # of connection points: 2
#     Edge 54, Type (0, 1), BuildingBlock: ZUJKAS_clean_linker_0, # of connection points: 2
#     Edge 55, Type (0, 1), BuildingBlock: ZUJKAS_clean_linker_0, # of connection points: 2
#     Edge 56, Type (0, 1), BuildingBlock: ZUJKAS_clean_linker_0, # of connection points: 2
#     Edge 57, Type (0, 1), BuildingBlock: ZUJKAS_clean_linker_0, # of connection points: 2
#     Edge 58, Type (0, 1), BuildingBlock: ZUJKAS_clean_linker_0, # of connection points: 2
#     Edge 59, Type (0, 1), BuildingBlock: ZUJKAS_clean_linker_0, # of connection points: 2
#     Edge 60, Type (0, 1), BuildingBlock: ZUJKAS_clean_linker_0, # of connection points: 2
#     Edge 61, Type (0, 1), BuildingBlock: ZUJKAS_clean_linker_0, # of connection points: 2
#     Edge 62, Type (0, 1), BuildingBlock: ZUJKAS_clean_linker_0, # of connection points: 2
#     Edge 63, Type (0, 1), BuildingBlock: ZUJKAS_clean_linker_0, # of connection points: 2
#     Edge 64, Type (0, 1), BuildingBlock: ZUJKAS_clean_linker_0, # of connection points: 2
#     Edge 65, Type (0, 1), BuildingBlock: ZUJKAS_clean_linker_0, # of connection points: 2
#     Edge 66, Type (0, 1), BuildingBlock: ZUJKAS_clean_linker_0, # of connection points: 2
#     Edge 67, Type (0, 1), BuildingBlock: ZUJKAS_clean_linker_0, # of connection points: 2
#     Edge 68, Type (0, 1), BuildingBlock: ZUJKAS_clean_linker_0, # of connection points: 2
#     Edge 69, Type (0, 1), BuildingBlock: ZUJKAS_clean_linker_0, # of connection points: 2
#     Edge 70, Type (0, 1), BuildingBlock: ZUJKAS_clean_linker_0, # of connection points: 2
#     Edge 71, Type (0, 1), BuildingBlock: ZUJKAS_clean_linker_0, # of connection points: 2
#     Edge 72, Type (0, 1), BuildingBlock: ZUJKAS_clean_linker_0, # of connection points: 2
#     Edge 73, Type (0, 1), BuildingBlock: ZUJKAS_clean_linker_0, # of connection points: 2
#     Edge 74, Type (0, 1), BuildingBlock: ZUJKAS_clean_linker_0, # of connection points: 2
#     Edge 75, Type (0, 1), BuildingBlock: ZUJKAS_clean_linker_0, # of connection points: 2
#     Edge 76, Type (0, 1), BuildingBlock: ZUJKAS_clean_linker_0, # of connection points: 2
#     Edge 77, Type (0, 1), BuildingBlock: ZUJKAS_clean_linker_0, # of connection points: 2
#     Edge 78, Type (0, 1), BuildingBlock: ZUJKAS_clean_linker_0, # of connection points: 2
#     Edge 79, Type (0, 1), BuildingBlock: ZUJKAS_clean_linker_0, # of connection points: 2
#     Edge 80, Type (0, 1), BuildingBlock: ZUJKAS_clean_linker_0, # of connection points: 2
#     Edge 81, Type (0, 1), BuildingBlock: ZUJKAS_clean_linker_0, # of connection points: 2
#     Edge 82, Type (0, 1), BuildingBlock: ZUJKAS_clean_linker_0, # of connection points: 2
#     Edge 83, Type (0, 1), BuildingBlock: ZUJKAS_clean_linker_0, # of connection points: 2
#     Edge 84, Type (0, 1), BuildingBlock: ZUJKAS_clean_linker_0, # of connection points: 2
#     Edge 85, Type (0, 1), BuildingBlock: ZUJKAS_clean_linker_0, # of connection points: 2
#     Edge 86, Type (0, 1), BuildingBlock: ZUJKAS_clean_linker_0, # of connection points: 2
#     Edge 87, Type (0, 1), BuildingBlock: ZUJKAS_clean_linker_0, # of connection points: 2
#     Edge 88, Type (0, 1), BuildingBlock: ZUJKAS_clean_linker_0, # of connection points: 2
#     Edge 89, Type (0, 1), BuildingBlock: ZUJKAS_clean_linker_0, # of connection points: 2
#     Edge 90, Type (0, 1), BuildingBlock: ZUJKAS_clean_linker_0, # of connection points: 2
#     Edge 91, Type (0, 1), BuildingBlock: ZUJKAS_clean_linker_0, # of connection points: 2
#     Edge 92, Type (0, 1), BuildingBlock: ZUJKAS_clean_linker_0, # of connection points: 2
#     Edge 93, Type (0, 1), BuildingBlock: ZUJKAS_clean_linker_0, # of connection points: 2
#     Edge 94, Type (0, 1), BuildingBlock: ZUJKAS_clean_linker_0, # of connection points: 2
#     Edge 95, Type (0, 1), BuildingBlock: ZUJKAS_clean_linker_0, # of connection points: 2
#     Edge 96, Type (0, 1), BuildingBlock: ZUJKAS_clean_linker_0, # of connection points: 2
#     Edge 97, Type (0, 1), BuildingBlock: ZUJKAS_clean_linker_0, # of connection points: 2
#     Edge 98, Type (0, 1), BuildingBlock: ZUJKAS_clean_linker_0, # of connection points: 2
#     Edge 99, Type (0, 1), BuildingBlock: ZUJKAS_clean_linker_0, # of connection points: 2
#     Edge 100, Type (0, 1), BuildingBlock: ZUJKAS_clean_linker_0, # of connection points: 2
#     Edge 101, Type (0, 1), BuildingBlock: ZUJKAS_clean_linker_0, # of connection points: 2
#     Edge 102, Type (0, 1), BuildingBlock: ZUJKAS_clean_linker_0, # of connection points: 2
#     Edge 103, Type (0, 1), BuildingBlock: ZUJKAS_clean_linker_0, # of connection points: 2
#     Edge 104, Type (0, 1), BuildingBlock: ZUJKAS_clean_linker_0, # of connection points: 2
#     Edge 105, Type (0, 1), BuildingBlock: ZUJKAS_clean_linker_0, # of connection points: 2
#     Edge 106, Type (0, 1), BuildingBlock: ZUJKAS_clean_linker_0, # of connection points: 2
#     Edge 107, Type (0, 1), BuildingBlock: ZUJKAS_clean_linker_0, # of connection points: 2
# Relax obj value: 0.068
# Max RMSD: 0.101
# Mean RMSD: 0.096
data_MOF--net-ptr--node1-GALJAG_clean_sbu_0--node2-KUFVIS_clean_linker_0--edge1-ZUJKAS_clean_linker_0
_symmetry_space_group_name_H-M    P1
_symmetry_Int_Tables_number       1
_symmetry_cell_setting            triclinic
loop_
_symmetry_equiv_pos_as_xyz
'x, y, z'
_cell_length_a     100.0755
_cell_length_b     100.14391
_cell_length_c     66.35355
_cell_angle_alpha  89.915943
_cell_angle_beta   90.07196
_cell_angle_gamma 120.12308
loop_
_atom_site_label
_atom_site_type_symbol
_atom_site_fract_x
_atom_site_fract_y
_atom_site_fract_z
_atom_type_partial_charge
In0 In 0.01341 0.36893 0.01387 0.0
O1 O 1.00258 0.37244 0.04223 0.0
O2 O 0.02324 0.3916 0.0312 0.0
C3 C 0.99008 0.34015 0.00451 0.0
C4 C 0.03798 0.36553 0.0237 0.0
C5 C 0.01227 0.38622 0.98324 0.0
O6 O 0.99048 0.3469 0.0207 0.0
O7 O 1.00159 0.34775 0.99318 0.0
O8 O 0.02368 0.3843 0.98603 0.0
O9 O 1.00136 0.37918 0.99562 0.0
C10 C 0.01264 0.38651 0.04423 0.0
O11 O 0.03702 0.3712 0.00715 0.0
O12 O 0.02648 0.36136 0.0351 0.0
In13 In 0.65784 0.65618 0.01503 0.0
O14 O 0.65216 0.64022 0.04234 0.0
O15 O 0.63546 0.64615 0.03303 0.0
C16 C 0.68585 0.65956 0.00587 0.0
C17 C 0.66427 0.68525 0.0242 0.0
C18 C 0.63906 0.63838 0.98503 0.0
O19 O 0.67948 0.65468 0.02278 0.0
O20 O 0.67822 0.66288 0.9938 0.0
O21 O 0.6421 0.6521 0.98784 0.0
O22 O 0.64575 0.63385 0.99702 0.0
C23 C 0.63894 0.63863 0.04511 0.0
O24 O 0.65985 0.67944 0.00692 0.0
O25 O 0.66564 0.67651 0.03669 0.0
In26 In 0.37365 0.01217 0.01346 0.0
O27 O 0.37721 0.03649 0.018 0.0
O28 O 0.36167 0.02265 0.99513 0.0
C29 C 0.39226 0.0128 0.04353 0.0
C30 C 0.39064 0.01197 0.98184 0.0
C31 C 0.34596 0.98795 0.02481 0.0
O32 O 0.38787 0.0226 0.04216 0.0
O33 O 0.38699 1.00255 0.03004 0.0
O34 O 0.35199 0.98865 0.00789 0.0
O35 O 0.35378 0.99953 0.03593 0.0
C36 C 0.36808 0.03543 0.00419 0.0
O37 O 0.37708 1.00112 0.9852 0.0
O38 O 0.39544 0.02307 0.99406 0.0
In39 In 0.01799 0.657 0.01233 0.0
O40 O 0.02956 0.65327 0.98479 0.0
O41 O 1.00711 0.63535 0.99276 0.0
C42 C 0.04088 0.68564 0.02268 0.0
C43 C 0.99396 0.6614 0.00336 0.0
C44 C 0.01951 0.63966 0.0426 0.0
O45 O 0.04 0.67991 0.00547 0.0
O46 O 0.03019 0.67698 0.03461 0.0
O47 O 1.0087 0.64269 0.04126 0.0
O48 O 0.02962 0.64564 0.02898 0.0
C49 C 0.0185 0.63988 0.98108 0.0
O50 O 0.99315 0.65218 0.01692 0.0
O51 O 1.00681 0.66837 0.99448 0.0
In52 In 0.3749 0.36844 0.01477 0.0
O53 O 0.37974 0.38107 0.98435 0.0
O54 O 0.39866 0.38234 0.00055 0.0
C55 C 0.3461 0.36331 0.02322 0.0
C56 C 0.37142 0.34078 0.00394 0.0
C57 C 0.39101 0.38533 0.04703 0.0
O58 O 0.35506 0.3736 0.01104 0.0
O59 O 0.35159 0.35557 0.03093 0.0
O60 O 0.38796 0.37159 0.04441 0.0
O61 O 0.38554 0.39029 0.03377 0.0
C62 C 0.39415 0.38633 0.98514 0.0
O63 O 0.37757 0.3473 0.02039 0.0
O64 O 0.3669 0.34812 0.99311 0.0
In65 In 0.65755 0.01171 0.01374 0.0
O66 O 0.65251 0.01949 0.04398 0.0
O67 O 0.63379 1.00127 0.02813 0.0
C68 C 0.68647 0.03509 0.0051 0.0
C69 C 0.66111 0.9873 0.02329 0.0
C70 C 0.64152 0.01413 0.98255 0.0
O71 O 0.6789 0.03548 0.02007 0.0
O72 O 0.67956 0.02291 0.99478 0.0
O73 O 0.64331 1.00258 0.98485 0.0
O74 O 0.64811 0.02453 0.9957 0.0
C75 C 0.63817 0.00991 0.0434 0.0
O76 O 0.65535 0.9882 0.00677 0.0
O77 O 0.66524 0.99875 0.03475 0.0
In78 In 0.67932 0.70158 0.35005 0.0
O79 O 0.66922 0.70482 0.37939 0.0
O80 O 0.68792 0.72464 0.36595 0.0
C81 C 0.6568 0.67223 0.3416 0.0
C82 C 0.70438 0.69922 0.36019 0.0
C83 C 0.67742 0.71787 0.31866 0.0
O84 O 0.65561 0.68016 0.35547 0.0
O85 O 0.66942 0.67901 0.33211 0.0
O86 O 0.68966 0.71773 0.32285 0.0
O87 O 0.66611 0.70948 0.3299 0.0
C88 C 0.6782 0.71925 0.38007 0.0
O89 O 0.70287 0.70388 0.34312 0.0
O90 O 0.6932 0.6956 0.37201 0.0
In91 In 0.32425 0.9906 0.34725 0.0
O92 O 0.31878 0.97456 0.37455 0.0
O93 O 0.30334 0.98264 0.36783 0.0
C94 C 0.35172 0.99329 0.33656 0.0
C95 C 0.33099 0.01992 0.35545 0.0
C96 C 0.30532 0.97291 0.31722 0.0
O97 O 0.34563 0.98834 0.3536 0.0
O98 O 0.34408 0.99703 0.32508 0.0
O99 O 0.31063 0.98729 0.31811 0.0
O100 O 0.30982 0.96755 0.33118 0.0
C101 C 0.30642 0.97435 0.37899 0.0
O102 O 0.32146 0.01168 0.34206 0.0
O103 O 0.33727 0.01345 0.36465 0.0
In104 In 0.04297 0.34654 0.34627 0.0
O105 O 0.04676 0.37095 0.35024 0.0
O106 O 0.03254 0.3576 0.32602 0.0
C107 C 0.06085 0.34749 0.37752 0.0
C108 C 0.06023 0.34617 0.3151 0.0
C109 C 0.01511 0.32239 0.35745 0.0
O110 O 0.05652 0.35727 0.37533 0.0
O111 O 0.05589 0.33709 0.36423 0.0
O112 O 0.02281 0.32173 0.34287 0.0
O113 O 0.02131 0.3353 0.36622 0.0
C114 C 0.03866 0.3703 0.3353 0.0
O115 O 0.04603 0.3364 0.31683 0.0
O116 O 0.06557 0.35626 0.32877 0.0
In117 In 0.68451 0.99055 0.34636 0.0
O118 O 0.69527 0.98665 0.31808 0.0
O119 O 0.67436 0.96785 0.32919 0.0
C120 C 0.70743 0.01935 0.35618 0.0
C121 C 0.66054 0.99487 0.33662 0.0
C122 C 0.68594 0.97323 0.3767 0.0
O123 O 0.70736 0.01282 0.33989 0.0
O124 O 0.69588 0.01146 0.36732 0.0
O125 O 0.67392 0.97396 0.3731 0.0
O126 O 0.69723 0.98148 0.36534 0.0
C127 C 0.68498 0.97263 0.31622 0.0
O128 O 0.66145 0.98944 0.3534 0.0
O129 O 0.67169 0.99817 0.32491 0.0
In130 In 0.04039 0.70123 0.35068 0.0
O131 O 0.04519 0.71381 0.32015 0.0
O132 O 0.06427 0.71666 0.33754 0.0
C133 C 0.01167 0.69642 0.35865 0.0
C134 C 0.03602 0.67323 0.33977 0.0
C135 C 0.05698 0.71707 0.38329 0.0
O136 O 0.02105 0.70714 0.34726 0.0
O137 O 0.01672 0.68812 0.3658 0.0
O138 O 0.05674 0.70505 0.37699 0.0
O139 O 0.04844 0.72073 0.37359 0.0
C140 C 0.0597 0.72007 0.3217 0.0
O141 O 0.03955 0.67836 0.35752 0.0
O142 O 0.03461 0.68216 0.32764 0.0
In143 In 0.32323 0.3456 0.34579 0.0
O144 O 0.32193 0.32264 0.3376 0.0
O145 O 0.33088 0.33231 0.36627 0.0
C146 C 0.30761 0.34888 0.31473 0.0
C147 C 0.30335 0.34305 0.37517 0.0
C148 C 0.35202 0.36959 0.3383 0.0
O149 O 0.30868 0.33691 0.317 0.0
O150 O 0.31462 0.35919 0.32787 0.0
O151 O 0.34441 0.36903 0.35377 0.0
O152 O 0.34525 0.35796 0.32695 0.0
C153 C 0.32735 0.32133 0.35419 0.0
O154 O 0.31761 0.35285 0.376 0.0
O155 O 0.29927 0.33452 0.3598 0.0
In156 In 0.35121 0.03737 0.67721 0.0
O157 O 0.37434 0.03901 0.66944 0.0
O158 O 0.36396 0.02902 0.69751 0.0
C159 C 0.34886 0.05428 0.64704 0.0
C160 C 0.35255 0.05599 0.70757 0.0
C161 C 0.32819 0.00834 0.66866 0.0
O162 O 0.36076 0.05313 0.64952 0.0
O163 O 0.33814 0.04668 0.65945 0.0
O164 O 0.32883 0.01499 0.68509 0.0
O165 O 0.33923 0.01624 0.65677 0.0
C166 C 0.37525 0.03302 0.68575 0.0
O167 O 0.34094 0.04275 0.70479 0.0
O168 O 0.36348 0.05962 0.69534 0.0
In169 In 0.99251 0.32252 0.68284 0.0
O170 O 0.99461 0.3459 0.67519 0.0
O171 O 0.99917 0.3423 0.70525 0.0
C172 C 0.97385 0.30566 0.65212 0.0
C173 C 0.97525 0.30322 0.7129 0.0
C174 C 0.02063 0.32661 0.67285 0.0
O175 O 0.97332 0.3169 0.65983 0.0
O176 O 0.98396 0.30314 0.65962 0.0
O177 O 0.01355 0.31968 0.68867 0.0
O178 O 0.01367 0.33171 0.66227 0.0
C179 C 0.99825 0.3513 0.69276 0.0
O180 O 0.98942 0.3077 0.71078 0.0
O181 O 0.96994 0.30872 0.70018 0.0
In182 In 0.70798 0.6801 0.6804 0.0
O183 O 0.70976 0.70349 0.68664 0.0
O184 O 0.69959 0.69246 0.65907 0.0
C185 C 0.72662 0.68112 0.71071 0.0
C186 C 0.72505 0.67868 0.64974 0.0
C187 C 0.67954 0.65646 0.6908 0.0
O188 O 0.72314 0.69149 0.70809 0.0
O189 O 0.72046 0.67011 0.69832 0.0
O190 O 0.68558 0.65737 0.67384 0.0
O191 O 0.68769 0.66757 0.70243 0.0
C192 C 0.7037 0.70405 0.67025 0.0
O193 O 0.71153 0.66792 0.65357 0.0
O194 O 0.72985 0.69029 0.6611 0.0
In195 In 0.35058 0.32222 0.68138 0.0
O196 O 0.3637 0.31682 0.65749 0.0
O197 O 0.33922 0.30364 0.65714 0.0
C198 C 0.37436 0.35031 0.69217 0.0
C199 C 0.32762 0.32811 0.67195 0.0
C200 C 0.34849 0.30288 0.71139 0.0
O201 O 0.37271 0.34504 0.67452 0.0
O202 O 0.36401 0.34144 0.70437 0.0
O203 O 0.33967 0.30849 0.71044 0.0
O204 O 0.35842 0.30727 0.69755 0.0
C205 C 0.35173 0.30598 0.64946 0.0
O206 O 0.3257 0.31754 0.68403 0.0
O207 O 0.34108 0.33571 0.66477 0.0
In208 In 0.70472 0.03505 0.67975 0.0
O209 O 0.71057 0.05144 0.65285 0.0
O210 O 0.72681 0.04465 0.66122 0.0
C211 C 0.67607 0.03001 0.68857 0.0
C212 C 0.69923 1.00624 0.67107 0.0
C213 C 0.72252 0.05366 0.70988 0.0
O214 O 0.68237 0.03508 0.67166 0.0
O215 O 0.68411 0.02735 0.70079 0.0
O216 O 0.72037 0.04022 0.70736 0.0
O217 O 0.71549 0.05752 0.69749 0.0
C218 C 0.72355 0.0526 0.6496 0.0
O219 O 0.70451 0.01263 0.68788 0.0
O220 O 0.6966 0.01429 0.65882 0.0
In221 In 0.99078 0.67986 0.68123 0.0
O222 O 0.98907 0.65663 0.6739 0.0
O223 O 0.99996 0.66767 0.70127 0.0
C224 C 0.97382 0.68201 0.65096 0.0
C225 C 0.97182 0.67771 0.71165 0.0
C226 C 0.01943 0.70359 0.67246 0.0
O227 O 0.9757 0.67051 0.65291 0.0
O228 O 0.98066 0.69241 0.66401 0.0
O229 O 0.01272 0.70273 0.68892 0.0
O230 O 0.01186 0.69236 0.66071 0.0
C231 C 0.99558 0.65609 0.68996 0.0
O232 O 0.98508 0.6894 0.70933 0.0
O233 O 0.96832 0.66715 0.69888 0.0
H234 H 0.23452 0.35702 0.13649 0.0
H235 H 0.1941 0.34788 0.10325 0.0
H236 H 0.1978 0.35859 0.16711 0.0
H237 H 0.17286 0.34335 0.16669 0.0
H238 H 0.13564 0.34417 0.13625 0.0
H239 H 0.17727 0.35671 0.10375 0.0
C240 C 0.22328 0.35618 0.13611 0.0
C241 C 0.21689 0.35795 0.15389 0.0
C242 C 0.21523 0.35282 0.11789 0.0
C243 C 0.20038 0.35108 0.11736 0.0
C244 C 0.19359 0.35288 0.13515 0.0
C245 C 0.20225 0.3566 0.15329 0.0
C246 C 0.17741 0.35038 0.13517 0.0
C247 C 0.16845 0.34565 0.15304 0.0
C248 C 0.15353 0.34364 0.15361 0.0
C249 C 0.14709 0.34551 0.13589 0.0
C250 C 0.15547 0.34992 0.11788 0.0
C251 C 0.17073 0.3527 0.1176 0.0
H252 H 0.67941 0.89082 0.14306 0.0
H253 H 0.66689 0.849 0.11118 0.0
H254 H 0.68572 0.85616 0.17172 0.0
H255 H 0.67102 0.83123 0.17415 0.0
H256 H 0.66769 0.79253 0.14267 0.0
H257 H 0.67565 0.83239 0.10903 0.0
C258 C 0.67873 0.87967 0.14249 0.0
C259 C 0.68296 0.87432 0.1594 0.0
C260 C 0.67314 0.87068 0.12506 0.0
C261 C 0.6718 0.85601 0.1245 0.0
C262 C 0.67605 0.85027 0.14141 0.0
C263 C 0.6819 0.85982 0.15867 0.0
C264 C 0.67381 0.8342 0.14155 0.0
C265 C 0.67153 0.82617 0.16 0.0
C266 C 0.66948 0.81124 0.16048 0.0
C267 C 0.66904 0.80398 0.14236 0.0
C268 C 0.67088 0.81137 0.12382 0.0
C269 C 0.67368 0.82662 0.12344 0.0
H270 H 0.23005 0.8909 0.14376 0.0
H271 H 0.20098 0.84876 0.11222 0.0
H272 H 0.18879 0.85631 0.17219 0.0
H273 H 0.17886 0.83128 0.17484 0.0
H274 H 0.14262 0.79293 0.14337 0.0
H275 H 0.17538 0.83237 0.10978 0.0
C276 C 0.21958 0.8797 0.14322 0.0
C277 C 0.20983 0.87447 0.15995 0.0
C278 C 0.21635 0.87057 0.12598 0.0
C279 C 0.203 0.85587 0.12541 0.0
C280 C 0.19285 0.85023 0.14217 0.0
C281 C 0.19641 0.8599 0.15928 0.0
C282 C 0.17893 0.83421 0.1423 0.0
C283 C 0.17309 0.82623 0.16075 0.0
C284 C 0.15991 0.81145 0.16131 0.0
C285 C 0.15293 0.80425 0.14316 0.0
C286 C 0.15873 0.81153 0.12461 0.0
C287 C 0.17142 0.82666 0.1242 0.0
H288 H 0.3565 0.13512 0.88515 0.0
H289 H 0.3484 0.16677 0.91901 0.0
H290 H 0.35832 0.17371 0.85496 0.0
H291 H 0.34342 0.18379 0.85591 0.0
H292 H 0.34531 0.222 0.88711 0.0
H293 H 0.35769 0.19241 0.91856 0.0
C294 C 0.35574 0.14555 0.88571 0.0
C295 C 0.35751 0.15382 0.868 0.0
C296 C 0.35267 0.15028 0.90409 0.0
C297 C 0.35131 0.16359 0.90478 0.0
C298 C 0.35301 0.17223 0.88703 0.0
C299 C 0.35638 0.16722 0.86875 0.0
C300 C 0.35082 0.18607 0.88726 0.0
C301 C 0.34599 0.19047 0.86961 0.0
C302 C 0.34418 0.2035 0.86939 0.0
C303 C 0.34644 0.21177 0.88722 0.0
C304 C 0.351 0.20764 0.90499 0.0
C305 C 0.35356 0.19505 0.9049 0.0
H306 H 0.80186 0.13119 0.8882 0.0
H307 H 0.83754 0.16893 0.92133 0.0
H308 H 0.83601 0.17048 0.85601 0.0
H309 H 0.86087 0.18441 0.85799 0.0
H310 H 0.89283 0.22665 0.88675 0.0
H311 H 0.85222 0.19423 0.9188 0.0
C312 C 0.81232 0.14242 0.88832 0.0
C313 C 0.81864 0.14988 0.87008 0.0
C314 C 0.81884 0.14944 0.90673 0.0
C315 C 0.83236 0.16403 0.90692 0.0
C316 C 0.83922 0.17184 0.88862 0.0
C317 C 0.83173 0.16471 0.8703 0.0
C318 C 0.85419 0.18711 0.88838 0.0
C319 C 0.86376 0.19182 0.87102 0.0
C320 C 0.87755 0.20608 0.87035 0.0
C321 C 0.88213 0.21564 0.88724 0.0
C322 C 0.87315 0.21132 0.90474 0.0
C323 C 0.85919 0.19712 0.90532 0.0
H324 H 0.80009 0.67515 0.88871 0.0
H325 H 0.83094 0.66497 0.92131 0.0
H326 H 0.84113 0.6819 0.8598 0.0
H327 H 0.85183 0.66739 0.85849 0.0
H328 H 0.89047 0.67008 0.88972 0.0
H329 H 0.85704 0.67588 0.92293 0.0
C330 C 0.81073 0.67478 0.88932 0.0
C331 C 0.82012 0.67883 0.87225 0.0
C332 C 0.81462 0.66991 0.90702 0.0
C333 C 0.82831 0.66918 0.90771 0.0
C334 C 0.83807 0.67322 0.8906 0.0
C335 C 0.83381 0.67824 0.87301 0.0
C336 C 0.85244 0.67194 0.8907 0.0
C337 C 0.8581 0.66927 0.87247 0.0
C338 C 0.87181 0.66869 0.87203 0.0
C339 C 0.87978 0.67038 0.88998 0.0
C340 C 0.87441 0.67276 0.90829 0.0
C341 C 0.86078 0.67357 0.90871 0.0
H342 H 0.90042 0.69012 0.47265 0.0
H343 H 0.86025 0.68163 0.43937 0.0
H344 H 0.86359 0.69132 0.50351 0.0
H345 H 0.83868 0.67635 0.50286 0.0
H346 H 0.80144 0.67698 0.47228 0.0
H347 H 0.84339 0.6903 0.44011 0.0
C348 C 0.88921 0.68935 0.4723 0.0
C349 C 0.88272 0.69082 0.49018 0.0
C350 C 0.88127 0.68632 0.45403 0.0
C351 C 0.86645 0.68462 0.45353 0.0
C352 C 0.85956 0.68616 0.4714 0.0
C353 C 0.86811 0.68955 0.4896 0.0
C354 C 0.84339 0.68365 0.47142 0.0
C355 C 0.83433 0.67872 0.48921 0.0
C356 C 0.81934 0.67653 0.48965 0.0
C357 C 0.81296 0.67848 0.47195 0.0
C358 C 0.82146 0.68317 0.45405 0.0
C359 C 0.83677 0.68611 0.45388 0.0
H360 H 0.33816 0.2217 0.47267 0.0
H361 H 0.3352 0.18361 0.43946 0.0
H362 H 0.34956 0.1908 0.50214 0.0
H363 H 0.33753 0.16558 0.50304 0.0
H364 H 0.34379 0.13169 0.47242 0.0
H365 H 0.34747 0.17003 0.43892 0.0
C366 C 0.33921 0.21143 0.47214 0.0
C367 C 0.34362 0.20676 0.48951 0.0
C368 C 0.33654 0.20338 0.45399 0.0
C369 C 0.33795 0.19008 0.45338 0.0
C370 C 0.34226 0.18495 0.47086 0.0
C371 C 0.34563 0.19389 0.48866 0.0
C372 C 0.34272 0.17012 0.47098 0.0
C373 C 0.34027 0.16177 0.4892 0.0
C374 C 0.34077 0.14804 0.48975 0.0
C375 C 0.34349 0.14236 0.47198 0.0
C376 C 0.34577 0.15013 0.45366 0.0
C377 C 0.34538 0.164 0.45313 0.0
H378 H 0.90158 0.22187 0.47657 0.0
H379 H 0.86713 0.18385 0.44265 0.0
H380 H 0.8594 0.18983 0.50561 0.0
H381 H 0.84509 0.16501 0.50605 0.0
H382 H 0.80603 0.13095 0.47336 0.0
H383 H 0.84196 0.16912 0.44124 0.0
C384 C 0.8903 0.2115 0.4759 0.0
C385 C 0.8812 0.20629 0.49322 0.0
C386 C 0.88499 0.2037 0.45763 0.0
C387 C 0.87057 0.19004 0.45677 0.0
C388 C 0.86101 0.18444 0.47413 0.0
C389 C 0.86642 0.19318 0.49215 0.0
C390 C 0.84569 0.16951 0.47374 0.0
C391 C 0.83908 0.16119 0.49182 0.0
C392 C 0.82477 0.14741 0.49177 0.0
C393 C 0.81707 0.14163 0.47351 0.0
C394 C 0.82339 0.14928 0.45538 0.0
C395 C 0.83758 0.16323 0.45545 0.0
H396 H 0.01475 0.46563 0.22091 0.0
H397 H 0.02603 0.50731 0.25217 0.0
H398 H 1.01008 0.50047 0.19007 0.0
H399 H 0.02153 0.5252 0.1886 0.0
H400 H 0.01716 0.55984 0.2204 0.0
H401 H 0.01685 0.52311 0.25377 0.0
C402 C 0.01549 0.47682 0.22101 0.0
C403 C 0.01238 0.4824 0.20341 0.0
C404 C 0.02013 0.48565 0.23859 0.0
C405 C 0.02188 0.50049 0.23857 0.0
C406 C 0.01821 0.50628 0.22114 0.0
C407 C 0.01341 0.49689 0.20363 0.0
C408 C 0.0189 0.52171 0.22117 0.0
C409 C 0.01999 0.52951 0.20281 0.0
C410 C 0.01874 0.54286 0.20243 0.0
C411 C 0.01754 0.54919 0.2206 0.0
C412 C 0.0173 0.54234 0.23905 0.0
C413 C 0.01779 0.52855 0.23935 0.0
H414 H 0.46666 0.46731 0.22225 0.0
H415 H 0.49937 0.50782 0.25431 0.0
H416 H 0.50867 0.49947 0.19313 0.0
H417 H 0.52178 0.52457 0.19125 0.0
H418 H 0.56193 0.55831 0.22243 0.0
H419 H 0.5252 0.52188 0.25617 0.0
C420 C 0.47769 0.47798 0.22274 0.0
C421 C 0.48711 0.48266 0.20569 0.0
C422 C 0.48209 0.4869 0.2403 0.0
C423 C 0.49633 0.50086 0.24081 0.0
C424 C 0.50618 0.50592 0.2237 0.0
C425 C 0.50135 0.49644 0.20629 0.0
C426 C 0.52138 0.52091 0.22371 0.0
C427 C 0.52796 0.52869 0.20532 0.0
C428 C 0.54278 0.54179 0.20476 0.0
C429 C 0.55073 0.54782 0.22279 0.0
C430 C 0.54432 0.54092 0.24133 0.0
C431 C 0.52972 0.52741 0.24179 0.0
H432 H 0.46965 0.01312 0.22105 0.0
H433 H 0.49939 1.00198 0.25445 0.0
H434 H 0.50845 0.0151 0.1914 0.0
H435 H 0.51941 1.00113 0.19151 0.0
H436 H 0.55856 1.00533 0.22327 0.0
H437 H 0.5247 0.01073 0.25569 0.0
C438 C 0.47994 0.0121 0.22163 0.0
C439 C 0.48843 0.01415 0.20406 0.0
C440 C 0.48403 0.00805 0.23983 0.0
C441 C 0.49677 1.0057 0.24042 0.0
C442 C 0.50597 0.00821 0.223 0.0
C443 C 0.5016 0.0126 0.20494 0.0
C444 C 0.52014 1.0065 0.22345 0.0
C445 C 0.5258 1.00347 0.20545 0.0
C446 C 0.53971 1.00321 0.20517 0.0
C447 C 0.54773 1.00535 0.22325 0.0
C448 C 0.54213 1.00762 0.24142 0.0
C449 C 0.52845 0.00833 0.24156 0.0
H450 H 0.56206 0.0125 0.8045 0.0
H451 H 0.52644 0.0146 0.77136 0.0
H452 H 0.52873 0.01891 0.83655 0.0
H453 H 0.50388 0.00844 0.83489 0.0
H454 H 0.47213 0.01861 0.80541 0.0
H455 H 0.51238 0.0258 0.77345 0.0
C456 C 0.55172 0.01346 0.80437 0.0
C457 C 0.54569 0.01506 0.82258 0.0
C458 C 0.54507 0.01373 0.78596 0.0
C459 C 0.53173 0.01507 0.78576 0.0
C460 C 0.5252 0.01654 0.804 0.0
C461 C 0.53279 0.01708 0.82231 0.0
C462 C 0.51043 0.01718 0.80417 0.0
C463 C 0.501 0.01277 0.82164 0.0
C464 C 0.48735 0.01345 0.82215 0.0
C465 C 0.48276 0.01819 0.80502 0.0
C466 C 0.49164 0.02247 0.78743 0.0
C467 C 0.50547 0.02202 0.78702 0.0
H468 H 0.01715 0.56049 0.80436 0.0
H469 H 1.00748 0.51933 0.77299 0.0
H470 H 0.0218 0.52585 0.83577 0.0
H471 H 1.01096 0.50123 0.83708 0.0
H472 H 0.01642 0.46706 0.80589 0.0
H473 H 0.01645 0.50341 0.77197 0.0
C474 C 0.01665 0.54942 0.80436 0.0
C475 C 0.01941 0.54378 0.82219 0.0
C476 C 0.01266 0.54076 0.78662 0.0
C477 C 1.01115 0.52601 0.78673 0.0
C478 C 0.01448 0.52017 0.80439 0.0
C479 C 0.01869 0.52942 0.82203 0.0
C480 C 0.01403 0.50483 0.80452 0.0
C481 C 0.01281 0.49706 0.82295 0.0
C482 C 0.01429 0.48385 0.82353 0.0
C483 C 0.01584 0.4776 0.80551 0.0
C484 C 0.01615 0.48436 0.78697 0.0
C485 C 0.01545 0.49804 0.78645 0.0
H486 H 0.56523 0.55773 0.80893 0.0
H487 H 0.53374 0.51738 0.77563 0.0
H488 H 0.52351 0.52378 0.83719 0.0
H489 H 0.51228 0.49841 0.83807 0.0
H490 H 0.47279 0.46388 0.80628 0.0
H491 H 0.50779 0.50255 0.77369 0.0
C492 C 0.55439 0.54687 0.80816 0.0
C493 C 0.54487 0.54154 0.82511 0.0
C494 C 0.55035 0.53832 0.79029 0.0
C495 C 0.53646 0.52406 0.78936 0.0
C496 C 0.52659 0.51831 0.80637 0.0
C497 C 0.53095 0.52743 0.82409 0.0
C498 C 0.51191 0.50287 0.80601 0.0
C499 C 0.50591 0.49438 0.8241 0.0
C500 C 0.49178 0.48039 0.82437 0.0
C501 C 0.48376 0.47462 0.80628 0.0
C502 C 0.48965 0.48236 0.78804 0.0
C503 C 0.50366 0.4965 0.78787 0.0
H504 H 0.68496 0.80125 0.55386 0.0
H505 H 0.69829 0.84355 0.58497 0.0
H506 H 0.67871 0.83582 0.52478 0.0
H507 H 0.69341 0.86075 0.5219 0.0
H508 H 0.69711 0.89975 0.55304 0.0
H509 H 0.68959 0.86022 0.58708 0.0
C510 C 0.68577 0.81247 0.55425 0.0
C511 C 0.68138 0.81768 0.53736 0.0
C512 C 0.69166 0.82166 0.57144 0.0
C513 C 0.69317 0.8364 0.5718 0.0
C514 C 0.68877 0.84202 0.55489 0.0
C515 C 0.68264 0.83227 0.53783 0.0
C516 C 0.69106 0.8581 0.55457 0.0
C517 C 0.69308 0.86596 0.53602 0.0
C518 C 0.69511 0.88087 0.53538 0.0
C519 C 0.69577 0.88832 0.55345 0.0
C520 C 0.69416 0.88109 0.57207 0.0
C521 C 0.69139 0.86585 0.57261 0.0
H522 H 0.13403 0.80148 0.55521 0.0
H523 H 0.1655 0.84272 0.58687 0.0
H524 H 0.17562 0.8348 0.52593 0.0
H525 H 0.18693 0.86033 0.52406 0.0
H526 H 0.2257 0.89609 0.55557 0.0
H527 H 0.19157 0.85711 0.58866 0.0
C528 C 0.14485 0.81238 0.55559 0.0
C529 C 0.15434 0.81723 0.53857 0.0
C530 C 0.14887 0.82141 0.57302 0.0
C531 C 0.16275 0.83567 0.57347 0.0
C532 C 0.17261 0.84098 0.55639 0.0
C533 C 0.16822 0.83143 0.53906 0.0
C534 C 0.18726 0.85643 0.55635 0.0
C535 C 0.19317 0.8647 0.53807 0.0
C536 C 0.207 0.87896 0.53772 0.0
C537 C 0.21495 0.88512 0.55574 0.0
C538 C 0.20933 0.8774 0.57404 0.0
C539 C 0.19553 0.86309 0.5744 0.0
H540 H 0.138 0.34825 0.55752 0.0
H541 H 0.1677 0.33584 0.58873 0.0
H542 H 0.17556 0.34918 0.52571 0.0
H543 H 0.18535 0.33391 0.52512 0.0
H544 H 0.2256 0.33842 0.55427 0.0
H545 H 0.19353 0.34551 0.58858 0.0
C546 C 0.1481 0.3469 0.55749 0.0
C547 C 0.15614 0.34884 0.53952 0.0
C548 C 0.15236 0.34246 0.57524 0.0
C549 C 0.16489 0.33979 0.57503 0.0
C550 C 0.17364 0.34223 0.55722 0.0
C551 C 0.16905 0.34685 0.53955 0.0
C552 C 0.18756 0.34018 0.55684 0.0
C553 C 0.19231 0.33649 0.53859 0.0
C554 C 0.20607 0.33598 0.53745 0.0
C555 C 0.21483 0.33855 0.55495 0.0
C556 C 0.21015 0.3416 0.57337 0.0
C557 C 0.1966 0.3425 0.57435 0.0
H558 H 0.99195 0.37782 0.0752 0.0
H559 H 0.99015 0.39445 0.10084 0.0
H560 H 0.02937 0.43415 0.07453 0.0
H561 H 0.03127 0.41762 0.04887 0.0
H562 H 0.01456 0.41464 0.12854 0.0
H563 H 0.9952 0.44641 0.07878 0.0
H564 H 0.99342 0.42817 0.07173 0.0
H565 H 0.01185 0.44558 0.07036 0.0
C566 C 1.00018 0.39009 0.07488 0.0
C567 C 0.01174 0.39643 0.06003 0.0
C568 C 0.99912 0.39956 0.0895 0.0
C569 C 1.00948 0.41554 0.08936 0.0
C570 C 0.0211 0.42188 0.07466 0.0
H571 H 0.0265 0.49202 0.16687 0.0
H572 H 0.02467 0.47565 0.13831 0.0
C573 C 0.02223 0.41241 0.06012 0.0
C574 C 1.0085 0.42549 0.10508 0.0
H575 H 1.0015 0.45518 0.1125 0.0
C576 C 0.0116 0.42344 0.12509 0.0
C577 C 1.00477 0.43702 0.10043 0.0
C578 C 1.001 0.43942 0.07919 0.0
C579 C 1.01137 0.43283 0.1406 0.0
C580 C 1.00748 0.44429 0.13603 0.0
C581 C 1.00437 0.44633 0.11598 0.0
C582 C 1.00696 0.45444 0.1519 0.0
C583 C 0.01577 0.43067 0.16163 0.0
C584 C 0.99708 0.44805 0.16852 0.0
C585 C 0.99817 0.45734 0.18483 0.0
C586 C 1.00899 0.47323 0.18465 0.0
C587 C 0.01802 0.47982 0.16733 0.0
C588 C 0.01703 0.47047 0.15107 0.0
H589 H 0.02238 0.42447 0.16154 0.0
H590 H 0.02283 0.44195 0.16929 0.0
H591 H 1.00512 0.42371 0.17061 0.0
H592 H 0.98894 0.43577 0.16922 0.0
H593 H 0.99097 0.45202 0.19793 0.0
H594 H 0.6439 0.62166 0.07335 0.0
H595 H 0.62551 0.60382 0.09819 0.0
H596 H 0.59092 0.61397 0.07646 0.0
H597 H 0.60934 0.63205 0.05184 0.0
H598 H 0.59236 0.61406 0.11756 0.0
H599 H 0.5892 0.56093 0.08769 0.0
H600 H 0.60859 0.57585 0.09317 0.0
H601 H 0.59781 0.57881 0.07369 0.0
C602 C 0.63238 0.6201 0.07388 0.0
C603 C 0.62805 0.62822 0.06061 0.0
C604 C 0.62184 0.6098 0.08796 0.0
C605 C 0.60673 0.60731 0.0889 0.0
C606 C 0.60248 0.61562 0.0759 0.0
H607 H 0.531 0.55082 0.17354 0.0
H608 H 0.54497 0.56581 0.14356 0.0
C609 C 0.61302 0.62595 0.06186 0.0
C610 C 0.5955 0.59637 0.10382 0.0
H611 H 0.57855 0.55909 0.12052 0.0
C612 C 0.58918 0.602 0.11806 0.0
C613 C 0.59129 0.5806 0.10437 0.0
C614 C 0.59695 0.57363 0.08879 0.0
C615 C 0.57929 0.59245 0.13336 0.0
C616 C 0.57549 0.57682 0.13429 0.0
C617 C 0.58149 0.57108 0.11975 0.0
C618 C 0.56641 0.56664 0.15122 0.0
C619 C 0.57349 0.5993 0.14893 0.0
C620 C 0.57366 0.56171 0.165 0.0
C621 C 0.56575 0.55318 0.18198 0.0
C622 C 0.55036 0.54932 0.18548 0.0
C623 C 0.54284 0.55363 0.17119 0.0
C624 C 0.55083 0.56228 0.15418 0.0
H625 H 0.57951 0.6121 0.14799 0.0
H626 H 0.56096 0.59475 0.14656 0.0
H627 H 0.57505 0.59596 0.16435 0.0
H628 H 0.58564 0.56487 0.16293 0.0
H629 H 0.57177 0.54984 0.19262 0.0
H630 H 0.40462 0.03324 0.07478 0.0
H631 H 0.42316 0.03473 0.1001 0.0
H632 H 0.42342 0.99588 0.07256 0.0
H633 H 0.40468 0.99413 0.04748 0.0
H634 H 0.42058 0.99314 0.11335 0.0
H635 H 0.46911 0.05107 0.09322 0.0
H636 H 0.45145 0.05091 0.09853 0.0
H637 H 0.4525 0.04047 0.07712 0.0
C638 C 0.40864 0.02503 0.07413 0.0
C639 C 0.40321 0.01359 0.05913 0.0
C640 C 0.41934 0.02598 0.08849 0.0
C641 C 0.42493 0.01561 0.08798 0.0
C642 C 0.41937 1.00407 0.07315 0.0
H643 H 0.48511 0.9996 0.16802 0.0
H644 H 0.47121 1.00068 0.13815 0.0
C645 C 0.40864 1.00308 0.05885 0.0
C646 C 0.43608 0.01637 0.10338 0.0
H647 H 0.47161 0.04017 0.12403 0.0
C648 C 0.4318 1.00337 0.11555 0.0
C649 C 0.45073 0.02973 0.10622 0.0
C650 C 0.45631 0.04379 0.09296 0.0
C651 C 0.44156 1.00349 0.13085 0.0
C652 C 0.4561 0.01692 0.13388 0.0
C653 C 0.46047 0.02988 0.12161 0.0
C654 C 0.46648 0.01788 0.15047 0.0
C655 C 0.43603 0.98942 0.14409 0.0
C656 C 0.46909 0.02776 0.16681 0.0
C657 C 0.47708 0.02724 0.18379 0.0
C658 C 0.48269 0.01687 0.1847 0.0
C659 C 0.48098 0.00775 0.16774 0.0
C660 C 0.47292 0.00824 0.15076 0.0
H661 H 0.42344 0.98126 0.14236 0.0
H662 H 0.44225 0.98325 0.13996 0.0
H663 H 0.4385 0.9928 0.16019 0.0
H664 H 0.46431 0.03536 0.16681 0.0
H665 H 0.47838 0.03453 0.19655 0.0
H666 H 0.38218 0.99058 0.95175 0.0
H667 H 0.39881 0.98916 0.92571 0.0
H668 H 0.43786 0.03028 0.94951 0.0
H669 H 0.42133 0.03189 0.97547 0.0
H670 H 0.4189 0.01512 0.89684 0.0
H671 H 0.45086 0.99572 0.94633 0.0
H672 H 0.43202 0.99274 0.95281 0.0
H673 H 0.44875 0.01157 0.9551 0.0
C674 C 0.3943 0.99934 0.9514 0.0
C675 C 0.40046 0.01136 0.96563 0.0
C676 C 0.40377 0.99849 0.93656 0.0
C677 C 0.41957 0.0095 0.9359 0.0
C678 C 0.42573 0.02157 0.94997 0.0
H679 H 0.49669 0.02647 0.85932 0.0
H680 H 0.48004 0.02447 0.88768 0.0
C681 C 0.41625 0.02251 0.96469 0.0
C682 C 0.42955 0.00867 0.9201 0.0
H683 H 0.4592 1.0016 0.9125 0.0
C684 C 0.42766 0.01208 0.90019 0.0
C685 C 0.44104 1.00485 0.92465 0.0
C686 C 0.44332 1.00091 0.94585 0.0
C687 C 0.43716 0.01205 0.88466 0.0
C688 C 0.44854 0.00801 0.8891 0.0
C689 C 0.45042 1.00459 0.90908 0.0
C690 C 0.45879 1.00763 0.8732 0.0
C691 C 0.43521 0.01686 0.86378 0.0
C692 C 0.45247 0.99828 0.8561 0.0
C693 C 0.46192 0.99952 0.8399 0.0
C694 C 0.47791 0.00988 0.84069 0.0
C695 C 0.4844 0.01834 0.85842 0.0
C696 C 0.47489 0.01725 0.87455 0.0
H697 H 0.42926 0.0237 0.86416 0.0
H698 H 0.44655 0.02384 0.85621 0.0
H699 H 0.42807 1.0064 0.85458 0.0
H700 H 0.44014 0.99043 0.85497 0.0
H701 H 0.45668 0.99278 0.82643 0.0
H702 H 0.98972 0.39342 0.97619 0.0
H703 H 0.98939 0.41069 0.95024 0.0
H704 H 0.03369 0.41945 0.92862 0.0
H705 H 0.03408 0.40215 0.95445 0.0
H706 H 0.01151 0.44267 0.94343 0.0
H707 H 1.00601 0.4059 0.87784 0.0
H708 H 1.00201 0.3986 0.90333 0.0
H709 H 0.02161 0.40971 0.89464 0.0
C710 C 0.99936 0.39896 0.96583 0.0
C711 C 0.01189 0.39635 0.96726 0.0
C712 C 0.99916 0.40886 0.95108 0.0
C713 C 0.01143 0.41621 0.93739 0.0
C714 C 0.024 0.4137 0.93885 0.0
H715 H 0.03588 0.47679 0.83563 0.0
H716 H 0.03486 0.46132 0.8647 0.0
C717 C 0.02422 0.40384 0.95364 0.0
C718 C 1.01117 0.4266 0.92164 0.0
H719 H 0.01155 0.43139 0.87069 0.0
C720 C 1.01141 0.44019 0.92751 0.0
C721 C 1.01096 0.42327 0.90091 0.0
C722 C 1.00999 0.40851 0.89373 0.0
C723 C 0.01203 0.45084 0.91315 0.0
C724 C 0.01214 0.44764 0.89241 0.0
C725 C 0.01155 0.43387 0.8866 0.0
C726 C 0.01343 0.45856 0.87634 0.0
C727 C 0.01307 0.46563 0.92027 0.0
C728 C 1.00188 0.46246 0.87345 0.0
C729 C 1.0025 0.47144 0.85683 0.0
C730 C 0.01457 0.47643 0.84277 0.0
C731 C 0.02638 0.47299 0.84617 0.0
C732 C 0.02581 0.46415 0.86275 0.0
H733 H 0.01643 0.46795 0.9364 0.0
H734 H 0.02157 0.4756 0.91115 0.0
H735 H 1.00163 0.46474 0.91849 0.0
H736 H 0.99208 0.45807 0.88355 0.0
H737 H 0.99319 0.47382 0.85443 0.0
H738 H 0.62517 0.64601 0.95519 0.0
H739 H 0.6068 0.62884 0.92981 0.0
H740 H 0.60947 0.59047 0.95488 0.0
H741 H 0.62814 0.60764 0.97987 0.0
H742 H 0.61172 0.59114 0.91477 0.0
H743 H 0.56162 0.59739 0.93614 0.0
H744 H 0.57862 0.6155 0.93066 0.0
H745 H 0.57851 0.60425 0.9519 0.0
C746 C 0.62181 0.63391 0.95529 0.0
C747 C 0.62808 0.62816 0.96951 0.0
C748 C 0.6112 0.62407 0.9409 0.0
C749 C 0.60649 0.60828 0.94069 0.0
C750 C 0.61284 0.60258 0.95483 0.0
H751 H 0.54633 0.53097 0.86254 0.0
H752 H 0.55977 0.5466 0.89223 0.0
C753 C 0.62353 0.61241 0.96908 0.0
C754 C 0.59553 0.5978 0.92519 0.0
H755 H 0.55965 0.5847 0.90486 0.0
C756 C 0.60029 0.58962 0.91276 0.0
C757 C 0.58058 0.5958 0.92258 0.0
C758 C 0.57445 0.60358 0.93615 0.0
C759 C 0.59066 0.5798 0.89752 0.0
C760 C 0.57587 0.57803 0.8947 0.0
C761 C 0.57101 0.58609 0.90715 0.0
C762 C 0.56568 0.56838 0.87817 0.0
C763 C 0.5965 0.57163 0.88418 0.0
C764 C 0.56409 0.57545 0.86081 0.0
C765 C 0.55647 0.56659 0.84389 0.0
C766 C 0.55022 0.55049 0.84412 0.0
C767 C 0.55094 0.54333 0.862 0.0
C768 C 0.55868 0.55224 0.87889 0.0
H769 H 0.60899 0.57584 0.88657 0.0
H770 H 0.58995 0.55906 0.88745 0.0
H771 H 0.59462 0.57322 0.86807 0.0
H772 H 0.5694 0.5879 0.86002 0.0
H773 H 0.55598 0.57237 0.83033 0.0
H774 H 0.99772 0.60958 0.97391 0.0
H775 H 0.99938 0.59266 0.94874 0.0
H776 H 0.04218 0.63073 0.92678 0.0
H777 H 0.0408 0.64762 0.95234 0.0
H778 H 0.99965 0.59406 0.90846 0.0
H779 H 0.05424 0.59825 0.93467 0.0
H780 H 0.04388 0.60522 0.94945 0.0
H781 H 0.05621 0.61669 0.92912 0.0
C782 C 1.0075 0.61435 0.96373 0.0
C783 C 0.01917 0.62991 0.96514 0.0
C784 C 1.00844 0.60466 0.94937 0.0
C785 C 0.02106 0.61032 0.93612 0.0
C786 C 0.03256 0.62597 0.9372 0.0
H787 H 0.03945 0.57455 0.82821 0.0
H788 H 0.04046 0.59007 0.85732 0.0
C789 C 0.03168 0.63565 0.95168 0.0
C790 C 0.02186 0.59994 0.92078 0.0
H791 H 0.04466 0.58618 0.90275 0.0
C792 C 1.00944 0.59225 0.90735 0.0
C793 C 0.03462 0.59753 0.91936 0.0
C794 C 0.04792 0.60473 0.93404 0.0
C795 C 1.00957 0.5825 0.89228 0.0
C796 C 0.02243 0.58032 0.89065 0.0
C797 C 0.03483 0.5879 0.9041 0.0
C798 C 0.02332 0.57064 0.87448 0.0
C799 C 0.99612 0.57483 0.87787 0.0
C800 C 0.01375 0.55453 0.87487 0.0
C801 C 0.01321 0.54562 0.85831 0.0
C802 C 0.02215 0.55273 0.84108 0.0
C803 C 0.03235 0.56879 0.84124 0.0
C804 C 0.03296 0.57765 0.85784 0.0
H805 H 0.98807 0.57937 0.87939 0.0
H806 H 1.00032 0.57651 0.86207 0.0
H807 H 0.98959 0.56223 0.88089 0.0
H808 H 1.00628 0.54892 0.88766 0.0
H809 H 1.00517 0.5333 0.85854 0.0
H810 H 0.42549 0.40298 0.98771 0.0
H811 H 0.44374 0.42055 0.96268 0.0
H812 H 0.40594 0.41028 0.92231 0.0
H813 H 0.38755 0.39309 0.94769 0.0
H814 H 0.45039 0.41549 0.92635 0.0
H815 H 0.42873 0.45645 0.92038 0.0
H816 H 0.42239 0.442 0.93992 0.0
H817 H 0.4139 0.43701 0.91515 0.0
C818 C 0.42105 0.40452 0.97353 0.0
C819 C 0.40508 0.39672 0.96968 0.0
C820 C 0.43151 0.41458 0.95923 0.0
C821 C 0.42624 0.41699 0.94072 0.0
C822 C 0.41028 0.40898 0.93669 0.0
H823 H 0.47755 0.44921 0.83049 0.0
H824 H 0.46303 0.43473 0.85998 0.0
C825 C 0.39978 0.39905 0.95113 0.0
C826 C 0.43752 0.42745 0.92543 0.0
H827 H 0.44611 0.45803 0.89452 0.0
C828 C 0.44952 0.42488 0.91954 0.0
C829 C 0.43664 0.43993 0.91681 0.0
C830 C 0.42482 0.44413 0.92355 0.0
C831 C 0.46034 0.4341 0.90484 0.0
C832 C 0.45886 0.44595 0.8953 0.0
C833 C 0.44718 0.44885 0.90167 0.0
C834 C 0.46874 0.45492 0.878 0.0
C835 C 0.47331 0.4311 0.89986 0.0
C836 C 0.47669 0.47114 0.87811 0.0
C837 C 0.48479 0.4795 0.86101 0.0
C838 C 0.485 0.47177 0.84344 0.0
C839 C 0.47747 0.45554 0.84367 0.0
C840 C 0.46932 0.44722 0.86066 0.0
H841 H 0.47604 0.42587 0.91286 0.0
H842 H 0.46973 0.42283 0.88714 0.0
H843 H 0.48397 0.44188 0.89545 0.0
H844 H 0.47635 0.47734 0.89129 0.0
H845 H 0.49033 0.49198 0.86127 0.0
H846 H 0.62623 0.99332 0.95245 0.0
H847 H 0.60915 0.99439 0.92683 0.0
H848 H 0.6172 0.03773 0.95119 0.0
H849 H 0.6345 0.03687 0.97658 0.0
H850 H 0.58217 0.99528 0.93275 0.0
H851 H 0.6254 0.04748 0.89139 0.0
H852 H 0.63086 0.03732 0.90904 0.0
H853 H 0.62462 0.05024 0.918 0.0
C854 C 0.62449 1.00315 0.95221 0.0
C855 C 0.63178 0.01506 0.96645 0.0
C856 C 0.61469 1.00373 0.93761 0.0
C857 C 0.61204 0.01623 0.93694 0.0
C858 C 0.61932 0.02813 0.95115 0.0
H859 H 0.55521 0.03552 0.85412 0.0
H860 H 0.57006 0.03585 0.8839 0.0
C861 C 0.62915 0.02759 0.9657 0.0
C862 C 0.6013 0.01655 0.92176 0.0
H863 H 0.59925 0.03702 0.88182 0.0
C864 C 0.5859 1.00441 0.92162 0.0
C865 C 0.60616 0.02853 0.90734 0.0
C866 C 0.62269 0.04157 0.90626 0.0
C867 C 0.57526 1.00389 0.90738 0.0
C868 C 0.58019 0.01571 0.89275 0.0
C869 C 0.59548 0.02802 0.89315 0.0
C870 C 0.57005 0.01489 0.87592 0.0
C871 C 0.55881 0.99068 0.9081 0.0
C872 C 0.56507 1.00297 0.86172 0.0
C873 C 0.55668 1.00279 0.84482 0.0
C874 C 0.55311 0.01454 0.84173 0.0
C875 C 0.55769 0.02625 0.85625 0.0
C876 C 0.56622 0.02649 0.87316 0.0
H877 H 0.5558 0.98518 0.92323 0.0
H878 H 0.55056 0.99464 0.90418 0.0
H879 H 0.55736 0.98178 0.897 0.0
H880 H 0.5681 0.99405 0.86339 0.0
H881 H 0.55323 0.9936 0.8339 0.0
H882 H 0.64475 0.02273 0.08112 0.0
H883 H 0.62631 0.02043 0.10712 0.0
H884 H 0.58852 0.99326 0.06656 0.0
H885 H 0.60682 0.995 0.04093 0.0
H886 H 0.60572 0.02962 0.10835 0.0
H887 H 0.57461 0.96589 0.11499 0.0
H888 H 0.59239 0.97645 0.10108 0.0
H889 H 0.5743 0.97222 0.0898 0.0
C890 C 0.6325 0.0162 0.07783 0.0
C891 C 0.62722 0.0089 0.05909 0.0
C892 C 0.62197 0.0149 0.09267 0.0
C893 C 0.60598 1.00639 0.08898 0.0
C894 C 0.60074 0.99947 0.07004 0.0
H895 H 0.54104 0.01622 0.16818 0.0
H896 H 0.55552 0.01619 0.13845 0.0
C897 C 0.61123 1.00057 0.05534 0.0
C898 C 0.59482 1.00498 0.10482 0.0
H899 H 0.56332 0.97882 0.13163 0.0
C900 C 0.59647 0.01851 0.11348 0.0
C901 C 0.58283 0.99047 0.11167 0.0
C902 C 0.581 0.97544 0.10406 0.0
C903 C 0.58653 0.01796 0.1288 0.0
C904 C 0.57424 1.00346 0.13522 0.0
C905 C 0.57257 0.98993 0.12651 0.0
C906 C 0.56379 1.00202 0.15207 0.0
C907 C 0.58968 0.03291 0.13845 0.0
C908 C 0.56272 0.9932 0.16909 0.0
C909 C 0.55412 0.99285 0.18584 0.0
C910 C 0.5465 1.00144 0.18607 0.0
C911 C 0.54678 0.0095 0.16854 0.0
C912 C 0.55527 0.0097 0.15164 0.0
H913 H 0.60169 0.04237 0.13559 0.0
H914 H 0.5817 0.03647 0.13201 0.0
H915 H 0.58782 0.03155 0.15499 0.0
H916 H 0.569 0.987 0.16972 0.0
H917 H 0.55384 0.9862 0.19888 0.0
H918 H 0.99915 0.62533 0.07354 0.0
H919 H 0.99979 0.60782 0.09887 0.0
H920 H 0.0414 0.61302 0.07212 0.0
H921 H 0.04097 0.63069 0.047 0.0
H922 H 0.99891 0.5798 0.09277 0.0
H923 H 0.05318 0.62185 0.13148 0.0
H924 H 0.04303 0.62777 0.11448 0.0
H925 H 0.05495 0.62057 0.10473 0.0
C926 C 1.0085 0.62284 0.07317 0.0
C927 C 0.02006 0.62947 0.05836 0.0
C928 C 1.00883 0.61281 0.0876 0.0
C929 C 0.02075 0.60927 0.08755 0.0
C930 C 0.03227 0.61582 0.07272 0.0
H931 H 0.03874 0.55137 0.17035 0.0
H932 H 0.03921 0.56615 0.1404 0.0
C933 C 0.03197 0.62587 0.05831 0.0
C934 C 0.0209 0.59842 0.10272 0.0
H935 H 0.04179 0.59578 0.14172 0.0
C936 C 1.0083 0.58329 0.10346 0.0
C937 C 0.03321 0.60295 0.11656 0.0
C938 C 0.04681 0.6192 0.11696 0.0
C939 C 1.00762 0.5726 0.11774 0.0
C940 C 0.01976 0.57722 0.13183 0.0
C941 C 0.03254 0.59224 0.13081 0.0
C942 C 0.01884 0.56714 0.14882 0.0
C943 C 0.9939 0.55643 0.11761 0.0
C944 C 1.00721 0.56275 0.16335 0.0
C945 C 1.00694 0.5544 0.18034 0.0
C946 C 0.01834 0.55029 0.18323 0.0
C947 C 0.02975 0.55429 0.1684 0.0
C948 C 0.03007 0.56278 0.15139 0.0
H949 H 0.98813 0.55339 0.10265 0.0
H950 H 0.99737 0.54782 0.12162 0.0
H951 H 0.98534 0.55561 0.12889 0.0
H952 H 0.99858 0.56621 0.16187 0.0
H953 H 0.99796 0.5514 0.19147 0.0
H954 H 0.40278 0.37706 0.07884 0.0
H955 H 0.42047 0.39399 0.10503 0.0
H956 H 0.42041 0.43305 0.07763 0.0
H957 H 0.40244 0.41618 0.05188 0.0
H958 H 0.44949 0.41856 0.10162 0.0
H959 H 0.41118 0.4376 0.13533 0.0
H960 H 0.40417 0.42165 0.11795 0.0
H961 H 0.41379 0.44121 0.10875 0.0
C962 C 0.4064 0.38923 0.07858 0.0
C963 C 0.4011 0.39527 0.06344 0.0
C964 C 0.41655 0.39889 0.09348 0.0
C965 C 0.42159 0.41476 0.09349 0.0
C966 C 0.41639 0.4208 0.07827 0.0
H967 H 0.48469 0.4925 0.16825 0.0
H968 H 0.47041 0.47629 0.13933 0.0
C969 C 0.40615 0.41114 0.0635 0.0
C970 C 0.43258 0.42507 0.10908 0.0
H971 H 0.43758 0.4514 0.14529 0.0
C972 C 0.44685 0.42568 0.11123 0.0
C973 C 0.42913 0.43436 0.12164 0.0
C974 C 0.41368 0.43359 0.12097 0.0
C975 C 0.45783 0.43549 0.12543 0.0
C976 C 0.45443 0.44488 0.13775 0.0
C977 C 0.44021 0.4443 0.1356 0.0
C978 C 0.46505 0.45479 0.15379 0.0
C979 C 0.47305 0.43587 0.1271 0.0
C980 C 0.46699 0.44806 0.17127 0.0
C981 C 0.47504 0.45725 0.18777 0.0
C982 C 0.48133 0.47335 0.18703 0.0
C983 C 0.48011 0.48015 0.16911 0.0
C984 C 0.4719 0.47092 0.15266 0.0
H985 H 0.47511 0.43021 0.11404 0.0
H986 H 0.48273 0.44796 0.12821 0.0
H987 H 0.47307 0.42973 0.14102 0.0
H988 H 0.46164 0.43563 0.1725 0.0
H989 H 0.47582 0.45174 0.20143 0.0
H990 H 0.65898 0.71035 0.41277 0.0
H991 H 0.65692 0.72705 0.43809 0.0
H992 H 0.69283 0.76722 0.4079 0.0
H993 H 0.69494 0.75065 0.38255 0.0
H994 H 0.68109 0.74874 0.46356 0.0
H995 H 0.65758 0.77713 0.4146 0.0
H996 H 0.65702 0.75943 0.40761 0.0
H997 H 0.67464 0.77761 0.40517 0.0
C998 C 0.66642 0.72274 0.41152 0.0
C999 C 0.67711 0.7292 0.39567 0.0
C1000 C 0.6652 0.73225 0.42596 0.0
C1001 C 0.67454 0.74837 0.42466 0.0
C1002 C 0.6853 0.75483 0.40894 0.0
H1003 H 0.69341 0.8264 0.4996 0.0
H1004 H 0.69018 0.80926 0.47133 0.0
C1005 C 0.68657 0.74534 0.39457 0.0
C1006 C 0.67355 0.75841 0.44026 0.0
H1007 H 0.66568 0.78756 0.44747 0.0
C1008 C 0.67759 0.75713 0.46011 0.0
C1009 C 0.66909 0.76942 0.43563 0.0
C1010 C 0.6642 0.77095 0.41464 0.0
C1011 C 0.67766 0.76683 0.47541 0.0
C1012 C 0.67316 0.77784 0.47082 0.0
C1013 C 0.66904 0.77907 0.45097 0.0
C1014 C 0.67317 0.78844 0.48643 0.0
C1015 C 0.68307 0.76553 0.49619 0.0
C1016 C 0.66408 0.78252 0.50382 0.0
C1017 C 0.66595 0.79226 0.51995 0.0
C1018 C 0.67678 0.80812 0.51884 0.0
C1019 C 0.68492 0.81423 0.50078 0.0
C1020 C 0.68314 0.80444 0.48469 0.0
H1021 H 0.68981 0.75946 0.4959 0.0
H1022 H 0.69035 0.7771 0.50303 0.0
H1023 H 0.67288 0.75883 0.50604 0.0
H1024 H 0.65603 0.77026 0.50527 0.0
H1025 H 0.65945 0.7873 0.53366 0.0
H1026 H 0.27898 0.97171 0.39021 0.0
H1027 H 0.26101 0.95475 0.41604 0.0
H1028 H 0.2917 0.93745 0.42973 0.0
H1029 H 0.30984 0.95452 0.40404 0.0
H1030 H 0.24593 0.92237 0.41889 0.0
H1031 H 0.28387 0.95064 0.48495 0.0
H1032 H 0.28771 0.95963 0.46042 0.0
H1033 H 0.29239 0.94482 0.46555 0.0
C1034 C 0.28197 0.96438 0.39883 0.0
C1035 C 0.29588 0.96453 0.3952 0.0
C1036 C 0.27165 0.95465 0.41351 0.0
C1037 C 0.27507 0.94494 0.42494 0.0
C1038 C 0.28894 0.94503 0.42131 0.0
H1039 H 0.21231 0.86813 0.50251 0.0
H1040 H 0.22772 0.88357 0.47369 0.0
C1041 C 0.29928 0.95477 0.40661 0.0
C1042 C 0.26407 0.9347 0.44056 0.0
H1043 H 0.26044 0.92745 0.49113 0.0
C1044 C 0.24907 0.92346 0.4347 0.0
C1045 C 0.26816 0.93626 0.46118 0.0
C1046 C 0.28385 0.94856 0.4685 0.0
C1047 C 0.23808 0.91367 0.44892 0.0
C1048 C 0.24227 0.91506 0.46949 0.0
C1049 C 0.25725 0.92634 0.47533 0.0
C1050 C 0.23129 0.90528 0.48545 0.0
C1051 C 0.222 0.90215 0.44187 0.0
C1052 C 0.228 0.91229 0.50147 0.0
C1053 C 0.21928 0.90354 0.51789 0.0
C1054 C 0.2137 0.88756 0.51868 0.0
C1055 C 0.21632 0.88038 0.50217 0.0
C1056 C 0.22513 0.8892 0.48573 0.0
H1057 H 0.21956 0.90506 0.42665 0.0
H1058 H 0.22081 0.89053 0.44111 0.0
H1059 H 0.21319 0.90156 0.45256 0.0
H1060 H 0.23258 0.92466 0.50156 0.0
H1061 H 0.21735 0.90935 0.53035 0.0
H1062 H 0.07226 0.36817 0.40859 0.0
H1063 H 0.09044 0.37018 0.43486 0.0
H1064 H 0.09154 0.33115 0.4094 0.0
H1065 H 0.07342 0.32908 0.3831 0.0
H1066 H 0.08641 0.3467 0.4631 0.0
H1067 H 0.13775 0.36491 0.41422 0.0
H1068 H 0.12121 0.3663 0.40635 0.0
H1069 H 0.12042 0.34799 0.40597 0.0
C1070 C 0.07638 0.36002 0.40859 0.0
C1071 C 0.07144 0.34848 0.39377 0.0
C1072 C 0.08677 0.3612 0.42357 0.0
C1073 C 0.09252 0.35098 0.42385 0.0
C1074 C 0.08747 0.33934 0.40921 0.0
H1075 H 0.15078 0.33377 0.50357 0.0
H1076 H 0.13632 0.33543 0.47474 0.0
C1077 C 0.07703 0.33811 0.39429 0.0
C1078 C 0.10336 0.35212 0.43989 0.0
H1079 H 0.13985 0.35859 0.44814 0.0
C1080 C 0.09813 0.34941 0.45988 0.0
C1081 C 0.1186 0.35555 0.43557 0.0
C1082 C 0.12493 0.35899 0.41439 0.0
C1083 C 0.10762 0.34971 0.47567 0.0
C1084 C 0.12291 0.35322 0.4714 0.0
C1085 C 0.12817 0.35597 0.45139 0.0
C1086 C 0.13343 0.35369 0.48754 0.0
C1087 C 0.10099 0.34578 0.4967 0.0
C1088 C 0.13722 0.3639 0.50382 0.0
C1089 C 0.14542 0.36294 0.52028 0.0
C1090 C 0.15016 0.35188 0.52062 0.0
C1091 C 0.14734 0.34244 0.50366 0.0
C1092 C 0.13902 0.34333 0.48724 0.0
H1093 H 0.08816 0.33947 0.49654 0.0
H1094 H 0.10489 0.3386 0.50472 0.0
H1095 H 0.10498 0.3566 0.50536 0.0
H1096 H 0.13338 0.37226 0.50411 0.0
H1097 H 0.14761 0.37049 0.53305 0.0
H1098 H 0.09138 0.36449 0.31066 0.0
H1099 H 0.10783 0.36285 0.28476 0.0
H1100 H 0.06787 0.32477 0.25708 0.0
H1101 H 0.05133 0.32614 0.28327 0.0
H1102 H 0.09239 0.31952 0.26068 0.0
H1103 H 0.11192 0.37706 0.22669 0.0
H1104 H 0.11542 0.37774 0.2533 0.0
H1105 H 0.0959 0.36811 0.24401 0.0
C1106 C 0.08607 0.35583 0.29899 0.0
C1107 C 0.07004 0.34551 0.29891 0.0
C1108 C 0.09549 0.35495 0.28414 0.0
C1109 C 0.08906 0.34385 0.26879 0.0
C1110 C 0.07306 0.33347 0.26874 0.0
H1111 H 0.12311 0.32279 0.16101 0.0
H1112 H 0.10799 0.32177 0.19053 0.0
C1113 C 0.06363 0.3343 0.28366 0.0
C1114 C 0.09906 0.34296 0.25297 0.0
H1115 H 0.12469 0.36382 0.21575 0.0
C1116 C 0.09942 0.32918 0.25081 0.0
C1117 C 0.10824 0.35558 0.24011 0.0
C1118 C 0.10778 0.37041 0.24097 0.0
C1119 C 0.10885 0.32777 0.23628 0.0
C1120 C 0.11804 0.34041 0.2235 0.0
C1121 C 0.11773 0.35419 0.22572 0.0
C1122 C 0.12753 0.33946 0.20702 0.0
C1123 C 0.10906 0.31285 0.23486 0.0
C1124 C 0.14356 0.34961 0.20659 0.0
C1125 C 0.15223 0.35022 0.18972 0.0
C1126 C 0.14496 0.34084 0.17287 0.0
C1127 C 0.12901 0.33019 0.17374 0.0
C1128 C 0.12037 0.32953 0.19065 0.0
H1129 H 0.10456 0.30584 0.24882 0.0
H1130 H 0.10163 0.30594 0.2221 0.0
H1131 H 0.12094 0.31508 0.23201 0.0
H1132 H 0.14928 0.35744 0.21904 0.0
H1133 H 0.16445 0.35866 0.1894 0.0
H1134 H 0.70037 0.73748 0.29306 0.0
H1135 H 0.69919 0.75484 0.26794 0.0
H1136 H 0.65148 0.73805 0.28322 0.0
H1137 H 0.65261 0.7208 0.30843 0.0
H1138 H 0.67989 0.74754 0.23449 0.0
H1139 H 0.6709 0.7851 0.28751 0.0
H1140 H 0.67748 0.77214 0.29564 0.0
H1141 H 0.65734 0.76487 0.29054 0.0
C1142 C 0.68963 0.73748 0.29104 0.0
C1143 C 0.67659 0.7278 0.30274 0.0
C1144 C 0.68898 0.74742 0.27673 0.0
C1145 C 0.67534 0.74795 0.27399 0.0
C1146 C 0.66223 0.73809 0.28541 0.0
H1147 H 0.64871 0.78145 0.17062 0.0
H1148 H 0.6501 0.7668 0.19929 0.0
C1149 C 0.66286 0.72814 0.29968 0.0
C1150 C 0.67463 0.75842 0.25872 0.0
H1151 H 0.66721 0.788 0.25258 0.0
C1152 C 0.6772 0.75644 0.23845 0.0
C1153 C 0.67132 0.77016 0.26397 0.0
C1154 C 0.66924 0.77334 0.28561 0.0
C1155 C 0.67612 0.76558 0.22322 0.0
C1156 C 0.67216 0.77688 0.22836 0.0
C1157 C 0.67004 0.77919 0.24868 0.0
C1158 C 0.6701 0.78625 0.21267 0.0
C1159 C 0.6793 0.76314 0.20171 0.0
C1160 C 0.6804 0.80221 0.21131 0.0
C1161 C 0.67959 0.81065 0.19495 0.0
C1162 C 0.66847 0.80321 0.17975 0.0
C1163 C 0.65754 0.78743 0.18195 0.0
C1164 C 0.65834 0.77905 0.19827 0.0
H1165 H 0.68579 0.75683 0.20089 0.0
H1166 H 0.66817 0.75621 0.19366 0.0
H1167 H 0.68601 0.77434 0.19371 0.0
H1168 H 0.6895 0.80799 0.22237 0.0
H1169 H 0.68821 0.82276 0.19359 0.0
H1170 H 0.29134 0.94159 0.31379 0.0
H1171 H 0.27279 0.92512 0.28811 0.0
H1172 H 0.27558 0.96523 0.25981 0.0
H1173 H 0.29422 0.98181 0.28538 0.0
H1174 H 0.2434 0.92223 0.27765 0.0
H1175 H 0.28513 0.94318 0.21397 0.0
H1176 H 0.29123 0.9464 0.24 0.0
H1177 H 0.28426 0.95794 0.22832 0.0
C1178 C 0.28805 0.94691 0.30205 0.0
C1179 C 0.29432 0.96301 0.3015 0.0
C1180 C 0.27741 0.93748 0.28746 0.0
C1181 C 0.27292 0.94397 0.27199 0.0
C1182 C 0.27906 0.96002 0.27149 0.0
H1183 H 0.21883 0.90496 0.16351 0.0
H1184 H 0.23208 0.92182 0.1922 0.0
C1185 C 0.28968 0.96947 0.28611 0.0
C1186 C 0.26192 0.93393 0.25631 0.0
H1187 H 0.25909 0.92573 0.20609 0.0
C1188 C 0.24678 0.92298 0.26198 0.0
C1189 C 0.2664 0.93497 0.23592 0.0
C1190 C 0.28266 0.94615 0.22912 0.0
C1191 C 0.23592 0.9131 0.2477 0.0
C1192 C 0.24045 0.91404 0.22732 0.0
C1193 C 0.25559 0.92507 0.22169 0.0
C1194 C 0.22999 0.90344 0.21153 0.0
C1195 C 0.21968 0.90194 0.25453 0.0
C1196 C 0.22395 0.88742 0.21308 0.0
C1197 C 0.21622 0.87774 0.19675 0.0
C1198 C 0.21464 0.88398 0.17852 0.0
C1199 C 0.21994 0.89988 0.17739 0.0
C1200 C 0.22753 0.90951 0.19374 0.0
H1201 H 0.21683 0.90582 0.26874 0.0
H1202 H 0.2111 0.90049 0.24284 0.0
H1203 H 0.21857 0.89051 0.25741 0.0
H1204 H 0.22598 0.8825 0.22646 0.0
H1205 H 0.21245 0.86556 0.1979 0.0
H1206 H 0.70506 0.98053 0.28451 0.0
H1207 H 0.70609 0.96324 0.2592 0.0
H1208 H 0.66786 0.92425 0.28827 0.0
H1209 H 0.66649 0.94145 0.31316 0.0
H1210 H 0.71114 0.939 0.26319 0.0
H1211 H 0.65293 0.91851 0.23084 0.0
H1212 H 0.66207 0.93482 0.24765 0.0
H1213 H 0.65252 0.91546 0.25752 0.0
C1214 C 0.6968 0.96828 0.28538 0.0
C1215 C 0.68558 0.96236 0.30068 0.0
C1216 C 0.69744 0.95842 0.27097 0.0
C1217 C 0.68689 0.94247 0.27162 0.0
C1218 C 0.67586 0.93654 0.28712 0.0
H1219 H 0.67071 0.86448 0.19683 0.0
H1220 H 0.67322 0.88068 0.22592 0.0
C1221 C 0.67513 0.94639 0.3014 0.0
C1222 C 0.68747 0.93201 0.25625 0.0
H1223 H 0.66576 0.90511 0.22072 0.0
C1224 C 0.70124 0.93163 0.25385 0.0
C1225 C 0.67455 0.9224 0.24403 0.0
C1226 C 0.65974 0.9229 0.24496 0.0
C1227 C 0.70234 0.92176 0.23975 0.0
C1228 C 0.68937 0.91208 0.22774 0.0
C1229 C 0.67563 0.91242 0.23016 0.0
C1230 C 0.68995 0.90208 0.21173 0.0
C1231 C 0.71729 0.92163 0.23789 0.0
C1232 C 0.69881 0.90873 0.19435 0.0
C1233 C 0.69737 0.89952 0.17775 0.0
C1234 C 0.68704 0.8835 0.17825 0.0
C1235 C 0.67888 0.87676 0.19612 0.0
C1236 C 0.68023 0.886 0.21267 0.0
H1237 H 0.72496 0.9271 0.25109 0.0
H1238 H 0.71503 0.90963 0.23632 0.0
H1239 H 0.72349 0.92813 0.22418 0.0
H1240 H 0.70622 0.92113 0.19321 0.0
H1241 H 0.70378 0.90501 0.16415 0.0
H1242 H 0.09061 0.73922 0.32614 0.0
H1243 H 0.10903 0.75667 0.3012 0.0
H1244 H 0.07226 0.7419 0.25761 0.0
H1245 H 0.05362 0.72482 0.28287 0.0
H1246 H 0.1178 0.7508 0.26709 0.0
H1247 H 0.09236 0.78762 0.2512 0.0
H1248 H 0.08603 0.7742 0.27199 0.0
H1249 H 0.07877 0.7676 0.24694 0.0
C1250 C 0.08642 0.73978 0.31128 0.0
C1251 C 0.07066 0.7307 0.30646 0.0
C1252 C 0.09697 0.74976 0.29703 0.0
C1253 C 0.09205 0.75082 0.27758 0.0
C1254 C 0.0763 0.74164 0.27266 0.0
H1255 H 0.14784 0.78086 0.17056 0.0
H1256 H 0.13262 0.76715 0.20002 0.0
C1257 C 0.06567 0.73179 0.28705 0.0
C1258 C 0.10354 0.76101 0.2623 0.0
H1259 H 0.11135 0.78934 0.22778 0.0
C1260 C 0.11645 0.75933 0.25864 0.0
C1261 C 0.10201 0.77239 0.25152 0.0
C1262 C 0.08913 0.77569 0.25576 0.0
C1263 C 0.12758 0.76834 0.24415 0.0
C1264 C 0.12552 0.77902 0.23249 0.0
C1265 C 0.11288 0.78105 0.23656 0.0
C1266 C 0.13585 0.78763 0.21535 0.0
C1267 C 0.1415 0.76641 0.24169 0.0
C1268 C 0.14266 0.80376 0.21395 0.0
C1269 C 0.15113 0.81164 0.19681 0.0
C1270 C 0.15289 0.80353 0.18072 0.0
C1271 C 0.14656 0.78746 0.18255 0.0
C1272 C 0.138 0.7796 0.19955 0.0
H1273 H 0.14417 0.76233 0.2559 0.0
H1274 H 0.13904 0.75759 0.22995 0.0
H1275 H 0.15187 0.77738 0.2371 0.0
H1276 H 0.14111 0.81021 0.22591 0.0
H1277 H 0.15571 0.82398 0.19581 0.0
H1278 H 0.28964 0.32755 0.28634 0.0
H1279 H 0.27379 0.33022 0.26024 0.0
H1280 H 0.28893 0.37661 0.28033 0.0
H1281 H 0.30456 0.37393 0.30665 0.0
H1282 H 0.25744 0.35975 0.27388 0.0
H1283 H 0.28925 0.3551 0.20835 0.0
H1284 H 0.28239 0.33916 0.22557 0.0
H1285 H 0.29678 0.35815 0.23369 0.0
C1286 C 0.28966 0.33835 0.28511 0.0
C1287 C 0.29842 0.35056 0.29847 0.0
C1288 C 0.28064 0.33987 0.27016 0.0
C1289 C 0.28033 0.35369 0.26816 0.0
C1290 C 0.28902 0.36586 0.28156 0.0
H1291 H 0.24715 0.37858 0.16199 0.0
H1292 H 0.26217 0.37872 0.19119 0.0
C1293 C 0.29799 0.36433 0.29654 0.0
C1294 C 0.27087 0.35545 0.25226 0.0
H1295 H 0.26576 0.3546 0.20132 0.0
C1296 C 0.25928 0.35868 0.258 0.0
C1297 C 0.27342 0.35425 0.23154 0.0
C1298 C 0.28622 0.35162 0.22435 0.0
C1299 C 0.25002 0.36054 0.24359 0.0
C1300 C 0.25227 0.35887 0.2229 0.0
C1301 C 0.26399 0.35582 0.21718 0.0
C1302 C 0.24267 0.36021 0.20679 0.0
C1303 C 0.23812 0.36452 0.25063 0.0
C1304 C 0.22663 0.35005 0.20609 0.0
C1305 C 0.21799 0.35006 0.18946 0.0
C1306 C 0.22531 0.36007 0.17315 0.0
C1307 C 0.24123 0.3707 0.17432 0.0
C1308 C 0.24982 0.37076 0.19097 0.0
H1309 H 0.24081 0.36967 0.26596 0.0
H1310 H 0.23731 0.37273 0.24012 0.0
H1311 H 0.22665 0.35383 0.25124 0.0
H1312 H 0.2209 0.34159 0.2179 0.0
H1313 H 0.20579 0.34159 0.18881 0.0
H1314 H 0.27197 0.32706 0.37248 0.0
H1315 H 0.25327 0.3253 0.39751 0.0
H1316 H 0.29054 0.35386 0.43806 0.0
H1317 H 0.30935 0.35615 0.41269 0.0
H1318 H 0.24679 0.31345 0.43377 0.0
H1319 H 0.26633 0.37565 0.43995 0.0
H1320 H 0.27321 0.36808 0.42044 0.0
H1321 H 0.28169 0.37186 0.44524 0.0
C1322 C 0.27619 0.33303 0.3867 0.0
C1323 C 0.29213 0.34182 0.3906 0.0
C1324 C 0.26548 0.33202 0.401 0.0
C1325 C 0.27047 0.33968 0.41955 0.0
C1326 C 0.2864 0.34822 0.42364 0.0
H1327 H 0.21975 0.31865 0.5303 0.0
H1328 H 0.23371 0.31877 0.50021 0.0
C1329 C 0.29714 0.34942 0.4092 0.0
C1330 C 0.25896 0.33831 0.43482 0.0
H1331 H 0.24951 0.35937 0.46606 0.0
C1332 C 0.2473 0.3235 0.44067 0.0
C1333 C 0.25935 0.3514 0.44354 0.0
C1334 C 0.27072 0.36763 0.43681 0.0
C1335 C 0.2364 0.32142 0.45548 0.0
C1336 C 0.23745 0.3345 0.46517 0.0
C1337 C 0.24876 0.34931 0.45881 0.0
C1338 C 0.22757 0.33317 0.48267 0.0
C1339 C 0.2238 0.30521 0.46041 0.0
C1340 C 0.2195 0.3413 0.48301 0.0
C1341 C 0.21177 0.34155 0.50046 0.0
C1342 C 0.21201 0.3337 0.51794 0.0
C1343 C 0.21949 0.32498 0.5172 0.0
C1344 C 0.22732 0.32486 0.49987 0.0
H1345 H 0.22117 0.29742 0.44725 0.0
H1346 H 0.22774 0.30061 0.47286 0.0
H1347 H 0.21301 0.30489 0.46516 0.0
H1348 H 0.21958 0.34785 0.46996 0.0
H1349 H 0.20628 0.34851 0.50056 0.0
H1350 H 0.71042 0.96951 0.38606 0.0
H1351 H 0.71149 0.9522 0.4112 0.0
H1352 H 0.66419 0.93641 0.42764 0.0
H1353 H 0.66307 0.95386 0.40259 0.0
H1354 H 0.68372 0.94369 0.46057 0.0
H1355 H 0.69163 0.90519 0.40806 0.0
H1356 H 0.70542 0.9253 0.40455 0.0
H1357 H 0.68528 0.91829 0.39976 0.0
C1358 C 0.70023 0.96235 0.39501 0.0
C1359 C 0.68664 0.96303 0.39233 0.0
C1360 C 0.70082 0.95236 0.40926 0.0
C1361 C 0.68783 0.94279 0.42102 0.0
C1362 C 0.67431 0.9436 0.41859 0.0
H1363 H 0.67599 0.86892 0.50268 0.0
H1364 H 0.67426 0.88331 0.47374 0.0
C1365 C 0.67369 0.95359 0.40431 0.0
C1366 C 0.68858 0.93243 0.43643 0.0
H1367 H 0.69597 0.90286 0.44297 0.0
C1368 C 0.6863 0.9347 0.4567 0.0
C1369 C 0.69176 0.92057 0.43134 0.0
C1370 C 0.69352 0.91705 0.40973 0.0
C1371 C 0.68755 0.92575 0.47208 0.0
C1372 C 0.69141 0.91436 0.46708 0.0
C1373 C 0.69322 0.91174 0.44677 0.0
C1374 C 0.69369 0.90522 0.4829 0.0
C1375 C 0.68466 0.92852 0.49358 0.0
C1376 C 0.7056 0.91263 0.49706 0.0
C1377 C 0.70664 0.90446 0.51348 0.0
C1378 C 0.69581 0.88869 0.51602 0.0
C1379 C 0.68453 0.88104 0.50107 0.0
C1380 C 0.68348 0.88926 0.48461 0.0
H1381 H 0.67815 0.9348 0.49438 0.0
H1382 H 0.67811 0.91745 0.5019 0.0
H1383 H 0.6959 0.93562 0.50132 0.0
H1384 H 0.71379 0.92487 0.49578 0.0
H1385 H 0.7156 0.91061 0.52461 0.0
H1386 H 0.05926 0.74323 0.39919 0.0
H1387 H 0.07795 0.7606 0.42409 0.0
H1388 H 0.09723 0.73068 0.42873 0.0
H1389 H 0.07861 0.71326 0.40371 0.0
H1390 H 0.08263 0.75408 0.46394 0.0
H1391 H 0.13519 0.77364 0.417 0.0
H1392 H 0.11593 0.764 0.4065 0.0
H1393 H 0.1231 0.75306 0.41933 0.0
C1394 C 0.06743 0.7403 0.40557 0.0
C1395 C 0.06748 0.72689 0.39947 0.0
C1396 C 0.07812 0.75026 0.41975 0.0
C1397 C 0.08915 0.74707 0.42797 0.0
C1398 C 0.08902 0.73351 0.42225 0.0
H1399 H 0.14317 0.78626 0.53564 0.0
H1400 H 0.1287 0.76946 0.50744 0.0
C1401 C 0.07829 0.72351 0.40811 0.0
C1402 C 0.10051 0.75777 0.44288 0.0
H1403 H 0.13914 0.78181 0.45119 0.0
C1404 C 0.09498 0.76015 0.46114 0.0
C1405 C 0.11661 0.76581 0.43908 0.0
C1406 C 0.12312 0.76415 0.41935 0.0
C1407 C 0.10512 0.77015 0.47586 0.0
C1408 C 0.12122 0.77788 0.47228 0.0
C1409 C 0.12679 0.77574 0.4539 0.0
C1410 C 0.13228 0.78816 0.48771 0.0
C1411 C 0.09856 0.77247 0.49515 0.0
C1412 C 0.13968 0.80427 0.48553 0.0
C1413 C 0.14798 0.81392 0.50165 0.0
C1414 C 0.14892 0.80755 0.52013 0.0
C1415 C 0.14248 0.79146 0.52165 0.0
C1416 C 0.13422 0.78186 0.50558 0.0
H1417 H 0.08592 0.76787 0.49408 0.0
H1418 H 0.1007 0.76638 0.50763 0.0
H1419 H 0.10433 0.78491 0.49907 0.0
H1420 H 0.1383 0.80931 0.47179 0.0
H1421 H 0.15274 0.82626 0.50012 0.0
H1422 H 0.32973 0.0519 0.73382 0.0
H1423 H 0.33074 0.07015 0.75919 0.0
H1424 H 0.37789 0.10232 0.74257 0.0
H1425 H 0.37687 0.0843 0.71698 0.0
H1426 H 0.34949 0.08196 0.79183 0.0
H1427 H 0.35849 0.12947 0.7405 0.0
H1428 H 0.35254 0.11025 0.7316 0.0
H1429 H 0.37253 0.12352 0.73718 0.0
C1430 C 0.34029 0.06288 0.73556 0.0
C1431 C 0.3532 0.0667 0.72337 0.0
C1432 C 0.34085 0.0733 0.75002 0.0
C1433 C 0.35429 0.08773 0.7525 0.0
C1434 C 0.36727 0.09144 0.74056 0.0
H1435 H 0.37813 0.14439 0.85945 0.0
H1436 H 0.37788 0.12936 0.83025 0.0
C1437 C 0.3667 0.08106 0.72607 0.0
C1438 C 0.35497 0.09864 0.76814 0.0
H1439 H 0.36248 0.13555 0.77559 0.0
C1440 C 0.35225 0.09365 0.78826 0.0
C1441 C 0.35836 0.11382 0.76343 0.0
C1442 C 0.3605 0.11956 0.74198 0.0
C1443 C 0.35317 0.10352 0.80385 0.0
C1444 C 0.35727 0.11893 0.79926 0.0
C1445 C 0.3596 0.12382 0.7791 0.0
C1446 C 0.35897 0.12997 0.8153 0.0
C1447 C 0.34955 0.09729 0.82509 0.0
C1448 C 0.34907 0.13612 0.81593 0.0
C1449 C 0.34932 0.14488 0.83251 0.0
C1450 C 0.35946 0.14757 0.84867 0.0
C1451 C 0.37008 0.14231 0.8473 0.0
C1452 C 0.36988 0.13367 0.8307 0.0
H1453 H 0.34271 0.08447 0.82531 0.0
H1454 H 0.36051 0.10091 0.8333 0.0
H1455 H 0.34302 0.10183 0.83333 0.0
H1456 H 0.34064 0.13349 0.8041 0.0
H1457 H 0.34097 0.14872 0.83325 0.0
H1458 H 0.9441 0.29009 0.71772 0.0
H1459 H 0.9278 0.27141 0.7434 0.0
H1460 H 0.96785 0.2723 0.76903 0.0
H1461 H 0.98427 0.291 0.74335 0.0
H1462 H 0.92483 0.24106 0.7526 0.0
H1463 H 0.9468 0.28261 0.8165 0.0
H1464 H 0.94916 0.2888 0.79053 0.0
H1465 H 0.96111 0.28187 0.80093 0.0
C1466 C 0.94945 0.28635 0.72886 0.0
C1467 C 0.96548 0.29208 0.72861 0.0
C1468 C 0.94012 0.27563 0.74344 0.0
C1469 C 0.94664 0.27056 0.75815 0.0
C1470 C 0.96262 0.27619 0.7579 0.0
H1471 H 0.90834 0.21648 0.8669 0.0
H1472 H 0.92508 0.23022 0.83829 0.0
C1473 C 0.97197 0.28685 0.74323 0.0
C1474 C 0.93672 0.25954 0.7739 0.0
H1475 H 0.92883 0.25674 0.82422 0.0
C1476 C 0.92569 0.24443 0.76828 0.0
C1477 C 0.93792 0.26401 0.79431 0.0
C1478 C 0.94929 0.28022 0.80103 0.0
C1479 C 0.9159 0.23358 0.78263 0.0
C1480 C 0.91694 0.23811 0.80304 0.0
C1481 C 0.92806 0.25323 0.8086 0.0
C1482 C 0.90647 0.22761 0.81896 0.0
C1483 C 0.90474 0.21733 0.77583 0.0
C1484 C 0.89037 0.22115 0.81744 0.0
C1485 C 0.88077 0.21309 0.83372 0.0
C1486 C 0.88714 0.21161 0.85187 0.0
C1487 C 0.90315 0.21748 0.85305 0.0
C1488 C 0.91271 0.22536 0.83675 0.0
H1489 H 0.90866 0.21448 0.76165 0.0
H1490 H 0.90327 0.20876 0.78754 0.0
H1491 H 0.89331 0.21623 0.77288 0.0
H1492 H 0.88529 0.22302 0.80409 0.0
H1493 H 0.86849 0.20888 0.83255 0.0
H1494 H 0.73921 0.70222 0.74116 0.0
H1495 H 0.75736 0.70379 0.7672 0.0
H1496 H 0.75667 0.66376 0.74211 0.0
H1497 H 0.73847 0.66205 0.7161 0.0
H1498 H 0.75182 0.67861 0.79535 0.0
H1499 H 0.80374 0.69767 0.74715 0.0
H1500 H 0.78774 0.70019 0.73981 0.0
H1501 H 0.78603 0.68151 0.73816 0.0
C1502 C 0.74295 0.69377 0.74118 0.0
C1503 C 0.73742 0.68201 0.7266 0.0
C1504 C 0.75332 0.6947 0.75602 0.0
C1505 C 0.7585 0.68402 0.75638 0.0
C1506 C 0.75299 0.67225 0.74188 0.0
H1507 H 0.81648 0.66561 0.83524 0.0
H1508 H 0.80251 0.66803 0.80632 0.0
C1509 C 0.74252 0.67124 0.72713 0.0
C1510 C 0.76913 0.68476 0.77245 0.0
H1511 H 0.8056 0.69128 0.78103 0.0
C1512 C 0.76361 0.68147 0.79228 0.0
C1513 C 0.78444 0.68836 0.76829 0.0
C1514 C 0.79095 0.69225 0.74724 0.0
C1515 C 0.7729 0.68139 0.80809 0.0
C1516 C 0.78832 0.68518 0.80403 0.0
C1517 C 0.79384 0.68848 0.78414 0.0
C1518 C 0.79866 0.68535 0.82023 0.0
C1519 C 0.76591 0.67674 0.82887 0.0
C1520 C 0.80179 0.69483 0.8372 0.0
C1521 C 0.80963 0.69338 0.85372 0.0
C1522 C 0.81476 0.68263 0.85341 0.0
C1523 C 0.81271 0.67404 0.8358 0.0
C1524 C 0.80469 0.67536 0.81934 0.0
H1525 H 0.75308 0.67015 0.82828 0.0
H1526 H 0.76993 0.66957 0.83666 0.0
H1527 H 0.76944 0.68727 0.838 0.0
H1528 H 0.79765 0.70294 0.83799 0.0
H1529 H 0.8112 0.70024 0.86707 0.0
H1530 H 0.7554 0.69898 0.64151 0.0
H1531 H 0.77154 0.6967 0.61553 0.0
H1532 H 0.7328 0.65348 0.5961 0.0
H1533 H 0.71659 0.65564 0.62206 0.0
H1534 H 0.77721 0.67046 0.60964 0.0
H1535 H 0.74907 0.68147 0.54439 0.0
H1536 H 0.74753 0.68697 0.56981 0.0
H1537 H 0.73641 0.66714 0.56221 0.0
C1538 C 0.7503 0.68902 0.63165 0.0
C1539 C 0.73471 0.67753 0.63374 0.0
C1540 C 0.75955 0.68771 0.61689 0.0
C1541 C 0.75332 0.67498 0.60386 0.0
C1542 C 0.73777 0.66347 0.60592 0.0
H1543 H 0.78933 0.65448 0.49672 0.0
H1544 H 0.77358 0.65254 0.52599 0.0
C1545 C 0.72854 0.66472 0.62075 0.0
C1546 C 0.76308 0.67376 0.58802 0.0
H1547 H 0.76812 0.67497 0.53709 0.0
C1548 C 0.77526 0.67143 0.59376 0.0
C1549 C 0.76043 0.67499 0.56737 0.0
C1550 C 0.74773 0.67789 0.56046 0.0
C1551 C 0.78479 0.67011 0.5793 0.0
C1552 C 0.78227 0.67153 0.5586 0.0
C1553 C 0.77002 0.6738 0.55294 0.0
C1554 C 0.79236 0.67115 0.54246 0.0
C1555 C 0.79726 0.66692 0.58633 0.0
C1556 C 0.80826 0.68198 0.54219 0.0
C1557 C 0.81731 0.68298 0.52556 0.0
C1558 C 0.81056 0.67335 0.50877 0.0
C1559 C 0.79481 0.66208 0.50945 0.0
C1560 C 0.78581 0.66098 0.52613 0.0
H1561 H 0.79459 0.66138 0.60144 0.0
H1562 H 0.79885 0.65934 0.57558 0.0
H1563 H 0.80834 0.67799 0.58751 0.0
H1564 H 0.81353 0.6902 0.55436 0.0
H1565 H 0.82937 0.69193 0.5253 0.0
H1566 H 0.32395 0.05745 0.63847 0.0
H1567 H 0.32198 0.07405 0.61298 0.0
H1568 H 0.36914 0.09039 0.59518 0.0
H1569 H 0.3711 0.07357 0.62042 0.0
H1570 H 0.33877 0.10578 0.60852 0.0
H1571 H 0.34593 0.07651 0.54188 0.0
H1572 H 0.34215 0.06813 0.56678 0.0
H1573 H 0.36132 0.08296 0.55993 0.0
C1574 C 0.33388 0.06451 0.62904 0.0
C1575 C 0.34765 0.06412 0.63133 0.0
C1576 C 0.33275 0.07403 0.61454 0.0
C1577 C 0.34534 0.08333 0.60202 0.0
C1578 C 0.35917 0.08309 0.60442 0.0
H1579 H 0.35681 0.15912 0.52493 0.0
H1580 H 0.35719 0.14386 0.55367 0.0
C1581 C 0.3603 0.07351 0.61888 0.0
C1582 C 0.34394 0.09324 0.58649 0.0
H1583 H 0.34588 0.09978 0.53581 0.0
C1584 C 0.3403 0.10447 0.5926 0.0
C1585 C 0.34574 0.09138 0.56573 0.0
C1586 C 0.34886 0.079 0.55811 0.0
C1587 C 0.33853 0.11397 0.57851 0.0
C1588 C 0.34071 0.11235 0.55779 0.0
C1589 C 0.34427 0.10107 0.55171 0.0
C1590 C 0.33915 0.12199 0.54197 0.0
C1591 C 0.33404 0.12542 0.58589 0.0
C1592 C 0.32879 0.11483 0.52597 0.0
C1593 C 0.32866 0.12349 0.50955 0.0
C1594 C 0.33888 0.13951 0.5088 0.0
C1595 C 0.34868 0.14683 0.52528 0.0
C1596 C 0.34889 0.13811 0.5417 0.0
H1597 H 0.32878 0.12238 0.60115 0.0
H1598 H 0.34452 0.13703 0.58678 0.0
H1599 H 0.32575 0.1261 0.5754 0.0
H1600 H 0.32114 0.10243 0.52586 0.0
H1601 H 0.32097 0.11759 0.49704 0.0
H1602 H 0.97475 0.28283 0.63096 0.0
H1603 H 0.95633 0.26571 0.60569 0.0
H1604 H 0.92964 0.28838 0.61292 0.0
H1605 H 0.94829 0.30584 0.63784 0.0
H1606 H 0.92577 0.24512 0.60977 0.0
H1607 H 0.93428 0.28921 0.55242 0.0
H1608 H 0.94725 0.29346 0.57345 0.0
H1609 H 0.929 0.29256 0.57694 0.0
C1610 C 0.96504 0.28427 0.62703 0.0
C1611 C 0.96301 0.29574 0.63628 0.0
C1612 C 0.95449 0.27445 0.61263 0.0
C1613 C 0.94169 0.27587 0.60721 0.0
C1614 C 0.9396 0.28728 0.6165 0.0
H1615 H 0.86933 0.21949 0.51832 0.0
H1616 H 0.88204 0.23572 0.54807 0.0
C1617 C 0.95023 0.29721 0.6308 0.0
C1618 C 0.93043 0.26511 0.59218 0.0
H1619 H 0.91493 0.26349 0.54569 0.0
C1620 C 0.92335 0.24916 0.59581 0.0
C1621 C 0.92721 0.27037 0.57399 0.0
C1622 C 0.93492 0.28732 0.56882 0.0
C1623 C 0.91343 0.23835 0.58158 0.0
C1624 C 0.91052 0.24363 0.56327 0.0
C1625 C 0.91713 0.25953 0.55987 0.0
C1626 C 0.90207 0.23289 0.54656 0.0
C1627 C 0.90631 0.22136 0.58602 0.0
C1628 C 0.90913 0.22594 0.53607 0.0
C1629 C 0.90202 0.21688 0.51913 0.0
C1630 C 0.88767 0.21452 0.51245 0.0
C1631 C 0.88033 0.22106 0.52332 0.0
C1632 C 0.88759 0.23034 0.54019 0.0
H1633 H 0.90688 0.21914 0.60233 0.0
H1634 H 0.89406 0.21496 0.58107 0.0
H1635 H 0.91266 0.21672 0.57756 0.0
H1636 H 0.92037 0.2279 0.54064 0.0
H1637 H 0.90788 0.21194 0.51098 0.0
H1638 H 0.32751 0.28318 0.62869 0.0
H1639 H 0.32824 0.26579 0.60347 0.0
H1640 H 0.37784 0.28864 0.60896 0.0
H1641 H 0.37722 0.30634 0.63392 0.0
H1642 H 0.36857 0.28315 0.56987 0.0
H1643 H 0.33469 0.2297 0.61434 0.0
H1644 H 0.32465 0.2402 0.61123 0.0
H1645 H 0.34247 0.24868 0.62523 0.0
C1646 C 0.33858 0.28453 0.62448 0.0
C1647 C 0.3523 0.29608 0.63335 0.0
C1648 C 0.33897 0.27449 0.6102 0.0
C1649 C 0.35306 0.27565 0.6047 0.0
C1650 C 0.36683 0.28743 0.61313 0.0
H1651 H 0.3685 0.21929 0.51524 0.0
H1652 H 0.37233 0.23572 0.54481 0.0
C1653 C 0.36645 0.29755 0.62735 0.0
C1654 C 0.35338 0.26476 0.58979 0.0
H1655 H 0.33732 0.22636 0.57897 0.0
C1656 C 0.36195 0.27074 0.572 0.0
C1657 C 0.34485 0.24855 0.59266 0.0
C1658 C 0.33628 0.2414 0.612 0.0
C1659 C 0.36156 0.26094 0.55659 0.0
C1660 C 0.35242 0.24479 0.5591 0.0
C1661 C 0.3443 0.23878 0.57713 0.0
C1662 C 0.34998 0.23405 0.54236 0.0
C1663 C 0.37035 0.26786 0.53733 0.0
C1664 C 0.33606 0.22748 0.53161 0.0
C1665 C 0.3339 0.21824 0.51483 0.0
C1666 C 0.34558 0.21529 0.50856 0.0
C1667 C 0.35931 0.22136 0.51982 0.0
C1668 C 0.36153 0.23077 0.53659 0.0
H1669 H 0.37615 0.28066 0.53725 0.0
H1670 H 0.37926 0.26446 0.53536 0.0
H1671 H 0.36239 0.2633 0.52423 0.0
H1672 H 0.32701 0.22985 0.53591 0.0
H1673 H 0.32316 0.21359 0.5065 0.0
H1674 H 0.75155 0.05609 0.6395 0.0
H1675 H 0.76985 0.07354 0.61436 0.0
H1676 H 0.73867 0.09007 0.59959 0.0
H1677 H 0.72016 0.07241 0.62451 0.0
H1678 H 0.75008 0.08367 0.56619 0.0
H1679 H 0.79811 0.11996 0.61821 0.0
H1680 H 0.7916 0.09975 0.62057 0.0
H1681 H 0.77877 0.1068 0.62695 0.0
C1682 C 0.74859 0.06345 0.63092 0.0
C1683 C 0.73442 0.0629 0.63401 0.0
C1684 C 0.75913 0.07353 0.61668 0.0
C1685 C 0.75579 0.08336 0.60539 0.0
C1686 C 0.74155 0.08268 0.60826 0.0
H1687 H 0.8197 0.15876 0.52664 0.0
H1688 H 0.8035 0.14371 0.55523 0.0
C1689 C 0.73097 0.07257 0.62247 0.0
C1690 C 0.76686 0.09387 0.58999 0.0
H1691 H 0.80421 0.12274 0.58306 0.0
C1692 C 0.76188 0.09227 0.56991 0.0
C1693 C 0.7822 0.10526 0.59489 0.0
C1694 C 0.78797 0.10818 0.61635 0.0
C1695 C 0.77192 0.10144 0.55452 0.0
C1696 C 0.78747 0.11231 0.55926 0.0
C1697 C 0.79235 0.11425 0.57942 0.0
C1698 C 0.79876 0.12163 0.54336 0.0
C1699 C 0.76571 0.0995 0.53333 0.0
C1700 C 0.80201 0.11428 0.52772 0.0
C1701 C 0.81119 0.12281 0.51147 0.0
C1702 C 0.81743 0.13889 0.51063 0.0
C1703 C 0.81506 0.14639 0.52696 0.0
C1704 C 0.80577 0.1378 0.54322 0.0
H1705 H 0.75292 0.09403 0.53317 0.0
H1706 H 0.77073 0.11079 0.52543 0.0
H1707 H 0.76881 0.09194 0.52475 0.0
H1708 H 0.79706 0.10186 0.52779 0.0
H1709 H 0.81302 0.11677 0.49921 0.0
H1710 H 0.96977 0.70644 0.64285 0.0
H1711 H 0.95328 0.70824 0.61707 0.0
H1712 H 0.93896 0.66187 0.59768 0.0
H1713 H 0.95573 0.66011 0.62322 0.0
H1714 H 0.94629 0.68147 0.56619 0.0
H1715 H 0.90672 0.68871 0.61743 0.0
H1716 H 0.92666 0.70277 0.62158 0.0
H1717 H 0.91995 0.68268 0.62624 0.0
C1718 C 0.96309 0.69661 0.63312 0.0
C1719 C 0.96401 0.68311 0.63509 0.0
C1720 C 0.95356 0.69761 0.6185 0.0
C1721 C 0.94462 0.68507 0.60572 0.0
C1722 C 0.94566 0.67164 0.60749 0.0
H1723 H 0.8711 0.67379 0.52453 0.0
H1724 H 0.88586 0.67289 0.55353 0.0
C1725 C 0.95526 0.67066 0.62206 0.0
C1726 C 0.93466 0.68621 0.58998 0.0
H1727 H 0.90526 0.69375 0.58254 0.0
C1728 C 0.93727 0.68408 0.56978 0.0
C1729 C 0.92274 0.6894 0.5947 0.0
C1730 C 0.91872 0.69087 0.61618 0.0
C1731 C 0.92854 0.68538 0.55414 0.0
C1732 C 0.9171 0.68927 0.55877 0.0
C1733 C 0.91421 0.69103 0.579 0.0
C1734 C 0.90788 0.69125 0.54273 0.0
C1735 C 0.93149 0.6823 0.5328 0.0
C1736 C 0.91524 0.70236 0.52757 0.0
C1737 C 0.90686 0.70288 0.51103 0.0
C1738 C 0.89092 0.69241 0.50947 0.0
C1739 C 0.88335 0.68206 0.5254 0.0
C1740 C 0.89178 0.68147 0.5419 0.0
H1741 H 0.93745 0.67547 0.5324 0.0
H1742 H 0.92053 0.676 0.52418 0.0
H1743 H 0.93901 0.69346 0.52511 0.0
H1744 H 0.92758 0.71029 0.52817 0.0
H1745 H 0.91294 0.71109 0.49906 0.0
H1746 H 0.97559 0.69967 0.73919 0.0
H1747 H 0.95724 0.69764 0.76513 0.0
H1748 H 0.92533 0.65104 0.74619 0.0
H1749 H 0.94345 0.65309 0.72004 0.0
H1750 H 0.91105 0.66816 0.75213 0.0
H1751 H 0.94798 0.67349 0.81761 0.0
H1752 H 0.95699 0.68918 0.8 0.0
H1753 H 0.95221 0.67006 0.79235 0.0
C1754 C 0.96469 0.68898 0.74063 0.0
C1755 C 0.961 0.67651 0.72767 0.0
C1756 C 0.95424 0.68781 0.75549 0.0
C1757 C 0.94 0.67411 0.75777 0.0
C1758 C 0.93626 0.66171 0.74473 0.0
H1759 H 0.88214 0.64878 0.86373 0.0
H1760 H 0.89729 0.64925 0.83457 0.0
C1761 C 0.94666 0.66288 0.72984 0.0
C1762 C 0.92893 0.67265 0.77369 0.0
H1763 H 0.92492 0.67377 0.82462 0.0
C1764 C 0.91405 0.66935 0.768 0.0
C1765 C 0.93281 0.67402 0.79438 0.0
C1766 C 0.94831 0.67673 0.80152 0.0
C1767 C 0.90298 0.66752 0.78245 0.0
C1768 C 0.90701 0.66927 0.80311 0.0
C1769 C 0.92186 0.67248 0.80877 0.0
C1770 C 0.89605 0.66769 0.81927 0.0
C1771 C 0.88701 0.66339 0.77548 0.0
C1772 C 0.88996 0.67763 0.82012 0.0
C1773 C 0.88115 0.67728 0.83673 0.0
C1774 C 0.87851 0.66713 0.85285 0.0
C1775 C 0.88407 0.65676 0.85154 0.0
C1776 C 0.89274 0.65704 0.83492 0.0
H1777 H 0.88453 0.65833 0.7601 0.0
H1778 H 0.87805 0.65506 0.78596 0.0
H1779 H 0.88613 0.674 0.77504 0.0
H1780 H 0.8926 0.68615 0.80843 0.0
H1781 H 0.87718 0.68553 0.8375 0.0
H1782 H 0.32865 0.29206 0.74358 0.0
H1783 H 0.32655 0.27337 0.76917 0.0
H1784 H 0.36277 0.26943 0.73959 0.0
H1785 H 0.36512 0.28823 0.7143 0.0
H1786 H 0.31977 0.24284 0.76491 0.0
H1787 H 0.37829 0.27915 0.79736 0.0
H1788 H 0.3695 0.28685 0.78075 0.0
H1789 H 0.37835 0.2765 0.77062 0.0
C1790 C 0.33622 0.28727 0.74263 0.0
C1791 C 0.34715 0.29172 0.72705 0.0
C1792 C 0.33498 0.27656 0.75721 0.0
C1793 C 0.34467 0.27018 0.75647 0.0
C1794 C 0.35541 0.27445 0.74073 0.0
H1795 H 0.35858 0.20766 0.83308 0.0
H1796 H 0.35725 0.22206 0.80399 0.0
C1797 C 0.35669 0.28516 0.72624 0.0
C1798 C 0.34354 0.259 0.77205 0.0
H1799 H 0.36446 0.25302 0.80798 0.0
C1800 C 0.32951 0.24508 0.77439 0.0
C1801 C 0.35627 0.26193 0.78439 0.0
C1802 C 0.37141 0.27697 0.78334 0.0
C1803 C 0.32795 0.23391 0.78854 0.0
C1804 C 0.34072 0.23683 0.80078 0.0
C1805 C 0.35473 0.25073 0.79842 0.0
C1806 C 0.3397 0.22605 0.81686 0.0
C1807 C 0.31275 0.219 0.79009 0.0
C1808 C 0.33001 0.2232 0.83353 0.0
C1809 C 0.33073 0.21495 0.85012 0.0
C1810 C 0.34119 0.20945 0.85038 0.0
C1811 C 0.35028 0.2116 0.83322 0.0
C1812 C 0.34961 0.21992 0.81666 0.0
H1813 H 0.30561 0.21679 0.77633 0.0
H1814 H 0.3146 0.20908 0.79259 0.0
H1815 H 0.30616 0.21967 0.80311 0.0
H1816 H 0.32245 0.22801 0.83416 0.0
H1817 H 0.32354 0.21343 0.8631 0.0
H1818 H 0.73811 0.04782 0.73929 0.0
H1819 H 0.75552 0.06578 0.76489 0.0
H1820 H 0.74804 0.1016 0.7411 0.0
H1821 H 0.73042 0.08368 0.7158 0.0
H1822 H 0.78266 0.09354 0.75987 0.0
H1823 H 0.73941 0.10256 0.80066 0.0
H1824 H 0.73397 0.08717 0.78268 0.0
H1825 H 0.74048 0.10653 0.77415 0.0
C1826 C 0.74009 0.05949 0.73963 0.0
C1827 C 0.73281 0.06431 0.72564 0.0
C1828 C 0.75007 0.06975 0.75421 0.0
C1829 C 0.7529 0.08497 0.7551 0.0
C1830 C 0.74576 0.08983 0.74101 0.0
H1831 H 0.80975 0.1609 0.83795 0.0
H1832 H 0.79509 0.14633 0.80811 0.0
C1833 C 0.73574 0.07958 0.72649 0.0
C1834 C 0.76358 0.09583 0.77051 0.0
H1835 H 0.76555 0.1183 0.8104 0.0
C1836 C 0.77891 0.09895 0.77092 0.0
C1837 C 0.7587 0.10294 0.78486 0.0
C1838 C 0.74221 0.09955 0.78575 0.0
C1839 C 0.78949 0.10897 0.78531 0.0
C1840 C 0.78455 0.11591 0.79978 0.0
C1841 C 0.76931 0.11303 0.79917 0.0
C1842 C 0.79463 0.12524 0.81665 0.0
C1843 C 0.80588 0.11207 0.7849 0.0
C1844 C 0.79927 0.11822 0.83119 0.0
C1845 C 0.80754 0.12645 0.84815 0.0
C1846 C 0.81134 0.14188 0.85093 0.0
C1847 C 0.80709 0.14907 0.83607 0.0
C1848 C 0.79867 0.14076 0.81912 0.0
H1849 H 0.80892 0.10938 0.76994 0.0
H1850 H 0.8142 0.12431 0.78864 0.0
H1851 H 0.80716 0.10467 0.7963 0.0
H1852 H 0.79607 0.1062 0.82974 0.0
H1853 H 0.81072 0.12065 0.85934 0.0
H1854 H 0.04272 0.35465 0.05912 0.0
H1855 H 0.06573 0.35383 0.06965 0.0
H1856 H 0.08735 0.3732 0.01255 0.0
H1857 H 0.06426 0.37396 0.00181 0.0
H1858 H 0.09085 0.34807 0.02538 0.0
H1859 H 0.10711 0.3918 0.08564 0.0
H1860 H 0.08749 0.37628 0.08752 0.0
H1861 H 0.09337 0.38903 0.06611 0.0
C1862 C 0.05235 0.35871 0.04876 0.0
C1863 C 0.05169 0.36444 0.02966 0.0
C1864 C 0.06553 0.35832 0.05485 0.0
C1865 C 0.07837 0.36371 0.04203 0.0
C1866 C 0.07762 0.36908 0.02274 0.0
H1867 H 0.16383 0.37666 0.09735 0.0
H1868 H 0.14725 0.38131 0.07442 0.0
C1869 C 0.06442 0.36951 0.01664 0.0
C1870 C 0.0925 0.36365 0.04888 0.0
H1871 H 0.11923 0.37643 0.08673 0.0
C1872 C 0.09719 0.35442 0.03864 0.0
C1873 C 0.10098 0.37218 0.06592 0.0
C1874 C 0.0971 0.38301 0.07683 0.0
C1875 C 0.10961 0.35285 0.04568 0.0
C1876 C 0.11741 0.36057 0.06353 0.0
C1877 C 0.11323 0.37044 0.0731 0.0
C1878 C 0.12882 0.35745 0.07376 0.0
C1879 C 0.11412 0.34279 0.03406 0.0
C1880 C 0.12421 0.34246 0.08051 0.0
C1881 C 0.13366 0.33982 0.09346 0.0
C1882 C 0.14792 0.35211 0.09997 0.0
C1883 C 0.15302 0.36696 0.09224 0.0
C1884 C 0.1435 0.36963 0.0793 0.0
H1885 H 0.11102 0.34219 0.01787 0.0
H1886 H 0.1267 0.3471 0.03529 0.0
H1887 H 0.10778 0.33088 0.04023 0.0
H1888 H 0.11284 0.33293 0.07688 0.0
H1889 H 0.12938 0.32832 0.09949 0.0
H1890 H 0.66892 0.69774 0.06174 0.0
H1891 H 0.67179 0.72257 0.07134 0.0
H1892 H 0.66914 0.73292 0.00882 0.0
H1893 H 0.66567 0.70773 0.99917 0.0
H1894 H 0.693 0.75162 0.06285 0.0
H1895 H 0.63627 0.73985 0.03267 0.0
H1896 H 0.64146 0.72507 0.03452 0.0
H1897 H 0.649 0.73896 0.01439 0.0
C1898 C 0.66896 0.7053 0.05002 0.0
C1899 C 0.66694 0.70073 0.02972 0.0
C1900 C 0.67063 0.71952 0.05552 0.0
C1901 C 0.67043 0.72956 0.04086 0.0
C1902 C 0.66893 0.72524 0.02047 0.0
H1903 H 0.69228 0.81964 0.09342 0.0
H1904 H 0.69313 0.80219 0.06802 0.0
C1905 C 0.66706 0.71089 0.01496 0.0
C1906 C 0.67158 0.74435 0.04726 0.0
H1907 H 0.65152 0.76367 0.04878 0.0
C1908 C 0.68402 0.75436 0.0596 0.0
C1909 C 0.65983 0.74791 0.04302 0.0
C1910 C 0.64581 0.73735 0.03058 0.0
C1911 C 0.68466 0.76734 0.06868 0.0
C1912 C 0.67274 0.77073 0.06479 0.0
C1913 C 0.66072 0.76116 0.0516 0.0
C1914 C 0.67122 0.78247 0.07673 0.0
C1915 C 0.69754 0.77665 0.08342 0.0
C1916 C 0.65812 0.77758 0.08892 0.0
C1917 C 0.65749 0.78756 0.103 0.0
C1918 C 0.66998 0.80266 0.10531 0.0
C1919 C 0.68251 0.80805 0.09194 0.0
C1920 C 0.68309 0.79802 0.07764 0.0
H1921 H 0.70405 0.77074 0.08755 0.0
H1922 H 0.7058 0.78793 0.07652 0.0
H1923 H 0.69293 0.77888 0.09743 0.0
H1924 H 0.64875 0.76571 0.08845 0.0
H1925 H 0.64764 0.78316 0.11304 0.0
H1926 H 0.33191 0.98318 0.06146 0.0
H1927 H 0.30808 0.96046 0.07277 0.0
H1928 H 0.30253 0.9396 0.01425 0.0
H1929 H 0.32657 0.96221 0.00294 0.0
H1930 H 0.27839 0.9476 0.05854 0.0
H1931 H 0.29947 0.90594 0.05174 0.0
H1932 H 0.31226 0.92656 0.05051 0.0
H1933 H 0.30061 0.91633 0.0291 0.0
C1934 C 0.32562 0.97376 0.05098 0.0
C1935 C 0.33117 0.97445 0.03135 0.0
C1936 C 0.31199 0.96078 0.05746 0.0
C1937 C 0.30362 0.94821 0.04446 0.0
C1938 C 0.30895 0.94901 0.02468 0.0
H1939 H 0.21136 0.8771 0.08758 0.0
H1940 H 0.23142 0.89401 0.06338 0.0
C1941 C 0.32264 0.96198 0.01821 0.0
C1942 C 0.28935 0.93436 0.05182 0.0
H1943 H 0.27386 0.89604 0.06289 0.0
C1944 C 0.27731 0.93628 0.0593 0.0
C1945 C 0.28802 0.91961 0.05289 0.0
C1946 C 0.3008 0.91693 0.0458 0.0
C1947 C 0.26421 0.92403 0.06839 0.0
C1948 C 0.26293 0.90931 0.06967 0.0
C1949 C 0.27476 0.90726 0.06165 0.0
C1950 C 0.25051 0.89661 0.08169 0.0
C1951 C 0.25226 0.92719 0.07755 0.0
C1952 C 0.25453 0.89161 0.09926 0.0
C1953 C 0.24314 0.88187 0.11284 0.0
C1954 C 0.2275 0.87686 0.10909 0.0
C1955 C 0.22333 0.88074 0.09071 0.0
C1956 C 0.23479 0.89054 0.07705 0.0
H1957 H 0.2564 0.93975 0.07852 0.0
H1958 H 0.24169 0.92177 0.0681 0.0
H1959 H 0.24907 0.92216 0.09292 0.0
H1960 H 0.26655 0.89606 0.10313 0.0
H1961 H 0.24662 0.87906 0.12695 0.0
H1962 H 0.348 0.03526 0.97611 0.0
H1963 H 0.34454 0.05684 0.96585 0.0
H1964 H 0.37864 0.08621 0.00943 0.0
H1965 H 0.38221 0.06468 0.01976 0.0
H1966 H 0.33648 0.07629 0.99014 0.0
H1967 H 0.39453 0.10887 0.95435 0.0
H1968 H 0.38561 0.08858 0.96027 0.0
H1969 H 0.39384 0.10269 0.97998 0.0
C1970 C 0.35472 0.04629 0.98357 0.0
C1971 C 0.36545 0.04829 0.99866 0.0
C1972 C 0.3527 0.0586 0.97774 0.0
C1973 C 0.36143 0.07316 0.98675 0.0
C1974 C 0.37191 0.07511 0.00213 0.0
H1975 H 0.37031 0.15886 0.93828 0.0
H1976 H 0.37162 0.14133 0.96319 0.0
C1977 C 0.3739 0.06279 0.00804 0.0
C1978 C 0.35988 0.08635 0.97948 0.0
H1979 H 0.37857 0.11971 0.95219 0.0
C1980 C 0.34572 0.08587 0.98201 0.0
C1981 C 0.372 0.09892 0.96905 0.0
C1982 C 0.38735 0.09985 0.96557 0.0
C1983 C 0.34324 0.09745 0.97397 0.0
C1984 C 0.35511 0.10964 0.96269 0.0
C1985 C 0.36948 0.11042 0.96089 0.0
C1986 C 0.35241 0.12062 0.95063 0.0
C1987 C 0.32787 0.09643 0.97753 0.0
C1988 C 0.34091 0.11491 0.93571 0.0
C1989 C 0.34011 0.12488 0.92167 0.0
C1990 C 0.35086 0.14078 0.92214 0.0
C1991 C 0.36175 0.14669 0.93781 0.0
C1992 C 0.36257 0.13666 0.95191 0.0
H1993 H 0.32263 0.09041 0.99194 0.0
H1994 H 0.32901 0.10805 0.97788 0.0
H1995 H 0.31981 0.08965 0.96521 0.0
H1996 H 0.33318 0.10261 0.93402 0.0
H1997 H 0.33173 0.12004 0.90957 0.0
H1998 H 0.96425 0.32157 0.02671 0.0
H1999 H 0.9418 0.29701 0.0165 0.0
H2000 H 0.96328 0.30012 0.95904 0.0
H2001 H 0.98583 0.32445 0.96928 0.0
H2002 H 0.92194 0.29136 0.98571 0.0
H2003 H 0.94996 0.25633 0.97539 0.0
H2004 H 0.9593 0.27462 0.98842 0.0
H2005 H 0.95963 0.27398 0.96131 0.0
C2006 C 0.96426 0.31691 0.01199 0.0
C2007 C 0.97685 0.32491 0.99883 0.0
C2008 C 0.95141 0.30289 0.00617 0.0
C2009 C 0.95093 0.29656 0.98713 0.0
C2010 C 0.96353 0.30453 0.974 0.0
H2011 H 0.88044 0.24128 0.9057 0.0
H2012 H 0.89702 0.26071 0.9302 0.0
C2013 C 0.97638 0.31851 0.97983 0.0
C2014 C 0.93697 0.28211 0.98043 0.0
H2015 H 0.92558 0.24722 0.95845 0.0
C2016 C 0.92268 0.2816 0.98006 0.0
C2017 C 0.93779 0.26919 0.97348 0.0
C2018 C 0.95247 0.26847 0.97487 0.0
C2019 C 0.90946 0.26895 0.97175 0.0
C2020 C 0.91062 0.25662 0.96324 0.0
C2021 C 0.92466 0.2567 0.96478 0.0
C2022 C 0.89809 0.24443 0.95072 0.0
C2023 C 0.89445 0.26907 0.97191 0.0
C2024 C 0.89286 0.22869 0.95417 0.0
C2025 C 0.88334 0.21752 0.94004 0.0
C2026 C 0.87907 0.22197 0.9222 0.0
C2027 C 0.88345 0.23755 0.91945 0.0
C2028 C 0.8929 0.24867 0.93351 0.0
H2029 H 0.89389 0.27568 0.98501 0.0
H2030 H 0.89365 0.27483 0.95803 0.0
H2031 H 0.88434 0.25719 0.97246 0.0
H2032 H 0.89678 0.22515 0.96727 0.0
H2033 H 0.88031 0.20561 0.94233 0.0
H2034 H 0.70049 0.66818 0.96959 0.0
H2035 H 0.72447 0.66921 0.95961 0.0
H2036 H 0.72918 0.65506 0.01937 0.0
H2037 H 0.70492 0.65369 0.02938 0.0
H2038 H 0.75388 0.68649 0.97435 0.0
H2039 H 0.73293 0.62387 0.98398 0.0
H2040 H 0.72004 0.63157 0.98404 0.0
H2041 H 0.73156 0.63365 0.00588 0.0
C2042 C 0.70661 0.66529 0.98064 0.0
C2043 C 0.70076 0.66078 0.00025 0.0
C2044 C 0.72034 0.66591 0.97492 0.0
C2045 C 0.72854 0.66201 0.98864 0.0
C2046 C 0.72291 0.65781 0.00839 0.0
H2047 H 0.82044 0.68258 0.94483 0.0
H2048 H 0.80091 0.67998 0.96949 0.0
C2049 C 0.70909 0.65713 0.01412 0.0
C2050 C 0.74292 0.66239 0.98197 0.0
H2051 H 0.75834 0.63938 0.97216 0.0
C2052 C 0.75496 0.67624 0.9741 0.0
C2053 C 0.74426 0.64897 0.98157 0.0
C2054 C 0.73149 0.63362 0.98916 0.0
C2055 C 0.768 0.67694 0.96512 0.0
C2056 C 0.76924 0.66346 0.96439 0.0
C2057 C 0.75747 0.64973 0.97295 0.0
C2058 C 0.78143 0.66288 0.95225 0.0
C2059 C 0.77987 0.69188 0.95541 0.0
C2060 C 0.77706 0.65337 0.93516 0.0
C2061 C 0.78815 0.65469 0.92133 0.0
C2062 C 0.80385 0.66553 0.92431 0.0
C2063 C 0.80841 0.67409 0.94226 0.0
C2064 C 0.79725 0.67275 0.9562 0.0
H2065 H 0.77576 0.7003 0.95412 0.0
H2066 H 0.79055 0.69723 0.96466 0.0
H2067 H 0.78287 0.68974 0.9401 0.0
H2068 H 0.76496 0.64561 0.93182 0.0
H2069 H 0.78436 0.64795 0.90759 0.0
H2070 H 0.96391 0.64488 0.01632 0.0
H2071 H 0.94196 0.64746 0.00488 0.0
H2072 H 0.97251 0.68561 0.9668 0.0
H2073 H 0.99433 0.68287 0.97774 0.0
H2074 H 0.93545 0.67157 0.00561 0.0
H2075 H 0.94053 0.65589 0.92708 0.0
H2076 H 0.95067 0.65325 0.94778 0.0
H2077 H 0.95813 0.67194 0.93626 0.0
C2078 C 0.96594 0.65385 0.00556 0.0
C2079 C 0.98082 0.66354 0.99773 0.0
C2080 C 0.9534 0.65533 0.99908 0.0
C2081 C 0.95553 0.66653 0.98468 0.0
C2082 C 0.97051 0.67664 0.97755 0.0
H2083 H 0.90275 0.69658 0.91731 0.0
H2084 H 0.92158 0.6955 0.93982 0.0
C2085 C 0.98299 0.6751 0.98388 0.0
C2086 C 0.94213 0.66738 0.97649 0.0
H2087 H 0.92411 0.66641 0.93231 0.0
C2088 C 0.93287 0.67031 0.98961 0.0
C2089 C 0.93865 0.66555 0.95563 0.0
C2090 C 0.94741 0.66132 0.94089 0.0
C2091 C 0.92061 0.67205 0.98226 0.0
C2092 C 0.9176 0.67083 0.96135 0.0
C2093 C 0.92659 0.66752 0.94834 0.0
C2094 C 0.90538 0.67315 0.95225 0.0
C2095 C 0.91114 0.67554 0.99667 0.0
C2096 C 0.88988 0.66122 0.95245 0.0
C2097 C 0.87906 0.66188 0.93964 0.0
C2098 C 0.88367 0.67445 0.9265 0.0
C2099 C 0.89888 0.68691 0.92758 0.0
C2100 C 0.90965 0.68625 0.94032 0.0
H2101 H 0.91554 0.67711 0.01237 0.0
H2102 H 0.91116 0.68616 0.9918 0.0
H2103 H 0.89898 0.66593 0.99641 0.0
H2104 H 0.88642 0.65092 0.96134 0.0
H2105 H 0.86749 0.65199 0.93871 0.0
H2106 H 0.35884 0.32502 0.9691 0.0
H2107 H 0.35703 0.30091 0.95796 0.0
H2108 H 0.37915 0.29897 0.01282 0.0
H2109 H 0.38086 0.32308 0.0242 0.0
H2110 H 0.38162 0.29543 0.95187 0.0
H2111 H 0.3404 0.25562 0.00936 0.0
H2112 H 0.34316 0.27461 0.00476 0.0
H2113 H 0.3573 0.27245 0.01879 0.0
C2114 C 0.36323 0.31942 0.97887 0.0
C2115 C 0.36995 0.32593 0.99756 0.0
C2116 C 0.36221 0.30565 0.97247 0.0
C2117 C 0.36783 0.29806 0.98463 0.0
C2118 C 0.37452 0.30449 0.00334 0.0
H2119 H 0.37782 0.22444 0.92627 0.0
H2120 H 0.38351 0.24568 0.9497 0.0
C2121 C 0.37554 0.3183 0.00977 0.0
C2122 C 0.36703 0.28368 0.97723 0.0
H2123 H 0.34935 0.24474 0.98515 0.0
C2124 C 0.37471 0.28437 0.95926 0.0
C2125 C 0.35796 0.26927 0.98689 0.0
C2126 C 0.34912 0.26781 0.00595 0.0
C2127 C 0.37321 0.27099 0.95031 0.0
C2128 C 0.36396 0.25651 0.95979 0.0
C2129 C 0.3566 0.25587 0.97807 0.0
C2130 C 0.36021 0.24187 0.9495 0.0
C2131 C 0.38088 0.27236 0.93022 0.0
C2132 C 0.34507 0.23213 0.94271 0.0
C2133 C 0.34182 0.22001 0.92955 0.0
C2134 C 0.35363 0.21734 0.92304 0.0
C2135 C 0.36851 0.22621 0.93121 0.0
C2136 C 0.37178 0.23842 0.94439 0.0
H2137 H 0.38538 0.28397 0.92336 0.0
H2138 H 0.39072 0.27034 0.93231 0.0
H2139 H 0.37263 0.26357 0.9195 0.0
H2140 H 0.33595 0.23454 0.94649 0.0
H2141 H 0.33026 0.21333 0.9234 0.0
H2142 H 0.7034 0.03734 0.97182 0.0
H2143 H 0.72818 0.05919 0.96132 0.0
H2144 H 0.72932 0.08414 0.01478 0.0
H2145 H 0.70437 0.06225 0.02543 0.0
H2146 H 0.73341 0.09087 0.95583 0.0
H2147 H 0.77309 0.08676 0.01121 0.0
H2148 H 0.75451 0.07035 0.00492 0.0
H2149 H 0.75555 0.08548 0.02044 0.0
C2150 C 0.70895 0.04741 0.98146 0.0
C2151 C 0.70191 0.04807 0.99946 0.0
C2152 C 0.72312 0.05989 0.97542 0.0
C2153 C 0.73063 0.07323 0.98733 0.0
C2154 C 0.72378 0.07387 0.00548 0.0
H2155 H 0.80508 0.1588 0.93428 0.0
H2156 H 0.78472 0.14197 0.95812 0.0
C2157 C 0.70952 0.06139 0.0115 0.0
C2158 C 0.74518 0.08669 0.98 0.0
H2159 H 0.78436 0.10646 0.98672 0.0
C2160 C 0.74454 0.09443 0.96273 0.0
C2161 C 0.75966 0.09121 0.98899 0.0
C2162 C 0.7609 0.08303 0.00738 0.0
C2163 C 0.75801 0.10636 0.95391 0.0
C2164 C 0.77255 0.11076 0.9627 0.0
C2165 C 0.77319 0.10319 0.98019 0.0
C2166 C 0.78711 0.12199 0.95247 0.0
C2167 C 0.75668 0.11374 0.93474 0.0
C2168 C 0.79574 0.11658 0.94232 0.0
C2169 C 0.80734 0.12614 0.9288 0.0
C2170 C 0.81059 0.14134 0.92536 0.0
C2171 C 0.80293 0.1472 0.9369 0.0
C2172 C 0.79123 0.13756 0.95036 0.0
H2173 H 0.7448 0.10754 0.92837 0.0
H2174 H 0.75971 0.12583 0.93788 0.0
H2175 H 0.76485 0.11405 0.9232 0.0
H2176 H 0.79274 0.1046 0.94371 0.0
H2177 H 0.81299 0.12134 0.91992 0.0
H2178 H 0.65374 0.96145 0.00098 0.0
H2179 H 0.6552 0.93871 0.01155 0.0
H2180 H 0.67259 0.95968 0.06958 0.0
H2181 H 0.67147 0.98246 0.05901 0.0
H2182 H 0.68863 0.94651 0.05407 0.0
H2183 H 0.62537 0.90538 0.05014 0.0
H2184 H 0.6342 0.91563 0.02725 0.0
H2185 H 0.63345 0.92602 0.04886 0.0
C2186 C 0.65791 0.9612 0.01596 0.0
C2187 C 0.66243 0.97372 0.02919 0.0
C2188 C 0.65865 0.94817 0.02203 0.0
C2189 C 0.66378 0.94737 0.04148 0.0
C2190 C 0.66856 0.96 0.05452 0.0
H2191 H 0.65206 0.88009 0.12576 0.0
H2192 H 0.64921 0.89666 0.10119 0.0
C2193 C 0.66789 0.97302 0.04846 0.0
C2194 C 0.66416 0.93347 0.04856 0.0
H2195 H 0.64102 0.89551 0.0613 0.0
C2196 C 0.67826 0.9353 0.05541 0.0
C2197 C 0.65059 0.91885 0.05039 0.0
C2198 C 0.635 0.91629 0.04394 0.0
C2199 C 0.67909 0.92314 0.06478 0.0
C2200 C 0.66547 0.9086 0.06697 0.0
C2201 C 0.65147 0.90659 0.0594 0.0
C2202 C 0.66518 0.89619 0.07964 0.0
C2203 C 0.69439 0.92628 0.07334 0.0
C2204 C 0.67449 0.88971 0.07526 0.0
C2205 C 0.67614 0.88018 0.08938 0.0
C2206 C 0.66845 0.877 0.10799 0.0
C2207 C 0.65815 0.88242 0.11154 0.0
C2208 C 0.65652 0.8919 0.0975 0.0
H2209 H 0.70308 0.9388 0.07353 0.0
H2210 H 0.69293 0.92176 0.08897 0.0
H2211 H 0.69903 0.92035 0.06399 0.0
H2212 H 0.68105 0.89262 0.06138 0.0
H2213 H 0.68418 0.87618 0.08635 0.0
H2214 H 0.04719 0.69852 0.06014 0.0
H2215 H 0.06873 0.72355 0.07027 0.0
H2216 H 0.08473 0.73297 0.00874 0.0
H2217 H 0.0634 0.70763 0.99861 0.0
H2218 H 0.10809 0.74016 0.03321 0.0
H2219 H 0.07515 0.76606 0.06396 0.0
H2220 H 0.06911 0.7478 0.07574 0.0
H2221 H 0.06613 0.74863 0.04907 0.0
C2222 C 0.05521 0.70597 0.04873 0.0
C2223 C 0.05357 0.70112 0.02857 0.0
C2224 C 0.06746 0.72036 0.05451 0.0
C2225 C 0.07819 0.73036 0.04021 0.0
C2226 C 0.07654 0.72554 0.02002 0.0
H2227 H 0.14534 0.81948 0.09428 0.0
H2228 H 0.12757 0.80207 0.0683 0.0
C2229 C 0.06435 0.71106 0.01425 0.0
C2230 C 0.09162 0.74533 0.04669 0.0
H2231 H 0.10132 0.77663 0.07654 0.0
C2232 C 0.1066 0.74828 0.04236 0.0
C2233 C 0.0898 0.75623 0.05815 0.0
C2234 C 0.07416 0.7546 0.06178 0.0
C2235 C 0.1197 0.76119 0.05043 0.0
C2236 C 0.11777 0.77119 0.06362 0.0
C2237 C 0.10286 0.76888 0.06668 0.0
C2238 C 0.13061 0.78279 0.07635 0.0
C2239 C 0.13546 0.76376 0.045 0.0
C2240 C 0.13852 0.77791 0.08914 0.0
C2241 C 0.14868 0.78783 0.10372 0.0
C2242 C 0.15104 0.8028 0.10606 0.0
C2243 C 0.14385 0.80806 0.09259 0.0
C2244 C 0.13363 0.79808 0.07788 0.0
H2245 H 0.13546 0.75956 0.02952 0.0
H2246 H 0.14446 0.77615 0.04594 0.0
H2247 H 0.13854 0.7571 0.05551 0.0
H2248 H 0.13614 0.76611 0.08872 0.0
H2249 H 0.15402 0.78348 0.11401 0.0
H2250 H 0.3335 0.38126 0.01343 0.0
H2251 H 0.30883 0.37819 0.02506 0.0
H2252 H 0.29907 0.33657 0.05661 0.0
H2253 H 0.32381 0.3398 0.04552 0.0
H2254 H 0.27814 0.35518 0.0212 0.0
H2255 H 0.29624 0.36252 0.1013 0.0
H2256 H 0.30963 0.36667 0.08086 0.0
H2257 H 0.29735 0.34709 0.08922 0.0
C2258 C 0.32605 0.37142 0.02278 0.0
C2259 C 0.33068 0.36088 0.02878 0.0
C2260 C 0.31195 0.36966 0.02938 0.0
C2261 C 0.30223 0.35732 0.04205 0.0
C2262 C 0.30654 0.3464 0.04726 0.0
H2263 H 0.2189 0.32843 0.10973 0.0
H2264 H 0.23863 0.32867 0.0877 0.0
C2265 C 0.32066 0.34822 0.04084 0.0
C2266 C 0.28789 0.35612 0.0505 0.0
H2267 H 0.26981 0.35401 0.09501 0.0
C2268 C 0.27634 0.35499 0.03733 0.0
C2269 C 0.28559 0.35605 0.07156 0.0
C2270 C 0.29792 0.35831 0.08656 0.0
C2271 C 0.26238 0.35333 0.04473 0.0
C2272 C 0.25998 0.35282 0.06576 0.0
C2273 C 0.27161 0.35418 0.07886 0.0
C2274 C 0.24564 0.3511 0.07484 0.0
C2275 C 0.25017 0.35184 0.0301 0.0
C2276 C 0.24258 0.36334 0.07429 0.0
C2277 C 0.2312 0.36316 0.08681 0.0
C2278 C 0.22277 0.35072 0.09999 0.0
C2279 C 0.22503 0.33798 0.09936 0.0
C2280 C 0.23638 0.33818 0.08691 0.0
H2281 H 0.2527 0.34989 0.01442 0.0
H2282 H 0.23867 0.34216 0.03458 0.0
H2283 H 0.24955 0.3626 0.03038 0.0
H2284 H 0.24976 0.37354 0.06536 0.0
H2285 H 0.22992 0.37327 0.08745 0.0
H2286 H 0.71004 0.68993 0.39629 0.0
H2287 H 0.73319 0.68931 0.40656 0.0
H2288 H 0.75338 0.70621 0.34804 0.0
H2289 H 0.73011 0.70672 0.33755 0.0
H2290 H 0.75698 0.68169 0.3618 0.0
H2291 H 0.7751 0.72699 0.42016 0.0
H2292 H 0.75548 0.71174 0.42327 0.0
H2293 H 0.76085 0.7238 0.4012 0.0
C2294 C 0.71939 0.69352 0.38558 0.0
C2295 C 0.71827 0.69846 0.36614 0.0
C2296 C 0.73267 0.69325 0.39152 0.0
C2297 C 0.74515 0.69799 0.3782 0.0
C2298 C 0.74394 0.70262 0.35862 0.0
H2299 H 0.83034 0.70989 0.43313 0.0
H2300 H 0.81407 0.71483 0.40999 0.0
C2301 C 0.73065 0.70291 0.35265 0.0
C2302 C 0.7593 0.69788 0.3848 0.0
H2303 H 0.78657 0.71099 0.42198 0.0
C2304 C 0.76359 0.68826 0.37479 0.0
C2305 C 0.76816 0.70671 0.40145 0.0
C2306 C 0.76478 0.71802 0.41202 0.0
C2307 C 0.77593 0.68654 0.38175 0.0
C2308 C 0.78405 0.69449 0.39932 0.0
C2309 C 0.78032 0.7048 0.40859 0.0
C2310 C 0.79526 0.69114 0.40966 0.0
C2311 C 0.78001 0.67604 0.37036 0.0
C2312 C 0.79032 0.67614 0.41667 0.0
C2313 C 0.79959 0.67334 0.42973 0.0
C2314 C 0.81398 0.68547 0.43613 0.0
C2315 C 0.81941 0.70031 0.42814 0.0
C2316 C 0.81007 0.70314 0.41507 0.0
H2317 H 0.77689 0.67539 0.35417 0.0
H2318 H 0.79252 0.68001 0.37157 0.0
H2319 H 0.77338 0.66421 0.3767 0.0
H2320 H 0.77885 0.66676 0.41316 0.0
H2321 H 0.79508 0.66184 0.43591 0.0
H2322 H 0.3162 0.03459 0.34084 0.0
H2323 H 0.32026 0.05997 0.35057 0.0
H2324 H 0.35658 0.06607 0.39114 0.0
H2325 H 0.35257 0.04069 0.38155 0.0
H2326 H 0.31757 0.0683 0.39107 0.0
H2327 H 0.37564 0.10738 0.3591 0.0
H2328 H 0.36352 0.08775 0.35054 0.0
H2329 H 0.37422 0.09156 0.37364 0.0
C2330 C 0.32517 0.04141 0.35167 0.0
C2331 C 0.33407 0.03564 0.36044 0.0
C2332 C 0.32748 0.05591 0.3572 0.0
C2333 C 0.33886 0.065 0.37137 0.0
C2334 C 0.34793 0.05937 0.3799 0.0
H2335 H 0.36732 0.14167 0.44781 0.0
H2336 H 0.3658 0.1226 0.42365 0.0
C2337 C 0.34555 0.04483 0.3745 0.0
C2338 C 0.34044 0.07978 0.37847 0.0
H2339 H 0.36624 0.11834 0.38326 0.0
C2340 C 0.3281 0.0793 0.3891 0.0
C2341 C 0.35422 0.09409 0.3759 0.0
C2342 C 0.36763 0.09533 0.36403 0.0
C2343 C 0.32944 0.09259 0.39818 0.0
C2344 C 0.34338 0.10689 0.39605 0.0
C2345 C 0.35553 0.10744 0.38477 0.0
C2346 C 0.34617 0.12083 0.40751 0.0
C2347 C 0.31623 0.09094 0.41099 0.0
C2348 C 0.33629 0.12699 0.40569 0.0
C2349 C 0.33712 0.13791 0.41962 0.0
C2350 C 0.34794 0.1429 0.4354 0.0
C2351 C 0.35883 0.13795 0.43582 0.0
C2352 C 0.35795 0.12702 0.42203 0.0
H2353 H 0.30778 0.07867 0.41447 0.0
H2354 H 0.32055 0.09729 0.42543 0.0
H2355 H 0.31001 0.09585 0.40279 0.0
H2356 H 0.32736 0.12268 0.39425 0.0
H2357 H 0.32856 0.1415 0.41901 0.0
H2358 H 0.99673 0.32115 0.38866 0.0
H2359 H 0.97334 0.29854 0.40131 0.0
H2360 H 0.97693 0.27052 0.35474 0.0
H2361 H 1.00026 0.29316 0.34183 0.0
H2362 H 0.94649 0.26442 0.36073 0.0
H2363 H 0.97416 0.26375 0.43287 0.0
H2364 H 0.97537 0.28192 0.42763 0.0
H2365 H 0.9851 0.27511 0.41147 0.0
C2366 C 0.99251 0.3102 0.38104 0.0
C2367 C 1.00042 0.30892 0.36433 0.0
C2368 C 0.97917 0.29727 0.38834 0.0
C2369 C 0.97354 0.28278 0.37919 0.0
C2370 C 0.98112 0.28157 0.3621 0.0
H2371 H 0.90909 0.20031 0.4459 0.0
H2372 H 0.93005 0.21754 0.42316 0.0
C2373 C 0.99446 0.29451 0.35477 0.0
C2374 C 0.95997 0.26886 0.38779 0.0
H2375 H 0.9469 0.24754 0.43092 0.0
C2376 C 0.94659 0.26064 0.37603 0.0
C2377 C 0.96021 0.26374 0.4076 0.0
C2378 C 0.97452 0.27148 0.42058 0.0
C2379 C 0.93325 0.24776 0.38382 0.0
C2380 C 0.93325 0.24313 0.40399 0.0
C2381 C 0.94683 0.25107 0.41548 0.0
C2382 C 0.91921 0.23064 0.41403 0.0
C2383 C 0.91934 0.23923 0.37034 0.0
C2384 C 0.90587 0.23186 0.41591 0.0
C2385 C 0.89381 0.22185 0.42863 0.0
C2386 C 0.89492 0.21052 0.43976 0.0
C2387 C 0.90783 0.20871 0.43705 0.0
C2388 C 0.91985 0.21865 0.42423 0.0
H2389 H 0.9227 0.24079 0.35418 0.0
H2390 H 0.9129 0.22669 0.37383 0.0
H2391 H 0.91146 0.24389 0.37264 0.0
H2392 H 0.90522 0.24122 0.40867 0.0
H2393 H 0.88416 0.22372 0.43098 0.0
H2394 H 0.05139 0.39893 0.35252 0.0
H2395 H 0.04955 0.42116 0.34073 0.0
H2396 H 0.02034 0.39389 0.29166 0.0
H2397 H 0.02227 0.37169 0.30321 0.0
H2398 H 0.04453 0.42244 0.27959 0.0
H2399 H 0.01302 0.42887 0.34431 0.0
H2400 H 0.03028 0.42851 0.3507 0.0
H2401 H 0.01408 0.41161 0.34021 0.0
C2402 C 0.04446 0.39764 0.33931 0.0
C2403 C 0.03695 0.38354 0.3288 0.0
C2404 C 0.04336 0.41033 0.33266 0.0
C2405 C 0.03466 0.40915 0.31545 0.0
C2406 C 0.02708 0.39506 0.30502 0.0
H2407 H 0.9991 0.46179 0.26097 0.0
H2408 H 1.0042 0.44513 0.28284 0.0
C2409 C 0.02817 0.38237 0.31165 0.0
C2410 C 0.03396 0.42273 0.30768 0.0
H2411 H 0.0212 0.44781 0.31867 0.0
C2412 C 0.03952 0.42806 0.28818 0.0
C2413 C 0.02735 0.42999 0.31888 0.0
C2414 C 0.02071 0.42442 0.33963 0.0
C2415 C 0.03845 0.44027 0.27945 0.0
C2416 C 0.03188 0.44758 0.29065 0.0
C2417 C 0.02646 0.44237 0.31024 0.0
C2418 C 0.02907 0.45945 0.28132 0.0
C2419 C 0.04379 0.44482 0.25797 0.0
C2420 C 0.04135 0.47349 0.27414 0.0
C2421 C 0.03843 0.48309 0.26174 0.0
C2422 C 0.02319 0.47879 0.2565 0.0
C2423 C 1.01093 0.46543 0.26508 0.0
C2424 C 0.01384 0.45587 0.27746 0.0
H2425 H 0.04583 0.43617 0.25026 0.0
H2426 H 0.03514 0.44624 0.24916 0.0
H2427 H 0.05478 0.45603 0.25789 0.0
H2428 H 0.05319 0.47655 0.27713 0.0
H2429 H 0.04805 0.49321 0.25502 0.0
H2430 H 0.65745 0.65231 0.31403 0.0
H2431 H 0.63609 0.62697 0.30398 0.0
H2432 H 0.60628 0.63134 0.34702 0.0
H2433 H 0.62759 0.65667 0.35723 0.0
H2434 H 0.61577 0.59913 0.33018 0.0
H2435 H 0.58502 0.62466 0.28973 0.0
H2436 H 0.60538 0.63579 0.29552 0.0
H2437 H 0.59137 0.63095 0.31513 0.0
C2438 C 0.64638 0.64783 0.32146 0.0
C2439 C 0.64418 0.65653 0.33635 0.0
C2440 C 0.63421 0.63335 0.31575 0.0
C2441 C 0.6196 0.62735 0.32467 0.0
C2442 C 0.61745 0.63582 0.33986 0.0
H2443 H 0.53487 0.551 0.27363 0.0
H2444 H 0.55172 0.56991 0.29891 0.0
C2445 C 0.62964 0.65027 0.34569 0.0
C2446 C 0.6065 0.61254 0.31738 0.0
H2447 H 0.57413 0.59782 0.28809 0.0
C2448 C 0.60656 0.59878 0.32114 0.0
C2449 C 0.59443 0.61212 0.3058 0.0
C2450 C 0.59396 0.62663 0.30114 0.0
C2451 C 0.59502 0.58462 0.31321 0.0
C2452 C 0.58336 0.58429 0.30075 0.0
C2453 C 0.583 0.598 0.29769 0.0
C2454 C 0.57255 0.57044 0.2888 0.0
C2455 C 0.59552 0.57017 0.3182 0.0
C2456 C 0.5785 0.56401 0.27521 0.0
C2457 C 0.56889 0.55315 0.26099 0.0
C2458 C 0.55314 0.5486 0.25987 0.0
C2459 C 0.54692 0.55416 0.27435 0.0
C2460 C 0.55657 0.56506 0.28866 0.0
H2461 H 0.60085 0.57112 0.33322 0.0
H2462 H 0.58379 0.5598 0.31811 0.0
H2463 H 0.60274 0.56857 0.30687 0.0
H2464 H 0.59078 0.56817 0.2746 0.0
H2465 H 0.57399 0.5491 0.24991 0.0
H2466 H 0.36966 0.98464 0.35789 0.0
H2467 H 0.39344 0.9855 0.34672 0.0
H2468 H 0.39072 1.00501 0.28993 0.0
H2469 H 0.3669 1.00397 0.30085 0.0
H2470 H 0.39617 0.98068 0.28556 0.0
H2471 H 0.43681 0.02322 0.34113 0.0
H2472 H 0.42019 1.00667 0.3516 0.0
H2473 H 0.41772 0.02031 0.3368 0.0
C2474 C 0.37419 0.9892 0.34307 0.0
C2475 C 0.36641 0.99427 0.33027 0.0
C2476 C 0.38783 0.98976 0.33675 0.0
C2477 C 0.39398 0.99548 0.31757 0.0
C2478 C 0.38622 1.00057 0.30481 0.0
H2479 H 0.47923 0.02969 0.25718 0.0
H2480 H 0.45798 0.02513 0.2796 0.0
C2481 C 0.37261 1.0 0.31109 0.0
C2482 C 0.40823 0.99582 0.31035 0.0
H2483 H 0.44718 0.01288 0.31814 0.0
C2484 C 0.40731 0.98759 0.29279 0.0
C2485 C 0.42276 1.00491 0.31976 0.0
C2486 C 0.42455 0.0144 0.33828 0.0
C2487 C 0.42053 0.98852 0.28407 0.0
C2488 C 0.4351 0.99772 0.29337 0.0
C2489 C 0.43599 1.00567 0.3112 0.0
C2490 C 0.44965 1.00073 0.28334 0.0
C2491 C 0.41889 0.98027 0.26439 0.0
C2492 C 0.45257 0.9887 0.27884 0.0
C2493 C 0.46482 0.99133 0.26604 0.0
C2494 C 0.4743 1.00602 0.25767 0.0
C2495 C 0.47211 0.01827 0.26355 0.0
C2496 C 0.45995 0.01567 0.27631 0.0
H2497 H 0.40736 0.97604 0.2574 0.0
H2498 H 0.42788 0.98802 0.2535 0.0
H2499 H 0.42039 0.97017 0.26713 0.0
H2500 H 0.4449 0.97713 0.28435 0.0
H2501 H 0.46618 0.98168 0.26156 0.0
H2502 H 0.65589 1.00511 0.30066 0.0
H2503 H 0.63384 0.00776 0.2905 0.0
H2504 H 0.61319 0.99181 0.34902 0.0
H2505 H 0.63532 0.98916 0.35937 0.0
H2506 H 0.6024 0.98344 0.28994 0.0
H2507 H 0.61134 0.03205 0.33948 0.0
H2508 H 0.62657 0.02789 0.33408 0.0
H2509 H 0.6115 0.01599 0.35144 0.0
C2510 C 0.64672 1.00226 0.31144 0.0
C2511 C 0.64736 0.99693 0.33083 0.0
C2512 C 0.63412 1.00378 0.3056 0.0
C2513 C 0.62194 1.00012 0.31905 0.0
C2514 C 0.62257 0.99491 0.3385 0.0
H2515 H 0.5341 0.98636 0.27133 0.0
H2516 H 0.55216 0.98436 0.29458 0.0
C2517 C 0.63518 0.99333 0.34435 0.0
C2518 C 0.60834 1.00114 0.3122 0.0
H2519 H 0.58955 0.02152 0.31806 0.0
C2520 C 0.59948 0.99165 0.29623 0.0
C2521 C 0.60463 0.01193 0.32036 0.0
C2522 C 0.61403 0.02266 0.3372 0.0
C2523 C 0.5872 0.99283 0.28792 0.0
C2524 C 0.58354 1.00369 0.29596 0.0
C2525 C 0.59225 0.01306 0.31213 0.0
C2526 C 0.57175 1.00642 0.28622 0.0
C2527 C 0.57864 0.98288 0.27003 0.0
C2528 C 0.57656 0.01988 0.27481 0.0
C2529 C 0.56626 0.02105 0.26168 0.0
C2530 C 0.55095 0.00885 0.25991 0.0
C2531 C 0.54576 0.99602 0.27272 0.0
C2532 C 0.55611 0.99481 0.28581 0.0
H2533 H 0.5845 0.9769 0.26367 0.0
H2534 H 0.56683 0.97398 0.27474 0.0
H2535 H 0.57751 0.98995 0.25796 0.0
H2536 H 0.58857 0.02895 0.27487 0.0
H2537 H 0.57056 0.03093 0.2517 0.0
H2538 H 0.03707 0.6513 0.36342 0.0
H2539 H 0.03426 0.62657 0.35257 0.0
H2540 H 0.02747 0.63633 0.29131 0.0
H2541 H 0.03027 0.66097 0.30196 0.0
H2542 H 1.00867 0.60117 0.33127 0.0
H2543 H 0.06355 0.62705 0.28829 0.0
H2544 H 0.05953 0.63769 0.30693 0.0
H2545 H 0.05146 0.63498 0.28204 0.0
C2546 C 0.03497 0.64816 0.34764 0.0
C2547 C 0.03397 0.65812 0.33352 0.0
C2548 C 0.03335 0.63403 0.34149 0.0
C2549 C 0.03087 0.62973 0.32111 0.0
C2550 C 0.02963 0.63955 0.30707 0.0
H2551 H 0.99587 0.54998 0.24992 0.0
H2552 H 0.99913 0.56934 0.2748 0.0
C2553 C 0.03117 0.6536 0.31319 0.0
C2554 C 0.02951 0.615 0.3143 0.0
H2555 H 0.04535 0.60056 0.28157 0.0
C2556 C 0.0168 0.60099 0.32064 0.0
C2557 C 0.04027 0.61477 0.30073 0.0
C2558 C 0.05456 0.62941 0.29422 0.0
C2559 C 0.01409 0.5868 0.31279 0.0
C2560 C 0.02429 0.58667 0.29814 0.0
C2561 C 0.03748 0.60063 0.29274 0.0
C2562 C 0.02076 0.57259 0.28653 0.0
C2563 C 1.00018 0.57211 0.31998 0.0
C2564 C 0.03163 0.56765 0.28512 0.0
C2565 C 0.02973 0.5565 0.27089 0.0
C2566 C 0.01704 0.55031 0.2577 0.0
C2567 C 1.00567 0.55449 0.26007 0.0
C2568 C 1.00751 0.56553 0.27434 0.0
H2569 H 0.99677 0.57347 0.33543 0.0
H2570 H 0.9903 0.56921 0.30979 0.0
H2571 H 1.00243 0.56231 0.31993 0.0
H2572 H 0.042 0.57303 0.29427 0.0
H2573 H 0.03876 0.55363 0.26913 0.0
H2574 H 0.37006 0.3952 0.36136 0.0
H2575 H 0.39466 0.41799 0.3519 0.0
H2576 H 0.3926 0.39748 0.29401 0.0
H2577 H 0.36838 0.37459 0.3036 0.0
H2578 H 0.42117 0.41065 0.3095 0.0
H2579 H 0.39939 0.45182 0.31442 0.0
H2580 H 0.39793 0.44159 0.3373 0.0
H2581 H 0.38673 0.4312 0.31565 0.0
C2582 C 0.37492 0.39555 0.34666 0.0
C2583 C 0.36725 0.38312 0.33319 0.0
C2584 C 0.38892 0.40863 0.34121 0.0
C2585 C 0.39538 0.40961 0.32208 0.0
C2586 C 0.38786 0.39704 0.30883 0.0
H2587 H 0.45201 0.4793 0.24091 0.0
H2588 H 0.43249 0.46251 0.26521 0.0
C2589 C 0.37399 0.38395 0.31433 0.0
C2590 C 0.40985 0.42366 0.31551 0.0
H2591 H 0.42523 0.46196 0.30437 0.0
C2592 C 0.42214 0.42192 0.30858 0.0
C2593 C 0.41108 0.43836 0.31423 0.0
C2594 C 0.39806 0.44091 0.32062 0.0
C2595 C 0.43529 0.43422 0.29962 0.0
C2596 C 0.43644 0.44888 0.29806 0.0
C2597 C 0.42443 0.45079 0.30577 0.0
C2598 C 0.44877 0.46157 0.28585 0.0
C2599 C 0.44735 0.43109 0.29076 0.0
C2600 C 0.46457 0.46745 0.28989 0.0
C2601 C 0.47581 0.47706 0.27585 0.0
C2602 C 0.47137 0.48101 0.25773 0.0
C2603 C 0.45573 0.47637 0.25474 0.0
C2604 C 0.44456 0.46675 0.26863 0.0
H2605 H 0.44322 0.41854 0.28976 0.0
H2606 H 0.45072 0.43615 0.27543 0.0
H2607 H 0.4578 0.43645 0.30045 0.0
H2608 H 0.46815 0.46394 0.30334 0.0
H2609 H 0.48778 0.48045 0.27847 0.0
H2610 H 0.33725 0.31575 0.38979 0.0
H2611 H 0.33882 0.29304 0.39936 0.0
H2612 H 0.3227 0.2735 0.34035 0.0
H2613 H 0.3208 0.29619 0.33077 0.0
H2614 H 0.30773 0.2524 0.36974 0.0
H2615 H 0.37045 0.28117 0.38414 0.0
H2616 H 0.36181 0.29019 0.39811 0.0
H2617 H 0.36169 0.29062 0.37096 0.0
C2618 C 0.33417 0.3067 0.37876 0.0
C2619 C 0.32897 0.30781 0.35948 0.0
C2620 C 0.33518 0.29375 0.38421 0.0
C2621 C 0.33119 0.28167 0.37046 0.0
C2622 C 0.32597 0.28273 0.35117 0.0
H2623 H 0.3515 0.21174 0.4177 0.0
H2624 H 0.34923 0.22829 0.39213 0.0
C2625 C 0.32491 0.2957 0.3457 0.0
C2626 C 0.33174 0.26768 0.37676 0.0
H2627 H 0.35484 0.25648 0.40043 0.0
C2628 C 0.3181 0.25324 0.37612 0.0
C2629 C 0.34535 0.26862 0.38464 0.0
C2630 C 0.36068 0.28346 0.3843 0.0
C2631 C 0.31745 0.23999 0.3844 0.0
C2632 C 0.3307 0.24125 0.39397 0.0
C2633 C 0.3446 0.25546 0.39333 0.0
C2634 C 0.33006 0.22867 0.40669 0.0
C2635 C 0.30248 0.22483 0.38309 0.0
C2636 C 0.31974 0.22293 0.42299 0.0
C2637 C 0.32095 0.21341 0.43739 0.0
C2638 C 0.33261 0.20954 0.43598 0.0
C2639 C 0.34229 0.21439 0.41899 0.0
C2640 C 0.34107 0.22395 0.4045 0.0
H2641 H 0.29595 0.22433 0.36929 0.0
H2642 H 0.30448 0.21487 0.383 0.0
H2643 H 0.29516 0.22369 0.39627 0.0
H2644 H 0.3114 0.22664 0.42538 0.0
H2645 H 0.31341 0.20991 0.45042 0.0
H2646 H 0.7331 0.03901 0.33428 0.0
H2647 H 0.75508 0.06372 0.34531 0.0
H2648 H 0.73291 0.05893 0.40265 0.0
H2649 H 0.71093 0.03434 0.39178 0.0
H2650 H 0.755 0.09193 0.36235 0.0
H2651 H 0.77679 0.06355 0.41431 0.0
H2652 H 0.76384 0.05344 0.39366 0.0
H2653 H 0.75655 0.05718 0.41638 0.0
C2654 C 0.73287 0.04329 0.34918 0.0
C2655 C 0.72032 0.03469 0.3622 0.0
C2656 C 0.74541 0.0574 0.35543 0.0
C2657 C 0.74565 0.06305 0.37483 0.0
C2658 C 0.73298 0.05468 0.38767 0.0
H2659 H 0.79538 0.14449 0.44351 0.0
H2660 H 0.7781 0.12517 0.41915 0.0
C2661 C 0.72043 0.04065 0.38141 0.0
C2662 C 0.75931 0.07743 0.38209 0.0
H2663 H 0.78799 0.09069 0.41736 0.0
C2664 C 0.76234 0.0917 0.37421 0.0
C2665 C 0.76897 0.07705 0.39737 0.0
C2666 C 0.76651 0.062 0.40587 0.0
C2667 C 0.77441 0.10567 0.38191 0.0
C2668 C 0.7836 0.10529 0.39787 0.0
C2669 C 0.78096 0.09098 0.40509 0.0
C2670 C 0.79507 0.11943 0.40869 0.0
C2671 C 0.77713 0.12072 0.3731 0.0
C2672 C 0.81051 0.12298 0.41047 0.0
C2673 C 0.82045 0.13416 0.42426 0.0
C2674 C 0.81501 0.14178 0.43661 0.0
C2675 C 0.7999 0.13897 0.43384 0.0
C2676 C 0.79002 0.12792 0.41995 0.0
H2677 H 0.77233 0.11913 0.35762 0.0
H2678 H 0.77132 0.12536 0.38267 0.0
H2679 H 0.78966 0.12939 0.37265 0.0
H2680 H 0.81459 0.11646 0.40206 0.0
H2681 H 0.83195 0.13591 0.42646 0.0
H2682 H 0.99985 0.71528 0.35018 0.0
H2683 H 0.97523 0.71235 0.3618 0.0
H2684 H 0.96401 0.66927 0.3904 0.0
H2685 H 0.98867 0.67231 0.37931 0.0
H2686 H 0.94426 0.68979 0.35673 0.0
H2687 H 0.96155 0.69419 0.43693 0.0
H2688 H 0.97509 0.69881 0.41654 0.0
H2689 H 0.96245 0.67902 0.42378 0.0
C2690 C 0.99208 0.70515 0.35886 0.0
C2691 C 0.99628 0.69412 0.36405 0.0
C2692 C 0.97801 0.70347 0.36545 0.0
C2693 C 0.96791 0.69074 0.37732 0.0
C2694 C 0.97178 0.67937 0.38168 0.0
H2695 H 0.88452 0.66182 0.44494 0.0
H2696 H 0.90415 0.66209 0.42267 0.0
C2697 C 0.98586 0.68109 0.37526 0.0
C2698 C 0.95364 0.68961 0.3859 0.0
H2699 H 0.93535 0.68653 0.43054 0.0
C2700 C 0.94232 0.68914 0.37286 0.0
C2701 C 0.95118 0.68893 0.40698 0.0
C2702 C 0.96327 0.69042 0.42189 0.0
C2703 C 0.92843 0.68756 0.38037 0.0
C2704 C 0.92586 0.68647 0.4014 0.0
C2705 C 0.93726 0.68715 0.41439 0.0
C2706 C 0.9116 0.68484 0.41062 0.0
C2707 C 0.91646 0.68678 0.36585 0.0
C2708 C 0.90884 0.69728 0.4106 0.0
C2709 C 0.89752 0.69708 0.42325 0.0
C2710 C 0.88885 0.68443 0.43603 0.0
C2711 C 0.89084 0.67154 0.43489 0.0
C2712 C 0.90213 0.67175 0.4223 0.0
H2713 H 0.91896 0.68503 0.35007 0.0
H2714 H 0.90479 0.67725 0.37007 0.0
H2715 H 0.91624 0.69773 0.36658 0.0
H2716 H 0.91619 0.70761 0.40199 0.0
H2717 H 0.89645 0.7073 0.4243 0.0
H2718 H 0.40119 0.04102 0.66328 0.0
H2719 H 0.42389 0.03925 0.67317 0.0
H2720 H 0.40265 0.02012 0.73056 0.0
H2721 H 0.37993 0.0216 0.72068 0.0
H2722 H 0.44378 0.05333 0.70427 0.0
H2723 H 0.41629 0.99014 0.71327 0.0
H2724 H 0.40687 0.99908 0.70041 0.0
H2725 H 0.40629 0.99763 0.7275 0.0
C2726 C 0.4013 0.03627 0.67791 0.0
C2727 C 0.38873 0.03136 0.69116 0.0
C2728 C 0.41429 0.03528 0.68355 0.0
C2729 C 0.41488 0.02929 0.70247 0.0
C2730 C 0.40231 0.0244 0.71568 0.0
H2731 H 0.48383 0.04475 0.78576 0.0
H2732 H 0.4677 0.04747 0.76043 0.0
C2733 C 0.38935 0.02535 0.71005 0.0
C2734 C 0.4289 0.0289 0.70905 0.0
H2735 H 0.44029 1.00545 0.73122 0.0
C2736 C 0.44309 0.0428 0.70982 0.0
C2737 C 0.42815 0.01514 0.71586 0.0
C2738 C 0.41361 0.99964 0.71401 0.0
C2739 C 0.45624 0.04348 0.71851 0.0
C2740 C 0.45509 0.02996 0.727 0.0
C2741 C 0.44119 0.01588 0.72493 0.0
C2742 C 0.46737 0.03038 0.74013 0.0
C2743 C 0.47115 0.05875 0.71883 0.0
C2744 C 0.47283 0.02004 0.73714 0.0
C2745 C 0.48205 0.01842 0.75177 0.0
C2746 C 0.48579 0.02701 0.76969 0.0
C2747 C 0.48118 0.03806 0.77201 0.0
C2748 C 0.47201 0.03968 0.75745 0.0
H2749 H 0.47191 0.06596 0.70565 0.0
H2750 H 0.47153 0.06518 0.73263 0.0
H2751 H 0.48136 0.05717 0.7188 0.0
H2752 H 0.46932 0.01267 0.72396 0.0
H2753 H 0.4853 0.00969 0.74976 0.0
H2754 H 1.00462 0.36443 0.73012 0.0
H2755 H 1.00766 0.38936 0.73988 0.0
H2756 H 1.00049 0.39795 0.67825 0.0
H2757 H 0.99747 0.37298 0.6683 0.0
H2758 H 0.02581 0.42385 0.69839 0.0
H2759 H 0.97158 0.3984 0.74272 0.0
H2760 H 0.98406 0.39102 0.74942 0.0
H2761 H 0.9756 0.38739 0.72468 0.0
C2762 C 1.00372 0.37163 0.71862 0.0
C2763 C 1.00072 0.36669 0.69846 0.0
C2764 C 1.0054 0.38584 0.72424 0.0
C2765 C 1.00407 0.39541 0.70984 0.0
C2766 C 1.00146 0.39071 0.68961 0.0
H2767 H 0.9944 0.47161 0.75742 0.0
H2768 H 0.99153 0.45162 0.73352 0.0
C2769 C 0.99973 0.37644 0.68397 0.0
C2770 C 1.00534 0.41023 0.71611 0.0
H2771 H 0.98942 0.42517 0.74794 0.0
C2772 C 0.01776 0.42417 0.70902 0.0
C2773 C 0.99466 0.41065 0.72967 0.0
C2774 C 0.98063 0.39607 0.73694 0.0
C2775 C 0.02024 0.4385 0.71602 0.0
C2776 C 1.01011 0.43887 0.73059 0.0
C2777 C 0.99723 0.42493 0.73682 0.0
C2778 C 0.01335 0.45329 0.74118 0.0
C2779 C 0.03379 0.4531 0.70795 0.0
C2780 C 0.02681 0.46127 0.75285 0.0
C2781 C 0.02846 0.47269 0.76637 0.0
C2782 C 0.01668 0.47632 0.76853 0.0
C2783 C 1.00375 0.46921 0.75577 0.0
C2784 C 1.00206 0.4577 0.74227 0.0
H2785 H 0.03705 0.4513 0.69261 0.0
H2786 H 0.03123 0.46268 0.70736 0.0
H2787 H 0.0439 0.45661 0.71797 0.0
H2788 H 0.03553 0.4579 0.75265 0.0
H2789 H 0.03842 0.47786 0.77626 0.0
H2790 H 0.66014 0.6311 0.66834 0.0
H2791 H 0.63566 0.60869 0.67892 0.0
H2792 H 0.64061 0.62914 0.7376 0.0
H2793 H 0.66491 0.65162 0.72705 0.0
H2794 H 0.63038 0.58814 0.70922 0.0
H2795 H 0.59661 0.61714 0.72305 0.0
H2796 H 0.61458 0.62625 0.70925 0.0
H2797 H 0.61464 0.62628 0.73639 0.0
C2798 C 0.65592 0.63089 0.68343 0.0
C2799 C 0.66442 0.64318 0.69684 0.0
C2800 C 0.64194 0.61806 0.68946 0.0
C2801 C 0.63614 0.61732 0.70894 0.0
C2802 C 0.64463 0.62959 0.72233 0.0
H2803 H 0.58033 0.54568 0.78916 0.0
H2804 H 0.59989 0.56275 0.76508 0.0
C2805 C 0.65858 0.64241 0.71632 0.0
C2806 C 0.62165 0.60344 0.71572 0.0
H2807 H 0.58713 0.59233 0.73875 0.0
C2808 C 0.62081 0.58901 0.71539 0.0
C2809 C 0.60899 0.60445 0.72338 0.0
C2810 C 0.60865 0.61934 0.72285 0.0
C2811 C 0.6081 0.5758 0.72362 0.0
C2812 C 0.59601 0.57709 0.73272 0.0
C2813 C 0.59643 0.59131 0.73194 0.0
C2814 C 0.58373 0.56443 0.74499 0.0
C2815 C 0.60786 0.56063 0.72273 0.0
C2816 C 0.56801 0.55942 0.74165 0.0
C2817 C 0.55676 0.5496 0.75552 0.0
C2818 C 0.56111 0.54481 0.773 0.0
C2819 C 0.57668 0.54908 0.77566 0.0
C2820 C 0.58787 0.55881 0.76185 0.0
H2821 H 0.61441 0.5602 0.70947 0.0
H2822 H 0.61349 0.55938 0.73645 0.0
H2823 H 0.59587 0.55071 0.72196 0.0
H2824 H 0.56455 0.56369 0.72884 0.0
H2825 H 0.54486 0.54667 0.75332 0.0
H2826 H 0.71157 0.73017 0.69204 0.0
H2827 H 0.70966 0.75266 0.6816 0.0
H2828 H 0.69076 0.73089 0.62441 0.0
H2829 H 0.69237 0.70832 0.63487 0.0
H2830 H 0.7237 0.77234 0.65031 0.0
H2831 H 0.66036 0.74422 0.64127 0.0
H2832 H 0.66948 0.73504 0.65428 0.0
H2833 H 0.66822 0.73448 0.62719 0.0
C2834 C 0.70685 0.73012 0.67732 0.0
C2835 C 0.70204 0.71743 0.66431 0.0
C2836 C 0.7058 0.74299 0.67137 0.0
C2837 C 0.69983 0.74338 0.65235 0.0
C2838 C 0.69504 0.73071 0.63935 0.0
H2839 H 0.71387 0.81381 0.57106 0.0
H2840 H 0.71693 0.797 0.59496 0.0
C2841 C 0.69606 0.71785 0.6453 0.0
C2842 C 0.69928 0.75729 0.6456 0.0
H2843 H 0.67544 0.76857 0.6243 0.0
C2844 C 0.7131 0.77157 0.64491 0.0
C2845 C 0.68542 0.75642 0.63897 0.0
C2846 C 0.67001 0.74175 0.64066 0.0
C2847 C 0.71358 0.78474 0.63666 0.0
C2848 C 0.69993 0.78355 0.62854 0.0
C2849 C 0.68596 0.76951 0.63035 0.0
C2850 C 0.70009 0.79608 0.61624 0.0
C2851 C 0.72875 0.79975 0.63647 0.0
C2852 C 0.68977 0.80142 0.62028 0.0
C2853 C 0.68802 0.8111 0.60652 0.0
C2854 C 0.69646 0.81542 0.58847 0.0
C2855 C 0.70741 0.81081 0.58504 0.0
C2856 C 0.70918 0.80122 0.59874 0.0
H2857 H 0.73622 0.80031 0.64924 0.0
H2858 H 0.735 0.80056 0.6223 0.0
H2859 H 0.72701 0.80984 0.63733 0.0
H2860 H 0.68255 0.79752 0.6336 0.0
H2861 H 0.67931 0.81428 0.6093 0.0
H2862 H 0.30304 0.98894 0.69164 0.0
H2863 H 0.28089 0.96403 0.68159 0.0
H2864 H 0.30181 0.96802 0.62348 0.0
H2865 H 0.32389 0.99284 0.63334 0.0
H2866 H 0.27038 0.96165 0.62278 0.0
H2867 H 0.2783 0.92135 0.67257 0.0
H2868 H 0.27908 0.93795 0.68423 0.0
H2869 H 0.29389 0.94055 0.6668 0.0
C2870 C 0.30298 0.98442 0.6768 0.0
C2871 C 0.31521 0.99286 0.66327 0.0
C2872 C 0.29035 0.97017 0.67112 0.0
C2873 C 0.28977 0.96413 0.65184 0.0
C2874 C 0.30206 0.97245 0.63845 0.0
H2875 H 0.23771 0.88244 0.58423 0.0
H2876 H 0.25578 0.90224 0.60754 0.0
C2877 C 0.31468 0.98663 0.64412 0.0
C2878 C 0.27602 0.94961 0.64502 0.0
H2879 H 0.25668 0.91038 0.65087 0.0
C2880 C 0.26726 0.95045 0.62906 0.0
C2881 C 0.27207 0.93503 0.6532 0.0
C2882 C 0.28134 0.93353 0.67007 0.0
C2883 C 0.25485 0.93709 0.62076 0.0
C2884 C 0.25096 0.92247 0.62878 0.0
C2885 C 0.25956 0.92161 0.64496 0.0
C2886 C 0.23909 0.90804 0.61894 0.0
C2887 C 0.2464 0.93867 0.60287 0.0
C2888 C 0.2235 0.90414 0.61849 0.0
C2889 C 0.21312 0.89269 0.60529 0.0
C2890 C 0.21823 0.88505 0.59244 0.0
C2891 C 0.23348 0.88804 0.59422 0.0
C2892 C 0.24381 0.89939 0.60746 0.0
H2893 H 0.25237 0.95056 0.59658 0.0
H2894 H 0.2452 0.93049 0.59076 0.0
H2895 H 0.23462 0.93582 0.60756 0.0
H2896 H 0.21963 0.91065 0.62731 0.0
H2897 H 0.20149 0.89076 0.60391 0.0
H2898 H 0.03689 0.33944 0.63833 0.0
H2899 H 0.06065 0.3404 0.62715 0.0
H2900 H 0.06173 0.31775 0.68192 0.0
H2901 H 0.03793 0.31678 0.69328 0.0
H2902 H 0.09107 0.34373 0.67019 0.0
H2903 H 0.06262 0.30207 0.6078 0.0
H2904 H 0.05883 0.3178 0.6077 0.0
H2905 H 0.05192 0.30421 0.6282 0.0
C2906 C 0.04221 0.33471 0.64805 0.0
C2907 C 0.03549 0.32796 0.66665 0.0
C2908 C 0.05574 0.3352 0.64159 0.0
C2909 C 0.06282 0.32893 0.65356 0.0
C2910 C 0.0564 0.32257 0.6724 0.0
H2911 H 0.13386 0.31557 0.59534 0.0
H2912 H 0.11297 0.31091 0.61885 0.0
C2913 C 0.04281 0.32202 0.67886 0.0
C2914 C 0.07684 0.32895 0.64621 0.0
H2915 H 0.09016 0.31674 0.60712 0.0
C2916 C 0.09086 0.33769 0.65654 0.0
C2917 C 0.0765 0.32081 0.62863 0.0
C2918 C 0.06164 0.31056 0.61752 0.0
C2919 C 0.10471 0.33917 0.64912 0.0
C2920 C 0.10452 0.33182 0.63082 0.0
C2921 C 0.09035 0.32243 0.62111 0.0
C2922 C 0.11891 0.33487 0.62033 0.0
C2923 C 0.11944 0.34874 0.66079 0.0
C2924 C 0.12946 0.34991 0.61386 0.0
C2925 C 0.14134 0.35254 0.60054 0.0
C2926 C 0.14292 0.3402 0.59344 0.0
C2927 C 0.13304 0.32529 0.60091 0.0
C2928 C 0.12105 0.32263 0.61419 0.0
H2929 H 0.11706 0.34914 0.67706 0.0
H2930 H 0.12744 0.34415 0.65916 0.0
H2931 H 0.12531 0.36075 0.65497 0.0
H2932 H 0.12788 0.35949 0.61796 0.0
H2933 H 0.14867 0.3641 0.59471 0.0
H2934 H 0.29684 0.31095 0.68126 0.0
H2935 H 0.27586 0.31477 0.66893 0.0
H2936 H 0.30901 0.35574 0.63724 0.0
H2937 H 0.32993 0.35182 0.64909 0.0
H2938 H 0.2695 0.339 0.67186 0.0
H2939 H 0.27986 0.32935 0.59254 0.0
H2940 H 0.28848 0.32497 0.61354 0.0
H2941 H 0.29671 0.3445 0.6046 0.0
C2942 C 0.29965 0.32082 0.67174 0.0
C2943 C 0.31502 0.33098 0.66593 0.0
C2944 C 0.28766 0.323 0.66476 0.0
C2945 C 0.29083 0.33538 0.65186 0.0
C2946 C 0.30625 0.34592 0.6468 0.0
H2947 H 0.2392 0.36513 0.57992 0.0
H2948 H 0.25829 0.36466 0.60256 0.0
C2949 C 0.3182 0.34369 0.65365 0.0
C2950 C 0.27806 0.33696 0.64293 0.0
H2951 H 0.26261 0.33874 0.5978 0.0
C2952 C 0.26793 0.33889 0.65568 0.0
C2953 C 0.27592 0.33663 0.62181 0.0
C2954 C 0.28571 0.33359 0.60732 0.0
C2955 C 0.25602 0.34097 0.64779 0.0
C2956 C 0.2542 0.34105 0.62667 0.0
C2957 C 0.26417 0.33888 0.614 0.0
C2958 C 0.24201 0.3432 0.61704 0.0
C2959 C 0.24568 0.34338 0.66198 0.0
C2960 C 0.22638 0.33164 0.6183 0.0
C2961 C 0.21542 0.33199 0.60545 0.0
C2962 C 0.21999 0.34385 0.59116 0.0
C2963 C 0.23538 0.356 0.59103 0.0
C2964 C 0.24629 0.35567 0.60386 0.0
H2965 H 0.25037 0.34593 0.67756 0.0
H2966 H 0.24407 0.353 0.65664 0.0
H2967 H 0.23415 0.33276 0.66238 0.0
H2968 H 0.22286 0.32178 0.62811 0.0
H2969 H 0.20368 0.32233 0.60549 0.0
H2970 H 0.69205 0.99235 0.63427 0.0
H2971 H 0.68928 0.96753 0.62497 0.0
H2972 H 0.69793 0.96018 0.68655 0.0
H2973 H 0.70124 0.98537 0.69584 0.0
H2974 H 0.71406 0.95316 0.66201 0.0
H2975 H 0.6544 0.92461 0.63315 0.0
H2976 H 0.66584 0.9427 0.62055 0.0
H2977 H 0.66259 0.94236 0.64733 0.0
C2978 C 0.69321 0.9854 0.64589 0.0
C2979 C 0.6968 0.9908 0.66581 0.0
C2980 C 0.69149 0.97111 0.64058 0.0
C2981 C 0.69301 0.96175 0.65513 0.0
C2982 C 0.69656 0.96711 0.67508 0.0
H2983 H 0.67303 0.8729 0.60272 0.0
H2984 H 0.67244 0.89025 0.62848 0.0
C2985 C 0.69843 0.9815 0.68038 0.0
C2986 C 0.69191 0.9469 0.64907 0.0
H2987 H 0.67058 0.91485 0.62021 0.0
C2988 C 0.7044 0.94463 0.65321 0.0
C2989 C 0.67914 0.93547 0.63808 0.0
C2990 C 0.66467 0.93633 0.63474 0.0
C2991 C 0.70498 0.9319 0.64538 0.0
C2992 C 0.69297 0.92137 0.63258 0.0
C2993 C 0.67994 0.923 0.62974 0.0
C2994 C 0.69448 0.90988 0.62001 0.0
C2995 C 0.71863 0.93005 0.65065 0.0
C2996 C 0.70721 0.91495 0.60708 0.0
C2997 C 0.70762 0.90506 0.59265 0.0
C2998 C 0.69519 0.8899 0.59055 0.0
C2999 C 0.68283 0.88447 0.60419 0.0
C3000 C 0.68244 0.89442 0.61878 0.0
H3001 H 0.72294 0.93451 0.66604 0.0
H3002 H 0.71569 0.9178 0.64989 0.0
H3003 H 0.7282 0.93691 0.63996 0.0
H3004 H 0.71645 0.92687 0.60725 0.0
H3005 H 0.71727 0.90955 0.58226 0.0
H3006 H 0.03851 0.72883 0.69549 0.0
H3007 H 0.06289 0.75156 0.68527 0.0
H3008 H 0.05862 0.73164 0.62637 0.0
H3009 H 0.03454 0.70881 0.63661 0.0
H3010 H 0.08787 0.74436 0.64089 0.0
H3011 H 0.06665 0.78584 0.64881 0.0
H3012 H 0.06545 0.7752 0.67121 0.0
H3013 H 0.05388 0.76521 0.64963 0.0
C3014 C 0.04283 0.72928 0.6804 0.0
C3015 C 0.03456 0.71705 0.66683 0.0
C3016 C 0.05671 0.74233 0.67453 0.0
C3017 C 0.06248 0.74346 0.65492 0.0
C3018 C 0.0544 0.73108 0.64155 0.0
H3019 H 0.11874 0.81355 0.57352 0.0
H3020 H 0.09919 0.79651 0.59769 0.0
C3021 C 0.04061 0.71803 0.64743 0.0
C3022 C 0.07683 0.75747 0.64803 0.0
H3023 H 0.09223 0.79588 0.63762 0.0
C3024 C 0.08892 0.75568 0.64038 0.0
C3025 C 0.07814 0.77222 0.64727 0.0
C3026 C 0.06531 0.77479 0.6545 0.0
C3027 C 0.10198 0.76802 0.63133 0.0
C3028 C 0.10321 0.78274 0.63033 0.0
C3029 C 0.09138 0.78467 0.63863 0.0
C3030 C 0.1155 0.79554 0.61823 0.0
C3031 C 0.11387 0.76493 0.62185 0.0
C3032 C 0.13129 0.80144 0.62229 0.0
C3033 C 0.14254 0.81123 0.60838 0.0
C3034 C 0.1381 0.81531 0.59036 0.0
C3035 C 0.12244 0.81057 0.58732 0.0
C3036 C 0.11126 0.8008 0.60111 0.0
H3037 H 0.1097 0.75238 0.62059 0.0
H3038 H 0.11703 0.77012 0.60656 0.0
H3039 H 0.12447 0.77021 0.63126 0.0
H3040 H 0.13486 0.79781 0.63563 0.0
H3041 H 0.15452 0.81467 0.611 0.0
H3042 H 0.98624 0.62932 0.66877 0.0
H3043 H 0.98722 0.60639 0.67975 0.0
H3044 H 1.0093 0.62949 0.73508 0.0
H3045 H 1.00829 0.65232 0.72433 0.0
H3046 H 0.01274 0.60269 0.69149 0.0
H3047 H 0.97109 0.58905 0.75391 0.0
H3048 H 0.97343 0.60221 0.73379 0.0
H3049 H 0.98689 0.60858 0.75444 0.0
C3050 C 0.99137 0.62953 0.68323 0.0
C3051 C 0.9971 0.6426 0.69574 0.0
C3052 C 0.99192 0.61643 0.68947 0.0
C3053 C 0.99809 0.61614 0.70838 0.0
C3054 C 1.00422 0.62935 0.7206 0.0
H3055 H 0.03394 0.56582 0.76626 0.0
H3056 H 0.02896 0.58176 0.74303 0.0
C3057 C 1.00371 0.64243 0.71438 0.0
C3058 C 0.99804 0.60205 0.7156 0.0
H3059 H 0.98606 0.57651 0.75478 0.0
C3060 C 1.00675 0.59682 0.70518 0.0
C3061 C 0.98996 0.59418 0.73322 0.0
C3062 C 0.97969 0.59867 0.7444 0.0
C3063 C 1.00828 0.58447 0.71258 0.0
C3064 C 1.00106 0.57731 0.73097 0.0
C3065 C 0.99167 0.58201 0.74074 0.0
C3066 C 1.00427 0.56607 0.7415 0.0
C3067 C 0.01778 0.57936 0.70076 0.0
C3068 C 0.99211 0.55175 0.74817 0.0
C3069 C 0.99499 0.54257 0.76146 0.0
C3070 C 1.01005 0.54767 0.76838 0.0
C3071 C 0.02228 0.56152 0.7608 0.0
C3072 C 0.01943 0.57063 0.7475 0.0
H3073 H 0.01787 0.58193 0.68445 0.0
H3074 H 0.0299 0.58574 0.7062 0.0
H3075 H 0.01335 0.5668 0.70263 0.0
H3076 H 0.9803 0.54805 0.7439 0.0
H3077 H 0.98535 0.53209 0.76745 0.0
H3078 H 0.39704 0.37209 0.66807 0.0
H3079 H 0.41899 0.39706 0.67831 0.0
H3080 H 0.40313 0.38791 0.73986 0.0
H3081 H 0.38121 0.363 0.72979 0.0
H3082 H 0.41889 0.42261 0.69926 0.0
H3083 H 0.44874 0.39755 0.74208 0.0
H3084 H 0.4338 0.38663 0.72379 0.0
H3085 H 0.42876 0.38967 0.74867 0.0
C3086 C 0.39823 0.37541 0.68378 0.0
C3087 C 0.38744 0.36554 0.69815 0.0
C3088 C 0.41075 0.38968 0.68958 0.0
C3089 C 0.41278 0.39424 0.70986 0.0
C3090 C 0.40189 0.38451 0.72417 0.0
H3091 H 0.46061 0.47564 0.7783 0.0
H3092 H 0.44342 0.45601 0.7543 0.0
C3093 C 0.38935 0.3703 0.71838 0.0
C3094 C 0.42626 0.40912 0.71625 0.0
H3095 H 0.45748 0.42419 0.74765 0.0
C3096 C 0.42746 0.423 0.70963 0.0
C3097 C 0.43757 0.4096 0.72949 0.0
C3098 C 0.4373 0.39508 0.73631 0.0
C3099 C 0.43924 0.43735 0.71679 0.0
C3100 C 0.45 0.43777 0.73101 0.0
C3101 C 0.44923 0.4239 0.73677 0.0
C3102 C 0.46115 0.45214 0.74173 0.0
C3103 C 0.43994 0.45191 0.70928 0.0
C3104 C 0.47696 0.45687 0.74229 0.0
C3105 C 0.48684 0.4682 0.75599 0.0
C3106 C 0.48098 0.4748 0.76944 0.0
C3107 C 0.46543 0.47089 0.76783 0.0
C3108 C 0.4556 0.45966 0.7541 0.0
H3109 H 0.43458 0.45018 0.69413 0.0
H3110 H 0.43343 0.45516 0.71978 0.0
H3111 H 0.45204 0.46162 0.70851 0.0
H3112 H 0.48146 0.45114 0.733 0.0
H3113 H 0.49871 0.47082 0.75723 0.0
H3114 H 0.65586 0.03386 0.66461 0.0
H3115 H 0.63105 0.03138 0.67459 0.0
H3116 H 0.63706 0.01903 0.7348 0.0
H3117 H 0.6617 0.02141 0.72502 0.0
H3118 H 0.60361 1.00433 0.69376 0.0
H3119 H 0.6307 0.05741 0.74057 0.0
H3120 H 0.64113 0.05372 0.72123 0.0
H3121 H 0.63775 0.04435 0.74532 0.0
C3122 C 0.65184 0.03055 0.67995 0.0
C3123 C 0.66077 0.0279 0.69406 0.0
C3124 C 0.63768 0.02912 0.6856 0.0
C3125 C 0.63233 0.02519 0.70548 0.0
C3126 C 0.64108 0.02225 0.71944 0.0
H3127 H 0.55143 0.99154 0.77428 0.0
H3128 H 0.57087 0.99445 0.74967 0.0
C3129 C 0.65514 0.02358 0.7138 0.0
C3130 C 0.61774 0.02435 0.71196 0.0
H3131 H 0.60377 0.04018 0.74541 0.0
C3132 C 0.6036 0.01228 0.70483 0.0
C3133 C 0.61778 0.03488 0.72615 0.0
C3134 C 0.63264 0.04842 0.73367 0.0
C3135 C 0.58947 0.00999 0.71241 0.0
C3136 C 0.58953 0.01995 0.72757 0.0
C3137 C 0.60369 0.03251 0.73382 0.0
C3138 C 0.57538 0.01673 0.7388 0.0
C3139 C 0.5746 0.99676 0.70439 0.0
C3140 C 0.5711 0.02808 0.74055 0.0
C3141 C 0.55989 0.02637 0.7546 0.0
C3142 C 0.55298 0.01338 0.76726 0.0
C3143 C 0.55649 1.00157 0.76451 0.0
C3144 C 0.56758 1.00322 0.75041 0.0
H3145 H 0.57611 0.99359 0.68886 0.0
H3146 H 0.57097 0.9865 0.71417 0.0
H3147 H 0.56523 0.99963 0.7043 0.0
H3148 H 0.57706 0.03865 0.73187 0.0
H3149 H 0.55756 0.03574 0.75668 0.0
loop_
_geom_bond_atom_site_label_1
_geom_bond_atom_site_label_2
_geom_bond_distance
_geom_bond_site_symmetry_2
_ccdc_geom_bond_type
In0 O1 2.294 1_455 S
In0 O2 2.326 . S
In0 O6 2.266 1_455 S
In0 O7 2.326 1_454 S
In0 O8 2.266 1_554 S
In0 O9 2.326 1_454 S
In0 O11 2.294 . S
In0 O12 2.326 . S
O1 In0 2.294 1_655 S
O1 C10 1.240 1_655 S
O2 In0 2.326 . S
O2 C10 1.252 . S
C3 O6 1.252 1_556 S
C3 O7 1.260 . S
C4 O11 1.240 . S
C4 O12 1.252 . S
C5 O8 1.252 . S
C5 O9 1.260 1_455 S
O6 In0 2.266 1_655 S
O6 C3 1.252 1_554 S
O7 In0 2.326 1_656 S
O7 C3 1.260 . S
O8 In0 2.266 1_556 S
O8 C5 1.252 . S
O9 In0 2.326 1_656 S
O9 C5 1.260 1_655 S
C10 O1 1.240 1_455 S
C10 O2 1.252 . S
O11 In0 2.294 . S
O11 C4 1.240 . S
O12 In0 2.326 . S
O12 C4 1.252 . S
In13 O14 2.294 . S
In13 O15 2.326 . S
In13 O19 2.266 . S
In13 O20 2.326 1_554 S
In13 O21 2.266 1_554 S
In13 O22 2.326 1_554 S
In13 O24 2.294 . S
In13 O25 2.326 . S
O14 In13 2.294 . S
O14 C23 1.240 . S
O15 In13 2.326 . S
O15 C23 1.252 . S
C16 O19 1.252 1_556 S
C16 O20 1.260 . S
C17 O24 1.240 . S
C17 O25 1.252 . S
C18 O21 1.252 . S
C18 O22 1.260 . S
O19 In13 2.266 . S
O19 C16 1.252 1_554 S
O20 In13 2.326 1_556 S
O20 C16 1.260 . S
O21 In13 2.266 1_556 S
O21 C18 1.252 . S
O22 In13 2.326 1_556 S
O22 C18 1.260 . S
C23 O14 1.240 . S
C23 O15 1.252 . S
O24 In13 2.294 . S
O24 C17 1.240 . S
O25 In13 2.326 . S
O25 C17 1.252 . S
In26 O27 2.294 . S
In26 O28 2.326 1_554 S
In26 O32 2.266 . S
In26 O33 2.326 1_545 S
In26 O34 2.266 1_545 S
In26 O35 2.326 1_545 S
In26 O37 2.294 1_544 S
In26 O38 2.326 1_554 S
O27 In26 2.294 . S
O27 C36 1.240 1_554 S
O28 In26 2.326 1_556 S
O28 C36 1.252 . S
C29 O32 1.252 . S
C29 O33 1.260 1_545 S
C30 O37 1.240 1_545 S
C30 O38 1.252 . S
C31 O34 1.252 . S
C31 O35 1.260 . S
O32 In26 2.266 . S
O32 C29 1.252 . S
O33 In26 2.326 1_565 S
O33 C29 1.260 1_565 S
O34 In26 2.266 1_565 S
O34 C31 1.252 . S
O35 In26 2.326 1_565 S
O35 C31 1.260 . S
C36 O27 1.240 1_556 S
C36 O28 1.252 . S
O37 In26 2.294 1_566 S
O37 C30 1.240 1_565 S
O38 In26 2.326 1_556 S
O38 C30 1.252 . S
In39 O40 2.294 1_554 S
In39 O41 2.326 1_454 S
In39 O45 2.266 . S
In39 O46 2.326 . S
In39 O47 2.266 1_455 S
In39 O48 2.326 . S
In39 O50 2.294 1_455 S
In39 O51 2.326 1_454 S
O40 In39 2.294 1_556 S
O40 C49 1.240 . S
O41 In39 2.326 1_656 S
O41 C49 1.252 1_655 S
C42 O45 1.252 . S
C42 O46 1.260 . S
C43 O50 1.240 1_556 S
C43 O51 1.252 . S
C44 O47 1.252 1_455 S
C44 O48 1.260 . S
O45 In39 2.266 . S
O45 C42 1.252 . S
O46 In39 2.326 . S
O46 C42 1.260 . S
O47 In39 2.266 1_655 S
O47 C44 1.252 1_655 S
O48 In39 2.326 . S
O48 C44 1.260 . S
C49 O40 1.240 . S
C49 O41 1.252 1_455 S
O50 In39 2.294 1_655 S
O50 C43 1.240 1_554 S
O51 In39 2.326 1_656 S
O51 C43 1.252 . S
In52 O53 2.294 1_554 S
In52 O54 2.326 1_554 S
In52 O58 2.266 . S
In52 O59 2.326 . S
In52 O60 2.266 . S
In52 O61 2.326 . S
In52 O63 2.294 . S
In52 O64 2.326 1_554 S
O53 In52 2.294 1_556 S
O53 C62 1.240 . S
O54 In52 2.326 1_556 S
O54 C62 1.252 . S
C55 O58 1.252 . S
C55 O59 1.260 . S
C56 O63 1.240 1_556 S
C56 O64 1.252 . S
C57 O60 1.252 . S
C57 O61 1.260 . S
O58 In52 2.266 . S
O58 C55 1.252 . S
O59 In52 2.326 . S
O59 C55 1.260 . S
O60 In52 2.266 . S
O60 C57 1.252 . S
O61 In52 2.326 . S
O61 C57 1.260 . S
C62 O53 1.240 . S
C62 O54 1.252 . S
O63 In52 2.294 . S
O63 C56 1.240 1_554 S
O64 In52 2.326 1_556 S
O64 C56 1.252 . S
In65 O66 2.294 . S
In65 O67 2.326 1_545 S
In65 O71 2.266 . S
In65 O72 2.326 1_554 S
In65 O73 2.266 1_544 S
In65 O74 2.326 1_554 S
In65 O76 2.294 1_545 S
In65 O77 2.326 1_545 S
O66 In65 2.294 . S
O66 C75 1.240 . S
O67 In65 2.326 1_565 S
O67 C75 1.252 1_565 S
C68 O71 1.252 1_556 S
C68 O72 1.260 . S
C69 O76 1.240 . S
C69 O77 1.252 . S
C70 O73 1.252 1_545 S
C70 O74 1.260 . S
O71 In65 2.266 . S
O71 C68 1.252 1_554 S
O72 In65 2.326 1_556 S
O72 C68 1.260 . S
O73 In65 2.266 1_566 S
O73 C70 1.252 1_565 S
O74 In65 2.326 1_556 S
O74 C70 1.260 . S
C75 O66 1.240 . S
C75 O67 1.252 1_545 S
O76 In65 2.294 1_565 S
O76 C69 1.240 . S
O77 In65 2.326 1_565 S
O77 C69 1.252 . S
In78 O79 2.294 . S
In78 O80 2.326 . S
In78 O84 2.266 . S
In78 O85 2.326 . S
In78 O86 2.266 . S
In78 O87 2.326 . S
In78 O89 2.294 . S
In78 O90 2.326 . S
O79 In78 2.294 . S
O79 C88 1.240 . S
O80 In78 2.326 . S
O80 C88 1.252 . S
C81 O84 1.252 . S
C81 O85 1.260 . S
C82 O89 1.240 . S
C82 O90 1.252 . S
C83 O86 1.252 . S
C83 O87 1.260 . S
O84 In78 2.266 . S
O84 C81 1.252 . S
O85 In78 2.326 . S
O85 C81 1.260 . S
O86 In78 2.266 . S
O86 C83 1.252 . S
O87 In78 2.326 . S
O87 C83 1.260 . S
C88 O79 1.240 . S
C88 O80 1.252 . S
O89 In78 2.294 . S
O89 C82 1.240 . S
O90 In78 2.326 . S
O90 C82 1.252 . S
In91 O92 2.294 . S
In91 O93 2.326 . S
In91 O97 2.266 . S
In91 O98 2.326 . S
In91 O99 2.266 . S
In91 O100 2.326 . S
In91 O102 2.294 1_565 S
In91 O103 2.326 1_565 S
O92 In91 2.294 . S
O92 C101 1.240 . S
O93 In91 2.326 . S
O93 C101 1.252 . S
C94 O97 1.252 . S
C94 O98 1.260 . S
C95 O102 1.240 . S
C95 O103 1.252 . S
C96 O99 1.252 . S
C96 O100 1.260 . S
O97 In91 2.266 . S
O97 C94 1.252 . S
O98 In91 2.326 . S
O98 C94 1.260 . S
O99 In91 2.266 . S
O99 C96 1.252 . S
O100 In91 2.326 . S
O100 C96 1.260 . S
C101 O92 1.240 . S
C101 O93 1.252 . S
O102 In91 2.294 1_545 S
O102 C95 1.240 . S
O103 In91 2.326 1_545 S
O103 C95 1.252 . S
In104 O105 2.294 . S
In104 O106 2.326 . S
In104 O110 2.266 . S
In104 O111 2.326 . S
In104 O112 2.266 . S
In104 O113 2.326 . S
In104 O115 2.294 . S
In104 O116 2.326 . S
O105 In104 2.294 . S
O105 C114 1.240 . S
O106 In104 2.326 . S
O106 C114 1.252 . S
C107 O110 1.252 . S
C107 O111 1.260 . S
C108 O115 1.240 . S
C108 O116 1.252 . S
C109 O112 1.252 1_655 S
C109 O113 1.260 1_655 S
O110 In104 2.266 . S
O110 C107 1.252 . S
O111 In104 2.326 . S
O111 C107 1.260 . S
O112 In104 2.266 . S
O112 C109 1.252 1_455 S
O113 In104 2.326 . S
O113 C109 1.260 1_455 S
C114 O105 1.240 . S
C114 O106 1.252 . S
O115 In104 2.294 . S
O115 C108 1.240 . S
O116 In104 2.326 . S
O116 C108 1.252 . S
In117 O118 2.294 . S
In117 O119 2.326 . S
In117 O123 2.266 1_565 S
In117 O124 2.326 1_565 S
In117 O125 2.266 . S
In117 O126 2.326 . S
In117 O128 2.294 . S
In117 O129 2.326 . S
O118 In117 2.294 . S
O118 C127 1.240 . S
O119 In117 2.326 . S
O119 C127 1.252 . S
C120 O123 1.252 . S
C120 O124 1.260 . S
C121 O128 1.240 . S
C121 O129 1.252 . S
C122 O125 1.252 . S
C122 O126 1.260 . S
O123 In117 2.266 1_545 S
O123 C120 1.252 . S
O124 In117 2.326 1_545 S
O124 C120 1.260 . S
O125 In117 2.266 . S
O125 C122 1.252 . S
O126 In117 2.326 . S
O126 C122 1.260 . S
C127 O118 1.240 . S
C127 O119 1.252 . S
O128 In117 2.294 . S
O128 C121 1.240 . S
O129 In117 2.326 . S
O129 C121 1.252 . S
In130 O131 2.294 . S
In130 O132 2.326 . S
In130 O136 2.266 . S
In130 O137 2.326 . S
In130 O138 2.266 . S
In130 O139 2.326 . S
In130 O141 2.294 . S
In130 O142 2.326 . S
O131 In130 2.294 . S
O131 C140 1.240 . S
O132 In130 2.326 . S
O132 C140 1.252 . S
C133 O136 1.252 1_655 S
C133 O137 1.260 1_655 S
C134 O141 1.240 . S
C134 O142 1.252 . S
C135 O138 1.252 . S
C135 O139 1.260 . S
O136 In130 2.266 . S
O136 C133 1.252 1_455 S
O137 In130 2.326 . S
O137 C133 1.260 1_455 S
O138 In130 2.266 . S
O138 C135 1.252 . S
O139 In130 2.326 . S
O139 C135 1.260 . S
C140 O131 1.240 . S
C140 O132 1.252 . S
O141 In130 2.294 . S
O141 C134 1.240 . S
O142 In130 2.326 . S
O142 C134 1.252 . S
In143 O144 2.294 . S
In143 O145 2.326 . S
In143 O149 2.266 . S
In143 O150 2.326 . S
In143 O151 2.266 . S
In143 O152 2.326 . S
In143 O154 2.294 . S
In143 O155 2.326 . S
O144 In143 2.294 . S
O144 C153 1.240 . S
O145 In143 2.326 . S
O145 C153 1.252 . S
C146 O149 1.252 . S
C146 O150 1.260 . S
C147 O154 1.240 . S
C147 O155 1.252 . S
C148 O151 1.252 . S
C148 O152 1.260 . S
O149 In143 2.266 . S
O149 C146 1.252 . S
O150 In143 2.326 . S
O150 C146 1.260 . S
O151 In143 2.266 . S
O151 C148 1.252 . S
O152 In143 2.326 . S
O152 C148 1.260 . S
C153 O144 1.240 . S
C153 O145 1.252 . S
O154 In143 2.294 . S
O154 C147 1.240 . S
O155 In143 2.326 . S
O155 C147 1.252 . S
In156 O157 2.294 . S
In156 O158 2.326 . S
In156 O162 2.266 . S
In156 O163 2.326 . S
In156 O164 2.266 . S
In156 O165 2.326 . S
In156 O167 2.294 . S
In156 O168 2.326 . S
O157 In156 2.294 . S
O157 C166 1.240 . S
O158 In156 2.326 . S
O158 C166 1.252 . S
C159 O162 1.252 . S
C159 O163 1.260 . S
C160 O167 1.240 . S
C160 O168 1.252 . S
C161 O164 1.208 1_565 S
C161 O165 1.262 1_565 S
O162 In156 2.266 . S
O162 C159 1.252 . S
O163 In156 2.326 . S
O163 C159 1.260 . S
O164 In156 2.266 . S
O164 C161 1.208 1_545 S
O165 In156 2.326 . S
O165 C161 1.262 1_545 S
C166 O157 1.240 . S
C166 O158 1.252 . S
O167 In156 2.294 . S
O167 C160 1.240 . S
O168 In156 2.326 . S
O168 C160 1.252 . S
In169 O170 2.294 . S
In169 O171 2.326 . S
In169 O175 2.266 . S
In169 O176 2.326 . S
In169 O177 2.266 1_655 S
In169 O178 2.326 1_655 S
In169 O180 2.294 . S
In169 O181 2.326 . S
O170 In169 2.294 . S
O170 C179 1.240 . S
O171 In169 2.326 . S
O171 C179 1.252 . S
C172 O175 1.252 . S
C172 O176 1.260 . S
C173 O180 1.240 . S
C173 O181 1.252 . S
C174 O177 1.252 . S
C174 O178 1.260 . S
O175 In169 2.266 . S
O175 C172 1.252 . S
O176 In169 2.326 . S
O176 C172 1.260 . S
O177 In169 2.266 1_455 S
O177 C174 1.252 . S
O178 In169 2.326 1_455 S
O178 C174 1.260 . S
C179 O170 1.240 . S
C179 O171 1.252 . S
O180 In169 2.294 . S
O180 C173 1.240 . S
O181 In169 2.326 . S
O181 C173 1.252 . S
In182 O183 2.294 . S
In182 O184 2.326 . S
In182 O188 2.266 . S
In182 O189 2.326 . S
In182 O190 2.266 . S
In182 O191 2.326 . S
In182 O193 2.294 . S
In182 O194 2.326 . S
O183 In182 2.294 . S
O183 C192 1.240 . S
O184 In182 2.326 . S
O184 C192 1.252 . S
C185 O188 1.252 . S
C185 O189 1.260 . S
C186 O193 1.240 . S
C186 O194 1.252 . S
C187 O190 1.252 . S
C187 O191 1.260 . S
O188 In182 2.266 . S
O188 C185 1.252 . S
O189 In182 2.326 . S
O189 C185 1.260 . S
O190 In182 2.266 . S
O190 C187 1.252 . S
O191 In182 2.326 . S
O191 C187 1.260 . S
C192 O183 1.240 . S
C192 O184 1.252 . S
O193 In182 2.294 . S
O193 C186 1.240 . S
O194 In182 2.326 . S
O194 C186 1.252 . S
In195 O196 2.294 . S
In195 O197 2.326 . S
In195 O201 2.266 . S
In195 O202 2.326 . S
In195 O203 2.266 . S
In195 O204 2.326 . S
In195 O206 2.294 . S
In195 O207 2.326 . S
O196 In195 2.294 . S
O196 C205 1.240 . S
O197 In195 2.326 . S
O197 C205 1.252 . S
C198 O201 1.252 . S
C198 O202 1.260 . S
C199 O206 1.240 . S
C199 O207 1.252 . S
C200 O203 1.252 . S
C200 O204 1.260 . S
O201 In195 2.266 . S
O201 C198 1.252 . S
O202 In195 2.326 . S
O202 C198 1.260 . S
O203 In195 2.266 . S
O203 C200 1.252 . S
O204 In195 2.326 . S
O204 C200 1.260 . S
C205 O196 1.240 . S
C205 O197 1.252 . S
O206 In195 2.294 . S
O206 C199 1.240 . S
O207 In195 2.326 . S
O207 C199 1.252 . S
In208 O209 2.294 . S
In208 O210 2.326 . S
In208 O214 2.266 . S
In208 O215 2.326 . S
In208 O216 2.266 . S
In208 O217 2.326 . S
In208 O219 2.294 . S
In208 O220 2.326 . S
O209 In208 2.294 . S
O209 C218 1.240 . S
O210 In208 2.326 . S
O210 C218 1.252 . S
C211 O214 1.252 . S
C211 O215 1.260 . S
C212 O219 1.240 1_565 S
C212 O220 1.252 1_565 S
C213 O216 1.252 . S
C213 O217 1.260 . S
O214 In208 2.266 . S
O214 C211 1.252 . S
O215 In208 2.326 . S
O215 C211 1.260 . S
O216 In208 2.266 . S
O216 C213 1.252 . S
O217 In208 2.326 . S
O217 C213 1.260 . S
C218 O209 1.240 . S
C218 O210 1.252 . S
O219 In208 2.294 . S
O219 C212 1.240 1_545 S
O220 In208 2.326 . S
O220 C212 1.252 1_545 S
In221 O222 2.294 . S
In221 O223 2.326 . S
In221 O227 2.266 . S
In221 O228 2.326 . S
In221 O229 2.266 1_655 S
In221 O230 2.326 1_655 S
In221 O232 2.294 . S
In221 O233 2.326 . S
O222 In221 2.294 . S
O222 C231 1.240 . S
O223 In221 2.326 . S
O223 C231 1.252 . S
C224 O227 1.252 . S
C224 O228 1.260 . S
C225 O232 1.240 . S
C225 O233 1.252 . S
C226 O229 1.252 . S
C226 O230 1.260 . S
O227 In221 2.266 . S
O227 C224 1.252 . S
O228 In221 2.326 . S
O228 C224 1.260 . S
O229 In221 2.266 1_455 S
O229 C226 1.252 . S
O230 In221 2.326 1_455 S
O230 C226 1.260 . S
C231 O222 1.240 . S
C231 O223 1.252 . S
O232 In221 2.294 . S
O232 C225 1.240 . S
O233 In221 2.326 . S
O233 C225 1.252 . S
H234 C240 0.930 . S
H235 C243 0.931 . S
H236 C245 0.931 . S
H237 C247 0.930 . S
H238 C249 0.930 . S
H239 C251 0.931 . S
C240 H234 0.930 . S
C240 C241 1.380 . S
C240 C242 1.394 . S
C241 C240 1.380 . S
C241 C245 1.382 . S
C242 C240 1.394 . S
C242 C243 1.400 . S
C243 H235 0.931 . S
C243 C242 1.400 . S
C243 C244 1.375 . S
C244 C243 1.375 . S
C244 C245 1.415 . S
C244 C246 1.501 . S
C245 H236 0.931 . S
C245 C241 1.382 . S
C245 C244 1.415 . S
C246 C244 1.501 . S
C246 C247 1.384 . S
C246 C251 1.408 . S
C247 H237 0.930 . S
C247 C246 1.384 . S
C247 C248 1.389 . S
C248 C247 1.389 . S
C248 C249 1.405 . S
C249 H238 0.930 . S
C249 C248 1.405 . S
C249 C250 1.364 . S
C250 C249 1.364 . S
C250 C251 1.400 . S
C251 H239 0.931 . S
C251 C246 1.408 . S
C251 C250 1.400 . S
H252 C258 0.930 . S
H253 C261 0.931 . S
H254 C263 0.931 . S
H255 C265 0.930 . S
H256 C267 0.930 . S
H257 C269 0.931 . S
C258 H252 0.930 . S
C258 C259 1.380 . S
C258 C260 1.394 . S
C259 C258 1.380 . S
C259 C263 1.382 . S
C260 C258 1.394 . S
C260 C261 1.400 . S
C261 H253 0.931 . S
C261 C260 1.400 . S
C261 C262 1.375 . S
C262 C261 1.375 . S
C262 C263 1.415 . S
C262 C264 1.501 . S
C263 H254 0.931 . S
C263 C259 1.382 . S
C263 C262 1.415 . S
C264 C262 1.501 . S
C264 C265 1.384 . S
C264 C269 1.408 . S
C265 H255 0.930 . S
C265 C264 1.384 . S
C265 C266 1.389 . S
C266 C265 1.389 . S
C266 C267 1.405 . S
C267 H256 0.930 . S
C267 C266 1.405 . S
C267 C268 1.364 . S
C268 C267 1.364 . S
C268 C269 1.400 . S
C269 H257 0.931 . S
C269 C264 1.408 . S
C269 C268 1.400 . S
H270 C276 0.930 . S
H271 C279 0.931 . S
H272 C281 0.931 . S
H273 C283 0.930 . S
H274 C285 0.930 . S
H275 C287 0.931 . S
C276 H270 0.930 . S
C276 C277 1.380 . S
C276 C278 1.394 . S
C277 C276 1.380 . S
C277 C281 1.382 . S
C278 C276 1.394 . S
C278 C279 1.400 . S
C279 H271 0.931 . S
C279 C278 1.400 . S
C279 C280 1.375 . S
C280 C279 1.375 . S
C280 C281 1.415 . S
C280 C282 1.501 . S
C281 H272 0.931 . S
C281 C277 1.382 . S
C281 C280 1.415 . S
C282 C280 1.501 . S
C282 C283 1.384 . S
C282 C287 1.408 . S
C283 H273 0.930 . S
C283 C282 1.384 . S
C283 C284 1.389 . S
C284 C283 1.389 . S
C284 C285 1.405 . S
C285 H274 0.930 . S
C285 C284 1.405 . S
C285 C286 1.364 . S
C286 C285 1.364 . S
C286 C287 1.400 . S
C287 H275 0.931 . S
C287 C282 1.408 . S
C287 C286 1.400 . S
H288 C294 0.930 . S
H289 C297 0.931 . S
H290 C299 0.931 . S
H291 C301 0.930 . S
H292 C303 0.930 . S
H293 C305 0.931 . S
C294 H288 0.930 . S
C294 C295 1.380 . S
C294 C296 1.394 . S
C295 C294 1.380 . S
C295 C299 1.382 . S
C296 C294 1.394 . S
C296 C297 1.400 . S
C297 H289 0.931 . S
C297 C296 1.400 . S
C297 C298 1.375 . S
C298 C297 1.375 . S
C298 C299 1.415 . S
C298 C300 1.501 . S
C299 H290 0.931 . S
C299 C295 1.382 . S
C299 C298 1.415 . S
C300 C298 1.501 . S
C300 C301 1.384 . S
C300 C305 1.408 . S
C301 H291 0.930 . S
C301 C300 1.384 . S
C301 C302 1.389 . S
C302 C301 1.389 . S
C302 C303 1.405 . S
C303 H292 0.930 . S
C303 C302 1.405 . S
C303 C304 1.364 . S
C304 C303 1.364 . S
C304 C305 1.400 . S
C305 H293 0.931 . S
C305 C300 1.408 . S
C305 C304 1.400 . S
H306 C312 0.930 . S
H307 C315 0.931 . S
H308 C317 0.931 . S
H309 C319 0.930 . S
H310 C321 0.930 . S
H311 C323 0.931 . S
C312 H306 0.930 . S
C312 C313 1.380 . S
C312 C314 1.394 . S
C313 C312 1.380 . S
C313 C317 1.382 . S
C314 C312 1.394 . S
C314 C315 1.400 . S
C315 H307 0.931 . S
C315 C314 1.400 . S
C315 C316 1.375 . S
C316 C315 1.375 . S
C316 C317 1.415 . S
C316 C318 1.501 . S
C317 H308 0.931 . S
C317 C313 1.382 . S
C317 C316 1.415 . S
C318 C316 1.501 . S
C318 C319 1.384 . S
C318 C323 1.408 . S
C319 H309 0.930 . S
C319 C318 1.384 . S
C319 C320 1.389 . S
C320 C319 1.389 . S
C320 C321 1.405 . S
C321 H310 0.930 . S
C321 C320 1.405 . S
C321 C322 1.364 . S
C322 C321 1.364 . S
C322 C323 1.400 . S
C323 H311 0.931 . S
C323 C318 1.408 . S
C323 C322 1.400 . S
H324 C330 0.930 . S
H325 C333 0.931 . S
H326 C335 0.931 . S
H327 C337 0.930 . S
H328 C339 0.930 . S
H329 C341 0.931 . S
C330 H324 0.930 . S
C330 C331 1.380 . S
C330 C332 1.394 . S
C331 C330 1.380 . S
C331 C335 1.382 . S
C332 C330 1.394 . S
C332 C333 1.400 . S
C333 H325 0.931 . S
C333 C332 1.400 . S
C333 C334 1.375 . S
C334 C333 1.375 . S
C334 C335 1.415 . S
C334 C336 1.501 . S
C335 H326 0.931 . S
C335 C331 1.382 . S
C335 C334 1.415 . S
C336 C334 1.501 . S
C336 C337 1.384 . S
C336 C341 1.408 . S
C337 H327 0.930 . S
C337 C336 1.384 . S
C337 C338 1.389 . S
C338 C337 1.389 . S
C338 C339 1.405 . S
C339 H328 0.930 . S
C339 C338 1.405 . S
C339 C340 1.364 . S
C340 C339 1.364 . S
C340 C341 1.400 . S
C341 H329 0.931 . S
C341 C336 1.408 . S
C341 C340 1.400 . S
H342 C348 0.930 . S
H343 C351 0.931 . S
H344 C353 0.931 . S
H345 C355 0.930 . S
H346 C357 0.930 . S
H347 C359 0.931 . S
C348 H342 0.930 . S
C348 C349 1.380 . S
C348 C350 1.394 . S
C349 C348 1.380 . S
C349 C353 1.382 . S
C350 C348 1.394 . S
C350 C351 1.400 . S
C351 H343 0.931 . S
C351 C350 1.400 . S
C351 C352 1.375 . S
C352 C351 1.375 . S
C352 C353 1.415 . S
C352 C354 1.501 . S
C353 H344 0.931 . S
C353 C349 1.382 . S
C353 C352 1.415 . S
C354 C352 1.501 . S
C354 C355 1.384 . S
C354 C359 1.408 . S
C355 H345 0.930 . S
C355 C354 1.384 . S
C355 C356 1.389 . S
C356 C355 1.389 . S
C356 C357 1.405 . S
C357 H346 0.930 . S
C357 C356 1.405 . S
C357 C358 1.364 . S
C358 C357 1.364 . S
C358 C359 1.400 . S
C359 H347 0.931 . S
C359 C354 1.408 . S
C359 C358 1.400 . S
H360 C366 0.930 . S
H361 C369 0.931 . S
H362 C371 0.931 . S
H363 C373 0.930 . S
H364 C375 0.930 . S
H365 C377 0.931 . S
C366 H360 0.930 . S
C366 C367 1.380 . S
C366 C368 1.394 . S
C367 C366 1.380 . S
C367 C371 1.382 . S
C368 C366 1.394 . S
C368 C369 1.400 . S
C369 H361 0.931 . S
C369 C368 1.400 . S
C369 C370 1.375 . S
C370 C369 1.375 . S
C370 C371 1.415 . S
C370 C372 1.501 . S
C371 H362 0.931 . S
C371 C367 1.382 . S
C371 C370 1.415 . S
C372 C370 1.501 . S
C372 C373 1.384 . S
C372 C377 1.408 . S
C373 H363 0.930 . S
C373 C372 1.384 . S
C373 C374 1.389 . S
C374 C373 1.389 . S
C374 C375 1.405 . S
C375 H364 0.930 . S
C375 C374 1.405 . S
C375 C376 1.364 . S
C376 C375 1.364 . S
C376 C377 1.400 . S
C377 H365 0.931 . S
C377 C372 1.408 . S
C377 C376 1.400 . S
H378 C384 0.930 . S
H379 C387 0.931 . S
H380 C389 0.931 . S
H381 C391 0.930 . S
H382 C393 0.930 . S
H383 C395 0.931 . S
C384 H378 0.930 . S
C384 C385 1.380 . S
C384 C386 1.394 . S
C385 C384 1.380 . S
C385 C389 1.382 . S
C386 C384 1.394 . S
C386 C387 1.400 . S
C387 H379 0.931 . S
C387 C386 1.400 . S
C387 C388 1.375 . S
C388 C387 1.375 . S
C388 C389 1.415 . S
C388 C390 1.501 . S
C389 H380 0.931 . S
C389 C385 1.382 . S
C389 C388 1.415 . S
C390 C388 1.501 . S
C390 C391 1.384 . S
C390 C395 1.408 . S
C391 H381 0.930 . S
C391 C390 1.384 . S
C391 C392 1.389 . S
C392 C391 1.389 . S
C392 C393 1.405 . S
C393 H382 0.930 . S
C393 C392 1.405 . S
C393 C394 1.364 . S
C394 C393 1.364 . S
C394 C395 1.400 . S
C395 H383 0.931 . S
C395 C390 1.408 . S
C395 C394 1.400 . S
H396 C402 0.930 . S
H397 C405 0.931 . S
H398 C407 0.931 . S
H399 C409 0.930 . S
H400 C411 0.930 . S
H401 C413 0.931 . S
C402 H396 0.930 . S
C402 C403 1.380 . S
C402 C404 1.394 . S
C403 C402 1.380 . S
C403 C407 1.382 . S
C404 C402 1.394 . S
C404 C405 1.400 . S
C405 H397 0.931 . S
C405 C404 1.400 . S
C405 C406 1.375 . S
C406 C405 1.375 . S
C406 C407 1.415 . S
C406 C408 1.501 . S
C407 H398 0.931 . S
C407 C403 1.382 . S
C407 C406 1.415 . S
C408 C406 1.501 . S
C408 C409 1.384 . S
C408 C413 1.408 . S
C409 H399 0.930 . S
C409 C408 1.384 . S
C409 C410 1.389 . S
C410 C409 1.389 . S
C410 C411 1.405 . S
C411 H400 0.930 . S
C411 C410 1.405 . S
C411 C412 1.364 . S
C412 C411 1.364 . S
C412 C413 1.400 . S
C413 H401 0.931 . S
C413 C408 1.408 . S
C413 C412 1.400 . S
H414 C420 0.930 . S
H415 C423 0.931 . S
H416 C425 0.931 . S
H417 C427 0.930 . S
H418 C429 0.930 . S
H419 C431 0.931 . S
C420 H414 0.930 . S
C420 C421 1.380 . S
C420 C422 1.394 . S
C421 C420 1.380 . S
C421 C425 1.382 . S
C422 C420 1.394 . S
C422 C423 1.400 . S
C423 H415 0.931 . S
C423 C422 1.400 . S
C423 C424 1.375 . S
C424 C423 1.375 . S
C424 C425 1.415 . S
C424 C426 1.501 . S
C425 H416 0.931 . S
C425 C421 1.382 . S
C425 C424 1.415 . S
C426 C424 1.501 . S
C426 C427 1.384 . S
C426 C431 1.408 . S
C427 H417 0.930 . S
C427 C426 1.384 . S
C427 C428 1.389 . S
C428 C427 1.389 . S
C428 C429 1.405 . S
C429 H418 0.930 . S
C429 C428 1.405 . S
C429 C430 1.364 . S
C430 C429 1.364 . S
C430 C431 1.400 . S
C431 H419 0.931 . S
C431 C426 1.408 . S
C431 C430 1.400 . S
H432 C438 0.945 . S
H433 C441 0.931 . S
H434 C443 0.931 . S
H435 C445 0.930 . S
H436 C447 0.930 . S
H437 C449 0.921 1_545 S
C438 H432 0.945 . S
C438 C439 1.377 . S
C438 C440 1.383 1_545 S
C439 C438 1.377 . S
C439 C443 1.382 . S
C440 C438 1.383 1_565 S
C440 C441 1.400 . S
C441 H433 0.931 . S
C441 C440 1.400 . S
C441 C442 1.375 . S
C442 C441 1.375 . S
C442 C443 1.415 1_565 S
C442 C444 1.501 . S
C443 H434 0.931 . S
C443 C439 1.382 . S
C443 C442 1.415 1_545 S
C444 C442 1.501 . S
C444 C445 1.384 . S
C444 C449 1.399 . S
C445 H435 0.930 . S
C445 C444 1.384 . S
C445 C446 1.389 . S
C446 C445 1.389 . S
C446 C447 1.405 . S
C447 H436 0.930 . S
C447 C446 1.405 . S
C447 C448 1.375 . S
C448 C447 1.375 . S
C448 C449 1.406 . S
C449 H437 0.921 1_565 S
C449 C444 1.399 . S
C449 C448 1.406 . S
H450 C456 0.930 . S
H451 C459 0.931 . S
H452 C461 0.931 . S
H453 C463 0.930 . S
H454 C465 0.930 . S
H455 C467 0.931 . S
C456 H450 0.930 . S
C456 C457 1.380 . S
C456 C458 1.394 . S
C457 C456 1.380 . S
C457 C461 1.382 . S
C458 C456 1.394 . S
C458 C459 1.400 . S
C459 H451 0.931 . S
C459 C458 1.400 . S
C459 C460 1.375 . S
C460 C459 1.375 . S
C460 C461 1.415 . S
C460 C462 1.501 . S
C461 H452 0.931 . S
C461 C457 1.382 . S
C461 C460 1.415 . S
C462 C460 1.501 . S
C462 C463 1.384 . S
C462 C467 1.408 . S
C463 H453 0.930 . S
C463 C462 1.384 . S
C463 C464 1.389 . S
C464 C463 1.389 . S
C464 C465 1.405 . S
C465 H454 0.930 . S
C465 C464 1.405 . S
C465 C466 1.364 . S
C466 C465 1.364 . S
C466 C467 1.400 . S
C467 H455 0.931 . S
C467 C462 1.408 . S
C467 C466 1.400 . S
H468 C474 0.956 . S
H469 C477 0.931 . S
H470 C479 0.932 1_655 S
H471 C481 0.930 . S
H472 C483 0.973 . S
H473 C485 0.931 . S
C474 H468 0.956 . S
C474 C475 1.377 . S
C474 C476 1.369 1_655 S
C475 C474 1.377 . S
C475 C479 1.363 1_655 S
C476 C474 1.369 1_455 S
C476 C477 1.427 . S
C477 H469 0.931 . S
C477 C476 1.427 . S
C477 C478 1.375 . S
C478 C477 1.375 . S
C478 C479 1.416 . S
C478 C480 1.501 . S
C479 H470 0.932 1_455 S
C479 C475 1.363 1_455 S
C479 C478 1.416 . S
C480 C478 1.501 . S
C480 C481 1.384 . S
C480 C485 1.408 1_455 S
C481 H471 0.930 . S
C481 C480 1.384 . S
C481 C482 1.389 . S
C482 C481 1.389 . S
C482 C483 1.397 . S
C483 H472 0.973 . S
C483 C482 1.397 . S
C483 C484 1.335 1_455 S
C484 C483 1.335 1_655 S
C484 C485 1.400 . S
C485 H473 0.931 . S
C485 C480 1.408 1_655 S
C485 C484 1.400 . S
H486 C492 0.930 . S
H487 C495 0.931 . S
H488 C497 0.931 . S
H489 C499 0.930 . S
H490 C501 0.930 . S
H491 C503 0.931 . S
C492 H486 0.930 . S
C492 C493 1.380 . S
C492 C494 1.394 . S
C493 C492 1.380 . S
C493 C497 1.382 . S
C494 C492 1.394 . S
C494 C495 1.400 . S
C495 H487 0.931 . S
C495 C494 1.400 . S
C495 C496 1.375 . S
C496 C495 1.375 . S
C496 C497 1.415 . S
C496 C498 1.501 . S
C497 H488 0.931 . S
C497 C493 1.382 . S
C497 C496 1.415 . S
C498 C496 1.501 . S
C498 C499 1.384 . S
C498 C503 1.408 . S
C499 H489 0.930 . S
C499 C498 1.384 . S
C499 C500 1.389 . S
C500 C499 1.389 . S
C500 C501 1.405 . S
C501 H490 0.930 . S
C501 C500 1.405 . S
C501 C502 1.364 . S
C502 C501 1.364 . S
C502 C503 1.400 . S
C503 H491 0.931 . S
C503 C498 1.408 . S
C503 C502 1.400 . S
H504 C510 0.930 . S
H505 C513 0.931 . S
H506 C515 0.931 . S
H507 C517 0.930 . S
H508 C519 0.930 . S
H509 C521 0.931 . S
C510 H504 0.930 . S
C510 C511 1.380 . S
C510 C512 1.394 . S
C511 C510 1.380 . S
C511 C515 1.382 . S
C512 C510 1.394 . S
C512 C513 1.400 . S
C513 H505 0.931 . S
C513 C512 1.400 . S
C513 C514 1.375 . S
C514 C513 1.375 . S
C514 C515 1.415 . S
C514 C516 1.501 . S
C515 H506 0.931 . S
C515 C511 1.382 . S
C515 C514 1.415 . S
C516 C514 1.501 . S
C516 C517 1.384 . S
C516 C521 1.408 . S
C517 H507 0.930 . S
C517 C516 1.384 . S
C517 C518 1.389 . S
C518 C517 1.389 . S
C518 C519 1.405 . S
C519 H508 0.930 . S
C519 C518 1.405 . S
C519 C520 1.364 . S
C520 C519 1.364 . S
C520 C521 1.400 . S
C521 H509 0.931 . S
C521 C516 1.408 . S
C521 C520 1.400 . S
H522 C528 0.930 . S
H523 C531 0.931 . S
H524 C533 0.931 . S
H525 C535 0.930 . S
H526 C537 0.930 . S
H527 C539 0.931 . S
C528 H522 0.930 . S
C528 C529 1.380 . S
C528 C530 1.394 . S
C529 C528 1.380 . S
C529 C533 1.382 . S
C530 C528 1.394 . S
C530 C531 1.400 . S
C531 H523 0.931 . S
C531 C530 1.400 . S
C531 C532 1.375 . S
C532 C531 1.375 . S
C532 C533 1.415 . S
C532 C534 1.501 . S
C533 H524 0.931 . S
C533 C529 1.382 . S
C533 C532 1.415 . S
C534 C532 1.501 . S
C534 C535 1.384 . S
C534 C539 1.408 . S
C535 H525 0.930 . S
C535 C534 1.384 . S
C535 C536 1.389 . S
C536 C535 1.389 . S
C536 C537 1.405 . S
C537 H526 0.930 . S
C537 C536 1.405 . S
C537 C538 1.364 . S
C538 C537 1.364 . S
C538 C539 1.400 . S
C539 H527 0.931 . S
C539 C534 1.408 . S
C539 C538 1.400 . S
H540 C546 0.930 . S
H541 C549 0.931 . S
H542 C551 0.931 . S
H543 C553 0.930 . S
H544 C555 0.930 . S
H545 C557 0.931 . S
C546 H540 0.930 . S
C546 C547 1.380 . S
C546 C548 1.394 . S
C547 C546 1.380 . S
C547 C551 1.382 . S
C548 C546 1.394 . S
C548 C549 1.400 . S
C549 H541 0.931 . S
C549 C548 1.400 . S
C549 C550 1.375 . S
C550 C549 1.375 . S
C550 C551 1.415 . S
C550 C552 1.501 . S
C551 H542 0.931 . S
C551 C547 1.382 . S
C551 C550 1.415 . S
C552 C550 1.501 . S
C552 C553 1.384 . S
C552 C557 1.408 . S
C553 H543 0.930 . S
C553 C552 1.384 . S
C553 C554 1.389 . S
C554 C553 1.389 . S
C554 C555 1.405 . S
C555 H544 0.930 . S
C555 C554 1.405 . S
C555 C556 1.364 . S
C556 C555 1.364 . S
C556 C557 1.400 . S
C557 H545 0.931 . S
C557 C552 1.408 . S
C557 C556 1.400 . S
H558 C566 0.934 1_655 S
H559 C568 0.927 1_655 S
H560 C570 0.930 . S
H561 C573 0.929 . S
H562 C576 0.930 . S
H563 C578 0.960 . S
H564 C578 0.960 . S
H565 C578 0.960 . S
C566 H558 0.934 1_455 S
C566 C567 1.384 . S
C566 C568 1.379 . S
C567 C566 1.384 . S
C567 C573 1.390 . S
C568 H559 0.927 1_455 S
C568 C566 1.379 . S
C568 C569 1.369 . S
C569 C568 1.369 . S
C569 C570 1.400 . S
C569 C574 1.490 . S
C570 H560 0.930 . S
C570 C569 1.400 . S
C570 C573 1.386 . S
H571 C587 0.930 . S
H572 C588 0.931 . S
C573 H561 0.929 . S
C573 C567 1.390 . S
C573 C570 1.386 . S
C574 C569 1.490 . S
C574 C576 1.395 . S
C574 C577 1.403 1_455 S
H575 C581 0.930 . S
C576 H562 0.930 . S
C576 C574 1.395 . S
C576 C579 1.403 . S
C577 C574 1.403 1_655 S
C577 C578 1.524 . S
C577 C581 1.400 . S
C578 H563 0.960 . S
C578 H564 0.960 . S
C578 H565 0.960 . S
C578 C577 1.524 . S
C579 C576 1.403 . S
C579 C580 1.392 . S
C579 C583 1.495 . S
C580 C579 1.392 . S
C580 C581 1.385 1_455 S
C580 C582 1.478 . S
C581 H575 0.930 . S
C581 C577 1.400 . S
C581 C580 1.385 1_655 S
C582 C580 1.478 . S
C582 C584 1.389 . S
C582 C588 1.383 . S
C583 C579 1.495 . S
C583 H589 0.959 . S
C583 H590 0.961 . S
C583 H591 0.960 . S
C584 C582 1.389 . S
C584 C585 1.369 1_455 S
C584 H592 0.932 1_455 S
C585 C584 1.369 1_655 S
C585 C586 1.387 1_655 S
C585 H593 0.944 . S
C586 C585 1.387 1_455 S
C586 C587 1.377 . S
C587 H571 0.930 . S
C587 C586 1.377 . S
C587 C588 1.379 . S
C588 H572 0.931 . S
C588 C582 1.383 . S
C588 C587 1.379 . S
H589 C583 0.959 . S
H590 C583 0.961 . S
H591 C583 0.960 . S
H592 C584 0.932 1_655 S
H593 C585 0.944 . S
H594 C602 0.929 . S
H595 C604 0.930 . S
H596 C606 0.930 . S
H597 C609 0.929 . S
H598 C612 0.930 . S
H599 C614 0.960 . S
H600 C614 0.960 . S
H601 C614 0.960 . S
C602 H594 0.929 . S
C602 C603 1.377 . S
C602 C604 1.384 . S
C603 C602 1.377 . S
C603 C609 1.390 . S
C604 H595 0.930 . S
C604 C602 1.384 . S
C604 C605 1.372 . S
C605 C604 1.372 . S
C605 C606 1.400 . S
C605 C610 1.490 . S
C606 H596 0.930 . S
C606 C605 1.400 . S
C606 C609 1.386 . S
H607 C623 0.930 . S
H608 C624 0.931 . S
C609 H597 0.929 . S
C609 C603 1.390 . S
C609 C606 1.386 . S
C610 C605 1.490 . S
C610 C612 1.395 . S
C610 C613 1.403 . S
H611 C617 0.930 . S
C612 H598 0.930 . S
C612 C610 1.395 . S
C612 C615 1.403 . S
C613 C610 1.403 . S
C613 C614 1.524 . S
C613 C617 1.400 . S
C614 H599 0.960 . S
C614 H600 0.960 . S
C614 H601 0.960 . S
C614 C613 1.524 . S
C615 C612 1.403 . S
C615 C616 1.392 . S
C615 C619 1.495 . S
C616 C615 1.392 . S
C616 C617 1.385 . S
C616 C618 1.478 . S
C617 H611 0.930 . S
C617 C613 1.400 . S
C617 C616 1.385 . S
C618 C616 1.478 . S
C618 C620 1.381 . S
C618 C624 1.383 . S
C619 C615 1.495 . S
C619 H625 0.959 . S
C619 H626 0.961 . S
C619 H627 0.960 . S
C620 C618 1.381 . S
C620 C621 1.394 . S
C620 H628 0.930 . S
C621 C620 1.394 . S
C621 C622 1.383 . S
C621 H629 0.929 . S
C622 C621 1.383 . S
C622 C623 1.377 . S
C623 H607 0.930 . S
C623 C622 1.377 . S
C623 C624 1.379 . S
C624 H608 0.931 . S
C624 C618 1.383 . S
C624 C623 1.379 . S
H625 C619 0.959 . S
H626 C619 0.961 . S
H627 C619 0.960 . S
H628 C620 0.930 . S
H629 C621 0.929 . S
H630 C638 0.929 . S
H631 C640 0.930 . S
H632 C642 0.930 . S
H633 C645 0.929 . S
H634 C648 0.930 . S
H635 C650 0.960 . S
H636 C650 0.960 . S
H637 C650 0.960 . S
C638 H630 0.929 . S
C638 C639 1.377 . S
C638 C640 1.384 . S
C639 C638 1.377 . S
C639 C645 1.390 . S
C640 H631 0.930 . S
C640 C638 1.384 . S
C640 C641 1.372 . S
C641 C640 1.372 . S
C641 C642 1.400 . S
C641 C646 1.490 . S
C642 H632 0.930 . S
C642 C641 1.400 . S
C642 C645 1.386 . S
H643 C659 0.930 . S
H644 C660 0.923 . S
C645 H633 0.929 . S
C645 C639 1.390 . S
C645 C642 1.386 . S
C646 C641 1.490 . S
C646 C648 1.395 1_545 S
C646 C649 1.403 . S
H647 C653 0.930 . S
C648 H634 0.930 . S
C648 C646 1.395 1_565 S
C648 C651 1.403 . S
C649 C646 1.403 . S
C649 C650 1.524 . S
C649 C653 1.400 . S
C650 H635 0.960 . S
C650 H636 0.960 . S
C650 H637 0.960 . S
C650 C649 1.524 . S
C651 C648 1.403 . S
C651 C652 1.368 1_565 S
C651 C655 1.495 . S
C652 C651 1.368 1_545 S
C652 C653 1.445 . S
C652 C654 1.471 . S
C653 H647 0.930 . S
C653 C649 1.400 . S
C653 C652 1.445 . S
C654 C652 1.471 . S
C654 C656 1.391 . S
C654 C660 1.383 . S
C655 C651 1.495 . S
C655 H661 0.959 . S
C655 H662 0.961 . S
C655 H663 0.960 . S
C656 C654 1.391 . S
C656 C657 1.394 . S
C656 H664 0.930 . S
C657 C656 1.394 . S
C657 C658 1.383 . S
C657 H665 0.929 . S
C658 C657 1.383 . S
C658 C659 1.377 . S
C659 H643 0.930 . S
C659 C658 1.377 . S
C659 C660 1.360 . S
C660 H644 0.923 . S
C660 C654 1.383 . S
C660 C659 1.360 . S
H661 C655 0.959 . S
H662 C655 0.961 . S
H663 C655 0.960 . S
H664 C656 0.930 . S
H665 C657 0.929 . S
H666 C674 0.929 . S
H667 C676 0.930 . S
H668 C678 0.930 . S
H669 C681 0.929 . S
H670 C684 0.930 . S
H671 C686 0.960 . S
H672 C686 0.960 1_565 S
H673 C686 0.960 . S
C674 H666 0.929 . S
C674 C675 1.377 1_565 S
C674 C676 1.384 . S
C675 C674 1.377 1_545 S
C675 C681 1.390 . S
C676 H667 0.930 . S
C676 C674 1.384 . S
C676 C677 1.372 1_565 S
C677 C676 1.372 1_545 S
C677 C678 1.400 . S
C677 C682 1.490 . S
C678 H668 0.930 . S
C678 C677 1.400 . S
C678 C681 1.386 . S
H679 C695 0.930 . S
H680 C696 0.931 . S
C681 H669 0.929 . S
C681 C675 1.390 . S
C681 C678 1.386 . S
C682 C677 1.490 . S
C682 C684 1.395 . S
C682 C685 1.403 . S
H683 C689 0.930 . S
C684 H670 0.930 . S
C684 C682 1.395 . S
C684 C687 1.403 . S
C685 C682 1.403 . S
C685 C686 1.524 . S
C685 C689 1.400 . S
C686 H671 0.960 . S
C686 H672 0.960 1_545 S
C686 H673 0.960 . S
C686 C685 1.524 . S
C687 C684 1.403 . S
C687 C688 1.392 . S
C687 C691 1.495 . S
C688 C687 1.392 . S
C688 C689 1.385 . S
C688 C690 1.478 . S
C689 H683 0.930 . S
C689 C685 1.400 . S
C689 C688 1.385 . S
C690 C688 1.478 . S
C690 C692 1.381 1_545 S
C690 C696 1.383 . S
C691 C687 1.495 . S
C691 H697 0.959 . S
C691 H698 0.961 . S
C691 H699 0.960 1_545 S
C692 C690 1.381 1_565 S
C692 C693 1.394 . S
C692 H700 0.930 . S
C693 C692 1.394 . S
C693 C694 1.383 1_565 S
C693 H701 0.929 . S
C694 C693 1.383 1_545 S
C694 C695 1.377 . S
C695 H679 0.930 . S
C695 C694 1.377 . S
C695 C696 1.379 . S
C696 H680 0.931 . S
C696 C690 1.383 . S
C696 C695 1.379 . S
H697 C691 0.959 . S
H698 C691 0.961 . S
H699 C691 0.960 1_565 S
H700 C692 0.930 . S
H701 C693 0.929 . S
H702 C710 0.929 . S
H703 C712 0.930 . S
H704 C714 0.930 . S
H705 C717 0.929 . S
H706 C720 0.917 1_655 S
H707 C722 0.960 . S
H708 C722 0.960 1_655 S
H709 C722 0.960 . S
C710 H702 0.929 . S
C710 C711 1.377 1_655 S
C710 C712 1.384 . S
C711 C710 1.377 1_455 S
C711 C717 1.390 . S
C712 H703 0.930 . S
C712 C710 1.384 . S
C712 C713 1.372 1_655 S
C713 C712 1.372 1_455 S
C713 C714 1.400 . S
C713 C718 1.490 . S
C714 H704 0.930 . S
C714 C713 1.400 . S
C714 C717 1.386 . S
H715 C731 0.930 . S
H716 C732 0.931 . S
C717 H705 0.929 . S
C717 C711 1.390 . S
C717 C714 1.386 . S
C718 C713 1.490 . S
C718 C720 1.413 . S
C718 C721 1.403 . S
H719 C725 0.930 . S
C720 H706 0.917 1_455 S
C720 C718 1.413 . S
C720 C723 1.409 . S
C721 C718 1.403 . S
C721 C722 1.524 . S
C721 C725 1.400 . S
C722 H707 0.960 . S
C722 H708 0.960 1_455 S
C722 H709 0.960 . S
C722 C721 1.524 . S
C723 C720 1.409 . S
C723 C724 1.402 . S
C723 C727 1.470 1_455 S
C724 C723 1.402 . S
C724 C725 1.385 . S
C724 C726 1.478 . S
C725 H719 0.930 . S
C725 C721 1.400 . S
C725 C724 1.385 . S
C726 C724 1.478 . S
C726 C728 1.381 1_455 S
C726 C732 1.383 . S
C727 C723 1.470 1_655 S
C727 H733 0.959 . S
C727 H734 0.961 1_655 S
C727 H735 0.960 . S
C728 C726 1.381 1_655 S
C728 C729 1.394 . S
C728 H736 0.930 . S
C729 C728 1.394 . S
C729 C730 1.383 1_655 S
C729 H737 0.929 . S
C730 C729 1.383 1_455 S
C730 C731 1.377 . S
C731 H715 0.930 . S
C731 C730 1.377 . S
C731 C732 1.379 . S
C732 H716 0.931 . S
C732 C726 1.383 . S
C732 C731 1.379 . S
H733 C727 0.959 . S
H734 C727 0.961 1_455 S
H735 C727 0.960 . S
H736 C728 0.930 . S
H737 C729 0.929 . S
H738 C746 0.929 . S
H739 C748 0.930 . S
H740 C750 0.930 . S
H741 C753 0.929 . S
H742 C756 0.930 . S
H743 C758 0.960 . S
H744 C758 0.960 . S
H745 C758 0.960 . S
C746 H738 0.929 . S
C746 C747 1.377 . S
C746 C748 1.384 . S
C747 C746 1.377 . S
C747 C753 1.390 . S
C748 H739 0.930 . S
C748 C746 1.384 . S
C748 C749 1.372 . S
C749 C748 1.372 . S
C749 C750 1.400 . S
C749 C754 1.490 . S
C750 H740 0.930 . S
C750 C749 1.400 . S
C750 C753 1.386 . S
H751 C767 0.930 . S
H752 C768 0.931 . S
C753 H741 0.929 . S
C753 C747 1.390 . S
C753 C750 1.386 . S
C754 C749 1.490 . S
C754 C756 1.395 . S
C754 C757 1.403 . S
H755 C761 0.930 . S
C756 H742 0.930 . S
C756 C754 1.395 . S
C756 C759 1.403 . S
C757 C754 1.403 . S
C757 C758 1.524 . S
C757 C761 1.400 . S
C758 H743 0.960 . S
C758 H744 0.960 . S
C758 H745 0.960 . S
C758 C757 1.524 . S
C759 C756 1.403 . S
C759 C760 1.392 . S
C759 C763 1.495 . S
C760 C759 1.392 . S
C760 C761 1.385 . S
C760 C762 1.478 . S
C761 H755 0.930 . S
C761 C757 1.400 . S
C761 C760 1.385 . S
C762 C760 1.478 . S
C762 C764 1.381 . S
C762 C768 1.383 . S
C763 C759 1.495 . S
C763 H769 0.959 . S
C763 H770 0.961 . S
C763 H771 0.960 . S
C764 C762 1.381 . S
C764 C765 1.394 . S
C764 H772 0.930 . S
C765 C764 1.394 . S
C765 C766 1.383 . S
C765 H773 0.929 . S
C766 C765 1.383 . S
C766 C767 1.377 . S
C767 H751 0.930 . S
C767 C766 1.377 . S
C767 C768 1.379 . S
C768 H752 0.931 . S
C768 C762 1.383 . S
C768 C767 1.379 . S
H769 C763 0.959 . S
H770 C763 0.961 . S
H771 C763 0.960 . S
H772 C764 0.930 . S
H773 C765 0.929 . S
H774 C782 0.929 . S
H775 C784 0.930 . S
H776 C786 0.930 . S
H777 C789 0.929 . S
H778 C792 0.930 . S
H779 C794 0.960 . S
H780 C794 0.960 . S
H781 C794 0.960 . S
C782 H774 0.929 . S
C782 C783 1.377 1_655 S
C782 C784 1.384 . S
C783 C782 1.377 1_455 S
C783 C789 1.390 . S
C784 H775 0.930 . S
C784 C782 1.384 . S
C784 C785 1.310 1_655 S
C785 C784 1.310 1_455 S
C785 C786 1.435 . S
C785 C790 1.520 . S
C786 H776 0.930 . S
C786 C785 1.435 . S
C786 C789 1.386 . S
H787 C803 0.930 . S
H788 C804 0.931 . S
C789 H777 0.929 . S
C789 C783 1.390 . S
C789 C786 1.386 . S
C790 C785 1.520 . S
C790 C792 1.391 1_455 S
C790 C793 1.408 . S
H791 C797 0.930 . S
C792 H778 0.930 . S
C792 C790 1.391 1_655 S
C792 C795 1.403 . S
C793 C790 1.408 . S
C793 C794 1.524 . S
C793 C797 1.400 . S
C794 H779 0.960 . S
C794 H780 0.960 . S
C794 H781 0.960 . S
C794 C793 1.524 . S
C795 C792 1.403 . S
C795 C796 1.392 . S
C795 C799 1.495 . S
C796 C795 1.392 . S
C796 C797 1.385 1_655 S
C796 C798 1.478 . S
C797 H791 0.930 . S
C797 C793 1.400 . S
C797 C796 1.385 1_455 S
C798 C796 1.478 . S
C798 C800 1.381 . S
C798 C804 1.383 1_655 S
C799 C795 1.495 . S
C799 H805 0.959 . S
C799 H806 0.961 . S
C799 H807 0.960 . S
C800 C798 1.381 . S
C800 C801 1.394 . S
C800 H808 0.930 . S
C801 C800 1.394 . S
C801 C802 1.383 . S
C801 H809 0.929 . S
C802 C801 1.383 . S
C802 C803 1.377 1_655 S
C803 H787 0.930 . S
C803 C802 1.377 1_455 S
C803 C804 1.379 . S
C804 H788 0.931 . S
C804 C798 1.383 1_455 S
C804 C803 1.379 . S
H805 C799 0.959 . S
H806 C799 0.961 . S
H807 C799 0.960 . S
H808 C800 0.930 . S
H809 C801 0.929 . S
H810 C818 0.929 . S
H811 C820 0.930 . S
H812 C822 0.930 . S
H813 C825 0.929 . S
H814 C828 0.930 . S
H815 C830 0.960 . S
H816 C830 0.960 . S
H817 C830 0.960 . S
C818 H810 0.929 . S
C818 C819 1.377 . S
C818 C820 1.384 . S
C819 C818 1.377 . S
C819 C825 1.390 . S
C820 H811 0.930 . S
C820 C818 1.384 . S
C820 C821 1.372 . S
C821 C820 1.372 . S
C821 C822 1.400 . S
C821 C826 1.490 . S
C822 H812 0.930 . S
C822 C821 1.400 . S
C822 C825 1.386 . S
H823 C839 0.930 . S
H824 C840 0.931 . S
C825 H813 0.929 . S
C825 C819 1.390 . S
C825 C822 1.386 . S
C826 C821 1.490 . S
C826 C828 1.395 . S
C826 C829 1.403 . S
H827 C833 0.930 . S
C828 H814 0.930 . S
C828 C826 1.395 . S
C828 C831 1.403 . S
C829 C826 1.403 . S
C829 C830 1.524 . S
C829 C833 1.400 . S
C830 H815 0.960 . S
C830 H816 0.960 . S
C830 H817 0.960 . S
C830 C829 1.524 . S
C831 C828 1.403 . S
C831 C832 1.392 . S
C831 C835 1.495 . S
C832 C831 1.392 . S
C832 C833 1.385 . S
C832 C834 1.478 . S
C833 H827 0.930 . S
C833 C829 1.400 . S
C833 C832 1.385 . S
C834 C832 1.478 . S
C834 C836 1.381 . S
C834 C840 1.383 . S
C835 C831 1.495 . S
C835 H841 0.959 . S
C835 H842 0.961 . S
C835 H843 0.960 . S
C836 C834 1.381 . S
C836 C837 1.394 . S
C836 H844 0.930 . S
C837 C836 1.394 . S
C837 C838 1.383 . S
C837 H845 0.929 . S
C838 C837 1.383 . S
C838 C839 1.377 . S
C839 H823 0.930 . S
C839 C838 1.377 . S
C839 C840 1.379 . S
C840 H824 0.931 . S
C840 C834 1.383 . S
C840 C839 1.379 . S
H841 C835 0.959 . S
H842 C835 0.961 . S
H843 C835 0.960 . S
H844 C836 0.930 . S
H845 C837 0.929 . S
H846 C854 0.929 . S
H847 C856 0.978 . S
H848 C858 0.930 . S
H849 C861 0.929 . S
H850 C864 0.930 . S
H851 C866 0.960 . S
H852 C866 0.960 . S
H853 C866 0.960 . S
C854 H846 0.929 . S
C854 C855 1.377 1_565 S
C854 C856 1.419 . S
C855 C854 1.377 1_545 S
C855 C861 1.390 . S
C856 H847 0.978 . S
C856 C854 1.419 . S
C856 C857 1.295 1_565 S
C857 C856 1.295 1_545 S
C857 C858 1.400 . S
C857 C862 1.490 . S
C858 H848 0.930 . S
C858 C857 1.400 . S
C858 C861 1.386 . S
H859 C875 0.930 . S
H860 C876 0.931 . S
C861 H849 0.929 . S
C861 C855 1.390 . S
C861 C858 1.386 . S
C862 C857 1.490 . S
C862 C864 1.395 1_545 S
C862 C865 1.403 . S
H863 C869 0.930 . S
C864 H850 0.930 . S
C864 C862 1.395 1_565 S
C864 C867 1.403 . S
C865 C862 1.403 . S
C865 C866 1.524 . S
C865 C869 1.400 . S
C866 H851 0.960 . S
C866 H852 0.960 . S
C866 H853 0.960 . S
C866 C865 1.524 . S
C867 C864 1.403 . S
C867 C868 1.392 1_565 S
C867 C871 1.495 . S
C868 C867 1.392 1_545 S
C868 C869 1.385 . S
C868 C870 1.478 . S
C869 H863 0.930 . S
C869 C865 1.400 . S
C869 C868 1.385 . S
C870 C868 1.478 . S
C870 C872 1.378 1_545 S
C870 C876 1.383 . S
C871 C867 1.495 . S
C871 H877 0.959 . S
C871 H878 0.961 . S
C871 H879 0.960 . S
C872 C870 1.378 1_565 S
C872 C873 1.390 1_565 S
C872 H880 0.938 . S
C873 C872 1.390 1_545 S
C873 C874 1.383 . S
C873 H881 0.929 1_545 S
C874 C873 1.383 . S
C874 C875 1.377 . S
C875 H859 0.930 . S
C875 C874 1.377 . S
C875 C876 1.379 . S
C876 H860 0.931 . S
C876 C870 1.383 . S
C876 C875 1.379 . S
H877 C871 0.959 . S
H878 C871 0.961 . S
H879 C871 0.960 . S
H880 C872 0.938 . S
H881 C873 0.929 1_565 S
H882 C890 0.929 . S
H883 C892 0.930 . S
H884 C894 0.930 . S
H885 C897 0.929 . S
H886 C900 0.930 . S
H887 C902 0.960 . S
H888 C902 0.960 . S
H889 C902 0.960 . S
C890 H882 0.929 . S
C890 C891 1.377 1_565 S
C890 C892 1.384 . S
C891 C890 1.377 1_545 S
C891 C897 1.390 . S
C892 H883 0.930 . S
C892 C890 1.384 . S
C892 C893 1.372 1_565 S
C893 C892 1.372 1_545 S
C893 C894 1.400 . S
C893 C898 1.490 . S
C894 H884 0.930 . S
C894 C893 1.400 . S
C894 C897 1.386 . S
H895 C911 0.930 . S
H896 C912 0.931 . S
C897 H885 0.929 . S
C897 C891 1.390 . S
C897 C894 1.386 . S
C898 C893 1.490 . S
C898 C900 1.395 . S
C898 C901 1.403 1_545 S
H899 C905 0.930 . S
C900 H886 0.930 . S
C900 C898 1.395 . S
C900 C903 1.403 . S
C901 C898 1.403 1_565 S
C901 C902 1.524 . S
C901 C905 1.400 . S
C902 H887 0.960 . S
C902 H888 0.960 . S
C902 H889 0.960 . S
C902 C901 1.524 . S
C903 C900 1.403 . S
C903 C904 1.392 . S
C903 C907 1.495 . S
C904 C903 1.392 . S
C904 C905 1.385 1_545 S
C904 C906 1.478 . S
C905 H899 0.930 . S
C905 C901 1.400 . S
C905 C904 1.385 1_565 S
C906 C904 1.478 . S
C906 C908 1.381 1_545 S
C906 C912 1.383 . S
C907 C903 1.495 . S
C907 H913 0.959 . S
C907 H914 0.961 . S
C907 H915 0.960 . S
C908 C906 1.381 1_565 S
C908 C909 1.394 . S
C908 H916 0.930 . S
C909 C908 1.394 . S
C909 C910 1.367 1_565 S
C909 H917 0.929 . S
C910 C909 1.367 1_545 S
C910 C911 1.386 . S
C911 H895 0.930 . S
C911 C910 1.386 . S
C911 C912 1.379 . S
C912 H896 0.931 . S
C912 C906 1.383 . S
C912 C911 1.379 . S
H913 C907 0.959 . S
H914 C907 0.961 . S
H915 C907 0.960 . S
H916 C908 0.930 . S
H917 C909 0.929 . S
H918 C926 0.965 . S
H919 C928 0.948 . S
H920 C930 0.930 . S
H921 C933 0.929 . S
H922 C936 0.930 . S
H923 C938 0.960 . S
H924 C938 0.960 . S
H925 C938 0.960 . S
C926 H918 0.965 . S
C926 C927 1.359 1_655 S
C926 C928 1.382 . S
C927 C926 1.359 1_455 S
C927 C933 1.390 . S
C928 H919 0.948 . S
C928 C926 1.382 . S
C928 C929 1.341 1_655 S
C929 C928 1.341 1_455 S
C929 C930 1.400 . S
C929 C934 1.490 . S
C930 H920 0.930 . S
C930 C929 1.400 . S
C930 C933 1.386 . S
H931 C947 0.930 . S
H932 C948 0.931 . S
C933 H921 0.929 . S
C933 C927 1.390 . S
C933 C930 1.386 . S
C934 C929 1.490 . S
C934 C936 1.395 1_455 S
C934 C937 1.403 . S
H935 C941 0.930 . S
C936 H922 0.930 . S
C936 C934 1.395 1_655 S
C936 C939 1.403 . S
C937 C934 1.403 . S
C937 C938 1.524 . S
C937 C941 1.400 . S
C938 H923 0.960 . S
C938 H924 0.960 . S
C938 H925 0.960 . S
C938 C937 1.524 . S
C939 C936 1.403 . S
C939 C940 1.392 1_655 S
C939 C943 1.495 . S
C940 C939 1.392 1_455 S
C940 C941 1.385 . S
C940 C942 1.478 . S
C941 H935 0.930 . S
C941 C937 1.400 . S
C941 C940 1.385 . S
C942 C940 1.478 . S
C942 C944 1.380 . S
C942 C948 1.383 . S
C943 C939 1.495 . S
C943 H949 0.959 . S
C943 H950 0.961 . S
C943 H951 0.960 . S
C944 C942 1.380 . S
C944 C945 1.393 . S
C944 H952 0.932 1_455 S
C945 C944 1.393 . S
C945 C946 1.383 . S
C945 H953 0.929 1_455 S
C946 C945 1.383 . S
C946 C947 1.377 . S
C947 H931 0.930 . S
C947 C946 1.377 . S
C947 C948 1.379 . S
C948 H932 0.931 . S
C948 C942 1.383 . S
C948 C947 1.379 . S
H949 C943 0.959 . S
H950 C943 0.961 . S
H951 C943 0.960 . S
H952 C944 0.932 1_655 S
H953 C945 0.929 1_655 S
H954 C962 0.929 . S
H955 C964 0.930 . S
H956 C966 0.930 . S
H957 C969 0.929 . S
H958 C972 0.930 . S
H959 C974 0.960 . S
H960 C974 0.960 . S
H961 C974 0.960 . S
C962 H954 0.929 . S
C962 C963 1.377 . S
C962 C964 1.384 . S
C963 C962 1.377 . S
C963 C969 1.390 . S
C964 H955 0.930 . S
C964 C962 1.384 . S
C964 C965 1.372 . S
C965 C964 1.372 . S
C965 C966 1.400 . S
C965 C970 1.490 . S
C966 H956 0.930 . S
C966 C965 1.400 . S
C966 C969 1.386 . S
H967 C983 0.930 . S
H968 C984 0.931 . S
C969 H957 0.929 . S
C969 C963 1.390 . S
C969 C966 1.386 . S
C970 C965 1.490 . S
C970 C972 1.395 . S
C970 C973 1.403 . S
H971 C977 0.930 . S
C972 H958 0.930 . S
C972 C970 1.395 . S
C972 C975 1.403 . S
C973 C970 1.403 . S
C973 C974 1.524 . S
C973 C977 1.400 . S
C974 H959 0.960 . S
C974 H960 0.960 . S
C974 H961 0.960 . S
C974 C973 1.524 . S
C975 C972 1.403 . S
C975 C976 1.392 . S
C975 C979 1.495 . S
C976 C975 1.392 . S
C976 C977 1.385 . S
C976 C978 1.478 . S
C977 H971 0.930 . S
C977 C973 1.400 . S
C977 C976 1.385 . S
C978 C976 1.478 . S
C978 C980 1.381 . S
C978 C984 1.383 . S
C979 C975 1.495 . S
C979 H985 0.959 . S
C979 H986 0.961 . S
C979 H987 0.960 . S
C980 C978 1.381 . S
C980 C981 1.394 . S
C980 H988 0.930 . S
C981 C980 1.394 . S
C981 C982 1.383 . S
C981 H989 0.929 . S
C982 C981 1.383 . S
C982 C983 1.377 . S
C983 H967 0.930 . S
C983 C982 1.377 . S
C983 C984 1.379 . S
C984 H968 0.931 . S
C984 C978 1.383 . S
C984 C983 1.379 . S
H985 C979 0.959 . S
H986 C979 0.961 . S
H987 C979 0.960 . S
H988 C980 0.930 . S
H989 C981 0.929 . S
H990 C998 0.929 . S
H991 C1000 0.930 . S
H992 C1002 0.930 . S
H993 C1005 0.929 . S
H994 C1008 0.930 . S
H995 C1010 0.960 . S
H996 C1010 0.960 . S
H997 C1010 0.960 . S
C998 H990 0.929 . S
C998 C999 1.377 . S
C998 C1000 1.384 . S
C999 C998 1.377 . S
C999 C1005 1.390 . S
C1000 H991 0.930 . S
C1000 C998 1.384 . S
C1000 C1001 1.372 . S
C1001 C1000 1.372 . S
C1001 C1002 1.400 . S
C1001 C1006 1.490 . S
C1002 H992 0.930 . S
C1002 C1001 1.400 . S
C1002 C1005 1.386 . S
H1003 C1019 0.930 . S
H1004 C1020 0.931 . S
C1005 H993 0.929 . S
C1005 C999 1.390 . S
C1005 C1002 1.386 . S
C1006 C1001 1.490 . S
C1006 C1008 1.395 . S
C1006 C1009 1.403 . S
H1007 C1013 0.930 . S
C1008 H994 0.930 . S
C1008 C1006 1.395 . S
C1008 C1011 1.403 . S
C1009 C1006 1.403 . S
C1009 C1010 1.524 . S
C1009 C1013 1.400 . S
C1010 H995 0.960 . S
C1010 H996 0.960 . S
C1010 H997 0.960 . S
C1010 C1009 1.524 . S
C1011 C1008 1.403 . S
C1011 C1012 1.392 . S
C1011 C1015 1.495 . S
C1012 C1011 1.392 . S
C1012 C1013 1.385 . S
C1012 C1014 1.478 . S
C1013 H1007 0.930 . S
C1013 C1009 1.400 . S
C1013 C1012 1.385 . S
C1014 C1012 1.478 . S
C1014 C1016 1.381 . S
C1014 C1020 1.383 . S
C1015 C1011 1.495 . S
C1015 H1021 0.959 . S
C1015 H1022 0.961 . S
C1015 H1023 0.960 . S
C1016 C1014 1.381 . S
C1016 C1017 1.394 . S
C1016 H1024 0.930 . S
C1017 C1016 1.394 . S
C1017 C1018 1.383 . S
C1017 H1025 0.929 . S
C1018 C1017 1.383 . S
C1018 C1019 1.377 . S
C1019 H1003 0.930 . S
C1019 C1018 1.377 . S
C1019 C1020 1.379 . S
C1020 H1004 0.931 . S
C1020 C1014 1.383 . S
C1020 C1019 1.379 . S
H1021 C1015 0.959 . S
H1022 C1015 0.961 . S
H1023 C1015 0.960 . S
H1024 C1016 0.930 . S
H1025 C1017 0.929 . S
H1026 C1034 0.929 . S
H1027 C1036 0.930 . S
H1028 C1038 0.930 . S
H1029 C1041 0.929 . S
H1030 C1044 0.930 . S
H1031 C1046 0.960 . S
H1032 C1046 0.960 . S
H1033 C1046 0.960 . S
C1034 H1026 0.929 . S
C1034 C1035 1.377 . S
C1034 C1036 1.384 . S
C1035 C1034 1.377 . S
C1035 C1041 1.390 . S
C1036 H1027 0.930 . S
C1036 C1034 1.384 . S
C1036 C1037 1.372 . S
C1037 C1036 1.372 . S
C1037 C1038 1.400 . S
C1037 C1042 1.490 . S
C1038 H1028 0.930 . S
C1038 C1037 1.400 . S
C1038 C1041 1.386 . S
H1039 C1055 0.930 . S
H1040 C1056 0.931 . S
C1041 H1029 0.929 . S
C1041 C1035 1.390 . S
C1041 C1038 1.386 . S
C1042 C1037 1.490 . S
C1042 C1044 1.395 . S
C1042 C1045 1.403 . S
H1043 C1049 0.930 . S
C1044 H1030 0.930 . S
C1044 C1042 1.395 . S
C1044 C1047 1.403 . S
C1045 C1042 1.403 . S
C1045 C1046 1.524 . S
C1045 C1049 1.400 . S
C1046 H1031 0.960 . S
C1046 H1032 0.960 . S
C1046 H1033 0.960 . S
C1046 C1045 1.524 . S
C1047 C1044 1.403 . S
C1047 C1048 1.392 . S
C1047 C1051 1.495 . S
C1048 C1047 1.392 . S
C1048 C1049 1.385 . S
C1048 C1050 1.478 . S
C1049 H1043 0.930 . S
C1049 C1045 1.400 . S
C1049 C1048 1.385 . S
C1050 C1048 1.478 . S
C1050 C1052 1.381 . S
C1050 C1056 1.383 . S
C1051 C1047 1.495 . S
C1051 H1057 0.959 . S
C1051 H1058 0.961 . S
C1051 H1059 0.960 . S
C1052 C1050 1.381 . S
C1052 C1053 1.394 . S
C1052 H1060 0.930 . S
C1053 C1052 1.394 . S
C1053 C1054 1.383 . S
C1053 H1061 0.929 . S
C1054 C1053 1.383 . S
C1054 C1055 1.377 . S
C1055 H1039 0.930 . S
C1055 C1054 1.377 . S
C1055 C1056 1.379 . S
C1056 H1040 0.931 . S
C1056 C1050 1.383 . S
C1056 C1055 1.379 . S
H1057 C1051 0.959 . S
H1058 C1051 0.961 . S
H1059 C1051 0.960 . S
H1060 C1052 0.930 . S
H1061 C1053 0.929 . S
H1062 C1070 0.929 . S
H1063 C1072 0.930 . S
H1064 C1074 0.930 . S
H1065 C1077 0.929 . S
H1066 C1080 0.930 . S
H1067 C1082 0.960 . S
H1068 C1082 0.960 . S
H1069 C1082 0.960 . S
C1070 H1062 0.929 . S
C1070 C1071 1.377 . S
C1070 C1072 1.384 . S
C1071 C1070 1.377 . S
C1071 C1077 1.390 . S
C1072 H1063 0.930 . S
C1072 C1070 1.384 . S
C1072 C1073 1.372 . S
C1073 C1072 1.372 . S
C1073 C1074 1.400 . S
C1073 C1078 1.490 . S
C1074 H1064 0.930 . S
C1074 C1073 1.400 . S
C1074 C1077 1.386 . S
H1075 C1091 0.930 . S
H1076 C1092 0.931 . S
C1077 H1065 0.929 . S
C1077 C1071 1.390 . S
C1077 C1074 1.386 . S
C1078 C1073 1.490 . S
C1078 C1080 1.395 . S
C1078 C1081 1.403 . S
H1079 C1085 0.930 . S
C1080 H1066 0.930 . S
C1080 C1078 1.395 . S
C1080 C1083 1.403 . S
C1081 C1078 1.403 . S
C1081 C1082 1.524 . S
C1081 C1085 1.400 . S
C1082 H1067 0.960 . S
C1082 H1068 0.960 . S
C1082 H1069 0.960 . S
C1082 C1081 1.524 . S
C1083 C1080 1.403 . S
C1083 C1084 1.392 . S
C1083 C1087 1.495 . S
C1084 C1083 1.392 . S
C1084 C1085 1.385 . S
C1084 C1086 1.478 . S
C1085 H1079 0.930 . S
C1085 C1081 1.400 . S
C1085 C1084 1.385 . S
C1086 C1084 1.478 . S
C1086 C1088 1.381 . S
C1086 C1092 1.383 . S
C1087 C1083 1.495 . S
C1087 H1093 0.959 . S
C1087 H1094 0.961 . S
C1087 H1095 0.960 . S
C1088 C1086 1.381 . S
C1088 C1089 1.394 . S
C1088 H1096 0.930 . S
C1089 C1088 1.394 . S
C1089 C1090 1.383 . S
C1089 H1097 0.929 . S
C1090 C1089 1.383 . S
C1090 C1091 1.377 . S
C1091 H1075 0.930 . S
C1091 C1090 1.377 . S
C1091 C1092 1.379 . S
C1092 H1076 0.931 . S
C1092 C1086 1.383 . S
C1092 C1091 1.379 . S
H1093 C1087 0.959 . S
H1094 C1087 0.961 . S
H1095 C1087 0.960 . S
H1096 C1088 0.930 . S
H1097 C1089 0.929 . S
H1098 C1106 0.929 . S
H1099 C1108 0.930 . S
H1100 C1110 0.930 . S
H1101 C1113 0.929 . S
H1102 C1116 0.930 . S
H1103 C1118 0.960 . S
H1104 C1118 0.960 . S
H1105 C1118 0.960 . S
C1106 H1098 0.929 . S
C1106 C1107 1.377 . S
C1106 C1108 1.384 . S
C1107 C1106 1.377 . S
C1107 C1113 1.390 . S
C1108 H1099 0.930 . S
C1108 C1106 1.384 . S
C1108 C1109 1.372 . S
C1109 C1108 1.372 . S
C1109 C1110 1.400 . S
C1109 C1114 1.490 . S
C1110 H1100 0.930 . S
C1110 C1109 1.400 . S
C1110 C1113 1.386 . S
H1111 C1127 0.930 . S
H1112 C1128 0.931 . S
C1113 H1101 0.929 . S
C1113 C1107 1.390 . S
C1113 C1110 1.386 . S
C1114 C1109 1.490 . S
C1114 C1116 1.395 . S
C1114 C1117 1.403 . S
H1115 C1121 0.930 . S
C1116 H1102 0.930 . S
C1116 C1114 1.395 . S
C1116 C1119 1.403 . S
C1117 C1114 1.403 . S
C1117 C1118 1.524 . S
C1117 C1121 1.400 . S
C1118 H1103 0.960 . S
C1118 H1104 0.960 . S
C1118 H1105 0.960 . S
C1118 C1117 1.524 . S
C1119 C1116 1.403 . S
C1119 C1120 1.392 . S
C1119 C1123 1.495 . S
C1120 C1119 1.392 . S
C1120 C1121 1.385 . S
C1120 C1122 1.478 . S
C1121 H1115 0.930 . S
C1121 C1117 1.400 . S
C1121 C1120 1.385 . S
C1122 C1120 1.478 . S
C1122 C1124 1.381 . S
C1122 C1128 1.383 . S
C1123 C1119 1.495 . S
C1123 H1129 0.959 . S
C1123 H1130 0.961 . S
C1123 H1131 0.960 . S
C1124 C1122 1.381 . S
C1124 C1125 1.394 . S
C1124 H1132 0.930 . S
C1125 C1124 1.394 . S
C1125 C1126 1.383 . S
C1125 H1133 0.929 . S
C1126 C1125 1.383 . S
C1126 C1127 1.377 . S
C1127 H1111 0.930 . S
C1127 C1126 1.377 . S
C1127 C1128 1.379 . S
C1128 H1112 0.931 . S
C1128 C1122 1.383 . S
C1128 C1127 1.379 . S
H1129 C1123 0.959 . S
H1130 C1123 0.961 . S
H1131 C1123 0.960 . S
H1132 C1124 0.930 . S
H1133 C1125 0.929 . S
H1134 C1142 0.929 . S
H1135 C1144 0.930 . S
H1136 C1146 0.930 . S
H1137 C1149 0.929 . S
H1138 C1152 0.930 . S
H1139 C1154 0.960 . S
H1140 C1154 0.960 . S
H1141 C1154 0.960 . S
C1142 H1134 0.929 . S
C1142 C1143 1.377 . S
C1142 C1144 1.384 . S
C1143 C1142 1.377 . S
C1143 C1149 1.390 . S
C1144 H1135 0.930 . S
C1144 C1142 1.384 . S
C1144 C1145 1.372 . S
C1145 C1144 1.372 . S
C1145 C1146 1.400 . S
C1145 C1150 1.490 . S
C1146 H1136 0.930 . S
C1146 C1145 1.400 . S
C1146 C1149 1.386 . S
H1147 C1163 0.930 . S
H1148 C1164 0.931 . S
C1149 H1137 0.929 . S
C1149 C1143 1.390 . S
C1149 C1146 1.386 . S
C1150 C1145 1.490 . S
C1150 C1152 1.395 . S
C1150 C1153 1.403 . S
H1151 C1157 0.930 . S
C1152 H1138 0.930 . S
C1152 C1150 1.395 . S
C1152 C1155 1.403 . S
C1153 C1150 1.403 . S
C1153 C1154 1.524 . S
C1153 C1157 1.400 . S
C1154 H1139 0.960 . S
C1154 H1140 0.960 . S
C1154 H1141 0.960 . S
C1154 C1153 1.524 . S
C1155 C1152 1.403 . S
C1155 C1156 1.392 . S
C1155 C1159 1.495 . S
C1156 C1155 1.392 . S
C1156 C1157 1.385 . S
C1156 C1158 1.478 . S
C1157 H1151 0.930 . S
C1157 C1153 1.400 . S
C1157 C1156 1.385 . S
C1158 C1156 1.478 . S
C1158 C1160 1.381 . S
C1158 C1164 1.383 . S
C1159 C1155 1.495 . S
C1159 H1165 0.959 . S
C1159 H1166 0.961 . S
C1159 H1167 0.960 . S
C1160 C1158 1.381 . S
C1160 C1161 1.394 . S
C1160 H1168 0.930 . S
C1161 C1160 1.394 . S
C1161 C1162 1.383 . S
C1161 H1169 0.929 . S
C1162 C1161 1.383 . S
C1162 C1163 1.377 . S
C1163 H1147 0.930 . S
C1163 C1162 1.377 . S
C1163 C1164 1.379 . S
C1164 H1148 0.931 . S
C1164 C1158 1.383 . S
C1164 C1163 1.379 . S
H1165 C1159 0.959 . S
H1166 C1159 0.961 . S
H1167 C1159 0.960 . S
H1168 C1160 0.930 . S
H1169 C1161 0.929 . S
H1170 C1178 0.929 . S
H1171 C1180 0.930 . S
H1172 C1182 0.930 . S
H1173 C1185 0.929 . S
H1174 C1188 0.930 . S
H1175 C1190 0.960 . S
H1176 C1190 0.960 . S
H1177 C1190 0.960 . S
C1178 H1170 0.929 . S
C1178 C1179 1.377 . S
C1178 C1180 1.384 . S
C1179 C1178 1.377 . S
C1179 C1185 1.390 . S
C1180 H1171 0.930 . S
C1180 C1178 1.384 . S
C1180 C1181 1.372 . S
C1181 C1180 1.372 . S
C1181 C1182 1.400 . S
C1181 C1186 1.490 . S
C1182 H1172 0.930 . S
C1182 C1181 1.400 . S
C1182 C1185 1.386 . S
H1183 C1199 0.930 . S
H1184 C1200 0.931 . S
C1185 H1173 0.929 . S
C1185 C1179 1.390 . S
C1185 C1182 1.386 . S
C1186 C1181 1.490 . S
C1186 C1188 1.395 . S
C1186 C1189 1.403 . S
H1187 C1193 0.930 . S
C1188 H1174 0.930 . S
C1188 C1186 1.395 . S
C1188 C1191 1.403 . S
C1189 C1186 1.403 . S
C1189 C1190 1.524 . S
C1189 C1193 1.400 . S
C1190 H1175 0.960 . S
C1190 H1176 0.960 . S
C1190 H1177 0.960 . S
C1190 C1189 1.524 . S
C1191 C1188 1.403 . S
C1191 C1192 1.392 . S
C1191 C1195 1.495 . S
C1192 C1191 1.392 . S
C1192 C1193 1.385 . S
C1192 C1194 1.478 . S
C1193 H1187 0.930 . S
C1193 C1189 1.400 . S
C1193 C1192 1.385 . S
C1194 C1192 1.478 . S
C1194 C1196 1.381 . S
C1194 C1200 1.383 . S
C1195 C1191 1.495 . S
C1195 H1201 0.959 . S
C1195 H1202 0.961 . S
C1195 H1203 0.960 . S
C1196 C1194 1.381 . S
C1196 C1197 1.394 . S
C1196 H1204 0.930 . S
C1197 C1196 1.394 . S
C1197 C1198 1.383 . S
C1197 H1205 0.929 . S
C1198 C1197 1.383 . S
C1198 C1199 1.377 . S
C1199 H1183 0.930 . S
C1199 C1198 1.377 . S
C1199 C1200 1.379 . S
C1200 H1184 0.931 . S
C1200 C1194 1.383 . S
C1200 C1199 1.379 . S
H1201 C1195 0.959 . S
H1202 C1195 0.961 . S
H1203 C1195 0.960 . S
H1204 C1196 0.930 . S
H1205 C1197 0.929 . S
H1206 C1214 0.929 . S
H1207 C1216 0.930 . S
H1208 C1218 0.930 . S
H1209 C1221 0.929 . S
H1210 C1224 0.930 . S
H1211 C1226 0.960 . S
H1212 C1226 0.960 . S
H1213 C1226 0.960 . S
C1214 H1206 0.929 . S
C1214 C1215 1.377 . S
C1214 C1216 1.384 . S
C1215 C1214 1.377 . S
C1215 C1221 1.390 . S
C1216 H1207 0.930 . S
C1216 C1214 1.384 . S
C1216 C1217 1.372 . S
C1217 C1216 1.372 . S
C1217 C1218 1.400 . S
C1217 C1222 1.490 . S
C1218 H1208 0.930 . S
C1218 C1217 1.400 . S
C1218 C1221 1.386 . S
H1219 C1235 0.930 . S
H1220 C1236 0.931 . S
C1221 H1209 0.929 . S
C1221 C1215 1.390 . S
C1221 C1218 1.386 . S
C1222 C1217 1.490 . S
C1222 C1224 1.395 . S
C1222 C1225 1.403 . S
H1223 C1229 0.930 . S
C1224 H1210 0.930 . S
C1224 C1222 1.395 . S
C1224 C1227 1.403 . S
C1225 C1222 1.403 . S
C1225 C1226 1.524 . S
C1225 C1229 1.400 . S
C1226 H1211 0.960 . S
C1226 H1212 0.960 . S
C1226 H1213 0.960 . S
C1226 C1225 1.524 . S
C1227 C1224 1.403 . S
C1227 C1228 1.392 . S
C1227 C1231 1.495 . S
C1228 C1227 1.392 . S
C1228 C1229 1.385 . S
C1228 C1230 1.478 . S
C1229 H1223 0.930 . S
C1229 C1225 1.400 . S
C1229 C1228 1.385 . S
C1230 C1228 1.478 . S
C1230 C1232 1.381 . S
C1230 C1236 1.383 . S
C1231 C1227 1.495 . S
C1231 H1237 0.959 . S
C1231 H1238 0.961 . S
C1231 H1239 0.960 . S
C1232 C1230 1.381 . S
C1232 C1233 1.394 . S
C1232 H1240 0.930 . S
C1233 C1232 1.394 . S
C1233 C1234 1.383 . S
C1233 H1241 0.929 . S
C1234 C1233 1.383 . S
C1234 C1235 1.377 . S
C1235 H1219 0.930 . S
C1235 C1234 1.377 . S
C1235 C1236 1.379 . S
C1236 H1220 0.931 . S
C1236 C1230 1.383 . S
C1236 C1235 1.379 . S
H1237 C1231 0.959 . S
H1238 C1231 0.961 . S
H1239 C1231 0.960 . S
H1240 C1232 0.930 . S
H1241 C1233 0.929 . S
H1242 C1250 0.929 . S
H1243 C1252 0.930 . S
H1244 C1254 0.930 . S
H1245 C1257 0.929 . S
H1246 C1260 0.930 . S
H1247 C1262 0.960 . S
H1248 C1262 0.960 . S
H1249 C1262 0.960 . S
C1250 H1242 0.929 . S
C1250 C1251 1.377 . S
C1250 C1252 1.384 . S
C1251 C1250 1.377 . S
C1251 C1257 1.390 . S
C1252 H1243 0.930 . S
C1252 C1250 1.384 . S
C1252 C1253 1.372 . S
C1253 C1252 1.372 . S
C1253 C1254 1.400 . S
C1253 C1258 1.490 . S
C1254 H1244 0.930 . S
C1254 C1253 1.400 . S
C1254 C1257 1.386 . S
H1255 C1271 0.930 . S
H1256 C1272 0.931 . S
C1257 H1245 0.929 . S
C1257 C1251 1.390 . S
C1257 C1254 1.386 . S
C1258 C1253 1.490 . S
C1258 C1260 1.395 . S
C1258 C1261 1.403 . S
H1259 C1265 0.930 . S
C1260 H1246 0.930 . S
C1260 C1258 1.395 . S
C1260 C1263 1.403 . S
C1261 C1258 1.403 . S
C1261 C1262 1.524 . S
C1261 C1265 1.400 . S
C1262 H1247 0.960 . S
C1262 H1248 0.960 . S
C1262 H1249 0.960 . S
C1262 C1261 1.524 . S
C1263 C1260 1.403 . S
C1263 C1264 1.392 . S
C1263 C1267 1.495 . S
C1264 C1263 1.392 . S
C1264 C1265 1.385 . S
C1264 C1266 1.478 . S
C1265 H1259 0.930 . S
C1265 C1261 1.400 . S
C1265 C1264 1.385 . S
C1266 C1264 1.478 . S
C1266 C1268 1.381 . S
C1266 C1272 1.383 . S
C1267 C1263 1.495 . S
C1267 H1273 0.959 . S
C1267 H1274 0.961 . S
C1267 H1275 0.960 . S
C1268 C1266 1.381 . S
C1268 C1269 1.394 . S
C1268 H1276 0.930 . S
C1269 C1268 1.394 . S
C1269 C1270 1.383 . S
C1269 H1277 0.929 . S
C1270 C1269 1.383 . S
C1270 C1271 1.377 . S
C1271 H1255 0.930 . S
C1271 C1270 1.377 . S
C1271 C1272 1.379 . S
C1272 H1256 0.931 . S
C1272 C1266 1.383 . S
C1272 C1271 1.379 . S
H1273 C1267 0.959 . S
H1274 C1267 0.961 . S
H1275 C1267 0.960 . S
H1276 C1268 0.930 . S
H1277 C1269 0.929 . S
H1278 C1286 0.929 . S
H1279 C1288 0.930 . S
H1280 C1290 0.930 . S
H1281 C1293 0.929 . S
H1282 C1296 0.930 . S
H1283 C1298 0.960 . S
H1284 C1298 0.960 . S
H1285 C1298 0.960 . S
C1286 H1278 0.929 . S
C1286 C1287 1.377 . S
C1286 C1288 1.384 . S
C1287 C1286 1.377 . S
C1287 C1293 1.390 . S
C1288 H1279 0.930 . S
C1288 C1286 1.384 . S
C1288 C1289 1.372 . S
C1289 C1288 1.372 . S
C1289 C1290 1.400 . S
C1289 C1294 1.490 . S
C1290 H1280 0.930 . S
C1290 C1289 1.400 . S
C1290 C1293 1.386 . S
H1291 C1307 0.930 . S
H1292 C1308 0.931 . S
C1293 H1281 0.929 . S
C1293 C1287 1.390 . S
C1293 C1290 1.386 . S
C1294 C1289 1.490 . S
C1294 C1296 1.395 . S
C1294 C1297 1.403 . S
H1295 C1301 0.930 . S
C1296 H1282 0.930 . S
C1296 C1294 1.395 . S
C1296 C1299 1.403 . S
C1297 C1294 1.403 . S
C1297 C1298 1.524 . S
C1297 C1301 1.400 . S
C1298 H1283 0.960 . S
C1298 H1284 0.960 . S
C1298 H1285 0.960 . S
C1298 C1297 1.524 . S
C1299 C1296 1.403 . S
C1299 C1300 1.392 . S
C1299 C1303 1.495 . S
C1300 C1299 1.392 . S
C1300 C1301 1.385 . S
C1300 C1302 1.478 . S
C1301 H1295 0.930 . S
C1301 C1297 1.400 . S
C1301 C1300 1.385 . S
C1302 C1300 1.478 . S
C1302 C1304 1.381 . S
C1302 C1308 1.383 . S
C1303 C1299 1.495 . S
C1303 H1309 0.959 . S
C1303 H1310 0.961 . S
C1303 H1311 0.960 . S
C1304 C1302 1.381 . S
C1304 C1305 1.394 . S
C1304 H1312 0.930 . S
C1305 C1304 1.394 . S
C1305 C1306 1.383 . S
C1305 H1313 0.929 . S
C1306 C1305 1.383 . S
C1306 C1307 1.377 . S
C1307 H1291 0.930 . S
C1307 C1306 1.377 . S
C1307 C1308 1.379 . S
C1308 H1292 0.931 . S
C1308 C1302 1.383 . S
C1308 C1307 1.379 . S
H1309 C1303 0.959 . S
H1310 C1303 0.961 . S
H1311 C1303 0.960 . S
H1312 C1304 0.930 . S
H1313 C1305 0.929 . S
H1314 C1322 0.929 . S
H1315 C1324 0.930 . S
H1316 C1326 0.930 . S
H1317 C1329 0.929 . S
H1318 C1332 0.930 . S
H1319 C1334 0.960 . S
H1320 C1334 0.960 . S
H1321 C1334 0.960 . S
C1322 H1314 0.929 . S
C1322 C1323 1.377 . S
C1322 C1324 1.384 . S
C1323 C1322 1.377 . S
C1323 C1329 1.390 . S
C1324 H1315 0.930 . S
C1324 C1322 1.384 . S
C1324 C1325 1.372 . S
C1325 C1324 1.372 . S
C1325 C1326 1.400 . S
C1325 C1330 1.490 . S
C1326 H1316 0.930 . S
C1326 C1325 1.400 . S
C1326 C1329 1.386 . S
H1327 C1343 0.930 . S
H1328 C1344 0.931 . S
C1329 H1317 0.929 . S
C1329 C1323 1.390 . S
C1329 C1326 1.386 . S
C1330 C1325 1.490 . S
C1330 C1332 1.395 . S
C1330 C1333 1.403 . S
H1331 C1337 0.930 . S
C1332 H1318 0.930 . S
C1332 C1330 1.395 . S
C1332 C1335 1.403 . S
C1333 C1330 1.403 . S
C1333 C1334 1.524 . S
C1333 C1337 1.400 . S
C1334 H1319 0.960 . S
C1334 H1320 0.960 . S
C1334 H1321 0.960 . S
C1334 C1333 1.524 . S
C1335 C1332 1.403 . S
C1335 C1336 1.392 . S
C1335 C1339 1.495 . S
C1336 C1335 1.392 . S
C1336 C1337 1.385 . S
C1336 C1338 1.478 . S
C1337 H1331 0.930 . S
C1337 C1333 1.400 . S
C1337 C1336 1.385 . S
C1338 C1336 1.478 . S
C1338 C1340 1.381 . S
C1338 C1344 1.383 . S
C1339 C1335 1.495 . S
C1339 H1345 0.959 . S
C1339 H1346 0.961 . S
C1339 H1347 0.960 . S
C1340 C1338 1.381 . S
C1340 C1341 1.394 . S
C1340 H1348 0.930 . S
C1341 C1340 1.394 . S
C1341 C1342 1.383 . S
C1341 H1349 0.929 . S
C1342 C1341 1.383 . S
C1342 C1343 1.377 . S
C1343 H1327 0.930 . S
C1343 C1342 1.377 . S
C1343 C1344 1.379 . S
C1344 H1328 0.931 . S
C1344 C1338 1.383 . S
C1344 C1343 1.379 . S
H1345 C1339 0.959 . S
H1346 C1339 0.961 . S
H1347 C1339 0.960 . S
H1348 C1340 0.930 . S
H1349 C1341 0.929 . S
H1350 C1358 0.929 . S
H1351 C1360 0.930 . S
H1352 C1362 0.930 . S
H1353 C1365 0.929 . S
H1354 C1368 0.930 . S
H1355 C1370 0.960 . S
H1356 C1370 0.960 . S
H1357 C1370 0.960 . S
C1358 H1350 0.929 . S
C1358 C1359 1.377 . S
C1358 C1360 1.384 . S
C1359 C1358 1.377 . S
C1359 C1365 1.390 . S
C1360 H1351 0.930 . S
C1360 C1358 1.384 . S
C1360 C1361 1.372 . S
C1361 C1360 1.372 . S
C1361 C1362 1.400 . S
C1361 C1366 1.490 . S
C1362 H1352 0.930 . S
C1362 C1361 1.400 . S
C1362 C1365 1.386 . S
H1363 C1379 0.930 . S
H1364 C1380 0.931 . S
C1365 H1353 0.929 . S
C1365 C1359 1.390 . S
C1365 C1362 1.386 . S
C1366 C1361 1.490 . S
C1366 C1368 1.395 . S
C1366 C1369 1.403 . S
H1367 C1373 0.930 . S
C1368 H1354 0.930 . S
C1368 C1366 1.395 . S
C1368 C1371 1.403 . S
C1369 C1366 1.403 . S
C1369 C1370 1.524 . S
C1369 C1373 1.400 . S
C1370 H1355 0.960 . S
C1370 H1356 0.960 . S
C1370 H1357 0.960 . S
C1370 C1369 1.524 . S
C1371 C1368 1.403 . S
C1371 C1372 1.392 . S
C1371 C1375 1.495 . S
C1372 C1371 1.392 . S
C1372 C1373 1.385 . S
C1372 C1374 1.478 . S
C1373 H1367 0.930 . S
C1373 C1369 1.400 . S
C1373 C1372 1.385 . S
C1374 C1372 1.478 . S
C1374 C1376 1.381 . S
C1374 C1380 1.383 . S
C1375 C1371 1.495 . S
C1375 H1381 0.959 . S
C1375 H1382 0.961 . S
C1375 H1383 0.960 . S
C1376 C1374 1.381 . S
C1376 C1377 1.394 . S
C1376 H1384 0.930 . S
C1377 C1376 1.394 . S
C1377 C1378 1.383 . S
C1377 H1385 0.929 . S
C1378 C1377 1.383 . S
C1378 C1379 1.377 . S
C1379 H1363 0.930 . S
C1379 C1378 1.377 . S
C1379 C1380 1.379 . S
C1380 H1364 0.931 . S
C1380 C1374 1.383 . S
C1380 C1379 1.379 . S
H1381 C1375 0.959 . S
H1382 C1375 0.961 . S
H1383 C1375 0.960 . S
H1384 C1376 0.930 . S
H1385 C1377 0.929 . S
H1386 C1394 0.929 . S
H1387 C1396 0.930 . S
H1388 C1398 0.930 . S
H1389 C1401 0.929 . S
H1390 C1404 0.930 . S
H1391 C1406 0.960 . S
H1392 C1406 0.960 . S
H1393 C1406 0.960 . S
C1394 H1386 0.929 . S
C1394 C1395 1.377 . S
C1394 C1396 1.384 . S
C1395 C1394 1.377 . S
C1395 C1401 1.390 . S
C1396 H1387 0.930 . S
C1396 C1394 1.384 . S
C1396 C1397 1.372 . S
C1397 C1396 1.372 . S
C1397 C1398 1.400 . S
C1397 C1402 1.490 . S
C1398 H1388 0.930 . S
C1398 C1397 1.400 . S
C1398 C1401 1.386 . S
H1399 C1415 0.930 . S
H1400 C1416 0.931 . S
C1401 H1389 0.929 . S
C1401 C1395 1.390 . S
C1401 C1398 1.386 . S
C1402 C1397 1.490 . S
C1402 C1404 1.395 . S
C1402 C1405 1.403 . S
H1403 C1409 0.930 . S
C1404 H1390 0.930 . S
C1404 C1402 1.395 . S
C1404 C1407 1.403 . S
C1405 C1402 1.403 . S
C1405 C1406 1.524 . S
C1405 C1409 1.400 . S
C1406 H1391 0.960 . S
C1406 H1392 0.960 . S
C1406 H1393 0.960 . S
C1406 C1405 1.524 . S
C1407 C1404 1.403 . S
C1407 C1408 1.392 . S
C1407 C1411 1.495 . S
C1408 C1407 1.392 . S
C1408 C1409 1.385 . S
C1408 C1410 1.478 . S
C1409 H1403 0.930 . S
C1409 C1405 1.400 . S
C1409 C1408 1.385 . S
C1410 C1408 1.478 . S
C1410 C1412 1.381 . S
C1410 C1416 1.383 . S
C1411 C1407 1.495 . S
C1411 H1417 0.959 . S
C1411 H1418 0.961 . S
C1411 H1419 0.960 . S
C1412 C1410 1.381 . S
C1412 C1413 1.394 . S
C1412 H1420 0.930 . S
C1413 C1412 1.394 . S
C1413 C1414 1.383 . S
C1413 H1421 0.929 . S
C1414 C1413 1.383 . S
C1414 C1415 1.377 . S
C1415 H1399 0.930 . S
C1415 C1414 1.377 . S
C1415 C1416 1.379 . S
C1416 H1400 0.931 . S
C1416 C1410 1.383 . S
C1416 C1415 1.379 . S
H1417 C1411 0.959 . S
H1418 C1411 0.961 . S
H1419 C1411 0.960 . S
H1420 C1412 0.930 . S
H1421 C1413 0.929 . S
H1422 C1430 0.929 . S
H1423 C1432 0.930 . S
H1424 C1434 0.930 . S
H1425 C1437 0.929 . S
H1426 C1440 0.930 . S
H1427 C1442 0.960 . S
H1428 C1442 0.960 . S
H1429 C1442 0.960 . S
C1430 H1422 0.929 . S
C1430 C1431 1.377 . S
C1430 C1432 1.384 . S
C1431 C1430 1.377 . S
C1431 C1437 1.390 . S
C1432 H1423 0.930 . S
C1432 C1430 1.384 . S
C1432 C1433 1.372 . S
C1433 C1432 1.372 . S
C1433 C1434 1.400 . S
C1433 C1438 1.490 . S
C1434 H1424 0.930 . S
C1434 C1433 1.400 . S
C1434 C1437 1.386 . S
H1435 C1451 0.930 . S
H1436 C1452 0.931 . S
C1437 H1425 0.929 . S
C1437 C1431 1.390 . S
C1437 C1434 1.386 . S
C1438 C1433 1.490 . S
C1438 C1440 1.395 . S
C1438 C1441 1.403 . S
H1439 C1445 0.930 . S
C1440 H1426 0.930 . S
C1440 C1438 1.395 . S
C1440 C1443 1.403 . S
C1441 C1438 1.403 . S
C1441 C1442 1.524 . S
C1441 C1445 1.400 . S
C1442 H1427 0.960 . S
C1442 H1428 0.960 . S
C1442 H1429 0.960 . S
C1442 C1441 1.524 . S
C1443 C1440 1.403 . S
C1443 C1444 1.392 . S
C1443 C1447 1.495 . S
C1444 C1443 1.392 . S
C1444 C1445 1.385 . S
C1444 C1446 1.478 . S
C1445 H1439 0.930 . S
C1445 C1441 1.400 . S
C1445 C1444 1.385 . S
C1446 C1444 1.478 . S
C1446 C1448 1.381 . S
C1446 C1452 1.383 . S
C1447 C1443 1.495 . S
C1447 H1453 0.959 . S
C1447 H1454 0.961 . S
C1447 H1455 0.960 . S
C1448 C1446 1.381 . S
C1448 C1449 1.394 . S
C1448 H1456 0.930 . S
C1449 C1448 1.394 . S
C1449 C1450 1.383 . S
C1449 H1457 0.929 . S
C1450 C1449 1.383 . S
C1450 C1451 1.377 . S
C1451 H1435 0.930 . S
C1451 C1450 1.377 . S
C1451 C1452 1.379 . S
C1452 H1436 0.931 . S
C1452 C1446 1.383 . S
C1452 C1451 1.379 . S
H1453 C1447 0.959 . S
H1454 C1447 0.961 . S
H1455 C1447 0.960 . S
H1456 C1448 0.930 . S
H1457 C1449 0.929 . S
H1458 C1466 0.929 . S
H1459 C1468 0.930 . S
H1460 C1470 0.930 . S
H1461 C1473 0.929 . S
H1462 C1476 0.930 . S
H1463 C1478 0.960 . S
H1464 C1478 0.960 . S
H1465 C1478 0.960 . S
C1466 H1458 0.929 . S
C1466 C1467 1.377 . S
C1466 C1468 1.384 . S
C1467 C1466 1.377 . S
C1467 C1473 1.390 . S
C1468 H1459 0.930 . S
C1468 C1466 1.384 . S
C1468 C1469 1.372 . S
C1469 C1468 1.372 . S
C1469 C1470 1.400 . S
C1469 C1474 1.490 . S
C1470 H1460 0.930 . S
C1470 C1469 1.400 . S
C1470 C1473 1.386 . S
H1471 C1487 0.930 . S
H1472 C1488 0.931 . S
C1473 H1461 0.929 . S
C1473 C1467 1.390 . S
C1473 C1470 1.386 . S
C1474 C1469 1.490 . S
C1474 C1476 1.395 . S
C1474 C1477 1.403 . S
H1475 C1481 0.930 . S
C1476 H1462 0.930 . S
C1476 C1474 1.395 . S
C1476 C1479 1.403 . S
C1477 C1474 1.403 . S
C1477 C1478 1.524 . S
C1477 C1481 1.400 . S
C1478 H1463 0.960 . S
C1478 H1464 0.960 . S
C1478 H1465 0.960 . S
C1478 C1477 1.524 . S
C1479 C1476 1.403 . S
C1479 C1480 1.392 . S
C1479 C1483 1.495 . S
C1480 C1479 1.392 . S
C1480 C1481 1.385 . S
C1480 C1482 1.478 . S
C1481 H1475 0.930 . S
C1481 C1477 1.400 . S
C1481 C1480 1.385 . S
C1482 C1480 1.478 . S
C1482 C1484 1.381 . S
C1482 C1488 1.383 . S
C1483 C1479 1.495 . S
C1483 H1489 0.959 . S
C1483 H1490 0.961 . S
C1483 H1491 0.960 . S
C1484 C1482 1.381 . S
C1484 C1485 1.394 . S
C1484 H1492 0.930 . S
C1485 C1484 1.394 . S
C1485 C1486 1.383 . S
C1485 H1493 0.929 . S
C1486 C1485 1.383 . S
C1486 C1487 1.377 . S
C1487 H1471 0.930 . S
C1487 C1486 1.377 . S
C1487 C1488 1.379 . S
C1488 H1472 0.931 . S
C1488 C1482 1.383 . S
C1488 C1487 1.379 . S
H1489 C1483 0.959 . S
H1490 C1483 0.961 . S
H1491 C1483 0.960 . S
H1492 C1484 0.930 . S
H1493 C1485 0.929 . S
H1494 C1502 0.929 . S
H1495 C1504 0.930 . S
H1496 C1506 0.930 . S
H1497 C1509 0.929 . S
H1498 C1512 0.930 . S
H1499 C1514 0.960 . S
H1500 C1514 0.960 . S
H1501 C1514 0.960 . S
C1502 H1494 0.929 . S
C1502 C1503 1.377 . S
C1502 C1504 1.384 . S
C1503 C1502 1.377 . S
C1503 C1509 1.390 . S
C1504 H1495 0.930 . S
C1504 C1502 1.384 . S
C1504 C1505 1.372 . S
C1505 C1504 1.372 . S
C1505 C1506 1.400 . S
C1505 C1510 1.490 . S
C1506 H1496 0.930 . S
C1506 C1505 1.400 . S
C1506 C1509 1.386 . S
H1507 C1523 0.930 . S
H1508 C1524 0.931 . S
C1509 H1497 0.929 . S
C1509 C1503 1.390 . S
C1509 C1506 1.386 . S
C1510 C1505 1.490 . S
C1510 C1512 1.395 . S
C1510 C1513 1.403 . S
H1511 C1517 0.930 . S
C1512 H1498 0.930 . S
C1512 C1510 1.395 . S
C1512 C1515 1.403 . S
C1513 C1510 1.403 . S
C1513 C1514 1.524 . S
C1513 C1517 1.400 . S
C1514 H1499 0.960 . S
C1514 H1500 0.960 . S
C1514 H1501 0.960 . S
C1514 C1513 1.524 . S
C1515 C1512 1.403 . S
C1515 C1516 1.392 . S
C1515 C1519 1.495 . S
C1516 C1515 1.392 . S
C1516 C1517 1.385 . S
C1516 C1518 1.478 . S
C1517 H1511 0.930 . S
C1517 C1513 1.400 . S
C1517 C1516 1.385 . S
C1518 C1516 1.478 . S
C1518 C1520 1.381 . S
C1518 C1524 1.383 . S
C1519 C1515 1.495 . S
C1519 H1525 0.959 . S
C1519 H1526 0.961 . S
C1519 H1527 0.960 . S
C1520 C1518 1.381 . S
C1520 C1521 1.394 . S
C1520 H1528 0.930 . S
C1521 C1520 1.394 . S
C1521 C1522 1.383 . S
C1521 H1529 0.929 . S
C1522 C1521 1.383 . S
C1522 C1523 1.377 . S
C1523 H1507 0.930 . S
C1523 C1522 1.377 . S
C1523 C1524 1.379 . S
C1524 H1508 0.931 . S
C1524 C1518 1.383 . S
C1524 C1523 1.379 . S
H1525 C1519 0.959 . S
H1526 C1519 0.961 . S
H1527 C1519 0.960 . S
H1528 C1520 0.930 . S
H1529 C1521 0.929 . S
H1530 C1538 0.929 . S
H1531 C1540 0.930 . S
H1532 C1542 0.930 . S
H1533 C1545 0.929 . S
H1534 C1548 0.930 . S
H1535 C1550 0.960 . S
H1536 C1550 0.960 . S
H1537 C1550 0.960 . S
C1538 H1530 0.929 . S
C1538 C1539 1.377 . S
C1538 C1540 1.384 . S
C1539 C1538 1.377 . S
C1539 C1545 1.390 . S
C1540 H1531 0.930 . S
C1540 C1538 1.384 . S
C1540 C1541 1.372 . S
C1541 C1540 1.372 . S
C1541 C1542 1.400 . S
C1541 C1546 1.490 . S
C1542 H1532 0.930 . S
C1542 C1541 1.400 . S
C1542 C1545 1.386 . S
H1543 C1559 0.930 . S
H1544 C1560 0.931 . S
C1545 H1533 0.929 . S
C1545 C1539 1.390 . S
C1545 C1542 1.386 . S
C1546 C1541 1.490 . S
C1546 C1548 1.395 . S
C1546 C1549 1.403 . S
H1547 C1553 0.930 . S
C1548 H1534 0.930 . S
C1548 C1546 1.395 . S
C1548 C1551 1.403 . S
C1549 C1546 1.403 . S
C1549 C1550 1.524 . S
C1549 C1553 1.400 . S
C1550 H1535 0.960 . S
C1550 H1536 0.960 . S
C1550 H1537 0.960 . S
C1550 C1549 1.524 . S
C1551 C1548 1.403 . S
C1551 C1552 1.392 . S
C1551 C1555 1.495 . S
C1552 C1551 1.392 . S
C1552 C1553 1.385 . S
C1552 C1554 1.478 . S
C1553 H1547 0.930 . S
C1553 C1549 1.400 . S
C1553 C1552 1.385 . S
C1554 C1552 1.478 . S
C1554 C1556 1.381 . S
C1554 C1560 1.383 . S
C1555 C1551 1.495 . S
C1555 H1561 0.959 . S
C1555 H1562 0.961 . S
C1555 H1563 0.960 . S
C1556 C1554 1.381 . S
C1556 C1557 1.394 . S
C1556 H1564 0.930 . S
C1557 C1556 1.394 . S
C1557 C1558 1.383 . S
C1557 H1565 0.929 . S
C1558 C1557 1.383 . S
C1558 C1559 1.377 . S
C1559 H1543 0.930 . S
C1559 C1558 1.377 . S
C1559 C1560 1.379 . S
C1560 H1544 0.931 . S
C1560 C1554 1.383 . S
C1560 C1559 1.379 . S
H1561 C1555 0.959 . S
H1562 C1555 0.961 . S
H1563 C1555 0.960 . S
H1564 C1556 0.930 . S
H1565 C1557 0.929 . S
H1566 C1574 0.929 . S
H1567 C1576 0.930 . S
H1568 C1578 0.930 . S
H1569 C1581 0.929 . S
H1570 C1584 0.930 . S
H1571 C1586 0.960 . S
H1572 C1586 0.960 . S
H1573 C1586 0.960 . S
C1574 H1566 0.929 . S
C1574 C1575 1.377 . S
C1574 C1576 1.384 . S
C1575 C1574 1.377 . S
C1575 C1581 1.390 . S
C1576 H1567 0.930 . S
C1576 C1574 1.384 . S
C1576 C1577 1.372 . S
C1577 C1576 1.372 . S
C1577 C1578 1.400 . S
C1577 C1582 1.490 . S
C1578 H1568 0.930 . S
C1578 C1577 1.400 . S
C1578 C1581 1.386 . S
H1579 C1595 0.930 . S
H1580 C1596 0.931 . S
C1581 H1569 0.929 . S
C1581 C1575 1.390 . S
C1581 C1578 1.386 . S
C1582 C1577 1.490 . S
C1582 C1584 1.395 . S
C1582 C1585 1.403 . S
H1583 C1589 0.930 . S
C1584 H1570 0.930 . S
C1584 C1582 1.395 . S
C1584 C1587 1.403 . S
C1585 C1582 1.403 . S
C1585 C1586 1.524 . S
C1585 C1589 1.400 . S
C1586 H1571 0.960 . S
C1586 H1572 0.960 . S
C1586 H1573 0.960 . S
C1586 C1585 1.524 . S
C1587 C1584 1.403 . S
C1587 C1588 1.392 . S
C1587 C1591 1.495 . S
C1588 C1587 1.392 . S
C1588 C1589 1.385 . S
C1588 C1590 1.478 . S
C1589 H1583 0.930 . S
C1589 C1585 1.400 . S
C1589 C1588 1.385 . S
C1590 C1588 1.478 . S
C1590 C1592 1.381 . S
C1590 C1596 1.383 . S
C1591 C1587 1.495 . S
C1591 H1597 0.959 . S
C1591 H1598 0.961 . S
C1591 H1599 0.960 . S
C1592 C1590 1.381 . S
C1592 C1593 1.394 . S
C1592 H1600 0.930 . S
C1593 C1592 1.394 . S
C1593 C1594 1.383 . S
C1593 H1601 0.929 . S
C1594 C1593 1.383 . S
C1594 C1595 1.377 . S
C1595 H1579 0.930 . S
C1595 C1594 1.377 . S
C1595 C1596 1.379 . S
C1596 H1580 0.931 . S
C1596 C1590 1.383 . S
C1596 C1595 1.379 . S
H1597 C1591 0.959 . S
H1598 C1591 0.961 . S
H1599 C1591 0.960 . S
H1600 C1592 0.930 . S
H1601 C1593 0.929 . S
H1602 C1610 0.929 . S
H1603 C1612 0.930 . S
H1604 C1614 0.930 . S
H1605 C1617 0.929 . S
H1606 C1620 0.930 . S
H1607 C1622 0.960 . S
H1608 C1622 0.960 . S
H1609 C1622 0.960 . S
C1610 H1602 0.929 . S
C1610 C1611 1.377 . S
C1610 C1612 1.384 . S
C1611 C1610 1.377 . S
C1611 C1617 1.390 . S
C1612 H1603 0.930 . S
C1612 C1610 1.384 . S
C1612 C1613 1.372 . S
C1613 C1612 1.372 . S
C1613 C1614 1.400 . S
C1613 C1618 1.490 . S
C1614 H1604 0.930 . S
C1614 C1613 1.400 . S
C1614 C1617 1.386 . S
H1615 C1631 0.930 . S
H1616 C1632 0.931 . S
C1617 H1605 0.929 . S
C1617 C1611 1.390 . S
C1617 C1614 1.386 . S
C1618 C1613 1.490 . S
C1618 C1620 1.395 . S
C1618 C1621 1.403 . S
H1619 C1625 0.930 . S
C1620 H1606 0.930 . S
C1620 C1618 1.395 . S
C1620 C1623 1.403 . S
C1621 C1618 1.403 . S
C1621 C1622 1.524 . S
C1621 C1625 1.400 . S
C1622 H1607 0.960 . S
C1622 H1608 0.960 . S
C1622 H1609 0.960 . S
C1622 C1621 1.524 . S
C1623 C1620 1.403 . S
C1623 C1624 1.392 . S
C1623 C1627 1.495 . S
C1624 C1623 1.392 . S
C1624 C1625 1.385 . S
C1624 C1626 1.478 . S
C1625 H1619 0.930 . S
C1625 C1621 1.400 . S
C1625 C1624 1.385 . S
C1626 C1624 1.478 . S
C1626 C1628 1.381 . S
C1626 C1632 1.383 . S
C1627 C1623 1.495 . S
C1627 H1633 0.959 . S
C1627 H1634 0.961 . S
C1627 H1635 0.960 . S
C1628 C1626 1.381 . S
C1628 C1629 1.394 . S
C1628 H1636 0.930 . S
C1629 C1628 1.394 . S
C1629 C1630 1.383 . S
C1629 H1637 0.929 . S
C1630 C1629 1.383 . S
C1630 C1631 1.377 . S
C1631 H1615 0.930 . S
C1631 C1630 1.377 . S
C1631 C1632 1.379 . S
C1632 H1616 0.931 . S
C1632 C1626 1.383 . S
C1632 C1631 1.379 . S
H1633 C1627 0.959 . S
H1634 C1627 0.961 . S
H1635 C1627 0.960 . S
H1636 C1628 0.930 . S
H1637 C1629 0.929 . S
H1638 C1646 0.929 . S
H1639 C1648 0.930 . S
H1640 C1650 0.930 . S
H1641 C1653 0.929 . S
H1642 C1656 0.930 . S
H1643 C1658 0.960 . S
H1644 C1658 0.960 . S
H1645 C1658 0.960 . S
C1646 H1638 0.929 . S
C1646 C1647 1.377 . S
C1646 C1648 1.384 . S
C1647 C1646 1.377 . S
C1647 C1653 1.390 . S
C1648 H1639 0.930 . S
C1648 C1646 1.384 . S
C1648 C1649 1.372 . S
C1649 C1648 1.372 . S
C1649 C1650 1.400 . S
C1649 C1654 1.490 . S
C1650 H1640 0.930 . S
C1650 C1649 1.400 . S
C1650 C1653 1.386 . S
H1651 C1667 0.930 . S
H1652 C1668 0.931 . S
C1653 H1641 0.929 . S
C1653 C1647 1.390 . S
C1653 C1650 1.386 . S
C1654 C1649 1.490 . S
C1654 C1656 1.395 . S
C1654 C1657 1.403 . S
H1655 C1661 0.930 . S
C1656 H1642 0.930 . S
C1656 C1654 1.395 . S
C1656 C1659 1.403 . S
C1657 C1654 1.403 . S
C1657 C1658 1.524 . S
C1657 C1661 1.400 . S
C1658 H1643 0.960 . S
C1658 H1644 0.960 . S
C1658 H1645 0.960 . S
C1658 C1657 1.524 . S
C1659 C1656 1.403 . S
C1659 C1660 1.392 . S
C1659 C1663 1.495 . S
C1660 C1659 1.392 . S
C1660 C1661 1.385 . S
C1660 C1662 1.478 . S
C1661 H1655 0.930 . S
C1661 C1657 1.400 . S
C1661 C1660 1.385 . S
C1662 C1660 1.478 . S
C1662 C1664 1.381 . S
C1662 C1668 1.383 . S
C1663 C1659 1.495 . S
C1663 H1669 0.959 . S
C1663 H1670 0.961 . S
C1663 H1671 0.960 . S
C1664 C1662 1.381 . S
C1664 C1665 1.394 . S
C1664 H1672 0.930 . S
C1665 C1664 1.394 . S
C1665 C1666 1.383 . S
C1665 H1673 0.929 . S
C1666 C1665 1.383 . S
C1666 C1667 1.377 . S
C1667 H1651 0.930 . S
C1667 C1666 1.377 . S
C1667 C1668 1.379 . S
C1668 H1652 0.931 . S
C1668 C1662 1.383 . S
C1668 C1667 1.379 . S
H1669 C1663 0.959 . S
H1670 C1663 0.961 . S
H1671 C1663 0.960 . S
H1672 C1664 0.930 . S
H1673 C1665 0.929 . S
H1674 C1682 0.929 . S
H1675 C1684 0.930 . S
H1676 C1686 0.930 . S
H1677 C1689 0.929 . S
H1678 C1692 0.930 . S
H1679 C1694 0.960 . S
H1680 C1694 0.960 . S
H1681 C1694 0.960 . S
C1682 H1674 0.929 . S
C1682 C1683 1.377 . S
C1682 C1684 1.384 . S
C1683 C1682 1.377 . S
C1683 C1689 1.390 . S
C1684 H1675 0.930 . S
C1684 C1682 1.384 . S
C1684 C1685 1.372 . S
C1685 C1684 1.372 . S
C1685 C1686 1.400 . S
C1685 C1690 1.490 . S
C1686 H1676 0.930 . S
C1686 C1685 1.400 . S
C1686 C1689 1.386 . S
H1687 C1703 0.930 . S
H1688 C1704 0.931 . S
C1689 H1677 0.929 . S
C1689 C1683 1.390 . S
C1689 C1686 1.386 . S
C1690 C1685 1.490 . S
C1690 C1692 1.395 . S
C1690 C1693 1.403 . S
H1691 C1697 0.930 . S
C1692 H1678 0.930 . S
C1692 C1690 1.395 . S
C1692 C1695 1.403 . S
C1693 C1690 1.403 . S
C1693 C1694 1.524 . S
C1693 C1697 1.400 . S
C1694 H1679 0.960 . S
C1694 H1680 0.960 . S
C1694 H1681 0.960 . S
C1694 C1693 1.524 . S
C1695 C1692 1.403 . S
C1695 C1696 1.392 . S
C1695 C1699 1.495 . S
C1696 C1695 1.392 . S
C1696 C1697 1.385 . S
C1696 C1698 1.478 . S
C1697 H1691 0.930 . S
C1697 C1693 1.400 . S
C1697 C1696 1.385 . S
C1698 C1696 1.478 . S
C1698 C1700 1.381 . S
C1698 C1704 1.383 . S
C1699 C1695 1.495 . S
C1699 H1705 0.959 . S
C1699 H1706 0.961 . S
C1699 H1707 0.960 . S
C1700 C1698 1.381 . S
C1700 C1701 1.394 . S
C1700 H1708 0.930 . S
C1701 C1700 1.394 . S
C1701 C1702 1.383 . S
C1701 H1709 0.929 . S
C1702 C1701 1.383 . S
C1702 C1703 1.377 . S
C1703 H1687 0.930 . S
C1703 C1702 1.377 . S
C1703 C1704 1.379 . S
C1704 H1688 0.931 . S
C1704 C1698 1.383 . S
C1704 C1703 1.379 . S
H1705 C1699 0.959 . S
H1706 C1699 0.961 . S
H1707 C1699 0.960 . S
H1708 C1700 0.930 . S
H1709 C1701 0.929 . S
H1710 C1718 0.929 . S
H1711 C1720 0.930 . S
H1712 C1722 0.930 . S
H1713 C1725 0.929 . S
H1714 C1728 0.930 . S
H1715 C1730 0.960 . S
H1716 C1730 0.960 . S
H1717 C1730 0.960 . S
C1718 H1710 0.929 . S
C1718 C1719 1.377 . S
C1718 C1720 1.384 . S
C1719 C1718 1.377 . S
C1719 C1725 1.390 . S
C1720 H1711 0.930 . S
C1720 C1718 1.384 . S
C1720 C1721 1.372 . S
C1721 C1720 1.372 . S
C1721 C1722 1.400 . S
C1721 C1726 1.490 . S
C1722 H1712 0.930 . S
C1722 C1721 1.400 . S
C1722 C1725 1.386 . S
H1723 C1739 0.930 . S
H1724 C1740 0.931 . S
C1725 H1713 0.929 . S
C1725 C1719 1.390 . S
C1725 C1722 1.386 . S
C1726 C1721 1.490 . S
C1726 C1728 1.395 . S
C1726 C1729 1.403 . S
H1727 C1733 0.930 . S
C1728 H1714 0.930 . S
C1728 C1726 1.395 . S
C1728 C1731 1.403 . S
C1729 C1726 1.403 . S
C1729 C1730 1.524 . S
C1729 C1733 1.400 . S
C1730 H1715 0.960 . S
C1730 H1716 0.960 . S
C1730 H1717 0.960 . S
C1730 C1729 1.524 . S
C1731 C1728 1.403 . S
C1731 C1732 1.392 . S
C1731 C1735 1.495 . S
C1732 C1731 1.392 . S
C1732 C1733 1.385 . S
C1732 C1734 1.478 . S
C1733 H1727 0.930 . S
C1733 C1729 1.400 . S
C1733 C1732 1.385 . S
C1734 C1732 1.478 . S
C1734 C1736 1.381 . S
C1734 C1740 1.383 . S
C1735 C1731 1.495 . S
C1735 H1741 0.959 . S
C1735 H1742 0.961 . S
C1735 H1743 0.960 . S
C1736 C1734 1.381 . S
C1736 C1737 1.394 . S
C1736 H1744 0.930 . S
C1737 C1736 1.394 . S
C1737 C1738 1.383 . S
C1737 H1745 0.929 . S
C1738 C1737 1.383 . S
C1738 C1739 1.377 . S
C1739 H1723 0.930 . S
C1739 C1738 1.377 . S
C1739 C1740 1.379 . S
C1740 H1724 0.931 . S
C1740 C1734 1.383 . S
C1740 C1739 1.379 . S
H1741 C1735 0.959 . S
H1742 C1735 0.961 . S
H1743 C1735 0.960 . S
H1744 C1736 0.930 . S
H1745 C1737 0.929 . S
H1746 C1754 0.929 . S
H1747 C1756 0.930 . S
H1748 C1758 0.930 . S
H1749 C1761 0.929 . S
H1750 C1764 0.930 . S
H1751 C1766 0.960 . S
H1752 C1766 0.960 . S
H1753 C1766 0.960 . S
C1754 H1746 0.929 . S
C1754 C1755 1.377 . S
C1754 C1756 1.384 . S
C1755 C1754 1.377 . S
C1755 C1761 1.390 . S
C1756 H1747 0.930 . S
C1756 C1754 1.384 . S
C1756 C1757 1.372 . S
C1757 C1756 1.372 . S
C1757 C1758 1.400 . S
C1757 C1762 1.490 . S
C1758 H1748 0.930 . S
C1758 C1757 1.400 . S
C1758 C1761 1.386 . S
H1759 C1775 0.930 . S
H1760 C1776 0.931 . S
C1761 H1749 0.929 . S
C1761 C1755 1.390 . S
C1761 C1758 1.386 . S
C1762 C1757 1.490 . S
C1762 C1764 1.395 . S
C1762 C1765 1.403 . S
H1763 C1769 0.930 . S
C1764 H1750 0.930 . S
C1764 C1762 1.395 . S
C1764 C1767 1.403 . S
C1765 C1762 1.403 . S
C1765 C1766 1.524 . S
C1765 C1769 1.400 . S
C1766 H1751 0.960 . S
C1766 H1752 0.960 . S
C1766 H1753 0.960 . S
C1766 C1765 1.524 . S
C1767 C1764 1.403 . S
C1767 C1768 1.392 . S
C1767 C1771 1.495 . S
C1768 C1767 1.392 . S
C1768 C1769 1.385 . S
C1768 C1770 1.478 . S
C1769 H1763 0.930 . S
C1769 C1765 1.400 . S
C1769 C1768 1.385 . S
C1770 C1768 1.478 . S
C1770 C1772 1.381 . S
C1770 C1776 1.383 . S
C1771 C1767 1.495 . S
C1771 H1777 0.959 . S
C1771 H1778 0.961 . S
C1771 H1779 0.960 . S
C1772 C1770 1.381 . S
C1772 C1773 1.394 . S
C1772 H1780 0.930 . S
C1773 C1772 1.394 . S
C1773 C1774 1.383 . S
C1773 H1781 0.929 . S
C1774 C1773 1.383 . S
C1774 C1775 1.377 . S
C1775 H1759 0.930 . S
C1775 C1774 1.377 . S
C1775 C1776 1.379 . S
C1776 H1760 0.931 . S
C1776 C1770 1.383 . S
C1776 C1775 1.379 . S
H1777 C1771 0.959 . S
H1778 C1771 0.961 . S
H1779 C1771 0.960 . S
H1780 C1772 0.930 . S
H1781 C1773 0.929 . S
H1782 C1790 0.929 . S
H1783 C1792 0.930 . S
H1784 C1794 0.930 . S
H1785 C1797 0.929 . S
H1786 C1800 0.930 . S
H1787 C1802 0.960 . S
H1788 C1802 0.960 . S
H1789 C1802 0.960 . S
C1790 H1782 0.929 . S
C1790 C1791 1.377 . S
C1790 C1792 1.384 . S
C1791 C1790 1.377 . S
C1791 C1797 1.390 . S
C1792 H1783 0.930 . S
C1792 C1790 1.384 . S
C1792 C1793 1.372 . S
C1793 C1792 1.372 . S
C1793 C1794 1.400 . S
C1793 C1798 1.490 . S
C1794 H1784 0.930 . S
C1794 C1793 1.400 . S
C1794 C1797 1.386 . S
H1795 C1811 0.930 . S
H1796 C1812 0.931 . S
C1797 H1785 0.929 . S
C1797 C1791 1.390 . S
C1797 C1794 1.386 . S
C1798 C1793 1.490 . S
C1798 C1800 1.395 . S
C1798 C1801 1.403 . S
H1799 C1805 0.930 . S
C1800 H1786 0.930 . S
C1800 C1798 1.395 . S
C1800 C1803 1.403 . S
C1801 C1798 1.403 . S
C1801 C1802 1.524 . S
C1801 C1805 1.400 . S
C1802 H1787 0.960 . S
C1802 H1788 0.960 . S
C1802 H1789 0.960 . S
C1802 C1801 1.524 . S
C1803 C1800 1.403 . S
C1803 C1804 1.392 . S
C1803 C1807 1.495 . S
C1804 C1803 1.392 . S
C1804 C1805 1.385 . S
C1804 C1806 1.478 . S
C1805 H1799 0.930 . S
C1805 C1801 1.400 . S
C1805 C1804 1.385 . S
C1806 C1804 1.478 . S
C1806 C1808 1.381 . S
C1806 C1812 1.383 . S
C1807 C1803 1.495 . S
C1807 H1813 0.959 . S
C1807 H1814 0.961 . S
C1807 H1815 0.960 . S
C1808 C1806 1.381 . S
C1808 C1809 1.394 . S
C1808 H1816 0.930 . S
C1809 C1808 1.394 . S
C1809 C1810 1.383 . S
C1809 H1817 0.929 . S
C1810 C1809 1.383 . S
C1810 C1811 1.377 . S
C1811 H1795 0.930 . S
C1811 C1810 1.377 . S
C1811 C1812 1.379 . S
C1812 H1796 0.931 . S
C1812 C1806 1.383 . S
C1812 C1811 1.379 . S
H1813 C1807 0.959 . S
H1814 C1807 0.961 . S
H1815 C1807 0.960 . S
H1816 C1808 0.930 . S
H1817 C1809 0.929 . S
H1818 C1826 0.929 . S
H1819 C1828 0.930 . S
H1820 C1830 0.930 . S
H1821 C1833 0.929 . S
H1822 C1836 0.930 . S
H1823 C1838 0.960 . S
H1824 C1838 0.960 . S
H1825 C1838 0.960 . S
C1826 H1818 0.929 . S
C1826 C1827 1.377 . S
C1826 C1828 1.384 . S
C1827 C1826 1.377 . S
C1827 C1833 1.390 . S
C1828 H1819 0.930 . S
C1828 C1826 1.384 . S
C1828 C1829 1.372 . S
C1829 C1828 1.372 . S
C1829 C1830 1.400 . S
C1829 C1834 1.490 . S
C1830 H1820 0.930 . S
C1830 C1829 1.400 . S
C1830 C1833 1.386 . S
H1831 C1847 0.930 . S
H1832 C1848 0.931 . S
C1833 H1821 0.929 . S
C1833 C1827 1.390 . S
C1833 C1830 1.386 . S
C1834 C1829 1.490 . S
C1834 C1836 1.395 . S
C1834 C1837 1.403 . S
H1835 C1841 0.930 . S
C1836 H1822 0.930 . S
C1836 C1834 1.395 . S
C1836 C1839 1.403 . S
C1837 C1834 1.403 . S
C1837 C1838 1.524 . S
C1837 C1841 1.400 . S
C1838 H1823 0.960 . S
C1838 H1824 0.960 . S
C1838 H1825 0.960 . S
C1838 C1837 1.524 . S
C1839 C1836 1.403 . S
C1839 C1840 1.392 . S
C1839 C1843 1.495 . S
C1840 C1839 1.392 . S
C1840 C1841 1.385 . S
C1840 C1842 1.478 . S
C1841 H1835 0.930 . S
C1841 C1837 1.400 . S
C1841 C1840 1.385 . S
C1842 C1840 1.478 . S
C1842 C1844 1.381 . S
C1842 C1848 1.383 . S
C1843 C1839 1.495 . S
C1843 H1849 0.959 . S
C1843 H1850 0.961 . S
C1843 H1851 0.960 . S
C1844 C1842 1.381 . S
C1844 C1845 1.394 . S
C1844 H1852 0.930 . S
C1845 C1844 1.394 . S
C1845 C1846 1.383 . S
C1845 H1853 0.929 . S
C1846 C1845 1.383 . S
C1846 C1847 1.377 . S
C1847 H1831 0.930 . S
C1847 C1846 1.377 . S
C1847 C1848 1.379 . S
C1848 H1832 0.931 . S
C1848 C1842 1.383 . S
C1848 C1847 1.379 . S
H1849 C1843 0.959 . S
H1850 C1843 0.961 . S
H1851 C1843 0.960 . S
H1852 C1844 0.930 . S
H1853 C1845 0.929 . S
H1854 C1862 0.929 . S
H1855 C1864 0.930 . S
H1856 C1866 0.930 . S
H1857 C1869 0.929 . S
H1858 C1872 0.930 . S
H1859 C1874 0.960 . S
H1860 C1874 0.960 . S
H1861 C1874 0.960 . S
C1862 H1854 0.929 . S
C1862 C1863 1.377 . S
C1862 C1864 1.384 . S
C1863 C1862 1.377 . S
C1863 C1869 1.390 . S
C1864 H1855 0.930 . S
C1864 C1862 1.384 . S
C1864 C1865 1.372 . S
C1865 C1864 1.372 . S
C1865 C1866 1.400 . S
C1865 C1870 1.490 . S
C1866 H1856 0.930 . S
C1866 C1865 1.400 . S
C1866 C1869 1.386 . S
H1867 C1883 0.930 . S
H1868 C1884 0.931 . S
C1869 H1857 0.929 . S
C1869 C1863 1.390 . S
C1869 C1866 1.386 . S
C1870 C1865 1.490 . S
C1870 C1872 1.395 . S
C1870 C1873 1.403 . S
H1871 C1877 0.930 . S
C1872 H1858 0.930 . S
C1872 C1870 1.395 . S
C1872 C1875 1.403 . S
C1873 C1870 1.403 . S
C1873 C1874 1.524 . S
C1873 C1877 1.400 . S
C1874 H1859 0.960 . S
C1874 H1860 0.960 . S
C1874 H1861 0.960 . S
C1874 C1873 1.524 . S
C1875 C1872 1.403 . S
C1875 C1876 1.392 . S
C1875 C1879 1.495 . S
C1876 C1875 1.392 . S
C1876 C1877 1.385 . S
C1876 C1878 1.478 . S
C1877 H1871 0.930 . S
C1877 C1873 1.400 . S
C1877 C1876 1.385 . S
C1878 C1876 1.478 . S
C1878 C1880 1.381 . S
C1878 C1884 1.383 . S
C1879 C1875 1.495 . S
C1879 H1885 0.959 . S
C1879 H1886 0.961 . S
C1879 H1887 0.960 . S
C1880 C1878 1.381 . S
C1880 C1881 1.394 . S
C1880 H1888 0.930 . S
C1881 C1880 1.394 . S
C1881 C1882 1.383 . S
C1881 H1889 0.929 . S
C1882 C1881 1.383 . S
C1882 C1883 1.377 . S
C1883 H1867 0.930 . S
C1883 C1882 1.377 . S
C1883 C1884 1.379 . S
C1884 H1868 0.931 . S
C1884 C1878 1.383 . S
C1884 C1883 1.379 . S
H1885 C1879 0.959 . S
H1886 C1879 0.961 . S
H1887 C1879 0.960 . S
H1888 C1880 0.930 . S
H1889 C1881 0.929 . S
H1890 C1898 0.929 . S
H1891 C1900 0.930 . S
H1892 C1902 0.930 . S
H1893 C1905 0.929 . S
H1894 C1908 0.930 . S
H1895 C1910 0.960 . S
H1896 C1910 0.960 . S
H1897 C1910 0.960 . S
C1898 H1890 0.929 . S
C1898 C1899 1.377 . S
C1898 C1900 1.384 . S
C1899 C1898 1.377 . S
C1899 C1905 1.390 . S
C1900 H1891 0.930 . S
C1900 C1898 1.384 . S
C1900 C1901 1.372 . S
C1901 C1900 1.372 . S
C1901 C1902 1.400 . S
C1901 C1906 1.490 . S
C1902 H1892 0.930 . S
C1902 C1901 1.400 . S
C1902 C1905 1.386 . S
H1903 C1919 0.930 . S
H1904 C1920 0.931 . S
C1905 H1893 0.929 . S
C1905 C1899 1.390 . S
C1905 C1902 1.386 . S
C1906 C1901 1.490 . S
C1906 C1908 1.395 . S
C1906 C1909 1.403 . S
H1907 C1913 0.930 . S
C1908 H1894 0.930 . S
C1908 C1906 1.395 . S
C1908 C1911 1.403 . S
C1909 C1906 1.403 . S
C1909 C1910 1.524 . S
C1909 C1913 1.400 . S
C1910 H1895 0.960 . S
C1910 H1896 0.960 . S
C1910 H1897 0.960 . S
C1910 C1909 1.524 . S
C1911 C1908 1.403 . S
C1911 C1912 1.392 . S
C1911 C1915 1.495 . S
C1912 C1911 1.392 . S
C1912 C1913 1.385 . S
C1912 C1914 1.478 . S
C1913 H1907 0.930 . S
C1913 C1909 1.400 . S
C1913 C1912 1.385 . S
C1914 C1912 1.478 . S
C1914 C1916 1.381 . S
C1914 C1920 1.383 . S
C1915 C1911 1.495 . S
C1915 H1921 0.959 . S
C1915 H1922 0.961 . S
C1915 H1923 0.960 . S
C1916 C1914 1.381 . S
C1916 C1917 1.394 . S
C1916 H1924 0.930 . S
C1917 C1916 1.394 . S
C1917 C1918 1.383 . S
C1917 H1925 0.929 . S
C1918 C1917 1.383 . S
C1918 C1919 1.377 . S
C1919 H1903 0.930 . S
C1919 C1918 1.377 . S
C1919 C1920 1.379 . S
C1920 H1904 0.931 . S
C1920 C1914 1.383 . S
C1920 C1919 1.379 . S
H1921 C1915 0.959 . S
H1922 C1915 0.961 . S
H1923 C1915 0.960 . S
H1924 C1916 0.930 . S
H1925 C1917 0.929 . S
H1926 C1934 0.929 . S
H1927 C1936 0.930 . S
H1928 C1938 0.930 . S
H1929 C1941 0.929 . S
H1930 C1944 0.930 . S
H1931 C1946 0.960 . S
H1932 C1946 0.960 . S
H1933 C1946 0.960 . S
C1934 H1926 0.929 . S
C1934 C1935 1.377 . S
C1934 C1936 1.384 . S
C1935 C1934 1.377 . S
C1935 C1941 1.390 . S
C1936 H1927 0.930 . S
C1936 C1934 1.384 . S
C1936 C1937 1.372 . S
C1937 C1936 1.372 . S
C1937 C1938 1.400 . S
C1937 C1942 1.490 . S
C1938 H1928 0.930 . S
C1938 C1937 1.400 . S
C1938 C1941 1.386 . S
H1939 C1955 0.930 . S
H1940 C1956 0.931 . S
C1941 H1929 0.929 . S
C1941 C1935 1.390 . S
C1941 C1938 1.386 . S
C1942 C1937 1.490 . S
C1942 C1944 1.395 . S
C1942 C1945 1.403 . S
H1943 C1949 0.930 . S
C1944 H1930 0.930 . S
C1944 C1942 1.395 . S
C1944 C1947 1.403 . S
C1945 C1942 1.403 . S
C1945 C1946 1.524 . S
C1945 C1949 1.400 . S
C1946 H1931 0.960 . S
C1946 H1932 0.960 . S
C1946 H1933 0.960 . S
C1946 C1945 1.524 . S
C1947 C1944 1.403 . S
C1947 C1948 1.392 . S
C1947 C1951 1.495 . S
C1948 C1947 1.392 . S
C1948 C1949 1.385 . S
C1948 C1950 1.478 . S
C1949 H1943 0.930 . S
C1949 C1945 1.400 . S
C1949 C1948 1.385 . S
C1950 C1948 1.478 . S
C1950 C1952 1.381 . S
C1950 C1956 1.383 . S
C1951 C1947 1.495 . S
C1951 H1957 0.959 . S
C1951 H1958 0.961 . S
C1951 H1959 0.960 . S
C1952 C1950 1.381 . S
C1952 C1953 1.394 . S
C1952 H1960 0.930 . S
C1953 C1952 1.394 . S
C1953 C1954 1.383 . S
C1953 H1961 0.929 . S
C1954 C1953 1.383 . S
C1954 C1955 1.377 . S
C1955 H1939 0.930 . S
C1955 C1954 1.377 . S
C1955 C1956 1.379 . S
C1956 H1940 0.931 . S
C1956 C1950 1.383 . S
C1956 C1955 1.379 . S
H1957 C1951 0.959 . S
H1958 C1951 0.961 . S
H1959 C1951 0.960 . S
H1960 C1952 0.930 . S
H1961 C1953 0.929 . S
H1962 C1970 0.929 . S
H1963 C1972 0.930 . S
H1964 C1974 0.930 . S
H1965 C1977 0.929 1_554 S
H1966 C1980 0.930 . S
H1967 C1982 0.960 . S
H1968 C1982 0.960 . S
H1969 C1982 0.960 . S
C1970 H1962 0.929 . S
C1970 C1971 1.377 . S
C1970 C1972 1.384 . S
C1971 C1970 1.377 . S
C1971 C1977 1.390 . S
C1972 H1963 0.930 . S
C1972 C1970 1.384 . S
C1972 C1973 1.372 . S
C1973 C1972 1.372 . S
C1973 C1974 1.400 . S
C1973 C1978 1.490 . S
C1974 H1964 0.930 . S
C1974 C1973 1.400 . S
C1974 C1977 1.386 . S
H1975 C1991 0.930 . S
H1976 C1992 0.931 . S
C1977 H1965 0.929 1_556 S
C1977 C1971 1.390 . S
C1977 C1974 1.386 . S
C1978 C1973 1.490 . S
C1978 C1980 1.395 . S
C1978 C1981 1.403 . S
H1979 C1985 0.930 . S
C1980 H1966 0.930 . S
C1980 C1978 1.395 . S
C1980 C1983 1.403 . S
C1981 C1978 1.403 . S
C1981 C1982 1.524 . S
C1981 C1985 1.400 . S
C1982 H1967 0.960 . S
C1982 H1968 0.960 . S
C1982 H1969 0.960 . S
C1982 C1981 1.524 . S
C1983 C1980 1.403 . S
C1983 C1984 1.392 . S
C1983 C1987 1.495 . S
C1984 C1983 1.392 . S
C1984 C1985 1.385 . S
C1984 C1986 1.478 . S
C1985 H1979 0.930 . S
C1985 C1981 1.400 . S
C1985 C1984 1.385 . S
C1986 C1984 1.478 . S
C1986 C1988 1.381 . S
C1986 C1992 1.383 . S
C1987 C1983 1.495 . S
C1987 H1993 0.959 . S
C1987 H1994 0.961 . S
C1987 H1995 0.960 . S
C1988 C1986 1.381 . S
C1988 C1989 1.394 . S
C1988 H1996 0.930 . S
C1989 C1988 1.394 . S
C1989 C1990 1.383 . S
C1989 H1997 0.929 . S
C1990 C1989 1.383 . S
C1990 C1991 1.377 . S
C1991 H1975 0.930 . S
C1991 C1990 1.377 . S
C1991 C1992 1.379 . S
C1992 H1976 0.931 . S
C1992 C1986 1.383 . S
C1992 C1991 1.379 . S
H1993 C1987 0.959 . S
H1994 C1987 0.961 . S
H1995 C1987 0.960 . S
H1996 C1988 0.930 . S
H1997 C1989 0.929 . S
H1998 C2006 0.929 1_554 S
H1999 C2008 0.930 . S
H2000 C2010 0.930 . S
H2001 C2013 0.929 . S
H2002 C2016 0.930 . S
H2003 C2018 0.960 . S
H2004 C2018 0.960 . S
H2005 C2018 0.960 . S
C2006 H1998 0.929 1_556 S
C2006 C2007 1.377 . S
C2006 C2008 1.384 . S
C2007 C2006 1.377 . S
C2007 C2013 1.390 . S
C2008 H1999 0.930 . S
C2008 C2006 1.384 . S
C2008 C2009 1.372 . S
C2009 C2008 1.372 . S
C2009 C2010 1.400 . S
C2009 C2014 1.490 . S
C2010 H2000 0.930 . S
C2010 C2009 1.400 . S
C2010 C2013 1.386 . S
H2011 C2027 0.930 . S
H2012 C2028 0.931 . S
C2013 H2001 0.929 . S
C2013 C2007 1.390 . S
C2013 C2010 1.386 . S
C2014 C2009 1.490 . S
C2014 C2016 1.395 . S
C2014 C2017 1.403 . S
H2015 C2021 0.930 . S
C2016 H2002 0.930 . S
C2016 C2014 1.395 . S
C2016 C2019 1.403 . S
C2017 C2014 1.403 . S
C2017 C2018 1.524 . S
C2017 C2021 1.400 . S
C2018 H2003 0.960 . S
C2018 H2004 0.960 . S
C2018 H2005 0.960 . S
C2018 C2017 1.524 . S
C2019 C2016 1.403 . S
C2019 C2020 1.392 . S
C2019 C2023 1.495 . S
C2020 C2019 1.392 . S
C2020 C2021 1.385 . S
C2020 C2022 1.478 . S
C2021 H2015 0.930 . S
C2021 C2017 1.400 . S
C2021 C2020 1.385 . S
C2022 C2020 1.478 . S
C2022 C2024 1.381 . S
C2022 C2028 1.383 . S
C2023 C2019 1.495 . S
C2023 H2029 0.959 . S
C2023 H2030 0.961 . S
C2023 H2031 0.960 . S
C2024 C2022 1.381 . S
C2024 C2025 1.394 . S
C2024 H2032 0.930 . S
C2025 C2024 1.394 . S
C2025 C2026 1.383 . S
C2025 H2033 0.929 . S
C2026 C2025 1.383 . S
C2026 C2027 1.377 . S
C2027 H2011 0.930 . S
C2027 C2026 1.377 . S
C2027 C2028 1.379 . S
C2028 H2012 0.931 . S
C2028 C2022 1.383 . S
C2028 C2027 1.379 . S
H2029 C2023 0.959 . S
H2030 C2023 0.961 . S
H2031 C2023 0.960 . S
H2032 C2024 0.930 . S
H2033 C2025 0.929 . S
H2034 C2042 0.929 . S
H2035 C2044 0.930 . S
H2036 C2046 0.930 . S
H2037 C2049 0.929 1_554 S
H2038 C2052 0.930 . S
H2039 C2054 0.960 . S
H2040 C2054 0.960 . S
H2041 C2054 0.988 . S
C2042 H2034 0.929 . S
C2042 C2043 1.377 . S
C2042 C2044 1.384 . S
C2043 C2042 1.377 . S
C2043 C2049 1.390 . S
C2044 H2035 0.930 . S
C2044 C2042 1.384 . S
C2044 C2045 1.372 . S
C2045 C2044 1.372 . S
C2045 C2046 1.400 . S
C2045 C2050 1.490 . S
C2046 H2036 0.930 . S
C2046 C2045 1.400 . S
C2046 C2049 1.386 . S
H2047 C2063 0.930 . S
H2048 C2064 0.931 . S
C2049 H2037 0.929 1_556 S
C2049 C2043 1.390 . S
C2049 C2046 1.386 . S
C2050 C2045 1.490 . S
C2050 C2052 1.395 . S
C2050 C2053 1.403 . S
H2051 C2057 0.930 . S
C2052 H2038 0.930 . S
C2052 C2050 1.395 . S
C2052 C2055 1.403 . S
C2053 C2050 1.403 . S
C2053 C2054 1.524 . S
C2053 C2057 1.400 . S
C2054 H2039 0.960 . S
C2054 H2040 0.960 . S
C2054 H2041 0.988 . S
C2054 C2053 1.524 . S
C2055 C2052 1.403 . S
C2055 C2056 1.392 . S
C2055 C2059 1.495 . S
C2056 C2055 1.392 . S
C2056 C2057 1.385 . S
C2056 C2058 1.478 . S
C2057 H2051 0.930 . S
C2057 C2053 1.400 . S
C2057 C2056 1.385 . S
C2058 C2056 1.478 . S
C2058 C2060 1.381 . S
C2058 C2064 1.383 . S
C2059 C2055 1.495 . S
C2059 H2065 0.959 . S
C2059 H2066 0.961 . S
C2059 H2067 0.960 . S
C2060 C2058 1.381 . S
C2060 C2061 1.394 . S
C2060 H2068 0.930 . S
C2061 C2060 1.394 . S
C2061 C2062 1.383 . S
C2061 H2069 0.929 . S
C2062 C2061 1.383 . S
C2062 C2063 1.377 . S
C2063 H2047 0.930 . S
C2063 C2062 1.377 . S
C2063 C2064 1.379 . S
C2064 H2048 0.931 . S
C2064 C2058 1.383 . S
C2064 C2063 1.379 . S
H2065 C2059 0.959 . S
H2066 C2059 0.961 . S
H2067 C2059 0.960 . S
H2068 C2060 0.930 . S
H2069 C2061 0.929 . S
H2070 C2078 0.961 . S
H2071 C2080 0.930 . S
H2072 C2082 0.930 . S
H2073 C2085 0.929 . S
H2074 C2088 0.930 . S
H2075 C2090 0.960 . S
H2076 C2090 0.960 . S
H2077 C2090 0.960 . S
C2078 H2070 0.961 . S
C2078 C2079 1.377 . S
C2078 C2080 1.384 . S
C2079 C2078 1.377 . S
C2079 C2085 1.390 . S
C2080 H2071 0.930 . S
C2080 C2078 1.384 . S
C2080 C2081 1.372 . S
C2081 C2080 1.372 . S
C2081 C2082 1.400 . S
C2081 C2086 1.490 . S
C2082 H2072 0.930 . S
C2082 C2081 1.400 . S
C2082 C2085 1.386 . S
H2083 C2099 0.930 . S
H2084 C2100 0.931 . S
C2085 H2073 0.929 . S
C2085 C2079 1.390 . S
C2085 C2082 1.386 . S
C2086 C2081 1.490 . S
C2086 C2088 1.395 . S
C2086 C2089 1.403 . S
H2087 C2093 0.930 . S
C2088 H2074 0.930 . S
C2088 C2086 1.395 . S
C2088 C2091 1.403 . S
C2089 C2086 1.403 . S
C2089 C2090 1.524 . S
C2089 C2093 1.400 . S
C2090 H2075 0.960 . S
C2090 H2076 0.960 . S
C2090 H2077 0.960 . S
C2090 C2089 1.524 . S
C2091 C2088 1.403 . S
C2091 C2092 1.392 . S
C2091 C2095 1.495 . S
C2092 C2091 1.392 . S
C2092 C2093 1.385 . S
C2092 C2094 1.478 . S
C2093 H2087 0.930 . S
C2093 C2089 1.400 . S
C2093 C2092 1.385 . S
C2094 C2092 1.478 . S
C2094 C2096 1.381 . S
C2094 C2100 1.383 . S
C2095 C2091 1.495 . S
C2095 H2101 0.959 . S
C2095 H2102 0.961 . S
C2095 H2103 0.960 . S
C2096 C2094 1.381 . S
C2096 C2097 1.394 . S
C2096 H2104 0.930 . S
C2097 C2096 1.394 . S
C2097 C2098 1.383 . S
C2097 H2105 0.929 . S
C2098 C2097 1.383 . S
C2098 C2099 1.377 . S
C2099 H2083 0.930 . S
C2099 C2098 1.377 . S
C2099 C2100 1.379 . S
C2100 H2084 0.931 . S
C2100 C2094 1.383 . S
C2100 C2099 1.379 . S
H2101 C2095 0.959 . S
H2102 C2095 0.961 . S
H2103 C2095 0.960 . S
H2104 C2096 0.930 . S
H2105 C2097 0.929 . S
H2106 C2114 0.929 . S
H2107 C2116 0.930 . S
H2108 C2118 0.930 . S
H2109 C2121 0.929 1_554 S
H2110 C2124 0.930 . S
H2111 C2126 0.960 . S
H2112 C2126 0.960 . S
H2113 C2126 0.960 . S
C2114 H2106 0.929 . S
C2114 C2115 1.377 . S
C2114 C2116 1.384 . S
C2115 C2114 1.377 . S
C2115 C2121 1.390 . S
C2116 H2107 0.930 . S
C2116 C2114 1.384 . S
C2116 C2117 1.372 . S
C2117 C2116 1.372 . S
C2117 C2118 1.400 . S
C2117 C2122 1.490 . S
C2118 H2108 0.930 . S
C2118 C2117 1.400 . S
C2118 C2121 1.386 . S
H2119 C2135 0.930 . S
H2120 C2136 0.931 . S
C2121 H2109 0.929 1_556 S
C2121 C2115 1.390 . S
C2121 C2118 1.386 . S
C2122 C2117 1.490 . S
C2122 C2124 1.395 . S
C2122 C2125 1.403 . S
H2123 C2129 0.930 . S
C2124 H2110 0.930 . S
C2124 C2122 1.395 . S
C2124 C2127 1.403 . S
C2125 C2122 1.403 . S
C2125 C2126 1.524 . S
C2125 C2129 1.400 . S
C2126 H2111 0.960 . S
C2126 H2112 0.960 . S
C2126 H2113 0.960 . S
C2126 C2125 1.524 . S
C2127 C2124 1.403 . S
C2127 C2128 1.392 . S
C2127 C2131 1.495 . S
C2128 C2127 1.392 . S
C2128 C2129 1.385 . S
C2128 C2130 1.478 . S
C2129 H2123 0.930 . S
C2129 C2125 1.400 . S
C2129 C2128 1.385 . S
C2130 C2128 1.478 . S
C2130 C2132 1.381 . S
C2130 C2136 1.383 . S
C2131 C2127 1.495 . S
C2131 H2137 0.959 . S
C2131 H2138 0.961 . S
C2131 H2139 0.960 . S
C2132 C2130 1.381 . S
C2132 C2133 1.394 . S
C2132 H2140 0.930 . S
C2133 C2132 1.394 . S
C2133 C2134 1.383 . S
C2133 H2141 0.929 . S
C2134 C2133 1.383 . S
C2134 C2135 1.377 . S
C2135 H2119 0.930 . S
C2135 C2134 1.377 . S
C2135 C2136 1.379 . S
C2136 H2120 0.931 . S
C2136 C2130 1.383 . S
C2136 C2135 1.379 . S
H2137 C2131 0.959 . S
H2138 C2131 0.961 . S
H2139 C2131 0.960 . S
H2140 C2132 0.930 . S
H2141 C2133 0.929 . S
H2142 C2150 0.929 . S
H2143 C2152 0.930 . S
H2144 C2154 0.930 . S
H2145 C2157 0.957 . S
H2146 C2160 0.930 . S
H2147 C2162 0.960 . S
H2148 C2162 0.960 . S
H2149 C2162 0.984 . S
C2150 H2142 0.929 . S
C2150 C2151 1.377 . S
C2150 C2152 1.384 . S
C2151 C2150 1.377 . S
C2151 C2157 1.390 . S
C2152 H2143 0.930 . S
C2152 C2150 1.384 . S
C2152 C2153 1.372 . S
C2153 C2152 1.372 . S
C2153 C2154 1.400 . S
C2153 C2158 1.490 . S
C2154 H2144 0.930 . S
C2154 C2153 1.400 . S
C2154 C2157 1.386 . S
H2155 C2171 0.930 . S
H2156 C2172 0.931 . S
C2157 H2145 0.957 . S
C2157 C2151 1.390 . S
C2157 C2154 1.386 . S
C2158 C2153 1.490 . S
C2158 C2160 1.395 . S
C2158 C2161 1.403 . S
H2159 C2165 0.930 . S
C2160 H2146 0.930 . S
C2160 C2158 1.395 . S
C2160 C2163 1.403 . S
C2161 C2158 1.403 . S
C2161 C2162 1.524 . S
C2161 C2165 1.400 . S
C2162 H2147 0.960 . S
C2162 H2148 0.960 . S
C2162 H2149 0.984 . S
C2162 C2161 1.524 . S
C2163 C2160 1.403 . S
C2163 C2164 1.392 . S
C2163 C2167 1.495 . S
C2164 C2163 1.392 . S
C2164 C2165 1.385 . S
C2164 C2166 1.478 . S
C2165 H2159 0.930 . S
C2165 C2161 1.400 . S
C2165 C2164 1.385 . S
C2166 C2164 1.478 . S
C2166 C2168 1.381 . S
C2166 C2172 1.383 . S
C2167 C2163 1.495 . S
C2167 H2173 0.959 . S
C2167 H2174 0.961 . S
C2167 H2175 0.960 . S
C2168 C2166 1.381 . S
C2168 C2169 1.394 . S
C2168 H2176 0.930 . S
C2169 C2168 1.394 . S
C2169 C2170 1.383 . S
C2169 H2177 0.929 . S
C2170 C2169 1.383 . S
C2170 C2171 1.377 . S
C2171 H2155 0.930 . S
C2171 C2170 1.377 . S
C2171 C2172 1.379 . S
C2172 H2156 0.931 . S
C2172 C2166 1.383 . S
C2172 C2171 1.379 . S
H2173 C2167 0.959 . S
H2174 C2167 0.961 . S
H2175 C2167 0.960 . S
H2176 C2168 0.930 . S
H2177 C2169 0.929 . S
H2178 C2186 0.929 . S
H2179 C2188 0.930 . S
H2180 C2190 0.930 . S
H2181 C2193 0.929 . S
H2182 C2196 0.930 . S
H2183 C2198 0.960 . S
H2184 C2198 0.960 . S
H2185 C2198 0.960 . S
C2186 H2178 0.929 . S
C2186 C2187 1.377 . S
C2186 C2188 1.384 . S
C2187 C2186 1.377 . S
C2187 C2193 1.390 . S
C2188 H2179 0.930 . S
C2188 C2186 1.384 . S
C2188 C2189 1.372 . S
C2189 C2188 1.372 . S
C2189 C2190 1.400 . S
C2189 C2194 1.490 . S
C2190 H2180 0.930 . S
C2190 C2189 1.400 . S
C2190 C2193 1.386 . S
H2191 C2207 0.930 . S
H2192 C2208 0.931 . S
C2193 H2181 0.929 . S
C2193 C2187 1.390 . S
C2193 C2190 1.386 . S
C2194 C2189 1.490 . S
C2194 C2196 1.395 . S
C2194 C2197 1.403 . S
H2195 C2201 0.930 . S
C2196 H2182 0.930 . S
C2196 C2194 1.395 . S
C2196 C2199 1.403 . S
C2197 C2194 1.403 . S
C2197 C2198 1.524 . S
C2197 C2201 1.400 . S
C2198 H2183 0.960 . S
C2198 H2184 0.960 . S
C2198 H2185 0.960 . S
C2198 C2197 1.524 . S
C2199 C2196 1.403 . S
C2199 C2200 1.392 . S
C2199 C2203 1.495 . S
C2200 C2199 1.392 . S
C2200 C2201 1.385 . S
C2200 C2202 1.478 . S
C2201 H2195 0.930 . S
C2201 C2197 1.400 . S
C2201 C2200 1.385 . S
C2202 C2200 1.478 . S
C2202 C2204 1.381 . S
C2202 C2208 1.383 . S
C2203 C2199 1.495 . S
C2203 H2209 0.959 . S
C2203 H2210 0.961 . S
C2203 H2211 0.960 . S
C2204 C2202 1.381 . S
C2204 C2205 1.394 . S
C2204 H2212 0.930 . S
C2205 C2204 1.394 . S
C2205 C2206 1.383 . S
C2205 H2213 0.929 . S
C2206 C2205 1.383 . S
C2206 C2207 1.377 . S
C2207 H2191 0.930 . S
C2207 C2206 1.377 . S
C2207 C2208 1.379 . S
C2208 H2192 0.931 . S
C2208 C2202 1.383 . S
C2208 C2207 1.379 . S
H2209 C2203 0.959 . S
H2210 C2203 0.961 . S
H2211 C2203 0.960 . S
H2212 C2204 0.930 . S
H2213 C2205 0.929 . S
H2214 C2222 0.929 . S
H2215 C2224 0.930 . S
H2216 C2226 0.930 . S
H2217 C2229 0.929 . S
H2218 C2232 0.930 . S
H2219 C2234 0.960 . S
H2220 C2234 0.960 . S
H2221 C2234 0.960 . S
C2222 H2214 0.929 . S
C2222 C2223 1.377 . S
C2222 C2224 1.384 . S
C2223 C2222 1.377 . S
C2223 C2229 1.390 . S
C2224 H2215 0.930 . S
C2224 C2222 1.384 . S
C2224 C2225 1.372 . S
C2225 C2224 1.372 . S
C2225 C2226 1.400 . S
C2225 C2230 1.490 . S
C2226 H2216 0.930 . S
C2226 C2225 1.400 . S
C2226 C2229 1.386 . S
H2227 C2243 0.930 . S
H2228 C2244 0.931 . S
C2229 H2217 0.929 . S
C2229 C2223 1.390 . S
C2229 C2226 1.386 . S
C2230 C2225 1.490 . S
C2230 C2232 1.395 . S
C2230 C2233 1.403 . S
H2231 C2237 0.930 . S
C2232 H2218 0.930 . S
C2232 C2230 1.395 . S
C2232 C2235 1.403 . S
C2233 C2230 1.403 . S
C2233 C2234 1.524 . S
C2233 C2237 1.400 . S
C2234 H2219 0.960 . S
C2234 H2220 0.960 . S
C2234 H2221 0.960 . S
C2234 C2233 1.524 . S
C2235 C2232 1.403 . S
C2235 C2236 1.392 . S
C2235 C2239 1.495 . S
C2236 C2235 1.392 . S
C2236 C2237 1.385 . S
C2236 C2238 1.478 . S
C2237 H2231 0.930 . S
C2237 C2233 1.400 . S
C2237 C2236 1.385 . S
C2238 C2236 1.478 . S
C2238 C2240 1.381 . S
C2238 C2244 1.383 . S
C2239 C2235 1.495 . S
C2239 H2245 0.959 . S
C2239 H2246 0.961 . S
C2239 H2247 0.960 . S
C2240 C2238 1.381 . S
C2240 C2241 1.394 . S
C2240 H2248 0.930 . S
C2241 C2240 1.394 . S
C2241 C2242 1.383 . S
C2241 H2249 0.929 . S
C2242 C2241 1.383 . S
C2242 C2243 1.377 . S
C2243 H2227 0.930 . S
C2243 C2242 1.377 . S
C2243 C2244 1.379 . S
C2244 H2228 0.931 . S
C2244 C2238 1.383 . S
C2244 C2243 1.379 . S
H2245 C2239 0.959 . S
H2246 C2239 0.961 . S
H2247 C2239 0.960 . S
H2248 C2240 0.930 . S
H2249 C2241 0.929 . S
H2250 C2258 0.929 . S
H2251 C2260 0.930 . S
H2252 C2262 0.930 . S
H2253 C2265 0.929 . S
H2254 C2268 0.930 . S
H2255 C2270 0.960 . S
H2256 C2270 0.960 . S
H2257 C2270 0.960 . S
C2258 H2250 0.929 . S
C2258 C2259 1.377 . S
C2258 C2260 1.384 . S
C2259 C2258 1.377 . S
C2259 C2265 1.390 . S
C2260 H2251 0.930 . S
C2260 C2258 1.384 . S
C2260 C2261 1.372 . S
C2261 C2260 1.372 . S
C2261 C2262 1.400 . S
C2261 C2266 1.490 . S
C2262 H2252 0.930 . S
C2262 C2261 1.400 . S
C2262 C2265 1.386 . S
H2263 C2279 0.930 . S
H2264 C2280 0.931 . S
C2265 H2253 0.929 . S
C2265 C2259 1.390 . S
C2265 C2262 1.386 . S
C2266 C2261 1.490 . S
C2266 C2268 1.395 . S
C2266 C2269 1.403 . S
H2267 C2273 0.930 . S
C2268 H2254 0.930 . S
C2268 C2266 1.395 . S
C2268 C2271 1.403 . S
C2269 C2266 1.403 . S
C2269 C2270 1.524 . S
C2269 C2273 1.400 . S
C2270 H2255 0.960 . S
C2270 H2256 0.960 . S
C2270 H2257 0.960 . S
C2270 C2269 1.524 . S
C2271 C2268 1.403 . S
C2271 C2272 1.392 . S
C2271 C2275 1.495 . S
C2272 C2271 1.392 . S
C2272 C2273 1.385 . S
C2272 C2274 1.478 . S
C2273 H2267 0.930 . S
C2273 C2269 1.400 . S
C2273 C2272 1.385 . S
C2274 C2272 1.478 . S
C2274 C2276 1.381 . S
C2274 C2280 1.383 . S
C2275 C2271 1.495 . S
C2275 H2281 0.959 . S
C2275 H2282 0.961 . S
C2275 H2283 0.960 . S
C2276 C2274 1.381 . S
C2276 C2277 1.394 . S
C2276 H2284 0.930 . S
C2277 C2276 1.394 . S
C2277 C2278 1.383 . S
C2277 H2285 0.929 . S
C2278 C2277 1.383 . S
C2278 C2279 1.377 . S
C2279 H2263 0.930 . S
C2279 C2278 1.377 . S
C2279 C2280 1.379 . S
C2280 H2264 0.931 . S
C2280 C2274 1.383 . S
C2280 C2279 1.379 . S
H2281 C2275 0.959 . S
H2282 C2275 0.961 . S
H2283 C2275 0.960 . S
H2284 C2276 0.930 . S
H2285 C2277 0.929 . S
H2286 C2294 0.929 . S
H2287 C2296 0.930 . S
H2288 C2298 0.930 . S
H2289 C2301 0.929 . S
H2290 C2304 0.930 . S
H2291 C2306 0.960 . S
H2292 C2306 0.960 . S
H2293 C2306 0.960 . S
C2294 H2286 0.929 . S
C2294 C2295 1.377 . S
C2294 C2296 1.384 . S
C2295 C2294 1.377 . S
C2295 C2301 1.390 . S
C2296 H2287 0.930 . S
C2296 C2294 1.384 . S
C2296 C2297 1.372 . S
C2297 C2296 1.372 . S
C2297 C2298 1.400 . S
C2297 C2302 1.490 . S
C2298 H2288 0.930 . S
C2298 C2297 1.400 . S
C2298 C2301 1.386 . S
H2299 C2315 0.930 . S
H2300 C2316 0.931 . S
C2301 H2289 0.929 . S
C2301 C2295 1.390 . S
C2301 C2298 1.386 . S
C2302 C2297 1.490 . S
C2302 C2304 1.395 . S
C2302 C2305 1.403 . S
H2303 C2309 0.930 . S
C2304 H2290 0.930 . S
C2304 C2302 1.395 . S
C2304 C2307 1.403 . S
C2305 C2302 1.403 . S
C2305 C2306 1.524 . S
C2305 C2309 1.400 . S
C2306 H2291 0.960 . S
C2306 H2292 0.960 . S
C2306 H2293 0.960 . S
C2306 C2305 1.524 . S
C2307 C2304 1.403 . S
C2307 C2308 1.392 . S
C2307 C2311 1.495 . S
C2308 C2307 1.392 . S
C2308 C2309 1.385 . S
C2308 C2310 1.478 . S
C2309 H2303 0.930 . S
C2309 C2305 1.400 . S
C2309 C2308 1.385 . S
C2310 C2308 1.478 . S
C2310 C2312 1.381 . S
C2310 C2316 1.383 . S
C2311 C2307 1.495 . S
C2311 H2317 0.959 . S
C2311 H2318 0.961 . S
C2311 H2319 0.960 . S
C2312 C2310 1.381 . S
C2312 C2313 1.394 . S
C2312 H2320 0.930 . S
C2313 C2312 1.394 . S
C2313 C2314 1.383 . S
C2313 H2321 0.929 . S
C2314 C2313 1.383 . S
C2314 C2315 1.377 . S
C2315 H2299 0.930 . S
C2315 C2314 1.377 . S
C2315 C2316 1.379 . S
C2316 H2300 0.931 . S
C2316 C2310 1.383 . S
C2316 C2315 1.379 . S
H2317 C2311 0.959 . S
H2318 C2311 0.961 . S
H2319 C2311 0.960 . S
H2320 C2312 0.930 . S
H2321 C2313 0.929 . S
H2322 C2330 0.929 . S
H2323 C2332 0.930 . S
H2324 C2334 0.930 . S
H2325 C2337 0.929 . S
H2326 C2340 0.930 . S
H2327 C2342 0.960 . S
H2328 C2342 0.960 . S
H2329 C2342 0.960 . S
C2330 H2322 0.929 . S
C2330 C2331 1.377 . S
C2330 C2332 1.384 . S
C2331 C2330 1.377 . S
C2331 C2337 1.390 . S
C2332 H2323 0.930 . S
C2332 C2330 1.384 . S
C2332 C2333 1.372 . S
C2333 C2332 1.372 . S
C2333 C2334 1.400 . S
C2333 C2338 1.490 . S
C2334 H2324 0.930 . S
C2334 C2333 1.400 . S
C2334 C2337 1.386 . S
H2335 C2351 0.930 . S
H2336 C2352 0.931 . S
C2337 H2325 0.929 . S
C2337 C2331 1.390 . S
C2337 C2334 1.386 . S
C2338 C2333 1.490 . S
C2338 C2340 1.395 . S
C2338 C2341 1.403 . S
H2339 C2345 0.930 . S
C2340 H2326 0.930 . S
C2340 C2338 1.395 . S
C2340 C2343 1.403 . S
C2341 C2338 1.403 . S
C2341 C2342 1.524 . S
C2341 C2345 1.400 . S
C2342 H2327 0.960 . S
C2342 H2328 0.960 . S
C2342 H2329 0.960 . S
C2342 C2341 1.524 . S
C2343 C2340 1.403 . S
C2343 C2344 1.392 . S
C2343 C2347 1.495 . S
C2344 C2343 1.392 . S
C2344 C2345 1.385 . S
C2344 C2346 1.478 . S
C2345 H2339 0.930 . S
C2345 C2341 1.400 . S
C2345 C2344 1.385 . S
C2346 C2344 1.478 . S
C2346 C2348 1.381 . S
C2346 C2352 1.383 . S
C2347 C2343 1.495 . S
C2347 H2353 0.959 . S
C2347 H2354 0.961 . S
C2347 H2355 0.960 . S
C2348 C2346 1.381 . S
C2348 C2349 1.394 . S
C2348 H2356 0.930 . S
C2349 C2348 1.394 . S
C2349 C2350 1.383 . S
C2349 H2357 0.929 . S
C2350 C2349 1.383 . S
C2350 C2351 1.377 . S
C2351 H2335 0.930 . S
C2351 C2350 1.377 . S
C2351 C2352 1.379 . S
C2352 H2336 0.931 . S
C2352 C2346 1.383 . S
C2352 C2351 1.379 . S
H2353 C2347 0.959 . S
H2354 C2347 0.961 . S
H2355 C2347 0.960 . S
H2356 C2348 0.930 . S
H2357 C2349 0.929 . S
H2358 C2366 0.929 . S
H2359 C2368 0.930 . S
H2360 C2370 0.930 . S
H2361 C2373 0.929 . S
H2362 C2376 0.930 . S
H2363 C2378 0.960 . S
H2364 C2378 0.960 . S
H2365 C2378 0.960 . S
C2366 H2358 0.929 . S
C2366 C2367 1.377 . S
C2366 C2368 1.384 . S
C2367 C2366 1.377 . S
C2367 C2373 1.390 . S
C2368 H2359 0.930 . S
C2368 C2366 1.384 . S
C2368 C2369 1.372 . S
C2369 C2368 1.372 . S
C2369 C2370 1.400 . S
C2369 C2374 1.490 . S
C2370 H2360 0.930 . S
C2370 C2369 1.400 . S
C2370 C2373 1.386 . S
H2371 C2387 0.930 . S
H2372 C2388 0.931 . S
C2373 H2361 0.929 . S
C2373 C2367 1.390 . S
C2373 C2370 1.386 . S
C2374 C2369 1.490 . S
C2374 C2376 1.395 . S
C2374 C2377 1.403 . S
H2375 C2381 0.930 . S
C2376 H2362 0.930 . S
C2376 C2374 1.395 . S
C2376 C2379 1.403 . S
C2377 C2374 1.403 . S
C2377 C2378 1.524 . S
C2377 C2381 1.400 . S
C2378 H2363 0.960 . S
C2378 H2364 0.960 . S
C2378 H2365 0.960 . S
C2378 C2377 1.524 . S
C2379 C2376 1.403 . S
C2379 C2380 1.392 . S
C2379 C2383 1.495 . S
C2380 C2379 1.392 . S
C2380 C2381 1.385 . S
C2380 C2382 1.478 . S
C2381 H2375 0.930 . S
C2381 C2377 1.400 . S
C2381 C2380 1.385 . S
C2382 C2380 1.478 . S
C2382 C2384 1.381 . S
C2382 C2388 1.383 . S
C2383 C2379 1.495 . S
C2383 H2389 0.959 . S
C2383 H2390 0.961 . S
C2383 H2391 0.960 . S
C2384 C2382 1.381 . S
C2384 C2385 1.394 . S
C2384 H2392 0.930 . S
C2385 C2384 1.394 . S
C2385 C2386 1.383 . S
C2385 H2393 0.929 . S
C2386 C2385 1.383 . S
C2386 C2387 1.377 . S
C2387 H2371 0.930 . S
C2387 C2386 1.377 . S
C2387 C2388 1.379 . S
C2388 H2372 0.931 . S
C2388 C2382 1.383 . S
C2388 C2387 1.379 . S
H2389 C2383 0.959 . S
H2390 C2383 0.961 . S
H2391 C2383 0.960 . S
H2392 C2384 0.930 . S
H2393 C2385 0.929 . S
H2394 C2402 0.929 . S
H2395 C2404 0.930 . S
H2396 C2406 0.930 1_655 S
H2397 C2409 0.929 1_655 S
H2398 C2412 0.930 . S
H2399 C2414 0.960 . S
H2400 C2414 0.935 1_455 S
H2401 C2414 0.960 . S
C2402 H2394 0.929 . S
C2402 C2403 1.377 . S
C2402 C2404 1.384 . S
C2403 C2402 1.377 . S
C2403 C2409 1.390 . S
C2404 H2395 0.930 . S
C2404 C2402 1.384 . S
C2404 C2405 1.372 . S
C2405 C2404 1.372 . S
C2405 C2406 1.400 . S
C2405 C2410 1.490 . S
C2406 H2396 0.930 1_455 S
C2406 C2405 1.400 . S
C2406 C2409 1.386 . S
H2407 C2423 0.930 1_655 S
H2408 C2424 0.931 1_655 S
C2409 H2397 0.929 1_455 S
C2409 C2403 1.390 . S
C2409 C2406 1.386 . S
C2410 C2405 1.490 . S
C2410 C2412 1.395 . S
C2410 C2413 1.403 . S
H2411 C2417 0.938 1_655 S
C2412 H2398 0.930 . S
C2412 C2410 1.395 . S
C2412 C2415 1.403 . S
C2413 C2410 1.403 . S
C2413 C2414 1.524 1_455 S
C2413 C2417 1.400 . S
C2414 H2399 0.960 . S
C2414 H2400 0.935 1_655 S
C2414 H2401 0.960 . S
C2414 C2413 1.524 1_655 S
C2415 C2412 1.403 . S
C2415 C2416 1.392 . S
C2415 C2419 1.495 . S
C2416 C2415 1.392 . S
C2416 C2417 1.385 . S
C2416 C2418 1.478 . S
C2417 H2411 0.938 1_455 S
C2417 C2413 1.400 . S
C2417 C2416 1.385 . S
C2418 C2416 1.478 . S
C2418 C2420 1.381 . S
C2418 C2424 1.383 . S
C2419 C2415 1.495 . S
C2419 H2425 0.959 . S
C2419 H2426 0.961 . S
C2419 H2427 0.960 . S
C2420 C2418 1.381 . S
C2420 C2421 1.394 . S
C2420 H2428 0.930 . S
C2421 C2420 1.394 . S
C2421 C2422 1.383 . S
C2421 H2429 0.929 . S
C2422 C2421 1.383 . S
C2422 C2423 1.377 . S
C2423 H2407 0.930 1_455 S
C2423 C2422 1.377 . S
C2423 C2424 1.379 . S
C2424 H2408 0.931 1_455 S
C2424 C2418 1.383 . S
C2424 C2423 1.379 . S
H2425 C2419 0.959 . S
H2426 C2419 0.961 . S
H2427 C2419 0.960 . S
H2428 C2420 0.930 . S
H2429 C2421 0.929 . S
H2430 C2438 0.929 . S
H2431 C2440 0.930 . S
H2432 C2442 0.930 . S
H2433 C2445 0.929 . S
H2434 C2448 0.930 . S
H2435 C2450 0.960 . S
H2436 C2450 0.960 . S
H2437 C2450 0.960 . S
C2438 H2430 0.929 . S
C2438 C2439 1.377 . S
C2438 C2440 1.384 . S
C2439 C2438 1.377 . S
C2439 C2445 1.390 . S
C2440 H2431 0.930 . S
C2440 C2438 1.384 . S
C2440 C2441 1.372 . S
C2441 C2440 1.372 . S
C2441 C2442 1.400 . S
C2441 C2446 1.490 . S
C2442 H2432 0.930 . S
C2442 C2441 1.400 . S
C2442 C2445 1.386 . S
H2443 C2459 0.930 . S
H2444 C2460 0.931 . S
C2445 H2433 0.929 . S
C2445 C2439 1.390 . S
C2445 C2442 1.386 . S
C2446 C2441 1.490 . S
C2446 C2448 1.395 . S
C2446 C2449 1.403 . S
H2447 C2453 0.930 . S
C2448 H2434 0.930 . S
C2448 C2446 1.395 . S
C2448 C2451 1.403 . S
C2449 C2446 1.403 . S
C2449 C2450 1.524 . S
C2449 C2453 1.400 . S
C2450 H2435 0.960 . S
C2450 H2436 0.960 . S
C2450 H2437 0.960 . S
C2450 C2449 1.524 . S
C2451 C2448 1.403 . S
C2451 C2452 1.392 . S
C2451 C2455 1.495 . S
C2452 C2451 1.392 . S
C2452 C2453 1.385 . S
C2452 C2454 1.478 . S
C2453 H2447 0.930 . S
C2453 C2449 1.400 . S
C2453 C2452 1.385 . S
C2454 C2452 1.478 . S
C2454 C2456 1.381 . S
C2454 C2460 1.383 . S
C2455 C2451 1.495 . S
C2455 H2461 0.959 . S
C2455 H2462 0.961 . S
C2455 H2463 0.960 . S
C2456 C2454 1.381 . S
C2456 C2457 1.394 . S
C2456 H2464 0.930 . S
C2457 C2456 1.394 . S
C2457 C2458 1.383 . S
C2457 H2465 0.929 . S
C2458 C2457 1.383 . S
C2458 C2459 1.377 . S
C2459 H2443 0.930 . S
C2459 C2458 1.377 . S
C2459 C2460 1.379 . S
C2460 H2444 0.931 . S
C2460 C2454 1.383 . S
C2460 C2459 1.379 . S
H2461 C2455 0.959 . S
H2462 C2455 0.961 . S
H2463 C2455 0.960 . S
H2464 C2456 0.930 . S
H2465 C2457 0.929 . S
H2466 C2474 0.929 . S
H2467 C2476 0.930 . S
H2468 C2478 0.930 . S
H2469 C2481 0.929 . S
H2470 C2484 0.930 . S
H2471 C2486 0.960 . S
H2472 C2486 0.960 . S
H2473 C2486 0.960 . S
C2474 H2466 0.929 . S
C2474 C2475 1.377 . S
C2474 C2476 1.384 . S
C2475 C2474 1.377 . S
C2475 C2481 1.390 1_565 S
C2476 H2467 0.930 . S
C2476 C2474 1.384 . S
C2476 C2477 1.372 . S
C2477 C2476 1.372 . S
C2477 C2478 1.400 1_565 S
C2477 C2482 1.490 . S
C2478 H2468 0.930 . S
C2478 C2477 1.400 1_545 S
C2478 C2481 1.386 . S
H2479 C2495 0.930 . S
H2480 C2496 0.931 . S
C2481 H2469 0.929 . S
C2481 C2475 1.390 1_545 S
C2481 C2478 1.386 . S
C2482 C2477 1.490 . S
C2482 C2484 1.395 . S
C2482 C2485 1.403 1_565 S
H2483 C2489 0.930 . S
C2484 H2470 0.930 . S
C2484 C2482 1.395 . S
C2484 C2487 1.403 . S
C2485 C2482 1.403 1_545 S
C2485 C2486 1.524 . S
C2485 C2489 1.400 . S
C2486 H2471 0.960 . S
C2486 H2472 0.960 . S
C2486 H2473 0.960 . S
C2486 C2485 1.524 . S
C2487 C2484 1.403 . S
C2487 C2488 1.392 . S
C2487 C2491 1.495 . S
C2488 C2487 1.392 . S
C2488 C2489 1.385 1_565 S
C2488 C2490 1.478 . S
C2489 H2483 0.930 . S
C2489 C2485 1.400 . S
C2489 C2488 1.385 1_545 S
C2490 C2488 1.478 . S
C2490 C2492 1.381 . S
C2490 C2496 1.383 1_565 S
C2491 C2487 1.495 . S
C2491 H2497 0.959 . S
C2491 H2498 0.961 . S
C2491 H2499 0.960 . S
C2492 C2490 1.381 . S
C2492 C2493 1.394 . S
C2492 H2500 0.930 . S
C2493 C2492 1.394 . S
C2493 C2494 1.383 . S
C2493 H2501 0.929 . S
C2494 C2493 1.383 . S
C2494 C2495 1.377 1_565 S
C2495 H2479 0.930 . S
C2495 C2494 1.377 1_545 S
C2495 C2496 1.379 . S
C2496 H2480 0.931 . S
C2496 C2490 1.383 1_545 S
C2496 C2495 1.379 . S
H2497 C2491 0.959 . S
H2498 C2491 0.961 . S
H2499 C2491 0.960 . S
H2500 C2492 0.930 . S
H2501 C2493 0.929 . S
H2502 C2510 0.929 . S
H2503 C2512 0.930 . S
H2504 C2514 0.930 . S
H2505 C2517 0.929 . S
H2506 C2520 0.930 . S
H2507 C2522 0.960 . S
H2508 C2522 0.960 . S
H2509 C2522 0.960 . S
C2510 H2502 0.929 . S
C2510 C2511 1.377 1_545 S
C2510 C2512 1.384 . S
C2511 C2510 1.377 1_565 S
C2511 C2517 1.390 . S
C2512 H2503 0.930 . S
C2512 C2510 1.384 . S
C2512 C2513 1.372 1_545 S
C2513 C2512 1.372 1_565 S
C2513 C2514 1.400 . S
C2513 C2518 1.490 . S
C2514 H2504 0.930 . S
C2514 C2513 1.400 . S
C2514 C2517 1.386 . S
H2515 C2531 0.930 . S
H2516 C2532 0.931 . S
C2517 H2505 0.929 . S
C2517 C2511 1.390 . S
C2517 C2514 1.386 . S
C2518 C2513 1.490 . S
C2518 C2520 1.395 1_565 S
C2518 C2521 1.403 . S
H2519 C2525 0.930 . S
C2520 H2506 0.930 . S
C2520 C2518 1.395 1_545 S
C2520 C2523 1.403 . S
C2521 C2518 1.403 . S
C2521 C2522 1.524 . S
C2521 C2525 1.400 . S
C2522 H2507 0.960 . S
C2522 H2508 0.960 . S
C2522 H2509 0.960 . S
C2522 C2521 1.524 . S
C2523 C2520 1.403 . S
C2523 C2524 1.392 1_545 S
C2523 C2527 1.495 . S
C2524 C2523 1.392 1_565 S
C2524 C2525 1.385 . S
C2524 C2526 1.507 . S
C2525 H2519 0.930 . S
C2525 C2521 1.400 . S
C2525 C2524 1.385 . S
C2526 C2524 1.507 . S
C2526 C2528 1.322 1_565 S
C2526 C2532 1.412 . S
C2527 C2523 1.495 . S
C2527 H2533 0.959 . S
C2527 H2534 0.961 . S
C2527 H2535 0.960 . S
C2528 C2526 1.322 1_545 S
C2528 C2529 1.394 . S
C2528 H2536 0.930 . S
C2529 C2528 1.394 . S
C2529 C2530 1.388 . S
C2529 H2537 0.929 . S
C2530 C2529 1.388 . S
C2530 C2531 1.367 1_545 S
C2531 H2515 0.930 . S
C2531 C2530 1.367 1_565 S
C2531 C2532 1.379 . S
C2532 H2516 0.931 . S
C2532 C2526 1.412 . S
C2532 C2531 1.379 . S
H2533 C2527 0.959 . S
H2534 C2527 0.961 . S
H2535 C2527 0.960 . S
H2536 C2528 0.930 . S
H2537 C2529 0.929 . S
H2538 C2546 0.929 . S
H2539 C2548 0.930 . S
H2540 C2550 0.930 1_655 S
H2541 C2553 0.867 1_655 S
H2542 C2556 0.930 . S
H2543 C2558 0.960 . S
H2544 C2558 0.960 . S
H2545 C2558 0.960 . S
C2546 H2538 0.929 . S
C2546 C2547 1.377 . S
C2546 C2548 1.384 . S
C2547 C2546 1.377 . S
C2547 C2553 1.390 . S
C2548 H2539 0.930 . S
C2548 C2546 1.384 . S
C2548 C2549 1.372 . S
C2549 C2548 1.372 . S
C2549 C2550 1.400 . S
C2549 C2554 1.490 . S
C2550 H2540 0.930 1_455 S
C2550 C2549 1.400 . S
C2550 C2553 1.386 . S
H2551 C2567 0.930 . S
H2552 C2568 0.931 . S
C2553 H2541 0.867 1_455 S
C2553 C2547 1.390 . S
C2553 C2550 1.386 . S
C2554 C2549 1.490 . S
C2554 C2556 1.395 . S
C2554 C2557 1.403 . S
H2555 C2561 0.930 . S
C2556 H2542 0.930 . S
C2556 C2554 1.395 . S
C2556 C2559 1.403 . S
C2557 C2554 1.403 . S
C2557 C2558 1.524 . S
C2557 C2561 1.400 . S
C2558 H2543 0.960 . S
C2558 H2544 0.960 . S
C2558 H2545 0.960 . S
C2558 C2557 1.524 . S
C2559 C2556 1.403 . S
C2559 C2560 1.392 . S
C2559 C2563 1.495 . S
C2560 C2559 1.392 . S
C2560 C2561 1.385 . S
C2560 C2562 1.478 . S
C2561 H2555 0.930 . S
C2561 C2557 1.400 . S
C2561 C2560 1.385 . S
C2562 C2560 1.478 . S
C2562 C2564 1.381 . S
C2562 C2568 1.383 1_455 S
C2563 C2559 1.495 . S
C2563 H2569 0.959 . S
C2563 H2570 0.961 1_455 S
C2563 H2571 0.960 . S
C2564 C2562 1.381 . S
C2564 C2565 1.394 . S
C2564 H2572 0.930 . S
C2565 C2564 1.394 . S
C2565 C2566 1.383 . S
C2565 H2573 0.929 . S
C2566 C2565 1.383 . S
C2566 C2567 1.377 1_455 S
C2567 H2551 0.930 . S
C2567 C2566 1.377 1_655 S
C2567 C2568 1.379 . S
C2568 H2552 0.931 . S
C2568 C2562 1.383 1_655 S
C2568 C2567 1.379 . S
H2569 C2563 0.959 . S
H2570 C2563 0.961 1_655 S
H2571 C2563 0.960 . S
H2572 C2564 0.930 . S
H2573 C2565 0.929 . S
H2574 C2582 0.929 . S
H2575 C2584 0.930 . S
H2576 C2586 0.930 . S
H2577 C2589 0.929 . S
H2578 C2592 0.930 . S
H2579 C2594 0.960 . S
H2580 C2594 0.960 . S
H2581 C2594 0.960 . S
C2582 H2574 0.929 . S
C2582 C2583 1.377 . S
C2582 C2584 1.384 . S
C2583 C2582 1.377 . S
C2583 C2589 1.390 . S
C2584 H2575 0.930 . S
C2584 C2582 1.384 . S
C2584 C2585 1.372 . S
C2585 C2584 1.372 . S
C2585 C2586 1.400 . S
C2585 C2590 1.490 . S
C2586 H2576 0.930 . S
C2586 C2585 1.400 . S
C2586 C2589 1.386 . S
H2587 C2603 0.930 . S
H2588 C2604 0.931 . S
C2589 H2577 0.929 . S
C2589 C2583 1.390 . S
C2589 C2586 1.386 . S
C2590 C2585 1.490 . S
C2590 C2592 1.395 . S
C2590 C2593 1.403 . S
H2591 C2597 0.930 . S
C2592 H2578 0.930 . S
C2592 C2590 1.395 . S
C2592 C2595 1.403 . S
C2593 C2590 1.403 . S
C2593 C2594 1.524 . S
C2593 C2597 1.400 . S
C2594 H2579 0.960 . S
C2594 H2580 0.960 . S
C2594 H2581 0.960 . S
C2594 C2593 1.524 . S
C2595 C2592 1.403 . S
C2595 C2596 1.392 . S
C2595 C2599 1.495 . S
C2596 C2595 1.392 . S
C2596 C2597 1.385 . S
C2596 C2598 1.478 . S
C2597 H2591 0.930 . S
C2597 C2593 1.400 . S
C2597 C2596 1.385 . S
C2598 C2596 1.478 . S
C2598 C2600 1.381 . S
C2598 C2604 1.383 . S
C2599 C2595 1.495 . S
C2599 H2605 0.959 . S
C2599 H2606 0.961 . S
C2599 H2607 0.960 . S
C2600 C2598 1.381 . S
C2600 C2601 1.394 . S
C2600 H2608 0.930 . S
C2601 C2600 1.394 . S
C2601 C2602 1.383 . S
C2601 H2609 0.929 . S
C2602 C2601 1.383 . S
C2602 C2603 1.377 . S
C2603 H2587 0.930 . S
C2603 C2602 1.377 . S
C2603 C2604 1.379 . S
C2604 H2588 0.931 . S
C2604 C2598 1.383 . S
C2604 C2603 1.379 . S
H2605 C2599 0.959 . S
H2606 C2599 0.961 . S
H2607 C2599 0.960 . S
H2608 C2600 0.930 . S
H2609 C2601 0.929 . S
H2610 C2618 0.929 . S
H2611 C2620 0.930 . S
H2612 C2622 0.930 . S
H2613 C2625 0.929 . S
H2614 C2628 0.930 . S
H2615 C2630 0.960 . S
H2616 C2630 0.960 . S
H2617 C2630 0.960 . S
C2618 H2610 0.929 . S
C2618 C2619 1.377 . S
C2618 C2620 1.384 . S
C2619 C2618 1.377 . S
C2619 C2625 1.390 . S
C2620 H2611 0.930 . S
C2620 C2618 1.384 . S
C2620 C2621 1.372 . S
C2621 C2620 1.372 . S
C2621 C2622 1.400 . S
C2621 C2626 1.490 . S
C2622 H2612 0.930 . S
C2622 C2621 1.400 . S
C2622 C2625 1.386 . S
H2623 C2639 0.930 . S
H2624 C2640 0.931 . S
C2625 H2613 0.929 . S
C2625 C2619 1.390 . S
C2625 C2622 1.386 . S
C2626 C2621 1.490 . S
C2626 C2628 1.395 . S
C2626 C2629 1.403 . S
H2627 C2633 0.930 . S
C2628 H2614 0.930 . S
C2628 C2626 1.395 . S
C2628 C2631 1.403 . S
C2629 C2626 1.403 . S
C2629 C2630 1.524 . S
C2629 C2633 1.400 . S
C2630 H2615 0.960 . S
C2630 H2616 0.960 . S
C2630 H2617 0.960 . S
C2630 C2629 1.524 . S
C2631 C2628 1.403 . S
C2631 C2632 1.392 . S
C2631 C2635 1.495 . S
C2632 C2631 1.392 . S
C2632 C2633 1.385 . S
C2632 C2634 1.478 . S
C2633 H2627 0.930 . S
C2633 C2629 1.400 . S
C2633 C2632 1.385 . S
C2634 C2632 1.478 . S
C2634 C2636 1.381 . S
C2634 C2640 1.383 . S
C2635 C2631 1.495 . S
C2635 H2641 0.959 . S
C2635 H2642 0.961 . S
C2635 H2643 0.960 . S
C2636 C2634 1.381 . S
C2636 C2637 1.394 . S
C2636 H2644 0.930 . S
C2637 C2636 1.394 . S
C2637 C2638 1.383 . S
C2637 H2645 0.929 . S
C2638 C2637 1.383 . S
C2638 C2639 1.377 . S
C2639 H2623 0.930 . S
C2639 C2638 1.377 . S
C2639 C2640 1.379 . S
C2640 H2624 0.931 . S
C2640 C2634 1.383 . S
C2640 C2639 1.379 . S
H2641 C2635 0.959 . S
H2642 C2635 0.961 . S
H2643 C2635 0.960 . S
H2644 C2636 0.930 . S
H2645 C2637 0.929 . S
H2646 C2654 0.929 . S
H2647 C2656 0.930 . S
H2648 C2658 0.930 . S
H2649 C2661 0.929 . S
H2650 C2664 0.930 . S
H2651 C2666 0.960 . S
H2652 C2666 0.960 . S
H2653 C2666 0.960 . S
C2654 H2646 0.929 . S
C2654 C2655 1.377 . S
C2654 C2656 1.384 . S
C2655 C2654 1.377 . S
C2655 C2661 1.390 . S
C2656 H2647 0.930 . S
C2656 C2654 1.384 . S
C2656 C2657 1.372 . S
C2657 C2656 1.372 . S
C2657 C2658 1.400 . S
C2657 C2662 1.490 . S
C2658 H2648 0.930 . S
C2658 C2657 1.400 . S
C2658 C2661 1.386 . S
H2659 C2675 0.930 . S
H2660 C2676 0.931 . S
C2661 H2649 0.929 . S
C2661 C2655 1.390 . S
C2661 C2658 1.386 . S
C2662 C2657 1.490 . S
C2662 C2664 1.395 . S
C2662 C2665 1.403 . S
H2663 C2669 0.930 . S
C2664 H2650 0.930 . S
C2664 C2662 1.395 . S
C2664 C2667 1.403 . S
C2665 C2662 1.403 . S
C2665 C2666 1.524 . S
C2665 C2669 1.400 . S
C2666 H2651 0.960 . S
C2666 H2652 0.960 . S
C2666 H2653 0.960 . S
C2666 C2665 1.524 . S
C2667 C2664 1.403 . S
C2667 C2668 1.392 . S
C2667 C2671 1.495 . S
C2668 C2667 1.392 . S
C2668 C2669 1.385 . S
C2668 C2670 1.478 . S
C2669 H2663 0.930 . S
C2669 C2665 1.400 . S
C2669 C2668 1.385 . S
C2670 C2668 1.478 . S
C2670 C2672 1.381 . S
C2670 C2676 1.383 . S
C2671 C2667 1.495 . S
C2671 H2677 0.959 . S
C2671 H2678 0.961 . S
C2671 H2679 0.960 . S
C2672 C2670 1.381 . S
C2672 C2673 1.394 . S
C2672 H2680 0.930 . S
C2673 C2672 1.394 . S
C2673 C2674 1.383 . S
C2673 H2681 0.929 . S
C2674 C2673 1.383 . S
C2674 C2675 1.377 . S
C2675 H2659 0.930 . S
C2675 C2674 1.377 . S
C2675 C2676 1.379 . S
C2676 H2660 0.931 . S
C2676 C2670 1.383 . S
C2676 C2675 1.379 . S
H2677 C2671 0.959 . S
H2678 C2671 0.961 . S
H2679 C2671 0.960 . S
H2680 C2672 0.930 . S
H2681 C2673 0.929 . S
H2682 C2690 0.929 . S
H2683 C2692 0.930 . S
H2684 C2694 0.930 . S
H2685 C2697 0.929 . S
H2686 C2700 0.930 . S
H2687 C2702 0.960 . S
H2688 C2702 0.960 . S
H2689 C2702 0.960 . S
C2690 H2682 0.929 . S
C2690 C2691 1.377 . S
C2690 C2692 1.384 . S
C2691 C2690 1.377 . S
C2691 C2697 1.390 . S
C2692 H2683 0.930 . S
C2692 C2690 1.384 . S
C2692 C2693 1.372 . S
C2693 C2692 1.372 . S
C2693 C2694 1.400 . S
C2693 C2698 1.490 . S
C2694 H2684 0.930 . S
C2694 C2693 1.400 . S
C2694 C2697 1.386 . S
H2695 C2711 0.930 . S
H2696 C2712 0.931 . S
C2697 H2685 0.929 . S
C2697 C2691 1.390 . S
C2697 C2694 1.386 . S
C2698 C2693 1.490 . S
C2698 C2700 1.395 . S
C2698 C2701 1.403 . S
H2699 C2705 0.930 . S
C2700 H2686 0.930 . S
C2700 C2698 1.395 . S
C2700 C2703 1.403 . S
C2701 C2698 1.403 . S
C2701 C2702 1.524 . S
C2701 C2705 1.400 . S
C2702 H2687 0.960 . S
C2702 H2688 0.960 . S
C2702 H2689 0.960 . S
C2702 C2701 1.524 . S
C2703 C2700 1.403 . S
C2703 C2704 1.392 . S
C2703 C2707 1.495 . S
C2704 C2703 1.392 . S
C2704 C2705 1.385 . S
C2704 C2706 1.478 . S
C2705 H2699 0.930 . S
C2705 C2701 1.400 . S
C2705 C2704 1.385 . S
C2706 C2704 1.478 . S
C2706 C2708 1.381 . S
C2706 C2712 1.383 . S
C2707 C2703 1.495 . S
C2707 H2713 0.959 . S
C2707 H2714 0.961 . S
C2707 H2715 0.960 . S
C2708 C2706 1.381 . S
C2708 C2709 1.394 . S
C2708 H2716 0.930 . S
C2709 C2708 1.394 . S
C2709 C2710 1.383 . S
C2709 H2717 0.929 . S
C2710 C2709 1.383 . S
C2710 C2711 1.377 . S
C2711 H2695 0.930 . S
C2711 C2710 1.377 . S
C2711 C2712 1.379 . S
C2712 H2696 0.931 . S
C2712 C2706 1.383 . S
C2712 C2711 1.379 . S
H2713 C2707 0.959 . S
H2714 C2707 0.961 . S
H2715 C2707 0.960 . S
H2716 C2708 0.930 . S
H2717 C2709 0.929 . S
H2718 C2726 0.929 . S
H2719 C2728 0.930 . S
H2720 C2730 0.930 . S
H2721 C2733 0.929 . S
H2722 C2736 0.930 . S
H2723 C2738 0.960 . S
H2724 C2738 0.960 . S
H2725 C2738 0.960 . S
C2726 H2718 0.929 . S
C2726 C2727 1.377 . S
C2726 C2728 1.384 . S
C2727 C2726 1.377 . S
C2727 C2733 1.390 . S
C2728 H2719 0.930 . S
C2728 C2726 1.384 . S
C2728 C2729 1.372 . S
C2729 C2728 1.372 . S
C2729 C2730 1.400 . S
C2729 C2734 1.490 . S
C2730 H2720 0.930 . S
C2730 C2729 1.400 . S
C2730 C2733 1.386 . S
H2731 C2747 0.930 . S
H2732 C2748 0.931 . S
C2733 H2721 0.929 . S
C2733 C2727 1.390 . S
C2733 C2730 1.386 . S
C2734 C2729 1.490 . S
C2734 C2736 1.395 . S
C2734 C2737 1.403 . S
H2735 C2741 0.923 . S
C2736 H2722 0.930 . S
C2736 C2734 1.395 . S
C2736 C2739 1.403 . S
C2737 C2734 1.403 . S
C2737 C2738 1.524 1_545 S
C2737 C2741 1.400 . S
C2738 H2723 0.960 . S
C2738 H2724 0.960 . S
C2738 H2725 0.960 . S
C2738 C2737 1.524 1_565 S
C2739 C2736 1.403 . S
C2739 C2740 1.392 . S
C2739 C2743 1.495 . S
C2740 C2739 1.392 . S
C2740 C2741 1.385 . S
C2740 C2742 1.478 . S
C2741 H2735 0.923 . S
C2741 C2737 1.400 . S
C2741 C2740 1.385 . S
C2742 C2740 1.478 . S
C2742 C2744 1.381 . S
C2742 C2748 1.383 . S
C2743 C2739 1.495 . S
C2743 H2749 0.959 . S
C2743 H2750 0.961 . S
C2743 H2751 0.960 . S
C2744 C2742 1.381 . S
C2744 C2745 1.394 . S
C2744 H2752 0.930 . S
C2745 C2744 1.394 . S
C2745 C2746 1.383 . S
C2745 H2753 0.929 . S
C2746 C2745 1.383 . S
C2746 C2747 1.377 . S
C2747 H2731 0.930 . S
C2747 C2746 1.377 . S
C2747 C2748 1.379 . S
C2748 H2732 0.931 . S
C2748 C2742 1.383 . S
C2748 C2747 1.379 . S
H2749 C2743 0.959 . S
H2750 C2743 0.961 . S
H2751 C2743 0.960 . S
H2752 C2744 0.930 . S
H2753 C2745 0.929 . S
H2754 C2762 0.872 1_455 S
H2755 C2764 0.930 1_455 S
H2756 C2766 0.930 . S
H2757 C2769 0.929 . S
H2758 C2772 0.930 . S
H2759 C2774 0.960 . S
H2760 C2774 0.960 . S
H2761 C2774 0.960 . S
C2762 H2754 0.872 1_655 S
C2762 C2763 1.377 . S
C2762 C2764 1.384 . S
C2763 C2762 1.377 . S
C2763 C2769 1.390 . S
C2764 H2755 0.930 1_655 S
C2764 C2762 1.384 . S
C2764 C2765 1.372 . S
C2765 C2764 1.372 . S
C2765 C2766 1.400 . S
C2765 C2770 1.490 . S
C2766 H2756 0.930 . S
C2766 C2765 1.400 . S
C2766 C2769 1.386 . S
H2767 C2783 0.930 . S
H2768 C2784 0.931 . S
C2769 H2757 0.929 . S
C2769 C2763 1.390 . S
C2769 C2766 1.386 . S
C2770 C2765 1.490 . S
C2770 C2772 1.395 1_655 S
C2770 C2773 1.403 . S
H2771 C2777 0.930 . S
C2772 H2758 0.930 . S
C2772 C2770 1.395 1_455 S
C2772 C2775 1.403 . S
C2773 C2770 1.403 . S
C2773 C2774 1.524 . S
C2773 C2777 1.400 . S
C2774 H2759 0.960 . S
C2774 H2760 0.960 . S
C2774 H2761 0.960 . S
C2774 C2773 1.524 . S
C2775 C2772 1.403 . S
C2775 C2776 1.392 1_455 S
C2775 C2779 1.495 . S
C2776 C2775 1.392 1_655 S
C2776 C2777 1.385 . S
C2776 C2778 1.478 . S
C2777 H2771 0.930 . S
C2777 C2773 1.400 . S
C2777 C2776 1.385 . S
C2778 C2776 1.478 . S
C2778 C2780 1.381 1_655 S
C2778 C2784 1.383 . S
C2779 C2775 1.495 . S
C2779 H2785 0.959 . S
C2779 H2786 0.961 . S
C2779 H2787 0.960 . S
C2780 C2778 1.381 1_455 S
C2780 C2781 1.394 . S
C2780 H2788 0.930 . S
C2781 C2780 1.394 . S
C2781 C2782 1.383 1_455 S
C2781 H2789 0.929 . S
C2782 C2781 1.383 1_655 S
C2782 C2783 1.377 . S
C2783 H2767 0.930 . S
C2783 C2782 1.377 . S
C2783 C2784 1.379 . S
C2784 H2768 0.931 . S
C2784 C2778 1.383 . S
C2784 C2783 1.379 . S
H2785 C2779 0.959 . S
H2786 C2779 0.961 . S
H2787 C2779 0.960 . S
H2788 C2780 0.930 . S
H2789 C2781 0.929 . S
H2790 C2798 0.929 . S
H2791 C2800 0.930 . S
H2792 C2802 0.930 . S
H2793 C2805 0.929 . S
H2794 C2808 0.930 . S
H2795 C2810 0.960 . S
H2796 C2810 0.960 . S
H2797 C2810 0.960 . S
C2798 H2790 0.929 . S
C2798 C2799 1.377 . S
C2798 C2800 1.384 . S
C2799 C2798 1.377 . S
C2799 C2805 1.390 . S
C2800 H2791 0.930 . S
C2800 C2798 1.384 . S
C2800 C2801 1.372 . S
C2801 C2800 1.372 . S
C2801 C2802 1.400 . S
C2801 C2806 1.490 . S
C2802 H2792 0.930 . S
C2802 C2801 1.400 . S
C2802 C2805 1.386 . S
H2803 C2819 0.930 . S
H2804 C2820 0.931 . S
C2805 H2793 0.929 . S
C2805 C2799 1.390 . S
C2805 C2802 1.386 . S
C2806 C2801 1.490 . S
C2806 C2808 1.395 . S
C2806 C2809 1.403 . S
H2807 C2813 0.930 . S
C2808 H2794 0.930 . S
C2808 C2806 1.395 . S
C2808 C2811 1.403 . S
C2809 C2806 1.403 . S
C2809 C2810 1.524 . S
C2809 C2813 1.400 . S
C2810 H2795 0.960 . S
C2810 H2796 0.960 . S
C2810 H2797 0.960 . S
C2810 C2809 1.524 . S
C2811 C2808 1.403 . S
C2811 C2812 1.392 . S
C2811 C2815 1.495 . S
C2812 C2811 1.392 . S
C2812 C2813 1.385 . S
C2812 C2814 1.478 . S
C2813 H2807 0.930 . S
C2813 C2809 1.400 . S
C2813 C2812 1.385 . S
C2814 C2812 1.478 . S
C2814 C2816 1.381 . S
C2814 C2820 1.383 . S
C2815 C2811 1.495 . S
C2815 H2821 0.959 . S
C2815 H2822 0.961 . S
C2815 H2823 0.960 . S
C2816 C2814 1.381 . S
C2816 C2817 1.394 . S
C2816 H2824 0.930 . S
C2817 C2816 1.394 . S
C2817 C2818 1.383 . S
C2817 H2825 0.929 . S
C2818 C2817 1.383 . S
C2818 C2819 1.377 . S
C2819 H2803 0.930 . S
C2819 C2818 1.377 . S
C2819 C2820 1.379 . S
C2820 H2804 0.931 . S
C2820 C2814 1.383 . S
C2820 C2819 1.379 . S
H2821 C2815 0.959 . S
H2822 C2815 0.961 . S
H2823 C2815 0.960 . S
H2824 C2816 0.930 . S
H2825 C2817 0.929 . S
H2826 C2834 0.929 . S
H2827 C2836 0.930 . S
H2828 C2838 0.930 . S
H2829 C2841 0.929 . S
H2830 C2844 0.930 . S
H2831 C2846 0.960 . S
H2832 C2846 0.960 . S
H2833 C2846 0.960 . S
C2834 H2826 0.929 . S
C2834 C2835 1.377 . S
C2834 C2836 1.384 . S
C2835 C2834 1.377 . S
C2835 C2841 1.390 . S
C2836 H2827 0.930 . S
C2836 C2834 1.384 . S
C2836 C2837 1.372 . S
C2837 C2836 1.372 . S
C2837 C2838 1.400 . S
C2837 C2842 1.490 . S
C2838 H2828 0.930 . S
C2838 C2837 1.400 . S
C2838 C2841 1.386 . S
H2839 C2855 0.930 . S
H2840 C2856 0.931 . S
C2841 H2829 0.929 . S
C2841 C2835 1.390 . S
C2841 C2838 1.386 . S
C2842 C2837 1.490 . S
C2842 C2844 1.395 . S
C2842 C2845 1.403 . S
H2843 C2849 0.930 . S
C2844 H2830 0.930 . S
C2844 C2842 1.395 . S
C2844 C2847 1.403 . S
C2845 C2842 1.403 . S
C2845 C2846 1.524 . S
C2845 C2849 1.400 . S
C2846 H2831 0.960 . S
C2846 H2832 0.960 . S
C2846 H2833 0.960 . S
C2846 C2845 1.524 . S
C2847 C2844 1.403 . S
C2847 C2848 1.392 . S
C2847 C2851 1.495 . S
C2848 C2847 1.392 . S
C2848 C2849 1.385 . S
C2848 C2850 1.478 . S
C2849 H2843 0.930 . S
C2849 C2845 1.400 . S
C2849 C2848 1.385 . S
C2850 C2848 1.478 . S
C2850 C2852 1.381 . S
C2850 C2856 1.383 . S
C2851 C2847 1.495 . S
C2851 H2857 0.959 . S
C2851 H2858 0.961 . S
C2851 H2859 0.960 . S
C2852 C2850 1.381 . S
C2852 C2853 1.394 . S
C2852 H2860 0.930 . S
C2853 C2852 1.394 . S
C2853 C2854 1.383 . S
C2853 H2861 0.929 . S
C2854 C2853 1.383 . S
C2854 C2855 1.377 . S
C2855 H2839 0.930 . S
C2855 C2854 1.377 . S
C2855 C2856 1.379 . S
C2856 H2840 0.931 . S
C2856 C2850 1.383 . S
C2856 C2855 1.379 . S
H2857 C2851 0.959 . S
H2858 C2851 0.961 . S
H2859 C2851 0.960 . S
H2860 C2852 0.930 . S
H2861 C2853 0.929 . S
H2862 C2870 0.929 . S
H2863 C2872 0.930 . S
H2864 C2874 0.930 . S
H2865 C2877 0.929 . S
H2866 C2880 0.930 . S
H2867 C2882 0.960 . S
H2868 C2882 0.960 . S
H2869 C2882 0.960 . S
C2870 H2862 0.929 . S
C2870 C2871 1.377 . S
C2870 C2872 1.384 . S
C2871 C2870 1.377 . S
C2871 C2877 1.390 . S
C2872 H2863 0.930 . S
C2872 C2870 1.384 . S
C2872 C2873 1.372 . S
C2873 C2872 1.372 . S
C2873 C2874 1.400 . S
C2873 C2878 1.490 . S
C2874 H2864 0.930 . S
C2874 C2873 1.400 . S
C2874 C2877 1.386 . S
H2875 C2891 0.930 . S
H2876 C2892 0.931 . S
C2877 H2865 0.929 . S
C2877 C2871 1.390 . S
C2877 C2874 1.386 . S
C2878 C2873 1.490 . S
C2878 C2880 1.395 . S
C2878 C2881 1.403 . S
H2879 C2885 0.930 . S
C2880 H2866 0.930 . S
C2880 C2878 1.395 . S
C2880 C2883 1.403 . S
C2881 C2878 1.403 . S
C2881 C2882 1.524 . S
C2881 C2885 1.400 . S
C2882 H2867 0.960 . S
C2882 H2868 0.960 . S
C2882 H2869 0.960 . S
C2882 C2881 1.524 . S
C2883 C2880 1.403 . S
C2883 C2884 1.392 . S
C2883 C2887 1.495 . S
C2884 C2883 1.392 . S
C2884 C2885 1.385 . S
C2884 C2886 1.478 . S
C2885 H2879 0.930 . S
C2885 C2881 1.400 . S
C2885 C2884 1.385 . S
C2886 C2884 1.478 . S
C2886 C2888 1.381 . S
C2886 C2892 1.383 . S
C2887 C2883 1.495 . S
C2887 H2893 0.959 . S
C2887 H2894 0.961 . S
C2887 H2895 0.960 . S
C2888 C2886 1.381 . S
C2888 C2889 1.394 . S
C2888 H2896 0.930 . S
C2889 C2888 1.394 . S
C2889 C2890 1.383 . S
C2889 H2897 0.929 . S
C2890 C2889 1.383 . S
C2890 C2891 1.377 . S
C2891 H2875 0.930 . S
C2891 C2890 1.377 . S
C2891 C2892 1.379 . S
C2892 H2876 0.931 . S
C2892 C2886 1.383 . S
C2892 C2891 1.379 . S
H2893 C2887 0.959 . S
H2894 C2887 0.961 . S
H2895 C2887 0.960 . S
H2896 C2888 0.930 . S
H2897 C2889 0.929 . S
H2898 C2906 0.929 . S
H2899 C2908 0.930 . S
H2900 C2910 0.930 . S
H2901 C2913 0.929 . S
H2902 C2916 0.930 . S
H2903 C2918 0.960 . S
H2904 C2918 0.960 . S
H2905 C2918 0.960 . S
C2906 H2898 0.929 . S
C2906 C2907 1.377 . S
C2906 C2908 1.384 . S
C2907 C2906 1.377 . S
C2907 C2913 1.390 . S
C2908 H2899 0.930 . S
C2908 C2906 1.384 . S
C2908 C2909 1.372 . S
C2909 C2908 1.372 . S
C2909 C2910 1.400 . S
C2909 C2914 1.490 . S
C2910 H2900 0.930 . S
C2910 C2909 1.400 . S
C2910 C2913 1.386 . S
H2911 C2927 0.930 . S
H2912 C2928 0.931 . S
C2913 H2901 0.929 . S
C2913 C2907 1.390 . S
C2913 C2910 1.386 . S
C2914 C2909 1.490 . S
C2914 C2916 1.395 . S
C2914 C2917 1.403 . S
H2915 C2921 0.930 . S
C2916 H2902 0.930 . S
C2916 C2914 1.395 . S
C2916 C2919 1.403 . S
C2917 C2914 1.403 . S
C2917 C2918 1.524 . S
C2917 C2921 1.400 . S
C2918 H2903 0.960 . S
C2918 H2904 0.960 . S
C2918 H2905 0.960 . S
C2918 C2917 1.524 . S
C2919 C2916 1.403 . S
C2919 C2920 1.392 . S
C2919 C2923 1.495 . S
C2920 C2919 1.392 . S
C2920 C2921 1.385 . S
C2920 C2922 1.478 . S
C2921 H2915 0.930 . S
C2921 C2917 1.400 . S
C2921 C2920 1.385 . S
C2922 C2920 1.478 . S
C2922 C2924 1.381 . S
C2922 C2928 1.383 . S
C2923 C2919 1.495 . S
C2923 H2929 0.959 . S
C2923 H2930 0.961 . S
C2923 H2931 0.960 . S
C2924 C2922 1.381 . S
C2924 C2925 1.394 . S
C2924 H2932 0.930 . S
C2925 C2924 1.394 . S
C2925 C2926 1.383 . S
C2925 H2933 0.929 . S
C2926 C2925 1.383 . S
C2926 C2927 1.377 . S
C2927 H2911 0.930 . S
C2927 C2926 1.377 . S
C2927 C2928 1.379 . S
C2928 H2912 0.931 . S
C2928 C2922 1.383 . S
C2928 C2927 1.379 . S
H2929 C2923 0.959 . S
H2930 C2923 0.961 . S
H2931 C2923 0.960 . S
H2932 C2924 0.930 . S
H2933 C2925 0.929 . S
H2934 C2942 0.929 . S
H2935 C2944 0.930 . S
H2936 C2946 0.930 . S
H2937 C2949 0.929 . S
H2938 C2952 0.930 . S
H2939 C2954 0.960 . S
H2940 C2954 0.960 . S
H2941 C2954 0.960 . S
C2942 H2934 0.929 . S
C2942 C2943 1.377 . S
C2942 C2944 1.384 . S
C2943 C2942 1.377 . S
C2943 C2949 1.390 . S
C2944 H2935 0.930 . S
C2944 C2942 1.384 . S
C2944 C2945 1.372 . S
C2945 C2944 1.372 . S
C2945 C2946 1.400 . S
C2945 C2950 1.490 . S
C2946 H2936 0.930 . S
C2946 C2945 1.400 . S
C2946 C2949 1.386 . S
H2947 C2963 0.930 . S
H2948 C2964 0.931 . S
C2949 H2937 0.929 . S
C2949 C2943 1.390 . S
C2949 C2946 1.386 . S
C2950 C2945 1.490 . S
C2950 C2952 1.395 . S
C2950 C2953 1.403 . S
H2951 C2957 0.930 . S
C2952 H2938 0.930 . S
C2952 C2950 1.395 . S
C2952 C2955 1.403 . S
C2953 C2950 1.403 . S
C2953 C2954 1.524 . S
C2953 C2957 1.400 . S
C2954 H2939 0.960 . S
C2954 H2940 0.960 . S
C2954 H2941 0.960 . S
C2954 C2953 1.524 . S
C2955 C2952 1.403 . S
C2955 C2956 1.392 . S
C2955 C2959 1.495 . S
C2956 C2955 1.392 . S
C2956 C2957 1.385 . S
C2956 C2958 1.478 . S
C2957 H2951 0.930 . S
C2957 C2953 1.400 . S
C2957 C2956 1.385 . S
C2958 C2956 1.478 . S
C2958 C2960 1.381 . S
C2958 C2964 1.383 . S
C2959 C2955 1.495 . S
C2959 H2965 0.959 . S
C2959 H2966 0.961 . S
C2959 H2967 0.960 . S
C2960 C2958 1.381 . S
C2960 C2961 1.394 . S
C2960 H2968 0.930 . S
C2961 C2960 1.394 . S
C2961 C2962 1.383 . S
C2961 H2969 0.929 . S
C2962 C2961 1.383 . S
C2962 C2963 1.377 . S
C2963 H2947 0.930 . S
C2963 C2962 1.377 . S
C2963 C2964 1.379 . S
C2964 H2948 0.931 . S
C2964 C2958 1.383 . S
C2964 C2963 1.379 . S
H2965 C2959 0.959 . S
H2966 C2959 0.961 . S
H2967 C2959 0.960 . S
H2968 C2960 0.930 . S
H2969 C2961 0.929 . S
H2970 C2978 0.929 . S
H2971 C2980 0.930 . S
H2972 C2982 0.930 . S
H2973 C2985 0.929 . S
H2974 C2988 0.930 . S
H2975 C2990 0.960 . S
H2976 C2990 0.960 . S
H2977 C2990 0.960 . S
C2978 H2970 0.929 . S
C2978 C2979 1.377 . S
C2978 C2980 1.384 . S
C2979 C2978 1.377 . S
C2979 C2985 1.390 . S
C2980 H2971 0.930 . S
C2980 C2978 1.384 . S
C2980 C2981 1.372 . S
C2981 C2980 1.372 . S
C2981 C2982 1.400 . S
C2981 C2986 1.490 . S
C2982 H2972 0.930 . S
C2982 C2981 1.400 . S
C2982 C2985 1.386 . S
H2983 C2999 0.930 . S
H2984 C3000 0.931 . S
C2985 H2973 0.929 . S
C2985 C2979 1.390 . S
C2985 C2982 1.386 . S
C2986 C2981 1.490 . S
C2986 C2988 1.395 . S
C2986 C2989 1.403 . S
H2987 C2993 0.930 . S
C2988 H2974 0.930 . S
C2988 C2986 1.395 . S
C2988 C2991 1.403 . S
C2989 C2986 1.403 . S
C2989 C2990 1.524 . S
C2989 C2993 1.400 . S
C2990 H2975 0.960 . S
C2990 H2976 0.960 . S
C2990 H2977 0.960 . S
C2990 C2989 1.524 . S
C2991 C2988 1.403 . S
C2991 C2992 1.392 . S
C2991 C2995 1.495 . S
C2992 C2991 1.392 . S
C2992 C2993 1.385 . S
C2992 C2994 1.478 . S
C2993 H2987 0.930 . S
C2993 C2989 1.400 . S
C2993 C2992 1.385 . S
C2994 C2992 1.478 . S
C2994 C2996 1.381 . S
C2994 C3000 1.383 . S
C2995 C2991 1.495 . S
C2995 H3001 0.959 . S
C2995 H3002 0.961 . S
C2995 H3003 0.960 . S
C2996 C2994 1.381 . S
C2996 C2997 1.394 . S
C2996 H3004 0.930 . S
C2997 C2996 1.394 . S
C2997 C2998 1.383 . S
C2997 H3005 0.929 . S
C2998 C2997 1.383 . S
C2998 C2999 1.377 . S
C2999 H2983 0.930 . S
C2999 C2998 1.377 . S
C2999 C3000 1.379 . S
C3000 H2984 0.931 . S
C3000 C2994 1.383 . S
C3000 C2999 1.379 . S
H3001 C2995 0.959 . S
H3002 C2995 0.961 . S
H3003 C2995 0.960 . S
H3004 C2996 0.930 . S
H3005 C2997 0.929 . S
H3006 C3014 0.929 . S
H3007 C3016 0.930 . S
H3008 C3018 0.930 . S
H3009 C3021 0.929 . S
H3010 C3024 0.930 . S
H3011 C3026 0.960 . S
H3012 C3026 0.960 . S
H3013 C3026 0.960 . S
C3014 H3006 0.929 . S
C3014 C3015 1.377 . S
C3014 C3016 1.384 . S
C3015 C3014 1.377 . S
C3015 C3021 1.390 . S
C3016 H3007 0.930 . S
C3016 C3014 1.384 . S
C3016 C3017 1.372 . S
C3017 C3016 1.372 . S
C3017 C3018 1.400 . S
C3017 C3022 1.490 . S
C3018 H3008 0.930 . S
C3018 C3017 1.400 . S
C3018 C3021 1.386 . S
H3019 C3035 0.930 . S
H3020 C3036 0.931 . S
C3021 H3009 0.929 . S
C3021 C3015 1.390 . S
C3021 C3018 1.386 . S
C3022 C3017 1.490 . S
C3022 C3024 1.395 . S
C3022 C3025 1.403 . S
H3023 C3029 0.930 . S
C3024 H3010 0.930 . S
C3024 C3022 1.395 . S
C3024 C3027 1.403 . S
C3025 C3022 1.403 . S
C3025 C3026 1.524 . S
C3025 C3029 1.400 . S
C3026 H3011 0.960 . S
C3026 H3012 0.960 . S
C3026 H3013 0.960 . S
C3026 C3025 1.524 . S
C3027 C3024 1.403 . S
C3027 C3028 1.392 . S
C3027 C3031 1.495 . S
C3028 C3027 1.392 . S
C3028 C3029 1.385 . S
C3028 C3030 1.478 . S
C3029 H3023 0.930 . S
C3029 C3025 1.400 . S
C3029 C3028 1.385 . S
C3030 C3028 1.478 . S
C3030 C3032 1.381 . S
C3030 C3036 1.383 . S
C3031 C3027 1.495 . S
C3031 H3037 0.959 . S
C3031 H3038 0.961 . S
C3031 H3039 0.960 . S
C3032 C3030 1.381 . S
C3032 C3033 1.394 . S
C3032 H3040 0.930 . S
C3033 C3032 1.394 . S
C3033 C3034 1.383 . S
C3033 H3041 0.929 . S
C3034 C3033 1.383 . S
C3034 C3035 1.377 . S
C3035 H3019 0.930 . S
C3035 C3034 1.377 . S
C3035 C3036 1.379 . S
C3036 H3020 0.931 . S
C3036 C3030 1.383 . S
C3036 C3035 1.379 . S
H3037 C3031 0.959 . S
H3038 C3031 0.961 . S
H3039 C3031 0.960 . S
H3040 C3032 0.930 . S
H3041 C3033 0.929 . S
H3042 C3050 0.929 . S
H3043 C3052 0.930 . S
H3044 C3054 0.930 . S
H3045 C3057 0.934 . S
H3046 C3060 0.926 1_455 S
H3047 C3062 0.960 . S
H3048 C3062 0.960 . S
H3049 C3062 0.960 . S
C3050 H3042 0.929 . S
C3050 C3051 1.377 . S
C3050 C3052 1.384 . S
C3051 C3050 1.377 . S
C3051 C3057 1.367 1_655 S
C3052 H3043 0.930 . S
C3052 C3050 1.384 . S
C3052 C3053 1.372 . S
C3053 C3052 1.372 . S
C3053 C3054 1.400 1_655 S
C3053 C3058 1.490 . S
C3054 H3044 0.930 . S
C3054 C3053 1.400 1_455 S
C3054 C3057 1.406 . S
H3055 C3071 0.930 . S
H3056 C3072 0.931 . S
C3057 H3045 0.934 . S
C3057 C3051 1.367 1_455 S
C3057 C3054 1.406 . S
C3058 C3053 1.490 . S
C3058 C3060 1.428 . S
C3058 C3061 1.403 . S
H3059 C3065 0.930 . S
C3060 H3046 0.926 1_655 S
C3060 C3058 1.428 . S
C3060 C3063 1.376 1_655 S
C3061 C3058 1.403 . S
C3061 C3062 1.524 . S
C3061 C3065 1.400 . S
C3062 H3047 0.960 . S
C3062 H3048 0.960 . S
C3062 H3049 0.960 . S
C3062 C3061 1.524 . S
C3063 C3060 1.376 1_455 S
C3063 C3064 1.392 1_455 S
C3063 C3067 1.495 . S
C3064 C3063 1.392 1_655 S
C3064 C3065 1.385 . S
C3064 C3066 1.478 . S
C3065 H3059 0.930 . S
C3065 C3061 1.400 . S
C3065 C3064 1.385 . S
C3066 C3064 1.478 . S
C3066 C3068 1.381 . S
C3066 C3072 1.383 1_655 S
C3067 C3063 1.495 . S
C3067 H3073 0.959 . S
C3067 H3074 0.961 . S
C3067 H3075 0.955 1_455 S
C3068 C3066 1.381 . S
C3068 C3069 1.394 . S
C3068 H3076 0.930 . S
C3069 C3068 1.394 . S
C3069 C3070 1.376 1_655 S
C3069 H3077 0.929 . S
C3070 C3069 1.376 1_455 S
C3070 C3071 1.378 . S
C3071 H3055 0.930 . S
C3071 C3070 1.378 . S
C3071 C3072 1.379 . S
C3072 H3056 0.931 . S
C3072 C3066 1.383 1_455 S
C3072 C3071 1.379 . S
H3073 C3067 0.959 . S
H3074 C3067 0.961 . S
H3075 C3067 0.955 1_655 S
H3076 C3068 0.930 . S
H3077 C3069 0.929 . S
H3078 C3086 0.929 . S
H3079 C3088 0.930 . S
H3080 C3090 0.930 . S
H3081 C3093 0.929 . S
H3082 C3096 0.930 . S
H3083 C3098 0.960 . S
H3084 C3098 0.960 . S
H3085 C3098 0.960 . S
C3086 H3078 0.929 . S
C3086 C3087 1.377 . S
C3086 C3088 1.384 . S
C3087 C3086 1.377 . S
C3087 C3093 1.390 . S
C3088 H3079 0.930 . S
C3088 C3086 1.384 . S
C3088 C3089 1.372 . S
C3089 C3088 1.372 . S
C3089 C3090 1.400 . S
C3089 C3094 1.490 . S
C3090 H3080 0.930 . S
C3090 C3089 1.400 . S
C3090 C3093 1.386 . S
H3091 C3107 0.930 . S
H3092 C3108 0.931 . S
C3093 H3081 0.929 . S
C3093 C3087 1.390 . S
C3093 C3090 1.386 . S
C3094 C3089 1.490 . S
C3094 C3096 1.395 . S
C3094 C3097 1.403 . S
H3095 C3101 0.930 . S
C3096 H3082 0.930 . S
C3096 C3094 1.395 . S
C3096 C3099 1.403 . S
C3097 C3094 1.403 . S
C3097 C3098 1.524 . S
C3097 C3101 1.400 . S
C3098 H3083 0.960 . S
C3098 H3084 0.960 . S
C3098 H3085 0.960 . S
C3098 C3097 1.524 . S
C3099 C3096 1.403 . S
C3099 C3100 1.392 . S
C3099 C3103 1.495 . S
C3100 C3099 1.392 . S
C3100 C3101 1.385 . S
C3100 C3102 1.478 . S
C3101 H3095 0.930 . S
C3101 C3097 1.400 . S
C3101 C3100 1.385 . S
C3102 C3100 1.478 . S
C3102 C3104 1.381 . S
C3102 C3108 1.383 . S
C3103 C3099 1.495 . S
C3103 H3109 0.959 . S
C3103 H3110 0.961 . S
C3103 H3111 0.960 . S
C3104 C3102 1.381 . S
C3104 C3105 1.394 . S
C3104 H3112 0.930 . S
C3105 C3104 1.394 . S
C3105 C3106 1.383 . S
C3105 H3113 0.929 . S
C3106 C3105 1.383 . S
C3106 C3107 1.377 . S
C3107 H3091 0.930 . S
C3107 C3106 1.377 . S
C3107 C3108 1.379 . S
C3108 H3092 0.931 . S
C3108 C3102 1.383 . S
C3108 C3107 1.379 . S
H3109 C3103 0.959 . S
H3110 C3103 0.961 . S
H3111 C3103 0.960 . S
H3112 C3104 0.930 . S
H3113 C3105 0.929 . S
H3114 C3122 0.929 . S
H3115 C3124 0.930 . S
H3116 C3126 0.930 1_565 S
H3117 C3129 0.929 1_565 S
H3118 C3132 0.930 . S
H3119 C3134 0.960 . S
H3120 C3134 0.960 . S
H3121 C3134 0.960 1_565 S
C3122 H3114 0.929 . S
C3122 C3123 1.377 . S
C3122 C3124 1.384 . S
C3123 C3122 1.377 . S
C3123 C3129 1.390 . S
C3124 H3115 0.930 . S
C3124 C3122 1.384 . S
C3124 C3125 1.372 . S
C3125 C3124 1.372 . S
C3125 C3126 1.400 . S
C3125 C3130 1.490 . S
C3126 H3116 0.930 1_545 S
C3126 C3125 1.400 . S
C3126 C3129 1.386 . S
H3127 C3143 0.930 . S
H3128 C3144 0.931 . S
C3129 H3117 0.929 1_545 S
C3129 C3123 1.390 . S
C3129 C3126 1.386 . S
C3130 C3125 1.490 . S
C3130 C3132 1.395 . S
C3130 C3133 1.403 . S
H3131 C3137 0.930 . S
C3132 H3118 0.930 . S
C3132 C3130 1.395 . S
C3132 C3135 1.403 . S
C3133 C3130 1.403 . S
C3133 C3134 1.524 . S
C3133 C3137 1.400 . S
C3134 H3119 0.960 . S
C3134 H3120 0.960 . S
C3134 H3121 0.960 1_545 S
C3134 C3133 1.524 . S
C3135 C3132 1.403 . S
C3135 C3136 1.392 . S
C3135 C3139 1.495 . S
C3136 C3135 1.392 . S
C3136 C3137 1.385 . S
C3136 C3138 1.478 . S
C3137 H3131 0.930 . S
C3137 C3133 1.400 . S
C3137 C3136 1.385 . S
C3138 C3136 1.478 . S
C3138 C3140 1.381 . S
C3138 C3144 1.383 1_545 S
C3139 C3135 1.495 . S
C3139 H3145 0.959 . S
C3139 H3146 0.961 . S
C3139 H3147 0.960 . S
C3140 C3138 1.381 . S
C3140 C3141 1.394 . S
C3140 H3148 0.930 . S
C3141 C3140 1.394 . S
C3141 C3142 1.383 . S
C3141 H3149 0.929 . S
C3142 C3141 1.383 . S
C3142 C3143 1.377 1_545 S
C3143 H3127 0.930 . S
C3143 C3142 1.377 1_565 S
C3143 C3144 1.379 . S
C3144 H3128 0.931 . S
C3144 C3138 1.383 1_565 S
C3144 C3143 1.379 . S
H3145 C3139 0.959 . S
H3146 C3139 0.961 . S
H3147 C3139 0.960 . S
H3148 C3140 0.930 . S
H3149 C3141 0.929 . S
C567 C10 1.644 . S
C586 C403 1.602 . S
C603 C23 1.636 . S
C622 C428 1.611 . S
C658 C439 1.605 . S
C639 C29 1.641 . S
C675 C30 1.643 . S
C694 C464 1.609 . S
C711 C5 1.649 . S
C730 C482 1.646 . S
C747 C18 1.639 . S
C766 C493 1.601 . S
C783 C49 1.634 . S
C802 C475 1.619 . S
C838 C500 1.616 . S
C819 C62 1.626 . S
C874 C457 1.614 . S
C855 C70 1.633 . S
C891 C75 1.635 . S
C910 C446 1.611 1_545 S
C946 C410 1.628 . S
C927 C44 1.641 . S
C963 C57 1.632 . S
C982 C421 1.616 . S
C999 C88 1.644 . S
C1018 C511 1.602 . S
C1035 C101 1.636 . S
C1054 C536 1.621 . S
C1090 C547 1.606 . S
C1071 C107 1.638 . S
C1107 C108 1.643 . S
C1126 C248 1.632 . S
C1143 C83 1.647 . S
C1162 C266 1.620 . S
C1179 C96 1.639 . S
C1198 C277 1.630 . S
C1215 C127 1.637 . S
C1234 C259 1.616 . S
C1251 C140 1.626 . S
C1270 C284 1.613 . S
C1306 C241 1.628 . S
C1287 C146 1.631 . S
C1342 C554 1.619 . S
C1323 C147 1.634 . S
C1378 C518 1.610 . S
C1359 C122 1.639 . S
C1414 C529 1.597 . S
C1395 C135 1.629 . S
C1431 C160 1.642 . S
C1450 C295 1.612 . S
C1467 C173 1.636 . S
C1486 C320 1.627 . S
C1503 C185 1.639 . S
C1522 C331 1.602 . S
C1539 C186 1.644 . S
C1558 C356 1.638 . S
C1594 C374 1.631 . S
C1575 C159 1.650 . S
C1630 C385 1.624 . S
C1611 C172 1.640 . S
C1666 C367 1.600 . S
C1647 C205 1.635 . S
C1702 C392 1.596 . S
C1683 C218 1.627 . S
C1719 C224 1.631 . S
C1738 C349 1.599 . S
C1774 C338 1.631 . S
C1755 C225 1.636 . S
C1791 C200 1.641 . S
C1810 C302 1.627 . S
C1846 C313 1.616 . S
C1827 C213 1.632 . S
C1882 C250 1.456 . S
C1863 C4 1.505 . S
C1899 C17 1.493 . S
C1918 C268 1.398 . S
C1954 C278 1.406 . S
C1935 C31 1.504 . S
C1990 C296 1.431 . S
C1971 C36 1.496 . S
C2026 C322 1.449 . S
C2007 C3 1.514 . S
C2062 C332 1.407 . S
C2043 C16 1.503 . S
C2079 C43 1.506 . S
C2098 C340 1.463 . S
C2115 C56 1.500 . S
C2134 C304 1.399 . S
C2151 C68 1.510 . S
C2170 C314 1.407 . S
C2187 C69 1.502 . S
C2206 C260 1.428 . S
C2242 C286 1.428 . S
C2223 C42 1.516 . S
C2259 C55 1.507 . S
C2278 C242 1.463 . S
C2314 C358 1.458 . S
C2295 C82 1.505 . S
C2331 C95 1.495 . S
C2350 C376 1.417 . S
C2367 C109 1.506 . S
C2386 C386 1.466 . S
C2422 C404 1.411 . S
C2403 C114 1.497 . S
C2439 C81 1.512 . S
C2458 C430 1.430 . S
C2475 C94 1.505 . S
C2494 C440 1.425 . S
C2511 C121 1.509 . S
C2530 C448 1.422 1_545 S
C2547 C134 1.498 . S
C2566 C412 1.455 . S
C2602 C422 1.439 . S
C2583 C148 1.508 . S
C2619 C153 1.502 . S
C2638 C368 1.433 . S
C2655 C120 1.515 . S
C2674 C394 1.469 . S
C2710 C350 1.466 . S
C2691 C133 1.507 . S
C2746 C466 1.456 . S
C2727 C166 1.506 . S
C2763 C179 1.493 . S
C2782 C484 1.413 . S
C2799 C187 1.507 . S
C2818 C494 1.465 . S
C2854 C512 1.437 . S
C2835 C192 1.498 . S
C2890 C538 1.412 . S
C2871 C161 1.555 . S
C2907 C174 1.505 . S
C2926 C548 1.460 . S
C2943 C199 1.507 . S
C2962 C556 1.459 . S
C2979 C212 1.499 . S
C2998 C520 1.426 . S
C3034 C530 1.438 . S
C3015 C226 1.508 . S
C3070 C476 1.447 . S
C3051 C231 1.500 . S
C3106 C502 1.469 . S
C3087 C198 1.515 . S
C3123 C211 1.507 . S
C3142 C458 1.465 . S
