# Generated by pormake.
# Topology eea, (3,6)-cn, num edge types: 1
# Building blocks:
#     Node 0, Type 0, BuildingBlock: BELTOD_clean_linker_0, # of connection points: 3
#     Node 1, Type 0, BuildingBlock: BELTOD_clean_linker_0, # of connection points: 3
#     Node 2, Type 0, BuildingBlock: BELTOD_clean_linker_0, # of connection points: 3
#     Node 3, Type 0, BuildingBlock: BELTOD_clean_linker_0, # of connection points: 3
#     Node 4, Type 0, BuildingBlock: BELTOD_clean_linker_0, # of connection points: 3
#     Node 5, Type 0, BuildingBlock: BELTOD_clean_linker_0, # of connection points: 3
#     Node 6, Type 0, BuildingBlock: BELTOD_clean_linker_0, # of connection points: 3
#     Node 7, Type 0, BuildingBlock: BELTOD_clean_linker_0, # of connection points: 3
#     Node 8, Type 0, BuildingBlock: BELTOD_clean_linker_0, # of connection points: 3
#     Node 9, Type 0, BuildingBlock: BELTOD_clean_linker_0, # of connection points: 3
#     Node 10, Type 0, BuildingBlock: BELTOD_clean_linker_0, # of connection points: 3
#     Node 11, Type 0, BuildingBlock: BELTOD_clean_linker_0, # of connection points: 3
#     Node 12, Type 0, BuildingBlock: BELTOD_clean_linker_0, # of connection points: 3
#     Node 13, Type 0, BuildingBlock: BELTOD_clean_linker_0, # of connection points: 3
#     Node 14, Type 0, BuildingBlock: BELTOD_clean_linker_0, # of connection points: 3
#     Node 15, Type 0, BuildingBlock: BELTOD_clean_linker_0, # of connection points: 3
#     Node 16, Type 0, BuildingBlock: BELTOD_clean_linker_0, # of connection points: 3
#     Node 17, Type 0, BuildingBlock: BELTOD_clean_linker_0, # of connection points: 3
#     Node 18, Type 1, BuildingBlock: LEVNOQ01_clean_sbu_1, # of connection points: 6
#     Node 19, Type 1, BuildingBlock: LEVNOQ01_clean_sbu_1, # of connection points: 6
#     Node 20, Type 1, BuildingBlock: LEVNOQ01_clean_sbu_1, # of connection points: 6
#     Node 21, Type 1, BuildingBlock: LEVNOQ01_clean_sbu_1, # of connection points: 6
#     Node 22, Type 1, BuildingBlock: LEVNOQ01_clean_sbu_1, # of connection points: 6
#     Node 23, Type 1, BuildingBlock: LEVNOQ01_clean_sbu_1, # of connection points: 6
#     Node 24, Type 1, BuildingBlock: LEVNOQ01_clean_sbu_1, # of connection points: 6
#     Node 25, Type 1, BuildingBlock: LEVNOQ01_clean_sbu_1, # of connection points: 6
#     Node 26, Type 1, BuildingBlock: LEVNOQ01_clean_sbu_1, # of connection points: 6
#     Edge 27, Type (0, 1), BuildingBlock: EZIPEK_clean_linker_0, # of connection points: 2
#     Edge 28, Type (0, 1), BuildingBlock: EZIPEK_clean_linker_0, # of connection points: 2
#     Edge 29, Type (0, 1), BuildingBlock: EZIPEK_clean_linker_0, # of connection points: 2
#     Edge 30, Type (0, 1), BuildingBlock: EZIPEK_clean_linker_0, # of connection points: 2
#     Edge 31, Type (0, 1), BuildingBlock: EZIPEK_clean_linker_0, # of connection points: 2
#     Edge 32, Type (0, 1), BuildingBlock: EZIPEK_clean_linker_0, # of connection points: 2
#     Edge 33, Type (0, 1), BuildingBlock: EZIPEK_clean_linker_0, # of connection points: 2
#     Edge 34, Type (0, 1), BuildingBlock: EZIPEK_clean_linker_0, # of connection points: 2
#     Edge 35, Type (0, 1), BuildingBlock: EZIPEK_clean_linker_0, # of connection points: 2
#     Edge 36, Type (0, 1), BuildingBlock: EZIPEK_clean_linker_0, # of connection points: 2
#     Edge 37, Type (0, 1), BuildingBlock: EZIPEK_clean_linker_0, # of connection points: 2
#     Edge 38, Type (0, 1), BuildingBlock: EZIPEK_clean_linker_0, # of connection points: 2
#     Edge 39, Type (0, 1), BuildingBlock: EZIPEK_clean_linker_0, # of connection points: 2
#     Edge 40, Type (0, 1), BuildingBlock: EZIPEK_clean_linker_0, # of connection points: 2
#     Edge 41, Type (0, 1), BuildingBlock: EZIPEK_clean_linker_0, # of connection points: 2
#     Edge 42, Type (0, 1), BuildingBlock: EZIPEK_clean_linker_0, # of connection points: 2
#     Edge 43, Type (0, 1), BuildingBlock: EZIPEK_clean_linker_0, # of connection points: 2
#     Edge 44, Type (0, 1), BuildingBlock: EZIPEK_clean_linker_0, # of connection points: 2
#     Edge 45, Type (0, 1), BuildingBlock: EZIPEK_clean_linker_0, # of connection points: 2
#     Edge 46, Type (0, 1), BuildingBlock: EZIPEK_clean_linker_0, # of connection points: 2
#     Edge 47, Type (0, 1), BuildingBlock: EZIPEK_clean_linker_0, # of connection points: 2
#     Edge 48, Type (0, 1), BuildingBlock: EZIPEK_clean_linker_0, # of connection points: 2
#     Edge 49, Type (0, 1), BuildingBlock: EZIPEK_clean_linker_0, # of connection points: 2
#     Edge 50, Type (0, 1), BuildingBlock: EZIPEK_clean_linker_0, # of connection points: 2
#     Edge 51, Type (0, 1), BuildingBlock: EZIPEK_clean_linker_0, # of connection points: 2
#     Edge 52, Type (0, 1), BuildingBlock: EZIPEK_clean_linker_0, # of connection points: 2
#     Edge 53, Type (0, 1), BuildingBlock: EZIPEK_clean_linker_0, # of connection points: 2
#     Edge 54, Type (0, 1), BuildingBlock: EZIPEK_clean_linker_0, # of connection points: 2
#     Edge 55, Type (0, 1), BuildingBlock: EZIPEK_clean_linker_0, # of connection points: 2
#     Edge 56, Type (0, 1), BuildingBlock: EZIPEK_clean_linker_0, # of connection points: 2
#     Edge 57, Type (0, 1), BuildingBlock: EZIPEK_clean_linker_0, # of connection points: 2
#     Edge 58, Type (0, 1), BuildingBlock: EZIPEK_clean_linker_0, # of connection points: 2
#     Edge 59, Type (0, 1), BuildingBlock: EZIPEK_clean_linker_0, # of connection points: 2
#     Edge 60, Type (0, 1), BuildingBlock: EZIPEK_clean_linker_0, # of connection points: 2
#     Edge 61, Type (0, 1), BuildingBlock: EZIPEK_clean_linker_0, # of connection points: 2
#     Edge 62, Type (0, 1), BuildingBlock: EZIPEK_clean_linker_0, # of connection points: 2
#     Edge 63, Type (0, 1), BuildingBlock: EZIPEK_clean_linker_0, # of connection points: 2
#     Edge 64, Type (0, 1), BuildingBlock: EZIPEK_clean_linker_0, # of connection points: 2
#     Edge 65, Type (0, 1), BuildingBlock: EZIPEK_clean_linker_0, # of connection points: 2
#     Edge 66, Type (0, 1), BuildingBlock: EZIPEK_clean_linker_0, # of connection points: 2
#     Edge 67, Type (0, 1), BuildingBlock: EZIPEK_clean_linker_0, # of connection points: 2
#     Edge 68, Type (0, 1), BuildingBlock: EZIPEK_clean_linker_0, # of connection points: 2
#     Edge 69, Type (0, 1), BuildingBlock: EZIPEK_clean_linker_0, # of connection points: 2
#     Edge 70, Type (0, 1), BuildingBlock: EZIPEK_clean_linker_0, # of connection points: 2
#     Edge 71, Type (0, 1), BuildingBlock: EZIPEK_clean_linker_0, # of connection points: 2
#     Edge 72, Type (0, 1), BuildingBlock: EZIPEK_clean_linker_0, # of connection points: 2
#     Edge 73, Type (0, 1), BuildingBlock: EZIPEK_clean_linker_0, # of connection points: 2
#     Edge 74, Type (0, 1), BuildingBlock: EZIPEK_clean_linker_0, # of connection points: 2
#     Edge 75, Type (0, 1), BuildingBlock: EZIPEK_clean_linker_0, # of connection points: 2
#     Edge 76, Type (0, 1), BuildingBlock: EZIPEK_clean_linker_0, # of connection points: 2
#     Edge 77, Type (0, 1), BuildingBlock: EZIPEK_clean_linker_0, # of connection points: 2
#     Edge 78, Type (0, 1), BuildingBlock: EZIPEK_clean_linker_0, # of connection points: 2
#     Edge 79, Type (0, 1), BuildingBlock: EZIPEK_clean_linker_0, # of connection points: 2
#     Edge 80, Type (0, 1), BuildingBlock: EZIPEK_clean_linker_0, # of connection points: 2
# Relax obj value: 0.090
# Max RMSD: 0.174
# Mean RMSD: 0.085
data_MOF--net-eea--node1-LEVNOQ01_clean_sbu_1--node2-BELTOD_clean_linker_0--edge1-EZIPEK_clean_linker_0
_symmetry_space_group_name_H-M    P1
_symmetry_Int_Tables_number       1
_symmetry_cell_setting            triclinic
loop_
_symmetry_equiv_pos_as_xyz
'x, y, z'
_cell_length_a     47.848222
_cell_length_b     47.677664
_cell_length_c     46.625331
_cell_angle_alpha  90.687651
_cell_angle_beta   90.064363
_cell_angle_gamma 119.92303
loop_
_atom_site_label
_atom_site_type_symbol
_atom_site_fract_x
_atom_site_fract_y
_atom_site_fract_z
_atom_type_partial_charge
P0 P 0.29226 0.14079 0.38516 0.0
H1 H 0.28613 0.09153 0.34339 0.0
H2 H 0.24749 0.03333 0.33918 0.0
H3 H 0.19771 0.03902 0.41416 0.0
H4 H 0.23661 0.0972 0.41865 0.0
H5 H 0.30961 0.20801 0.3964 0.0
H6 H 0.28121 0.23811 0.38737 0.0
H7 H 0.20058 0.15175 0.35161 0.0
H8 H 0.22845 0.12172 0.36061 0.0
H9 H 0.33566 0.12213 0.41113 0.0
H10 H 0.27981 0.16605 0.43829 0.0
O11 O 0.32218 0.15274 0.36163 0.0
H12 H 0.34608 0.11582 0.46171 0.0
H13 H 0.29146 0.16117 0.48805 0.0
C14 C 0.2643 0.09837 0.38148 0.0
C15 C 0.26698 0.08029 0.35892 0.0
C16 C 0.24492 0.04727 0.35646 0.0
C17 C 0.21997 0.03219 0.37643 0.0
C18 C 0.21687 0.05042 0.39864 0.0
C19 C 0.23911 0.08338 0.40124 0.0
C20 C 0.27102 0.16254 0.37966 0.0
C21 C 0.28557 0.19544 0.38716 0.0
C22 C 0.26928 0.21244 0.38238 0.0
C23 C 0.2386 0.19683 0.36939 0.0
C24 C 0.22389 0.16388 0.36229 0.0
C25 C 0.24005 0.14687 0.36725 0.0
C26 C 0.30773 0.14538 0.42091 0.0
C27 C 0.32685 0.13165 0.42784 0.0
C28 C 0.33264 0.12786 0.45653 0.0
C29 C 0.3196 0.13819 0.47834 0.0
C30 C 0.30189 0.15336 0.47134 0.0
C31 C 0.29562 0.15653 0.44284 0.0
P32 P 0.8924 0.08008 0.43363 0.0
H33 H 0.88756 0.04701 0.37935 0.0
H34 H 0.84147 0.00399 0.35281 0.0
H35 H 0.77763 -0.00016 0.41996 0.0
H36 H 0.82343 0.04264 0.44654 0.0
H37 H 0.96133 0.10586 0.42614 0.0
H38 H 0.00074 0.14655 0.39427 0.0
H39 H 0.92525 0.15605 0.353 0.0
H40 H 0.88533 0.11459 0.38479 0.0
H41 H 0.89926 0.08924 0.49584 0.0
H42 H 0.85447 0.11283 0.42704 0.0
O43 O 0.90977 0.06263 0.45154 0.0
H44 H 0.87475 0.10883 0.53087 0.0
H45 H 0.82948 0.13211 0.46237 0.0
C46 C 0.85872 0.04869 0.41442 0.0
C47 C 0.86363 0.03703 0.38826 0.0
C48 C 0.83751 0.01247 0.37323 0.0
C49 C 0.8064 -0.0009 0.38452 0.0
C50 C 0.8016 0.01013 0.41103 0.0
C51 C 0.82768 0.03468 0.42601 0.0
C52 C 0.92057 0.10783 0.40826 0.0
C53 C 0.953 0.11609 0.40991 0.0
C54 C 0.97543 0.13886 0.39138 0.0
C55 C 0.96578 0.15392 0.37113 0.0
C56 C 0.93297 0.14417 0.36814 0.0
C57 C 0.91042 0.12116 0.3867 0.0
C58 C 0.87886 0.09973 0.45879 0.0
C59 C 0.88461 0.0991 0.48819 0.0
C60 C 0.87049 0.1101 0.50822 0.0
C61 C 0.85028 0.12182 0.4992 0.0
C62 C 0.84508 0.12322 0.46972 0.0
C63 C 0.85953 0.11247 0.44961 0.0
P64 P 0.83593 0.69572 0.38198 0.0
H65 H 0.7819 0.68516 0.34464 0.0
H66 H 0.7579 0.71897 0.33433 0.0
H67 H 0.82756 0.794 0.39051 0.0
H68 H 0.85013 0.75923 0.40236 0.0
H69 H 0.88961 0.68249 0.38584 0.0
H70 H 0.9465 0.7137 0.37155 0.0
H71 H 0.92931 0.78627 0.33481 0.0
H72 H 0.87307 0.75549 0.34839 0.0
H73 H 0.77953 0.67482 0.41765 0.0
H74 H 0.8788 0.69997 0.43033 0.0
O75 O 0.81674 0.66044 0.3642 0.0
H76 H 0.77041 0.66689 0.46939 0.0
H77 H 0.86908 0.69031 0.48167 0.0
C78 C 0.81771 0.71982 0.37422 0.0
C79 C 0.79181 0.70872 0.35493 0.0
C80 C 0.77832 0.72807 0.34892 0.0
C81 C 0.79098 0.75891 0.36174 0.0
C82 C 0.81742 0.77023 0.38055 0.0
C83 C 0.83011 0.75041 0.38735 0.0
C84 C 0.8773 0.7175 0.37005 0.0
C85 C 0.89814 0.70533 0.37512 0.0
C86 C 0.93043 0.72292 0.36676 0.0
C87 C 0.94198 0.75253 0.35271 0.0
C88 C 0.92083 0.76377 0.34613 0.0
C89 C 0.88867 0.7462 0.3544 0.0
C90 C 0.82988 0.68805 0.41994 0.0
C91 C 0.79928 0.67829 0.43143 0.0
C92 C 0.79398 0.67367 0.46089 0.0
C93 C 0.81899 0.67776 0.47926 0.0
C94 C 0.84943 0.68685 0.46775 0.0
C95 C 0.85492 0.69219 0.43833 0.0
P96 P 0.13512 0.28416 0.62677 0.0
H97 H 0.09028 0.29816 0.65828 0.0
H98 H 0.03232 0.26537 0.66753 0.0
H99 H 0.02775 0.18781 0.6154 0.0
H100 H 0.08552 0.22106 0.60528 0.0
H101 H 0.19711 0.28736 0.61986 0.0
H102 H 0.21735 0.25176 0.63563 0.0
H103 H 0.12919 0.19363 0.68171 0.0
H104 H 0.1093 0.22962 0.6669 0.0
H105 H 0.15337 0.34044 0.59094 0.0
H106 H 0.14058 0.24508 0.58013 0.0
O107 O 0.15111 0.31938 0.64468 0.0
H108 H 0.16152 0.349 0.54021 0.0
H109 H 0.14902 0.2535 0.52932 0.0
C110 C 0.09205 0.26214 0.63084 0.0
C111 C 0.07676 0.27437 0.64841 0.0
C112 C 0.0438 0.25557 0.6539 0.0
C113 C 0.02584 0.22418 0.64217 0.0
C114 C 0.04121 0.21198 0.62457 0.0
C115 C 0.07401 0.23105 0.61861 0.0
C116 C 0.1513 0.26046 0.64129 0.0
C117 C 0.18226 0.26715 0.63356 0.0
C118 C 0.19376 0.24694 0.64253 0.0
C119 C 0.17447 0.22 0.65947 0.0
C120 C 0.14417 0.21421 0.66845 0.0
C121 C 0.13283 0.23466 0.65974 0.0
C122 C 0.14428 0.29135 0.58919 0.0
C123 C 0.15099 0.32075 0.57737 0.0
C124 C 0.15441 0.32506 0.54776 0.0
C125 C 0.14836 0.29914 0.5287 0.0
C126 C 0.14712 0.27176 0.54155 0.0
C127 C 0.14374 0.26735 0.57126 0.0
P128 P 0.79789 0.89617 0.56295 0.0
H129 H 0.82613 0.92152 0.61973 0.0
H130 H 0.82531 0.96284 0.65123 0.0
H131 H 0.76531 0.97558 0.58972 0.0
H132 H 0.76634 0.93486 0.55819 0.0
H133 H 0.84093 0.86972 0.55649 0.0
H134 H 0.84658 0.82876 0.58314 0.0
H135 H 0.76853 0.81483 0.63833 0.0
H136 H 0.76282 0.85594 0.61167 0.0
H137 H 0.79014 0.88455 0.50124 0.0
H138 H 0.72855 0.86665 0.57439 0.0
O139 O 0.83065 0.9171 0.54299 0.0
H140 H 0.74334 0.86438 0.46925 0.0
H141 H 0.68153 0.84711 0.54206 0.0
C142 C 0.79546 0.92443 0.58706 0.0
C143 C 0.81243 0.93286 0.61322 0.0
C144 C 0.81214 0.95644 0.63107 0.0
C145 C 0.79522 0.97198 0.62262 0.0
C146 C 0.77839 0.96363 0.59647 0.0
C147 C 0.77879 0.94023 0.57864 0.0
C148 C 0.80164 0.86595 0.58233 0.0
C149 C 0.82512 0.85802 0.57439 0.0
C150 C 0.82845 0.83481 0.58957 0.0
C151 C 0.80818 0.8192 0.61271 0.0
C152 C 0.78452 0.82696 0.62061 0.0
C153 C 0.78119 0.85019 0.60538 0.0
C154 C 0.76281 0.87742 0.54009 0.0
C155 C 0.76655 0.87606 0.51044 0.0
C156 C 0.73989 0.86466 0.4922 0.0
C157 C 0.70913 0.85444 0.50335 0.0
C158 C 0.70514 0.8549 0.53314 0.0
C159 C 0.73187 0.86593 0.55148 0.0
P160 P 0.14094 0.83219 0.62699 0.0
H161 H 0.19218 0.88573 0.66038 0.0
H162 H 0.21094 0.94395 0.66167 0.0
H163 H 0.14151 0.93052 0.59607 0.0
H164 H 0.12257 0.87223 0.59482 0.0
H165 H 0.08301 0.76827 0.61765 0.0
H166 H 0.02676 0.74613 0.63306 0.0
H167 H 0.05361 0.83384 0.6812 0.0
H168 H 0.10951 0.85579 0.66632 0.0
H169 H 0.19764 0.84324 0.59583 0.0
H170 H 0.09711 0.80775 0.57696 0.0
O171 O 0.16253 0.82244 0.64858 0.0
H172 H 0.20922 0.84774 0.54432 0.0
H173 H 0.10841 0.81063 0.52567 0.0
C174 C 0.1563 0.87495 0.62733 0.0
C175 C 0.18113 0.8953 0.64619 0.0
C176 C 0.19168 0.92833 0.64698 0.0
C177 C 0.17742 0.94117 0.62899 0.0
C178 C 0.15263 0.92083 0.61006 0.0
C179 C 0.14208 0.8878 0.60928 0.0
C180 C 0.10017 0.81417 0.63978 0.0
C181 C 0.07679 0.78273 0.63146 0.0
C182 C 0.04486 0.77012 0.6403 0.0
C183 C 0.03623 0.78866 0.65792 0.0
C184 C 0.05989 0.81943 0.66737 0.0
C185 C 0.09172 0.83192 0.65865 0.0
C186 C 0.14633 0.82412 0.59029 0.0
C187 C 0.17783 0.83495 0.58065 0.0
C188 C 0.18454 0.83783 0.55134 0.0
C189 C 0.15964 0.82935 0.53128 0.0
C190 C 0.12787 0.81699 0.54089 0.0
C191 C 0.12132 0.81483 0.5702 0.0
P192 P 0.9592 0.47715 0.71535 0.0
H193 H 0.94846 0.43129 0.66838 0.0
H194 H 0.91272 0.37241 0.66392 0.0
H195 H 0.87964 0.36999 0.75039 0.0
H196 H 0.91613 0.42831 0.75531 0.0
H197 H 0.97227 0.54166 0.69923 0.0
H198 H 0.9365 0.56306 0.68675 0.0
H199 H 0.85346 0.47064 0.70519 0.0
H200 H 0.8885 0.44937 0.71774 0.0
H201 H 0.00358 0.46104 0.74268 0.0
H202 H 0.94862 0.50691 0.76661 0.0
O203 O -0.01093 0.49138 0.69159 0.0
H204 H 0.01298 0.45551 0.79356 0.0
H205 H 0.95871 0.5021 0.81725 0.0
C206 C 0.93535 0.43394 0.71229 0.0
C207 C 0.93394 0.418 0.68649 0.0
C208 C 0.91343 0.38461 0.6839 0.0
C209 C 0.89378 0.36709 0.70693 0.0
C210 C 0.89484 0.38318 0.73255 0.0
C211 C 0.91587 0.41632 0.73536 0.0
C212 C 0.93325 0.49377 0.70892 0.0
C213 C 0.94641 0.52613 0.70088 0.0
C214 C 0.92609 0.53834 0.69393 0.0
C215 C 0.89247 0.51831 0.6952 0.0
C216 C 0.87936 0.4864 0.70431 0.0
C217 C 0.8996 0.47428 0.71131 0.0
C218 C 0.97564 0.48461 0.75096 0.0
C219 C -0.00529 0.47113 0.75883 0.0
C220 C -0.00016 0.46769 0.78774 0.0
C221 C 0.98635 0.47825 0.80895 0.0
C222 C 0.96927 0.49384 0.80103 0.0
C223 C 0.96377 0.49686 0.77216 0.0
P224 P 0.55384 0.40867 0.76533 0.0
H225 H 0.55561 0.37146 0.71687 0.0
H226 H 0.51316 0.3302 0.68587 0.0
H227 H 0.44184 0.3435 0.73098 0.0
H228 H 0.48403 0.38482 0.76179 0.0
H229 H 0.62152 0.42794 0.75859 0.0
H230 H 0.66457 0.46892 0.72959 0.0
H231 H 0.598 0.49524 0.69339 0.0
H232 H 0.55402 0.45244 0.72117 0.0
H233 H 0.53123 0.38851 0.82323 0.0
H234 H 0.53905 0.46224 0.76559 0.0
O235 O 0.56851 0.38808 0.7823 0.0
H236 H 0.50811 0.40803 0.85974 0.0
H237 H 0.51534 0.48136 0.80209 0.0
C238 C 0.52284 0.38084 0.74168 0.0
C239 C 0.53086 0.36567 0.7199 0.0
C240 C 0.50684 0.34229 0.7023 0.0
C241 C 0.47464 0.33383 0.7066 0.0
C242 C 0.4667 0.34978 0.7277 0.0
C243 C 0.49075 0.37325 0.74525 0.0
C244 C 0.58495 0.43831 0.74312 0.0
C245 C 0.61589 0.44211 0.74419 0.0
C246 C 0.64036 0.46505 0.72725 0.0
C247 C 0.63437 0.485 0.70945 0.0
C248 C 0.60294 0.47988 0.70691 0.0
C249 C 0.57818 0.45621 0.72339 0.0
C250 C 0.53796 0.42458 0.79197 0.0
C251 C 0.52819 0.40899 0.81842 0.0
C252 C 0.51457 0.41978 0.83913 0.0
C253 C 0.51005 0.44605 0.83355 0.0
C254 C 0.51863 0.46096 0.80669 0.0
C255 C 0.53254 0.45028 0.786 0.0
P256 P 0.50557 0.02949 0.71786 0.0
H257 H 0.45308 0.01822 0.67835 0.0
H258 H 0.42919 0.05166 0.66616 0.0
H259 H 0.50266 0.13094 0.71621 0.0
H260 H 0.52562 0.09718 0.7295 0.0
H261 H 0.53793 0.01712 0.67066 0.0
H262 H 0.59106 0.04735 0.65155 0.0
H263 H 0.61847 0.11533 0.72293 0.0
H264 H 0.56513 0.08356 0.74226 0.0
H265 H 0.44956 0.01902 0.75034 0.0
H266 H 0.54223 0.02817 0.76851 0.0
O267 O 0.48519 -0.00707 0.70234 0.0
H268 H 0.4363 0.01139 0.80145 0.0
H269 H 0.52888 0.02062 0.81983 0.0
C270 C 0.49117 0.05525 0.70475 0.0
C271 C 0.46437 0.04292 0.68635 0.0
C272 C 0.45087 0.06201 0.67928 0.0
C273 C 0.46417 0.09363 0.69044 0.0
C274 C 0.49223 0.10664 0.70733 0.0
C275 C 0.50531 0.08734 0.71485 0.0
C276 C 0.54723 0.04842 0.70757 0.0
C277 C 0.55545 0.03878 0.68204 0.0
C278 C 0.58614 0.05733 0.67038 0.0
C279 C 0.60905 0.08731 0.68301 0.0
C280 C 0.60118 0.09487 0.71025 0.0
C281 C 0.57063 0.07601 0.72208 0.0
C282 C 0.49724 0.025 0.75572 0.0
C283 C 0.46724 0.01982 0.76535 0.0
C284 C 0.45959 0.01543 0.79445 0.0
C285 C 0.48171 0.01572 0.81432 0.0
C286 C 0.51164 0.02061 0.80473 0.0
C287 C 0.51928 0.02498 0.77553 0.0
P288 P 0.80271 0.62195 0.96064 0.0
H289 H 0.75914 0.63979 0.98956 0.0
H290 H 0.70049 0.61096 0.99552 0.0
H291 H 0.69301 0.52936 0.94775 0.0
H292 H 0.75145 0.55934 0.9398 0.0
H293 H 0.86825 0.63373 0.96899 0.0
H294 H 0.88911 0.59847 0.98392 0.0
H295 H 0.79334 0.5251 0.00767 0.0
H296 H 0.77232 0.55967 0.99225 0.0
H297 H 0.77503 0.64228 0.91543 0.0
H298 H 0.8498 0.61694 0.92175 0.0
O299 O 0.81931 0.658 0.97716 0.0
H300 H 0.78608 0.65219 0.86412 0.0
H301 H 0.8618 0.62859 0.87113 0.0
C302 C 0.75957 0.60151 0.96447 0.0
C303 C 0.7449 0.61588 0.98008 0.0
C304 C 0.71148 0.59937 0.98361 0.0
C305 C 0.6924 0.56797 0.97215 0.0
C306 C 0.70725 0.55357 0.95668 0.0
C307 C 0.74047 0.57064 0.95215 0.0
C308 C 0.81838 0.59847 0.97718 0.0
C309 C 0.85163 0.60992 0.97705 0.0
C310 C 0.86355 0.58995 0.98577 0.0
C311 C 0.84244 0.55871 0.99571 0.0
C312 C 0.80973 0.54869 -0.00094 0.0
C313 C 0.79776 0.56845 0.98981 0.0
C314 C 0.81126 0.62852 0.92272 0.0
C315 C 0.79378 0.63883 0.90596 0.0
C316 C 0.80016 0.64466 0.87672 0.0
C317 C 0.82463 0.64093 0.86384 0.0
C318 C 0.8427 0.63142 0.88067 0.0
C319 C 0.83584 0.62492 0.90979 0.0
P320 P 0.46737 0.2325 0.89692 0.0
H321 H 0.50156 0.26253 0.95034 0.0
H322 H 0.50171 0.30419 0.98202 0.0
H323 H 0.43121 0.30827 0.92719 0.0
H324 H 0.43114 0.26711 0.89548 0.0
H325 H 0.50766 0.20297 0.88982 0.0
H326 H 0.51313 0.16264 0.91773 0.0
H327 H 0.43995 0.15561 0.97587 0.0
H328 H 0.43451 0.19614 0.94807 0.0
H329 H 0.45901 0.22644 0.8348 0.0
H330 H 0.39807 0.19722 0.90941 0.0
O331 O 0.50011 0.25263 0.87675 0.0
H332 H 0.41129 0.2034 0.80374 0.0
H333 H 0.35001 0.17458 0.87805 0.0
C334 C 0.4658 0.26124 0.92096 0.0
C335 C 0.48589 0.27215 0.94532 0.0
C336 C 0.48613 0.2959 0.96326 0.0
C337 C 0.46658 0.30915 0.95668 0.0
C338 C 0.44645 0.29819 0.93241 0.0
C339 C 0.44628 0.27456 0.91448 0.0
C340 C 0.47087 0.20261 0.91707 0.0
C341 C 0.49292 0.19293 0.90864 0.0
C342 C 0.49617 0.17012 0.92455 0.0
C343 C 0.47721 0.15666 0.94888 0.0
C344 C 0.45497 0.16615 0.95726 0.0
C345 C 0.45175 0.189 0.94134 0.0
C346 C 0.43204 0.21345 0.87437 0.0
C347 C 0.4354 0.21493 0.84453 0.0
C348 C 0.40821 0.20192 0.8268 0.0
C349 C 0.37726 0.18729 0.83865 0.0
C350 C 0.37377 0.18569 0.86858 0.0
C351 C 0.40109 0.19842 0.88637 0.0
P352 P 0.81204 0.17153 0.96123 0.0
H353 H 0.86185 0.22787 0.99296 0.0
H354 H 0.87942 0.28568 0.99072 0.0
H355 H 0.80774 0.26597 0.92543 0.0
H356 H 0.78992 0.20791 0.92776 0.0
H357 H 0.76131 0.10355 0.95432 0.0
H358 H 0.70335 0.07528 0.96526 0.0
H359 H 0.71398 0.16252 0.00432 0.0
H360 H 0.77165 0.19063 0.99384 0.0
H361 H 0.87105 0.18727 0.93134 0.0
H362 H 0.76964 0.14248 0.91093 0.0
O363 O 0.83467 0.1644 0.98395 0.0
H364 H 0.88343 0.19089 0.87994 0.0
H365 H 0.78189 0.14473 0.85993 0.0
C366 C 0.82459 0.21378 0.96061 0.0
C367 C 0.84982 0.23589 0.97826 0.0
C368 C 0.85983 0.26876 0.97692 0.0
C369 C 0.84478 0.27983 0.9579 0.0
C370 C 0.81953 0.25773 0.94019 0.0
C371 C 0.80947 0.22479 0.94158 0.0
C372 C 0.77049 0.1495 0.97216 0.0
C373 C 0.75121 0.11651 0.96541 0.0
C374 C 0.7183 0.10039 0.97176 0.0
C375 C 0.70454 0.11704 0.9853 0.0
C376 C 0.72423 0.14944 0.99369 0.0
C377 C 0.75708 0.16548 0.98743 0.0
C378 C 0.81934 0.16366 0.92504 0.0
C379 C 0.85138 0.17688 0.91592 0.0
C380 C 0.8585 0.17923 0.88667 0.0
C381 C 0.83354 0.16792 0.86626 0.0
C382 C 0.80143 0.15331 0.87544 0.0
C383 C 0.79439 0.15157 0.90461 0.0
P384 P 0.62556 0.80673 0.05012 0.0
H385 H 0.61596 0.7565 0.00798 0.0
H386 H 0.57925 0.69772 0.00712 0.0
H387 H 0.54062 0.70426 0.08889 0.0
H388 H 0.57752 0.76302 0.08995 0.0
H389 H 0.6409 0.87383 0.05568 0.0
H390 H 0.60925 0.90054 0.04721 0.0
H391 H 0.52618 0.80848 0.02523 0.0
H392 H 0.55724 0.78162 0.03429 0.0
H393 H 0.6673 0.78533 0.07439 0.0
H394 H 0.62316 0.84086 0.10227 0.0
O395 O 0.65309 0.81861 0.02428 0.0
H396 H 0.67812 0.77875 0.12468 0.0
H397 H 0.63552 0.8358 0.15174 0.0
C398 C 0.5995 0.76381 0.04911 0.0
C399 C 0.59978 0.74529 0.02577 0.0
C400 C 0.57892 0.71193 0.0253 0.0
C401 C 0.55758 0.69699 0.04806 0.0
C402 C 0.55713 0.71555 0.07132 0.0
C403 C 0.57813 0.74887 0.07187 0.0
C404 C 0.60148 0.82576 0.04604 0.0
C405 C 0.61566 0.85928 0.04982 0.0
C406 C 0.59754 0.87441 0.04535 0.0
C407 C 0.56525 0.85628 0.03617 0.0
C408 C 0.55078 0.82266 0.03303 0.0
C409 C 0.56879 0.80747 0.03793 0.0
C410 C 0.64474 0.81386 0.08452 0.0
C411 C 0.66142 0.79745 0.09112 0.0
C412 C 0.66739 0.79347 0.11968 0.0
C413 C 0.65743 0.8067 0.14166 0.0
C414 C 0.64337 0.8255 0.13488 0.0
C415 C 0.63667 0.82874 0.10651 0.0
P416 P 0.22579 0.74574 0.1012 0.0
H417 H 0.22472 0.71299 0.04774 0.0
H418 H 0.1805 0.66982 0.01941 0.0
H419 H 0.11208 0.66589 0.08169 0.0
H420 H 0.15589 0.70871 0.10998 0.0
H421 H 0.29584 0.77907 0.10051 0.0
H422 H 0.33586 0.82173 0.07037 0.0
H423 H 0.25987 0.82021 0.01936 0.0
H424 H 0.21945 0.77706 0.04961 0.0
H425 H 0.22892 0.752 0.16373 0.0
H426 H 0.18869 0.77913 0.09367 0.0
O427 O 0.24315 0.7284 0.11928 0.0
H428 H 0.20451 0.77246 0.19805 0.0
H429 H 0.16351 0.79904 0.12828 0.0
C430 C 0.19344 0.7146 0.0805 0.0
C431 C 0.20017 0.70298 0.05517 0.0
C432 C 0.17513 0.67837 0.03914 0.0
C433 C 0.14329 0.66493 0.04863 0.0
C434 C 0.13664 0.67616 0.07419 0.0
C435 C 0.16162 0.70073 0.09016 0.0
C436 C 0.25477 0.77511 0.07736 0.0
C437 C 0.28767 0.78734 0.08253 0.0
C438 C 0.31049 0.81133 0.06512 0.0
C439 C 0.30073 0.82361 0.04244 0.0
C440 C 0.26776 0.81044 0.03639 0.0
C441 C 0.24483 0.78632 0.05392 0.0
C442 C 0.21079 0.76422 0.12614 0.0
C443 C 0.21513 0.76263 0.15568 0.0
C444 C 0.20105 0.77414 0.17529 0.0
C445 C 0.18225 0.78725 0.1657 0.0
C446 C 0.17805 0.7891 0.13608 0.0
C447 C 0.19255 0.77794 0.1164 0.0
P448 P 0.16653 0.35752 0.0502 0.0
H449 H 0.1042 0.34297 0.02597 0.0
H450 H 0.0814 0.37759 0.01451 0.0
H451 H 0.17006 0.46193 0.04165 0.0
H452 H 0.19242 0.42719 0.05425 0.0
H453 H 0.226 0.36089 0.07181 0.0
H454 H 0.28208 0.3908 0.05511 0.0
H455 H 0.25246 0.42682 0.98371 0.0
H456 H 0.19644 0.39589 -0.00053 0.0
H457 H 0.11806 0.30704 0.08603 0.0
H458 H 0.2047 0.39864 0.09881 0.0
O459 O 0.14595 0.32134 0.03405 0.0
H460 H 0.1069 0.30433 0.13649 0.0
H461 H 0.19439 0.39639 0.14943 0.0
C462 C 0.15005 0.38263 0.04057 0.0
C463 C 0.11877 0.36887 0.02934 0.0
C464 C 0.10587 0.38859 0.02272 0.0
C465 C 0.12415 0.42221 0.02726 0.0
C466 C 0.15572 0.43604 0.03797 0.0
C467 C 0.16835 0.41624 0.04516 0.0
C468 C 0.20733 0.37715 0.03748 0.0
C469 C 0.23155 0.37507 0.05252 0.0
C470 C 0.26339 0.39203 0.04299 0.0
C471 C 0.2712 0.4111 0.01834 0.0
C472 C 0.2468 0.41232 0.00282 0.0
C473 C 0.21495 0.39483 0.01198 0.0
C474 C 0.16191 0.35331 0.08851 0.0
C475 C 0.1345 0.32696 0.09982 0.0
C476 C 0.12748 0.32619 0.12899 0.0
C477 C 0.14666 0.35267 0.14765 0.0
C478 C 0.17606 0.37742 0.13624 0.0
C479 C 0.183 0.37823 0.10699 0.0
P480 P 0.46963 0.9558 0.2925 0.0
H481 H 0.42213 0.96807 0.32109 0.0
H482 H 0.36439 0.93323 0.32996 0.0
H483 H 0.36541 0.85509 0.28325 0.0
H484 H 0.42302 0.89051 0.27321 0.0
H485 H 0.53428 0.96421 0.2902 0.0
H486 H 0.55548 0.92935 0.30565 0.0
H487 H 0.46641 0.86779 0.34922 0.0
H488 H 0.44537 0.90279 0.33445 0.0
H489 H 0.46871 5e-05 0.25049 0.0
H490 H 0.48861 0.92118 0.25091 0.0
O491 O 0.48353 -0.00792 0.30809 0.0
H492 H 0.47808 0.00542 0.19858 0.0
H493 H 0.49974 0.92781 0.19942 0.0
C494 C 0.42665 0.93191 0.29624 0.0
C495 C 0.40987 0.94368 0.31229 0.0
C496 C 0.37705 0.92374 0.31757 0.0
C497 C 0.36072 0.89164 0.30724 0.0
C498 C 0.3776 0.87982 0.29128 0.0
C499 C 0.41026 0.90006 0.28538 0.0
C500 C 0.4877 0.93515 0.30985 0.0
C501 C 0.51952 0.94358 0.3035 0.0
C502 C 0.53159 0.92379 0.31232 0.0
C503 C 0.51211 0.89578 0.32797 0.0
C504 C 0.48149 0.88913 0.3368 0.0
C505 C 0.46946 0.90899 0.32804 0.0
C506 C 0.47877 0.96082 0.25476 0.0
C507 C 0.47569 0.98434 0.23957 0.0
C508 C 0.48106 0.98742 0.21001 0.0
C509 C 0.48972 0.96709 0.19521 0.0
C510 C 0.49325 0.94383 0.21049 0.0
C511 C 0.48711 0.94024 0.23993 0.0
P512 P 0.13174 0.56672 0.23016 0.0
H513 H 0.16422 0.5926 0.28507 0.0
H514 H 0.16477 0.63306 0.31854 0.0
H515 H 0.09781 0.64321 0.26368 0.0
H516 H 0.09741 0.60324 0.23012 0.0
H517 H 0.17277 0.53811 0.2224 0.0
H518 H 0.17798 0.49696 0.24925 0.0
H519 H 0.10249 0.48644 0.30623 0.0
H520 H 0.09717 0.52761 0.27938 0.0
H521 H 0.12401 0.55694 0.16827 0.0
H522 H 0.06237 0.53584 0.24186 0.0
O523 O 0.16465 0.58764 0.21037 0.0
H524 H 0.0768 0.53455 0.13657 0.0
H525 H 0.01491 0.51409 0.20985 0.0
C526 C 0.13015 0.59438 0.25551 0.0
C527 C 0.1493 0.60319 0.28045 0.0
C528 C 0.14974 0.62622 0.29945 0.0
C529 C 0.13135 0.64087 0.29334 0.0
C530 C 0.11205 0.63193 0.26857 0.0
C531 C 0.11171 0.60903 0.24957 0.0
C532 C 0.1348 0.53596 0.24913 0.0
C533 C 0.15743 0.52707 0.24071 0.0
C534 C 0.16054 0.50383 0.25603 0.0
C535 C 0.14092 0.48925 0.27978 0.0
C536 C 0.11804 0.49789 0.28808 0.0
C537 C 0.11489 0.52109 0.27271 0.0
C538 C 0.09666 0.54838 0.20733 0.0
C539 C 0.10034 0.54745 0.17762 0.0
C540 C 0.07345 0.53471 0.15955 0.0
C541 C 0.04249 0.52273 0.17092 0.0
C542 C 0.03866 0.52316 0.20075 0.0
C543 C 0.06564 0.53553 0.21891 0.0
P544 P 0.47609 0.50056 0.29525 0.0
H545 H 0.52722 0.55384 0.32905 0.0
H546 H 0.54457 0.6117 0.33219 0.0
H547 H 0.46918 0.59725 0.27281 0.0
H548 H 0.45164 0.5393 0.26975 0.0
H549 H 0.42432 0.43471 0.28067 0.0
H550 H 0.36611 0.40629 0.2905 0.0
H551 H 0.37884 0.48625 0.34404 0.0
H552 H 0.43675 0.51449 0.33455 0.0
H553 H 0.53478 0.51789 0.264 0.0
H554 H 0.43404 0.48005 0.24417 0.0
O555 O 0.49872 0.49092 0.31555 0.0
H556 H 0.5472 0.52476 0.21256 0.0
H557 H 0.44623 0.4854 0.19303 0.0
C558 C 0.48819 0.5425 0.29923 0.0
C559 C 0.51427 0.56302 0.31691 0.0
C560 C 0.5241 0.59589 0.3187 0.0
C561 C 0.50799 0.60841 0.30276 0.0
C562 C 0.48169 0.58781 0.28528 0.0
C563 C 0.47185 0.55495 0.28354 0.0
C564 C 0.43455 0.47729 0.30578 0.0
C565 C 0.41462 0.44602 0.29465 0.0
C566 C 0.38156 0.42983 0.30028 0.0
C567 C 0.36837 0.44462 0.31749 0.0
C568 C 0.38867 0.4748 0.33037 0.0
C569 C 0.42165 0.49091 0.32477 0.0
C570 C 0.48331 0.49715 0.25791 0.0
C571 C 0.51521 0.5099 0.2486 0.0
C572 C 0.52238 0.5142 0.21937 0.0
C573 C 0.49758 0.50534 0.19909 0.0
C574 C 0.46563 0.49207 0.20839 0.0
C575 C 0.4586 0.48843 0.2376 0.0
O576 O 0.48718 0.96705 0.92764 0.0
Mg577 Mg 0.51611 0.97497 0.96267 0.0
O578 O 0.47934 -0.00075 0.95564 0.0
Mg579 Mg 0.49128 -0.00848 0.00426 0.0
O580 O 0.50589 0.95009 6e-05 0.0
O581 O 0.52028 0.93567 0.95906 0.0
O582 O 0.50029 0.98675 0.05293 0.0
O583 O 0.43758 0.94822 0.00852 0.0
Mg584 Mg 0.44555 0.00575 0.03982 0.0
O585 O 0.47916 0.03276 0.01112 0.0
O586 O 0.46389 -0.00586 0.07612 0.0
O587 O 0.40666 0.96954 0.01657 0.0
O588 O 0.45172 0.0508 0.03723 0.0
C589 C 0.56777 0.03655 0.98489 0.0
C590 C 0.47752 0.9869 0.93079 0.0
C591 C 0.51505 0.93219 0.98616 0.0
C592 C 0.48661 -0.01223 0.07612 0.0
C593 C 0.40957 0.94513 0.01105 0.0
C594 C 0.47126 0.05474 0.01659 0.0
O595 O 0.5621 0.01669 0.96443 0.0
O596 O 0.54528 0.03267 0.00191 0.0
O597 O 0.98179 0.51027 0.92545 0.0
Mg598 Mg 0.98403 0.53148 0.96455 0.0
O599 O 0.97712 0.46936 0.95031 0.0
Mg600 Mg 0.97668 0.48036 -0.00033 0.0
O601 O 0.01508 0.53599 0.99722 0.0
O602 O 0.02408 0.57453 0.96508 0.0
O603 O 0.97757 0.48868 0.05003 0.0
O604 O 0.02197 0.47419 0.00255 0.0
Mg605 Mg 0.9616 0.41892 0.03526 0.0
O606 O 0.94057 0.42558 0.00034 0.0
O607 O 0.95677 0.4417 0.07157 0.0
O608 O 0.0084 0.42873 0.02565 0.0
O609 O 0.9226 0.37745 0.02079 0.0
C610 C 0.92434 0.50925 0.99255 0.0
C611 C 0.97907 0.48273 0.92637 0.0
C612 C 0.03205 0.56566 0.98824 0.0
C613 C 0.96758 0.4719 0.07289 0.0
C614 C 0.02894 0.45363 0.01253 0.0
C615 C 0.92028 0.39471 0.00082 0.0
O616 O 0.94415 0.5332 0.97824 0.0
O617 O 0.93068 0.48725 -6e-05 0.0
O618 O 0.46151 0.46443 0.08233 0.0
Mg619 Mg 0.4433 0.44219 0.04353 0.0
O620 O 0.49406 0.50636 0.05667 0.0
Mg621 Mg 0.48381 0.49288 0.0071 0.0
O622 O 0.4704 0.43824 0.01102 0.0
O623 O 0.44285 0.40029 0.04415 0.0
O624 O 0.48028 0.48152 0.95689 0.0
O625 O 0.53723 0.50605 0.00415 0.0
Mg626 Mg 0.50998 0.54474 0.96592 0.0
O627 O 0.49691 0.54662 0.00641 0.0
O628 O 0.47305 0.51799 0.93568 0.0
O629 O 0.55199 0.54002 0.96768 0.0
O630 O 0.51586 0.58863 0.97658 0.0
C631 C 0.40227 0.45937 0.01433 0.0
C632 C 0.48403 0.49319 0.08095 0.0
C633 C 0.45926 0.40905 0.02081 0.0
C634 C 0.47421 0.49223 0.93412 0.0
C635 C 0.55823 0.52423 0.98593 0.0
C636 C 0.5055 0.57656 0.00155 0.0
O637 O 0.39999 0.43726 0.03037 0.0
O638 O 0.42967 0.48138 0.00547 0.0
O639 O 0.14648 0.29649 0.25971 0.0
Mg640 Mg 0.1792 0.30756 0.29348 0.0
O641 O 0.14729 0.33416 0.28707 0.0
Mg642 Mg 0.15637 0.3245 0.33557 0.0
O643 O 0.1728 0.28457 0.33182 0.0
O644 O 0.18899 0.27176 0.29092 0.0
O645 O 0.16392 0.32029 0.38521 0.0
O646 O 0.10293 0.28004 0.33771 0.0
Mg647 Mg 0.10761 0.33642 0.36773 0.0
O648 O 0.14257 0.36468 0.34075 0.0
O649 O 0.12581 0.32739 0.4051 0.0
O650 O 0.06983 0.29896 0.34449 0.0
O651 O 0.11187 0.38056 0.36456 0.0
C652 C 0.23081 0.37044 0.31538 0.0
C653 C 0.14214 0.32022 0.26259 0.0
C654 C 0.18381 0.26815 0.31805 0.0
C655 C 0.14897 0.32182 0.40737 0.0
C656 C 0.07428 0.27551 0.33896 0.0
C657 C 0.13338 0.38581 0.34546 0.0
O658 O 0.22366 0.35181 0.29366 0.0
O659 O 0.20979 0.36535 0.33445 0.0
O660 O 0.65421 0.84697 0.25495 0.0
Mg661 Mg 0.65194 0.87008 0.29167 0.0
O662 O 0.64461 0.80516 0.28152 0.0
Mg663 Mg 0.64355 0.81686 0.33034 0.0
O664 O 0.67956 0.87248 0.32642 0.0
O665 O 0.69075 0.91401 0.29721 0.0
O666 O 0.64341 0.8266 0.37981 0.0
O667 O 0.69141 0.814 0.33447 0.0
Mg668 Mg 0.63724 0.76126 0.36039 0.0
O669 O 0.6056 0.76117 0.3317 0.0
O670 O 0.64106 0.78395 0.39973 0.0
O671 O 0.67773 0.76344 0.34251 0.0
O672 O 0.59794 0.71766 0.35664 0.0
C673 C 0.58952 0.84233 0.31939 0.0
C674 C 0.64933 0.81861 0.2572 0.0
C675 C 0.697 0.903 0.32003 0.0
C676 C 0.64235 0.81101 0.40223 0.0
C677 C 0.69894 0.79193 0.33664 0.0
C678 C 0.58867 0.73038 0.33722 0.0
O679 O 0.60823 0.86552 0.30368 0.0
O680 O 0.59744 0.82228 0.32897 0.0
O681 O 0.12297 0.80202 0.41071 0.0
Mg682 Mg 0.11081 0.77923 0.37102 0.0
O683 O 0.16623 0.83798 0.38871 0.0
Mg684 Mg 0.15399 0.82722 0.33937 0.0
O685 O 0.13856 0.77177 0.34173 0.0
O686 O 0.11055 0.73785 0.37744 0.0
O687 O 0.1454 0.81814 0.28909 0.0
O688 O 0.20585 0.83292 0.33538 0.0
Mg689 Mg 0.20083 0.88577 0.30786 0.0
O690 O 0.16996 0.88237 0.33893 0.0
O691 O 0.18066 0.8635 0.26885 0.0
O692 O 0.24016 0.88298 0.32269 0.0
O693 O 0.20246 0.92801 0.31509 0.0
C694 C 0.07229 0.79702 0.34394 0.0
C695 C 0.15049 0.82663 0.4117 0.0
C696 C 0.12669 0.74372 0.35406 0.0
C697 C 0.15753 0.83478 0.26647 0.0
C698 C 0.23462 0.85551 0.3307 0.0
C699 C 0.18166 0.91324 0.335 0.0
O700 O 0.06805 0.77085 0.35403 0.0
O701 O 0.10086 0.82085 0.34049 0.0
O702 O 0.84995 0.65458 0.59641 0.0
Mg703 Mg 0.86628 0.64909 0.63581 0.0
O704 O 0.81425 0.6601 0.62165 0.0
Mg705 Mg 0.8247 0.6562 0.67077 0.0
O706 O 0.83777 0.61359 0.66433 0.0
O707 O 0.87088 0.61036 0.63188 0.0
O708 O 0.83344 0.65428 0.72076 0.0
O709 O 0.77245 0.61156 0.6735 0.0
Mg710 Mg 0.77618 0.66908 0.70649 0.0
O711 O 0.80879 0.6946 0.67622 0.0
O712 O 0.79872 0.66473 0.74343 0.0
O713 O 0.73837 0.62749 0.68752 0.0
O714 O 0.77903 0.71229 0.69868 0.0
C715 C 0.90579 0.7074 0.66432 0.0
C716 C 0.82629 0.65913 0.59753 0.0
C717 C 0.85039 0.59754 0.65229 0.0
C718 C 0.82151 0.65846 0.74398 0.0
C719 C 0.74373 0.60563 0.67816 0.0
C720 C 0.79984 0.71611 0.67932 0.0
O721 O 0.90927 0.68657 0.65051 0.0
O722 O 0.87772 0.70193 0.67124 0.0
O723 O 0.30463 0.16911 0.59508 0.0
Mg724 Mg 0.31234 0.19147 0.63498 0.0
O725 O 0.31296 0.1347 0.61888 0.0
Mg726 Mg 0.31057 0.14559 0.66723 0.0
O727 O 0.34911 0.20164 0.66396 0.0
O728 O 0.35125 0.23422 0.62853 0.0
O729 O 0.31012 0.15396 0.71727 0.0
O730 O 0.35781 0.14221 0.67098 0.0
Mg731 Mg 0.3016 0.08658 0.69805 0.0
O732 O 0.2739 0.09023 0.66745 0.0
O733 O 0.30245 0.10888 0.73676 0.0
O734 O 0.34464 0.09234 0.68232 0.0
O735 O 0.26183 0.04393 0.68961 0.0
C736 C 0.25583 0.17187 0.66224 0.0
C737 C 0.30894 0.14523 0.59531 0.0
C738 C 0.36398 0.22932 0.65082 0.0
C739 C 0.30605 0.13691 0.73953 0.0
C740 C 0.36543 0.12043 0.6747 0.0
C741 C 0.25543 0.05915 0.67032 0.0
O742 O 0.27627 0.19787 0.65094 0.0
O743 O 0.26234 0.14928 0.66653 0.0
O744 O 0.7943 0.12871 0.7492 0.0
Mg745 Mg 0.77464 0.10679 0.71041 0.0
O746 O 0.82977 0.16946 0.72381 0.0
Mg747 Mg 0.81788 0.15776 0.67427 0.0
O748 O 0.80076 0.10209 0.67736 0.0
O749 O 0.77194 0.06377 0.70985 0.0
O750 O 0.8093 0.14804 0.62407 0.0
O751 O 0.87013 0.16338 0.67061 0.0
Mg752 Mg 0.86457 0.21392 0.64452 0.0
O753 O 0.83344 0.21323 0.67388 0.0
O754 O 0.84799 0.19203 0.60479 0.0
O755 O 0.90447 0.21455 0.66202 0.0
O756 O 0.86652 0.25654 0.64743 0.0
C757 C 0.73676 0.12879 0.68238 0.0
C758 C 0.81875 0.15639 0.74796 0.0
C759 C 0.78819 0.07242 0.68641 0.0
C760 C 0.82362 0.16419 0.60179 0.0
C761 C 0.89909 0.18664 0.66806 0.0
C762 C 0.84603 0.24383 0.66793 0.0
O763 O 0.73269 0.10503 0.69705 0.0
O764 O 0.76495 0.15029 0.67451 0.0
C765 C 0.34328 0.85607 0.00577 0.0
C766 C 0.32495 0.85478 0.03015 0.0
C767 C 0.36423 0.91019 0.043 0.0
C768 C 0.38125 0.91315 0.01721 0.0
N769 N 0.38503 0.89012 0.97206 0.0
N770 N 0.31306 0.88325 0.06692 0.0
C771 C 0.37024 0.8864 -0.00211 0.0
C772 C 0.33366 0.88286 0.04684 0.0
N773 N 0.3353 0.82833 0.99069 0.0
N774 N 0.37829 0.93216 0.06499 0.0
H775 H 0.29033 0.8634 0.07072 0.0
H776 H 0.3173 0.90436 0.07762 0.0
H777 H 0.40219 0.95084 0.06466 0.0
H778 H 0.36773 0.92927 0.08508 0.0
H779 H 0.34959 0.82691 0.97454 0.0
H780 H 0.31493 0.80624 0.99542 0.0
H781 H 0.37635 0.87235 0.95599 0.0
H782 H 0.40487 0.91196 0.96595 0.0
C783 C 0.10033 0.44501 0.99352 0.0
C784 C 0.10896 0.44218 0.02202 0.0
C785 C 0.07741 0.46584 0.04017 0.0
C786 C 0.06243 0.46027 0.01298 0.0
N787 N 0.06141 0.4488 0.9626 0.0
N788 N 0.10634 0.45052 0.07305 0.0
C789 C 0.07501 0.45193 0.98905 0.0
C790 C 0.0985 0.4537 0.04554 0.0
N791 N 0.11602 0.44047 0.97106 0.0
N792 N 0.07032 0.4817 0.06095 0.0
H793 H 0.12145 0.44139 0.07813 0.0
H794 H 0.09616 0.45498 0.09101 0.0
H795 H 0.05466 0.49059 0.05707 0.0
H796 H 0.08225 0.48882 0.08068 0.0
H797 H 0.11249 0.44432 0.94976 0.0
H798 H 0.13477 0.43556 0.97415 0.0
H799 H 0.06703 0.43943 0.94466 0.0
H800 H 0.04357 0.4549 0.95896 0.0
C801 C 0.54606 0.64102 0.05741 0.0
C802 C 0.53544 0.66176 0.04665 0.0
C803 C 0.49208 0.61684 0.01994 0.0
C804 C 0.50777 0.59886 0.02471 0.0
N805 N 0.54646 0.59066 0.05108 0.0
N806 N 0.49596 0.6696 0.02156 0.0
C807 C 0.53309 0.60948 0.04524 0.0
C808 C 0.50709 0.64945 0.02968 0.0
N809 N 0.56924 0.65206 0.0784 0.0
N810 N 0.46352 0.60269 0.00517 0.0
H811 H 0.50601 0.6933 0.0294 0.0
H812 H 0.47747 0.6633 0.0067 0.0
H813 H 0.45253 0.57858 -0.00184 0.0
H814 H 0.44959 0.61358 0.00196 0.0
H815 H 0.57654 0.63759 0.08882 0.0
H816 H 0.5794 0.67539 0.08712 0.0
H817 H 0.56742 0.59841 0.06314 0.0
H818 H 0.5369 0.5671 0.04323 0.0
C819 C 0.84394 0.32824 0.97753 0.0
C820 C 0.85621 0.31488 0.95727 0.0
C821 C 0.90633 0.36632 0.9539 0.0
C822 C 0.89638 0.37745 0.97793 0.0
N823 N 0.85332 0.37607 0.00489 0.0
N824 N 0.89234 0.32329 0.91849 0.0
C825 C 0.86389 0.36089 0.98658 0.0
C826 C 0.88501 0.335 0.94243 0.0
N827 N 0.81453 0.30895 0.98956 0.0
N828 N 0.93713 0.38432 0.94421 0.0
H829 H 0.87676 0.3001 0.91031 0.0
H830 H 0.91213 0.33715 0.90556 0.0
H831 H 0.95281 0.40735 0.95252 0.0
H832 H 0.9473 0.37643 0.92864 0.0
H833 H 0.80547 0.31612 0.00666 0.0
H834 H 0.79936 0.28516 0.98254 0.0
H835 H 0.82949 0.3662 0.0114 0.0
H836 H 0.86855 0.39999 0.01165 0.0
C837 C 0.64422 0.54532 0.00456 0.0
C838 C 0.65686 0.55055 0.97633 0.0
C839 C 0.60193 0.52464 0.95717 0.0
C840 C 0.59044 0.52699 0.98455 0.0
N841 N 0.6015 0.54144 0.0349 0.0
N842 N 0.64714 0.54859 0.92511 0.0
C843 C 0.61163 0.53729 0.00862 0.0
C844 C 0.63556 0.54069 0.95236 0.0
N845 N 0.66325 0.5477 0.02738 0.0
N846 N 0.58062 0.50705 0.93575 0.0
H847 H 0.67161 0.56215 0.92045 0.0
H848 H 0.63223 0.5445 0.90738 0.0
H849 H 0.55572 0.49436 0.93893 0.0
H850 H 0.58787 0.50206 0.91619 0.0
H851 H 0.65445 0.54133 0.04813 0.0
H852 H 0.68698 0.5527 0.02499 0.0
H853 H 0.61717 0.55244 0.05223 0.0
H854 H 0.578 0.53618 0.03898 0.0
C855 C 0.46096 0.09854 0.9545 0.0
C856 C 0.47917 0.13097 0.96461 0.0
C857 C 0.49682 0.11364 0.00682 0.0
C858 C 0.4788 0.08121 0.99663 0.0
N859 N 0.44572 0.04227 0.96004 0.0
N860 N 0.5175 0.17073 -0.00223 0.0
C861 C 0.46188 0.07358 0.97001 0.0
C862 C 0.49814 0.13894 0.98999 0.0
N863 N 0.4412 0.09148 0.93102 0.0
N864 N 0.51172 0.11993 0.03307 0.0
H865 H 0.51846 0.18976 0.98616 0.0
H866 H 0.53409 0.17858 0.0146 0.0
H867 H 0.51294 0.10216 0.04498 0.0
H868 H 0.52186 0.14224 0.04364 0.0
H869 H 0.42428 0.06816 0.92436 0.0
H870 H 0.44011 0.10912 0.91885 0.0
H871 H 0.43663 0.03559 0.93927 0.0
H872 H 0.44269 0.02263 0.97194 0.0
C873 C 0.65384 0.08407 0.01327 0.0
C874 C 0.66903 0.10131 0.98812 0.0
C875 C 0.61632 0.08497 0.96648 0.0
C876 C 0.60134 0.0632 0.98922 0.0
N877 N 0.60512 0.04155 0.03474 0.0
N878 N 0.66558 0.11915 0.94071 0.0
C879 C 0.61979 0.06309 0.01312 0.0
C880 C 0.65049 0.1024 0.96483 0.0
N881 N 0.67205 0.0877 0.03713 0.0
N882 N 0.59762 0.0891 0.94669 0.0
H883 H 0.69059 0.13331 0.93912 0.0
H884 H 0.65352 0.11769 0.92168 0.0
H885 H 0.57248 0.07691 0.94784 0.0
H886 H 0.60681 0.10663 0.93089 0.0
H887 H 0.66231 0.07846 0.05709 0.0
H888 H 0.6971 0.10229 0.03756 0.0
H889 H 0.61762 0.03753 0.05096 0.0
H890 H 0.58026 0.02624 0.03577 0.0
C891 C 0.87694 0.54411 0.02469 0.0
C892 C 0.85506 0.53658 0.00156 0.0
C893 C 0.86827 0.49608 0.98372 0.0
C894 C 0.89521 0.50948 0.0023 0.0
N895 N 0.92466 0.54415 0.04215 0.0
N896 N 0.82855 0.50451 0.95911 0.0
C897 C 0.89883 0.53226 0.02388 0.0
C898 C 0.84957 0.51158 0.98151 0.0
N899 N 0.87708 0.56313 0.04691 0.0
N900 N 0.86163 0.46941 0.96751 0.0
H901 H 0.81447 0.51536 0.95657 0.0
H902 H 0.82635 0.48921 0.94207 0.0
H903 H 0.87559 0.45824 0.96901 0.0
H904 H 0.84089 0.45674 0.95495 0.0
H905 H 0.89088 0.5677 0.06548 0.0
H906 H 0.86105 0.57198 0.04776 0.0
H907 H 0.9313 0.56374 0.05608 0.0
H908 H 0.94021 0.53478 0.04232 0.0
C909 C 0.43915 0.32695 0.99144 0.0
C910 C 0.46676 0.3346 0.97504 0.0
C911 C 0.49189 0.391 0.99142 0.0
C912 C 0.46228 0.38414 0.00422 0.0
N913 N 0.4048 0.34679 0.0086 0.0
N914 N 0.51756 0.37484 0.95529 0.0
C915 C 0.43505 0.35239 0.00221 0.0
C916 C 0.4927 0.36692 0.97382 0.0
N917 N 0.41684 0.29543 0.9967 0.0
N918 N 0.51943 0.4197 0.99694 0.0
H919 H 0.51912 0.35782 0.94216 0.0
H920 H 0.53515 0.39867 0.95127 0.0
H921 H 0.52028 0.43734 0.0109 0.0
H922 H 0.54209 0.42455 0.99003 0.0
H923 H 0.39786 0.28887 0.01096 0.0
H924 H 0.41926 0.27605 0.98916 0.0
H925 H 0.38409 0.32436 0.00536 0.0
H926 H 0.39977 0.36522 0.01341 0.0
C927 C 0.11041 0.60729 0.03154 0.0
C928 C 0.11639 0.63956 0.03163 0.0
C929 C 0.06521 0.62214 0.00751 0.0
C930 C 0.06043 0.59026 0.00452 0.0
N931 N 0.08316 0.55494 0.00778 0.0
N932 N 0.10194 0.6787 0.01556 0.0
C933 C 0.08426 0.58335 0.01498 0.0
C934 C 0.0948 0.64727 0.01794 0.0
N935 N 0.12904 0.59926 0.04787 0.0
N936 N 0.0416 0.62938 0.0017 0.0
H937 H 0.12394 0.69829 0.02225 0.0
H938 H 0.08644 0.68501 0.00539 0.0
H939 H 0.01779 0.61234 0.99647 0.0
H940 H 0.01779 0.61234 0.99647 0.0
H941 H 0.12336 0.57542 0.05115 0.0
H942 H 0.14862 0.6162 0.06011 0.0
H943 H 0.10153 0.55011 0.01287 0.0
H944 H 0.06581 0.53767 0.994 0.0
C945 C 0.32605 0.4593 0.02583 0.0
C946 C 0.30535 0.43081 0.00977 0.0
C947 C 0.35165 0.43236 0.98618 0.0
C948 C 0.37204 0.4577 0.00528 0.0
N949 N 0.38113 0.50199 0.03614 0.0
N950 N 0.29705 0.39507 0.9696 0.0
C951 C 0.35994 0.47368 0.02251 0.0
C952 C 0.31774 0.41921 0.98789 0.0
N953 N 0.31315 0.47147 0.04509 0.0
N954 N 0.365 0.41979 0.96785 0.0
H955 H 0.27206 0.38424 0.97105 0.0
H956 H 0.30434 0.38681 0.95199 0.0
H957 H 0.38994 0.43012 0.96594 0.0
H958 H 0.35194 0.39934 0.95495 0.0
H959 H 0.32668 0.49014 0.05964 0.0
H960 H 0.28835 0.46223 0.04693 0.0
H961 H 0.37438 0.51619 0.04806 0.0
H962 H 0.40603 0.51257 0.03351 0.0
C963 C 0.5635 0.89145 -0.00127 0.0
C964 C 0.54966 0.8734 0.02365 0.0
C965 C 0.50971 0.89139 0.02376 0.0
C966 C 0.52696 0.91301 0.00129 0.0
N967 N 0.57782 0.9415 0.976 0.0
N968 N 0.5118 0.85869 0.06244 0.0
C969 C 0.55606 0.91535 0.99123 0.0
C970 C 0.5233 0.87402 0.03702 0.0
N971 N 0.58367 0.88575 0.98204 0.0
N972 N 0.48021 0.8866 0.03172 0.0
H973 H 0.52106 0.84549 0.07232 0.0
H974 H 0.49482 0.86104 0.07461 0.0
H975 H 0.46932 0.89835 0.02202 0.0
H976 H 0.46544 0.86904 0.04627 0.0
H977 H 0.59199 0.89678 0.96226 0.0
H978 H 0.58909 0.86755 0.98634 0.0
H979 H 0.60024 0.94478 0.97002 0.0
H980 H 0.57553 0.9619 0.97291 0.0
C981 C 0.00291 0.21219 0.37862 0.0
C982 C -0.00919 0.18524 0.35971 0.0
C983 C 0.03315 0.21758 0.32505 0.0
C984 C 0.04708 0.24309 0.3457 0.0
N985 N 0.05027 0.26013 0.39524 0.0
N986 N -0.00533 0.16059 0.31566 0.0
C987 C 0.03333 0.23911 0.37334 0.0
C988 C 0.00595 0.1874 0.33299 0.0
N989 N 0.98542 0.21209 0.40185 0.0
N990 N 0.04554 0.22242 0.29804 0.0
H991 H 0.97413 0.13875 0.32065 0.0
H992 H 0.00633 0.15956 0.29718 0.0
H993 H 0.06594 0.24396 0.29221 0.0
H994 H 0.03478 0.20592 0.28115 0.0
H995 H -0.00813 0.23267 0.41446 0.0
H996 H 0.9629 0.1926 0.40688 0.0
H997 H 0.0426 0.25642 0.41647 0.0
H998 H 0.07379 0.279 0.39289 0.0
C999 C 0.75937 0.78542 0.37799 0.0
C1000 C 0.77556 0.77858 0.35582 0.0
C1001 C 0.74973 0.79502 0.31964 0.0
C1002 C 0.73246 0.79999 0.34173 0.0
N1003 N 0.72997 0.81281 0.39124 0.0
N1004 N 0.79481 0.78748 0.30716 0.0
C1005 C 0.74112 0.80027 0.37071 0.0
C1006 C 0.77382 0.78724 0.3271 0.0
N1007 N 0.75868 0.77504 0.40532 0.0
N1008 N 0.74165 0.79582 0.29174 0.0
H1009 H 0.81291 0.78222 0.31238 0.0
H1010 H 0.79618 0.79577 0.28636 0.0
H1011 H 0.72445 0.80221 0.28623 0.0
H1012 H 0.75087 0.78898 0.27451 0.0
H1013 H 0.7442 0.77639 0.42132 0.0
H1014 H 0.77014 0.76238 0.41156 0.0
H1015 H 0.73723 0.81569 0.41267 0.0
H1016 H 0.71611 0.82339 0.38601 0.0
C1017 C 0.17412 0.98435 0.35258 0.0
C1018 C 0.19822 -0.00315 0.37426 0.0
C1019 C 0.19237 0.94346 0.38062 0.0
C1020 C 0.17487 0.93356 0.3545 0.0
N1021 N 0.14309 0.94034 0.31854 0.0
N1022 N 0.22804 -0.01148 0.41166 0.0
C1023 C 0.16301 0.95244 0.34194 0.0
C1024 C 0.20588 0.97617 0.3898 0.0
N1025 N 0.16308 0.00355 0.34173 0.0
N1026 N 0.19743 0.92195 0.39556 0.0
H1027 H 0.23786 0.01225 0.41927 0.0
H1028 H 0.23766 0.9758 0.42168 0.0
H1029 H 0.1882 0.89816 0.38852 0.0
H1030 H 0.20798 0.92659 0.41586 0.0
H1031 H 0.14463 -0.00418 0.32658 0.0
H1032 H 0.17119 0.02701 0.3495 0.0
H1033 H 0.13565 0.95349 0.30621 0.0
H1034 H 0.13421 0.91649 0.31141 0.0
C1035 C 0.51043 0.65649 0.32681 0.0
C1036 C 0.52007 0.64356 0.3039 0.0
C1037 C 0.5652 0.69718 0.29346 0.0
C1038 C 0.56001 0.70802 0.32022 0.0
N1039 N 0.52527 0.70228 0.35931 0.0
N1040 N 0.55256 0.65109 0.26222 0.0
C1041 C 0.53115 0.68918 0.33546 0.0
C1042 C 0.5457 0.66403 0.28567 0.0
N1043 N 0.48226 0.637 0.34072 0.0
N1044 N 0.58984 0.7183 0.27655 0.0
H1045 H 0.53794 0.62702 0.25571 0.0
H1046 H 0.5728 0.66368 0.24948 0.0
H1047 H 0.60455 0.74248 0.28248 0.0
H1048 H 0.59428 0.71283 0.256 0.0
H1049 H 0.47302 0.6448 0.35718 0.0
H1050 H 0.46696 0.61295 0.33447 0.0
H1051 H 0.50623 0.6896 0.37328 0.0
H1052 H 0.54013 0.72662 0.36501 0.0
C1053 C 0.30273 0.86204 0.29071 0.0
C1054 C 0.3258 0.87096 0.31321 0.0
C1055 C 0.28321 0.85474 0.34904 0.0
C1056 C 0.26106 0.84855 0.32654 0.0
N1057 N 0.24604 0.83358 0.27728 0.0
N1058 N 0.33682 0.86572 0.3627 0.0
C1059 C 0.26965 0.84732 0.2978 0.0
C1060 C 0.31553 0.86367 0.34212 0.0
N1061 N 0.31237 0.87018 0.26299 0.0
N1062 N 0.27362 0.85373 0.37674 0.0
H1063 H 0.3605 0.87188 0.35788 0.0
H1064 H 0.33033 0.85863 0.38382 0.0
H1065 H 0.24961 0.84593 0.38185 0.0
H1066 H 0.28933 0.86134 0.39427 0.0
H1067 H 0.29662 0.86754 0.2464 0.0
H1068 H 0.33643 0.88191 0.25676 0.0
H1069 H 0.25042 0.82977 0.25611 0.0
H1070 H 0.22164 0.82303 0.2824 0.0
C1071 C 0.12516 0.43119 0.28401 0.0
C1072 C 0.14289 0.46331 0.29492 0.0
C1073 C 0.15963 0.44494 0.33698 0.0
C1074 C 0.14204 0.41284 0.32598 0.0
N1075 N 0.11123 0.37513 0.28784 0.0
N1076 N 0.18045 0.50225 0.32907 0.0
C1077 C 0.12621 0.40598 0.29889 0.0
C1078 C 0.16133 0.47067 0.32058 0.0
N1079 N 0.10565 0.42456 0.26043 0.0
N1080 N 0.17367 0.45045 0.36358 0.0
H1081 H 0.18164 0.52157 0.31778 0.0
H1082 H 0.19667 0.50964 0.34618 0.0
H1083 H 0.17446 0.43231 0.37524 0.0
H1084 H 0.18347 0.47248 0.37461 0.0
H1085 H 0.08891 0.4013 0.25343 0.0
H1086 H 0.10447 0.44241 0.24865 0.0
H1087 H 0.10307 0.3693 0.26673 0.0
H1088 H 0.10843 0.35524 0.29919 0.0
C1089 C 0.31525 0.43768 0.30144 0.0
C1090 C 0.33298 0.42927 0.32051 0.0
C1091 C 0.28295 0.38559 0.34006 0.0
C1092 C 0.26519 0.39386 0.32083 0.0
N1093 N 0.26335 0.43191 0.28874 0.0
N1094 N 0.33457 0.40118 0.36249 0.0
C1095 C 0.28108 0.42135 0.30328 0.0
C1096 C 0.31705 0.40518 0.34139 0.0
N1097 N 0.33102 0.46036 0.28088 0.0
N1098 N 0.26745 0.35792 0.35574 0.0
H1099 H 0.35968 0.41489 0.36372 0.0
H1100 H 0.3242 0.38635 0.38009 0.0
H1101 H 0.24246 0.3431 0.35587 0.0
H1102 H 0.27943 0.34845 0.36726 0.0
H1103 H 0.31932 0.46491 0.26429 0.0
H1104 H 0.35609 0.47343 0.2793 0.0
H1105 H 0.27343 0.4534 0.27737 0.0
H1106 H 0.23832 0.42062 0.29044 0.0
C1107 C 0.54313 0.87559 0.35553 0.0
C1108 C 0.52284 0.87191 0.33198 0.0
C1109 C 0.53496 0.83271 0.30934 0.0
C1110 C 0.56029 0.84211 0.32932 0.0
N1111 N 0.58622 0.8676 0.37391 0.0
N1112 N 0.49582 0.84461 0.28801 0.0
C1113 C 0.56302 0.86133 0.35372 0.0
C1114 C 0.51698 0.84902 0.30968 0.0
N1115 N 0.5438 0.89338 0.37899 0.0
N1116 N 0.52915 0.80892 0.28968 0.0
H1117 H 0.4816 0.85554 0.28813 0.0
H1118 H 0.49294 0.831 0.2695 0.0
H1119 H 0.54253 0.79704 0.28961 0.0
H1120 H 0.50984 0.79917 0.2753 0.0
H1121 H 0.55667 0.89574 0.39771 0.0
H1122 H 0.52942 0.90411 0.38041 0.0
H1123 H 0.59223 0.88415 0.39077 0.0
H1124 H 0.59996 0.85615 0.37339 0.0
C1125 C 0.10548 0.65948 0.32898 0.0
C1126 C 0.13268 0.66645 0.31225 0.0
C1127 C 0.15884 0.72301 0.328 0.0
C1128 C 0.12932 0.71712 0.3403 0.0
N1129 N 0.07185 0.68021 0.34613 0.0
N1130 N 0.18396 0.70562 0.29246 0.0
C1131 C 0.10188 0.68541 0.33939 0.0
C1132 C 0.15914 0.69844 0.31084 0.0
N1133 N 0.08293 0.62815 0.33461 0.0
N1134 N 0.18672 0.7514 0.33351 0.0
H1135 H 0.18526 0.6882 0.27969 0.0
H1136 H 0.20191 0.72926 0.28827 0.0
H1137 H 0.18786 0.76916 0.34751 0.0
H1138 H 0.20927 0.7557 0.3268 0.0
H1139 H 0.06422 0.62199 0.34909 0.0
H1140 H 0.08496 0.60853 0.32711 0.0
H1141 H 0.05101 0.65777 0.34358 0.0
H1142 H 0.06694 0.69878 0.35057 0.0
C1143 C 0.77331 0.94208 0.36608 0.0
C1144 C 0.77849 0.97402 0.36828 0.0
C1145 C 0.72727 0.95705 0.34434 0.0
C1146 C 0.72381 0.92606 0.33869 0.0
N1147 N 0.74789 0.89184 0.33897 0.0
N1148 N 0.76228 0.01308 0.35621 0.0
C1149 C 0.74787 0.9191 0.34831 0.0
C1150 C 0.75621 0.98186 0.35619 0.0
N1151 N 0.79219 0.93351 0.38139 0.0
N1152 N 0.70312 0.96369 0.33925 0.0
H1153 H 0.78382 0.03259 0.36384 0.0
H1154 H 0.7463 0.01948 0.34715 0.0
H1155 H 0.67983 0.94653 0.33265 0.0
H1156 H 0.67983 0.94653 0.33265 0.0
H1157 H 0.78713 0.90965 0.383 0.0
H1158 H 0.81116 0.94976 0.39459 0.0
H1159 H 0.76656 0.88723 0.34341 0.0
H1160 H 0.7312 0.87556 0.32417 0.0
C1161 C -0.01182 0.76622 0.31971 0.0
C1162 C 0.97661 0.77225 0.34571 0.0
C1163 C 0.03187 0.81062 0.36115 0.0
C1164 C 0.04314 0.79917 0.33845 0.0
N1165 N 0.03429 0.7706 0.29373 0.0
N1166 N 0.98635 0.80171 0.39047 0.0
C1167 C 0.02192 0.77895 0.31655 0.0
C1168 C -0.00185 0.79553 0.36597 0.0
N1169 N 0.96684 0.74795 0.2985 0.0
N1170 N 0.05367 0.83515 0.37845 0.0
H1171 H 0.96174 0.79161 0.39434 0.0
H1172 H 0.00074 0.81568 0.40758 0.0
H1173 H 0.07845 0.84625 0.37491 0.0
H1174 H 0.0474 0.84637 0.39443 0.0
H1175 H 0.9736 0.74426 0.27824 0.0
H1176 H 0.94197 0.73804 0.30057 0.0
H1177 H 0.02043 0.75324 0.27826 0.0
H1178 H 0.05913 0.78114 0.29071 0.0
C1179 C 0.19628 0.21365 0.37014 0.0
C1180 C 0.22468 0.21606 0.35814 0.0
C1181 C 0.228 0.25626 0.32473 0.0
C1182 C 0.19734 0.25059 0.33356 0.0
N1183 N 0.15017 0.22122 0.36284 0.0
N1184 N 0.26316 0.23393 0.31944 0.0
C1185 C 0.18085 0.22872 0.35599 0.0
C1186 C 0.23946 0.23587 0.33419 0.0
N1187 N 0.18443 0.19738 0.39514 0.0
N1188 N 0.24625 0.28228 0.30793 0.0
H1189 H 0.27194 0.21865 0.32514 0.0
H1190 H 0.27168 0.24491 0.29971 0.0
H1191 H 0.27008 0.29002 0.30229 0.0
H1192 H 0.27008 0.29002 0.30229 0.0
H1193 H 0.1657 0.19744 0.40644 0.0
H1194 H 0.19518 0.18601 0.40579 0.0
H1195 H 0.13589 0.20322 0.37724 0.0
H1196 H 0.13797 0.23116 0.35233 0.0
C1197 C 0.68072 0.539 0.72084 0.0
C1198 C 0.66218 0.5155 0.69961 0.0
C1199 C 0.69892 0.5504 0.66239 0.0
C1200 C 0.7185 0.57232 0.68427 0.0
N1201 N 0.73333 0.58244 0.7344 0.0
N1202 N 0.65495 0.4963 0.6506 0.0
C1203 C 0.71108 0.56488 0.71352 0.0
C1204 C 0.67165 0.52038 0.67037 0.0
N1205 N 0.66879 0.53736 0.74781 0.0
N1206 N 0.70606 0.55861 0.63431 0.0
H1207 H 0.63462 0.47445 0.65592 0.0
H1208 H 0.66228 0.49717 0.62945 0.0
H1209 H 0.72655 0.57997 0.62824 0.0
H1210 H 0.69111 0.54515 0.61726 0.0
H1211 H 0.68018 0.55589 0.76305 0.0
H1212 H 0.64594 0.51929 0.754 0.0
H1213 H 0.73007 0.57607 0.75595 0.0
H1214 H 0.75648 0.60111 0.72976 0.0
C1215 C 0.44244 0.12097 0.6593 0.0
C1216 C 0.44629 0.11131 0.68704 0.0
C1217 C 0.40919 0.12771 0.70635 0.0
C1218 C 0.3993 0.12891 0.67812 0.0
N1219 N 0.40786 0.13054 0.62738 0.0
N1220 N 0.43136 0.10343 0.73724 0.0
C1221 C 0.41685 0.12744 0.6544 0.0
C1222 C 0.42983 0.11493 0.71089 0.0
N1223 N 0.46294 0.12343 0.63787 0.0
N1224 N 0.39731 0.13722 0.72874 0.0
H1225 H 0.44504 0.09249 0.74157 0.0
H1226 H 0.41676 0.10217 0.7543 0.0
H1227 H 0.38179 0.1464 0.72552 0.0
H1228 H 0.40539 0.13913 0.74983 0.0
H1229 H 0.46289 0.13253 0.61769 0.0
H1230 H 0.48191 0.11891 0.64123 0.0
H1231 H 0.41741 0.12643 0.6088 0.0
H1232 H 0.38986 0.13642 0.62382 0.0
C1233 C 0.87986 0.31039 0.71867 0.0
C1234 C 0.87233 0.33172 0.70399 0.0
C1235 C 0.83243 0.28694 0.67436 0.0
C1236 C 0.84248 0.26662 0.68701 0.0
N1237 N 0.86519 0.25484 0.72788 0.0
N1238 N 0.83516 0.33922 0.67463 0.0
C1239 C 0.86214 0.27691 0.71187 0.0
C1240 C 0.84619 0.31949 0.68421 0.0
N1241 N 0.90562 0.32228 0.73714 0.0
N1242 N 0.81149 0.27543 0.65163 0.0
H1243 H 0.84492 0.36316 0.68177 0.0
H1244 H 0.81488 0.33129 0.66157 0.0
H1245 H 0.80045 0.25115 0.64515 0.0
H1246 H 0.80582 0.28975 0.63895 0.0
H1247 H 0.91444 0.30815 0.74579 0.0
H1248 H 0.91988 0.34677 0.74231 0.0
H1249 H 0.87704 0.2603 0.74765 0.0
H1250 H 0.85281 0.23029 0.72265 0.0
C1251 C 0.17772 -0.0113 0.65187 0.0
C1252 C 0.18943 0.97629 0.63021 0.0
C1253 C 0.23726 0.02928 0.62437 0.0
C1254 C 0.22903 0.03929 0.65015 0.0
N1255 N 0.18945 0.03389 0.68426 0.0
N1256 N 0.22531 0.98485 0.59107 0.0
C1257 C 0.19799 0.0209 0.662 0.0
C1258 C 0.21725 -0.003 0.61435 0.0
N1259 N 0.1481 0.96901 0.66346 0.0
N1260 N 0.26535 0.05002 0.61101 0.0
H1261 H 0.21041 0.96134 0.58329 0.0
H1262 H 0.24613 -0.00229 0.57912 0.0
H1263 H 0.28028 0.07349 0.61865 0.0
H1264 H 0.27326 0.04499 0.59192 0.0
H1265 H 0.13778 0.97602 0.67957 0.0
H1266 H 0.13306 0.94542 0.6559 0.0
H1267 H 0.1679 0.02179 0.6954 0.0
H1268 H 0.2044 0.05781 0.69115 0.0
C1269 C 0.96773 0.19728 0.62623 0.0
C1270 C -0.00915 0.20448 0.64836 0.0
C1271 C 0.94831 0.18585 0.68453 0.0
C1272 C 0.92593 0.18059 0.66248 0.0
N1273 N 0.91109 0.16915 0.61276 0.0
N1274 N 0.00194 0.19606 0.69699 0.0
C1275 C 0.93463 0.18164 0.63342 0.0
C1276 C 0.98066 0.19538 0.67707 0.0
N1277 N 0.97732 0.2078 0.59893 0.0
N1278 N 0.9389 0.1833 0.71243 0.0
H1279 H 0.02563 0.20256 0.69185 0.0
H1280 H -0.0046 0.18747 0.71774 0.0
H1281 H 0.9149 0.17506 0.71791 0.0
H1282 H 0.95477 0.19021 0.72981 0.0
H1283 H 0.96149 0.20636 0.58287 0.0
H1284 H 0.0014 0.22047 0.59277 0.0
H1285 H 0.91563 0.16708 0.59121 0.0
H1286 H 0.88665 0.15781 0.61789 0.0
C1287 C 0.82824 0.80085 0.65401 0.0
C1288 C 0.81065 0.79345 0.62786 0.0
C1289 C 0.79533 0.73637 0.63164 0.0
C1290 C 0.80965 0.74309 0.65938 0.0
N1291 N 0.83994 0.78073 0.69741 0.0
N1292 N 0.77603 0.75476 0.59201 0.0
C1293 C 0.82655 0.77519 0.67053 0.0
C1294 C 0.79429 0.76145 0.61644 0.0
N1295 N 0.84655 0.83242 0.66285 0.0
N1296 N 0.78182 0.70577 0.62023 0.0
H1297 H 0.77494 0.77252 0.58003 0.0
H1298 H 0.76026 0.73147 0.58439 0.0
H1299 H 0.77946 0.68608 0.63163 0.0
H1300 H 0.77475 0.70009 0.59885 0.0
H1301 H 0.86213 0.83994 0.68044 0.0
H1302 H 0.84775 0.85167 0.65142 0.0
H1303 H 0.84913 0.80262 0.70856 0.0
H1304 H 0.84096 0.76272 0.70911 0.0
C1305 C -0.01046 0.75749 0.69059 0.0
C1306 C 0.00201 0.77604 0.66546 0.0
C1307 C 0.94754 0.76178 0.65005 0.0
C1308 C 0.93525 0.73799 0.67142 0.0
N1309 N 0.94213 0.71601 0.71501 0.0
N1310 N -0.00569 0.79982 0.62298 0.0
C1311 C 0.95559 0.73741 0.69314 0.0
C1312 C 0.98142 0.78 0.646 0.0
N1313 N 0.01023 0.75861 0.71139 0.0
N1314 N 0.92644 0.76578 0.63322 0.0
H1315 H 0.01911 0.81423 0.62004 0.0
H1316 H 0.9807 0.80148 0.60638 0.0
H1317 H 0.90156 0.75236 0.63641 0.0
H1318 H 0.9333 0.78372 0.61794 0.0
H1319 H 0.00292 0.74718 0.73104 0.0
H1320 H 0.03522 0.77283 0.70969 0.0
H1321 H 0.95519 0.71154 0.73033 0.0
H1322 H 0.91715 0.70226 0.71749 0.0
C1323 C 0.1824 0.17389 0.64499 0.0
C1324 C 0.18577 0.19706 0.66615 0.0
C1325 C 0.22418 0.18779 0.69299 0.0
C1326 C 0.2246 0.16886 0.6696 0.0
N1327 N 0.19839 0.13521 0.62861 0.0
N1328 N 0.20265 0.22025 0.71348 0.0
C1329 C 0.20124 0.15859 0.64754 0.0
C1330 C 0.20398 0.2017 0.69153 0.0
N1331 N 0.16268 0.16819 0.62178 0.0
N1332 N 0.24481 0.19387 0.71549 0.0
H1333 H 0.18818 0.23087 0.71258 0.0
H1334 H 0.21434 0.22385 0.73313 0.0
H1335 H 0.25842 0.18233 0.71696 0.0
H1336 H 0.24848 0.20977 0.73242 0.0
H1337 H 0.16135 0.15408 0.60408 0.0
H1338 H 0.14782 0.17831 0.61997 0.0
H1339 H 0.18097 0.12517 0.61248 0.0
H1340 H 0.21237 0.12411 0.63067 0.0
C1341 C 0.82186 0.02922 0.64109 0.0
C1342 C 0.79501 -0.00265 0.64081 0.0
C1343 C 0.76302 0.01601 0.66643 0.0
C1344 C 0.79073 0.04738 0.66954 0.0
N1345 N 0.8486 0.08135 0.66531 0.0
N1346 N 0.7413 0.95932 0.65681 0.0
C1347 C 0.82081 0.05344 0.65831 0.0
C1348 C 0.76627 -0.00959 0.65501 0.0
N1349 N 0.84793 0.03665 0.62423 0.0
N1350 N 0.7327 0.00977 0.67297 0.0
H1351 H 0.74276 0.93943 0.64918 0.0
H1352 H 0.71985 0.95353 0.66731 0.0
H1353 H 0.72676 0.0273 0.67894 0.0
H1354 H 0.72676 0.0273 0.67894 0.0
H1355 H 0.86641 0.0603 0.62102 0.0
H1356 H 0.84981 0.01948 0.61158 0.0
H1357 H 0.87141 0.08551 0.65969 0.0
H1358 H 0.84931 0.09887 0.67932 0.0
C1359 C 0.43219 0.31442 0.66868 0.0
C1360 C 0.44883 0.30727 0.68977 0.0
C1361 C 0.41603 0.24969 0.67849 0.0
C1362 C 0.39507 0.25622 0.66201 0.0
N1363 N 0.38156 0.29444 0.64294 0.0
N1364 N 0.45428 0.26786 0.71775 0.0
C1365 C 0.40307 0.28877 0.65722 0.0
C1366 C 0.44018 0.27483 0.69554 0.0
N1367 N 0.44449 0.34544 0.65936 0.0
N1368 N 0.41425 0.22025 0.67655 0.0
H1369 H 0.47207 0.28561 0.73096 0.0
H1370 H 0.44621 0.2443 0.72452 0.0
H1371 H 0.39957 0.20273 0.66146 0.0
H1372 H 0.43052 0.21513 0.68681 0.0
H1373 H 0.43545 0.35147 0.6416 0.0
H1374 H 0.46583 0.36474 0.66757 0.0
H1375 H 0.38395 0.31723 0.64032 0.0
H1376 H 0.38395 0.31723 0.64032 0.0
C1377 C 0.65503 0.09727 0.64883 0.0
C1378 C 0.64218 0.10877 0.67022 0.0
C1379 C 0.69691 0.14822 0.68573 0.0
C1380 C 0.70768 0.12874 0.67198 0.0
N1381 N 0.69888 0.08828 0.63593 0.0
N1382 N 0.65317 0.16 0.69008 0.0
C1383 C 0.68746 0.10466 0.6517 0.0
C1384 C 0.66389 0.13922 0.68287 0.0
N1385 N 0.63818 0.08388 0.62409 0.0
N1386 N 0.71747 0.17371 0.70278 0.0
H1387 H 0.62941 0.15414 0.68576 0.0
H1388 H 0.66828 0.18364 0.69733 0.0
H1389 H 0.74197 0.1812 0.70446 0.0
H1390 H 0.70994 0.18653 0.71584 0.0
H1391 H 0.64754 0.07724 0.60681 0.0
H1392 H 0.61684 0.08402 0.61966 0.0
H1393 H 0.68396 0.06811 0.6232 0.0
H1394 H 0.72308 0.09434 0.63655 0.0
C1395 C 0.85634 0.54197 0.70308 0.0
C1396 C 0.87103 0.52978 0.68406 0.0
C1397 C 0.85141 0.54663 0.64311 0.0
C1398 C 0.84419 0.56537 0.66222 0.0
N1399 N 0.81951 0.56284 0.70737 0.0
N1400 N 0.87779 0.51487 0.63598 0.0
C1401 C 0.84035 0.55765 0.69148 0.0
C1402 C 0.86641 0.52968 0.65397 0.0
N1403 N 0.85922 0.54027 0.73204 0.0
N1404 N 0.8434 0.54514 0.6148 0.0
H1405 H 0.88772 0.50115 0.64343 0.0
H1406 H 0.87829 0.51679 0.61376 0.0
H1407 H 0.83109 0.55659 0.6073 0.0
H1408 H 0.84605 0.53055 0.59955 0.0
H1409 H 0.85197 0.55198 0.74673 0.0
H1410 H 0.87039 0.52851 0.74126 0.0
H1411 H 0.81225 0.55329 0.72776 0.0
H1412 H 0.80603 0.57234 0.69845 0.0
C1413 C 0.51925 -0.00162 0.15163 0.0
C1414 C 0.49384 0.96964 0.16351 0.0
C1415 C 0.47398 0.94855 0.11503 0.0
C1416 C 0.49514 0.97949 0.10394 0.0
N1417 N 0.5386 0.03404 0.11065 0.0
N1418 N 0.44524 0.91787 0.15655 0.0
C1419 C 0.5184 0.00435 0.12189 0.0
C1420 C 0.47105 0.94449 0.1452 0.0
N1421 N 0.54416 0.01976 0.16881 0.0
N1422 N 0.45627 0.92329 0.09653 0.0
H1423 H 0.44143 0.91423 0.17852 0.0
H1424 H 0.42607 0.90058 0.14423 0.0
H1425 H 0.45807 0.92595 0.0743 0.0
H1426 H 0.44249 0.89939 0.10305 0.0
H1427 H 0.56473 0.03983 0.16108 0.0
H1428 H 0.54555 0.01579 0.19059 0.0
H1429 H 0.55343 0.05448 0.12306 0.0
H1430 H 0.53946 0.03843 0.0887 0.0
C1431 C 0.01313 0.53327 0.13197 0.0
C1432 C 0.01468 0.51101 0.15092 0.0
C1433 C 0.96849 0.46712 0.12622 0.0
C1434 C 0.97463 0.48741 0.10225 0.0
N1435 N -0.00459 0.54202 0.08588 0.0
N1436 N -0.00718 0.45577 0.16647 0.0
C1437 C -0.00562 0.52137 0.10635 0.0
C1438 C -0.00841 0.47766 0.14864 0.0
N1439 N 0.02935 0.56553 0.13881 0.0
N1440 N 0.94061 0.43805 0.12751 0.0
H1441 H 0.00971 0.46237 0.183 0.0
H1442 H 0.97848 0.43084 0.16334 0.0
H1443 H 0.92224 0.43118 0.11227 0.0
H1444 H 0.93424 0.42315 0.14534 0.0
H1445 H 0.02739 0.58297 0.12719 0.0
H1446 H 0.04261 0.57445 0.15783 0.0
H1447 H 0.01251 0.56655 0.08552 0.0
H1448 H 0.97845 0.53436 0.06938 0.0
C1449 C 0.51373 0.49053 0.15249 0.0
C1450 C 0.50459 0.51045 0.16799 0.0
C1451 C 0.49456 0.53023 0.12299 0.0
C1452 C 0.50124 0.5084 0.10794 0.0
N1453 N 0.52859 0.47784 0.1064 0.0
N1454 N 0.49637 0.55639 0.16859 0.0
C1455 C 0.51521 0.49238 0.1222 0.0
C1456 C 0.49855 0.53291 0.15335 0.0
N1457 N 0.51835 0.46804 0.16634 0.0
N1458 N 0.48273 0.54679 0.10842 0.0
H1459 H 0.49953 0.55889 0.19082 0.0
H1460 H 0.49426 0.57491 0.15913 0.0
H1461 H 0.481 0.54595 0.08607 0.0
H1462 H 0.47391 0.56045 0.11834 0.0
H1463 H 0.52131 0.45039 0.15566 0.0
H1464 H 0.51691 0.46535 0.18852 0.0
H1465 H 0.54136 0.46767 0.11541 0.0
H1466 H 0.52957 0.47903 0.08403 0.0
C1467 C 0.0155 0.48893 0.85617 0.0
C1468 C 0.98718 0.47054 0.83946 0.0
C1469 C 0.95513 0.44839 0.88275 0.0
C1470 C 0.9828 0.4691 0.89922 0.0
N1471 N 0.04041 0.49953 0.90347 0.0
N1472 N 0.93313 0.42515 0.83581 0.0
C1473 C 0.01349 0.48574 0.88639 0.0
C1474 C 0.958 0.44742 0.85251 0.0
N1475 N 0.04351 0.51104 0.84345 0.0
N1476 N 0.92596 0.43156 0.89592 0.0
H1477 H 0.93489 0.42402 0.81356 0.0
H1478 H 0.91204 0.40618 0.84408 0.0
H1479 H 0.92377 0.43146 0.9182 0.0
H1480 H 0.90411 0.41878 0.88493 0.0
H1481 H 0.0639 0.52777 0.85487 0.0
H1482 H 0.04586 0.51393 0.82129 0.0
H1483 H 0.0638 0.51018 0.89559 0.0
H1484 H 0.03893 0.49741 0.92577 0.0
C1485 C 0.46702 0.44225 0.86698 0.0
C1486 C 0.49923 0.45965 0.857 0.0
C1487 C 0.51178 0.50212 0.89295 0.0
C1488 C 0.48114 0.48235 0.90586 0.0
N1489 N 0.42974 0.43319 0.9058 0.0
N1490 N 0.55379 0.50382 0.863 0.0
C1491 C 0.45874 0.45227 0.89298 0.0
C1492 C 0.52197 0.48908 0.87052 0.0
N1493 N 0.44431 0.41663 0.85119 0.0
N1494 N 0.53128 0.53349 0.90178 0.0
H1495 H 0.56263 0.49499 0.84696 0.0
H1496 H 0.57208 0.5233 0.87435 0.0
H1497 H 0.52563 0.54463 0.91818 0.0
H1498 H 0.5519 0.54978 0.8908 0.0
H1499 H 0.41977 0.40478 0.85573 0.0
H1500 H 0.4497 0.40896 0.83198 0.0
H1501 H 0.41374 0.40946 0.89936 0.0
H1502 H 0.4224 0.4407 0.92396 0.0
C1503 C 0.48712 0.03618 0.86504 0.0
C1504 C 0.4733 0.00989 0.84517 0.0
C1505 C 0.44811 0.9725 0.88475 0.0
C1506 C 0.46816 -0.00261 0.90438 0.0
N1507 N 0.5057 0.05408 0.91376 0.0
N1508 N 0.44039 0.95251 0.83575 0.0
C1509 C 0.48671 0.02981 0.89486 0.0
C1510 C 0.4531 0.97791 0.85487 0.0
N1511 N 0.5007 0.06714 0.8553 0.0
N1512 N 0.42499 0.94339 0.89502 0.0
H1513 H 0.44343 0.95544 0.81364 0.0
H1514 H 0.42867 0.92838 0.84191 0.0
H1515 H 0.42111 0.93935 0.917 0.0
H1516 H 0.40789 0.92478 0.88205 0.0
H1517 H 0.50841 0.08729 0.86876 0.0
H1518 H 0.5015 0.07238 0.83354 0.0
H1519 H 0.52299 0.0772 0.9075 0.0
H1520 H 0.50504 0.05095 0.93584 0.0
C1521 C 0.14369 0.27888 0.47558 0.0
C1522 C 0.14599 0.30241 0.49622 0.0
C1523 C 0.15764 0.34057 0.45743 0.0
C1524 C 0.15787 0.31843 0.43718 0.0
N1525 N 0.15686 0.26815 0.42788 0.0
N1526 N 0.12847 0.34186 0.49841 0.0
C1527 C 0.15321 0.28827 0.44661 0.0
C1528 C 0.14584 0.32992 0.48515 0.0
N1529 N 0.12581 0.24676 0.48156 0.0
N1530 N 0.16692 0.37148 0.44961 0.0
H1531 H 0.11348 0.33014 0.51572 0.0
H1532 H 0.12527 0.3601 0.48962 0.0
H1533 H 0.17596 0.3801 0.42923 0.0
H1534 H 0.16842 0.38887 0.46432 0.0
H1535 H 0.12146 0.2284 0.46682 0.0
H1536 H 0.11028 0.23868 0.49904 0.0
H1537 H 0.15654 0.24713 0.43433 0.0
H1538 H 0.16364 0.27429 0.40663 0.0
C1539 C 0.65853 0.81161 0.47896 0.0
C1540 C 0.68187 0.84466 0.48304 0.0
C1541 C 0.66542 0.85834 0.43792 0.0
C1542 C 0.64614 0.8247 0.43192 0.0
N1543 N 0.6109 0.77282 0.45247 0.0
N1544 N 0.69847 0.90012 0.47311 0.0
C1545 C 0.63791 0.8026 0.45471 0.0
C1546 C 0.68218 0.86833 0.46468 0.0
N1547 N 0.65761 0.78864 0.49678 0.0
N1548 N 0.66841 0.88047 0.4181 0.0
H1549 H 0.71034 0.90754 0.49291 0.0
H1550 H 0.69788 0.91858 0.46192 0.0
H1551 H 0.65261 0.87448 0.40078 0.0
H1552 H 0.68585 0.90488 0.41928 0.0
H1553 H 0.64352 0.76389 0.49258 0.0
H1554 H 0.6724 0.79428 0.51484 0.0
H1555 H 0.60251 0.75625 0.46911 0.0
H1556 H 0.5952 0.76646 0.43491 0.0
C1557 C 0.17638 0.81706 0.4836 0.0
C1558 C 0.1667 0.83579 0.5003 0.0
C1559 C 0.15677 0.85778 0.45678 0.0
C1560 C 0.16518 0.83809 0.44023 0.0
N1561 N 0.19253 0.80749 0.4368 0.0
N1562 N 0.15843 0.88167 0.50339 0.0
C1563 C 0.17868 0.82096 0.45341 0.0
C1564 C 0.16064 0.8589 0.48702 0.0
N1565 N 0.18098 0.79393 0.4962 0.0
N1566 N 0.14328 0.87373 0.44372 0.0
H1567 H 0.16161 0.88325 0.52563 0.0
H1568 H 0.15663 0.90075 0.49475 0.0
H1569 H 0.14075 0.87367 0.42148 0.0
H1570 H 0.13318 0.88548 0.45492 0.0
H1571 H 0.18444 0.7771 0.48462 0.0
H1572 H 0.17902 0.78991 0.51821 0.0
H1573 H 0.2051 0.7968 0.44519 0.0
H1574 H 0.19412 0.80995 0.41455 0.0
C1575 C 0.6275 0.77832 0.18503 0.0
C1576 C 0.65767 0.79822 0.17193 0.0
C1577 C 0.68322 0.81605 0.2189 0.0
C1578 C 0.65216 0.8029 0.23105 0.0
N1579 N 0.59446 0.77019 0.22692 0.0
N1580 N 0.71508 0.83372 0.17557 0.0
C1581 C 0.62417 0.7827 0.21468 0.0
C1582 C 0.68605 0.81563 0.18867 0.0
N1583 N 0.60202 0.75641 0.16869 0.0
N1584 N 0.70977 0.83026 0.23641 0.0
H1585 H 0.71784 0.83329 0.15341 0.0
H1586 H 0.73616 0.85001 0.1864 0.0
H1587 H 0.70788 0.83178 0.2586 0.0
H1588 H 0.73314 0.83813 0.22939 0.0
H1589 H 0.57985 0.73962 0.17718 0.0
H1590 H 0.60421 0.75319 0.14678 0.0
H1591 H 0.57289 0.75832 0.21538 0.0
H1592 H 0.59151 0.77309 0.24872 0.0
C1593 C 0.14267 0.77546 0.20556 0.0
C1594 C 0.16674 0.79836 0.18717 0.0
C1595 C 0.16463 0.84163 0.2136 0.0
C1596 C 0.14955 0.82031 0.23671 0.0
N1597 N 0.11439 0.76519 0.25094 0.0
N1598 N 0.20091 0.85424 0.17378 0.0
C1599 C 0.13511 0.7865 0.23145 0.0
C1600 C 0.1773 0.83174 0.19075 0.0
N1601 N 0.12685 0.74344 0.19781 0.0
N1602 N 0.16692 0.87133 0.21379 0.0
H1603 H 0.21152 0.84822 0.1571 0.0
H1604 H 0.21174 0.87905 0.17784 0.0
H1605 H 0.15607 0.87813 0.22975 0.0
H1606 H 0.17596 0.88716 0.19662 0.0
H1607 H 0.10742 0.72557 0.20895 0.0
H1608 H 0.13156 0.73514 0.17861 0.0
H1609 H 0.10671 0.74057 0.25063 0.0
H1610 H 0.10399 0.77224 0.26705 0.0
C1611 C 0.10905 0.32682 0.19063 0.0
C1612 C 0.13785 0.35233 0.17916 0.0
C1613 C 0.16152 0.36568 0.2272 0.0
C1614 C 0.13714 0.33471 0.23651 0.0
N1615 N 0.08458 0.28791 0.22866 0.0
N1616 N 0.1737 0.40779 0.19298 0.0
C1617 C 0.10965 0.31609 0.21883 0.0
C1618 C 0.15924 0.37573 0.19922 0.0
N1619 N 0.08065 0.31607 0.17619 0.0
N1620 N 0.18778 0.38482 0.244 0.0
H1621 H 0.16792 0.41566 0.17425 0.0
H1622 H 0.18739 0.42607 0.2079 0.0
H1623 H 0.19077 0.37887 0.26473 0.0
H1624 H 0.20758 0.40582 0.23642 0.0
H1625 H 0.05832 0.29947 0.18457 0.0
H1626 H 0.07949 0.32713 0.15737 0.0
H1627 H 0.06565 0.27158 0.2155 0.0
H1628 H 0.08351 0.28051 0.24979 0.0
C1629 C 0.82396 0.62114 0.81325 0.0
C1630 C 0.83117 0.64712 0.83265 0.0
C1631 C 0.84268 0.68364 0.79221 0.0
C1632 C 0.83405 0.65726 0.77292 0.0
N1633 N 0.82912 0.60516 0.76498 0.0
N1634 N 0.85591 0.70462 0.84108 0.0
C1635 C 0.82898 0.62742 0.78343 0.0
C1636 C 0.84337 0.67896 0.82224 0.0
N1637 N 0.81035 0.59015 0.82296 0.0
N1638 N 0.84931 0.71294 0.78167 0.0
H1639 H 0.85711 0.70191 0.86314 0.0
H1640 H 0.86762 0.72869 0.8348 0.0
H1641 H 0.85165 0.71772 0.75974 0.0
H1642 H 0.85149 0.73203 0.7944 0.0
H1643 H 0.80127 0.56996 0.80936 0.0
H1644 H 0.80552 0.58423 0.84453 0.0
H1645 H 0.82859 0.58418 0.77181 0.0
H1646 H 0.8341 0.60996 0.74332 0.0
C1647 C 0.32893 0.14043 0.81507 0.0
C1648 C 0.349 0.17423 0.81903 0.0
C1649 C 0.32661 0.18415 0.77549 0.0
C1650 C 0.31059 0.15039 0.76951 0.0
N1651 N 0.28103 0.09816 0.79156 0.0
N1652 N 0.35755 0.2275 0.81017 0.0
C1653 C 0.30636 0.12911 0.79221 0.0
C1654 C 0.34463 0.19593 0.80154 0.0
N1655 N 0.33279 0.11911 0.83158 0.0
N1656 N 0.3249 0.20472 0.75643 0.0
H1657 H 0.37022 0.23612 0.8295 0.0
H1658 H 0.35341 0.24426 0.79971 0.0
H1659 H 0.30795 0.19651 0.73985 0.0
H1660 H 0.33953 0.22977 0.7575 0.0
H1661 H 0.32107 0.09433 0.8271 0.0
H1662 H 0.34935 0.12633 0.84846 0.0
H1663 H 0.27582 0.08213 0.80838 0.0
H1664 H 0.26323 0.09019 0.7756 0.0
C1665 C 0.85099 0.15509 0.81925 0.0
C1666 C 0.84047 0.17358 0.8352 0.0
C1667 C 0.82695 0.19137 0.7909 0.0
C1668 C 0.83545 0.17121 0.7752 0.0
N1669 N 0.86528 0.14312 0.77251 0.0
N1670 N 0.82933 0.21761 0.83648 0.0
C1671 C 0.85124 0.15658 0.78886 0.0
C1672 C 0.83234 0.19476 0.82101 0.0
N1673 N 0.85833 0.13434 0.83288 0.0
N1674 N 0.81166 0.20525 0.77736 0.0
H1675 H 0.8334 0.22062 0.8586 0.0
H1676 H 0.82589 0.2354 0.82713 0.0
H1677 H 0.80779 0.20332 0.75521 0.0
H1678 H 0.80148 0.2172 0.78813 0.0
H1679 H 0.86253 0.11756 0.82211 0.0
H1680 H 0.85825 0.13242 0.85512 0.0
H1681 H 0.87938 0.13417 0.78098 0.0
H1682 H 0.86525 0.14388 0.75013 0.0
C1683 C 0.29201 0.10766 0.52169 0.0
C1684 C 0.32111 0.13073 0.5087 0.0
C1685 C 0.34549 0.15092 0.55583 0.0
C1686 C 0.31434 0.13353 0.56789 0.0
N1687 N 0.25778 0.09461 0.56343 0.0
N1688 N 0.37653 0.17322 0.51261 0.0
C1689 C 0.28761 0.11098 0.5513 0.0
C1690 C 0.34853 0.15147 0.52557 0.0
N1691 N 0.26844 0.08343 0.50533 0.0
N1692 N 0.37176 0.16777 0.57336 0.0
H1693 H 0.37962 0.17359 0.49046 0.0
H1694 H 0.39616 0.19172 0.52359 0.0
H1695 H 0.36986 0.16814 0.59564 0.0
H1696 H 0.39544 0.17893 0.56615 0.0
H1697 H 0.24751 0.06443 0.51382 0.0
H1698 H 0.27141 0.08084 0.48345 0.0
H1699 H 0.23664 0.08053 0.55173 0.0
H1700 H 0.25409 0.09646 0.58526 0.0
C1701 C 0.81054 0.10735 0.53924 0.0
C1702 C 0.83392 0.13135 0.52115 0.0
C1703 C 0.83025 0.17277 0.54923 0.0
C1704 C 0.81581 0.15048 0.57182 0.0
N1705 N 0.78318 0.09453 0.58514 0.0
N1706 N 0.86603 0.18777 0.50874 0.0
C1707 C 0.80266 0.11696 0.56575 0.0
C1708 C 0.84324 0.16431 0.52562 0.0
N1709 N 0.79566 0.0756 0.53068 0.0
N1710 N 0.83188 0.20216 0.55081 0.0
H1711 H 0.8766 0.18272 0.49139 0.0
H1712 H 0.87617 0.2124 0.51336 0.0
H1713 H 0.82119 0.20805 0.56759 0.0
H1714 H 0.84035 0.2187 0.53415 0.0
H1715 H 0.77656 0.05699 0.54155 0.0
H1716 H 0.80067 0.06828 0.51109 0.0
H1717 H 0.77695 0.07027 0.58412 0.0
H1718 H 0.77237 0.10013 0.60192 0.0
C1719 C 0.83041 0.70154 0.52903 0.0
C1720 C 0.81401 0.67388 0.51079 0.0
C1721 C 0.79352 0.63929 0.55297 0.0
C1722 C 0.81507 0.66581 0.57036 0.0
N1723 N 0.85287 0.72259 0.57637 0.0
N1724 N 0.77978 0.616 0.50502 0.0
C1725 C 0.83272 0.69724 0.55887 0.0
C1726 C 0.79485 0.64264 0.52265 0.0
N1727 N 0.84355 0.73181 0.51772 0.0
N1728 N 0.77231 0.61085 0.56564 0.0
H1729 H 0.78051 0.61732 0.48272 0.0
H1730 H 0.7683 0.59234 0.51238 0.0
H1731 H 0.7713 0.60825 0.58789 0.0
H1732 H 0.75393 0.59117 0.55457 0.0
H1733 H 0.85356 0.75297 0.53008 0.0
H1734 H 0.8419 0.73566 0.49595 0.0
H1735 H 0.86967 0.74536 0.56895 0.0
H1736 H 0.85349 0.72034 0.59858 0.0
loop_
_geom_bond_atom_site_label_1
_geom_bond_atom_site_label_2
_geom_bond_distance
_geom_bond_site_symmetry_2
_ccdc_geom_bond_type
P0 O11 1.490 . S
P0 C14 1.812 . S
P0 C20 1.803 . S
P0 C26 1.819 . S
H1 C15 0.941 . S
H2 C16 0.939 . S
H3 C18 0.940 . S
H4 C19 0.940 . S
H5 C21 0.939 . S
H6 C22 0.942 . S
H7 C24 0.940 . S
H8 C25 0.939 . S
H9 C27 0.941 . S
H10 C31 0.939 . S
O11 P0 1.490 . S
H12 C28 0.939 . S
H13 C30 0.940 . S
C14 P0 1.812 . S
C14 C15 1.389 . S
C14 C19 1.391 . S
C15 H1 0.941 . S
C15 C14 1.389 . S
C15 C16 1.397 . S
C16 H2 0.939 . S
C16 C15 1.397 . S
C16 C17 1.378 . S
C17 C16 1.378 . S
C17 C18 1.378 . S
C18 H3 0.940 . S
C18 C17 1.378 . S
C18 C19 1.396 . S
C19 H4 0.940 . S
C19 C14 1.391 . S
C19 C18 1.396 . S
C20 P0 1.803 . S
C20 C21 1.378 . S
C20 C25 1.400 . S
C21 H5 0.939 . S
C21 C20 1.378 . S
C21 C22 1.361 . S
C22 H6 0.942 . S
C22 C21 1.361 . S
C22 C23 1.369 . S
C23 C22 1.369 . S
C23 C24 1.404 . S
C24 H7 0.940 . S
C24 C23 1.404 . S
C24 C25 1.389 . S
C25 H8 0.939 . S
C25 C20 1.400 . S
C25 C24 1.389 . S
C26 P0 1.819 . S
C26 C27 1.391 . S
C26 C31 1.391 . S
C27 H9 0.941 . S
C27 C26 1.391 . S
C27 C28 1.396 . S
C28 H12 0.939 . S
C28 C27 1.396 . S
C28 C29 1.397 . S
C29 C28 1.397 . S
C29 C30 1.385 . S
C30 H13 0.940 . S
C30 C29 1.385 . S
C30 C31 1.388 . S
C31 H10 0.939 . S
C31 C26 1.391 . S
C31 C30 1.388 . S
P32 O43 1.490 . S
P32 C46 1.812 . S
P32 C52 1.803 . S
P32 C58 1.819 . S
H33 C47 0.941 . S
H34 C48 0.939 . S
H35 C50 0.940 . S
H36 C51 0.940 . S
H37 C53 0.939 . S
H38 C54 0.942 1_455 S
H39 C56 0.940 . S
H40 C57 0.939 . S
H41 C59 0.941 . S
H42 C63 0.939 . S
O43 P32 1.490 . S
H44 C60 0.939 . S
H45 C62 0.940 . S
C46 P32 1.812 . S
C46 C47 1.389 . S
C46 C51 1.391 . S
C47 H33 0.941 . S
C47 C46 1.389 . S
C47 C48 1.397 . S
C48 H34 0.939 . S
C48 C47 1.397 . S
C48 C49 1.378 . S
C49 C48 1.378 . S
C49 C50 1.378 . S
C50 H35 0.940 . S
C50 C49 1.378 . S
C50 C51 1.396 . S
C51 H36 0.940 . S
C51 C46 1.391 . S
C51 C50 1.396 . S
C52 P32 1.803 . S
C52 C53 1.378 . S
C52 C57 1.400 . S
C53 H37 0.939 . S
C53 C52 1.378 . S
C53 C54 1.361 . S
C54 H38 0.942 1_655 S
C54 C53 1.361 . S
C54 C55 1.369 . S
C55 C54 1.369 . S
C55 C56 1.404 . S
C56 H39 0.940 . S
C56 C55 1.404 . S
C56 C57 1.389 . S
C57 H40 0.939 . S
C57 C52 1.400 . S
C57 C56 1.389 . S
C58 P32 1.819 . S
C58 C59 1.391 . S
C58 C63 1.391 . S
C59 H41 0.941 . S
C59 C58 1.391 . S
C59 C60 1.396 . S
C60 H44 0.939 . S
C60 C59 1.396 . S
C60 C61 1.397 . S
C61 C60 1.397 . S
C61 C62 1.385 . S
C62 H45 0.940 . S
C62 C61 1.385 . S
C62 C63 1.388 . S
C63 H42 0.939 . S
C63 C58 1.391 . S
C63 C62 1.388 . S
P64 O75 1.490 . S
P64 C78 1.812 . S
P64 C84 1.803 . S
P64 C90 1.819 . S
H65 C79 0.941 . S
H66 C80 0.939 . S
H67 C82 0.940 . S
H68 C83 0.940 . S
H69 C85 0.939 . S
H70 C86 0.942 . S
H71 C88 0.940 . S
H72 C89 0.939 . S
H73 C91 0.941 . S
H74 C95 0.939 . S
O75 P64 1.490 . S
H76 C92 0.939 . S
H77 C94 0.940 . S
C78 P64 1.812 . S
C78 C79 1.389 . S
C78 C83 1.391 . S
C79 H65 0.941 . S
C79 C78 1.389 . S
C79 C80 1.397 . S
C80 H66 0.939 . S
C80 C79 1.397 . S
C80 C81 1.378 . S
C81 C80 1.378 . S
C81 C82 1.378 . S
C82 H67 0.940 . S
C82 C81 1.378 . S
C82 C83 1.396 . S
C83 H68 0.940 . S
C83 C78 1.391 . S
C83 C82 1.396 . S
C84 P64 1.803 . S
C84 C85 1.378 . S
C84 C89 1.400 . S
C85 H69 0.939 . S
C85 C84 1.378 . S
C85 C86 1.361 . S
C86 H70 0.942 . S
C86 C85 1.361 . S
C86 C87 1.369 . S
C87 C86 1.369 . S
C87 C88 1.404 . S
C88 H71 0.940 . S
C88 C87 1.404 . S
C88 C89 1.389 . S
C89 H72 0.939 . S
C89 C84 1.400 . S
C89 C88 1.389 . S
C90 P64 1.819 . S
C90 C91 1.391 . S
C90 C95 1.391 . S
C91 H73 0.941 . S
C91 C90 1.391 . S
C91 C92 1.396 . S
C92 H76 0.939 . S
C92 C91 1.396 . S
C92 C93 1.397 . S
C93 C92 1.397 . S
C93 C94 1.385 . S
C94 H77 0.940 . S
C94 C93 1.385 . S
C94 C95 1.388 . S
C95 H74 0.939 . S
C95 C90 1.391 . S
C95 C94 1.388 . S
P96 O107 1.490 . S
P96 C110 1.812 . S
P96 C116 1.803 . S
P96 C122 1.819 . S
H97 C111 0.941 . S
H98 C112 0.939 . S
H99 C114 0.940 . S
H100 C115 0.940 . S
H101 C117 0.939 . S
H102 C118 0.942 . S
H103 C120 0.940 . S
H104 C121 0.939 . S
H105 C123 0.941 . S
H106 C127 0.939 . S
O107 P96 1.490 . S
H108 C124 0.939 . S
H109 C126 0.940 . S
C110 P96 1.812 . S
C110 C111 1.389 . S
C110 C115 1.391 . S
C111 H97 0.941 . S
C111 C110 1.389 . S
C111 C112 1.397 . S
C112 H98 0.939 . S
C112 C111 1.397 . S
C112 C113 1.378 . S
C113 C112 1.378 . S
C113 C114 1.378 . S
C114 H99 0.940 . S
C114 C113 1.378 . S
C114 C115 1.396 . S
C115 H100 0.940 . S
C115 C110 1.391 . S
C115 C114 1.396 . S
C116 P96 1.803 . S
C116 C117 1.378 . S
C116 C121 1.400 . S
C117 H101 0.939 . S
C117 C116 1.378 . S
C117 C118 1.361 . S
C118 H102 0.942 . S
C118 C117 1.361 . S
C118 C119 1.369 . S
C119 C118 1.369 . S
C119 C120 1.404 . S
C120 H103 0.940 . S
C120 C119 1.404 . S
C120 C121 1.389 . S
C121 H104 0.939 . S
C121 C116 1.400 . S
C121 C120 1.389 . S
C122 P96 1.819 . S
C122 C123 1.391 . S
C122 C127 1.391 . S
C123 H105 0.941 . S
C123 C122 1.391 . S
C123 C124 1.396 . S
C124 H108 0.939 . S
C124 C123 1.396 . S
C124 C125 1.397 . S
C125 C124 1.397 . S
C125 C126 1.385 . S
C126 H109 0.940 . S
C126 C125 1.385 . S
C126 C127 1.388 . S
C127 H106 0.939 . S
C127 C122 1.391 . S
C127 C126 1.388 . S
P128 O139 1.490 . S
P128 C142 1.812 . S
P128 C148 1.803 . S
P128 C154 1.819 . S
H129 C143 0.941 . S
H130 C144 0.939 . S
H131 C146 0.940 . S
H132 C147 0.940 . S
H133 C149 0.939 . S
H134 C150 0.942 . S
H135 C152 0.940 . S
H136 C153 0.939 . S
H137 C155 0.941 . S
H138 C159 0.939 . S
O139 P128 1.490 . S
H140 C156 0.939 . S
H141 C158 0.940 . S
C142 P128 1.812 . S
C142 C143 1.389 . S
C142 C147 1.391 . S
C143 H129 0.941 . S
C143 C142 1.389 . S
C143 C144 1.397 . S
C144 H130 0.939 . S
C144 C143 1.397 . S
C144 C145 1.378 . S
C145 C144 1.378 . S
C145 C146 1.378 . S
C146 H131 0.940 . S
C146 C145 1.378 . S
C146 C147 1.396 . S
C147 H132 0.940 . S
C147 C142 1.391 . S
C147 C146 1.396 . S
C148 P128 1.803 . S
C148 C149 1.378 . S
C148 C153 1.400 . S
C149 H133 0.939 . S
C149 C148 1.378 . S
C149 C150 1.361 . S
C150 H134 0.942 . S
C150 C149 1.361 . S
C150 C151 1.369 . S
C151 C150 1.369 . S
C151 C152 1.404 . S
C152 H135 0.940 . S
C152 C151 1.404 . S
C152 C153 1.389 . S
C153 H136 0.939 . S
C153 C148 1.400 . S
C153 C152 1.389 . S
C154 P128 1.819 . S
C154 C155 1.391 . S
C154 C159 1.391 . S
C155 H137 0.941 . S
C155 C154 1.391 . S
C155 C156 1.396 . S
C156 H140 0.939 . S
C156 C155 1.396 . S
C156 C157 1.397 . S
C157 C156 1.397 . S
C157 C158 1.385 . S
C158 H141 0.940 . S
C158 C157 1.385 . S
C158 C159 1.388 . S
C159 H138 0.939 . S
C159 C154 1.391 . S
C159 C158 1.388 . S
P160 O171 1.490 . S
P160 C174 1.812 . S
P160 C180 1.803 . S
P160 C186 1.819 . S
H161 C175 0.941 . S
H162 C176 0.939 . S
H163 C178 0.940 . S
H164 C179 0.940 . S
H165 C181 0.939 . S
H166 C182 0.942 . S
H167 C184 0.940 . S
H168 C185 0.939 . S
H169 C187 0.941 . S
H170 C191 0.939 . S
O171 P160 1.490 . S
H172 C188 0.939 . S
H173 C190 0.940 . S
C174 P160 1.812 . S
C174 C175 1.389 . S
C174 C179 1.391 . S
C175 H161 0.941 . S
C175 C174 1.389 . S
C175 C176 1.397 . S
C176 H162 0.939 . S
C176 C175 1.397 . S
C176 C177 1.378 . S
C177 C176 1.378 . S
C177 C178 1.378 . S
C178 H163 0.940 . S
C178 C177 1.378 . S
C178 C179 1.396 . S
C179 H164 0.940 . S
C179 C174 1.391 . S
C179 C178 1.396 . S
C180 P160 1.803 . S
C180 C181 1.378 . S
C180 C185 1.400 . S
C181 H165 0.939 . S
C181 C180 1.378 . S
C181 C182 1.361 . S
C182 H166 0.942 . S
C182 C181 1.361 . S
C182 C183 1.369 . S
C183 C182 1.369 . S
C183 C184 1.404 . S
C184 H167 0.940 . S
C184 C183 1.404 . S
C184 C185 1.389 . S
C185 H168 0.939 . S
C185 C180 1.400 . S
C185 C184 1.389 . S
C186 P160 1.819 . S
C186 C187 1.391 . S
C186 C191 1.391 . S
C187 H169 0.941 . S
C187 C186 1.391 . S
C187 C188 1.396 . S
C188 H172 0.939 . S
C188 C187 1.396 . S
C188 C189 1.397 . S
C189 C188 1.397 . S
C189 C190 1.385 . S
C190 H173 0.940 . S
C190 C189 1.385 . S
C190 C191 1.388 . S
C191 H170 0.939 . S
C191 C186 1.391 . S
C191 C190 1.388 . S
P192 O203 1.490 . S
P192 C206 1.812 . S
P192 C212 1.803 . S
P192 C218 1.819 . S
H193 C207 0.941 . S
H194 C208 0.939 . S
H195 C210 0.940 . S
H196 C211 0.940 . S
H197 C213 0.939 . S
H198 C214 0.942 . S
H199 C216 0.940 . S
H200 C217 0.939 . S
H201 C219 0.941 1_455 S
H202 C223 0.939 . S
O203 P192 1.490 . S
H204 C220 0.939 1_455 S
H205 C222 0.940 . S
C206 P192 1.812 . S
C206 C207 1.389 . S
C206 C211 1.391 . S
C207 H193 0.941 . S
C207 C206 1.389 . S
C207 C208 1.397 . S
C208 H194 0.939 . S
C208 C207 1.397 . S
C208 C209 1.378 . S
C209 C208 1.378 . S
C209 C210 1.378 . S
C210 H195 0.940 . S
C210 C209 1.378 . S
C210 C211 1.396 . S
C211 H196 0.940 . S
C211 C206 1.391 . S
C211 C210 1.396 . S
C212 P192 1.803 . S
C212 C213 1.378 . S
C212 C217 1.400 . S
C213 H197 0.939 . S
C213 C212 1.378 . S
C213 C214 1.361 . S
C214 H198 0.942 . S
C214 C213 1.361 . S
C214 C215 1.369 . S
C215 C214 1.369 . S
C215 C216 1.404 . S
C216 H199 0.940 . S
C216 C215 1.404 . S
C216 C217 1.389 . S
C217 H200 0.939 . S
C217 C212 1.400 . S
C217 C216 1.389 . S
C218 P192 1.819 . S
C218 C219 1.391 . S
C218 C223 1.391 . S
C219 H201 0.941 1_655 S
C219 C218 1.391 . S
C219 C220 1.396 . S
C220 H204 0.939 1_655 S
C220 C219 1.396 . S
C220 C221 1.397 . S
C221 C220 1.397 . S
C221 C222 1.385 . S
C222 H205 0.940 . S
C222 C221 1.385 . S
C222 C223 1.388 . S
C223 H202 0.939 . S
C223 C218 1.391 . S
C223 C222 1.388 . S
P224 O235 1.490 . S
P224 C238 1.812 . S
P224 C244 1.803 . S
P224 C250 1.819 . S
H225 C239 0.941 . S
H226 C240 0.939 . S
H227 C242 0.940 . S
H228 C243 0.940 . S
H229 C245 0.939 . S
H230 C246 0.942 . S
H231 C248 0.940 . S
H232 C249 0.939 . S
H233 C251 0.941 . S
H234 C255 0.939 . S
O235 P224 1.490 . S
H236 C252 0.939 . S
H237 C254 0.940 . S
C238 P224 1.812 . S
C238 C239 1.389 . S
C238 C243 1.391 . S
C239 H225 0.941 . S
C239 C238 1.389 . S
C239 C240 1.397 . S
C240 H226 0.939 . S
C240 C239 1.397 . S
C240 C241 1.378 . S
C241 C240 1.378 . S
C241 C242 1.378 . S
C242 H227 0.940 . S
C242 C241 1.378 . S
C242 C243 1.396 . S
C243 H228 0.940 . S
C243 C238 1.391 . S
C243 C242 1.396 . S
C244 P224 1.803 . S
C244 C245 1.378 . S
C244 C249 1.400 . S
C245 H229 0.939 . S
C245 C244 1.378 . S
C245 C246 1.361 . S
C246 H230 0.942 . S
C246 C245 1.361 . S
C246 C247 1.369 . S
C247 C246 1.369 . S
C247 C248 1.404 . S
C248 H231 0.940 . S
C248 C247 1.404 . S
C248 C249 1.389 . S
C249 H232 0.939 . S
C249 C244 1.400 . S
C249 C248 1.389 . S
C250 P224 1.819 . S
C250 C251 1.391 . S
C250 C255 1.391 . S
C251 H233 0.941 . S
C251 C250 1.391 . S
C251 C252 1.396 . S
C252 H236 0.939 . S
C252 C251 1.396 . S
C252 C253 1.397 . S
C253 C252 1.397 . S
C253 C254 1.385 . S
C254 H237 0.940 . S
C254 C253 1.385 . S
C254 C255 1.388 . S
C255 H234 0.939 . S
C255 C250 1.391 . S
C255 C254 1.388 . S
P256 O267 1.490 1_545 S
P256 C270 1.812 . S
P256 C276 1.803 . S
P256 C282 1.819 . S
H257 C271 0.941 . S
H258 C272 0.939 . S
H259 C274 0.940 . S
H260 C275 0.940 . S
H261 C277 0.939 . S
H262 C278 0.942 . S
H263 C280 0.940 . S
H264 C281 0.939 . S
H265 C283 0.941 1_565 S
H266 C287 0.939 . S
O267 P256 1.490 1_565 S
H268 C284 0.939 1_565 S
H269 C286 0.940 . S
C270 P256 1.812 . S
C270 C271 1.389 . S
C270 C275 1.391 . S
C271 H257 0.941 . S
C271 C270 1.389 . S
C271 C272 1.397 . S
C272 H258 0.939 . S
C272 C271 1.397 . S
C272 C273 1.378 . S
C273 C272 1.378 . S
C273 C274 1.378 . S
C274 H259 0.940 . S
C274 C273 1.378 . S
C274 C275 1.396 . S
C275 H260 0.940 . S
C275 C270 1.391 . S
C275 C274 1.396 . S
C276 P256 1.803 . S
C276 C277 1.378 . S
C276 C281 1.400 . S
C277 H261 0.939 . S
C277 C276 1.378 . S
C277 C278 1.361 . S
C278 H262 0.942 . S
C278 C277 1.361 . S
C278 C279 1.369 . S
C279 C278 1.369 . S
C279 C280 1.404 . S
C280 H263 0.940 . S
C280 C279 1.404 . S
C280 C281 1.389 . S
C281 H264 0.939 . S
C281 C276 1.400 . S
C281 C280 1.389 . S
C282 P256 1.819 . S
C282 C283 1.391 . S
C282 C287 1.391 . S
C283 H265 0.941 1_545 S
C283 C282 1.391 . S
C283 C284 1.396 . S
C284 H268 0.939 1_545 S
C284 C283 1.396 . S
C284 C285 1.397 . S
C285 C284 1.397 . S
C285 C286 1.385 . S
C286 H269 0.940 . S
C286 C285 1.385 . S
C286 C287 1.388 . S
C287 H266 0.939 . S
C287 C282 1.391 . S
C287 C286 1.388 . S
P288 O299 1.490 . S
P288 C302 1.812 . S
P288 C308 1.803 . S
P288 C314 1.819 . S
H289 C303 0.941 1_554 S
H290 C304 0.939 . S
H291 C306 0.940 . S
H292 C307 0.940 . S
H293 C309 0.939 . S
H294 C310 0.942 . S
H295 C312 0.940 . S
H296 C313 0.939 . S
H297 C315 0.941 . S
H298 C319 0.939 . S
O299 P288 1.490 . S
H300 C316 0.939 . S
H301 C318 0.940 . S
C302 P288 1.812 . S
C302 C303 1.389 . S
C302 C307 1.391 . S
C303 H289 0.941 1_556 S
C303 C302 1.389 . S
C303 C304 1.397 1_556 S
C304 H290 0.939 . S
C304 C303 1.397 1_554 S
C304 C305 1.378 1_554 S
C305 C304 1.378 1_556 S
C305 C306 1.378 . S
C306 H291 0.940 . S
C306 C305 1.378 . S
C306 C307 1.396 . S
C307 H292 0.940 . S
C307 C302 1.391 . S
C307 C306 1.396 . S
C308 P288 1.803 . S
C308 C309 1.378 . S
C308 C313 1.400 . S
C309 H293 0.939 . S
C309 C308 1.378 . S
C309 C310 1.361 . S
C310 H294 0.942 . S
C310 C309 1.361 . S
C310 C311 1.369 . S
C311 C310 1.369 . S
C311 C312 1.404 . S
C312 H295 0.940 . S
C312 C311 1.404 . S
C312 C313 1.389 . S
C313 H296 0.939 . S
C313 C308 1.400 . S
C313 C312 1.389 . S
C314 P288 1.819 . S
C314 C315 1.391 . S
C314 C319 1.391 . S
C315 H297 0.941 . S
C315 C314 1.391 . S
C315 C316 1.396 . S
C316 H300 0.939 . S
C316 C315 1.396 . S
C316 C317 1.397 . S
C317 C316 1.397 . S
C317 C318 1.385 . S
C318 H301 0.940 . S
C318 C317 1.385 . S
C318 C319 1.388 . S
C319 H298 0.939 . S
C319 C314 1.391 . S
C319 C318 1.388 . S
P320 O331 1.490 . S
P320 C334 1.812 . S
P320 C340 1.803 . S
P320 C346 1.819 . S
H321 C335 0.941 . S
H322 C336 0.939 . S
H323 C338 0.940 . S
H324 C339 0.940 . S
H325 C341 0.939 . S
H326 C342 0.942 . S
H327 C344 0.940 1_554 S
H328 C345 0.939 . S
H329 C347 0.941 . S
H330 C351 0.939 . S
O331 P320 1.490 . S
H332 C348 0.939 . S
H333 C350 0.940 . S
C334 P320 1.812 . S
C334 C335 1.389 . S
C334 C339 1.391 . S
C335 H321 0.941 . S
C335 C334 1.389 . S
C335 C336 1.397 . S
C336 H322 0.939 . S
C336 C335 1.397 . S
C336 C337 1.378 . S
C337 C336 1.378 . S
C337 C338 1.378 . S
C338 H323 0.940 . S
C338 C337 1.378 . S
C338 C339 1.396 . S
C339 H324 0.940 . S
C339 C334 1.391 . S
C339 C338 1.396 . S
C340 P320 1.803 . S
C340 C341 1.378 . S
C340 C345 1.400 . S
C341 H325 0.939 . S
C341 C340 1.378 . S
C341 C342 1.361 . S
C342 H326 0.942 . S
C342 C341 1.361 . S
C342 C343 1.369 . S
C343 C342 1.369 . S
C343 C344 1.404 . S
C344 H327 0.940 1_556 S
C344 C343 1.404 . S
C344 C345 1.389 . S
C345 H328 0.939 . S
C345 C340 1.400 . S
C345 C344 1.389 . S
C346 P320 1.819 . S
C346 C347 1.391 . S
C346 C351 1.391 . S
C347 H329 0.941 . S
C347 C346 1.391 . S
C347 C348 1.396 . S
C348 H332 0.939 . S
C348 C347 1.396 . S
C348 C349 1.397 . S
C349 C348 1.397 . S
C349 C350 1.385 . S
C350 H333 0.940 . S
C350 C349 1.385 . S
C350 C351 1.388 . S
C351 H330 0.939 . S
C351 C346 1.391 . S
C351 C350 1.388 . S
P352 O363 1.490 . S
P352 C366 1.812 . S
P352 C372 1.803 . S
P352 C378 1.819 . S
H353 C367 0.941 1_554 S
H354 C368 0.940 . S
H355 C370 0.940 . S
H356 C371 0.940 . S
H357 C373 0.939 . S
H358 C374 0.942 . S
H359 C376 0.940 . S
H360 C377 0.939 . S
H361 C379 0.941 . S
H362 C383 0.939 . S
O363 P352 1.490 . S
H364 C380 0.939 . S
H365 C382 0.940 . S
C366 P352 1.812 . S
C366 C367 1.389 . S
C366 C371 1.391 . S
C367 H353 0.941 1_556 S
C367 C366 1.389 . S
C367 C368 1.397 1_556 S
C368 H354 0.940 . S
C368 C367 1.397 1_554 S
C368 C369 1.378 1_554 S
C369 C368 1.378 1_556 S
C369 C370 1.378 . S
C370 H355 0.940 . S
C370 C369 1.378 . S
C370 C371 1.396 . S
C371 H356 0.940 . S
C371 C366 1.391 . S
C371 C370 1.396 . S
C372 P352 1.803 . S
C372 C373 1.378 . S
C372 C377 1.400 . S
C373 H357 0.939 . S
C373 C372 1.378 . S
C373 C374 1.361 . S
C374 H358 0.942 . S
C374 C373 1.361 . S
C374 C375 1.369 . S
C375 C374 1.369 . S
C375 C376 1.404 . S
C376 H359 0.940 . S
C376 C375 1.404 . S
C376 C377 1.389 . S
C377 H360 0.939 . S
C377 C372 1.400 . S
C377 C376 1.389 . S
C378 P352 1.819 . S
C378 C379 1.391 . S
C378 C383 1.391 . S
C379 H361 0.941 . S
C379 C378 1.391 . S
C379 C380 1.396 . S
C380 H364 0.939 . S
C380 C379 1.396 . S
C380 C381 1.397 . S
C381 C380 1.397 . S
C381 C382 1.385 . S
C382 H365 0.940 . S
C382 C381 1.385 . S
C382 C383 1.388 . S
C383 H362 0.939 . S
C383 C378 1.391 . S
C383 C382 1.388 . S
P384 O395 1.490 . S
P384 C398 1.812 . S
P384 C404 1.803 . S
P384 C410 1.819 . S
H385 C399 0.941 . S
H386 C400 0.939 1_556 S
H387 C402 0.940 . S
H388 C403 0.940 . S
H389 C405 0.939 . S
H390 C406 0.942 . S
H391 C408 0.940 . S
H392 C409 0.939 . S
H393 C411 0.941 . S
H394 C415 0.939 . S
O395 P384 1.490 . S
H396 C412 0.939 . S
H397 C414 0.940 . S
C398 P384 1.812 . S
C398 C399 1.389 . S
C398 C403 1.391 . S
C399 H385 0.941 . S
C399 C398 1.389 . S
C399 C400 1.397 . S
C400 H386 0.939 1_554 S
C400 C399 1.397 . S
C400 C401 1.378 . S
C401 C400 1.378 . S
C401 C402 1.378 . S
C402 H387 0.940 . S
C402 C401 1.378 . S
C402 C403 1.396 . S
C403 H388 0.940 . S
C403 C398 1.391 . S
C403 C402 1.396 . S
C404 P384 1.803 . S
C404 C405 1.378 . S
C404 C409 1.400 . S
C405 H389 0.939 . S
C405 C404 1.378 . S
C405 C406 1.361 . S
C406 H390 0.942 . S
C406 C405 1.361 . S
C406 C407 1.369 . S
C407 C406 1.369 . S
C407 C408 1.404 . S
C408 H391 0.940 . S
C408 C407 1.404 . S
C408 C409 1.389 . S
C409 H392 0.939 . S
C409 C404 1.400 . S
C409 C408 1.389 . S
C410 P384 1.819 . S
C410 C411 1.391 . S
C410 C415 1.391 . S
C411 H393 0.941 . S
C411 C410 1.391 . S
C411 C412 1.396 . S
C412 H396 0.939 . S
C412 C411 1.396 . S
C412 C413 1.397 . S
C413 C412 1.397 . S
C413 C414 1.385 . S
C414 H397 0.940 . S
C414 C413 1.385 . S
C414 C415 1.388 . S
C415 H394 0.939 . S
C415 C410 1.391 . S
C415 C414 1.388 . S
P416 O427 1.490 . S
P416 C430 1.812 . S
P416 C436 1.803 . S
P416 C442 1.819 . S
H417 C431 0.941 . S
H418 C432 0.939 . S
H419 C434 0.940 . S
H420 C435 0.940 . S
H421 C437 0.939 . S
H422 C438 0.942 . S
H423 C440 0.940 . S
H424 C441 0.939 . S
H425 C443 0.941 . S
H426 C447 0.939 . S
O427 P416 1.490 . S
H428 C444 0.939 . S
H429 C446 0.940 . S
C430 P416 1.812 . S
C430 C431 1.389 . S
C430 C435 1.391 . S
C431 H417 0.941 . S
C431 C430 1.389 . S
C431 C432 1.397 . S
C432 H418 0.939 . S
C432 C431 1.397 . S
C432 C433 1.378 . S
C433 C432 1.378 . S
C433 C434 1.378 . S
C434 H419 0.940 . S
C434 C433 1.378 . S
C434 C435 1.396 . S
C435 H420 0.940 . S
C435 C430 1.391 . S
C435 C434 1.396 . S
C436 P416 1.803 . S
C436 C437 1.378 . S
C436 C441 1.400 . S
C437 H421 0.939 . S
C437 C436 1.378 . S
C437 C438 1.361 . S
C438 H422 0.942 . S
C438 C437 1.361 . S
C438 C439 1.369 . S
C439 C438 1.369 . S
C439 C440 1.404 . S
C440 H423 0.940 . S
C440 C439 1.404 . S
C440 C441 1.389 . S
C441 H424 0.939 . S
C441 C436 1.400 . S
C441 C440 1.389 . S
C442 P416 1.819 . S
C442 C443 1.391 . S
C442 C447 1.391 . S
C443 H425 0.941 . S
C443 C442 1.391 . S
C443 C444 1.396 . S
C444 H428 0.939 . S
C444 C443 1.396 . S
C444 C445 1.397 . S
C445 C444 1.397 . S
C445 C446 1.385 . S
C446 H429 0.940 . S
C446 C445 1.385 . S
C446 C447 1.388 . S
C447 H426 0.939 . S
C447 C442 1.391 . S
C447 C446 1.388 . S
P448 O459 1.490 . S
P448 C462 1.812 . S
P448 C468 1.803 . S
P448 C474 1.819 . S
H449 C463 0.941 . S
H450 C464 0.939 1_556 S
H451 C466 0.940 . S
H452 C467 0.940 . S
H453 C469 0.939 . S
H454 C470 0.942 . S
H455 C472 0.940 . S
H456 C473 0.939 . S
H457 C475 0.941 . S
H458 C479 0.939 . S
O459 P448 1.490 . S
H460 C476 0.939 . S
H461 C478 0.940 . S
C462 P448 1.812 . S
C462 C463 1.389 . S
C462 C467 1.391 . S
C463 H449 0.941 . S
C463 C462 1.389 . S
C463 C464 1.397 . S
C464 H450 0.939 1_554 S
C464 C463 1.397 . S
C464 C465 1.378 . S
C465 C464 1.378 . S
C465 C466 1.378 . S
C466 H451 0.940 . S
C466 C465 1.378 . S
C466 C467 1.396 . S
C467 H452 0.940 . S
C467 C462 1.391 . S
C467 C466 1.396 . S
C468 P448 1.803 . S
C468 C469 1.378 . S
C468 C473 1.400 . S
C469 H453 0.939 . S
C469 C468 1.378 . S
C469 C470 1.361 . S
C470 H454 0.942 . S
C470 C469 1.361 . S
C470 C471 1.369 . S
C471 C470 1.369 . S
C471 C472 1.404 . S
C472 H455 0.940 . S
C472 C471 1.404 . S
C472 C473 1.389 . S
C473 H456 0.939 . S
C473 C468 1.400 . S
C473 C472 1.389 . S
C474 P448 1.819 . S
C474 C475 1.391 . S
C474 C479 1.391 . S
C475 H457 0.941 . S
C475 C474 1.391 . S
C475 C476 1.396 . S
C476 H460 0.939 . S
C476 C475 1.396 . S
C476 C477 1.397 . S
C477 C476 1.397 . S
C477 C478 1.385 . S
C478 H461 0.940 . S
C478 C477 1.385 . S
C478 C479 1.388 . S
C479 H458 0.939 . S
C479 C474 1.391 . S
C479 C478 1.388 . S
P480 O491 1.490 1_565 S
P480 C494 1.812 . S
P480 C500 1.803 . S
P480 C506 1.819 . S
H481 C495 0.941 . S
H482 C496 0.939 . S
H483 C498 0.940 . S
H484 C499 0.940 . S
H485 C501 0.939 . S
H486 C502 0.942 . S
H487 C504 0.940 . S
H488 C505 0.939 . S
H489 C507 0.941 1_545 S
H490 C511 0.939 . S
O491 P480 1.490 1_545 S
H492 C508 0.939 1_545 S
H493 C510 0.940 . S
C494 P480 1.812 . S
C494 C495 1.389 . S
C494 C499 1.391 . S
C495 H481 0.941 . S
C495 C494 1.389 . S
C495 C496 1.397 . S
C496 H482 0.939 . S
C496 C495 1.397 . S
C496 C497 1.378 . S
C497 C496 1.378 . S
C497 C498 1.378 . S
C498 H483 0.940 . S
C498 C497 1.378 . S
C498 C499 1.396 . S
C499 H484 0.940 . S
C499 C494 1.391 . S
C499 C498 1.396 . S
C500 P480 1.803 . S
C500 C501 1.378 . S
C500 C505 1.400 . S
C501 H485 0.939 . S
C501 C500 1.378 . S
C501 C502 1.361 . S
C502 H486 0.942 . S
C502 C501 1.361 . S
C502 C503 1.369 . S
C503 C502 1.369 . S
C503 C504 1.404 . S
C504 H487 0.940 . S
C504 C503 1.404 . S
C504 C505 1.389 . S
C505 H488 0.939 . S
C505 C500 1.400 . S
C505 C504 1.389 . S
C506 P480 1.819 . S
C506 C507 1.391 . S
C506 C511 1.391 . S
C507 H489 0.941 1_565 S
C507 C506 1.391 . S
C507 C508 1.396 . S
C508 H492 0.939 1_565 S
C508 C507 1.396 . S
C508 C509 1.397 . S
C509 C508 1.397 . S
C509 C510 1.385 . S
C510 H493 0.940 . S
C510 C509 1.385 . S
C510 C511 1.388 . S
C511 H490 0.939 . S
C511 C506 1.391 . S
C511 C510 1.388 . S
P512 O523 1.490 . S
P512 C526 1.812 . S
P512 C532 1.803 . S
P512 C538 1.819 . S
H513 C527 0.941 . S
H514 C528 0.939 . S
H515 C530 0.940 . S
H516 C531 0.940 . S
H517 C533 0.939 . S
H518 C534 0.942 . S
H519 C536 0.940 . S
H520 C537 0.939 . S
H521 C539 0.941 . S
H522 C543 0.939 . S
O523 P512 1.490 . S
H524 C540 0.939 . S
H525 C542 0.940 . S
C526 P512 1.812 . S
C526 C527 1.389 . S
C526 C531 1.391 . S
C527 H513 0.941 . S
C527 C526 1.389 . S
C527 C528 1.397 . S
C528 H514 0.939 . S
C528 C527 1.397 . S
C528 C529 1.378 . S
C529 C528 1.378 . S
C529 C530 1.378 . S
C530 H515 0.940 . S
C530 C529 1.378 . S
C530 C531 1.396 . S
C531 H516 0.940 . S
C531 C526 1.391 . S
C531 C530 1.396 . S
C532 P512 1.803 . S
C532 C533 1.378 . S
C532 C537 1.400 . S
C533 H517 0.939 . S
C533 C532 1.378 . S
C533 C534 1.361 . S
C534 H518 0.942 . S
C534 C533 1.361 . S
C534 C535 1.369 . S
C535 C534 1.369 . S
C535 C536 1.404 . S
C536 H519 0.940 . S
C536 C535 1.404 . S
C536 C537 1.389 . S
C537 H520 0.939 . S
C537 C532 1.400 . S
C537 C536 1.389 . S
C538 P512 1.819 . S
C538 C539 1.391 . S
C538 C543 1.391 . S
C539 H521 0.941 . S
C539 C538 1.391 . S
C539 C540 1.396 . S
C540 H524 0.939 . S
C540 C539 1.396 . S
C540 C541 1.397 . S
C541 C540 1.397 . S
C541 C542 1.385 . S
C542 H525 0.940 . S
C542 C541 1.385 . S
C542 C543 1.388 . S
C543 H522 0.939 . S
C543 C538 1.391 . S
C543 C542 1.388 . S
P544 O555 1.490 . S
P544 C558 1.812 . S
P544 C564 1.803 . S
P544 C570 1.819 . S
H545 C559 0.941 . S
H546 C560 0.939 . S
H547 C562 0.940 . S
H548 C563 0.940 . S
H549 C565 0.939 . S
H550 C566 0.942 . S
H551 C568 0.940 . S
H552 C569 0.939 . S
H553 C571 0.941 . S
H554 C575 0.939 . S
O555 P544 1.490 . S
H556 C572 0.939 . S
H557 C574 0.940 . S
C558 P544 1.812 . S
C558 C559 1.389 . S
C558 C563 1.391 . S
C559 H545 0.941 . S
C559 C558 1.389 . S
C559 C560 1.397 . S
C560 H546 0.939 . S
C560 C559 1.397 . S
C560 C561 1.378 . S
C561 C560 1.378 . S
C561 C562 1.378 . S
C562 H547 0.940 . S
C562 C561 1.378 . S
C562 C563 1.396 . S
C563 H548 0.940 . S
C563 C558 1.391 . S
C563 C562 1.396 . S
C564 P544 1.803 . S
C564 C565 1.378 . S
C564 C569 1.400 . S
C565 H549 0.939 . S
C565 C564 1.378 . S
C565 C566 1.361 . S
C566 H550 0.942 . S
C566 C565 1.361 . S
C566 C567 1.369 . S
C567 C566 1.369 . S
C567 C568 1.404 . S
C568 H551 0.940 . S
C568 C567 1.404 . S
C568 C569 1.389 . S
C569 H552 0.939 . S
C569 C564 1.400 . S
C569 C568 1.389 . S
C570 P544 1.819 . S
C570 C571 1.391 . S
C570 C575 1.391 . S
C571 H553 0.941 . S
C571 C570 1.391 . S
C571 C572 1.396 . S
C572 H556 0.939 . S
C572 C571 1.396 . S
C572 C573 1.397 . S
C573 C572 1.397 . S
C573 C574 1.385 . S
C574 H557 0.940 . S
C574 C573 1.385 . S
C574 C575 1.388 . S
C575 H554 0.939 . S
C575 C570 1.391 . S
C575 C574 1.388 . S
O576 Mg577 1.990 . S
O576 C590 1.253 1_565 S
Mg577 O576 1.990 . S
Mg577 O580 2.180 1_556 S
Mg577 O581 2.117 . S
Mg577 O595 2.030 1_565 S
O578 Mg579 2.072 1_556 S
O578 C590 1.260 . S
Mg579 O578 2.072 1_554 S
Mg579 O580 2.099 1_545 S
Mg579 O582 2.079 . S
Mg579 O583 2.072 1_545 S
Mg579 O585 2.099 . S
Mg579 O596 2.079 . S
O580 Mg577 2.180 1_554 S
O580 Mg579 2.099 1_565 S
O580 C591 1.279 1_554 S
O581 Mg577 2.117 . S
O581 C591 1.249 . S
O582 Mg579 2.079 . S
O582 C592 1.264 . S
O583 Mg579 2.072 1_565 S
O583 C593 1.260 . S
Mg584 O585 2.180 . S
Mg584 O586 2.015 1_545 S
Mg584 O587 1.990 1_545 S
Mg584 O588 2.117 . S
O585 Mg579 2.099 . S
O585 Mg584 2.180 . S
O585 C594 1.279 . S
O586 Mg584 2.015 1_565 S
O586 C592 1.258 1_565 S
O587 Mg584 1.990 1_565 S
O587 C593 1.253 . S
O588 Mg584 2.117 . S
O588 C594 1.250 . S
C589 O595 1.248 . S
C589 O596 1.264 1_556 S
C590 O576 1.253 1_545 S
C590 O578 1.260 . S
C591 O580 1.279 1_556 S
C591 O581 1.249 . S
C592 O582 1.264 . S
C592 O586 1.258 1_545 S
C593 O583 1.260 . S
C593 O587 1.253 . S
C594 O585 1.279 . S
C594 O588 1.250 . S
O595 Mg577 2.030 1_545 S
O595 C589 1.248 . S
O596 Mg579 2.079 . S
O596 C589 1.264 1_554 S
O597 Mg598 1.990 . S
O597 C611 1.254 1_455 S
Mg598 O597 1.990 . S
Mg598 O601 2.180 1_556 S
Mg598 O602 2.117 . S
Mg598 O616 2.030 1_455 S
O599 Mg600 2.072 1_556 S
O599 C611 1.259 . S
Mg600 O599 2.072 1_554 S
Mg600 O601 2.099 1_655 S
Mg600 O603 2.079 . S
Mg600 O604 2.072 1_655 S
Mg600 O606 2.099 . S
Mg600 O617 2.079 . S
O601 Mg598 2.180 1_554 S
O601 Mg600 2.099 1_455 S
O601 C612 1.279 . S
O602 Mg598 2.117 . S
O602 C612 1.250 1_556 S
O603 Mg600 2.079 . S
O603 C613 1.264 1_655 S
O604 Mg600 2.072 1_455 S
O604 C614 1.260 . S
Mg605 O606 2.180 . S
Mg605 O607 2.030 1_655 S
Mg605 O608 1.990 1_655 S
Mg605 O609 2.117 . S
O606 Mg600 2.099 . S
O606 Mg605 2.180 . S
O606 C615 1.279 . S
O607 Mg605 2.030 1_455 S
O607 C613 1.248 . S
O608 Mg605 1.990 1_455 S
O608 C614 1.253 . S
O609 Mg605 2.117 . S
O609 C615 1.250 . S
C610 O616 1.248 . S
C610 O617 1.264 1_556 S
C611 O597 1.254 1_655 S
C611 O599 1.259 . S
C612 O601 1.279 . S
C612 O602 1.250 1_554 S
C613 O603 1.264 1_455 S
C613 O607 1.248 . S
C614 O604 1.260 . S
C614 O608 1.253 . S
C615 O606 1.279 . S
C615 O609 1.250 . S
O616 Mg598 2.030 1_655 S
O616 C610 1.248 . S
O617 Mg600 2.079 . S
O617 C610 1.264 1_554 S
O618 Mg619 1.990 . S
O618 C632 1.253 . S
Mg619 O618 1.990 . S
Mg619 O622 2.180 . S
Mg619 O623 2.117 . S
Mg619 O637 2.030 . S
O620 Mg621 2.080 . S
O620 C632 1.260 . S
Mg621 O620 2.080 . S
Mg621 O622 2.100 . S
Mg621 O624 2.071 1_554 S
Mg621 O625 2.072 1_554 S
Mg621 O627 2.097 1_554 S
Mg621 O638 2.078 . S
O622 Mg619 2.180 . S
O622 Mg621 2.100 . S
O622 C633 1.279 . S
O623 Mg619 2.117 . S
O623 C633 1.250 . S
O624 Mg621 2.071 1_556 S
O624 C634 1.264 . S
O625 Mg621 2.072 1_556 S
O625 C635 1.260 . S
Mg626 O627 2.180 . S
Mg626 O628 2.030 . S
Mg626 O629 1.990 . S
Mg626 O630 2.125 . S
O627 Mg621 2.097 1_556 S
O627 Mg626 2.180 . S
O627 C636 1.279 1_556 S
O628 Mg626 2.030 . S
O628 C634 1.248 . S
O629 Mg626 1.990 . S
O629 C635 1.253 . S
O630 Mg626 2.125 . S
O630 C636 1.247 1_556 S
C631 O637 1.248 . S
C631 O638 1.286 . S
C632 O618 1.253 . S
C632 O620 1.260 . S
C633 O622 1.279 . S
C633 O623 1.250 . S
C634 O624 1.264 . S
C634 O628 1.248 . S
C635 O625 1.260 . S
C635 O629 1.253 . S
C636 O627 1.279 1_554 S
C636 O630 1.247 1_554 S
O637 Mg619 2.030 . S
O637 C631 1.248 . S
O638 Mg621 2.078 . S
O638 C631 1.286 . S
O639 Mg640 1.990 . S
O639 C653 1.253 . S
Mg640 O639 1.990 . S
Mg640 O643 2.180 . S
Mg640 O644 2.117 . S
Mg640 O658 2.030 . S
O641 Mg642 2.072 . S
O641 C653 1.260 . S
Mg642 O641 2.072 . S
Mg642 O643 2.099 . S
Mg642 O645 2.079 . S
Mg642 O646 2.072 . S
Mg642 O648 2.099 . S
Mg642 O659 2.079 . S
O643 Mg640 2.180 . S
O643 Mg642 2.099 . S
O643 C654 1.279 . S
O644 Mg640 2.117 . S
O644 C654 1.250 . S
O645 Mg642 2.079 . S
O645 C655 1.264 . S
O646 Mg642 2.072 . S
O646 C656 1.260 . S
Mg647 O648 2.180 . S
Mg647 O649 2.030 . S
Mg647 O650 1.990 . S
Mg647 O651 2.117 . S
O648 Mg642 2.099 . S
O648 Mg647 2.180 . S
O648 C657 1.279 . S
O649 Mg647 2.030 . S
O649 C655 1.248 . S
O650 Mg647 1.990 . S
O650 C656 1.253 . S
O651 Mg647 2.117 . S
O651 C657 1.250 . S
C652 O658 1.248 . S
C652 O659 1.264 . S
C653 O639 1.253 . S
C653 O641 1.260 . S
C654 O643 1.279 . S
C654 O644 1.250 . S
C655 O645 1.264 . S
C655 O649 1.248 . S
C656 O646 1.260 . S
C656 O650 1.253 . S
C657 O648 1.279 . S
C657 O651 1.250 . S
O658 Mg640 2.030 . S
O658 C652 1.248 . S
O659 Mg642 2.079 . S
O659 C652 1.264 . S
O660 Mg661 1.990 . S
O660 C674 1.253 . S
Mg661 O660 1.990 . S
Mg661 O664 2.180 . S
Mg661 O665 2.117 . S
Mg661 O679 2.030 . S
O662 Mg663 2.072 . S
O662 C674 1.260 . S
Mg663 O662 2.072 . S
Mg663 O664 2.099 . S
Mg663 O666 2.079 . S
Mg663 O667 2.072 . S
Mg663 O669 2.099 . S
Mg663 O680 2.079 . S
O664 Mg661 2.180 . S
O664 Mg663 2.099 . S
O664 C675 1.279 . S
O665 Mg661 2.117 . S
O665 C675 1.250 . S
O666 Mg663 2.079 . S
O666 C676 1.264 . S
O667 Mg663 2.072 . S
O667 C677 1.260 . S
Mg668 O669 2.180 . S
Mg668 O670 2.030 . S
Mg668 O671 1.990 . S
Mg668 O672 2.117 . S
O669 Mg663 2.099 . S
O669 Mg668 2.180 . S
O669 C678 1.279 . S
O670 Mg668 2.030 . S
O670 C676 1.248 . S
O671 Mg668 1.990 . S
O671 C677 1.253 . S
O672 Mg668 2.117 . S
O672 C678 1.250 . S
C673 O679 1.248 . S
C673 O680 1.264 . S
C674 O660 1.253 . S
C674 O662 1.260 . S
C675 O664 1.279 . S
C675 O665 1.250 . S
C676 O666 1.264 . S
C676 O670 1.248 . S
C677 O667 1.260 . S
C677 O671 1.253 . S
C678 O669 1.279 . S
C678 O672 1.250 . S
O679 Mg661 2.030 . S
O679 C673 1.248 . S
O680 Mg663 2.079 . S
O680 C673 1.264 . S
O681 Mg682 1.990 . S
O681 C695 1.253 . S
Mg682 O681 1.990 . S
Mg682 O685 2.180 . S
Mg682 O686 2.117 . S
Mg682 O700 2.030 . S
O683 Mg684 2.072 . S
O683 C695 1.260 . S
Mg684 O683 2.072 . S
Mg684 O685 2.099 . S
Mg684 O687 2.079 . S
Mg684 O688 2.072 . S
Mg684 O690 2.099 . S
Mg684 O701 2.079 . S
O685 Mg682 2.180 . S
O685 Mg684 2.099 . S
O685 C696 1.279 . S
O686 Mg682 2.117 . S
O686 C696 1.250 . S
O687 Mg684 2.079 . S
O687 C697 1.264 . S
O688 Mg684 2.072 . S
O688 C698 1.260 . S
Mg689 O690 2.180 . S
Mg689 O691 2.030 . S
Mg689 O692 1.990 . S
Mg689 O693 2.117 . S
O690 Mg684 2.099 . S
O690 Mg689 2.180 . S
O690 C699 1.279 . S
O691 Mg689 2.030 . S
O691 C697 1.248 . S
O692 Mg689 1.990 . S
O692 C698 1.253 . S
O693 Mg689 2.117 . S
O693 C699 1.250 . S
C694 O700 1.248 . S
C694 O701 1.264 . S
C695 O681 1.253 . S
C695 O683 1.260 . S
C696 O685 1.279 . S
C696 O686 1.250 . S
C697 O687 1.264 . S
C697 O691 1.248 . S
C698 O688 1.260 . S
C698 O692 1.253 . S
C699 O690 1.279 . S
C699 O693 1.250 . S
O700 Mg682 2.030 . S
O700 C694 1.248 . S
O701 Mg684 2.079 . S
O701 C694 1.264 . S
O702 Mg703 1.990 . S
O702 C716 1.253 . S
Mg703 O702 1.990 . S
Mg703 O706 2.180 . S
Mg703 O707 2.117 . S
Mg703 O721 2.030 . S
O704 Mg705 2.072 . S
O704 C716 1.260 . S
Mg705 O704 2.072 . S
Mg705 O706 2.099 . S
Mg705 O708 2.079 . S
Mg705 O709 2.072 . S
Mg705 O711 2.099 . S
Mg705 O722 2.079 . S
O706 Mg703 2.180 . S
O706 Mg705 2.099 . S
O706 C717 1.279 . S
O707 Mg703 2.117 . S
O707 C717 1.250 . S
O708 Mg705 2.079 . S
O708 C718 1.264 . S
O709 Mg705 2.072 . S
O709 C719 1.260 . S
Mg710 O711 2.180 . S
Mg710 O712 2.030 . S
Mg710 O713 1.990 . S
Mg710 O714 2.117 . S
O711 Mg705 2.099 . S
O711 Mg710 2.180 . S
O711 C720 1.279 . S
O712 Mg710 2.030 . S
O712 C718 1.248 . S
O713 Mg710 1.990 . S
O713 C719 1.253 . S
O714 Mg710 2.117 . S
O714 C720 1.250 . S
C715 O721 1.248 . S
C715 O722 1.264 . S
C716 O702 1.253 . S
C716 O704 1.260 . S
C717 O706 1.279 . S
C717 O707 1.250 . S
C718 O708 1.264 . S
C718 O712 1.248 . S
C719 O709 1.260 . S
C719 O713 1.253 . S
C720 O711 1.279 . S
C720 O714 1.250 . S
O721 Mg703 2.030 . S
O721 C715 1.248 . S
O722 Mg705 2.079 . S
O722 C715 1.264 . S
O723 Mg724 1.990 . S
O723 C737 1.253 . S
Mg724 O723 1.990 . S
Mg724 O727 2.180 . S
Mg724 O728 2.117 . S
Mg724 O742 2.030 . S
O725 Mg726 2.072 . S
O725 C737 1.260 . S
Mg726 O725 2.072 . S
Mg726 O727 2.099 . S
Mg726 O729 2.079 . S
Mg726 O730 2.072 . S
Mg726 O732 2.099 . S
Mg726 O743 2.079 . S
O727 Mg724 2.180 . S
O727 Mg726 2.099 . S
O727 C738 1.279 . S
O728 Mg724 2.117 . S
O728 C738 1.250 . S
O729 Mg726 2.079 . S
O729 C739 1.264 . S
O730 Mg726 2.072 . S
O730 C740 1.260 . S
Mg731 O732 2.180 . S
Mg731 O733 2.030 . S
Mg731 O734 1.990 . S
Mg731 O735 2.117 . S
O732 Mg726 2.099 . S
O732 Mg731 2.180 . S
O732 C741 1.279 . S
O733 Mg731 2.030 . S
O733 C739 1.248 . S
O734 Mg731 1.990 . S
O734 C740 1.253 . S
O735 Mg731 2.117 . S
O735 C741 1.250 . S
C736 O742 1.248 . S
C736 O743 1.264 . S
C737 O723 1.253 . S
C737 O725 1.260 . S
C738 O727 1.279 . S
C738 O728 1.250 . S
C739 O729 1.264 . S
C739 O733 1.248 . S
C740 O730 1.260 . S
C740 O734 1.253 . S
C741 O732 1.279 . S
C741 O735 1.250 . S
O742 Mg724 2.030 . S
O742 C736 1.248 . S
O743 Mg726 2.079 . S
O743 C736 1.264 . S
O744 Mg745 1.990 . S
O744 C758 1.253 . S
Mg745 O744 1.990 . S
Mg745 O748 2.180 . S
Mg745 O749 2.117 . S
Mg745 O763 2.030 . S
O746 Mg747 2.072 . S
O746 C758 1.260 . S
Mg747 O746 2.072 . S
Mg747 O748 2.099 . S
Mg747 O750 2.079 . S
Mg747 O751 2.072 . S
Mg747 O753 2.099 . S
Mg747 O764 2.079 . S
O748 Mg745 2.180 . S
O748 Mg747 2.099 . S
O748 C759 1.279 . S
O749 Mg745 2.117 . S
O749 C759 1.250 . S
O750 Mg747 2.079 . S
O750 C760 1.264 . S
O751 Mg747 2.072 . S
O751 C761 1.260 . S
Mg752 O753 2.180 . S
Mg752 O754 2.030 . S
Mg752 O755 1.990 . S
Mg752 O756 2.117 . S
O753 Mg747 2.099 . S
O753 Mg752 2.180 . S
O753 C762 1.279 . S
O754 Mg752 2.030 . S
O754 C760 1.248 . S
O755 Mg752 1.990 . S
O755 C761 1.253 . S
O756 Mg752 2.117 . S
O756 C762 1.250 . S
C757 O763 1.248 . S
C757 O764 1.264 . S
C758 O744 1.253 . S
C758 O746 1.260 . S
C759 O748 1.279 . S
C759 O749 1.250 . S
C760 O750 1.264 . S
C760 O754 1.248 . S
C761 O751 1.260 . S
C761 O755 1.253 . S
C762 O753 1.279 . S
C762 O756 1.250 . S
O763 Mg745 2.030 . S
O763 C757 1.248 . S
O764 Mg747 2.079 . S
O764 C757 1.264 . S
C765 C766 1.363 1_556 S
C765 C771 1.379 . S
C765 N773 1.356 . S
C766 C765 1.363 1_554 S
C766 C772 1.363 . S
C767 C768 1.363 . S
C767 C772 1.379 . S
C767 N774 1.356 . S
C768 C767 1.363 . S
C768 C771 1.363 1_554 S
N769 C771 1.356 . S
N769 H781 0.984 . S
N769 H782 0.985 . S
N770 C772 1.356 . S
N770 H775 0.984 . S
N770 H776 0.985 . S
C771 C765 1.379 . S
C771 C768 1.363 1_556 S
C771 N769 1.356 . S
C772 C766 1.363 . S
C772 C767 1.379 . S
C772 N770 1.356 . S
N773 C765 1.356 . S
N773 H779 0.984 . S
N773 H780 0.984 . S
N774 C767 1.356 . S
N774 H777 0.984 . S
N774 H778 0.985 . S
H775 N770 0.984 . S
H776 N770 0.985 . S
H777 N774 0.984 . S
H778 N774 0.985 . S
H779 N773 0.984 . S
H780 N773 0.984 . S
H781 N769 0.984 . S
H782 N769 0.985 . S
C783 C784 1.335 1_556 S
C783 C789 1.382 . S
C783 N791 1.376 . S
C784 C783 1.335 1_554 S
C784 C790 1.363 . S
C785 C786 1.363 . S
C785 C790 1.379 . S
C785 N792 1.356 . S
C786 C785 1.363 . S
C786 C789 1.363 1_554 S
N787 C789 1.356 . S
N787 H799 0.984 . S
N787 H800 0.985 . S
N788 C790 1.356 . S
N788 H793 0.984 . S
N788 H794 0.985 . S
C789 C783 1.382 . S
C789 C786 1.363 1_556 S
C789 N787 1.356 . S
C790 C784 1.363 . S
C790 C785 1.379 . S
C790 N788 1.356 . S
N791 C783 1.376 . S
N791 H797 0.984 . S
N791 H798 0.984 . S
N792 C785 1.356 . S
N792 H795 0.984 . S
N792 H796 0.985 . S
H793 N788 0.984 . S
H794 N788 0.985 . S
H795 N792 0.984 . S
H796 N792 0.985 . S
H797 N791 0.984 . S
H798 N791 0.984 . S
H799 N787 0.984 . S
H800 N787 0.985 . S
C801 C802 1.363 . S
C801 C807 1.379 . S
C801 N809 1.356 . S
C802 C801 1.363 . S
C802 C808 1.366 . S
C803 C804 1.363 1_556 S
C803 C808 1.379 1_556 S
C803 N810 1.356 . S
C804 C803 1.363 1_554 S
C804 C807 1.363 . S
N805 C807 1.356 . S
N805 H817 0.984 . S
N805 H818 0.985 . S
N806 C808 1.354 1_556 S
N806 H811 0.984 . S
N806 H812 0.985 . S
C807 C801 1.379 . S
C807 C804 1.363 . S
C807 N805 1.356 . S
C808 C802 1.366 . S
C808 C803 1.379 1_554 S
C808 N806 1.354 1_554 S
N809 C801 1.356 . S
N809 H815 0.984 . S
N809 H816 0.984 . S
N810 C803 1.356 . S
N810 H813 0.984 . S
N810 H814 0.985 . S
H811 N806 0.984 . S
H812 N806 0.985 . S
H813 N810 0.984 . S
H814 N810 0.985 . S
H815 N809 0.984 . S
H816 N809 0.984 . S
H817 N805 0.984 . S
H818 N805 0.985 . S
C819 C820 1.363 1_554 S
C819 C825 1.379 . S
C819 N827 1.356 . S
C820 C819 1.363 1_556 S
C820 C826 1.363 . S
C821 C822 1.363 . S
C821 C826 1.379 . S
C821 N828 1.356 . S
C822 C821 1.363 . S
C822 C825 1.363 1_556 S
N823 C825 1.356 . S
N823 H835 0.984 . S
N823 H836 0.985 . S
N824 C826 1.356 . S
N824 H829 0.984 . S
N824 H830 0.985 . S
C825 C819 1.379 . S
C825 C822 1.363 1_554 S
C825 N823 1.356 . S
C826 C820 1.363 . S
C826 C821 1.379 . S
C826 N824 1.356 . S
N827 C819 1.356 . S
N827 H833 0.984 . S
N827 H834 0.984 . S
N828 C821 1.356 . S
N828 H831 0.984 . S
N828 H832 0.985 . S
H829 N824 0.984 . S
H830 N824 0.985 . S
H831 N828 0.984 . S
H832 N828 0.985 . S
H833 N827 0.984 . S
H834 N827 0.984 . S
H835 N823 0.984 . S
H836 N823 0.985 . S
C837 C838 1.363 1_554 S
C837 C843 1.379 . S
C837 N845 1.356 . S
C838 C837 1.363 1_556 S
C838 C844 1.363 . S
C839 C840 1.363 . S
C839 C844 1.379 . S
C839 N846 1.356 . S
C840 C839 1.363 . S
C840 C843 1.363 1_556 S
N841 C843 1.356 . S
N841 H853 0.984 . S
N841 H854 0.985 . S
N842 C844 1.356 . S
N842 H847 0.984 . S
N842 H848 0.985 . S
C843 C837 1.379 . S
C843 C840 1.363 1_554 S
C843 N841 1.356 . S
C844 C838 1.363 . S
C844 C839 1.379 . S
C844 N842 1.356 . S
N845 C837 1.356 . S
N845 H851 0.984 . S
N845 H852 0.984 . S
N846 C839 1.356 . S
N846 H849 0.984 . S
N846 H850 0.985 . S
H847 N842 0.984 . S
H848 N842 0.985 . S
H849 N846 0.984 . S
H850 N846 0.985 . S
H851 N845 0.984 . S
H852 N845 0.984 . S
H853 N841 0.984 . S
H854 N841 0.985 . S
C855 C856 1.363 . S
C855 C861 1.379 . S
C855 N863 1.356 . S
C856 C855 1.363 . S
C856 C862 1.363 1_556 S
C857 C858 1.363 1_554 S
C857 C862 1.379 . S
C857 N864 1.356 . S
C858 C857 1.363 1_556 S
C858 C861 1.363 . S
N859 C861 1.356 . S
N859 H871 0.984 . S
N859 H872 0.985 . S
N860 C862 1.356 . S
N860 H865 0.984 . S
N860 H866 0.985 . S
C861 C855 1.379 . S
C861 C858 1.363 . S
C861 N859 1.356 . S
C862 C856 1.363 1_554 S
C862 C857 1.379 . S
C862 N860 1.356 . S
N863 C855 1.356 . S
N863 H869 0.984 . S
N863 H870 0.984 . S
N864 C857 1.356 . S
N864 H867 0.984 . S
N864 H868 0.985 . S
H865 N860 0.984 . S
H866 N860 0.985 . S
H867 N864 0.984 . S
H868 N864 0.985 . S
H869 N863 0.984 . S
H870 N863 0.984 . S
H871 N859 0.984 . S
H872 N859 0.985 . S
C873 C874 1.363 1_554 S
C873 C879 1.379 . S
C873 N881 1.356 . S
C874 C873 1.363 1_556 S
C874 C880 1.363 . S
C875 C876 1.363 . S
C875 C880 1.379 . S
C875 N882 1.356 . S
C876 C875 1.363 . S
C876 C879 1.363 1_556 S
N877 C879 1.356 . S
N877 H889 0.984 . S
N877 H890 0.985 . S
N878 C880 1.356 . S
N878 H883 0.984 . S
N878 H884 0.985 . S
C879 C873 1.379 . S
C879 C876 1.363 1_554 S
C879 N877 1.356 . S
C880 C874 1.363 . S
C880 C875 1.379 . S
C880 N878 1.356 . S
N881 C873 1.356 . S
N881 H887 0.984 . S
N881 H888 0.984 . S
N882 C875 1.356 . S
N882 H885 0.984 . S
N882 H886 0.985 . S
H883 N878 0.984 . S
H884 N878 0.985 . S
H885 N882 0.984 . S
H886 N882 0.985 . S
H887 N881 0.984 . S
H888 N881 0.984 . S
H889 N877 0.984 . S
H890 N877 0.985 . S
C891 C892 1.363 1_554 S
C891 C897 1.379 . S
C891 N899 1.356 . S
C892 C891 1.363 1_556 S
C892 C898 1.363 . S
C893 C894 1.363 . S
C893 C898 1.379 . S
C893 N900 1.356 . S
C894 C893 1.363 . S
C894 C897 1.363 1_556 S
N895 C897 1.356 . S
N895 H907 0.984 . S
N895 H908 0.985 . S
N896 C898 1.356 . S
N896 H901 0.984 . S
N896 H902 0.985 . S
C897 C891 1.379 . S
C897 C894 1.363 1_554 S
C897 N895 1.356 . S
C898 C892 1.363 . S
C898 C893 1.379 . S
C898 N896 1.356 . S
N899 C891 1.356 . S
N899 H905 0.984 . S
N899 H906 0.984 . S
N900 C893 1.356 . S
N900 H903 0.984 . S
N900 H904 0.985 . S
H901 N896 0.984 . S
H902 N896 0.985 . S
H903 N900 0.984 . S
H904 N900 0.985 . S
H905 N899 0.984 . S
H906 N899 0.984 . S
H907 N895 0.984 . S
H908 N895 0.985 . S
C909 C910 1.363 1_554 S
C909 C915 1.379 . S
C909 N917 1.356 . S
C910 C909 1.363 1_556 S
C910 C916 1.363 . S
C911 C912 1.363 . S
C911 C916 1.379 . S
C911 N918 1.356 . S
C912 C911 1.363 . S
C912 C915 1.363 1_556 S
N913 C915 1.356 . S
N913 H925 0.984 . S
N913 H926 0.985 . S
N914 C916 1.356 . S
N914 H919 0.984 . S
N914 H920 0.985 . S
C915 C909 1.379 . S
C915 C912 1.363 1_554 S
C915 N913 1.356 . S
C916 C910 1.363 . S
C916 C911 1.379 . S
C916 N914 1.356 . S
N917 C909 1.356 . S
N917 H923 0.984 . S
N917 H924 0.984 . S
N918 C911 1.356 . S
N918 H921 0.984 . S
N918 H922 0.985 . S
H919 N914 0.984 . S
H920 N914 0.985 . S
H921 N918 0.984 . S
H922 N918 0.985 . S
H923 N917 0.984 . S
H924 N917 0.984 . S
H925 N913 0.984 . S
H926 N913 0.985 . S
C927 C928 1.363 . S
C927 C933 1.379 . S
C927 N935 1.356 . S
C928 C927 1.363 . S
C928 C934 1.363 1_554 S
C929 C930 1.363 1_556 S
C929 C934 1.379 . S
C929 N936 1.356 . S
C930 C929 1.363 1_554 S
C930 C933 1.363 . S
N931 C933 1.356 . S
N931 H943 0.984 . S
N931 H944 0.985 . S
N932 C934 1.356 . S
N932 H937 0.984 . S
N932 H938 0.985 . S
C933 C927 1.379 . S
C933 C930 1.363 . S
C933 N931 1.356 . S
C934 C928 1.363 1_556 S
C934 C929 1.379 . S
C934 N932 1.356 . S
N935 C927 1.356 . S
N935 H941 0.984 . S
N935 H942 0.984 . S
N936 C929 1.356 . S
N936 H939 0.984 . S
N936 H940 0.985 . S
H937 N932 0.984 . S
H938 N932 0.985 . S
H939 N936 0.984 . S
H940 N936 0.985 . S
H941 N935 0.984 . S
H942 N935 0.984 . S
H943 N931 0.984 . S
H944 N931 0.985 . S
C945 C946 1.363 . S
C945 C951 1.379 . S
C945 N953 1.356 . S
C946 C945 1.363 . S
C946 C952 1.363 . S
C947 C948 1.363 . S
C947 C952 1.379 . S
C947 N954 1.356 1_554 S
C948 C947 1.363 . S
C948 C951 1.363 . S
N949 C951 1.356 . S
N949 H961 0.984 . S
N949 H962 0.985 . S
N950 C952 1.356 1_556 S
N950 H955 0.982 1_556 S
N950 H956 0.985 . S
C951 C945 1.379 . S
C951 C948 1.363 . S
C951 N949 1.356 . S
C952 C946 1.363 . S
C952 C947 1.379 . S
C952 N950 1.356 1_554 S
N953 C945 1.356 . S
N953 H959 0.984 . S
N953 H960 0.984 . S
N954 C947 1.356 1_556 S
N954 H957 0.984 . S
N954 H958 0.985 . S
H955 N950 0.982 1_554 S
H956 N950 0.985 . S
H957 N954 0.984 . S
H958 N954 0.985 . S
H959 N953 0.984 . S
H960 N953 0.984 . S
H961 N949 0.984 . S
H962 N949 0.985 . S
C963 C964 1.363 1_556 S
C963 C969 1.379 . S
C963 N971 1.356 . S
C964 C963 1.363 1_554 S
C964 C970 1.363 . S
C965 C966 1.363 . S
C965 C970 1.379 . S
C965 N972 1.356 . S
C966 C965 1.363 . S
C966 C969 1.363 1_554 S
N967 C969 1.356 . S
N967 H979 0.984 . S
N967 H980 0.985 . S
N968 C970 1.356 . S
N968 H973 0.984 . S
N968 H974 0.985 . S
C969 C963 1.379 . S
C969 C966 1.363 1_556 S
C969 N967 1.356 . S
C970 C964 1.363 . S
C970 C965 1.379 . S
C970 N968 1.356 . S
N971 C963 1.356 . S
N971 H977 0.984 . S
N971 H978 0.984 . S
N972 C965 1.356 . S
N972 H975 0.984 . S
N972 H976 0.985 . S
H973 N968 0.984 . S
H974 N968 0.985 . S
H975 N972 0.984 . S
H976 N972 0.985 . S
H977 N971 0.984 . S
H978 N971 0.984 . S
H979 N967 0.984 . S
H980 N967 0.985 . S
C981 C982 1.362 . S
C981 C987 1.379 . S
C981 N989 1.356 1_455 S
C982 C981 1.362 . S
C982 C988 1.360 . S
C983 C984 1.363 . S
C983 C988 1.379 . S
C983 N990 1.356 . S
C984 C983 1.363 . S
C984 C987 1.363 . S
N985 C987 1.356 . S
N985 H997 0.984 . S
N985 H998 0.985 . S
N986 C988 1.356 1_655 S
N986 H991 0.984 . S
N986 H992 0.985 . S
C987 C981 1.379 . S
C987 C984 1.363 . S
C987 N985 1.356 . S
C988 C982 1.360 . S
C988 C983 1.379 . S
C988 N986 1.356 1_455 S
N989 C981 1.356 1_655 S
N989 H995 0.983 . S
N989 H996 0.984 . S
N990 C983 1.356 . S
N990 H993 0.984 . S
N990 H994 0.985 . S
H991 N986 0.984 . S
H992 N986 0.985 . S
H993 N990 0.984 . S
H994 N990 0.985 . S
H995 N989 0.983 . S
H996 N989 0.984 . S
H997 N985 0.984 . S
H998 N985 0.985 . S
C999 C1000 1.363 . S
C999 C1005 1.379 . S
C999 N1007 1.356 . S
C1000 C999 1.363 . S
C1000 C1006 1.363 . S
C1001 C1002 1.363 . S
C1001 C1006 1.379 . S
C1001 N1008 1.356 . S
C1002 C1001 1.363 . S
C1002 C1005 1.363 . S
N1003 C1005 1.356 . S
N1003 H1015 0.984 . S
N1003 H1016 0.985 . S
N1004 C1006 1.356 . S
N1004 H1009 0.984 . S
N1004 H1010 0.985 . S
C1005 C999 1.379 . S
C1005 C1002 1.363 . S
C1005 N1003 1.356 . S
C1006 C1000 1.363 . S
C1006 C1001 1.379 . S
C1006 N1004 1.356 . S
N1007 C999 1.356 . S
N1007 H1013 0.984 . S
N1007 H1014 0.984 . S
N1008 C1001 1.356 . S
N1008 H1011 0.984 . S
N1008 H1012 0.985 . S
H1009 N1004 0.984 . S
H1010 N1004 0.985 . S
H1011 N1008 0.984 . S
H1012 N1008 0.985 . S
H1013 N1007 0.984 . S
H1014 N1007 0.984 . S
H1015 N1003 0.984 . S
H1016 N1003 0.985 . S
C1017 C1018 1.363 1_565 S
C1017 C1023 1.379 . S
C1017 N1025 1.356 1_565 S
C1018 C1017 1.363 1_545 S
C1018 C1024 1.363 1_545 S
C1019 C1020 1.363 . S
C1019 C1024 1.379 . S
C1019 N1026 1.356 . S
C1020 C1019 1.363 . S
C1020 C1023 1.363 . S
N1021 C1023 1.356 . S
N1021 H1033 0.984 . S
N1021 H1034 0.985 . S
N1022 C1024 1.356 1_545 S
N1022 H1027 0.984 . S
N1022 H1028 0.985 . S
C1023 C1017 1.379 . S
C1023 C1020 1.363 . S
C1023 N1021 1.356 . S
C1024 C1018 1.363 1_565 S
C1024 C1019 1.379 . S
C1024 N1022 1.356 1_565 S
N1025 C1017 1.356 1_545 S
N1025 H1031 0.984 . S
N1025 H1032 0.984 . S
N1026 C1019 1.356 . S
N1026 H1029 0.984 . S
N1026 H1030 0.985 . S
H1027 N1022 0.984 . S
H1028 N1022 0.985 . S
H1029 N1026 0.984 . S
H1030 N1026 0.985 . S
H1031 N1025 0.984 . S
H1032 N1025 0.984 . S
H1033 N1021 0.984 . S
H1034 N1021 0.985 . S
C1035 C1036 1.363 . S
C1035 C1041 1.379 . S
C1035 N1043 1.356 . S
C1036 C1035 1.363 . S
C1036 C1042 1.363 . S
C1037 C1038 1.363 . S
C1037 C1042 1.379 . S
C1037 N1044 1.356 . S
C1038 C1037 1.363 . S
C1038 C1041 1.363 . S
N1039 C1041 1.356 . S
N1039 H1051 0.984 . S
N1039 H1052 0.985 . S
N1040 C1042 1.356 . S
N1040 H1045 0.984 . S
N1040 H1046 0.985 . S
C1041 C1035 1.379 . S
C1041 C1038 1.363 . S
C1041 N1039 1.356 . S
C1042 C1036 1.363 . S
C1042 C1037 1.379 . S
C1042 N1040 1.356 . S
N1043 C1035 1.356 . S
N1043 H1049 0.984 . S
N1043 H1050 0.984 . S
N1044 C1037 1.356 . S
N1044 H1047 0.984 . S
N1044 H1048 0.985 . S
H1045 N1040 0.984 . S
H1046 N1040 0.985 . S
H1047 N1044 0.984 . S
H1048 N1044 0.985 . S
H1049 N1043 0.984 . S
H1050 N1043 0.984 . S
H1051 N1039 0.984 . S
H1052 N1039 0.985 . S
C1053 C1054 1.363 . S
C1053 C1059 1.379 . S
C1053 N1061 1.356 . S
C1054 C1053 1.363 . S
C1054 C1060 1.363 . S
C1055 C1056 1.363 . S
C1055 C1060 1.379 . S
C1055 N1062 1.356 . S
C1056 C1055 1.363 . S
C1056 C1059 1.363 . S
N1057 C1059 1.356 . S
N1057 H1069 0.984 . S
N1057 H1070 0.985 . S
N1058 C1060 1.356 . S
N1058 H1063 0.984 . S
N1058 H1064 0.985 . S
C1059 C1053 1.379 . S
C1059 C1056 1.363 . S
C1059 N1057 1.356 . S
C1060 C1054 1.363 . S
C1060 C1055 1.379 . S
C1060 N1058 1.356 . S
N1061 C1053 1.356 . S
N1061 H1067 0.984 . S
N1061 H1068 0.984 . S
N1062 C1055 1.356 . S
N1062 H1065 0.984 . S
N1062 H1066 0.985 . S
H1063 N1058 0.984 . S
H1064 N1058 0.985 . S
H1065 N1062 0.984 . S
H1066 N1062 0.985 . S
H1067 N1061 0.984 . S
H1068 N1061 0.984 . S
H1069 N1057 0.984 . S
H1070 N1057 0.985 . S
C1071 C1072 1.363 . S
C1071 C1077 1.379 . S
C1071 N1079 1.356 . S
C1072 C1071 1.363 . S
C1072 C1078 1.363 . S
C1073 C1074 1.363 . S
C1073 C1078 1.379 . S
C1073 N1080 1.356 . S
C1074 C1073 1.363 . S
C1074 C1077 1.363 . S
N1075 C1077 1.356 . S
N1075 H1087 0.984 . S
N1075 H1088 0.985 . S
N1076 C1078 1.356 . S
N1076 H1081 0.984 . S
N1076 H1082 0.985 . S
C1077 C1071 1.379 . S
C1077 C1074 1.363 . S
C1077 N1075 1.356 . S
C1078 C1072 1.363 . S
C1078 C1073 1.379 . S
C1078 N1076 1.356 . S
N1079 C1071 1.356 . S
N1079 H1085 0.984 . S
N1079 H1086 0.984 . S
N1080 C1073 1.356 . S
N1080 H1083 0.984 . S
N1080 H1084 0.985 . S
H1081 N1076 0.984 . S
H1082 N1076 0.985 . S
H1083 N1080 0.984 . S
H1084 N1080 0.985 . S
H1085 N1079 0.984 . S
H1086 N1079 0.984 . S
H1087 N1075 0.984 . S
H1088 N1075 0.985 . S
C1089 C1090 1.363 . S
C1089 C1095 1.379 . S
C1089 N1097 1.356 . S
C1090 C1089 1.363 . S
C1090 C1096 1.363 . S
C1091 C1092 1.363 . S
C1091 C1096 1.379 . S
C1091 N1098 1.356 . S
C1092 C1091 1.363 . S
C1092 C1095 1.363 . S
N1093 C1095 1.356 . S
N1093 H1105 0.984 . S
N1093 H1106 0.985 . S
N1094 C1096 1.356 . S
N1094 H1099 0.984 . S
N1094 H1100 0.985 . S
C1095 C1089 1.379 . S
C1095 C1092 1.363 . S
C1095 N1093 1.356 . S
C1096 C1090 1.363 . S
C1096 C1091 1.379 . S
C1096 N1094 1.356 . S
N1097 C1089 1.356 . S
N1097 H1103 0.984 . S
N1097 H1104 0.984 . S
N1098 C1091 1.356 . S
N1098 H1101 0.984 . S
N1098 H1102 0.985 . S
H1099 N1094 0.984 . S
H1100 N1094 0.985 . S
H1101 N1098 0.984 . S
H1102 N1098 0.985 . S
H1103 N1097 0.984 . S
H1104 N1097 0.984 . S
H1105 N1093 0.984 . S
H1106 N1093 0.985 . S
C1107 C1108 1.363 . S
C1107 C1113 1.379 . S
C1107 N1115 1.356 . S
C1108 C1107 1.363 . S
C1108 C1114 1.363 . S
C1109 C1110 1.363 . S
C1109 C1114 1.379 . S
C1109 N1116 1.356 . S
C1110 C1109 1.363 . S
C1110 C1113 1.363 . S
N1111 C1113 1.356 . S
N1111 H1123 0.984 . S
N1111 H1124 0.985 . S
N1112 C1114 1.356 . S
N1112 H1117 0.984 . S
N1112 H1118 0.985 . S
C1113 C1107 1.379 . S
C1113 C1110 1.363 . S
C1113 N1111 1.356 . S
C1114 C1108 1.363 . S
C1114 C1109 1.379 . S
C1114 N1112 1.356 . S
N1115 C1107 1.356 . S
N1115 H1121 0.984 . S
N1115 H1122 0.984 . S
N1116 C1109 1.356 . S
N1116 H1119 0.984 . S
N1116 H1120 0.985 . S
H1117 N1112 0.984 . S
H1118 N1112 0.985 . S
H1119 N1116 0.984 . S
H1120 N1116 0.985 . S
H1121 N1115 0.984 . S
H1122 N1115 0.984 . S
H1123 N1111 0.984 . S
H1124 N1111 0.985 . S
C1125 C1126 1.363 . S
C1125 C1131 1.379 . S
C1125 N1133 1.356 . S
C1126 C1125 1.363 . S
C1126 C1132 1.363 . S
C1127 C1128 1.363 . S
C1127 C1132 1.379 . S
C1127 N1134 1.356 . S
C1128 C1127 1.363 . S
C1128 C1131 1.363 . S
N1129 C1131 1.356 . S
N1129 H1141 0.984 . S
N1129 H1142 0.985 . S
N1130 C1132 1.356 . S
N1130 H1135 0.984 . S
N1130 H1136 0.985 . S
C1131 C1125 1.379 . S
C1131 C1128 1.363 . S
C1131 N1129 1.356 . S
C1132 C1126 1.363 . S
C1132 C1127 1.379 . S
C1132 N1130 1.356 . S
N1133 C1125 1.356 . S
N1133 H1139 0.984 . S
N1133 H1140 0.984 . S
N1134 C1127 1.356 . S
N1134 H1137 0.984 . S
N1134 H1138 0.985 . S
H1135 N1130 0.984 . S
H1136 N1130 0.985 . S
H1137 N1134 0.984 . S
H1138 N1134 0.985 . S
H1139 N1133 0.984 . S
H1140 N1133 0.984 . S
H1141 N1129 0.984 . S
H1142 N1129 0.985 . S
C1143 C1144 1.363 1_565 S
C1143 C1149 1.379 . S
C1143 N1151 1.356 1_565 S
C1144 C1143 1.363 1_545 S
C1144 C1150 1.363 1_545 S
C1145 C1146 1.363 . S
C1145 C1150 1.379 . S
C1145 N1152 1.356 . S
C1146 C1145 1.363 . S
C1146 C1149 1.363 . S
N1147 C1149 1.356 . S
N1147 H1159 0.984 . S
N1147 H1160 0.985 . S
N1148 C1150 1.356 1_545 S
N1148 H1153 0.984 . S
N1148 H1154 0.985 . S
C1149 C1143 1.379 . S
C1149 C1146 1.363 . S
C1149 N1147 1.356 . S
C1150 C1144 1.363 1_565 S
C1150 C1145 1.379 . S
C1150 N1148 1.356 1_565 S
N1151 C1143 1.356 1_545 S
N1151 H1157 0.973 1_545 S
N1151 H1158 0.984 . S
N1152 C1145 1.356 . S
N1152 H1155 0.984 . S
N1152 H1156 0.985 . S
H1153 N1148 0.984 . S
H1154 N1148 0.985 . S
H1155 N1152 0.984 . S
H1156 N1152 0.985 . S
H1157 N1151 0.973 1_565 S
H1158 N1151 0.984 . S
H1159 N1147 0.984 . S
H1160 N1147 0.985 . S
C1161 C1162 1.363 1_455 S
C1161 C1167 1.379 . S
C1161 N1169 1.356 1_455 S
C1162 C1161 1.363 1_655 S
C1162 C1168 1.363 1_655 S
C1163 C1164 1.363 . S
C1163 C1168 1.379 . S
C1163 N1170 1.356 . S
C1164 C1163 1.363 . S
C1164 C1167 1.363 . S
N1165 C1167 1.356 . S
N1165 H1177 0.984 . S
N1165 H1178 0.985 . S
N1166 C1168 1.356 1_655 S
N1166 H1171 0.984 . S
N1166 H1172 0.984 . S
C1167 C1161 1.379 . S
C1167 C1164 1.363 . S
C1167 N1165 1.356 . S
C1168 C1162 1.363 1_455 S
C1168 C1163 1.379 . S
C1168 N1166 1.356 1_455 S
N1169 C1161 1.356 1_655 S
N1169 H1175 0.984 . S
N1169 H1176 0.984 . S
N1170 C1163 1.356 . S
N1170 H1173 0.984 . S
N1170 H1174 0.985 . S
H1171 N1166 0.984 . S
H1172 N1166 0.984 . S
H1173 N1170 0.984 . S
H1174 N1170 0.985 . S
H1175 N1169 0.984 . S
H1176 N1169 0.984 . S
H1177 N1165 0.984 . S
H1178 N1165 0.985 . S
C1179 C1180 1.363 . S
C1179 C1185 1.379 . S
C1179 N1187 1.356 . S
C1180 C1179 1.363 . S
C1180 C1186 1.363 . S
C1181 C1182 1.363 . S
C1181 C1186 1.379 . S
C1181 N1188 1.356 . S
C1182 C1181 1.363 . S
C1182 C1185 1.363 . S
N1183 C1185 1.356 . S
N1183 H1195 0.984 . S
N1183 H1196 0.985 . S
N1184 C1186 1.356 . S
N1184 H1189 0.984 . S
N1184 H1190 0.985 . S
C1185 C1179 1.379 . S
C1185 C1182 1.363 . S
C1185 N1183 1.356 . S
C1186 C1180 1.363 . S
C1186 C1181 1.379 . S
C1186 N1184 1.356 . S
N1187 C1179 1.356 . S
N1187 H1193 0.984 . S
N1187 H1194 0.984 . S
N1188 C1181 1.356 . S
N1188 H1191 0.984 . S
N1188 H1192 0.985 . S
H1189 N1184 0.984 . S
H1190 N1184 0.985 . S
H1191 N1188 0.984 . S
H1192 N1188 0.985 . S
H1193 N1187 0.984 . S
H1194 N1187 0.984 . S
H1195 N1183 0.984 . S
H1196 N1183 0.985 . S
C1197 C1198 1.363 . S
C1197 C1203 1.379 . S
C1197 N1205 1.356 . S
C1198 C1197 1.363 . S
C1198 C1204 1.363 . S
C1199 C1200 1.363 . S
C1199 C1204 1.379 . S
C1199 N1206 1.356 . S
C1200 C1199 1.363 . S
C1200 C1203 1.363 . S
N1201 C1203 1.356 . S
N1201 H1213 0.984 . S
N1201 H1214 0.985 . S
N1202 C1204 1.356 . S
N1202 H1207 0.984 . S
N1202 H1208 0.985 . S
C1203 C1197 1.379 . S
C1203 C1200 1.363 . S
C1203 N1201 1.356 . S
C1204 C1198 1.363 . S
C1204 C1199 1.379 . S
C1204 N1202 1.356 . S
N1205 C1197 1.356 . S
N1205 H1211 0.984 . S
N1205 H1212 0.984 . S
N1206 C1199 1.356 . S
N1206 H1209 0.984 . S
N1206 H1210 0.985 . S
H1207 N1202 0.984 . S
H1208 N1202 0.985 . S
H1209 N1206 0.984 . S
H1210 N1206 0.985 . S
H1211 N1205 0.984 . S
H1212 N1205 0.984 . S
H1213 N1201 0.984 . S
H1214 N1201 0.985 . S
C1215 C1216 1.363 . S
C1215 C1221 1.379 . S
C1215 N1223 1.356 . S
C1216 C1215 1.363 . S
C1216 C1222 1.363 . S
C1217 C1218 1.363 . S
C1217 C1222 1.379 . S
C1217 N1224 1.356 . S
C1218 C1217 1.363 . S
C1218 C1221 1.363 . S
N1219 C1221 1.356 . S
N1219 H1231 0.984 . S
N1219 H1232 0.985 . S
N1220 C1222 1.356 . S
N1220 H1225 0.984 . S
N1220 H1226 0.985 . S
C1221 C1215 1.379 . S
C1221 C1218 1.363 . S
C1221 N1219 1.356 . S
C1222 C1216 1.363 . S
C1222 C1217 1.379 . S
C1222 N1220 1.356 . S
N1223 C1215 1.356 . S
N1223 H1229 0.984 . S
N1223 H1230 0.984 . S
N1224 C1217 1.356 . S
N1224 H1227 0.984 . S
N1224 H1228 0.985 . S
H1225 N1220 0.984 . S
H1226 N1220 0.985 . S
H1227 N1224 0.984 . S
H1228 N1224 0.985 . S
H1229 N1223 0.984 . S
H1230 N1223 0.984 . S
H1231 N1219 0.984 . S
H1232 N1219 0.985 . S
C1233 C1234 1.363 . S
C1233 C1239 1.379 . S
C1233 N1241 1.356 . S
C1234 C1233 1.363 . S
C1234 C1240 1.363 . S
C1235 C1236 1.363 . S
C1235 C1240 1.379 . S
C1235 N1242 1.356 . S
C1236 C1235 1.363 . S
C1236 C1239 1.363 . S
N1237 C1239 1.356 . S
N1237 H1249 0.984 . S
N1237 H1250 0.985 . S
N1238 C1240 1.356 . S
N1238 H1243 0.984 . S
N1238 H1244 0.985 . S
C1239 C1233 1.379 . S
C1239 C1236 1.363 . S
C1239 N1237 1.356 . S
C1240 C1234 1.363 . S
C1240 C1235 1.379 . S
C1240 N1238 1.356 . S
N1241 C1233 1.356 . S
N1241 H1247 0.984 . S
N1241 H1248 0.984 . S
N1242 C1235 1.356 . S
N1242 H1245 0.984 . S
N1242 H1246 0.985 . S
H1243 N1238 0.984 . S
H1244 N1238 0.985 . S
H1245 N1242 0.984 . S
H1246 N1242 0.985 . S
H1247 N1241 0.984 . S
H1248 N1241 0.984 . S
H1249 N1237 0.984 . S
H1250 N1237 0.985 . S
C1251 C1252 1.363 1_545 S
C1251 C1257 1.379 . S
C1251 N1259 1.356 1_545 S
C1252 C1251 1.363 1_565 S
C1252 C1258 1.363 1_565 S
C1253 C1254 1.363 . S
C1253 C1258 1.379 . S
C1253 N1260 1.356 . S
C1254 C1253 1.363 . S
C1254 C1257 1.363 . S
N1255 C1257 1.356 . S
N1255 H1267 0.984 . S
N1255 H1268 0.985 . S
N1256 C1258 1.356 1_565 S
N1256 H1261 0.984 . S
N1256 H1262 0.985 . S
C1257 C1251 1.379 . S
C1257 C1254 1.363 . S
C1257 N1255 1.356 . S
C1258 C1252 1.363 1_545 S
C1258 C1253 1.379 . S
C1258 N1256 1.356 1_545 S
N1259 C1251 1.356 1_565 S
N1259 H1265 0.984 . S
N1259 H1266 0.984 . S
N1260 C1253 1.356 . S
N1260 H1263 0.984 . S
N1260 H1264 0.985 . S
H1261 N1256 0.984 . S
H1262 N1256 0.985 . S
H1263 N1260 0.984 . S
H1264 N1260 0.985 . S
H1265 N1259 0.984 . S
H1266 N1259 0.984 . S
H1267 N1255 0.984 . S
H1268 N1255 0.985 . S
C1269 C1270 1.363 1_655 S
C1269 C1275 1.379 . S
C1269 N1277 1.356 1_655 S
C1270 C1269 1.363 1_455 S
C1270 C1276 1.363 1_455 S
C1271 C1272 1.363 . S
C1271 C1276 1.379 . S
C1271 N1278 1.356 . S
C1272 C1271 1.363 . S
C1272 C1275 1.363 . S
N1273 C1275 1.356 . S
N1273 H1285 0.984 . S
N1273 H1286 0.985 . S
N1274 C1276 1.356 1_455 S
N1274 H1279 0.984 . S
N1274 H1280 0.985 . S
C1275 C1269 1.379 . S
C1275 C1272 1.363 . S
C1275 N1273 1.356 . S
C1276 C1270 1.363 1_655 S
C1276 C1271 1.379 . S
C1276 N1274 1.356 1_655 S
N1277 C1269 1.356 1_455 S
N1277 H1283 0.984 . S
N1277 H1284 0.984 . S
N1278 C1271 1.356 . S
N1278 H1281 0.984 . S
N1278 H1282 0.985 . S
H1279 N1274 0.984 . S
H1280 N1274 0.985 . S
H1281 N1278 0.984 . S
H1282 N1278 0.985 . S
H1283 N1277 0.984 . S
H1284 N1277 0.984 . S
H1285 N1273 0.984 . S
H1286 N1273 0.985 . S
C1287 C1288 1.363 . S
C1287 C1293 1.379 . S
C1287 N1295 1.356 . S
C1288 C1287 1.363 . S
C1288 C1294 1.363 . S
C1289 C1290 1.363 . S
C1289 C1294 1.379 . S
C1289 N1296 1.356 . S
C1290 C1289 1.363 . S
C1290 C1293 1.363 . S
N1291 C1293 1.356 . S
N1291 H1303 0.984 . S
N1291 H1304 0.985 . S
N1292 C1294 1.356 . S
N1292 H1297 0.984 . S
N1292 H1298 0.985 . S
C1293 C1287 1.379 . S
C1293 C1290 1.363 . S
C1293 N1291 1.356 . S
C1294 C1288 1.363 . S
C1294 C1289 1.379 . S
C1294 N1292 1.356 . S
N1295 C1287 1.356 . S
N1295 H1301 0.984 . S
N1295 H1302 0.984 . S
N1296 C1289 1.356 . S
N1296 H1299 0.984 . S
N1296 H1300 0.985 . S
H1297 N1292 0.984 . S
H1298 N1292 0.985 . S
H1299 N1296 0.984 . S
H1300 N1296 0.985 . S
H1301 N1295 0.984 . S
H1302 N1295 0.984 . S
H1303 N1291 0.984 . S
H1304 N1291 0.985 . S
C1305 C1306 1.363 1_655 S
C1305 C1311 1.379 . S
C1305 N1313 1.356 1_655 S
C1306 C1305 1.363 1_455 S
C1306 C1312 1.363 1_455 S
C1307 C1308 1.363 . S
C1307 C1312 1.379 . S
C1307 N1314 1.356 . S
C1308 C1307 1.363 . S
C1308 C1311 1.363 . S
N1309 C1311 1.356 . S
N1309 H1321 0.984 . S
N1309 H1322 0.985 . S
N1310 C1312 1.356 1_455 S
N1310 H1315 0.984 . S
N1310 H1316 0.985 . S
C1311 C1305 1.379 . S
C1311 C1308 1.363 . S
C1311 N1309 1.356 . S
C1312 C1306 1.363 1_655 S
C1312 C1307 1.379 . S
C1312 N1310 1.356 1_655 S
N1313 C1305 1.356 1_455 S
N1313 H1319 0.984 . S
N1313 H1320 0.984 . S
N1314 C1307 1.356 . S
N1314 H1317 0.984 . S
N1314 H1318 0.985 . S
H1315 N1310 0.984 . S
H1316 N1310 0.985 . S
H1317 N1314 0.984 . S
H1318 N1314 0.985 . S
H1319 N1313 0.984 . S
H1320 N1313 0.984 . S
H1321 N1309 0.984 . S
H1322 N1309 0.985 . S
C1323 C1324 1.363 . S
C1323 C1329 1.379 . S
C1323 N1331 1.356 . S
C1324 C1323 1.363 . S
C1324 C1330 1.363 . S
C1325 C1326 1.363 . S
C1325 C1330 1.379 . S
C1325 N1332 1.356 . S
C1326 C1325 1.363 . S
C1326 C1329 1.363 . S
N1327 C1329 1.356 . S
N1327 H1339 0.984 . S
N1327 H1340 0.985 . S
N1328 C1330 1.356 . S
N1328 H1333 0.984 . S
N1328 H1334 0.985 . S
C1329 C1323 1.379 . S
C1329 C1326 1.363 . S
C1329 N1327 1.356 . S
C1330 C1324 1.363 . S
C1330 C1325 1.379 . S
C1330 N1328 1.356 . S
N1331 C1323 1.356 . S
N1331 H1337 0.984 . S
N1331 H1338 0.984 . S
N1332 C1325 1.356 . S
N1332 H1335 0.984 . S
N1332 H1336 0.985 . S
H1333 N1328 0.984 . S
H1334 N1328 0.985 . S
H1335 N1332 0.984 . S
H1336 N1332 0.985 . S
H1337 N1331 0.984 . S
H1338 N1331 0.984 . S
H1339 N1327 0.984 . S
H1340 N1327 0.985 . S
C1341 C1342 1.363 1_545 S
C1341 C1347 1.379 . S
C1341 N1349 1.356 1_545 S
C1342 C1341 1.363 1_565 S
C1342 C1348 1.363 1_565 S
C1343 C1344 1.363 . S
C1343 C1348 1.379 . S
C1343 N1350 1.356 . S
C1344 C1343 1.363 . S
C1344 C1347 1.363 . S
N1345 C1347 1.356 . S
N1345 H1357 0.984 . S
N1345 H1358 0.985 . S
N1346 C1348 1.356 1_565 S
N1346 H1351 0.984 . S
N1346 H1352 0.985 . S
C1347 C1341 1.379 . S
C1347 C1344 1.363 . S
C1347 N1345 1.356 . S
C1348 C1342 1.363 1_545 S
C1348 C1343 1.379 . S
C1348 N1346 1.356 1_545 S
N1349 C1341 1.356 1_565 S
N1349 H1355 0.984 . S
N1349 H1356 0.984 . S
N1350 C1343 1.356 . S
N1350 H1353 0.984 . S
N1350 H1354 0.985 . S
H1351 N1346 0.984 . S
H1352 N1346 0.985 . S
H1353 N1350 0.984 . S
H1354 N1350 0.985 . S
H1355 N1349 0.984 . S
H1356 N1349 0.984 . S
H1357 N1345 0.984 . S
H1358 N1345 0.985 . S
C1359 C1360 1.363 . S
C1359 C1365 1.379 . S
C1359 N1367 1.356 . S
C1360 C1359 1.363 . S
C1360 C1366 1.363 . S
C1361 C1362 1.363 . S
C1361 C1366 1.379 . S
C1361 N1368 1.356 . S
C1362 C1361 1.363 . S
C1362 C1365 1.363 . S
N1363 C1365 1.356 . S
N1363 H1375 0.984 . S
N1363 H1376 0.985 . S
N1364 C1366 1.356 . S
N1364 H1369 0.984 . S
N1364 H1370 0.985 . S
C1365 C1359 1.379 . S
C1365 C1362 1.363 . S
C1365 N1363 1.356 . S
C1366 C1360 1.363 . S
C1366 C1361 1.379 . S
C1366 N1364 1.356 . S
N1367 C1359 1.356 . S
N1367 H1373 0.984 . S
N1367 H1374 0.984 . S
N1368 C1361 1.356 . S
N1368 H1371 0.984 . S
N1368 H1372 0.985 . S
H1369 N1364 0.984 . S
H1370 N1364 0.985 . S
H1371 N1368 0.984 . S
H1372 N1368 0.985 . S
H1373 N1367 0.984 . S
H1374 N1367 0.984 . S
H1375 N1363 0.984 . S
H1376 N1363 0.985 . S
C1377 C1378 1.363 . S
C1377 C1383 1.379 . S
C1377 N1385 1.356 . S
C1378 C1377 1.363 . S
C1378 C1384 1.363 . S
C1379 C1380 1.363 . S
C1379 C1384 1.379 . S
C1379 N1386 1.356 . S
C1380 C1379 1.363 . S
C1380 C1383 1.363 . S
N1381 C1383 1.356 . S
N1381 H1393 0.984 . S
N1381 H1394 0.985 . S
N1382 C1384 1.356 . S
N1382 H1387 0.984 . S
N1382 H1388 0.985 . S
C1383 C1377 1.379 . S
C1383 C1380 1.363 . S
C1383 N1381 1.356 . S
C1384 C1378 1.363 . S
C1384 C1379 1.379 . S
C1384 N1382 1.356 . S
N1385 C1377 1.356 . S
N1385 H1391 0.984 . S
N1385 H1392 0.984 . S
N1386 C1379 1.356 . S
N1386 H1389 0.984 . S
N1386 H1390 0.985 . S
H1387 N1382 0.984 . S
H1388 N1382 0.985 . S
H1389 N1386 0.984 . S
H1390 N1386 0.985 . S
H1391 N1385 0.984 . S
H1392 N1385 0.984 . S
H1393 N1381 0.984 . S
H1394 N1381 0.985 . S
C1395 C1396 1.363 . S
C1395 C1401 1.379 . S
C1395 N1403 1.356 . S
C1396 C1395 1.363 . S
C1396 C1402 1.363 . S
C1397 C1398 1.363 . S
C1397 C1402 1.379 . S
C1397 N1404 1.356 . S
C1398 C1397 1.363 . S
C1398 C1401 1.363 . S
N1399 C1401 1.356 . S
N1399 H1411 0.984 . S
N1399 H1412 0.985 . S
N1400 C1402 1.356 . S
N1400 H1405 0.984 . S
N1400 H1406 0.985 . S
C1401 C1395 1.379 . S
C1401 C1398 1.363 . S
C1401 N1399 1.356 . S
C1402 C1396 1.363 . S
C1402 C1397 1.379 . S
C1402 N1400 1.356 . S
N1403 C1395 1.356 . S
N1403 H1409 0.984 . S
N1403 H1410 0.984 . S
N1404 C1397 1.356 . S
N1404 H1407 0.984 . S
N1404 H1408 0.985 . S
H1405 N1400 0.984 . S
H1406 N1400 0.985 . S
H1407 N1404 0.984 . S
H1408 N1404 0.985 . S
H1409 N1403 0.984 . S
H1410 N1403 0.984 . S
H1411 N1399 0.984 . S
H1412 N1399 0.985 . S
C1413 C1414 1.363 1_545 S
C1413 C1419 1.379 . S
C1413 N1421 1.356 . S
C1414 C1413 1.363 1_565 S
C1414 C1420 1.363 . S
C1415 C1416 1.363 . S
C1415 C1420 1.379 . S
C1415 N1422 1.356 . S
C1416 C1415 1.363 . S
C1416 C1419 1.363 1_565 S
N1417 C1419 1.356 . S
N1417 H1429 0.984 . S
N1417 H1430 0.985 . S
N1418 C1420 1.356 . S
N1418 H1423 0.984 . S
N1418 H1424 0.985 . S
C1419 C1413 1.379 . S
C1419 C1416 1.363 1_545 S
C1419 N1417 1.356 . S
C1420 C1414 1.363 . S
C1420 C1415 1.379 . S
C1420 N1418 1.356 . S
N1421 C1413 1.356 . S
N1421 H1427 0.984 . S
N1421 H1428 0.984 . S
N1422 C1415 1.356 . S
N1422 H1425 0.984 . S
N1422 H1426 0.985 . S
H1423 N1418 0.984 . S
H1424 N1418 0.985 . S
H1425 N1422 0.984 . S
H1426 N1422 0.985 . S
H1427 N1421 0.984 . S
H1428 N1421 0.984 . S
H1429 N1417 0.984 . S
H1430 N1417 0.985 . S
C1431 C1432 1.363 . S
C1431 C1437 1.379 . S
C1431 N1439 1.356 . S
C1432 C1431 1.363 . S
C1432 C1438 1.363 . S
C1433 C1434 1.363 . S
C1433 C1438 1.379 . S
C1433 N1440 1.356 . S
C1434 C1433 1.363 . S
C1434 C1437 1.363 . S
N1435 C1437 1.356 . S
N1435 H1447 0.984 . S
N1435 H1448 0.985 . S
N1436 C1438 1.356 . S
N1436 H1441 0.984 . S
N1436 H1442 0.985 . S
C1437 C1431 1.379 . S
C1437 C1434 1.363 . S
C1437 N1435 1.356 . S
C1438 C1432 1.363 . S
C1438 C1433 1.379 . S
C1438 N1436 1.356 . S
N1439 C1431 1.356 . S
N1439 H1445 0.984 . S
N1439 H1446 0.984 . S
N1440 C1433 1.356 . S
N1440 H1443 0.984 . S
N1440 H1444 0.985 . S
H1441 N1436 0.984 . S
H1442 N1436 0.985 . S
H1443 N1440 0.984 . S
H1444 N1440 0.985 . S
H1445 N1439 0.984 . S
H1446 N1439 0.984 . S
H1447 N1435 0.984 . S
H1448 N1435 0.985 . S
C1449 C1450 1.363 . S
C1449 C1455 1.379 . S
C1449 N1457 1.356 . S
C1450 C1449 1.363 . S
C1450 C1456 1.363 . S
C1451 C1452 1.363 . S
C1451 C1456 1.379 . S
C1451 N1458 1.356 . S
C1452 C1451 1.363 . S
C1452 C1455 1.363 . S
N1453 C1455 1.356 . S
N1453 H1465 0.984 . S
N1453 H1466 0.985 . S
N1454 C1456 1.356 . S
N1454 H1459 0.984 . S
N1454 H1460 0.985 . S
C1455 C1449 1.379 . S
C1455 C1452 1.363 . S
C1455 N1453 1.356 . S
C1456 C1450 1.363 . S
C1456 C1451 1.379 . S
C1456 N1454 1.356 . S
N1457 C1449 1.356 . S
N1457 H1463 0.984 . S
N1457 H1464 0.984 . S
N1458 C1451 1.356 . S
N1458 H1461 0.984 . S
N1458 H1462 0.985 . S
H1459 N1454 0.984 . S
H1460 N1454 0.985 . S
H1461 N1458 0.984 . S
H1462 N1458 0.985 . S
H1463 N1457 0.984 . S
H1464 N1457 0.984 . S
H1465 N1453 0.984 . S
H1466 N1453 0.985 . S
C1467 C1468 1.363 1_455 S
C1467 C1473 1.379 . S
C1467 N1475 1.356 . S
C1468 C1467 1.363 1_655 S
C1468 C1474 1.363 . S
C1469 C1470 1.363 . S
C1469 C1474 1.379 . S
C1469 N1476 1.356 . S
C1470 C1469 1.363 . S
C1470 C1473 1.363 1_655 S
N1471 C1473 1.356 . S
N1471 H1483 0.984 . S
N1471 H1484 0.985 . S
N1472 C1474 1.356 . S
N1472 H1477 0.984 . S
N1472 H1478 0.985 . S
C1473 C1467 1.379 . S
C1473 C1470 1.363 1_455 S
C1473 N1471 1.356 . S
C1474 C1468 1.363 . S
C1474 C1469 1.379 . S
C1474 N1472 1.356 . S
N1475 C1467 1.356 . S
N1475 H1481 0.984 . S
N1475 H1482 0.984 . S
N1476 C1469 1.356 . S
N1476 H1479 0.984 . S
N1476 H1480 0.985 . S
H1477 N1472 0.984 . S
H1478 N1472 0.985 . S
H1479 N1476 0.984 . S
H1480 N1476 0.985 . S
H1481 N1475 0.984 . S
H1482 N1475 0.984 . S
H1483 N1471 0.984 . S
H1484 N1471 0.985 . S
C1485 C1486 1.363 . S
C1485 C1491 1.379 . S
C1485 N1493 1.356 . S
C1486 C1485 1.363 . S
C1486 C1492 1.363 . S
C1487 C1488 1.363 . S
C1487 C1492 1.379 . S
C1487 N1494 1.356 . S
C1488 C1487 1.363 . S
C1488 C1491 1.363 . S
N1489 C1491 1.356 . S
N1489 H1501 0.984 . S
N1489 H1502 0.985 . S
N1490 C1492 1.356 . S
N1490 H1495 0.984 . S
N1490 H1496 0.985 . S
C1491 C1485 1.379 . S
C1491 C1488 1.363 . S
C1491 N1489 1.356 . S
C1492 C1486 1.363 . S
C1492 C1487 1.379 . S
C1492 N1490 1.356 . S
N1493 C1485 1.356 . S
N1493 H1499 0.984 . S
N1493 H1500 0.984 . S
N1494 C1487 1.356 . S
N1494 H1497 0.984 . S
N1494 H1498 0.985 . S
H1495 N1490 0.984 . S
H1496 N1490 0.985 . S
H1497 N1494 0.984 . S
H1498 N1494 0.985 . S
H1499 N1493 0.984 . S
H1500 N1493 0.984 . S
H1501 N1489 0.984 . S
H1502 N1489 0.985 . S
C1503 C1504 1.363 . S
C1503 C1509 1.379 . S
C1503 N1511 1.356 . S
C1504 C1503 1.363 . S
C1504 C1510 1.363 1_545 S
C1505 C1506 1.363 1_565 S
C1505 C1510 1.379 . S
C1505 N1512 1.356 . S
C1506 C1505 1.363 1_545 S
C1506 C1509 1.363 . S
N1507 C1509 1.356 . S
N1507 H1519 0.984 . S
N1507 H1520 0.985 . S
N1508 C1510 1.356 . S
N1508 H1513 0.984 . S
N1508 H1514 0.985 . S
C1509 C1503 1.379 . S
C1509 C1506 1.363 . S
C1509 N1507 1.356 . S
C1510 C1504 1.363 1_565 S
C1510 C1505 1.379 . S
C1510 N1508 1.356 . S
N1511 C1503 1.356 . S
N1511 H1517 0.984 . S
N1511 H1518 0.984 . S
N1512 C1505 1.356 . S
N1512 H1515 0.984 . S
N1512 H1516 0.985 . S
H1513 N1508 0.984 . S
H1514 N1508 0.985 . S
H1515 N1512 0.984 . S
H1516 N1512 0.985 . S
H1517 N1511 0.984 . S
H1518 N1511 0.984 . S
H1519 N1507 0.984 . S
H1520 N1507 0.985 . S
C1521 C1522 1.363 . S
C1521 C1527 1.379 . S
C1521 N1529 1.356 . S
C1522 C1521 1.363 . S
C1522 C1528 1.363 . S
C1523 C1524 1.363 . S
C1523 C1528 1.379 . S
C1523 N1530 1.356 . S
C1524 C1523 1.363 . S
C1524 C1527 1.363 . S
N1525 C1527 1.356 . S
N1525 H1537 0.984 . S
N1525 H1538 0.985 . S
N1526 C1528 1.356 . S
N1526 H1531 0.984 . S
N1526 H1532 0.985 . S
C1527 C1521 1.379 . S
C1527 C1524 1.363 . S
C1527 N1525 1.356 . S
C1528 C1522 1.363 . S
C1528 C1523 1.379 . S
C1528 N1526 1.356 . S
N1529 C1521 1.356 . S
N1529 H1535 0.984 . S
N1529 H1536 0.984 . S
N1530 C1523 1.356 . S
N1530 H1533 0.984 . S
N1530 H1534 0.985 . S
H1531 N1526 0.984 . S
H1532 N1526 0.985 . S
H1533 N1530 0.984 . S
H1534 N1530 0.985 . S
H1535 N1529 0.984 . S
H1536 N1529 0.984 . S
H1537 N1525 0.984 . S
H1538 N1525 0.985 . S
C1539 C1540 1.363 . S
C1539 C1545 1.379 . S
C1539 N1547 1.356 . S
C1540 C1539 1.363 . S
C1540 C1546 1.363 . S
C1541 C1542 1.363 . S
C1541 C1546 1.379 . S
C1541 N1548 1.356 . S
C1542 C1541 1.363 . S
C1542 C1545 1.363 . S
N1543 C1545 1.356 . S
N1543 H1555 0.984 . S
N1543 H1556 0.985 . S
N1544 C1546 1.356 . S
N1544 H1549 0.984 . S
N1544 H1550 0.985 . S
C1545 C1539 1.379 . S
C1545 C1542 1.363 . S
C1545 N1543 1.356 . S
C1546 C1540 1.363 . S
C1546 C1541 1.379 . S
C1546 N1544 1.356 . S
N1547 C1539 1.356 . S
N1547 H1553 0.984 . S
N1547 H1554 0.984 . S
N1548 C1541 1.356 . S
N1548 H1551 0.984 . S
N1548 H1552 0.985 . S
H1549 N1544 0.984 . S
H1550 N1544 0.985 . S
H1551 N1548 0.984 . S
H1552 N1548 0.985 . S
H1553 N1547 0.984 . S
H1554 N1547 0.984 . S
H1555 N1543 0.984 . S
H1556 N1543 0.985 . S
C1557 C1558 1.363 . S
C1557 C1563 1.379 . S
C1557 N1565 1.356 . S
C1558 C1557 1.363 . S
C1558 C1564 1.363 . S
C1559 C1560 1.363 . S
C1559 C1564 1.379 . S
C1559 N1566 1.356 . S
C1560 C1559 1.363 . S
C1560 C1563 1.363 . S
N1561 C1563 1.356 . S
N1561 H1573 0.984 . S
N1561 H1574 0.985 . S
N1562 C1564 1.356 . S
N1562 H1567 0.984 . S
N1562 H1568 0.985 . S
C1563 C1557 1.379 . S
C1563 C1560 1.363 . S
C1563 N1561 1.356 . S
C1564 C1558 1.363 . S
C1564 C1559 1.379 . S
C1564 N1562 1.356 . S
N1565 C1557 1.356 . S
N1565 H1571 0.984 . S
N1565 H1572 0.984 . S
N1566 C1559 1.356 . S
N1566 H1569 0.984 . S
N1566 H1570 0.985 . S
H1567 N1562 0.984 . S
H1568 N1562 0.985 . S
H1569 N1566 0.984 . S
H1570 N1566 0.985 . S
H1571 N1565 0.984 . S
H1572 N1565 0.984 . S
H1573 N1561 0.984 . S
H1574 N1561 0.985 . S
C1575 C1576 1.363 . S
C1575 C1581 1.379 . S
C1575 N1583 1.356 . S
C1576 C1575 1.363 . S
C1576 C1582 1.363 . S
C1577 C1578 1.363 . S
C1577 C1582 1.379 . S
C1577 N1584 1.356 . S
C1578 C1577 1.363 . S
C1578 C1581 1.363 . S
N1579 C1581 1.356 . S
N1579 H1591 0.984 . S
N1579 H1592 0.985 . S
N1580 C1582 1.356 . S
N1580 H1585 0.984 . S
N1580 H1586 0.985 . S
C1581 C1575 1.379 . S
C1581 C1578 1.363 . S
C1581 N1579 1.356 . S
C1582 C1576 1.363 . S
C1582 C1577 1.379 . S
C1582 N1580 1.356 . S
N1583 C1575 1.356 . S
N1583 H1589 0.984 . S
N1583 H1590 0.984 . S
N1584 C1577 1.356 . S
N1584 H1587 0.984 . S
N1584 H1588 0.985 . S
H1585 N1580 0.984 . S
H1586 N1580 0.985 . S
H1587 N1584 0.984 . S
H1588 N1584 0.985 . S
H1589 N1583 0.984 . S
H1590 N1583 0.984 . S
H1591 N1579 0.984 . S
H1592 N1579 0.985 . S
C1593 C1594 1.363 . S
C1593 C1599 1.379 . S
C1593 N1601 1.356 . S
C1594 C1593 1.363 . S
C1594 C1600 1.363 . S
C1595 C1596 1.363 . S
C1595 C1600 1.379 . S
C1595 N1602 1.356 . S
C1596 C1595 1.363 . S
C1596 C1599 1.363 . S
N1597 C1599 1.356 . S
N1597 H1609 0.984 . S
N1597 H1610 0.985 . S
N1598 C1600 1.356 . S
N1598 H1603 0.984 . S
N1598 H1604 0.985 . S
C1599 C1593 1.379 . S
C1599 C1596 1.363 . S
C1599 N1597 1.356 . S
C1600 C1594 1.363 . S
C1600 C1595 1.379 . S
C1600 N1598 1.356 . S
N1601 C1593 1.356 . S
N1601 H1607 0.984 . S
N1601 H1608 0.984 . S
N1602 C1595 1.356 . S
N1602 H1605 0.984 . S
N1602 H1606 0.985 . S
H1603 N1598 0.984 . S
H1604 N1598 0.985 . S
H1605 N1602 0.984 . S
H1606 N1602 0.985 . S
H1607 N1601 0.984 . S
H1608 N1601 0.984 . S
H1609 N1597 0.984 . S
H1610 N1597 0.985 . S
C1611 C1612 1.363 . S
C1611 C1617 1.379 . S
C1611 N1619 1.356 . S
C1612 C1611 1.363 . S
C1612 C1618 1.363 . S
C1613 C1614 1.363 . S
C1613 C1618 1.379 . S
C1613 N1620 1.356 . S
C1614 C1613 1.363 . S
C1614 C1617 1.363 . S
N1615 C1617 1.356 . S
N1615 H1627 0.984 . S
N1615 H1628 0.985 . S
N1616 C1618 1.356 . S
N1616 H1621 0.984 . S
N1616 H1622 0.985 . S
C1617 C1611 1.379 . S
C1617 C1614 1.363 . S
C1617 N1615 1.356 . S
C1618 C1612 1.363 . S
C1618 C1613 1.379 . S
C1618 N1616 1.356 . S
N1619 C1611 1.356 . S
N1619 H1625 0.984 . S
N1619 H1626 0.984 . S
N1620 C1613 1.356 . S
N1620 H1623 0.984 . S
N1620 H1624 0.985 . S
H1621 N1616 0.984 . S
H1622 N1616 0.985 . S
H1623 N1620 0.984 . S
H1624 N1620 0.985 . S
H1625 N1619 0.984 . S
H1626 N1619 0.984 . S
H1627 N1615 0.984 . S
H1628 N1615 0.985 . S
C1629 C1630 1.363 . S
C1629 C1635 1.379 . S
C1629 N1637 1.356 . S
C1630 C1629 1.363 . S
C1630 C1636 1.363 . S
C1631 C1632 1.363 . S
C1631 C1636 1.379 . S
C1631 N1638 1.356 . S
C1632 C1631 1.363 . S
C1632 C1635 1.363 . S
N1633 C1635 1.356 . S
N1633 H1645 0.984 . S
N1633 H1646 0.985 . S
N1634 C1636 1.356 . S
N1634 H1639 0.984 . S
N1634 H1640 0.985 . S
C1635 C1629 1.379 . S
C1635 C1632 1.363 . S
C1635 N1633 1.356 . S
C1636 C1630 1.363 . S
C1636 C1631 1.379 . S
C1636 N1634 1.356 . S
N1637 C1629 1.356 . S
N1637 H1643 0.984 . S
N1637 H1644 0.984 . S
N1638 C1631 1.356 . S
N1638 H1641 0.984 . S
N1638 H1642 0.985 . S
H1639 N1634 0.984 . S
H1640 N1634 0.985 . S
H1641 N1638 0.984 . S
H1642 N1638 0.985 . S
H1643 N1637 0.984 . S
H1644 N1637 0.984 . S
H1645 N1633 0.984 . S
H1646 N1633 0.985 . S
C1647 C1648 1.363 . S
C1647 C1653 1.379 . S
C1647 N1655 1.356 . S
C1648 C1647 1.363 . S
C1648 C1654 1.363 . S
C1649 C1650 1.363 . S
C1649 C1654 1.379 . S
C1649 N1656 1.356 . S
C1650 C1649 1.363 . S
C1650 C1653 1.363 . S
N1651 C1653 1.356 . S
N1651 H1663 0.984 . S
N1651 H1664 0.985 . S
N1652 C1654 1.356 . S
N1652 H1657 0.984 . S
N1652 H1658 0.985 . S
C1653 C1647 1.379 . S
C1653 C1650 1.363 . S
C1653 N1651 1.356 . S
C1654 C1648 1.363 . S
C1654 C1649 1.379 . S
C1654 N1652 1.356 . S
N1655 C1647 1.356 . S
N1655 H1661 0.984 . S
N1655 H1662 0.984 . S
N1656 C1649 1.356 . S
N1656 H1659 0.984 . S
N1656 H1660 0.985 . S
H1657 N1652 0.984 . S
H1658 N1652 0.985 . S
H1659 N1656 0.984 . S
H1660 N1656 0.985 . S
H1661 N1655 0.984 . S
H1662 N1655 0.984 . S
H1663 N1651 0.984 . S
H1664 N1651 0.985 . S
C1665 C1666 1.363 . S
C1665 C1671 1.379 . S
C1665 N1673 1.356 . S
C1666 C1665 1.363 . S
C1666 C1672 1.363 . S
C1667 C1668 1.363 . S
C1667 C1672 1.379 . S
C1667 N1674 1.356 . S
C1668 C1667 1.363 . S
C1668 C1671 1.363 . S
N1669 C1671 1.356 . S
N1669 H1681 0.984 . S
N1669 H1682 0.985 . S
N1670 C1672 1.356 . S
N1670 H1675 0.984 . S
N1670 H1676 0.985 . S
C1671 C1665 1.379 . S
C1671 C1668 1.363 . S
C1671 N1669 1.356 . S
C1672 C1666 1.363 . S
C1672 C1667 1.379 . S
C1672 N1670 1.356 . S
N1673 C1665 1.356 . S
N1673 H1679 0.984 . S
N1673 H1680 0.984 . S
N1674 C1667 1.356 . S
N1674 H1677 0.984 . S
N1674 H1678 0.985 . S
H1675 N1670 0.984 . S
H1676 N1670 0.985 . S
H1677 N1674 0.984 . S
H1678 N1674 0.985 . S
H1679 N1673 0.984 . S
H1680 N1673 0.984 . S
H1681 N1669 0.984 . S
H1682 N1669 0.985 . S
C1683 C1684 1.363 . S
C1683 C1689 1.379 . S
C1683 N1691 1.356 . S
C1684 C1683 1.363 . S
C1684 C1690 1.363 . S
C1685 C1686 1.363 . S
C1685 C1690 1.379 . S
C1685 N1692 1.356 . S
C1686 C1685 1.363 . S
C1686 C1689 1.363 . S
N1687 C1689 1.356 . S
N1687 H1699 0.984 . S
N1687 H1700 0.985 . S
N1688 C1690 1.356 . S
N1688 H1693 0.984 . S
N1688 H1694 0.985 . S
C1689 C1683 1.379 . S
C1689 C1686 1.363 . S
C1689 N1687 1.356 . S
C1690 C1684 1.363 . S
C1690 C1685 1.379 . S
C1690 N1688 1.356 . S
N1691 C1683 1.356 . S
N1691 H1697 0.984 . S
N1691 H1698 0.984 . S
N1692 C1685 1.356 . S
N1692 H1695 0.984 . S
N1692 H1696 0.985 . S
H1693 N1688 0.984 . S
H1694 N1688 0.985 . S
H1695 N1692 0.984 . S
H1696 N1692 0.985 . S
H1697 N1691 0.984 . S
H1698 N1691 0.984 . S
H1699 N1687 0.984 . S
H1700 N1687 0.985 . S
C1701 C1702 1.363 . S
C1701 C1707 1.379 . S
C1701 N1709 1.356 . S
C1702 C1701 1.363 . S
C1702 C1708 1.363 . S
C1703 C1704 1.363 . S
C1703 C1708 1.379 . S
C1703 N1710 1.356 . S
C1704 C1703 1.363 . S
C1704 C1707 1.363 . S
N1705 C1707 1.356 . S
N1705 H1717 0.984 . S
N1705 H1718 0.985 . S
N1706 C1708 1.356 . S
N1706 H1711 0.984 . S
N1706 H1712 0.985 . S
C1707 C1701 1.379 . S
C1707 C1704 1.363 . S
C1707 N1705 1.356 . S
C1708 C1702 1.363 . S
C1708 C1703 1.379 . S
C1708 N1706 1.356 . S
N1709 C1701 1.356 . S
N1709 H1715 0.984 . S
N1709 H1716 0.984 . S
N1710 C1703 1.356 . S
N1710 H1713 0.984 . S
N1710 H1714 0.985 . S
H1711 N1706 0.984 . S
H1712 N1706 0.985 . S
H1713 N1710 0.984 . S
H1714 N1710 0.985 . S
H1715 N1709 0.984 . S
H1716 N1709 0.984 . S
H1717 N1705 0.984 . S
H1718 N1705 0.985 . S
C1719 C1720 1.363 . S
C1719 C1725 1.379 . S
C1719 N1727 1.356 . S
C1720 C1719 1.363 . S
C1720 C1726 1.363 . S
C1721 C1722 1.363 . S
C1721 C1726 1.379 . S
C1721 N1728 1.356 . S
C1722 C1721 1.363 . S
C1722 C1725 1.363 . S
N1723 C1725 1.356 . S
N1723 H1735 0.984 . S
N1723 H1736 0.985 . S
N1724 C1726 1.356 . S
N1724 H1729 0.984 . S
N1724 H1730 0.985 . S
C1725 C1719 1.379 . S
C1725 C1722 1.363 . S
C1725 N1723 1.356 . S
C1726 C1720 1.363 . S
C1726 C1721 1.379 . S
C1726 N1724 1.356 . S
N1727 C1719 1.356 . S
N1727 H1733 0.984 . S
N1727 H1734 0.984 . S
N1728 C1721 1.356 . S
N1728 H1731 0.984 . S
N1728 H1732 0.985 . S
H1729 N1724 0.984 . S
H1730 N1724 0.985 . S
H1731 N1728 0.984 . S
H1732 N1728 0.985 . S
H1733 N1727 0.984 . S
H1734 N1727 0.984 . S
H1735 N1723 0.984 . S
H1736 N1723 0.985 . S
C766 C439 1.386 . S
C768 C593 1.386 . S
C784 C465 1.559 . S
C786 C614 1.420 . S
C802 C401 1.463 . S
C804 C636 1.181 . S
C820 C369 1.480 . S
C822 C615 1.179 1_556 S
C840 C635 1.430 . S
C838 C305 1.577 . S
C856 C343 1.350 . S
C858 C594 1.170 1_556 S
C876 C589 1.376 . S
C874 C375 1.501 . S
C894 C610 1.384 . S
C892 C311 1.490 . S
C910 C337 1.415 . S
C912 C633 1.213 1_556 S
C928 C433 1.382 . S
C930 C612 1.193 . S
C946 C471 1.470 . S
C948 C631 1.360 . S
C966 C591 1.228 1_554 S
C964 C407 1.530 . S
C984 C656 1.386 . S
C982 C55 1.388 1_455 S
C1000 C81 1.559 . S
C1002 C677 1.420 . S
C1018 C17 1.463 . S
C1020 C699 1.181 . S
C1036 C561 1.480 . S
C1038 C678 1.179 . S
C1054 C497 1.577 . S
C1056 C698 1.430 . S
C1072 C535 1.350 . S
C1074 C657 1.170 . S
C1090 C567 1.501 . S
C1092 C652 1.376 . S
C1108 C503 1.490 . S
C1110 C673 1.384 . S
C1128 C696 1.213 . S
C1126 C529 1.415 . S
C1144 C49 1.383 . S
C1146 C675 1.193 . S
C1164 C694 1.360 . S
C1162 C87 1.469 . S
C1180 C23 1.531 . S
C1182 C654 1.227 . S
C1200 C719 1.386 . S
C1198 C247 1.386 . S
C1216 C273 1.559 . S
C1218 C740 1.420 . S
C1236 C762 1.181 . S
C1234 C209 1.463 . S
C1254 C741 1.179 . S
C1252 C177 1.480 . S
C1272 C761 1.430 . S
C1270 C113 1.577 . S
C1288 C151 1.350 . S
C1290 C720 1.170 . S
C1306 C183 1.502 . S
C1308 C715 1.376 . S
C1324 C119 1.490 . S
C1326 C736 1.384 . S
C1344 C759 1.213 . S
C1342 C145 1.415 . S
C1360 C241 1.382 . S
C1362 C738 1.193 . S
C1378 C279 1.470 . S
C1380 C757 1.360 . S
C1396 C215 1.530 . S
C1398 C717 1.227 . S
C1414 C509 1.460 . S
C1416 C592 1.417 1_565 S
C1434 C613 1.425 . S
C1432 C541 1.398 . S
C1450 C573 1.526 . S
C1452 C632 1.484 . S
C1468 C221 1.565 . S
C1470 C611 1.529 . S
C1486 C253 1.422 . S
C1488 C634 1.433 . S
C1506 C590 1.511 . S
C1504 C285 1.542 . S
C1522 C125 1.460 . S
C1524 C655 1.417 . S
C1540 C157 1.398 . S
C1542 C676 1.425 . S
C1558 C189 1.526 . S
C1560 C695 1.484 . S
C1576 C413 1.565 . S
C1578 C674 1.527 . S
C1596 C697 1.433 . S
C1594 C445 1.422 . S
C1612 C477 1.542 . S
C1614 C653 1.511 . S
C1630 C317 1.460 . S
C1632 C718 1.417 . S
C1648 C349 1.398 . S
C1650 C739 1.425 . S
C1668 C758 1.484 . S
C1666 C381 1.526 . S
C1684 C29 1.565 . S
C1686 C737 1.527 . S
C1702 C61 1.422 . S
C1704 C760 1.433 . S
C1720 C93 1.542 . S
C1722 C716 1.511 . S
