# Generated by pormake.
# Topology ssa, (4,4)-cn, num edge types: 1
# Building blocks:
#     Node 0, Type 0, BuildingBlock: KOZSID_clean_sbu_0, # of connection points: 4
#     Node 1, Type 0, BuildingBlock: KOZSID_clean_sbu_0, # of connection points: 4
#     Node 2, Type 0, BuildingBlock: KOZSID_clean_sbu_0, # of connection points: 4
#     Node 3, Type 0, BuildingBlock: KOZSID_clean_sbu_0, # of connection points: 4
#     Node 4, Type 0, BuildingBlock: KOZSID_clean_sbu_0, # of connection points: 4
#     Node 5, Type 0, BuildingBlock: KOZSID_clean_sbu_0, # of connection points: 4
#     Node 6, Type 1, BuildingBlock: MUDLON_clean_linker_0, # of connection points: 4
#     Node 7, Type 1, BuildingBlock: MUDLON_clean_linker_0, # of connection points: 4
#     Node 8, Type 1, BuildingBlock: MUDLON_clean_linker_0, # of connection points: 4
#     Node 9, Type 1, BuildingBlock: MUDLON_clean_linker_0, # of connection points: 4
#     Node 10, Type 1, BuildingBlock: MUDLON_clean_linker_0, # of connection points: 4
#     Node 11, Type 1, BuildingBlock: MUDLON_clean_linker_0, # of connection points: 4
#     Edge 12, Type (0, 1), BuildingBlock: ZUJKAS_clean_linker_0, # of connection points: 2
#     Edge 13, Type (0, 1), BuildingBlock: ZUJKAS_clean_linker_0, # of connection points: 2
#     Edge 14, Type (0, 1), BuildingBlock: ZUJKAS_clean_linker_0, # of connection points: 2
#     Edge 15, Type (0, 1), BuildingBlock: ZUJKAS_clean_linker_0, # of connection points: 2
#     Edge 16, Type (0, 1), BuildingBlock: ZUJKAS_clean_linker_0, # of connection points: 2
#     Edge 17, Type (0, 1), BuildingBlock: ZUJKAS_clean_linker_0, # of connection points: 2
#     Edge 18, Type (0, 1), BuildingBlock: ZUJKAS_clean_linker_0, # of connection points: 2
#     Edge 19, Type (0, 1), BuildingBlock: ZUJKAS_clean_linker_0, # of connection points: 2
#     Edge 20, Type (0, 1), BuildingBlock: ZUJKAS_clean_linker_0, # of connection points: 2
#     Edge 21, Type (0, 1), BuildingBlock: ZUJKAS_clean_linker_0, # of connection points: 2
#     Edge 22, Type (0, 1), BuildingBlock: ZUJKAS_clean_linker_0, # of connection points: 2
#     Edge 23, Type (0, 1), BuildingBlock: ZUJKAS_clean_linker_0, # of connection points: 2
#     Edge 24, Type (0, 1), BuildingBlock: ZUJKAS_clean_linker_0, # of connection points: 2
#     Edge 25, Type (0, 1), BuildingBlock: ZUJKAS_clean_linker_0, # of connection points: 2
#     Edge 26, Type (0, 1), BuildingBlock: ZUJKAS_clean_linker_0, # of connection points: 2
#     Edge 27, Type (0, 1), BuildingBlock: ZUJKAS_clean_linker_0, # of connection points: 2
#     Edge 28, Type (0, 1), BuildingBlock: ZUJKAS_clean_linker_0, # of connection points: 2
#     Edge 29, Type (0, 1), BuildingBlock: ZUJKAS_clean_linker_0, # of connection points: 2
#     Edge 30, Type (0, 1), BuildingBlock: ZUJKAS_clean_linker_0, # of connection points: 2
#     Edge 31, Type (0, 1), BuildingBlock: ZUJKAS_clean_linker_0, # of connection points: 2
#     Edge 32, Type (0, 1), BuildingBlock: ZUJKAS_clean_linker_0, # of connection points: 2
#     Edge 33, Type (0, 1), BuildingBlock: ZUJKAS_clean_linker_0, # of connection points: 2
#     Edge 34, Type (0, 1), BuildingBlock: ZUJKAS_clean_linker_0, # of connection points: 2
#     Edge 35, Type (0, 1), BuildingBlock: ZUJKAS_clean_linker_0, # of connection points: 2
# Relax obj value: 0.005
# Max RMSD: 0.044
# Mean RMSD: 0.024
data_MOF--net-ssa--node1-KOZSID_clean_sbu_0--node2-MUDLON_clean_linker_0--edge1-ZUJKAS_clean_linker_0
_symmetry_space_group_name_H-M    P1
_symmetry_Int_Tables_number       1
_symmetry_cell_setting            triclinic
loop_
_symmetry_equiv_pos_as_xyz
'x, y, z'
_cell_length_a     90.120421
_cell_length_b     91.621801
_cell_length_c     51.158527
_cell_angle_alpha  87.964227
_cell_angle_beta   89.961491
_cell_angle_gamma 121.59312
loop_
_atom_site_label
_atom_site_type_symbol
_atom_site_fract_x
_atom_site_fract_y
_atom_site_fract_z
_atom_type_partial_charge
C0 C 0.97871 0.50342 0.04428 0.0
C1 C 0.96463 0.49983 0.06023 0.0
C2 C 0.96488 0.4906 0.08155 0.0
C3 C 0.97902 0.48906 0.07739 0.0
N4 N 0.98793 0.49687 0.0548 0.0
Co5 Co 0.0089 0.49724 0.04061 0.0
N6 N 0.00926 0.48365 0.07203 0.0
C7 C 0.99814 0.47773 0.09294 0.0
C8 C 0.00211 0.46949 0.11196 0.0
C9 C 0.0168 0.47037 0.10286 0.0
C10 C 0.0209 0.47909 0.07865 0.0
N11 N 0.02967 0.49733 0.02618 0.0
C12 C 0.03918 0.49122 0.03701 0.0
C13 C 0.05266 0.49394 0.0204 0.0
C14 C 0.05182 0.50233 0.99843 0.0
C15 C 0.0379 0.50418 0.00281 0.0
N16 N 0.00881 0.51116 0.00947 0.0
C17 C 0.02018 0.5174 0.98883 0.0
C18 C 0.01688 0.52658 0.97056 0.0
C19 C 0.00249 0.52615 0.97999 0.0
C20 C 0.99781 0.51663 0.00354 0.0
N21 N 0.02456 0.51873 0.05866 0.0
C22 C 0.04732 0.54902 0.08451 0.0
C23 C 0.05077 0.54687 0.05878 0.0
C24 C 0.03934 0.53178 0.04636 0.0
C25 C 0.03215 0.53578 0.09699 0.0
C26 C 0.02104 0.52088 0.08382 0.0
N27 N 0.99319 0.47571 0.02249 0.0
C28 C 0.98399 0.46002 0.98274 0.0
C29 C 0.97022 0.44577 0.99606 0.0
C30 C 0.96828 0.44661 0.02293 0.0
C31 C 0.97976 0.46162 0.03563 0.0
C32 C 0.99527 0.47465 0.99622 0.0
H33 H 0.97738 0.46154 0.05601 0.0
H34 H 0.00552 0.48494 0.98486 0.0
H35 H 0.0428 0.53096 0.02682 0.0
H36 H 0.00977 0.51122 0.09444 0.0
C37 C 0.98432 0.48048 0.09439 0.0
C38 C 0.98254 0.51276 0.01912 0.0
C39 C 0.03634 0.48331 0.0632 0.0
C40 C 0.03322 0.51357 0.98644 0.0
H41 H 0.95509 0.50342 0.0567 0.0
H42 H 0.95579 0.48554 0.09805 0.0
H43 H 0.99532 0.4638 0.13046 0.0
H44 H 0.02385 0.46541 0.11308 0.0
H45 H 0.06231 0.49052 0.02405 0.0
H46 H 0.06063 0.50699 0.9816 0.0
H47 H 0.02389 0.53259 0.95232 0.0
H48 H 0.99602 0.53198 0.97045 0.0
H49 H 0.0622 0.55685 0.04808 0.0
H50 H 0.02897 0.53674 0.11704 0.0
H51 H 0.98619 0.45983 0.96196 0.0
H52 H 0.95774 0.43587 0.03403 0.0
C53 C 0.55551 0.02201 0.54813 0.0
C54 C 0.55833 0.01837 0.57357 0.0
C55 C 0.54344 0.00373 0.582 0.0
C56 C 0.53244 0.99928 0.56131 0.0
N57 N 0.53947 0.01003 0.54 0.0
Co58 Co 0.5277 0.00882 0.50615 0.0
N59 N 0.50548 0.98767 0.51897 0.0
C60 C 0.50276 0.97899 0.5422 0.0
C61 C 0.48671 0.96427 0.54485 0.0
C62 C 0.47867 0.96337 0.52189 0.0
C63 C 0.49028 0.97779 0.50656 0.0
N64 N 0.51574 0.00801 0.47268 0.0
C65 C 0.49922 0.99683 0.46525 0.0
C66 C 0.49592 0.0016 0.44089 0.0
C67 C 0.51098 0.016 0.43233 0.0
C68 C 0.52252 0.01935 0.45197 0.0
N69 N 0.55008 0.02963 0.49299 0.0
C70 C 0.55332 0.03747 0.46895 0.0
C71 C 0.56984 0.05151 0.46565 0.0
C72 C 0.57762 0.05281 0.48902 0.0
C73 C 0.56533 0.03941 0.50529 0.0
N74 N 0.53543 0.99397 0.49166 0.0
C75 C 0.54484 0.97185 0.47039 0.0
C76 C 0.54517 0.98491 0.45496 0.0
C77 C 0.54051 0.99575 0.46589 0.0
C78 C 0.54006 0.97028 0.49678 0.0
C79 C 0.53545 0.98136 0.50691 0.0
N80 N 0.51996 0.02365 0.52062 0.0
C81 C 0.51865 0.04936 0.51777 0.0
C82 C 0.5099 0.04524 0.54199 0.0
C83 C 0.50612 0.03 0.55516 0.0
C84 C 0.51124 0.01951 0.54425 0.0
C85 C 0.52347 0.03847 0.50752 0.0
H86 H 0.50805 0.00814 0.55536 0.0
H87 H 0.53016 0.04242 0.48906 0.0
H88 H 0.54102 0.00539 0.45303 0.0
H89 H 0.53177 0.97932 0.52707 0.0
C90 C 0.51551 0.98503 0.56121 0.0
C91 C 0.56841 0.0371 0.53267 0.0
C92 C 0.4864 0.98134 0.48018 0.0
C93 C 0.54005 0.03247 0.45094 0.0
H94 H 0.56993 0.02562 0.58492 0.0
H95 H 0.54088 0.99717 0.60099 0.0
H96 H 0.48153 0.95518 0.56141 0.0
H97 H 0.46579 0.9531 0.51699 0.0
H98 H 0.48391 0.99523 0.43022 0.0
H99 H 0.51331 0.02306 0.41383 0.0
H100 H 0.57535 0.06015 0.44861 0.0
H101 H 0.5907 0.06279 0.49376 0.0
H102 H 0.54908 0.98685 0.43448 0.0
H103 H 0.53946 0.96028 0.50952 0.0
H104 H 0.52208 0.06111 0.50689 0.0
H105 H 0.4991 0.02605 0.57378 0.0
C106 C 0.55913 0.52536 0.96736 0.0
C107 C 0.56432 0.53491 0.94385 0.0
C108 C 0.55035 0.53552 0.93514 0.0
C109 C 0.53748 0.52636 0.95375 0.0
N110 N 0.5424 0.51999 0.97392 0.0
Co111 Co 0.52782 0.50602 0.00528 0.0
N112 N 0.50682 0.50565 0.99128 0.0
C113 C 0.50561 0.51239 0.96799 0.0
C114 C 0.48948 0.50999 0.9637 0.0
C115 C 0.4798 0.50125 0.98559 0.0
C116 C 0.49066 0.49889 0.00207 0.0
N117 N 0.5134 0.49257 0.03707 0.0
C118 C 0.49676 0.48746 0.0438 0.0
C119 C 0.49197 0.47905 0.06826 0.0
C120 C 0.50611 0.47892 0.0774 0.0
C121 C 0.51869 0.48726 0.05814 0.0
N122 N 0.54864 0.50585 0.01881 0.0
C123 C 0.54957 0.49825 0.04139 0.0
C124 C 0.56535 0.49968 0.04488 0.0
C125 C 0.57504 0.50854 0.02306 0.0
C126 C 0.56455 0.51201 0.00749 0.0
N127 N 0.53504 0.52758 0.02322 0.0
C128 C 0.54484 0.55799 0.04888 0.0
C129 C 0.54745 0.54549 0.06037 0.0
C130 C 0.5424 0.53046 0.0474 0.0
C131 C 0.53732 0.55508 0.0243 0.0
C132 C 0.53267 0.53998 0.01186 0.0
N133 N 0.52066 0.4845 0.98731 0.0
C134 C 0.51479 0.4555 0.98812 0.0
C135 C 0.51197 0.45451 0.96123 0.0
C136 C 0.51329 0.46867 0.94772 0.0
C137 C 0.51753 0.48336 0.96103 0.0
C138 C 0.51913 0.47051 0.00065 0.0
H139 H 0.51828 0.49366 0.94957 0.0
H140 H 0.52135 0.47053 0.02109 0.0
H141 H 0.54449 0.52134 0.05742 0.0
H142 H 0.52717 0.53866 0.99306 0.0
C143 C 0.52024 0.52217 0.95163 0.0
C144 C 0.57024 0.52101 0.98203 0.0
C145 C 0.48518 0.49062 0.02806 0.0
C146 C 0.53545 0.49003 0.05904 0.0
H147 H 0.5768 0.54053 0.93373 0.0
H148 H 0.5495 0.54146 0.917 0.0
H149 H 0.48539 0.51447 0.94695 0.0
H150 H 0.46635 0.49732 0.98925 0.0
H151 H 0.47957 0.47369 0.07852 0.0
H152 H 0.50713 0.47346 0.09593 0.0
H153 H 0.5693 0.49479 0.06128 0.0
H154 H 0.5883 0.51198 0.01895 0.0
H155 H 0.55308 0.54713 0.07956 0.0
H156 H 0.53522 0.56451 0.01453 0.0
H157 H 0.51399 0.44487 0.9994 0.0
H158 H 0.51092 0.4684 0.92693 0.0
C159 C 0.01296 0.47803 0.54021 0.0
C160 C 0.99868 0.46765 0.52514 0.0
C161 C 0.99977 0.47735 0.50355 0.0
C162 C 0.01457 0.49303 0.50666 0.0
N163 N 0.02313 0.49392 0.52884 0.0
Co164 Co 0.04483 0.51451 0.5416 0.0
N165 N 0.0464 0.52879 0.50976 0.0
C166 C 0.03552 0.52363 0.48928 0.0
C167 C 0.04043 0.53593 0.46962 0.0
C168 C 0.05546 0.54976 0.47784 0.0
C169 C 0.05879 0.54512 0.50229 0.0
N170 N 0.06628 0.53519 0.55464 0.0
C171 C 0.0765 0.55107 0.54326 0.0
C172 C 0.09006 0.56179 0.55924 0.0
C173 C 0.08855 0.55227 0.58131 0.0
C174 C 0.07415 0.53638 0.57765 0.0
N175 N 0.04352 0.50011 0.57308 0.0
C176 C 0.05475 0.50507 0.5931 0.0
C177 C 0.05053 0.49236 0.61184 0.0
C178 C 0.03567 0.47842 0.60337 0.0
C179 C 0.03167 0.4835 0.57987 0.0
N180 N 0.05952 0.50772 0.52307 0.0
C181 C 0.081 0.49928 0.49577 0.0
C182 C 0.08462 0.50468 0.52141 0.0
C183 C 0.07384 0.50889 0.53457 0.0
C184 C 0.06632 0.4979 0.48421 0.0
C185 C 0.0558 0.50203 0.49814 0.0
N186 N 0.03008 0.52131 0.56013 0.0
C187 C 0.02092 0.52817 0.59995 0.0
C188 C 0.00795 0.52934 0.58681 0.0
C189 C 0.00655 0.52675 0.55994 0.0
C190 C 0.01756 0.52271 0.54718 0.0
C191 C 0.03181 0.52431 0.58634 0.0
H192 H 0.01556 0.52069 0.52683 0.0
H193 H 0.04139 0.52364 0.59754 0.0
H194 H 0.07742 0.5132 0.55391 0.0
H195 H 0.04476 0.50058 0.48824 0.0
C196 C 0.02089 0.50705 0.48894 0.0
C197 C 0.01614 0.47225 0.5653 0.0
C198 C 0.07414 0.55648 0.51725 0.0
C199 C 0.0685 0.52205 0.59452 0.0
H200 H 0.98849 0.45444 0.52941 0.0
H201 H 0.99081 0.47345 0.48751 0.0
H202 H 0.03401 0.53487 0.4513 0.0
H203 H 0.06319 0.56179 0.46681 0.0
H204 H 0.10016 0.57505 0.55519 0.0
H205 H 0.09715 0.55632 0.5978 0.0
H206 H 0.05725 0.49322 0.62979 0.0
H207 H 0.02843 0.466 0.61354 0.0
H208 H 0.09591 0.50598 0.53111 0.0
H209 H 0.06283 0.49347 0.46452 0.0
H210 H 0.02251 0.52988 0.62081 0.0
H211 H 0.99702 0.52788 0.54863 0.0
C212 C 0.50014 0.99504 0.04677 0.0
C213 C 0.49728 0.99912 0.07141 0.0
C214 C 0.51205 0.01405 0.07738 0.0
C215 C 0.52306 0.01819 0.05621 0.0
N216 N 0.51617 0.00691 0.03689 0.0
Co217 Co 0.52801 0.00754 0.00321 0.0
N218 N 0.55022 0.02883 0.01291 0.0
C219 C 0.5531 0.03763 0.03494 0.0
C220 C 0.56939 0.05206 0.03578 0.0
C221 C 0.57744 0.05258 0.01289 0.0
C222 C 0.56556 0.0383 0.99941 0.0
N223 N 0.53987 0.00807 0.96965 0.0
C224 C 0.55631 0.01927 0.96051 0.0
C225 C 0.55942 0.01461 0.93651 0.0
C226 C 0.54433 0.00017 0.93001 0.0
C227 C 0.53295 0.99674 0.95039 0.0
N228 N 0.50578 0.98631 0.99346 0.0
C229 C 0.50259 0.97794 0.97094 0.0
C230 C 0.4862 0.96364 0.97002 0.0
C231 C 0.47848 0.96268 0.99348 0.0
C232 C 0.49071 0.97649 0.00741 0.0
N233 N 0.52004 0.02202 0.98605 0.0
C234 C 0.50952 0.04307 0.96124 0.0
C235 C 0.50802 0.02904 0.94881 0.0
C236 C 0.51333 0.01881 0.96143 0.0
C237 C 0.51623 0.04629 0.98639 0.0
C238 C 0.52131 0.03568 0.99833 0.0
N239 N 0.53594 0.99309 0.02035 0.0
C240 C 0.53863 0.96815 0.02094 0.0
C241 C 0.54584 0.97176 0.04577 0.0
C242 C 0.54829 0.98641 0.05744 0.0
C243 C 0.54332 0.99681 0.04449 0.0
C244 C 0.53381 0.97889 0.0087 0.0
H245 H 0.5455 0.00773 0.05447 0.0
H246 H 0.52821 0.97533 0.98993 0.0
H247 H 0.512 0.00846 0.95074 0.0
H248 H 0.52626 0.03886 0.01747 0.0
C249 C 0.54017 0.03216 0.05437 0.0
C250 C 0.48753 0.97941 0.03408 0.0
C251 C 0.56934 0.03455 0.97361 0.0
C252 C 0.51563 0.98315 0.95177 0.0
H253 H 0.48584 0.9919 0.08401 0.0
H254 H 0.51461 0.02087 0.09527 0.0
H255 H 0.57472 0.0612 0.05108 0.0
H256 H 0.59052 0.06249 0.00675 0.0
H257 H 0.57134 0.02103 0.92481 0.0
H258 H 0.54192 0.99305 0.91246 0.0
H259 H 0.48068 0.95473 0.95442 0.0
H260 H 0.46543 0.95278 0.99982 0.0
H261 H 0.50307 0.02612 0.92918 0.0
H262 H 0.51743 0.05687 0.99699 0.0
H263 H 0.53634 0.95688 0.01116 0.0
H264 H 0.55411 0.98993 0.07647 0.0
C265 C 0.53208 0.54373 0.51148 0.0
C266 C 0.52818 0.55344 0.52706 0.0
C267 C 0.51913 0.54328 0.54842 0.0
C268 C 0.51789 0.52797 0.54462 0.0
N269 N 0.52578 0.52774 0.52226 0.0
Co270 Co 0.5259 0.50761 0.50816 0.0
N271 N 0.51156 0.49236 0.53882 0.0
C272 C 0.50553 0.49678 0.55943 0.0
C273 C 0.49613 0.48362 0.5775 0.0
C274 C 0.49629 0.46999 0.56806 0.0
C275 C 0.50593 0.47568 0.54473 0.0
N276 N 0.52573 0.4874 0.49378 0.0
C277 C 0.51866 0.47114 0.50388 0.0
C278 C 0.52186 0.4612 0.48769 0.0
C279 C 0.53124 0.47149 0.46661 0.0
C280 C 0.53329 0.48709 0.47111 0.0
N281 N 0.5405 0.52293 0.47775 0.0
C282 C 0.54723 0.51874 0.45777 0.0
C283 C 0.55687 0.532 0.43995 0.0
C284 C 0.5561 0.54544 0.44887 0.0
C285 C 0.54586 0.53952 0.47162 0.0
N286 N 0.54745 0.51391 0.52752 0.0
C287 C 0.57796 0.5226 0.55503 0.0
C288 C 0.57605 0.51757 0.52921 0.0
C289 C 0.56083 0.51328 0.51598 0.0
C290 C 0.56433 0.52321 0.56687 0.0
C291 C 0.54935 0.51889 0.55287 0.0
N292 N 0.50441 0.50139 0.48878 0.0
C293 C 0.48905 0.49543 0.44806 0.0
C294 C 0.47478 0.49455 0.46045 0.0
C295 C 0.47541 0.49675 0.48737 0.0
C296 C 0.49026 0.5002 0.50103 0.0
C297 C 0.50354 0.49871 0.46249 0.0
H298 H 0.49005 0.50208 0.5214 0.0
H299 H 0.51394 0.49915 0.4519 0.0
H300 H 0.5602 0.5094 0.4965 0.0
H301 H 0.5395 0.51967 0.56299 0.0
C302 C 0.50877 0.51336 0.56114 0.0
C303 C 0.5411 0.54996 0.48611 0.0
C304 C 0.50951 0.46478 0.52914 0.0
C305 C 0.54327 0.50194 0.45535 0.0
H306 H 0.5312 0.56641 0.5232 0.0
H307 H 0.5137 0.54653 0.56447 0.0
H308 H 0.48991 0.48392 0.59541 0.0
H309 H 0.49007 0.45729 0.57737 0.0
H310 H 0.51814 0.44797 0.49097 0.0
H311 H 0.53636 0.46813 0.45028 0.0
H312 H 0.56333 0.5318 0.42224 0.0
H313 H 0.56213 0.55808 0.43943 0.0
H314 H 0.58614 0.51665 0.51929 0.0
H315 H 0.56527 0.5272 0.58679 0.0
H316 H 0.48901 0.49351 0.42728 0.0
H317 H 0.46465 0.49623 0.49778 0.0
H318 H 0.32251 0.47325 0.2428 0.0
N319 N 0.29603 0.44081 0.23265 0.0
H320 H 0.34283 0.48109 0.27855 0.0
H321 H 0.293 0.42122 0.27425 0.0
H322 H 0.31277 0.42908 0.31101 0.0
H323 H 0.30394 0.41916 0.21366 0.0
H324 H 0.32453 0.42473 0.17801 0.0
H325 H 0.31045 0.46874 0.19807 0.0
H326 H 0.33072 0.4743 0.16207 0.0
H327 H 0.29407 0.46971 0.23212 0.0
H328 H 0.26357 0.41454 0.23299 0.0
H329 H 0.26747 0.47058 0.23233 0.0
H330 H 0.23687 0.41508 0.23524 0.0
H331 H 0.19146 0.47076 0.26222 0.0
H332 H 0.1827 0.47795 0.30231 0.0
H333 H 0.16426 0.42688 0.33485 0.0
H334 H 0.17218 0.41953 0.29371 0.0
H335 H 0.15175 0.41871 0.23637 0.0
H336 H 0.13549 0.42509 0.20459 0.0
H337 H 0.18241 0.47345 0.18354 0.0
H338 H 0.19846 0.46701 0.21592 0.0
H339 H 0.21705 0.46482 0.26488 0.0
H340 H 0.24435 0.46592 0.25872 0.0
H341 H 0.21787 0.42045 0.21332 0.0
N342 N 0.18458 0.43898 0.24987 0.0
H343 H 0.19033 0.41871 0.22149 0.0
C344 C 0.30638 0.44653 0.25571 0.0
C345 C 0.32016 0.46359 0.25776 0.0
C346 C 0.33174 0.46809 0.2784 0.0
C347 C 0.32963 0.45566 0.29754 0.0
C348 C 0.31507 0.43889 0.2963 0.0
C349 C 0.30365 0.43438 0.27551 0.0
C350 C 0.30561 0.44344 0.2086 0.0
C351 C 0.30944 0.43104 0.20202 0.0
C352 C 0.32119 0.43426 0.1816 0.0
C353 C 0.3294 0.45004 0.16725 0.0
C354 C 0.32484 0.46212 0.17298 0.0
C355 C 0.31308 0.45888 0.19349 0.0
C356 C 0.28074 0.442 0.23197 0.0
C357 C 0.28164 0.45777 0.23209 0.0
C358 C 0.26633 0.45822 0.23264 0.0
C359 C 0.24985 0.4429 0.23369 0.0
C360 C 0.24918 0.42718 0.2337 0.0
C361 C 0.26444 0.42679 0.23265 0.0
C362 C 0.18212 0.44443 0.27479 0.0
C363 C 0.1856 0.46112 0.27798 0.0
C364 C 0.18075 0.46528 0.30117 0.0
C365 C 0.17255 0.45295 0.32187 0.0
C366 C 0.17014 0.4366 0.31916 0.0
C367 C 0.1748 0.43239 0.29579 0.0
C368 C 0.17622 0.44231 0.22846 0.0
C369 C 0.15854 0.43053 0.22452 0.0
C370 C 0.14932 0.4342 0.20627 0.0
C371 C 0.15763 0.44982 0.1915 0.0
C372 C 0.17557 0.4614 0.19481 0.0
C373 C 0.1848 0.45769 0.21314 0.0
C374 C 0.20143 0.44134 0.24417 0.0
C375 C 0.21703 0.45502 0.25371 0.0
C376 C 0.2328 0.45576 0.24986 0.0
C377 C 0.23342 0.44311 0.23584 0.0
C378 C 0.21793 0.43011 0.22496 0.0
C379 C 0.20215 0.42917 0.22934 0.0
H380 H 0.74431 0.13298 0.76291 0.0
N381 N 0.75395 0.164 0.74358 0.0
H382 H 0.72411 0.11715 0.79977 0.0
H383 H 0.74054 0.17698 0.77759 0.0
H384 H 0.72045 0.16132 0.81429 0.0
H385 H 0.72946 0.17217 0.73198 0.0
H386 H 0.70848 0.16039 0.69694 0.0
H387 H 0.75502 0.14698 0.70354 0.0
H388 H 0.73431 0.13542 0.66791 0.0
H389 H 0.78583 0.16968 0.7461 0.0
H390 H 0.75754 0.19568 0.74314 0.0
H391 H 0.81316 0.19709 0.7493 0.0
H392 H 0.78459 0.22309 0.7482 0.0
H393 H 0.8921 0.28406 0.79548 0.0
H394 H 0.89904 0.3016 0.83379 0.0
H395 H 0.85284 0.30395 0.82205 0.0
H396 H 0.84596 0.28625 0.7838 0.0
H397 H 0.86062 0.30049 0.7429 0.0
H398 H 0.87833 0.32281 0.70991 0.0
H399 H 0.9092 0.29993 0.69841 0.0
H400 H 0.89151 0.27771 0.73215 0.0
H401 H 0.85683 0.24507 0.78308 0.0
H402 H 0.82913 0.21821 0.77874 0.0
H403 H 0.81103 0.24454 0.72873 0.0
N404 N 0.86649 0.27572 0.76243 0.0
H405 H 0.83831 0.27146 0.73463 0.0
C406 C 0.74405 0.15615 0.76752 0.0
C407 C 0.73939 0.13931 0.7744 0.0
C408 C 0.72778 0.13028 0.79529 0.0
C409 C 0.72064 0.13798 0.80981 0.0
C410 C 0.72587 0.15511 0.80361 0.0
C411 C 0.73739 0.1641 0.78254 0.0
C412 C 0.74376 0.16033 0.72039 0.0
C413 C 0.73089 0.16453 0.71772 0.0
C414 C 0.71889 0.15779 0.6976 0.0
C415 C 0.71957 0.14676 0.67983 0.0
C416 C 0.73323 0.1436 0.68156 0.0
C417 C 0.74517 0.15031 0.7017 0.0
C418 C 0.76968 0.18058 0.7448 0.0
C419 C 0.78556 0.18135 0.74641 0.0
C420 C 0.80114 0.19705 0.74851 0.0
C421 C 0.80117 0.21241 0.74948 0.0
C422 C 0.78517 0.21162 0.74736 0.0
C423 C 0.76959 0.19587 0.7448 0.0
C424 C 0.86867 0.28398 0.78677 0.0
C425 C 0.88331 0.28808 0.80156 0.0
C426 C 0.88719 0.29803 0.82346 0.0
C427 C 0.87651 0.3042 0.83087 0.0
C428 C 0.86139 0.2995 0.81664 0.0
C429 C 0.85743 0.28938 0.79483 0.0
C430 C 0.87478 0.28738 0.74008 0.0
C431 C 0.87096 0.30003 0.73302 0.0
C432 C 0.8811 0.3128 0.71398 0.0
C433 C 0.89528 0.31325 0.70161 0.0
C434 C 0.89853 0.3001 0.70782 0.0
C435 C 0.88837 0.28732 0.72689 0.0
C436 C 0.84985 0.26024 0.75896 0.0
C437 C 0.84683 0.245 0.77124 0.0
C438 C 0.83101 0.22962 0.7685 0.0
C439 C 0.81782 0.22904 0.75302 0.0
C440 C 0.82077 0.24444 0.74097 0.0
C441 C 0.83655 0.25991 0.74411 0.0
H442 H 0.5681 0.83608 0.28125 0.0
N443 N 0.60183 0.84613 0.26871 0.0
H444 H 0.55871 0.84696 0.31615 0.0
H445 H 0.62105 0.86556 0.30713 0.0
H446 H 0.61184 0.87709 0.34177 0.0
H447 H 0.62408 0.8765 0.24618 0.0
H448 H 0.61866 0.89087 0.20958 0.0
H449 H 0.57346 0.83118 0.23726 0.0
H450 H 0.56757 0.84564 0.20128 0.0
H451 H 0.57327 0.81391 0.28054 0.0
H452 H 0.62709 0.84123 0.25471 0.0
H453 H 0.57247 0.78695 0.28053 0.0
H454 H 0.62619 0.81419 0.2532 0.0
H455 H 0.5707 0.72135 0.29695 0.0
H456 H 0.56349 0.70029 0.33325 0.0
H457 H 0.61421 0.70654 0.32428 0.0
H458 H 0.62115 0.72734 0.28788 0.0
H459 H 0.62093 0.73612 0.22883 0.0
H460 H 0.61299 0.71569 0.19433 0.0
H461 H 0.5586 0.69263 0.21617 0.0
H462 H 0.56681 0.71237 0.25146 0.0
H463 H 0.57237 0.7397 0.25431 0.0
H464 H 0.57243 0.76628 0.25429 0.0
H465 H 0.62554 0.79291 0.28079 0.0
N466 N 0.60008 0.73586 0.26568 0.0
H467 H 0.6256 0.76634 0.2793 0.0
C468 C 0.59536 0.84993 0.29165 0.0
C469 C 0.57769 0.84459 0.29479 0.0
C470 C 0.57234 0.85102 0.31463 0.0
C471 C 0.58454 0.86309 0.33158 0.0
C472 C 0.60205 0.86771 0.32925 0.0
C473 C 0.60736 0.86116 0.30946 0.0
C474 C 0.59918 0.85291 0.24453 0.0
C475 C 0.6119 0.86959 0.236 0.0
C476 C 0.60868 0.87782 0.21529 0.0
C477 C 0.59255 0.86953 0.2028 0.0
C478 C 0.58015 0.85239 0.2104 0.0
C479 C 0.58346 0.84412 0.23108 0.0
C480 C 0.60043 0.82974 0.26806 0.0
C481 C 0.58493 0.81417 0.27476 0.0
C482 C 0.58444 0.79865 0.27449 0.0
C483 C 0.59931 0.79831 0.2671 0.0
C484 C 0.6146 0.8139 0.25967 0.0
C485 C 0.61513 0.82939 0.26029 0.0
C486 C 0.59648 0.72583 0.28972 0.0
C487 C 0.58035 0.7184 0.30315 0.0
C488 C 0.57627 0.70641 0.32391 0.0
C489 C 0.58821 0.70162 0.33136 0.0
C490 C 0.60464 0.70977 0.31871 0.0
C491 C 0.6087 0.72174 0.29811 0.0
C492 C 0.59455 0.72596 0.24254 0.0
C493 C 0.60728 0.72689 0.22568 0.0
C494 C 0.60268 0.7152 0.20593 0.0
C495 C 0.58512 0.70234 0.20251 0.0
C496 C 0.57227 0.70211 0.2185 0.0
C497 C 0.57693 0.71365 0.23848 0.0
C498 C 0.59917 0.75108 0.26638 0.0
C499 C 0.58408 0.75122 0.25989 0.0
C500 C 0.58408 0.7665 0.26016 0.0
C501 C 0.59905 0.78188 0.2673 0.0
C502 C 0.61391 0.78148 0.27451 0.0
C503 C 0.61395 0.76629 0.27391 0.0
H504 H 0.90007 0.59839 0.81819 0.0
N505 N 0.87138 0.57858 0.79209 0.0
H506 H 0.91005 0.59054 0.85769 0.0
H507 H 0.85182 0.54942 0.82341 0.0
H508 H 0.8616 0.54155 0.86285 0.0
H509 H 0.86243 0.54582 0.78173 0.0
H510 H 0.87672 0.53783 0.74968 0.0
H511 H 0.89402 0.59871 0.75458 0.0
H512 H 0.90835 0.59076 0.72218 0.0
H513 H 0.86746 0.60523 0.79194 0.0
H514 H 0.83876 0.55044 0.78477 0.0
H515 H 0.84066 0.60545 0.78677 0.0
H516 H 0.8117 0.55026 0.7814 0.0
H517 H 0.74942 0.59893 0.79271 0.0
H518 H 0.72783 0.59062 0.82795 0.0
H519 H 0.72777 0.54383 0.84275 0.0
H520 H 0.74914 0.55217 0.80696 0.0
H521 H 0.73778 0.54716 0.76209 0.0
H522 H 0.71679 0.53788 0.72703 0.0
H523 H 0.73994 0.59055 0.69886 0.0
H524 H 0.76114 0.5997 0.7339 0.0
H525 H 0.78877 0.59974 0.8027 0.0
H526 H 0.81498 0.59857 0.8082 0.0
H527 H 0.79519 0.5573 0.75452 0.0
N528 N 0.76142 0.58041 0.77374 0.0
H529 H 0.76872 0.55781 0.7504 0.0
C530 C 0.87528 0.57458 0.81772 0.0
C531 C 0.89146 0.58614 0.82825 0.0
C532 C 0.89711 0.58163 0.85083 0.0
C533 C 0.88666 0.56535 0.86328 0.0
C534 C 0.87004 0.55409 0.85349 0.0
C535 C 0.86438 0.55865 0.83094 0.0
C536 C 0.87728 0.57297 0.77067 0.0
C537 C 0.87218 0.55569 0.76856 0.0
C538 C 0.88043 0.55113 0.75029 0.0
C539 C 0.89376 0.5637 0.73362 0.0
C540 C 0.89806 0.58078 0.73467 0.0
C541 C 0.88992 0.58535 0.75313 0.0
C542 C 0.85513 0.57789 0.78912 0.0
C543 C 0.85529 0.59322 0.78959 0.0
C544 C 0.8399 0.59326 0.78687 0.0
C545 C 0.82385 0.57784 0.78397 0.0
C546 C 0.82376 0.56242 0.78333 0.0
C547 C 0.83926 0.56246 0.78563 0.0
C548 C 0.75084 0.57622 0.79721 0.0
C549 C 0.74498 0.58706 0.80395 0.0
C550 C 0.73269 0.58229 0.82417 0.0
C551 C 0.72599 0.5665 0.83815 0.0
C552 C 0.73248 0.55596 0.83214 0.0
C553 C 0.74478 0.56075 0.81182 0.0
C554 C 0.75109 0.5742 0.7506 0.0
C555 C 0.7386 0.55669 0.74807 0.0
C556 C 0.72651 0.5514 0.7281 0.0
C557 C 0.72654 0.56349 0.71034 0.0
C558 C 0.73964 0.58089 0.71205 0.0
C559 C 0.75176 0.58615 0.73204 0.0
C560 C 0.77663 0.57897 0.77621 0.0
C561 C 0.79005 0.59035 0.79227 0.0
C562 C 0.80513 0.58976 0.79517 0.0
C563 C 0.80739 0.57794 0.78162 0.0
C564 C 0.79389 0.56643 0.76559 0.0
C565 C 0.77863 0.56683 0.76305 0.0
H566 H 0.20078 0.71138 0.29391 0.0
N567 N 0.1921 0.73532 0.28185 0.0
H568 H 0.19153 0.69253 0.333 0.0
H569 H 0.17721 0.73787 0.32479 0.0
H570 H 0.16851 0.71951 0.36473 0.0
H571 H 0.16007 0.72477 0.26651 0.0
H572 H 0.14326 0.70332 0.2343 0.0
H573 H 0.20505 0.7218 0.24798 0.0
H574 H 0.18848 0.70058 0.21563 0.0
H575 H 0.22452 0.73944 0.27892 0.0
H576 H 0.19719 0.76641 0.27608 0.0
H577 H 0.25221 0.76649 0.27218 0.0
H578 H 0.22483 0.79368 0.27111 0.0
H579 H 0.32779 0.84174 0.28794 0.0
H580 H 0.34666 0.85623 0.32452 0.0
H581 H 0.32298 0.8864 0.33226 0.0
H582 H 0.3035 0.87128 0.29619 0.0
H583 H 0.31249 0.87664 0.23719 0.0
H584 H 0.33411 0.88995 0.20141 0.0
H585 H 0.3427 0.84776 0.20712 0.0
H586 H 0.32063 0.83433 0.24257 0.0
H587 H 0.2993 0.81901 0.29039 0.0
H588 H 0.27232 0.79134 0.29291 0.0
H589 H 0.24804 0.81162 0.24291 0.0
N590 N 0.30437 0.84876 0.26597 0.0
H591 H 0.27492 0.83971 0.242 0.0
C592 C 0.18945 0.72592 0.30632 0.0
C593 C 0.19396 0.71342 0.30937 0.0
C594 C 0.18873 0.70268 0.33192 0.0
C595 C 0.17906 0.70433 0.35196 0.0
C596 C 0.17559 0.71761 0.34947 0.0
C597 C 0.18068 0.72822 0.32682 0.0
C598 C 0.18377 0.72492 0.25974 0.0
C599 C 0.16642 0.7198 0.25501 0.0
C600 C 0.15687 0.70757 0.23658 0.0
C601 C 0.1645 0.70015 0.22253 0.0
C602 C 0.18216 0.70588 0.22641 0.0
C603 C 0.19171 0.71816 0.24483 0.0
C604 C 0.20873 0.75092 0.27755 0.0
C605 C 0.22446 0.75118 0.27668 0.0
C606 C 0.24036 0.76676 0.27318 0.0
C607 C 0.24089 0.7824 0.27099 0.0
C608 C 0.22504 0.78197 0.27205 0.0
C609 C 0.2092 0.7664 0.27512 0.0
C610 C 0.31389 0.85516 0.2897 0.0
C611 C 0.32613 0.85096 0.29808 0.0
C612 C 0.33699 0.85931 0.31889 0.0
C613 C 0.33618 0.87234 0.33115 0.0
C614 C 0.32376 0.87632 0.32313 0.0
C615 C 0.31262 0.86767 0.30272 0.0
C616 C 0.31509 0.85464 0.24253 0.0
C617 C 0.3188 0.87013 0.23029 0.0
C618 C 0.33125 0.87776 0.21007 0.0
C619 C 0.34032 0.87004 0.20173 0.0
C620 C 0.3359 0.85399 0.21307 0.0
C621 C 0.32337 0.84634 0.23338 0.0
C622 C 0.2891 0.83169 0.26639 0.0
C623 C 0.28825 0.81766 0.28004 0.0
C624 C 0.27272 0.80163 0.28124 0.0
C625 C 0.2578 0.79915 0.26837 0.0
C626 C 0.25903 0.81306 0.25372 0.0
C627 C 0.27444 0.82912 0.25294 0.0
H628 H 0.42897 0.13748 0.72117 0.0
N629 N 0.44861 0.16706 0.74376 0.0
H630 H 0.43725 0.12614 0.68523 0.0
H631 H 0.47852 0.185 0.71385 0.0
H632 H 0.48694 0.17388 0.6775 0.0
H633 H 0.48149 0.17623 0.75856 0.0
H634 H 0.4888 0.16305 0.79444 0.0
H635 H 0.42719 0.14558 0.78145 0.0
H636 H 0.43442 0.13244 0.81788 0.0
H637 H 0.42741 0.17424 0.71855 0.0
H638 H 0.47338 0.19739 0.76552 0.0
H639 H 0.42824 0.20127 0.71597 0.0
H640 H 0.47362 0.22403 0.7646 0.0
H641 H 0.42596 0.28499 0.72526 0.0
H642 H 0.43083 0.30527 0.68893 0.0
H643 H 0.48011 0.31017 0.67093 0.0
H644 H 0.4751 0.28987 0.70702 0.0
H645 H 0.48105 0.30254 0.75152 0.0
H646 H 0.48994 0.32224 0.78711 0.0
H647 H 0.43836 0.29143 0.82237 0.0
H648 H 0.42939 0.27228 0.78578 0.0
H649 H 0.42134 0.24414 0.74151 0.0
H650 H 0.42215 0.21797 0.74135 0.0
H651 H 0.47852 0.24842 0.74068 0.0
N652 N 0.44788 0.27611 0.74289 0.0
H653 H 0.47738 0.2744 0.74269 0.0
C654 C 0.45309 0.16198 0.72016 0.0
C655 C 0.44149 0.14558 0.71132 0.0
C656 C 0.44625 0.13918 0.69072 0.0
C657 C 0.46279 0.14909 0.6785 0.0
C658 C 0.47418 0.16585 0.6867 0.0
C659 C 0.46937 0.17227 0.70735 0.0
C660 C 0.45372 0.16187 0.76734 0.0
C661 C 0.47117 0.16696 0.7717 0.0
C662 C 0.47535 0.15944 0.79233 0.0
C663 C 0.46217 0.1466 0.80892 0.0
C664 C 0.44484 0.14213 0.80525 0.0
C665 C 0.44069 0.14972 0.78465 0.0
C666 C 0.45009 0.18355 0.74245 0.0
C667 C 0.43761 0.18513 0.72847 0.0
C668 C 0.43803 0.20059 0.72725 0.0
C669 C 0.45083 0.21488 0.74044 0.0
C670 C 0.46363 0.21341 0.75399 0.0
C671 C 0.46339 0.19799 0.75477 0.0
C672 C 0.45006 0.28584 0.7189 0.0
C673 C 0.43761 0.29016 0.71307 0.0
C674 C 0.44049 0.30184 0.69249 0.0
C675 C 0.45593 0.30943 0.67723 0.0
C676 C 0.46803 0.30444 0.68221 0.0
C677 C 0.46517 0.2928 0.70294 0.0
C678 C 0.45442 0.28608 0.76584 0.0
C679 C 0.47172 0.29989 0.76706 0.0
C680 C 0.47683 0.31112 0.78761 0.0
C681 C 0.4648 0.30861 0.8075 0.0
C682 C 0.44785 0.29402 0.80709 0.0
C683 C 0.44273 0.28295 0.78638 0.0
C684 C 0.44921 0.26117 0.74173 0.0
C685 C 0.43384 0.24509 0.74125 0.0
C686 C 0.43438 0.23016 0.74093 0.0
C687 C 0.45042 0.23096 0.74068 0.0
C688 C 0.46591 0.2472 0.7411 0.0
C689 C 0.46531 0.26215 0.74187 0.0
H690 H 0.0355 0.4532 0.06801 0.0
H691 H 0.05757 0.44837 0.08772 0.0
H692 H 0.08922 0.50217 0.10329 0.0
H693 H 0.06711 0.50693 0.0837 0.0
H694 H 0.09432 0.46485 0.07356 0.0
H695 H 0.08301 0.47688 0.17529 0.0
H696 H 0.06755 0.47234 0.1497 0.0
H697 H 0.08686 0.49327 0.15109 0.0
C698 C 0.0472 0.46391 0.0757 0.0
C699 C 0.0497 0.48038 0.07466 0.0
C700 C 0.05976 0.46119 0.08684 0.0
C701 C 0.0749 0.47489 0.09721 0.0
C702 C 0.0775 0.4914 0.09574 0.0
H703 H 0.16025 0.48089 0.18505 0.0
H704 H 0.14142 0.48761 0.15978 0.0
C705 C 0.06497 0.49413 0.08454 0.0
C706 C 0.08795 0.47188 0.10969 0.0
H707 H 0.10647 0.47281 0.16824 0.0
C708 C 0.09699 0.46656 0.09426 0.0
C709 C 0.0914 0.47418 0.13666 0.0
C710 C 0.08162 0.47935 0.15428 0.0
C711 C 0.10961 0.46367 0.10507 0.0
C712 C 0.11296 0.46583 0.13212 0.0
C713 C 0.10394 0.47122 0.14749 0.0
C714 C 0.12542 0.46214 0.14518 0.0
C715 C 0.11943 0.45864 0.08733 0.0
C716 C 0.12281 0.44564 0.14516 0.0
C717 C 0.13368 0.4418 0.15935 0.0
C718 C 0.14728 0.45435 0.17411 0.0
C719 C 0.15009 0.47098 0.17361 0.0
C720 C 0.13924 0.47482 0.15934 0.0
H721 H 0.11917 0.46248 0.06658 0.0
H722 H 0.13322 0.46454 0.09317 0.0
H723 H 0.11323 0.44449 0.08863 0.0
H724 H 0.11203 0.43555 0.1348 0.0
H725 H 0.13123 0.42891 0.15912 0.0
H726 H 0.57126 0.06001 0.56757 0.0
H727 H 0.59756 0.08118 0.58999 0.0
H728 H 0.62765 0.06462 0.54883 0.0
H729 H 0.60135 0.04356 0.5263 0.0
H730 H 0.61772 0.07408 0.62245 0.0
H731 H 0.65739 0.11699 0.53842 0.0
H732 H 0.63423 0.10187 0.53658 0.0
H733 H 0.64929 0.09471 0.53391 0.0
C734 C 0.58358 0.0611 0.5632 0.0
C735 C 0.58448 0.05038 0.54521 0.0
C736 C 0.59854 0.07314 0.57594 0.0
C737 C 0.61461 0.07466 0.57076 0.0
C738 C 0.61548 0.06394 0.55266 0.0
H739 H 0.70377 0.11302 0.66841 0.0
H740 H 0.67863 0.09659 0.64097 0.0
C741 C 0.6005 0.05188 0.53994 0.0
C742 C 0.63019 0.08665 0.58556 0.0
H743 H 0.6722 0.12042 0.5786 0.0
C744 C 0.62958 0.08429 0.61288 0.0
C745 C 0.64558 0.10008 0.57305 0.0
C746 C 0.64668 0.10372 0.5439 0.0
C747 C 0.64412 0.09468 0.62797 0.0
C748 C 0.65975 0.10762 0.61536 0.0
C749 C 0.66023 0.11036 0.58814 0.0
C750 C 0.67581 0.11804 0.63023 0.0
C751 C 0.64268 0.09171 0.65731 0.0
C752 C 0.68289 0.13569 0.63256 0.0
C753 C 0.69741 0.14521 0.64813 0.0
C754 C 0.70515 0.13723 0.66139 0.0
C755 C 0.6983 0.11964 0.65822 0.0
C756 C 0.68381 0.11017 0.64277 0.0
H757 H 0.62888 0.08431 0.66434 0.0
H758 H 0.64879 0.08429 0.66309 0.0
H759 H 0.64958 0.10407 0.66727 0.0
H760 H 0.67693 0.14199 0.62287 0.0
H761 H 0.70247 0.15876 0.64998 0.0
H762 H 0.52551 0.57272 0.0551 0.0
H763 H 0.53327 0.59844 0.07876 0.0
H764 H 0.58311 0.60495 0.09681 0.0
H765 H 0.5752 0.57897 0.07371 0.0
H766 H 0.56864 0.60855 0.13883 0.0
H767 H 0.56507 0.6481 0.05774 0.0
H768 H 0.5451 0.62778 0.06221 0.0
H769 H 0.56471 0.62856 0.05235 0.0
C770 C 0.5382 0.57977 0.06386 0.0
C771 C 0.54978 0.57389 0.06252 0.0
C772 C 0.54266 0.59452 0.07726 0.0
C773 C 0.55893 0.60386 0.08912 0.0
C774 C 0.57053 0.59801 0.0877 0.0
H775 H 0.59978 0.70462 0.15408 0.0
H776 H 0.59401 0.68105 0.12638 0.0
C777 C 0.56598 0.58315 0.07459 0.0
C778 C 0.56345 0.61914 0.10427 0.0
H779 H 0.56575 0.65759 0.10101 0.0
C780 C 0.56814 0.61933 0.13047 0.0
C781 C 0.56309 0.63335 0.09328 0.0
C782 C 0.5594 0.63455 0.06477 0.0
C783 C 0.57207 0.63311 0.14615 0.0
C784 C 0.57072 0.64686 0.13561 0.0
C785 C 0.5665 0.64691 0.10921 0.0
C786 C 0.57364 0.66125 0.15173 0.0
C787 C 0.57788 0.63287 0.17376 0.0
C788 C 0.56378 0.65803 0.17479 0.0
C789 C 0.56725 0.6714 0.1909 0.0
C790 C 0.58045 0.6884 0.18405 0.0
C791 C 0.58975 0.69168 0.16026 0.0
C792 C 0.58639 0.67823 0.14428 0.0
H793 H 0.58343 0.62457 0.17597 0.0
H794 H 0.5878 0.64597 0.17966 0.0
H795 H 0.56647 0.62762 0.18738 0.0
H796 H 0.55357 0.64508 0.18061 0.0
H797 H 0.55992 0.66826 0.20915 0.0
H798 H 0.0151 0.55057 0.62776 0.0
H799 H 0.99489 0.5556 0.6518 0.0
H800 H 0.95349 0.52242 0.60103 0.0
H801 H 0.97325 0.51639 0.578 0.0
H802 H 0.97673 0.56969 0.63674 0.0
H803 H 0.93078 0.50247 0.67127 0.0
H804 H 0.95167 0.50928 0.65632 0.0
H805 H 0.93343 0.50481 0.63634 0.0
C806 C 0.00163 0.54407 0.62196 0.0
C807 C 0.99583 0.53294 0.601 0.0
C808 C 0.99012 0.54711 0.63559 0.0
C809 C 0.97259 0.53915 0.62854 0.0
C810 C 0.96685 0.52839 0.60726 0.0
H811 H 0.90355 0.57317 0.68208 0.0
H812 H 0.92216 0.56705 0.65547 0.0
C813 C 0.97828 0.52517 0.59381 0.0
C814 C 0.9604 0.54232 0.64326 0.0
H815 H 0.9217 0.52224 0.67752 0.0
C816 C 0.96471 0.55932 0.64573 0.0
C817 C 0.94483 0.5288 0.65529 0.0
C818 C 0.93997 0.51034 0.65493 0.0
C819 C 0.95389 0.56317 0.65979 0.0
C820 C 0.93802 0.54961 0.67103 0.0
C821 C 0.93374 0.53262 0.66863 0.0
C822 C 0.92607 0.55275 0.68647 0.0
C823 C 0.95985 0.58176 0.66312 0.0
C824 C 0.92146 0.54614 0.71235 0.0
C825 C 0.9106 0.54934 0.72736 0.0
C826 C 0.90416 0.55928 0.71683 0.0
C827 C 0.90848 0.56562 0.69075 0.0
C828 C 0.9192 0.56223 0.67562 0.0
H829 H 0.97415 0.59028 0.65987 0.0
H830 H 0.95336 0.5857 0.64855 0.0
H831 H 0.95644 0.58376 0.68298 0.0
H832 H 0.92657 0.53877 0.72114 0.0
H833 H 0.90767 0.54446 0.74749 0.0
H834 H 0.48142 0.94917 0.05548 0.0
H835 H 0.45557 0.9274 0.08098 0.0
H836 H 0.43258 0.95833 0.07123 0.0
H837 H 0.45833 0.97994 0.04549 0.0
H838 H 0.44329 0.93221 0.12738 0.0
H839 H 0.39292 0.9108 0.05163 0.0
H840 H 0.41597 0.9228 0.0437 0.0
H841 H 0.40537 0.93365 0.05443 0.0
C842 C 0.47071 0.95114 0.05866 0.0
C843 C 0.47169 0.96609 0.04872 0.0
C844 C 0.45602 0.93877 0.07315 0.0
C845 C 0.44206 0.94114 0.07767 0.0
C846 C 0.44303 0.95607 0.0675 0.0
H847 H 0.36579 0.90387 0.2008 0.0
H848 H 0.39032 0.91951 0.16995 0.0
C849 C 0.45773 0.96844 0.05302 0.0
C850 C 0.42699 0.92858 0.09444 0.0
H851 H 0.38258 0.90319 0.09618 0.0
C852 C 0.43003 0.92571 0.12047 0.0
C853 C 0.40973 0.91993 0.0853 0.0
C854 C 0.40577 0.92179 0.05716 0.0
C855 C 0.41621 0.915 0.13792 0.0
C856 C 0.3989 0.90713 0.12918 0.0
C857 C 0.39587 0.90937 0.10286 0.0
C858 C 0.38381 0.89744 0.1475 0.0
C859 C 0.42024 0.91233 0.16568 0.0
C860 C 0.37178 0.87989 0.14472 0.0
C861 C 0.3576 0.87088 0.1623 0.0
C862 C 0.35514 0.87937 0.18267 0.0
C863 C 0.36716 0.897 0.18513 0.0
C864 C 0.38131 0.90593 0.16769 0.0
H865 H 0.4338 0.91521 0.16732 0.0
H866 H 0.41879 0.92107 0.17844 0.0
H867 H 0.41111 0.89895 0.1731 0.0
H868 H 0.37345 0.87315 0.12911 0.0
H869 H 0.34849 0.85734 0.15982 0.0
H870 H 0.52284 0.45692 0.57107 0.0
H871 H 0.5132 0.42844 0.59063 0.0
H872 H 0.47519 0.4052 0.53029 0.0
H873 H 0.48445 0.43384 0.51135 0.0
H874 H 0.46089 0.39172 0.57676 0.0
H875 H 0.52223 0.39216 0.56899 0.0
H876 H 0.52546 0.41044 0.58572 0.0
H877 H 0.5192 0.40797 0.55195 0.0
C878 C 0.51255 0.44567 0.56193 0.0
C879 C 0.50442 0.44742 0.5397 0.0
C880 C 0.50715 0.42942 0.57292 0.0
C881 C 0.49372 0.41463 0.56161 0.0
C882 C 0.48568 0.41641 0.53921 0.0
H883 H 0.46967 0.31432 0.62748 0.0
H884 H 0.47754 0.33842 0.59633 0.0
C885 C 0.49097 0.4327 0.52837 0.0
C886 C 0.4873 0.39744 0.57429 0.0
H887 H 0.50091 0.37176 0.60066 0.0
C888 C 0.4696 0.38725 0.58164 0.0
C889 C 0.49855 0.39139 0.5802 0.0
C890 C 0.51737 0.40099 0.57103 0.0
C891 C 0.46304 0.37161 0.59587 0.0
C892 C 0.47459 0.36625 0.60362 0.0
C893 C 0.49209 0.37599 0.5951 0.0
C894 C 0.46902 0.35116 0.62175 0.0
C895 C 0.44379 0.36104 0.6025 0.0
C896 C 0.46177 0.35038 0.64643 0.0
C897 C 0.45719 0.33663 0.6641 0.0
C898 C 0.45999 0.32346 0.65764 0.0
C899 C 0.46737 0.32429 0.63299 0.0
C900 C 0.47183 0.33802 0.61519 0.0
H901 H 0.43616 0.36355 0.58794 0.0
H902 H 0.4389 0.34711 0.60332 0.0
H903 H 0.4414 0.36459 0.62188 0.0
H904 H 0.46001 0.36062 0.65231 0.0
H905 H 0.45192 0.33658 0.68316 0.0
H906 H 0.56403 0.95926 0.49185 0.0
H907 H 0.57057 0.93899 0.47298 0.0
H908 H 0.54209 0.93705 0.40416 0.0
H909 H 0.53511 0.95692 0.42312 0.0
H910 H 0.53399 0.90441 0.42541 0.0
H911 H 0.60543 0.95 0.41193 0.0
H912 H 0.59655 0.94811 0.44422 0.0
H913 H 0.59046 0.95709 0.41763 0.0
C914 C 0.55909 0.95445 0.47276 0.0
C915 C 0.54912 0.95978 0.45892 0.0
C916 C 0.56297 0.94299 0.46192 0.0
C917 C 0.55699 0.9367 0.43705 0.0
C918 C 0.54691 0.94185 0.42332 0.0
H919 H 0.56243 0.87453 0.32235 0.0
H920 H 0.55519 0.89072 0.35093 0.0
C921 C 0.54305 0.95331 0.43409 0.0
C922 C 0.56103 0.9246 0.42527 0.0
H923 H 0.59427 0.92165 0.39948 0.0
C924 C 0.54717 0.90813 0.41987 0.0
C925 C 0.57825 0.92947 0.41826 0.0
C926 C 0.59356 0.94716 0.42308 0.0
C927 C 0.55006 0.89646 0.40723 0.0
C928 C 0.56721 0.90153 0.39937 0.0
C929 C 0.58113 0.9178 0.40555 0.0
C930 C 0.57084 0.89069 0.38297 0.0
C931 C 0.5347 0.87881 0.40234 0.0
C932 C 0.58226 0.88549 0.39134 0.0
C933 C 0.58642 0.87613 0.37499 0.0
C934 C 0.57931 0.87193 0.34992 0.0
C935 C 0.5678 0.87713 0.34175 0.0
C936 C 0.56366 0.88643 0.35807 0.0
H937 H 0.52373 0.87514 0.41632 0.0
H938 H 0.52998 0.87876 0.38229 0.0
H939 H 0.53837 0.86899 0.40394 0.0
H940 H 0.58803 0.88875 0.41044 0.0
H941 H 0.59525 0.87226 0.38193 0.0
H942 H 0.57661 0.49941 0.95637 0.0
H943 H 0.60413 0.50605 0.93533 0.0
H944 H 0.62877 0.55813 0.96004 0.0
H945 H 0.60124 0.55139 0.98121 0.0
H946 H 0.62223 0.53143 0.89515 0.0
H947 H 0.66322 0.5434 0.98228 0.0
H948 H 0.63973 0.53214 0.98447 0.0
H949 H 0.6523 0.55512 0.98053 0.0
C950 C 0.58801 0.51219 0.95743 0.0
C951 C 0.58703 0.52492 0.97028 0.0
C952 C 0.60365 0.51598 0.94548 0.0
C953 C 0.61852 0.53251 0.94645 0.0
C954 C 0.61753 0.54521 0.95952 0.0
H955 H 0.72139 0.5854 0.87416 0.0
H956 H 0.69539 0.57643 0.90129 0.0
C957 C 0.60187 0.54142 0.97143 0.0
C958 C 0.63475 0.53673 0.93237 0.0
H959 H 0.67773 0.55073 0.94073 0.0
C960 C 0.63434 0.53552 0.9051 0.0
C961 C 0.65052 0.54216 0.94546 0.0
C962 C 0.65153 0.54317 0.97483 0.0
C963 C 0.64939 0.53995 0.89043 0.0
C964 C 0.66518 0.54535 0.90349 0.0
C965 C 0.66559 0.54652 0.9308 0.0
C966 C 0.68147 0.55026 0.88893 0.0
C967 C 0.64834 0.53928 0.86101 0.0
C968 C 0.68247 0.53837 0.87366 0.0
C969 C 0.69722 0.54349 0.85792 0.0
C970 C 0.71133 0.56058 0.85735 0.0
C971 C 0.71063 0.57222 0.87378 0.0
C972 C 0.69585 0.5671 0.88943 0.0
H973 H 0.63663 0.53913 0.8538 0.0
H974 H 0.6601 0.55043 0.85148 0.0
H975 H 0.64752 0.5274 0.85483 0.0
H976 H 0.67165 0.52522 0.87338 0.0
H977 H 0.69723 0.53421 0.84541 0.0
H978 H 0.10683 0.56609 0.50084 0.0
H979 H 0.12867 0.59334 0.47869 0.0
H980 H 0.09328 0.61153 0.48419 0.0
H981 H 0.07176 0.58454 0.50709 0.0
H982 H 0.12533 0.60557 0.43254 0.0
H983 H 0.13765 0.65286 0.50678 0.0
H984 H 0.12648 0.63012 0.51466 0.0
H985 H 0.11486 0.63946 0.50057 0.0
C986 C 0.10394 0.5761 0.49767 0.0
C987 C 0.08773 0.57337 0.5055 0.0
C988 C 0.11635 0.5916 0.48504 0.0
C989 C 0.11273 0.60459 0.48011 0.0
C990 C 0.09658 0.60191 0.48838 0.0
H991 H 0.14679 0.6905 0.37507 0.0
H992 H 0.13301 0.66739 0.40856 0.0
C993 C 0.08424 0.58647 0.50119 0.0
C994 C 0.12513 0.62029 0.46431 0.0
H995 H 0.14576 0.66401 0.46222 0.0
C996 C 0.13006 0.61836 0.43923 0.0
C997 C 0.13132 0.63699 0.47305 0.0
C998 C 0.12745 0.64 0.50035 0.0
C999 C 0.14032 0.6326 0.42223 0.0
C1000 C 0.14586 0.64919 0.43059 0.0
C1001 C 0.14142 0.65123 0.4559 0.0
C1002 C 0.15516 0.66441 0.4125 0.0
C1003 C 0.14457 0.62979 0.39503 0.0
C1004 C 0.17236 0.67064 0.40414 0.0
C1005 C 0.18042 0.68404 0.38515 0.0
C1006 C 0.17136 0.69138 0.37416 0.0
C1007 C 0.1543 0.6854 0.38334 0.0
C1008 C 0.14633 0.67211 0.40239 0.0
H1009 H 0.1375 0.61599 0.39051 0.0
H1010 H 0.14125 0.63675 0.38025 0.0
H1011 H 0.15877 0.63499 0.39313 0.0
H1012 H 0.17942 0.66491 0.41193 0.0
H1013 H 0.19365 0.68849 0.37885 0.0
H1014 H 0.52663 0.07812 0.96047 0.0
H1015 H 0.51819 0.09669 0.93817 0.0
H1016 H 0.47256 0.05224 0.90914 0.0
H1017 H 0.48069 0.03356 0.93184 0.0
H1018 H 0.51323 0.09862 0.88379 0.0
H1019 H 0.4531 0.07967 0.94137 0.0
H1020 H 0.46932 0.07516 0.95277 0.0
H1021 H 0.45393 0.06204 0.92881 0.0
C1022 C 0.51466 0.07228 0.94966 0.0
C1023 C 0.50429 0.05435 0.948 0.0
C1024 C 0.50992 0.08291 0.93682 0.0
C1025 C 0.49463 0.07583 0.92232 0.0
C1026 C 0.48425 0.05795 0.92061 0.0
H1027 H 0.44421 0.11202 0.81958 0.0
H1028 H 0.45241 0.0958 0.84869 0.0
C1029 C 0.48901 0.04731 0.93335 0.0
C1030 C 0.48995 0.08714 0.90798 0.0
H1031 H 0.45808 0.09656 0.9022 0.0
C1032 C 0.50126 0.09831 0.88795 0.0
C1033 C 0.47431 0.08665 0.91346 0.0
C1034 C 0.46201 0.07535 0.93542 0.0
C1035 C 0.49708 0.10864 0.87263 0.0
C1036 C 0.48134 0.10803 0.87792 0.0
C1037 C 0.47015 0.09702 0.89822 0.0
C1038 C 0.4759 0.11814 0.86181 0.0
C1039 C 0.50926 0.11963 0.85033 0.0
C1040 C 0.48615 0.13612 0.86006 0.0
C1041 C 0.48148 0.14545 0.84344 0.0
C1042 C 0.46637 0.13696 0.82847 0.0
C1043 C 0.4558 0.11898 0.83106 0.0
C1044 C 0.46052 0.10968 0.84759 0.0
H1045 H 0.51846 0.11554 0.84502 0.0
H1046 H 0.50185 0.11917 0.83272 0.0
H1047 H 0.51704 0.13313 0.85621 0.0
H1048 H 0.49786 0.14294 0.87133 0.0
H1049 H 0.48975 0.1593 0.84214 0.0
H1050 H 0.47478 0.50992 0.41382 0.0
H1051 H 0.44963 0.50463 0.38827 0.0
H1052 H 0.41513 0.46685 0.4469 0.0
H1053 H 0.44028 0.47236 0.47279 0.0
H1054 H 0.42596 0.47593 0.36654 0.0
H1055 H 0.39261 0.49466 0.43666 0.0
H1056 H 0.41462 0.49961 0.44109 0.0
H1057 H 0.39642 0.47861 0.45024 0.0
C1058 C 0.46182 0.50052 0.42128 0.0
C1059 C 0.45947 0.49155 0.44529 0.0
C1060 C 0.44746 0.49756 0.40673 0.0
C1061 C 0.43047 0.48554 0.41584 0.0
C1062 C 0.42809 0.47653 0.43981 0.0
H1063 H 0.34149 0.43526 0.31595 0.0
H1064 H 0.36522 0.4426 0.34577 0.0
C1065 C 0.44246 0.47962 0.45452 0.0
C1066 C 0.41536 0.48178 0.39948 0.0
H1067 H 0.37623 0.47941 0.39981 0.0
C1068 C 0.41515 0.4768 0.37379 0.0
C1069 C 0.40135 0.48314 0.4088 0.0
C1070 C 0.4013 0.48947 0.43561 0.0
C1071 C 0.40121 0.47284 0.35732 0.0
C1072 C 0.38682 0.47341 0.36704 0.0
C1073 C 0.38717 0.47875 0.39253 0.0
C1074 C 0.37134 0.46851 0.35092 0.0
C1075 C 0.40219 0.46836 0.32951 0.0
C1076 C 0.3663 0.48035 0.34495 0.0
C1077 C 0.3524 0.47605 0.3283 0.0
C1078 C 0.34328 0.45982 0.31732 0.0
C1079 C 0.34802 0.4478 0.32419 0.0
C1080 C 0.36179 0.45207 0.34097 0.0
H1081 H 0.41586 0.47338 0.32301 0.0
H1082 H 0.39489 0.45421 0.32825 0.0
H1083 H 0.39637 0.47356 0.3158 0.0
H1084 H 0.37339 0.49306 0.35266 0.0
H1085 H 0.34893 0.48552 0.32381 0.0
H1086 H 0.95849 0.41226 0.01008 0.0
H1087 H 0.94019 0.38691 0.98456 0.0
H1088 H 0.93595 0.4189 0.92485 0.0
H1089 H 0.95445 0.44424 0.94996 0.0
H1090 H 0.90689 0.37214 0.96572 0.0
H1091 H 0.95517 0.39529 0.88365 0.0
H1092 H 0.96031 0.40521 0.91486 0.0
H1093 H 0.94878 0.41025 0.89105 0.0
C1094 C 0.95353 0.41383 0.99159 0.0
C1095 C 0.95809 0.43023 0.9818 0.0
C1096 C 0.94311 0.39937 0.97704 0.0
C1097 C 0.93704 0.40108 0.95253 0.0
C1098 C 0.9409 0.41735 0.94335 0.0
H1099 H 0.87679 0.33412 0.82984 0.0
H1100 H 0.88976 0.3567 0.86158 0.0
C1101 C 0.95144 0.4318 0.95772 0.0
C1102 C 0.92707 0.38599 0.93618 0.0
H1103 H 0.92712 0.37107 0.87597 0.0
C1104 C 0.91135 0.37185 0.94616 0.0
C1105 C 0.93299 0.38557 0.91073 0.0
C1106 C 0.95032 0.39981 0.89952 0.0
C1107 C 0.90118 0.3575 0.93104 0.0
C1108 C 0.90692 0.35736 0.90541 0.0
C1109 C 0.92269 0.37137 0.89557 0.0
C1110 C 0.89694 0.34274 0.88836 0.0
C1111 C 0.88424 0.34271 0.94225 0.0
C1112 C 0.8965 0.32735 0.89318 0.0
C1113 C 0.88914 0.31444 0.87505 0.0
C1114 C 0.88208 0.31672 0.85185 0.0
C1115 C 0.88191 0.33188 0.84767 0.0
C1116 C 0.88938 0.34482 0.8657 0.0
H1117 H 0.88039 0.34582 0.9609 0.0
H1118 H 0.87365 0.33897 0.92802 0.0
H1119 H 0.8856 0.33146 0.94604 0.0
H1120 H 0.90245 0.32561 0.91044 0.0
H1121 H 0.88938 0.30286 0.87883 0.0
H1122 H 0.98178 0.54137 0.0287 0.0
H1123 H 0.96306 0.5505 0.00823 0.0
H1124 H 0.93792 0.50438 0.96456 0.0
H1125 H 0.95655 0.49527 0.98517 0.0
H1126 H 0.96196 0.55617 0.95435 0.0
H1127 H 0.89663 0.50641 0.99379 0.0
H1128 H 0.91656 0.51036 0.00849 0.0
H1129 H 0.90864 0.49784 0.97986 0.0
C1130 C 0.97203 0.53314 0.01503 0.0
C1131 C 0.97038 0.51763 0.00848 0.0
C1132 C 0.9614 0.53832 0.00338 0.0
C1133 C 0.94893 0.52798 0.9852 0.0
C1134 C 0.94717 0.51235 0.97898 0.0
H1135 H 0.88415 0.53444 0.86969 0.0
H1136 H 0.89853 0.52607 0.90205 0.0
C1137 C 0.95782 0.5072 0.99058 0.0
C1138 C 0.93876 0.53414 0.97107 0.0
H1139 H 0.89732 0.52332 0.95654 0.0
C1140 C 0.94783 0.54915 0.9551 0.0
C1141 C 0.92033 0.52489 0.97204 0.0
C1142 C 0.90994 0.50906 0.98965 0.0
C1143 C 0.93897 0.55478 0.93918 0.0
C1144 C 0.92053 0.54533 0.93971 0.0
C1145 C 0.91145 0.53055 0.9562 0.0
C1146 C 0.91049 0.54996 0.92197 0.0
C1147 C 0.94946 0.57034 0.92103 0.0
C1148 C 0.912 0.56599 0.92294 0.0
C1149 C 0.9038 0.57083 0.90442 0.0
C1150 C 0.89376 0.55964 0.8848 0.0
C1151 C 0.89161 0.54329 0.88471 0.0
C1152 C 0.89989 0.5385 0.90312 0.0
H1153 H 0.96319 0.57374 0.91873 0.0
H1154 H 0.9436 0.56816 0.90139 0.0
H1155 H 0.94957 0.58146 0.92916 0.0
H1156 H 0.91981 0.57487 0.9377 0.0
H1157 H 0.90549 0.58341 0.90521 0.0
H1158 H 0.45343 0.97168 0.49603 0.0
H1159 H 0.42589 0.95102 0.47594 0.0
H1160 H 0.45455 0.94375 0.41538 0.0
H1161 H 0.48189 0.96337 0.43664 0.0
H1162 H 0.41282 0.95153 0.43233 0.0
H1163 H 0.41981 0.89525 0.43289 0.0
H1164 H 0.43442 0.91416 0.45028 0.0
H1165 H 0.43804 0.91304 0.4159 0.0
C1166 C 0.45372 0.96537 0.4787 0.0
C1167 C 0.46966 0.96887 0.46801 0.0
C1168 C 0.43804 0.95365 0.46716 0.0
C1169 C 0.43805 0.94545 0.44443 0.0
C1170 C 0.45408 0.94934 0.43341 0.0
H1171 H 0.35893 0.90667 0.32816 0.0
H1172 H 0.38251 0.92385 0.35782 0.0
C1173 C 0.46971 0.96072 0.44533 0.0
C1174 C 0.42141 0.93356 0.43148 0.0
H1175 H 0.39935 0.89507 0.4023 0.0
C1176 C 0.40977 0.93907 0.42612 0.0
C1177 C 0.41709 0.91709 0.4239 0.0
C1178 C 0.42792 0.90948 0.43134 0.0
C1179 C 0.39437 0.92891 0.41252 0.0
C1180 C 0.39086 0.91312 0.40289 0.0
C1181 C 0.40212 0.90729 0.40921 0.0
C1182 C 0.37603 0.90275 0.38546 0.0
C1183 C 0.38198 0.9352 0.40898 0.0
C1184 C 0.36486 0.88499 0.39044 0.0
C1185 C 0.3517 0.87507 0.373 0.0
C1186 C 0.34932 0.88278 0.35052 0.0
C1187 C 0.36031 0.90052 0.34568 0.0
C1188 C 0.3737 0.91036 0.36275 0.0
H1189 H 0.38294 0.94333 0.42528 0.0
H1190 H 0.38549 0.94323 0.39061 0.0
H1191 H 0.36826 0.9244 0.40796 0.0
H1192 H 0.36643 0.87877 0.4077 0.0
H1193 H 0.34341 0.86137 0.37699 0.0
H1194 H 0.52521 0.45272 0.91425 0.0
H1195 H 0.51747 0.42705 0.89049 0.0
H1196 H 0.48142 0.39532 0.9528 0.0
H1197 H 0.48921 0.42098 0.97682 0.0
H1198 H 0.50102 0.38235 0.9348 0.0
H1199 H 0.47209 0.39908 0.85216 0.0
H1200 H 0.49421 0.41548 0.85814 0.0
H1201 H 0.47749 0.41006 0.88248 0.0
C1202 C 0.51556 0.44028 0.92283 0.0
C1203 C 0.50769 0.43887 0.94728 0.0
C1204 C 0.51116 0.42563 0.90923 0.0
C1205 C 0.49863 0.4093 0.91966 0.0
C1206 C 0.49107 0.40781 0.94437 0.0
H1207 H 0.4441 0.31946 0.82714 0.0
H1208 H 0.45208 0.34259 0.85666 0.0
C1209 C 0.49556 0.42246 0.95808 0.0
C1210 C 0.49325 0.39382 0.90459 0.0
H1211 H 0.47595 0.37566 0.84659 0.0
C1212 C 0.49547 0.38083 0.91555 0.0
C1213 C 0.48578 0.39175 0.87966 0.0
C1214 C 0.48207 0.40474 0.86749 0.0
C1215 C 0.49068 0.36594 0.90203 0.0
C1216 C 0.48378 0.36418 0.87669 0.0
C1217 C 0.48136 0.37708 0.86593 0.0
C1218 C 0.47869 0.349 0.86097 0.0
C1219 C 0.49273 0.35212 0.9152 0.0
C1220 C 0.49095 0.34472 0.85378 0.0
C1221 C 0.48633 0.33122 0.83718 0.0
C1222 C 0.46941 0.32187 0.82718 0.0
C1223 C 0.45713 0.32608 0.83481 0.0
C1224 C 0.46172 0.33945 0.85152 0.0
H1225 H 0.49339 0.35317 0.93679 0.0
H1226 H 0.48178 0.33916 0.91057 0.0
H1227 H 0.50504 0.35346 0.90811 0.0
H1228 H 0.50422 0.35211 0.8604 0.0
H1229 H 0.49609 0.32828 0.8319 0.0
H1230 H 0.0934 0.50944 0.44567 0.0
H1231 H 0.1105 0.50109 0.42012 0.0
H1232 H 0.11127 0.47123 0.48663 0.0
H1233 H 0.09434 0.47981 0.51252 0.0
H1234 H 0.14298 0.48915 0.46023 0.0
H1235 H 0.0896 0.45381 0.39105 0.0
H1236 H 0.09573 0.47578 0.39311 0.0
H1237 H 0.08639 0.46137 0.42137 0.0
C1238 C 0.0972 0.50108 0.45484 0.0
C1239 C 0.09235 0.49508 0.48097 0.0
C1240 C 0.10695 0.4963 0.44022 0.0
C1241 C 0.1118 0.48521 0.45129 0.0
C1242 C 0.10755 0.47971 0.47768 0.0
H1243 H 0.14214 0.43116 0.3492 0.0
H1244 H 0.12864 0.438 0.384 0.0
C1245 C 0.09792 0.48463 0.49243 0.0
C1246 C 0.1209 0.47906 0.43502 0.0
H1247 H 0.11746 0.45905 0.37842 0.0
C1248 C 0.13738 0.48244 0.44244 0.0
C1249 C 0.11341 0.47 0.41212 0.0
C1250 C 0.09523 0.46486 0.40406 0.0
C1251 C 0.14681 0.47748 0.42706 0.0
C1252 C 0.1397 0.46926 0.40338 0.0
C1253 C 0.12301 0.46547 0.39644 0.0
C1254 C 0.14929 0.46467 0.38509 0.0
C1255 C 0.16416 0.48092 0.43651 0.0
C1256 C 0.16563 0.47729 0.37444 0.0
C1257 C 0.17363 0.47331 0.35485 0.0
C1258 C 0.16529 0.45671 0.34511 0.0
C1259 C 0.14915 0.444 0.35641 0.0
C1260 C 0.14129 0.44794 0.3762 0.0
H1261 H 0.165 0.48188 0.45811 0.0
H1262 H 0.16653 0.4707 0.43088 0.0
H1263 H 0.17469 0.49333 0.42764 0.0
H1264 H 0.17192 0.49038 0.38053 0.0
H1265 H 0.18615 0.48338 0.34692 0.0
H1266 H 0.60156 0.04139 0.98717 0.0
H1267 H 0.62948 0.06088 0.96423 0.0
H1268 H 0.6027 0.0733 0.90599 0.0
H1269 H 0.57499 0.05441 0.92957 0.0
H1270 H 0.63989 0.05929 0.91693 0.0
H1271 H 0.64178 0.12037 0.92181 0.0
H1272 H 0.62644 0.10141 0.94104 0.0
H1273 H 0.62203 0.10424 0.90749 0.0
C1274 C 0.60179 0.04853 0.96967 0.0
C1275 C 0.58629 0.0466 0.96013 0.0
C1276 C 0.61766 0.05959 0.95656 0.0
C1277 C 0.61826 0.06883 0.93365 0.0
C1278 C 0.60268 0.06674 0.92403 0.0
H1279 H 0.69224 0.10583 0.80608 0.0
H1280 H 0.66873 0.08944 0.83833 0.0
C1281 C 0.58686 0.05585 0.93731 0.0
C1282 C 0.63496 0.07984 0.9189 0.0
H1283 H 0.6605 0.11949 0.88911 0.0
C1284 C 0.64451 0.07253 0.91114 0.0
C1285 C 0.64123 0.09723 0.91178 0.0
C1286 C 0.63242 0.10632 0.92123 0.0
C1287 C 0.65971 0.08186 0.89552 0.0
C1288 C 0.66523 0.09882 0.88675 0.0
C1289 C 0.65613 0.1064 0.89548 0.0
C1290 C 0.6799 0.10865 0.86763 0.0
C1291 C 0.6697 0.07343 0.88866 0.0
C1292 C 0.69379 0.12514 0.873 0.0
C1293 C 0.70717 0.13466 0.85438 0.0
C1294 C 0.70691 0.1278 0.83012 0.0
C1295 C 0.693 0.11129 0.82483 0.0
C1296 C 0.67957 0.10189 0.84329 0.0
H1297 H 0.66752 0.0634 0.90368 0.0
H1298 H 0.66508 0.0671 0.86976 0.0
H1299 H 0.68391 0.08293 0.88672 0.0
H1300 H 0.69425 0.13067 0.89158 0.0
H1301 H 0.71774 0.14734 0.85898 0.0
H1302 H 0.56391 0.58201 0.50297 0.0
H1303 H 0.5709 0.6096 0.48241 0.0
H1304 H 0.53474 0.5828 0.42118 0.0
H1305 H 0.52723 0.55531 0.44242 0.0
H1306 H 0.5855 0.6231 0.43672 0.0
H1307 H 0.52093 0.61636 0.43803 0.0
H1308 H 0.52524 0.60194 0.45668 0.0
H1309 H 0.51999 0.59866 0.42256 0.0
C1310 C 0.55726 0.58212 0.4854 0.0
C1311 C 0.54491 0.56667 0.47436 0.0
C1312 C 0.56126 0.59782 0.47364 0.0
C1313 C 0.55308 0.5983 0.45052 0.0
C1314 C 0.54081 0.5828 0.43943 0.0
H1315 H 0.59328 0.67504 0.32721 0.0
H1316 H 0.58511 0.65125 0.35859 0.0
C1317 C 0.53665 0.56712 0.45137 0.0
C1318 C 0.5583 0.61496 0.4369 0.0
H1319 H 0.5421 0.63744 0.40681 0.0
C1320 C 0.57601 0.62633 0.43054 0.0
C1321 C 0.54603 0.61941 0.42923 0.0
C1322 C 0.52702 0.60852 0.43725 0.0
C1323 C 0.58166 0.64157 0.41567 0.0
C1324 C 0.56921 0.64532 0.4062 0.0
C1325 C 0.55162 0.63442 0.41368 0.0
C1326 C 0.57409 0.65991 0.38735 0.0
C1327 C 0.60094 0.65347 0.41019 0.0
C1328 C 0.57001 0.67239 0.39259 0.0
C1329 C 0.57454 0.68598 0.37446 0.0
C1330 C 0.58324 0.68731 0.35085 0.0
C1331 C 0.587 0.67462 0.34552 0.0
C1332 C 0.58236 0.66102 0.36348 0.0
H1333 H 0.60876 0.65199 0.42566 0.0
H1334 H 0.60445 0.65027 0.39136 0.0
H1335 H 0.6046 0.66708 0.40881 0.0
H1336 H 0.56347 0.67167 0.41079 0.0
H1337 H 0.57145 0.69556 0.37904 0.0
H1338 H 0.51115 0.05324 0.59335 0.0
H1339 H 0.50265 0.07196 0.6124 0.0
H1340 H 0.48948 0.08266 0.53606 0.0
H1341 H 0.49755 0.06361 0.51679 0.0
H1342 H 0.51089 0.11249 0.56776 0.0
H1343 H 0.45135 0.06057 0.61992 0.0
H1344 H 0.47075 0.05998 0.62529 0.0
H1345 H 0.46171 0.05658 0.59321 0.0
C1346 C 0.50623 0.05937 0.5806 0.0
C1347 C 0.50493 0.0568 0.55354 0.0
C1348 C 0.50146 0.07012 0.59153 0.0
C1349 C 0.4953 0.07853 0.57564 0.0
C1350 C 0.49421 0.07625 0.54861 0.0
H1351 H 0.44381 0.12823 0.63897 0.0
H1352 H 0.4519 0.1123 0.61089 0.0
C1353 C 0.4989 0.06542 0.53765 0.0
C1354 C 0.49002 0.08971 0.58738 0.0
H1355 H 0.4609 0.08914 0.63065 0.0
C1356 C 0.49989 0.10741 0.58137 0.0
C1357 C 0.47554 0.08298 0.60483 0.0
C1358 C 0.4641 0.06397 0.61109 0.0
C1359 C 0.49597 0.11867 0.5931 0.0
C1360 C 0.48191 0.112 0.61139 0.0
C1361 C 0.47172 0.09423 0.61671 0.0
C1362 C 0.47785 0.12318 0.62605 0.0
C1363 C 0.50687 0.13758 0.58586 0.0
C1364 C 0.48984 0.13473 0.64363 0.0
C1365 C 0.48523 0.14377 0.65983 0.0
C1366 C 0.46848 0.14134 0.65883 0.0
C1367 C 0.45673 0.13023 0.64046 0.0
C1368 C 0.46135 0.12118 0.62432 0.0
H1369 H 0.5139 0.14003 0.56683 0.0
H1370 H 0.49869 0.14335 0.58472 0.0
H1371 H 0.51671 0.14413 0.6011 0.0
H1372 H 0.50252 0.1362 0.64566 0.0
H1373 H 0.49449 0.15199 0.67403 0.0
H1374 H 0.45489 0.45958 0.0293 0.0
H1375 H 0.42664 0.45221 0.04851 0.0
H1376 H 0.44926 0.50448 0.07144 0.0
H1377 H 0.47734 0.51182 0.05177 0.0
H1378 H 0.41919 0.45425 0.09949 0.0
H1379 H 0.40519 0.49578 0.03626 0.0
H1380 H 0.4218 0.49124 0.02797 0.0
H1381 H 0.42614 0.50733 0.05102 0.0
C1382 C 0.45366 0.46944 0.03826 0.0
C1383 C 0.46806 0.48622 0.03911 0.0
C1384 C 0.43761 0.46527 0.04919 0.0
C1385 C 0.43576 0.47787 0.061 0.0
C1386 C 0.45026 0.49466 0.06185 0.0
H1387 H 0.36026 0.4806 0.15969 0.0
H1388 H 0.38501 0.48679 0.13166 0.0
C1389 C 0.46627 0.49883 0.05085 0.0
C1390 C 0.41897 0.47324 0.07374 0.0
H1391 H 0.38787 0.48386 0.07556 0.0
C1392 C 0.41223 0.46057 0.09405 0.0
C1393 C 0.40992 0.48153 0.06662 0.0
C1394 C 0.41603 0.49461 0.0441 0.0
C1395 C 0.39698 0.45635 0.108 0.0
C1396 C 0.38814 0.46488 0.10123 0.0
C1397 C 0.39471 0.47736 0.08068 0.0
C1398 C 0.37245 0.46148 0.11609 0.0
C1399 C 0.39077 0.44322 0.13047 0.0
C1400 C 0.357 0.44534 0.11598 0.0
C1401 C 0.34274 0.44179 0.13184 0.0
C1402 C 0.34368 0.45433 0.14806 0.0
C1403 C 0.35897 0.47071 0.14723 0.0
C1404 C 0.37319 0.47425 0.13134 0.0
H1405 H 0.40086 0.44033 0.13638 0.0
H1406 H 0.38704 0.44773 0.14771 0.0
H1407 H 0.37908 0.43112 0.12453 0.0
H1408 H 0.35609 0.43541 0.10399 0.0
H1409 H 0.33107 0.42914 0.13167 0.0
H1410 H 0.01512 0.44222 0.56145 0.0
H1411 H 0.99377 0.41414 0.5821 0.0
H1412 H 0.96644 0.43628 0.61581 0.0
H1413 H 0.98791 0.46434 0.59534 0.0
H1414 H 0.97322 0.41697 0.65163 0.0
H1415 H 0.94285 0.38082 0.56253 0.0
H1416 H 0.9662 0.39155 0.56264 0.0
H1417 H 0.95601 0.40396 0.56208 0.0
C1418 C 0.00443 0.44093 0.57312 0.0
C1419 C 0.00296 0.4552 0.57689 0.0
C1420 C 0.99223 0.42496 0.58475 0.0
C1421 C 0.97839 0.42309 0.60017 0.0
C1422 C 0.97696 0.43743 0.60386 0.0
H1423 H 0.88717 0.33003 0.66413 0.0
H1424 H 0.9074 0.35644 0.63883 0.0
C1425 C 0.98915 0.45338 0.59222 0.0
C1426 C 0.96587 0.4064 0.61355 0.0
H1427 H 0.93523 0.36457 0.60288 0.0
C1428 C 0.96489 0.40552 0.64098 0.0
C1429 C 0.95489 0.39155 0.59957 0.0
C1430 C 0.95487 0.39197 0.57007 0.0
C1431 C 0.95339 0.3901 0.65487 0.0
C1432 C 0.94278 0.37512 0.64094 0.0
C1433 C 0.94353 0.37605 0.61349 0.0
C1434 C 0.93063 0.35846 0.65468 0.0
C1435 C 0.9525 0.39005 0.68434 0.0
C1436 C 0.93702 0.35063 0.67139 0.0
C1437 C 0.92553 0.33563 0.68596 0.0
C1438 C 0.90739 0.32811 0.68398 0.0
C1439 C 0.90105 0.33563 0.66637 0.0
C1440 C 0.91258 0.35064 0.6518 0.0
H1441 H 0.95823 0.40321 0.69153 0.0
H1442 H 0.93882 0.38207 0.69175 0.0
H1443 H 0.95995 0.38453 0.69274 0.0
H1444 H 0.95092 0.35634 0.67359 0.0
H1445 H 0.93087 0.33031 0.69949 0.0
H1446 H 0.54055 0.96144 0.09751 0.0
H1447 H 0.54876 0.94293 0.12047 0.0
H1448 H 0.56939 0.93696 0.04829 0.0
H1449 H 0.56166 0.95588 0.02525 0.0
H1450 H 0.53832 0.90865 0.11086 0.0
H1451 H 0.61003 0.95307 0.09934 0.0
H1452 H 0.59481 0.95998 0.09385 0.0
H1453 H 0.59796 0.94808 0.06964 0.0
C1454 C 0.54701 0.95636 0.08655 0.0
C1455 C 0.55058 0.96026 0.05958 0.0
C1456 C 0.55156 0.94567 0.09966 0.0
C1457 C 0.55984 0.93874 0.08613 0.0
C1458 C 0.56322 0.94238 0.05915 0.0
H1459 H 0.57476 0.8584 0.15691 0.0
H1460 H 0.56669 0.8743 0.12648 0.0
C1461 C 0.55865 0.95306 0.04599 0.0
C1462 C 0.56493 0.92773 0.10044 0.0
H1463 H 0.6002 0.92614 0.1205 0.0
C1464 C 0.55183 0.91238 0.11284 0.0
C1465 C 0.58259 0.93275 0.10312 0.0
C1466 C 0.59721 0.94943 0.09099 0.0
C1467 C 0.55593 0.902 0.12816 0.0
C1468 C 0.57359 0.90703 0.13085 0.0
C1469 C 0.58667 0.92226 0.11817 0.0
C1470 C 0.57885 0.8974 0.14845 0.0
C1471 C 0.5414 0.88607 0.14213 0.0
C1472 C 0.58864 0.90524 0.17052 0.0
C1473 C 0.59323 0.89623 0.18787 0.0
C1474 C 0.58823 0.87919 0.18344 0.0
C1475 C 0.57864 0.87143 0.16104 0.0
C1476 C 0.57403 0.88049 0.14365 0.0
H1477 H 0.52891 0.88577 0.14201 0.0
H1478 H 0.53937 0.87459 0.13226 0.0
H1479 H 0.54481 0.88518 0.16274 0.0
H1480 H 0.59243 0.91826 0.17462 0.0
H1481 H 0.60033 0.90252 0.20514 0.0
H1482 H 0.58035 0.51349 0.60566 0.0
H1483 H 0.60678 0.5206 0.62933 0.0
H1484 H 0.63813 0.54832 0.56072 0.0
H1485 H 0.61181 0.54157 0.53705 0.0
H1486 H 0.6327 0.51265 0.61459 0.0
H1487 H 0.66003 0.58276 0.62018 0.0
H1488 H 0.63745 0.56782 0.61316 0.0
H1489 H 0.65398 0.57415 0.58823 0.0
C1490 C 0.59288 0.52128 0.59571 0.0
C1491 C 0.59399 0.52703 0.56951 0.0
C1492 C 0.60794 0.52522 0.60919 0.0
C1493 C 0.62438 0.53512 0.59683 0.0
C1494 C 0.62556 0.54085 0.57069 0.0
H1495 H 0.72855 0.57449 0.65902 0.0
H1496 H 0.70431 0.56698 0.62958 0.0
C1497 C 0.61051 0.53685 0.55714 0.0
C1498 C 0.64026 0.53917 0.61125 0.0
H1499 H 0.67712 0.57214 0.63689 0.0
C1500 C 0.64244 0.52565 0.61945 0.0
C1501 C 0.65298 0.55616 0.61732 0.0
C1502 C 0.65103 0.57109 0.60948 0.0
C1503 C 0.65702 0.52866 0.6337 0.0
C1504 C 0.66953 0.5456 0.64039 0.0
C1505 C 0.66752 0.55917 0.63171 0.0
C1506 C 0.6843 0.54944 0.65757 0.0
C1507 C 0.65895 0.51368 0.64125 0.0
C1508 C 0.68107 0.54215 0.68308 0.0
C1509 C 0.69483 0.54641 0.69988 0.0
C1510 C 0.71214 0.55817 0.69162 0.0
C1511 C 0.71536 0.56544 0.666 0.0
C1512 C 0.70155 0.56112 0.64915 0.0
H1513 H 0.6516 0.50288 0.62805 0.0
H1514 H 0.67285 0.51746 0.6408 0.0
H1515 H 0.65365 0.50895 0.66142 0.0
H1516 H 0.66784 0.53349 0.69025 0.0
H1517 H 0.69184 0.5409 0.71967 0.0
H1518 H 0.08299 0.56695 0.08257 0.0
H1519 H 0.10308 0.59313 0.10485 0.0
H1520 H 0.05957 0.59316 0.13988 0.0
H1521 H 0.03933 0.56708 0.11738 0.0
H1522 H 0.10562 0.62554 0.10176 0.0
H1523 H 0.08989 0.59603 0.20256 0.0
H1524 H 0.08398 0.58344 0.17378 0.0
H1525 H 0.07147 0.59245 0.1839 0.0
C1526 C 0.07767 0.57259 0.09483 0.0
C1527 C 0.05953 0.56489 0.09821 0.0
C1528 C 0.08917 0.58751 0.10763 0.0
C1529 C 0.0828 0.59496 0.1242 0.0
C1530 C 0.06474 0.58742 0.12751 0.0
H1531 H 0.13963 0.69661 0.18799 0.0
H1532 H 0.12015 0.67142 0.16305 0.0
C1533 C 0.0532 0.5725 0.11468 0.0
C1534 C 0.09511 0.61068 0.13789 0.0
H1535 H 0.1087 0.6262 0.19857 0.0
C1536 C 0.10632 0.62571 0.12292 0.0
C1537 C 0.09609 0.61077 0.16547 0.0
C1538 C 0.08484 0.5948 0.18244 0.0
C1539 C 0.11838 0.64094 0.13486 0.0
C1540 C 0.11911 0.64111 0.16246 0.0
C1541 C 0.10802 0.62603 0.1774 0.0
C1542 C 0.13146 0.65674 0.17632 0.0
C1543 C 0.13046 0.65662 0.11787 0.0
C1544 C 0.14418 0.65677 0.19215 0.0
C1545 C 0.15524 0.67107 0.2065 0.0
C1546 C 0.15371 0.6856 0.20546 0.0
C1547 C 0.14108 0.6856 0.1893 0.0
C1548 C 0.13005 0.67128 0.17487 0.0
H1549 H 0.131 0.65334 0.09733 0.0
H1550 H 0.12572 0.66562 0.11778 0.0
H1551 H 0.14385 0.66335 0.12564 0.0
H1552 H 0.1454 0.64562 0.19365 0.0
H1553 H 0.16461 0.67052 0.21909 0.0
loop_
_geom_bond_atom_site_label_1
_geom_bond_atom_site_label_2
_geom_bond_distance
_geom_bond_site_symmetry_2
_ccdc_geom_bond_type
C0 C1 1.443 . S
C0 N4 1.376 . S
C0 C38 1.389 . S
C1 C0 1.443 . S
C1 C2 1.340 . S
C1 H41 0.951 . S
C2 C1 1.340 . S
C2 C3 1.439 . S
C2 H42 0.950 . S
C3 C2 1.439 . S
C3 N4 1.374 . S
C3 C37 1.395 . S
N4 C0 1.376 . S
N4 C3 1.374 . S
N4 Co5 2.008 1_655 S
Co5 N4 2.008 1_455 S
Co5 N6 1.974 . S
Co5 N11 2.008 . S
Co5 N16 1.995 . S
Co5 N21 2.282 . S
Co5 N27 2.282 1_455 S
N6 Co5 1.974 . S
N6 C7 1.331 1_455 S
N6 C10 1.459 . S
C7 N6 1.331 1_655 S
C7 C8 1.446 . S
C7 C37 1.391 . S
C8 C7 1.446 . S
C8 C9 1.339 1_655 S
C8 H43 0.949 . S
C9 C8 1.339 1_455 S
C9 C10 1.439 . S
C9 H44 0.950 . S
C10 N6 1.459 . S
C10 C9 1.439 . S
C10 C39 1.392 . S
N11 Co5 2.008 . S
N11 C12 1.376 . S
N11 C15 1.374 . S
C12 N11 1.376 . S
C12 C13 1.443 . S
C12 C39 1.389 . S
C13 C12 1.443 . S
C13 C14 1.340 . S
C13 H45 0.951 . S
C14 C13 1.340 . S
C14 C15 1.439 . S
C14 H46 0.950 . S
C15 N11 1.374 . S
C15 C14 1.439 . S
C15 C40 1.395 1_554 S
N16 Co5 1.995 . S
N16 C17 1.376 1_554 S
N16 C20 1.383 1_455 S
C17 N16 1.376 1_556 S
C17 C18 1.446 . S
C17 C40 1.391 . S
C18 C17 1.446 . S
C18 C19 1.339 1_455 S
C18 H47 0.949 . S
C19 C18 1.339 1_655 S
C19 C20 1.439 1_556 S
C19 H48 0.950 . S
C20 N16 1.383 1_655 S
C20 C19 1.439 1_554 S
C20 C38 1.392 . S
N21 Co5 2.282 . S
N21 C24 1.332 . S
N21 C26 1.332 . S
C22 C23 1.386 . S
C22 C25 1.388 . S
C23 C22 1.386 . S
C23 C24 1.382 . S
C23 H49 0.950 . S
C24 N21 1.332 . S
C24 C23 1.382 . S
C24 H35 0.952 . S
C25 C22 1.388 . S
C25 C26 1.382 . S
C25 H50 0.950 . S
C26 N21 1.332 . S
C26 C25 1.382 . S
C26 H36 0.948 . S
N27 Co5 2.282 1_655 S
N27 C31 1.332 . S
N27 C32 1.332 . S
C28 C29 1.372 1_556 S
C28 C32 1.382 1_556 S
C28 H51 0.950 . S
C29 C28 1.372 1_554 S
C29 C30 1.421 . S
C30 C29 1.421 . S
C30 C31 1.382 . S
C30 H52 0.950 . S
C31 N27 1.332 . S
C31 C30 1.382 . S
C31 H33 0.952 . S
C32 N27 1.332 . S
C32 C28 1.382 1_554 S
C32 H34 0.948 1_554 S
H33 C31 0.952 . S
H34 C32 0.948 1_556 S
H35 C24 0.952 . S
H36 C26 0.948 . S
C37 C3 1.395 . S
C37 C7 1.391 . S
C38 C0 1.389 . S
C38 C20 1.392 . S
C39 C10 1.392 . S
C39 C12 1.389 . S
C40 C15 1.395 1_556 S
C40 C17 1.391 . S
H41 C1 0.951 . S
H42 C2 0.950 . S
H43 C8 0.949 . S
H44 C9 0.950 . S
H45 C13 0.951 . S
H46 C14 0.950 . S
H47 C18 0.949 . S
H48 C19 0.950 . S
H49 C23 0.950 . S
H50 C25 0.950 . S
H51 C28 0.950 . S
H52 C30 0.950 . S
C53 C54 1.443 . S
C53 N57 1.376 . S
C53 C91 1.389 . S
C54 C53 1.443 . S
C54 C55 1.340 . S
C54 H94 0.951 . S
C55 C54 1.340 . S
C55 C56 1.439 1_545 S
C55 H95 0.950 1_545 S
C56 C55 1.439 1_565 S
C56 N57 1.374 1_565 S
C56 C90 1.395 . S
N57 C53 1.376 . S
N57 C56 1.374 1_545 S
N57 Co58 2.008 . S
Co58 N57 2.008 . S
Co58 N59 1.995 1_545 S
Co58 N64 2.008 . S
Co58 N69 1.995 . S
Co58 N74 2.282 1_545 S
Co58 N80 2.282 . S
N59 Co58 1.995 1_565 S
N59 C60 1.376 . S
N59 C63 1.383 . S
C60 N59 1.376 . S
C60 C61 1.446 . S
C60 C90 1.391 . S
C61 C60 1.446 . S
C61 C62 1.339 . S
C61 H96 0.949 . S
C62 C61 1.339 . S
C62 C63 1.439 . S
C62 H97 0.950 . S
C63 N59 1.383 . S
C63 C62 1.439 . S
C63 C92 1.392 . S
N64 Co58 2.008 . S
N64 C65 1.376 1_545 S
N64 C68 1.374 . S
C65 N64 1.376 1_565 S
C65 C66 1.443 . S
C65 C92 1.389 . S
C66 C65 1.443 . S
C66 C67 1.340 1_565 S
C66 H98 0.951 . S
C67 C66 1.340 1_545 S
C67 C68 1.439 . S
C67 H99 0.950 . S
C68 N64 1.374 . S
C68 C67 1.439 . S
C68 C93 1.395 . S
N69 Co58 1.995 . S
N69 C70 1.376 . S
N69 C73 1.383 . S
C70 N69 1.376 . S
C70 C71 1.446 . S
C70 C93 1.391 . S
C71 C70 1.446 . S
C71 C72 1.339 . S
C71 H100 0.949 . S
C72 C71 1.339 . S
C72 C73 1.439 . S
C72 H101 0.950 . S
C73 N69 1.383 . S
C73 C72 1.439 . S
C73 C91 1.392 . S
N74 Co58 2.282 1_565 S
N74 C77 1.332 . S
N74 C79 1.332 . S
C75 C76 1.386 . S
C75 C78 1.388 . S
C76 C75 1.386 . S
C76 C77 1.382 . S
C76 H102 0.950 . S
C77 N74 1.332 . S
C77 C76 1.382 . S
C77 H88 0.952 1_565 S
C78 C75 1.388 . S
C78 C79 1.382 . S
C78 H103 0.950 . S
C79 N74 1.332 . S
C79 C78 1.382 . S
C79 H89 0.948 . S
N80 Co58 2.282 . S
N80 C84 1.332 . S
N80 C85 1.332 . S
C81 C82 1.388 . S
C81 C85 1.382 . S
C81 H104 0.950 . S
C82 C81 1.388 . S
C82 C83 1.386 . S
C83 C82 1.386 . S
C83 C84 1.382 . S
C83 H105 0.950 . S
C84 N80 1.332 . S
C84 C83 1.382 . S
C84 H86 0.952 . S
C85 N80 1.332 . S
C85 C81 1.382 . S
C85 H87 0.948 . S
H86 C84 0.952 . S
H87 C85 0.948 . S
H88 C77 0.952 1_545 S
H89 C79 0.948 . S
C90 C56 1.395 . S
C90 C60 1.391 . S
C91 C53 1.389 . S
C91 C73 1.392 . S
C92 C63 1.392 . S
C92 C65 1.389 . S
C93 C68 1.395 . S
C93 C70 1.391 . S
H94 C54 0.951 . S
H95 C55 0.950 1_565 S
H96 C61 0.949 . S
H97 C62 0.950 . S
H98 C66 0.951 . S
H99 C67 0.950 . S
H100 C71 0.949 . S
H101 C72 0.950 . S
H102 C76 0.950 . S
H103 C78 0.950 . S
H104 C81 0.950 . S
H105 C83 0.950 . S
C106 C107 1.443 . S
C106 N110 1.376 . S
C106 C144 1.389 . S
C107 C106 1.443 . S
C107 C108 1.340 . S
C107 H147 0.951 . S
C108 C107 1.340 . S
C108 C109 1.439 . S
C108 H148 0.950 . S
C109 C108 1.439 . S
C109 N110 1.374 . S
C109 C143 1.395 . S
N110 C106 1.376 . S
N110 C109 1.374 . S
N110 Co111 2.008 1_556 S
Co111 N110 2.008 1_554 S
Co111 N112 1.995 1_554 S
Co111 N117 2.008 . S
Co111 N122 1.995 . S
Co111 N127 2.282 . S
Co111 N133 2.282 1_554 S
N112 Co111 1.995 1_556 S
N112 C113 1.376 . S
N112 C116 1.383 1_556 S
C113 N112 1.376 . S
C113 C114 1.446 . S
C113 C143 1.391 . S
C114 C113 1.446 . S
C114 C115 1.339 . S
C114 H149 0.949 . S
C115 C114 1.339 . S
C115 C116 1.439 1_556 S
C115 H150 0.950 . S
C116 N112 1.383 1_554 S
C116 C115 1.439 1_554 S
C116 C145 1.392 . S
N117 Co111 2.008 . S
N117 C118 1.376 . S
N117 C121 1.374 . S
C118 N117 1.376 . S
C118 C119 1.443 . S
C118 C145 1.389 . S
C119 C118 1.443 . S
C119 C120 1.340 . S
C119 H151 0.951 . S
C120 C119 1.340 . S
C120 C121 1.439 . S
C120 H152 0.950 . S
C121 N117 1.374 . S
C121 C120 1.439 . S
C121 C146 1.395 . S
N122 Co111 1.995 . S
N122 C123 1.376 . S
N122 C126 1.382 . S
C123 N122 1.376 . S
C123 C124 1.446 . S
C123 C146 1.391 . S
C124 C123 1.446 . S
C124 C125 1.339 . S
C124 H153 0.949 . S
C125 C124 1.339 . S
C125 C126 1.438 . S
C125 H154 0.950 . S
C126 N122 1.382 . S
C126 C125 1.438 . S
C126 C144 1.394 1_554 S
N127 Co111 2.282 . S
N127 C130 1.332 . S
N127 C132 1.332 . S
C128 C129 1.386 . S
C128 C131 1.388 . S
C129 C128 1.386 . S
C129 C130 1.382 . S
C129 H155 0.950 . S
C130 N127 1.332 . S
C130 C129 1.382 . S
C130 H141 0.952 . S
C131 C128 1.388 . S
C131 C132 1.382 . S
C131 H156 0.950 . S
C132 N127 1.332 . S
C132 C131 1.382 . S
C132 H142 0.948 1_554 S
N133 Co111 2.282 1_556 S
N133 C137 1.332 . S
N133 C138 1.332 . S
C134 C135 1.388 . S
C134 C138 1.382 . S
C134 H157 0.950 . S
C135 C134 1.388 . S
C135 C136 1.386 . S
C136 C135 1.386 . S
C136 C137 1.382 . S
C136 H158 0.950 . S
C137 N133 1.332 . S
C137 C136 1.382 . S
C137 H139 0.952 . S
C138 N133 1.332 . S
C138 C134 1.382 . S
C138 H140 0.948 1_556 S
H139 C137 0.952 . S
H140 C138 0.948 1_554 S
H141 C130 0.952 . S
H142 C132 0.948 1_556 S
C143 C109 1.395 . S
C143 C113 1.391 . S
C144 C106 1.389 . S
C144 C126 1.394 1_556 S
C145 C116 1.392 . S
C145 C118 1.389 . S
C146 C121 1.395 . S
C146 C123 1.391 . S
H147 C107 0.951 . S
H148 C108 0.950 . S
H149 C114 0.949 . S
H150 C115 0.950 . S
H151 C119 0.951 . S
H152 C120 0.950 . S
H153 C124 0.949 . S
H154 C125 0.950 . S
H155 C129 0.950 . S
H156 C131 0.950 . S
H157 C134 0.950 . S
H158 C136 0.950 . S
C159 C160 1.470 . S
C159 N163 1.376 . S
C159 C197 1.389 . S
C160 C159 1.470 . S
C160 C161 1.352 . S
C160 H200 0.938 1_455 S
C161 C160 1.352 . S
C161 C162 1.485 . S
C161 H201 0.897 1_455 S
C162 C161 1.485 . S
C162 N163 1.374 . S
C162 C196 1.395 . S
N163 C159 1.376 . S
N163 C162 1.374 . S
N163 Co164 2.008 . S
Co164 N163 2.008 . S
Co164 N165 1.995 . S
Co164 N170 2.008 . S
Co164 N175 1.995 . S
Co164 N180 2.282 . S
Co164 N186 2.282 . S
N165 Co164 1.995 . S
N165 C166 1.376 . S
N165 C169 1.383 . S
C166 N165 1.376 . S
C166 C167 1.446 . S
C166 C196 1.391 . S
C167 C166 1.446 . S
C167 C168 1.339 . S
C167 H202 0.949 . S
C168 C167 1.339 . S
C168 C169 1.439 . S
C168 H203 0.950 . S
C169 N165 1.383 . S
C169 C168 1.439 . S
C169 C198 1.392 . S
N170 Co164 2.008 . S
N170 C171 1.376 . S
N170 C174 1.374 . S
C171 N170 1.376 . S
C171 C172 1.443 . S
C171 C198 1.389 . S
C172 C171 1.443 . S
C172 C173 1.340 . S
C172 H204 0.951 . S
C173 C172 1.340 . S
C173 C174 1.439 . S
C173 H205 0.950 . S
C174 N170 1.374 . S
C174 C173 1.439 . S
C174 C199 1.395 . S
N175 Co164 1.995 . S
N175 C176 1.376 . S
N175 C179 1.383 . S
C176 N175 1.376 . S
C176 C177 1.446 . S
C176 C199 1.391 . S
C177 C176 1.446 . S
C177 C178 1.339 . S
C177 H206 0.949 . S
C178 C177 1.339 . S
C178 C179 1.439 . S
C178 H207 0.950 . S
C179 N175 1.383 . S
C179 C178 1.439 . S
C179 C197 1.392 . S
N180 Co164 2.282 . S
N180 C183 1.332 . S
N180 C185 1.332 . S
C181 C182 1.386 . S
C181 C184 1.388 . S
C182 C181 1.386 . S
C182 C183 1.382 . S
C182 H208 0.950 . S
C183 N180 1.332 . S
C183 C182 1.382 . S
C183 H194 0.952 . S
C184 C181 1.388 . S
C184 C185 1.382 . S
C184 H209 0.950 . S
C185 N180 1.332 . S
C185 C184 1.382 . S
C185 H195 0.948 . S
N186 Co164 2.282 . S
N186 C190 1.332 . S
N186 C191 1.332 . S
C187 C188 1.388 . S
C187 C191 1.382 . S
C187 H210 0.950 . S
C188 C187 1.388 . S
C188 C189 1.386 . S
C189 C188 1.386 . S
C189 C190 1.382 . S
C189 H211 0.950 . S
C190 N186 1.332 . S
C190 C189 1.382 . S
C190 H192 0.952 . S
C191 N186 1.332 . S
C191 C187 1.382 . S
C191 H193 0.948 . S
H192 C190 0.952 . S
H193 C191 0.948 . S
H194 C183 0.952 . S
H195 C185 0.948 . S
C196 C162 1.395 . S
C196 C166 1.391 . S
C197 C159 1.389 . S
C197 C179 1.392 . S
C198 C169 1.392 . S
C198 C171 1.389 . S
C199 C174 1.395 . S
C199 C176 1.391 . S
H200 C160 0.938 1_655 S
H201 C161 0.897 1_655 S
H202 C167 0.949 . S
H203 C168 0.950 . S
H204 C172 0.951 . S
H205 C173 0.950 . S
H206 C177 0.949 . S
H207 C178 0.950 . S
H208 C182 0.950 . S
H209 C184 0.950 . S
H210 C187 0.950 . S
H211 C189 0.950 . S
C212 C213 1.443 . S
C212 N216 1.376 1_565 S
C212 C250 1.389 . S
C213 C212 1.443 . S
C213 C214 1.340 1_565 S
C213 H253 0.951 . S
C214 C213 1.340 1_545 S
C214 C215 1.439 . S
C214 H254 0.950 . S
C215 C214 1.439 . S
C215 N216 1.374 . S
C215 C249 1.395 . S
N216 C212 1.376 1_545 S
N216 C215 1.374 . S
N216 Co217 2.008 . S
Co217 N216 2.008 . S
Co217 N218 1.995 . S
Co217 N223 2.008 1_554 S
Co217 N228 1.995 1_544 S
Co217 N233 2.282 1_554 S
Co217 N239 2.282 1_545 S
N218 Co217 1.995 . S
N218 C219 1.376 . S
N218 C222 1.383 1_554 S
C219 N218 1.376 . S
C219 C220 1.446 . S
C219 C249 1.391 . S
C220 C219 1.446 . S
C220 C221 1.339 . S
C220 H255 0.949 . S
C221 C220 1.339 . S
C221 C222 1.439 1_554 S
C221 H256 0.953 . S
C222 N218 1.383 1_556 S
C222 C221 1.439 1_556 S
C222 C251 1.392 . S
N223 Co217 2.008 1_556 S
N223 C224 1.376 . S
N223 C227 1.340 1_545 S
C224 N223 1.376 . S
C224 C225 1.443 . S
C224 C251 1.389 . S
C225 C224 1.443 . S
C225 C226 1.340 . S
C225 H257 0.951 . S
C226 C225 1.340 . S
C226 C227 1.436 1_545 S
C226 H258 0.967 . S
C227 N223 1.340 1_565 S
C227 C226 1.436 1_565 S
C227 C252 1.429 . S
N228 Co217 1.995 1_566 S
N228 C229 1.376 . S
N228 C232 1.383 1_556 S
C229 N228 1.376 . S
C229 C230 1.446 . S
C229 C252 1.391 . S
C230 C229 1.446 . S
C230 C231 1.339 . S
C230 H259 0.949 . S
C231 C230 1.339 . S
C231 C232 1.439 1_556 S
C231 H260 0.950 1_556 S
C232 N228 1.383 1_554 S
C232 C231 1.439 1_554 S
C232 C250 1.392 . S
N233 Co217 2.282 1_556 S
N233 C236 1.332 . S
N233 C238 1.332 . S
C234 C235 1.386 . S
C234 C237 1.388 . S
C235 C234 1.386 . S
C235 C236 1.382 . S
C235 H261 0.950 . S
C236 N233 1.332 . S
C236 C235 1.382 . S
C236 H247 0.952 . S
C237 C234 1.388 . S
C237 C238 1.382 . S
C237 H262 0.950 . S
C238 N233 1.332 . S
C238 C237 1.382 . S
C238 H248 0.948 1_556 S
N239 Co217 2.282 1_565 S
N239 C243 1.332 . S
N239 C244 1.332 . S
C240 C241 1.388 . S
C240 C244 1.382 . S
C240 H263 0.950 . S
C241 C240 1.388 . S
C241 C242 1.386 . S
C242 C241 1.386 . S
C242 C243 1.382 . S
C242 H264 0.950 . S
C243 N239 1.332 . S
C243 C242 1.382 . S
C243 H245 0.952 1_565 S
C244 N239 1.332 . S
C244 C240 1.382 . S
C244 H246 0.956 . S
H245 C243 0.952 1_545 S
H246 C244 0.956 . S
H247 C236 0.952 . S
H248 C238 0.948 1_554 S
C249 C215 1.395 . S
C249 C219 1.391 . S
C250 C212 1.389 . S
C250 C232 1.392 . S
C251 C222 1.392 . S
C251 C224 1.389 . S
C252 C227 1.429 . S
C252 C229 1.391 . S
H253 C213 0.951 . S
H254 C214 0.950 . S
H255 C220 0.949 . S
H256 C221 0.953 . S
H257 C225 0.951 . S
H258 C226 0.967 . S
H259 C230 0.949 . S
H260 C231 0.950 1_554 S
H261 C235 0.950 . S
H262 C237 0.950 . S
H263 C240 0.950 . S
H264 C242 0.950 . S
C265 C266 1.443 . S
C265 N269 1.376 . S
C265 C303 1.389 . S
C266 C265 1.443 . S
C266 C267 1.340 . S
C266 H306 0.951 . S
C267 C266 1.340 . S
C267 C268 1.439 . S
C267 H307 0.950 . S
C268 C267 1.439 . S
C268 N269 1.374 . S
C268 C302 1.395 . S
N269 C265 1.376 . S
N269 C268 1.374 . S
N269 Co270 2.008 . S
Co270 N269 2.008 . S
Co270 N271 1.995 . S
Co270 N276 2.008 . S
Co270 N281 1.995 . S
Co270 N286 2.282 . S
Co270 N292 2.282 . S
N271 Co270 1.995 . S
N271 C272 1.376 . S
N271 C275 1.383 . S
C272 N271 1.376 . S
C272 C273 1.446 . S
C272 C302 1.391 . S
C273 C272 1.446 . S
C273 C274 1.339 . S
C273 H308 0.949 . S
C274 C273 1.339 . S
C274 C275 1.439 . S
C274 H309 0.950 . S
C275 N271 1.383 . S
C275 C274 1.439 . S
C275 C304 1.392 . S
N276 Co270 2.008 . S
N276 C277 1.376 . S
N276 C280 1.374 . S
C277 N276 1.376 . S
C277 C278 1.443 . S
C277 C304 1.389 . S
C278 C277 1.443 . S
C278 C279 1.340 . S
C278 H310 0.951 . S
C279 C278 1.340 . S
C279 C280 1.439 . S
C279 H311 0.950 . S
C280 N276 1.374 . S
C280 C279 1.439 . S
C280 C305 1.395 . S
N281 Co270 1.995 . S
N281 C282 1.376 . S
N281 C285 1.383 . S
C282 N281 1.376 . S
C282 C283 1.446 . S
C282 C305 1.391 . S
C283 C282 1.446 . S
C283 C284 1.339 . S
C283 H312 0.949 . S
C284 C283 1.339 . S
C284 C285 1.439 . S
C284 H313 0.950 . S
C285 N281 1.383 . S
C285 C284 1.439 . S
C285 C303 1.392 . S
N286 Co270 2.282 . S
N286 C289 1.332 . S
N286 C291 1.332 . S
C287 C288 1.386 . S
C287 C290 1.388 . S
C288 C287 1.386 . S
C288 C289 1.382 . S
C288 H314 0.950 . S
C289 N286 1.332 . S
C289 C288 1.382 . S
C289 H300 0.952 . S
C290 C287 1.388 . S
C290 C291 1.382 . S
C290 H315 0.950 . S
C291 N286 1.332 . S
C291 C290 1.382 . S
C291 H301 0.948 . S
N292 Co270 2.282 . S
N292 C296 1.332 . S
N292 C297 1.332 . S
C293 C294 1.388 . S
C293 C297 1.382 . S
C293 H316 0.950 . S
C294 C293 1.388 . S
C294 C295 1.386 . S
C295 C294 1.386 . S
C295 C296 1.382 . S
C295 H317 0.950 . S
C296 N292 1.332 . S
C296 C295 1.382 . S
C296 H298 0.952 . S
C297 N292 1.332 . S
C297 C293 1.382 . S
C297 H299 0.948 . S
H298 C296 0.952 . S
H299 C297 0.948 . S
H300 C289 0.952 . S
H301 C291 0.948 . S
C302 C268 1.395 . S
C302 C272 1.391 . S
C303 C265 1.389 . S
C303 C285 1.392 . S
C304 C275 1.392 . S
C304 C277 1.389 . S
C305 C280 1.395 . S
C305 C282 1.391 . S
H306 C266 0.951 . S
H307 C267 0.950 . S
H308 C273 0.949 . S
H309 C274 0.950 . S
H310 C278 0.951 . S
H311 C279 0.950 . S
H312 C283 0.949 . S
H313 C284 0.950 . S
H314 C288 0.950 . S
H315 C290 0.950 . S
H316 C293 0.950 . S
H317 C295 0.950 . S
H318 C345 0.929 . S
N319 C344 1.433 . S
N319 C350 1.435 . S
N319 C356 1.423 . S
H320 C346 0.930 . S
H321 C349 0.931 . S
H322 C348 0.929 . S
H323 C351 0.930 . S
H324 C352 0.932 . S
H325 C355 0.929 . S
H326 C354 0.931 . S
H327 C357 0.929 . S
H328 C361 0.932 . S
H329 C358 0.931 . S
H330 C360 0.929 . S
H331 C363 0.929 . S
H332 C364 0.930 . S
H333 C366 0.929 . S
H334 C367 0.931 . S
H335 C369 0.930 . S
H336 C370 0.932 . S
H337 C372 0.931 . S
H338 C373 0.929 . S
H339 C375 0.929 . S
H340 C376 0.931 . S
H341 C378 0.929 . S
N342 C362 1.433 . S
N342 C368 1.435 . S
N342 C374 1.423 . S
H343 C379 0.932 . S
C344 N319 1.433 . S
C344 C345 1.363 . S
C344 C349 1.370 . S
C345 H318 0.929 . S
C345 C344 1.363 . S
C345 C346 1.385 . S
C346 H320 0.930 . S
C346 C345 1.385 . S
C346 C347 1.357 . S
C347 C346 1.357 . S
C347 C348 1.406 . S
C348 H322 0.929 . S
C348 C347 1.406 . S
C348 C349 1.391 . S
C349 H321 0.931 . S
C349 C344 1.370 . S
C349 C348 1.391 . S
C350 N319 1.435 . S
C350 C351 1.358 . S
C350 C355 1.371 . S
C351 H323 0.930 . S
C351 C350 1.358 . S
C351 C352 1.405 . S
C352 H324 0.932 . S
C352 C351 1.405 . S
C352 C353 1.383 . S
C353 C352 1.383 . S
C353 C354 1.393 . S
C354 H326 0.931 . S
C354 C353 1.393 . S
C354 C355 1.382 . S
C355 H325 0.929 . S
C355 C350 1.371 . S
C355 C354 1.382 . S
C356 N319 1.423 . S
C356 C357 1.362 . S
C356 C361 1.388 . S
C357 H327 0.929 . S
C357 C356 1.362 . S
C357 C358 1.376 . S
C358 H329 0.931 . S
C358 C357 1.376 . S
C358 C359 1.396 . S
C359 C358 1.396 . S
C359 C360 1.348 . S
C359 C377 1.472 . S
C360 H330 0.929 . S
C360 C359 1.348 . S
C360 C361 1.443 . S
C361 H328 0.932 . S
C361 C356 1.388 . S
C361 C360 1.443 . S
C362 N342 1.433 . S
C362 C363 1.363 . S
C362 C367 1.370 . S
C363 H331 0.929 . S
C363 C362 1.363 . S
C363 C364 1.385 . S
C364 H332 0.930 . S
C364 C363 1.385 . S
C364 C365 1.357 . S
C365 C364 1.357 . S
C365 C366 1.406 . S
C366 H333 0.929 . S
C366 C365 1.406 . S
C366 C367 1.391 . S
C367 H334 0.931 . S
C367 C362 1.370 . S
C367 C366 1.391 . S
C368 N342 1.435 . S
C368 C369 1.358 . S
C368 C373 1.371 . S
C369 H335 0.930 . S
C369 C368 1.358 . S
C369 C370 1.405 . S
C370 H336 0.932 . S
C370 C369 1.405 . S
C370 C371 1.383 . S
C371 C370 1.383 . S
C371 C372 1.393 . S
C372 H337 0.931 . S
C372 C371 1.393 . S
C372 C373 1.382 . S
C373 H338 0.929 . S
C373 C368 1.371 . S
C373 C372 1.382 . S
C374 N342 1.423 . S
C374 C375 1.362 . S
C374 C379 1.388 . S
C375 H339 0.929 . S
C375 C374 1.362 . S
C375 C376 1.376 . S
C376 H340 0.931 . S
C376 C375 1.376 . S
C376 C377 1.396 . S
C377 C359 1.472 . S
C377 C376 1.396 . S
C377 C378 1.348 . S
C378 H341 0.929 . S
C378 C377 1.348 . S
C378 C379 1.443 . S
C379 H343 0.932 . S
C379 C374 1.388 . S
C379 C378 1.443 . S
H380 C407 0.929 . S
N381 C406 1.433 . S
N381 C412 1.435 . S
N381 C418 1.423 . S
H382 C408 0.930 . S
H383 C411 0.931 . S
H384 C410 0.929 . S
H385 C413 0.930 . S
H386 C414 0.932 . S
H387 C417 0.929 . S
H388 C416 0.931 . S
H389 C419 0.929 . S
H390 C423 0.932 . S
H391 C420 0.931 . S
H392 C422 0.929 . S
H393 C425 0.929 . S
H394 C426 0.930 . S
H395 C428 0.929 . S
H396 C429 0.931 . S
H397 C431 0.930 . S
H398 C432 0.932 . S
H399 C434 0.931 . S
H400 C435 0.929 . S
H401 C437 0.929 . S
H402 C438 0.931 . S
H403 C440 0.929 . S
N404 C424 1.433 . S
N404 C430 1.435 . S
N404 C436 1.423 . S
H405 C441 0.932 . S
C406 N381 1.433 . S
C406 C407 1.363 . S
C406 C411 1.370 . S
C407 H380 0.929 . S
C407 C406 1.363 . S
C407 C408 1.385 . S
C408 H382 0.930 . S
C408 C407 1.385 . S
C408 C409 1.357 . S
C409 C408 1.357 . S
C409 C410 1.406 . S
C410 H384 0.929 . S
C410 C409 1.406 . S
C410 C411 1.391 . S
C411 H383 0.931 . S
C411 C406 1.370 . S
C411 C410 1.391 . S
C412 N381 1.435 . S
C412 C413 1.358 . S
C412 C417 1.371 . S
C413 H385 0.930 . S
C413 C412 1.358 . S
C413 C414 1.405 . S
C414 H386 0.932 . S
C414 C413 1.405 . S
C414 C415 1.383 . S
C415 C414 1.383 . S
C415 C416 1.393 . S
C416 H388 0.931 . S
C416 C415 1.393 . S
C416 C417 1.382 . S
C417 H387 0.929 . S
C417 C412 1.371 . S
C417 C416 1.382 . S
C418 N381 1.423 . S
C418 C419 1.362 . S
C418 C423 1.388 . S
C419 H389 0.929 . S
C419 C418 1.362 . S
C419 C420 1.376 . S
C420 H391 0.931 . S
C420 C419 1.376 . S
C420 C421 1.396 . S
C421 C420 1.396 . S
C421 C422 1.348 . S
C421 C439 1.472 . S
C422 H392 0.929 . S
C422 C421 1.348 . S
C422 C423 1.443 . S
C423 H390 0.932 . S
C423 C418 1.388 . S
C423 C422 1.443 . S
C424 N404 1.433 . S
C424 C425 1.363 . S
C424 C429 1.370 . S
C425 H393 0.929 . S
C425 C424 1.363 . S
C425 C426 1.385 . S
C426 H394 0.930 . S
C426 C425 1.385 . S
C426 C427 1.357 . S
C427 C426 1.357 . S
C427 C428 1.406 . S
C428 H395 0.929 . S
C428 C427 1.406 . S
C428 C429 1.391 . S
C429 H396 0.931 . S
C429 C424 1.370 . S
C429 C428 1.391 . S
C430 N404 1.435 . S
C430 C431 1.358 . S
C430 C435 1.371 . S
C431 H397 0.930 . S
C431 C430 1.358 . S
C431 C432 1.405 . S
C432 H398 0.932 . S
C432 C431 1.405 . S
C432 C433 1.383 . S
C433 C432 1.383 . S
C433 C434 1.393 . S
C434 H399 0.931 . S
C434 C433 1.393 . S
C434 C435 1.382 . S
C435 H400 0.929 . S
C435 C430 1.371 . S
C435 C434 1.382 . S
C436 N404 1.423 . S
C436 C437 1.362 . S
C436 C441 1.388 . S
C437 H401 0.929 . S
C437 C436 1.362 . S
C437 C438 1.376 . S
C438 H402 0.931 . S
C438 C437 1.376 . S
C438 C439 1.396 . S
C439 C421 1.472 . S
C439 C438 1.396 . S
C439 C440 1.348 . S
C440 H403 0.929 . S
C440 C439 1.348 . S
C440 C441 1.443 . S
C441 H405 0.932 . S
C441 C436 1.388 . S
C441 C440 1.443 . S
H442 C469 0.929 . S
N443 C468 1.433 . S
N443 C474 1.435 . S
N443 C480 1.423 . S
H444 C470 0.930 . S
H445 C473 0.931 . S
H446 C472 0.929 . S
H447 C475 0.930 . S
H448 C476 0.932 . S
H449 C479 0.929 . S
H450 C478 0.931 . S
H451 C481 0.929 . S
H452 C485 0.932 . S
H453 C482 0.931 . S
H454 C484 0.929 . S
H455 C487 0.929 . S
H456 C488 0.930 . S
H457 C490 0.929 . S
H458 C491 0.931 . S
H459 C493 0.930 . S
H460 C494 0.932 . S
H461 C496 0.931 . S
H462 C497 0.929 . S
H463 C499 0.929 . S
H464 C500 0.931 . S
H465 C502 0.929 . S
N466 C486 1.433 . S
N466 C492 1.435 . S
N466 C498 1.423 . S
H467 C503 0.932 . S
C468 N443 1.433 . S
C468 C469 1.363 . S
C468 C473 1.370 . S
C469 H442 0.929 . S
C469 C468 1.363 . S
C469 C470 1.385 . S
C470 H444 0.930 . S
C470 C469 1.385 . S
C470 C471 1.357 . S
C471 C470 1.357 . S
C471 C472 1.406 . S
C472 H446 0.929 . S
C472 C471 1.406 . S
C472 C473 1.391 . S
C473 H445 0.931 . S
C473 C468 1.370 . S
C473 C472 1.391 . S
C474 N443 1.435 . S
C474 C475 1.358 . S
C474 C479 1.371 . S
C475 H447 0.930 . S
C475 C474 1.358 . S
C475 C476 1.405 . S
C476 H448 0.932 . S
C476 C475 1.405 . S
C476 C477 1.383 . S
C477 C476 1.383 . S
C477 C478 1.393 . S
C478 H450 0.931 . S
C478 C477 1.393 . S
C478 C479 1.382 . S
C479 H449 0.929 . S
C479 C474 1.371 . S
C479 C478 1.382 . S
C480 N443 1.423 . S
C480 C481 1.362 . S
C480 C485 1.388 . S
C481 H451 0.929 . S
C481 C480 1.362 . S
C481 C482 1.376 . S
C482 H453 0.931 . S
C482 C481 1.376 . S
C482 C483 1.396 . S
C483 C482 1.396 . S
C483 C484 1.348 . S
C483 C501 1.472 . S
C484 H454 0.929 . S
C484 C483 1.348 . S
C484 C485 1.443 . S
C485 H452 0.932 . S
C485 C480 1.388 . S
C485 C484 1.443 . S
C486 N466 1.433 . S
C486 C487 1.363 . S
C486 C491 1.370 . S
C487 H455 0.929 . S
C487 C486 1.363 . S
C487 C488 1.385 . S
C488 H456 0.930 . S
C488 C487 1.385 . S
C488 C489 1.357 . S
C489 C488 1.357 . S
C489 C490 1.406 . S
C490 H457 0.929 . S
C490 C489 1.406 . S
C490 C491 1.391 . S
C491 H458 0.931 . S
C491 C486 1.370 . S
C491 C490 1.391 . S
C492 N466 1.435 . S
C492 C493 1.358 . S
C492 C497 1.371 . S
C493 H459 0.930 . S
C493 C492 1.358 . S
C493 C494 1.405 . S
C494 H460 0.932 . S
C494 C493 1.405 . S
C494 C495 1.383 . S
C495 C494 1.383 . S
C495 C496 1.393 . S
C496 H461 0.931 . S
C496 C495 1.393 . S
C496 C497 1.382 . S
C497 H462 0.929 . S
C497 C492 1.371 . S
C497 C496 1.382 . S
C498 N466 1.423 . S
C498 C499 1.362 . S
C498 C503 1.388 . S
C499 H463 0.929 . S
C499 C498 1.362 . S
C499 C500 1.376 . S
C500 H464 0.931 . S
C500 C499 1.376 . S
C500 C501 1.396 . S
C501 C483 1.472 . S
C501 C500 1.396 . S
C501 C502 1.348 . S
C502 H465 0.929 . S
C502 C501 1.348 . S
C502 C503 1.443 . S
C503 H467 0.932 . S
C503 C498 1.388 . S
C503 C502 1.443 . S
H504 C531 0.929 . S
N505 C530 1.433 . S
N505 C536 1.435 . S
N505 C542 1.423 . S
H506 C532 0.930 . S
H507 C535 0.931 . S
H508 C534 0.929 . S
H509 C537 0.930 . S
H510 C538 0.932 . S
H511 C541 0.929 . S
H512 C540 0.931 . S
H513 C543 0.929 . S
H514 C547 0.932 . S
H515 C544 0.931 . S
H516 C546 0.929 . S
H517 C549 0.929 . S
H518 C550 0.930 . S
H519 C552 0.929 . S
H520 C553 0.931 . S
H521 C555 0.930 . S
H522 C556 0.932 . S
H523 C558 0.931 . S
H524 C559 0.929 . S
H525 C561 0.929 . S
H526 C562 0.931 . S
H527 C564 0.929 . S
N528 C548 1.433 . S
N528 C554 1.435 . S
N528 C560 1.423 . S
H529 C565 0.932 . S
C530 N505 1.433 . S
C530 C531 1.363 . S
C530 C535 1.370 . S
C531 H504 0.929 . S
C531 C530 1.363 . S
C531 C532 1.385 . S
C532 H506 0.930 . S
C532 C531 1.385 . S
C532 C533 1.357 . S
C533 C532 1.357 . S
C533 C534 1.406 . S
C534 H508 0.929 . S
C534 C533 1.406 . S
C534 C535 1.391 . S
C535 H507 0.931 . S
C535 C530 1.370 . S
C535 C534 1.391 . S
C536 N505 1.435 . S
C536 C537 1.358 . S
C536 C541 1.371 . S
C537 H509 0.930 . S
C537 C536 1.358 . S
C537 C538 1.405 . S
C538 H510 0.932 . S
C538 C537 1.405 . S
C538 C539 1.383 . S
C539 C538 1.383 . S
C539 C540 1.393 . S
C540 H512 0.931 . S
C540 C539 1.393 . S
C540 C541 1.382 . S
C541 H511 0.929 . S
C541 C536 1.371 . S
C541 C540 1.382 . S
C542 N505 1.423 . S
C542 C543 1.362 . S
C542 C547 1.388 . S
C543 H513 0.929 . S
C543 C542 1.362 . S
C543 C544 1.376 . S
C544 H515 0.931 . S
C544 C543 1.376 . S
C544 C545 1.396 . S
C545 C544 1.396 . S
C545 C546 1.348 . S
C545 C563 1.472 . S
C546 H516 0.929 . S
C546 C545 1.348 . S
C546 C547 1.443 . S
C547 H514 0.932 . S
C547 C542 1.388 . S
C547 C546 1.443 . S
C548 N528 1.433 . S
C548 C549 1.363 . S
C548 C553 1.370 . S
C549 H517 0.929 . S
C549 C548 1.363 . S
C549 C550 1.385 . S
C550 H518 0.930 . S
C550 C549 1.385 . S
C550 C551 1.357 . S
C551 C550 1.357 . S
C551 C552 1.406 . S
C552 H519 0.929 . S
C552 C551 1.406 . S
C552 C553 1.391 . S
C553 H520 0.931 . S
C553 C548 1.370 . S
C553 C552 1.391 . S
C554 N528 1.435 . S
C554 C555 1.358 . S
C554 C559 1.371 . S
C555 H521 0.930 . S
C555 C554 1.358 . S
C555 C556 1.405 . S
C556 H522 0.932 . S
C556 C555 1.405 . S
C556 C557 1.383 . S
C557 C556 1.383 . S
C557 C558 1.393 . S
C558 H523 0.931 . S
C558 C557 1.393 . S
C558 C559 1.382 . S
C559 H524 0.929 . S
C559 C554 1.371 . S
C559 C558 1.382 . S
C560 N528 1.423 . S
C560 C561 1.362 . S
C560 C565 1.388 . S
C561 H525 0.929 . S
C561 C560 1.362 . S
C561 C562 1.376 . S
C562 H526 0.931 . S
C562 C561 1.376 . S
C562 C563 1.396 . S
C563 C545 1.472 . S
C563 C562 1.396 . S
C563 C564 1.348 . S
C564 H527 0.929 . S
C564 C563 1.348 . S
C564 C565 1.443 . S
C565 H529 0.932 . S
C565 C560 1.388 . S
C565 C564 1.443 . S
H566 C593 0.929 . S
N567 C592 1.433 . S
N567 C598 1.435 . S
N567 C604 1.423 . S
H568 C594 0.930 . S
H569 C597 0.931 . S
H570 C596 0.929 . S
H571 C599 0.930 . S
H572 C600 0.932 . S
H573 C603 0.929 . S
H574 C602 0.931 . S
H575 C605 0.929 . S
H576 C609 0.932 . S
H577 C606 0.931 . S
H578 C608 0.929 . S
H579 C611 0.929 . S
H580 C612 0.930 . S
H581 C614 0.929 . S
H582 C615 0.931 . S
H583 C617 0.930 . S
H584 C618 0.932 . S
H585 C620 0.931 . S
H586 C621 0.929 . S
H587 C623 0.929 . S
H588 C624 0.931 . S
H589 C626 0.929 . S
N590 C610 1.433 . S
N590 C616 1.435 . S
N590 C622 1.423 . S
H591 C627 0.932 . S
C592 N567 1.433 . S
C592 C593 1.363 . S
C592 C597 1.370 . S
C593 H566 0.929 . S
C593 C592 1.363 . S
C593 C594 1.385 . S
C594 H568 0.930 . S
C594 C593 1.385 . S
C594 C595 1.357 . S
C595 C594 1.357 . S
C595 C596 1.406 . S
C596 H570 0.929 . S
C596 C595 1.406 . S
C596 C597 1.391 . S
C597 H569 0.931 . S
C597 C592 1.370 . S
C597 C596 1.391 . S
C598 N567 1.435 . S
C598 C599 1.358 . S
C598 C603 1.371 . S
C599 H571 0.930 . S
C599 C598 1.358 . S
C599 C600 1.405 . S
C600 H572 0.932 . S
C600 C599 1.405 . S
C600 C601 1.383 . S
C601 C600 1.383 . S
C601 C602 1.393 . S
C602 H574 0.931 . S
C602 C601 1.393 . S
C602 C603 1.382 . S
C603 H573 0.929 . S
C603 C598 1.371 . S
C603 C602 1.382 . S
C604 N567 1.423 . S
C604 C605 1.362 . S
C604 C609 1.388 . S
C605 H575 0.929 . S
C605 C604 1.362 . S
C605 C606 1.376 . S
C606 H577 0.931 . S
C606 C605 1.376 . S
C606 C607 1.396 . S
C607 C606 1.396 . S
C607 C608 1.348 . S
C607 C625 1.472 . S
C608 H578 0.929 . S
C608 C607 1.348 . S
C608 C609 1.443 . S
C609 H576 0.932 . S
C609 C604 1.388 . S
C609 C608 1.443 . S
C610 N590 1.433 . S
C610 C611 1.363 . S
C610 C615 1.370 . S
C611 H579 0.929 . S
C611 C610 1.363 . S
C611 C612 1.385 . S
C612 H580 0.930 . S
C612 C611 1.385 . S
C612 C613 1.357 . S
C613 C612 1.357 . S
C613 C614 1.406 . S
C614 H581 0.929 . S
C614 C613 1.406 . S
C614 C615 1.391 . S
C615 H582 0.931 . S
C615 C610 1.370 . S
C615 C614 1.391 . S
C616 N590 1.435 . S
C616 C617 1.358 . S
C616 C621 1.371 . S
C617 H583 0.930 . S
C617 C616 1.358 . S
C617 C618 1.405 . S
C618 H584 0.932 . S
C618 C617 1.405 . S
C618 C619 1.383 . S
C619 C618 1.383 . S
C619 C620 1.393 . S
C620 H585 0.931 . S
C620 C619 1.393 . S
C620 C621 1.382 . S
C621 H586 0.929 . S
C621 C616 1.371 . S
C621 C620 1.382 . S
C622 N590 1.423 . S
C622 C623 1.362 . S
C622 C627 1.388 . S
C623 H587 0.929 . S
C623 C622 1.362 . S
C623 C624 1.376 . S
C624 H588 0.931 . S
C624 C623 1.376 . S
C624 C625 1.396 . S
C625 C607 1.472 . S
C625 C624 1.396 . S
C625 C626 1.348 . S
C626 H589 0.929 . S
C626 C625 1.348 . S
C626 C627 1.443 . S
C627 H591 0.932 . S
C627 C622 1.388 . S
C627 C626 1.443 . S
H628 C655 0.929 . S
N629 C654 1.433 . S
N629 C660 1.435 . S
N629 C666 1.423 . S
H630 C656 0.930 . S
H631 C659 0.931 . S
H632 C658 0.929 . S
H633 C661 0.930 . S
H634 C662 0.932 . S
H635 C665 0.929 . S
H636 C664 0.931 . S
H637 C667 0.929 . S
H638 C671 0.932 . S
H639 C668 0.931 . S
H640 C670 0.929 . S
H641 C673 0.929 . S
H642 C674 0.930 . S
H643 C676 0.929 . S
H644 C677 0.931 . S
H645 C679 0.930 . S
H646 C680 0.932 . S
H647 C682 0.931 . S
H648 C683 0.929 . S
H649 C685 0.929 . S
H650 C686 0.931 . S
H651 C688 0.929 . S
N652 C672 1.433 . S
N652 C678 1.435 . S
N652 C684 1.423 . S
H653 C689 0.932 . S
C654 N629 1.433 . S
C654 C655 1.363 . S
C654 C659 1.370 . S
C655 H628 0.929 . S
C655 C654 1.363 . S
C655 C656 1.385 . S
C656 H630 0.930 . S
C656 C655 1.385 . S
C656 C657 1.357 . S
C657 C656 1.357 . S
C657 C658 1.406 . S
C658 H632 0.929 . S
C658 C657 1.406 . S
C658 C659 1.391 . S
C659 H631 0.931 . S
C659 C654 1.370 . S
C659 C658 1.391 . S
C660 N629 1.435 . S
C660 C661 1.358 . S
C660 C665 1.371 . S
C661 H633 0.930 . S
C661 C660 1.358 . S
C661 C662 1.405 . S
C662 H634 0.932 . S
C662 C661 1.405 . S
C662 C663 1.383 . S
C663 C662 1.383 . S
C663 C664 1.393 . S
C664 H636 0.931 . S
C664 C663 1.393 . S
C664 C665 1.382 . S
C665 H635 0.929 . S
C665 C660 1.371 . S
C665 C664 1.382 . S
C666 N629 1.423 . S
C666 C667 1.362 . S
C666 C671 1.388 . S
C667 H637 0.929 . S
C667 C666 1.362 . S
C667 C668 1.376 . S
C668 H639 0.931 . S
C668 C667 1.376 . S
C668 C669 1.396 . S
C669 C668 1.396 . S
C669 C670 1.348 . S
C669 C687 1.472 . S
C670 H640 0.929 . S
C670 C669 1.348 . S
C670 C671 1.443 . S
C671 H638 0.932 . S
C671 C666 1.388 . S
C671 C670 1.443 . S
C672 N652 1.433 . S
C672 C673 1.363 . S
C672 C677 1.370 . S
C673 H641 0.929 . S
C673 C672 1.363 . S
C673 C674 1.385 . S
C674 H642 0.930 . S
C674 C673 1.385 . S
C674 C675 1.357 . S
C675 C674 1.357 . S
C675 C676 1.406 . S
C676 H643 0.929 . S
C676 C675 1.406 . S
C676 C677 1.391 . S
C677 H644 0.931 . S
C677 C672 1.370 . S
C677 C676 1.391 . S
C678 N652 1.435 . S
C678 C679 1.358 . S
C678 C683 1.371 . S
C679 H645 0.930 . S
C679 C678 1.358 . S
C679 C680 1.405 . S
C680 H646 0.932 . S
C680 C679 1.405 . S
C680 C681 1.383 . S
C681 C680 1.383 . S
C681 C682 1.393 . S
C682 H647 0.931 . S
C682 C681 1.393 . S
C682 C683 1.382 . S
C683 H648 0.929 . S
C683 C678 1.371 . S
C683 C682 1.382 . S
C684 N652 1.423 . S
C684 C685 1.362 . S
C684 C689 1.388 . S
C685 H649 0.929 . S
C685 C684 1.362 . S
C685 C686 1.376 . S
C686 H650 0.931 . S
C686 C685 1.376 . S
C686 C687 1.396 . S
C687 C669 1.472 . S
C687 C686 1.396 . S
C687 C688 1.348 . S
C688 H651 0.929 . S
C688 C687 1.348 . S
C688 C689 1.443 . S
C689 H653 0.932 . S
C689 C684 1.388 . S
C689 C688 1.443 . S
H690 C698 0.929 . S
H691 C700 0.930 . S
H692 C702 0.930 . S
H693 C705 0.929 . S
H694 C708 0.930 . S
H695 C710 0.960 . S
H696 C710 0.960 . S
H697 C710 0.960 . S
C698 H690 0.929 . S
C698 C699 1.377 . S
C698 C700 1.384 . S
C699 C698 1.377 . S
C699 C705 1.390 . S
C700 H691 0.930 . S
C700 C698 1.384 . S
C700 C701 1.372 . S
C701 C700 1.372 . S
C701 C702 1.400 . S
C701 C706 1.490 . S
C702 H692 0.930 . S
C702 C701 1.400 . S
C702 C705 1.386 . S
H703 C719 0.930 . S
H704 C720 0.931 . S
C705 H693 0.929 . S
C705 C699 1.390 . S
C705 C702 1.386 . S
C706 C701 1.490 . S
C706 C708 1.395 . S
C706 C709 1.403 . S
H707 C713 0.930 . S
C708 H694 0.930 . S
C708 C706 1.395 . S
C708 C711 1.403 . S
C709 C706 1.403 . S
C709 C710 1.524 . S
C709 C713 1.400 . S
C710 H695 0.960 . S
C710 H696 0.960 . S
C710 H697 0.960 . S
C710 C709 1.524 . S
C711 C708 1.403 . S
C711 C712 1.392 . S
C711 C715 1.495 . S
C712 C711 1.392 . S
C712 C713 1.385 . S
C712 C714 1.478 . S
C713 H707 0.930 . S
C713 C709 1.400 . S
C713 C712 1.385 . S
C714 C712 1.478 . S
C714 C716 1.381 . S
C714 C720 1.383 . S
C715 C711 1.495 . S
C715 H721 0.959 . S
C715 H722 0.961 . S
C715 H723 0.960 . S
C716 C714 1.381 . S
C716 C717 1.394 . S
C716 H724 0.930 . S
C717 C716 1.394 . S
C717 C718 1.383 . S
C717 H725 0.929 . S
C718 C717 1.383 . S
C718 C719 1.377 . S
C719 H703 0.930 . S
C719 C718 1.377 . S
C719 C720 1.379 . S
C720 H704 0.931 . S
C720 C714 1.383 . S
C720 C719 1.379 . S
H721 C715 0.959 . S
H722 C715 0.961 . S
H723 C715 0.960 . S
H724 C716 0.930 . S
H725 C717 0.929 . S
H726 C734 0.929 . S
H727 C736 0.930 . S
H728 C738 0.930 . S
H729 C741 0.929 . S
H730 C744 0.930 . S
H731 C746 0.960 . S
H732 C746 0.960 . S
H733 C746 0.960 . S
C734 H726 0.929 . S
C734 C735 1.377 . S
C734 C736 1.384 . S
C735 C734 1.377 . S
C735 C741 1.390 . S
C736 H727 0.930 . S
C736 C734 1.384 . S
C736 C737 1.372 . S
C737 C736 1.372 . S
C737 C738 1.400 . S
C737 C742 1.490 . S
C738 H728 0.930 . S
C738 C737 1.400 . S
C738 C741 1.386 . S
H739 C755 0.930 . S
H740 C756 0.931 . S
C741 H729 0.929 . S
C741 C735 1.390 . S
C741 C738 1.386 . S
C742 C737 1.490 . S
C742 C744 1.395 . S
C742 C745 1.403 . S
H743 C749 0.930 . S
C744 H730 0.930 . S
C744 C742 1.395 . S
C744 C747 1.403 . S
C745 C742 1.403 . S
C745 C746 1.524 . S
C745 C749 1.400 . S
C746 H731 0.960 . S
C746 H732 0.960 . S
C746 H733 0.960 . S
C746 C745 1.524 . S
C747 C744 1.403 . S
C747 C748 1.392 . S
C747 C751 1.495 . S
C748 C747 1.392 . S
C748 C749 1.385 . S
C748 C750 1.478 . S
C749 H743 0.930 . S
C749 C745 1.400 . S
C749 C748 1.385 . S
C750 C748 1.478 . S
C750 C752 1.381 . S
C750 C756 1.383 . S
C751 C747 1.495 . S
C751 H757 0.959 . S
C751 H758 0.961 . S
C751 H759 0.960 . S
C752 C750 1.381 . S
C752 C753 1.394 . S
C752 H760 0.930 . S
C753 C752 1.394 . S
C753 C754 1.383 . S
C753 H761 0.929 . S
C754 C753 1.383 . S
C754 C755 1.377 . S
C755 H739 0.930 . S
C755 C754 1.377 . S
C755 C756 1.379 . S
C756 H740 0.931 . S
C756 C750 1.383 . S
C756 C755 1.379 . S
H757 C751 0.959 . S
H758 C751 0.961 . S
H759 C751 0.960 . S
H760 C752 0.930 . S
H761 C753 0.929 . S
H762 C770 0.929 . S
H763 C772 0.930 . S
H764 C774 0.930 . S
H765 C777 0.929 . S
H766 C780 0.930 . S
H767 C782 0.960 . S
H768 C782 0.960 . S
H769 C782 0.960 . S
C770 H762 0.929 . S
C770 C771 1.377 . S
C770 C772 1.384 . S
C771 C770 1.377 . S
C771 C777 1.390 . S
C772 H763 0.930 . S
C772 C770 1.384 . S
C772 C773 1.372 . S
C773 C772 1.372 . S
C773 C774 1.400 . S
C773 C778 1.490 . S
C774 H764 0.930 . S
C774 C773 1.400 . S
C774 C777 1.386 . S
H775 C791 0.930 . S
H776 C792 0.931 . S
C777 H765 0.929 . S
C777 C771 1.390 . S
C777 C774 1.386 . S
C778 C773 1.490 . S
C778 C780 1.395 . S
C778 C781 1.403 . S
H779 C785 0.930 . S
C780 H766 0.930 . S
C780 C778 1.395 . S
C780 C783 1.403 . S
C781 C778 1.403 . S
C781 C782 1.524 . S
C781 C785 1.400 . S
C782 H767 0.960 . S
C782 H768 0.960 . S
C782 H769 0.960 . S
C782 C781 1.524 . S
C783 C780 1.403 . S
C783 C784 1.392 . S
C783 C787 1.495 . S
C784 C783 1.392 . S
C784 C785 1.385 . S
C784 C786 1.478 . S
C785 H779 0.930 . S
C785 C781 1.400 . S
C785 C784 1.385 . S
C786 C784 1.478 . S
C786 C788 1.381 . S
C786 C792 1.383 . S
C787 C783 1.495 . S
C787 H793 0.959 . S
C787 H794 0.961 . S
C787 H795 0.960 . S
C788 C786 1.381 . S
C788 C789 1.394 . S
C788 H796 0.930 . S
C789 C788 1.394 . S
C789 C790 1.383 . S
C789 H797 0.929 . S
C790 C789 1.383 . S
C790 C791 1.377 . S
C791 H775 0.930 . S
C791 C790 1.377 . S
C791 C792 1.379 . S
C792 H776 0.931 . S
C792 C786 1.383 . S
C792 C791 1.379 . S
H793 C787 0.959 . S
H794 C787 0.961 . S
H795 C787 0.960 . S
H796 C788 0.930 . S
H797 C789 0.929 . S
H798 C806 0.914 1_455 S
H799 C808 0.930 . S
H800 C810 0.930 . S
H801 C813 0.929 . S
H802 C816 0.930 . S
H803 C818 0.960 . S
H804 C818 0.960 . S
H805 C818 0.960 . S
C806 H798 0.914 1_655 S
C806 C807 1.377 . S
C806 C808 1.400 . S
C807 C806 1.377 . S
C807 C813 1.390 . S
C808 H799 0.930 . S
C808 C806 1.400 . S
C808 C809 1.372 . S
C809 C808 1.372 . S
C809 C810 1.400 . S
C809 C814 1.490 . S
C810 H800 0.930 . S
C810 C809 1.400 . S
C810 C813 1.386 . S
H811 C827 0.930 . S
H812 C828 0.931 . S
C813 H801 0.929 . S
C813 C807 1.390 . S
C813 C810 1.386 . S
C814 C809 1.490 . S
C814 C816 1.395 . S
C814 C817 1.403 . S
H815 C821 0.930 . S
C816 H802 0.930 . S
C816 C814 1.395 . S
C816 C819 1.403 . S
C817 C814 1.403 . S
C817 C818 1.524 . S
C817 C821 1.400 . S
C818 H803 0.960 . S
C818 H804 0.960 . S
C818 H805 0.960 . S
C818 C817 1.524 . S
C819 C816 1.403 . S
C819 C820 1.392 . S
C819 C823 1.495 . S
C820 C819 1.392 . S
C820 C821 1.385 . S
C820 C822 1.478 . S
C821 H815 0.930 . S
C821 C817 1.400 . S
C821 C820 1.385 . S
C822 C820 1.478 . S
C822 C824 1.381 . S
C822 C828 1.383 . S
C823 C819 1.495 . S
C823 H829 0.959 . S
C823 H830 0.961 . S
C823 H831 0.960 . S
C824 C822 1.381 . S
C824 C825 1.394 . S
C824 H832 0.930 . S
C825 C824 1.394 . S
C825 C826 1.383 . S
C825 H833 0.929 . S
C826 C825 1.383 . S
C826 C827 1.377 . S
C827 H811 0.930 . S
C827 C826 1.377 . S
C827 C828 1.379 . S
C828 H812 0.931 . S
C828 C822 1.383 . S
C828 C827 1.379 . S
H829 C823 0.959 . S
H830 C823 0.961 . S
H831 C823 0.960 . S
H832 C824 0.930 . S
H833 C825 0.929 . S
H834 C842 0.929 . S
H835 C844 0.930 . S
H836 C846 0.930 . S
H837 C849 0.929 . S
H838 C852 0.930 . S
H839 C854 0.960 . S
H840 C854 0.960 . S
H841 C854 0.960 . S
C842 H834 0.929 . S
C842 C843 1.377 . S
C842 C844 1.384 . S
C843 C842 1.377 . S
C843 C849 1.390 . S
C844 H835 0.930 . S
C844 C842 1.384 . S
C844 C845 1.372 . S
C845 C844 1.372 . S
C845 C846 1.400 . S
C845 C850 1.490 . S
C846 H836 0.930 . S
C846 C845 1.400 . S
C846 C849 1.386 . S
H847 C863 0.930 . S
H848 C864 0.931 . S
C849 H837 0.929 . S
C849 C843 1.390 . S
C849 C846 1.386 . S
C850 C845 1.490 . S
C850 C852 1.395 . S
C850 C853 1.403 . S
H851 C857 0.930 . S
C852 H838 0.930 . S
C852 C850 1.395 . S
C852 C855 1.403 . S
C853 C850 1.403 . S
C853 C854 1.524 . S
C853 C857 1.400 . S
C854 H839 0.960 . S
C854 H840 0.960 . S
C854 H841 0.960 . S
C854 C853 1.524 . S
C855 C852 1.403 . S
C855 C856 1.392 . S
C855 C859 1.495 . S
C856 C855 1.392 . S
C856 C857 1.385 . S
C856 C858 1.478 . S
C857 H851 0.930 . S
C857 C853 1.400 . S
C857 C856 1.385 . S
C858 C856 1.478 . S
C858 C860 1.381 . S
C858 C864 1.383 . S
C859 C855 1.495 . S
C859 H865 0.959 . S
C859 H866 0.961 . S
C859 H867 0.960 . S
C860 C858 1.381 . S
C860 C861 1.394 . S
C860 H868 0.930 . S
C861 C860 1.394 . S
C861 C862 1.383 . S
C861 H869 0.929 . S
C862 C861 1.383 . S
C862 C863 1.377 . S
C863 H847 0.930 . S
C863 C862 1.377 . S
C863 C864 1.379 . S
C864 H848 0.931 . S
C864 C858 1.383 . S
C864 C863 1.379 . S
H865 C859 0.959 . S
H866 C859 0.961 . S
H867 C859 0.960 . S
H868 C860 0.930 . S
H869 C861 0.929 . S
H870 C878 0.929 . S
H871 C880 0.930 . S
H872 C882 0.930 . S
H873 C885 0.929 . S
H874 C888 0.930 . S
H875 C890 0.960 . S
H876 C890 0.960 . S
H877 C890 0.960 . S
C878 H870 0.929 . S
C878 C879 1.377 . S
C878 C880 1.384 . S
C879 C878 1.377 . S
C879 C885 1.390 . S
C880 H871 0.930 . S
C880 C878 1.384 . S
C880 C881 1.372 . S
C881 C880 1.372 . S
C881 C882 1.400 . S
C881 C886 1.490 . S
C882 H872 0.930 . S
C882 C881 1.400 . S
C882 C885 1.386 . S
H883 C899 0.930 . S
H884 C900 0.931 . S
C885 H873 0.929 . S
C885 C879 1.390 . S
C885 C882 1.386 . S
C886 C881 1.490 . S
C886 C888 1.395 . S
C886 C889 1.403 . S
H887 C893 0.930 . S
C888 H874 0.930 . S
C888 C886 1.395 . S
C888 C891 1.403 . S
C889 C886 1.403 . S
C889 C890 1.524 . S
C889 C893 1.400 . S
C890 H875 0.960 . S
C890 H876 0.960 . S
C890 H877 0.960 . S
C890 C889 1.524 . S
C891 C888 1.403 . S
C891 C892 1.392 . S
C891 C895 1.495 . S
C892 C891 1.392 . S
C892 C893 1.385 . S
C892 C894 1.478 . S
C893 H887 0.930 . S
C893 C889 1.400 . S
C893 C892 1.385 . S
C894 C892 1.478 . S
C894 C896 1.381 . S
C894 C900 1.383 . S
C895 C891 1.495 . S
C895 H901 0.959 . S
C895 H902 0.961 . S
C895 H903 0.960 . S
C896 C894 1.381 . S
C896 C897 1.394 . S
C896 H904 0.930 . S
C897 C896 1.394 . S
C897 C898 1.383 . S
C897 H905 0.929 . S
C898 C897 1.383 . S
C898 C899 1.377 . S
C899 H883 0.930 . S
C899 C898 1.377 . S
C899 C900 1.379 . S
C900 H884 0.931 . S
C900 C894 1.383 . S
C900 C899 1.379 . S
H901 C895 0.959 . S
H902 C895 0.961 . S
H903 C895 0.960 . S
H904 C896 0.930 . S
H905 C897 0.929 . S
H906 C914 0.929 . S
H907 C916 0.930 . S
H908 C918 0.930 . S
H909 C921 0.929 . S
H910 C924 0.930 . S
H911 C926 0.960 . S
H912 C926 0.960 . S
H913 C926 0.960 . S
C914 H906 0.929 . S
C914 C915 1.377 . S
C914 C916 1.384 . S
C915 C914 1.377 . S
C915 C921 1.390 . S
C916 H907 0.930 . S
C916 C914 1.384 . S
C916 C917 1.372 . S
C917 C916 1.372 . S
C917 C918 1.400 . S
C917 C922 1.490 . S
C918 H908 0.930 . S
C918 C917 1.400 . S
C918 C921 1.386 . S
H919 C935 0.930 . S
H920 C936 0.931 . S
C921 H909 0.929 . S
C921 C915 1.390 . S
C921 C918 1.386 . S
C922 C917 1.490 . S
C922 C924 1.395 . S
C922 C925 1.403 . S
H923 C929 0.930 . S
C924 H910 0.930 . S
C924 C922 1.395 . S
C924 C927 1.403 . S
C925 C922 1.403 . S
C925 C926 1.524 . S
C925 C929 1.400 . S
C926 H911 0.960 . S
C926 H912 0.960 . S
C926 H913 0.960 . S
C926 C925 1.524 . S
C927 C924 1.403 . S
C927 C928 1.392 . S
C927 C931 1.495 . S
C928 C927 1.392 . S
C928 C929 1.385 . S
C928 C930 1.478 . S
C929 H923 0.930 . S
C929 C925 1.400 . S
C929 C928 1.385 . S
C930 C928 1.478 . S
C930 C932 1.381 . S
C930 C936 1.383 . S
C931 C927 1.495 . S
C931 H937 0.959 . S
C931 H938 0.961 . S
C931 H939 0.960 . S
C932 C930 1.381 . S
C932 C933 1.394 . S
C932 H940 0.930 . S
C933 C932 1.394 . S
C933 C934 1.383 . S
C933 H941 0.929 . S
C934 C933 1.383 . S
C934 C935 1.377 . S
C935 H919 0.930 . S
C935 C934 1.377 . S
C935 C936 1.379 . S
C936 H920 0.931 . S
C936 C930 1.383 . S
C936 C935 1.379 . S
H937 C931 0.959 . S
H938 C931 0.961 . S
H939 C931 0.960 . S
H940 C932 0.930 . S
H941 C933 0.929 . S
H942 C950 0.929 . S
H943 C952 0.930 . S
H944 C954 0.930 . S
H945 C957 0.929 . S
H946 C960 0.930 . S
H947 C962 0.960 . S
H948 C962 0.960 . S
H949 C962 0.960 . S
C950 H942 0.929 . S
C950 C951 1.377 . S
C950 C952 1.384 . S
C951 C950 1.377 . S
C951 C957 1.390 . S
C952 H943 0.930 . S
C952 C950 1.384 . S
C952 C953 1.372 . S
C953 C952 1.372 . S
C953 C954 1.400 . S
C953 C958 1.490 . S
C954 H944 0.930 . S
C954 C953 1.400 . S
C954 C957 1.386 . S
H955 C971 0.930 . S
H956 C972 0.931 . S
C957 H945 0.929 . S
C957 C951 1.390 . S
C957 C954 1.386 . S
C958 C953 1.490 . S
C958 C960 1.395 . S
C958 C961 1.403 . S
H959 C965 0.930 . S
C960 H946 0.930 . S
C960 C958 1.395 . S
C960 C963 1.403 . S
C961 C958 1.403 . S
C961 C962 1.524 . S
C961 C965 1.400 . S
C962 H947 0.960 . S
C962 H948 0.960 . S
C962 H949 0.960 . S
C962 C961 1.524 . S
C963 C960 1.403 . S
C963 C964 1.392 . S
C963 C967 1.495 . S
C964 C963 1.392 . S
C964 C965 1.385 . S
C964 C966 1.478 . S
C965 H959 0.930 . S
C965 C961 1.400 . S
C965 C964 1.385 . S
C966 C964 1.478 . S
C966 C968 1.381 . S
C966 C972 1.383 . S
C967 C963 1.495 . S
C967 H973 0.959 . S
C967 H974 0.961 . S
C967 H975 0.960 . S
C968 C966 1.381 . S
C968 C969 1.394 . S
C968 H976 0.930 . S
C969 C968 1.394 . S
C969 C970 1.383 . S
C969 H977 0.929 . S
C970 C969 1.383 . S
C970 C971 1.377 . S
C971 H955 0.930 . S
C971 C970 1.377 . S
C971 C972 1.379 . S
C972 H956 0.931 . S
C972 C966 1.383 . S
C972 C971 1.379 . S
H973 C967 0.959 . S
H974 C967 0.961 . S
H975 C967 0.960 . S
H976 C968 0.930 . S
H977 C969 0.929 . S
H978 C986 0.929 . S
H979 C988 0.930 . S
H980 C990 0.930 . S
H981 C993 0.929 . S
H982 C996 0.930 . S
H983 C998 0.960 . S
H984 C998 0.960 . S
H985 C998 0.960 . S
C986 H978 0.929 . S
C986 C987 1.377 . S
C986 C988 1.384 . S
C987 C986 1.377 . S
C987 C993 1.390 . S
C988 H979 0.930 . S
C988 C986 1.384 . S
C988 C989 1.372 . S
C989 C988 1.372 . S
C989 C990 1.400 . S
C989 C994 1.490 . S
C990 H980 0.930 . S
C990 C989 1.400 . S
C990 C993 1.386 . S
H991 C1007 0.930 . S
H992 C1008 0.931 . S
C993 H981 0.929 . S
C993 C987 1.390 . S
C993 C990 1.386 . S
C994 C989 1.490 . S
C994 C996 1.395 . S
C994 C997 1.403 . S
H995 C1001 0.930 . S
C996 H982 0.930 . S
C996 C994 1.395 . S
C996 C999 1.403 . S
C997 C994 1.403 . S
C997 C998 1.524 . S
C997 C1001 1.400 . S
C998 H983 0.960 . S
C998 H984 0.960 . S
C998 H985 0.960 . S
C998 C997 1.524 . S
C999 C996 1.403 . S
C999 C1000 1.392 . S
C999 C1003 1.495 . S
C1000 C999 1.392 . S
C1000 C1001 1.385 . S
C1000 C1002 1.478 . S
C1001 H995 0.930 . S
C1001 C997 1.400 . S
C1001 C1000 1.385 . S
C1002 C1000 1.478 . S
C1002 C1004 1.381 . S
C1002 C1008 1.383 . S
C1003 C999 1.495 . S
C1003 H1009 0.959 . S
C1003 H1010 0.961 . S
C1003 H1011 0.960 . S
C1004 C1002 1.381 . S
C1004 C1005 1.394 . S
C1004 H1012 0.930 . S
C1005 C1004 1.394 . S
C1005 C1006 1.383 . S
C1005 H1013 0.929 . S
C1006 C1005 1.383 . S
C1006 C1007 1.377 . S
C1007 H991 0.930 . S
C1007 C1006 1.377 . S
C1007 C1008 1.379 . S
C1008 H992 0.931 . S
C1008 C1002 1.383 . S
C1008 C1007 1.379 . S
H1009 C1003 0.959 . S
H1010 C1003 0.961 . S
H1011 C1003 0.960 . S
H1012 C1004 0.930 . S
H1013 C1005 0.929 . S
H1014 C1022 0.929 . S
H1015 C1024 0.930 . S
H1016 C1026 0.930 . S
H1017 C1029 0.929 . S
H1018 C1032 0.930 . S
H1019 C1034 0.960 . S
H1020 C1034 0.960 . S
H1021 C1034 0.960 . S
C1022 H1014 0.929 . S
C1022 C1023 1.377 . S
C1022 C1024 1.384 . S
C1023 C1022 1.377 . S
C1023 C1029 1.390 . S
C1024 H1015 0.930 . S
C1024 C1022 1.384 . S
C1024 C1025 1.372 . S
C1025 C1024 1.372 . S
C1025 C1026 1.400 . S
C1025 C1030 1.490 . S
C1026 H1016 0.930 . S
C1026 C1025 1.400 . S
C1026 C1029 1.386 . S
H1027 C1043 0.930 . S
H1028 C1044 0.931 . S
C1029 H1017 0.929 . S
C1029 C1023 1.390 . S
C1029 C1026 1.386 . S
C1030 C1025 1.490 . S
C1030 C1032 1.395 . S
C1030 C1033 1.403 . S
H1031 C1037 0.930 . S
C1032 H1018 0.930 . S
C1032 C1030 1.395 . S
C1032 C1035 1.403 . S
C1033 C1030 1.403 . S
C1033 C1034 1.524 . S
C1033 C1037 1.400 . S
C1034 H1019 0.960 . S
C1034 H1020 0.960 . S
C1034 H1021 0.960 . S
C1034 C1033 1.524 . S
C1035 C1032 1.403 . S
C1035 C1036 1.392 . S
C1035 C1039 1.495 . S
C1036 C1035 1.392 . S
C1036 C1037 1.385 . S
C1036 C1038 1.478 . S
C1037 H1031 0.930 . S
C1037 C1033 1.400 . S
C1037 C1036 1.385 . S
C1038 C1036 1.478 . S
C1038 C1040 1.381 . S
C1038 C1044 1.383 . S
C1039 C1035 1.495 . S
C1039 H1045 0.959 . S
C1039 H1046 0.961 . S
C1039 H1047 0.960 . S
C1040 C1038 1.381 . S
C1040 C1041 1.394 . S
C1040 H1048 0.930 . S
C1041 C1040 1.394 . S
C1041 C1042 1.383 . S
C1041 H1049 0.929 . S
C1042 C1041 1.383 . S
C1042 C1043 1.377 . S
C1043 H1027 0.930 . S
C1043 C1042 1.377 . S
C1043 C1044 1.379 . S
C1044 H1028 0.931 . S
C1044 C1038 1.383 . S
C1044 C1043 1.379 . S
H1045 C1039 0.959 . S
H1046 C1039 0.961 . S
H1047 C1039 0.960 . S
H1048 C1040 0.930 . S
H1049 C1041 0.929 . S
H1050 C1058 0.929 . S
H1051 C1060 0.930 . S
H1052 C1062 0.930 . S
H1053 C1065 0.929 . S
H1054 C1068 0.930 . S
H1055 C1070 0.960 . S
H1056 C1070 0.960 . S
H1057 C1070 0.960 . S
C1058 H1050 0.929 . S
C1058 C1059 1.377 . S
C1058 C1060 1.384 . S
C1059 C1058 1.377 . S
C1059 C1065 1.390 . S
C1060 H1051 0.930 . S
C1060 C1058 1.384 . S
C1060 C1061 1.372 . S
C1061 C1060 1.372 . S
C1061 C1062 1.400 . S
C1061 C1066 1.490 . S
C1062 H1052 0.930 . S
C1062 C1061 1.400 . S
C1062 C1065 1.386 . S
H1063 C1079 0.930 . S
H1064 C1080 0.931 . S
C1065 H1053 0.929 . S
C1065 C1059 1.390 . S
C1065 C1062 1.386 . S
C1066 C1061 1.490 . S
C1066 C1068 1.395 . S
C1066 C1069 1.403 . S
H1067 C1073 0.930 . S
C1068 H1054 0.930 . S
C1068 C1066 1.395 . S
C1068 C1071 1.403 . S
C1069 C1066 1.403 . S
C1069 C1070 1.524 . S
C1069 C1073 1.400 . S
C1070 H1055 0.960 . S
C1070 H1056 0.960 . S
C1070 H1057 0.960 . S
C1070 C1069 1.524 . S
C1071 C1068 1.403 . S
C1071 C1072 1.392 . S
C1071 C1075 1.495 . S
C1072 C1071 1.392 . S
C1072 C1073 1.385 . S
C1072 C1074 1.478 . S
C1073 H1067 0.930 . S
C1073 C1069 1.400 . S
C1073 C1072 1.385 . S
C1074 C1072 1.478 . S
C1074 C1076 1.381 . S
C1074 C1080 1.383 . S
C1075 C1071 1.495 . S
C1075 H1081 0.959 . S
C1075 H1082 0.961 . S
C1075 H1083 0.960 . S
C1076 C1074 1.381 . S
C1076 C1077 1.394 . S
C1076 H1084 0.930 . S
C1077 C1076 1.394 . S
C1077 C1078 1.383 . S
C1077 H1085 0.929 . S
C1078 C1077 1.383 . S
C1078 C1079 1.377 . S
C1079 H1063 0.930 . S
C1079 C1078 1.377 . S
C1079 C1080 1.379 . S
C1080 H1064 0.931 . S
C1080 C1074 1.383 . S
C1080 C1079 1.379 . S
H1081 C1075 0.959 . S
H1082 C1075 0.961 . S
H1083 C1075 0.960 . S
H1084 C1076 0.930 . S
H1085 C1077 0.929 . S
H1086 C1094 0.929 1_554 S
H1087 C1096 0.930 . S
H1088 C1098 0.930 . S
H1089 C1101 0.929 . S
H1090 C1104 0.930 . S
H1091 C1106 0.960 . S
H1092 C1106 0.960 . S
H1093 C1106 0.960 . S
C1094 H1086 0.929 1_556 S
C1094 C1095 1.377 . S
C1094 C1096 1.384 . S
C1095 C1094 1.377 . S
C1095 C1101 1.390 . S
C1096 H1087 0.930 . S
C1096 C1094 1.384 . S
C1096 C1097 1.372 . S
C1097 C1096 1.372 . S
C1097 C1098 1.400 . S
C1097 C1102 1.490 . S
C1098 H1088 0.930 . S
C1098 C1097 1.400 . S
C1098 C1101 1.386 . S
H1099 C1115 0.930 . S
H1100 C1116 0.931 . S
C1101 H1089 0.929 . S
C1101 C1095 1.390 . S
C1101 C1098 1.386 . S
C1102 C1097 1.490 . S
C1102 C1104 1.395 . S
C1102 C1105 1.403 . S
H1103 C1109 0.930 . S
C1104 H1090 0.930 . S
C1104 C1102 1.395 . S
C1104 C1107 1.403 . S
C1105 C1102 1.403 . S
C1105 C1106 1.524 . S
C1105 C1109 1.400 . S
C1106 H1091 0.960 . S
C1106 H1092 0.960 . S
C1106 H1093 0.960 . S
C1106 C1105 1.524 . S
C1107 C1104 1.403 . S
C1107 C1108 1.392 . S
C1107 C1111 1.495 . S
C1108 C1107 1.392 . S
C1108 C1109 1.385 . S
C1108 C1110 1.478 . S
C1109 H1103 0.930 . S
C1109 C1105 1.400 . S
C1109 C1108 1.385 . S
C1110 C1108 1.478 . S
C1110 C1112 1.381 . S
C1110 C1116 1.383 . S
C1111 C1107 1.495 . S
C1111 H1117 0.959 . S
C1111 H1118 0.961 . S
C1111 H1119 0.960 . S
C1112 C1110 1.381 . S
C1112 C1113 1.394 . S
C1112 H1120 0.930 . S
C1113 C1112 1.394 . S
C1113 C1114 1.383 . S
C1113 H1121 0.929 . S
C1114 C1113 1.383 . S
C1114 C1115 1.377 . S
C1115 H1099 0.930 . S
C1115 C1114 1.377 . S
C1115 C1116 1.379 . S
C1116 H1100 0.931 . S
C1116 C1110 1.383 . S
C1116 C1115 1.379 . S
H1117 C1111 0.959 . S
H1118 C1111 0.961 . S
H1119 C1111 0.960 . S
H1120 C1112 0.930 . S
H1121 C1113 0.929 . S
H1122 C1130 0.929 . S
H1123 C1132 0.933 . S
H1124 C1134 0.930 . S
H1125 C1137 0.929 . S
H1126 C1140 0.930 . S
H1127 C1142 0.960 . S
H1128 C1142 0.960 . S
H1129 C1142 0.960 . S
C1130 H1122 0.929 . S
C1130 C1131 1.377 . S
C1130 C1132 1.386 . S
C1131 C1130 1.377 . S
C1131 C1137 1.390 1_554 S
C1132 H1123 0.933 . S
C1132 C1130 1.386 . S
C1132 C1133 1.367 1_554 S
C1133 C1132 1.367 1_556 S
C1133 C1134 1.400 . S
C1133 C1138 1.490 . S
C1134 H1124 0.930 . S
C1134 C1133 1.400 . S
C1134 C1137 1.386 . S
H1135 C1151 0.930 . S
H1136 C1152 0.931 . S
C1137 H1125 0.929 . S
C1137 C1131 1.390 1_556 S
C1137 C1134 1.386 . S
C1138 C1133 1.490 . S
C1138 C1140 1.395 . S
C1138 C1141 1.403 . S
H1139 C1145 0.930 . S
C1140 H1126 0.930 . S
C1140 C1138 1.395 . S
C1140 C1143 1.403 . S
C1141 C1138 1.403 . S
C1141 C1142 1.524 . S
C1141 C1145 1.400 . S
C1142 H1127 0.960 . S
C1142 H1128 0.960 . S
C1142 H1129 0.960 . S
C1142 C1141 1.524 . S
C1143 C1140 1.403 . S
C1143 C1144 1.392 . S
C1143 C1147 1.495 . S
C1144 C1143 1.392 . S
C1144 C1145 1.385 . S
C1144 C1146 1.478 . S
C1145 H1139 0.930 . S
C1145 C1141 1.400 . S
C1145 C1144 1.385 . S
C1146 C1144 1.478 . S
C1146 C1148 1.381 . S
C1146 C1152 1.383 . S
C1147 C1143 1.495 . S
C1147 H1153 0.959 . S
C1147 H1154 0.961 . S
C1147 H1155 0.960 . S
C1148 C1146 1.381 . S
C1148 C1149 1.394 . S
C1148 H1156 0.930 . S
C1149 C1148 1.394 . S
C1149 C1150 1.383 . S
C1149 H1157 0.929 . S
C1150 C1149 1.383 . S
C1150 C1151 1.377 . S
C1151 H1135 0.930 . S
C1151 C1150 1.377 . S
C1151 C1152 1.379 . S
C1152 H1136 0.931 . S
C1152 C1146 1.383 . S
C1152 C1151 1.379 . S
H1153 C1147 0.959 . S
H1154 C1147 0.961 . S
H1155 C1147 0.960 . S
H1156 C1148 0.930 . S
H1157 C1149 0.929 . S
H1158 C1166 0.929 . S
H1159 C1168 0.930 . S
H1160 C1170 0.930 . S
H1161 C1173 0.929 . S
H1162 C1176 0.930 . S
H1163 C1178 0.960 . S
H1164 C1178 0.960 . S
H1165 C1178 0.960 . S
C1166 H1158 0.929 . S
C1166 C1167 1.377 . S
C1166 C1168 1.384 . S
C1167 C1166 1.377 . S
C1167 C1173 1.390 . S
C1168 H1159 0.930 . S
C1168 C1166 1.384 . S
C1168 C1169 1.372 . S
C1169 C1168 1.372 . S
C1169 C1170 1.400 . S
C1169 C1174 1.490 . S
C1170 H1160 0.930 . S
C1170 C1169 1.400 . S
C1170 C1173 1.386 . S
H1171 C1187 0.930 . S
H1172 C1188 0.931 . S
C1173 H1161 0.929 . S
C1173 C1167 1.390 . S
C1173 C1170 1.386 . S
C1174 C1169 1.490 . S
C1174 C1176 1.395 . S
C1174 C1177 1.403 . S
H1175 C1181 0.930 . S
C1176 H1162 0.930 . S
C1176 C1174 1.395 . S
C1176 C1179 1.403 . S
C1177 C1174 1.403 . S
C1177 C1178 1.524 . S
C1177 C1181 1.400 . S
C1178 H1163 0.960 . S
C1178 H1164 0.960 . S
C1178 H1165 0.960 . S
C1178 C1177 1.524 . S
C1179 C1176 1.403 . S
C1179 C1180 1.392 . S
C1179 C1183 1.495 . S
C1180 C1179 1.392 . S
C1180 C1181 1.385 . S
C1180 C1182 1.478 . S
C1181 H1175 0.930 . S
C1181 C1177 1.400 . S
C1181 C1180 1.385 . S
C1182 C1180 1.478 . S
C1182 C1184 1.381 . S
C1182 C1188 1.383 . S
C1183 C1179 1.495 . S
C1183 H1189 0.959 . S
C1183 H1190 0.961 . S
C1183 H1191 0.960 . S
C1184 C1182 1.381 . S
C1184 C1185 1.394 . S
C1184 H1192 0.930 . S
C1185 C1184 1.394 . S
C1185 C1186 1.383 . S
C1185 H1193 0.929 . S
C1186 C1185 1.383 . S
C1186 C1187 1.377 . S
C1187 H1171 0.930 . S
C1187 C1186 1.377 . S
C1187 C1188 1.379 . S
C1188 H1172 0.931 . S
C1188 C1182 1.383 . S
C1188 C1187 1.379 . S
H1189 C1183 0.959 . S
H1190 C1183 0.961 . S
H1191 C1183 0.960 . S
H1192 C1184 0.930 . S
H1193 C1185 0.929 . S
H1194 C1202 0.929 . S
H1195 C1204 0.930 . S
H1196 C1206 0.930 . S
H1197 C1209 0.929 . S
H1198 C1212 0.930 . S
H1199 C1214 0.960 . S
H1200 C1214 0.960 . S
H1201 C1214 0.960 . S
C1202 H1194 0.929 . S
C1202 C1203 1.377 . S
C1202 C1204 1.384 . S
C1203 C1202 1.377 . S
C1203 C1209 1.390 . S
C1204 H1195 0.930 . S
C1204 C1202 1.384 . S
C1204 C1205 1.372 . S
C1205 C1204 1.372 . S
C1205 C1206 1.400 . S
C1205 C1210 1.490 . S
C1206 H1196 0.930 . S
C1206 C1205 1.400 . S
C1206 C1209 1.386 . S
H1207 C1223 0.930 . S
H1208 C1224 0.931 . S
C1209 H1197 0.929 . S
C1209 C1203 1.390 . S
C1209 C1206 1.386 . S
C1210 C1205 1.490 . S
C1210 C1212 1.395 . S
C1210 C1213 1.403 . S
H1211 C1217 0.930 . S
C1212 H1198 0.930 . S
C1212 C1210 1.395 . S
C1212 C1215 1.403 . S
C1213 C1210 1.403 . S
C1213 C1214 1.524 . S
C1213 C1217 1.400 . S
C1214 H1199 0.960 . S
C1214 H1200 0.960 . S
C1214 H1201 0.960 . S
C1214 C1213 1.524 . S
C1215 C1212 1.403 . S
C1215 C1216 1.392 . S
C1215 C1219 1.495 . S
C1216 C1215 1.392 . S
C1216 C1217 1.385 . S
C1216 C1218 1.478 . S
C1217 H1211 0.930 . S
C1217 C1213 1.400 . S
C1217 C1216 1.385 . S
C1218 C1216 1.478 . S
C1218 C1220 1.381 . S
C1218 C1224 1.383 . S
C1219 C1215 1.495 . S
C1219 H1225 0.959 . S
C1219 H1226 0.961 . S
C1219 H1227 0.960 . S
C1220 C1218 1.381 . S
C1220 C1221 1.394 . S
C1220 H1228 0.930 . S
C1221 C1220 1.394 . S
C1221 C1222 1.383 . S
C1221 H1229 0.929 . S
C1222 C1221 1.383 . S
C1222 C1223 1.377 . S
C1223 H1207 0.930 . S
C1223 C1222 1.377 . S
C1223 C1224 1.379 . S
C1224 H1208 0.931 . S
C1224 C1218 1.383 . S
C1224 C1223 1.379 . S
H1225 C1219 0.959 . S
H1226 C1219 0.961 . S
H1227 C1219 0.960 . S
H1228 C1220 0.930 . S
H1229 C1221 0.929 . S
H1230 C1238 0.929 . S
H1231 C1240 0.930 . S
H1232 C1242 0.930 . S
H1233 C1245 0.929 . S
H1234 C1248 0.930 . S
H1235 C1250 0.960 . S
H1236 C1250 0.960 . S
H1237 C1250 0.960 . S
C1238 H1230 0.929 . S
C1238 C1239 1.377 . S
C1238 C1240 1.384 . S
C1239 C1238 1.377 . S
C1239 C1245 1.390 . S
C1240 H1231 0.930 . S
C1240 C1238 1.384 . S
C1240 C1241 1.372 . S
C1241 C1240 1.372 . S
C1241 C1242 1.400 . S
C1241 C1246 1.490 . S
C1242 H1232 0.930 . S
C1242 C1241 1.400 . S
C1242 C1245 1.386 . S
H1243 C1259 0.930 . S
H1244 C1260 0.931 . S
C1245 H1233 0.929 . S
C1245 C1239 1.390 . S
C1245 C1242 1.386 . S
C1246 C1241 1.490 . S
C1246 C1248 1.395 . S
C1246 C1249 1.403 . S
H1247 C1253 0.930 . S
C1248 H1234 0.930 . S
C1248 C1246 1.395 . S
C1248 C1251 1.403 . S
C1249 C1246 1.403 . S
C1249 C1250 1.524 . S
C1249 C1253 1.400 . S
C1250 H1235 0.960 . S
C1250 H1236 0.960 . S
C1250 H1237 0.960 . S
C1250 C1249 1.524 . S
C1251 C1248 1.403 . S
C1251 C1252 1.392 . S
C1251 C1255 1.495 . S
C1252 C1251 1.392 . S
C1252 C1253 1.385 . S
C1252 C1254 1.478 . S
C1253 H1247 0.930 . S
C1253 C1249 1.400 . S
C1253 C1252 1.385 . S
C1254 C1252 1.478 . S
C1254 C1256 1.381 . S
C1254 C1260 1.383 . S
C1255 C1251 1.495 . S
C1255 H1261 0.959 . S
C1255 H1262 0.961 . S
C1255 H1263 0.960 . S
C1256 C1254 1.381 . S
C1256 C1257 1.394 . S
C1256 H1264 0.930 . S
C1257 C1256 1.394 . S
C1257 C1258 1.383 . S
C1257 H1265 0.929 . S
C1258 C1257 1.383 . S
C1258 C1259 1.377 . S
C1259 H1243 0.930 . S
C1259 C1258 1.377 . S
C1259 C1260 1.379 . S
C1260 H1244 0.931 . S
C1260 C1254 1.383 . S
C1260 C1259 1.379 . S
H1261 C1255 0.959 . S
H1262 C1255 0.961 . S
H1263 C1255 0.960 . S
H1264 C1256 0.930 . S
H1265 C1257 0.929 . S
H1266 C1274 0.929 . S
H1267 C1276 0.930 . S
H1268 C1278 0.930 . S
H1269 C1281 0.929 . S
H1270 C1284 0.930 . S
H1271 C1286 0.960 . S
H1272 C1286 0.960 . S
H1273 C1286 0.960 . S
C1274 H1266 0.929 . S
C1274 C1275 1.377 . S
C1274 C1276 1.384 . S
C1275 C1274 1.377 . S
C1275 C1281 1.390 . S
C1276 H1267 0.930 . S
C1276 C1274 1.384 . S
C1276 C1277 1.372 . S
C1277 C1276 1.372 . S
C1277 C1278 1.400 . S
C1277 C1282 1.490 . S
C1278 H1268 0.930 . S
C1278 C1277 1.400 . S
C1278 C1281 1.386 . S
H1279 C1295 0.930 . S
H1280 C1296 0.931 . S
C1281 H1269 0.929 . S
C1281 C1275 1.390 . S
C1281 C1278 1.386 . S
C1282 C1277 1.490 . S
C1282 C1284 1.395 . S
C1282 C1285 1.403 . S
H1283 C1289 0.930 . S
C1284 H1270 0.930 . S
C1284 C1282 1.395 . S
C1284 C1287 1.403 . S
C1285 C1282 1.403 . S
C1285 C1286 1.524 . S
C1285 C1289 1.400 . S
C1286 H1271 0.960 . S
C1286 H1272 0.960 . S
C1286 H1273 0.960 . S
C1286 C1285 1.524 . S
C1287 C1284 1.403 . S
C1287 C1288 1.392 . S
C1287 C1291 1.495 . S
C1288 C1287 1.392 . S
C1288 C1289 1.385 . S
C1288 C1290 1.478 . S
C1289 H1283 0.930 . S
C1289 C1285 1.400 . S
C1289 C1288 1.385 . S
C1290 C1288 1.478 . S
C1290 C1292 1.381 . S
C1290 C1296 1.383 . S
C1291 C1287 1.495 . S
C1291 H1297 0.959 . S
C1291 H1298 0.961 . S
C1291 H1299 0.960 . S
C1292 C1290 1.381 . S
C1292 C1293 1.394 . S
C1292 H1300 0.930 . S
C1293 C1292 1.394 . S
C1293 C1294 1.383 . S
C1293 H1301 0.929 . S
C1294 C1293 1.383 . S
C1294 C1295 1.377 . S
C1295 H1279 0.930 . S
C1295 C1294 1.377 . S
C1295 C1296 1.379 . S
C1296 H1280 0.931 . S
C1296 C1290 1.383 . S
C1296 C1295 1.379 . S
H1297 C1291 0.959 . S
H1298 C1291 0.961 . S
H1299 C1291 0.960 . S
H1300 C1292 0.930 . S
H1301 C1293 0.929 . S
H1302 C1310 0.929 . S
H1303 C1312 0.930 . S
H1304 C1314 0.930 . S
H1305 C1317 0.929 . S
H1306 C1320 0.930 . S
H1307 C1322 0.960 . S
H1308 C1322 0.960 . S
H1309 C1322 0.960 . S
C1310 H1302 0.929 . S
C1310 C1311 1.377 . S
C1310 C1312 1.384 . S
C1311 C1310 1.377 . S
C1311 C1317 1.390 . S
C1312 H1303 0.930 . S
C1312 C1310 1.384 . S
C1312 C1313 1.372 . S
C1313 C1312 1.372 . S
C1313 C1314 1.400 . S
C1313 C1318 1.490 . S
C1314 H1304 0.930 . S
C1314 C1313 1.400 . S
C1314 C1317 1.386 . S
H1315 C1331 0.930 . S
H1316 C1332 0.931 . S
C1317 H1305 0.929 . S
C1317 C1311 1.390 . S
C1317 C1314 1.386 . S
C1318 C1313 1.490 . S
C1318 C1320 1.395 . S
C1318 C1321 1.403 . S
H1319 C1325 0.930 . S
C1320 H1306 0.930 . S
C1320 C1318 1.395 . S
C1320 C1323 1.403 . S
C1321 C1318 1.403 . S
C1321 C1322 1.524 . S
C1321 C1325 1.400 . S
C1322 H1307 0.960 . S
C1322 H1308 0.960 . S
C1322 H1309 0.960 . S
C1322 C1321 1.524 . S
C1323 C1320 1.403 . S
C1323 C1324 1.392 . S
C1323 C1327 1.495 . S
C1324 C1323 1.392 . S
C1324 C1325 1.385 . S
C1324 C1326 1.478 . S
C1325 H1319 0.930 . S
C1325 C1321 1.400 . S
C1325 C1324 1.385 . S
C1326 C1324 1.478 . S
C1326 C1328 1.381 . S
C1326 C1332 1.383 . S
C1327 C1323 1.495 . S
C1327 H1333 0.959 . S
C1327 H1334 0.961 . S
C1327 H1335 0.960 . S
C1328 C1326 1.381 . S
C1328 C1329 1.394 . S
C1328 H1336 0.930 . S
C1329 C1328 1.394 . S
C1329 C1330 1.383 . S
C1329 H1337 0.929 . S
C1330 C1329 1.383 . S
C1330 C1331 1.377 . S
C1331 H1315 0.930 . S
C1331 C1330 1.377 . S
C1331 C1332 1.379 . S
C1332 H1316 0.931 . S
C1332 C1326 1.383 . S
C1332 C1331 1.379 . S
H1333 C1327 0.959 . S
H1334 C1327 0.961 . S
H1335 C1327 0.960 . S
H1336 C1328 0.930 . S
H1337 C1329 0.929 . S
H1338 C1346 0.929 . S
H1339 C1348 0.930 . S
H1340 C1350 0.930 . S
H1341 C1353 0.929 . S
H1342 C1356 0.930 . S
H1343 C1358 0.960 . S
H1344 C1358 0.960 . S
H1345 C1358 0.960 . S
C1346 H1338 0.929 . S
C1346 C1347 1.377 . S
C1346 C1348 1.384 . S
C1347 C1346 1.377 . S
C1347 C1353 1.390 . S
C1348 H1339 0.930 . S
C1348 C1346 1.384 . S
C1348 C1349 1.372 . S
C1349 C1348 1.372 . S
C1349 C1350 1.400 . S
C1349 C1354 1.490 . S
C1350 H1340 0.930 . S
C1350 C1349 1.400 . S
C1350 C1353 1.386 . S
H1351 C1367 0.930 . S
H1352 C1368 0.931 . S
C1353 H1341 0.929 . S
C1353 C1347 1.390 . S
C1353 C1350 1.386 . S
C1354 C1349 1.490 . S
C1354 C1356 1.395 . S
C1354 C1357 1.403 . S
H1355 C1361 0.930 . S
C1356 H1342 0.930 . S
C1356 C1354 1.395 . S
C1356 C1359 1.403 . S
C1357 C1354 1.403 . S
C1357 C1358 1.524 . S
C1357 C1361 1.400 . S
C1358 H1343 0.960 . S
C1358 H1344 0.960 . S
C1358 H1345 0.960 . S
C1358 C1357 1.524 . S
C1359 C1356 1.403 . S
C1359 C1360 1.392 . S
C1359 C1363 1.495 . S
C1360 C1359 1.392 . S
C1360 C1361 1.385 . S
C1360 C1362 1.478 . S
C1361 H1355 0.930 . S
C1361 C1357 1.400 . S
C1361 C1360 1.385 . S
C1362 C1360 1.478 . S
C1362 C1364 1.381 . S
C1362 C1368 1.383 . S
C1363 C1359 1.495 . S
C1363 H1369 0.959 . S
C1363 H1370 0.961 . S
C1363 H1371 0.960 . S
C1364 C1362 1.381 . S
C1364 C1365 1.394 . S
C1364 H1372 0.930 . S
C1365 C1364 1.394 . S
C1365 C1366 1.383 . S
C1365 H1373 0.929 . S
C1366 C1365 1.383 . S
C1366 C1367 1.377 . S
C1367 H1351 0.930 . S
C1367 C1366 1.377 . S
C1367 C1368 1.379 . S
C1368 H1352 0.931 . S
C1368 C1362 1.383 . S
C1368 C1367 1.379 . S
H1369 C1363 0.959 . S
H1370 C1363 0.961 . S
H1371 C1363 0.960 . S
H1372 C1364 0.930 . S
H1373 C1365 0.929 . S
H1374 C1382 0.929 . S
H1375 C1384 0.930 . S
H1376 C1386 0.930 . S
H1377 C1389 0.929 . S
H1378 C1392 0.930 . S
H1379 C1394 0.960 . S
H1380 C1394 0.960 . S
H1381 C1394 0.960 . S
C1382 H1374 0.929 . S
C1382 C1383 1.377 . S
C1382 C1384 1.384 . S
C1383 C1382 1.377 . S
C1383 C1389 1.390 . S
C1384 H1375 0.930 . S
C1384 C1382 1.384 . S
C1384 C1385 1.372 . S
C1385 C1384 1.372 . S
C1385 C1386 1.400 . S
C1385 C1390 1.490 . S
C1386 H1376 0.930 . S
C1386 C1385 1.400 . S
C1386 C1389 1.386 . S
H1387 C1403 0.930 . S
H1388 C1404 0.931 . S
C1389 H1377 0.929 . S
C1389 C1383 1.390 . S
C1389 C1386 1.386 . S
C1390 C1385 1.490 . S
C1390 C1392 1.395 . S
C1390 C1393 1.403 . S
H1391 C1397 0.930 . S
C1392 H1378 0.930 . S
C1392 C1390 1.395 . S
C1392 C1395 1.403 . S
C1393 C1390 1.403 . S
C1393 C1394 1.524 . S
C1393 C1397 1.400 . S
C1394 H1379 0.960 . S
C1394 H1380 0.960 . S
C1394 H1381 0.960 . S
C1394 C1393 1.524 . S
C1395 C1392 1.403 . S
C1395 C1396 1.392 . S
C1395 C1399 1.495 . S
C1396 C1395 1.392 . S
C1396 C1397 1.385 . S
C1396 C1398 1.478 . S
C1397 H1391 0.930 . S
C1397 C1393 1.400 . S
C1397 C1396 1.385 . S
C1398 C1396 1.478 . S
C1398 C1400 1.381 . S
C1398 C1404 1.383 . S
C1399 C1395 1.495 . S
C1399 H1405 0.959 . S
C1399 H1406 0.961 . S
C1399 H1407 0.960 . S
C1400 C1398 1.381 . S
C1400 C1401 1.394 . S
C1400 H1408 0.930 . S
C1401 C1400 1.394 . S
C1401 C1402 1.383 . S
C1401 H1409 0.929 . S
C1402 C1401 1.383 . S
C1402 C1403 1.377 . S
C1403 H1387 0.930 . S
C1403 C1402 1.377 . S
C1403 C1404 1.379 . S
C1404 H1388 0.931 . S
C1404 C1398 1.383 . S
C1404 C1403 1.379 . S
H1405 C1399 0.959 . S
H1406 C1399 0.961 . S
H1407 C1399 0.960 . S
H1408 C1400 0.930 . S
H1409 C1401 0.929 . S
H1410 C1418 0.929 . S
H1411 C1420 0.930 . S
H1412 C1422 0.930 . S
H1413 C1425 0.929 . S
H1414 C1428 0.930 . S
H1415 C1430 0.960 . S
H1416 C1430 0.960 . S
H1417 C1430 0.960 . S
C1418 H1410 0.929 . S
C1418 C1419 1.377 . S
C1418 C1420 1.384 1_455 S
C1419 C1418 1.377 . S
C1419 C1425 1.390 1_455 S
C1420 H1411 0.930 . S
C1420 C1418 1.384 1_655 S
C1420 C1421 1.372 . S
C1421 C1420 1.372 . S
C1421 C1422 1.400 . S
C1421 C1426 1.490 . S
C1422 H1412 0.930 . S
C1422 C1421 1.400 . S
C1422 C1425 1.386 . S
H1423 C1439 0.930 . S
H1424 C1440 0.931 . S
C1425 H1413 0.929 . S
C1425 C1419 1.390 1_655 S
C1425 C1422 1.386 . S
C1426 C1421 1.490 . S
C1426 C1428 1.395 . S
C1426 C1429 1.403 . S
H1427 C1433 0.930 . S
C1428 H1414 0.930 . S
C1428 C1426 1.395 . S
C1428 C1431 1.403 . S
C1429 C1426 1.403 . S
C1429 C1430 1.524 . S
C1429 C1433 1.400 . S
C1430 H1415 0.960 . S
C1430 H1416 0.960 . S
C1430 H1417 0.960 . S
C1430 C1429 1.524 . S
C1431 C1428 1.403 . S
C1431 C1432 1.392 . S
C1431 C1435 1.495 . S
C1432 C1431 1.392 . S
C1432 C1433 1.385 . S
C1432 C1434 1.478 . S
C1433 H1427 0.930 . S
C1433 C1429 1.400 . S
C1433 C1432 1.385 . S
C1434 C1432 1.478 . S
C1434 C1436 1.381 . S
C1434 C1440 1.383 . S
C1435 C1431 1.495 . S
C1435 H1441 0.959 . S
C1435 H1442 0.961 . S
C1435 H1443 0.960 . S
C1436 C1434 1.381 . S
C1436 C1437 1.394 . S
C1436 H1444 0.930 . S
C1437 C1436 1.394 . S
C1437 C1438 1.383 . S
C1437 H1445 0.929 . S
C1438 C1437 1.383 . S
C1438 C1439 1.377 . S
C1439 H1423 0.930 . S
C1439 C1438 1.377 . S
C1439 C1440 1.379 . S
C1440 H1424 0.931 . S
C1440 C1434 1.383 . S
C1440 C1439 1.379 . S
H1441 C1435 0.959 . S
H1442 C1435 0.961 . S
H1443 C1435 0.960 . S
H1444 C1436 0.930 . S
H1445 C1437 0.929 . S
H1446 C1454 0.929 . S
H1447 C1456 0.930 . S
H1448 C1458 0.930 . S
H1449 C1461 0.929 . S
H1450 C1464 0.930 . S
H1451 C1466 0.960 . S
H1452 C1466 0.960 . S
H1453 C1466 0.960 . S
C1454 H1446 0.929 . S
C1454 C1455 1.377 . S
C1454 C1456 1.384 . S
C1455 C1454 1.377 . S
C1455 C1461 1.390 . S
C1456 H1447 0.930 . S
C1456 C1454 1.384 . S
C1456 C1457 1.372 . S
C1457 C1456 1.372 . S
C1457 C1458 1.400 . S
C1457 C1462 1.490 . S
C1458 H1448 0.930 . S
C1458 C1457 1.400 . S
C1458 C1461 1.386 . S
H1459 C1475 0.930 . S
H1460 C1476 0.931 . S
C1461 H1449 0.929 . S
C1461 C1455 1.390 . S
C1461 C1458 1.386 . S
C1462 C1457 1.490 . S
C1462 C1464 1.395 . S
C1462 C1465 1.403 . S
H1463 C1469 0.930 . S
C1464 H1450 0.930 . S
C1464 C1462 1.395 . S
C1464 C1467 1.403 . S
C1465 C1462 1.403 . S
C1465 C1466 1.524 . S
C1465 C1469 1.400 . S
C1466 H1451 0.960 . S
C1466 H1452 0.960 . S
C1466 H1453 0.960 . S
C1466 C1465 1.524 . S
C1467 C1464 1.403 . S
C1467 C1468 1.392 . S
C1467 C1471 1.495 . S
C1468 C1467 1.392 . S
C1468 C1469 1.385 . S
C1468 C1470 1.478 . S
C1469 H1463 0.930 . S
C1469 C1465 1.400 . S
C1469 C1468 1.385 . S
C1470 C1468 1.478 . S
C1470 C1472 1.381 . S
C1470 C1476 1.383 . S
C1471 C1467 1.495 . S
C1471 H1477 0.959 . S
C1471 H1478 0.961 . S
C1471 H1479 0.960 . S
C1472 C1470 1.381 . S
C1472 C1473 1.394 . S
C1472 H1480 0.930 . S
C1473 C1472 1.394 . S
C1473 C1474 1.383 . S
C1473 H1481 0.929 . S
C1474 C1473 1.383 . S
C1474 C1475 1.377 . S
C1475 H1459 0.930 . S
C1475 C1474 1.377 . S
C1475 C1476 1.379 . S
C1476 H1460 0.931 . S
C1476 C1470 1.383 . S
C1476 C1475 1.379 . S
H1477 C1471 0.959 . S
H1478 C1471 0.961 . S
H1479 C1471 0.960 . S
H1480 C1472 0.930 . S
H1481 C1473 0.929 . S
H1482 C1490 0.929 . S
H1483 C1492 0.930 . S
H1484 C1494 0.930 . S
H1485 C1497 0.929 . S
H1486 C1500 0.930 . S
H1487 C1502 0.960 . S
H1488 C1502 0.960 . S
H1489 C1502 0.960 . S
C1490 H1482 0.929 . S
C1490 C1491 1.377 . S
C1490 C1492 1.384 . S
C1491 C1490 1.377 . S
C1491 C1497 1.390 . S
C1492 H1483 0.930 . S
C1492 C1490 1.384 . S
C1492 C1493 1.372 . S
C1493 C1492 1.372 . S
C1493 C1494 1.400 . S
C1493 C1498 1.490 . S
C1494 H1484 0.930 . S
C1494 C1493 1.400 . S
C1494 C1497 1.386 . S
H1495 C1511 0.930 . S
H1496 C1512 0.931 . S
C1497 H1485 0.929 . S
C1497 C1491 1.390 . S
C1497 C1494 1.386 . S
C1498 C1493 1.490 . S
C1498 C1500 1.395 . S
C1498 C1501 1.403 . S
H1499 C1505 0.930 . S
C1500 H1486 0.930 . S
C1500 C1498 1.395 . S
C1500 C1503 1.403 . S
C1501 C1498 1.403 . S
C1501 C1502 1.524 . S
C1501 C1505 1.400 . S
C1502 H1487 0.960 . S
C1502 H1488 0.960 . S
C1502 H1489 0.960 . S
C1502 C1501 1.524 . S
C1503 C1500 1.403 . S
C1503 C1504 1.392 . S
C1503 C1507 1.495 . S
C1504 C1503 1.392 . S
C1504 C1505 1.385 . S
C1504 C1506 1.478 . S
C1505 H1499 0.930 . S
C1505 C1501 1.400 . S
C1505 C1504 1.385 . S
C1506 C1504 1.478 . S
C1506 C1508 1.381 . S
C1506 C1512 1.383 . S
C1507 C1503 1.495 . S
C1507 H1513 0.959 . S
C1507 H1514 0.961 . S
C1507 H1515 0.960 . S
C1508 C1506 1.381 . S
C1508 C1509 1.394 . S
C1508 H1516 0.930 . S
C1509 C1508 1.394 . S
C1509 C1510 1.383 . S
C1509 H1517 0.929 . S
C1510 C1509 1.383 . S
C1510 C1511 1.377 . S
C1511 H1495 0.930 . S
C1511 C1510 1.377 . S
C1511 C1512 1.379 . S
C1512 H1496 0.931 . S
C1512 C1506 1.383 . S
C1512 C1511 1.379 . S
H1513 C1507 0.959 . S
H1514 C1507 0.961 . S
H1515 C1507 0.960 . S
H1516 C1508 0.930 . S
H1517 C1509 0.929 . S
H1518 C1526 0.929 . S
H1519 C1528 0.930 . S
H1520 C1530 0.930 . S
H1521 C1533 0.929 . S
H1522 C1536 0.930 . S
H1523 C1538 0.960 . S
H1524 C1538 0.960 . S
H1525 C1538 0.960 . S
C1526 H1518 0.929 . S
C1526 C1527 1.377 . S
C1526 C1528 1.384 . S
C1527 C1526 1.377 . S
C1527 C1533 1.390 . S
C1528 H1519 0.930 . S
C1528 C1526 1.384 . S
C1528 C1529 1.372 . S
C1529 C1528 1.372 . S
C1529 C1530 1.400 . S
C1529 C1534 1.490 . S
C1530 H1520 0.930 . S
C1530 C1529 1.400 . S
C1530 C1533 1.386 . S
H1531 C1547 0.930 . S
H1532 C1548 0.931 . S
C1533 H1521 0.929 . S
C1533 C1527 1.390 . S
C1533 C1530 1.386 . S
C1534 C1529 1.490 . S
C1534 C1536 1.395 . S
C1534 C1537 1.403 . S
H1535 C1541 0.930 . S
C1536 H1522 0.930 . S
C1536 C1534 1.395 . S
C1536 C1539 1.403 . S
C1537 C1534 1.403 . S
C1537 C1538 1.524 . S
C1537 C1541 1.400 . S
C1538 H1523 0.960 . S
C1538 H1524 0.960 . S
C1538 H1525 0.960 . S
C1538 C1537 1.524 . S
C1539 C1536 1.403 . S
C1539 C1540 1.392 . S
C1539 C1543 1.495 . S
C1540 C1539 1.392 . S
C1540 C1541 1.385 . S
C1540 C1542 1.478 . S
C1541 H1535 0.930 . S
C1541 C1537 1.400 . S
C1541 C1540 1.385 . S
C1542 C1540 1.478 . S
C1542 C1544 1.381 . S
C1542 C1548 1.383 . S
C1543 C1539 1.495 . S
C1543 H1549 0.959 . S
C1543 H1550 0.961 . S
C1543 H1551 0.960 . S
C1544 C1542 1.381 . S
C1544 C1545 1.394 . S
C1544 H1552 0.930 . S
C1545 C1544 1.394 . S
C1545 C1546 1.383 . S
C1545 H1553 0.929 . S
C1546 C1545 1.383 . S
C1546 C1547 1.377 . S
C1547 H1531 0.930 . S
C1547 C1546 1.377 . S
C1547 C1548 1.379 . S
C1548 H1532 0.931 . S
C1548 C1542 1.383 . S
C1548 C1547 1.379 . S
H1549 C1543 0.959 . S
H1550 C1543 0.961 . S
H1551 C1543 0.960 . S
H1552 C1544 0.930 . S
H1553 C1545 0.929 . S
C699 C39 1.744 . S
C718 C371 1.683 . S
C735 C91 1.752 . S
C754 C415 1.676 . S
C790 C495 1.381 . S
C771 C128 1.460 . S
C826 C539 1.473 . S
C807 C188 1.514 1_655 S
C862 C619 1.579 . S
C843 C250 1.667 . S
C898 C675 1.744 . S
C879 C304 1.914 . S
C915 C75 1.873 . S
C934 C471 1.654 . S
C951 C144 1.753 . S
C970 C551 1.593 . S
C1006 C595 1.645 . S
C987 C198 1.836 . S
C1042 C663 1.417 . S
C1023 C234 1.470 . S
C1059 C294 1.515 . S
C1078 C347 1.363 . S
C1114 C427 1.630 . S
C1095 C29 1.658 1_556 S
C1150 C533 1.776 . S
C1131 C38 1.899 . S
C1167 C92 1.720 . S
C1186 C613 1.598 . S
C1222 C681 1.471 . S
C1203 C135 1.495 . S
C1239 C181 1.668 . S
C1258 C365 1.545 . S
C1275 C251 1.600 . S
C1294 C409 1.520 . S
C1311 C303 1.942 . S
C1330 C489 1.760 . S
C1347 C82 1.845 . S
C1366 C657 1.692 . S
C1402 C353 1.666 . S
C1383 C145 1.780 . S
C1419 C197 1.668 . S
C1438 C433 1.606 . S
C1455 C241 1.433 . S
C1474 C477 1.357 . S
C1491 C287 1.580 . S
C1510 C557 1.532 . S
C1527 C22 1.542 . S
C1546 C601 1.497 . S
