# Generated by pormake.
# Topology anh, (6,3)-cn, num edge types: 1
# Building blocks:
#     Node 0, Type 0, BuildingBlock: MIFKUJ_clean_sbu_0, # of connection points: 6
#     Node 1, Type 0, BuildingBlock: MIFKUJ_clean_sbu_0, # of connection points: 6
#     Node 2, Type 0, BuildingBlock: MIFKUJ_clean_sbu_0, # of connection points: 6
#     Node 3, Type 1, BuildingBlock: BELTOD_clean_linker_0, # of connection points: 3
#     Node 4, Type 1, BuildingBlock: BELTOD_clean_linker_0, # of connection points: 3
#     Node 5, Type 1, BuildingBlock: BELTOD_clean_linker_0, # of connection points: 3
#     Node 6, Type 1, BuildingBlock: BELTOD_clean_linker_0, # of connection points: 3
#     Node 7, Type 1, BuildingBlock: BELTOD_clean_linker_0, # of connection points: 3
#     Node 8, Type 1, BuildingBlock: BELTOD_clean_linker_0, # of connection points: 3
#     Edge 9, Type (0, 1), BuildingBlock: OJICUG_clean_linker_0, # of connection points: 2
#     Edge 10, Type (0, 1), BuildingBlock: OJICUG_clean_linker_0, # of connection points: 2
#     Edge 11, Type (0, 1), BuildingBlock: OJICUG_clean_linker_0, # of connection points: 2
#     Edge 12, Type (0, 1), BuildingBlock: OJICUG_clean_linker_0, # of connection points: 2
#     Edge 13, Type (0, 1), BuildingBlock: OJICUG_clean_linker_0, # of connection points: 2
#     Edge 14, Type (0, 1), BuildingBlock: OJICUG_clean_linker_0, # of connection points: 2
#     Edge 15, Type (0, 1), BuildingBlock: OJICUG_clean_linker_0, # of connection points: 2
#     Edge 16, Type (0, 1), BuildingBlock: OJICUG_clean_linker_0, # of connection points: 2
#     Edge 17, Type (0, 1), BuildingBlock: OJICUG_clean_linker_0, # of connection points: 2
#     Edge 18, Type (0, 1), BuildingBlock: OJICUG_clean_linker_0, # of connection points: 2
#     Edge 19, Type (0, 1), BuildingBlock: OJICUG_clean_linker_0, # of connection points: 2
#     Edge 20, Type (0, 1), BuildingBlock: OJICUG_clean_linker_0, # of connection points: 2
#     Edge 21, Type (0, 1), BuildingBlock: OJICUG_clean_linker_0, # of connection points: 2
#     Edge 22, Type (0, 1), BuildingBlock: OJICUG_clean_linker_0, # of connection points: 2
#     Edge 23, Type (0, 1), BuildingBlock: OJICUG_clean_linker_0, # of connection points: 2
#     Edge 24, Type (0, 1), BuildingBlock: OJICUG_clean_linker_0, # of connection points: 2
#     Edge 25, Type (0, 1), BuildingBlock: OJICUG_clean_linker_0, # of connection points: 2
#     Edge 26, Type (0, 1), BuildingBlock: OJICUG_clean_linker_0, # of connection points: 2
# Relax obj value: 0.123
# Max RMSD: 0.180
# Mean RMSD: 0.143
data_MOF--net-anh--node1-MIFKUJ_clean_sbu_0--node2-BELTOD_clean_linker_0--edge1-OJICUG_clean_linker_0
_symmetry_space_group_name_H-M    P1
_symmetry_Int_Tables_number       1
_symmetry_cell_setting            triclinic
loop_
_symmetry_equiv_pos_as_xyz
'x, y, z'
_cell_length_a     26.971641
_cell_length_b     27.049188
_cell_length_c     43.82945
_cell_angle_alpha  93.983411
_cell_angle_beta   90.556534
_cell_angle_gamma 119.80336
loop_
_atom_site_label
_atom_site_type_symbol
_atom_site_fract_x
_atom_site_fract_y
_atom_site_fract_z
_atom_type_partial_charge
Zn0 Zn 0.04583 0.63086 0.16293 0.0
Zn1 Zn 0.88842 0.50866 0.15713 0.0
C2 C 0.12309 0.59087 0.16539 0.0
O3 O 0.13696 0.62564 0.19042 0.0
C4 C 0.80409 0.53572 0.13422 0.0
O5 O 0.82495 0.5318 0.10778 0.0
O6 O 0.11126 0.71159 0.16409 0.0
O7 O 0.98204 0.62025 0.13445 0.0
O8 O 0.9307 0.52968 0.11818 0.0
C9 C 0.14408 0.72362 0.14182 0.0
O10 O 0.12942 0.68579 0.11811 0.0
O11 O 0.08073 0.58267 0.14831 0.0
C12 C 0.81765 0.40647 0.18147 0.0
O13 O 0.82119 0.4448 0.20285 0.0
O14 O 0.84453 0.42335 0.15724 0.0
O15 O 0.93659 0.53589 0.19689 0.0
O16 O 0.02332 0.61144 0.20582 0.0
O17 O 0.82694 0.53104 0.15856 0.0
C18 C 0.96627 0.58075 0.11299 0.0
C19 C 0.97943 0.56865 0.21501 0.0
Zn20 Zn 0.54974 0.06184 0.50256 0.0
Zn21 Zn 0.50824 0.90241 0.50732 0.0
C22 C 0.67198 0.13278 0.50926 0.0
O23 O 0.66051 0.13922 0.53784 0.0
C24 C 0.38437 0.82979 0.49291 0.0
O25 O 0.38871 0.87363 0.4795 0.0
O26 O 0.53674 0.12863 0.50283 0.0
O27 O 0.49753 0.00411 0.46866 0.0
O28 O 0.52107 0.93649 0.46698 0.0
C29 C 0.55378 0.15959 0.48042 0.0
O30 O 0.57307 0.14307 0.45672 0.0
O31 O 0.63173 0.09725 0.49043 0.0
C32 C 0.58762 0.87072 0.53279 0.0
O33 O 0.58494 0.89783 0.55821 0.0
O34 O 0.55981 0.86883 0.50878 0.0
O35 O 0.52129 0.95066 0.54663 0.0
O36 O 0.54313 0.04112 0.54629 0.0
O37 O 0.42856 0.83386 0.50614 0.0
C38 C 0.51108 0.97105 0.45365 0.0
C39 C 0.53299 0.99813 0.56068 0.0
Zn40 Zn 0.5576 0.46854 0.83103 0.0
Zn41 Zn 0.4392 0.50097 0.81745 0.0
C42 C 0.54579 0.36659 0.85449 0.0
O43 O 0.57383 0.40265 0.87836 0.0
C44 C 0.46954 0.61316 0.81255 0.0
O45 O 0.43282 0.58396 0.78939 0.0
O46 O 0.64291 0.50576 0.83602 0.0
O47 O 0.53819 0.47921 0.78877 0.0
O48 O 0.46485 0.49036 0.77575 0.0
C49 C 0.67921 0.55092 0.82448 0.0
O50 O 0.66145 0.57892 0.80843 0.0
O51 O 0.53076 0.38444 0.83205 0.0
C52 C 0.33787 0.48962 0.8403 0.0
O53 O 0.36755 0.4949 0.86546 0.0
O54 O 0.35798 0.48627 0.8146 0.0
O55 O 0.44044 0.45119 0.84973 0.0
O56 O 0.53005 0.49614 0.86722 0.0
O57 O 0.48434 0.5865 0.83007 0.0
C58 C 0.50787 0.48539 0.76872 0.0
C59 C 0.47727 0.47441 0.87198 0.0
P60 P 0.55998 0.97844 0.21861 0.0
H61 H 0.49044 0.86311 0.18947 0.0
H62 H 0.3937 0.81187 0.1658 0.0
H63 H 0.382 0.96539 0.17867 0.0
H64 H 0.47952 0.01702 0.2018 0.0
H65 H 0.65393 0.03491 0.17795 0.0
H66 H 0.71554 0.13515 0.1686 0.0
H67 H 0.61921 0.1825 0.23048 0.0
H68 H 0.55966 0.08275 0.24063 0.0
H69 H 0.46987 0.97821 0.25635 0.0
H70 H 0.62763 0.97659 0.27017 0.0
O71 O 0.59517 0.94375 0.20931 0.0
H72 H 0.45712 0.97711 0.31138 0.0
H73 H 0.61531 0.97596 0.32535 0.0
C74 C 0.49242 0.94399 0.19713 0.0
C75 C 0.46774 0.88622 0.18652 0.0
C76 C 0.4125 0.857 0.17294 0.0
C77 C 0.38062 0.88485 0.17032 0.0
C78 C 0.40582 0.94308 0.1804 0.0
C79 C 0.46157 0.97257 0.1935 0.0
C80 C 0.60288 0.05163 0.21033 0.0
C81 C 0.64626 0.06697 0.18954 0.0
C82 C 0.68116 0.12427 0.18403 0.0
C83 C 0.67269 0.167 0.199 0.0
C84 C 0.62783 0.15092 0.2191 0.0
C85 C 0.59341 0.09378 0.22478 0.0
C86 C 0.54904 0.97601 0.25904 0.0
C87 C 0.50161 0.9772 0.27112 0.0
C88 C 0.49459 0.97716 0.30267 0.0
C89 C 0.53497 0.97601 0.32265 0.0
C90 C 0.58294 0.97582 0.31047 0.0
C91 C 0.59004 0.97617 0.27895 0.0
P92 P 0.70528 0.57185 0.56176 0.0
H93 H 0.75261 0.51355 0.52383 0.0
H94 H 0.70877 0.41722 0.4982 0.0
H95 H 0.54134 0.3905 0.51891 0.0
H96 H 0.58538 0.48662 0.54467 0.0
H97 H 0.77095 0.69383 0.57752 0.0
H98 H 0.7539 0.77175 0.56709 0.0
H99 H 0.60934 0.65474 0.50625 0.0
H100 H 0.62788 0.57765 0.51604 0.0
H101 H 0.73153 0.54329 0.6207 0.0
H102 H 0.5987 0.56621 0.58028 0.0
O103 O 0.7741 0.59252 0.56882 0.0
H104 H 0.68135 0.52058 0.66814 0.0
H105 H 0.5462 0.53978 0.62673 0.0
C106 C 0.67241 0.50693 0.53672 0.0
C107 C 0.70643 0.48748 0.52232 0.0
C108 C 0.68124 0.43244 0.50749 0.0
C109 C 0.6216 0.39605 0.50689 0.0
C110 C 0.58745 0.41727 0.51945 0.0
C111 C 0.61268 0.47233 0.53418 0.0
C112 C 0.70103 0.63016 0.54736 0.0
C113 C 0.73677 0.68545 0.56114 0.0
C114 C 0.72659 0.72979 0.55543 0.0
C115 C 0.67991 0.71931 0.53611 0.0
C116 C 0.64605 0.66443 0.52099 0.0
C117 C 0.6565 0.62013 0.52664 0.0
C118 C 0.6692 0.55699 0.5971 0.0
C119 C 0.69144 0.54326 0.62202 0.0
C120 C 0.66214 0.52948 0.64902 0.0
C121 C 0.60925 0.52785 0.65135 0.0
C122 C 0.58709 0.54141 0.6261 0.0
C123 C 0.61699 0.5562 0.59935 0.0
P124 P 0.09297 0.67354 0.89092 0.0
H125 H 0.1833 0.69563 0.8485 0.0
H126 H 0.23071 0.64184 0.83234 0.0
H127 H 0.1145 0.50277 0.8839 0.0
H128 H 0.06798 0.55716 0.9003 0.0
H129 H 0.03434 0.73829 0.88576 0.0
H130 H 0.93864 0.71125 0.86546 0.0
H131 H 0.91527 0.54794 0.82928 0.0
H132 H 0.0107 0.57506 0.84982 0.0
H133 H 0.15559 0.72326 0.95024 0.0
H134 H 0.98797 0.58845 0.91699 0.0
O135 O 0.14144 0.74272 0.89045 0.0
H136 H 0.12906 0.7014 0.00302 0.0
H137 H 0.961 0.56715 0.96931 0.0
C138 C 0.12324 0.63106 0.87627 0.0
C139 C 0.16781 0.6534 0.85613 0.0
C140 C 0.19448 0.62232 0.84666 0.0
C141 C 0.17669 0.5682 0.85707 0.0
C142 C 0.12983 0.54474 0.87591 0.0
C143 C 0.10325 0.57586 0.88535 0.0
C144 C 0.02984 0.65899 0.869 0.0
C145 C 0.00928 0.6974 0.87261 0.0
C146 C 0.95459 0.6819 0.861 0.0
C147 C 0.91936 0.62734 0.84596 0.0
C148 C 0.94131 0.59007 0.84104 0.0
C149 C 0.99608 0.60573 0.85255 0.0
C150 C 0.07344 0.65828 0.92974 0.0
C151 C 0.11299 0.68934 0.9543 0.0
C152 C 0.09774 0.67687 0.98442 0.0
C153 C 0.04286 0.63262 0.99035 0.0
C154 C 0.00376 0.60111 0.96554 0.0
C155 C 0.01899 0.61371 0.93556 0.0
P156 P 0.04657 0.43607 0.42042 0.0
H157 H 0.16269 0.47483 0.44479 0.0
H158 H 0.2377 0.56755 0.46712 0.0
H159 H 0.11702 0.62874 0.47068 0.0
H160 H 0.04201 0.53545 0.44765 0.0
H161 H 0.02102 0.33632 0.453 0.0
H162 H 0.93449 0.26553 0.47604 0.0
H163 H 0.85094 0.36131 0.45636 0.0
H164 H 0.9386 0.43362 0.43452 0.0
H165 H 0.11532 0.53098 0.38425 0.0
H166 H 0.94071 0.39264 0.381 0.0
O167 O 0.07871 0.39981 0.4081 0.0
H168 H 0.0956 0.56346 0.33785 0.0
H169 H 0.91914 0.42751 0.33589 0.0
C170 C 0.09686 0.49838 0.44444 0.0
C171 C 0.15189 0.50763 0.45104 0.0
C172 C 0.19485 0.56084 0.46395 0.0
C173 C 0.1836 0.60591 0.47046 0.0
C174 C 0.12733 0.59524 0.46553 0.0
C175 C 0.08428 0.5418 0.45269 0.0
C176 C 0.98547 0.38911 0.44104 0.0
C177 C 0.98438 0.34254 0.45394 0.0
C178 C 0.93508 0.3022 0.46715 0.0
C179 C 0.886 0.30763 0.46739 0.0
C180 C 0.88812 0.35588 0.45595 0.0
C181 C 0.93801 0.39701 0.44343 0.0
C182 C 0.02899 0.46074 0.38696 0.0
C183 C 0.07216 0.5085 0.37406 0.0
C184 C 0.06061 0.52739 0.3475 0.0
C185 C 0.00538 0.49896 0.33316 0.0
C186 C 0.96226 0.45059 0.34607 0.0
C187 C 0.97428 0.43105 0.37235 0.0
P188 P 0.62484 0.04181 0.79546 0.0
H189 H 0.67403 0.13756 0.84269 0.0
H190 H 0.64495 0.20615 0.86048 0.0
H191 H 0.48408 0.10605 0.80811 0.0
H192 H 0.51436 0.03819 0.78975 0.0
H193 H 0.67863 0.97208 0.79884 0.0
H194 H 0.64234 0.87275 0.8093 0.0
H195 H 0.47986 0.85789 0.83106 0.0
H196 H 0.51667 0.95772 0.82053 0.0
H197 H 0.68028 0.11338 0.74569 0.0
H198 H 0.52642 0.95399 0.75678 0.0
O199 O 0.69609 0.07879 0.80005 0.0
H200 H 0.65494 0.10389 0.69107 0.0
H201 H 0.49996 0.94487 0.70246 0.0
C202 C 0.59682 0.08329 0.81448 0.0
C203 C 0.63204 0.12969 0.83547 0.0
C204 C 0.61511 0.16884 0.84581 0.0
C205 C 0.56237 0.16215 0.83544 0.0
C206 C 0.52543 0.11317 0.81608 0.0
C207 C 0.54253 0.07407 0.80572 0.0
C208 C 0.60059 0.97254 0.80924 0.0
C209 C 0.6357 0.948 0.80669 0.0
C210 C 0.61496 0.89115 0.81277 0.0
C211 C 0.55823 0.85739 0.82102 0.0
C212 C 0.52372 0.88277 0.82462 0.0
C213 C 0.54476 0.9399 0.81877 0.0
C214 C 0.6061 0.03364 0.75513 0.0
C215 C 0.64113 0.07621 0.73634 0.0
C216 C 0.6262 0.07106 0.70517 0.0
C217 C 0.5755 0.02344 0.69229 0.0
C218 C 0.53985 0.98152 0.71146 0.0
C219 C 0.55496 0.98667 0.74259 0.0
P220 P 0.38598 0.42564 0.10001 0.0
H221 H 0.44499 0.38859 0.14124 0.0
H222 H 0.54631 0.42537 0.15366 0.0
H223 H 0.5887 0.5756 0.10666 0.0
H224 H 0.48714 0.53862 0.09434 0.0
H225 H 0.2636 0.37886 0.09569 0.0
H226 H 0.20113 0.41637 0.11108 0.0
H227 H 0.34864 0.57407 0.14799 0.0
H228 H 0.4108 0.5354 0.13311 0.0
H229 H 0.38195 0.34751 0.04912 0.0
H230 H 0.40271 0.51653 0.06173 0.0
O231 O 0.35323 0.3566 0.10649 0.0
H232 H 0.3983 0.35891 0.99449 0.0
H233 H 0.42111 0.52874 0.00736 0.0
C234 C 0.45831 0.46034 0.11643 0.0
C235 C 0.47582 0.43012 0.13424 0.0
C236 C 0.53394 0.45133 0.14143 0.0
C237 C 0.57567 0.50309 0.13078 0.0
C238 C 0.55765 0.53516 0.11477 0.0
C239 C 0.49947 0.51408 0.1078 0.0
C240 C 0.34164 0.45392 0.11376 0.0
C241 C 0.28242 0.42128 0.10744 0.0
C242 C 0.24678 0.44305 0.11594 0.0
C243 C 0.26977 0.49829 0.13075 0.0
C244 C 0.32941 0.53104 0.13701 0.0
C245 C 0.36509 0.50907 0.12847 0.0
C246 C 0.39069 0.431 0.05938 0.0
C247 C 0.38919 0.38669 0.04008 0.0
C248 C 0.39856 0.3932 0.00895 0.0
C249 C 0.41095 0.44469 0.99693 0.0
C250 C 0.41173 0.48873 0.01622 0.0
C251 C 0.40115 0.4817 0.04718 0.0
C252 C 0.2052 0.57513 0.17625 0.0
C253 C 0.15904 0.56538 0.15665 0.0
H254 H 0.27572 0.56128 0.18367 0.0
C255 C 0.14925 0.53306 0.12847 0.0
H256 H 0.21398 0.59978 0.19817 0.0
C257 C 0.18514 0.51134 0.12004 0.0
C258 C 0.23157 0.52142 0.13961 0.0
H259 H 0.11433 0.52512 0.11276 0.0
H260 H 0.17705 0.48742 0.09794 0.0
C261 C 0.24098 0.55343 0.16784 0.0
C262 C 0.77691 0.20234 0.51806 0.0
C263 C 0.72803 0.17399 0.49802 0.0
H264 H 0.86584 0.26661 0.52383 0.0
C265 C 0.73194 0.18926 0.46775 0.0
H266 H 0.775 0.19162 0.54154 0.0
C267 C 0.78322 0.23309 0.45799 0.0
C268 C 0.83189 0.26158 0.47807 0.0
H269 H 0.69484 0.1687 0.45189 0.0
H270 H 0.78494 0.24471 0.4347 0.0
C271 C 0.82867 0.24525 0.50802 0.0
C272 C 0.54284 0.71264 0.83421 0.0
C273 C 0.49096 0.67533 0.81773 0.0
H274 H 0.60511 0.80005 0.84827 0.0
C275 C 0.45972 0.69812 0.80462 0.0
H276 H 0.56774 0.69625 0.84459 0.0
C277 C 0.48056 0.75692 0.80696 0.0
C278 C 0.53353 0.79469 0.82226 0.0
H279 H 0.41929 0.6705 0.792 0.0
H280 H 0.45618 0.77293 0.79562 0.0
C281 C 0.56422 0.77194 0.83621 0.0
C282 C 0.72614 0.54502 0.10852 0.0
C283 C 0.74932 0.53611 0.13504 0.0
H284 H 0.65339 0.54186 0.08648 0.0
C285 C 0.71699 0.52201 0.16129 0.0
H286 H 0.74992 0.55604 0.08792 0.0
C287 C 0.66141 0.51368 0.16043 0.0
C288 C 0.63724 0.51994 0.13342 0.0
H289 H 0.73356 0.51484 0.18212 0.0
H290 H 0.63676 0.50087 0.18066 0.0
C291 C 0.67086 0.53724 0.10775 0.0
C292 C 0.28363 0.76619 0.47147 0.0
C293 C 0.33014 0.7742 0.49014 0.0
H294 H 0.20113 0.70685 0.45049 0.0
C295 C 0.32564 0.72746 0.50466 0.0
H296 H 0.28561 0.80126 0.45998 0.0
C297 C 0.27693 0.67339 0.49945 0.0
C298 C 0.23157 0.66469 0.47956 0.0
H299 H 0.36041 0.73221 0.51945 0.0
H300 H 0.27536 0.63807 0.5105 0.0
C301 C 0.23494 0.71204 0.46621 0.0
C302 C 0.52096 0.27489 0.82366 0.0
C303 C 0.5409 0.30933 0.85149 0.0
H304 H 0.51252 0.20194 0.79669 0.0
C305 C 0.56159 0.29111 0.8753 0.0
H306 H 0.50467 0.28754 0.80483 0.0
C307 C 0.56561 0.24152 0.87073 0.0
C308 C 0.54914 0.20905 0.84222 0.0
H309 H 0.57682 0.31632 0.89714 0.0
H310 H 0.58328 0.2296 0.88927 0.0
C311 C 0.52515 0.22544 0.81906 0.0
C312 C 0.61884 0.80688 0.50583 0.0
C313 C 0.6174 0.83734 0.53284 0.0
H314 H 0.64082 0.74645 0.48553 0.0
C315 C 0.64125 0.83245 0.56029 0.0
H316 H 0.60119 0.81008 0.48424 0.0
C317 C 0.6636 0.79579 0.56102 0.0
C318 C 0.66283 0.76341 0.53429 0.0
H319 H 0.6408 0.8553 0.58148 0.0
H320 H 0.6791 0.79092 0.58286 0.0
C321 C 0.64133 0.77027 0.50656 0.0
C322 C 0.78277 0.62415 0.82027 0.0
C323 C 0.74088 0.57048 0.82878 0.0
H324 H 0.87247 0.6843 0.81885 0.0
C325 C 0.75831 0.53512 0.84173 0.0
H326 H 0.77066 0.65229 0.81017 0.0
C327 C 0.81621 0.55318 0.84644 0.0
C328 C 0.85818 0.60718 0.83848 0.0
H329 H 0.72719 0.49343 0.84847 0.0
H330 H 0.82808 0.5254 0.85717 0.0
C331 C 0.84096 0.64249 0.82525 0.0
C332 C 0.2451 0.77448 0.12616 0.0
C333 C 0.20313 0.77245 0.14566 0.0
H334 H 0.33463 0.81204 0.11878 0.0
C335 C 0.21977 0.81312 0.171 0.0
H336 H 0.23373 0.74388 0.10639 0.0
C337 C 0.2776 0.85249 0.17787 0.0
C338 C 0.3197 0.8514 0.15969 0.0
H339 H 0.1884 0.81275 0.18637 0.0
H340 H 0.28955 0.88133 0.19846 0.0
C341 C 0.30289 0.81331 0.13327 0.0
C342 C 0.5982 0.25902 0.46415 0.0
C343 C 0.5625 0.21815 0.48376 0.0
H344 H 0.64465 0.3477 0.45594 0.0
C345 C 0.5408 0.2355 0.5087 0.0
H346 H 0.61556 0.247 0.44469 0.0
C347 C 0.55739 0.29306 0.51506 0.0
C348 C 0.59624 0.33451 0.49669 0.0
H349 H 0.51305 0.205 0.52416 0.0
H350 H 0.54244 0.30545 0.53545 0.0
C351 C 0.61515 0.31673 0.47066 0.0
C352 C 0.27187 0.51942 0.81784 0.0
C353 C 0.28868 0.49932 0.84239 0.0
H354 H 0.22272 0.55679 0.80314 0.0
C355 C 0.26328 0.49596 0.87055 0.0
H356 H 0.29088 0.5227 0.79588 0.0
C357 C 0.22453 0.51552 0.87472 0.0
C358 C 0.21047 0.53917 0.85083 0.0
H359 H 0.2753 0.48057 0.88988 0.0
H360 H 0.20818 0.51511 0.89723 0.0
C361 C 0.23328 0.53943 0.82207 0.0
C362 C 0.76661 0.3034 0.16101 0.0
C363 C 0.78226 0.34508 0.18574 0.0
H364 H 0.71857 0.21444 0.14559 0.0
C365 C 0.7628 0.3278 0.21483 0.0
H366 H 0.78086 0.31555 0.13831 0.0
C367 C 0.72789 0.27008 0.21909 0.0
C368 C 0.71108 0.22825 0.19431 0.0
H369 H 0.77468 0.35888 0.23442 0.0
H370 H 0.71441 0.25827 0.24194 0.0
C371 C 0.73113 0.24551 0.16523 0.0
C372 C 0.02099 0.65119 0.07488 0.0
C373 C 0.98798 0.59415 0.08201 0.0
H374 H 0.06411 0.70808 0.04037 0.0
C375 C 0.97486 0.54995 0.05903 0.0
H376 H 0.03159 0.68626 0.09202 0.0
C377 C 0.99359 0.56248 0.02948 0.0
C378 C 0.02582 0.6195 0.02221 0.0
H379 H 0.94982 0.50555 0.06378 0.0
H380 H 0.98278 0.52743 0.01229 0.0
C381 C 0.03986 0.66373 0.04532 0.0
C382 C 0.5305 0.93502 0.40374 0.0
C383 C 0.51431 0.97111 0.41992 0.0
H384 H 0.54918 0.90808 0.36051 0.0
C385 C 0.50356 0.00813 0.40368 0.0
H386 H 0.53903 0.90583 0.41542 0.0
C387 C 0.50957 0.0094 0.372 0.0
C388 C 0.52682 0.97398 0.35605 0.0
H389 H 0.49118 0.03657 0.41545 0.0
H390 H 0.50194 0.03896 0.36009 0.0
C391 C 0.53674 0.93652 0.37224 0.0
C392 C 0.52057 0.52754 0.71846 0.0
C393 C 0.52616 0.49018 0.73699 0.0
H394 H 0.54416 0.57053 0.67745 0.0
C395 C 0.55542 0.46216 0.72628 0.0
H396 H 0.49879 0.5502 0.7264 0.0
C397 C 0.58037 0.47272 0.69802 0.0
C398 C 0.57784 0.51263 0.68008 0.0
H399 H 0.55995 0.43276 0.74007 0.0
H400 H 0.6024 0.45012 0.6905 0.0
C401 C 0.54662 0.5391 0.69039 0.0
C402 C 0.52717 0.95658 0.61077 0.0
C403 C 0.53921 0.00419 0.59463 0.0
H404 H 0.52994 0.92544 0.65387 0.0
C405 C 0.56053 0.05786 0.61114 0.0
H406 H 0.51054 0.91452 0.59889 0.0
C407 C 0.57123 0.06401 0.64289 0.0
C408 C 0.56082 0.01665 0.65885 0.0
H409 H 0.57017 0.09543 0.59948 0.0
H410 H 0.58799 0.10599 0.6549 0.0
C411 C 0.53793 0.96275 0.64243 0.0
C412 C 0.49557 0.50664 0.92774 0.0
C413 C 0.45892 0.46809 0.90376 0.0
H414 H 0.50835 0.52973 0.97613 0.0
C415 C 0.40537 0.42272 0.91053 0.0
H416 H 0.53696 0.5421 0.92313 0.0
C417 C 0.38951 0.41516 0.94086 0.0
C418 C 0.42635 0.45361 0.96477 0.0
H419 H 0.37634 0.3923 0.89248 0.0
H420 H 0.34853 0.37932 0.94567 0.0
C421 C 0.47916 0.49978 0.95796 0.0
C422 C 0.94867 0.495 0.25272 0.0
C423 C 0.98077 0.55259 0.24645 0.0
H424 H 0.93248 0.43265 0.28422 0.0
C425 C 0.01783 0.59314 0.26962 0.0
H426 H 0.92034 0.46252 0.2352 0.0
C427 C 0.02386 0.57617 0.2982 0.0
C428 C 0.99402 0.51803 0.30403 0.0
H429 H 0.04286 0.63788 0.2655 0.0
H430 H 0.05271 0.60869 0.31554 0.0
C431 C 0.95557 0.47786 0.28102 0.0
loop_
_geom_bond_atom_site_label_1
_geom_bond_atom_site_label_2
_geom_bond_distance
_geom_bond_site_symmetry_2
_ccdc_geom_bond_type
Zn0 O6 1.969 . S
Zn0 O7 1.965 . S
Zn0 O11 2.024 . S
Zn0 O16 1.969 . S
Zn1 O8 1.969 . S
Zn1 O14 1.969 . S
Zn1 O15 1.965 . S
Zn1 O17 2.024 . S
C2 O3 1.229 . S
C2 O11 1.058 . S
O3 C2 1.229 . S
C4 O5 1.229 . S
C4 O17 1.058 . S
O5 C4 1.229 . S
O6 Zn0 1.969 . S
O6 C9 1.267 . S
O7 Zn0 1.965 . S
O7 C18 1.260 1_455 S
O8 Zn1 1.969 . S
O8 C18 1.258 . S
C9 O6 1.267 . S
C9 O10 1.228 . S
O10 C9 1.228 . S
O11 Zn0 2.024 . S
O11 C2 1.058 . S
C12 O13 1.228 . S
C12 O14 1.267 . S
O13 C12 1.228 . S
O14 Zn1 1.969 . S
O14 C12 1.267 . S
O15 Zn1 1.965 . S
O15 C19 1.260 1_655 S
O16 Zn0 1.969 . S
O16 C19 1.258 . S
O17 Zn1 2.024 . S
O17 C4 1.058 . S
C18 O7 1.260 1_655 S
C18 O8 1.258 . S
C19 O15 1.260 1_455 S
C19 O16 1.258 . S
Zn20 O26 1.969 . S
Zn20 O27 1.965 . S
Zn20 O31 2.024 . S
Zn20 O36 1.969 . S
Zn21 O28 1.969 . S
Zn21 O34 1.969 . S
Zn21 O35 1.965 . S
Zn21 O37 2.024 . S
C22 O23 1.229 . S
C22 O31 1.058 . S
O23 C22 1.229 . S
C24 O25 1.229 . S
C24 O37 1.058 . S
O25 C24 1.229 . S
O26 Zn20 1.969 . S
O26 C29 1.267 . S
O27 Zn20 1.965 . S
O27 C38 1.260 . S
O28 Zn21 1.969 . S
O28 C38 1.258 1_565 S
C29 O26 1.267 . S
C29 O30 1.228 . S
O30 C29 1.228 . S
O31 Zn20 2.024 . S
O31 C22 1.058 . S
C32 O33 1.228 . S
C32 O34 1.267 . S
O33 C32 1.228 . S
O34 Zn21 1.969 . S
O34 C32 1.267 . S
O35 Zn21 1.965 . S
O35 C39 1.260 1_565 S
O36 Zn20 1.969 . S
O36 C39 1.258 . S
O37 Zn21 2.024 . S
O37 C24 1.058 . S
C38 O27 1.260 . S
C38 O28 1.258 1_545 S
C39 O35 1.260 1_545 S
C39 O36 1.258 . S
Zn40 O46 1.969 . S
Zn40 O47 1.965 . S
Zn40 O51 2.024 . S
Zn40 O56 1.969 . S
Zn41 O48 1.969 . S
Zn41 O54 1.969 . S
Zn41 O55 1.965 . S
Zn41 O57 2.024 . S
C42 O43 1.229 . S
C42 O51 1.058 . S
O43 C42 1.229 . S
C44 O45 1.229 . S
C44 O57 1.058 . S
O45 C44 1.229 . S
O46 Zn40 1.969 . S
O46 C49 1.267 . S
O47 Zn40 1.965 . S
O47 C58 1.260 . S
O48 Zn41 1.969 . S
O48 C58 1.258 . S
C49 O46 1.267 . S
C49 O50 1.228 . S
O50 C49 1.228 . S
O51 Zn40 2.024 . S
O51 C42 1.058 . S
C52 O53 1.228 . S
C52 O54 1.267 . S
O53 C52 1.228 . S
O54 Zn41 1.969 . S
O54 C52 1.267 . S
O55 Zn41 1.965 . S
O55 C59 1.260 . S
O56 Zn40 1.969 . S
O56 C59 1.258 . S
O57 Zn41 2.024 . S
O57 C44 1.058 . S
C58 O47 1.260 . S
C58 O48 1.258 . S
C59 O55 1.260 . S
C59 O56 1.258 . S
P60 O71 1.490 . S
P60 C74 1.812 . S
P60 C80 1.803 1_565 S
P60 C86 1.819 1_565 S
H61 C75 0.941 . S
H62 C76 0.939 . S
H63 C78 0.940 . S
H64 C79 0.940 . S
H65 C81 0.939 . S
H66 C82 0.942 . S
H67 C84 0.940 . S
H68 C85 0.939 . S
H69 C87 0.941 . S
H70 C91 0.939 . S
O71 P60 1.490 . S
H72 C88 0.939 . S
H73 C90 0.940 . S
C74 P60 1.812 . S
C74 C75 1.389 . S
C74 C79 1.391 . S
C75 H61 0.941 . S
C75 C74 1.389 . S
C75 C76 1.397 . S
C76 H62 0.939 . S
C76 C75 1.397 . S
C76 C77 1.378 . S
C77 C76 1.378 . S
C77 C78 1.378 . S
C78 H63 0.940 . S
C78 C77 1.378 . S
C78 C79 1.396 . S
C79 H64 0.940 . S
C79 C74 1.391 . S
C79 C78 1.396 . S
C80 P60 1.803 1_545 S
C80 C81 1.378 . S
C80 C85 1.400 . S
C81 H65 0.939 . S
C81 C80 1.378 . S
C81 C82 1.361 . S
C82 H66 0.942 . S
C82 C81 1.361 . S
C82 C83 1.369 . S
C83 C82 1.369 . S
C83 C84 1.404 . S
C84 H67 0.940 . S
C84 C83 1.404 . S
C84 C85 1.389 . S
C85 H68 0.939 . S
C85 C80 1.400 . S
C85 C84 1.389 . S
C86 P60 1.819 1_545 S
C86 C87 1.391 1_545 S
C86 C91 1.391 . S
C87 H69 0.941 . S
C87 C86 1.391 1_565 S
C87 C88 1.396 . S
C88 H72 0.939 . S
C88 C87 1.396 . S
C88 C89 1.397 1_565 S
C89 C88 1.397 1_545 S
C89 C90 1.385 . S
C90 H73 0.940 . S
C90 C89 1.385 . S
C90 C91 1.388 . S
C91 H70 0.939 . S
C91 C86 1.391 . S
C91 C90 1.388 . S
P92 O103 1.490 . S
P92 C106 1.812 . S
P92 C112 1.803 . S
P92 C118 1.819 . S
H93 C107 0.941 . S
H94 C108 0.939 . S
H95 C110 0.940 . S
H96 C111 0.940 . S
H97 C113 0.939 . S
H98 C114 0.942 . S
H99 C116 0.940 . S
H100 C117 0.939 . S
H101 C119 0.941 . S
H102 C123 0.939 . S
O103 P92 1.490 . S
H104 C120 0.939 . S
H105 C122 0.940 . S
C106 P92 1.812 . S
C106 C107 1.389 . S
C106 C111 1.391 . S
C107 H93 0.941 . S
C107 C106 1.389 . S
C107 C108 1.397 . S
C108 H94 0.939 . S
C108 C107 1.397 . S
C108 C109 1.378 . S
C109 C108 1.378 . S
C109 C110 1.378 . S
C110 H95 0.940 . S
C110 C109 1.378 . S
C110 C111 1.396 . S
C111 H96 0.940 . S
C111 C106 1.391 . S
C111 C110 1.396 . S
C112 P92 1.803 . S
C112 C113 1.378 . S
C112 C117 1.400 . S
C113 H97 0.939 . S
C113 C112 1.378 . S
C113 C114 1.361 . S
C114 H98 0.942 . S
C114 C113 1.361 . S
C114 C115 1.369 . S
C115 C114 1.369 . S
C115 C116 1.404 . S
C116 H99 0.940 . S
C116 C115 1.404 . S
C116 C117 1.389 . S
C117 H100 0.939 . S
C117 C112 1.400 . S
C117 C116 1.389 . S
C118 P92 1.819 . S
C118 C119 1.391 . S
C118 C123 1.391 . S
C119 H101 0.941 . S
C119 C118 1.391 . S
C119 C120 1.396 . S
C120 H104 0.939 . S
C120 C119 1.396 . S
C120 C121 1.397 . S
C121 C120 1.397 . S
C121 C122 1.385 . S
C122 H105 0.940 . S
C122 C121 1.385 . S
C122 C123 1.388 . S
C123 H102 0.939 . S
C123 C118 1.391 . S
C123 C122 1.388 . S
P124 O135 1.490 . S
P124 C138 1.812 . S
P124 C144 1.803 . S
P124 C150 1.819 . S
H125 C139 0.941 . S
H126 C140 0.939 . S
H127 C142 0.940 . S
H128 C143 0.940 . S
H129 C145 0.939 . S
H130 C146 0.942 . S
H131 C148 0.940 . S
H132 C149 0.939 . S
H133 C151 0.941 . S
H134 C155 0.941 1_655 S
O135 P124 1.490 . S
H136 C152 0.939 1_554 S
H137 C154 0.940 . S
C138 P124 1.812 . S
C138 C139 1.389 . S
C138 C143 1.391 . S
C139 H125 0.941 . S
C139 C138 1.389 . S
C139 C140 1.397 . S
C140 H126 0.939 . S
C140 C139 1.397 . S
C140 C141 1.378 . S
C141 C140 1.378 . S
C141 C142 1.378 . S
C142 H127 0.940 . S
C142 C141 1.378 . S
C142 C143 1.396 . S
C143 H128 0.940 . S
C143 C138 1.391 . S
C143 C142 1.396 . S
C144 P124 1.803 . S
C144 C145 1.378 1_455 S
C144 C149 1.400 1_455 S
C145 H129 0.939 . S
C145 C144 1.378 1_655 S
C145 C146 1.361 . S
C146 H130 0.942 . S
C146 C145 1.361 . S
C146 C147 1.369 . S
C147 C146 1.369 . S
C147 C148 1.404 . S
C148 H131 0.940 . S
C148 C147 1.404 . S
C148 C149 1.389 . S
C149 H132 0.939 . S
C149 C144 1.400 1_655 S
C149 C148 1.389 . S
C150 P124 1.819 . S
C150 C151 1.391 . S
C150 C155 1.390 . S
C151 H133 0.941 . S
C151 C150 1.391 . S
C151 C152 1.396 . S
C152 H136 0.939 1_556 S
C152 C151 1.396 . S
C152 C153 1.397 . S
C153 C152 1.397 . S
C153 C154 1.385 1_455 S
C154 H137 0.940 . S
C154 C153 1.385 1_655 S
C154 C155 1.388 1_655 S
C155 H134 0.941 1_455 S
C155 C150 1.390 . S
C155 C154 1.388 1_455 S
P156 O167 1.490 . S
P156 C170 1.812 . S
P156 C176 1.803 1_455 S
P156 C182 1.819 . S
H157 C171 0.941 . S
H158 C172 0.939 . S
H159 C174 0.940 . S
H160 C175 0.940 . S
H161 C177 0.939 . S
H162 C178 0.942 . S
H163 C180 0.940 . S
H164 C181 0.939 . S
H165 C183 0.941 . S
H166 C187 0.939 . S
O167 P156 1.490 . S
H168 C184 0.939 . S
H169 C186 0.940 . S
C170 P156 1.812 . S
C170 C171 1.389 . S
C170 C175 1.391 . S
C171 H157 0.941 . S
C171 C170 1.389 . S
C171 C172 1.397 . S
C172 H158 0.939 . S
C172 C171 1.397 . S
C172 C173 1.378 . S
C173 C172 1.378 . S
C173 C174 1.378 . S
C174 H159 0.940 . S
C174 C173 1.378 . S
C174 C175 1.396 . S
C175 H160 0.940 . S
C175 C170 1.391 . S
C175 C174 1.396 . S
C176 P156 1.803 1_655 S
C176 C177 1.378 . S
C176 C181 1.400 . S
C177 H161 0.939 . S
C177 C176 1.378 . S
C177 C178 1.361 . S
C178 H162 0.942 . S
C178 C177 1.361 . S
C178 C179 1.369 . S
C179 C178 1.369 . S
C179 C180 1.404 . S
C180 H163 0.940 . S
C180 C179 1.404 . S
C180 C181 1.389 . S
C181 H164 0.939 . S
C181 C176 1.400 . S
C181 C180 1.389 . S
C182 P156 1.819 . S
C182 C183 1.391 . S
C182 C187 1.391 1_455 S
C183 H165 0.941 . S
C183 C182 1.391 . S
C183 C184 1.396 . S
C184 H168 0.939 . S
C184 C183 1.396 . S
C184 C185 1.397 . S
C185 C184 1.397 . S
C185 C186 1.385 1_455 S
C186 H169 0.940 . S
C186 C185 1.385 1_655 S
C186 C187 1.388 . S
C187 H166 0.939 . S
C187 C182 1.391 1_655 S
C187 C186 1.388 . S
P188 O199 1.490 . S
P188 C202 1.812 . S
P188 C208 1.803 1_545 S
P188 C214 1.819 . S
H189 C203 0.941 . S
H190 C204 0.939 . S
H191 C206 0.940 . S
H192 C207 0.940 . S
H193 C209 0.939 . S
H194 C210 0.942 . S
H195 C212 0.940 . S
H196 C213 0.939 . S
H197 C215 0.941 . S
H198 C219 0.939 . S
O199 P188 1.490 . S
H200 C216 0.939 . S
H201 C218 0.940 . S
C202 P188 1.812 . S
C202 C203 1.389 . S
C202 C207 1.391 . S
C203 H189 0.941 . S
C203 C202 1.389 . S
C203 C204 1.397 . S
C204 H190 0.939 . S
C204 C203 1.397 . S
C204 C205 1.378 . S
C205 C204 1.378 . S
C205 C206 1.378 . S
C206 H191 0.940 . S
C206 C205 1.378 . S
C206 C207 1.396 . S
C207 H192 0.940 . S
C207 C202 1.391 . S
C207 C206 1.396 . S
C208 P188 1.803 1_565 S
C208 C209 1.378 . S
C208 C213 1.400 . S
C209 H193 0.939 . S
C209 C208 1.378 . S
C209 C210 1.361 . S
C210 H194 0.942 . S
C210 C209 1.361 . S
C210 C211 1.369 . S
C211 C210 1.369 . S
C211 C212 1.404 . S
C212 H195 0.940 . S
C212 C211 1.404 . S
C212 C213 1.389 . S
C213 H196 0.939 . S
C213 C208 1.400 . S
C213 C212 1.389 . S
C214 P188 1.819 . S
C214 C215 1.391 . S
C214 C219 1.391 1_545 S
C215 H197 0.941 . S
C215 C214 1.391 . S
C215 C216 1.396 . S
C216 H200 0.939 . S
C216 C215 1.396 . S
C216 C217 1.397 . S
C217 C216 1.397 . S
C217 C218 1.385 1_545 S
C218 H201 0.940 . S
C218 C217 1.385 1_565 S
C218 C219 1.388 . S
C219 H198 0.939 . S
C219 C214 1.391 1_565 S
C219 C218 1.388 . S
P220 O231 1.490 . S
P220 C234 1.812 . S
P220 C240 1.803 . S
P220 C246 1.819 . S
H221 C235 0.941 . S
H222 C236 0.939 . S
H223 C238 0.940 . S
H224 C239 0.940 . S
H225 C241 0.939 . S
H226 C242 0.942 . S
H227 C244 0.940 . S
H228 C245 0.939 . S
H229 C247 0.941 . S
H230 C251 0.939 . S
O231 P220 1.490 . S
H232 C248 0.939 . S
H233 C250 0.940 . S
C234 P220 1.812 . S
C234 C235 1.389 . S
C234 C239 1.391 . S
C235 H221 0.941 . S
C235 C234 1.389 . S
C235 C236 1.397 . S
C236 H222 0.939 . S
C236 C235 1.397 . S
C236 C237 1.378 . S
C237 C236 1.378 . S
C237 C238 1.378 . S
C238 H223 0.940 . S
C238 C237 1.378 . S
C238 C239 1.396 . S
C239 H224 0.940 . S
C239 C234 1.391 . S
C239 C238 1.396 . S
C240 P220 1.803 . S
C240 C241 1.378 . S
C240 C245 1.400 . S
C241 H225 0.939 . S
C241 C240 1.378 . S
C241 C242 1.361 . S
C242 H226 0.942 . S
C242 C241 1.361 . S
C242 C243 1.369 . S
C243 C242 1.369 . S
C243 C244 1.404 . S
C244 H227 0.940 . S
C244 C243 1.404 . S
C244 C245 1.389 . S
C245 H228 0.939 . S
C245 C240 1.400 . S
C245 C244 1.389 . S
C246 P220 1.819 . S
C246 C247 1.391 . S
C246 C251 1.391 . S
C247 H229 0.941 . S
C247 C246 1.391 . S
C247 C248 1.396 . S
C248 H232 0.939 . S
C248 C247 1.396 . S
C248 C249 1.397 . S
C249 C248 1.397 . S
C249 C250 1.385 . S
C250 H233 0.940 . S
C250 C249 1.385 . S
C250 C251 1.388 . S
C251 H230 0.939 . S
C251 C246 1.391 . S
C251 C250 1.388 . S
C252 C253 1.387 . S
C252 H256 0.950 . S
C252 C261 1.390 . S
C253 C252 1.387 . S
C253 C255 1.387 . S
H254 C261 0.950 . S
C255 C253 1.387 . S
C255 C257 1.390 . S
C255 H259 0.950 . S
H256 C252 0.950 . S
C257 C255 1.390 . S
C257 C258 1.387 . S
C257 H260 0.950 . S
C258 C257 1.387 . S
C258 C261 1.387 . S
H259 C255 0.950 . S
H260 C257 0.950 . S
C261 C252 1.390 . S
C261 H254 0.950 . S
C261 C258 1.387 . S
C262 C263 1.387 . S
C262 H266 0.950 . S
C262 C271 1.390 . S
C263 C262 1.387 . S
C263 C265 1.387 . S
H264 C271 0.950 . S
C265 C263 1.387 . S
C265 C267 1.390 . S
C265 H269 0.950 . S
H266 C262 0.950 . S
C267 C265 1.390 . S
C267 C268 1.387 . S
C267 H270 0.950 . S
C268 C267 1.387 . S
C268 C271 1.387 . S
H269 C265 0.950 . S
H270 C267 0.950 . S
C271 C262 1.390 . S
C271 H264 0.950 . S
C271 C268 1.387 . S
C272 C273 1.387 . S
C272 H276 0.950 . S
C272 C281 1.390 . S
C273 C272 1.387 . S
C273 C275 1.387 . S
H274 C281 0.950 . S
C275 C273 1.387 . S
C275 C277 1.390 . S
C275 H279 0.950 . S
H276 C272 0.950 . S
C277 C275 1.390 . S
C277 C278 1.387 . S
C277 H280 0.950 . S
C278 C277 1.387 . S
C278 C281 1.387 . S
H279 C275 0.950 . S
H280 C277 0.950 . S
C281 C272 1.390 . S
C281 H274 0.950 . S
C281 C278 1.387 . S
C282 C283 1.387 . S
C282 H286 0.950 . S
C282 C291 1.390 . S
C283 C282 1.387 . S
C283 C285 1.387 . S
H284 C291 0.950 . S
C285 C283 1.387 . S
C285 C287 1.390 . S
C285 H289 0.950 . S
H286 C282 0.950 . S
C287 C285 1.390 . S
C287 C288 1.387 . S
C287 H290 0.950 . S
C288 C287 1.387 . S
C288 C291 1.387 . S
H289 C285 0.950 . S
H290 C287 0.950 . S
C291 C282 1.390 . S
C291 H284 0.950 . S
C291 C288 1.387 . S
C292 C293 1.387 . S
C292 H296 0.950 . S
C292 C301 1.390 . S
C293 C292 1.387 . S
C293 C295 1.387 . S
H294 C301 0.950 . S
C295 C293 1.387 . S
C295 C297 1.390 . S
C295 H299 0.950 . S
H296 C292 0.950 . S
C297 C295 1.390 . S
C297 C298 1.387 . S
C297 H300 0.950 . S
C298 C297 1.387 . S
C298 C301 1.387 . S
H299 C295 0.950 . S
H300 C297 0.950 . S
C301 C292 1.390 . S
C301 H294 0.950 . S
C301 C298 1.387 . S
C302 C303 1.387 . S
C302 H306 0.950 . S
C302 C311 1.390 . S
C303 C302 1.387 . S
C303 C305 1.387 . S
H304 C311 0.950 . S
C305 C303 1.387 . S
C305 C307 1.390 . S
C305 H309 0.950 . S
H306 C302 0.950 . S
C307 C305 1.390 . S
C307 C308 1.387 . S
C307 H310 0.950 . S
C308 C307 1.387 . S
C308 C311 1.387 . S
H309 C305 0.950 . S
H310 C307 0.950 . S
C311 C302 1.390 . S
C311 H304 0.950 . S
C311 C308 1.387 . S
C312 C313 1.387 . S
C312 H316 0.950 . S
C312 C321 1.390 . S
C313 C312 1.387 . S
C313 C315 1.387 . S
H314 C321 0.950 . S
C315 C313 1.387 . S
C315 C317 1.390 . S
C315 H319 0.950 . S
H316 C312 0.950 . S
C317 C315 1.390 . S
C317 C318 1.387 . S
C317 H320 0.950 . S
C318 C317 1.387 . S
C318 C321 1.387 . S
H319 C315 0.950 . S
H320 C317 0.950 . S
C321 C312 1.390 . S
C321 H314 0.950 . S
C321 C318 1.387 . S
C322 C323 1.387 . S
C322 H326 0.950 . S
C322 C331 1.390 . S
C323 C322 1.387 . S
C323 C325 1.387 . S
H324 C331 0.950 . S
C325 C323 1.387 . S
C325 C327 1.390 . S
C325 H329 0.950 . S
H326 C322 0.950 . S
C327 C325 1.390 . S
C327 C328 1.387 . S
C327 H330 0.950 . S
C328 C327 1.387 . S
C328 C331 1.387 . S
H329 C325 0.950 . S
H330 C327 0.950 . S
C331 C322 1.390 . S
C331 H324 0.950 . S
C331 C328 1.387 . S
C332 C333 1.387 . S
C332 H336 0.950 . S
C332 C341 1.390 . S
C333 C332 1.387 . S
C333 C335 1.387 . S
H334 C341 0.950 . S
C335 C333 1.387 . S
C335 C337 1.390 . S
C335 H339 0.950 . S
H336 C332 0.950 . S
C337 C335 1.390 . S
C337 C338 1.387 . S
C337 H340 0.950 . S
C338 C337 1.387 . S
C338 C341 1.387 . S
H339 C335 0.950 . S
H340 C337 0.950 . S
C341 C332 1.390 . S
C341 H334 0.950 . S
C341 C338 1.387 . S
C342 C343 1.387 . S
C342 H346 0.950 . S
C342 C351 1.390 . S
C343 C342 1.387 . S
C343 C345 1.387 . S
H344 C351 0.950 . S
C345 C343 1.387 . S
C345 C347 1.390 . S
C345 H349 0.950 . S
H346 C342 0.950 . S
C347 C345 1.390 . S
C347 C348 1.387 . S
C347 H350 0.950 . S
C348 C347 1.387 . S
C348 C351 1.387 . S
H349 C345 0.950 . S
H350 C347 0.950 . S
C351 C342 1.390 . S
C351 H344 0.950 . S
C351 C348 1.387 . S
C352 C353 1.387 . S
C352 H356 0.950 . S
C352 C361 1.390 . S
C353 C352 1.387 . S
C353 C355 1.387 . S
H354 C361 0.950 . S
C355 C353 1.387 . S
C355 C357 1.390 . S
C355 H359 0.950 . S
H356 C352 0.950 . S
C357 C355 1.390 . S
C357 C358 1.387 . S
C357 H360 0.950 . S
C358 C357 1.387 . S
C358 C361 1.387 . S
H359 C355 0.950 . S
H360 C357 0.950 . S
C361 C352 1.390 . S
C361 H354 0.950 . S
C361 C358 1.387 . S
C362 C363 1.387 . S
C362 H366 0.950 . S
C362 C371 1.390 . S
C363 C362 1.387 . S
C363 C365 1.387 . S
H364 C371 0.950 . S
C365 C363 1.387 . S
C365 C367 1.390 . S
C365 H369 0.950 . S
H366 C362 0.950 . S
C367 C365 1.390 . S
C367 C368 1.387 . S
C367 H370 0.950 . S
C368 C367 1.387 . S
C368 C371 1.387 . S
H369 C365 0.950 . S
H370 C367 0.950 . S
C371 C362 1.390 . S
C371 H364 0.950 . S
C371 C368 1.387 . S
C372 C373 1.387 . S
C372 H376 0.950 . S
C372 C381 1.390 . S
C373 C372 1.387 . S
C373 C375 1.387 1_455 S
H374 C381 0.950 . S
C375 C373 1.387 1_655 S
C375 C377 1.390 . S
C375 H379 0.950 . S
H376 C372 0.950 . S
C377 C375 1.390 . S
C377 C378 1.387 1_655 S
C377 H380 0.950 . S
C378 C377 1.387 1_455 S
C378 C381 1.387 . S
H379 C375 0.950 . S
H380 C377 0.950 . S
C381 C372 1.390 . S
C381 H374 0.950 . S
C381 C378 1.387 . S
C382 C383 1.387 . S
C382 H386 0.950 . S
C382 C391 1.390 . S
C383 C382 1.387 . S
C383 C385 1.387 1_545 S
H384 C391 0.950 . S
C385 C383 1.387 1_565 S
C385 C387 1.390 . S
C385 H389 0.950 . S
H386 C382 0.950 . S
C387 C385 1.390 . S
C387 C388 1.387 1_565 S
C387 H390 0.950 . S
C388 C387 1.387 1_545 S
C388 C391 1.387 . S
H389 C385 0.950 . S
H390 C387 0.950 . S
C391 C382 1.390 . S
C391 H384 0.950 . S
C391 C388 1.387 . S
C392 C393 1.387 . S
C392 H396 0.950 . S
C392 C401 1.390 . S
C393 C392 1.387 . S
C393 C395 1.387 . S
H394 C401 0.950 . S
C395 C393 1.387 . S
C395 C397 1.390 . S
C395 H399 0.950 . S
H396 C392 0.950 . S
C397 C395 1.390 . S
C397 C398 1.387 . S
C397 H400 0.950 . S
C398 C397 1.387 . S
C398 C401 1.387 . S
H399 C395 0.950 . S
H400 C397 0.950 . S
C401 C392 1.390 . S
C401 H394 0.950 . S
C401 C398 1.387 . S
C402 C403 1.387 1_565 S
C402 H406 0.950 . S
C402 C411 1.390 . S
C403 C402 1.387 1_545 S
C403 C405 1.387 . S
H404 C411 0.950 . S
C405 C403 1.387 . S
C405 C407 1.390 . S
C405 H409 0.950 . S
H406 C402 0.950 . S
C407 C405 1.390 . S
C407 C408 1.387 . S
C407 H410 0.950 . S
C408 C407 1.387 . S
C408 C411 1.387 1_545 S
H409 C405 0.950 . S
H410 C407 0.950 . S
C411 C402 1.390 . S
C411 H404 0.950 . S
C411 C408 1.387 1_565 S
C412 C413 1.387 . S
C412 H416 0.950 . S
C412 C421 1.390 . S
C413 C412 1.387 . S
C413 C415 1.387 . S
H414 C421 0.950 . S
C415 C413 1.387 . S
C415 C417 1.390 . S
C415 H419 0.950 . S
H416 C412 0.950 . S
C417 C415 1.390 . S
C417 C418 1.387 . S
C417 H420 0.950 . S
C418 C417 1.387 . S
C418 C421 1.387 . S
H419 C415 0.950 . S
H420 C417 0.950 . S
C421 C412 1.390 . S
C421 H414 0.950 . S
C421 C418 1.387 . S
C422 C423 1.387 . S
C422 H426 0.950 . S
C422 C431 1.390 . S
C423 C422 1.387 . S
C423 C425 1.387 1_655 S
H424 C431 0.950 . S
C425 C423 1.387 1_455 S
C425 C427 1.390 . S
C425 H429 0.950 . S
H426 C422 0.950 . S
C427 C425 1.390 . S
C427 C428 1.387 . S
C427 H430 0.950 . S
C428 C427 1.387 . S
C428 C431 1.387 1_455 S
H429 C425 0.950 . S
H430 C427 0.950 . S
C431 C422 1.390 . S
C431 H424 0.950 . S
C431 C428 1.387 1_655 S
C253 C2 1.416 . S
C258 C243 1.470 . S
C263 C22 1.425 . S
C268 C179 1.489 . S
C273 C44 1.463 . S
C278 C211 1.519 . S
C283 C4 1.574 . S
C288 C237 1.646 . S
C298 C173 1.631 . S
C293 C24 1.582 . S
C308 C205 1.601 . S
C303 C42 1.522 . S
C313 C32 1.381 . S
C318 C115 1.373 . S
C323 C49 1.326 . S
C328 C147 1.320 . S
C333 C9 1.308 . S
C338 C77 1.305 . S
C348 C109 1.352 . S
C343 C29 1.279 . S
C358 C141 1.376 . S
C353 C52 1.305 . S
C363 C12 1.303 . S
C368 C83 1.311 . S
C378 C153 1.431 1_554 S
C373 C18 1.448 1_455 S
C383 C38 1.429 . S
C388 C89 1.401 . S
C393 C58 1.426 . S
C398 C121 1.436 . S
C408 C217 1.474 . S
C403 C39 1.496 . S
C418 C249 1.473 1_556 S
C413 C59 1.476 . S
C423 C19 1.480 1_655 S
C428 C185 1.475 . S
