# Generated by pormake.
# Topology ctn, (3,4)-cn, num edge types: 1
# Building blocks:
#     Node 0, Type 0, BuildingBlock: MIDCAF_clean_linker_0, # of connection points: 3
#     Node 1, Type 0, BuildingBlock: MIDCAF_clean_linker_0, # of connection points: 3
#     Node 2, Type 0, BuildingBlock: MIDCAF_clean_linker_0, # of connection points: 3
#     Node 3, Type 0, BuildingBlock: MIDCAF_clean_linker_0, # of connection points: 3
#     Node 4, Type 0, BuildingBlock: MIDCAF_clean_linker_0, # of connection points: 3
#     Node 5, Type 0, BuildingBlock: MIDCAF_clean_linker_0, # of connection points: 3
#     Node 6, Type 0, BuildingBlock: MIDCAF_clean_linker_0, # of connection points: 3
#     Node 7, Type 0, BuildingBlock: MIDCAF_clean_linker_0, # of connection points: 3
#     Node 8, Type 0, BuildingBlock: MIDCAF_clean_linker_0, # of connection points: 3
#     Node 9, Type 0, BuildingBlock: MIDCAF_clean_linker_0, # of connection points: 3
#     Node 10, Type 0, BuildingBlock: MIDCAF_clean_linker_0, # of connection points: 3
#     Node 11, Type 0, BuildingBlock: MIDCAF_clean_linker_0, # of connection points: 3
#     Node 12, Type 0, BuildingBlock: MIDCAF_clean_linker_0, # of connection points: 3
#     Node 13, Type 0, BuildingBlock: MIDCAF_clean_linker_0, # of connection points: 3
#     Node 14, Type 0, BuildingBlock: MIDCAF_clean_linker_0, # of connection points: 3
#     Node 15, Type 0, BuildingBlock: MIDCAF_clean_linker_0, # of connection points: 3
#     Node 16, Type 1, BuildingBlock: NAHDIM_clean_sbu_0, # of connection points: 4
#     Node 17, Type 1, BuildingBlock: NAHDIM_clean_sbu_0, # of connection points: 4
#     Node 18, Type 1, BuildingBlock: NAHDIM_clean_sbu_0, # of connection points: 4
#     Node 19, Type 1, BuildingBlock: NAHDIM_clean_sbu_0, # of connection points: 4
#     Node 20, Type 1, BuildingBlock: NAHDIM_clean_sbu_0, # of connection points: 4
#     Node 21, Type 1, BuildingBlock: NAHDIM_clean_sbu_0, # of connection points: 4
#     Node 22, Type 1, BuildingBlock: NAHDIM_clean_sbu_0, # of connection points: 4
#     Node 23, Type 1, BuildingBlock: NAHDIM_clean_sbu_0, # of connection points: 4
#     Node 24, Type 1, BuildingBlock: NAHDIM_clean_sbu_0, # of connection points: 4
#     Node 25, Type 1, BuildingBlock: NAHDIM_clean_sbu_0, # of connection points: 4
#     Node 26, Type 1, BuildingBlock: NAHDIM_clean_sbu_0, # of connection points: 4
#     Node 27, Type 1, BuildingBlock: NAHDIM_clean_sbu_0, # of connection points: 4
#     Edge 28, Type (0, 1), BuildingBlock: ZUJKAS_clean_linker_0, # of connection points: 2
#     Edge 29, Type (0, 1), BuildingBlock: ZUJKAS_clean_linker_0, # of connection points: 2
#     Edge 30, Type (0, 1), BuildingBlock: ZUJKAS_clean_linker_0, # of connection points: 2
#     Edge 31, Type (0, 1), BuildingBlock: ZUJKAS_clean_linker_0, # of connection points: 2
#     Edge 32, Type (0, 1), BuildingBlock: ZUJKAS_clean_linker_0, # of connection points: 2
#     Edge 33, Type (0, 1), BuildingBlock: ZUJKAS_clean_linker_0, # of connection points: 2
#     Edge 34, Type (0, 1), BuildingBlock: ZUJKAS_clean_linker_0, # of connection points: 2
#     Edge 35, Type (0, 1), BuildingBlock: ZUJKAS_clean_linker_0, # of connection points: 2
#     Edge 36, Type (0, 1), BuildingBlock: ZUJKAS_clean_linker_0, # of connection points: 2
#     Edge 37, Type (0, 1), BuildingBlock: ZUJKAS_clean_linker_0, # of connection points: 2
#     Edge 38, Type (0, 1), BuildingBlock: ZUJKAS_clean_linker_0, # of connection points: 2
#     Edge 39, Type (0, 1), BuildingBlock: ZUJKAS_clean_linker_0, # of connection points: 2
#     Edge 40, Type (0, 1), BuildingBlock: ZUJKAS_clean_linker_0, # of connection points: 2
#     Edge 41, Type (0, 1), BuildingBlock: ZUJKAS_clean_linker_0, # of connection points: 2
#     Edge 42, Type (0, 1), BuildingBlock: ZUJKAS_clean_linker_0, # of connection points: 2
#     Edge 43, Type (0, 1), BuildingBlock: ZUJKAS_clean_linker_0, # of connection points: 2
#     Edge 44, Type (0, 1), BuildingBlock: ZUJKAS_clean_linker_0, # of connection points: 2
#     Edge 45, Type (0, 1), BuildingBlock: ZUJKAS_clean_linker_0, # of connection points: 2
#     Edge 46, Type (0, 1), BuildingBlock: ZUJKAS_clean_linker_0, # of connection points: 2
#     Edge 47, Type (0, 1), BuildingBlock: ZUJKAS_clean_linker_0, # of connection points: 2
#     Edge 48, Type (0, 1), BuildingBlock: ZUJKAS_clean_linker_0, # of connection points: 2
#     Edge 49, Type (0, 1), BuildingBlock: ZUJKAS_clean_linker_0, # of connection points: 2
#     Edge 50, Type (0, 1), BuildingBlock: ZUJKAS_clean_linker_0, # of connection points: 2
#     Edge 51, Type (0, 1), BuildingBlock: ZUJKAS_clean_linker_0, # of connection points: 2
#     Edge 52, Type (0, 1), BuildingBlock: ZUJKAS_clean_linker_0, # of connection points: 2
#     Edge 53, Type (0, 1), BuildingBlock: ZUJKAS_clean_linker_0, # of connection points: 2
#     Edge 54, Type (0, 1), BuildingBlock: ZUJKAS_clean_linker_0, # of connection points: 2
#     Edge 55, Type (0, 1), BuildingBlock: ZUJKAS_clean_linker_0, # of connection points: 2
#     Edge 56, Type (0, 1), BuildingBlock: ZUJKAS_clean_linker_0, # of connection points: 2
#     Edge 57, Type (0, 1), BuildingBlock: ZUJKAS_clean_linker_0, # of connection points: 2
#     Edge 58, Type (0, 1), BuildingBlock: ZUJKAS_clean_linker_0, # of connection points: 2
#     Edge 59, Type (0, 1), BuildingBlock: ZUJKAS_clean_linker_0, # of connection points: 2
#     Edge 60, Type (0, 1), BuildingBlock: ZUJKAS_clean_linker_0, # of connection points: 2
#     Edge 61, Type (0, 1), BuildingBlock: ZUJKAS_clean_linker_0, # of connection points: 2
#     Edge 62, Type (0, 1), BuildingBlock: ZUJKAS_clean_linker_0, # of connection points: 2
#     Edge 63, Type (0, 1), BuildingBlock: ZUJKAS_clean_linker_0, # of connection points: 2
#     Edge 64, Type (0, 1), BuildingBlock: ZUJKAS_clean_linker_0, # of connection points: 2
#     Edge 65, Type (0, 1), BuildingBlock: ZUJKAS_clean_linker_0, # of connection points: 2
#     Edge 66, Type (0, 1), BuildingBlock: ZUJKAS_clean_linker_0, # of connection points: 2
#     Edge 67, Type (0, 1), BuildingBlock: ZUJKAS_clean_linker_0, # of connection points: 2
#     Edge 68, Type (0, 1), BuildingBlock: ZUJKAS_clean_linker_0, # of connection points: 2
#     Edge 69, Type (0, 1), BuildingBlock: ZUJKAS_clean_linker_0, # of connection points: 2
#     Edge 70, Type (0, 1), BuildingBlock: ZUJKAS_clean_linker_0, # of connection points: 2
#     Edge 71, Type (0, 1), BuildingBlock: ZUJKAS_clean_linker_0, # of connection points: 2
#     Edge 72, Type (0, 1), BuildingBlock: ZUJKAS_clean_linker_0, # of connection points: 2
#     Edge 73, Type (0, 1), BuildingBlock: ZUJKAS_clean_linker_0, # of connection points: 2
#     Edge 74, Type (0, 1), BuildingBlock: ZUJKAS_clean_linker_0, # of connection points: 2
#     Edge 75, Type (0, 1), BuildingBlock: ZUJKAS_clean_linker_0, # of connection points: 2
# Relax obj value: 0.001
# Max RMSD: 0.034
# Mean RMSD: 0.016
data_MOF--net-ctn--node1-NAHDIM_clean_sbu_0--node2-MIDCAF_clean_linker_0--edge1-ZUJKAS_clean_linker_0
_symmetry_space_group_name_H-M    P1
_symmetry_Int_Tables_number       1
_symmetry_cell_setting            triclinic
loop_
_symmetry_equiv_pos_as_xyz
'x, y, z'
_cell_length_a     83.883172
_cell_length_b     84.303951
_cell_length_c     83.530239
_cell_angle_alpha  91.106816
_cell_angle_beta   90.030257
_cell_angle_gamma 92.061948
loop_
_atom_site_label
_atom_site_type_symbol
_atom_site_fract_x
_atom_site_fract_y
_atom_site_fract_z
_atom_type_partial_charge
C0 C 0.99036 0.04821 0.0802 0.0
C1 C 0.99424 0.03832 0.09286 0.0
C2 C 0.00785 0.02915 0.09156 0.0
C3 C 0.01741 0.02988 0.07789 0.0
H4 H 0.05328 0.00665 0.0544 0.0
H5 H 0.07559 0.98917 0.05113 0.0
H6 H 0.09174 0.0158 0.01015 0.0
H7 H 0.06927 0.03299 0.01311 0.0
H8 H 0.04673 0.0573 0.99812 0.0
H9 H 0.04309 0.07797 0.97867 0.0
H10 H 0.00524 0.0969 0.00751 0.0
H11 H 0.00897 0.07637 0.02716 0.0
H12 H 0.99666 0.05684 0.05708 0.0
H13 H 0.98002 0.05552 0.08094 0.0
H14 H 0.01103 0.02128 0.10105 0.0
H15 H 0.02782 0.02265 0.07732 0.0
N16 N 0.03625 0.03095 0.04897 0.0
N17 N 0.04311 0.04297 0.02475 0.0
N18 N 0.02132 0.05184 0.03954 0.0
C19 C 0.04588 0.03192 0.03594 0.0
C20 C 0.03086 0.05296 0.02644 0.0
C21 C 0.02393 0.04086 0.05086 0.0
C22 C 0.05943 0.02124 0.03401 0.0
C23 C 0.06156 0.00878 0.04467 0.0
C24 C 0.07441 -0.0012 0.04286 0.0
C25 C 0.08545 0.00108 0.03038 0.0
C26 C 0.08332 0.01354 0.01974 0.0
C27 C 0.07045 0.02347 0.0215 0.0
C28 C 0.02819 0.06518 0.01428 0.0
C29 C 0.03758 0.06582 0.00035 0.0
C30 C 0.03544 0.07761 0.98912 0.0
C31 C 0.0239 0.08907 0.99157 0.0
C32 C 0.01437 0.08834 0.00538 0.0
C33 C 0.01646 0.07651 0.0166 0.0
C34 C 0.01363 0.03987 0.06525 0.0
C35 C -3e-05 0.04902 0.06656 0.0
C36 C 0.26062 0.65782 0.23065 0.0
C37 C 0.24915 0.65358 0.21893 0.0
C38 C 0.24802 0.66298 0.20529 0.0
C39 C 0.25817 0.6763 0.2034 0.0
H40 H 0.26438 0.71635 0.1764 0.0
H41 H 0.26085 0.73405 0.15404 0.0
H42 H 0.30506 0.75918 0.16637 0.0
H43 H 0.30876 0.74145 0.1886 0.0
H44 H 0.32636 0.73377 0.21986 0.0
H45 H 0.34816 0.73934 0.23851 0.0
H46 H 0.33107 0.70091 0.26814 0.0
H47 H 0.30938 0.69503 0.2493 0.0
H48 H 0.27959 0.67395 0.23798 0.0
H49 H 0.26188 0.65071 0.24121 0.0
H50 H 0.23917 0.66011 0.19614 0.0
H51 H 0.25695 0.68325 0.19272 0.0
N52 N 0.27887 0.70415 0.20026 0.0
N53 N 0.30093 0.71994 0.20877 0.0
N54 N 0.29273 0.69774 0.22351 0.0
C55 C 0.28894 0.7169 0.19811 0.0
C56 C 0.30291 0.71044 0.22151 0.0
C57 C 0.28069 0.69449 0.21292 0.0
C58 C 0.28685 0.72747 0.18435 0.0
C59 C 0.2734 0.7256 0.17433 0.0
C60 C 0.27131 0.73579 0.16157 0.0
C61 C 0.28268 0.748 0.15847 0.0
C62 C 0.29619 0.74977 0.16836 0.0
C63 C 0.29824 0.73965 0.18118 0.0
C64 C 0.31608 0.71393 0.23304 0.0
C65 C 0.32719 0.72649 0.23035 0.0
C66 C 0.33966 0.72976 0.2411 0.0
C67 C 0.34133 0.7206 0.25484 0.0
C68 C 0.33022 0.70807 0.25757 0.0
C69 C 0.31774 0.70476 0.24679 0.0
C70 C 0.26975 0.6805 0.21507 0.0
C71 C 0.27083 0.6711 0.22874 0.0
C72 C 0.99153 0.41988 0.00497 0.0
C73 C 0.9841 0.41822 0.98994 0.0
C74 C 0.97346 0.42972 0.98516 0.0
C75 C 0.97013 0.44253 0.99535 0.0
H76 H 0.93783 0.4779 0.0027 0.0
H77 H 0.91479 0.494 0.99807 0.0
H78 H 0.92353 0.51892 0.04305 0.0
H79 H 0.9464 0.50275 0.04787 0.0
H80 H 0.97413 0.49317 0.07012 0.0
H81 H 0.98993 0.49732 0.09439 0.0
H82 H 0.02265 0.4622 0.07769 0.0
H83 H 0.00669 0.45773 0.05364 0.0
H84 H 0.99423 0.43358 0.02662 0.0
H85 H -8e-05 0.41128 0.00888 0.0
H86 H 0.9675 0.42866 0.97367 0.0
H87 H 0.96176 0.45113 0.99138 0.0
N88 N 0.96139 0.46693 0.01846 0.0
N89 N 0.96683 0.48153 0.04215 0.0
N90 N 0.98273 0.46031 0.03486 0.0
C91 C 0.9578 0.47895 0.02878 0.0
C92 C 0.97934 0.47228 0.04526 0.0
C93 C 0.97384 0.45754 0.02145 0.0
C94 C 0.94399 0.48897 0.02569 0.0
C95 C 0.93488 0.48681 0.01162 0.0
C96 C 0.9217 0.49609 0.00891 0.0
C97 C 0.91732 0.50769 0.02022 0.0
C98 C 0.92648 0.50993 0.03422 0.0
C99 C 0.93967 0.5007 0.03691 0.0
C100 C 0.98909 0.47508 0.05991 0.0
C101 C 0.98469 0.48633 0.0716 0.0
C102 C 0.9938 0.48878 0.08549 0.0
C103 C 0.00753 0.48007 0.088 0.0
C104 C 0.01199 0.46892 0.07626 0.0
C105 C 0.00287 0.46643 0.0624 0.0
C106 C 0.9775 0.44417 0.01045 0.0
C107 C 0.98832 0.43274 0.01509 0.0
C108 C 0.72125 0.78115 0.14293 0.0
C109 C 0.71063 0.76834 0.13926 0.0
C110 C 0.69673 0.76625 0.14846 0.0
C111 C 0.69366 0.77658 0.16127 0.0
H112 H 0.66284 0.783 0.19832 0.0
H113 H 0.64169 0.77566 0.21693 0.0
H114 H 0.65997 0.81113 0.25089 0.0
H115 H 0.68092 0.81879 0.23213 0.0
H116 H 0.70882 0.84239 0.2215 0.0
H117 H 0.72722 0.86475 0.22738 0.0
H118 H 0.7531 0.85472 0.18388 0.0
H119 H 0.73463 0.83253 0.17779 0.0
H120 H 0.72669 0.80119 0.15829 0.0
H121 H 0.73197 0.78316 0.13592 0.0
H122 H 0.68839 0.75639 0.14602 0.0
H123 H 0.68293 0.77446 0.16823 0.0
N124 N 0.68924 0.7964 0.18931 0.0
N125 N 0.69685 0.81829 0.20565 0.0
N126 N 0.71144 0.8125 0.18246 0.0
C127 C 0.68681 0.80559 0.20255 0.0
C128 C 0.70916 0.82186 0.19563 0.0
C129 C 0.70152 0.79976 0.17921 0.0
C130 C 0.67364 0.80147 0.21372 0.0
C131 C 0.66236 0.78929 0.20973 0.0
C132 C 0.65026 0.78501 0.22045 0.0
C133 C 0.64918 0.79274 0.23544 0.0
C134 C 0.66034 0.80505 0.23936 0.0
C135 C 0.67241 0.80939 0.22861 0.0
C136 C 0.72021 0.83561 0.19916 0.0
C137 C 0.7184 0.84494 0.21314 0.0
C138 C 0.729 0.85772 0.21658 0.0
C139 C 0.74162 0.86149 0.20611 0.0
C140 C 0.74338 0.85224 0.19209 0.0
C141 C 0.73281 0.83944 0.18866 0.0
C142 C 0.70441 0.78927 0.16514 0.0
C143 C 0.71816 0.79153 0.15571 0.0
C144 C 0.04017 0.93224 0.50112 0.0
C145 C 0.02813 0.92061 0.49781 0.0
C146 C 0.01868 0.92205 0.48405 0.0
C147 C 0.02115 0.93485 0.47388 0.0
H148 H 0.00271 0.95525 0.43448 0.0
H149 H 0.98448 0.95892 0.41231 0.0
H150 H 0.0099 0.0026 0.40052 0.0
H151 H 0.02806 -0.00087 0.42283 0.0
H152 H 0.05837 0.01015 0.44254 0.0
H153 H 0.08094 0.02866 0.44708 0.0
H154 H 0.09599 0.00099 0.48698 0.0
H155 H 0.07362 0.98231 0.48237 0.0
H156 H 0.05201 0.95379 0.49392 0.0
H157 H 0.04752 0.93159 0.51174 0.0
H158 H 0.00946 0.91317 0.48102 0.0
H159 H 0.01365 0.93554 0.46338 0.0
N160 N 0.02573 0.96222 0.45394 0.0
N161 N 0.04037 0.9852 0.44679 0.0
N162 N 0.04812 0.97072 0.46899 0.0
C163 C 0.02794 0.97472 0.44407 0.0
C164 C 0.05053 0.98327 0.45922 0.0
C165 C 0.03575 0.96014 0.46644 0.0
C166 C 0.01689 0.9769 0.43049 0.0
C167 C 0.00445 0.96566 0.4272 0.0
C168 C 0.99403 0.9677 0.41442 0.0
C169 C 0.99576 0.98104 0.40467 0.0
C170 C 0.00816 0.99229 0.40794 0.0
C171 C 0.01862 0.99023 0.42069 0.0
C172 C 0.06415 0.99468 0.46206 0.0
C173 C 0.06647 0.00797 0.45229 0.0
C174 C 0.07936 0.01866 0.45493 0.0
C175 C 0.09025 0.01628 0.46738 0.0
C176 C 0.08792 0.00303 0.47717 0.0
C177 C 0.07502 0.99237 0.47456 0.0
C178 C 0.03318 0.94651 0.4772 0.0
C179 C 0.04268 0.94502 0.49093 0.0
C180 C 0.21994 0.74617 0.84815 0.0
C181 C 0.2098 0.75884 0.85093 0.0
C182 C 0.19604 0.75992 0.84147 0.0
C183 C 0.19249 0.74855 0.82948 0.0
H184 H 0.16209 0.7387 0.79195 0.0
H185 H 0.13999 0.74208 0.77358 0.0
H186 H 0.14931 0.69693 0.75081 0.0
H187 H 0.17129 0.69336 0.76928 0.0
H188 H 0.20037 0.67391 0.78057 0.0
H189 H 0.21833 0.65222 0.77594 0.0
H190 H 0.25208 0.67404 0.80944 0.0
H191 H 0.23426 0.69583 0.81403 0.0
H192 H 0.22445 0.72517 0.83445 0.0
H193 H 0.23051 0.7449 0.85539 0.0
H194 H 0.18809 0.76964 0.84323 0.0
H195 H 0.1818 0.74977 0.8224 0.0
N196 N 0.1859 0.72504 0.80447 0.0
N197 N 0.19213 0.70155 0.79075 0.0
N198 N 0.20844 0.71123 0.81179 0.0
C199 C 0.18244 0.714 0.79279 0.0
C200 C 0.20515 0.70008 0.80019 0.0
C201 C 0.19886 0.72372 0.81404 0.0
C202 C 0.16856 0.71578 0.78208 0.0
C203 C 0.15941 0.72942 0.78311 0.0
C204 C 0.14678 0.73142 0.77252 0.0
C205 C 0.14296 0.71981 0.76072 0.0
C206 C 0.15187 0.70602 0.75988 0.0
C207 C 0.16454 0.70404 0.77042 0.0
C208 C 0.21586 0.68667 0.79765 0.0
C209 C 0.2116 0.67411 0.78698 0.0
C210 C 0.22185 0.66162 0.78438 0.0
C211 C 0.23661 0.66146 0.79231 0.0
C212 C 0.24085 0.67395 0.80303 0.0
C213 C 0.23057 0.68638 0.80572 0.0
C214 C 0.20261 0.73583 0.82671 0.0
C215 C 0.21638 0.7348 0.8362 0.0
C216 C 0.98855 0.59049 0.49423 0.0
C217 C 0.97922 0.59361 0.50781 0.0
C218 C 0.96675 0.5828 0.51175 0.0
C219 C 0.96374 0.56912 0.50236 0.0
H220 H 0.93212 0.53117 0.49618 0.0
H221 H 0.90981 0.51298 0.50212 0.0
H222 H 0.925 0.48095 0.46463 0.0
H223 H 0.94746 0.49897 0.45875 0.0
H224 H 0.97714 0.50833 0.43748 0.0
H225 H 0.9951 0.50281 0.4153 0.0
H226 H 0.01966 0.54814 0.42367 0.0
H227 H 0.00202 0.55355 0.44599 0.0
H228 H 0.99303 0.57486 0.47448 0.0
H229 H 0.99808 0.59871 0.49072 0.0
H230 H 0.95945 0.58479 0.52224 0.0
H231 H 0.95411 0.561 0.5058 0.0
N232 N 0.95783 0.5411 0.48228 0.0
N233 N 0.96502 0.52458 0.46075 0.0
N234 N 0.97986 0.5481 0.46635 0.0
C235 C 0.95517 0.52768 0.47326 0.0
C236 C 0.97739 0.53475 0.45722 0.0
C237 C 0.97017 0.55137 0.47891 0.0
C238 C 0.94163 0.51658 0.47697 0.0
C239 C 0.93076 0.52025 0.4892 0.0
C240 C 0.9179 0.50986 0.49257 0.0
C241 C 0.91564 0.49555 0.48384 0.0
C242 C 0.92653 0.49181 0.47168 0.0
C243 C 0.93936 0.50222 0.46826 0.0
C244 C 0.98813 0.53137 0.44359 0.0
C245 C 0.98636 0.51713 0.43461 0.0
C246 C 0.99661 0.51399 0.42184 0.0
C247 C 0.00883 0.52502 0.41776 0.0
C248 C 0.01054 0.53928 0.42667 0.0
C249 C 0.00033 0.54241 0.43944 0.0
C250 C 0.97315 0.56595 0.48882 0.0
C251 C 0.98557 0.57683 0.48486 0.0
C252 C 0.8417 0.77449 0.75728 0.0
C253 C 0.84442 0.78524 0.74485 0.0
C254 C 0.83494 0.7986 0.74395 0.0
C255 C 0.82297 0.80114 0.75524 0.0
H256 H 0.78797 0.83162 0.76715 0.0
H257 H 0.7707 0.85402 0.76469 0.0
H258 H 0.74369 0.83821 0.80579 0.0
H259 H 0.7611 0.81596 0.80851 0.0
H260 H 0.77022 0.78518 0.82584 0.0
H261 H 0.76592 0.76638 0.84729 0.0
H262 H 0.8062 0.74009 0.83081 0.0
H263 H 0.81073 0.75897 0.80947 0.0
H264 H 0.82805 0.76851 0.77802 0.0
H265 H 0.84896 0.7642 0.75842 0.0
H266 H 0.83664 0.80701 0.73441 0.0
H267 H 0.81587 0.81154 0.75414 0.0
N268 N 0.79808 0.80573 0.77856 0.0
N269 N 0.78407 0.79772 0.80147 0.0
N270 N 0.80512 0.78275 0.7918 0.0
C271 C 0.78632 0.80816 0.78942 0.0
C272 C 0.79343 0.785 0.80276 0.0
C273 C 0.80753 0.79305 0.77967 0.0
C274 C 0.77594 0.82193 0.78802 0.0
C275 C 0.77838 0.8329 0.77571 0.0
C276 C 0.76843 0.84571 0.77423 0.0
C277 C 0.75581 0.84787 0.78501 0.0
C278 C 0.75343 0.83699 0.7974 0.0
C279 C 0.76338 0.82417 0.79889 0.0
C280 C 0.79083 0.77362 0.81588 0.0
C281 C 0.7782 0.77542 0.82676 0.0
C282 C 0.77566 0.76459 0.83902 0.0
C283 C 0.7857 0.75175 0.84072 0.0
C284 C 0.79837 0.74997 0.82991 0.0
C285 C 0.8009 0.76077 0.81762 0.0
C286 C 0.82024 0.7904 0.7677 0.0
C287 C 0.82976 0.77704 0.76858 0.0
C288 C 0.33918 0.27011 0.25543 0.0
C289 C 0.34402 0.28199 0.24471 0.0
C290 C 0.33643 0.29659 0.24532 0.0
C291 C 0.3243 0.29925 0.2564 0.0
H292 H 0.28822 0.32928 0.26663 0.0
H293 H 0.27142 0.35201 0.26405 0.0
H294 H 0.24395 0.33681 0.30507 0.0
H295 H 0.26089 0.3142 0.3079 0.0
H296 H 0.26981 0.28342 0.32572 0.0
H297 H 0.26533 0.26474 0.34727 0.0
H298 H 0.30329 0.23625 0.32897 0.0
H299 H 0.30802 0.255 0.30758 0.0
H300 H 0.3237 0.26334 0.27461 0.0
H301 H 0.34458 0.25863 0.25511 0.0
H302 H 0.34003 0.30609 0.2374 0.0
H303 H 0.31879 0.31067 0.25659 0.0
N304 N 0.29772 0.30319 0.27805 0.0
N305 N 0.28326 0.29524 0.3007 0.0
N306 N 0.30393 0.27978 0.29097 0.0
C307 C 0.28592 0.30579 0.28882 0.0
C308 C 0.29222 0.28221 0.30187 0.0
C309 C 0.30676 0.29021 0.27903 0.0
C310 C 0.27591 0.31984 0.28745 0.0
C311 C 0.27864 0.33076 0.27515 0.0
C312 C 0.26895 0.34377 0.2736 0.0
C313 C 0.25632 0.34617 0.28431 0.0
C314 C 0.2537 0.33538 0.29673 0.0
C315 C 0.26338 0.32236 0.29828 0.0
C316 C 0.28931 0.27077 0.31489 0.0
C317 C 0.27722 0.27318 0.32626 0.0
C318 C 0.27458 0.26243 0.33858 0.0
C319 C 0.28396 0.24903 0.33983 0.0
C320 C 0.296 0.24658 0.32845 0.0
C321 C 0.29864 0.25731 0.31613 0.0
C322 C 0.31954 0.28739 0.26719 0.0
C323 C 0.32713 0.27279 0.26657 0.0
C324 C 0.48944 0.9221 0.5018 0.0
C325 C 0.47879 0.91839 0.48918 0.0
C326 C 0.46564 0.928 0.48697 0.0
C327 C 0.46313 0.94094 0.49725 0.0
H328 H 0.43233 0.97676 0.50625 0.0
H329 H 0.41014 0.99399 0.50197 0.0
H330 H 0.42706 0.02486 0.54072 0.0
H331 H 0.44903 0.00745 0.54531 0.0
H332 H 0.47276 0.99227 0.5706 0.0
H333 H 0.48906 0.99557 0.59459 0.0
H334 H 0.52247 0.96251 0.57503 0.0
H335 H 0.50593 0.95881 0.55124 0.0
H336 H 0.49539 0.93747 0.5217 0.0
H337 H 0.49983 0.91509 0.50367 0.0
H338 H 0.45711 0.92535 0.47747 0.0
H339 H 0.45279 0.94799 0.49528 0.0
N340 N 0.45863 0.96782 0.51863 0.0
N341 N 0.46548 0.98244 0.54194 0.0
N342 N 0.4804 0.96063 0.53416 0.0
C343 C 0.45588 0.98007 0.52895 0.0
C344 C 0.47777 0.97278 0.54463 0.0
C345 C 0.47088 0.95805 0.52114 0.0
C346 C 0.44248 0.99067 0.52615 0.0
C347 C 0.43135 0.98722 0.51387 0.0
C348 C 0.41866 0.99716 0.51134 0.0
C349 C 0.41682 0.01081 0.52099 0.0
C350 C 0.42799 0.01431 0.53322 0.0
C351 C 0.44065 0.00435 0.5358 0.0
C352 C 0.48799 0.97523 0.55899 0.0
C353 C 0.4836 0.98572 0.57137 0.0
C354 C 0.493 0.98769 0.58512 0.0
C355 C 0.50708 0.97929 0.58676 0.0
C356 C 0.51156 0.96895 0.57429 0.0
C357 C 0.50211 0.9669 0.56059 0.0
C358 C 0.4737 0.94456 0.50999 0.0
C359 C 0.48692 0.93501 0.51209 0.0
C360 C 0.22679 0.27674 0.65483 0.0
C361 C 0.21579 0.26442 0.6506 0.0
C362 C 0.20146 0.26285 0.65923 0.0
C363 C 0.19824 0.27335 0.67187 0.0
H364 H 0.16749 0.28006 0.70927 0.0
H365 H 0.14417 0.27558 0.72616 0.0
H366 H 0.1549 0.31976 0.75159 0.0
H367 H 0.17816 0.32441 0.73464 0.0
H368 H 0.2109 0.34275 0.72844 0.0
H369 H 0.23062 0.36358 0.73573 0.0
H370 H 0.26285 0.34544 0.70007 0.0
H371 H 0.2433 0.3245 0.69286 0.0
H372 H 0.23234 0.29663 0.67031 0.0
H373 H 0.23784 0.27839 0.64826 0.0
H374 H 0.19282 0.25337 0.65636 0.0
H375 H 0.18711 0.27174 0.67829 0.0
N376 N 0.1924 0.29492 0.69838 0.0
N377 N 0.20006 0.317 0.71445 0.0
N378 N 0.21652 0.30883 0.69343 0.0
C379 C 0.18936 0.30498 0.71081 0.0
C380 C 0.21368 0.319 0.70582 0.0
C381 C 0.20594 0.29679 0.6896 0.0
C382 C 0.17478 0.30257 0.72062 0.0
C383 C 0.16487 0.28889 0.71838 0.0
C384 C 0.15154 0.28626 0.72811 0.0
C385 C 0.14775 0.29729 0.74022 0.0
C386 C 0.15744 0.31112 0.74225 0.0
C387 C 0.17084 0.31372 0.73259 0.0
C388 C 0.22549 0.3319 0.71007 0.0
C389 C 0.22218 0.34318 0.72213 0.0
C390 C 0.23344 0.35517 0.72627 0.0
C391 C 0.24829 0.35611 0.7185 0.0
C392 C 0.25159 0.34489 0.70641 0.0
C393 C 0.24031 0.33295 0.70222 0.0
C394 C 0.20926 0.28569 0.67613 0.0
C395 C 0.22357 0.28726 0.66743 0.0
C396 C 0.75862 0.15858 0.7335 0.0
C397 C 0.74558 0.15538 0.72323 0.0
C398 C 0.74383 0.16476 0.70966 0.0
C399 C 0.75482 0.17714 0.70649 0.0
H400 H 0.76271 0.21453 0.67677 0.0
H401 H 0.7582 0.23231 0.65474 0.0
H402 H 0.80188 0.25866 0.66652 0.0
H403 H 0.80659 0.24079 0.68842 0.0
H404 H 0.82472 0.23358 0.71997 0.0
H405 H 0.84676 0.23921 0.73842 0.0
H406 H 0.83311 0.19765 0.76532 0.0
H407 H 0.81119 0.19181 0.74678 0.0
H408 H 0.77952 0.17304 0.73853 0.0
H409 H 0.76041 0.15142 0.74394 0.0
H410 H 0.73381 0.16269 0.70161 0.0
H411 H 0.75302 0.18419 0.69598 0.0
N412 N 0.77722 0.20328 0.70095 0.0
N413 N 0.8002 0.2184 0.70811 0.0
N414 N 0.79203 0.19664 0.72349 0.0
C415 C 0.7876 0.21564 0.6981 0.0
C416 C 0.80252 0.20895 0.72083 0.0
C417 C 0.77936 0.19371 0.71361 0.0
C418 C 0.78501 0.22622 0.68444 0.0
C419 C 0.77141 0.22407 0.67467 0.0
C420 C 0.76875 0.23431 0.66208 0.0
C421 C 0.77965 0.24691 0.65893 0.0
C422 C 0.79334 0.24896 0.66855 0.0
C423 C 0.79598 0.23875 0.68117 0.0
C424 C 0.81612 0.21224 0.73187 0.0
C425 C 0.82641 0.22559 0.72978 0.0
C426 C 0.839 0.22889 0.74041 0.0
C427 C 0.84163 0.2189 0.75335 0.0
C428 C 0.83147 0.20548 0.75537 0.0
C429 C 0.81885 0.20219 0.74477 0.0
C430 C 0.76783 0.18041 0.71681 0.0
C431 C 0.76963 0.17093 0.73032 0.0
C432 C 0.49051 0.54688 0.58006 0.0
C433 C 0.4929 0.53468 0.59094 0.0
C434 C 0.50536 0.52427 0.58815 0.0
C435 C 0.51531 0.52612 0.57486 0.0
H436 H 0.55277 0.50611 0.55133 0.0
H437 H 0.57535 0.48911 0.54761 0.0
H438 H 0.59332 0.51938 0.51004 0.0
H439 H 0.57055 0.53617 0.51343 0.0
H440 H 0.54774 0.56179 0.49954 0.0
H441 H 0.5435 0.58351 0.48141 0.0
H442 H 0.50538 0.59979 0.51161 0.0
H443 H 0.50931 0.57792 0.52955 0.0
H444 H 0.49824 0.55829 0.55868 0.0
H445 H 0.48087 0.55495 0.58176 0.0
H446 H 0.50761 0.51486 0.59641 0.0
H447 H 0.52487 0.51795 0.57318 0.0
N448 N 0.53613 0.53089 0.54768 0.0
N449 N 0.54373 0.54506 0.52487 0.0
N450 N 0.5215 0.55258 0.53979 0.0
C451 C 0.54617 0.53303 0.53509 0.0
C452 C 0.5314 0.55487 0.52713 0.0
C453 C 0.52376 0.54062 0.55012 0.0
C454 C 0.55981 0.52255 0.53269 0.0
C455 C 0.5615 0.50915 0.54225 0.0
C456 C 0.57451 0.49943 0.54018 0.0
C457 C 0.58617 0.5029 0.52856 0.0
C458 C 0.58444 0.51624 0.51895 0.0
C459 C 0.5714 0.52592 0.52096 0.0
C460 C 0.52886 0.56806 0.51603 0.0
C461 C 0.53843 0.56997 0.50233 0.0
C462 C 0.53606 0.58248 0.49196 0.0
C463 C 0.5241 0.59338 0.49506 0.0
C464 C 0.51453 0.59146 0.50874 0.0
C465 C 0.51687 0.57895 0.51909 0.0
C466 C 0.51301 0.53841 0.56404 0.0
C467 C 0.50044 0.54872 0.56677 0.0
C468 C 0.5394 0.42852 0.00069 0.0
C469 C 0.52704 0.41744 0.99675 0.0
C470 C 0.51747 0.42008 0.98331 0.0
C471 C 0.52014 0.43356 0.97409 0.0
H472 H 0.50005 0.45897 0.93905 0.0
H473 H 0.48098 0.46513 0.9184 0.0
H474 H 0.5084 0.50798 0.90775 0.0
H475 H 0.52775 0.50173 0.92827 0.0
H476 H 0.55905 0.51053 0.94858 0.0
H477 H 0.58226 0.5279 0.95452 0.0
H478 H 0.5975 0.49528 0.99023 0.0
H479 H 0.57426 0.4781 0.98461 0.0
H480 H 0.55168 0.45029 0.99492 0.0
H481 H 0.54684 0.42697 0.01111 0.0
H482 H 0.50799 0.41166 0.97982 0.0
H483 H 0.51253 0.43521 0.96382 0.0
N484 N 0.52477 0.46272 0.95674 0.0
N485 N 0.54004 0.48578 0.95106 0.0
N486 N 0.54804 0.46897 0.97136 0.0
C487 C 0.52708 0.47603 0.948 0.0
C488 C 0.55059 0.4823 0.96273 0.0
C489 C 0.53519 0.45911 0.96845 0.0
C490 C 0.51548 0.47985 0.93537 0.0
C491 C 0.50208 0.46973 0.93235 0.0
C492 C 0.49105 0.4733 0.92056 0.0
C493 C 0.49313 0.48708 0.91149 0.0
C494 C 0.50654 0.4972 0.91445 0.0
C495 C 0.51759 0.49363 0.92627 0.0
C496 C 0.56472 0.4929 0.96613 0.0
C497 C 0.56733 0.50705 0.95772 0.0
C498 C 0.58068 0.51699 0.96106 0.0
C499 C 0.59169 0.51299 0.97288 0.0
C500 C 0.5891 0.49883 0.98124 0.0
C501 C 0.57579 0.48892 0.97792 0.0
C502 C 0.53247 0.44469 0.97807 0.0
C503 C 0.54212 0.44196 0.99144 0.0
C504 C 0.72172 0.24821 0.35136 0.0
C505 C 0.71102 0.2602 0.35494 0.0
C506 C 0.69679 0.26077 0.34613 0.0
C507 C 0.69341 0.24966 0.33387 0.0
H508 H 0.66539 0.24274 0.29428 0.0
H509 H 0.64424 0.24759 0.27528 0.0
H510 H 0.65481 0.20438 0.24941 0.0
H511 H 0.67587 0.19931 0.26854 0.0
H512 H 0.70699 0.18128 0.27758 0.0
H513 H 0.72445 0.15905 0.2736 0.0
H514 H 0.74795 0.17074 0.31852 0.0
H515 H 0.73046 0.19285 0.32266 0.0
H516 H 0.72685 0.22796 0.33674 0.0
H517 H 0.7327 0.2474 0.35809 0.0
H518 H 0.68838 0.26997 0.34856 0.0
H519 H 0.68238 0.25051 0.32725 0.0
N520 N 0.68853 0.22826 0.30671 0.0
N521 N 0.69482 0.20511 0.29244 0.0
N522 N 0.7099 0.21324 0.31496 0.0
C523 C 0.6855 0.21786 0.29437 0.0
C524 C 0.70702 0.20269 0.30271 0.0
C525 C 0.7007 0.22604 0.31706 0.0
C526 C 0.6724 0.22063 0.28296 0.0
C527 C 0.66323 0.23422 0.28458 0.0
C528 C 0.65114 0.23707 0.27363 0.0
C529 C 0.64791 0.22641 0.26081 0.0
C530 C 0.65693 0.21274 0.25926 0.0
C531 C 0.66906 0.20989 0.27019 0.0
C532 C 0.71732 0.18891 0.30043 0.0
C533 C 0.71582 0.1791 0.28666 0.0
C534 C 0.72588 0.1664 0.28432 0.0
C535 C 0.73758 0.16318 0.29574 0.0
C536 C 0.73894 0.17284 0.30959 0.0
C537 C 0.72896 0.18558 0.3119 0.0
C538 C 0.70414 0.23766 0.33024 0.0
C539 C 0.7183 0.23702 0.3392 0.0
C540 C 0.48637 0.08962 0.9949 0.0
C541 C 0.47882 0.09129 0.00981 0.0
C542 C 0.46762 0.07955 0.0146 0.0
C543 C 0.46397 0.06642 0.00464 0.0
H544 H 0.43063 0.0307 0.99802 0.0
H545 H 0.40812 0.01311 0.00456 0.0
H546 H 0.41918 0.9826 0.96423 0.0
H547 H 0.44158 0.00038 0.9574 0.0
H548 H 0.46836 0.01207 0.93285 0.0
H549 H 0.48484 0.00712 0.9094 0.0
H550 H 0.5168 0.04618 0.92373 0.0
H551 H 0.50021 0.05141 0.94689 0.0
H552 H 0.48887 0.07552 0.97357 0.0
H553 H 0.49516 0.09844 0.99097 0.0
H554 H 0.4615 0.08062 0.02596 0.0
H555 H 0.45524 0.05763 0.0087 0.0
N556 N 0.45526 0.04067 0.98271 0.0
N557 N 0.46055 0.02518 0.95985 0.0
N558 N 0.47649 0.04793 0.96588 0.0
C559 C 0.4516 0.02787 0.97312 0.0
C560 C 0.47304 0.03517 0.95616 0.0
C561 C 0.46767 0.05077 0.97917 0.0
C562 C 0.43797 0.017 0.97716 0.0
C563 C 0.42833 0.02025 0.99051 0.0
C564 C 0.41544 0.0101 0.99435 0.0
C565 C 0.41188 0.99643 0.98495 0.0
C566 C 0.4215 0.99314 0.97161 0.0
C567 C 0.4344 0.00331 0.96775 0.0
C568 C 0.48293 0.03214 0.9418 0.0
C569 C 0.47888 0.01964 0.93099 0.0
C570 C 0.48837 0.01674 0.91758 0.0
C571 C 0.50213 0.02626 0.91468 0.0
C572 C 0.50614 0.03878 0.92545 0.0
C573 C 0.49665 0.04171 0.93882 0.0
C574 C 0.47154 0.0647 0.98972 0.0
C575 C 0.48282 0.07644 0.98498 0.0
C576 C 0.21959 0.90193 0.00697 0.0
O577 O 0.22521 0.90004 0.9924 0.0
O578 O 0.23879 0.86747 0.99372 0.0
Zn579 Zn 0.24419 0.88069 0.01338 0.0
O580 O 0.26392 0.8942 0.00943 0.0
C581 C 0.26052 0.8584 0.0322 0.0
O582 O 0.27131 0.86044 0.02096 0.0
O583 O 0.22597 0.89471 0.0184 0.0
C584 C 0.27189 0.90064 0.02091 0.0
O585 O 0.26697 0.89856 0.03568 0.0
C586 C 0.24936 0.86369 0.9836 0.0
O587 O 0.26424 0.86858 0.98598 0.0
O588 O 0.24777 0.86606 0.0316 0.0
C589 C 0.15303 0.4767 0.26436 0.0
O590 O 0.15718 0.49091 0.26999 0.0
O591 O 0.11121 0.49526 0.27312 0.0
Zn592 Zn 0.12558 0.49307 0.25411 0.0
O593 O 0.13901 0.51305 0.25151 0.0
C594 C 0.10437 0.50104 0.22927 0.0
O595 O 0.10552 0.51481 0.23692 0.0
O596 O 0.13981 0.47467 0.25702 0.0
C597 C 0.14696 0.51493 0.23871 0.0
O598 O 0.14612 0.50378 0.2275 0.0
C599 C 0.11609 0.50192 0.28607 0.0
O600 O 0.13091 0.50745 0.28704 0.0
O601 O 0.11205 0.48949 0.23449 0.0
C602 C 0.78185 0.60371 0.99482 0.0
O603 O 0.77236 0.60086 0.9825 0.0
O604 O 0.76572 0.64167 0.97969 0.0
Zn605 Zn 0.76066 0.62889 -0.0008 0.0
O606 O 0.74123 0.61483 0.99502 0.0
C607 C 0.74307 0.65054 0.01825 0.0
O608 O 0.73228 0.64703 0.00722 0.0
O609 O 0.7792 0.61543 0.00412 0.0
C610 C 0.73412 0.60762 0.00631 0.0
O611 O 0.73976 0.60924 0.02096 0.0
C612 C 0.75475 0.6454 0.97011 0.0
O613 O 0.73998 0.64054 0.97292 0.0
O614 O 0.75646 0.64398 0.01752 0.0
C615 C 0.84705 0.03816 0.26934 0.0
O616 O 0.84829 0.02668 0.27964 0.0
O617 O 0.88205 0.01502 0.27127 0.0
Zn618 Zn 0.86829 0.01871 0.25207 0.0
O619 O 0.85344 -0.00023 0.24819 0.0
C620 C 0.89662 0.02683 0.23379 0.0
O621 O 0.90296 0.02924 0.24805 0.0
O622 O 0.85491 0.03753 0.25635 0.0
C623 C 0.85602 0.9892 0.23755 0.0
O624 O 0.86898 0.99045 0.22877 0.0
C625 C 0.88849 0.00177 0.27316 0.0
O626 O 0.88597 0.99035 0.26244 0.0
O627 O 0.88199 0.0225 0.23263 0.0
C628 C 0.28343 0.10948 0.49471 0.0
O629 O 0.27707 0.11011 0.48038 0.0
O630 O 0.26318 0.14399 0.48222 0.0
Zn631 Zn 0.2587 0.13088 0.50173 0.0
O632 O 0.23932 0.11654 0.49811 0.0
C633 C 0.24998 0.15938 0.51846 0.0
O634 O 0.24778 0.1642 0.50379 0.0
O635 O 0.27752 0.11754 0.50612 0.0
C636 C 0.22571 0.12224 0.49579 0.0
O637 O 0.22438 0.13772 0.49581 0.0
C638 C 0.25776 0.14036 0.46836 0.0
O639 O 0.24904 0.12723 0.46628 0.0
O640 O 0.25478 0.14545 0.52062 0.0
C641 C 0.34248 0.53384 0.7636 0.0
O642 O 0.33753 0.51925 0.76664 0.0
O643 O 0.38518 0.51533 0.77203 0.0
Zn644 Zn 0.37044 0.51786 0.75341 0.0
O645 O 0.35671 0.49807 0.74991 0.0
C646 C 0.39655 0.51489 0.73176 0.0
O647 O 0.40128 0.5053 0.74288 0.0
O648 O 0.35636 0.53627 0.75785 0.0
C649 C 0.36166 0.48412 0.75142 0.0
O650 O 0.37661 0.48216 0.75538 0.0
C651 C 0.38027 0.51064 0.78557 0.0
O652 O 0.36498 0.50736 0.78761 0.0
O653 O 0.38348 0.52186 0.73363 0.0
C654 C 0.72202 0.40531 0.50845 0.0
O655 O 0.72883 0.40417 0.49433 0.0
O656 O 0.74095 0.3707 0.49543 0.0
Zn657 Zn 0.74588 0.38354 0.51554 0.0
O658 O 0.7657 0.39739 0.51287 0.0
C659 C 0.75323 0.35464 0.53115 0.0
O660 O 0.75606 0.35002 0.51634 0.0
O661 O 0.72742 0.39744 0.51995 0.0
C662 C 0.77956 0.39178 0.51296 0.0
O663 O 0.78107 0.37648 0.51486 0.0
C664 C 0.74892 0.37166 0.48253 0.0
O665 O 0.76119 0.38172 0.48174 0.0
O666 O 0.7487 0.36867 0.53384 0.0
C667 C 0.65073 0.97702 0.76559 0.0
O668 O 0.65493 0.99138 0.77076 0.0
O669 O 0.60857 0.99576 0.77299 0.0
Zn670 Zn 0.62352 0.99319 0.75442 0.0
O671 O 0.63743 0.01285 0.7513 0.0
C672 C 0.60061 -0.00088 0.73036 0.0
O673 O 0.59896 0.01189 0.73937 0.0
O674 O 0.63756 0.97481 0.75822 0.0
C675 C 0.63372 0.02685 0.75532 0.0
O676 O 0.61986 0.02918 0.76211 0.0
C677 C 0.61311 0.00121 0.78658 0.0
O678 O 0.62819 0.00547 0.78876 0.0
O679 O 0.6106 0.98897 0.73446 0.0
C680 C 0.00817 0.21829 0.88377 0.0
O681 O 0.00667 0.21623 0.8682 0.0
O682 O 0.98254 0.24541 0.8633 0.0
Zn683 Zn 0.00259 0.2505 0.87582 0.0
O684 O -9e-05 0.27007 0.88958 0.0
C685 C 0.02053 0.26648 0.85164 0.0
O686 O 0.00891 0.27642 0.85331 0.0
O687 O 0.00708 0.23215 0.88982 0.0
C688 C 0.01182 0.279 0.89361 0.0
O689 O 0.02617 0.27518 0.88897 0.0
C690 C 0.97265 0.25594 0.86 0.0
O691 O 0.97535 0.27059 0.8652 0.0
O692 O 0.02051 0.25419 0.86022 0.0
C693 C 0.49861 0.72643 0.39436 0.0
O694 O 0.48414 0.73172 0.39292 0.0
O695 O 0.48549 0.74703 0.36076 0.0
Zn696 Zn 0.50521 0.75219 0.37372 0.0
O697 O 0.50151 0.77107 0.3882 0.0
C698 C 0.52882 0.74647 0.34945 0.0
O699 O 0.52265 0.73193 0.34981 0.0
O700 O 0.51005 0.73345 0.38709 0.0
C701 C 0.50723 0.78481 0.38502 0.0
O702 O 0.51576 0.78677 0.37197 0.0
C703 C 0.47781 0.75791 0.35426 0.0
O704 O 0.48296 0.77274 0.35603 0.0
O705 O 0.52336 0.75702 0.35878 0.0
C706 C 0.99806 0.78754 0.59979 0.0
O707 O 0.98352 0.78129 0.60078 0.0
O708 O 0.98383 0.76698 0.63395 0.0
Zn709 Zn 0.00361 0.76272 0.62126 0.0
O710 O -0.00024 0.74362 0.60692 0.0
C711 C 0.02125 0.74571 0.64403 0.0
O712 O 0.00966 0.73512 0.64121 0.0
O713 O 0.00916 0.78152 0.60776 0.0
C714 C 0.01129 0.73656 0.60044 0.0
O715 O 0.02595 0.74205 0.60302 0.0
C716 C 0.97344 0.75604 0.63671 0.0
O717 O 0.97558 0.74165 0.631 0.0
O718 O 0.02137 0.75874 0.63663 0.0
C719 C 0.4977 0.28479 0.09937 0.0
O720 O 0.48343 0.27791 0.10034 0.0
O721 O 0.4839 0.26481 0.13389 0.0
Zn722 Zn 0.5044 0.26117 0.12197 0.0
O723 O 0.50231 0.24152 0.10797 0.0
C724 C 0.52003 0.25448 0.15176 0.0
O725 O 0.50538 0.25084 0.15627 0.0
O726 O 0.50895 0.27967 0.1078 0.0
C727 C 0.50596 0.2279 0.11274 0.0
O728 O 0.51123 0.22639 0.12742 0.0
C729 C 0.47383 0.25365 0.13691 0.0
O730 O 0.47665 0.23912 0.13202 0.0
O731 O 0.52251 0.25924 0.1376 0.0
H732 H 0.18923 0.77156 0.87264 0.0
H733 H 0.19556 0.79067 0.89436 0.0
H734 H 0.24507 0.79172 0.88041 0.0
H735 H 0.23879 0.77294 0.85841 0.0
H736 H 0.2171 0.78617 0.91966 0.0
H737 H 0.23473 0.83898 0.88416 0.0
H738 H 0.22359 0.82212 0.87567 0.0
H739 H 0.24475 0.82122 0.87863 0.0
C740 C 0.20142 0.77607 0.87403 0.0
C741 C 0.21351 0.77078 0.8638 0.0
C742 C 0.20502 0.7869 0.88649 0.0
C743 C 0.22073 0.79273 0.88884 0.0
C744 C 0.23282 0.78755 0.87861 0.0
H745 H 0.26911 0.85268 0.96017 0.0
H746 H 0.26185 0.83547 0.93719 0.0
C747 C 0.22924 0.7767 0.86617 0.0
C748 C 0.22462 0.80361 0.90248 0.0
H749 H 0.24002 0.84059 0.91211 0.0
C750 C 0.22201 0.79811 0.91804 0.0
C751 C 0.23109 0.81913 0.90026 0.0
C752 C 0.23359 0.82581 0.88378 0.0
C753 C 0.22599 0.80764 0.93149 0.0
C754 C 0.23248 0.82316 0.92928 0.0
C755 C 0.23505 0.82868 0.91372 0.0
C756 C 0.23673 0.83382 0.94301 0.0
C757 C 0.22359 0.80088 0.94795 0.0
C758 C 0.22494 0.83876 0.9537 0.0
C759 C 0.22903 0.84855 0.96685 0.0
C760 C 0.24499 0.85364 0.96947 0.0
C761 C 0.25672 0.84891 0.95853 0.0
C762 C 0.25261 0.83911 0.94539 0.0
H763 H 0.22231 0.78771 0.94752 0.0
H764 H 0.23372 0.8044 0.95598 0.0
H765 H 0.21254 0.80556 0.95326 0.0
H766 H 0.21257 0.83504 0.95188 0.0
H767 H 0.21969 0.85207 0.97498 0.0
H768 H 0.04109 0.53083 0.41657 0.0
H769 H 0.05897 0.52639 0.39395 0.0
H770 H 0.01947 0.50677 0.36604 0.0
H771 H 0.00137 0.5117 0.3884 0.0
H772 H 0.06567 0.4981 0.37791 0.0
H773 H 0.03878 0.54096 0.33702 0.0
H774 H 0.03455 0.54072 0.3582 0.0
H775 H 0.02492 0.52637 0.34488 0.0
C776 C 0.03616 0.52574 0.40556 0.0
C777 C 0.01978 0.52175 0.40423 0.0
C778 C 0.04641 0.5231 0.3927 0.0
C779 C 0.04048 0.51648 0.37827 0.0
C780 C 0.02422 0.51216 0.37699 0.0
H781 H 0.0845 0.49293 0.28742 0.0
H782 H 0.06633 0.49589 0.31007 0.0
C783 C 0.01393 0.51482 0.38984 0.0
C784 C 0.05139 0.51401 0.36462 0.0
H785 H 0.05871 0.52477 0.32606 0.0
C786 C 0.06419 0.50395 0.36657 0.0
C787 C 0.0494 0.52168 0.34988 0.0
C788 C 0.03626 0.53315 0.34735 0.0
C789 C 0.07497 0.50119 0.35408 0.0
C790 C 0.07298 0.50888 0.33937 0.0
C791 C 0.06015 0.51888 0.33738 0.0
C792 C 0.08415 0.50681 0.32588 0.0
C793 C 0.08825 0.4899 0.35662 0.0
C794 C 0.10014 0.51211 0.32727 0.0
C795 C 0.11057 0.51046 0.31436 0.0
C796 C 0.10514 0.50353 0.29982 0.0
C797 C 0.08908 0.49828 0.29847 0.0
C798 C 0.07867 0.49996 0.31138 0.0
H799 H 0.0859 0.48216 0.36704 0.0
H800 H 0.08996 0.48228 0.34581 0.0
H801 H 0.09955 0.49682 0.35893 0.0
H802 H 0.10451 0.51768 0.3383 0.0
H803 H 0.12284 0.51468 0.31576 0.0
H804 H 0.80789 0.73902 0.86022 0.0
H805 H 0.80322 0.71993 0.8816 0.0
H806 H 0.75267 0.71971 0.87217 0.0
H807 H 0.75724 0.73849 0.85055 0.0
H808 H 0.78373 0.72404 0.90916 0.0
H809 H 0.76318 0.67221 0.87156 0.0
H810 H 0.77383 0.68921 0.86341 0.0
H811 H 0.75296 0.69018 0.868 0.0
C812 C 0.7958 0.73475 0.86258 0.0
C813 C 0.78293 0.7402 0.85367 0.0
C814 C 0.79316 0.72392 0.87483 0.0
C815 C 0.77764 0.71828 0.87828 0.0
C816 C 0.76476 0.72374 0.86949 0.0
H817 H 0.73392 0.6568 0.94836 0.0
H818 H 0.74002 0.67444 0.92612 0.0
C819 C 0.76738 0.73459 0.85727 0.0
C820 C 0.77484 0.70707 0.89145 0.0
H821 H 0.76007 0.66988 0.89968 0.0
C822 C 0.77867 0.71215 0.90711 0.0
C823 C 0.76819 0.69161 0.88867 0.0
C824 C 0.76441 0.68538 0.87199 0.0
C825 C 0.77566 0.70229 0.92018 0.0
C826 C 0.76893 0.68686 0.91742 0.0
C827 C 0.76521 0.68173 0.90173 0.0
C828 C 0.76542 0.67592 0.93069 0.0
C829 C 0.77928 0.70864 0.93686 0.0
C830 C 0.77774 0.67072 0.94042 0.0
C831 C 0.7743 0.66067 0.95316 0.0
C832 C 0.75848 0.65557 0.9563 0.0
C833 C 0.74622 0.66054 0.94629 0.0
C834 C 0.74967 0.67061 0.93358 0.0
H835 H 0.78063 0.7218 0.9372 0.0
H836 H 0.76972 0.70497 0.94535 0.0
H837 H 0.79064 0.70379 0.94105 0.0
H838 H 0.79002 0.67444 0.93817 0.0
H839 H 0.78404 0.65697 0.96058 0.0
H840 H 0.98464 0.95864 0.3829 0.0
H841 H 0.96628 0.96227 0.3606 0.0
H842 H 0.96334 0.01184 0.37359 0.0
H843 H 0.98168 0.00832 0.39591 0.0
H844 H 0.93517 0.97279 0.36136 0.0
H845 H 0.9747 0.01309 0.32604 0.0
H846 H 0.98197 0.00164 0.34239 0.0
H847 H 0.97171 0.01965 0.34636 0.0
C848 C 0.98003 0.9703 0.38104 0.0
C849 C 0.98466 0.98322 0.39112 0.0
C850 C 0.9696 0.97236 0.36827 0.0
C851 C 0.96366 0.98737 0.36531 0.0
C852 C 0.9681 0.00025 0.37545 0.0
H853 H 0.89782 0.02362 0.29623 0.0
H854 H 0.91565 0.01978 0.3189 0.0
C855 C 0.97856 0.99821 0.38819 0.0
C856 C 0.95256 0.98947 0.35181 0.0
H857 H 0.94789 0.00964 0.31718 0.0
C858 C 0.93796 0.98078 0.35165 0.0
C859 C 0.95627 -9e-05 0.33919 0.0
C860 C 0.97207 0.00901 0.33837 0.0
C861 C 0.92684 0.98247 0.33931 0.0
C862 C 0.93053 0.99296 0.32674 0.0
C863 C 0.94511 0.00164 0.32689 0.0
C864 C 0.91945 0.99506 0.31325 0.0
C865 C 0.9111 0.97325 0.33996 0.0
C866 C 0.9158 0.98243 0.30254 0.0
C867 C 0.90565 0.98458 0.28955 0.0
C868 C 0.89901 -0.00059 0.28705 0.0
C869 C 0.9027 0.01203 0.29784 0.0
C870 C 0.91289 0.00988 0.31078 0.0
H871 H 0.90863 0.96861 0.3521 0.0
H872 H 0.90114 0.98078 0.33641 0.0
H873 H 0.91138 0.963 0.33145 0.0
H874 H 0.92096 0.97097 0.30411 0.0
H875 H 0.90309 0.97463 0.28144 0.0
H876 H 0.24397 0.25039 0.64392 0.0
H877 H 0.24981 0.23238 0.62154 0.0
H878 H 0.20137 0.23508 0.60476 0.0
H879 H 0.19543 0.25315 0.62708 0.0
H880 H 0.21238 0.20411 0.60528 0.0
H881 H 0.25515 0.2451 0.57462 0.0
H882 H 0.25981 0.24182 0.59525 0.0
H883 H 0.2419 0.2517 0.59021 0.0
C884 C 0.2346 0.24727 0.63538 0.0
C885 C 0.21926 0.25327 0.6372 0.0
C886 C 0.23796 0.23698 0.62262 0.0
C887 C 0.22608 0.23261 0.61139 0.0
C888 C 0.2107 0.23836 0.6133 0.0
H889 H 0.23872 0.18934 0.51778 0.0
H890 H 0.23268 0.20672 0.54055 0.0
C891 C 0.20732 0.24862 0.62608 0.0
C892 C 0.22965 0.22192 0.59771 0.0
H893 H 0.25305 0.21862 0.56449 0.0
C894 C 0.22124 0.20727 0.59634 0.0
C895 C 0.24109 0.2262 0.58599 0.0
C896 C 0.24992 0.24212 0.58645 0.0
C897 C 0.22411 0.19665 0.58361 0.0
C898 C 0.23588 0.20074 0.57213 0.0
C899 C 0.24415 0.21547 0.57341 0.0
C900 C 0.23953 0.19006 0.55846 0.0
C901 C 0.21433 0.1813 0.58238 0.0
C902 C 0.24556 0.17501 0.56102 0.0
C903 C 0.249 0.16501 0.54803 0.0
C904 C 0.24656 0.16996 0.53226 0.0
C905 C 0.24071 0.18514 0.52977 0.0
C906 C 0.23726 0.1951 0.54275 0.0
H907 H 0.20329 0.18175 0.58969 0.0
H908 H 0.21096 0.17849 0.56976 0.0
H909 H 0.2215 0.17149 0.58682 0.0
H910 H 0.24769 0.17103 0.57306 0.0
H911 H 0.25357 0.15343 0.55036 0.0
H912 H 0.48007 0.50726 0.60337 0.0
H913 H 0.4633 0.50448 0.62719 0.0
H914 H 0.46529 0.5553 0.63443 0.0
H915 H 0.48242 0.55817 0.61089 0.0
H916 H 0.47128 0.53825 0.66218 0.0
H917 H 0.41611 0.51571 0.63131 0.0
H918 H 0.43357 0.5048 0.62662 0.0
H919 H 0.43257 0.52516 0.6208 0.0
C920 C 0.477 0.51784 0.61008 0.0
C921 C 0.48252 0.53294 0.60522 0.0
C922 C 0.46728 0.51624 0.62357 0.0
C923 C 0.46288 0.52971 0.6324 0.0
C924 C 0.46846 0.54478 0.62768 0.0
H925 H 0.3901 0.53357 0.70628 0.0
H926 H 0.40638 0.5377 0.6823 0.0
C927 C 0.47815 0.54639 0.61418 0.0
C928 C 0.45281 0.52807 0.64684 0.0
H929 H 0.41621 0.51476 0.65974 0.0
C930 C 0.45921 0.53317 0.66166 0.0
C931 C 0.43703 0.52162 0.64605 0.0
C932 C 0.42932 0.51663 0.63033 0.0
C933 C 0.45034 0.53171 0.67581 0.0
C934 C 0.43475 0.52476 0.67509 0.0
C935 C 0.42823 0.51995 0.66023 0.0
C936 C 0.42503 0.52233 0.68966 0.0
C937 C 0.45764 0.53776 0.69138 0.0
C938 C 0.43008 0.51219 0.70161 0.0
C939 C 0.42083 0.50981 0.71531 0.0
C940 C 0.40633 0.51747 0.71725 0.0
C941 C 0.40124 0.52753 0.70517 0.0
C942 C 0.4105 0.52989 0.69146 0.0
H943 H 0.46782 0.54628 0.68935 0.0
H944 H 0.44865 0.54367 0.69896 0.0
H945 H 0.46216 0.5276 0.69807 0.0
H946 H 0.44112 0.50602 0.70029 0.0
H947 H 0.42506 0.50192 0.72435 0.0
H948 H 0.80099 0.25873 0.63705 0.0
H949 H 0.79603 0.2774 0.61569 0.0
H950 H 0.74662 0.27881 0.62974 0.0
H951 H 0.75149 0.26016 0.65113 0.0
H952 H 0.75071 0.27506 0.59699 0.0
H953 H 0.78902 0.32496 0.62117 0.0
H954 H 0.79913 0.30664 0.61883 0.0
H955 H 0.78308 0.30804 0.63298 0.0
C956 C 0.78911 0.26313 0.63568 0.0
C957 C 0.77664 0.25803 0.64581 0.0
C958 C 0.7863 0.2738 0.62349 0.0
C959 C 0.77102 0.27966 0.62132 0.0
C960 C 0.75851 0.27445 0.63127 0.0
H961 H 0.74771 0.36001 0.56306 0.0
H962 H 0.75137 0.34168 0.58501 0.0
C963 C 0.76129 0.26375 0.64343 0.0
C964 C 0.76799 0.29101 0.60847 0.0
H965 H 0.7791 0.32762 0.59471 0.0
C966 C 0.75686 0.28658 0.59651 0.0
C967 C 0.77588 0.30611 0.60803 0.0
C968 C 0.78733 0.31182 0.62101 0.0
C969 C 0.75362 0.29675 0.58391 0.0
C970 C 0.76196 0.3116 0.58314 0.0
C971 C 0.77285 0.31616 0.59527 0.0
C972 C 0.75958 0.32258 0.56981 0.0
C973 C 0.74117 0.29158 0.57165 0.0
C974 C 0.76317 0.31795 0.55404 0.0
C975 C 0.76105 0.32836 0.54148 0.0
C976 C 0.75543 0.34365 0.54449 0.0
C977 C 0.75201 0.34831 0.56034 0.0
C978 C 0.75411 0.33786 0.57289 0.0
H979 H 0.73296 0.2821 0.57627 0.0
H980 H 0.73402 0.30174 0.568 0.0
H981 H 0.74718 0.28679 0.56085 0.0
H982 H 0.76773 0.30632 0.55146 0.0
H983 H 0.7639 0.32443 0.52943 0.0
H984 H 0.52245 0.95628 0.60285 0.0
H985 H 0.53858 0.95947 0.62718 0.0
H986 H 0.52982 0.00954 0.62868 0.0
H987 H 0.51406 0.00662 0.60408 0.0
H988 H 0.56673 0.98271 0.63203 0.0
H989 H 0.5158 0.99075 0.67377 0.0
H990 H 0.51344 0.98104 0.6544 0.0
H991 H 0.51604 0.00223 0.65582 0.0
C992 C 0.5241 0.96801 0.60822 0.0
C993 C 0.51693 0.9812 0.60151 0.0
C994 C 0.53323 0.96978 0.62217 0.0
C995 C 0.53521 0.98469 0.62973 0.0
C996 C 0.52821 0.99789 0.62307 0.0
H997 H 0.58066 0.01991 0.71677 0.0
H998 H 0.56524 0.01616 0.69209 0.0
C999 C 0.51916 0.99618 0.60907 0.0
C1000 C 0.54474 0.9865 0.64454 0.0
H1001 H 0.54171 0.99401 0.68466 0.0
C1002 C 0.56131 0.98512 0.64357 0.0
C1003 C 0.53754 0.9897 0.65947 0.0
C1004 C 0.51971 0.99093 0.66107 0.0
C1005 C 0.571 0.98719 0.65721 0.0
C1006 C 0.5638 0.99031 0.67221 0.0
C1007 C 0.54718 0.99161 0.67314 0.0
C1008 C 0.57329 0.99247 0.68709 0.0
C1009 C 0.58885 0.98646 0.65534 0.0
C1010 C 0.58278 0.98031 0.69256 0.0
C1011 C 0.5917 0.98246 0.70662 0.0
C1012 C 0.59111 0.99673 0.71555 0.0
C1013 C 0.58139 0.00878 0.71016 0.0
C1014 C 0.57256 0.00666 0.69606 0.0
H1015 H 0.59262 0.98836 0.64275 0.0
H1016 H 0.59514 0.99548 0.66314 0.0
H1017 H 0.59269 0.97455 0.65883 0.0
H1018 H 0.5832 0.96912 0.68602 0.0
H1019 H 0.59897 0.9729 0.71052 0.0
H1020 H 0.86248 0.19828 0.76597 0.0
H1021 H 0.88418 0.20436 0.78499 0.0
H1022 H 0.87263 0.2538 0.78519 0.0
H1023 H 0.85069 0.24778 0.76648 0.0
H1024 H 0.91066 0.22598 0.78057 0.0
H1025 H 0.87386 0.24265 0.83314 0.0
H1026 H 0.86572 0.23165 0.81607 0.0
H1027 H 0.8694 0.25273 0.81501 0.0
C1028 C 0.86445 0.21041 0.77021 0.0
C1029 C 0.85485 0.22255 0.76478 0.0
C1030 C 0.87688 0.21387 0.78099 0.0
C1031 C 0.87984 0.22948 0.78662 0.0
C1032 C 0.87036 0.24163 0.78117 0.0
H1033 H 0.95016 0.27584 0.84918 0.0
H1034 H 0.92765 0.26914 0.83136 0.0
C1035 C 0.85795 0.2382 0.77035 0.0
C1036 C 0.89316 0.23313 0.79784 0.0
H1037 H 0.90181 0.24748 0.83545 0.0
C1038 C 0.90876 0.2306 0.7926 0.0
C1039 C 0.89056 0.23919 0.81348 0.0
C1040 C 0.87398 0.24161 0.81986 0.0
C1041 C 0.92192 0.23427 0.80252 0.0
C1042 C 0.91934 0.24033 0.81818 0.0
C1043 C 0.90372 0.24283 0.82343 0.0
C1044 C 0.93272 0.24421 0.82928 0.0
C1045 C 0.93849 0.232 0.79602 0.0
C1046 C 0.9428 0.23233 0.83423 0.0
C1047 C 0.95568 0.23611 0.84437 0.0
C1048 C 0.95863 0.25183 0.84982 0.0
C1049 C 0.94825 0.26363 0.84515 0.0
C1050 C 0.93538 0.25984 0.83498 0.0
H1051 H 0.93855 0.23119 0.78273 0.0
H1052 H 0.94676 0.2419 0.79994 0.0
H1053 H 0.94309 0.22078 0.80063 0.0
H1054 H 0.94073 0.22013 0.83023 0.0
H1055 H 0.96338 0.22671 0.84784 0.0
H1056 H 0.47508 0.91636 0.45661 0.0
H1057 H 0.47939 0.89337 0.439 0.0
H1058 H 0.49282 0.86614 0.47972 0.0
H1059 H 0.48833 0.88896 0.49745 0.0
H1060 H 0.51414 0.86466 0.45325 0.0
H1061 H 0.45102 0.85215 0.43542 0.0
H1062 H 0.45816 0.8723 0.43283 0.0
H1063 H 0.45655 0.86444 0.45263 0.0
C1064 C 0.47875 0.90542 0.46185 0.0
C1065 C 0.48134 0.90448 0.47844 0.0
C1066 C 0.48122 0.89232 0.45177 0.0
C1067 C 0.48625 0.87805 0.45812 0.0
C1068 C 0.48892 0.87707 0.47463 0.0
H1069 H 0.48874 0.7852 0.41198 0.0
H1070 H 0.48392 0.80785 0.42986 0.0
C1071 C 0.48643 0.89015 0.48471 0.0
C1072 C 0.48911 0.86422 0.4475 0.0
H1073 H 0.47064 0.83753 0.42175 0.0
C1074 C 0.50465 0.85869 0.44637 0.0
C1075 C 0.47663 0.85641 0.43871 0.0
C1076 C 0.45961 0.8615 0.44001 0.0
C1077 C 0.50811 0.84565 0.43646 0.0
C1078 C 0.49571 0.83809 0.42736 0.0
C1079 C 0.48012 0.84346 0.42867 0.0
C1080 C 0.49867 0.82447 0.4165 0.0
C1081 C 0.52494 0.83991 0.43596 0.0
C1082 C 0.50843 0.82642 0.403 0.0
C1083 C 0.5112 0.81352 0.39276 0.0
C1084 C 0.50423 0.79847 0.39583 0.0
C1085 C 0.49434 0.79662 0.40931 0.0
C1086 C 0.49154 0.80953 0.41952 0.0
H1087 H 0.53215 0.84462 0.44627 0.0
H1088 H 0.52496 0.82674 0.43596 0.0
H1089 H 0.5308 0.84398 0.42479 0.0
H1090 H 0.51383 0.83793 0.40036 0.0
H1091 H 0.51882 0.81537 0.38244 0.0
H1092 H 0.13941 0.26952 0.7548 0.0
H1093 H 0.11719 0.26449 0.77323 0.0
H1094 H 0.10317 0.31292 0.76881 0.0
H1095 H 0.12526 0.31802 0.75018 0.0
H1096 H 0.11202 0.28237 0.80316 0.0
H1097 H 0.06167 0.28479 0.75997 0.0
H1098 H 0.08188 0.28133 0.7537 0.0
H1099 H 0.07626 0.30095 0.75953 0.0
C1100 C 0.13146 0.27904 0.75758 0.0
C1101 C 0.13402 0.29415 0.75101 0.0
C1102 C 0.11886 0.27617 0.76816 0.0
C1103 C 0.10851 0.2883 0.77222 0.0
C1104 C 0.11095 0.30337 0.76565 0.0
H1105 H 0.02559 0.293 0.83381 0.0
H1106 H 0.04724 0.29841 0.81488 0.0
C1107 C 0.12362 0.30629 0.75513 0.0
C1108 C 0.0955 0.2853 0.7838 0.0
H1109 H 0.055 0.28231 0.7873 0.0
C1110 C 0.09954 0.28231 0.79973 0.0
C1111 C 0.07929 0.28534 0.77923 0.0
C1112 C 0.07442 0.28816 0.76216 0.0
C1113 C 0.08773 0.27953 0.81132 0.0
C1114 C 0.07148 0.27935 0.80672 0.0
C1115 C 0.06747 0.28242 0.79078 0.0
C1116 C 0.05846 0.27601 0.81826 0.0
C1117 C 0.09276 0.27717 0.82843 0.0
C1118 C 0.0575 0.26153 0.82627 0.0
C1119 C 0.0452 0.25843 0.83717 0.0
C1120 C 0.03354 0.2697 0.84009 0.0
C1121 C 0.0344 0.28409 0.83185 0.0
C1122 C 0.04675 0.2872 0.82102 0.0
H1123 H 0.10503 0.28207 0.83075 0.0
H1124 H 0.08447 0.28289 0.83695 0.0
H1125 H 0.09264 0.26427 0.83087 0.0
H1126 H 0.0662 0.25257 0.82402 0.0
H1127 H 0.04479 0.24718 0.84323 0.0
H1128 H 0.54686 0.61216 0.48042 0.0
H1129 H 0.5427 0.63459 0.46291 0.0
H1130 H 0.49179 0.6275 0.46768 0.0
H1131 H 0.49578 0.6049 0.48497 0.0
H1132 H 0.52461 0.63499 0.43337 0.0
H1133 H 0.50089 0.6748 0.48081 0.0
H1134 H 0.51186 0.65738 0.48528 0.0
H1135 H 0.49131 0.65541 0.47929 0.0
C1136 C 0.53477 0.61526 0.47762 0.0
C1137 C 0.52165 0.60679 0.48416 0.0
C1138 C 0.53244 0.62812 0.46769 0.0
C1139 C 0.51696 0.63279 0.46423 0.0
C1140 C 0.50383 0.62424 0.47049 0.0
H1141 H 0.47657 0.70803 0.41024 0.0
H1142 H 0.48135 0.685 0.42668 0.0
C1143 C 0.50614 0.61136 0.48038 0.0
C1144 C 0.51451 0.64659 0.45397 0.0
H1145 H 0.49967 0.68373 0.45415 0.0
C1146 C 0.51923 0.6457 0.43788 0.0
C1147 C 0.50746 0.66047 0.45997 0.0
C1148 C 0.50269 0.66221 0.47731 0.0
C1149 C 0.51676 0.65826 0.42749 0.0
C1150 C 0.5097 0.67215 0.43348 0.0
C1151 C 0.50506 0.67305 0.4496 0.0
C1152 C 0.50692 0.68591 0.42323 0.0
C1153 C 0.52136 0.65638 0.41011 0.0
C1154 C 0.51975 0.69412 0.41598 0.0
C1155 C 0.51707 0.70726 0.40652 0.0
C1156 C 0.5015 0.71249 0.40429 0.0
C1157 C 0.4887 0.7043 0.4117 0.0
C1158 C 0.4914 0.69115 0.4211 0.0
H1159 H 0.52263 0.64371 0.40659 0.0
H1160 H 0.51238 0.66157 0.40217 0.0
H1161 H 0.53301 0.66268 0.40809 0.0
H1162 H 0.53186 0.69048 0.41776 0.0
H1163 H 0.5272 0.71336 0.40106 0.0
H1164 H 0.85186 0.75732 0.72993 0.0
H1165 H 0.8735 0.75282 0.71091 0.0
H1166 H 0.88716 0.80261 0.71349 0.0
H1167 H 0.86582 0.80715 0.73282 0.0
H1168 H 0.87913 0.76725 0.68065 0.0
H1169 H 0.92866 0.77987 0.7238 0.0
H1170 H 0.90834 0.77591 0.73012 0.0
H1171 H 0.91426 0.79508 0.72264 0.0
C1172 C 0.85956 0.76728 0.72655 0.0
C1173 C 0.85721 0.78257 0.73295 0.0
C1174 C 0.87183 0.76471 0.71562 0.0
C1175 C 0.88201 0.77735 0.71099 0.0
C1176 C 0.87955 0.79267 0.71712 0.0
H1177 H 0.96536 0.7845 0.65004 0.0
H1178 H 0.94254 0.7898 0.66727 0.0
C1179 C 0.86727 0.79526 0.72803 0.0
C1180 C 0.89522 0.77449 0.69973 0.0
H1181 H 0.93579 0.77595 0.69665 0.0
C1182 C 0.89153 0.76911 0.68412 0.0
C1183 C 0.91135 0.77694 0.70436 0.0
C1184 C 0.91596 0.78214 0.72117 0.0
C1185 C 0.9036 0.76633 0.67289 0.0
C1186 C 0.91973 0.76875 0.67754 0.0
C1187 C 0.9234 0.77415 0.69314 0.0
C1188 C 0.93304 0.76559 0.66647 0.0
C1189 C 0.89898 0.76112 0.65608 0.0
C1190 C 0.93527 0.75021 0.66038 0.0
C1191 C 0.94828 0.74713 0.65052 0.0
C1192 C 0.95936 0.75938 0.64668 0.0
C1193 C 0.95704 0.7748 0.65276 0.0
C1194 C 0.94402 0.77786 0.66261 0.0
H1195 H 0.88642 0.76384 0.65332 0.0
H1196 H 0.9069 0.76695 0.64713 0.0
H1197 H 0.90017 0.74809 0.6548 0.0
H1198 H 0.9271 0.74051 0.6635 0.0
H1199 H 0.94976 0.73512 0.64609 0.0
H1200 H -0.00044 0.90732 0.50746 0.0
H1201 H 0.99511 0.88472 0.52503 0.0
H1202 H 0.04591 0.88071 0.53045 0.0
H1203 H 0.05052 0.90314 0.51267 0.0
H1204 H 0.007 0.85322 0.52034 0.0
H1205 H 0.02841 0.8824 0.57705 0.0
H1206 H 0.02291 0.89352 0.55974 0.0
H1207 H 0.04171 0.88401 0.56025 0.0
C1208 C 0.0098 0.90158 0.5123 0.0
C1209 C 0.0254 0.90704 0.50867 0.0
C1210 C 0.00722 0.88873 0.52239 0.0
C1211 C 0.02018 0.88121 0.52915 0.0
C1212 C 0.03576 0.88657 0.52557 0.0
H1213 H 0.02706 0.80189 0.59333 0.0
H1214 H 0.03258 0.82436 0.57581 0.0
C1215 C 0.03836 0.8994 0.51543 0.0
C1216 C 0.01736 0.86745 0.5396 0.0
H1217 H 0.02169 0.85495 0.57791 0.0
C1218 C 0.01016 0.85357 0.53294 0.0
C1219 C 0.02161 0.868 0.55598 0.0
C1220 C 0.02898 0.8828 0.56378 0.0
C1221 C 0.00723 0.8401 0.54222 0.0
C1222 C 0.01129 0.84069 0.55867 0.0
C1223 C 0.01859 0.85455 0.5653 0.0
C1224 C 0.00789 0.82711 0.56924 0.0
C1225 C 0.0001 0.82526 0.53425 0.0
C1226 C 0.99216 0.82138 0.57152 0.0
C1227 C 0.98897 0.80852 0.58144 0.0
C1228 C 0.00146 0.80126 0.58942 0.0
C1229 C 0.01719 0.8072 0.58733 0.0
C1230 C 0.02036 0.82003 0.57734 0.0
H1231 H 0.00188 0.8253 0.52107 0.0
H1232 H 0.0054 0.81446 0.53908 0.0
H1233 H 0.98707 0.82458 0.53657 0.0
H1234 H 0.98233 0.82692 0.56567 0.0
H1235 H 0.97672 0.80432 0.5829 0.0
H1236 H 0.11993 0.69825 0.75018 0.0
H1237 H 0.09918 0.70219 0.73011 0.0
H1238 H 0.11588 0.7508 0.725 0.0
H1239 H 0.13682 0.7469 0.74478 0.0
H1240 H 0.07476 0.72562 0.73074 0.0
H1241 H 0.11565 0.73176 0.67872 0.0
H1242 H 0.12161 0.72314 0.69732 0.0
H1243 H 0.12067 0.7443 0.69575 0.0
C1244 C 0.11924 0.70974 0.7447 0.0
C1245 C 0.13003 0.72225 0.74901 0.0
C1246 C 0.10735 0.71199 0.73332 0.0
C1247 C 0.10618 0.72671 0.72597 0.0
C1248 C 0.11676 0.73928 0.7304 0.0
H1249 H 0.04576 0.76577 0.65403 0.0
H1250 H 0.06605 0.7608 0.67418 0.0
C1251 C 0.1286 0.73708 0.74181 0.0
C1252 C 0.09379 0.72901 0.71374 0.0
H1253 H 0.08854 0.73743 0.67434 0.0
C1254 C 0.07772 0.72812 0.71838 0.0
C1255 C 0.09777 0.73228 0.69767 0.0
C1256 C 0.11485 0.73281 0.69197 0.0
C1257 C 0.06549 0.7308 0.70741 0.0
C1258 C 0.06947 0.73413 0.69133 0.0
C1259 C 0.08555 0.7349 0.68668 0.0
C1260 C 0.05715 0.737 0.67915 0.0
C1261 C 0.04845 0.73048 0.71322 0.0
C1262 C 0.04559 0.72516 0.67512 0.0
C1263 C 0.03394 0.72797 0.66366 0.0
C1264 C 0.03376 0.74263 0.65592 0.0
C1265 C 0.04555 0.75436 0.65979 0.0
C1266 C 0.05715 0.75155 0.67129 0.0
H1267 H 0.04776 0.73188 0.72646 0.0
H1268 H 0.04165 0.74002 0.70769 0.0
H1269 H 0.04258 0.7189 0.70982 0.0
H1270 H 0.04561 0.71371 0.68079 0.0
H1271 H 0.02511 0.71864 0.66086 0.0
H1272 H 0.00828 0.60647 0.517 0.0
H1273 H 0.01373 0.63072 0.53291 0.0
H1274 H 0.96323 0.63774 0.53717 0.0
H1275 H 0.95765 0.6136 0.5211 0.0
H1276 H 0.00414 0.66189 0.52588 0.0
H1277 H 0.97967 0.64078 0.58382 0.0
H1278 H 0.98445 0.62739 0.56752 0.0
H1279 H 0.96638 0.63818 0.56702 0.0
C1280 C 0.99832 0.61321 0.52125 0.0
C1281 C 0.98252 0.60811 0.5178 0.0
C1282 C 0.00146 0.627 0.5304 0.0
C1283 C 0.98888 0.63588 0.53635 0.0
C1284 C 0.97309 0.63086 0.53294 0.0
H1285 H 0.98241 0.72271 0.5923 0.0
H1286 H 0.9773 0.69853 0.57625 0.0
C1287 C 0.96993 0.61707 0.52377 0.0
C1288 C 0.99229 0.65064 0.54574 0.0
H1289 H 0.98715 0.6681 0.58247 0.0
C1290 C 0.00051 0.66326 0.53828 0.0
C1291 C 0.98748 0.65233 0.56188 0.0
C1292 C 0.97912 0.63892 0.57062 0.0
C1293 C 0.00379 0.67769 0.54646 0.0
C1294 C -0.00102 0.67939 0.56261 0.0
C1295 C 0.9908 0.66674 0.57008 0.0
C1296 C 0.00222 0.69422 0.57198 0.0
C1297 C 0.01203 0.69112 0.53764 0.0
C1298 C 0.01795 0.69973 0.57497 0.0
C1299 C 0.02092 0.71359 0.58409 0.0
C1300 C 0.00821 0.72209 0.59048 0.0
C1301 C 0.99247 0.71647 0.58752 0.0
C1302 C 0.98952 0.70264 0.57837 0.0
H1303 H 0.01119 0.68934 0.52445 0.0
H1304 H 0.00684 0.70267 0.54092 0.0
H1305 H 0.02485 0.69175 0.54095 0.0
H1306 H 0.02792 0.69321 0.57041 0.0
H1307 H 0.03317 0.71754 0.58625 0.0
H1308 H 0.75529 0.86951 0.23501 0.0
H1309 H 0.7743 0.89153 0.24106 0.0
H1310 H 0.77315 0.90543 0.19167 0.0
H1311 H 0.75383 0.88372 0.1856 0.0
H1312 H 0.80467 0.89706 0.22734 0.0
H1313 H 0.76456 0.94679 0.21677 0.0
H1314 H 0.75719 0.92663 0.21945 0.0
H1315 H 0.76539 0.93257 0.20053 0.0
C1316 C 0.75892 0.87739 0.22549 0.0
C1317 C 0.75301 0.87492 0.20984 0.0
C1318 C 0.76984 0.88988 0.22894 0.0
C1319 C 0.77496 0.90019 0.21685 0.0
C1320 C 0.76915 0.89774 0.20122 0.0
H1321 H 0.8578 0.96458 0.21588 0.0
H1322 H 0.83826 0.94271 0.21133 0.0
C1323 C 0.75825 0.88524 0.19774 0.0
C1324 C 0.78672 0.91325 0.2205 0.0
H1325 H 0.79209 0.95356 0.22028 0.0
C1326 C 0.80193 0.90942 0.22586 0.0
C1327 C 0.783 0.92935 0.21872 0.0
C1328 C 0.76661 0.93415 0.21369 0.0
C1329 C 0.81367 0.92129 0.22922 0.0
C1330 C 0.81012 0.93736 0.22695 0.0
C1331 C 0.79481 0.9412 0.22187 0.0
C1332 C 0.82209 0.95041 0.22986 0.0
C1333 C 0.82971 0.91657 0.23536 0.0
C1334 C 0.81931 0.9621 0.24159 0.0
C1335 C 0.8304 0.97464 0.24417 0.0
C1336 C 0.84443 0.97576 0.23499 0.0
C1337 C 0.84715 0.96403 0.2232 0.0
C1338 C 0.83605 0.95148 0.22064 0.0
H1339 H 0.82921 0.90437 0.24019 0.0
H1340 H 0.83843 0.91684 0.22538 0.0
H1341 H 0.83416 0.92496 0.24489 0.0
H1342 H 0.80856 0.9615 0.24877 0.0
H1343 H 0.82792 0.98349 0.25332 0.0
H1344 H 0.7468 0.14131 0.31731 0.0
H1345 H 0.76568 0.12011 0.31307 0.0
H1346 H 0.77182 0.13395 0.26397 0.0
H1347 H 0.75316 0.15532 0.26816 0.0
H1348 H 0.7637 0.09451 0.28894 0.0
H1349 H 0.81786 0.134 0.28319 0.0
H1350 H 0.79964 0.14059 0.29223 0.0
H1351 H 0.80119 0.13875 0.27085 0.0
C1352 C 0.75225 0.13989 0.30564 0.0
C1353 C 0.74856 0.15 0.29308 0.0
C1354 C 0.76295 0.12775 0.30323 0.0
C1355 C 0.77024 0.12564 0.28828 0.0
C1356 C 0.76644 0.13556 0.27565 0.0
H1357 H 0.83967 0.06216 0.24938 0.0
H1358 H 0.82081 0.08316 0.25427 0.0
C1359 C 0.75568 0.14764 0.27802 0.0
C1360 C 0.78176 0.11297 0.28584 0.0
H1361 H 0.8209 0.10662 0.27777 0.0
C1362 C 0.77622 0.09711 0.28656 0.0
C1363 C 0.79804 0.11649 0.28272 0.0
C1364 C 0.80463 0.13337 0.28231 0.0
C1365 C 0.78654 0.08459 0.2839 0.0
C1366 C 0.80286 0.0881 0.28081 0.0
C1367 C 0.80838 0.10399 0.28015 0.0
C1368 C 0.81439 0.07545 0.27805 0.0
C1369 C 0.77978 0.06776 0.284 0.0
C1370 C 0.81723 0.06434 0.28992 0.0
C1371 C 0.82794 0.05229 0.28714 0.0
C1372 C 0.83613 0.05124 0.27249 0.0
C1373 C 0.83354 0.06262 0.26077 0.0
C1374 C 0.82277 0.07462 0.26354 0.0
H1375 H 0.76663 0.06727 0.28227 0.0
H1376 H 0.78528 0.06039 0.27448 0.0
H1377 H 0.78235 0.06245 0.29574 0.0
H1378 H 0.81117 0.06501 0.30134 0.0
H1379 H 0.82977 0.04379 0.29646 0.0
H1380 H 0.39016 0.98197 0.96443 0.0
H1381 H 0.36692 0.96507 0.97129 0.0
H1382 H 0.37895 0.97005 0.02137 0.0
H1383 H 0.40234 0.98676 0.01464 0.0
H1384 H 0.36582 0.936 0.98907 0.0
H1385 H 0.3321 0.98408 0.01853 0.0
H1386 H 0.34884 0.98807 0.00546 0.0
H1387 H 0.35212 0.98194 0.02563 0.0
C1388 C 0.38797 0.97933 0.9769 0.0
C1389 C 0.39805 0.98578 0.98901 0.0
C1390 C 0.37465 0.96975 0.98079 0.0
C1391 C 0.37113 0.96654 0.99683 0.0
C1392 C 0.38131 0.97267 0.00893 0.0
H1393 H 0.29251 0.91493 0.0426 0.0
H1394 H 0.3171 0.93034 0.03698 0.0
C1395 C 0.39464 0.98223 0.00506 0.0
C1396 C 0.35681 0.95673 0.0009 0.0
H1397 H 0.32077 0.95806 0.01972 0.0
C1398 C 0.35594 0.94079 0.99575 0.0
C1399 C 0.34402 0.96306 0.00967 0.0
C1400 C 0.34418 0.98026 0.01507 0.0
C1401 C 0.34263 0.93093 -0.00073 0.0
C1402 C 0.32975 0.93731 0.00787 0.0
C1403 C 0.33068 0.95322 0.01314 0.0
C1404 C 0.31502 0.92778 0.01123 0.0
C1405 C 0.3426 0.91371 0.99397 0.0
C1406 C 0.30562 0.92143 -0.0014 0.0
C1407 C 0.29162 0.91261 0.00176 0.0
C1408 C 0.28666 0.91009 0.01762 0.0
C1409 C 0.29601 0.91663 0.03025 0.0
C1410 C 0.31005 0.92543 0.02707 0.0
H1411 H 0.35488 0.90971 0.99165 0.0
H1412 H 0.33693 0.90595 0.0031 0.0
H1413 H 0.3357 0.91217 0.98267 0.0
H1414 H 0.30906 0.92342 0.98628 0.0
H1415 H 0.28465 0.90782 0.99175 0.0
H1416 H 0.24471 0.3658 0.30771 0.0
H1417 H 0.22697 0.38793 0.30441 0.0
H1418 H 0.22643 0.37946 0.25333 0.0
H1419 H 0.24405 0.35725 0.25651 0.0
H1420 H 0.23171 0.41149 0.2624 0.0
H1421 H 0.17913 0.38437 0.2933 0.0
H1422 H 0.19729 0.38484 0.30474 0.0
H1423 H 0.19578 0.37295 0.28668 0.0
C1424 C 0.24069 0.36855 0.29579 0.0
C1425 C 0.24574 0.35974 0.28238 0.0
C1426 C 0.23056 0.38119 0.29394 0.0
C1427 C 0.22524 0.38516 0.27866 0.0
C1428 C 0.2304 0.37654 0.26523 0.0
H1429 H 0.14805 0.44587 0.25422 0.0
H1430 H 0.16584 0.4238 0.25753 0.0
C1431 C 0.24052 0.36391 0.26707 0.0
C1432 C 0.21448 0.39849 0.2766 0.0
H1433 H 0.1775 0.41136 0.28615 0.0
C1434 C 0.21985 0.41148 0.26756 0.0
C1435 C 0.19896 0.3983 0.28321 0.0
C1436 C 0.19234 0.38432 0.29241 0.0
C1437 C 0.21015 0.42442 0.26511 0.0
C1438 C 0.1948 0.42443 0.27208 0.0
C1439 C 0.18935 0.41135 0.28094 0.0
C1440 C 0.18411 0.43783 0.27015 0.0
C1441 C 0.21632 0.43786 0.25487 0.0
C1442 C 0.18844 0.45296 0.27633 0.0
C1443 C 0.17833 0.46559 0.27446 0.0
C1444 C 0.16366 0.46329 0.26644 0.0
C1445 C 0.15928 0.44805 0.26042 0.0
C1446 C 0.16941 0.43542 0.26231 0.0
H1447 H 0.22652 0.43429 0.2473 0.0
H1448 H 0.20675 0.44209 0.24699 0.0
H1449 H 0.22047 0.44794 0.26273 0.0
H1450 H 0.19962 0.45497 0.28268 0.0
H1451 H 0.18202 0.47715 0.27931 0.0
H1452 H 0.12108 0.00925 0.474 0.0
H1453 H 0.14373 0.02783 0.47886 0.0
H1454 H 0.11337 0.06723 0.47132 0.0
H1455 H 0.09056 0.04874 0.46684 0.0
H1456 H 0.15636 0.05127 0.45776 0.0
H1457 H 0.13489 0.07765 0.51497 0.0
H1458 H 0.12666 0.05919 0.50667 0.0
H1459 H 0.12102 0.07776 0.49858 0.0
C1460 C 0.11919 0.02187 0.47356 0.0
C1461 C 0.10402 0.02754 0.47013 0.0
C1462 C 0.13215 0.03245 0.47623 0.0
C1463 C 0.13015 0.04887 0.47564 0.0
C1464 C 0.11508 0.05459 0.47207 0.0
H1465 H 0.19511 0.13053 0.48973 0.0
H1466 H 0.17193 0.11279 0.4843 0.0
C1467 C 0.10211 0.04401 0.46935 0.0
C1468 C 0.14393 0.05999 0.47849 0.0
H1469 H 0.15838 0.08928 0.50388 0.0
C1470 C 0.15684 0.05957 0.46785 0.0
C1471 C 0.14444 0.0708 0.49165 0.0
C1472 C 0.13109 0.07136 0.50372 0.0
C1473 C 0.17025 0.06982 0.46993 0.0
C1474 C 0.17084 0.08054 0.48317 0.0
C1475 C 0.15787 0.08104 0.49375 0.0
C1476 C 0.18491 0.09121 0.48638 0.0
C1477 C 0.18355 0.06928 0.45779 0.0
C1478 C 0.1998 0.08492 0.48956 0.0
C1479 C 0.21307 0.095 0.49264 0.0
C1480 C 0.21163 0.11157 0.49271 0.0
C1481 C 0.19662 0.11783 0.48973 0.0
C1482 C 0.18337 0.10773 0.48663 0.0
H1483 H 0.17947 0.06361 0.44632 0.0
H1484 H 0.18847 0.08139 0.45534 0.0
H1485 H 0.19332 0.06221 0.46258 0.0
H1486 H 0.20115 0.07219 0.48975 0.0
H1487 H 0.22443 0.08979 0.49498 0.0
H1488 H 0.73242 0.14777 0.75214 0.0
H1489 H 0.71322 0.1261 0.75786 0.0
H1490 H 0.71285 0.11197 0.70796 0.0
H1491 H 0.73211 0.13359 0.70213 0.0
H1492 H 0.68238 0.11346 0.72154 0.0
H1493 H 0.72286 0.07873 0.75881 0.0
H1494 H 0.72117 0.09907 0.7652 0.0
H1495 H 0.73003 0.09456 0.74614 0.0
C1496 C 0.72838 0.13995 0.74241 0.0
C1497 C 0.73384 0.14233 0.7267 0.0
C1498 C 0.71741 0.12759 0.7457 0.0
C1499 C 0.71181 0.11732 0.73337 0.0
C1500 C 0.71707 0.11977 0.71764 0.0
H1501 H 0.66316 0.0259 0.74148 0.0
H1502 H 0.68165 0.04819 0.73613 0.0
C1503 C 0.72802 0.13214 0.71433 0.0
C1504 C 0.70032 0.10412 0.73682 0.0
H1505 H 0.69569 0.06998 0.75788 0.0
C1506 C 0.68527 0.10393 0.72947 0.0
C1507 C 0.70423 0.09165 0.74703 0.0
C1508 C 0.7205 0.09087 0.75465 0.0
C1509 C 0.67392 0.09164 0.73218 0.0
C1510 C 0.6777 0.07938 0.74271 0.0
C1511 C 0.6928 0.0795 0.74994 0.0
C1512 C 0.66634 0.06602 0.74598 0.0
C1513 C 0.65814 0.0917 0.72352 0.0
C1514 C 0.65167 0.06868 0.75346 0.0
C1515 C 0.64103 0.05595 0.75652 0.0
C1516 C 0.64495 0.04036 0.75223 0.0
C1517 C 0.65975 0.03776 0.7449 0.0
C1518 C 0.67034 0.05047 0.74184 0.0
H1519 H 0.65859 0.09973 0.71312 0.0
H1520 H 0.65448 0.07956 0.71922 0.0
H1521 H 0.64885 0.0959 0.73187 0.0
H1522 H 0.6485 0.08058 0.75701 0.0
H1523 H 0.62977 0.05835 0.76226 0.0
H1524 H 0.40433 0.01993 0.49242 0.0
H1525 H 0.38174 0.03694 0.48822 0.0
H1526 H 0.37617 0.04267 0.53929 0.0
H1527 H 0.39852 0.02541 0.54365 0.0
H1528 H 0.34952 0.03189 0.50066 0.0
H1529 H 0.37871 0.08878 0.52179 0.0
H1530 H 0.38991 0.07173 0.51587 0.0
H1531 H 0.38016 0.0723 0.53499 0.0
C1532 C 0.39824 0.02471 0.50277 0.0
C1533 C 0.40326 0.02133 0.51838 0.0
C1534 C 0.38541 0.03449 0.50034 0.0
C1535 C 0.37746 0.04118 0.51345 0.0
C1536 C 0.38236 0.03783 0.52903 0.0
H1537 H 0.29795 0.10361 0.52323 0.0
H1538 H 0.32054 0.08667 0.52776 0.0
C1539 C 0.39516 0.028 0.53148 0.0
C1540 C 0.36374 0.05132 0.51082 0.0
H1541 H 0.35116 0.08913 0.51579 0.0
C1542 C 0.34986 0.04442 0.5039 0.0
C1543 C 0.36427 0.06761 0.51517 0.0
C1544 C 0.37908 0.07564 0.52226 0.0
C1545 C 0.33633 0.05337 0.5014 0.0
C1546 C 0.33689 0.06972 0.50561 0.0
C1547 C 0.35079 0.0766 0.51257 0.0
C1548 C 0.32321 0.07993 0.5028 0.0
C1549 C 0.32147 0.04515 0.49462 0.0
C1550 C 0.3174 0.08191 0.48725 0.0
C1551 C 0.30446 0.0915 0.48463 0.0
C1552 C 0.29721 0.09943 0.49751 0.0
C1553 C 0.30324 0.09763 0.51306 0.0
C1554 C 0.31615 0.08797 0.51567 0.0
H1555 H 0.32152 0.0321 0.49627 0.0
H1556 H 0.31058 0.04978 0.50031 0.0
H1557 H 0.32083 0.04732 0.48158 0.0
H1558 H 0.32293 0.0761 0.47711 0.0
H1559 H 0.30019 0.09274 0.47249 0.0
H1560 H 0.60372 0.48939 0.55201 0.0
H1561 H 0.62683 0.47276 0.54866 0.0
H1562 H 0.62362 0.47699 0.49742 0.0
H1563 H 0.60029 0.49335 0.50059 0.0
H1564 H 0.62848 0.44327 0.52987 0.0
H1565 H 0.67057 0.49102 0.50913 0.0
H1566 H 0.65228 0.49515 0.51957 0.0
H1567 H 0.65176 0.48928 0.4988 0.0
C1568 C 0.60782 0.48667 0.54001 0.0
C1569 C 0.60017 0.49274 0.52656 0.0
C1570 C 0.62107 0.47725 0.53814 0.0
C1571 C 0.627 0.47385 0.52282 0.0
C1572 C 0.61936 0.47974 0.50936 0.0
H1573 H 0.70625 0.42163 0.48579 0.0
H1574 H 0.68297 0.43791 0.48957 0.0
C1575 C 0.60606 0.48911 0.51121 0.0
C1576 C 0.64106 0.46393 0.5209 0.0
H1577 H 0.67975 0.46482 0.50829 0.0
C1578 C 0.63973 0.44795 0.52522 0.0
C1579 C 0.65564 0.47014 0.51477 0.0
C1580 C 0.65778 0.48737 0.5104 0.0
C1581 C 0.65256 0.43787 0.52329 0.0
C1582 C 0.66719 0.44409 0.51722 0.0
C1583 C 0.66852 0.4601 0.51294 0.0
C1584 C 0.68126 0.43415 0.51507 0.0
C1585 C 0.65021 0.42058 0.52736 0.0
C1586 C 0.68813 0.42682 0.5282 0.0
C1587 C 0.70139 0.41744 0.52608 0.0
C1588 C 0.70811 0.41538 0.51079 0.0
C1589 C 0.70135 0.42296 0.49771 0.0
C1590 C 0.68805 0.43227 0.49984 0.0
H1591 H 0.63736 0.41688 0.52767 0.0
H1592 H 0.65635 0.41286 0.51858 0.0
H1593 H 0.65531 0.41861 0.53939 0.0
H1594 H 0.68329 0.42843 0.54012 0.0
H1595 H 0.70639 0.41186 0.53642 0.0
H1596 H 0.73921 0.27662 0.36036 0.0
H1597 H 0.74537 0.29615 0.38181 0.0
H1598 H 0.69739 0.29033 0.39978 0.0
H1599 H 0.69114 0.27071 0.37843 0.0
H1600 H 0.72644 0.32577 0.38927 0.0
H1601 H 0.72951 0.2821 0.43828 0.0
H1602 H 0.73232 0.27659 0.41748 0.0
H1603 H 0.71269 0.28022 0.42488 0.0
C1604 C 0.73001 0.27944 0.36895 0.0
C1605 C 0.71471 0.27212 0.36779 0.0
C1606 C 0.73352 0.29064 0.3811 0.0
C1607 C 0.72185 0.29454 0.39235 0.0
C1608 C 0.70655 0.28735 0.3912 0.0
H1609 H 0.72241 0.35215 0.47906 0.0
H1610 H 0.71562 0.33421 0.45658 0.0
C1611 C 0.70299 0.27625 0.37899 0.0
C1612 C 0.72568 0.30613 0.40536 0.0
H1613 H 0.73212 0.3092 0.44561 0.0
C1614 C 0.72773 0.32221 0.40161 0.0
C1615 C 0.72725 0.30135 0.42136 0.0
C1616 C 0.72544 0.28412 0.42584 0.0
C1617 C 0.73109 0.33376 0.41358 0.0
C1618 C 0.73282 0.32897 0.42962 0.0
C1619 C 0.73078 0.31284 0.43331 0.0
C1620 C 0.7367 0.34044 0.44281 0.0
C1621 C 0.73235 0.35098 0.409 0.0
C1622 C 0.75084 0.34986 0.44254 0.0
C1623 C 0.7547 0.36023 0.45533 0.0
C1624 C 0.74459 0.36117 0.4687 0.0
C1625 C 0.73046 0.35169 0.46894 0.0
C1626 C 0.72656 0.34143 0.45611 0.0
H1627 H 0.72629 0.353 0.39742 0.0
H1628 H 0.72706 0.35872 0.41834 0.0
H1629 H 0.74511 0.35462 0.40765 0.0
H1630 H 0.75903 0.34899 0.43257 0.0
H1631 H 0.76574 0.36727 0.45485 0.0
H1632 H 0.5169 0.04785 0.89503 0.0
H1633 H 0.53502 0.04259 0.87285 0.0
H1634 H 0.52852 0.99223 0.87998 0.0
H1635 H 0.51089 0.99741 0.90265 0.0
H1636 H 0.55986 0.00141 0.87688 0.0
H1637 H 0.52432 0.02624 0.82799 0.0
H1638 H 0.52793 0.04007 0.8443 0.0
H1639 H 0.51606 0.0222 0.8475 0.0
C1640 C 0.51936 0.03565 0.89193 0.0
C1641 C 0.51245 0.02305 0.90062 0.0
C1642 C 0.52956 0.03266 0.87911 0.0
C1643 C 0.53291 0.01702 0.87461 0.0
C1644 C 0.52598 0.0044 0.88319 0.0
H1645 H 0.5819 0.99082 0.78689 0.0
H1646 H 0.56256 0.99386 0.80849 0.0
C1647 C 0.51582 0.00737 0.89606 0.0
C1648 C 0.54421 0.01386 0.86143 0.0
H1649 H 0.55143 0.02083 0.82194 0.0
C1650 C 0.55798 0.00555 0.86483 0.0
C1651 C 0.54161 0.0191 0.84569 0.0
C1652 C 0.5266 0.02725 0.84108 0.0
C1653 C 0.56941 0.00265 0.85299 0.0
C1654 C 0.56716 0.00852 0.83743 0.0
C1655 C 0.55321 0.01651 0.83393 0.0
C1656 C 0.57907 0.00645 0.82455 0.0
C1657 C 0.58368 0.99315 0.85721 0.0
C1658 C 0.59473 0.01264 0.82638 0.0
C1659 C 0.60586 0.01083 0.8141 0.0
C1660 C 0.60145 0.00297 0.79969 0.0
C1661 C 0.58569 0.99693 0.79784 0.0
C1662 C 0.57461 -0.00134 0.81016 0.0
H1663 H 0.58135 0.98578 0.8679 0.0
H1664 H 0.58708 0.98525 0.84708 0.0
H1665 H 0.59395 0.00139 0.86001 0.0
H1666 H 0.59832 0.01903 0.83724 0.0
H1667 H 0.61786 0.01573 0.81584 0.0
H1668 H 0.25545 0.23739 0.3514 0.0
H1669 H 0.25112 0.21876 0.37322 0.0
H1670 H 0.30197 0.21628 0.37969 0.0
H1671 H 0.30642 0.23497 0.35796 0.0
H1672 H 0.28575 0.18652 0.37886 0.0
H1673 H 0.25761 0.22868 0.42123 0.0
H1674 H 0.24845 0.22726 0.40179 0.0
H1675 H 0.26856 0.23514 0.40379 0.0
C1676 C 0.26571 0.233 0.35758 0.0
C1677 C 0.28128 0.23769 0.353 0.0
C1678 C 0.26321 0.22237 0.37002 0.0
C1679 C 0.27623 0.21633 0.37817 0.0
C1680 C 0.29178 0.22084 0.37354 0.0
H1681 H 0.27518 0.16838 0.46878 0.0
H1682 H 0.28 0.18634 0.44655 0.0
C1683 C 0.29429 0.23146 0.36109 0.0
C1684 C 0.27367 0.20512 0.3914 0.0
H1685 H 0.2573 0.20165 0.42861 0.0
C1686 C 0.27955 0.18981 0.38976 0.0
C1687 C 0.26575 0.20956 0.40565 0.0
C1688 C 0.25984 0.22609 0.40835 0.0
C1689 C 0.27755 0.1787 0.40195 0.0
C1690 C 0.26926 0.183 0.41602 0.0
C1691 C 0.26354 0.19837 0.41774 0.0
C1692 C 0.26661 0.17181 0.42926 0.0
C1693 C 0.28457 0.16256 0.39979 0.0
C1694 C 0.25741 0.15774 0.42688 0.0
C1695 C 0.25465 0.14741 0.43955 0.0
C1696 C 0.26097 0.15106 0.45483 0.0
C1697 C 0.27017 0.1652 0.45715 0.0
C1698 C 0.27292 0.17549 0.44448 0.0
H1699 H 0.29381 0.16251 0.39027 0.0
H1700 H 0.28997 0.15864 0.41113 0.0
H1701 H 0.27496 0.15379 0.3963 0.0
H1702 H 0.25219 0.15484 0.41528 0.0
H1703 H 0.24744 0.13667 0.43739 0.0
H1704 H 0.49911 0.49807 0.88139 0.0
H1705 H 0.47968 0.50329 0.86043 0.0
H1706 H 0.44132 0.48901 0.89198 0.0
H1707 H 0.4606 0.48422 0.91314 0.0
H1708 H 0.4577 0.48109 0.84677 0.0
H1709 H 0.427 0.53163 0.87522 0.0
H1710 H 0.44611 0.52521 0.88204 0.0
H1711 H 0.4281 0.51447 0.88752 0.0
C1712 C 0.48652 0.49631 0.88396 0.0
C1713 C 0.48139 0.49076 0.89893 0.0
C1714 C 0.47546 0.4992 0.87195 0.0
C1715 C 0.45908 0.49672 0.87474 0.0
C1716 C 0.4539 0.49126 0.88968 0.0
H1717 H 0.37397 0.50094 0.81609 0.0
H1718 H 0.39319 0.49739 0.8377 0.0
C1719 C 0.46494 0.48836 0.90169 0.0
C1720 C 0.44745 0.4991 0.86177 0.0
H1721 H 0.4151 0.52023 0.85167 0.0
C1722 C 0.44844 0.48971 0.84778 0.0
C1723 C 0.43535 0.5103 0.86321 0.0
C1724 C 0.43411 0.52109 0.87774 0.0
C1725 C 0.43747 0.49104 0.83525 0.0
C1726 C 0.42539 0.50225 0.83667 0.0
C1727 C 0.42438 0.51163 0.85066 0.0
C1728 C 0.41379 0.50453 0.82365 0.0
C1729 C 0.43871 0.48022 0.82072 0.0
C1730 C 0.41903 0.50993 0.80872 0.0
C1731 C 0.40812 0.51195 0.79637 0.0
C1732 C 0.39174 0.50869 0.79877 0.0
C1733 C 0.3865 0.5035 0.81384 0.0
C1734 C 0.39745 0.50149 0.8262 0.0
H1735 H 0.44592 0.46974 0.82322 0.0
H1736 H 0.42671 0.476 0.81651 0.0
H1737 H 0.4446 0.48687 0.81088 0.0
H1738 H 0.43157 0.51263 0.80662 0.0
H1739 H 0.41255 0.51605 0.78493 0.0
H1740 H 0.73917 0.7551 0.13256 0.0
H1741 H 0.74491 0.73551 0.11153 0.0
H1742 H 0.69596 0.73569 0.09577 0.0
H1743 H 0.69018 0.75553 0.11656 0.0
H1744 H 0.72933 0.7048 0.10765 0.0
H1745 H 0.72237 0.74239 0.05433 0.0
H1746 H 0.72534 0.75066 0.07426 0.0
H1747 H 0.70609 0.74257 0.06832 0.0
C1748 C 0.72969 0.75116 0.12445 0.0
C1749 C 0.71423 0.75689 0.12617 0.0
C1750 C 0.73297 0.73991 0.11253 0.0
C1751 C 0.72089 0.73431 0.10204 0.0
C1752 C 0.70548 0.74005 0.10363 0.0
H1753 H 0.7153 0.66565 0.02379 0.0
H1754 H 0.71003 0.68556 0.04459 0.0
C1755 C 0.70217 0.75126 0.11559 0.0
C1756 C 0.72429 0.722 0.0898 0.0
H1757 H 0.7254 0.71488 0.04948 0.0
C1758 C 0.72856 0.70699 0.09492 0.0
C1759 C 0.72319 0.72495 0.07324 0.0
C1760 C 0.71913 0.74104 0.06714 0.0
C1761 C 0.73149 0.69468 0.08388 0.0
C1762 C 0.73043 0.69763 0.06731 0.0
C1763 C 0.72619 0.71267 0.0622 0.0
C1764 C 0.73362 0.68525 0.05504 0.0
C1765 C 0.7353 0.67855 0.09007 0.0
C1766 C 0.74867 0.67856 0.05399 0.0
C1767 C 0.7517 0.66712 0.04216 0.0
C1768 C 0.73978 0.6623 0.03108 0.0
C1769 C 0.72474 0.66908 0.03215 0.0
C1770 C 0.7217 0.68048 0.04401 0.0
H1771 H 0.7315 0.67713 0.10272 0.0
H1772 H 0.72943 0.66894 0.08267 0.0
H1773 H 0.74838 0.67708 0.08952 0.0
H1774 H 0.75813 0.68233 0.06219 0.0
H1775 H 0.76345 0.6622 0.04159 0.0
H1776 H 0.96168 0.03628 0.09447 0.0
H1777 H 0.94505 0.03506 0.11856 0.0
H1778 H 0.98727 0.03715 0.14809 0.0
H1779 H 0.00399 0.03862 0.1241 0.0
H1780 H 0.94657 0.01136 0.14344 0.0
H1781 H 0.95886 0.07303 0.16617 0.0
H1782 H 0.96242 0.06707 0.14563 0.0
H1783 H 0.97607 0.06186 0.16107 0.0
C1784 C 0.96741 0.03664 0.10611 0.0
C1785 C 0.98413 0.03759 0.10741 0.0
C1786 C 0.95791 0.03587 0.11982 0.0
C1787 C 0.96496 0.03619 0.13505 0.0
C1788 C 0.98163 0.03709 0.13642 0.0
H1789 H 0.92879 0.03304 0.23209 0.0
H1790 H 0.94523 0.03508 0.208 0.0
C1791 C 0.99115 0.03778 0.12272 0.0
C1792 C 0.95487 0.03516 0.14951 0.0
H1793 H 0.94395 0.05583 0.18302 0.0
C1794 C 0.94591 0.02108 0.15208 0.0
C1795 C 0.95417 0.04786 0.16075 0.0
C1796 C 0.96328 0.06338 0.15828 0.0
C1797 C 0.93642 0.01925 0.16579 0.0
C1798 C 0.9356 0.032 0.17699 0.0
C1799 C 0.94459 0.04609 0.1744 0.0
C1800 C 0.92554 0.03095 0.19152 0.0
C1801 C 0.92768 0.00353 0.16834 0.0
C1802 C 0.90898 0.02822 0.19021 0.0
C1803 C 0.89957 0.02696 0.20395 0.0
C1804 C 0.90652 0.0286 0.21924 0.0
C1805 C 0.92306 0.0317 0.2205 0.0
C1806 C 0.93248 0.03287 0.20675 0.0
H1807 H 0.93298 0.99381 0.16117 0.0
H1808 H 0.9278 0.0003 0.18116 0.0
H1809 H 0.91508 0.00442 0.16452 0.0
H1810 H 0.90334 0.02708 0.17857 0.0
H1811 H 0.88684 0.0247 0.20256 0.0
H1812 H 0.30477 0.75841 0.13667 0.0
H1813 H 0.30107 0.77729 0.11516 0.0
H1814 H 0.25168 0.78112 0.12846 0.0
H1815 H 0.25533 0.76245 0.15015 0.0
H1816 H 0.27778 0.77464 0.08904 0.0
H1817 H 0.27057 0.82773 0.12858 0.0
H1818 H 0.27951 0.80989 0.13541 0.0
H1819 H 0.25825 0.81056 0.13327 0.0
C1820 C 0.29315 0.76336 0.13507 0.0
C1821 C 0.28035 0.75902 0.14513 0.0
C1822 C 0.29105 0.77406 0.12275 0.0
C1823 C 0.27616 0.7807 0.12039 0.0
C1824 C 0.2633 0.77625 0.13025 0.0
H1825 H 0.23961 0.84964 0.0558 0.0
H1826 H 0.24359 0.83045 0.07687 0.0
C1827 C 0.26537 0.76549 0.14252 0.0
C1828 C 0.27405 0.79222 0.10754 0.0
H1829 H 0.26615 0.83095 0.10089 0.0
C1830 C 0.2753 0.78697 0.09158 0.0
C1831 C 0.27078 0.80825 0.11099 0.0
C1832 C 0.26981 0.81455 0.12798 0.0
C1833 C 0.27304 0.79731 0.07888 0.0
C1834 C 0.26982 0.81339 0.08232 0.0
C1835 C 0.26862 0.81862 0.09831 0.0
C1836 C 0.26753 0.82497 0.0695 0.0
C1837 C 0.27372 0.79084 0.06193 0.0
C1838 C 0.27977 0.8284 0.05852 0.0
C1839 C 0.27751 0.8393 0.04641 0.0
C1840 C 0.26303 0.84709 0.04519 0.0
C1841 C 0.2509 0.84383 0.05639 0.0
C1842 C 0.25315 0.83287 0.06845 0.0
H1843 H 0.27198 0.77772 0.06145 0.0
H1844 H 0.26451 0.79611 0.05432 0.0
H1845 H 0.2856 0.79387 0.05677 0.0
H1846 H 0.2911 0.8227 0.05936 0.0
H1847 H 0.28713 0.84164 0.03805 0.0
H1848 H 0.02138 0.45755 0.10604 0.0
H1849 H 0.0377 0.46171 0.13012 0.0
H1850 H 0.03168 0.51218 0.12772 0.0
H1851 H 0.01558 0.5082 0.10344 0.0
H1852 H 0.06662 0.48151 0.13296 0.0
H1853 H 0.01851 0.50028 0.17425 0.0
H1854 H 0.01442 0.48977 0.15556 0.0
H1855 H 0.01996 0.51054 0.1556 0.0
C1856 C 0.02361 0.46956 0.11055 0.0
C1857 C 0.01718 0.48255 0.10281 0.0
C1858 C 0.03286 0.47189 0.12435 0.0
C1859 C 0.03572 0.48722 0.13074 0.0
C1860 C 0.02935 0.50023 0.12309 0.0
H1861 H 0.08823 0.52384 0.21386 0.0
H1862 H 0.07196 0.5206 0.18963 0.0
C1863 C 0.02014 0.49792 0.10925 0.0
C1864 C 0.04575 0.4896 0.14518 0.0
H1865 H 0.04485 0.50165 0.18438 0.0
C1866 C 0.06189 0.48588 0.14423 0.0
C1867 C 0.03949 0.49537 0.15978 0.0
C1868 C 0.02212 0.49913 0.16149 0.0
C1869 C 0.07204 0.48796 0.15751 0.0
C1870 C 0.06575 0.49355 0.17219 0.0
C1871 C 0.04961 0.49735 0.1731 0.0
C1872 C 0.07568 0.49544 0.18679 0.0
C1873 C 0.08946 0.48444 0.1556 0.0
C1874 C 0.08298 0.48231 0.19332 0.0
C1875 C 0.09234 0.48413 0.20711 0.0
C1876 C 0.09442 0.49908 0.21471 0.0
C1877 C 0.08689 0.51217 0.20827 0.0
C1878 C 0.07759 0.51034 0.19444 0.0
H1879 H 0.09318 0.48461 0.14283 0.0
H1880 H 0.09713 0.49316 0.16248 0.0
H1881 H 0.09156 0.47243 0.16019 0.0
H1882 H 0.08136 0.47063 0.1878 0.0
H1883 H 0.09788 0.47379 0.21184 0.0
H1884 H 0.35308 0.74966 0.26536 0.0
H1885 H 0.37602 0.75535 0.28288 0.0
H1886 H 0.38243 0.70516 0.28792 0.0
H1887 H 0.35986 0.69935 0.26993 0.0
H1888 H 0.38123 0.7465 0.31442 0.0
H1889 H 0.4264 0.72164 0.27327 0.0
H1890 H 0.40643 0.72569 0.26685 0.0
H1891 H 0.4101 0.70812 0.27793 0.0
C1892 C 0.35946 0.73983 0.27007 0.0
C1893 C 0.35474 0.72405 0.26613 0.0
C1894 C 0.37249 0.7431 0.28016 0.0
C1895 C 0.38105 0.73068 0.28647 0.0
C1896 C 0.37614 0.71492 0.28292 0.0
H1897 H 0.46472 0.72839 0.34741 0.0
H1898 H 0.44079 0.72177 0.33157 0.0
C1899 C 0.36313 0.71162 0.27279 0.0
C1900 C 0.39515 0.73427 0.29674 0.0
H1901 H 0.43535 0.72979 0.29913 0.0
C1902 C 0.39308 0.74289 0.31108 0.0
C1903 C 0.41056 0.72953 0.29231 0.0
C1904 C 0.4136 0.72086 0.27669 0.0
C1905 C 0.40603 0.74675 0.32124 0.0
C1906 C 0.42143 0.74204 0.31678 0.0
C1907 C 0.42349 0.73334 0.30249 0.0
C1908 C 0.43565 0.74616 0.32668 0.0
C1909 C 0.40311 0.75563 0.33676 0.0
C1910 C 0.44073 0.76207 0.32902 0.0
C1911 C 0.45441 0.76591 0.33802 0.0
C1912 C 0.46327 0.75388 0.3448 0.0
C1913 C 0.45815 0.73794 0.34238 0.0
C1914 C 0.44449 0.73413 0.33334 0.0
H1915 H 0.39032 0.75498 0.34022 0.0
H1916 H 0.4103 0.75086 0.34662 0.0
H1917 H 0.40672 0.76832 0.33535 0.0
H1918 H 0.43421 0.77151 0.32371 0.0
H1919 H 0.45807 0.7783 0.33961 0.0
H1920 H 0.98468 0.38714 0.9982 0.0
H1921 H 0.99031 0.36428 0.98095 0.0
H1922 H 0.99662 0.39517 0.94068 0.0
H1923 H 0.9907 0.4181 0.95788 0.0
H1924 H 0.97868 0.36899 0.93292 0.0
H1925 H 0.03325 0.35152 0.96437 0.0
H1926 H 0.01643 0.3526 0.97755 0.0
H1927 H 0.02418 0.37031 0.96815 0.0
C1928 C 0.9874 0.38906 0.9857 0.0
C1929 C 0.98737 0.40439 0.97939 0.0
C1930 C 0.99067 0.37601 0.97587 0.0
C1931 C 0.99423 0.37807 0.95962 0.0
C1932 C 0.994 0.39334 0.95323 0.0
H1933 H 0.03375 0.30303 0.90009 0.0
H1934 H 0.02962 0.32769 0.91518 0.0
C1935 C 0.99058 0.4064 0.96303 0.0
C1936 C 0.99775 0.3642 0.94921 0.0
H1937 H 0.02162 0.33237 0.94592 0.0
C1938 C 0.98816 0.36105 0.93567 0.0
C1939 C 0.01029 0.35401 0.95267 0.0
C1940 C 0.02173 0.35736 0.96638 0.0
C1941 C 0.99046 0.34772 0.92575 0.0
C1942 C 0.00241 0.33704 0.92974 0.0
C1943 C 0.01232 0.34045 0.943 0.0
C1944 C 0.00479 0.32219 0.9204 0.0
C1945 C 0.98018 0.34532 0.91101 0.0
C1946 C 0.99225 0.31082 0.91853 0.0
C1947 C 0.99453 0.29679 0.90981 0.0
C1948 C 0.00948 0.29375 0.90302 0.0
C1949 C 0.0221 0.30502 0.90518 0.0
C1950 C 0.01976 0.31912 0.91378 0.0
H1951 H 0.97533 0.35669 0.90703 0.0
H1952 H 0.98697 0.34002 0.90096 0.0
H1953 H 0.96991 0.33717 0.9138 0.0
H1954 H 0.98073 0.31274 0.92392 0.0
H1955 H 0.98461 0.28829 0.90848 0.0
H1956 H 0.63847 0.76255 0.24217 0.0
H1957 H 0.61765 0.75445 0.26108 0.0
H1958 H 0.61122 0.80347 0.27445 0.0
H1959 H 0.63155 0.81174 0.25508 0.0
H1960 H 0.61681 0.7594 0.29371 0.0
H1961 H 0.56584 0.78763 0.26464 0.0
H1962 H 0.58468 0.78509 0.25466 0.0
H1963 H 0.58239 0.80114 0.26888 0.0
C1964 C 0.63245 0.77164 0.24893 0.0
C1965 C 0.6366 0.78781 0.24702 0.0
C1966 C 0.62065 0.76697 0.25982 0.0
C1967 C 0.61273 0.77837 0.26898 0.0
C1968 C 0.61696 0.7945 0.26726 0.0
H1969 H 0.54244 0.77584 0.34433 0.0
H1970 H 0.56313 0.78301 0.32492 0.0
C1971 C 0.62873 0.79919 0.25633 0.0
C1972 C 0.60036 0.77332 0.28063 0.0
H1973 H 0.56129 0.77754 0.2907 0.0
C1974 C 0.60464 0.76327 0.29301 0.0
C1975 C 0.5845 0.77838 0.27964 0.0
C1976 C 0.579 0.78853 0.26615 0.0
C1977 C 0.59354 0.75842 0.30465 0.0
C1978 C 0.57776 0.76365 0.30376 0.0
C1979 C 0.57344 0.77361 0.29134 0.0
C1980 C 0.56554 0.75907 0.31571 0.0
C1981 C 0.59885 0.74804 0.31803 0.0
C1982 C 0.56003 0.74323 0.31687 0.0
C1983 C 0.54817 0.73907 0.32793 0.0
C1984 C 0.54164 0.75071 0.33799 0.0
C1985 C 0.54725 0.76657 0.33679 0.0
C1986 C 0.55905 0.77071 0.3257 0.0
H1987 H 0.61206 0.74778 0.31886 0.0
H1988 H 0.59408 0.75225 0.3297 0.0
H1989 H 0.59415 0.73572 0.31582 0.0
H1990 H 0.56476 0.73412 0.30907 0.0
H1991 H 0.54407 0.72676 0.32851 0.0
H1992 H 0.02366 0.08669 0.95884 0.0
H1993 H 0.02169 0.10824 0.93974 0.0
H1994 H 0.01783 0.14198 0.97888 0.0
H1995 H 0.02012 0.1206 0.99805 0.0
H1996 H 0.99657 0.13029 0.93673 0.0
H1997 H 0.055 0.16017 0.95134 0.0
H1998 H 0.05002 0.14 0.95691 0.0
H1999 H 0.04238 0.15634 0.96831 0.0
C2000 C 0.02251 0.09872 0.96337 0.0
C2001 C 0.02211 0.10197 0.97994 0.0
C2002 C 0.02131 0.11098 0.95246 0.0
C2003 C 0.01985 0.12669 0.95794 0.0
C2004 C 0.01919 0.12995 0.97444 0.0
H2005 H 0.0104 0.21845 0.91641 0.0
H2006 H 0.01328 0.19572 0.93373 0.0
C2007 C 0.02034 0.1177 0.98536 0.0
C2008 C 0.01881 0.13969 0.9464 0.0
H2009 H 0.03763 0.17406 0.93459 0.0
C2010 C 0.00558 0.13981 0.93615 0.0
C2011 C 0.03062 0.15205 0.94572 0.0
C2012 C 0.0454 0.15213 0.95605 0.0
C2013 C 0.00358 0.15228 0.92552 0.0
C2014 C 0.01531 0.16475 0.92496 0.0
C2015 C 0.02865 0.16449 0.93508 0.0
C2016 C 0.01376 0.17841 0.91429 0.0
C2017 C 0.9887 0.15226 0.91535 0.0
C2018 C 0.01332 0.17622 0.8976 0.0
C2019 C 0.01163 0.1892 0.88764 0.0
C2020 C 0.01046 0.20459 0.89422 0.0
C2021 C 0.01122 0.20675 0.91095 0.0
C2022 C 0.01288 0.19378 0.92088 0.0
H2023 H 0.97923 0.144 0.91994 0.0
H2024 H 0.98391 0.16435 0.91484 0.0
H2025 H 0.99164 0.14838 0.90296 0.0
H2026 H 0.01432 0.16448 0.89228 0.0
H2027 H 0.01119 0.18714 0.87481 0.0
H2028 H 0.34588 0.29128 0.21345 0.0
H2029 H 0.36749 0.28689 0.19444 0.0
H2030 H 0.39282 0.26148 0.23022 0.0
H2031 H 0.37167 0.26647 0.24954 0.0
H2032 H 0.41211 0.2826 0.21482 0.0
H2033 H 0.37685 0.24586 0.17075 0.0
H2034 H 0.36868 0.26488 0.17494 0.0
H2035 H 0.36953 0.25052 0.19053 0.0
C2036 C 0.35611 0.28487 0.21733 0.0
C2037 C 0.357 0.27917 0.23301 0.0
C2038 C 0.36834 0.28219 0.20637 0.0
C2039 C 0.38161 0.2736 0.21083 0.0
C2040 C 0.38261 0.26801 0.2265 0.0
H2041 H 0.45259 0.23201 0.14957 0.0
H2042 H 0.43011 0.23727 0.16727 0.0
C2043 C 0.37044 0.27077 0.23748 0.0
C2044 C 0.3947 0.27079 0.19936 0.0
H2045 H 0.40311 0.25396 0.16298 0.0
C2046 C 0.41016 0.27632 0.20349 0.0
C2047 C 0.39212 0.26242 0.18469 0.0
C2048 C 0.37593 0.25543 0.18 0.0
C2049 C 0.42314 0.27377 0.19331 0.0
C2050 C 0.4205 0.26583 0.17842 0.0
C2051 C 0.40505 0.2602 0.17433 0.0
C2052 C 0.4337 0.26282 0.16715 0.0
C2053 C 0.43962 0.27927 0.1988 0.0
C2054 C 0.44294 0.27546 0.16095 0.0
C2055 C 0.45587 0.2725 0.15093 0.0
C2056 C 0.45965 0.25683 0.14678 0.0
C2057 C 0.45002 0.24421 0.15257 0.0
C2058 C 0.43717 0.24719 0.16268 0.0
H2059 H 0.44015 0.28119 0.21199 0.0
H2060 H 0.44864 0.27053 0.19531 0.0
H2061 H 0.44288 0.29072 0.19311 0.0
H2062 H 0.44023 0.28762 0.16394 0.0
H2063 H 0.46296 0.28249 0.14653 0.0
H2064 H 0.4982 0.40426 0.00586 0.0
H2065 H 0.49333 0.3813 0.02288 0.0
H2066 H 0.54401 0.37585 0.02762 0.0
H2067 H 0.54904 0.39857 0.01033 0.0
H2068 H 0.50513 0.34893 0.01817 0.0
H2069 H 0.52617 0.37915 0.07451 0.0
H2070 H 0.52046 0.38995 0.05707 0.0
H2071 H 0.53937 0.38067 0.05761 0.0
C2072 C 0.50832 0.39808 0.01036 0.0
C2073 C 0.52402 0.4033 0.00679 0.0
C2074 C 0.50551 0.38503 0.02014 0.0
C2075 C 0.51832 0.37707 0.02662 0.0
C2076 C 0.53398 0.38205 0.02292 0.0
H2077 H 0.52625 0.29976 0.09248 0.0
H2078 H 0.5311 0.32178 0.0743 0.0
C2079 C 0.53682 0.39505 0.01308 0.0
C2080 C 0.5153 0.36352 0.03726 0.0
H2081 H 0.51951 0.35175 0.07582 0.0
C2082 C 0.50822 0.34951 0.03079 0.0
C2083 C 0.51942 0.36439 0.05366 0.0
C2084 C 0.52667 0.37937 0.06123 0.0
C2085 C 0.50535 0.33616 0.0403 0.0
C2086 C 0.50936 0.33706 0.05676 0.0
C2087 C 0.51645 0.35111 0.0632 0.0
C2088 C 0.50633 0.32357 0.06754 0.0
C2089 C 0.49842 0.32113 0.03254 0.0
C2090 C 0.49077 0.31741 0.0699 0.0
C2091 C 0.48796 0.30477 0.08022 0.0
C2092 C 0.50066 0.2982 0.0885 0.0
C2093 C 0.51621 0.30455 0.08627 0.0
C2094 C 0.51901 0.31713 0.07589 0.0
H2095 H 0.5002 0.321 0.01936 0.0
H2096 H 0.50387 0.31048 0.03753 0.0
H2097 H 0.4854 0.3203 0.03486 0.0
H2098 H 0.48077 0.32247 0.06387 0.0
H2099 H 0.47582 0.30024 0.08177 0.0
H2100 H 0.6255 0.20542 0.24805 0.0
H2101 H 0.60443 0.21088 0.22886 0.0
H2102 H 0.62048 0.26004 0.22795 0.0
H2103 H 0.64159 0.25468 0.2471 0.0
H2104 H 0.58778 0.25602 0.23174 0.0
H2105 H 0.60924 0.21915 0.18096 0.0
H2106 H 0.60689 0.20858 0.19932 0.0
H2107 H 0.6216 0.22456 0.19805 0.0
C2108 C 0.62466 0.21735 0.24361 0.0
C2109 C 0.63522 0.22961 0.24906 0.0
C2110 C 0.61263 0.22044 0.23265 0.0
C2111 C 0.61106 0.23581 0.22683 0.0
C2112 C 0.62153 0.24809 0.23228 0.0
H2113 H 0.55177 0.26082 0.1463 0.0
H2114 H 0.57401 0.25712 0.16466 0.0
C2115 C 0.63353 0.24502 0.24327 0.0
C2116 C 0.59817 0.2392 0.21544 0.0
H2117 H 0.58317 0.2291 0.1785 0.0
C2118 C 0.5868 0.2502 0.22006 0.0
C2119 C 0.59708 0.23175 0.20014 0.0
C2120 C 0.60943 0.22046 0.19422 0.0
C2121 C 0.57413 0.2537 0.20991 0.0
C2122 C 0.57268 0.24577 0.19488 0.0
C2123 C 0.58425 0.23504 0.19011 0.0
C2124 C 0.55917 0.24835 0.18397 0.0
C2125 C 0.5625 0.26595 0.21531 0.0
C2126 C 0.54349 0.24451 0.18873 0.0
C2127 C 0.53076 0.24664 0.1783 0.0
C2128 C 0.53351 0.25254 0.16288 0.0
C2129 C 0.54925 0.2563 0.15812 0.0
C2130 C 0.56197 0.25418 0.16857 0.0
H2131 H 0.56763 0.2739 0.2249 0.0
H2132 H 0.55885 0.27332 0.20515 0.0
H2133 H 0.55165 0.25985 0.22016 0.0
H2134 H 0.54111 0.23969 0.20044 0.0
H2135 H 0.51879 0.24354 0.18231 0.0
H2136 H 0.48133 0.12238 0.00128 0.0
H2137 H 0.4869 0.14559 0.01878 0.0
H2138 H 0.4899 0.1151 0.05944 0.0
H2139 H 0.4845 0.09181 0.04201 0.0
H2140 H 0.46789 0.15386 0.0474 0.0
H2141 H 0.53183 0.14413 0.0604 0.0
H2142 H 0.52167 0.1353 0.04316 0.0
H2143 H 0.51824 0.12732 0.06268 0.0
C2144 C 0.48336 0.12062 0.01392 0.0
C2145 C 0.48251 0.1053 0.0203 0.0
C2146 C 0.48646 0.13387 0.02388 0.0
C2147 C 0.48894 0.13198 0.04032 0.0
C2148 C 0.48818 0.11673 0.04673 0.0
H2149 H 0.50904 0.19672 0.12019 0.0
H2150 H 0.50464 0.17348 0.10253 0.0
C2151 C 0.48498 0.10348 0.0368 0.0
C2152 C 0.49175 0.14603 0.05089 0.0
H2153 H 0.51979 0.16504 0.07463 0.0
C2154 C 0.47924 0.15638 0.05333 0.0
C2155 C 0.50654 0.14913 0.05862 0.0
C2156 C 0.52043 0.13848 0.05606 0.0
C2157 C 0.48105 0.16971 0.06356 0.0
C2158 C 0.49591 0.17293 0.07119 0.0
C2159 C 0.50842 0.16254 0.06874 0.0
C2160 C 0.49872 0.18704 0.08176 0.0
C2161 C 0.4669 0.17998 0.06639 0.0
C2162 C 0.4971 0.20236 0.07583 0.0
C2163 C 0.49949 0.21564 0.0859 0.0
C2164 C 0.50376 0.21385 0.10203 0.0
C2165 C 0.50573 0.1985 0.10783 0.0
C2166 C 0.50323 0.18521 0.09777 0.0
H2167 H 0.45548 0.17352 0.0634 0.0
H2168 H 0.46642 0.1842 0.07905 0.0
H2169 H 0.46796 0.1905 0.05864 0.0
H2170 H 0.49401 0.20404 0.06341 0.0
H2171 H 0.49802 0.22731 0.08102 0.0
H2172 H 0.28032 0.35314 0.72294 0.0
H2173 H 0.30021 0.37411 0.7299 0.0
H2174 H 0.26338 0.40853 0.73084 0.0
H2175 H 0.24343 0.38763 0.72397 0.0
H2176 H 0.30835 0.40094 0.7132 0.0
H2177 H 0.28575 0.41719 0.77346 0.0
H2178 H 0.27926 0.3992 0.76293 0.0
H2179 H 0.27086 0.41785 0.75808 0.0
C2180 C 0.27647 0.36519 0.72462 0.0
C2181 C 0.26031 0.36875 0.72296 0.0
C2182 C 0.28782 0.37712 0.72866 0.0
C2183 C 0.28322 0.39281 0.73115 0.0
C2184 C 0.26712 0.39643 0.72939 0.0
H2185 H 0.32965 0.48435 0.7456 0.0
H2186 H 0.31132 0.46155 0.74096 0.0
C2187 C 0.25575 0.38449 0.72543 0.0
C2188 C 0.29535 0.40552 0.73493 0.0
H2189 H 0.3052 0.43502 0.76211 0.0
C2190 C 0.30777 0.4083 0.72397 0.0
C2191 C 0.29455 0.41506 0.74901 0.0
C2192 C 0.28198 0.4121 0.76163 0.0
C2193 C 0.31915 0.4207 0.72647 0.0
C2194 C 0.31813 0.43044 0.74036 0.0
C2195 C 0.30587 0.42752 0.75145 0.0
C2196 C 0.32937 0.44407 0.74334 0.0
C2197 C 0.33189 0.42363 0.71401 0.0
C2198 C 0.34556 0.44172 0.74638 0.0
C2199 C 0.35609 0.45473 0.74908 0.0
C2200 C 0.35058 0.47028 0.74876 0.0
C2201 C 0.33431 0.47253 0.74585 0.0
C2202 C 0.3238 0.45954 0.74323 0.0
H2203 H 0.32924 0.41699 0.70264 0.0
H2204 H 0.33319 0.43649 0.71142 0.0
H2205 H 0.34349 0.41975 0.71865 0.0
H2206 H 0.35001 0.42983 0.74672 0.0
H2207 H 0.36854 0.4526 0.75134 0.0
H2208 H 0.26874 0.66383 0.78711 0.0
H2209 H 0.28689 0.64225 0.78188 0.0
H2210 H 0.24761 0.60808 0.78571 0.0
H2211 H 0.22937 0.62962 0.7908 0.0
H2212 H 0.29406 0.61716 0.80057 0.0
H2213 H 0.2672 0.59553 0.74314 0.0
H2214 H 0.2624 0.61433 0.7523 0.0
H2215 H 0.25317 0.59617 0.75932 0.0
C2216 C 0.26399 0.65171 0.78688 0.0
C2217 C 0.24763 0.64839 0.78928 0.0
C2218 C 0.27435 0.63941 0.78384 0.0
C2219 C 0.26855 0.6236 0.78313 0.0
C2220 C 0.25227 0.62023 0.78579 0.0
H2221 H 0.31128 0.53231 0.77291 0.0
H2222 H 0.29373 0.55442 0.77785 0.0
C2223 C 0.24187 0.63253 0.78873 0.0
C2224 C 0.27961 0.61061 0.78 0.0
H2225 H 0.28651 0.57924 0.7548 0.0
C2226 C 0.29248 0.60893 0.79051 0.0
C2227 C 0.27752 0.59992 0.76683 0.0
C2228 C 0.26442 0.60164 0.75466 0.0
C2229 C 0.30315 0.59663 0.78838 0.0
C2230 C 0.3009 0.58584 0.77536 0.0
C2231 C 0.2881 0.58754 0.7648 0.0
C2232 C 0.31167 0.57261 0.77253 0.0
C2233 C 0.31655 0.59503 0.80023 0.0
C2234 C 0.32751 0.57559 0.7678 0.0
C2235 C 0.33757 0.56299 0.7649 0.0
C2236 C 0.33192 0.54722 0.76672 0.0
C2237 C 0.31602 0.54431 0.77146 0.0
C2238 C 0.30596 0.55691 0.77426 0.0
H2239 H 0.31487 0.60244 0.8112 0.0
H2240 H 0.31753 0.58245 0.80372 0.0
H2241 H 0.32798 0.59886 0.79458 0.0
H2242 H 0.33205 0.58765 0.76623 0.0
H2243 H 0.34975 0.56562 0.76124 0.0
H2244 H 0.88472 0.5032 0.48937 0.0
H2245 H 0.86198 0.48512 0.49491 0.0
H2246 H 0.89256 0.44519 0.49116 0.0
H2247 H 0.91545 0.4632 0.48595 0.0
H2248 H 0.85038 0.45931 0.47463 0.0
H2249 H 0.86925 0.43935 0.53459 0.0
H2250 H 0.87762 0.45705 0.52552 0.0
H2251 H 0.88388 0.43784 0.51896 0.0
C2252 C 0.88664 0.49058 0.48993 0.0
C2253 C 0.90188 0.48462 0.4873 0.0
C2254 C 0.87364 0.48029 0.493 0.0
C2255 C 0.87567 0.46387 0.49362 0.0
C2256 C 0.89083 0.45785 0.49096 0.0
H2257 H 0.81065 0.38338 0.51023 0.0
H2258 H 0.83399 0.4008 0.50517 0.0
C2259 C 0.90384 0.46813 0.48783 0.0
C2260 C 0.8618 0.45303 0.49659 0.0
H2261 H 0.84628 0.42647 0.52322 0.0
C2262 C 0.84943 0.45215 0.48527 0.0
C2263 C 0.86071 0.44368 0.51043 0.0
C2264 C 0.87349 0.44455 0.52317 0.0
C2265 C 0.83601 0.44199 0.48734 0.0
C2266 C 0.83482 0.43276 0.50128 0.0
C2267 C 0.84725 0.43358 0.51256 0.0
C2268 C 0.82068 0.42229 0.50446 0.0
C2269 C 0.82339 0.44101 0.47444 0.0
C2270 C 0.80553 0.42866 0.50599 0.0
C2271 C 0.79217 0.41875 0.50882 0.0
C2272 C 0.79376 0.4023 0.51032 0.0
C2273 C 0.80902 0.39599 0.50909 0.0
C2274 C 0.82237 0.40592 0.50621 0.0
H2275 H 0.8281 0.44532 0.46281 0.0
H2276 H 0.81861 0.42864 0.4727 0.0
H2277 H 0.81338 0.44857 0.478 0.0
H2278 H 0.80404 0.44132 0.50505 0.0
H2279 H 0.78061 0.42401 0.50983 0.0
H2280 H 0.74401 0.86712 0.80862 0.0
H2281 H 0.7259 0.88899 0.8056 0.0
H2282 H 0.72528 0.88096 0.75445 0.0
H2283 H 0.74325 0.85899 0.75736 0.0
H2284 H 0.73019 0.91302 0.76391 0.0
H2285 H 0.67801 0.88476 0.79452 0.0
H2286 H 0.69622 0.88533 0.80589 0.0
H2287 H 0.6948 0.87367 0.78768 0.0
C2288 C 0.73989 0.8699 0.79675 0.0
C2289 C 0.74502 0.86128 0.78323 0.0
C2290 C 0.72956 0.88239 0.79505 0.0
C2291 C 0.72411 0.88642 0.77983 0.0
C2292 C 0.72934 0.87799 0.7663 0.0
H2293 H 0.64605 0.94607 0.75574 0.0
H2294 H 0.66409 0.92423 0.75919 0.0
C2295 C 0.73967 0.8655 0.76798 0.0
C2296 C 0.71315 0.8996 0.77794 0.0
H2297 H 0.67595 0.91178 0.78764 0.0
C2298 C 0.71832 0.91277 0.76907 0.0
C2299 C 0.69763 0.89909 0.78455 0.0
C2300 C 0.69123 0.88491 0.79358 0.0
C2301 C 0.70842 0.92559 0.76677 0.0
C2302 C 0.69305 0.92527 0.77374 0.0
C2303 C 0.68781 0.91201 0.78244 0.0
C2304 C 0.68213 0.93849 0.77189 0.0
C2305 C 0.71438 0.93922 0.75669 0.0
C2306 C 0.68623 0.95366 0.77811 0.0
C2307 C 0.67598 0.96617 0.77614 0.0
C2308 C 0.6614 0.96369 0.76799 0.0
C2309 C 0.65721 0.94839 0.76203 0.0
C2310 C 0.66748 0.93589 0.764 0.0
H2311 H 0.72464 0.93589 0.74908 0.0
H2312 H 0.70476 0.94339 0.74885 0.0
H2313 H 0.71839 0.94927 0.76466 0.0
H2314 H 0.69735 0.95582 0.78451 0.0
H2315 H 0.67952 0.97778 0.78097 0.0
H2316 H 0.61126 0.52858 0.95164 0.0
H2317 H 0.63525 0.54503 0.95767 0.0
H2318 H 0.62834 0.53736 0.00811 0.0
H2319 H 0.60426 0.52108 0.00225 0.0
H2320 H 0.63855 0.57299 0.97782 0.0
H2321 H 0.67445 0.52348 -0.00067 0.0
H2322 H 0.65641 0.52021 0.98775 0.0
H2323 H 0.6553 0.52526 0.0087 0.0
C2324 C 0.61475 0.53052 0.96403 0.0
C2325 C 0.60592 0.52343 0.97647 0.0
C2326 C 0.62849 0.53985 0.96743 0.0
C2327 C 0.63366 0.54216 0.9833 0.0
C2328 C 0.62471 0.53542 0.99576 0.0
H2329 H 0.71512 0.59178 0.0278 0.0
H2330 H 0.69042 0.57629 0.02225 0.0
C2331 C 0.61097 0.52611 0.99238 0.0
C2332 C 0.64842 0.5517 0.98684 0.0
H2333 H 0.68586 0.54945 0.00244 0.0
C2334 C 0.64893 0.56787 0.98315 0.0
C2335 C 0.66187 0.54493 0.99384 0.0
C2336 C 0.66211 0.52749 0.99754 0.0
C2337 C 0.66252 0.57755 0.9865 0.0
C2338 C 0.67602 0.57076 0.99342 0.0
C2339 C 0.67547 0.5546 0.99715 0.0
C2340 C 0.69091 0.58019 0.99673 0.0
C2341 C 0.6622 0.59501 0.98289 0.0
C2342 C 0.69945 0.58729 0.98417 0.0
C2343 C 0.71353 0.59615 0.98729 0.0
C2344 C 0.71938 0.59797 0.00302 0.0
C2345 C 0.71092 0.59063 0.01555 0.0
C2346 C 0.69681 0.58178 0.01242 0.0
H2347 H 0.6498 0.59906 0.98174 0.0
H2348 H 0.66841 0.60227 0.99239 0.0
H2349 H 0.66841 0.59721 0.97138 0.0
H2350 H 0.69528 0.5859 0.97193 0.0
H2351 H 0.71981 0.60157 0.97735 0.0
H2352 H 0.2333 0.6441 0.24589 0.0
H2353 H 0.21591 0.62039 0.24906 0.0
H2354 H 0.22321 0.60746 0.19947 0.0
H2355 H 0.24084 0.63096 0.19627 0.0
H2356 H 0.18733 0.61186 0.23088 0.0
H2357 H 0.23431 0.56726 0.22474 0.0
H2358 H 0.23885 0.58797 0.22926 0.0
H2359 H 0.23381 0.58166 0.20918 0.0
C2360 C 0.23132 0.63612 0.23571 0.0
C2361 C 0.23848 0.63934 0.22085 0.0
C2362 C 0.22132 0.62266 0.23751 0.0
C2363 C 0.21845 0.61214 0.22455 0.0
C2364 C 0.22546 0.61536 0.20967 0.0
H2365 H 0.16398 0.52344 0.21215 0.0
H2366 H 0.18082 0.5474 0.20861 0.0
C2367 C 0.2354 0.62885 0.20783 0.0
C2368 C 0.20792 0.59789 0.22652 0.0
H2369 H 0.20758 0.5574 0.22587 0.0
C2370 C 0.19173 0.59994 0.22984 0.0
C2371 C 0.21375 0.58241 0.22509 0.0
C2372 C 0.23115 0.5796 0.222 0.0
C2373 C 0.1811 0.58685 0.23154 0.0
C2374 C 0.18694 0.57134 0.23021 0.0
C2375 C 0.20315 0.56931 0.22686 0.0
C2376 C 0.17648 0.55703 0.23234 0.0
C2377 C 0.16367 0.58973 0.23439 0.0
C2378 C 0.16859 0.55445 0.24692 0.0
C2379 C 0.15892 0.54082 0.24896 0.0
C2380 C 0.15709 0.52943 0.23651 0.0
C2381 C 0.16512 0.53199 0.22197 0.0
C2382 C 0.17475 0.54566 0.21992 0.0
H2383 H 0.16047 0.60182 0.23073 0.0
H2384 H 0.15597 0.58087 0.22774 0.0
H2385 H 0.16105 0.58866 0.24735 0.0
H2386 H 0.17006 0.56291 0.25678 0.0
H2387 H 0.15299 0.53914 0.26035 0.0
H2388 H 0.90834 0.52166 0.99248 0.0
H2389 H 0.88507 0.53781 0.98819 0.0
H2390 H 0.87132 0.53198 0.03752 0.0
H2391 H 0.89433 0.51554 0.04183 0.0
H2392 H 0.84607 0.52686 0.01496 0.0
H2393 H 0.88011 0.58372 0.00567 0.0
H2394 H 0.88615 0.56731 0.99332 0.0
H2395 H 0.88887 0.56676 0.01463 0.0
C2396 C 0.90029 0.52374 0.00238 0.0
C2397 C 0.9032 0.5174 0.01751 0.0
C2398 C 0.88711 0.53307 -5e-05 0.0
C2399 C 0.87664 0.53624 0.01261 0.0
C2400 C 0.87935 0.52974 0.02765 0.0
H2401 H 0.80446 0.60712 0.01837 0.0
H2402 H 0.8272 0.59037 0.02288 0.0
C2403 C 0.89255 0.52045 0.0301 0.0
C2404 C 0.86273 0.5462 0.01016 0.0
H2405 H 0.85223 0.58371 0.00106 0.0
C2406 C 0.84738 0.53929 0.01193 0.0
C2407 C 0.86455 0.56244 0.0064 0.0
C2408 C 0.88079 0.57059 0.00502 0.0
C2409 C 0.83374 0.54818 0.00982 0.0
C2410 C 0.83556 0.56433 0.00568 0.0
C2411 C 0.85091 0.57129 0.00412 0.0
C2412 C 0.82167 0.57425 0.00302 0.0
C2413 C 0.81751 0.54031 0.01227 0.0
C2414 C 0.81114 0.57078 0.99028 0.0
C2415 C 0.79816 0.58032 0.98765 0.0
C2416 C 0.79551 0.59354 0.99771 0.0
C2417 C 0.80614 0.597 0.01044 0.0
C2418 C 0.81914 0.58747 0.01302 0.0
H2419 H 0.81824 0.52913 0.01901 0.0
H2420 H 0.80951 0.54839 0.01883 0.0
H2421 H 0.81204 0.53738 0.00043 0.0
H2422 H 0.81306 0.56077 0.98227 0.0
H2423 H 0.79024 0.57736 0.97771 0.0
H2424 H 0.10425 0.98928 0.05389 0.0
H2425 H 0.12717 0.97234 0.05054 0.0
H2426 H 0.12083 0.9724 -0.00067 0.0
H2427 H 0.09772 0.98902 0.00252 0.0
H2428 H 0.12802 0.94142 0.03386 0.0
H2429 H 0.16826 0.98766 0.00731 0.0
H2430 H 0.1506 0.99242 0.01853 0.0
H2431 H 0.14887 0.98518 0.99822 0.0
C2432 C 0.10762 0.98556 0.04192 0.0
C2433 C 0.0992 0.99058 0.02846 0.0
C2434 C 0.12076 0.97597 0.04004 0.0
C2435 C 0.12577 0.97135 0.02469 0.0
C2436 C 0.11729 0.97611 0.01126 0.0
H2437 H 0.20181 0.91693 0.98487 0.0
H2438 H 0.17892 0.93348 0.98976 0.0
C2439 C 0.10412 0.98564 0.01311 0.0
C2440 C 0.1398 0.9614 0.02268 0.0
H2441 H 0.17743 0.96142 0.00722 0.0
C2442 C 0.13888 0.94577 0.02813 0.0
C2443 C 0.15387 0.96719 0.01517 0.0
C2444 C 0.1556 0.98407 0.00956 0.0
C2445 C 0.15158 0.93557 0.02588 0.0
C2446 C 0.16566 0.94134 0.01831 0.0
C2447 C 0.16661 0.95704 0.013 0.0
C2448 C 0.17948 0.93121 0.01551 0.0
C2449 C 0.14962 0.91861 0.03119 0.0
C2450 C 0.18749 0.92462 0.0284 0.0
C2451 C 0.20053 0.91508 0.02564 0.0
C2452 C 0.20589 0.91213 0.00995 0.0
C2453 C 0.19798 0.91896 0.99709 0.0
C2454 C 0.1849 0.92842 -0.00014 0.0
H2455 H 0.13686 0.915 0.03285 0.0
H2456 H 0.15497 0.91033 0.02238 0.0
H2457 H 0.15578 0.91736 0.04284 0.0
H2458 H 0.18373 0.92693 0.04059 0.0
H2459 H 0.20645 0.9101 0.03581 0.0
loop_
_geom_bond_atom_site_label_1
_geom_bond_atom_site_label_2
_geom_bond_distance
_geom_bond_site_symmetry_2
_ccdc_geom_bond_type
C0 C1 1.384 . S
C0 H13 0.947 . S
C0 C35 1.382 1_655 S
C1 C0 1.384 . S
C1 C2 1.378 1_655 S
C2 C1 1.378 1_455 S
C2 C3 1.378 . S
C2 H14 0.952 . S
C3 C2 1.378 . S
C3 H15 0.950 . S
C3 C34 1.383 . S
H4 C23 0.947 . S
H5 C24 0.946 1_565 S
H6 C26 0.953 . S
H7 C27 0.945 . S
H8 C29 0.952 . S
H9 C30 0.949 . S
H10 C32 0.950 . S
H11 C33 0.948 . S
H12 C35 0.951 . S
H13 C0 0.947 . S
H14 C2 0.952 . S
H15 C3 0.950 . S
N16 C19 1.382 . S
N16 C21 1.363 . S
N17 C19 1.371 . S
N17 C20 1.372 . S
N18 C20 1.361 . S
N18 C21 1.377 . S
C19 N16 1.382 . S
C19 N17 1.371 . S
C19 C22 1.480 . S
C20 N17 1.372 . S
C20 N18 1.361 . S
C20 C28 1.457 . S
C21 N16 1.363 . S
C21 N18 1.377 . S
C21 C34 1.479 . S
C22 C19 1.480 . S
C22 C23 1.383 . S
C22 C27 1.385 . S
C23 H4 0.947 . S
C23 C22 1.383 . S
C23 C24 1.388 . S
C24 H5 0.946 1_545 S
C24 C23 1.388 . S
C24 C25 1.384 . S
C25 C24 1.384 . S
C25 C26 1.377 . S
C26 H6 0.953 . S
C26 C25 1.377 . S
C26 C27 1.369 . S
C27 H7 0.945 . S
C27 C22 1.385 . S
C27 C26 1.369 . S
C28 C20 1.457 . S
C28 C29 1.372 . S
C28 C33 1.364 . S
C29 H8 0.952 . S
C29 C28 1.372 . S
C29 C30 1.389 1_554 S
C30 H9 0.949 . S
C30 C29 1.389 1_556 S
C30 C31 1.387 1_556 S
C31 C30 1.387 1_554 S
C31 C32 1.372 . S
C32 H10 0.950 . S
C32 C31 1.372 . S
C32 C33 1.379 . S
C33 H11 0.948 . S
C33 C28 1.364 . S
C33 C32 1.379 . S
C34 C3 1.383 . S
C34 C21 1.479 . S
C34 C35 1.398 . S
C35 C0 1.382 1_455 S
C35 H12 0.951 . S
C35 C34 1.398 . S
C36 C37 1.384 . S
C36 H49 0.947 . S
C36 C71 1.382 . S
C37 C36 1.384 . S
C37 C38 1.378 . S
C38 C37 1.378 . S
C38 C39 1.378 . S
C38 H50 0.952 . S
C39 C38 1.378 . S
C39 H51 0.950 . S
C39 C70 1.383 . S
H40 C59 0.947 . S
H41 C60 0.946 . S
H42 C62 0.953 . S
H43 C63 0.945 . S
H44 C65 0.952 . S
H45 C66 0.949 . S
H46 C68 0.950 . S
H47 C69 0.948 . S
H48 C71 0.951 . S
H49 C36 0.947 . S
H50 C38 0.952 . S
H51 C39 0.950 . S
N52 C55 1.382 . S
N52 C57 1.363 . S
N53 C55 1.371 . S
N53 C56 1.372 . S
N54 C56 1.361 . S
N54 C57 1.377 . S
C55 N52 1.382 . S
C55 N53 1.371 . S
C55 C58 1.480 . S
C56 N53 1.372 . S
C56 N54 1.361 . S
C56 C64 1.457 . S
C57 N52 1.363 . S
C57 N54 1.377 . S
C57 C70 1.479 . S
C58 C55 1.480 . S
C58 C59 1.383 . S
C58 C63 1.385 . S
C59 H40 0.947 . S
C59 C58 1.383 . S
C59 C60 1.388 . S
C60 H41 0.946 . S
C60 C59 1.388 . S
C60 C61 1.384 . S
C61 C60 1.384 . S
C61 C62 1.377 . S
C62 H42 0.953 . S
C62 C61 1.377 . S
C62 C63 1.369 . S
C63 H43 0.945 . S
C63 C58 1.385 . S
C63 C62 1.369 . S
C64 C56 1.457 . S
C64 C65 1.372 . S
C64 C69 1.364 . S
C65 H44 0.952 . S
C65 C64 1.372 . S
C65 C66 1.389 . S
C66 H45 0.949 . S
C66 C65 1.389 . S
C66 C67 1.387 . S
C67 C66 1.387 . S
C67 C68 1.372 . S
C68 H46 0.950 . S
C68 C67 1.372 . S
C68 C69 1.379 . S
C69 H47 0.948 . S
C69 C64 1.364 . S
C69 C68 1.379 . S
C70 C39 1.383 . S
C70 C57 1.479 . S
C70 C71 1.398 . S
C71 C36 1.382 . S
C71 H48 0.951 . S
C71 C70 1.398 . S
C72 C73 1.384 1_554 S
C72 H85 0.947 . S
C72 C107 1.382 . S
C73 C72 1.384 1_556 S
C73 C74 1.378 . S
C74 C73 1.378 . S
C74 C75 1.399 . S
C74 H86 0.952 . S
C75 C74 1.399 . S
C75 H87 0.962 . S
C75 C106 1.350 1_556 S
H76 C95 0.947 . S
H77 C96 0.946 . S
H78 C98 0.953 . S
H79 C99 0.945 . S
H80 C101 0.952 . S
H81 C102 0.949 . S
H82 C104 0.950 . S
H83 C105 0.948 . S
H84 C107 0.951 . S
H85 C72 0.947 . S
H86 C74 0.952 . S
H87 C75 0.962 . S
N88 C91 1.382 . S
N88 C93 1.363 . S
N89 C91 1.371 . S
N89 C92 1.372 . S
N90 C92 1.361 . S
N90 C93 1.377 . S
C91 N88 1.382 . S
C91 N89 1.371 . S
C91 C94 1.480 . S
C92 N89 1.372 . S
C92 N90 1.361 . S
C92 C100 1.457 . S
C93 N88 1.363 . S
C93 N90 1.377 . S
C93 C106 1.479 . S
C94 C91 1.480 . S
C94 C95 1.383 . S
C94 C99 1.385 . S
C95 H76 0.947 . S
C95 C94 1.383 . S
C95 C96 1.388 . S
C96 H77 0.946 . S
C96 C95 1.388 . S
C96 C97 1.384 . S
C97 C96 1.384 . S
C97 C98 1.377 . S
C98 H78 0.953 . S
C98 C97 1.377 . S
C98 C99 1.369 . S
C99 H79 0.945 . S
C99 C94 1.385 . S
C99 C98 1.369 . S
C100 C92 1.457 . S
C100 C101 1.372 . S
C100 C105 1.364 1_655 S
C101 H80 0.952 . S
C101 C100 1.372 . S
C101 C102 1.389 . S
C102 H81 0.949 . S
C102 C101 1.389 . S
C102 C103 1.387 1_655 S
C103 C102 1.387 1_455 S
C103 C104 1.372 . S
C104 H82 0.950 . S
C104 C103 1.372 . S
C104 C105 1.379 . S
C105 H83 0.948 . S
C105 C100 1.364 1_455 S
C105 C104 1.379 . S
C106 C75 1.350 1_554 S
C106 C93 1.479 . S
C106 C107 1.398 . S
C107 C72 1.382 . S
C107 H84 0.951 . S
C107 C106 1.398 . S
C108 C109 1.384 . S
C108 H121 0.947 . S
C108 C143 1.382 . S
C109 C108 1.384 . S
C109 C110 1.378 . S
C110 C109 1.378 . S
C110 C111 1.378 . S
C110 H122 0.952 . S
C111 C110 1.378 . S
C111 H123 0.950 . S
C111 C142 1.383 . S
H112 C131 0.947 . S
H113 C132 0.946 . S
H114 C134 0.953 . S
H115 C135 0.945 . S
H116 C137 0.952 . S
H117 C138 0.949 . S
H118 C140 0.950 . S
H119 C141 0.948 . S
H120 C143 0.951 . S
H121 C108 0.947 . S
H122 C110 0.952 . S
H123 C111 0.950 . S
N124 C127 1.382 . S
N124 C129 1.363 . S
N125 C127 1.371 . S
N125 C128 1.372 . S
N126 C128 1.361 . S
N126 C129 1.377 . S
C127 N124 1.382 . S
C127 N125 1.371 . S
C127 C130 1.480 . S
C128 N125 1.372 . S
C128 N126 1.361 . S
C128 C136 1.457 . S
C129 N124 1.363 . S
C129 N126 1.377 . S
C129 C142 1.479 . S
C130 C127 1.480 . S
C130 C131 1.383 . S
C130 C135 1.385 . S
C131 H112 0.947 . S
C131 C130 1.383 . S
C131 C132 1.388 . S
C132 H113 0.946 . S
C132 C131 1.388 . S
C132 C133 1.384 . S
C133 C132 1.384 . S
C133 C134 1.377 . S
C134 H114 0.953 . S
C134 C133 1.377 . S
C134 C135 1.369 . S
C135 H115 0.945 . S
C135 C130 1.385 . S
C135 C134 1.369 . S
C136 C128 1.457 . S
C136 C137 1.372 . S
C136 C141 1.364 . S
C137 H116 0.952 . S
C137 C136 1.372 . S
C137 C138 1.389 . S
C138 H117 0.949 . S
C138 C137 1.389 . S
C138 C139 1.387 . S
C139 C138 1.387 . S
C139 C140 1.372 . S
C140 H118 0.950 . S
C140 C139 1.372 . S
C140 C141 1.379 . S
C141 H119 0.948 . S
C141 C136 1.364 . S
C141 C140 1.379 . S
C142 C111 1.383 . S
C142 C129 1.479 . S
C142 C143 1.398 . S
C143 C108 1.382 . S
C143 H120 0.951 . S
C143 C142 1.398 . S
C144 C145 1.384 . S
C144 H157 0.947 . S
C144 C179 1.382 . S
C145 C144 1.384 . S
C145 C146 1.378 . S
C146 C145 1.378 . S
C146 C147 1.378 . S
C146 H158 0.952 . S
C147 C146 1.378 . S
C147 H159 0.950 . S
C147 C178 1.383 . S
H148 C167 0.947 . S
H149 C168 0.946 . S
H150 C170 0.953 1_545 S
H151 C171 0.945 . S
H152 C173 0.952 . S
H153 C174 0.949 . S
H154 C176 0.950 . S
H155 C177 0.948 . S
H156 C179 0.951 . S
H157 C144 0.947 . S
H158 C146 0.952 . S
H159 C147 0.950 . S
N160 C163 1.382 . S
N160 C165 1.363 . S
N161 C163 1.371 . S
N161 C164 1.372 . S
N162 C164 1.361 . S
N162 C165 1.377 . S
C163 N160 1.382 . S
C163 N161 1.371 . S
C163 C166 1.480 . S
C164 N161 1.372 . S
C164 N162 1.361 . S
C164 C172 1.457 . S
C165 N160 1.363 . S
C165 N162 1.377 . S
C165 C178 1.479 . S
C166 C163 1.480 . S
C166 C167 1.383 . S
C166 C171 1.385 . S
C167 H148 0.947 . S
C167 C166 1.383 . S
C167 C168 1.388 1_455 S
C168 H149 0.946 . S
C168 C167 1.388 1_655 S
C168 C169 1.384 . S
C169 C168 1.384 . S
C169 C170 1.377 1_655 S
C170 H150 0.953 1_565 S
C170 C169 1.377 1_455 S
C170 C171 1.369 . S
C171 H151 0.945 . S
C171 C166 1.385 . S
C171 C170 1.369 . S
C172 C164 1.457 . S
C172 C173 1.372 1_565 S
C172 C177 1.364 . S
C173 H152 0.952 . S
C173 C172 1.372 1_545 S
C173 C174 1.389 . S
C174 H153 0.949 . S
C174 C173 1.389 . S
C174 C175 1.387 . S
C175 C174 1.387 . S
C175 C176 1.372 1_545 S
C176 H154 0.950 . S
C176 C175 1.372 1_565 S
C176 C177 1.379 . S
C177 H155 0.948 . S
C177 C172 1.364 . S
C177 C176 1.379 . S
C178 C147 1.383 . S
C178 C165 1.479 . S
C178 C179 1.398 . S
C179 C144 1.382 . S
C179 H156 0.951 . S
C179 C178 1.398 . S
C180 C181 1.384 . S
C180 H193 0.947 . S
C180 C215 1.382 . S
C181 C180 1.384 . S
C181 C182 1.378 . S
C182 C181 1.378 . S
C182 C183 1.378 . S
C182 H194 0.952 . S
C183 C182 1.378 . S
C183 H195 0.950 . S
C183 C214 1.383 . S
H184 C203 0.947 . S
H185 C204 0.946 . S
H186 C206 0.953 . S
H187 C207 0.945 . S
H188 C209 0.952 . S
H189 C210 0.949 . S
H190 C212 0.950 . S
H191 C213 0.948 . S
H192 C215 0.951 . S
H193 C180 0.947 . S
H194 C182 0.952 . S
H195 C183 0.950 . S
N196 C199 1.382 . S
N196 C201 1.363 . S
N197 C199 1.371 . S
N197 C200 1.372 . S
N198 C200 1.361 . S
N198 C201 1.377 . S
C199 N196 1.382 . S
C199 N197 1.371 . S
C199 C202 1.480 . S
C200 N197 1.372 . S
C200 N198 1.361 . S
C200 C208 1.457 . S
C201 N196 1.363 . S
C201 N198 1.377 . S
C201 C214 1.479 . S
C202 C199 1.480 . S
C202 C203 1.383 . S
C202 C207 1.385 . S
C203 H184 0.947 . S
C203 C202 1.383 . S
C203 C204 1.388 . S
C204 H185 0.946 . S
C204 C203 1.388 . S
C204 C205 1.384 . S
C205 C204 1.384 . S
C205 C206 1.377 . S
C206 H186 0.953 . S
C206 C205 1.377 . S
C206 C207 1.369 . S
C207 H187 0.945 . S
C207 C202 1.385 . S
C207 C206 1.369 . S
C208 C200 1.457 . S
C208 C209 1.372 . S
C208 C213 1.364 . S
C209 H188 0.952 . S
C209 C208 1.372 . S
C209 C210 1.389 . S
C210 H189 0.949 . S
C210 C209 1.389 . S
C210 C211 1.387 . S
C211 C210 1.387 . S
C211 C212 1.372 . S
C212 H190 0.950 . S
C212 C211 1.372 . S
C212 C213 1.379 . S
C213 H191 0.948 . S
C213 C208 1.364 . S
C213 C212 1.379 . S
C214 C183 1.383 . S
C214 C201 1.479 . S
C214 C215 1.398 . S
C215 C180 1.382 . S
C215 H192 0.951 . S
C215 C214 1.398 . S
C216 C217 1.384 . S
C216 H229 0.947 . S
C216 C251 1.382 . S
C217 C216 1.384 . S
C217 C218 1.378 . S
C218 C217 1.378 . S
C218 C219 1.378 . S
C218 H230 0.952 . S
C219 C218 1.378 . S
C219 H231 0.950 . S
C219 C250 1.383 . S
H220 C239 0.947 . S
H221 C240 0.946 . S
H222 C242 0.953 . S
H223 C243 0.945 . S
H224 C245 0.952 . S
H225 C246 0.949 . S
H226 C248 0.950 . S
H227 C249 0.959 . S
H228 C251 0.951 . S
H229 C216 0.947 . S
H230 C218 0.952 . S
H231 C219 0.950 . S
N232 C235 1.382 . S
N232 C237 1.363 . S
N233 C235 1.371 . S
N233 C236 1.372 . S
N234 C236 1.361 . S
N234 C237 1.377 . S
C235 N232 1.382 . S
C235 N233 1.371 . S
C235 C238 1.480 . S
C236 N233 1.372 . S
C236 N234 1.361 . S
C236 C244 1.457 . S
C237 N232 1.363 . S
C237 N234 1.377 . S
C237 C250 1.479 . S
C238 C235 1.480 . S
C238 C239 1.383 . S
C238 C243 1.385 . S
C239 H220 0.947 . S
C239 C238 1.383 . S
C239 C240 1.388 . S
C240 H221 0.946 . S
C240 C239 1.388 . S
C240 C241 1.384 . S
C241 C240 1.384 . S
C241 C242 1.377 . S
C242 H222 0.953 . S
C242 C241 1.377 . S
C242 C243 1.369 . S
C243 H223 0.945 . S
C243 C238 1.385 . S
C243 C242 1.369 . S
C244 C236 1.457 . S
C244 C245 1.372 . S
C244 C249 1.325 1_655 S
C245 H224 0.952 . S
C245 C244 1.372 . S
C245 C246 1.389 . S
C246 H225 0.949 . S
C246 C245 1.389 . S
C246 C247 1.387 1_655 S
C247 C246 1.387 1_455 S
C247 C248 1.372 . S
C248 H226 0.950 . S
C248 C247 1.372 . S
C248 C249 1.408 . S
C249 H227 0.959 . S
C249 C244 1.325 1_455 S
C249 C248 1.408 . S
C250 C219 1.383 . S
C250 C237 1.479 . S
C250 C251 1.398 . S
C251 C216 1.382 . S
C251 H228 0.951 . S
C251 C250 1.398 . S
C252 C253 1.384 . S
C252 H265 0.947 . S
C252 C287 1.382 . S
C253 C252 1.384 . S
C253 C254 1.378 . S
C254 C253 1.378 . S
C254 C255 1.378 . S
C254 H266 0.952 . S
C255 C254 1.378 . S
C255 H267 0.950 . S
C255 C286 1.383 . S
H256 C275 0.947 . S
H257 C276 0.946 . S
H258 C278 0.953 . S
H259 C279 0.945 . S
H260 C281 0.952 . S
H261 C282 0.949 . S
H262 C284 0.950 . S
H263 C285 0.948 . S
H264 C287 0.951 . S
H265 C252 0.947 . S
H266 C254 0.952 . S
H267 C255 0.950 . S
N268 C271 1.382 . S
N268 C273 1.363 . S
N269 C271 1.371 . S
N269 C272 1.372 . S
N270 C272 1.361 . S
N270 C273 1.377 . S
C271 N268 1.382 . S
C271 N269 1.371 . S
C271 C274 1.480 . S
C272 N269 1.372 . S
C272 N270 1.361 . S
C272 C280 1.457 . S
C273 N268 1.363 . S
C273 N270 1.377 . S
C273 C286 1.479 . S
C274 C271 1.480 . S
C274 C275 1.383 . S
C274 C279 1.385 . S
C275 H256 0.947 . S
C275 C274 1.383 . S
C275 C276 1.388 . S
C276 H257 0.946 . S
C276 C275 1.388 . S
C276 C277 1.384 . S
C277 C276 1.384 . S
C277 C278 1.377 . S
C278 H258 0.953 . S
C278 C277 1.377 . S
C278 C279 1.369 . S
C279 H259 0.945 . S
C279 C274 1.385 . S
C279 C278 1.369 . S
C280 C272 1.457 . S
C280 C281 1.372 . S
C280 C285 1.364 . S
C281 H260 0.952 . S
C281 C280 1.372 . S
C281 C282 1.389 . S
C282 H261 0.949 . S
C282 C281 1.389 . S
C282 C283 1.387 . S
C283 C282 1.387 . S
C283 C284 1.372 . S
C284 H262 0.950 . S
C284 C283 1.372 . S
C284 C285 1.379 . S
C285 H263 0.948 . S
C285 C280 1.364 . S
C285 C284 1.379 . S
C286 C255 1.383 . S
C286 C273 1.479 . S
C286 C287 1.398 . S
C287 C252 1.382 . S
C287 H264 0.951 . S
C287 C286 1.398 . S
C288 C289 1.384 . S
C288 H301 0.947 . S
C288 C323 1.382 . S
C289 C288 1.384 . S
C289 C290 1.378 . S
C290 C289 1.378 . S
C290 C291 1.378 . S
C290 H302 0.952 . S
C291 C290 1.378 . S
C291 H303 0.950 . S
C291 C322 1.383 . S
H292 C311 0.947 . S
H293 C312 0.946 . S
H294 C314 0.953 . S
H295 C315 0.945 . S
H296 C317 0.952 . S
H297 C318 0.949 . S
H298 C320 0.950 . S
H299 C321 0.948 . S
H300 C323 0.951 . S
H301 C288 0.947 . S
H302 C290 0.952 . S
H303 C291 0.950 . S
N304 C307 1.382 . S
N304 C309 1.363 . S
N305 C307 1.371 . S
N305 C308 1.372 . S
N306 C308 1.361 . S
N306 C309 1.377 . S
C307 N304 1.382 . S
C307 N305 1.371 . S
C307 C310 1.480 . S
C308 N305 1.372 . S
C308 N306 1.361 . S
C308 C316 1.457 . S
C309 N304 1.363 . S
C309 N306 1.377 . S
C309 C322 1.479 . S
C310 C307 1.480 . S
C310 C311 1.383 . S
C310 C315 1.385 . S
C311 H292 0.947 . S
C311 C310 1.383 . S
C311 C312 1.388 . S
C312 H293 0.946 . S
C312 C311 1.388 . S
C312 C313 1.384 . S
C313 C312 1.384 . S
C313 C314 1.377 . S
C314 H294 0.953 . S
C314 C313 1.377 . S
C314 C315 1.369 . S
C315 H295 0.945 . S
C315 C310 1.385 . S
C315 C314 1.369 . S
C316 C308 1.457 . S
C316 C317 1.372 . S
C316 C321 1.364 . S
C317 H296 0.952 . S
C317 C316 1.372 . S
C317 C318 1.389 . S
C318 H297 0.949 . S
C318 C317 1.389 . S
C318 C319 1.387 . S
C319 C318 1.387 . S
C319 C320 1.372 . S
C320 H298 0.950 . S
C320 C319 1.372 . S
C320 C321 1.379 . S
C321 H299 0.948 . S
C321 C316 1.364 . S
C321 C320 1.379 . S
C322 C291 1.383 . S
C322 C309 1.479 . S
C322 C323 1.398 . S
C323 C288 1.382 . S
C323 H300 0.951 . S
C323 C322 1.398 . S
C324 C325 1.384 . S
C324 H337 0.947 . S
C324 C359 1.382 . S
C325 C324 1.384 . S
C325 C326 1.378 . S
C326 C325 1.378 . S
C326 C327 1.378 . S
C326 H338 0.952 . S
C327 C326 1.378 . S
C327 H339 0.950 . S
C327 C358 1.383 . S
H328 C347 0.947 . S
H329 C348 0.946 . S
H330 C350 0.953 . S
H331 C351 0.945 . S
H332 C353 0.952 . S
H333 C354 0.949 . S
H334 C356 0.950 . S
H335 C357 0.948 . S
H336 C359 0.951 . S
H337 C324 0.947 . S
H338 C326 0.952 . S
H339 C327 0.950 . S
N340 C343 1.382 . S
N340 C345 1.363 . S
N341 C343 1.371 . S
N341 C344 1.372 . S
N342 C344 1.361 . S
N342 C345 1.377 . S
C343 N340 1.382 . S
C343 N341 1.371 . S
C343 C346 1.480 . S
C344 N341 1.372 . S
C344 N342 1.361 . S
C344 C352 1.457 . S
C345 N340 1.363 . S
C345 N342 1.377 . S
C345 C358 1.479 . S
C346 C343 1.480 . S
C346 C347 1.383 . S
C346 C351 1.385 1_565 S
C347 H328 0.947 . S
C347 C346 1.383 . S
C347 C348 1.388 . S
C348 H329 0.946 . S
C348 C347 1.388 . S
C348 C349 1.384 1_565 S
C349 C348 1.384 1_545 S
C349 C350 1.377 . S
C350 H330 0.953 . S
C350 C349 1.377 . S
C350 C351 1.369 . S
C351 H331 0.945 . S
C351 C346 1.385 1_545 S
C351 C350 1.369 . S
C352 C344 1.457 . S
C352 C353 1.372 . S
C352 C357 1.364 . S
C353 H332 0.952 . S
C353 C352 1.372 . S
C353 C354 1.389 . S
C354 H333 0.949 . S
C354 C353 1.389 . S
C354 C355 1.387 . S
C355 C354 1.387 . S
C355 C356 1.372 . S
C356 H334 0.950 . S
C356 C355 1.372 . S
C356 C357 1.379 . S
C357 H335 0.948 . S
C357 C352 1.364 . S
C357 C356 1.379 . S
C358 C327 1.383 . S
C358 C345 1.479 . S
C358 C359 1.398 . S
C359 C324 1.382 . S
C359 H336 0.951 . S
C359 C358 1.398 . S
C360 C361 1.384 . S
C360 H373 0.947 . S
C360 C395 1.382 . S
C361 C360 1.384 . S
C361 C362 1.378 . S
C362 C361 1.378 . S
C362 C363 1.378 . S
C362 H374 0.952 . S
C363 C362 1.378 . S
C363 H375 0.950 . S
C363 C394 1.383 . S
H364 C383 0.947 . S
H365 C384 0.946 . S
H366 C386 0.953 . S
H367 C387 0.945 . S
H368 C389 0.952 . S
H369 C390 0.949 . S
H370 C392 0.950 . S
H371 C393 0.948 . S
H372 C395 0.951 . S
H373 C360 0.947 . S
H374 C362 0.952 . S
H375 C363 0.950 . S
N376 C379 1.382 . S
N376 C381 1.363 . S
N377 C379 1.371 . S
N377 C380 1.372 . S
N378 C380 1.361 . S
N378 C381 1.377 . S
C379 N376 1.382 . S
C379 N377 1.371 . S
C379 C382 1.480 . S
C380 N377 1.372 . S
C380 N378 1.361 . S
C380 C388 1.457 . S
C381 N376 1.363 . S
C381 N378 1.377 . S
C381 C394 1.479 . S
C382 C379 1.480 . S
C382 C383 1.383 . S
C382 C387 1.385 . S
C383 H364 0.947 . S
C383 C382 1.383 . S
C383 C384 1.388 . S
C384 H365 0.946 . S
C384 C383 1.388 . S
C384 C385 1.384 . S
C385 C384 1.384 . S
C385 C386 1.377 . S
C386 H366 0.953 . S
C386 C385 1.377 . S
C386 C387 1.369 . S
C387 H367 0.945 . S
C387 C382 1.385 . S
C387 C386 1.369 . S
C388 C380 1.457 . S
C388 C389 1.372 . S
C388 C393 1.364 . S
C389 H368 0.952 . S
C389 C388 1.372 . S
C389 C390 1.389 . S
C390 H369 0.949 . S
C390 C389 1.389 . S
C390 C391 1.387 . S
C391 C390 1.387 . S
C391 C392 1.372 . S
C392 H370 0.950 . S
C392 C391 1.372 . S
C392 C393 1.379 . S
C393 H371 0.948 . S
C393 C388 1.364 . S
C393 C392 1.379 . S
C394 C363 1.383 . S
C394 C381 1.479 . S
C394 C395 1.398 . S
C395 C360 1.382 . S
C395 H372 0.951 . S
C395 C394 1.398 . S
C396 C397 1.384 . S
C396 H409 0.947 . S
C396 C431 1.382 . S
C397 C396 1.384 . S
C397 C398 1.378 . S
C398 C397 1.378 . S
C398 C399 1.378 . S
C398 H410 0.952 . S
C399 C398 1.378 . S
C399 H411 0.950 . S
C399 C430 1.383 . S
H400 C419 0.947 . S
H401 C420 0.946 . S
H402 C422 0.953 . S
H403 C423 0.945 . S
H404 C425 0.952 . S
H405 C426 0.949 . S
H406 C428 0.950 . S
H407 C429 0.948 . S
H408 C431 0.951 . S
H409 C396 0.947 . S
H410 C398 0.952 . S
H411 C399 0.950 . S
N412 C415 1.382 . S
N412 C417 1.363 . S
N413 C415 1.371 . S
N413 C416 1.372 . S
N414 C416 1.361 . S
N414 C417 1.377 . S
C415 N412 1.382 . S
C415 N413 1.371 . S
C415 C418 1.480 . S
C416 N413 1.372 . S
C416 N414 1.361 . S
C416 C424 1.457 . S
C417 N412 1.363 . S
C417 N414 1.377 . S
C417 C430 1.479 . S
C418 C415 1.480 . S
C418 C419 1.383 . S
C418 C423 1.385 . S
C419 H400 0.947 . S
C419 C418 1.383 . S
C419 C420 1.388 . S
C420 H401 0.946 . S
C420 C419 1.388 . S
C420 C421 1.384 . S
C421 C420 1.384 . S
C421 C422 1.377 . S
C422 H402 0.953 . S
C422 C421 1.377 . S
C422 C423 1.369 . S
C423 H403 0.945 . S
C423 C418 1.385 . S
C423 C422 1.369 . S
C424 C416 1.457 . S
C424 C425 1.372 . S
C424 C429 1.364 . S
C425 H404 0.952 . S
C425 C424 1.372 . S
C425 C426 1.389 . S
C426 H405 0.949 . S
C426 C425 1.389 . S
C426 C427 1.387 . S
C427 C426 1.387 . S
C427 C428 1.372 . S
C428 H406 0.950 . S
C428 C427 1.372 . S
C428 C429 1.379 . S
C429 H407 0.948 . S
C429 C424 1.364 . S
C429 C428 1.379 . S
C430 C399 1.383 . S
C430 C417 1.479 . S
C430 C431 1.398 . S
C431 C396 1.382 . S
C431 H408 0.951 . S
C431 C430 1.398 . S
C432 C433 1.384 . S
C432 H445 0.947 . S
C432 C467 1.382 . S
C433 C432 1.384 . S
C433 C434 1.378 . S
C434 C433 1.378 . S
C434 C435 1.378 . S
C434 H446 0.952 . S
C435 C434 1.378 . S
C435 H447 0.950 . S
C435 C466 1.383 . S
H436 C455 0.947 . S
H437 C456 0.946 . S
H438 C458 0.953 . S
H439 C459 0.945 . S
H440 C461 0.952 . S
H441 C462 0.949 . S
H442 C464 0.950 . S
H443 C465 0.948 . S
H444 C467 0.951 . S
H445 C432 0.947 . S
H446 C434 0.952 . S
H447 C435 0.950 . S
N448 C451 1.382 . S
N448 C453 1.363 . S
N449 C451 1.371 . S
N449 C452 1.372 . S
N450 C452 1.361 . S
N450 C453 1.377 . S
C451 N448 1.382 . S
C451 N449 1.371 . S
C451 C454 1.480 . S
C452 N449 1.372 . S
C452 N450 1.361 . S
C452 C460 1.457 . S
C453 N448 1.363 . S
C453 N450 1.377 . S
C453 C466 1.479 . S
C454 C451 1.480 . S
C454 C455 1.383 . S
C454 C459 1.385 . S
C455 H436 0.947 . S
C455 C454 1.383 . S
C455 C456 1.388 . S
C456 H437 0.946 . S
C456 C455 1.388 . S
C456 C457 1.384 . S
C457 C456 1.384 . S
C457 C458 1.377 . S
C458 H438 0.953 . S
C458 C457 1.377 . S
C458 C459 1.369 . S
C459 H439 0.945 . S
C459 C454 1.385 . S
C459 C458 1.369 . S
C460 C452 1.457 . S
C460 C461 1.372 . S
C460 C465 1.364 . S
C461 H440 0.952 . S
C461 C460 1.372 . S
C461 C462 1.389 . S
C462 H441 0.949 . S
C462 C461 1.389 . S
C462 C463 1.387 . S
C463 C462 1.387 . S
C463 C464 1.372 . S
C464 H442 0.950 . S
C464 C463 1.372 . S
C464 C465 1.379 . S
C465 H443 0.948 . S
C465 C460 1.364 . S
C465 C464 1.379 . S
C466 C435 1.383 . S
C466 C453 1.479 . S
C466 C467 1.398 . S
C467 C432 1.382 . S
C467 H444 0.951 . S
C467 C466 1.398 . S
C468 C469 1.376 1_554 S
C468 H481 0.947 . S
C468 C503 1.382 1_554 S
C469 C468 1.376 1_556 S
C469 C470 1.428 . S
C470 C469 1.428 . S
C470 C471 1.378 . S
C470 H482 0.952 . S
C471 C470 1.378 . S
C471 H483 0.950 . S
C471 C502 1.383 . S
H472 C491 0.947 . S
H473 C492 0.946 . S
H474 C494 0.953 . S
H475 C495 0.945 . S
H476 C497 0.952 . S
H477 C498 0.949 . S
H478 C500 0.950 . S
H479 C501 0.948 . S
H480 C503 0.951 . S
H481 C468 0.947 . S
H482 C470 0.952 . S
H483 C471 0.950 . S
N484 C487 1.382 . S
N484 C489 1.363 . S
N485 C487 1.371 . S
N485 C488 1.372 . S
N486 C488 1.361 . S
N486 C489 1.377 . S
C487 N484 1.382 . S
C487 N485 1.371 . S
C487 C490 1.480 . S
C488 N485 1.372 . S
C488 N486 1.361 . S
C488 C496 1.457 . S
C489 N484 1.363 . S
C489 N486 1.377 . S
C489 C502 1.479 . S
C490 C487 1.480 . S
C490 C491 1.383 . S
C490 C495 1.385 . S
C491 H472 0.947 . S
C491 C490 1.383 . S
C491 C492 1.388 . S
C492 H473 0.946 . S
C492 C491 1.388 . S
C492 C493 1.384 . S
C493 C492 1.384 . S
C493 C494 1.377 . S
C494 H474 0.953 . S
C494 C493 1.377 . S
C494 C495 1.369 . S
C495 H475 0.945 . S
C495 C490 1.385 . S
C495 C494 1.369 . S
C496 C488 1.457 . S
C496 C497 1.372 . S
C496 C501 1.364 . S
C497 H476 0.952 . S
C497 C496 1.372 . S
C497 C498 1.389 . S
C498 H477 0.949 . S
C498 C497 1.389 . S
C498 C499 1.387 . S
C499 C498 1.387 . S
C499 C500 1.372 . S
C500 H478 0.950 . S
C500 C499 1.372 . S
C500 C501 1.379 . S
C501 H479 0.948 . S
C501 C496 1.364 . S
C501 C500 1.379 . S
C502 C471 1.383 . S
C502 C489 1.479 . S
C502 C503 1.398 . S
C503 C468 1.382 1_556 S
C503 H480 0.951 . S
C503 C502 1.398 . S
C504 C505 1.384 . S
C504 H517 0.947 . S
C504 C539 1.382 . S
C505 C504 1.384 . S
C505 C506 1.378 . S
C506 C505 1.378 . S
C506 C507 1.378 . S
C506 H518 0.952 . S
C507 C506 1.378 . S
C507 H519 0.950 . S
C507 C538 1.383 . S
H508 C527 0.947 . S
H509 C528 0.946 . S
H510 C530 0.953 . S
H511 C531 0.945 . S
H512 C533 0.952 . S
H513 C534 0.949 . S
H514 C536 0.950 . S
H515 C537 0.948 . S
H516 C539 0.951 . S
H517 C504 0.947 . S
H518 C506 0.952 . S
H519 C507 0.950 . S
N520 C523 1.382 . S
N520 C525 1.363 . S
N521 C523 1.371 . S
N521 C524 1.372 . S
N522 C524 1.361 . S
N522 C525 1.377 . S
C523 N520 1.382 . S
C523 N521 1.371 . S
C523 C526 1.480 . S
C524 N521 1.372 . S
C524 N522 1.361 . S
C524 C532 1.457 . S
C525 N520 1.363 . S
C525 N522 1.377 . S
C525 C538 1.479 . S
C526 C523 1.480 . S
C526 C527 1.383 . S
C526 C531 1.385 . S
C527 H508 0.947 . S
C527 C526 1.383 . S
C527 C528 1.388 . S
C528 H509 0.946 . S
C528 C527 1.388 . S
C528 C529 1.384 . S
C529 C528 1.384 . S
C529 C530 1.377 . S
C530 H510 0.953 . S
C530 C529 1.377 . S
C530 C531 1.369 . S
C531 H511 0.945 . S
C531 C526 1.385 . S
C531 C530 1.369 . S
C532 C524 1.457 . S
C532 C533 1.372 . S
C532 C537 1.364 . S
C533 H512 0.952 . S
C533 C532 1.372 . S
C533 C534 1.389 . S
C534 H513 0.949 . S
C534 C533 1.389 . S
C534 C535 1.387 . S
C535 C534 1.387 . S
C535 C536 1.372 . S
C536 H514 0.950 . S
C536 C535 1.372 . S
C536 C537 1.379 . S
C537 H515 0.948 . S
C537 C532 1.364 . S
C537 C536 1.379 . S
C538 C507 1.383 . S
C538 C525 1.479 . S
C538 C539 1.398 . S
C539 C504 1.382 . S
C539 H516 0.951 . S
C539 C538 1.398 . S
C540 C541 1.384 1_556 S
C540 H553 0.947 . S
C540 C575 1.382 . S
C541 C540 1.384 1_554 S
C541 C542 1.378 . S
C542 C541 1.378 . S
C542 C543 1.378 . S
C542 H554 0.952 . S
C543 C542 1.378 . S
C543 H555 0.950 . S
C543 C574 1.383 1_554 S
H544 C563 0.947 . S
H545 C564 0.946 . S
H546 C566 0.953 . S
H547 C567 0.945 . S
H548 C569 0.952 . S
H549 C570 0.949 . S
H550 C572 0.950 . S
H551 C573 0.948 . S
H552 C575 0.951 . S
H553 C540 0.947 . S
H554 C542 0.952 . S
H555 C543 0.950 . S
N556 C559 1.382 . S
N556 C561 1.363 . S
N557 C559 1.371 . S
N557 C560 1.372 . S
N558 C560 1.361 . S
N558 C561 1.377 . S
C559 N556 1.382 . S
C559 N557 1.371 . S
C559 C562 1.480 . S
C560 N557 1.372 . S
C560 N558 1.361 . S
C560 C568 1.457 . S
C561 N556 1.363 . S
C561 N558 1.377 . S
C561 C574 1.479 . S
C562 C559 1.480 . S
C562 C563 1.383 . S
C562 C567 1.385 . S
C563 H544 0.947 . S
C563 C562 1.383 . S
C563 C564 1.388 . S
C564 H545 0.946 . S
C564 C563 1.388 . S
C564 C565 1.357 1_545 S
C565 C564 1.357 1_565 S
C565 C566 1.385 . S
C566 H546 0.953 . S
C566 C565 1.385 . S
C566 C567 1.369 1_565 S
C567 H547 0.945 . S
C567 C562 1.385 . S
C567 C566 1.369 1_545 S
C568 C560 1.457 . S
C568 C569 1.372 . S
C568 C573 1.364 . S
C569 H548 0.952 . S
C569 C568 1.372 . S
C569 C570 1.389 . S
C570 H549 0.949 . S
C570 C569 1.389 . S
C570 C571 1.387 . S
C571 C570 1.387 . S
C571 C572 1.372 . S
C572 H550 0.950 . S
C572 C571 1.372 . S
C572 C573 1.379 . S
C573 H551 0.948 . S
C573 C568 1.364 . S
C573 C572 1.379 . S
C574 C543 1.383 1_556 S
C574 C561 1.479 . S
C574 C575 1.398 . S
C575 C540 1.382 . S
C575 H552 0.951 . S
C575 C574 1.398 . S
C576 O577 1.160 1_554 S
C576 O583 1.185 . S
O577 C576 1.160 1_556 S
O578 Zn579 1.899 1_556 S
O578 C586 1.284 . S
Zn579 O578 1.899 1_554 S
Zn579 O580 2.032 . S
Zn579 O583 2.086 . S
Zn579 O588 1.977 . S
O580 Zn579 2.032 . S
O580 C584 1.278 . S
C581 O582 1.203 . S
C581 O588 1.267 . S
O582 C581 1.203 . S
O583 C576 1.185 . S
O583 Zn579 2.086 . S
C584 O580 1.278 . S
C584 O585 1.211 . S
O585 C584 1.211 . S
C586 O578 1.284 . S
C586 O587 1.273 . S
O587 C586 1.273 . S
O588 Zn579 1.977 . S
O588 C581 1.267 . S
C589 O590 1.160 . S
C589 O596 1.185 . S
O590 C589 1.160 . S
O591 Zn592 1.899 . S
O591 C599 1.284 . S
Zn592 O591 1.899 . S
Zn592 O593 2.032 . S
Zn592 O596 2.086 . S
Zn592 O601 1.977 . S
O593 Zn592 2.032 . S
O593 C597 1.278 . S
C594 O595 1.203 . S
C594 O601 1.267 . S
O595 C594 1.203 . S
O596 C589 1.185 . S
O596 Zn592 2.086 . S
C597 O593 1.278 . S
C597 O598 1.211 . S
O598 C597 1.211 . S
C599 O591 1.284 . S
C599 O600 1.273 . S
O600 C599 1.273 . S
O601 Zn592 1.977 . S
O601 C594 1.267 . S
C602 O603 1.160 1_554 S
C602 O609 1.185 . S
O603 C602 1.160 1_556 S
O604 Zn605 1.899 1_556 S
O604 C612 1.284 . S
Zn605 O604 1.899 1_554 S
Zn605 O606 2.032 1_554 S
Zn605 O609 2.086 . S
Zn605 O614 1.977 . S
O606 Zn605 2.032 1_556 S
O606 C610 1.278 . S
C607 O608 1.203 . S
C607 O614 1.267 . S
O608 C607 1.203 . S
O609 C602 1.185 . S
O609 Zn605 2.086 . S
C610 O606 1.278 . S
C610 O611 1.211 1_556 S
O611 C610 1.211 1_554 S
C612 O604 1.284 . S
C612 O613 1.273 . S
O613 C612 1.273 . S
O614 Zn605 1.977 . S
O614 C607 1.267 . S
C615 O616 1.160 . S
C615 O622 1.185 . S
O616 C615 1.160 . S
O617 Zn618 1.899 . S
O617 C625 1.284 . S
Zn618 O617 1.899 . S
Zn618 O619 2.032 . S
Zn618 O622 2.086 . S
Zn618 O627 1.977 . S
O619 Zn618 2.032 . S
O619 C623 1.278 1_545 S
C620 O621 1.203 . S
C620 O627 1.267 . S
O621 C620 1.203 . S
O622 C615 1.185 . S
O622 Zn618 2.086 . S
C623 O619 1.278 1_565 S
C623 O624 1.211 . S
O624 C623 1.211 . S
C625 O617 1.284 . S
C625 O626 1.273 1_545 S
O626 C625 1.273 1_565 S
O627 Zn618 1.977 . S
O627 C620 1.267 . S
C628 O629 1.160 . S
C628 O635 1.185 . S
O629 C628 1.160 . S
O630 Zn631 1.899 . S
O630 C638 1.284 . S
Zn631 O630 1.899 . S
Zn631 O632 2.032 . S
Zn631 O635 2.086 . S
Zn631 O640 1.977 . S
O632 Zn631 2.032 . S
O632 C636 1.278 . S
C633 O634 1.203 . S
C633 O640 1.267 . S
O634 C633 1.203 . S
O635 C628 1.185 . S
O635 Zn631 2.086 . S
C636 O632 1.278 . S
C636 O637 1.211 . S
O637 C636 1.211 . S
C638 O630 1.284 . S
C638 O639 1.273 . S
O639 C638 1.273 . S
O640 Zn631 1.977 . S
O640 C633 1.267 . S
C641 O642 1.160 . S
C641 O648 1.185 . S
O642 C641 1.160 . S
O643 Zn644 1.899 . S
O643 C651 1.284 . S
Zn644 O643 1.899 . S
Zn644 O645 2.032 . S
Zn644 O648 2.086 . S
Zn644 O653 1.977 . S
O645 Zn644 2.032 . S
O645 C649 1.278 . S
C646 O647 1.203 . S
C646 O653 1.267 . S
O647 C646 1.203 . S
O648 C641 1.185 . S
O648 Zn644 2.086 . S
C649 O645 1.278 . S
C649 O650 1.211 . S
O650 C649 1.211 . S
C651 O643 1.284 . S
C651 O652 1.273 . S
O652 C651 1.273 . S
O653 Zn644 1.977 . S
O653 C646 1.267 . S
C654 O655 1.160 . S
C654 O661 1.185 . S
O655 C654 1.160 . S
O656 Zn657 1.899 . S
O656 C664 1.284 . S
Zn657 O656 1.899 . S
Zn657 O658 2.032 . S
Zn657 O661 2.086 . S
Zn657 O666 1.977 . S
O658 Zn657 2.032 . S
O658 C662 1.278 . S
C659 O660 1.203 . S
C659 O666 1.267 . S
O660 C659 1.203 . S
O661 C654 1.185 . S
O661 Zn657 2.086 . S
C662 O658 1.278 . S
C662 O663 1.211 . S
O663 C662 1.211 . S
C664 O656 1.284 . S
C664 O665 1.273 . S
O665 C664 1.273 . S
O666 Zn657 1.977 . S
O666 C659 1.267 . S
C667 O668 1.160 . S
C667 O674 1.185 . S
O668 C667 1.160 . S
O669 Zn670 1.899 . S
O669 C677 1.284 1_565 S
Zn670 O669 1.899 . S
Zn670 O671 2.032 1_565 S
Zn670 O674 2.086 . S
Zn670 O679 1.977 . S
O671 Zn670 2.032 1_545 S
O671 C675 1.278 . S
C672 O673 1.203 1_565 S
C672 O679 1.267 . S
O673 C672 1.203 1_545 S
O674 C667 1.185 . S
O674 Zn670 2.086 . S
C675 O671 1.278 . S
C675 O676 1.211 . S
O676 C675 1.211 . S
C677 O669 1.284 1_545 S
C677 O678 1.273 . S
O678 C677 1.273 . S
O679 Zn670 1.977 . S
O679 C672 1.267 . S
C680 O681 1.160 1_455 S
C680 O687 1.185 . S
O681 C680 1.160 1_655 S
O682 Zn683 1.899 1_655 S
O682 C690 1.284 . S
Zn683 O682 1.899 1_455 S
Zn683 O684 2.017 1_455 S
Zn683 O687 2.086 . S
Zn683 O692 1.977 . S
O684 Zn683 2.017 1_655 S
O684 C688 1.274 1_655 S
C685 O686 1.203 . S
C685 O692 1.267 . S
O686 C685 1.203 . S
O687 C680 1.185 . S
O687 Zn683 2.086 . S
C688 O684 1.274 1_455 S
C688 O689 1.232 . S
O689 C688 1.232 . S
C690 O682 1.284 . S
C690 O691 1.273 . S
O691 C690 1.273 . S
O692 Zn683 1.977 . S
O692 C685 1.267 . S
C693 O694 1.160 . S
C693 O700 1.185 . S
O694 C693 1.160 . S
O695 Zn696 1.899 . S
O695 C703 1.284 . S
Zn696 O695 1.899 . S
Zn696 O697 2.032 . S
Zn696 O700 2.086 . S
Zn696 O705 1.977 . S
O697 Zn696 2.032 . S
O697 C701 1.278 . S
C698 O699 1.203 . S
C698 O705 1.267 . S
O699 C698 1.203 . S
O700 C693 1.185 . S
O700 Zn696 2.086 . S
C701 O697 1.278 . S
C701 O702 1.211 . S
O702 C701 1.211 . S
C703 O695 1.284 . S
C703 O704 1.273 . S
O704 C703 1.273 . S
O705 Zn696 1.977 . S
O705 C698 1.267 . S
C706 O707 1.160 1_455 S
C706 O713 1.185 . S
O707 C706 1.160 1_655 S
O708 Zn709 1.899 1_655 S
O708 C716 1.284 . S
Zn709 O708 1.899 1_455 S
Zn709 O710 2.027 1_455 S
Zn709 O713 2.086 . S
Zn709 O718 1.977 . S
O710 Zn709 2.027 1_655 S
O710 C714 1.275 1_655 S
C711 O712 1.203 . S
C711 O718 1.267 . S
O712 C711 1.203 . S
O713 C706 1.185 . S
O713 Zn709 2.086 . S
C714 O710 1.275 1_455 S
C714 O715 1.211 . S
O715 C714 1.211 . S
C716 O708 1.284 . S
C716 O717 1.273 . S
O717 C716 1.273 . S
O718 Zn709 1.977 . S
O718 C711 1.267 . S
C719 O720 1.160 . S
C719 O726 1.185 . S
O720 C719 1.160 . S
O721 Zn722 1.899 . S
O721 C729 1.284 . S
Zn722 O721 1.899 . S
Zn722 O723 2.032 . S
Zn722 O726 2.086 . S
Zn722 O731 1.977 . S
O723 Zn722 2.032 . S
O723 C727 1.278 . S
C724 O725 1.203 . S
C724 O731 1.267 . S
O725 C724 1.203 . S
O726 C719 1.185 . S
O726 Zn722 2.086 . S
C727 O723 1.278 . S
C727 O728 1.211 . S
O728 C727 1.211 . S
C729 O721 1.284 . S
C729 O730 1.273 . S
O730 C729 1.273 . S
O731 Zn722 1.977 . S
O731 C724 1.267 . S
H732 C740 0.929 . S
H733 C742 0.930 . S
H734 C744 0.930 . S
H735 C747 0.929 . S
H736 C750 0.930 . S
H737 C752 0.960 . S
H738 C752 0.960 . S
H739 C752 0.960 . S
C740 H732 0.929 . S
C740 C741 1.377 . S
C740 C742 1.384 . S
C741 C740 1.377 . S
C741 C747 1.390 . S
C742 H733 0.930 . S
C742 C740 1.384 . S
C742 C743 1.372 . S
C743 C742 1.372 . S
C743 C744 1.400 . S
C743 C748 1.490 . S
C744 H734 0.930 . S
C744 C743 1.400 . S
C744 C747 1.386 . S
H745 C761 0.930 . S
H746 C762 0.931 . S
C747 H735 0.929 . S
C747 C741 1.390 . S
C747 C744 1.386 . S
C748 C743 1.490 . S
C748 C750 1.395 . S
C748 C751 1.403 . S
H749 C755 0.930 . S
C750 H736 0.930 . S
C750 C748 1.395 . S
C750 C753 1.403 . S
C751 C748 1.403 . S
C751 C752 1.524 . S
C751 C755 1.400 . S
C752 H737 0.960 . S
C752 H738 0.960 . S
C752 H739 0.960 . S
C752 C751 1.524 . S
C753 C750 1.403 . S
C753 C754 1.392 . S
C753 C757 1.495 . S
C754 C753 1.392 . S
C754 C755 1.385 . S
C754 C756 1.478 . S
C755 H749 0.930 . S
C755 C751 1.400 . S
C755 C754 1.385 . S
C756 C754 1.478 . S
C756 C758 1.381 . S
C756 C762 1.383 . S
C757 C753 1.495 . S
C757 H763 0.959 . S
C757 H764 0.961 . S
C757 H765 0.960 . S
C758 C756 1.381 . S
C758 C759 1.394 . S
C758 H766 0.930 . S
C759 C758 1.394 . S
C759 C760 1.383 . S
C759 H767 0.929 . S
C760 C759 1.383 . S
C760 C761 1.377 . S
C761 H745 0.930 . S
C761 C760 1.377 . S
C761 C762 1.379 . S
C762 H746 0.931 . S
C762 C756 1.383 . S
C762 C761 1.379 . S
H763 C757 0.959 . S
H764 C757 0.961 . S
H765 C757 0.960 . S
H766 C758 0.930 . S
H767 C759 0.929 . S
H768 C776 0.929 . S
H769 C778 0.930 . S
H770 C780 0.930 . S
H771 C783 0.913 1_655 S
H772 C786 0.930 . S
H773 C788 0.960 . S
H774 C788 0.960 . S
H775 C788 0.960 . S
C776 H768 0.929 . S
C776 C777 1.377 . S
C776 C778 1.384 . S
C777 C776 1.377 . S
C777 C783 1.390 . S
C778 H769 0.930 . S
C778 C776 1.384 . S
C778 C779 1.372 . S
C779 C778 1.372 . S
C779 C780 1.400 . S
C779 C784 1.490 . S
C780 H770 0.930 . S
C780 C779 1.400 . S
C780 C783 1.386 . S
H781 C797 0.930 . S
H782 C798 0.931 . S
C783 H771 0.913 1_455 S
C783 C777 1.390 . S
C783 C780 1.386 . S
C784 C779 1.490 . S
C784 C786 1.395 . S
C784 C787 1.403 . S
H785 C791 0.930 . S
C786 H772 0.930 . S
C786 C784 1.395 . S
C786 C789 1.403 . S
C787 C784 1.403 . S
C787 C788 1.524 . S
C787 C791 1.400 . S
C788 H773 0.960 . S
C788 H774 0.960 . S
C788 H775 0.960 . S
C788 C787 1.524 . S
C789 C786 1.403 . S
C789 C790 1.392 . S
C789 C793 1.495 . S
C790 C789 1.392 . S
C790 C791 1.385 . S
C790 C792 1.478 . S
C791 H785 0.930 . S
C791 C787 1.400 . S
C791 C790 1.385 . S
C792 C790 1.478 . S
C792 C794 1.381 . S
C792 C798 1.383 . S
C793 C789 1.495 . S
C793 H799 0.959 . S
C793 H800 0.961 . S
C793 H801 0.960 . S
C794 C792 1.381 . S
C794 C795 1.394 . S
C794 H802 0.930 . S
C795 C794 1.394 . S
C795 C796 1.383 . S
C795 H803 0.929 . S
C796 C795 1.383 . S
C796 C797 1.377 . S
C797 H781 0.930 . S
C797 C796 1.377 . S
C797 C798 1.379 . S
C798 H782 0.931 . S
C798 C792 1.383 . S
C798 C797 1.379 . S
H799 C793 0.959 . S
H800 C793 0.961 . S
H801 C793 0.960 . S
H802 C794 0.930 . S
H803 C795 0.929 . S
H804 C812 0.929 . S
H805 C814 0.930 . S
H806 C816 0.930 . S
H807 C819 0.929 . S
H808 C822 0.930 . S
H809 C824 0.960 . S
H810 C824 0.960 . S
H811 C824 0.960 . S
C812 H804 0.929 . S
C812 C813 1.377 . S
C812 C814 1.384 . S
C813 C812 1.377 . S
C813 C819 1.390 . S
C814 H805 0.930 . S
C814 C812 1.384 . S
C814 C815 1.372 . S
C815 C814 1.372 . S
C815 C816 1.400 . S
C815 C820 1.490 . S
C816 H806 0.930 . S
C816 C815 1.400 . S
C816 C819 1.386 . S
H817 C833 0.930 . S
H818 C834 0.931 . S
C819 H807 0.929 . S
C819 C813 1.390 . S
C819 C816 1.386 . S
C820 C815 1.490 . S
C820 C822 1.395 . S
C820 C823 1.403 . S
H821 C827 0.930 . S
C822 H808 0.930 . S
C822 C820 1.395 . S
C822 C825 1.403 . S
C823 C820 1.403 . S
C823 C824 1.524 . S
C823 C827 1.400 . S
C824 H809 0.960 . S
C824 H810 0.960 . S
C824 H811 0.960 . S
C824 C823 1.524 . S
C825 C822 1.403 . S
C825 C826 1.392 . S
C825 C829 1.495 . S
C826 C825 1.392 . S
C826 C827 1.385 . S
C826 C828 1.478 . S
C827 H821 0.930 . S
C827 C823 1.400 . S
C827 C826 1.385 . S
C828 C826 1.478 . S
C828 C830 1.381 . S
C828 C834 1.383 . S
C829 C825 1.495 . S
C829 H835 0.959 . S
C829 H836 0.961 . S
C829 H837 0.960 . S
C830 C828 1.381 . S
C830 C831 1.394 . S
C830 H838 0.930 . S
C831 C830 1.394 . S
C831 C832 1.383 . S
C831 H839 0.929 . S
C832 C831 1.383 . S
C832 C833 1.377 . S
C833 H817 0.930 . S
C833 C832 1.377 . S
C833 C834 1.379 . S
C834 H818 0.931 . S
C834 C828 1.383 . S
C834 C833 1.379 . S
H835 C829 0.959 . S
H836 C829 0.961 . S
H837 C829 0.960 . S
H838 C830 0.930 . S
H839 C831 0.929 . S
H840 C848 0.929 . S
H841 C850 0.930 . S
H842 C852 0.930 . S
H843 C855 0.954 . S
H844 C858 0.930 . S
H845 C860 0.960 . S
H846 C860 0.960 . S
H847 C860 0.960 1_545 S
C848 H840 0.929 . S
C848 C849 1.377 . S
C848 C850 1.384 . S
C849 C848 1.377 . S
C849 C855 1.360 1_565 S
C850 H841 0.930 . S
C850 C848 1.384 . S
C850 C851 1.372 . S
C851 C850 1.372 . S
C851 C852 1.400 1_565 S
C851 C856 1.490 . S
C852 H842 0.930 . S
C852 C851 1.400 1_545 S
C852 C855 1.392 . S
H853 C869 0.930 . S
H854 C870 0.931 . S
C855 H843 0.954 . S
C855 C849 1.360 1_545 S
C855 C852 1.392 . S
C856 C851 1.490 . S
C856 C858 1.395 . S
C856 C859 1.403 . S
H857 C863 0.918 1_545 S
C858 H844 0.930 . S
C858 C856 1.395 . S
C858 C861 1.403 . S
C859 C856 1.403 . S
C859 C860 1.524 . S
C859 C863 1.416 . S
C860 H845 0.960 . S
C860 H846 0.960 . S
C860 H847 0.960 1_565 S
C860 C859 1.524 . S
C861 C858 1.403 . S
C861 C862 1.392 . S
C861 C865 1.495 . S
C862 C861 1.392 . S
C862 C863 1.386 . S
C862 C864 1.478 1_565 S
C863 H857 0.918 1_565 S
C863 C859 1.416 . S
C863 C862 1.386 . S
C864 C862 1.478 1_545 S
C864 C866 1.381 1_545 S
C864 C870 1.383 . S
C865 C861 1.495 . S
C865 H871 0.959 . S
C865 H872 0.961 1_565 S
C865 H873 0.960 . S
C866 C864 1.381 1_565 S
C866 C867 1.394 . S
C866 H874 0.930 . S
C867 C866 1.394 . S
C867 C868 1.383 1_565 S
C867 H875 0.929 . S
C868 C867 1.383 1_545 S
C868 C869 1.377 . S
C869 H853 0.930 . S
C869 C868 1.377 . S
C869 C870 1.379 . S
C870 H854 0.931 . S
C870 C864 1.383 . S
C870 C869 1.379 . S
H871 C865 0.959 . S
H872 C865 0.961 1_545 S
H873 C865 0.960 . S
H874 C866 0.930 . S
H875 C867 0.929 . S
H876 C884 0.929 . S
H877 C886 0.930 . S
H878 C888 0.930 . S
H879 C891 0.929 . S
H880 C894 0.930 . S
H881 C896 0.960 . S
H882 C896 0.960 . S
H883 C896 0.960 . S
C884 H876 0.929 . S
C884 C885 1.377 . S
C884 C886 1.384 . S
C885 C884 1.377 . S
C885 C891 1.390 . S
C886 H877 0.930 . S
C886 C884 1.384 . S
C886 C887 1.372 . S
C887 C886 1.372 . S
C887 C888 1.400 . S
C887 C892 1.490 . S
C888 H878 0.930 . S
C888 C887 1.400 . S
C888 C891 1.386 . S
H889 C905 0.930 . S
H890 C906 0.931 . S
C891 H879 0.929 . S
C891 C885 1.390 . S
C891 C888 1.386 . S
C892 C887 1.490 . S
C892 C894 1.395 . S
C892 C895 1.403 . S
H893 C899 0.930 . S
C894 H880 0.930 . S
C894 C892 1.395 . S
C894 C897 1.403 . S
C895 C892 1.403 . S
C895 C896 1.524 . S
C895 C899 1.400 . S
C896 H881 0.960 . S
C896 H882 0.960 . S
C896 H883 0.960 . S
C896 C895 1.524 . S
C897 C894 1.403 . S
C897 C898 1.392 . S
C897 C901 1.495 . S
C898 C897 1.392 . S
C898 C899 1.385 . S
C898 C900 1.478 . S
C899 H893 0.930 . S
C899 C895 1.400 . S
C899 C898 1.385 . S
C900 C898 1.478 . S
C900 C902 1.381 . S
C900 C906 1.383 . S
C901 C897 1.495 . S
C901 H907 0.959 . S
C901 H908 0.961 . S
C901 H909 0.960 . S
C902 C900 1.381 . S
C902 C903 1.394 . S
C902 H910 0.930 . S
C903 C902 1.394 . S
C903 C904 1.383 . S
C903 H911 0.929 . S
C904 C903 1.383 . S
C904 C905 1.377 . S
C905 H889 0.930 . S
C905 C904 1.377 . S
C905 C906 1.379 . S
C906 H890 0.931 . S
C906 C900 1.383 . S
C906 C905 1.379 . S
H907 C901 0.959 . S
H908 C901 0.961 . S
H909 C901 0.960 . S
H910 C902 0.930 . S
H911 C903 0.929 . S
H912 C920 0.929 . S
H913 C922 0.930 . S
H914 C924 0.930 . S
H915 C927 0.929 . S
H916 C930 0.930 . S
H917 C932 0.960 . S
H918 C932 0.960 . S
H919 C932 0.960 . S
C920 H912 0.929 . S
C920 C921 1.377 . S
C920 C922 1.384 . S
C921 C920 1.377 . S
C921 C927 1.390 . S
C922 H913 0.930 . S
C922 C920 1.384 . S
C922 C923 1.372 . S
C923 C922 1.372 . S
C923 C924 1.400 . S
C923 C928 1.490 . S
C924 H914 0.930 . S
C924 C923 1.400 . S
C924 C927 1.386 . S
H925 C941 0.930 . S
H926 C942 0.931 . S
C927 H915 0.929 . S
C927 C921 1.390 . S
C927 C924 1.386 . S
C928 C923 1.490 . S
C928 C930 1.395 . S
C928 C931 1.403 . S
H929 C935 0.930 . S
C930 H916 0.930 . S
C930 C928 1.395 . S
C930 C933 1.403 . S
C931 C928 1.403 . S
C931 C932 1.524 . S
C931 C935 1.400 . S
C932 H917 0.960 . S
C932 H918 0.960 . S
C932 H919 0.960 . S
C932 C931 1.524 . S
C933 C930 1.403 . S
C933 C934 1.392 . S
C933 C937 1.495 . S
C934 C933 1.392 . S
C934 C935 1.385 . S
C934 C936 1.478 . S
C935 H929 0.930 . S
C935 C931 1.400 . S
C935 C934 1.385 . S
C936 C934 1.478 . S
C936 C938 1.381 . S
C936 C942 1.383 . S
C937 C933 1.495 . S
C937 H943 0.959 . S
C937 H944 0.961 . S
C937 H945 0.960 . S
C938 C936 1.381 . S
C938 C939 1.394 . S
C938 H946 0.930 . S
C939 C938 1.394 . S
C939 C940 1.383 . S
C939 H947 0.929 . S
C940 C939 1.383 . S
C940 C941 1.377 . S
C941 H925 0.930 . S
C941 C940 1.377 . S
C941 C942 1.379 . S
C942 H926 0.931 . S
C942 C936 1.383 . S
C942 C941 1.379 . S
H943 C937 0.959 . S
H944 C937 0.961 . S
H945 C937 0.960 . S
H946 C938 0.930 . S
H947 C939 0.929 . S
H948 C956 0.929 . S
H949 C958 0.930 . S
H950 C960 0.930 . S
H951 C963 0.929 . S
H952 C966 0.930 . S
H953 C968 0.960 . S
H954 C968 0.960 . S
H955 C968 0.960 . S
C956 H948 0.929 . S
C956 C957 1.377 . S
C956 C958 1.384 . S
C957 C956 1.377 . S
C957 C963 1.390 . S
C958 H949 0.930 . S
C958 C956 1.384 . S
C958 C959 1.372 . S
C959 C958 1.372 . S
C959 C960 1.400 . S
C959 C964 1.490 . S
C960 H950 0.930 . S
C960 C959 1.400 . S
C960 C963 1.386 . S
H961 C977 0.930 . S
H962 C978 0.931 . S
C963 H951 0.929 . S
C963 C957 1.390 . S
C963 C960 1.386 . S
C964 C959 1.490 . S
C964 C966 1.395 . S
C964 C967 1.403 . S
H965 C971 0.930 . S
C966 H952 0.930 . S
C966 C964 1.395 . S
C966 C969 1.403 . S
C967 C964 1.403 . S
C967 C968 1.524 . S
C967 C971 1.400 . S
C968 H953 0.960 . S
C968 H954 0.960 . S
C968 H955 0.960 . S
C968 C967 1.524 . S
C969 C966 1.403 . S
C969 C970 1.392 . S
C969 C973 1.495 . S
C970 C969 1.392 . S
C970 C971 1.385 . S
C970 C972 1.478 . S
C971 H965 0.930 . S
C971 C967 1.400 . S
C971 C970 1.385 . S
C972 C970 1.478 . S
C972 C974 1.381 . S
C972 C978 1.383 . S
C973 C969 1.495 . S
C973 H979 0.959 . S
C973 H980 0.961 . S
C973 H981 0.960 . S
C974 C972 1.381 . S
C974 C975 1.394 . S
C974 H982 0.930 . S
C975 C974 1.394 . S
C975 C976 1.383 . S
C975 H983 0.929 . S
C976 C975 1.383 . S
C976 C977 1.377 . S
C977 H961 0.930 . S
C977 C976 1.377 . S
C977 C978 1.379 . S
C978 H962 0.931 . S
C978 C972 1.383 . S
C978 C977 1.379 . S
H979 C973 0.959 . S
H980 C973 0.961 . S
H981 C973 0.960 . S
H982 C974 0.930 . S
H983 C975 0.929 . S
H984 C992 0.929 . S
H985 C994 0.930 . S
H986 C996 0.930 1_545 S
H987 C999 0.929 1_545 S
H988 C1002 0.930 . S
H989 C1004 0.953 1_545 S
H990 C1004 0.960 . S
H991 C1004 0.960 1_545 S
C992 H984 0.929 . S
C992 C993 1.377 . S
C992 C994 1.384 . S
C993 C992 1.377 . S
C993 C999 1.390 . S
C994 H985 0.930 . S
C994 C992 1.384 . S
C994 C995 1.372 . S
C995 C994 1.372 . S
C995 C996 1.400 . S
C995 C1000 1.490 . S
C996 H986 0.930 1_565 S
C996 C995 1.400 . S
C996 C999 1.386 . S
H997 C1013 0.930 . S
H998 C1014 0.931 . S
C999 H987 0.929 1_565 S
C999 C993 1.390 . S
C999 C996 1.386 . S
C1000 C995 1.490 . S
C1000 C1002 1.395 . S
C1000 C1003 1.403 . S
H1001 C1007 0.930 . S
C1002 H988 0.930 . S
C1002 C1000 1.395 . S
C1002 C1005 1.403 . S
C1003 C1000 1.403 . S
C1003 C1004 1.524 . S
C1003 C1007 1.400 . S
C1004 H989 0.953 1_565 S
C1004 H990 0.960 . S
C1004 H991 0.960 1_565 S
C1004 C1003 1.524 . S
C1005 C1002 1.403 . S
C1005 C1006 1.392 . S
C1005 C1009 1.495 . S
C1006 C1005 1.392 . S
C1006 C1007 1.385 . S
C1006 C1008 1.478 . S
C1007 H1001 0.930 . S
C1007 C1003 1.400 . S
C1007 C1006 1.385 . S
C1008 C1006 1.478 . S
C1008 C1010 1.381 . S
C1008 C1014 1.383 1_565 S
C1009 C1005 1.495 . S
C1009 H1015 0.959 . S
C1009 H1016 0.961 . S
C1009 H1017 0.960 . S
C1010 C1008 1.381 . S
C1010 C1011 1.394 . S
C1010 H1018 0.930 . S
C1011 C1010 1.394 . S
C1011 C1012 1.383 . S
C1011 H1019 0.929 . S
C1012 C1011 1.383 . S
C1012 C1013 1.377 1_565 S
C1013 H997 0.930 . S
C1013 C1012 1.377 1_545 S
C1013 C1014 1.379 . S
C1014 H998 0.931 . S
C1014 C1008 1.383 1_545 S
C1014 C1013 1.379 . S
H1015 C1009 0.959 . S
H1016 C1009 0.961 . S
H1017 C1009 0.960 . S
H1018 C1010 0.930 . S
H1019 C1011 0.929 . S
H1020 C1028 0.929 . S
H1021 C1030 0.930 . S
H1022 C1032 0.930 . S
H1023 C1035 0.929 . S
H1024 C1038 0.930 . S
H1025 C1040 0.960 . S
H1026 C1040 0.960 . S
H1027 C1040 0.960 . S
C1028 H1020 0.929 . S
C1028 C1029 1.377 . S
C1028 C1030 1.384 . S
C1029 C1028 1.377 . S
C1029 C1035 1.390 . S
C1030 H1021 0.930 . S
C1030 C1028 1.384 . S
C1030 C1031 1.372 . S
C1031 C1030 1.372 . S
C1031 C1032 1.400 . S
C1031 C1036 1.490 . S
C1032 H1022 0.930 . S
C1032 C1031 1.400 . S
C1032 C1035 1.386 . S
H1033 C1049 0.930 . S
H1034 C1050 0.931 . S
C1035 H1023 0.929 . S
C1035 C1029 1.390 . S
C1035 C1032 1.386 . S
C1036 C1031 1.490 . S
C1036 C1038 1.395 . S
C1036 C1039 1.403 . S
H1037 C1043 0.930 . S
C1038 H1024 0.930 . S
C1038 C1036 1.395 . S
C1038 C1041 1.403 . S
C1039 C1036 1.403 . S
C1039 C1040 1.524 . S
C1039 C1043 1.400 . S
C1040 H1025 0.960 . S
C1040 H1026 0.960 . S
C1040 H1027 0.960 . S
C1040 C1039 1.524 . S
C1041 C1038 1.403 . S
C1041 C1042 1.392 . S
C1041 C1045 1.495 . S
C1042 C1041 1.392 . S
C1042 C1043 1.385 . S
C1042 C1044 1.478 . S
C1043 H1037 0.930 . S
C1043 C1039 1.400 . S
C1043 C1042 1.385 . S
C1044 C1042 1.478 . S
C1044 C1046 1.381 . S
C1044 C1050 1.383 . S
C1045 C1041 1.495 . S
C1045 H1051 0.959 . S
C1045 H1052 0.961 . S
C1045 H1053 0.960 . S
C1046 C1044 1.381 . S
C1046 C1047 1.394 . S
C1046 H1054 0.930 . S
C1047 C1046 1.394 . S
C1047 C1048 1.383 . S
C1047 H1055 0.929 . S
C1048 C1047 1.383 . S
C1048 C1049 1.377 . S
C1049 H1033 0.930 . S
C1049 C1048 1.377 . S
C1049 C1050 1.379 . S
C1050 H1034 0.931 . S
C1050 C1044 1.383 . S
C1050 C1049 1.379 . S
H1051 C1045 0.959 . S
H1052 C1045 0.961 . S
H1053 C1045 0.960 . S
H1054 C1046 0.930 . S
H1055 C1047 0.929 . S
H1056 C1064 0.929 . S
H1057 C1066 0.930 . S
H1058 C1068 0.930 . S
H1059 C1071 0.929 . S
H1060 C1074 0.930 . S
H1061 C1076 0.960 . S
H1062 C1076 0.960 . S
H1063 C1076 0.960 . S
C1064 H1056 0.929 . S
C1064 C1065 1.377 . S
C1064 C1066 1.384 . S
C1065 C1064 1.377 . S
C1065 C1071 1.390 . S
C1066 H1057 0.930 . S
C1066 C1064 1.384 . S
C1066 C1067 1.372 . S
C1067 C1066 1.372 . S
C1067 C1068 1.400 . S
C1067 C1072 1.490 . S
C1068 H1058 0.930 . S
C1068 C1067 1.400 . S
C1068 C1071 1.386 . S
H1069 C1085 0.930 . S
H1070 C1086 0.931 . S
C1071 H1059 0.929 . S
C1071 C1065 1.390 . S
C1071 C1068 1.386 . S
C1072 C1067 1.490 . S
C1072 C1074 1.395 . S
C1072 C1075 1.403 . S
H1073 C1079 0.930 . S
C1074 H1060 0.930 . S
C1074 C1072 1.395 . S
C1074 C1077 1.403 . S
C1075 C1072 1.403 . S
C1075 C1076 1.524 . S
C1075 C1079 1.400 . S
C1076 H1061 0.960 . S
C1076 H1062 0.960 . S
C1076 H1063 0.960 . S
C1076 C1075 1.524 . S
C1077 C1074 1.403 . S
C1077 C1078 1.392 . S
C1077 C1081 1.495 . S
C1078 C1077 1.392 . S
C1078 C1079 1.385 . S
C1078 C1080 1.478 . S
C1079 H1073 0.930 . S
C1079 C1075 1.400 . S
C1079 C1078 1.385 . S
C1080 C1078 1.478 . S
C1080 C1082 1.381 . S
C1080 C1086 1.383 . S
C1081 C1077 1.495 . S
C1081 H1087 0.959 . S
C1081 H1088 0.961 . S
C1081 H1089 0.960 . S
C1082 C1080 1.381 . S
C1082 C1083 1.394 . S
C1082 H1090 0.930 . S
C1083 C1082 1.394 . S
C1083 C1084 1.383 . S
C1083 H1091 0.929 . S
C1084 C1083 1.383 . S
C1084 C1085 1.377 . S
C1085 H1069 0.930 . S
C1085 C1084 1.377 . S
C1085 C1086 1.379 . S
C1086 H1070 0.931 . S
C1086 C1080 1.383 . S
C1086 C1085 1.379 . S
H1087 C1081 0.959 . S
H1088 C1081 0.961 . S
H1089 C1081 0.960 . S
H1090 C1082 0.930 . S
H1091 C1083 0.929 . S
H1092 C1100 0.929 . S
H1093 C1102 0.930 . S
H1094 C1104 0.930 . S
H1095 C1107 0.929 . S
H1096 C1110 0.930 . S
H1097 C1112 0.960 . S
H1098 C1112 0.960 . S
H1099 C1112 0.960 . S
C1100 H1092 0.929 . S
C1100 C1101 1.377 . S
C1100 C1102 1.384 . S
C1101 C1100 1.377 . S
C1101 C1107 1.390 . S
C1102 H1093 0.930 . S
C1102 C1100 1.384 . S
C1102 C1103 1.372 . S
C1103 C1102 1.372 . S
C1103 C1104 1.400 . S
C1103 C1108 1.490 . S
C1104 H1094 0.930 . S
C1104 C1103 1.400 . S
C1104 C1107 1.386 . S
H1105 C1121 0.930 . S
H1106 C1122 0.931 . S
C1107 H1095 0.929 . S
C1107 C1101 1.390 . S
C1107 C1104 1.386 . S
C1108 C1103 1.490 . S
C1108 C1110 1.395 . S
C1108 C1111 1.403 . S
H1109 C1115 0.930 . S
C1110 H1096 0.930 . S
C1110 C1108 1.395 . S
C1110 C1113 1.403 . S
C1111 C1108 1.403 . S
C1111 C1112 1.524 . S
C1111 C1115 1.400 . S
C1112 H1097 0.960 . S
C1112 H1098 0.960 . S
C1112 H1099 0.960 . S
C1112 C1111 1.524 . S
C1113 C1110 1.403 . S
C1113 C1114 1.392 . S
C1113 C1117 1.495 . S
C1114 C1113 1.392 . S
C1114 C1115 1.385 . S
C1114 C1116 1.478 . S
C1115 H1109 0.930 . S
C1115 C1111 1.400 . S
C1115 C1114 1.385 . S
C1116 C1114 1.478 . S
C1116 C1118 1.381 . S
C1116 C1122 1.383 . S
C1117 C1113 1.495 . S
C1117 H1123 0.959 . S
C1117 H1124 0.961 . S
C1117 H1125 0.960 . S
C1118 C1116 1.381 . S
C1118 C1119 1.394 . S
C1118 H1126 0.930 . S
C1119 C1118 1.394 . S
C1119 C1120 1.383 . S
C1119 H1127 0.929 . S
C1120 C1119 1.383 . S
C1120 C1121 1.377 . S
C1121 H1105 0.930 . S
C1121 C1120 1.377 . S
C1121 C1122 1.379 . S
C1122 H1106 0.931 . S
C1122 C1116 1.383 . S
C1122 C1121 1.379 . S
H1123 C1117 0.959 . S
H1124 C1117 0.961 . S
H1125 C1117 0.960 . S
H1126 C1118 0.930 . S
H1127 C1119 0.929 . S
H1128 C1136 0.929 . S
H1129 C1138 0.930 . S
H1130 C1140 0.930 . S
H1131 C1143 0.929 . S
H1132 C1146 0.930 . S
H1133 C1148 0.960 . S
H1134 C1148 0.960 . S
H1135 C1148 0.960 . S
C1136 H1128 0.929 . S
C1136 C1137 1.377 . S
C1136 C1138 1.384 . S
C1137 C1136 1.377 . S
C1137 C1143 1.390 . S
C1138 H1129 0.930 . S
C1138 C1136 1.384 . S
C1138 C1139 1.372 . S
C1139 C1138 1.372 . S
C1139 C1140 1.400 . S
C1139 C1144 1.490 . S
C1140 H1130 0.930 . S
C1140 C1139 1.400 . S
C1140 C1143 1.386 . S
H1141 C1157 0.930 . S
H1142 C1158 0.931 . S
C1143 H1131 0.929 . S
C1143 C1137 1.390 . S
C1143 C1140 1.386 . S
C1144 C1139 1.490 . S
C1144 C1146 1.395 . S
C1144 C1147 1.403 . S
H1145 C1151 0.930 . S
C1146 H1132 0.930 . S
C1146 C1144 1.395 . S
C1146 C1149 1.403 . S
C1147 C1144 1.403 . S
C1147 C1148 1.524 . S
C1147 C1151 1.400 . S
C1148 H1133 0.960 . S
C1148 H1134 0.960 . S
C1148 H1135 0.960 . S
C1148 C1147 1.524 . S
C1149 C1146 1.403 . S
C1149 C1150 1.392 . S
C1149 C1153 1.495 . S
C1150 C1149 1.392 . S
C1150 C1151 1.385 . S
C1150 C1152 1.478 . S
C1151 H1145 0.930 . S
C1151 C1147 1.400 . S
C1151 C1150 1.385 . S
C1152 C1150 1.478 . S
C1152 C1154 1.381 . S
C1152 C1158 1.383 . S
C1153 C1149 1.495 . S
C1153 H1159 0.959 . S
C1153 H1160 0.961 . S
C1153 H1161 0.960 . S
C1154 C1152 1.381 . S
C1154 C1155 1.394 . S
C1154 H1162 0.930 . S
C1155 C1154 1.394 . S
C1155 C1156 1.383 . S
C1155 H1163 0.929 . S
C1156 C1155 1.383 . S
C1156 C1157 1.377 . S
C1157 H1141 0.930 . S
C1157 C1156 1.377 . S
C1157 C1158 1.379 . S
C1158 H1142 0.931 . S
C1158 C1152 1.383 . S
C1158 C1157 1.379 . S
H1159 C1153 0.959 . S
H1160 C1153 0.961 . S
H1161 C1153 0.960 . S
H1162 C1154 0.930 . S
H1163 C1155 0.929 . S
H1164 C1172 0.929 . S
H1165 C1174 0.930 . S
H1166 C1176 0.930 . S
H1167 C1179 0.929 . S
H1168 C1182 0.930 . S
H1169 C1184 0.960 . S
H1170 C1184 0.960 . S
H1171 C1184 0.960 . S
C1172 H1164 0.929 . S
C1172 C1173 1.377 . S
C1172 C1174 1.384 . S
C1173 C1172 1.377 . S
C1173 C1179 1.390 . S
C1174 H1165 0.930 . S
C1174 C1172 1.384 . S
C1174 C1175 1.372 . S
C1175 C1174 1.372 . S
C1175 C1176 1.400 . S
C1175 C1180 1.490 . S
C1176 H1166 0.930 . S
C1176 C1175 1.400 . S
C1176 C1179 1.386 . S
H1177 C1193 0.930 . S
H1178 C1194 0.931 . S
C1179 H1167 0.929 . S
C1179 C1173 1.390 . S
C1179 C1176 1.386 . S
C1180 C1175 1.490 . S
C1180 C1182 1.395 . S
C1180 C1183 1.403 . S
H1181 C1187 0.930 . S
C1182 H1168 0.930 . S
C1182 C1180 1.395 . S
C1182 C1185 1.403 . S
C1183 C1180 1.403 . S
C1183 C1184 1.524 . S
C1183 C1187 1.400 . S
C1184 H1169 0.960 . S
C1184 H1170 0.960 . S
C1184 H1171 0.960 . S
C1184 C1183 1.524 . S
C1185 C1182 1.403 . S
C1185 C1186 1.392 . S
C1185 C1189 1.495 . S
C1186 C1185 1.392 . S
C1186 C1187 1.385 . S
C1186 C1188 1.478 . S
C1187 H1181 0.930 . S
C1187 C1183 1.400 . S
C1187 C1186 1.385 . S
C1188 C1186 1.478 . S
C1188 C1190 1.381 . S
C1188 C1194 1.383 . S
C1189 C1185 1.495 . S
C1189 H1195 0.959 . S
C1189 H1196 0.961 . S
C1189 H1197 0.960 . S
C1190 C1188 1.381 . S
C1190 C1191 1.394 . S
C1190 H1198 0.930 . S
C1191 C1190 1.394 . S
C1191 C1192 1.383 . S
C1191 H1199 0.929 . S
C1192 C1191 1.383 . S
C1192 C1193 1.377 . S
C1193 H1177 0.930 . S
C1193 C1192 1.377 . S
C1193 C1194 1.379 . S
C1194 H1178 0.931 . S
C1194 C1188 1.383 . S
C1194 C1193 1.379 . S
H1195 C1189 0.959 . S
H1196 C1189 0.961 . S
H1197 C1189 0.960 . S
H1198 C1190 0.930 . S
H1199 C1191 0.929 . S
H1200 C1208 0.929 . S
H1201 C1210 0.957 . S
H1202 C1212 0.930 . S
H1203 C1215 0.929 . S
H1204 C1218 0.905 1_655 S
H1205 C1220 0.960 . S
H1206 C1220 0.960 . S
H1207 C1220 0.960 . S
C1208 H1200 0.929 . S
C1208 C1209 1.377 . S
C1208 C1210 1.384 . S
C1209 C1208 1.377 . S
C1209 C1215 1.390 . S
C1210 H1201 0.957 . S
C1210 C1208 1.384 . S
C1210 C1211 1.372 . S
C1211 C1210 1.372 . S
C1211 C1212 1.400 . S
C1211 C1216 1.490 . S
C1212 H1202 0.930 . S
C1212 C1211 1.400 . S
C1212 C1215 1.386 . S
H1213 C1229 0.930 . S
H1214 C1230 0.931 . S
C1215 H1203 0.929 . S
C1215 C1209 1.390 . S
C1215 C1212 1.386 . S
C1216 C1211 1.490 . S
C1216 C1218 1.395 . S
C1216 C1219 1.403 . S
H1217 C1223 0.930 . S
C1218 H1204 0.905 1_455 S
C1218 C1216 1.395 . S
C1218 C1221 1.403 . S
C1219 C1216 1.403 . S
C1219 C1220 1.524 . S
C1219 C1223 1.400 . S
C1220 H1205 0.960 . S
C1220 H1206 0.960 . S
C1220 H1207 0.960 . S
C1220 C1219 1.524 . S
C1221 C1218 1.403 . S
C1221 C1222 1.392 . S
C1221 C1225 1.495 1_455 S
C1222 C1221 1.392 . S
C1222 C1223 1.385 . S
C1222 C1224 1.478 . S
C1223 H1217 0.930 . S
C1223 C1219 1.400 . S
C1223 C1222 1.385 . S
C1224 C1222 1.478 . S
C1224 C1226 1.381 1_455 S
C1224 C1230 1.383 . S
C1225 C1221 1.495 1_655 S
C1225 H1231 0.959 . S
C1225 H1232 0.961 . S
C1225 H1233 0.960 . S
C1226 C1224 1.381 1_655 S
C1226 C1227 1.394 . S
C1226 H1234 0.930 . S
C1227 C1226 1.394 . S
C1227 C1228 1.383 1_655 S
C1227 H1235 0.929 . S
C1228 C1227 1.383 1_455 S
C1228 C1229 1.377 . S
C1229 H1213 0.930 . S
C1229 C1228 1.377 . S
C1229 C1230 1.379 . S
C1230 H1214 0.931 . S
C1230 C1224 1.383 . S
C1230 C1229 1.379 . S
H1231 C1225 0.959 . S
H1232 C1225 0.961 . S
H1233 C1225 0.960 . S
H1234 C1226 0.930 . S
H1235 C1227 0.929 . S
H1236 C1244 0.929 . S
H1237 C1246 0.930 . S
H1238 C1248 0.930 . S
H1239 C1251 0.929 . S
H1240 C1254 0.930 . S
H1241 C1256 0.960 . S
H1242 C1256 0.960 . S
H1243 C1256 0.960 . S
C1244 H1236 0.929 . S
C1244 C1245 1.377 . S
C1244 C1246 1.384 . S
C1245 C1244 1.377 . S
C1245 C1251 1.390 . S
C1246 H1237 0.930 . S
C1246 C1244 1.384 . S
C1246 C1247 1.372 . S
C1247 C1246 1.372 . S
C1247 C1248 1.400 . S
C1247 C1252 1.490 . S
C1248 H1238 0.930 . S
C1248 C1247 1.400 . S
C1248 C1251 1.386 . S
H1249 C1265 0.930 . S
H1250 C1266 0.931 . S
C1251 H1239 0.929 . S
C1251 C1245 1.390 . S
C1251 C1248 1.386 . S
C1252 C1247 1.490 . S
C1252 C1254 1.395 . S
C1252 C1255 1.403 . S
H1253 C1259 0.930 . S
C1254 H1240 0.930 . S
C1254 C1252 1.395 . S
C1254 C1257 1.403 . S
C1255 C1252 1.403 . S
C1255 C1256 1.524 . S
C1255 C1259 1.400 . S
C1256 H1241 0.960 . S
C1256 H1242 0.960 . S
C1256 H1243 0.960 . S
C1256 C1255 1.524 . S
C1257 C1254 1.403 . S
C1257 C1258 1.392 . S
C1257 C1261 1.495 . S
C1258 C1257 1.392 . S
C1258 C1259 1.385 . S
C1258 C1260 1.478 . S
C1259 H1253 0.930 . S
C1259 C1255 1.400 . S
C1259 C1258 1.385 . S
C1260 C1258 1.478 . S
C1260 C1262 1.381 . S
C1260 C1266 1.383 . S
C1261 C1257 1.495 . S
C1261 H1267 0.959 . S
C1261 H1268 0.961 . S
C1261 H1269 0.960 . S
C1262 C1260 1.381 . S
C1262 C1263 1.394 . S
C1262 H1270 0.930 . S
C1263 C1262 1.394 . S
C1263 C1264 1.383 . S
C1263 H1271 0.929 . S
C1264 C1263 1.383 . S
C1264 C1265 1.377 . S
C1265 H1249 0.930 . S
C1265 C1264 1.377 . S
C1265 C1266 1.379 . S
C1266 H1250 0.931 . S
C1266 C1260 1.383 . S
C1266 C1265 1.379 . S
H1267 C1261 0.959 . S
H1268 C1261 0.961 . S
H1269 C1261 0.960 . S
H1270 C1262 0.930 . S
H1271 C1263 0.929 . S
H1272 C1280 0.929 1_455 S
H1273 C1282 0.930 1_455 S
H1274 C1284 0.930 . S
H1275 C1287 0.929 . S
H1276 C1290 0.930 1_455 S
H1277 C1292 0.960 . S
H1278 C1292 0.960 . S
H1279 C1292 0.960 . S
C1280 H1272 0.929 1_655 S
C1280 C1281 1.377 . S
C1280 C1282 1.384 . S
C1281 C1280 1.377 . S
C1281 C1287 1.390 . S
C1282 H1273 0.930 1_655 S
C1282 C1280 1.384 . S
C1282 C1283 1.372 . S
C1283 C1282 1.372 . S
C1283 C1284 1.400 . S
C1283 C1288 1.490 . S
C1284 H1274 0.930 . S
C1284 C1283 1.400 . S
C1284 C1287 1.386 . S
H1285 C1301 0.930 . S
H1286 C1302 0.931 . S
C1287 H1275 0.929 . S
C1287 C1281 1.390 . S
C1287 C1284 1.386 . S
C1288 C1283 1.490 . S
C1288 C1290 1.395 . S
C1288 C1291 1.403 . S
H1289 C1295 0.930 . S
C1290 H1276 0.930 1_655 S
C1290 C1288 1.395 . S
C1290 C1293 1.407 . S
C1291 C1288 1.403 . S
C1291 C1292 1.524 . S
C1291 C1295 1.400 . S
C1292 H1277 0.960 . S
C1292 H1278 0.960 . S
C1292 H1279 0.960 . S
C1292 C1291 1.524 . S
C1293 C1290 1.407 . S
C1293 C1294 1.402 . S
C1293 C1297 1.483 1_655 S
C1294 C1293 1.402 . S
C1294 C1295 1.385 . S
C1294 C1296 1.478 . S
C1295 H1289 0.930 . S
C1295 C1291 1.400 . S
C1295 C1294 1.385 . S
C1296 C1294 1.478 . S
C1296 C1298 1.381 1_655 S
C1296 C1302 1.383 . S
C1297 C1293 1.483 1_455 S
C1297 H1303 0.959 . S
C1297 H1304 0.961 . S
C1297 H1305 0.960 . S
C1298 C1296 1.381 1_455 S
C1298 C1299 1.394 . S
C1298 H1306 0.930 . S
C1299 C1298 1.394 . S
C1299 C1300 1.383 1_455 S
C1299 H1307 0.929 . S
C1300 C1299 1.383 1_655 S
C1300 C1301 1.377 . S
C1301 H1285 0.930 . S
C1301 C1300 1.377 . S
C1301 C1302 1.379 . S
C1302 H1286 0.931 . S
C1302 C1296 1.383 . S
C1302 C1301 1.379 . S
H1303 C1297 0.959 . S
H1304 C1297 0.961 . S
H1305 C1297 0.960 . S
H1306 C1298 0.930 . S
H1307 C1299 0.929 . S
H1308 C1316 0.929 . S
H1309 C1318 0.930 . S
H1310 C1320 0.930 . S
H1311 C1323 0.929 . S
H1312 C1326 0.930 . S
H1313 C1328 0.960 . S
H1314 C1328 0.960 . S
H1315 C1328 0.960 . S
C1316 H1308 0.929 . S
C1316 C1317 1.377 . S
C1316 C1318 1.384 . S
C1317 C1316 1.377 . S
C1317 C1323 1.390 . S
C1318 H1309 0.930 . S
C1318 C1316 1.384 . S
C1318 C1319 1.372 . S
C1319 C1318 1.372 . S
C1319 C1320 1.400 . S
C1319 C1324 1.490 . S
C1320 H1310 0.930 . S
C1320 C1319 1.400 . S
C1320 C1323 1.386 . S
H1321 C1337 0.930 . S
H1322 C1338 0.931 . S
C1323 H1311 0.929 . S
C1323 C1317 1.390 . S
C1323 C1320 1.386 . S
C1324 C1319 1.490 . S
C1324 C1326 1.395 . S
C1324 C1327 1.403 . S
H1325 C1331 0.930 . S
C1326 H1312 0.930 . S
C1326 C1324 1.395 . S
C1326 C1329 1.403 . S
C1327 C1324 1.403 . S
C1327 C1328 1.524 . S
C1327 C1331 1.400 . S
C1328 H1313 0.960 . S
C1328 H1314 0.960 . S
C1328 H1315 0.960 . S
C1328 C1327 1.524 . S
C1329 C1326 1.403 . S
C1329 C1330 1.392 . S
C1329 C1333 1.495 . S
C1330 C1329 1.392 . S
C1330 C1331 1.385 . S
C1330 C1332 1.478 . S
C1331 H1325 0.930 . S
C1331 C1327 1.400 . S
C1331 C1330 1.385 . S
C1332 C1330 1.478 . S
C1332 C1334 1.381 . S
C1332 C1338 1.383 . S
C1333 C1329 1.495 . S
C1333 H1339 0.959 . S
C1333 H1340 0.961 . S
C1333 H1341 0.960 . S
C1334 C1332 1.381 . S
C1334 C1335 1.394 . S
C1334 H1342 0.930 . S
C1335 C1334 1.394 . S
C1335 C1336 1.383 . S
C1335 H1343 0.929 . S
C1336 C1335 1.383 . S
C1336 C1337 1.377 . S
C1337 H1321 0.930 . S
C1337 C1336 1.377 . S
C1337 C1338 1.379 . S
C1338 H1322 0.931 . S
C1338 C1332 1.383 . S
C1338 C1337 1.379 . S
H1339 C1333 0.959 . S
H1340 C1333 0.961 . S
H1341 C1333 0.960 . S
H1342 C1334 0.930 . S
H1343 C1335 0.929 . S
H1344 C1352 0.929 . S
H1345 C1354 0.930 . S
H1346 C1356 0.930 . S
H1347 C1359 0.929 . S
H1348 C1362 0.930 . S
H1349 C1364 0.960 . S
H1350 C1364 0.960 . S
H1351 C1364 0.960 . S
C1352 H1344 0.929 . S
C1352 C1353 1.377 . S
C1352 C1354 1.384 . S
C1353 C1352 1.377 . S
C1353 C1359 1.390 . S
C1354 H1345 0.930 . S
C1354 C1352 1.384 . S
C1354 C1355 1.372 . S
C1355 C1354 1.372 . S
C1355 C1356 1.400 . S
C1355 C1360 1.490 . S
C1356 H1346 0.930 . S
C1356 C1355 1.400 . S
C1356 C1359 1.386 . S
H1357 C1373 0.930 . S
H1358 C1374 0.931 . S
C1359 H1347 0.929 . S
C1359 C1353 1.390 . S
C1359 C1356 1.386 . S
C1360 C1355 1.490 . S
C1360 C1362 1.395 . S
C1360 C1363 1.403 . S
H1361 C1367 0.930 . S
C1362 H1348 0.930 . S
C1362 C1360 1.395 . S
C1362 C1365 1.403 . S
C1363 C1360 1.403 . S
C1363 C1364 1.524 . S
C1363 C1367 1.400 . S
C1364 H1349 0.960 . S
C1364 H1350 0.960 . S
C1364 H1351 0.960 . S
C1364 C1363 1.524 . S
C1365 C1362 1.403 . S
C1365 C1366 1.392 . S
C1365 C1369 1.495 . S
C1366 C1365 1.392 . S
C1366 C1367 1.385 . S
C1366 C1368 1.478 . S
C1367 H1361 0.930 . S
C1367 C1363 1.400 . S
C1367 C1366 1.385 . S
C1368 C1366 1.478 . S
C1368 C1370 1.381 . S
C1368 C1374 1.383 . S
C1369 C1365 1.495 . S
C1369 H1375 0.959 . S
C1369 H1376 0.961 . S
C1369 H1377 0.960 . S
C1370 C1368 1.381 . S
C1370 C1371 1.394 . S
C1370 H1378 0.930 . S
C1371 C1370 1.394 . S
C1371 C1372 1.383 . S
C1371 H1379 0.929 . S
C1372 C1371 1.383 . S
C1372 C1373 1.377 . S
C1373 H1357 0.930 . S
C1373 C1372 1.377 . S
C1373 C1374 1.379 . S
C1374 H1358 0.931 . S
C1374 C1368 1.383 . S
C1374 C1373 1.379 . S
H1375 C1369 0.959 . S
H1376 C1369 0.961 . S
H1377 C1369 0.960 . S
H1378 C1370 0.930 . S
H1379 C1371 0.929 . S
H1380 C1388 0.929 . S
H1381 C1390 0.930 . S
H1382 C1392 0.930 1_554 S
H1383 C1395 0.929 1_554 S
H1384 C1398 0.930 . S
H1385 C1400 0.960 . S
H1386 C1400 0.960 1_556 S
H1387 C1400 0.960 . S
C1388 H1380 0.929 . S
C1388 C1389 1.377 . S
C1388 C1390 1.384 . S
C1389 C1388 1.377 . S
C1389 C1395 1.390 . S
C1390 H1381 0.930 . S
C1390 C1388 1.384 . S
C1390 C1391 1.372 . S
C1391 C1390 1.372 . S
C1391 C1392 1.400 . S
C1391 C1396 1.490 . S
C1392 H1382 0.930 1_556 S
C1392 C1391 1.400 . S
C1392 C1395 1.386 . S
H1393 C1409 0.930 . S
H1394 C1410 0.931 . S
C1395 H1383 0.929 1_556 S
C1395 C1389 1.390 . S
C1395 C1392 1.386 . S
C1396 C1391 1.490 . S
C1396 C1398 1.395 . S
C1396 C1399 1.403 . S
H1397 C1403 0.929 1_554 S
C1398 H1384 0.930 . S
C1398 C1396 1.395 . S
C1398 C1401 1.403 . S
C1399 C1396 1.403 . S
C1399 C1400 1.524 1_556 S
C1399 C1403 1.400 . S
C1400 H1385 0.960 . S
C1400 H1386 0.960 1_554 S
C1400 H1387 0.960 . S
C1400 C1399 1.524 1_554 S
C1401 C1398 1.403 . S
C1401 C1402 1.392 . S
C1401 C1405 1.495 . S
C1402 C1401 1.392 . S
C1402 C1403 1.386 . S
C1402 C1404 1.478 . S
C1403 H1397 0.929 1_556 S
C1403 C1399 1.400 . S
C1403 C1402 1.386 . S
C1404 C1402 1.478 . S
C1404 C1406 1.381 . S
C1404 C1410 1.383 1_556 S
C1405 C1401 1.495 . S
C1405 H1411 0.959 . S
C1405 H1412 0.961 . S
C1405 H1413 0.960 . S
C1406 C1404 1.381 . S
C1406 C1407 1.394 . S
C1406 H1414 0.930 . S
C1407 C1406 1.394 . S
C1407 C1408 1.383 1_556 S
C1407 H1415 0.929 . S
C1408 C1407 1.383 1_554 S
C1408 C1409 1.377 . S
C1409 H1393 0.930 . S
C1409 C1408 1.377 . S
C1409 C1410 1.379 . S
C1410 H1394 0.931 . S
C1410 C1404 1.383 1_554 S
C1410 C1409 1.379 . S
H1411 C1405 0.959 . S
H1412 C1405 0.961 . S
H1413 C1405 0.960 . S
H1414 C1406 0.930 . S
H1415 C1407 0.929 . S
H1416 C1424 0.929 . S
H1417 C1426 0.930 . S
H1418 C1428 0.930 . S
H1419 C1431 0.929 . S
H1420 C1434 0.930 . S
H1421 C1436 0.960 . S
H1422 C1436 0.960 . S
H1423 C1436 0.960 . S
C1424 H1416 0.929 . S
C1424 C1425 1.377 . S
C1424 C1426 1.384 . S
C1425 C1424 1.377 . S
C1425 C1431 1.390 . S
C1426 H1417 0.930 . S
C1426 C1424 1.384 . S
C1426 C1427 1.372 . S
C1427 C1426 1.372 . S
C1427 C1428 1.400 . S
C1427 C1432 1.490 . S
C1428 H1418 0.930 . S
C1428 C1427 1.400 . S
C1428 C1431 1.386 . S
H1429 C1445 0.930 . S
H1430 C1446 0.931 . S
C1431 H1419 0.929 . S
C1431 C1425 1.390 . S
C1431 C1428 1.386 . S
C1432 C1427 1.490 . S
C1432 C1434 1.395 . S
C1432 C1435 1.403 . S
H1433 C1439 0.930 . S
C1434 H1420 0.930 . S
C1434 C1432 1.395 . S
C1434 C1437 1.403 . S
C1435 C1432 1.403 . S
C1435 C1436 1.524 . S
C1435 C1439 1.400 . S
C1436 H1421 0.960 . S
C1436 H1422 0.960 . S
C1436 H1423 0.960 . S
C1436 C1435 1.524 . S
C1437 C1434 1.403 . S
C1437 C1438 1.392 . S
C1437 C1441 1.495 . S
C1438 C1437 1.392 . S
C1438 C1439 1.385 . S
C1438 C1440 1.478 . S
C1439 H1433 0.930 . S
C1439 C1435 1.400 . S
C1439 C1438 1.385 . S
C1440 C1438 1.478 . S
C1440 C1442 1.381 . S
C1440 C1446 1.383 . S
C1441 C1437 1.495 . S
C1441 H1447 0.959 . S
C1441 H1448 0.961 . S
C1441 H1449 0.960 . S
C1442 C1440 1.381 . S
C1442 C1443 1.394 . S
C1442 H1450 0.930 . S
C1443 C1442 1.394 . S
C1443 C1444 1.383 . S
C1443 H1451 0.929 . S
C1444 C1443 1.383 . S
C1444 C1445 1.377 . S
C1445 H1429 0.930 . S
C1445 C1444 1.377 . S
C1445 C1446 1.379 . S
C1446 H1430 0.931 . S
C1446 C1440 1.383 . S
C1446 C1445 1.379 . S
H1447 C1441 0.959 . S
H1448 C1441 0.961 . S
H1449 C1441 0.960 . S
H1450 C1442 0.930 . S
H1451 C1443 0.929 . S
H1452 C1460 0.929 . S
H1453 C1462 0.930 . S
H1454 C1464 0.930 . S
H1455 C1467 0.929 . S
H1456 C1470 0.930 . S
H1457 C1472 0.960 . S
H1458 C1472 0.960 . S
H1459 C1472 0.960 . S
C1460 H1452 0.929 . S
C1460 C1461 1.377 . S
C1460 C1462 1.384 . S
C1461 C1460 1.377 . S
C1461 C1467 1.390 . S
C1462 H1453 0.930 . S
C1462 C1460 1.384 . S
C1462 C1463 1.372 . S
C1463 C1462 1.372 . S
C1463 C1464 1.400 . S
C1463 C1468 1.490 . S
C1464 H1454 0.930 . S
C1464 C1463 1.400 . S
C1464 C1467 1.386 . S
H1465 C1481 0.930 . S
H1466 C1482 0.931 . S
C1467 H1455 0.929 . S
C1467 C1461 1.390 . S
C1467 C1464 1.386 . S
C1468 C1463 1.490 . S
C1468 C1470 1.395 . S
C1468 C1471 1.403 . S
H1469 C1475 0.930 . S
C1470 H1456 0.930 . S
C1470 C1468 1.395 . S
C1470 C1473 1.403 . S
C1471 C1468 1.403 . S
C1471 C1472 1.524 . S
C1471 C1475 1.400 . S
C1472 H1457 0.960 . S
C1472 H1458 0.960 . S
C1472 H1459 0.960 . S
C1472 C1471 1.524 . S
C1473 C1470 1.403 . S
C1473 C1474 1.392 . S
C1473 C1477 1.495 . S
C1474 C1473 1.392 . S
C1474 C1475 1.385 . S
C1474 C1476 1.478 . S
C1475 H1469 0.930 . S
C1475 C1471 1.400 . S
C1475 C1474 1.385 . S
C1476 C1474 1.478 . S
C1476 C1478 1.381 . S
C1476 C1482 1.383 . S
C1477 C1473 1.495 . S
C1477 H1483 0.959 . S
C1477 H1484 0.961 . S
C1477 H1485 0.960 . S
C1478 C1476 1.381 . S
C1478 C1479 1.394 . S
C1478 H1486 0.930 . S
C1479 C1478 1.394 . S
C1479 C1480 1.383 . S
C1479 H1487 0.929 . S
C1480 C1479 1.383 . S
C1480 C1481 1.377 . S
C1481 H1465 0.930 . S
C1481 C1480 1.377 . S
C1481 C1482 1.379 . S
C1482 H1466 0.931 . S
C1482 C1476 1.383 . S
C1482 C1481 1.379 . S
H1483 C1477 0.959 . S
H1484 C1477 0.961 . S
H1485 C1477 0.960 . S
H1486 C1478 0.930 . S
H1487 C1479 0.929 . S
H1488 C1496 0.929 . S
H1489 C1498 0.930 . S
H1490 C1500 0.930 . S
H1491 C1503 0.929 . S
H1492 C1506 0.930 . S
H1493 C1508 0.960 . S
H1494 C1508 0.960 . S
H1495 C1508 0.960 . S
C1496 H1488 0.929 . S
C1496 C1497 1.377 . S
C1496 C1498 1.384 . S
C1497 C1496 1.377 . S
C1497 C1503 1.390 . S
C1498 H1489 0.930 . S
C1498 C1496 1.384 . S
C1498 C1499 1.372 . S
C1499 C1498 1.372 . S
C1499 C1500 1.400 . S
C1499 C1504 1.490 . S
C1500 H1490 0.930 . S
C1500 C1499 1.400 . S
C1500 C1503 1.386 . S
H1501 C1517 0.930 . S
H1502 C1518 0.931 . S
C1503 H1491 0.929 . S
C1503 C1497 1.390 . S
C1503 C1500 1.386 . S
C1504 C1499 1.490 . S
C1504 C1506 1.395 . S
C1504 C1507 1.403 . S
H1505 C1511 0.930 . S
C1506 H1492 0.930 . S
C1506 C1504 1.395 . S
C1506 C1509 1.403 . S
C1507 C1504 1.403 . S
C1507 C1508 1.524 . S
C1507 C1511 1.400 . S
C1508 H1493 0.960 . S
C1508 H1494 0.960 . S
C1508 H1495 0.960 . S
C1508 C1507 1.524 . S
C1509 C1506 1.403 . S
C1509 C1510 1.392 . S
C1509 C1513 1.495 . S
C1510 C1509 1.392 . S
C1510 C1511 1.385 . S
C1510 C1512 1.478 . S
C1511 H1505 0.930 . S
C1511 C1507 1.400 . S
C1511 C1510 1.385 . S
C1512 C1510 1.478 . S
C1512 C1514 1.381 . S
C1512 C1518 1.383 . S
C1513 C1509 1.495 . S
C1513 H1519 0.959 . S
C1513 H1520 0.961 . S
C1513 H1521 0.960 . S
C1514 C1512 1.381 . S
C1514 C1515 1.394 . S
C1514 H1522 0.930 . S
C1515 C1514 1.394 . S
C1515 C1516 1.383 . S
C1515 H1523 0.929 . S
C1516 C1515 1.383 . S
C1516 C1517 1.377 . S
C1517 H1501 0.930 . S
C1517 C1516 1.377 . S
C1517 C1518 1.379 . S
C1518 H1502 0.931 . S
C1518 C1512 1.383 . S
C1518 C1517 1.379 . S
H1519 C1513 0.959 . S
H1520 C1513 0.961 . S
H1521 C1513 0.960 . S
H1522 C1514 0.930 . S
H1523 C1515 0.929 . S
H1524 C1532 0.929 . S
H1525 C1534 0.930 . S
H1526 C1536 0.930 . S
H1527 C1539 0.929 . S
H1528 C1542 0.930 . S
H1529 C1544 0.960 . S
H1530 C1544 0.960 . S
H1531 C1544 0.960 . S
C1532 H1524 0.929 . S
C1532 C1533 1.377 . S
C1532 C1534 1.384 . S
C1533 C1532 1.377 . S
C1533 C1539 1.390 . S
C1534 H1525 0.930 . S
C1534 C1532 1.384 . S
C1534 C1535 1.372 . S
C1535 C1534 1.372 . S
C1535 C1536 1.400 . S
C1535 C1540 1.490 . S
C1536 H1526 0.930 . S
C1536 C1535 1.400 . S
C1536 C1539 1.386 . S
H1537 C1553 0.930 . S
H1538 C1554 0.931 . S
C1539 H1527 0.929 . S
C1539 C1533 1.390 . S
C1539 C1536 1.386 . S
C1540 C1535 1.490 . S
C1540 C1542 1.395 . S
C1540 C1543 1.403 . S
H1541 C1547 0.930 . S
C1542 H1528 0.930 . S
C1542 C1540 1.395 . S
C1542 C1545 1.403 . S
C1543 C1540 1.403 . S
C1543 C1544 1.524 . S
C1543 C1547 1.400 . S
C1544 H1529 0.960 . S
C1544 H1530 0.960 . S
C1544 H1531 0.960 . S
C1544 C1543 1.524 . S
C1545 C1542 1.403 . S
C1545 C1546 1.392 . S
C1545 C1549 1.495 . S
C1546 C1545 1.392 . S
C1546 C1547 1.385 . S
C1546 C1548 1.478 . S
C1547 H1541 0.930 . S
C1547 C1543 1.400 . S
C1547 C1546 1.385 . S
C1548 C1546 1.478 . S
C1548 C1550 1.381 . S
C1548 C1554 1.383 . S
C1549 C1545 1.495 . S
C1549 H1555 0.959 . S
C1549 H1556 0.961 . S
C1549 H1557 0.960 . S
C1550 C1548 1.381 . S
C1550 C1551 1.394 . S
C1550 H1558 0.930 . S
C1551 C1550 1.394 . S
C1551 C1552 1.383 . S
C1551 H1559 0.929 . S
C1552 C1551 1.383 . S
C1552 C1553 1.377 . S
C1553 H1537 0.930 . S
C1553 C1552 1.377 . S
C1553 C1554 1.379 . S
C1554 H1538 0.931 . S
C1554 C1548 1.383 . S
C1554 C1553 1.379 . S
H1555 C1549 0.959 . S
H1556 C1549 0.961 . S
H1557 C1549 0.960 . S
H1558 C1550 0.930 . S
H1559 C1551 0.929 . S
H1560 C1568 0.929 . S
H1561 C1570 0.930 . S
H1562 C1572 0.930 . S
H1563 C1575 0.929 . S
H1564 C1578 0.930 . S
H1565 C1580 0.960 . S
H1566 C1580 0.960 . S
H1567 C1580 0.960 . S
C1568 H1560 0.929 . S
C1568 C1569 1.377 . S
C1568 C1570 1.384 . S
C1569 C1568 1.377 . S
C1569 C1575 1.390 . S
C1570 H1561 0.930 . S
C1570 C1568 1.384 . S
C1570 C1571 1.372 . S
C1571 C1570 1.372 . S
C1571 C1572 1.400 . S
C1571 C1576 1.490 . S
C1572 H1562 0.930 . S
C1572 C1571 1.400 . S
C1572 C1575 1.386 . S
H1573 C1589 0.930 . S
H1574 C1590 0.931 . S
C1575 H1563 0.929 . S
C1575 C1569 1.390 . S
C1575 C1572 1.386 . S
C1576 C1571 1.490 . S
C1576 C1578 1.395 . S
C1576 C1579 1.403 . S
H1577 C1583 0.930 . S
C1578 H1564 0.930 . S
C1578 C1576 1.395 . S
C1578 C1581 1.403 . S
C1579 C1576 1.403 . S
C1579 C1580 1.524 . S
C1579 C1583 1.400 . S
C1580 H1565 0.960 . S
C1580 H1566 0.960 . S
C1580 H1567 0.960 . S
C1580 C1579 1.524 . S
C1581 C1578 1.403 . S
C1581 C1582 1.392 . S
C1581 C1585 1.495 . S
C1582 C1581 1.392 . S
C1582 C1583 1.385 . S
C1582 C1584 1.478 . S
C1583 H1577 0.930 . S
C1583 C1579 1.400 . S
C1583 C1582 1.385 . S
C1584 C1582 1.478 . S
C1584 C1586 1.381 . S
C1584 C1590 1.383 . S
C1585 C1581 1.495 . S
C1585 H1591 0.959 . S
C1585 H1592 0.961 . S
C1585 H1593 0.960 . S
C1586 C1584 1.381 . S
C1586 C1587 1.394 . S
C1586 H1594 0.930 . S
C1587 C1586 1.394 . S
C1587 C1588 1.383 . S
C1587 H1595 0.929 . S
C1588 C1587 1.383 . S
C1588 C1589 1.377 . S
C1589 H1573 0.930 . S
C1589 C1588 1.377 . S
C1589 C1590 1.379 . S
C1590 H1574 0.931 . S
C1590 C1584 1.383 . S
C1590 C1589 1.379 . S
H1591 C1585 0.959 . S
H1592 C1585 0.961 . S
H1593 C1585 0.960 . S
H1594 C1586 0.930 . S
H1595 C1587 0.929 . S
H1596 C1604 0.929 . S
H1597 C1606 0.930 . S
H1598 C1608 0.930 . S
H1599 C1611 0.929 . S
H1600 C1614 0.930 . S
H1601 C1616 0.960 . S
H1602 C1616 0.960 . S
H1603 C1616 0.960 . S
C1604 H1596 0.929 . S
C1604 C1605 1.377 . S
C1604 C1606 1.384 . S
C1605 C1604 1.377 . S
C1605 C1611 1.390 . S
C1606 H1597 0.930 . S
C1606 C1604 1.384 . S
C1606 C1607 1.372 . S
C1607 C1606 1.372 . S
C1607 C1608 1.400 . S
C1607 C1612 1.490 . S
C1608 H1598 0.930 . S
C1608 C1607 1.400 . S
C1608 C1611 1.386 . S
H1609 C1625 0.930 . S
H1610 C1626 0.931 . S
C1611 H1599 0.929 . S
C1611 C1605 1.390 . S
C1611 C1608 1.386 . S
C1612 C1607 1.490 . S
C1612 C1614 1.395 . S
C1612 C1615 1.403 . S
H1613 C1619 0.930 . S
C1614 H1600 0.930 . S
C1614 C1612 1.395 . S
C1614 C1617 1.403 . S
C1615 C1612 1.403 . S
C1615 C1616 1.524 . S
C1615 C1619 1.400 . S
C1616 H1601 0.960 . S
C1616 H1602 0.960 . S
C1616 H1603 0.960 . S
C1616 C1615 1.524 . S
C1617 C1614 1.403 . S
C1617 C1618 1.392 . S
C1617 C1621 1.495 . S
C1618 C1617 1.392 . S
C1618 C1619 1.385 . S
C1618 C1620 1.478 . S
C1619 H1613 0.930 . S
C1619 C1615 1.400 . S
C1619 C1618 1.385 . S
C1620 C1618 1.478 . S
C1620 C1622 1.381 . S
C1620 C1626 1.383 . S
C1621 C1617 1.495 . S
C1621 H1627 0.959 . S
C1621 H1628 0.961 . S
C1621 H1629 0.960 . S
C1622 C1620 1.381 . S
C1622 C1623 1.394 . S
C1622 H1630 0.930 . S
C1623 C1622 1.394 . S
C1623 C1624 1.383 . S
C1623 H1631 0.929 . S
C1624 C1623 1.383 . S
C1624 C1625 1.377 . S
C1625 H1609 0.930 . S
C1625 C1624 1.377 . S
C1625 C1626 1.379 . S
C1626 H1610 0.931 . S
C1626 C1620 1.383 . S
C1626 C1625 1.379 . S
H1627 C1621 0.959 . S
H1628 C1621 0.961 . S
H1629 C1621 0.960 . S
H1630 C1622 0.930 . S
H1631 C1623 0.929 . S
H1632 C1640 0.929 . S
H1633 C1642 0.930 . S
H1634 C1644 0.930 . S
H1635 C1647 0.929 . S
H1636 C1650 0.930 . S
H1637 C1652 0.960 . S
H1638 C1652 0.960 . S
H1639 C1652 0.960 . S
C1640 H1632 0.929 . S
C1640 C1641 1.377 . S
C1640 C1642 1.384 . S
C1641 C1640 1.377 . S
C1641 C1647 1.390 . S
C1642 H1633 0.930 . S
C1642 C1640 1.384 . S
C1642 C1643 1.372 . S
C1643 C1642 1.372 . S
C1643 C1644 1.400 . S
C1643 C1648 1.490 . S
C1644 H1634 0.930 . S
C1644 C1643 1.400 . S
C1644 C1647 1.386 . S
H1645 C1661 0.930 . S
H1646 C1662 0.931 . S
C1647 H1635 0.929 . S
C1647 C1641 1.390 . S
C1647 C1644 1.386 . S
C1648 C1643 1.490 . S
C1648 C1650 1.395 . S
C1648 C1651 1.403 . S
H1649 C1655 0.930 . S
C1650 H1636 0.930 . S
C1650 C1648 1.395 . S
C1650 C1653 1.403 . S
C1651 C1648 1.403 . S
C1651 C1652 1.524 . S
C1651 C1655 1.400 . S
C1652 H1637 0.960 . S
C1652 H1638 0.960 . S
C1652 H1639 0.960 . S
C1652 C1651 1.524 . S
C1653 C1650 1.403 . S
C1653 C1654 1.392 . S
C1653 C1657 1.495 . S
C1654 C1653 1.392 . S
C1654 C1655 1.385 . S
C1654 C1656 1.478 . S
C1655 H1649 0.930 . S
C1655 C1651 1.400 . S
C1655 C1654 1.385 . S
C1656 C1654 1.478 . S
C1656 C1658 1.381 . S
C1656 C1662 1.383 1_545 S
C1657 C1653 1.495 . S
C1657 H1663 0.959 . S
C1657 H1664 0.961 . S
C1657 H1665 0.960 . S
C1658 C1656 1.381 . S
C1658 C1659 1.394 . S
C1658 H1666 0.930 . S
C1659 C1658 1.394 . S
C1659 C1660 1.383 . S
C1659 H1667 0.929 . S
C1660 C1659 1.383 . S
C1660 C1661 1.377 1_545 S
C1661 H1645 0.930 . S
C1661 C1660 1.377 1_565 S
C1661 C1662 1.379 . S
C1662 H1646 0.931 . S
C1662 C1656 1.383 1_565 S
C1662 C1661 1.379 . S
H1663 C1657 0.959 . S
H1664 C1657 0.961 . S
H1665 C1657 0.960 . S
H1666 C1658 0.930 . S
H1667 C1659 0.929 . S
H1668 C1676 0.929 . S
H1669 C1678 0.930 . S
H1670 C1680 0.930 . S
H1671 C1683 0.929 . S
H1672 C1686 0.930 . S
H1673 C1688 0.960 . S
H1674 C1688 0.960 . S
H1675 C1688 0.960 . S
C1676 H1668 0.929 . S
C1676 C1677 1.377 . S
C1676 C1678 1.384 . S
C1677 C1676 1.377 . S
C1677 C1683 1.390 . S
C1678 H1669 0.930 . S
C1678 C1676 1.384 . S
C1678 C1679 1.372 . S
C1679 C1678 1.372 . S
C1679 C1680 1.400 . S
C1679 C1684 1.490 . S
C1680 H1670 0.930 . S
C1680 C1679 1.400 . S
C1680 C1683 1.386 . S
H1681 C1697 0.930 . S
H1682 C1698 0.931 . S
C1683 H1671 0.929 . S
C1683 C1677 1.390 . S
C1683 C1680 1.386 . S
C1684 C1679 1.490 . S
C1684 C1686 1.395 . S
C1684 C1687 1.403 . S
H1685 C1691 0.930 . S
C1686 H1672 0.930 . S
C1686 C1684 1.395 . S
C1686 C1689 1.403 . S
C1687 C1684 1.403 . S
C1687 C1688 1.524 . S
C1687 C1691 1.400 . S
C1688 H1673 0.960 . S
C1688 H1674 0.960 . S
C1688 H1675 0.960 . S
C1688 C1687 1.524 . S
C1689 C1686 1.403 . S
C1689 C1690 1.392 . S
C1689 C1693 1.495 . S
C1690 C1689 1.392 . S
C1690 C1691 1.385 . S
C1690 C1692 1.478 . S
C1691 H1685 0.930 . S
C1691 C1687 1.400 . S
C1691 C1690 1.385 . S
C1692 C1690 1.478 . S
C1692 C1694 1.381 . S
C1692 C1698 1.383 . S
C1693 C1689 1.495 . S
C1693 H1699 0.959 . S
C1693 H1700 0.961 . S
C1693 H1701 0.960 . S
C1694 C1692 1.381 . S
C1694 C1695 1.394 . S
C1694 H1702 0.930 . S
C1695 C1694 1.394 . S
C1695 C1696 1.383 . S
C1695 H1703 0.929 . S
C1696 C1695 1.383 . S
C1696 C1697 1.377 . S
C1697 H1681 0.930 . S
C1697 C1696 1.377 . S
C1697 C1698 1.379 . S
C1698 H1682 0.931 . S
C1698 C1692 1.383 . S
C1698 C1697 1.379 . S
H1699 C1693 0.959 . S
H1700 C1693 0.961 . S
H1701 C1693 0.960 . S
H1702 C1694 0.930 . S
H1703 C1695 0.929 . S
H1704 C1712 0.929 . S
H1705 C1714 0.930 . S
H1706 C1716 0.930 . S
H1707 C1719 0.929 . S
H1708 C1722 0.930 . S
H1709 C1724 0.960 . S
H1710 C1724 0.960 . S
H1711 C1724 0.960 . S
C1712 H1704 0.929 . S
C1712 C1713 1.377 . S
C1712 C1714 1.384 . S
C1713 C1712 1.377 . S
C1713 C1719 1.390 . S
C1714 H1705 0.930 . S
C1714 C1712 1.384 . S
C1714 C1715 1.372 . S
C1715 C1714 1.372 . S
C1715 C1716 1.400 . S
C1715 C1720 1.490 . S
C1716 H1706 0.930 . S
C1716 C1715 1.400 . S
C1716 C1719 1.386 . S
H1717 C1733 0.930 . S
H1718 C1734 0.931 . S
C1719 H1707 0.929 . S
C1719 C1713 1.390 . S
C1719 C1716 1.386 . S
C1720 C1715 1.490 . S
C1720 C1722 1.395 . S
C1720 C1723 1.403 . S
H1721 C1727 0.930 . S
C1722 H1708 0.930 . S
C1722 C1720 1.395 . S
C1722 C1725 1.403 . S
C1723 C1720 1.403 . S
C1723 C1724 1.524 . S
C1723 C1727 1.400 . S
C1724 H1709 0.960 . S
C1724 H1710 0.960 . S
C1724 H1711 0.960 . S
C1724 C1723 1.524 . S
C1725 C1722 1.403 . S
C1725 C1726 1.392 . S
C1725 C1729 1.495 . S
C1726 C1725 1.392 . S
C1726 C1727 1.385 . S
C1726 C1728 1.478 . S
C1727 H1721 0.930 . S
C1727 C1723 1.400 . S
C1727 C1726 1.385 . S
C1728 C1726 1.478 . S
C1728 C1730 1.381 . S
C1728 C1734 1.383 . S
C1729 C1725 1.495 . S
C1729 H1735 0.959 . S
C1729 H1736 0.961 . S
C1729 H1737 0.960 . S
C1730 C1728 1.381 . S
C1730 C1731 1.394 . S
C1730 H1738 0.930 . S
C1731 C1730 1.394 . S
C1731 C1732 1.383 . S
C1731 H1739 0.929 . S
C1732 C1731 1.383 . S
C1732 C1733 1.377 . S
C1733 H1717 0.930 . S
C1733 C1732 1.377 . S
C1733 C1734 1.379 . S
C1734 H1718 0.931 . S
C1734 C1728 1.383 . S
C1734 C1733 1.379 . S
H1735 C1729 0.959 . S
H1736 C1729 0.961 . S
H1737 C1729 0.960 . S
H1738 C1730 0.930 . S
H1739 C1731 0.929 . S
H1740 C1748 0.929 . S
H1741 C1750 0.930 . S
H1742 C1752 0.930 . S
H1743 C1755 0.929 . S
H1744 C1758 0.930 . S
H1745 C1760 0.960 . S
H1746 C1760 0.960 . S
H1747 C1760 0.960 . S
C1748 H1740 0.929 . S
C1748 C1749 1.377 . S
C1748 C1750 1.384 . S
C1749 C1748 1.377 . S
C1749 C1755 1.390 . S
C1750 H1741 0.930 . S
C1750 C1748 1.384 . S
C1750 C1751 1.372 . S
C1751 C1750 1.372 . S
C1751 C1752 1.400 . S
C1751 C1756 1.490 . S
C1752 H1742 0.930 . S
C1752 C1751 1.400 . S
C1752 C1755 1.386 . S
H1753 C1769 0.930 . S
H1754 C1770 0.931 . S
C1755 H1743 0.929 . S
C1755 C1749 1.390 . S
C1755 C1752 1.386 . S
C1756 C1751 1.490 . S
C1756 C1758 1.395 . S
C1756 C1759 1.403 . S
H1757 C1763 0.930 . S
C1758 H1744 0.930 . S
C1758 C1756 1.395 . S
C1758 C1761 1.403 . S
C1759 C1756 1.403 . S
C1759 C1760 1.524 . S
C1759 C1763 1.400 . S
C1760 H1745 0.960 . S
C1760 H1746 0.960 . S
C1760 H1747 0.960 . S
C1760 C1759 1.524 . S
C1761 C1758 1.403 . S
C1761 C1762 1.392 . S
C1761 C1765 1.495 . S
C1762 C1761 1.392 . S
C1762 C1763 1.385 . S
C1762 C1764 1.478 . S
C1763 H1757 0.930 . S
C1763 C1759 1.400 . S
C1763 C1762 1.385 . S
C1764 C1762 1.478 . S
C1764 C1766 1.381 . S
C1764 C1770 1.383 . S
C1765 C1761 1.495 . S
C1765 H1771 0.959 . S
C1765 H1772 0.961 . S
C1765 H1773 0.960 . S
C1766 C1764 1.381 . S
C1766 C1767 1.394 . S
C1766 H1774 0.930 . S
C1767 C1766 1.394 . S
C1767 C1768 1.383 . S
C1767 H1775 0.929 . S
C1768 C1767 1.383 . S
C1768 C1769 1.377 . S
C1769 H1753 0.930 . S
C1769 C1768 1.377 . S
C1769 C1770 1.379 . S
C1770 H1754 0.931 . S
C1770 C1764 1.383 . S
C1770 C1769 1.379 . S
H1771 C1765 0.959 . S
H1772 C1765 0.961 . S
H1773 C1765 0.960 . S
H1774 C1766 0.930 . S
H1775 C1767 0.929 . S
H1776 C1784 0.929 . S
H1777 C1786 0.930 . S
H1778 C1788 0.930 . S
H1779 C1791 0.929 . S
H1780 C1794 0.930 . S
H1781 C1796 0.960 . S
H1782 C1796 0.960 . S
H1783 C1796 0.960 . S
C1784 H1776 0.929 . S
C1784 C1785 1.377 . S
C1784 C1786 1.384 . S
C1785 C1784 1.377 . S
C1785 C1791 1.390 . S
C1786 H1777 0.930 . S
C1786 C1784 1.384 . S
C1786 C1787 1.372 . S
C1787 C1786 1.372 . S
C1787 C1788 1.400 . S
C1787 C1792 1.490 . S
C1788 H1778 0.930 . S
C1788 C1787 1.400 . S
C1788 C1791 1.386 . S
H1789 C1805 0.930 . S
H1790 C1806 0.931 . S
C1791 H1779 0.929 . S
C1791 C1785 1.390 . S
C1791 C1788 1.386 . S
C1792 C1787 1.490 . S
C1792 C1794 1.395 . S
C1792 C1795 1.403 . S
H1793 C1799 0.930 . S
C1794 H1780 0.930 . S
C1794 C1792 1.395 . S
C1794 C1797 1.403 . S
C1795 C1792 1.403 . S
C1795 C1796 1.524 . S
C1795 C1799 1.400 . S
C1796 H1781 0.960 . S
C1796 H1782 0.960 . S
C1796 H1783 0.960 . S
C1796 C1795 1.524 . S
C1797 C1794 1.403 . S
C1797 C1798 1.392 . S
C1797 C1801 1.495 1_545 S
C1798 C1797 1.392 . S
C1798 C1799 1.385 . S
C1798 C1800 1.478 . S
C1799 H1793 0.930 . S
C1799 C1795 1.400 . S
C1799 C1798 1.385 . S
C1800 C1798 1.478 . S
C1800 C1802 1.381 . S
C1800 C1806 1.383 . S
C1801 C1797 1.495 1_565 S
C1801 H1807 0.959 . S
C1801 H1808 0.961 . S
C1801 H1809 0.960 . S
C1802 C1800 1.381 . S
C1802 C1803 1.394 . S
C1802 H1810 0.930 . S
C1803 C1802 1.394 . S
C1803 C1804 1.383 . S
C1803 H1811 0.929 . S
C1804 C1803 1.383 . S
C1804 C1805 1.377 . S
C1805 H1789 0.930 . S
C1805 C1804 1.377 . S
C1805 C1806 1.379 . S
C1806 H1790 0.931 . S
C1806 C1800 1.383 . S
C1806 C1805 1.379 . S
H1807 C1801 0.959 . S
H1808 C1801 0.961 . S
H1809 C1801 0.960 . S
H1810 C1802 0.930 . S
H1811 C1803 0.929 . S
H1812 C1820 0.929 . S
H1813 C1822 0.930 . S
H1814 C1824 0.930 . S
H1815 C1827 0.929 . S
H1816 C1830 0.930 . S
H1817 C1832 0.960 . S
H1818 C1832 0.960 . S
H1819 C1832 0.960 . S
C1820 H1812 0.929 . S
C1820 C1821 1.377 . S
C1820 C1822 1.384 . S
C1821 C1820 1.377 . S
C1821 C1827 1.390 . S
C1822 H1813 0.930 . S
C1822 C1820 1.384 . S
C1822 C1823 1.372 . S
C1823 C1822 1.372 . S
C1823 C1824 1.400 . S
C1823 C1828 1.490 . S
C1824 H1814 0.930 . S
C1824 C1823 1.400 . S
C1824 C1827 1.386 . S
H1825 C1841 0.930 . S
H1826 C1842 0.931 . S
C1827 H1815 0.929 . S
C1827 C1821 1.390 . S
C1827 C1824 1.386 . S
C1828 C1823 1.490 . S
C1828 C1830 1.395 . S
C1828 C1831 1.403 . S
H1829 C1835 0.930 . S
C1830 H1816 0.930 . S
C1830 C1828 1.395 . S
C1830 C1833 1.403 . S
C1831 C1828 1.403 . S
C1831 C1832 1.524 . S
C1831 C1835 1.400 . S
C1832 H1817 0.960 . S
C1832 H1818 0.960 . S
C1832 H1819 0.960 . S
C1832 C1831 1.524 . S
C1833 C1830 1.403 . S
C1833 C1834 1.392 . S
C1833 C1837 1.495 . S
C1834 C1833 1.392 . S
C1834 C1835 1.385 . S
C1834 C1836 1.478 . S
C1835 H1829 0.930 . S
C1835 C1831 1.400 . S
C1835 C1834 1.385 . S
C1836 C1834 1.478 . S
C1836 C1838 1.381 . S
C1836 C1842 1.383 . S
C1837 C1833 1.495 . S
C1837 H1843 0.959 . S
C1837 H1844 0.961 . S
C1837 H1845 0.960 . S
C1838 C1836 1.381 . S
C1838 C1839 1.394 . S
C1838 H1846 0.930 . S
C1839 C1838 1.394 . S
C1839 C1840 1.383 . S
C1839 H1847 0.929 . S
C1840 C1839 1.383 . S
C1840 C1841 1.377 . S
C1841 H1825 0.930 . S
C1841 C1840 1.377 . S
C1841 C1842 1.379 . S
C1842 H1826 0.931 . S
C1842 C1836 1.383 . S
C1842 C1841 1.379 . S
H1843 C1837 0.959 . S
H1844 C1837 0.961 . S
H1845 C1837 0.960 . S
H1846 C1838 0.930 . S
H1847 C1839 0.929 . S
H1848 C1856 0.929 . S
H1849 C1858 0.930 . S
H1850 C1860 0.930 . S
H1851 C1863 0.929 . S
H1852 C1866 0.930 . S
H1853 C1868 0.960 . S
H1854 C1868 0.960 . S
H1855 C1868 0.960 . S
C1856 H1848 0.929 . S
C1856 C1857 1.377 . S
C1856 C1858 1.384 . S
C1857 C1856 1.377 . S
C1857 C1863 1.390 . S
C1858 H1849 0.930 . S
C1858 C1856 1.384 . S
C1858 C1859 1.372 . S
C1859 C1858 1.372 . S
C1859 C1860 1.400 . S
C1859 C1864 1.490 . S
C1860 H1850 0.930 . S
C1860 C1859 1.400 . S
C1860 C1863 1.386 . S
H1861 C1877 0.930 . S
H1862 C1878 0.931 . S
C1863 H1851 0.929 . S
C1863 C1857 1.390 . S
C1863 C1860 1.386 . S
C1864 C1859 1.490 . S
C1864 C1866 1.395 . S
C1864 C1867 1.403 . S
H1865 C1871 0.930 . S
C1866 H1852 0.930 . S
C1866 C1864 1.395 . S
C1866 C1869 1.403 . S
C1867 C1864 1.403 . S
C1867 C1868 1.524 . S
C1867 C1871 1.400 . S
C1868 H1853 0.960 . S
C1868 H1854 0.960 . S
C1868 H1855 0.960 . S
C1868 C1867 1.524 . S
C1869 C1866 1.403 . S
C1869 C1870 1.392 . S
C1869 C1873 1.495 . S
C1870 C1869 1.392 . S
C1870 C1871 1.385 . S
C1870 C1872 1.478 . S
C1871 H1865 0.930 . S
C1871 C1867 1.400 . S
C1871 C1870 1.385 . S
C1872 C1870 1.478 . S
C1872 C1874 1.381 . S
C1872 C1878 1.383 . S
C1873 C1869 1.495 . S
C1873 H1879 0.959 . S
C1873 H1880 0.961 . S
C1873 H1881 0.960 . S
C1874 C1872 1.381 . S
C1874 C1875 1.394 . S
C1874 H1882 0.930 . S
C1875 C1874 1.394 . S
C1875 C1876 1.383 . S
C1875 H1883 0.929 . S
C1876 C1875 1.383 . S
C1876 C1877 1.377 . S
C1877 H1861 0.930 . S
C1877 C1876 1.377 . S
C1877 C1878 1.379 . S
C1878 H1862 0.931 . S
C1878 C1872 1.383 . S
C1878 C1877 1.379 . S
H1879 C1873 0.959 . S
H1880 C1873 0.961 . S
H1881 C1873 0.960 . S
H1882 C1874 0.930 . S
H1883 C1875 0.929 . S
H1884 C1892 0.929 . S
H1885 C1894 0.930 . S
H1886 C1896 0.930 . S
H1887 C1899 0.929 . S
H1888 C1902 0.930 . S
H1889 C1904 0.960 . S
H1890 C1904 0.960 . S
H1891 C1904 0.960 . S
C1892 H1884 0.929 . S
C1892 C1893 1.377 . S
C1892 C1894 1.384 . S
C1893 C1892 1.377 . S
C1893 C1899 1.390 . S
C1894 H1885 0.930 . S
C1894 C1892 1.384 . S
C1894 C1895 1.372 . S
C1895 C1894 1.372 . S
C1895 C1896 1.400 . S
C1895 C1900 1.490 . S
C1896 H1886 0.930 . S
C1896 C1895 1.400 . S
C1896 C1899 1.386 . S
H1897 C1913 0.930 . S
H1898 C1914 0.931 . S
C1899 H1887 0.929 . S
C1899 C1893 1.390 . S
C1899 C1896 1.386 . S
C1900 C1895 1.490 . S
C1900 C1902 1.395 . S
C1900 C1903 1.403 . S
H1901 C1907 0.930 . S
C1902 H1888 0.930 . S
C1902 C1900 1.395 . S
C1902 C1905 1.403 . S
C1903 C1900 1.403 . S
C1903 C1904 1.524 . S
C1903 C1907 1.400 . S
C1904 H1889 0.960 . S
C1904 H1890 0.960 . S
C1904 H1891 0.960 . S
C1904 C1903 1.524 . S
C1905 C1902 1.403 . S
C1905 C1906 1.392 . S
C1905 C1909 1.495 . S
C1906 C1905 1.392 . S
C1906 C1907 1.385 . S
C1906 C1908 1.478 . S
C1907 H1901 0.930 . S
C1907 C1903 1.400 . S
C1907 C1906 1.385 . S
C1908 C1906 1.478 . S
C1908 C1910 1.381 . S
C1908 C1914 1.383 . S
C1909 C1905 1.495 . S
C1909 H1915 0.959 . S
C1909 H1916 0.961 . S
C1909 H1917 0.960 . S
C1910 C1908 1.381 . S
C1910 C1911 1.394 . S
C1910 H1918 0.930 . S
C1911 C1910 1.394 . S
C1911 C1912 1.383 . S
C1911 H1919 0.929 . S
C1912 C1911 1.383 . S
C1912 C1913 1.377 . S
C1913 H1897 0.930 . S
C1913 C1912 1.377 . S
C1913 C1914 1.379 . S
C1914 H1898 0.931 . S
C1914 C1908 1.383 . S
C1914 C1913 1.379 . S
H1915 C1909 0.959 . S
H1916 C1909 0.961 . S
H1917 C1909 0.960 . S
H1918 C1910 0.930 . S
H1919 C1911 0.929 . S
H1920 C1928 0.929 . S
H1921 C1930 0.930 . S
H1922 C1932 0.930 . S
H1923 C1935 0.929 . S
H1924 C1938 0.930 . S
H1925 C1940 0.960 . S
H1926 C1940 0.960 . S
H1927 C1940 0.960 . S
C1928 H1920 0.929 . S
C1928 C1929 1.377 . S
C1928 C1930 1.384 . S
C1929 C1928 1.377 . S
C1929 C1935 1.390 . S
C1930 H1921 0.930 . S
C1930 C1928 1.384 . S
C1930 C1931 1.372 . S
C1931 C1930 1.372 . S
C1931 C1932 1.400 . S
C1931 C1936 1.490 . S
C1932 H1922 0.930 . S
C1932 C1931 1.400 . S
C1932 C1935 1.386 . S
H1933 C1949 0.930 . S
H1934 C1950 0.931 1_455 S
C1935 H1923 0.929 . S
C1935 C1929 1.390 . S
C1935 C1932 1.386 . S
C1936 C1931 1.490 . S
C1936 C1938 1.395 . S
C1936 C1939 1.403 . S
H1937 C1943 0.883 1_455 S
C1938 H1924 0.930 . S
C1938 C1936 1.395 . S
C1938 C1941 1.403 . S
C1939 C1936 1.403 . S
C1939 C1940 1.524 1_655 S
C1939 C1943 1.405 . S
C1940 H1925 0.960 . S
C1940 H1926 0.960 . S
C1940 H1927 0.960 . S
C1940 C1939 1.524 1_455 S
C1941 C1938 1.403 . S
C1941 C1942 1.392 . S
C1941 C1945 1.495 . S
C1942 C1941 1.392 . S
C1942 C1943 1.427 . S
C1942 C1944 1.478 . S
C1943 H1937 0.883 1_655 S
C1943 C1939 1.405 . S
C1943 C1942 1.427 . S
C1944 C1942 1.478 . S
C1944 C1946 1.381 . S
C1944 C1950 1.383 . S
C1945 C1941 1.495 . S
C1945 H1951 0.959 . S
C1945 H1952 0.961 . S
C1945 H1953 0.960 . S
C1946 C1944 1.381 . S
C1946 C1947 1.394 . S
C1946 H1954 0.930 . S
C1947 C1946 1.394 . S
C1947 C1948 1.383 . S
C1947 H1955 0.929 . S
C1948 C1947 1.383 . S
C1948 C1949 1.377 1_655 S
C1949 H1933 0.930 . S
C1949 C1948 1.377 1_455 S
C1949 C1950 1.379 1_455 S
C1950 H1934 0.931 1_655 S
C1950 C1944 1.383 . S
C1950 C1949 1.379 1_655 S
H1951 C1945 0.959 . S
H1952 C1945 0.961 . S
H1953 C1945 0.960 . S
H1954 C1946 0.930 . S
H1955 C1947 0.929 . S
H1956 C1964 0.929 . S
H1957 C1966 0.930 . S
H1958 C1968 0.930 . S
H1959 C1971 0.929 . S
H1960 C1974 0.930 . S
H1961 C1976 0.960 . S
H1962 C1976 0.960 . S
H1963 C1976 0.960 . S
C1964 H1956 0.929 . S
C1964 C1965 1.377 . S
C1964 C1966 1.384 . S
C1965 C1964 1.377 . S
C1965 C1971 1.390 . S
C1966 H1957 0.930 . S
C1966 C1964 1.384 . S
C1966 C1967 1.372 . S
C1967 C1966 1.372 . S
C1967 C1968 1.400 . S
C1967 C1972 1.490 . S
C1968 H1958 0.930 . S
C1968 C1967 1.400 . S
C1968 C1971 1.386 . S
H1969 C1985 0.930 . S
H1970 C1986 0.931 . S
C1971 H1959 0.929 . S
C1971 C1965 1.390 . S
C1971 C1968 1.386 . S
C1972 C1967 1.490 . S
C1972 C1974 1.395 . S
C1972 C1975 1.403 . S
H1973 C1979 0.930 . S
C1974 H1960 0.930 . S
C1974 C1972 1.395 . S
C1974 C1977 1.403 . S
C1975 C1972 1.403 . S
C1975 C1976 1.524 . S
C1975 C1979 1.400 . S
C1976 H1961 0.960 . S
C1976 H1962 0.960 . S
C1976 H1963 0.960 . S
C1976 C1975 1.524 . S
C1977 C1974 1.403 . S
C1977 C1978 1.392 . S
C1977 C1981 1.495 . S
C1978 C1977 1.392 . S
C1978 C1979 1.385 . S
C1978 C1980 1.478 . S
C1979 H1973 0.930 . S
C1979 C1975 1.400 . S
C1979 C1978 1.385 . S
C1980 C1978 1.478 . S
C1980 C1982 1.381 . S
C1980 C1986 1.383 . S
C1981 C1977 1.495 . S
C1981 H1987 0.959 . S
C1981 H1988 0.961 . S
C1981 H1989 0.960 . S
C1982 C1980 1.381 . S
C1982 C1983 1.394 . S
C1982 H1990 0.930 . S
C1983 C1982 1.394 . S
C1983 C1984 1.383 . S
C1983 H1991 0.929 . S
C1984 C1983 1.383 . S
C1984 C1985 1.377 . S
C1985 H1969 0.930 . S
C1985 C1984 1.377 . S
C1985 C1986 1.379 . S
C1986 H1970 0.931 . S
C1986 C1980 1.383 . S
C1986 C1985 1.379 . S
H1987 C1981 0.959 . S
H1988 C1981 0.961 . S
H1989 C1981 0.960 . S
H1990 C1982 0.930 . S
H1991 C1983 0.929 . S
H1992 C2000 0.929 . S
H1993 C2002 0.930 . S
H1994 C2004 0.930 . S
H1995 C2007 0.929 1_554 S
H1996 C2010 0.930 1_655 S
H1997 C2012 0.960 . S
H1998 C2012 0.960 . S
H1999 C2012 0.960 . S
C2000 H1992 0.929 . S
C2000 C2001 1.377 . S
C2000 C2002 1.384 . S
C2001 C2000 1.377 . S
C2001 C2007 1.390 . S
C2002 H1993 0.930 . S
C2002 C2000 1.384 . S
C2002 C2003 1.372 . S
C2003 C2002 1.372 . S
C2003 C2004 1.400 . S
C2003 C2008 1.490 . S
C2004 H1994 0.930 . S
C2004 C2003 1.400 . S
C2004 C2007 1.386 . S
H2005 C2021 0.930 . S
H2006 C2022 0.931 . S
C2007 H1995 0.929 1_556 S
C2007 C2001 1.390 . S
C2007 C2004 1.386 . S
C2008 C2003 1.490 . S
C2008 C2010 1.395 . S
C2008 C2011 1.403 . S
H2009 C2015 0.930 . S
C2010 H1996 0.930 1_455 S
C2010 C2008 1.395 . S
C2010 C2013 1.400 1_455 S
C2011 C2008 1.403 . S
C2011 C2012 1.524 . S
C2011 C2015 1.400 . S
C2012 H1997 0.960 . S
C2012 H1998 0.960 . S
C2012 H1999 0.960 . S
C2012 C2011 1.524 . S
C2013 C2010 1.400 1_655 S
C2013 C2014 1.380 1_655 S
C2013 C2017 1.511 . S
C2014 C2013 1.380 1_455 S
C2014 C2015 1.385 . S
C2014 C2016 1.478 . S
C2015 H2009 0.930 . S
C2015 C2011 1.400 . S
C2015 C2014 1.385 . S
C2016 C2014 1.478 . S
C2016 C2018 1.381 . S
C2016 C2022 1.383 . S
C2017 C2013 1.511 . S
C2017 H2023 0.959 . S
C2017 H2024 0.961 . S
C2017 H2025 0.960 . S
C2018 C2016 1.381 . S
C2018 C2019 1.394 . S
C2018 H2026 0.930 . S
C2019 C2018 1.394 . S
C2019 C2020 1.383 . S
C2019 H2027 0.929 . S
C2020 C2019 1.383 . S
C2020 C2021 1.377 . S
C2021 H2005 0.930 . S
C2021 C2020 1.377 . S
C2021 C2022 1.379 . S
C2022 H2006 0.931 . S
C2022 C2016 1.383 . S
C2022 C2021 1.379 . S
H2023 C2017 0.959 . S
H2024 C2017 0.961 . S
H2025 C2017 0.960 . S
H2026 C2018 0.930 . S
H2027 C2019 0.929 . S
H2028 C2036 0.929 . S
H2029 C2038 0.930 . S
H2030 C2040 0.930 . S
H2031 C2043 0.929 . S
H2032 C2046 0.930 . S
H2033 C2048 0.960 . S
H2034 C2048 0.960 . S
H2035 C2048 0.960 . S
C2036 H2028 0.929 . S
C2036 C2037 1.377 . S
C2036 C2038 1.384 . S
C2037 C2036 1.377 . S
C2037 C2043 1.390 . S
C2038 H2029 0.930 . S
C2038 C2036 1.384 . S
C2038 C2039 1.372 . S
C2039 C2038 1.372 . S
C2039 C2040 1.400 . S
C2039 C2044 1.490 . S
C2040 H2030 0.930 . S
C2040 C2039 1.400 . S
C2040 C2043 1.386 . S
H2041 C2057 0.930 . S
H2042 C2058 0.931 . S
C2043 H2031 0.929 . S
C2043 C2037 1.390 . S
C2043 C2040 1.386 . S
C2044 C2039 1.490 . S
C2044 C2046 1.395 . S
C2044 C2047 1.403 . S
H2045 C2051 0.930 . S
C2046 H2032 0.930 . S
C2046 C2044 1.395 . S
C2046 C2049 1.403 . S
C2047 C2044 1.403 . S
C2047 C2048 1.524 . S
C2047 C2051 1.400 . S
C2048 H2033 0.960 . S
C2048 H2034 0.960 . S
C2048 H2035 0.960 . S
C2048 C2047 1.524 . S
C2049 C2046 1.403 . S
C2049 C2050 1.392 . S
C2049 C2053 1.495 . S
C2050 C2049 1.392 . S
C2050 C2051 1.385 . S
C2050 C2052 1.478 . S
C2051 H2045 0.930 . S
C2051 C2047 1.400 . S
C2051 C2050 1.385 . S
C2052 C2050 1.478 . S
C2052 C2054 1.381 . S
C2052 C2058 1.383 . S
C2053 C2049 1.495 . S
C2053 H2059 0.959 . S
C2053 H2060 0.961 . S
C2053 H2061 0.960 . S
C2054 C2052 1.381 . S
C2054 C2055 1.394 . S
C2054 H2062 0.930 . S
C2055 C2054 1.394 . S
C2055 C2056 1.383 . S
C2055 H2063 0.929 . S
C2056 C2055 1.383 . S
C2056 C2057 1.377 . S
C2057 H2041 0.930 . S
C2057 C2056 1.377 . S
C2057 C2058 1.379 . S
C2058 H2042 0.931 . S
C2058 C2052 1.383 . S
C2058 C2057 1.379 . S
H2059 C2053 0.959 . S
H2060 C2053 0.961 . S
H2061 C2053 0.960 . S
H2062 C2054 0.930 . S
H2063 C2055 0.929 . S
H2064 C2072 0.929 . S
H2065 C2074 0.930 . S
H2066 C2076 0.930 . S
H2067 C2079 0.929 . S
H2068 C2082 0.930 . S
H2069 C2084 0.960 . S
H2070 C2084 0.960 . S
H2071 C2084 0.960 . S
C2072 H2064 0.929 . S
C2072 C2073 1.377 . S
C2072 C2074 1.384 . S
C2073 C2072 1.377 . S
C2073 C2079 1.390 . S
C2074 H2065 0.930 . S
C2074 C2072 1.384 . S
C2074 C2075 1.372 . S
C2075 C2074 1.372 . S
C2075 C2076 1.400 . S
C2075 C2080 1.490 . S
C2076 H2066 0.930 . S
C2076 C2075 1.400 . S
C2076 C2079 1.386 . S
H2077 C2093 0.930 . S
H2078 C2094 0.931 . S
C2079 H2067 0.929 . S
C2079 C2073 1.390 . S
C2079 C2076 1.386 . S
C2080 C2075 1.490 . S
C2080 C2082 1.395 . S
C2080 C2083 1.403 . S
H2081 C2087 0.930 . S
C2082 H2068 0.930 . S
C2082 C2080 1.395 . S
C2082 C2085 1.403 . S
C2083 C2080 1.403 . S
C2083 C2084 1.524 . S
C2083 C2087 1.400 . S
C2084 H2069 0.960 . S
C2084 H2070 0.960 . S
C2084 H2071 0.960 . S
C2084 C2083 1.524 . S
C2085 C2082 1.403 . S
C2085 C2086 1.392 . S
C2085 C2089 1.495 . S
C2086 C2085 1.392 . S
C2086 C2087 1.385 . S
C2086 C2088 1.478 . S
C2087 H2081 0.930 . S
C2087 C2083 1.400 . S
C2087 C2086 1.385 . S
C2088 C2086 1.478 . S
C2088 C2090 1.381 . S
C2088 C2094 1.383 . S
C2089 C2085 1.495 . S
C2089 H2095 0.959 . S
C2089 H2096 0.961 . S
C2089 H2097 0.960 . S
C2090 C2088 1.381 . S
C2090 C2091 1.394 . S
C2090 H2098 0.930 . S
C2091 C2090 1.394 . S
C2091 C2092 1.383 . S
C2091 H2099 0.929 . S
C2092 C2091 1.383 . S
C2092 C2093 1.377 . S
C2093 H2077 0.930 . S
C2093 C2092 1.377 . S
C2093 C2094 1.379 . S
C2094 H2078 0.931 . S
C2094 C2088 1.383 . S
C2094 C2093 1.379 . S
H2095 C2089 0.959 . S
H2096 C2089 0.961 . S
H2097 C2089 0.960 . S
H2098 C2090 0.930 . S
H2099 C2091 0.929 . S
H2100 C2108 0.929 . S
H2101 C2110 0.930 . S
H2102 C2112 0.930 . S
H2103 C2115 0.929 . S
H2104 C2118 0.930 . S
H2105 C2120 0.960 . S
H2106 C2120 0.960 . S
H2107 C2120 0.960 . S
C2108 H2100 0.929 . S
C2108 C2109 1.377 . S
C2108 C2110 1.384 . S
C2109 C2108 1.377 . S
C2109 C2115 1.390 . S
C2110 H2101 0.930 . S
C2110 C2108 1.384 . S
C2110 C2111 1.372 . S
C2111 C2110 1.372 . S
C2111 C2112 1.400 . S
C2111 C2116 1.490 . S
C2112 H2102 0.930 . S
C2112 C2111 1.400 . S
C2112 C2115 1.386 . S
H2113 C2129 0.930 . S
H2114 C2130 0.931 . S
C2115 H2103 0.929 . S
C2115 C2109 1.390 . S
C2115 C2112 1.386 . S
C2116 C2111 1.490 . S
C2116 C2118 1.395 . S
C2116 C2119 1.403 . S
H2117 C2123 0.930 . S
C2118 H2104 0.930 . S
C2118 C2116 1.395 . S
C2118 C2121 1.403 . S
C2119 C2116 1.403 . S
C2119 C2120 1.524 . S
C2119 C2123 1.400 . S
C2120 H2105 0.960 . S
C2120 H2106 0.960 . S
C2120 H2107 0.960 . S
C2120 C2119 1.524 . S
C2121 C2118 1.403 . S
C2121 C2122 1.392 . S
C2121 C2125 1.495 . S
C2122 C2121 1.392 . S
C2122 C2123 1.385 . S
C2122 C2124 1.478 . S
C2123 H2117 0.930 . S
C2123 C2119 1.400 . S
C2123 C2122 1.385 . S
C2124 C2122 1.478 . S
C2124 C2126 1.381 . S
C2124 C2130 1.383 . S
C2125 C2121 1.495 . S
C2125 H2131 0.959 . S
C2125 H2132 0.961 . S
C2125 H2133 0.960 . S
C2126 C2124 1.381 . S
C2126 C2127 1.394 . S
C2126 H2134 0.930 . S
C2127 C2126 1.394 . S
C2127 C2128 1.383 . S
C2127 H2135 0.929 . S
C2128 C2127 1.383 . S
C2128 C2129 1.377 . S
C2129 H2113 0.930 . S
C2129 C2128 1.377 . S
C2129 C2130 1.379 . S
C2130 H2114 0.931 . S
C2130 C2124 1.383 . S
C2130 C2129 1.379 . S
H2131 C2125 0.959 . S
H2132 C2125 0.961 . S
H2133 C2125 0.960 . S
H2134 C2126 0.930 . S
H2135 C2127 0.929 . S
H2136 C2144 0.929 . S
H2137 C2146 0.930 . S
H2138 C2148 0.930 . S
H2139 C2151 0.929 . S
H2140 C2154 0.930 . S
H2141 C2156 0.960 . S
H2142 C2156 0.960 . S
H2143 C2156 0.960 . S
C2144 H2136 0.929 . S
C2144 C2145 1.377 . S
C2144 C2146 1.384 . S
C2145 C2144 1.377 . S
C2145 C2151 1.390 . S
C2146 H2137 0.930 . S
C2146 C2144 1.384 . S
C2146 C2147 1.372 . S
C2147 C2146 1.372 . S
C2147 C2148 1.400 . S
C2147 C2152 1.490 . S
C2148 H2138 0.930 . S
C2148 C2147 1.400 . S
C2148 C2151 1.386 . S
H2149 C2165 0.930 . S
H2150 C2166 0.931 . S
C2151 H2139 0.929 . S
C2151 C2145 1.390 . S
C2151 C2148 1.386 . S
C2152 C2147 1.490 . S
C2152 C2154 1.395 . S
C2152 C2155 1.403 . S
H2153 C2159 0.930 . S
C2154 H2140 0.930 . S
C2154 C2152 1.395 . S
C2154 C2157 1.403 . S
C2155 C2152 1.403 . S
C2155 C2156 1.524 . S
C2155 C2159 1.400 . S
C2156 H2141 0.960 . S
C2156 H2142 0.960 . S
C2156 H2143 0.960 . S
C2156 C2155 1.524 . S
C2157 C2154 1.403 . S
C2157 C2158 1.392 . S
C2157 C2161 1.495 . S
C2158 C2157 1.392 . S
C2158 C2159 1.385 . S
C2158 C2160 1.478 . S
C2159 H2153 0.930 . S
C2159 C2155 1.400 . S
C2159 C2158 1.385 . S
C2160 C2158 1.478 . S
C2160 C2162 1.381 . S
C2160 C2166 1.383 . S
C2161 C2157 1.495 . S
C2161 H2167 0.959 . S
C2161 H2168 0.961 . S
C2161 H2169 0.960 . S
C2162 C2160 1.381 . S
C2162 C2163 1.394 . S
C2162 H2170 0.930 . S
C2163 C2162 1.394 . S
C2163 C2164 1.383 . S
C2163 H2171 0.929 . S
C2164 C2163 1.383 . S
C2164 C2165 1.377 . S
C2165 H2149 0.930 . S
C2165 C2164 1.377 . S
C2165 C2166 1.379 . S
C2166 H2150 0.931 . S
C2166 C2160 1.383 . S
C2166 C2165 1.379 . S
H2167 C2161 0.959 . S
H2168 C2161 0.961 . S
H2169 C2161 0.960 . S
H2170 C2162 0.930 . S
H2171 C2163 0.929 . S
H2172 C2180 0.929 . S
H2173 C2182 0.930 . S
H2174 C2184 0.930 . S
H2175 C2187 0.929 . S
H2176 C2190 0.930 . S
H2177 C2192 0.960 . S
H2178 C2192 0.960 . S
H2179 C2192 0.960 . S
C2180 H2172 0.929 . S
C2180 C2181 1.377 . S
C2180 C2182 1.384 . S
C2181 C2180 1.377 . S
C2181 C2187 1.390 . S
C2182 H2173 0.930 . S
C2182 C2180 1.384 . S
C2182 C2183 1.372 . S
C2183 C2182 1.372 . S
C2183 C2184 1.400 . S
C2183 C2188 1.490 . S
C2184 H2174 0.930 . S
C2184 C2183 1.400 . S
C2184 C2187 1.386 . S
H2185 C2201 0.930 . S
H2186 C2202 0.931 . S
C2187 H2175 0.929 . S
C2187 C2181 1.390 . S
C2187 C2184 1.386 . S
C2188 C2183 1.490 . S
C2188 C2190 1.395 . S
C2188 C2191 1.403 . S
H2189 C2195 0.930 . S
C2190 H2176 0.930 . S
C2190 C2188 1.395 . S
C2190 C2193 1.403 . S
C2191 C2188 1.403 . S
C2191 C2192 1.524 . S
C2191 C2195 1.400 . S
C2192 H2177 0.960 . S
C2192 H2178 0.960 . S
C2192 H2179 0.960 . S
C2192 C2191 1.524 . S
C2193 C2190 1.403 . S
C2193 C2194 1.392 . S
C2193 C2197 1.495 . S
C2194 C2193 1.392 . S
C2194 C2195 1.385 . S
C2194 C2196 1.478 . S
C2195 H2189 0.930 . S
C2195 C2191 1.400 . S
C2195 C2194 1.385 . S
C2196 C2194 1.478 . S
C2196 C2198 1.381 . S
C2196 C2202 1.383 . S
C2197 C2193 1.495 . S
C2197 H2203 0.959 . S
C2197 H2204 0.961 . S
C2197 H2205 0.960 . S
C2198 C2196 1.381 . S
C2198 C2199 1.394 . S
C2198 H2206 0.930 . S
C2199 C2198 1.394 . S
C2199 C2200 1.383 . S
C2199 H2207 0.929 . S
C2200 C2199 1.383 . S
C2200 C2201 1.377 . S
C2201 H2185 0.930 . S
C2201 C2200 1.377 . S
C2201 C2202 1.379 . S
C2202 H2186 0.931 . S
C2202 C2196 1.383 . S
C2202 C2201 1.379 . S
H2203 C2197 0.959 . S
H2204 C2197 0.961 . S
H2205 C2197 0.960 . S
H2206 C2198 0.930 . S
H2207 C2199 0.929 . S
H2208 C2216 0.929 . S
H2209 C2218 0.930 . S
H2210 C2220 0.930 . S
H2211 C2223 0.929 . S
H2212 C2226 0.930 . S
H2213 C2228 0.960 . S
H2214 C2228 0.960 . S
H2215 C2228 0.960 . S
C2216 H2208 0.929 . S
C2216 C2217 1.377 . S
C2216 C2218 1.384 . S
C2217 C2216 1.377 . S
C2217 C2223 1.390 . S
C2218 H2209 0.930 . S
C2218 C2216 1.384 . S
C2218 C2219 1.372 . S
C2219 C2218 1.372 . S
C2219 C2220 1.400 . S
C2219 C2224 1.490 . S
C2220 H2210 0.930 . S
C2220 C2219 1.400 . S
C2220 C2223 1.386 . S
H2221 C2237 0.930 . S
H2222 C2238 0.931 . S
C2223 H2211 0.929 . S
C2223 C2217 1.390 . S
C2223 C2220 1.386 . S
C2224 C2219 1.490 . S
C2224 C2226 1.395 . S
C2224 C2227 1.403 . S
H2225 C2231 0.930 . S
C2226 H2212 0.930 . S
C2226 C2224 1.395 . S
C2226 C2229 1.403 . S
C2227 C2224 1.403 . S
C2227 C2228 1.524 . S
C2227 C2231 1.400 . S
C2228 H2213 0.960 . S
C2228 H2214 0.960 . S
C2228 H2215 0.960 . S
C2228 C2227 1.524 . S
C2229 C2226 1.403 . S
C2229 C2230 1.392 . S
C2229 C2233 1.495 . S
C2230 C2229 1.392 . S
C2230 C2231 1.385 . S
C2230 C2232 1.478 . S
C2231 H2225 0.930 . S
C2231 C2227 1.400 . S
C2231 C2230 1.385 . S
C2232 C2230 1.478 . S
C2232 C2234 1.381 . S
C2232 C2238 1.383 . S
C2233 C2229 1.495 . S
C2233 H2239 0.959 . S
C2233 H2240 0.961 . S
C2233 H2241 0.960 . S
C2234 C2232 1.381 . S
C2234 C2235 1.394 . S
C2234 H2242 0.930 . S
C2235 C2234 1.394 . S
C2235 C2236 1.383 . S
C2235 H2243 0.929 . S
C2236 C2235 1.383 . S
C2236 C2237 1.377 . S
C2237 H2221 0.930 . S
C2237 C2236 1.377 . S
C2237 C2238 1.379 . S
C2238 H2222 0.931 . S
C2238 C2232 1.383 . S
C2238 C2237 1.379 . S
H2239 C2233 0.959 . S
H2240 C2233 0.961 . S
H2241 C2233 0.960 . S
H2242 C2234 0.930 . S
H2243 C2235 0.929 . S
H2244 C2252 0.929 . S
H2245 C2254 0.930 . S
H2246 C2256 0.930 . S
H2247 C2259 0.929 . S
H2248 C2262 0.930 . S
H2249 C2264 0.960 . S
H2250 C2264 0.960 . S
H2251 C2264 0.960 . S
C2252 H2244 0.929 . S
C2252 C2253 1.377 . S
C2252 C2254 1.384 . S
C2253 C2252 1.377 . S
C2253 C2259 1.390 . S
C2254 H2245 0.930 . S
C2254 C2252 1.384 . S
C2254 C2255 1.372 . S
C2255 C2254 1.372 . S
C2255 C2256 1.400 . S
C2255 C2260 1.490 . S
C2256 H2246 0.930 . S
C2256 C2255 1.400 . S
C2256 C2259 1.386 . S
H2257 C2273 0.930 . S
H2258 C2274 0.931 . S
C2259 H2247 0.929 . S
C2259 C2253 1.390 . S
C2259 C2256 1.386 . S
C2260 C2255 1.490 . S
C2260 C2262 1.395 . S
C2260 C2263 1.403 . S
H2261 C2267 0.930 . S
C2262 H2248 0.930 . S
C2262 C2260 1.395 . S
C2262 C2265 1.403 . S
C2263 C2260 1.403 . S
C2263 C2264 1.524 . S
C2263 C2267 1.400 . S
C2264 H2249 0.960 . S
C2264 H2250 0.960 . S
C2264 H2251 0.960 . S
C2264 C2263 1.524 . S
C2265 C2262 1.403 . S
C2265 C2266 1.392 . S
C2265 C2269 1.495 . S
C2266 C2265 1.392 . S
C2266 C2267 1.385 . S
C2266 C2268 1.478 . S
C2267 H2261 0.930 . S
C2267 C2263 1.400 . S
C2267 C2266 1.385 . S
C2268 C2266 1.478 . S
C2268 C2270 1.381 . S
C2268 C2274 1.383 . S
C2269 C2265 1.495 . S
C2269 H2275 0.959 . S
C2269 H2276 0.961 . S
C2269 H2277 0.960 . S
C2270 C2268 1.381 . S
C2270 C2271 1.394 . S
C2270 H2278 0.930 . S
C2271 C2270 1.394 . S
C2271 C2272 1.383 . S
C2271 H2279 0.929 . S
C2272 C2271 1.383 . S
C2272 C2273 1.377 . S
C2273 H2257 0.930 . S
C2273 C2272 1.377 . S
C2273 C2274 1.379 . S
C2274 H2258 0.931 . S
C2274 C2268 1.383 . S
C2274 C2273 1.379 . S
H2275 C2269 0.959 . S
H2276 C2269 0.961 . S
H2277 C2269 0.960 . S
H2278 C2270 0.930 . S
H2279 C2271 0.929 . S
H2280 C2288 0.929 . S
H2281 C2290 0.930 . S
H2282 C2292 0.930 . S
H2283 C2295 0.929 . S
H2284 C2298 0.930 . S
H2285 C2300 0.960 . S
H2286 C2300 0.960 . S
H2287 C2300 0.960 . S
C2288 H2280 0.929 . S
C2288 C2289 1.377 . S
C2288 C2290 1.384 . S
C2289 C2288 1.377 . S
C2289 C2295 1.390 . S
C2290 H2281 0.930 . S
C2290 C2288 1.384 . S
C2290 C2291 1.372 . S
C2291 C2290 1.372 . S
C2291 C2292 1.400 . S
C2291 C2296 1.490 . S
C2292 H2282 0.930 . S
C2292 C2291 1.400 . S
C2292 C2295 1.386 . S
H2293 C2309 0.930 . S
H2294 C2310 0.931 . S
C2295 H2283 0.929 . S
C2295 C2289 1.390 . S
C2295 C2292 1.386 . S
C2296 C2291 1.490 . S
C2296 C2298 1.395 . S
C2296 C2299 1.403 . S
H2297 C2303 0.930 . S
C2298 H2284 0.930 . S
C2298 C2296 1.395 . S
C2298 C2301 1.403 . S
C2299 C2296 1.403 . S
C2299 C2300 1.524 . S
C2299 C2303 1.400 . S
C2300 H2285 0.960 . S
C2300 H2286 0.960 . S
C2300 H2287 0.960 . S
C2300 C2299 1.524 . S
C2301 C2298 1.403 . S
C2301 C2302 1.392 . S
C2301 C2305 1.495 . S
C2302 C2301 1.392 . S
C2302 C2303 1.385 . S
C2302 C2304 1.478 . S
C2303 H2297 0.930 . S
C2303 C2299 1.400 . S
C2303 C2302 1.385 . S
C2304 C2302 1.478 . S
C2304 C2306 1.381 . S
C2304 C2310 1.383 . S
C2305 C2301 1.495 . S
C2305 H2311 0.959 . S
C2305 H2312 0.961 . S
C2305 H2313 0.960 . S
C2306 C2304 1.381 . S
C2306 C2307 1.394 . S
C2306 H2314 0.930 . S
C2307 C2306 1.394 . S
C2307 C2308 1.383 . S
C2307 H2315 0.929 . S
C2308 C2307 1.383 . S
C2308 C2309 1.377 . S
C2309 H2293 0.930 . S
C2309 C2308 1.377 . S
C2309 C2310 1.379 . S
C2310 H2294 0.931 . S
C2310 C2304 1.383 . S
C2310 C2309 1.379 . S
H2311 C2305 0.959 . S
H2312 C2305 0.961 . S
H2313 C2305 0.960 . S
H2314 C2306 0.930 . S
H2315 C2307 0.929 . S
H2316 C2324 0.929 . S
H2317 C2326 0.930 . S
H2318 C2328 0.970 . S
H2319 C2331 0.929 . S
H2320 C2334 0.930 . S
H2321 C2336 0.962 . S
H2322 C2336 0.958 1_556 S
H2323 C2336 0.962 . S
C2324 H2316 0.929 . S
C2324 C2325 1.377 . S
C2324 C2326 1.384 . S
C2325 C2324 1.377 . S
C2325 C2331 1.390 . S
C2326 H2317 0.930 . S
C2326 C2324 1.384 . S
C2326 C2327 1.372 . S
C2327 C2326 1.372 . S
C2327 C2328 1.400 . S
C2327 C2332 1.490 . S
C2328 H2318 0.970 . S
C2328 C2327 1.400 . S
C2328 C2331 1.386 . S
H2329 C2345 0.930 . S
H2330 C2346 0.930 . S
C2331 H2319 0.929 . S
C2331 C2325 1.390 . S
C2331 C2328 1.386 . S
C2332 C2327 1.490 . S
C2332 C2334 1.395 . S
C2332 C2335 1.403 . S
H2333 C2339 0.969 . S
C2334 H2320 0.930 . S
C2334 C2332 1.395 . S
C2334 C2337 1.403 . S
C2335 C2332 1.403 . S
C2335 C2336 1.522 1_556 S
C2335 C2339 1.400 . S
C2336 H2321 0.962 . S
C2336 H2322 0.958 1_554 S
C2336 H2323 0.962 . S
C2336 C2335 1.522 1_554 S
C2337 C2334 1.403 . S
C2337 C2338 1.392 . S
C2337 C2341 1.495 . S
C2338 C2337 1.392 . S
C2338 C2339 1.385 . S
C2338 C2340 1.478 . S
C2339 H2333 0.969 . S
C2339 C2335 1.400 . S
C2339 C2338 1.385 . S
C2340 C2338 1.478 . S
C2340 C2342 1.381 . S
C2340 C2346 1.383 1_556 S
C2341 C2337 1.495 . S
C2341 H2347 0.959 . S
C2341 H2348 0.961 . S
C2341 H2349 0.960 . S
C2342 C2340 1.381 . S
C2342 C2343 1.394 . S
C2342 H2350 0.930 . S
C2343 C2342 1.394 . S
C2343 C2344 1.383 . S
C2343 H2351 0.929 . S
C2344 C2343 1.383 . S
C2344 C2345 1.377 1_556 S
C2345 H2329 0.930 . S
C2345 C2344 1.377 1_554 S
C2345 C2346 1.379 . S
C2346 H2330 0.930 . S
C2346 C2340 1.383 1_554 S
C2346 C2345 1.379 . S
H2347 C2341 0.959 . S
H2348 C2341 0.961 . S
H2349 C2341 0.960 . S
H2350 C2342 0.930 . S
H2351 C2343 0.929 . S
H2352 C2360 0.929 . S
H2353 C2362 0.930 . S
H2354 C2364 0.930 . S
H2355 C2367 0.929 . S
H2356 C2370 0.930 . S
H2357 C2372 0.960 . S
H2358 C2372 0.960 . S
H2359 C2372 0.960 . S
C2360 H2352 0.929 . S
C2360 C2361 1.377 . S
C2360 C2362 1.384 . S
C2361 C2360 1.377 . S
C2361 C2367 1.390 . S
C2362 H2353 0.930 . S
C2362 C2360 1.384 . S
C2362 C2363 1.372 . S
C2363 C2362 1.372 . S
C2363 C2364 1.400 . S
C2363 C2368 1.490 . S
C2364 H2354 0.930 . S
C2364 C2363 1.400 . S
C2364 C2367 1.386 . S
H2365 C2381 0.930 . S
H2366 C2382 0.931 . S
C2367 H2355 0.929 . S
C2367 C2361 1.390 . S
C2367 C2364 1.386 . S
C2368 C2363 1.490 . S
C2368 C2370 1.395 . S
C2368 C2371 1.403 . S
H2369 C2375 0.930 . S
C2370 H2356 0.930 . S
C2370 C2368 1.395 . S
C2370 C2373 1.403 . S
C2371 C2368 1.403 . S
C2371 C2372 1.524 . S
C2371 C2375 1.400 . S
C2372 H2357 0.960 . S
C2372 H2358 0.960 . S
C2372 H2359 0.960 . S
C2372 C2371 1.524 . S
C2373 C2370 1.403 . S
C2373 C2374 1.392 . S
C2373 C2377 1.495 . S
C2374 C2373 1.392 . S
C2374 C2375 1.385 . S
C2374 C2376 1.478 . S
C2375 H2369 0.930 . S
C2375 C2371 1.400 . S
C2375 C2374 1.385 . S
C2376 C2374 1.478 . S
C2376 C2378 1.381 . S
C2376 C2382 1.383 . S
C2377 C2373 1.495 . S
C2377 H2383 0.959 . S
C2377 H2384 0.961 . S
C2377 H2385 0.960 . S
C2378 C2376 1.381 . S
C2378 C2379 1.394 . S
C2378 H2386 0.930 . S
C2379 C2378 1.394 . S
C2379 C2380 1.383 . S
C2379 H2387 0.929 . S
C2380 C2379 1.383 . S
C2380 C2381 1.377 . S
C2381 H2365 0.930 . S
C2381 C2380 1.377 . S
C2381 C2382 1.379 . S
C2382 H2366 0.931 . S
C2382 C2376 1.383 . S
C2382 C2381 1.379 . S
H2383 C2377 0.959 . S
H2384 C2377 0.961 . S
H2385 C2377 0.960 . S
H2386 C2378 0.930 . S
H2387 C2379 0.929 . S
H2388 C2396 0.929 . S
H2389 C2398 0.959 . S
H2390 C2400 0.930 . S
H2391 C2403 0.929 . S
H2392 C2406 0.930 . S
H2393 C2408 0.960 . S
H2394 C2408 0.960 . S
H2395 C2408 0.960 . S
C2396 H2388 0.929 . S
C2396 C2397 1.377 . S
C2396 C2398 1.384 . S
C2397 C2396 1.377 . S
C2397 C2403 1.390 . S
C2398 H2389 0.959 . S
C2398 C2396 1.384 . S
C2398 C2399 1.372 . S
C2399 C2398 1.372 . S
C2399 C2400 1.400 . S
C2399 C2404 1.490 . S
C2400 H2390 0.930 . S
C2400 C2399 1.400 . S
C2400 C2403 1.386 . S
H2401 C2417 0.930 . S
H2402 C2418 0.931 . S
C2403 H2391 0.929 . S
C2403 C2397 1.390 . S
C2403 C2400 1.386 . S
C2404 C2399 1.490 . S
C2404 C2406 1.395 . S
C2404 C2407 1.403 . S
H2405 C2411 0.930 . S
C2406 H2392 0.930 . S
C2406 C2404 1.395 . S
C2406 C2409 1.403 . S
C2407 C2404 1.403 . S
C2407 C2408 1.524 . S
C2407 C2411 1.400 . S
C2408 H2393 0.960 . S
C2408 H2394 0.960 . S
C2408 H2395 0.960 . S
C2408 C2407 1.524 . S
C2409 C2406 1.403 . S
C2409 C2410 1.392 . S
C2409 C2413 1.495 . S
C2410 C2409 1.392 . S
C2410 C2411 1.385 . S
C2410 C2412 1.478 . S
C2411 H2405 0.930 . S
C2411 C2407 1.400 . S
C2411 C2410 1.385 . S
C2412 C2410 1.478 . S
C2412 C2414 1.381 1_554 S
C2412 C2418 1.383 . S
C2413 C2409 1.495 . S
C2413 H2419 0.959 . S
C2413 H2420 0.961 . S
C2413 H2421 0.960 . S
C2414 C2412 1.381 1_556 S
C2414 C2415 1.394 . S
C2414 H2422 0.930 . S
C2415 C2414 1.394 . S
C2415 C2416 1.383 1_556 S
C2415 H2423 0.929 . S
C2416 C2415 1.383 1_554 S
C2416 C2417 1.377 . S
C2417 H2401 0.930 . S
C2417 C2416 1.377 . S
C2417 C2418 1.379 . S
C2418 H2402 0.931 . S
C2418 C2412 1.383 . S
C2418 C2417 1.379 . S
H2419 C2413 0.959 . S
H2420 C2413 0.961 . S
H2421 C2413 0.960 . S
H2422 C2414 0.930 . S
H2423 C2415 0.929 . S
H2424 C2432 0.929 . S
H2425 C2434 0.930 . S
H2426 C2436 0.930 . S
H2427 C2439 0.929 1_545 S
H2428 C2442 0.930 . S
H2429 C2444 0.960 . S
H2430 C2444 0.960 . S
H2431 C2444 0.960 . S
C2432 H2424 0.929 . S
C2432 C2433 1.377 . S
C2432 C2434 1.384 . S
C2433 C2432 1.377 . S
C2433 C2439 1.390 . S
C2434 H2425 0.930 . S
C2434 C2432 1.384 . S
C2434 C2435 1.372 . S
C2435 C2434 1.372 . S
C2435 C2436 1.400 . S
C2435 C2440 1.490 . S
C2436 H2426 0.930 . S
C2436 C2435 1.400 . S
C2436 C2439 1.386 . S
H2437 C2453 0.930 1_556 S
H2438 C2454 0.931 1_556 S
C2439 H2427 0.929 1_565 S
C2439 C2433 1.390 . S
C2439 C2436 1.386 . S
C2440 C2435 1.490 . S
C2440 C2442 1.395 . S
C2440 C2443 1.403 . S
H2441 C2447 0.930 . S
C2442 H2428 0.930 . S
C2442 C2440 1.395 . S
C2442 C2445 1.403 . S
C2443 C2440 1.403 . S
C2443 C2444 1.524 . S
C2443 C2447 1.400 . S
C2444 H2429 0.960 . S
C2444 H2430 0.960 . S
C2444 H2431 0.960 . S
C2444 C2443 1.524 . S
C2445 C2442 1.403 . S
C2445 C2446 1.392 . S
C2445 C2449 1.495 . S
C2446 C2445 1.392 . S
C2446 C2447 1.385 . S
C2446 C2448 1.478 . S
C2447 H2441 0.930 . S
C2447 C2443 1.400 . S
C2447 C2446 1.385 . S
C2448 C2446 1.478 . S
C2448 C2450 1.381 . S
C2448 C2454 1.383 . S
C2449 C2445 1.495 . S
C2449 H2455 0.959 . S
C2449 H2456 0.961 . S
C2449 H2457 0.960 . S
C2450 C2448 1.381 . S
C2450 C2451 1.394 . S
C2450 H2458 0.930 . S
C2451 C2450 1.394 . S
C2451 C2452 1.383 . S
C2451 H2459 0.929 . S
C2452 C2451 1.383 . S
C2452 C2453 1.377 . S
C2453 H2437 0.930 1_554 S
C2453 C2452 1.377 . S
C2453 C2454 1.379 . S
C2454 H2438 0.931 1_554 S
C2454 C2448 1.383 . S
C2454 C2453 1.379 . S
H2455 C2449 0.959 . S
H2456 C2449 0.961 . S
H2457 C2449 0.960 . S
H2458 C2450 0.930 . S
H2459 C2451 0.929 . S
C760 C586 1.388 . S
C741 C181 1.397 . S
C796 C599 1.618 . S
C777 C247 1.628 . S
C813 C283 1.449 . S
C832 C612 1.452 . S
C868 C625 1.523 . S
C849 C169 1.535 . S
C904 C633 1.473 . S
C885 C361 1.494 . S
C940 C646 1.390 . S
C921 C433 1.421 . S
C957 C421 1.513 . S
C976 C659 1.475 . S
C1012 C672 1.522 . S
C993 C355 1.529 . S
C1029 C427 1.437 . S
C1048 C690 1.433 . S
C1084 C701 1.514 . S
C1065 C325 1.551 . S
C1101 C385 1.449 . S
C1120 C685 1.441 . S
C1156 C693 1.449 . S
C1137 C463 1.484 . S
C1173 C253 1.504 . S
C1192 C716 1.487 . S
C1209 C145 1.523 . S
C1228 C706 1.489 . S
C1245 C205 1.488 . S
C1264 C711 1.442 . S
C1281 C217 1.572 . S
C1300 C714 1.546 1_655 S
C1317 C139 1.451 . S
C1336 C623 1.424 . S
C1353 C535 1.407 . S
C1372 C615 1.394 . S
C1408 C584 1.531 . S
C1389 C565 1.584 . S
C1444 C589 1.502 . S
C1425 C313 1.505 . S
C1461 C175 1.560 . S
C1480 C636 1.542 . S
C1516 C675 1.487 . S
C1497 C397 1.528 . S
C1552 C628 1.485 . S
C1533 C349 1.513 . S
C1588 C654 1.439 . S
C1569 C457 1.479 . S
C1624 C664 1.381 . S
C1605 C505 1.399 . S
C1641 C571 1.629 . S
C1660 C677 1.609 . S
C1677 C319 1.450 . S
C1696 C638 1.438 . S
C1732 C651 1.518 . S
C1713 C493 1.536 . S
C1749 C109 1.494 . S
C1768 C607 1.478 . S
C1804 C620 1.388 . S
C1785 C1 1.421 . S
C1840 C581 1.472 . S
C1821 C61 1.514 . S
C1876 C594 1.523 . S
C1857 C103 1.529 . S
C1893 C67 1.438 . S
C1912 C703 1.415 . S
C1929 C73 1.552 . S
C1948 C688 1.506 1_655 S
C1965 C133 1.448 . S
C1984 C698 1.440 . S
C2001 C31 1.487 1_556 S
C2020 C680 1.446 . S
C2056 C729 1.504 . S
C2037 C289 1.503 . S
C2092 C719 1.497 . S
C2073 C469 1.483 1_554 S
C2128 C724 1.445 . S
C2109 C529 1.488 . S
C2145 C541 1.574 . S
C2164 C727 1.552 . S
C2181 C391 1.452 . S
C2200 C649 1.404 . S
C2236 C641 1.368 . S
C2217 C211 1.409 . S
C2272 C662 1.555 . S
C2253 C241 1.566 . S
C2308 C667 1.498 . S
C2289 C277 1.509 . S
C2325 C499 1.560 . S
C2344 C610 1.531 . S
C2380 C597 1.495 . S
C2361 C37 1.531 . S
C2397 C97 1.514 . S
C2416 C602 1.500 . S
C2452 C576 1.438 . S
C2433 C25 1.479 1_565 S
