# Generated by pormake.
# Topology zzz, (3,6)-cn, num edge types: 1
# Building blocks:
#     Node 0, Type 0, BuildingBlock: KAKCAD_clean_linker_0, # of connection points: 3
#     Node 1, Type 0, BuildingBlock: KAKCAD_clean_linker_0, # of connection points: 3
#     Node 2, Type 0, BuildingBlock: KAKCAD_clean_linker_0, # of connection points: 3
#     Node 3, Type 0, BuildingBlock: KAKCAD_clean_linker_0, # of connection points: 3
#     Node 4, Type 0, BuildingBlock: KAKCAD_clean_linker_0, # of connection points: 3
#     Node 5, Type 0, BuildingBlock: KAKCAD_clean_linker_0, # of connection points: 3
#     Node 6, Type 0, BuildingBlock: KAKCAD_clean_linker_0, # of connection points: 3
#     Node 7, Type 0, BuildingBlock: KAKCAD_clean_linker_0, # of connection points: 3
#     Node 8, Type 1, BuildingBlock: CUKXOW_clean_sbu_0, # of connection points: 6
#     Node 9, Type 1, BuildingBlock: CUKXOW_clean_sbu_0, # of connection points: 6
#     Node 10, Type 1, BuildingBlock: CUKXOW_clean_sbu_0, # of connection points: 6
#     Node 11, Type 1, BuildingBlock: CUKXOW_clean_sbu_0, # of connection points: 6
#     Edge 12, Type (0, 1), BuildingBlock: OJICUG_clean_linker_0, # of connection points: 2
#     Edge 13, Type (0, 1), BuildingBlock: OJICUG_clean_linker_0, # of connection points: 2
#     Edge 14, Type (0, 1), BuildingBlock: OJICUG_clean_linker_0, # of connection points: 2
#     Edge 15, Type (0, 1), BuildingBlock: OJICUG_clean_linker_0, # of connection points: 2
#     Edge 16, Type (0, 1), BuildingBlock: OJICUG_clean_linker_0, # of connection points: 2
#     Edge 17, Type (0, 1), BuildingBlock: OJICUG_clean_linker_0, # of connection points: 2
#     Edge 18, Type (0, 1), BuildingBlock: OJICUG_clean_linker_0, # of connection points: 2
#     Edge 19, Type (0, 1), BuildingBlock: OJICUG_clean_linker_0, # of connection points: 2
#     Edge 20, Type (0, 1), BuildingBlock: OJICUG_clean_linker_0, # of connection points: 2
#     Edge 21, Type (0, 1), BuildingBlock: OJICUG_clean_linker_0, # of connection points: 2
#     Edge 22, Type (0, 1), BuildingBlock: OJICUG_clean_linker_0, # of connection points: 2
#     Edge 23, Type (0, 1), BuildingBlock: OJICUG_clean_linker_0, # of connection points: 2
#     Edge 24, Type (0, 1), BuildingBlock: OJICUG_clean_linker_0, # of connection points: 2
#     Edge 25, Type (0, 1), BuildingBlock: OJICUG_clean_linker_0, # of connection points: 2
#     Edge 26, Type (0, 1), BuildingBlock: OJICUG_clean_linker_0, # of connection points: 2
#     Edge 27, Type (0, 1), BuildingBlock: OJICUG_clean_linker_0, # of connection points: 2
#     Edge 28, Type (0, 1), BuildingBlock: OJICUG_clean_linker_0, # of connection points: 2
#     Edge 29, Type (0, 1), BuildingBlock: OJICUG_clean_linker_0, # of connection points: 2
#     Edge 30, Type (0, 1), BuildingBlock: OJICUG_clean_linker_0, # of connection points: 2
#     Edge 31, Type (0, 1), BuildingBlock: OJICUG_clean_linker_0, # of connection points: 2
#     Edge 32, Type (0, 1), BuildingBlock: OJICUG_clean_linker_0, # of connection points: 2
#     Edge 33, Type (0, 1), BuildingBlock: OJICUG_clean_linker_0, # of connection points: 2
#     Edge 34, Type (0, 1), BuildingBlock: OJICUG_clean_linker_0, # of connection points: 2
#     Edge 35, Type (0, 1), BuildingBlock: OJICUG_clean_linker_0, # of connection points: 2
# Relax obj value: 0.209
# Max RMSD: 0.228
# Mean RMSD: 0.184
data_MOF--net-zzz--node1-CUKXOW_clean_sbu_0--node2-KAKCAD_clean_linker_0--edge1-OJICUG_clean_linker_0
_symmetry_space_group_name_H-M    P1
_symmetry_Int_Tables_number       1
_symmetry_cell_setting            triclinic
loop_
_symmetry_equiv_pos_as_xyz
'x, y, z'
_cell_length_a     45.587622
_cell_length_b     45.056887
_cell_length_c     16.202916
_cell_angle_alpha  92.933818
_cell_angle_beta   87.777111
_cell_angle_gamma 95.696911
loop_
_atom_site_label
_atom_site_type_symbol
_atom_site_fract_x
_atom_site_fract_y
_atom_site_fract_z
_atom_type_partial_charge
C0 C 0.84824 0.44693 0.87027 0.0
C1 C 0.86959 0.43035 0.90078 0.0
C2 C 0.8208 0.4478 0.91162 0.0
C3 C 0.81434 0.43186 0.98358 0.0
C4 C 0.8346 0.41266 0.00803 0.0
C5 C 0.86214 0.41221 0.96763 0.0
C6 C 0.7896 0.43933 0.04082 0.0
C7 C 0.76207 0.44467 0.01192 0.0
C8 C 0.74031 0.45559 0.06636 0.0
C9 C 0.74654 0.46146 0.15061 0.0
C10 C 0.7738 0.45552 0.18018 0.0
C11 C 0.79496 0.44446 0.12511 0.0
C12 C 0.78238 0.46288 0.26648 0.0
C13 C 0.78568 0.49275 0.29646 0.0
C14 C 0.79405 0.4411 0.31093 0.0
C15 C 0.81133 0.44935 0.3791 0.0
C16 C 0.81735 0.47962 0.40427 0.0
C17 C 0.71154 0.46155 0.03384 0.0
C18 C 0.69916 0.48835 0.05551 0.0
C19 C 0.69685 0.44086 0.97793 0.0
C20 C 0.67065 0.44699 0.94336 0.0
C21 C 0.65854 0.47404 0.96358 0.0
C22 C 0.67299 0.49459 0.02043 0.0
C23 C 0.80304 0.50107 0.36491 0.0
H24 H 0.85367 0.4612 0.81889 0.0
H25 H 0.80578 0.4629 0.89134 0.0
H26 H 0.82998 0.39959 0.06215 0.0
H27 H 0.87828 0.39909 0.99165 0.0
H28 H 0.75787 0.44106 0.94661 0.0
H29 H 0.81655 0.44161 0.14766 0.0
H30 H 0.73024 0.47027 0.19308 0.0
H31 H 0.77706 0.50995 0.26279 0.0
H32 H 0.79189 0.41793 0.28857 0.0
H33 H 0.82203 0.43217 0.40721 0.0
H34 H 0.71009 0.50483 0.09794 0.0
H35 H 0.70571 0.4199 0.96055 0.0
H36 H 0.80676 0.52451 0.38371 0.0
H37 H 0.66406 0.51551 0.0378 0.0
H38 H 0.66023 0.43081 0.89922 0.0
C39 C 0.93449 0.85754 0.95262 0.0
C40 C 0.96354 0.85883 0.91958 0.0
C41 C 0.92171 0.83185 0.98966 0.0
C42 C 0.93773 0.80695 0.99439 0.0
C43 C 0.966 0.80753 0.95617 0.0
C44 C 0.97876 0.83321 0.91908 0.0
C45 C 0.92714 0.78242 0.04907 0.0
C46 C 0.93217 0.75283 0.02722 0.0
C47 C 0.928 0.73067 0.0857 0.0
C48 C 0.91817 0.7382 0.16668 0.0
C49 C 0.91254 0.76769 0.18871 0.0
C50 C 0.91647 0.78941 0.12923 0.0
C51 C 0.90903 0.77817 0.27596 0.0
C52 C 0.88617 0.79576 0.30013 0.0
C53 C 0.93281 0.77758 0.32798 0.0
C54 C 0.9356 0.79716 0.39748 0.0
C55 C 0.91442 0.81742 0.41666 0.0
C56 C 0.93701 0.7006 0.0634 0.0
C57 C 0.91775 0.67483 0.07633 0.0
C58 C 0.96482 0.69778 0.02521 0.0
C59 C 0.97286 0.66988 0.9974 0.0
C60 C 0.95321 0.64413 0.00688 0.0
C61 C 0.92571 0.64679 0.04767 0.0
C62 C 0.88866 0.81496 0.37054 0.0
H63 H 0.92199 0.87676 0.95224 0.0
H64 H 0.89974 0.83189 0.01766 0.0
H65 H 0.97911 0.78889 0.9597 0.0
H66 H 0.00123 0.83356 0.89456 0.0
H67 H 0.94044 0.74723 0.96531 0.0
H68 H 0.9141 0.81253 0.14811 0.0
H69 H 0.91651 0.72166 0.21337 0.0
H70 H 0.86762 0.79652 0.26072 0.0
H71 H 0.95088 0.76444 0.30998 0.0
H72 H 0.95581 0.79832 0.43092 0.0
H73 H 0.89621 0.67652 0.10582 0.0
H74 H 0.9802 0.71731 0.01544 0.0
H75 H 0.87144 0.8295 0.38497 0.0
H76 H 0.91021 0.62727 0.05616 0.0
H77 H 0.99403 0.66866 0.96535 0.0
C78 C 0.64356 0.99384 0.98066 0.0
C79 C 0.64347 0.02073 0.94012 0.0
C80 C 0.66806 0.98814 0.02415 0.0
C81 C 0.6931 0.00886 0.02625 0.0
C82 C 0.69395 0.03469 0.98135 0.0
C83 C 0.66928 0.04069 0.93903 0.0
C84 C 0.71568 0.00653 0.08728 0.0
C85 C 0.7452 0.00441 0.06376 0.0
C86 C 0.76679 0.00466 0.12389 0.0
C87 C 0.75845 0.00842 0.20852 0.0
C88 C 0.72872 0.01118 0.23162 0.0
C89 C 0.70759 0.00941 0.17076 0.0
C90 C 0.71815 0.01726 0.31753 0.0
C91 C 0.71429 0.99424 0.37304 0.0
C92 C 0.70355 0.04297 0.33423 0.0
C93 C 0.68235 0.04398 0.39827 0.0
C94 C 0.67573 0.01955 0.44909 0.0
C95 C 0.7978 0.00167 0.09582 0.0
C96 C 0.8037 0.98034 0.03267 0.0
C97 C 0.82118 0.02164 0.12512 0.0
C98 C 0.8496 0.02119 0.08879 0.0
C99 C 0.85514 0.00066 0.02284 0.0
C100 C 0.83188 0.97992 0.99646 0.0
C101 C 0.69356 0.99558 0.43912 0.0
H102 H 0.6244 0.97758 0.98094 0.0
H103 H 0.66703 0.96815 0.05903 0.0
H104 H 0.71294 0.05118 0.98367 0.0
H105 H 0.66998 0.06175 0.90935 0.0
H106 H 0.75137 0.00292 -0.00153 0.0
H107 H 0.68465 0.01157 0.18847 0.0
H108 H 0.77483 0.00941 0.25554 0.0
H109 H 0.72525 0.97412 0.36114 0.0
H110 H 0.70606 0.06092 0.29167 0.0
H111 H 0.66949 0.06293 0.40209 0.0
H112 H 0.78619 0.96447 0.0093 0.0
H113 H 0.81724 0.0384 0.17352 0.0
H114 H 0.6903 0.97686 0.47878 0.0
H115 H 0.83504 0.96403 0.94525 0.0
H116 H 0.86708 0.03722 0.11139 0.0
C117 C 0.58036 0.71272 0.45361 0.0
C118 C 0.60241 0.69423 0.47002 0.0
C119 C 0.58404 0.73172 0.38767 0.0
C120 C 0.60968 0.73238 0.33693 0.0
C121 C 0.6331 0.71683 0.3593 0.0
C122 C 0.62963 0.69815 0.42592 0.0
C123 C 0.60781 0.7401 0.2502 0.0
C124 C 0.60729 0.76963 0.22668 0.0
C125 C 0.60212 0.77517 0.14397 0.0
C126 C 0.59603 0.75101 0.08675 0.0
C127 C 0.59543 0.72157 0.11083 0.0
C128 C 0.60227 0.71636 0.19183 0.0
C129 C 0.58361 0.69623 0.05623 0.0
C130 C 0.55627 0.69711 0.01989 0.0
C131 C 0.59754 0.66976 0.0487 0.0
C132 C 0.58378 0.64425 0.00849 0.0
C133 C 0.55565 0.64461 0.97597 0.0
C134 C 0.6003 0.8057 0.1165 0.0
C135 C 0.57947 0.82363 0.1533 0.0
C136 C 0.61601 0.81493 0.0446 0.0
C137 C 0.60946 0.84043 0.00656 0.0
C138 C 0.5868 0.85705 0.03911 0.0
C139 C 0.57271 0.84912 0.11479 0.0
C140 C 0.54237 0.67155 0.98048 0.0
H141 H 0.55907 0.71034 0.48579 0.0
H142 H 0.56552 0.74316 0.37059 0.0
H143 H 0.65298 0.71686 0.32039 0.0
H144 H 0.64738 0.68488 0.43831 0.0
H145 H 0.61064 0.78801 0.27222 0.0
H146 H 0.60097 0.6936 0.2116 0.0
H147 H 0.59048 0.75512 0.02412 0.0
H148 H 0.54484 0.71711 0.026 0.0
H149 H 0.61872 0.6686 0.07586 0.0
H150 H 0.59497 0.62409 0.00432 0.0
H151 H 0.56691 0.81677 0.2084 0.0
H152 H 0.63233 0.80151 0.01549 0.0
H153 H 0.5206 0.6726 0.95702 0.0
H154 H 0.55508 0.86137 0.14134 0.0
H155 H 0.62121 0.84636 0.94944 0.0
C156 C 0.15077 0.58971 0.40216 0.0
C157 C 0.14401 0.57398 0.47407 0.0
C158 C 0.17827 0.58875 0.3619 0.0
C159 C 0.19934 0.57167 0.39219 0.0
C160 C 0.19365 0.55849 0.46869 0.0
C161 C 0.16615 0.55972 0.50951 0.0
C162 C 0.22415 0.56301 0.33718 0.0
C163 C 0.25243 0.56135 0.36672 0.0
C164 C 0.27466 0.54964 0.31548 0.0
C165 C 0.26812 0.53933 0.23381 0.0
C166 C 0.2398 0.54086 0.20439 0.0
C167 C 0.21825 0.55293 0.25583 0.0
C168 C 0.23067 0.52817 0.12261 0.0
C169 C 0.23442 0.54581 0.0535 0.0
C170 C 0.21114 0.5021 0.11918 0.0
C171 C 0.19353 0.49522 0.05091 0.0
C172 C 0.19511 0.51433 0.98444 0.0
C173 C 0.30393 0.54661 0.34993 0.0
C174 C 0.31763 0.56965 0.40103 0.0
C175 C 0.31741 0.51996 0.33669 0.0
C176 C 0.34346 0.51607 0.37601 0.0
C177 C 0.35668 0.53879 0.42914 0.0
C178 C 0.34369 0.56581 0.44009 0.0
C179 C 0.21694 0.53881 0.9846 0.0
H180 H 0.13412 0.60116 0.37432 0.0
H181 H 0.18229 0.59958 0.3038 0.0
H182 H 0.20938 0.54507 0.49336 0.0
H183 H 0.16139 0.54735 0.56486 0.0
H184 H 0.25682 0.56836 0.43041 0.0
H185 H 0.19617 0.55304 0.23315 0.0
H186 H 0.28472 0.52979 0.1939 0.0
H187 H 0.24907 0.56627 0.0555 0.0
H188 H 0.20754 0.48852 0.17263 0.0
H189 H 0.17692 0.47637 0.05399 0.0
H190 H 0.30793 0.59056 0.41185 0.0
H191 H 0.3073 0.50169 0.29823 0.0
H192 H 0.21926 0.55367 0.93381 0.0
H193 H 0.35315 0.58369 0.48102 0.0
H194 H 0.35311 0.49513 0.36543 0.0
C195 C 0.03484 0.16556 0.49072 0.0
C196 C 0.05101 0.1406 0.49142 0.0
C197 C 0.04686 0.1915 0.45339 0.0
C198 C 0.07529 0.19298 0.41605 0.0
C199 C 0.09223 0.16882 0.42208 0.0
C200 C 0.08022 0.1429 0.45943 0.0
C201 C 0.08522 0.21747 0.36057 0.0
C202 C 0.07978 0.24703 0.38165 0.0
C203 C 0.08399 0.26908 0.32271 0.0
C204 C 0.09395 0.26133 0.24196 0.0
C205 C 0.09984 0.23187 0.22071 0.0
C206 C 0.09603 0.21034 0.28066 0.0
C207 C 0.10382 0.22124 0.13375 0.0
C208 C 0.08022 0.2213 0.08085 0.0
C209 C 0.12714 0.20412 0.11061 0.0
C210 C 0.12533 0.18488 0.0402 0.0
C211 C 0.09979 0.18188 0.99307 0.0
C212 C 0.07537 0.29943 0.34416 0.0
C213 C 0.09424 0.32495 0.3255 0.0
C214 C 0.04819 0.30289 0.38547 0.0
C215 C 0.04034 0.33121 0.40984 0.0
C216 C 0.05953 0.35678 0.39367 0.0
C217 C 0.08648 0.35342 0.3506 0.0
C218 C 0.0781 0.20167 0.01134 0.0
H219 H 0.01224 0.16445 0.51446 0.0
H220 H 0.03311 0.20958 0.44889 0.0
H221 H 0.11434 0.1695 0.39474 0.0
H222 H 0.09346 0.12427 0.4608 0.0
H223 H 0.07144 0.2527 0.44343 0.0
H224 H 0.09875 0.18724 0.26244 0.0
H225 H 0.09567 0.2777 0.19483 0.0
H226 H 0.06182 0.23408 0.09808 0.0
H227 H 0.14557 0.20377 0.15072 0.0
H228 H 0.14291 0.17071 0.0265 0.0
H229 H 0.11531 0.32284 0.29361 0.0
H230 H 0.03303 0.2836 0.39961 0.0
H231 H 0.05805 0.20008 0.97711 0.0
H232 H 0.10162 0.37276 0.337 0.0
H233 H 0.01961 0.333 0.44383 0.0
C234 C 0.34776 0.95718 0.45902 0.0
C235 C 0.37394 0.97563 0.44328 0.0
C236 C 0.32303 0.95863 0.41121 0.0
C237 C 0.32413 0.97855 0.34696 0.0
C238 C 0.35007 0.99744 0.33291 0.0
C239 C 0.37469 0.99578 0.37973 0.0
C240 C 0.29913 0.9791 0.29141 0.0
C241 C 0.26988 0.9784 0.32178 0.0
C242 C 0.24678 0.98129 0.26821 0.0
C243 C 0.25328 0.98505 0.18323 0.0
C244 C 0.28252 0.98491 0.15266 0.0
C245 C 0.30498 0.98159 0.20667 0.0
C246 C 0.29166 0.98893 0.06547 0.0
C247 C 0.29915 0.96376 0.01774 0.0
C248 C 0.30388 0.01737 0.0433 0.0
C249 C 0.32618 0.02027 0.9816 0.0
C250 C 0.33656 0.99473 0.94159 0.0
C251 C 0.21622 0.98113 0.30314 0.0
C252 C 0.20518 0.95893 0.35707 0.0
C253 C 0.19891 0.00434 0.28881 0.0
C254 C 0.1716 0.00598 0.33065 0.0
C255 C 0.16097 0.98422 0.38658 0.0
C256 C 0.17782 0.96037 0.39803 0.0
C257 C 0.32145 0.96663 0.95618 0.0
H258 H 0.34634 0.9417 0.50831 0.0
H259 H 0.30335 0.94375 0.42326 0.0
H260 H 0.35148 0.01343 0.28487 0.0
H261 H 0.39453 0.01006 0.36494 0.0
H262 H 0.26517 0.97675 0.38758 0.0
H263 H 0.32744 0.98131 0.18207 0.0
H264 H 0.23584 0.98769 0.14141 0.0
H265 H 0.29037 0.94159 0.03475 0.0
H266 H 0.29889 0.03702 0.08054 0.0
H267 H 0.33735 0.04223 0.97181 0.0
H268 H 0.21807 0.94074 0.36894 0.0
H269 H 0.20702 0.02183 0.24793 0.0
H270 H 0.32862 0.94659 0.92516 0.0
H271 H 0.17038 0.94339 0.44116 0.0
H272 H 0.15896 0.02448 0.32013 0.0
C273 C 0.3829 0.32251 0.99292 0.0
C274 C 0.41001 0.32638 0.94826 0.0
C275 C 0.37959 0.30382 0.05954 0.0
C276 C 0.40306 0.28823 0.08136 0.0
C277 C 0.42856 0.28884 0.03006 0.0
C278 C 0.43208 0.30785 0.96413 0.0
C279 C 0.40505 0.28029 0.16789 0.0
C280 C 0.40694 0.25083 0.19025 0.0
C281 C 0.4124 0.24522 0.27267 0.0
C282 C 0.41742 0.26923 0.33081 0.0
C283 C 0.41693 0.29867 0.30778 0.0
C284 C 0.40968 0.30392 0.2271 0.0
C285 C 0.42857 0.32406 0.36251 0.0
C286 C 0.45605 0.32338 0.39829 0.0
C287 C 0.41446 0.35042 0.3704 0.0
C288 C 0.42818 0.37601 0.41033 0.0
C289 C 0.45642 0.37582 0.44228 0.0
C290 C 0.41611 0.21495 0.29868 0.0
C291 C 0.43966 0.19977 0.26584 0.0
C292 C 0.39951 0.20369 0.36685 0.0
C293 C 0.40749 0.17877 0.40506 0.0
C294 C 0.43257 0.16492 0.37673 0.0
C295 C 0.4479 0.17499 0.30471 0.0
C296 C 0.46988 0.349 0.43747 0.0
H297 H 0.36514 0.3358 0.98094 0.0
H298 H 0.3598 0.3038 0.09881 0.0
H299 H 0.44711 0.27734 0.04666 0.0
H300 H 0.45329 0.31018 0.93146 0.0
H301 H 0.40453 0.23258 0.14402 0.0
H302 H 0.41018 0.32672 0.20809 0.0
H303 H 0.42325 0.26504 0.39316 0.0
H304 H 0.46767 0.3035 0.39183 0.0
H305 H 0.39319 0.35144 0.34365 0.0
H306 H 0.41689 0.39611 0.4147 0.0
H307 H 0.45299 0.20837 0.21391 0.0
H308 H 0.38125 0.21512 0.39307 0.0
H309 H 0.49174 0.34808 0.46044 0.0
H310 H 0.46741 0.16499 0.28141 0.0
H311 H 0.39471 0.17113 0.459 0.0
Tb312 Tb 0.99163 0.97373 0.65287 0.0
C313 C 0.05692 0.9931 0.59956 0.0
Tb314 Tb 0.02579 0.02417 0.75779 0.0
O315 O 0.99365 0.00282 0.54837 0.0
O316 O 0.99273 0.02064 0.66949 0.0
O317 O 0.0354 0.97092 0.59718 0.0
C318 C 0.05597 0.07455 0.81312 0.0
O319 O 0.0562 0.01696 0.65147 0.0
C320 C 0.02217 0.97071 0.81602 0.0
C321 C 0.96106 0.00316 0.81378 0.0
O322 O 0.06164 0.04777 0.82858 0.0
O323 O 0.03315 0.07296 0.76723 0.0
O324 O 0.02443 0.99518 0.86245 0.0
O325 O 0.02462 0.97736 0.74143 0.0
O326 O 0.98201 0.02592 0.81608 0.0
O327 O 0.96199 0.97975 0.76061 0.0
C328 C 0.96082 0.92389 0.59626 0.0
O329 O 0.95514 0.95087 0.58296 0.0
O330 O 0.98401 0.925 0.64055 0.0
C331 C 0.99551 0.02724 0.59489 0.0
Tb332 Tb 0.5019 0.03906 0.66512 0.0
C333 C 0.56205 0.01208 0.62366 0.0
Tb334 Tb 0.51504 0.98155 0.75202 0.0
O335 O 0.53693 0.06617 0.73095 0.0
O336 O 0.51608 0.02792 0.78084 0.0
O337 O 0.54262 0.02954 0.59879 0.0
C338 C 0.53799 0.94296 0.84443 0.0
O339 O 0.55671 0.99373 0.6852 0.0
C340 C 0.47896 0.97206 0.62951 0.0
C341 C 0.45415 0.00708 0.79028 0.0
O342 O 0.53439 0.93964 0.76527 0.0
O343 O 0.52826 0.96784 0.87188 0.0
O344 O 0.48043 0.95336 0.68738 0.0
O345 O 0.49993 0.9925 0.63698 0.0
O346 O 0.47408 0.99059 0.81755 0.0
O347 O 0.45968 0.02533 0.72832 0.0
C348 C 0.48158 0.07959 0.57334 0.0
O349 O 0.47926 0.07917 0.65345 0.0
O350 O 0.4956 0.05733 0.54476 0.0
C351 C 0.53739 0.04767 0.78964 0.0
Tb352 Tb 0.52442 0.53587 0.66355 0.0
C353 C 0.45809 0.52095 0.61982 0.0
Tb354 Tb 0.48782 0.48448 0.75317 0.0
O355 O 0.52019 0.5101 0.54547 0.0
O356 O 0.52013 0.48882 0.6567 0.0
O357 O 0.48076 0.54194 0.62156 0.0
C358 C 0.45592 0.43412 0.79449 0.0
O359 O 0.4576 0.49584 0.66005 0.0
C360 C 0.4957 0.53584 0.8364 0.0
C361 C 0.55443 0.49852 0.79438 0.0
O362 O 0.45086 0.46087 0.82125 0.0
O363 O 0.47895 0.43581 0.74494 0.0
O364 O 0.49237 0.5103 0.87113 0.0
O365 O 0.49213 0.53154 0.76004 0.0
O366 O 0.53154 0.4778 0.7928 0.0
O367 O 0.55494 0.52394 0.75551 0.0
C368 C 0.55624 0.58636 0.6229 0.0
O369 O 0.56138 0.55966 0.59597 0.0
O370 O 0.53316 0.58457 0.67229 0.0
C371 C 0.51675 0.48457 0.58025 0.0
Tb372 Tb 0.97865 0.50436 0.64104 0.0
C373 C 0.02518 0.46224 0.57143 0.0
Tb374 Tb 0.03509 0.50077 0.73971 0.0
O375 O 0.00497 0.52573 0.54093 0.0
O376 O 0.01864 0.53132 0.66268 0.0
O377 O 0.99676 0.46676 0.57488 0.0
C378 C 0.09004 0.50357 0.79426 0.0
O379 O 0.04459 0.47658 0.62243 0.0
C380 C 0.98797 0.46792 0.79106 0.0
C381 C 0.98823 0.54289 0.81027 0.0
O382 O 0.07208 0.47944 0.78629 0.0
O383 O 0.07698 0.52597 0.7718 0.0
O384 O 0.00905 0.47848 0.83922 0.0
O385 O 0.99532 0.47384 0.71768 0.0
O386 O 0.01617 0.53684 0.81089 0.0
O387 O 0.96941 0.5307 0.75453 0.0
C388 C 0.92382 0.50234 0.58587 0.0
O389 O 0.94531 0.5224 0.56886 0.0
O390 O 0.93324 0.48342 0.63368 0.0
C391 C 0.02593 0.53677 0.58885 0.0
C392 C 0.11295 0.96186 0.44834 0.0
C393 C 0.13324 0.98698 0.43643 0.0
H394 H 0.07293 0.94408 0.50871 0.0
C395 C 0.12772 0.01439 0.47648 0.0
H396 H 0.11648 0.94051 0.41775 0.0
C397 C 0.10287 0.01643 0.5291 0.0
C398 C 0.08286 0.99115 0.54226 0.0
H399 H 0.1431 0.03408 0.4691 0.0
H400 H 0.09944 0.0378 0.55976 0.0
C401 C 0.08796 0.96395 0.50031 0.0
C402 C 0.45721 0.11766 0.38841 0.0
C403 C 0.44421 0.14212 0.42655 0.0
H404 H 0.47933 0.07865 0.40525 0.0
C405 C 0.44363 0.14559 0.51344 0.0
H406 H 0.45782 0.11417 0.32177 0.0
C407 C 0.45572 0.12519 0.56095 0.0
C408 C 0.46889 0.10101 0.52273 0.0
H409 H 0.43443 0.16449 0.545 0.0
H410 H 0.45503 0.12855 0.62766 0.0
C411 C 0.46947 0.09731 0.43612 0.0
C412 C 0.38517 0.50667 0.51243 0.0
C413 C 0.38318 0.53396 0.47568 0.0
H414 H 0.41014 0.48117 0.58675 0.0
C415 C 0.40622 0.55687 0.48606 0.0
H416 H 0.36764 0.48869 0.50658 0.0
C417 C 0.43057 0.55265 0.53257 0.0
C418 C 0.43238 0.52546 0.57015 0.0
H419 H 0.40552 0.57805 0.45784 0.0
H420 H 0.44787 0.5708 0.53933 0.0
C421 C 0.40945 0.50247 0.55914 0.0
C422 C 0.07295 0.40578 0.46968 0.0
C423 C 0.05198 0.38643 0.42714 0.0
H424 H 0.08102 0.44508 0.54831 0.0
C425 C 0.02297 0.39424 0.42425 0.0
H426 H 0.09545 0.40029 0.47334 0.0
C427 C 0.01461 0.41983 0.46748 0.0
C428 C 0.03509 0.43812 0.51475 0.0
H429 H 0.00645 0.37999 0.39076 0.0
H430 H 0.99178 0.42451 0.46658 0.0
C431 C 0.06459 0.43137 0.51311 0.0
C432 C 0.90053 0.02893 0.96006 0.0
C433 C 0.88437 0.00156 0.97787 0.0
H434 H 0.9376 0.051 0.89423 0.0
C435 C 0.89517 0.97493 0.94626 0.0
H436 H 0.89279 0.04989 0.98274 0.0
C437 C 0.92029 0.97565 0.89423 0.0
C438 C 0.93569 0.00298 0.87359 0.0
H439 H 0.88385 0.95341 0.96037 0.0
H440 H 0.92751 0.95468 0.86956 0.0
C441 C 0.92608 0.02961 0.90884 0.0
C442 C 0.56708 0.90699 0.02693 0.0
C443 C 0.57577 0.88022 0.98955 0.0
H444 H 0.54842 0.94809 0.00986 0.0
C445 C 0.57234 0.87476 0.90402 0.0
H446 H 0.56959 0.91191 0.09254 0.0
C447 C 0.56029 0.89532 0.85711 0.0
C448 C 0.55129 0.9218 0.89457 0.0
H449 H 0.57823 0.85413 0.87344 0.0
H450 H 0.55766 0.89027 0.79157 0.0
C451 C 0.55501 0.92766 0.97971 0.0
C452 C 0.62915 0.50924 0.89343 0.0
C453 C 0.63129 0.48088 0.92381 0.0
H454 H 0.60335 0.53708 0.82852 0.0
C455 C 0.60761 0.45872 0.91332 0.0
H456 H 0.64714 0.52672 0.89991 0.0
C457 C 0.58257 0.46459 0.87227 0.0
C458 C 0.58066 0.49274 0.84025 0.0
H459 H 0.60841 0.43676 0.93693 0.0
H460 H 0.56487 0.44686 0.86485 0.0
C461 C 0.60414 0.51509 0.85191 0.0
C462 C 0.94024 0.59771 0.9191 0.0
C463 C 0.96078 0.61529 0.96776 0.0
H464 H 0.93273 0.56096 0.83132 0.0
C465 C 0.98955 0.60685 0.97111 0.0
H466 H 0.91795 0.60377 0.91485 0.0
C467 C 0.99813 0.58242 0.92284 0.0
C468 C 0.97812 0.56599 0.87001 0.0
H469 H 0.00573 0.61976 0.00905 0.0
H470 H 0.02078 0.57722 0.92463 0.0
C471 C 0.94882 0.57331 0.87066 0.0
C472 C 0.01764 0.11015 0.58925 0.0
C473 C 0.03668 0.11158 0.51888 0.0
H474 H 0.98912 0.0821 0.66757 0.0
C475 C 0.04103 0.08509 0.47219 0.0
H476 H 0.01386 0.13015 0.62648 0.0
C477 C 0.02695 0.05777 0.4958 0.0
C478 C 0.00841 0.05635 0.56685 0.0
H479 H 0.05506 0.0855 0.41668 0.0
H480 H 0.03106 0.03767 0.45935 0.0
C481 C 0.00359 0.08273 0.61292 0.0
C482 C 0.41847 0.00064 0.51261 0.0
C483 C 0.40058 0.97429 0.49232 0.0
H484 H 0.45686 0.02023 0.57148 0.0
C485 C 0.40888 0.94694 0.51733 0.0
H486 H 0.41238 0.02224 0.49689 0.0
C487 C 0.43467 0.94615 0.56108 0.0
C488 C 0.45276 0.97256 0.5793 0.0
H489 H 0.39573 0.92617 0.5022 0.0
H490 H 0.44055 0.92489 0.58025 0.0
C491 C 0.44429 -0.00036 0.55485 0.0
C492 C 0.49041 0.40318 0.54526 0.0
C493 C 0.47242 0.40375 0.47687 0.0
H494 H 0.51955 0.42838 0.6293 0.0
C495 C 0.47052 0.43111 0.44012 0.0
H496 H 0.4923 0.38259 0.57539 0.0
C497 C 0.48571 0.45736 0.4722 0.0
C498 C 0.50307 0.4567 0.54147 0.0
H499 H 0.45745 0.43228 0.3862 0.0
H500 H 0.48332 0.47823 0.44396 0.0
C501 C 0.50579 0.42939 0.57667 0.0
C502 C 0.10475 0.57209 0.58736 0.0
C503 C 0.113 0.56813 0.50346 0.0
H504 H 0.06973 0.56702 0.67938 0.0
C505 C 0.0918 0.55589 0.44741 0.0
H506 H 0.12068 0.58173 0.63152 0.0
C507 C 0.06323 0.54649 0.47518 0.0
C508 C 0.05525 0.5494 0.55941 0.0
H509 H 0.09769 0.55232 0.38248 0.0
H510 H 0.04768 0.53608 0.43101 0.0
C511 C 0.07587 0.56327 0.61484 0.0
C512 C 0.97583 0.91397 0.94017 0.0
C513 C 0.97878 0.88744 0.89232 0.0
H514 H 0.98768 0.96107 0.95394 0.0
C515 C 0.99738 0.88837 0.82102 0.0
H516 H 0.96217 0.9139 0.9964 0.0
C517 C 0.01229 0.9154 0.79741 0.0
C518 C 0.00874 0.94187 0.84444 0.0
H519 H 1.00014 0.86829 0.78301 0.0
H520 H 0.02639 0.91567 0.74204 0.0
C521 C 0.99078 0.9409 0.91665 0.0
C522 C 0.58832 0.02077 0.94095 0.0
C523 C 0.61615 0.02864 0.90303 0.0
H524 H 0.54144 0.02152 0.9356 0.0
C525 C 0.61765 0.04481 0.83079 0.0
H526 H 0.5863 0.00916 0.99808 0.0
C527 C 0.59198 0.05245 0.79667 0.0
C528 C 0.56428 0.04335 0.83262 0.0
H529 H 0.63858 0.05107 0.79943 0.0
H530 H 0.59378 0.06449 0.74034 0.0
C531 C 0.56262 0.028 0.9058 0.0
C532 C 0.52176 0.61733 0.87238 0.0
C533 C 0.53963 0.61672 0.94103 0.0
H534 H 0.49283 0.59214 0.78768 0.0
C535 C 0.54149 0.58931 0.97757 0.0
H536 H 0.51987 0.63796 0.84244 0.0
C537 C 0.52648 0.56307 0.94493 0.0
C538 C 0.5093 0.56374 0.87532 0.0
H539 H 0.55443 0.5881 0.03174 0.0
H540 H 0.52886 0.54218 0.97309 0.0
C541 C 0.50652 0.5911 0.84043 0.0
C542 C 0.92144 0.44866 0.92996 0.0
C543 C 0.90071 0.43616 0.87297 0.0
H544 H 0.96534 0.46887 0.9481 0.0
C545 C 0.9095 0.43181 0.78969 0.0
H546 H 0.91503 0.45238 0.99448 0.0
C547 C 0.93856 0.44057 0.7636 0.0
C548 C 0.95868 0.45494 0.81967 0.0
H549 H 0.89387 0.422 0.74497 0.0
H550 H 0.94513 0.43667 0.69935 0.0
C551 C 0.95015 0.45812 0.90346 0.0
C552 C 0.0755 0.15646 0.86727 0.0
C553 C 0.09324 0.15521 0.93605 0.0
H554 H 0.04962 0.1317 0.77443 0.0
C555 C 0.10121 0.1272 0.95712 0.0
H556 H 0.06935 0.1776 0.84816 0.0
C557 C 0.09032 0.10109 0.91398 0.0
C558 C 0.07092 0.10232 0.84959 0.0
H559 H 0.11436 0.12507 0.01033 0.0
H560 H 0.09583 0.07982 0.93409 0.0
C561 C 0.06427 0.13021 0.82483 0.0
C562 C 0.38669 0.97745 0.91587 0.0
C563 C 0.36581 0.99688 0.89727 0.0
H564 H 0.43081 0.96562 0.89797 0.0
C565 C 0.37417 0.01972 0.84275 0.0
H566 H 0.38119 0.96002 0.95907 0.0
C567 C 0.40283 0.02305 0.80779 0.0
C568 C 0.42384 0.00387 0.82763 0.0
H569 H 0.35859 0.03508 0.8275 0.0
H570 H 0.40856 0.04086 0.76591 0.0
C571 C 0.41534 0.98094 0.88171 0.0
C572 C 0.43687 0.35203 0.8284 0.0
C573 C 0.41732 0.353 0.89768 0.0
H574 H 0.4644 0.37714 0.74104 0.0
C575 C 0.40806 0.38079 0.92584 0.0
H576 H 0.44415 0.33103 0.80429 0.0
C577 C 0.41944 0.40705 0.88915 0.0
C578 C 0.44047 0.40616 0.82395 0.0
H579 H 0.39346 0.38265 0.97976 0.0
H580 H 0.41291 0.42819 0.91477 0.0
C581 C 0.44841 0.3784 0.79204 0.0
C582 C 0.15752 0.48286 0.89845 0.0
C583 C 0.17131 0.51116 0.92289 0.0
H584 H 0.12085 0.45825 0.83877 0.0
C585 C 0.1596 0.53671 0.89644 0.0
H586 H 0.16616 0.46267 0.91619 0.0
C587 C 0.13395 0.53408 0.85103 0.0
C588 C 0.11922 0.5059 0.83175 0.0
H589 H 0.16916 0.55891 0.91479 0.0
H590 H 0.12489 0.55422 0.83448 0.0
C591 C 0.13163 0.48028 0.8538 0.0
C592 C 0.93975 0.8423 0.54154 0.0
C593 C 0.92173 0.84396 0.47359 0.0
H594 H 0.96646 0.86648 0.63355 0.0
C595 C 0.91416 0.87221 0.45318 0.0
H596 H 0.94561 0.82098 0.56018 0.0
C597 C 0.92568 0.89811 0.49619 0.0
C598 C 0.94534 0.89642 0.55972 0.0
H599 H 0.90082 0.87466 0.4006 0.0
H600 H 0.92044 0.91955 0.47664 0.0
C601 C 0.95164 0.86832 0.58378 0.0
C602 C 0.63516 0.04362 0.53136 0.0
C603 C 0.64818 0.01762 0.5033 0.0
H604 H 0.5972 0.06215 0.5872 0.0
C605 C 0.63275 0.98969 0.51983 0.0
H606 H 0.64639 0.06563 0.52346 0.0
C607 C 0.60508 0.98791 0.56077 0.0
C608 C 0.59163 0.01391 0.58326 0.0
H609 H 0.64127 0.96898 0.49851 0.0
H610 H 0.59366 0.96615 0.57186 0.0
C611 C 0.60694 0.04175 0.56875 0.0
C612 C 0.57522 0.6685 0.58931 0.0
C613 C 0.59497 0.66759 0.52047 0.0
H614 H 0.54747 0.64332 0.67608 0.0
C615 C 0.60436 0.63982 0.49255 0.0
H616 H 0.56783 0.68948 0.61323 0.0
C617 C 0.59291 0.61354 0.529 0.0
C618 C 0.57169 0.61437 0.59374 0.0
H619 H 0.61912 0.638 0.43896 0.0
H620 H 0.59955 0.59243 0.50356 0.0
C621 C 0.56361 0.6421 0.62544 0.0
C622 C 0.86247 0.51308 0.4437 0.0
C623 C 0.84178 0.48873 0.46159 0.0
H624 H 0.9046 0.53649 0.46935 0.0
C625 C 0.84704 0.47096 0.52745 0.0
H626 H 0.85946 0.52702 0.3928 0.0
C627 C 0.87322 0.47619 0.5705 0.0
C628 C 0.89455 0.4994 0.54888 0.0
H629 H 0.83142 0.4523 0.54374 0.0
H630 H 0.87722 0.46141 0.61867 0.0
C631 C 0.88853 0.51838 0.48705 0.0
loop_
_geom_bond_atom_site_label_1
_geom_bond_atom_site_label_2
_geom_bond_distance
_geom_bond_site_symmetry_2
_ccdc_geom_bond_type
C0 C1 1.386 . S
C0 C2 1.397 . S
C0 H24 0.931 . S
C1 C0 1.386 . S
C1 C5 1.397 . S
C2 C0 1.397 . S
C2 C3 1.384 . S
C2 H25 0.930 . S
C3 C2 1.384 . S
C3 C4 1.377 . S
C3 C6 1.481 . S
C4 C3 1.377 . S
C4 C5 1.389 . S
C4 H26 0.929 . S
C5 C1 1.397 . S
C5 C4 1.389 . S
C5 H27 0.931 . S
C6 C3 1.481 . S
C6 C7 1.387 . S
C6 C11 1.390 1_556 S
C7 C6 1.387 . S
C7 C8 1.401 1_556 S
C7 H28 0.930 . S
C8 C7 1.401 1_554 S
C8 C9 1.376 . S
C8 C17 1.511 . S
C9 C8 1.376 . S
C9 C10 1.392 . S
C9 H30 0.931 . S
C10 C9 1.392 . S
C10 C11 1.361 . S
C10 C12 1.500 . S
C11 C6 1.390 1_554 S
C11 C10 1.361 . S
C11 H29 0.931 . S
C12 C10 1.500 . S
C12 C13 1.371 . S
C12 C14 1.365 . S
C13 C12 1.371 . S
C13 C23 1.386 . S
C13 H31 0.931 . S
C14 C12 1.365 . S
C14 C15 1.409 . S
C14 H32 0.929 . S
C15 C14 1.409 . S
C15 C16 1.380 . S
C15 H33 0.930 . S
C16 C15 1.380 . S
C16 C23 1.357 . S
C17 C8 1.511 . S
C17 C18 1.341 1_554 S
C17 C19 1.371 . S
C18 C17 1.341 1_556 S
C18 C22 1.394 . S
C18 H34 0.930 . S
C19 C17 1.371 . S
C19 C20 1.392 . S
C19 H35 0.931 . S
C20 C19 1.392 . S
C20 C21 1.331 1_554 S
C20 H38 0.932 . S
C21 C20 1.331 1_556 S
C21 C22 1.336 . S
C22 C18 1.394 . S
C22 C21 1.336 . S
C22 H37 0.929 . S
C23 C13 1.386 . S
C23 C16 1.357 . S
C23 H36 0.928 . S
H24 C0 0.931 . S
H25 C2 0.930 . S
H26 C4 0.929 . S
H27 C5 0.931 . S
H28 C7 0.930 . S
H29 C11 0.931 . S
H30 C9 0.931 . S
H31 C13 0.931 . S
H32 C14 0.929 . S
H33 C15 0.930 . S
H34 C18 0.930 . S
H35 C19 0.931 . S
H36 C23 0.928 . S
H37 C22 0.929 . S
H38 C20 0.932 . S
C39 C40 1.386 . S
C39 C41 1.397 . S
C39 H63 0.931 . S
C40 C39 1.386 . S
C40 C44 1.397 . S
C41 C39 1.397 . S
C41 C42 1.384 . S
C41 H64 0.930 . S
C42 C41 1.384 . S
C42 C43 1.377 . S
C42 C45 1.481 . S
C43 C42 1.377 . S
C43 C44 1.389 . S
C43 H65 0.929 . S
C44 C40 1.397 . S
C44 C43 1.389 . S
C44 H66 0.931 . S
C45 C42 1.481 . S
C45 C46 1.387 . S
C45 C50 1.390 1_556 S
C46 C45 1.387 . S
C46 C47 1.401 1_556 S
C46 H67 0.930 . S
C47 C46 1.401 1_554 S
C47 C48 1.376 . S
C47 C56 1.511 1_554 S
C48 C47 1.376 . S
C48 C49 1.392 . S
C48 H69 0.931 . S
C49 C48 1.392 . S
C49 C50 1.361 . S
C49 C51 1.500 . S
C50 C45 1.390 1_554 S
C50 C49 1.361 . S
C50 H68 0.931 . S
C51 C49 1.500 . S
C51 C52 1.371 . S
C51 C53 1.365 . S
C52 C51 1.371 . S
C52 C62 1.386 . S
C52 H70 0.931 . S
C53 C51 1.365 . S
C53 C54 1.409 . S
C53 H71 0.929 . S
C54 C53 1.409 . S
C54 C55 1.380 . S
C54 H72 0.930 . S
C55 C54 1.380 . S
C55 C62 1.357 . S
C56 C47 1.511 1_556 S
C56 C57 1.341 . S
C56 C58 1.371 1_556 S
C57 C56 1.341 . S
C57 C61 1.394 . S
C57 H73 0.930 . S
C58 C56 1.371 1_554 S
C58 C59 1.392 . S
C58 H74 0.931 . S
C59 C58 1.392 . S
C59 C60 1.331 1_554 S
C59 H77 0.932 . S
C60 C59 1.331 1_556 S
C60 C61 1.336 . S
C61 C57 1.394 . S
C61 C60 1.336 . S
C61 H76 0.929 . S
C62 C52 1.386 . S
C62 C55 1.357 . S
C62 H75 0.928 . S
H63 C39 0.931 . S
H64 C41 0.930 . S
H65 C43 0.929 . S
H66 C44 0.931 . S
H67 C46 0.930 . S
H68 C50 0.931 . S
H69 C48 0.931 . S
H70 C52 0.931 . S
H71 C53 0.929 . S
H72 C54 0.930 . S
H73 C57 0.930 . S
H74 C58 0.931 . S
H75 C62 0.928 . S
H76 C61 0.929 . S
H77 C59 0.932 . S
C78 C79 1.395 . S
C78 C80 1.397 . S
C78 H102 0.931 . S
C79 C78 1.395 . S
C79 C83 1.389 1_565 S
C80 C78 1.397 . S
C80 C81 1.388 . S
C80 H103 0.930 . S
C81 C80 1.388 . S
C81 C82 1.372 1_565 S
C81 C84 1.478 1_556 S
C82 C81 1.372 1_545 S
C82 C83 1.389 . S
C82 H104 0.929 1_556 S
C83 C79 1.389 1_545 S
C83 C82 1.389 . S
C83 H105 0.931 . S
C84 C81 1.478 1_554 S
C84 C85 1.391 . S
C84 C89 1.391 . S
C85 C84 1.391 . S
C85 C86 1.399 . S
C85 H106 0.930 1_554 S
C86 C85 1.399 . S
C86 C87 1.377 . S
C86 C95 1.516 . S
C87 C86 1.377 . S
C87 C88 1.393 . S
C87 H108 0.931 . S
C88 C87 1.393 . S
C88 C89 1.362 . S
C88 C90 1.500 1_565 S
C89 C84 1.391 . S
C89 C88 1.362 . S
C89 H107 0.930 . S
C90 C88 1.500 1_545 S
C90 C91 1.359 1_545 S
C90 C92 1.378 . S
C91 C90 1.359 1_565 S
C91 C101 1.386 . S
C91 H109 0.931 . S
C92 C90 1.378 . S
C92 C93 1.409 . S
C92 H110 0.929 . S
C93 C92 1.409 . S
C93 C94 1.380 . S
C93 H111 0.930 . S
C94 C93 1.380 . S
C94 C101 1.357 1_545 S
C95 C86 1.516 . S
C95 C96 1.341 1_554 S
C95 C97 1.371 1_565 S
C96 C95 1.341 1_556 S
C96 C100 1.394 . S
C96 H112 0.930 . S
C97 C95 1.371 1_545 S
C97 C98 1.392 . S
C97 H113 0.931 . S
C98 C97 1.392 . S
C98 C99 1.323 1_545 S
C98 H116 0.932 . S
C99 C98 1.323 1_565 S
C99 C100 1.342 1_554 S
C100 C96 1.394 . S
C100 C99 1.342 1_556 S
C100 H115 0.929 . S
C101 C91 1.386 . S
C101 C94 1.357 1_565 S
C101 H114 0.928 . S
H102 C78 0.931 . S
H103 C80 0.930 . S
H104 C82 0.929 1_554 S
H105 C83 0.931 . S
H106 C85 0.930 1_556 S
H107 C89 0.930 . S
H108 C87 0.931 . S
H109 C91 0.931 . S
H110 C92 0.929 . S
H111 C93 0.930 . S
H112 C96 0.930 . S
H113 C97 0.931 . S
H114 C101 0.928 . S
H115 C100 0.929 . S
H116 C98 0.932 . S
C117 C118 1.386 . S
C117 C119 1.397 . S
C117 H141 0.931 . S
C118 C117 1.386 . S
C118 C122 1.397 . S
C119 C117 1.397 . S
C119 C120 1.384 . S
C119 H142 0.930 . S
C120 C119 1.384 . S
C120 C121 1.377 . S
C120 C123 1.481 . S
C121 C120 1.377 . S
C121 C122 1.389 . S
C121 H143 0.929 . S
C122 C118 1.397 . S
C122 C121 1.389 . S
C122 H144 0.931 . S
C123 C120 1.481 . S
C123 C124 1.387 . S
C123 C128 1.390 . S
C124 C123 1.387 . S
C124 C125 1.401 . S
C124 H145 0.930 . S
C125 C124 1.401 . S
C125 C126 1.373 1_554 S
C125 C134 1.511 . S
C126 C125 1.373 1_556 S
C126 C127 1.391 1_556 S
C126 H147 0.936 . S
C127 C126 1.391 1_554 S
C127 C128 1.361 . S
C127 C129 1.500 1_554 S
C128 C123 1.390 . S
C128 C127 1.361 . S
C128 H146 0.931 . S
C129 C127 1.500 1_556 S
C129 C130 1.371 . S
C129 C131 1.365 . S
C130 C129 1.371 . S
C130 C140 1.386 . S
C130 H148 0.931 . S
C131 C129 1.365 . S
C131 C132 1.409 . S
C131 H149 0.929 1_556 S
C132 C131 1.409 . S
C132 C133 1.380 . S
C132 H150 0.930 . S
C133 C132 1.380 . S
C133 C140 1.357 . S
C134 C125 1.511 . S
C134 C135 1.341 . S
C134 C136 1.371 1_554 S
C135 C134 1.341 . S
C135 C139 1.394 . S
C135 H151 0.930 . S
C136 C134 1.371 1_556 S
C136 C137 1.392 . S
C136 H152 0.931 . S
C137 C136 1.392 . S
C137 C138 1.331 1_556 S
C137 H155 0.932 . S
C138 C137 1.331 1_554 S
C138 C139 1.336 . S
C139 C135 1.394 . S
C139 C138 1.336 . S
C139 H154 0.929 . S
C140 C130 1.386 . S
C140 C133 1.357 . S
C140 H153 0.928 . S
H141 C117 0.931 . S
H142 C119 0.930 . S
H143 C121 0.929 . S
H144 C122 0.931 . S
H145 C124 0.930 . S
H146 C128 0.931 . S
H147 C126 0.936 . S
H148 C130 0.931 . S
H149 C131 0.929 1_554 S
H150 C132 0.930 . S
H151 C135 0.930 . S
H152 C136 0.931 . S
H153 C140 0.928 . S
H154 C139 0.929 . S
H155 C137 0.932 . S
C156 C157 1.386 . S
C156 C158 1.397 . S
C156 H180 0.931 . S
C157 C156 1.386 . S
C157 C161 1.397 . S
C158 C156 1.397 . S
C158 C159 1.384 . S
C158 H181 0.930 . S
C159 C158 1.384 . S
C159 C160 1.377 . S
C159 C162 1.481 . S
C160 C159 1.377 . S
C160 C161 1.389 . S
C160 H182 0.929 . S
C161 C157 1.397 . S
C161 C160 1.389 . S
C161 H183 0.931 . S
C162 C159 1.481 . S
C162 C163 1.387 . S
C162 C167 1.390 . S
C163 C162 1.387 . S
C163 C164 1.401 . S
C163 H184 0.930 . S
C164 C163 1.401 . S
C164 C165 1.376 . S
C164 C173 1.511 . S
C165 C164 1.376 . S
C165 C166 1.392 . S
C165 H186 0.931 . S
C166 C165 1.392 . S
C166 C167 1.361 . S
C166 C168 1.500 . S
C167 C162 1.390 . S
C167 C166 1.361 . S
C167 H185 0.931 . S
C168 C166 1.500 . S
C168 C169 1.371 . S
C168 C170 1.365 . S
C169 C168 1.371 . S
C169 C179 1.386 . S
C169 H187 0.931 . S
C170 C168 1.365 . S
C170 C171 1.409 . S
C170 H188 0.929 . S
C171 C170 1.409 . S
C171 C172 1.380 . S
C171 H189 0.930 . S
C172 C171 1.380 . S
C172 C179 1.357 . S
C173 C164 1.511 . S
C173 C174 1.341 . S
C173 C175 1.371 . S
C174 C173 1.341 . S
C174 C178 1.394 . S
C174 H190 0.930 . S
C175 C173 1.371 . S
C175 C176 1.392 . S
C175 H191 0.931 . S
C176 C175 1.392 . S
C176 C177 1.331 . S
C176 H194 0.932 . S
C177 C176 1.331 . S
C177 C178 1.336 . S
C178 C174 1.394 . S
C178 C177 1.336 . S
C178 H193 0.929 . S
C179 C169 1.386 . S
C179 C172 1.357 . S
C179 H192 0.928 1_554 S
H180 C156 0.931 . S
H181 C158 0.930 . S
H182 C160 0.929 . S
H183 C161 0.931 . S
H184 C163 0.930 . S
H185 C167 0.931 . S
H186 C165 0.931 . S
H187 C169 0.931 . S
H188 C170 0.929 . S
H189 C171 0.930 . S
H190 C174 0.930 . S
H191 C175 0.931 . S
H192 C179 0.928 1_556 S
H193 C178 0.929 . S
H194 C176 0.932 . S
C195 C196 1.386 . S
C195 C197 1.397 . S
C195 H219 0.931 . S
C196 C195 1.386 . S
C196 C200 1.397 . S
C197 C195 1.397 . S
C197 C198 1.384 . S
C197 H220 0.930 . S
C198 C197 1.384 . S
C198 C199 1.377 . S
C198 C201 1.481 . S
C199 C198 1.377 . S
C199 C200 1.389 . S
C199 H221 0.929 . S
C200 C196 1.397 . S
C200 C199 1.389 . S
C200 H222 0.931 . S
C201 C198 1.481 . S
C201 C202 1.387 . S
C201 C206 1.390 . S
C202 C201 1.387 . S
C202 C203 1.401 . S
C202 H223 0.930 . S
C203 C202 1.401 . S
C203 C204 1.376 . S
C203 C212 1.511 . S
C204 C203 1.376 . S
C204 C205 1.392 . S
C204 H225 0.931 . S
C205 C204 1.392 . S
C205 C206 1.361 . S
C205 C207 1.500 . S
C206 C201 1.390 . S
C206 C205 1.361 . S
C206 H224 0.931 . S
C207 C205 1.500 . S
C207 C208 1.371 . S
C207 C209 1.365 . S
C208 C207 1.371 . S
C208 C218 1.386 . S
C208 H226 0.931 . S
C209 C207 1.365 . S
C209 C210 1.409 . S
C209 H227 0.929 . S
C210 C209 1.409 . S
C210 C211 1.380 . S
C210 H228 0.930 . S
C211 C210 1.380 . S
C211 C218 1.357 . S
C212 C203 1.511 . S
C212 C213 1.341 . S
C212 C214 1.371 . S
C213 C212 1.341 . S
C213 C217 1.394 . S
C213 H229 0.930 . S
C214 C212 1.371 . S
C214 C215 1.392 . S
C214 H230 0.931 . S
C215 C214 1.392 . S
C215 C216 1.331 . S
C215 H233 0.932 . S
C216 C215 1.331 . S
C216 C217 1.336 . S
C217 C213 1.394 . S
C217 C216 1.336 . S
C217 H232 0.929 . S
C218 C208 1.386 . S
C218 C211 1.357 . S
C218 H231 0.928 . S
H219 C195 0.931 . S
H220 C197 0.930 . S
H221 C199 0.929 . S
H222 C200 0.931 . S
H223 C202 0.930 . S
H224 C206 0.931 . S
H225 C204 0.931 . S
H226 C208 0.931 . S
H227 C209 0.929 . S
H228 C210 0.930 . S
H229 C213 0.930 . S
H230 C214 0.931 . S
H231 C218 0.928 . S
H232 C217 0.929 . S
H233 C215 0.932 . S
C234 C235 1.386 1_565 S
C234 C236 1.397 . S
C234 H258 0.931 . S
C235 C234 1.386 1_545 S
C235 C239 1.397 . S
C236 C234 1.397 . S
C236 C237 1.384 1_565 S
C236 H259 0.930 . S
C237 C236 1.384 1_545 S
C237 C238 1.377 . S
C237 C240 1.481 . S
C238 C237 1.377 . S
C238 C239 1.389 . S
C238 H260 0.929 . S
C239 C235 1.397 . S
C239 C238 1.389 . S
C239 H261 0.931 . S
C240 C237 1.481 . S
C240 C241 1.387 . S
C240 C245 1.390 . S
C241 C240 1.387 . S
C241 C242 1.401 . S
C241 H262 0.930 . S
C242 C241 1.401 . S
C242 C243 1.376 . S
C242 C251 1.511 . S
C243 C242 1.376 . S
C243 C244 1.392 . S
C243 H264 0.931 . S
C244 C243 1.392 . S
C244 C245 1.361 . S
C244 C246 1.500 . S
C245 C240 1.390 . S
C245 C244 1.361 . S
C245 H263 0.931 . S
C246 C244 1.500 . S
C246 C247 1.371 1_545 S
C246 C248 1.365 . S
C247 C246 1.371 1_565 S
C247 C257 1.386 1_554 S
C247 H265 0.931 . S
C248 C246 1.365 . S
C248 C249 1.409 . S
C248 H266 0.929 . S
C249 C248 1.409 . S
C249 C250 1.380 1_554 S
C249 H267 0.930 . S
C250 C249 1.380 1_556 S
C250 C257 1.357 1_545 S
C251 C242 1.511 . S
C251 C252 1.341 1_545 S
C251 C253 1.371 . S
C252 C251 1.341 1_565 S
C252 C256 1.394 . S
C252 H268 0.930 . S
C253 C251 1.371 . S
C253 C254 1.392 . S
C253 H269 0.931 . S
C254 C253 1.392 . S
C254 C255 1.331 . S
C254 H272 0.932 . S
C255 C254 1.331 . S
C255 C256 1.336 1_545 S
C256 C252 1.394 . S
C256 C255 1.336 1_565 S
C256 H271 0.929 . S
C257 C247 1.386 1_556 S
C257 C250 1.357 1_565 S
C257 H270 0.928 . S
H258 C234 0.931 . S
H259 C236 0.930 . S
H260 C238 0.929 . S
H261 C239 0.931 . S
H262 C241 0.930 . S
H263 C245 0.931 . S
H264 C243 0.931 . S
H265 C247 0.931 . S
H266 C248 0.929 . S
H267 C249 0.930 . S
H268 C252 0.930 . S
H269 C253 0.931 . S
H270 C257 0.928 . S
H271 C256 0.929 . S
H272 C254 0.932 . S
C273 C274 1.386 1_554 S
C273 C275 1.397 . S
C273 H297 0.931 1_554 S
C274 C273 1.386 1_556 S
C274 C278 1.397 1_556 S
C275 C273 1.397 . S
C275 C276 1.384 . S
C275 H298 0.930 . S
C276 C275 1.384 . S
C276 C277 1.377 . S
C276 C279 1.481 . S
C277 C276 1.377 . S
C277 C278 1.389 . S
C277 H299 0.929 . S
C278 C274 1.397 1_554 S
C278 C277 1.389 . S
C278 H300 0.931 . S
C279 C276 1.481 . S
C279 C280 1.387 . S
C279 C284 1.390 . S
C280 C279 1.387 . S
C280 C281 1.401 . S
C280 H301 0.930 . S
C281 C280 1.401 . S
C281 C282 1.376 . S
C281 C290 1.511 . S
C282 C281 1.376 . S
C282 C283 1.392 . S
C282 H303 0.931 . S
C283 C282 1.392 . S
C283 C284 1.361 . S
C283 C285 1.500 . S
C284 C279 1.390 . S
C284 C283 1.361 . S
C284 H302 0.931 . S
C285 C283 1.500 . S
C285 C286 1.371 . S
C285 C287 1.365 . S
C286 C285 1.371 . S
C286 C296 1.386 . S
C286 H304 0.931 . S
C287 C285 1.365 . S
C287 C288 1.409 . S
C287 H305 0.929 . S
C288 C287 1.409 . S
C288 C289 1.380 . S
C288 H306 0.930 . S
C289 C288 1.380 . S
C289 C296 1.357 . S
C290 C281 1.511 . S
C290 C291 1.341 . S
C290 C292 1.371 . S
C291 C290 1.341 . S
C291 C295 1.394 . S
C291 H307 0.930 . S
C292 C290 1.371 . S
C292 C293 1.392 . S
C292 H308 0.931 . S
C293 C292 1.392 . S
C293 C294 1.331 . S
C293 H311 0.932 . S
C294 C293 1.331 . S
C294 C295 1.336 . S
C295 C291 1.394 . S
C295 C294 1.336 . S
C295 H310 0.929 . S
C296 C286 1.386 . S
C296 C289 1.357 . S
C296 H309 0.928 . S
H297 C273 0.931 1_556 S
H298 C275 0.930 . S
H299 C277 0.929 . S
H300 C278 0.931 . S
H301 C280 0.930 . S
H302 C284 0.931 . S
H303 C282 0.931 . S
H304 C286 0.931 . S
H305 C287 0.929 . S
H306 C288 0.930 . S
H307 C291 0.930 . S
H308 C292 0.931 . S
H309 C296 0.928 . S
H310 C295 0.929 . S
H311 C293 0.932 . S
Tb312 O315 2.453 1_665 S
Tb312 O316 2.596 1_665 S
Tb312 O317 2.374 1_655 S
Tb312 O325 2.343 . S
Tb312 O327 2.353 1_565 S
Tb312 O329 2.427 . S
Tb312 O330 2.513 . S
C313 O317 1.251 . S
C313 O319 1.263 . S
Tb314 O316 2.343 . S
Tb314 O319 2.353 1_545 S
Tb314 O322 2.427 . S
Tb314 O323 2.513 . S
Tb314 O324 2.453 1_545 S
Tb314 O325 2.596 1_445 S
Tb314 O326 2.374 1_455 S
O315 Tb312 2.453 1_445 S
O315 C331 1.245 . S
O316 Tb312 2.596 1_445 S
O316 Tb314 2.343 . S
O316 C331 1.259 . S
O317 Tb312 2.374 1_455 S
O317 C313 1.251 . S
C318 O322 1.275 . S
C318 O323 1.246 . S
O319 C313 1.263 . S
O319 Tb314 2.353 1_565 S
C320 O324 1.245 1_655 S
C320 O325 1.259 . S
C321 O326 1.250 . S
C321 O327 1.263 . S
O322 Tb314 2.427 . S
O322 C318 1.275 . S
O323 Tb314 2.513 . S
O323 C318 1.246 . S
O324 Tb314 2.453 1_565 S
O324 C320 1.245 1_455 S
O325 Tb312 2.343 . S
O325 Tb314 2.596 1_665 S
O325 C320 1.259 . S
O326 Tb314 2.374 1_655 S
O326 C321 1.250 . S
O327 Tb312 2.353 1_545 S
O327 C321 1.263 . S
C328 O329 1.275 . S
C328 O330 1.246 . S
O329 Tb312 2.427 . S
O329 C328 1.275 . S
O330 Tb312 2.513 . S
O330 C328 1.246 . S
C331 O315 1.245 . S
C331 O316 1.259 . S
Tb332 O335 2.453 . S
Tb332 O336 2.596 1_545 S
Tb332 O337 2.374 . S
Tb332 O345 2.343 . S
Tb332 O347 2.353 . S
Tb332 O349 2.427 . S
Tb332 O350 2.513 . S
C333 O337 1.251 . S
C333 O339 1.263 1_545 S
Tb334 O336 2.343 . S
Tb334 O339 2.353 . S
Tb334 O342 2.427 . S
Tb334 O343 2.513 . S
Tb334 O344 2.453 . S
Tb334 O345 2.596 1_565 S
Tb334 O346 2.374 . S
O335 Tb332 2.453 . S
O335 C351 1.245 . S
O336 Tb332 2.596 1_565 S
O336 Tb334 2.343 . S
O336 C351 1.259 1_565 S
O337 Tb332 2.374 . S
O337 C333 1.251 . S
C338 O342 1.275 . S
C338 O343 1.246 . S
O339 C333 1.263 1_565 S
O339 Tb334 2.353 . S
C340 O344 1.245 . S
C340 O345 1.259 1_565 S
C341 O346 1.250 1_545 S
C341 O347 1.263 . S
O342 Tb334 2.427 . S
O342 C338 1.275 . S
O343 Tb334 2.513 . S
O343 C338 1.246 . S
O344 Tb334 2.453 . S
O344 C340 1.245 . S
O345 Tb332 2.343 . S
O345 Tb334 2.596 1_545 S
O345 C340 1.259 1_545 S
O346 Tb334 2.374 . S
O346 C341 1.250 1_565 S
O347 Tb332 2.353 . S
O347 C341 1.263 . S
C348 O349 1.275 . S
C348 O350 1.246 . S
O349 Tb332 2.427 . S
O349 C348 1.275 . S
O350 Tb332 2.513 . S
O350 C348 1.246 . S
C351 O335 1.245 . S
C351 O336 1.259 1_545 S
Tb352 O355 2.453 . S
Tb352 O356 2.596 . S
Tb352 O357 2.374 . S
Tb352 O365 2.343 . S
Tb352 O367 2.353 . S
Tb352 O369 2.427 . S
Tb352 O370 2.513 . S
C353 O357 1.251 . S
C353 O359 1.263 . S
Tb354 O356 2.343 . S
Tb354 O359 2.353 . S
Tb354 O362 2.427 . S
Tb354 O363 2.513 . S
Tb354 O364 2.453 . S
Tb354 O365 2.596 . S
Tb354 O366 2.374 . S
O355 Tb352 2.453 . S
O355 C371 1.245 . S
O356 Tb352 2.596 . S
O356 Tb354 2.343 . S
O356 C371 1.259 . S
O357 Tb352 2.374 . S
O357 C353 1.251 . S
C358 O362 1.275 . S
C358 O363 1.246 . S
O359 C353 1.263 . S
O359 Tb354 2.353 . S
C360 O364 1.245 . S
C360 O365 1.259 . S
C361 O366 1.250 . S
C361 O367 1.263 . S
O362 Tb354 2.427 . S
O362 C358 1.275 . S
O363 Tb354 2.513 . S
O363 C358 1.246 . S
O364 Tb354 2.453 . S
O364 C360 1.245 . S
O365 Tb352 2.343 . S
O365 Tb354 2.596 . S
O365 C360 1.259 . S
O366 Tb354 2.374 . S
O366 C361 1.250 . S
O367 Tb352 2.353 . S
O367 C361 1.263 . S
C368 O369 1.275 . S
C368 O370 1.246 . S
O369 Tb352 2.427 . S
O369 C368 1.275 . S
O370 Tb352 2.513 . S
O370 C368 1.246 . S
C371 O355 1.245 . S
C371 O356 1.259 . S
Tb372 O375 2.453 1_655 S
Tb372 O376 2.596 1_655 S
Tb372 O377 2.374 1_655 S
Tb372 O385 2.343 . S
Tb372 O387 2.353 . S
Tb372 O389 2.427 . S
Tb372 O390 2.513 . S
C373 O377 1.251 . S
C373 O379 1.263 . S
Tb374 O376 2.343 . S
Tb374 O379 2.353 . S
Tb374 O382 2.427 . S
Tb374 O383 2.513 . S
Tb374 O384 2.453 1_455 S
Tb374 O385 2.596 1_455 S
Tb374 O386 2.374 . S
O375 Tb372 2.453 1_455 S
O375 C391 1.245 . S
O376 Tb372 2.596 1_455 S
O376 Tb374 2.343 . S
O376 C391 1.259 . S
O377 Tb372 2.374 1_455 S
O377 C373 1.251 . S
C378 O382 1.275 . S
C378 O383 1.246 . S
O379 C373 1.263 . S
O379 Tb374 2.353 . S
C380 O384 1.245 . S
C380 O385 1.259 . S
C381 O386 1.250 1_655 S
C381 O387 1.263 . S
O382 Tb374 2.427 . S
O382 C378 1.275 . S
O383 Tb374 2.513 . S
O383 C378 1.246 . S
O384 Tb374 2.453 1_655 S
O384 C380 1.245 . S
O385 Tb372 2.343 . S
O385 Tb374 2.596 1_655 S
O385 C380 1.259 . S
O386 Tb374 2.374 . S
O386 C381 1.250 1_455 S
O387 Tb372 2.353 . S
O387 C381 1.263 . S
C388 O389 1.275 . S
C388 O390 1.246 . S
O389 Tb372 2.427 . S
O389 C388 1.275 . S
O390 Tb372 2.513 . S
O390 C388 1.246 . S
C391 O375 1.245 . S
C391 O376 1.259 . S
C392 C393 1.387 1_565 S
C392 H396 0.950 . S
C392 C401 1.390 . S
C393 C392 1.387 1_545 S
C393 C395 1.387 . S
H394 C401 0.950 . S
C395 C393 1.387 . S
C395 C397 1.390 . S
C395 H399 0.950 . S
H396 C392 0.950 . S
C397 C395 1.390 . S
C397 C398 1.399 . S
C397 H400 0.950 . S
C398 C397 1.399 . S
C398 C401 1.376 1_545 S
H399 C395 0.950 . S
H400 C397 0.950 . S
C401 C392 1.390 . S
C401 H394 0.950 . S
C401 C398 1.376 1_565 S
C402 C403 1.387 . S
C402 H406 0.950 . S
C402 C411 1.390 . S
C403 C402 1.387 . S
C403 C405 1.387 . S
H404 C411 0.950 . S
C405 C403 1.387 . S
C405 C407 1.390 . S
C405 H409 0.950 . S
H406 C402 0.950 . S
C407 C405 1.390 . S
C407 C408 1.387 . S
C407 H410 0.950 . S
C408 C407 1.387 . S
C408 C411 1.387 . S
H409 C405 0.950 . S
H410 C407 0.950 . S
C411 C402 1.390 . S
C411 H404 0.950 . S
C411 C408 1.387 . S
C412 C413 1.387 . S
C412 H416 0.950 . S
C412 C421 1.390 . S
C413 C412 1.387 . S
C413 C415 1.387 . S
H414 C421 0.950 . S
C415 C413 1.387 . S
C415 C417 1.390 . S
C415 H419 0.950 . S
H416 C412 0.950 . S
C417 C415 1.390 . S
C417 C418 1.387 . S
C417 H420 0.950 . S
C418 C417 1.387 . S
C418 C421 1.387 . S
H419 C415 0.950 . S
H420 C417 0.950 . S
C421 C412 1.390 . S
C421 H414 0.950 . S
C421 C418 1.387 . S
C422 C423 1.387 . S
C422 H426 0.950 . S
C422 C431 1.390 . S
C423 C422 1.387 . S
C423 C425 1.387 . S
H424 C431 0.950 . S
C425 C423 1.387 . S
C425 C427 1.390 . S
C425 H429 0.950 . S
H426 C422 0.950 . S
C427 C425 1.390 . S
C427 C428 1.387 . S
C427 H430 0.950 . S
C428 C427 1.387 . S
C428 C431 1.387 . S
H429 C425 0.950 . S
H430 C427 0.950 . S
C431 C422 1.390 . S
C431 H424 0.950 . S
C431 C428 1.387 . S
C432 C433 1.387 . S
C432 H436 0.950 . S
C432 C441 1.390 . S
C433 C432 1.387 . S
C433 C435 1.387 1_545 S
H434 C441 0.950 . S
C435 C433 1.387 1_565 S
C435 C437 1.390 . S
C435 H439 0.950 . S
H436 C432 0.950 . S
C437 C435 1.390 . S
C437 C438 1.387 1_565 S
C437 H440 0.950 . S
C438 C437 1.387 1_545 S
C438 C441 1.387 . S
H439 C435 0.950 . S
H440 C437 0.950 . S
C441 C432 1.390 . S
C441 H434 0.950 . S
C441 C438 1.387 . S
C442 C443 1.387 . S
C442 H446 0.948 1_556 S
C442 C451 1.390 . S
C443 C442 1.387 . S
C443 C445 1.387 . S
H444 C451 0.950 . S
C445 C443 1.387 . S
C445 C447 1.390 . S
C445 H449 0.950 . S
H446 C442 0.948 1_554 S
C447 C445 1.390 . S
C447 C448 1.387 . S
C447 H450 0.950 . S
C448 C447 1.387 . S
C448 C451 1.387 . S
H449 C445 0.950 . S
H450 C447 0.950 . S
C451 C442 1.390 . S
C451 H444 0.950 . S
C451 C448 1.387 . S
C452 C453 1.387 . S
C452 H456 0.950 . S
C452 C461 1.390 . S
C453 C452 1.387 . S
C453 C455 1.387 . S
H454 C461 0.950 . S
C455 C453 1.387 . S
C455 C457 1.390 . S
C455 H459 0.951 1_556 S
H456 C452 0.950 . S
C457 C455 1.390 . S
C457 C458 1.387 . S
C457 H460 0.950 . S
C458 C457 1.387 . S
C458 C461 1.387 . S
H459 C455 0.951 1_554 S
H460 C457 0.950 . S
C461 C452 1.390 . S
C461 H454 0.950 . S
C461 C458 1.387 . S
C462 C463 1.387 . S
C462 H466 0.950 . S
C462 C471 1.390 . S
C463 C462 1.387 . S
C463 C465 1.387 . S
H464 C471 0.950 . S
C465 C463 1.387 . S
C465 C467 1.390 . S
C465 H469 0.950 . S
H466 C462 0.950 . S
C467 C465 1.390 . S
C467 C468 1.387 . S
C467 H470 0.950 . S
C468 C467 1.387 . S
C468 C471 1.387 . S
H469 C465 0.950 . S
H470 C467 0.950 . S
C471 C462 1.390 . S
C471 H464 0.950 . S
C471 C468 1.387 . S
C472 C473 1.387 . S
C472 H476 0.950 . S
C472 C481 1.390 . S
C473 C472 1.387 . S
C473 C475 1.387 . S
H474 C481 0.950 . S
C475 C473 1.387 . S
C475 C477 1.390 . S
C475 H479 0.950 . S
H476 C472 0.950 . S
C477 C475 1.390 . S
C477 C478 1.387 . S
C477 H480 0.950 . S
C478 C477 1.387 . S
C478 C481 1.387 . S
H479 C475 0.950 . S
H480 C477 0.950 . S
C481 C472 1.390 . S
C481 H474 0.950 . S
C481 C478 1.387 . S
C482 C483 1.387 . S
C482 H486 0.950 . S
C482 C491 1.390 . S
C483 C482 1.387 . S
C483 C485 1.387 1_545 S
H484 C491 0.950 . S
C485 C483 1.387 1_565 S
C485 C487 1.390 . S
C485 H489 0.950 . S
H486 C482 0.950 . S
C487 C485 1.390 . S
C487 C488 1.387 1_565 S
C487 H490 0.950 . S
C488 C487 1.387 1_545 S
C488 C491 1.387 . S
H489 C485 0.950 . S
H490 C487 0.950 . S
C491 C482 1.390 . S
C491 H484 0.950 . S
C491 C488 1.387 . S
C492 C493 1.387 . S
C492 H496 0.950 . S
C492 C501 1.390 . S
C493 C492 1.387 . S
C493 C495 1.387 . S
H494 C501 0.950 . S
C495 C493 1.387 . S
C495 C497 1.390 . S
C495 H499 0.950 . S
H496 C492 0.950 . S
C497 C495 1.390 . S
C497 C498 1.387 . S
C497 H500 0.950 . S
C498 C497 1.387 . S
C498 C501 1.387 . S
H499 C495 0.950 . S
H500 C497 0.950 . S
C501 C492 1.390 . S
C501 H494 0.950 . S
C501 C498 1.387 . S
C502 C503 1.387 . S
C502 H506 0.950 . S
C502 C511 1.390 . S
C503 C502 1.387 . S
C503 C505 1.387 . S
H504 C511 0.950 . S
C505 C503 1.387 . S
C505 C507 1.390 . S
C505 H509 0.950 . S
H506 C502 0.950 . S
C507 C505 1.390 . S
C507 C508 1.387 . S
C507 H510 0.950 . S
C508 C507 1.387 . S
C508 C511 1.387 . S
H509 C505 0.950 . S
H510 C507 0.950 . S
C511 C502 1.390 . S
C511 H504 0.950 . S
C511 C508 1.387 . S
C512 C513 1.387 . S
C512 H516 0.950 . S
C512 C521 1.390 . S
C513 C512 1.387 . S
C513 C515 1.387 . S
H514 C521 0.950 . S
C515 C513 1.387 . S
C515 C517 1.390 . S
C515 H519 0.950 . S
H516 C512 0.950 . S
C517 C515 1.390 . S
C517 C518 1.387 . S
C517 H520 0.950 . S
C518 C517 1.387 . S
C518 C521 1.387 . S
H519 C515 0.950 . S
H520 C517 0.950 . S
C521 C512 1.390 . S
C521 H514 0.950 . S
C521 C518 1.387 . S
C522 C523 1.391 . S
C522 H526 0.950 . S
C522 C531 1.390 . S
C523 C522 1.391 . S
C523 C525 1.387 1_545 S
H524 C531 0.950 . S
C525 C523 1.387 1_565 S
C525 C527 1.390 . S
C525 H529 0.950 . S
H526 C522 0.950 . S
C527 C525 1.390 . S
C527 C528 1.387 1_565 S
C527 H530 0.950 . S
C528 C527 1.387 1_545 S
C528 C531 1.387 . S
H529 C525 0.950 . S
H530 C527 0.950 . S
C531 C522 1.390 . S
C531 H524 0.950 . S
C531 C528 1.387 . S
C532 C533 1.387 . S
C532 H536 0.950 . S
C532 C541 1.390 . S
C533 C532 1.387 . S
C533 C535 1.387 . S
H534 C541 0.950 . S
C535 C533 1.387 . S
C535 C537 1.390 . S
C535 H539 0.950 . S
H536 C532 0.950 . S
C537 C535 1.390 . S
C537 C538 1.387 . S
C537 H540 0.950 . S
C538 C537 1.387 . S
C538 C541 1.387 . S
H539 C535 0.950 . S
H540 C537 0.950 . S
C541 C532 1.390 . S
C541 H534 0.950 . S
C541 C538 1.387 . S
C542 C543 1.387 . S
C542 H546 0.950 . S
C542 C551 1.390 . S
C543 C542 1.387 . S
C543 C545 1.387 . S
H544 C551 0.950 . S
C545 C543 1.387 . S
C545 C547 1.390 . S
C545 H549 0.950 . S
H546 C542 0.950 . S
C547 C545 1.390 . S
C547 C548 1.387 . S
C547 H550 0.950 . S
C548 C547 1.387 . S
C548 C551 1.387 . S
H549 C545 0.950 . S
H550 C547 0.950 . S
C551 C542 1.390 . S
C551 H544 0.950 . S
C551 C548 1.387 . S
C552 C553 1.387 . S
C552 H556 0.950 . S
C552 C561 1.390 . S
C553 C552 1.387 . S
C553 C555 1.387 1_556 S
H554 C561 0.950 . S
C555 C553 1.387 1_554 S
C555 C557 1.390 1_554 S
C555 H559 0.950 . S
H556 C552 0.950 . S
C557 C555 1.390 1_556 S
C557 C558 1.387 . S
C557 H560 0.950 1_556 S
C558 C557 1.387 . S
C558 C561 1.387 . S
H559 C555 0.950 . S
H560 C557 0.950 1_554 S
C561 C552 1.390 . S
C561 H554 0.950 . S
C561 C558 1.387 . S
C562 C563 1.387 1_565 S
C562 H566 0.950 . S
C562 C571 1.390 . S
C563 C562 1.387 1_545 S
C563 C565 1.387 . S
H564 C571 0.950 . S
C565 C563 1.387 . S
C565 C567 1.390 . S
C565 H569 0.950 . S
H566 C562 0.950 . S
C567 C565 1.390 . S
C567 C568 1.387 . S
C567 H570 0.950 . S
C568 C567 1.387 . S
C568 C571 1.387 1_545 S
H569 C565 0.950 . S
H570 C567 0.950 . S
C571 C562 1.390 . S
C571 H564 0.950 . S
C571 C568 1.387 1_565 S
C572 C573 1.387 . S
C572 H576 0.950 . S
C572 C581 1.390 . S
C573 C572 1.387 . S
C573 C575 1.387 . S
H574 C581 0.950 . S
C575 C573 1.387 . S
C575 C577 1.390 . S
C575 H579 0.950 1_556 S
H576 C572 0.950 . S
C577 C575 1.390 . S
C577 C578 1.387 . S
C577 H580 0.950 1_556 S
C578 C577 1.387 . S
C578 C581 1.387 . S
H579 C575 0.950 1_554 S
H580 C577 0.950 1_554 S
C581 C572 1.390 . S
C581 H574 0.950 . S
C581 C578 1.387 . S
C582 C583 1.387 . S
C582 H586 0.950 1_556 S
C582 C591 1.390 . S
C583 C582 1.387 . S
C583 C585 1.387 . S
H584 C591 0.950 . S
C585 C583 1.387 . S
C585 C587 1.390 . S
C585 H589 0.950 . S
H586 C582 0.950 1_554 S
C587 C585 1.390 . S
C587 C588 1.387 . S
C587 H590 0.950 . S
C588 C587 1.387 . S
C588 C591 1.387 . S
H589 C585 0.950 . S
H590 C587 0.950 . S
C591 C582 1.390 . S
C591 H584 0.950 . S
C591 C588 1.387 . S
C592 C593 1.387 . S
C592 H596 0.950 . S
C592 C601 1.390 . S
C593 C592 1.387 . S
C593 C595 1.387 . S
H594 C601 0.950 . S
C595 C593 1.387 . S
C595 C597 1.390 . S
C595 H599 0.950 . S
H596 C592 0.950 . S
C597 C595 1.390 . S
C597 C598 1.387 . S
C597 H600 0.950 . S
C598 C597 1.387 . S
C598 C601 1.387 . S
H599 C595 0.950 . S
H600 C597 0.950 . S
C601 C592 1.390 . S
C601 H594 0.950 . S
C601 C598 1.387 . S
C602 C603 1.400 . S
C602 H606 0.950 . S
C602 C611 1.390 . S
C603 C602 1.400 . S
C603 C605 1.376 1_545 S
H604 C611 0.950 . S
C605 C603 1.376 1_565 S
C605 C607 1.390 . S
C605 H609 0.950 . S
H606 C602 0.950 . S
C607 C605 1.390 . S
C607 C608 1.387 1_565 S
C607 H610 0.950 . S
C608 C607 1.387 1_545 S
C608 C611 1.387 . S
H609 C605 0.950 . S
H610 C607 0.950 . S
C611 C602 1.390 . S
C611 H604 0.950 . S
C611 C608 1.387 . S
C612 C613 1.387 . S
C612 H616 0.950 . S
C612 C621 1.390 . S
C613 C612 1.387 . S
C613 C615 1.387 . S
H614 C621 0.950 . S
C615 C613 1.387 . S
C615 C617 1.390 . S
C615 H619 0.950 . S
H616 C612 0.950 . S
C617 C615 1.390 . S
C617 C618 1.387 . S
C617 H620 0.950 . S
C618 C617 1.387 . S
C618 C621 1.387 . S
H619 C615 0.950 . S
H620 C617 0.950 . S
C621 C612 1.390 . S
C621 H614 0.950 . S
C621 C618 1.387 . S
C622 C623 1.387 . S
C622 H626 0.950 . S
C622 C631 1.390 . S
C623 C622 1.387 . S
C623 C625 1.387 . S
H624 C631 0.950 . S
C625 C623 1.387 . S
C625 C627 1.390 . S
C625 H629 0.950 . S
H626 C622 0.950 . S
C627 C625 1.390 . S
C627 C628 1.387 . S
C627 H630 0.950 . S
C628 C627 1.387 . S
C628 C631 1.387 . S
H629 C625 0.950 . S
H630 C627 0.950 . S
C631 C622 1.390 . S
C631 H624 0.950 . S
C631 C628 1.387 . S
C393 C255 1.614 . S
C398 C313 1.644 1_545 S
C408 C348 2.367 . S
C403 C294 2.134 . S
C418 C353 1.533 . S
C413 C177 1.527 . S
C428 C373 2.103 . S
C423 C216 1.909 . S
C438 C321 1.643 . S
C433 C99 1.613 1_546 S
C443 C138 2.099 1_556 S
C448 C338 2.366 . S
C453 C21 1.515 . S
C458 C361 1.533 . S
C463 C60 1.943 . S
C468 C381 2.104 . S
C478 C331 1.991 . S
C473 C196 1.673 . S
C488 C340 0.981 1_545 S
C483 C235 0.956 . S
C498 C371 2.080 . S
C493 C289 1.762 . S
C503 C157 1.139 . S
C508 C391 1.223 . S
C513 C40 1.691 . S
C518 C320 1.991 . S
C528 C351 0.981 . S
C523 C79 0.955 1_545 S
C538 C360 2.079 . S
C533 C133 1.771 . S
C543 C1 1.134 . S
C548 C380 1.223 . S
C553 C211 2.066 1_556 S
C558 C318 2.305 . S
C563 C250 1.879 . S
C568 C341 2.128 . S
C578 C358 2.509 . S
C573 C274 2.206 . S
C588 C378 2.225 . S
C583 C172 1.987 1_556 S
C593 C55 2.059 . S
C598 C328 2.305 . S
C608 C333 2.130 . S
C603 C94 1.882 . S
C618 C368 2.509 . S
C613 C118 2.194 . S
C623 C16 1.989 . S
C628 C388 2.225 . S
