# Generated by pormake.
# Topology anh, (6,3)-cn, num edge types: 1
# Building blocks:
#     Node 0, Type 0, BuildingBlock: BETFEN_clean_sbu_0, # of connection points: 6
#     Node 1, Type 0, BuildingBlock: BETFEN_clean_sbu_0, # of connection points: 6
#     Node 2, Type 0, BuildingBlock: BETFEN_clean_sbu_0, # of connection points: 6
#     Node 3, Type 1, BuildingBlock: QEWDON_clean_linker_0, # of connection points: 3
#     Node 4, Type 1, BuildingBlock: QEWDON_clean_linker_0, # of connection points: 3
#     Node 5, Type 1, BuildingBlock: QEWDON_clean_linker_0, # of connection points: 3
#     Node 6, Type 1, BuildingBlock: QEWDON_clean_linker_0, # of connection points: 3
#     Node 7, Type 1, BuildingBlock: QEWDON_clean_linker_0, # of connection points: 3
#     Node 8, Type 1, BuildingBlock: QEWDON_clean_linker_0, # of connection points: 3
#     Edge 9, Type (0, 1), BuildingBlock: ZUJKAS_clean_linker_0, # of connection points: 2
#     Edge 10, Type (0, 1), BuildingBlock: ZUJKAS_clean_linker_0, # of connection points: 2
#     Edge 11, Type (0, 1), BuildingBlock: ZUJKAS_clean_linker_0, # of connection points: 2
#     Edge 12, Type (0, 1), BuildingBlock: ZUJKAS_clean_linker_0, # of connection points: 2
#     Edge 13, Type (0, 1), BuildingBlock: ZUJKAS_clean_linker_0, # of connection points: 2
#     Edge 14, Type (0, 1), BuildingBlock: ZUJKAS_clean_linker_0, # of connection points: 2
#     Edge 15, Type (0, 1), BuildingBlock: ZUJKAS_clean_linker_0, # of connection points: 2
#     Edge 16, Type (0, 1), BuildingBlock: ZUJKAS_clean_linker_0, # of connection points: 2
#     Edge 17, Type (0, 1), BuildingBlock: ZUJKAS_clean_linker_0, # of connection points: 2
#     Edge 18, Type (0, 1), BuildingBlock: ZUJKAS_clean_linker_0, # of connection points: 2
#     Edge 19, Type (0, 1), BuildingBlock: ZUJKAS_clean_linker_0, # of connection points: 2
#     Edge 20, Type (0, 1), BuildingBlock: ZUJKAS_clean_linker_0, # of connection points: 2
#     Edge 21, Type (0, 1), BuildingBlock: ZUJKAS_clean_linker_0, # of connection points: 2
#     Edge 22, Type (0, 1), BuildingBlock: ZUJKAS_clean_linker_0, # of connection points: 2
#     Edge 23, Type (0, 1), BuildingBlock: ZUJKAS_clean_linker_0, # of connection points: 2
#     Edge 24, Type (0, 1), BuildingBlock: ZUJKAS_clean_linker_0, # of connection points: 2
#     Edge 25, Type (0, 1), BuildingBlock: ZUJKAS_clean_linker_0, # of connection points: 2
#     Edge 26, Type (0, 1), BuildingBlock: ZUJKAS_clean_linker_0, # of connection points: 2
# Relax obj value: 0.112
# Max RMSD: 0.164
# Mean RMSD: 0.127
data_MOF--net-anh--node1-BETFEN_clean_sbu_0--node2-QEWDON_clean_linker_0--edge1-ZUJKAS_clean_linker_0
_symmetry_space_group_name_H-M    P1
_symmetry_Int_Tables_number       1
_symmetry_cell_setting            triclinic
loop_
_symmetry_equiv_pos_as_xyz
'x, y, z'
_cell_length_a     40.049799
_cell_length_b     40.688533
_cell_length_c     62.574365
_cell_angle_alpha  94.071957
_cell_angle_beta   95.737297
_cell_angle_gamma 105.6731
loop_
_atom_site_label
_atom_site_type_symbol
_atom_site_fract_x
_atom_site_fract_y
_atom_site_fract_z
_atom_type_partial_charge
Pr0 Pr 0.07141 0.57482 0.15667 0.0
Pr1 Pr 0.0892 0.64883 0.14467 0.0
C2 C 0.04636 0.5156 0.17408 0.0
C3 C 1.01223 0.49237 0.17671 0.0
C4 C 0.98133 0.496 0.16574 0.0
C5 C 0.94907 0.47324 0.16805 0.0
C6 C 0.94718 0.44656 0.18143 0.0
C7 C 0.97827 0.44342 0.19261 0.0
C8 C 1.01051 0.46613 0.19024 0.0
C9 C 0.07588 0.58096 0.11295 0.0
C10 C 1.00716 0.61165 0.14516 0.0
C11 C 0.11477 0.70905 0.12859 0.0
C12 C 0.14757 0.73683 0.13239 0.0
C13 C 0.17205 0.73844 0.15038 0.0
C14 C 0.20282 0.76542 0.15425 0.0
C15 C 0.20977 0.79122 0.14012 0.0
C16 C 0.18531 0.78905 0.12189 0.0
C17 C 0.15447 0.7621 0.11809 0.0
C18 C 0.08491 0.6424 0.18841 0.0
C19 C 0.15389 0.61154 0.15479 0.0
O20 O 0.05486 0.54576 0.18518 0.0
O21 O 0.05449 0.51686 0.15438 0.0
O22 O 0.0613 0.5978 0.12479 0.0
O23 O 0.0871 0.55867 0.12328 0.0
O24 O 1.02895 0.63414 0.13525 0.0
O25 O 1.01809 0.58949 0.1565 0.0
O26 O 0.11668 0.67971 0.11958 0.0
O27 O 0.09549 0.70566 0.14442 0.0
O28 O 0.09959 0.6259 0.17645 0.0
O29 O 0.07361 0.66469 0.17818 0.0
O30 O 0.13214 0.58646 0.16295 0.0
O31 O 0.14312 0.63583 0.1457 0.0
H32 H 0.98219 0.5163 0.15533 0.0
H33 H 0.92559 0.47665 0.15945 0.0
H34 H 0.97778 0.42296 0.20284 0.0
H35 H 1.03414 0.46301 0.19883 0.0
H36 H 0.16715 0.71901 0.16155 0.0
H37 H 0.22077 0.76644 0.16858 0.0
H38 H 0.19004 0.8081 0.11048 0.0
H39 H 0.13592 0.76107 0.10404 0.0
Pr40 Pr 0.61 0.12548 0.50459 0.0
Pr41 Pr 0.52657 0.1032 0.5102 0.0
C42 C 0.67439 0.1517 0.49348 0.0
C43 C 0.69592 0.18455 0.48776 0.0
C44 C 0.69104 0.21579 0.49581 0.0
C45 C 0.71331 0.2469 0.49156 0.0
C46 C 0.74071 0.24732 0.47905 0.0
C47 C 0.74474 0.21594 0.47043 0.0
C48 C 0.72257 0.18482 0.47482 0.0
C49 C 0.59174 0.11596 0.54582 0.0
C50 C 0.56659 0.18635 0.50883 0.0
C51 C 0.46591 0.08127 0.52658 0.0
C52 C 0.43594 1.05026 0.52292 0.0
C53 C 0.40191 0.05318 0.52321 0.0
C54 C 0.37322 1.02396 0.51919 0.0
C55 C 0.37816 0.99128 0.51495 0.0
C56 C 0.41235 0.98845 0.51483 0.0
C57 C 0.44096 1.01766 0.51867 0.0
C58 C 0.53673 0.0989 0.4664 0.0
C59 C 0.5704 1.04294 0.50549 0.0
O60 O 0.64771 0.13484 0.47943 0.0
O61 O 0.66755 0.15113 0.51351 0.0
O62 O 0.57728 0.13031 0.53192 0.0
O63 O 0.61812 0.10724 0.53902 0.0
O64 O 0.53888 0.16341 0.51402 0.0
O65 O 0.59454 0.17777 0.50323 0.0
O66 O 0.4955 0.07732 0.53544 0.0
O67 O 0.46962 0.10136 0.51096 0.0
O68 O 0.55929 0.10737 0.48265 0.0
O69 O 0.50582 0.09094 0.47266 0.0
O70 O 0.59687 0.06529 0.49856 0.0
O71 O 0.54374 1.05213 0.5126 0.0
H72 H 0.67041 0.21614 0.50571 0.0
H73 H 0.70922 0.27065 0.49815 0.0
H74 H 0.76574 0.21543 0.46087 0.0
H75 H 0.72669 0.16094 0.46846 0.0
H76 H 0.39751 0.0781 0.52642 0.0
H77 H 0.34719 1.0269 0.51952 0.0
H78 H 0.41696 0.96371 0.5113 0.0
H79 H 0.46698 1.01476 0.51811 0.0
Pr80 Pr 0.56218 0.55434 0.81375 0.0
Pr81 Pr 0.58736 0.63089 0.84073 0.0
C82 C 0.56027 0.49859 0.78787 0.0
C83 C 0.58255 0.47566 0.79119 0.0
C84 C 0.60016 0.47643 0.81186 0.0
C85 C 0.62091 0.45447 0.8157 0.0
C86 C 0.62481 0.4317 0.79887 0.0
C87 C 0.60849 0.43199 0.77794 0.0
C88 C 0.58733 0.45386 0.77412 0.0
C89 C 0.56293 0.55757 0.85825 0.0
C90 C 0.64843 0.59362 0.82963 0.0
C91 C 0.59786 0.67981 0.87376 0.0
C92 C 0.58183 0.70669 0.88039 0.0
C93 C 0.60186 0.73602 0.8936 0.0
C94 C 0.58696 0.76214 0.89952 0.0
C95 C 0.55173 0.75912 0.89238 0.0
C96 C 0.53161 0.72933 0.87945 0.0
C97 C 0.54657 0.70339 0.87343 0.0
C98 C 0.57632 0.63438 0.79586 0.0
C99 C 0.50264 0.59291 0.82231 0.0
O100 O 0.57671 0.52957 0.78385 0.0
O101 O 0.53826 0.49829 0.80209 0.0
O102 O 0.5855 0.57615 0.84829 0.0
O103 O 0.5397 0.53435 0.84515 0.0
O104 O 0.64165 0.62015 0.83998 0.0
O105 O 0.62363 0.5675 0.81899 0.0
O106 O 0.57868 0.6482 0.87413 0.0
O107 O 0.61473 0.6844 0.85678 0.0
O108 O 0.57216 0.60869 0.80618 0.0
O109 O 0.58746 0.66192 0.80948 0.0
O110 O 0.51139 0.57185 0.80815 0.0
O111 O 0.52575 0.6134 0.83766 0.0
H112 H 0.59735 0.49365 0.82516 0.0
H113 H 0.63334 0.45474 0.83194 0.0
H114 H 0.61094 0.41435 0.76477 0.0
H115 H 0.57433 0.45336 0.75802 0.0
H116 H 0.6291 0.73887 0.89914 0.0
H117 H 0.60302 0.7848 0.90954 0.0
H118 H 0.50459 0.72656 0.87338 0.0
H119 H 0.53074 0.68096 0.8631 0.0
H120 H 0.57996 0.16208 0.23553 0.0
C121 C 0.56061 0.13914 0.22784 0.0
C122 C 0.54692 0.11218 0.2402 0.0
C123 C 0.5485 0.13717 0.20576 0.0
H124 H 0.50936 0.06268 0.23961 0.0
C125 C 0.52129 0.08289 0.23007 0.0
C126 C 0.50912 0.08031 0.20803 0.0
C127 C 0.523 0.10747 0.19599 0.0
C128 C 0.56069 0.16683 0.19313 0.0
H129 H 0.51383 0.10551 0.17892 0.0
C130 C 0.59627 0.18547 0.19502 0.0
C131 C 0.60739 0.21333 0.18277 0.0
C132 C 0.53634 0.17678 0.17909 0.0
H133 H 0.50874 0.16344 0.17759 0.0
C134 C 0.54718 0.20445 0.16709 0.0
H135 H 0.61535 0.17777 0.20555 0.0
C136 C 0.5824 0.2226 0.16886 0.0
H137 H 0.59 0.24425 0.15953 0.0
H138 H 0.52816 0.21198 0.15644 0.0
H139 H 0.55182 0.63321 0.5551 0.0
C140 C 0.55569 0.60868 0.55001 0.0
C141 C 0.55633 0.58533 0.56549 0.0
C142 C 0.55842 0.60004 0.52813 0.0
H143 H 0.55944 0.53439 0.57076 0.0
C144 C 0.5587 0.55241 0.55889 0.0
C145 C 0.56089 0.54246 0.53728 0.0
C146 C 0.56191 0.56675 0.52213 0.0
C147 C 0.55556 0.62486 0.51154 0.0
H148 H 0.56473 0.55916 0.50564 0.0
C149 C 0.56414 0.66114 0.51699 0.0
C150 C 0.56029 0.68349 0.50108 0.0
C151 C 0.54266 0.61204 0.48989 0.0
H152 H 0.53412 0.58481 0.48486 0.0
C153 C 0.53943 0.63403 0.47421 0.0
H154 H 0.57431 0.67229 0.53334 0.0
C155 C 0.54822 0.66932 0.47968 0.0
H156 H 0.54468 0.68559 0.46716 0.0
H157 H 0.52948 0.62354 0.4577 0.0
H158 H 0.10636 0.60708 0.87599 0.0
C159 C 0.07887 0.60107 0.86991 0.0
C160 C 0.05379 0.59097 0.88411 0.0
C161 C 0.06854 0.60407 0.84809 0.0
H162 H 0.99906 0.57828 0.88775 0.0
C163 C 1.01824 0.5844 0.87651 0.0
C164 C 1.00729 0.5878 0.85501 0.0
C165 C 1.03254 0.5971 0.84083 0.0
C166 C 0.09509 0.6157 0.83303 0.0
H167 H 1.02396 0.59883 0.82407 0.0
C168 C 0.12637 0.60571 0.83424 0.0
C169 C 0.15073 0.61635 0.81957 0.0
C170 C 0.08917 0.63713 0.8172 0.0
H171 H 0.06611 0.64627 0.81615 0.0
C172 C 0.11318 0.64757 0.80266 0.0
H173 H 0.13146 0.58906 0.84616 0.0
C174 C 0.14366 0.63717 0.80373 0.0
H175 H 0.1621 0.646 0.79242 0.0
H176 H 0.10825 0.66402 0.79058 0.0
H177 H 1.01161 0.61781 0.4177 0.0
C178 C 1.03427 0.63777 0.42543 0.0
C179 C 0.05975 0.65444 0.41289 0.0
C180 C 0.03683 0.64839 0.44761 0.0
H181 H 0.10827 0.69394 0.41337 0.0
C182 C 0.08824 0.68127 0.42285 0.0
C183 C 0.09127 0.69215 0.44487 0.0
C184 C 0.0658 0.67528 0.45723 0.0
C185 C 1.00802 0.63356 0.46041 0.0
H186 H 0.068 0.68384 0.47425 0.0
C187 C 0.99161 0.59796 0.45851 0.0
C188 C 0.96437 0.58441 0.47082 0.0
C189 C 0.99645 0.65544 0.47452 0.0
H190 H 1.00796 0.68297 0.476 0.0
C191 C 0.96942 0.6422 0.48659 0.0
H192 H 1.00057 0.58081 0.44789 0.0
C193 C 0.95346 0.60701 0.48479 0.0
H194 H 0.93215 0.59755 0.49414 0.0
H195 H 0.96061 0.65934 0.49728 0.0
H196 H 0.46687 0.07065 0.76509 0.0
C197 C 0.4918 0.08522 0.77389 0.0
C198 C 0.51952 0.10054 0.76262 0.0
C199 C 0.49616 0.08913 0.79656 0.0
H200 H 0.57254 0.1321 0.76529 0.0
C201 C 0.55154 0.11954 0.77415 0.0
C202 C 0.55631 0.12373 0.7968 0.0
C203 C 0.52846 0.1081 0.80795 0.0
C204 C 0.46694 0.07356 0.80847 0.0
H205 H 0.53154 0.11138 0.82545 0.0
C206 C 0.46936 1.04723 0.82124 0.0
C207 C 0.44169 1.0318 0.83261 0.0
C208 C 0.43677 0.08491 0.80724 0.0
H209 H 0.43452 0.10528 0.79742 0.0
C210 C 0.40952 0.07029 0.81897 0.0
H211 H 0.49272 1.0385 0.82211 0.0
C212 C 0.41191 1.04387 0.83165 0.0
H213 H 0.39023 1.03232 0.84025 0.0
H214 H 0.38636 0.07926 0.81809 0.0
H215 H 0.55604 0.62786 0.09731 0.0
C216 C 0.58176 0.62556 0.10274 0.0
C217 C 0.60121 0.61447 0.08763 0.0
C218 C 0.59576 0.63466 0.12462 0.0
H219 H 0.65091 0.6057 0.08298 0.0
C220 C 0.63519 0.61303 0.09458 0.0
C221 C 0.64963 0.62167 0.11626 0.0
C222 C 0.62951 0.63167 0.13128 0.0
C223 C 0.57655 0.65004 0.14008 0.0
H224 H 0.64073 0.63822 0.14803 0.0
C225 C 0.5396 0.63955 0.13869 0.0
C226 C 0.522 0.65639 0.15233 0.0
C227 C 0.59533 0.67707 0.15571 0.0
H228 H 0.62351 0.6866 0.15697 0.0
C229 C 0.57802 0.69308 0.16956 0.0
H230 H 0.52449 0.61886 0.12682 0.0
C231 C 0.54168 0.68299 0.16786 0.0
H232 H 0.52889 0.69606 0.17873 0.0
H233 H 0.59285 0.71382 0.18147 0.0
H234 H 0.18537 0.56112 0.16431 0.0
H235 H 0.24735 0.56356 0.16423 0.0
H236 H 0.26905 0.66714 0.14679 0.0
H237 H 0.20754 0.665 0.14669 0.0
H238 H 0.29031 0.58273 0.12653 0.0
H239 H 0.33885 0.66815 0.20302 0.0
H240 H 0.2941 0.64201 0.19681 0.0
H241 H 0.30874 0.6808 0.18425 0.0
C242 C 0.20337 0.58447 0.16057 0.0
C243 C 0.19144 0.61287 0.15555 0.0
C244 C 0.23871 0.58575 0.16044 0.0
C245 C 0.26274 0.61558 0.1556 0.0
C246 C 0.25095 0.64395 0.1507 0.0
H247 H 0.48129 0.70008 0.15002 0.0
H248 H 0.4181 0.68677 0.15006 0.0
C249 C 0.21571 0.64261 0.15062 0.0
C250 C 0.30024 0.61742 0.1555 0.0
H251 H 0.38139 0.65931 0.1813 0.0
C252 C 0.31032 0.59913 0.13861 0.0
C253 C 0.32614 0.63892 0.17124 0.0
C254 C 0.31659 0.65846 0.18999 0.0
C255 C 0.34583 0.60291 0.13654 0.0
C256 C 0.37185 0.62502 0.15209 0.0
C257 C 0.36154 0.64247 0.16933 0.0
C258 C 0.40992 0.63201 0.15037 0.0
C259 C 0.35513 0.58442 0.11724 0.0
C260 C 0.42651 0.60562 0.15021 0.0
C261 C 0.46282 0.6132 0.14999 0.0
C262 C 0.48317 0.64736 0.1503 0.0
C263 C 0.46636 0.67355 0.15001 0.0
C264 C 0.43022 0.66596 0.15003 0.0
H265 H 0.33276 0.57559 0.10422 0.0
H266 H 0.37761 0.60119 0.11059 0.0
H267 H 0.36261 0.56151 0.12226 0.0
H268 H 0.41159 0.5793 0.1509 0.0
H269 H 0.47512 0.59256 0.15043 0.0
H270 H 0.76653 0.2675 0.44163 0.0
H271 H 0.80895 0.32181 0.43675 0.0
H272 H 0.81381 0.35576 0.50413 0.0
H273 H 0.77181 0.30164 0.50918 0.0
H274 H 0.8019 0.39133 0.44706 0.0
H275 H 0.91783 0.36815 0.49304 0.0
H276 H 0.87942 0.33389 0.48225 0.0
H277 H 0.87936 0.36001 0.50662 0.0
C278 C 0.77683 0.28648 0.45541 0.0
C279 C 0.76583 0.28032 0.47579 0.0
C280 C 0.80093 0.31747 0.45259 0.0
C281 C 0.81479 0.34253 0.47015 0.0
C282 C 0.80374 0.33652 0.49045 0.0
H283 H 0.94528 0.5454 0.50369 0.0
H284 H 0.91089 0.48548 0.50099 0.0
C285 C 0.77949 0.30574 0.49325 0.0
C286 C 0.8401 0.3755 0.46732 0.0
H287 H 0.92284 0.42551 0.48499 0.0
C288 C 0.82853 0.39873 0.45505 0.0
C289 C 0.87474 0.3849 0.4778 0.0
C290 C 0.8888 0.36037 0.49053 0.0
C291 C 0.85019 0.43192 0.4539 0.0
C292 C 0.88458 0.44174 0.46493 0.0
C293 C 0.8965 0.41796 0.47654 0.0
C294 C 0.90749 0.47741 0.46619 0.0
C295 C 0.83544 0.45672 0.44183 0.0
C296 C 0.91784 0.4926 0.44756 0.0
C297 C 0.93729 0.52712 0.44904 0.0
C298 C 0.94681 0.54694 0.46919 0.0
C299 C 0.93774 0.53109 0.48787 0.0
C300 C 0.9183 0.49674 0.48638 0.0
H301 H 0.80652 0.44752 0.43822 0.0
H302 H 0.84261 0.48234 0.45125 0.0
H303 H 0.84645 0.45978 0.42628 0.0
H304 H 0.91041 0.47794 0.43186 0.0
H305 H 0.94384 0.53855 0.43435 0.0
H306 H 0.58121 0.82675 0.88889 0.0
H307 H 0.55302 0.87274 0.89022 0.0
H308 H 0.45958 0.80282 0.90684 0.0
H309 H 0.48769 0.75632 0.90517 0.0
H310 H 0.44499 0.8327 0.87298 0.0
H311 H 0.52641 0.93433 0.93388 0.0
H312 H 0.55386 0.92104 0.91618 0.0
H313 H 0.52978 0.89085 0.93277 0.0
C314 C 0.55507 0.8214 0.89352 0.0
C315 C 0.53659 0.78794 0.89684 0.0
C316 C 0.53901 0.84781 0.89442 0.0
C317 C 0.50433 0.84143 0.89899 0.0
C318 C 0.48642 0.80839 0.90343 0.0
H319 H 0.42755 1.02116 0.87399 0.0
H320 H 0.43454 0.97303 0.89406 0.0
C321 C 0.50242 0.78184 0.90236 0.0
C322 C 0.4855 0.86771 0.89553 0.0
H323 H 0.49748 0.9542 0.90262 0.0
C324 C 0.45586 0.85908 0.88 0.0
C325 C 0.49907 0.90205 0.90492 0.0
C326 C 0.52881 0.91245 0.92305 0.0
C327 C 0.44176 0.8844 0.87203 0.0
C328 C 0.45813 0.91919 0.8795 0.0
C329 C 0.48538 0.92751 0.89661 0.0
C330 C 0.4512 0.94707 0.86747 0.0
C331 C 0.41065 0.87386 0.8548 0.0
C332 C 0.45848 0.94835 0.84604 0.0
C333 C 0.45468 0.97558 0.8347 0.0
C334 C 0.4437 1.00223 0.8446 0.0
C335 C 0.43584 1.00076 0.86598 0.0
C336 C 0.43989 0.97345 0.87744 0.0
H337 H 0.39415 0.84759 0.85635 0.0
H338 H 0.39433 0.89197 0.8556 0.0
H339 H 0.41994 0.87364 0.83868 0.0
H340 H 0.4679 0.92859 0.8382 0.0
H341 H 0.46062 0.97593 0.81819 0.0
H342 H 0.97411 0.6498 0.12097 0.0
H343 H 0.91334 0.65102 0.11958 0.0
H344 H 0.89497 0.57544 0.16521 0.0
H345 H 0.95567 0.57344 0.16634 0.0
H346 H 0.84235 0.56111 0.13218 0.0
H347 H 0.87077 0.69728 0.16444 0.0
H348 H 0.89245 0.69221 0.14121 0.0
H349 H 0.90373 0.67451 0.16559 0.0
C350 C 0.95723 0.63343 0.13075 0.0
C351 C 0.96992 0.61168 0.14387 0.0
C352 C 0.92249 0.63437 0.13007 0.0
C353 C 0.89974 0.61395 0.1427 0.0
C354 C 0.91211 0.59168 0.15549 0.0
H355 H 0.67586 0.59328 0.15039 0.0
H356 H 0.73641 0.59089 0.1592 0.0
C357 C 0.94685 0.59057 0.1561 0.0
C358 C 0.86286 0.61526 0.14204 0.0
H359 H 0.81253 0.67049 0.14716 0.0
C360 C 0.83581 0.58493 0.13576 0.0
C361 C 0.85427 0.64632 0.14686 0.0
C362 C 0.88183 0.67934 0.15512 0.0
C363 C 0.80058 0.58514 0.13321 0.0
C364 C 0.79218 0.61643 0.13717 0.0
C365 C 0.81908 0.64656 0.14406 0.0
C366 C 0.75586 0.61884 0.13276 0.0
C367 C 0.7726 0.55219 0.12546 0.0
C368 C 0.74702 0.63596 0.11533 0.0
C369 C 0.71268 0.63728 0.11028 0.0
C370 C 0.68644 0.62173 0.12268 0.0
C371 C 0.69554 0.6055 0.14058 0.0
C372 C 0.72999 0.60393 0.14553 0.0
H373 H 0.78373 0.53106 0.12042 0.0
H374 H 0.75658 0.54416 0.13866 0.0
H375 H 0.75493 0.55614 0.11163 0.0
H376 H 0.76663 0.6478 0.10536 0.0
H377 H 0.70658 0.65041 0.09658 0.0
H378 H 0.3701 0.92873 0.53047 0.0
H379 H 0.32113 0.87677 0.52078 0.0
H380 H 0.26891 0.93179 0.47873 0.0
H381 H 0.31774 0.98378 0.48822 0.0
H382 H 0.24093 0.87139 0.52208 0.0
H383 H 0.28293 0.84232 0.44238 0.0
H384 H 0.31321 0.8675 0.46476 0.0
H385 H 0.28335 0.88598 0.44998 0.0
C386 C 0.34816 0.92974 0.51917 0.0
C387 C 0.34779 0.9603 0.51005 0.0
C388 C 0.3202 0.90015 0.51377 0.0
C389 C 0.29163 0.90057 0.49901 0.0
C390 C 0.29085 0.93108 0.49014 0.0
H391 H 0.11194 0.75375 0.42879 0.0
H392 H 0.16032 0.80351 0.4435 0.0
C393 C 0.31864 0.96075 0.49566 0.0
C394 C 0.26302 0.86885 0.49227 0.0
H395 H 0.22878 0.80765 0.44982 0.0
C396 C 0.23824 0.85723 0.50635 0.0
C397 C 0.2598 0.85067 0.47176 0.0
C398 C 0.28627 0.86196 0.45629 0.0
C399 C 0.20949 0.82827 0.50014 0.0
C400 C 0.20609 0.81014 0.47949 0.0
C401 C 0.23138 0.82156 0.46562 0.0
C402 C 0.17582 0.78014 0.47144 0.0
C403 C 0.18245 0.81815 0.5154 0.0
C404 C 0.16834 0.7504 0.48229 0.0
C405 C 0.14044 0.7219 0.47395 0.0
C406 C 0.12002 0.72254 0.45444 0.0
C407 C 0.12751 0.75239 0.44371 0.0
C408 C 0.15508 0.78086 0.45213 0.0
H409 H 0.18409 0.83952 0.5279 0.0
H410 H 0.15565 0.80999 0.50653 0.0
H411 H 0.18688 0.79628 0.52378 0.0
H412 H 0.18446 0.74895 0.49695 0.0
H413 H 0.13538 0.6991 0.48242 0.0
H414 H 0.67864 0.41628 0.7802 0.0
H415 H 0.70249 0.36755 0.78647 0.0
H416 H 0.63177 0.33763 0.83393 0.0
H417 H 0.60978 0.38698 0.82864 0.0
H418 H 0.69135 0.32268 0.84538 0.0
H419 H 0.64659 0.27651 0.75824 0.0
H420 H 0.6811 0.31563 0.76458 0.0
H421 H 0.63762 0.31413 0.77036 0.0
C422 C 0.66882 0.39948 0.79221 0.0
C423 C 0.64219 0.40497 0.80379 0.0
C424 C 0.68231 0.37167 0.79574 0.0
C425 C 0.66835 0.34839 0.8103 0.0
C426 C 0.64312 0.35519 0.82266 0.0
H427 H 0.5614 0.17315 0.82967 0.0
H428 H 0.60895 0.22535 0.83839 0.0
C429 C 0.63036 0.38329 0.81954 0.0
C430 C 0.67557 0.31455 0.81099 0.0
H431 H 0.65132 0.23634 0.78159 0.0
C432 C 0.68364 0.30391 0.83131 0.0
C433 C 0.66634 0.29007 0.79257 0.0
C434 C 0.65728 0.29943 0.77021 0.0
C435 C 0.67794 0.26899 0.83411 0.0
C436 C 0.66424 0.24438 0.81613 0.0
C437 C 0.66147 0.25533 0.79543 0.0
C438 C 0.64386 0.20886 0.81847 0.0
C439 C 0.6839 0.25863 0.85651 0.0
C440 C 0.64841 0.18122 0.8055 0.0
C441 C 0.62103 0.15112 0.80047 0.0
C442 C 0.58862 0.14851 0.80814 0.0
C443 C 0.58596 0.17428 0.82349 0.0
C444 C 0.61339 0.20424 0.82861 0.0
H445 H 0.70658 0.27767 0.86617 0.0
H446 H 0.66053 0.25794 0.86482 0.0
H447 H 0.68851 0.23289 0.85607 0.0
H448 H 0.67167 0.18424 0.7975 0.0
H449 H 0.62407 0.13127 0.78897 0.0
H450 H 0.52648 0.99191 0.52416 0.0
H451 H 0.52785 0.93255 0.52611 0.0
H452 H 0.61565 0.95041 0.48957 0.0
H453 H 0.61514 1.01025 0.48814 0.0
H454 H 0.51823 0.88048 0.49684 0.0
H455 H 0.65301 0.90645 0.53781 0.0
H456 H 0.63153 0.93984 0.535 0.0
H457 H 0.65179 0.92577 0.51298 0.0
C458 C 0.54624 0.98338 0.51657 0.0
C459 C 0.57085 1.00625 0.50608 0.0
C460 C 0.54699 0.94922 0.51772 0.0
C461 C 0.57231 0.93675 0.50841 0.0
C462 C 0.59647 0.95935 0.49752 0.0
H463 H 0.60085 0.73455 0.48108 0.0
H464 H 0.60446 0.79583 0.48471 0.0
C465 C 0.59595 0.99366 0.49653 0.0
C466 C 0.57261 0.89998 0.50959 0.0
H467 H 0.62508 0.84856 0.52308 0.0
C468 C 0.54158 0.87365 0.5028 0.0
C469 C 0.60293 0.8906 0.51743 0.0
C470 C 0.63658 0.91715 0.52643 0.0
C471 C 0.54027 0.83867 0.50309 0.0
C472 C 0.57073 0.82938 0.51047 0.0
C473 C 0.6017 0.85556 0.51741 0.0
C474 C 0.57116 0.79261 0.51007 0.0
C475 C 0.50647 0.81173 0.49493 0.0
C476 C 0.55222 0.77033 0.52364 0.0
C477 C 0.5505 0.73518 0.52178 0.0
C478 C 0.5674 0.7215 0.50617 0.0
C479 C 0.5875 0.7442 0.49326 0.0
C480 C 0.58955 0.77928 0.4953 0.0
H481 H 0.48685 0.82283 0.48664 0.0
H482 H 0.51122 0.79172 0.48357 0.0
H483 H 0.49528 0.79904 0.50875 0.0
H484 H 0.53806 0.77999 0.53532 0.0
H485 H 0.53454 0.71841 0.53181 0.0
H486 H 0.70779 0.64306 0.84763 0.0
H487 H 0.76826 0.64052 0.84908 0.0
H488 H 0.73309 0.53873 0.8154 0.0
H489 H 0.67263 0.54114 0.81355 0.0
H490 H 0.79799 0.59495 0.86837 0.0
H491 H 0.80936 0.58714 0.78062 0.0
H492 H 0.77405 0.59942 0.79171 0.0
H493 H 0.77317 0.55495 0.78801 0.0
C494 C 0.71285 0.62018 0.84041 0.0
C495 C 0.68525 0.59238 0.8304 0.0
C496 C 0.74748 0.61879 0.84125 0.0
C497 C 0.75526 0.58966 0.83205 0.0
C498 C 0.7278 0.56179 0.82216 0.0
H499 H 0.95042 0.53829 0.86402 0.0
H500 H 0.88885 0.5372 0.85718 0.0
C501 C 0.69317 0.56317 0.82125 0.0
C502 C 0.79201 0.58797 0.83364 0.0
H503 H 0.85619 0.57798 0.80375 0.0
C504 C 0.81073 0.5913 0.85424 0.0
C505 C 0.8087 0.58353 0.81517 0.0
C506 C 0.79045 0.58137 0.79261 0.0
C507 C 0.84554 0.58998 0.85691 0.0
C508 C 0.86194 0.58459 0.83847 0.0
C509 C 0.84341 0.58169 0.81785 0.0
C510 C 0.89867 0.58293 0.84042 0.0
C511 C 0.8647 0.59506 0.87946 0.0
C512 C 0.92442 0.60804 0.83236 0.0
C513 C 0.95964 0.60867 0.83618 0.0
C514 C 0.96969 0.58412 0.8481 0.0
C515 C 0.94357 0.55789 0.85511 0.0
C516 C 0.9084 0.55726 0.85124 0.0
H517 H 0.85145 0.60708 0.89128 0.0
H518 H 0.86564 0.56975 0.88462 0.0
H519 H 0.89197 0.61138 0.87999 0.0
H520 H 0.91743 0.628 0.82388 0.0
H521 H 0.97911 0.62934 0.8307 0.0
H522 H 0.2166 0.85887 0.1346 0.0
H523 H 0.269 0.90733 0.14299 0.0
H524 H 0.3277 0.83931 0.16562 0.0
H525 H 0.27587 0.79044 0.15631 0.0
H526 H 0.30612 0.93128 0.1821 0.0
H527 H 0.39218 0.89326 0.12685 0.0
H528 H 0.34582 0.87264 0.12436 0.0
H529 H 0.37526 0.861 0.14413 0.0
C530 C 0.24081 0.85403 0.14091 0.0
C531 C 0.24197 0.82064 0.14468 0.0
C532 C 0.2707 0.88185 0.14586 0.0
C533 C 0.30243 0.87692 0.15464 0.0
C534 C 0.30374 0.84367 0.15841 0.0
H535 H 0.50183 1.01245 0.21282 0.0
H536 H 0.45179 0.96333 0.19888 0.0
C537 C 0.2739 0.81579 0.15337 0.0
C538 C 0.33355 0.90685 0.16095 0.0
H539 H 0.41932 0.93978 0.15392 0.0
C540 C 0.33077 0.93326 0.17578 0.0
C541 C 0.36575 0.90939 0.15274 0.0
C542 C 0.36993 0.88273 0.13598 0.0
C543 C 0.35944 0.96178 0.18295 0.0
C544 C 0.39167 0.96411 0.17491 0.0
C545 C 0.39453 0.93783 0.16005 0.0
C546 C 0.42278 0.99353 0.18207 0.0
C547 C 0.35531 0.98886 0.19944 0.0
C548 C 0.42328 1.02659 0.17681 0.0
C549 C 0.45177 0.05466 0.18473 0.0
C550 C 0.48027 1.05014 0.19808 0.0
C551 C 0.4801 1.01678 0.20277 0.0
C552 C 0.45165 0.98871 0.19475 0.0
H553 H 0.33108 0.97994 0.20716 0.0
H554 H 0.37808 0.99646 0.21222 0.0
H555 H 0.35401 1.012 0.19139 0.0
H556 H 0.40134 1.03074 0.16686 0.0
H557 H 0.45097 0.08003 0.18097 0.0
H558 H 0.51814 0.21588 0.52397 0.0
H559 H 0.51892 0.27637 0.52651 0.0
H560 H 0.616 0.3018 0.49903 0.0
H561 H 0.61547 0.24127 0.49636 0.0
H562 H 0.57116 0.33297 0.54963 0.0
H563 H 0.55498 0.3494 0.46217 0.0
H564 H 0.5451 0.30768 0.47213 0.0
H565 H 0.58968 0.33143 0.47115 0.0
C566 C 0.53962 0.23419 0.5183 0.0
C567 C 0.56671 0.22336 0.5099 0.0
C568 C 0.54003 0.26892 0.51981 0.0
C569 C 0.56727 0.29383 0.51272 0.0
C570 C 0.59433 0.28316 0.50426 0.0
H571 H 0.60524 0.51864 0.51292 0.0
H572 H 0.60807 0.45904 0.50651 0.0
C573 C 0.59408 0.24842 0.50288 0.0
C574 C 0.56786 0.33096 0.51503 0.0
H575 H 0.56408 0.39906 0.48651 0.0
C576 C 0.56957 0.34736 0.5358 0.0
C577 C 0.56622 0.35008 0.49707 0.0
C578 C 0.56363 0.33382 0.47432 0.0
C579 C 0.56977 0.38206 0.53913 0.0
C580 C 0.56707 0.401 0.52114 0.0
C581 C 0.56599 0.38477 0.50035 0.0
C582 C 0.56428 0.43717 0.52367 0.0
C583 C 0.57363 0.39822 0.56204 0.0
C584 C 0.53803 0.44491 0.53471 0.0
C585 C 0.53656 0.47883 0.53849 0.0
C586 C 0.56093 0.50614 0.53102 0.0
C587 C 0.58609 0.49829 0.51891 0.0
C588 C 0.58777 0.46419 0.51531 0.0
H589 H 0.58675 0.38463 0.57351 0.0
H590 H 0.58889 0.42565 0.56367 0.0
H591 H 0.54733 0.39653 0.56683 0.0
H592 H 0.51875 0.42468 0.5407 0.0
H593 H 0.5164 0.48378 0.5475 0.0
H594 H 0.44799 0.56144 0.79096 0.0
H595 H 0.38663 0.56123 0.79043 0.0
H596 H 0.41162 0.62368 0.85156 0.0
H597 H 0.4729 0.62426 0.85227 0.0
H598 H 0.34908 0.55988 0.84611 0.0
H599 H 0.3499 0.64947 0.78276 0.0
H600 H 0.36871 0.61459 0.77773 0.0
H601 H 0.38941 0.6481 0.7989 0.0
C602 C 0.44049 0.57519 0.80428 0.0
C603 C 0.46548 0.59298 0.82161 0.0
C604 C 0.40543 0.57506 0.80393 0.0
C605 C 0.3947 0.59253 0.82093 0.0
C606 C 0.41943 0.61005 0.8383 0.0
H607 H 0.19887 0.62279 0.85494 0.0
H608 H 0.25723 0.6142 0.85569 0.0
C609 C 0.45449 0.61045 0.8386 0.0
C610 C 0.35771 0.5928 0.82059 0.0
H611 H 0.29653 0.62674 0.79612 0.0
C612 C 0.33745 0.57441 0.83517 0.0
C613 C 0.34273 0.61167 0.80625 0.0
C614 C 0.3637 0.63231 0.79055 0.0
C615 C 0.30232 0.57411 0.83566 0.0
C616 C 0.28743 0.59355 0.82157 0.0
C617 C 0.30782 0.61179 0.80691 0.0
C618 C 0.25095 0.59584 0.82176 0.0
C619 C 0.28141 0.55238 0.85092 0.0
C620 C 0.22799 0.58871 0.80246 0.0
C621 C 0.19494 0.59415 0.80196 0.0
C622 C 0.18402 0.60667 0.82078 0.0
C623 C 0.20645 0.61267 0.84027 0.0
C624 C 0.23976 0.60764 0.84071 0.0
H625 H 0.29259 0.53119 0.85525 0.0
H626 H 0.28196 0.56858 0.86606 0.0
H627 H 0.25375 0.54116 0.84381 0.0
H628 H 0.23594 0.5796 0.78763 0.0
H629 H 0.1781 0.58917 0.78674 0.0
H630 H 0.89419 0.41591 0.14921 0.0
H631 H 0.83841 0.37425 0.15228 0.0
H632 H 0.86751 0.37821 0.22084 0.0
H633 H 0.92312 0.42049 0.218 0.0
H634 H 0.82859 0.3086 0.16888 0.0
H635 H 0.76961 0.39526 0.21558 0.0
H636 H 0.80646 0.41127 0.20106 0.0
H637 H 0.81259 0.39417 0.22636 0.0
C638 C 0.88855 0.40829 0.16499 0.0
C639 C 0.91304 0.42166 0.18338 0.0
C640 C 0.85678 0.3843 0.16669 0.0
C641 C 0.84872 0.37341 0.18681 0.0
C642 C 0.87305 0.38661 0.2052 0.0
H643 H 0.65468 0.23604 0.21923 0.0
H644 H 0.71523 0.27203 0.22159 0.0
C645 C 0.90492 0.41054 0.20351 0.0
C646 C 0.81506 0.34773 0.18834 0.0
H647 H 0.73681 0.33729 0.20811 0.0
C648 C 0.80854 0.3148 0.17751 0.0
C649 C 0.78912 0.35584 0.19977 0.0
C650 C 0.7945 0.3911 0.21126 0.0
C651 C 0.7766 0.28981 0.17763 0.0
C652 C 0.75021 0.29822 0.1885 0.0
C653 C 0.75708 0.33088 0.19981 0.0
C654 C 0.71455 0.2744 0.18712 0.0
C655 C 0.77145 0.25458 0.16617 0.0
C656 C 0.69415 0.26378 0.16698 0.0
C657 C 0.65976 0.24319 0.16559 0.0
C658 C 0.64486 0.23299 0.18433 0.0
C659 C 0.66551 0.24317 0.20449 0.0
C660 C 0.70001 0.26388 0.20587 0.0
H661 H 0.79684 0.24898 0.16472 0.0
H662 H 0.75515 0.23435 0.17474 0.0
H663 H 0.75801 0.25329 0.14961 0.0
H664 H 0.70457 0.27208 0.15233 0.0
H665 H 0.64468 0.23553 0.1498 0.0
H666 H 0.09973 0.54183 0.08432 0.0
H667 H 0.10171 0.54683 0.04571 0.0
H668 H 0.05993 0.63394 0.05089 0.0
H669 H 0.057 0.62844 0.08944 0.0
H670 H 1.02595 0.58848 0.01759 0.0
H671 H 0.16827 0.61424 0.01456 0.0
H672 H 0.15045 0.57595 0.02693 0.0
H673 H 0.14985 0.61689 0.03959 0.0
C674 C 0.09117 0.56219 0.07723 0.0
C675 C 0.07814 0.58472 0.08982 0.0
C676 C 0.09264 0.56521 0.05522 0.0
C677 C 0.0816 0.59115 0.04547 0.0
C678 C 0.0688 0.61386 0.0581 0.0
H679 H 0.1016 0.63948 0.91245 0.0
H680 H 0.11069 0.64022 0.95191 0.0
C681 C 0.06709 0.61069 0.08009 0.0
C682 C 0.08112 0.5931 0.02185 0.0
H683 H 0.13161 0.59756 0.98063 0.0
C684 C 0.04914 0.59076 0.00956 0.0
C685 C 0.11147 0.59656 0.01138 0.0
C686 C 0.14701 0.60142 0.02382 0.0
C687 C 0.04642 0.59079 0.98705 0.0
C688 C 0.07635 0.59232 0.97646 0.0
C689 C 0.1086 0.59579 0.98876 0.0
C690 C 0.07432 0.59023 0.9526 0.0
C691 C 1.01152 0.58945 0.97484 0.0
C692 C 0.05209 0.56129 0.93993 0.0
C693 C 0.04681 0.56087 0.91752 0.0
C694 C 0.06404 0.58922 0.90734 0.0
C695 C 0.08813 0.61724 0.9199 0.0
C696 C 0.09321 0.61775 0.94241 0.0
H697 H 0.99434 0.59816 0.98552 0.0
H698 H 1.0148 0.60564 0.96122 0.0
H699 H 0.99805 0.5626 0.96816 0.0
H700 H 0.03794 0.53943 0.94744 0.0
H701 H 1.02844 0.53879 0.90816 0.0
H702 H 0.59624 0.13426 0.45122 0.0
H703 H 0.60557 0.14084 0.41343 0.0
H704 H 0.50158 0.07477 0.39285 0.0
H705 H 0.49209 0.06867 0.43057 0.0
H706 H 0.60425 0.09545 0.37884 0.0
H707 H 0.50007 0.15962 0.36328 0.0
H708 H 0.51591 0.15272 0.39013 0.0
H709 H 0.48397 0.1187 0.37315 0.0
C710 C 0.57566 0.12077 0.4386 0.0
C711 C 0.54354 0.10087 0.44375 0.0
C712 C 0.5809 0.1247 0.41704 0.0
C713 C 0.55403 0.10884 0.40033 0.0
C714 C 0.52236 0.08797 0.40549 0.0
H715 H 0.55746 0.06231 0.26515 0.0
H716 H 0.5642 0.06495 0.30443 0.0
C717 C 0.51704 0.0843 0.42701 0.0
C718 C 0.55879 0.11427 0.37751 0.0
H719 H 0.5212 0.13858 0.33219 0.0
C720 C 0.58633 0.10521 0.36866 0.0
C721 C 0.53595 0.12783 0.36438 0.0
C722 C 0.50756 0.14063 0.37327 0.0
C723 C 0.59067 0.10789 0.34678 0.0
C724 C 0.56631 0.11917 0.33331 0.0
C725 C 0.5397 0.1296 0.34241 0.0
C726 C 0.56654 0.11876 0.30956 0.0
C727 C 0.62137 0.09873 0.33839 0.0
C728 C 0.56534 0.14804 0.29923 0.0
C729 C 0.56057 0.14638 0.27669 0.0
C730 C 0.55691 0.11535 0.264 0.0
C731 C 0.55975 0.08651 0.27441 0.0
C732 C 0.56415 0.08811 0.29693 0.0
H733 H 0.64342 0.10267 0.35146 0.0
H734 H 0.61337 0.07119 0.3321 0.0
H735 H 0.63076 0.11421 0.32515 0.0
H736 H 0.56691 0.17194 0.30863 0.0
H737 H 0.55806 0.16898 0.26928 0.0
H738 H 0.54697 0.57849 0.76684 0.0
H739 H 0.54169 0.57587 0.72736 0.0
H740 H 0.59032 0.68486 0.73171 0.0
H741 H 0.59564 0.68766 0.77131 0.0
H742 H 0.50772 0.61738 0.69886 0.0
H743 H 0.6498 0.63685 0.69404 0.0
H744 H 0.62964 0.62194 0.71745 0.0
H745 H 0.63746 0.66611 0.71256 0.0
C746 C 0.55653 0.60189 0.75938 0.0
C747 C 0.57196 0.63324 0.77209 0.0
C748 C 0.55338 0.60037 0.73685 0.0
C749 C 0.5659 0.63011 0.72667 0.0
C750 C 0.58081 0.66159 0.73931 0.0
H751 H 0.58961 0.64631 0.58989 0.0
H752 H 0.58959 0.66055 0.62859 0.0
C753 C 0.58373 0.66316 0.76187 0.0
C754 C 0.56371 0.62788 0.7028 0.0
H755 H 0.61314 0.62961 0.66129 0.0
C756 C 0.53074 0.62023 0.69059 0.0
C757 C 0.59383 0.63184 0.69214 0.0
C758 C 0.62976 0.63945 0.70461 0.0
C759 C 0.52704 0.61621 0.66791 0.0
C760 C 0.55707 0.61901 0.6572 0.0
C761 C 0.59013 0.62746 0.66947 0.0
C762 C 0.55474 0.61152 0.63341 0.0
C763 C 0.49101 0.60928 0.65568 0.0
C764 C 0.53507 0.5793 0.62319 0.0
C765 C 0.53472 0.57124 0.60108 0.0
C766 C 0.55448 0.59505 0.58868 0.0
C767 C 0.57379 0.62752 0.59888 0.0
C768 C 0.574 0.63562 0.62104 0.0
H769 H 0.47338 0.61918 0.66539 0.0
H770 H 0.49194 0.62115 0.64023 0.0
H771 H 0.47946 0.58116 0.652 0.0
H772 H 0.52061 0.55998 0.63243 0.0
H773 H 0.51923 0.54615 0.59373 0.0
H774 H 0.61279 0.07636 0.5747 0.0
H775 H 0.5926 0.06521 0.60987 0.0
H776 H 0.52243 0.12802 0.59924 0.0
H777 H 0.54198 0.13862 0.56393 0.0
H778 H 0.59967 0.11251 0.64323 0.0
H779 H 0.45917 1.04533 0.62115 0.0
H780 H 0.49008 1.05097 0.60165 0.0
H781 H 0.47194 0.08525 0.60955 0.0
C782 C 0.59281 0.08748 0.57981 0.0
C783 C 0.57895 0.10837 0.56668 0.0
C784 C 0.58121 0.081 0.59983 0.0
C785 C 0.55558 0.0953 0.60702 0.0
C786 C 0.54152 0.11596 0.59379 0.0
H787 H 0.53296 0.15265 0.73722 0.0
H788 H 0.53773 0.14838 0.69852 0.0
C789 C 0.55297 0.12228 0.57373 0.0
C790 C 0.54606 0.0914 0.62916 0.0
H791 H 0.47693 0.06906 0.65824 0.0
C792 C 0.57287 0.10259 0.64647 0.0
C793 C 0.51111 0.07816 0.63338 0.0
C794 C 0.48147 0.06391 0.61543 0.0
C795 C 0.56561 0.1021 0.66788 0.0
C796 C 0.53052 0.09073 0.67209 0.0
C797 C 0.50374 0.07823 0.65487 0.0
C798 C 0.52158 0.09288 0.69439 0.0
C799 C 0.59559 0.11407 0.68585 0.0
C800 C 0.50909 0.06305 0.70453 0.0
C801 C 0.5061 0.06545 0.72666 0.0
C802 C 0.51571 0.0977 0.73878 0.0
C803 C 0.52581 0.1275 0.72822 0.0
C804 C 0.52858 0.1251 0.70618 0.0
H805 H 0.62086 0.1135 0.68017 0.0
H806 H 0.59779 0.14091 0.69205 0.0
H807 H 0.59117 0.09792 0.69944 0.0
H808 H 0.50346 1.03797 0.69559 0.0
H809 H 0.49834 1.04216 0.73451 0.0
H810 H 0.50646 0.5363 0.87987 0.0
H811 H 0.50361 0.54758 0.91854 0.0
H812 H 0.61348 0.60192 0.92782 0.0
H813 H 0.6159 0.59214 0.88907 0.0
H814 H 0.53287 0.52834 0.95197 0.0
H815 H 0.57731 0.6697 0.95989 0.0
H816 H 0.56611 0.64464 0.93392 0.0
H817 H 0.60915 0.65259 0.94854 0.0
C818 C 0.5299 0.55083 0.89021 0.0
C819 C 0.56136 0.56352 0.88157 0.0
C820 C 0.52825 0.55731 0.91227 0.0
C821 C 0.55813 0.5763 0.92609 0.0
C822 C 0.58977 0.58829 0.91745 0.0
H823 H 0.60917 0.56296 0.05977 0.0
H824 H 0.59363 0.55371 0.02084 0.0
C825 C 0.59125 0.58236 0.89535 0.0
C826 C 0.55678 0.58202 0.94968 0.0
H827 H 0.58327 0.64303 0.99288 0.0
C828 C 0.5434 0.55354 0.96085 0.0
C829 C 0.56953 0.61498 0.96132 0.0
C830 C 0.58092 0.6472 0.95022 0.0
C831 C 0.54418 0.55681 0.98339 0.0
C832 C 0.56007 0.58923 0.99521 0.0
C833 C 0.57165 0.61802 0.98394 0.0
C834 C 0.56713 0.59352 0.01918 0.0
C835 C 0.52788 0.52539 0.99419 0.0
C836 C 0.55824 0.61958 0.03136 0.0
C837 C 0.56822 0.62576 0.0537 0.0
C838 C 0.58724 0.60591 0.06431 0.0
C839 C 0.59501 0.5791 0.05214 0.0
C840 C 0.58554 0.57334 0.02984 0.0
H841 H 0.50581 0.50754 0.98332 0.0
H842 H 0.54767 0.51142 -0.00205 0.0
H843 H 0.51808 0.53221 0.0094 0.0
H844 H 0.54425 0.63569 0.0235 0.0
H845 H 0.56217 0.64691 0.06246 0.0
H846 H 0.10873 0.59848 0.21297 0.0
H847 H 0.09941 0.58855 0.25044 0.0
H848 H 0.04055 0.66301 0.25205 0.0
H849 H 0.04932 0.67263 0.21467 0.0
H850 H 0.12049 0.63622 0.28614 0.0
H851 H 0.97675 0.5823 0.27654 0.0
H852 H 1.00186 0.58485 0.25397 0.0
H853 H 0.98997 0.62184 0.26458 0.0
C854 C 0.09358 0.61248 0.22131 0.0
C855 C 0.07968 0.63627 0.21095 0.0
C856 C 0.08822 0.60675 0.24265 0.0
C857 C 0.06867 0.62451 0.25388 0.0
C858 C 0.05491 0.64834 0.24352 0.0
H859 H 0.06967 0.6985 0.3819 0.0
H860 H 0.0704 0.68496 0.34337 0.0
C861 C 0.06027 0.65408 0.22224 0.0
C862 C 0.06477 0.62034 0.27691 0.0
H863 H 1.00424 0.60639 0.31253 0.0
C864 C 0.09508 0.629 0.29187 0.0
C865 C 1.0316 0.61057 0.28437 0.0
C866 C 0.99821 0.59901 0.26899 0.0
C867 C 0.09305 0.63031 0.31414 0.0
C868 C 0.05993 0.62294 0.32159 0.0
C869 C 1.02959 0.61224 0.3067 0.0
C870 C 0.0567 0.63005 0.34465 0.0
C871 C 0.12632 0.64089 0.32965 0.0
C872 C 0.04781 0.60346 0.35795 0.0
C873 C 0.04763 0.61114 0.38015 0.0
C874 C 0.05634 0.64549 0.3892 0.0
C875 C 0.06364 0.67183 0.37551 0.0
C876 C 0.06391 0.66417 0.35349 0.0
H877 H 0.14931 0.63889 0.32162 0.0
H878 H 0.13098 0.66796 0.33639 0.0
H879 H 0.12408 0.62479 0.34333 0.0
H880 H 0.04204 0.57695 0.3513 0.0
H881 H 0.04191 0.59035 0.39031 0.0
loop_
_geom_bond_atom_site_label_1
_geom_bond_atom_site_label_2
_geom_bond_distance
_geom_bond_site_symmetry_2
_ccdc_geom_bond_type
Pr0 C2 2.880 1_455 S
Pr0 O20 2.562 1_455 S
Pr0 O21 2.490 1_455 S
Pr0 O22 2.695 . S
Pr0 O23 2.512 . S
Pr0 O25 2.437 1_455 S
Pr0 O28 2.436 . S
Pr0 O30 2.438 . S
Pr1 C11 2.880 . S
Pr1 O22 2.436 . S
Pr1 O24 2.438 1_455 S
Pr1 O26 2.562 . S
Pr1 O27 2.490 . S
Pr1 O28 2.695 . S
Pr1 O29 2.512 . S
Pr1 O31 2.437 . S
C2 Pr0 2.880 1_655 S
C2 C3 1.491 . S
C2 O20 1.254 . S
C2 O21 1.225 . S
C3 C2 1.491 . S
C3 C4 1.392 . S
C3 C8 1.356 . S
C4 C3 1.392 . S
C4 C5 1.368 . S
C4 H32 0.929 . S
C5 C4 1.368 . S
C5 C6 1.386 . S
C5 H33 0.929 . S
C6 C5 1.386 . S
C6 C7 1.373 . S
C7 C6 1.373 . S
C7 C8 1.409 . S
C7 H34 0.931 . S
C8 C3 1.356 . S
C8 C7 1.409 . S
C8 H35 0.930 . S
C9 O22 1.270 . S
C9 O23 1.248 . S
C10 O24 1.267 . S
C10 O25 1.278 . S
C11 Pr1 2.880 . S
C11 C12 1.491 . S
C11 O26 1.254 . S
C11 O27 1.225 . S
C12 C11 1.491 . S
C12 C13 1.392 . S
C12 C17 1.356 . S
C13 C12 1.392 . S
C13 C14 1.368 . S
C13 H36 0.929 . S
C14 C13 1.368 . S
C14 C15 1.386 . S
C14 H37 0.929 . S
C15 C14 1.386 . S
C15 C16 1.373 . S
C16 C15 1.373 . S
C16 C17 1.409 . S
C16 H38 0.931 . S
C17 C12 1.356 . S
C17 C16 1.409 . S
C17 H39 0.930 . S
C18 O28 1.270 . S
C18 O29 1.248 . S
C19 O30 1.267 . S
C19 O31 1.278 . S
O20 Pr0 2.562 1_655 S
O20 C2 1.254 . S
O21 Pr0 2.490 1_655 S
O21 C2 1.225 . S
O22 Pr0 2.695 . S
O22 Pr1 2.436 . S
O22 C9 1.270 . S
O23 Pr0 2.512 . S
O23 C9 1.248 . S
O24 Pr1 2.438 1_655 S
O24 C10 1.267 . S
O25 Pr0 2.437 1_655 S
O25 C10 1.278 . S
O26 Pr1 2.562 . S
O26 C11 1.254 . S
O27 Pr1 2.490 . S
O27 C11 1.225 . S
O28 Pr0 2.436 . S
O28 Pr1 2.695 . S
O28 C18 1.270 . S
O29 Pr1 2.512 . S
O29 C18 1.248 . S
O30 Pr0 2.438 . S
O30 C19 1.267 . S
O31 Pr1 2.437 . S
O31 C19 1.278 . S
H32 C4 0.929 . S
H33 C5 0.929 . S
H34 C7 0.931 . S
H35 C8 0.930 . S
H36 C13 0.929 . S
H37 C14 0.929 . S
H38 C16 0.931 . S
H39 C17 0.930 . S
Pr40 C42 2.880 . S
Pr40 O60 2.562 . S
Pr40 O61 2.490 . S
Pr40 O62 2.695 . S
Pr40 O63 2.512 . S
Pr40 O65 2.437 . S
Pr40 O68 2.436 . S
Pr40 O70 2.438 . S
Pr41 C51 2.880 1_545 S
Pr41 O62 2.436 . S
Pr41 O64 2.438 . S
Pr41 O66 2.562 1_545 S
Pr41 O67 2.490 1_545 S
Pr41 O68 2.695 . S
Pr41 O69 2.512 . S
Pr41 O71 2.437 . S
C42 Pr40 2.880 . S
C42 C43 1.491 . S
C42 O60 1.254 . S
C42 O61 1.225 . S
C43 C42 1.491 . S
C43 C44 1.392 . S
C43 C48 1.356 . S
C44 C43 1.392 . S
C44 C45 1.368 . S
C44 H72 0.929 . S
C45 C44 1.368 . S
C45 C46 1.386 . S
C45 H73 0.929 . S
C46 C45 1.386 . S
C46 C47 1.373 . S
C47 C46 1.373 . S
C47 C48 1.409 . S
C47 H74 0.931 . S
C48 C43 1.356 . S
C48 C47 1.409 . S
C48 H75 0.930 . S
C49 O62 1.270 . S
C49 O63 1.248 . S
C50 O64 1.267 . S
C50 O65 1.278 . S
C51 Pr41 2.880 1_565 S
C51 C52 1.491 . S
C51 O66 1.254 . S
C51 O67 1.225 . S
C52 C51 1.491 . S
C52 C53 1.392 . S
C52 C57 1.356 . S
C53 C52 1.392 . S
C53 C54 1.368 . S
C53 H76 0.929 . S
C54 C53 1.368 . S
C54 C55 1.386 . S
C54 H77 0.929 . S
C55 C54 1.386 . S
C55 C56 1.373 . S
C56 C55 1.373 . S
C56 C57 1.409 . S
C56 H78 0.931 . S
C57 C52 1.356 . S
C57 C56 1.409 . S
C57 H79 0.930 . S
C58 O68 1.270 . S
C58 O69 1.248 . S
C59 O70 1.267 1_565 S
C59 O71 1.278 1_565 S
O60 Pr40 2.562 . S
O60 C42 1.254 . S
O61 Pr40 2.490 . S
O61 C42 1.225 . S
O62 Pr40 2.695 . S
O62 Pr41 2.436 . S
O62 C49 1.270 . S
O63 Pr40 2.512 . S
O63 C49 1.248 . S
O64 Pr41 2.438 . S
O64 C50 1.267 . S
O65 Pr40 2.437 . S
O65 C50 1.278 . S
O66 Pr41 2.562 1_565 S
O66 C51 1.254 . S
O67 Pr41 2.490 1_565 S
O67 C51 1.225 . S
O68 Pr40 2.436 . S
O68 Pr41 2.695 . S
O68 C58 1.270 . S
O69 Pr41 2.512 . S
O69 C58 1.248 . S
O70 Pr40 2.438 . S
O70 C59 1.267 1_545 S
O71 Pr41 2.437 . S
O71 C59 1.278 1_545 S
H72 C44 0.929 . S
H73 C45 0.929 . S
H74 C47 0.931 . S
H75 C48 0.930 . S
H76 C53 0.929 . S
H77 C54 0.929 . S
H78 C56 0.931 . S
H79 C57 0.930 . S
Pr80 C82 2.880 . S
Pr80 O100 2.562 . S
Pr80 O101 2.490 . S
Pr80 O102 2.695 . S
Pr80 O103 2.512 . S
Pr80 O105 2.437 . S
Pr80 O108 2.436 . S
Pr80 O110 2.438 . S
Pr81 C91 2.880 . S
Pr81 O102 2.436 . S
Pr81 O104 2.438 . S
Pr81 O106 2.562 . S
Pr81 O107 2.490 . S
Pr81 O108 2.695 . S
Pr81 O109 2.512 . S
Pr81 O111 2.437 . S
C82 Pr80 2.880 . S
C82 C83 1.491 . S
C82 O100 1.254 . S
C82 O101 1.225 . S
C83 C82 1.491 . S
C83 C84 1.392 . S
C83 C88 1.356 . S
C84 C83 1.392 . S
C84 C85 1.368 . S
C84 H112 0.929 . S
C85 C84 1.368 . S
C85 C86 1.386 . S
C85 H113 0.929 . S
C86 C85 1.386 . S
C86 C87 1.373 . S
C87 C86 1.373 . S
C87 C88 1.409 . S
C87 H114 0.931 . S
C88 C83 1.356 . S
C88 C87 1.409 . S
C88 H115 0.930 . S
C89 O102 1.270 . S
C89 O103 1.248 . S
C90 O104 1.267 . S
C90 O105 1.278 . S
C91 Pr81 2.880 . S
C91 C92 1.491 . S
C91 O106 1.254 . S
C91 O107 1.225 . S
C92 C91 1.491 . S
C92 C93 1.392 . S
C92 C97 1.356 . S
C93 C92 1.392 . S
C93 C94 1.368 . S
C93 H116 0.929 . S
C94 C93 1.368 . S
C94 C95 1.386 . S
C94 H117 0.929 . S
C95 C94 1.386 . S
C95 C96 1.373 . S
C96 C95 1.373 . S
C96 C97 1.409 . S
C96 H118 0.931 . S
C97 C92 1.356 . S
C97 C96 1.409 . S
C97 H119 0.930 . S
C98 O108 1.270 . S
C98 O109 1.248 . S
C99 O110 1.267 . S
C99 O111 1.278 . S
O100 Pr80 2.562 . S
O100 C82 1.254 . S
O101 Pr80 2.490 . S
O101 C82 1.225 . S
O102 Pr80 2.695 . S
O102 Pr81 2.436 . S
O102 C89 1.270 . S
O103 Pr80 2.512 . S
O103 C89 1.248 . S
O104 Pr81 2.438 . S
O104 C90 1.267 . S
O105 Pr80 2.437 . S
O105 C90 1.278 . S
O106 Pr81 2.562 . S
O106 C91 1.254 . S
O107 Pr81 2.490 . S
O107 C91 1.225 . S
O108 Pr80 2.436 . S
O108 Pr81 2.695 . S
O108 C98 1.270 . S
O109 Pr81 2.512 . S
O109 C98 1.248 . S
O110 Pr80 2.438 . S
O110 C99 1.267 . S
O111 Pr81 2.437 . S
O111 C99 1.278 . S
H112 C84 0.929 . S
H113 C85 0.929 . S
H114 C87 0.931 . S
H115 C88 0.930 . S
H116 C93 0.929 . S
H117 C94 0.929 . S
H118 C96 0.931 . S
H119 C97 0.930 . S
H120 C121 0.949 . S
C121 H120 0.949 . S
C121 C122 1.395 . S
C121 C123 1.391 . S
C122 C121 1.395 . S
C122 C125 1.390 . S
C123 C121 1.391 . S
C123 C127 1.387 . S
C123 C128 1.491 . S
H124 C125 0.950 . S
C125 C122 1.390 . S
C125 H124 0.950 . S
C125 C126 1.378 . S
C126 C125 1.378 . S
C126 C127 1.409 . S
C127 C123 1.387 . S
C127 C126 1.409 . S
C127 H129 0.951 . S
C128 C123 1.491 . S
C128 C130 1.382 . S
C128 C132 1.404 . S
H129 C127 0.951 . S
C130 C128 1.382 . S
C130 C131 1.390 . S
C130 H135 0.949 . S
C131 C130 1.390 . S
C131 C136 1.399 . S
C132 C128 1.404 . S
C132 H133 0.950 . S
C132 C134 1.375 . S
H133 C132 0.950 . S
C134 C132 1.375 . S
C134 C136 1.382 . S
C134 H138 0.950 . S
H135 C130 0.949 . S
C136 C131 1.399 . S
C136 C134 1.382 . S
C136 H137 0.952 . S
H137 C136 0.952 . S
H138 C134 0.950 . S
H139 C140 0.949 . S
C140 H139 0.949 . S
C140 C141 1.395 . S
C140 C142 1.391 . S
C141 C140 1.395 . S
C141 C144 1.390 . S
C142 C140 1.391 . S
C142 C146 1.387 . S
C142 C147 1.491 . S
H143 C144 0.950 . S
C144 C141 1.390 . S
C144 H143 0.950 . S
C144 C145 1.378 . S
C145 C144 1.378 . S
C145 C146 1.409 . S
C146 C142 1.387 . S
C146 C145 1.409 . S
C146 H148 0.951 . S
C147 C142 1.491 . S
C147 C149 1.382 . S
C147 C151 1.404 . S
H148 C146 0.951 . S
C149 C147 1.382 . S
C149 C150 1.390 . S
C149 H154 0.949 . S
C150 C149 1.390 . S
C150 C155 1.399 . S
C151 C147 1.404 . S
C151 H152 0.950 . S
C151 C153 1.375 . S
H152 C151 0.950 . S
C153 C151 1.375 . S
C153 C155 1.382 . S
C153 H157 0.950 . S
H154 C149 0.949 . S
C155 C150 1.399 . S
C155 C153 1.382 . S
C155 H156 0.952 . S
H156 C155 0.952 . S
H157 C153 0.950 . S
H158 C159 0.949 . S
C159 H158 0.949 . S
C159 C160 1.395 . S
C159 C161 1.391 . S
C160 C159 1.395 . S
C160 C163 1.390 . S
C161 C159 1.391 . S
C161 C165 1.387 . S
C161 C166 1.491 . S
H162 C163 0.950 1_655 S
C163 C160 1.390 . S
C163 H162 0.950 1_455 S
C163 C164 1.378 1_455 S
C164 C163 1.378 1_655 S
C164 C165 1.409 1_655 S
C165 C161 1.387 . S
C165 C164 1.409 1_455 S
C165 H167 0.951 . S
C166 C161 1.491 . S
C166 C168 1.382 . S
C166 C170 1.404 . S
H167 C165 0.951 . S
C168 C166 1.382 . S
C168 C169 1.390 . S
C168 H173 0.949 . S
C169 C168 1.390 . S
C169 C174 1.399 . S
C170 C166 1.404 . S
C170 H171 0.950 . S
C170 C172 1.375 . S
H171 C170 0.950 . S
C172 C170 1.375 . S
C172 C174 1.382 . S
C172 H176 0.950 . S
H173 C168 0.949 . S
C174 C169 1.399 . S
C174 C172 1.382 . S
C174 H175 0.952 . S
H175 C174 0.952 . S
H176 C172 0.950 . S
H177 C178 0.939 1_655 S
C178 H177 0.939 1_455 S
C178 C179 1.407 . S
C178 C180 1.389 . S
C179 C178 1.407 . S
C179 C182 1.390 . S
C180 C178 1.389 . S
C180 C184 1.387 . S
C180 C185 1.491 1_455 S
H181 C182 0.950 . S
C182 C179 1.390 . S
C182 H181 0.950 . S
C182 C183 1.378 . S
C183 C182 1.378 . S
C183 C184 1.409 . S
C184 C180 1.387 . S
C184 C183 1.409 . S
C184 H186 0.951 . S
C185 C180 1.491 1_655 S
C185 C187 1.382 . S
C185 C189 1.404 . S
H186 C184 0.951 . S
C187 C185 1.382 . S
C187 C188 1.390 . S
C187 H192 0.949 . S
C188 C187 1.390 . S
C188 C193 1.399 . S
C189 C185 1.404 . S
C189 H190 0.950 . S
C189 C191 1.375 . S
H190 C189 0.950 . S
C191 C189 1.375 . S
C191 C193 1.382 . S
C191 H195 0.950 . S
H192 C187 0.949 . S
C193 C188 1.399 . S
C193 C191 1.382 . S
C193 H194 0.952 . S
H194 C193 0.952 . S
H195 C191 0.950 . S
H196 C197 0.953 . S
C197 H196 0.953 . S
C197 C198 1.395 . S
C197 C199 1.391 . S
C198 C197 1.395 . S
C198 C201 1.390 . S
C199 C197 1.391 . S
C199 C203 1.387 . S
C199 C204 1.491 1_545 S
H200 C201 0.950 . S
C201 C198 1.390 . S
C201 H200 0.950 . S
C201 C202 1.378 . S
C202 C201 1.378 . S
C202 C203 1.409 . S
C203 C199 1.387 . S
C203 C202 1.409 . S
C203 H205 0.951 . S
C204 C199 1.491 1_565 S
C204 C206 1.382 . S
C204 C208 1.404 . S
H205 C203 0.951 . S
C206 C204 1.382 . S
C206 C207 1.390 . S
C206 H211 0.949 . S
C207 C206 1.390 . S
C207 C212 1.399 . S
C208 C204 1.404 . S
C208 H209 0.950 1_565 S
C208 C210 1.375 . S
H209 C208 0.950 1_545 S
C210 C208 1.375 . S
C210 C212 1.382 . S
C210 H214 0.950 . S
H211 C206 0.949 . S
C212 C207 1.399 . S
C212 C210 1.382 . S
C212 H213 0.952 . S
H213 C212 0.952 . S
H214 C210 0.950 . S
H215 C216 0.949 . S
C216 H215 0.949 . S
C216 C217 1.395 . S
C216 C218 1.391 . S
C217 C216 1.395 . S
C217 C220 1.390 . S
C218 C216 1.391 . S
C218 C222 1.387 . S
C218 C223 1.491 . S
H219 C220 0.950 . S
C220 C217 1.390 . S
C220 H219 0.950 . S
C220 C221 1.378 . S
C221 C220 1.378 . S
C221 C222 1.409 . S
C222 C218 1.387 . S
C222 C221 1.409 . S
C222 H224 0.951 . S
C223 C218 1.491 . S
C223 C225 1.382 . S
C223 C227 1.404 . S
H224 C222 0.951 . S
C225 C223 1.382 . S
C225 C226 1.390 . S
C225 H230 0.949 . S
C226 C225 1.390 . S
C226 C231 1.399 . S
C227 C223 1.404 . S
C227 H228 0.950 . S
C227 C229 1.375 . S
H228 C227 0.950 . S
C229 C227 1.375 . S
C229 C231 1.382 . S
C229 H233 0.950 . S
H230 C225 0.949 . S
C231 C226 1.399 . S
C231 C229 1.382 . S
C231 H232 0.952 . S
H232 C231 0.952 . S
H233 C229 0.950 . S
H234 C242 0.929 . S
H235 C244 0.930 . S
H236 C246 0.930 . S
H237 C249 0.929 . S
H238 C252 0.930 . S
H239 C254 0.960 . S
H240 C254 0.960 . S
H241 C254 0.960 . S
C242 H234 0.929 . S
C242 C243 1.377 . S
C242 C244 1.384 . S
C243 C242 1.377 . S
C243 C249 1.390 . S
C244 H235 0.930 . S
C244 C242 1.384 . S
C244 C245 1.372 . S
C245 C244 1.372 . S
C245 C246 1.400 . S
C245 C250 1.490 . S
C246 H236 0.930 . S
C246 C245 1.400 . S
C246 C249 1.386 . S
H247 C263 0.930 . S
H248 C264 0.931 . S
C249 H237 0.929 . S
C249 C243 1.390 . S
C249 C246 1.386 . S
C250 C245 1.490 . S
C250 C252 1.395 . S
C250 C253 1.403 . S
H251 C257 0.930 . S
C252 H238 0.930 . S
C252 C250 1.395 . S
C252 C255 1.403 . S
C253 C250 1.403 . S
C253 C254 1.524 . S
C253 C257 1.400 . S
C254 H239 0.960 . S
C254 H240 0.960 . S
C254 H241 0.960 . S
C254 C253 1.524 . S
C255 C252 1.403 . S
C255 C256 1.392 . S
C255 C259 1.495 . S
C256 C255 1.392 . S
C256 C257 1.385 . S
C256 C258 1.478 . S
C257 H251 0.930 . S
C257 C253 1.400 . S
C257 C256 1.385 . S
C258 C256 1.478 . S
C258 C260 1.381 . S
C258 C264 1.383 . S
C259 C255 1.495 . S
C259 H265 0.959 . S
C259 H266 0.961 . S
C259 H267 0.960 . S
C260 C258 1.381 . S
C260 C261 1.394 . S
C260 H268 0.930 . S
C261 C260 1.394 . S
C261 C262 1.383 . S
C261 H269 0.929 . S
C262 C261 1.383 . S
C262 C263 1.377 . S
C263 H247 0.930 . S
C263 C262 1.377 . S
C263 C264 1.379 . S
C264 H248 0.931 . S
C264 C258 1.383 . S
C264 C263 1.379 . S
H265 C259 0.959 . S
H266 C259 0.961 . S
H267 C259 0.960 . S
H268 C260 0.930 . S
H269 C261 0.929 . S
H270 C278 0.929 . S
H271 C280 0.930 . S
H272 C282 0.930 . S
H273 C285 0.929 . S
H274 C288 0.930 . S
H275 C290 0.960 . S
H276 C290 0.960 . S
H277 C290 0.960 . S
C278 H270 0.929 . S
C278 C279 1.377 . S
C278 C280 1.384 . S
C279 C278 1.377 . S
C279 C285 1.390 . S
C280 H271 0.930 . S
C280 C278 1.384 . S
C280 C281 1.372 . S
C281 C280 1.372 . S
C281 C282 1.400 . S
C281 C286 1.490 . S
C282 H272 0.930 . S
C282 C281 1.400 . S
C282 C285 1.386 . S
H283 C299 0.930 . S
H284 C300 0.931 . S
C285 H273 0.929 . S
C285 C279 1.390 . S
C285 C282 1.386 . S
C286 C281 1.490 . S
C286 C288 1.395 . S
C286 C289 1.403 . S
H287 C293 0.930 . S
C288 H274 0.930 . S
C288 C286 1.395 . S
C288 C291 1.403 . S
C289 C286 1.403 . S
C289 C290 1.524 . S
C289 C293 1.400 . S
C290 H275 0.960 . S
C290 H276 0.960 . S
C290 H277 0.960 . S
C290 C289 1.524 . S
C291 C288 1.403 . S
C291 C292 1.392 . S
C291 C295 1.495 . S
C292 C291 1.392 . S
C292 C293 1.385 . S
C292 C294 1.478 . S
C293 H287 0.930 . S
C293 C289 1.400 . S
C293 C292 1.385 . S
C294 C292 1.478 . S
C294 C296 1.381 . S
C294 C300 1.383 . S
C295 C291 1.495 . S
C295 H301 0.959 . S
C295 H302 0.961 . S
C295 H303 0.960 . S
C296 C294 1.381 . S
C296 C297 1.394 . S
C296 H304 0.930 . S
C297 C296 1.394 . S
C297 C298 1.383 . S
C297 H305 0.929 . S
C298 C297 1.383 . S
C298 C299 1.377 . S
C299 H283 0.930 . S
C299 C298 1.377 . S
C299 C300 1.379 . S
C300 H284 0.931 . S
C300 C294 1.383 . S
C300 C299 1.379 . S
H301 C295 0.959 . S
H302 C295 0.961 . S
H303 C295 0.960 . S
H304 C296 0.930 . S
H305 C297 0.929 . S
H306 C314 0.929 . S
H307 C316 0.930 . S
H308 C318 0.930 . S
H309 C321 0.929 . S
H310 C324 0.930 . S
H311 C326 0.960 . S
H312 C326 0.960 . S
H313 C326 0.960 . S
C314 H306 0.929 . S
C314 C315 1.377 . S
C314 C316 1.384 . S
C315 C314 1.377 . S
C315 C321 1.390 . S
C316 H307 0.930 . S
C316 C314 1.384 . S
C316 C317 1.372 . S
C317 C316 1.372 . S
C317 C318 1.400 . S
C317 C322 1.490 . S
C318 H308 0.930 . S
C318 C317 1.400 . S
C318 C321 1.386 . S
H319 C335 0.930 . S
H320 C336 0.931 . S
C321 H309 0.929 . S
C321 C315 1.390 . S
C321 C318 1.386 . S
C322 C317 1.490 . S
C322 C324 1.395 . S
C322 C325 1.403 . S
H323 C329 0.930 . S
C324 H310 0.930 . S
C324 C322 1.395 . S
C324 C327 1.403 . S
C325 C322 1.403 . S
C325 C326 1.524 . S
C325 C329 1.400 . S
C326 H311 0.960 . S
C326 H312 0.960 . S
C326 H313 0.960 . S
C326 C325 1.524 . S
C327 C324 1.403 . S
C327 C328 1.392 . S
C327 C331 1.495 . S
C328 C327 1.392 . S
C328 C329 1.385 . S
C328 C330 1.478 . S
C329 H323 0.930 . S
C329 C325 1.400 . S
C329 C328 1.385 . S
C330 C328 1.478 . S
C330 C332 1.381 . S
C330 C336 1.383 . S
C331 C327 1.495 . S
C331 H337 0.959 . S
C331 H338 0.961 . S
C331 H339 0.960 . S
C332 C330 1.381 . S
C332 C333 1.394 . S
C332 H340 0.930 . S
C333 C332 1.394 . S
C333 C334 1.383 . S
C333 H341 0.929 . S
C334 C333 1.383 . S
C334 C335 1.377 . S
C335 H319 0.930 . S
C335 C334 1.377 . S
C335 C336 1.379 . S
C336 H320 0.931 . S
C336 C330 1.383 . S
C336 C335 1.379 . S
H337 C331 0.959 . S
H338 C331 0.961 . S
H339 C331 0.960 . S
H340 C332 0.930 . S
H341 C333 0.929 . S
H342 C350 0.929 . S
H343 C352 0.930 . S
H344 C354 0.930 . S
H345 C357 0.929 . S
H346 C360 0.930 . S
H347 C362 0.960 . S
H348 C362 0.960 . S
H349 C362 0.960 . S
C350 H342 0.929 . S
C350 C351 1.377 . S
C350 C352 1.384 . S
C351 C350 1.377 . S
C351 C357 1.390 . S
C352 H343 0.930 . S
C352 C350 1.384 . S
C352 C353 1.372 . S
C353 C352 1.372 . S
C353 C354 1.400 . S
C353 C358 1.490 . S
C354 H344 0.930 . S
C354 C353 1.400 . S
C354 C357 1.386 . S
H355 C371 0.930 . S
H356 C372 0.931 . S
C357 H345 0.929 . S
C357 C351 1.390 . S
C357 C354 1.386 . S
C358 C353 1.490 . S
C358 C360 1.395 . S
C358 C361 1.403 . S
H359 C365 0.930 . S
C360 H346 0.930 . S
C360 C358 1.395 . S
C360 C363 1.403 . S
C361 C358 1.403 . S
C361 C362 1.524 . S
C361 C365 1.400 . S
C362 H347 0.960 . S
C362 H348 0.960 . S
C362 H349 0.960 . S
C362 C361 1.524 . S
C363 C360 1.403 . S
C363 C364 1.392 . S
C363 C367 1.495 . S
C364 C363 1.392 . S
C364 C365 1.385 . S
C364 C366 1.478 . S
C365 H359 0.930 . S
C365 C361 1.400 . S
C365 C364 1.385 . S
C366 C364 1.478 . S
C366 C368 1.381 . S
C366 C372 1.383 . S
C367 C363 1.495 . S
C367 H373 0.959 . S
C367 H374 0.961 . S
C367 H375 0.960 . S
C368 C366 1.381 . S
C368 C369 1.394 . S
C368 H376 0.930 . S
C369 C368 1.394 . S
C369 C370 1.383 . S
C369 H377 0.929 . S
C370 C369 1.383 . S
C370 C371 1.377 . S
C371 H355 0.930 . S
C371 C370 1.377 . S
C371 C372 1.379 . S
C372 H356 0.931 . S
C372 C366 1.383 . S
C372 C371 1.379 . S
H373 C367 0.959 . S
H374 C367 0.961 . S
H375 C367 0.960 . S
H376 C368 0.930 . S
H377 C369 0.929 . S
H378 C386 0.929 . S
H379 C388 0.930 . S
H380 C390 0.930 . S
H381 C393 0.929 . S
H382 C396 0.930 . S
H383 C398 0.960 . S
H384 C398 0.960 . S
H385 C398 0.960 . S
C386 H378 0.929 . S
C386 C387 1.377 . S
C386 C388 1.384 . S
C387 C386 1.377 . S
C387 C393 1.390 . S
C388 H379 0.930 . S
C388 C386 1.384 . S
C388 C389 1.372 . S
C389 C388 1.372 . S
C389 C390 1.400 . S
C389 C394 1.490 . S
C390 H380 0.930 . S
C390 C389 1.400 . S
C390 C393 1.386 . S
H391 C407 0.930 . S
H392 C408 0.931 . S
C393 H381 0.929 . S
C393 C387 1.390 . S
C393 C390 1.386 . S
C394 C389 1.490 . S
C394 C396 1.395 . S
C394 C397 1.403 . S
H395 C401 0.930 . S
C396 H382 0.930 . S
C396 C394 1.395 . S
C396 C399 1.403 . S
C397 C394 1.403 . S
C397 C398 1.524 . S
C397 C401 1.400 . S
C398 H383 0.960 . S
C398 H384 0.960 . S
C398 H385 0.960 . S
C398 C397 1.524 . S
C399 C396 1.403 . S
C399 C400 1.392 . S
C399 C403 1.495 . S
C400 C399 1.392 . S
C400 C401 1.385 . S
C400 C402 1.478 . S
C401 H395 0.930 . S
C401 C397 1.400 . S
C401 C400 1.385 . S
C402 C400 1.478 . S
C402 C404 1.381 . S
C402 C408 1.383 . S
C403 C399 1.495 . S
C403 H409 0.959 . S
C403 H410 0.961 . S
C403 H411 0.960 . S
C404 C402 1.381 . S
C404 C405 1.394 . S
C404 H412 0.930 . S
C405 C404 1.394 . S
C405 C406 1.383 . S
C405 H413 0.929 . S
C406 C405 1.383 . S
C406 C407 1.377 . S
C407 H391 0.930 . S
C407 C406 1.377 . S
C407 C408 1.379 . S
C408 H392 0.931 . S
C408 C402 1.383 . S
C408 C407 1.379 . S
H409 C403 0.959 . S
H410 C403 0.961 . S
H411 C403 0.960 . S
H412 C404 0.930 . S
H413 C405 0.929 . S
H414 C422 0.929 . S
H415 C424 0.930 . S
H416 C426 0.930 . S
H417 C429 0.929 . S
H418 C432 0.930 . S
H419 C434 0.960 . S
H420 C434 0.960 . S
H421 C434 0.960 . S
C422 H414 0.929 . S
C422 C423 1.377 . S
C422 C424 1.384 . S
C423 C422 1.377 . S
C423 C429 1.390 . S
C424 H415 0.930 . S
C424 C422 1.384 . S
C424 C425 1.372 . S
C425 C424 1.372 . S
C425 C426 1.400 . S
C425 C430 1.490 . S
C426 H416 0.930 . S
C426 C425 1.400 . S
C426 C429 1.386 . S
H427 C443 0.930 . S
H428 C444 0.931 . S
C429 H417 0.929 . S
C429 C423 1.390 . S
C429 C426 1.386 . S
C430 C425 1.490 . S
C430 C432 1.395 . S
C430 C433 1.403 . S
H431 C437 0.930 . S
C432 H418 0.930 . S
C432 C430 1.395 . S
C432 C435 1.403 . S
C433 C430 1.403 . S
C433 C434 1.524 . S
C433 C437 1.400 . S
C434 H419 0.960 . S
C434 H420 0.960 . S
C434 H421 0.960 . S
C434 C433 1.524 . S
C435 C432 1.403 . S
C435 C436 1.392 . S
C435 C439 1.495 . S
C436 C435 1.392 . S
C436 C437 1.385 . S
C436 C438 1.478 . S
C437 H431 0.930 . S
C437 C433 1.400 . S
C437 C436 1.385 . S
C438 C436 1.478 . S
C438 C440 1.381 . S
C438 C444 1.383 . S
C439 C435 1.495 . S
C439 H445 0.959 . S
C439 H446 0.961 . S
C439 H447 0.960 . S
C440 C438 1.381 . S
C440 C441 1.394 . S
C440 H448 0.930 . S
C441 C440 1.394 . S
C441 C442 1.383 . S
C441 H449 0.929 . S
C442 C441 1.383 . S
C442 C443 1.377 . S
C443 H427 0.930 . S
C443 C442 1.377 . S
C443 C444 1.379 . S
C444 H428 0.931 . S
C444 C438 1.383 . S
C444 C443 1.379 . S
H445 C439 0.959 . S
H446 C439 0.961 . S
H447 C439 0.960 . S
H448 C440 0.930 . S
H449 C441 0.929 . S
H450 C458 0.929 . S
H451 C460 0.930 . S
H452 C462 0.930 . S
H453 C465 0.929 . S
H454 C468 0.930 . S
H455 C470 0.960 . S
H456 C470 0.960 . S
H457 C470 0.960 . S
C458 H450 0.929 . S
C458 C459 1.377 . S
C458 C460 1.384 . S
C459 C458 1.377 . S
C459 C465 1.390 . S
C460 H451 0.930 . S
C460 C458 1.384 . S
C460 C461 1.372 . S
C461 C460 1.372 . S
C461 C462 1.400 . S
C461 C466 1.490 . S
C462 H452 0.930 . S
C462 C461 1.400 . S
C462 C465 1.386 . S
H463 C479 0.930 . S
H464 C480 0.931 . S
C465 H453 0.929 . S
C465 C459 1.390 . S
C465 C462 1.386 . S
C466 C461 1.490 . S
C466 C468 1.395 . S
C466 C469 1.403 . S
H467 C473 0.930 . S
C468 H454 0.930 . S
C468 C466 1.395 . S
C468 C471 1.403 . S
C469 C466 1.403 . S
C469 C470 1.524 . S
C469 C473 1.400 . S
C470 H455 0.960 . S
C470 H456 0.960 . S
C470 H457 0.960 . S
C470 C469 1.524 . S
C471 C468 1.403 . S
C471 C472 1.392 . S
C471 C475 1.495 . S
C472 C471 1.392 . S
C472 C473 1.385 . S
C472 C474 1.478 . S
C473 H467 0.930 . S
C473 C469 1.400 . S
C473 C472 1.385 . S
C474 C472 1.478 . S
C474 C476 1.381 . S
C474 C480 1.383 . S
C475 C471 1.495 . S
C475 H481 0.959 . S
C475 H482 0.961 . S
C475 H483 0.960 . S
C476 C474 1.381 . S
C476 C477 1.394 . S
C476 H484 0.930 . S
C477 C476 1.394 . S
C477 C478 1.383 . S
C477 H485 0.929 . S
C478 C477 1.383 . S
C478 C479 1.377 . S
C479 H463 0.930 . S
C479 C478 1.377 . S
C479 C480 1.379 . S
C480 H464 0.931 . S
C480 C474 1.383 . S
C480 C479 1.379 . S
H481 C475 0.959 . S
H482 C475 0.961 . S
H483 C475 0.960 . S
H484 C476 0.930 . S
H485 C477 0.929 . S
H486 C494 0.929 . S
H487 C496 0.930 . S
H488 C498 0.930 . S
H489 C501 0.929 . S
H490 C504 0.930 . S
H491 C506 0.960 . S
H492 C506 0.960 . S
H493 C506 0.960 . S
C494 H486 0.929 . S
C494 C495 1.377 . S
C494 C496 1.384 . S
C495 C494 1.377 . S
C495 C501 1.390 . S
C496 H487 0.930 . S
C496 C494 1.384 . S
C496 C497 1.372 . S
C497 C496 1.372 . S
C497 C498 1.400 . S
C497 C502 1.490 . S
C498 H488 0.930 . S
C498 C497 1.400 . S
C498 C501 1.386 . S
H499 C515 0.930 . S
H500 C516 0.931 . S
C501 H489 0.929 . S
C501 C495 1.390 . S
C501 C498 1.386 . S
C502 C497 1.490 . S
C502 C504 1.395 . S
C502 C505 1.403 . S
H503 C509 0.930 . S
C504 H490 0.930 . S
C504 C502 1.395 . S
C504 C507 1.403 . S
C505 C502 1.403 . S
C505 C506 1.524 . S
C505 C509 1.400 . S
C506 H491 0.960 . S
C506 H492 0.960 . S
C506 H493 0.960 . S
C506 C505 1.524 . S
C507 C504 1.403 . S
C507 C508 1.392 . S
C507 C511 1.495 . S
C508 C507 1.392 . S
C508 C509 1.385 . S
C508 C510 1.478 . S
C509 H503 0.930 . S
C509 C505 1.400 . S
C509 C508 1.385 . S
C510 C508 1.478 . S
C510 C512 1.381 . S
C510 C516 1.383 . S
C511 C507 1.495 . S
C511 H517 0.959 . S
C511 H518 0.961 . S
C511 H519 0.960 . S
C512 C510 1.381 . S
C512 C513 1.394 . S
C512 H520 0.930 . S
C513 C512 1.394 . S
C513 C514 1.383 . S
C513 H521 0.929 . S
C514 C513 1.383 . S
C514 C515 1.377 . S
C515 H499 0.930 . S
C515 C514 1.377 . S
C515 C516 1.379 . S
C516 H500 0.931 . S
C516 C510 1.383 . S
C516 C515 1.379 . S
H517 C511 0.959 . S
H518 C511 0.961 . S
H519 C511 0.960 . S
H520 C512 0.930 . S
H521 C513 0.929 . S
H522 C530 0.929 . S
H523 C532 0.930 . S
H524 C534 0.930 . S
H525 C537 0.929 . S
H526 C540 0.930 . S
H527 C542 0.960 . S
H528 C542 0.960 . S
H529 C542 0.960 . S
C530 H522 0.929 . S
C530 C531 1.377 . S
C530 C532 1.384 . S
C531 C530 1.377 . S
C531 C537 1.390 . S
C532 H523 0.930 . S
C532 C530 1.384 . S
C532 C533 1.372 . S
C533 C532 1.372 . S
C533 C534 1.400 . S
C533 C538 1.490 . S
C534 H524 0.930 . S
C534 C533 1.400 . S
C534 C537 1.386 . S
H535 C551 0.930 1_545 S
H536 C552 0.931 . S
C537 H525 0.929 . S
C537 C531 1.390 . S
C537 C534 1.386 . S
C538 C533 1.490 . S
C538 C540 1.395 . S
C538 C541 1.403 . S
H539 C545 0.930 . S
C540 H526 0.930 . S
C540 C538 1.395 . S
C540 C543 1.403 . S
C541 C538 1.403 . S
C541 C542 1.524 . S
C541 C545 1.400 . S
C542 H527 0.960 . S
C542 H528 0.960 . S
C542 H529 0.960 . S
C542 C541 1.524 . S
C543 C540 1.403 . S
C543 C544 1.392 . S
C543 C547 1.495 . S
C544 C543 1.392 . S
C544 C545 1.385 . S
C544 C546 1.478 . S
C545 H539 0.930 . S
C545 C541 1.400 . S
C545 C544 1.385 . S
C546 C544 1.478 . S
C546 C548 1.381 . S
C546 C552 1.383 . S
C547 C543 1.495 . S
C547 H553 0.959 . S
C547 H554 0.961 . S
C547 H555 0.960 . S
C548 C546 1.381 . S
C548 C549 1.394 1_565 S
C548 H556 0.930 . S
C549 C548 1.394 1_545 S
C549 C550 1.383 . S
C549 H557 0.929 . S
C550 C549 1.383 . S
C550 C551 1.377 1_545 S
C551 H535 0.930 1_565 S
C551 C550 1.377 1_565 S
C551 C552 1.379 . S
C552 H536 0.931 . S
C552 C546 1.383 . S
C552 C551 1.379 . S
H553 C547 0.959 . S
H554 C547 0.961 . S
H555 C547 0.960 . S
H556 C548 0.930 . S
H557 C549 0.929 . S
H558 C566 0.929 . S
H559 C568 0.930 . S
H560 C570 0.930 . S
H561 C573 0.929 . S
H562 C576 0.930 . S
H563 C578 0.960 . S
H564 C578 0.960 . S
H565 C578 0.960 . S
C566 H558 0.929 . S
C566 C567 1.377 . S
C566 C568 1.384 . S
C567 C566 1.377 . S
C567 C573 1.390 . S
C568 H559 0.930 . S
C568 C566 1.384 . S
C568 C569 1.372 . S
C569 C568 1.372 . S
C569 C570 1.400 . S
C569 C574 1.490 . S
C570 H560 0.930 . S
C570 C569 1.400 . S
C570 C573 1.386 . S
H571 C587 0.930 . S
H572 C588 0.931 . S
C573 H561 0.929 . S
C573 C567 1.390 . S
C573 C570 1.386 . S
C574 C569 1.490 . S
C574 C576 1.395 . S
C574 C577 1.403 . S
H575 C581 0.930 . S
C576 H562 0.930 . S
C576 C574 1.395 . S
C576 C579 1.403 . S
C577 C574 1.403 . S
C577 C578 1.524 . S
C577 C581 1.400 . S
C578 H563 0.960 . S
C578 H564 0.960 . S
C578 H565 0.960 . S
C578 C577 1.524 . S
C579 C576 1.403 . S
C579 C580 1.392 . S
C579 C583 1.495 . S
C580 C579 1.392 . S
C580 C581 1.385 . S
C580 C582 1.478 . S
C581 H575 0.930 . S
C581 C577 1.400 . S
C581 C580 1.385 . S
C582 C580 1.478 . S
C582 C584 1.381 . S
C582 C588 1.383 . S
C583 C579 1.495 . S
C583 H589 0.959 . S
C583 H590 0.961 . S
C583 H591 0.960 . S
C584 C582 1.381 . S
C584 C585 1.394 . S
C584 H592 0.930 . S
C585 C584 1.394 . S
C585 C586 1.383 . S
C585 H593 0.929 . S
C586 C585 1.383 . S
C586 C587 1.377 . S
C587 H571 0.930 . S
C587 C586 1.377 . S
C587 C588 1.379 . S
C588 H572 0.931 . S
C588 C582 1.383 . S
C588 C587 1.379 . S
H589 C583 0.959 . S
H590 C583 0.961 . S
H591 C583 0.960 . S
H592 C584 0.930 . S
H593 C585 0.929 . S
H594 C602 0.929 . S
H595 C604 0.930 . S
H596 C606 0.930 . S
H597 C609 0.929 . S
H598 C612 0.930 . S
H599 C614 0.960 . S
H600 C614 0.960 . S
H601 C614 0.960 . S
C602 H594 0.929 . S
C602 C603 1.377 . S
C602 C604 1.384 . S
C603 C602 1.377 . S
C603 C609 1.390 . S
C604 H595 0.930 . S
C604 C602 1.384 . S
C604 C605 1.372 . S
C605 C604 1.372 . S
C605 C606 1.400 . S
C605 C610 1.490 . S
C606 H596 0.930 . S
C606 C605 1.400 . S
C606 C609 1.386 . S
H607 C623 0.930 . S
H608 C624 0.931 . S
C609 H597 0.929 . S
C609 C603 1.390 . S
C609 C606 1.386 . S
C610 C605 1.490 . S
C610 C612 1.395 . S
C610 C613 1.403 . S
H611 C617 0.930 . S
C612 H598 0.930 . S
C612 C610 1.395 . S
C612 C615 1.403 . S
C613 C610 1.403 . S
C613 C614 1.524 . S
C613 C617 1.400 . S
C614 H599 0.960 . S
C614 H600 0.960 . S
C614 H601 0.960 . S
C614 C613 1.524 . S
C615 C612 1.403 . S
C615 C616 1.392 . S
C615 C619 1.495 . S
C616 C615 1.392 . S
C616 C617 1.385 . S
C616 C618 1.478 . S
C617 H611 0.930 . S
C617 C613 1.400 . S
C617 C616 1.385 . S
C618 C616 1.478 . S
C618 C620 1.381 . S
C618 C624 1.383 . S
C619 C615 1.495 . S
C619 H625 0.959 . S
C619 H626 0.961 . S
C619 H627 0.960 . S
C620 C618 1.381 . S
C620 C621 1.394 . S
C620 H628 0.930 . S
C621 C620 1.394 . S
C621 C622 1.383 . S
C621 H629 0.929 . S
C622 C621 1.383 . S
C622 C623 1.377 . S
C623 H607 0.930 . S
C623 C622 1.377 . S
C623 C624 1.379 . S
C624 H608 0.931 . S
C624 C618 1.383 . S
C624 C623 1.379 . S
H625 C619 0.959 . S
H626 C619 0.961 . S
H627 C619 0.960 . S
H628 C620 0.930 . S
H629 C621 0.929 . S
H630 C638 0.929 . S
H631 C640 0.930 . S
H632 C642 0.930 . S
H633 C645 0.929 . S
H634 C648 0.930 . S
H635 C650 0.960 . S
H636 C650 0.960 . S
H637 C650 0.960 . S
C638 H630 0.929 . S
C638 C639 1.377 . S
C638 C640 1.384 . S
C639 C638 1.377 . S
C639 C645 1.390 . S
C640 H631 0.930 . S
C640 C638 1.384 . S
C640 C641 1.372 . S
C641 C640 1.372 . S
C641 C642 1.400 . S
C641 C646 1.490 . S
C642 H632 0.930 . S
C642 C641 1.400 . S
C642 C645 1.386 . S
H643 C659 0.930 . S
H644 C660 0.931 . S
C645 H633 0.929 . S
C645 C639 1.390 . S
C645 C642 1.386 . S
C646 C641 1.490 . S
C646 C648 1.395 . S
C646 C649 1.403 . S
H647 C653 0.930 . S
C648 H634 0.930 . S
C648 C646 1.395 . S
C648 C651 1.403 . S
C649 C646 1.403 . S
C649 C650 1.524 . S
C649 C653 1.400 . S
C650 H635 0.960 . S
C650 H636 0.960 . S
C650 H637 0.960 . S
C650 C649 1.524 . S
C651 C648 1.403 . S
C651 C652 1.392 . S
C651 C655 1.495 . S
C652 C651 1.392 . S
C652 C653 1.385 . S
C652 C654 1.478 . S
C653 H647 0.930 . S
C653 C649 1.400 . S
C653 C652 1.385 . S
C654 C652 1.478 . S
C654 C656 1.381 . S
C654 C660 1.383 . S
C655 C651 1.495 . S
C655 H661 0.959 . S
C655 H662 0.961 . S
C655 H663 0.960 . S
C656 C654 1.381 . S
C656 C657 1.394 . S
C656 H664 0.930 . S
C657 C656 1.394 . S
C657 C658 1.383 . S
C657 H665 0.929 . S
C658 C657 1.383 . S
C658 C659 1.377 . S
C659 H643 0.930 . S
C659 C658 1.377 . S
C659 C660 1.379 . S
C660 H644 0.931 . S
C660 C654 1.383 . S
C660 C659 1.379 . S
H661 C655 0.959 . S
H662 C655 0.961 . S
H663 C655 0.960 . S
H664 C656 0.930 . S
H665 C657 0.929 . S
H666 C674 0.929 1_655 S
H667 C676 0.930 1_655 S
H668 C678 0.930 . S
H669 C681 0.929 . S
H670 C684 0.902 1_655 S
H671 C686 0.960 . S
H672 C686 0.960 . S
H673 C686 0.960 . S
C674 H666 0.929 1_455 S
C674 C675 1.377 . S
C674 C676 1.384 . S
C675 C674 1.377 . S
C675 C681 1.390 . S
C676 H667 0.930 1_455 S
C676 C674 1.384 . S
C676 C677 1.372 . S
C677 C676 1.372 . S
C677 C678 1.400 . S
C677 C682 1.490 . S
C678 H668 0.930 . S
C678 C677 1.400 . S
C678 C681 1.386 . S
H679 C695 0.930 . S
H680 C696 0.931 . S
C681 H669 0.929 . S
C681 C675 1.390 . S
C681 C678 1.386 . S
C682 C677 1.490 . S
C682 C684 1.417 . S
C682 C685 1.403 . S
H683 C689 0.937 . S
C684 H670 0.902 1_455 S
C684 C682 1.417 . S
C684 C687 1.408 1_554 S
C685 C682 1.403 . S
C685 C686 1.524 . S
C685 C689 1.384 1_554 S
C686 H671 0.960 . S
C686 H672 0.960 . S
C686 H673 0.960 . S
C686 C685 1.524 . S
C687 C684 1.408 1_556 S
C687 C688 1.396 . S
C687 C691 1.493 1_455 S
C688 C687 1.396 . S
C688 C689 1.394 . S
C688 C690 1.478 . S
C689 H683 0.937 . S
C689 C685 1.384 1_556 S
C689 C688 1.394 . S
C690 C688 1.478 . S
C690 C692 1.381 . S
C690 C696 1.383 . S
C691 C687 1.493 1_655 S
C691 H697 0.959 . S
C691 H698 0.961 . S
C691 H699 0.960 . S
C692 C690 1.381 . S
C692 C693 1.394 . S
C692 H700 0.930 1_455 S
C693 C692 1.394 . S
C693 C694 1.383 . S
C693 H701 0.929 . S
C694 C693 1.383 . S
C694 C695 1.377 . S
C695 H679 0.930 . S
C695 C694 1.377 . S
C695 C696 1.379 . S
C696 H680 0.931 . S
C696 C690 1.383 . S
C696 C695 1.379 . S
H697 C691 0.959 . S
H698 C691 0.961 . S
H699 C691 0.960 . S
H700 C692 0.930 1_655 S
H701 C693 0.929 . S
H702 C710 0.929 . S
H703 C712 0.930 . S
H704 C714 0.930 . S
H705 C717 0.929 . S
H706 C720 0.930 . S
H707 C722 0.960 . S
H708 C722 0.960 . S
H709 C722 0.960 . S
C710 H702 0.929 . S
C710 C711 1.377 . S
C710 C712 1.384 . S
C711 C710 1.377 . S
C711 C717 1.390 . S
C712 H703 0.930 . S
C712 C710 1.384 . S
C712 C713 1.372 . S
C713 C712 1.372 . S
C713 C714 1.400 . S
C713 C718 1.490 . S
C714 H704 0.930 . S
C714 C713 1.400 . S
C714 C717 1.386 . S
H715 C731 0.930 . S
H716 C732 0.931 . S
C717 H705 0.929 . S
C717 C711 1.390 . S
C717 C714 1.386 . S
C718 C713 1.490 . S
C718 C720 1.395 . S
C718 C721 1.403 . S
H719 C725 0.930 . S
C720 H706 0.930 . S
C720 C718 1.395 . S
C720 C723 1.403 . S
C721 C718 1.403 . S
C721 C722 1.524 . S
C721 C725 1.400 . S
C722 H707 0.960 . S
C722 H708 0.960 . S
C722 H709 0.960 . S
C722 C721 1.524 . S
C723 C720 1.403 . S
C723 C724 1.392 . S
C723 C727 1.495 . S
C724 C723 1.392 . S
C724 C725 1.385 . S
C724 C726 1.478 . S
C725 H719 0.930 . S
C725 C721 1.400 . S
C725 C724 1.385 . S
C726 C724 1.478 . S
C726 C728 1.381 . S
C726 C732 1.383 . S
C727 C723 1.495 . S
C727 H733 0.959 . S
C727 H734 0.961 . S
C727 H735 0.960 . S
C728 C726 1.381 . S
C728 C729 1.394 . S
C728 H736 0.930 . S
C729 C728 1.394 . S
C729 C730 1.383 . S
C729 H737 0.929 . S
C730 C729 1.383 . S
C730 C731 1.377 . S
C731 H715 0.930 . S
C731 C730 1.377 . S
C731 C732 1.379 . S
C732 H716 0.931 . S
C732 C726 1.383 . S
C732 C731 1.379 . S
H733 C727 0.959 . S
H734 C727 0.961 . S
H735 C727 0.960 . S
H736 C728 0.930 . S
H737 C729 0.929 . S
H738 C746 0.929 . S
H739 C748 0.930 . S
H740 C750 0.930 . S
H741 C753 0.929 . S
H742 C756 0.930 . S
H743 C758 0.960 . S
H744 C758 0.960 . S
H745 C758 0.960 . S
C746 H738 0.929 . S
C746 C747 1.377 . S
C746 C748 1.384 . S
C747 C746 1.377 . S
C747 C753 1.390 . S
C748 H739 0.930 . S
C748 C746 1.384 . S
C748 C749 1.372 . S
C749 C748 1.372 . S
C749 C750 1.400 . S
C749 C754 1.490 . S
C750 H740 0.930 . S
C750 C749 1.400 . S
C750 C753 1.386 . S
H751 C767 0.930 . S
H752 C768 0.931 . S
C753 H741 0.929 . S
C753 C747 1.390 . S
C753 C750 1.386 . S
C754 C749 1.490 . S
C754 C756 1.395 . S
C754 C757 1.403 . S
H755 C761 0.930 . S
C756 H742 0.930 . S
C756 C754 1.395 . S
C756 C759 1.403 . S
C757 C754 1.403 . S
C757 C758 1.524 . S
C757 C761 1.400 . S
C758 H743 0.960 . S
C758 H744 0.960 . S
C758 H745 0.960 . S
C758 C757 1.524 . S
C759 C756 1.403 . S
C759 C760 1.392 . S
C759 C763 1.495 . S
C760 C759 1.392 . S
C760 C761 1.385 . S
C760 C762 1.478 . S
C761 H755 0.930 . S
C761 C757 1.400 . S
C761 C760 1.385 . S
C762 C760 1.478 . S
C762 C764 1.381 . S
C762 C768 1.383 . S
C763 C759 1.495 . S
C763 H769 0.959 . S
C763 H770 0.961 . S
C763 H771 0.960 . S
C764 C762 1.381 . S
C764 C765 1.394 . S
C764 H772 0.930 . S
C765 C764 1.394 . S
C765 C766 1.383 . S
C765 H773 0.929 . S
C766 C765 1.383 . S
C766 C767 1.377 . S
C767 H751 0.930 . S
C767 C766 1.377 . S
C767 C768 1.379 . S
C768 H752 0.931 . S
C768 C762 1.383 . S
C768 C767 1.379 . S
H769 C763 0.959 . S
H770 C763 0.961 . S
H771 C763 0.960 . S
H772 C764 0.930 . S
H773 C765 0.929 . S
H774 C782 0.929 . S
H775 C784 0.930 . S
H776 C786 0.930 . S
H777 C789 0.929 . S
H778 C792 0.930 . S
H779 C794 0.960 . S
H780 C794 0.960 . S
H781 C794 0.960 . S
C782 H774 0.929 . S
C782 C783 1.377 . S
C782 C784 1.384 . S
C783 C782 1.377 . S
C783 C789 1.390 . S
C784 H775 0.930 . S
C784 C782 1.384 . S
C784 C785 1.372 . S
C785 C784 1.372 . S
C785 C786 1.400 . S
C785 C790 1.490 . S
C786 H776 0.930 . S
C786 C785 1.400 . S
C786 C789 1.386 . S
H787 C803 0.930 . S
H788 C804 0.931 . S
C789 H777 0.929 . S
C789 C783 1.390 . S
C789 C786 1.386 . S
C790 C785 1.490 . S
C790 C792 1.395 . S
C790 C793 1.403 . S
H791 C797 0.930 . S
C792 H778 0.930 . S
C792 C790 1.395 . S
C792 C795 1.403 . S
C793 C790 1.403 . S
C793 C794 1.524 . S
C793 C797 1.400 . S
C794 H779 0.960 . S
C794 H780 0.960 . S
C794 H781 0.960 . S
C794 C793 1.524 . S
C795 C792 1.403 . S
C795 C796 1.392 . S
C795 C799 1.495 . S
C796 C795 1.392 . S
C796 C797 1.385 . S
C796 C798 1.478 . S
C797 H791 0.930 . S
C797 C793 1.400 . S
C797 C796 1.385 . S
C798 C796 1.478 . S
C798 C800 1.381 . S
C798 C804 1.383 . S
C799 C795 1.495 . S
C799 H805 0.959 . S
C799 H806 0.961 . S
C799 H807 0.960 . S
C800 C798 1.381 . S
C800 C801 1.394 . S
C800 H808 0.930 . S
C801 C800 1.394 . S
C801 C802 1.383 . S
C801 H809 0.929 1_545 S
C802 C801 1.383 . S
C802 C803 1.377 . S
C803 H787 0.930 . S
C803 C802 1.377 . S
C803 C804 1.379 . S
C804 H788 0.931 . S
C804 C798 1.383 . S
C804 C803 1.379 . S
H805 C799 0.959 . S
H806 C799 0.961 . S
H807 C799 0.960 . S
H808 C800 0.930 . S
H809 C801 0.929 1_565 S
H810 C818 0.929 . S
H811 C820 0.930 . S
H812 C822 0.930 . S
H813 C825 0.929 . S
H814 C828 0.930 . S
H815 C830 0.960 . S
H816 C830 0.960 . S
H817 C830 0.960 . S
C818 H810 0.929 . S
C818 C819 1.377 . S
C818 C820 1.384 . S
C819 C818 1.377 . S
C819 C825 1.390 . S
C820 H811 0.930 . S
C820 C818 1.384 . S
C820 C821 1.372 . S
C821 C820 1.372 . S
C821 C822 1.400 . S
C821 C826 1.490 . S
C822 H812 0.930 . S
C822 C821 1.400 . S
C822 C825 1.386 . S
H823 C839 0.930 . S
H824 C840 0.931 . S
C825 H813 0.929 . S
C825 C819 1.390 . S
C825 C822 1.386 . S
C826 C821 1.490 . S
C826 C828 1.395 . S
C826 C829 1.403 . S
H827 C833 0.930 . S
C828 H814 0.930 . S
C828 C826 1.395 . S
C828 C831 1.433 . S
C829 C826 1.403 . S
C829 C830 1.524 . S
C829 C833 1.400 1_556 S
C830 H815 0.960 . S
C830 H816 0.960 . S
C830 H817 0.960 . S
C830 C829 1.524 . S
C831 C828 1.433 . S
C831 C832 1.375 1_556 S
C831 C835 1.484 1_556 S
C832 C831 1.375 1_554 S
C832 C833 1.385 . S
C832 C834 1.478 . S
C833 H827 0.930 . S
C833 C829 1.400 1_554 S
C833 C832 1.385 . S
C834 C832 1.478 . S
C834 C836 1.381 . S
C834 C840 1.383 . S
C835 C831 1.484 1_554 S
C835 H841 0.959 1_554 S
C835 H842 0.961 . S
C835 H843 0.960 . S
C836 C834 1.381 . S
C836 C837 1.394 . S
C836 H844 0.930 . S
C837 C836 1.394 . S
C837 C838 1.383 . S
C837 H845 0.929 . S
C838 C837 1.383 . S
C838 C839 1.377 . S
C839 H823 0.930 . S
C839 C838 1.377 . S
C839 C840 1.379 . S
C840 H824 0.931 . S
C840 C834 1.383 . S
C840 C839 1.379 . S
H841 C835 0.959 1_556 S
H842 C835 0.961 . S
H843 C835 0.960 . S
H844 C836 0.930 . S
H845 C837 0.929 . S
H846 C854 0.929 . S
H847 C856 0.930 . S
H848 C858 0.930 . S
H849 C861 0.929 . S
H850 C864 0.930 . S
H851 C866 0.960 . S
H852 C866 0.960 . S
H853 C866 0.960 . S
C854 H846 0.929 . S
C854 C855 1.377 . S
C854 C856 1.384 . S
C855 C854 1.377 . S
C855 C861 1.390 . S
C856 H847 0.930 . S
C856 C854 1.384 . S
C856 C857 1.372 . S
C857 C856 1.372 . S
C857 C858 1.400 . S
C857 C862 1.490 . S
C858 H848 0.930 . S
C858 C857 1.400 . S
C858 C861 1.386 . S
H859 C875 0.930 . S
H860 C876 0.931 . S
C861 H849 0.929 . S
C861 C855 1.390 . S
C861 C858 1.386 . S
C862 C857 1.490 . S
C862 C864 1.395 . S
C862 C865 1.403 1_455 S
H863 C869 0.944 . S
C864 H850 0.930 . S
C864 C862 1.395 . S
C864 C867 1.403 . S
C865 C862 1.403 1_655 S
C865 C866 1.524 . S
C865 C869 1.400 . S
C866 H851 0.960 . S
C866 H852 0.960 . S
C866 H853 0.960 . S
C866 C865 1.524 . S
C867 C864 1.403 . S
C867 C868 1.392 . S
C867 C871 1.495 . S
C868 C867 1.392 . S
C868 C869 1.372 1_455 S
C868 C870 1.478 . S
C869 H863 0.944 . S
C869 C865 1.400 . S
C869 C868 1.372 1_655 S
C870 C868 1.478 . S
C870 C872 1.381 . S
C870 C876 1.383 . S
C871 C867 1.495 . S
C871 H877 0.959 . S
C871 H878 0.961 . S
C871 H879 0.960 . S
C872 C870 1.381 . S
C872 C873 1.394 . S
C872 H880 0.930 . S
C873 C872 1.394 . S
C873 C874 1.383 . S
C873 H881 0.929 . S
C874 C873 1.383 . S
C874 C875 1.377 . S
C875 H859 0.930 . S
C875 C874 1.377 . S
C875 C876 1.379 . S
C876 H860 0.931 . S
C876 C870 1.383 . S
C876 C875 1.379 . S
H877 C871 0.959 . S
H878 C871 0.961 . S
H879 C871 0.960 . S
H880 C872 0.930 . S
H881 C873 0.929 . S
C243 C19 1.996 . S
C262 C226 1.942 . S
C279 C46 1.296 . S
C298 C188 1.201 . S
C315 C95 0.363 . S
C334 C207 0.505 . S
C351 C10 1.851 . S
C370 C221 1.820 . S
C406 C183 1.087 . S
C387 C55 1.096 . S
C442 C202 0.369 . S
C423 C86 0.301 . S
C459 C59 3.241 . S
C478 C150 3.141 . S
C495 C90 1.876 . S
C514 C164 1.851 . S
C531 C15 1.082 . S
C550 C126 1.063 . S
C586 C145 2.863 . S
C567 C50 2.902 . S
C622 C169 1.927 . S
C603 C99 1.985 . S
C639 C6 1.316 . S
C658 C131 1.283 . S
C694 C160 1.531 . S
C675 C9 1.476 . S
C711 C58 1.574 . S
C730 C122 1.582 . S
C747 C98 1.674 . S
C766 C141 1.751 . S
C802 C198 1.392 . S
C783 C49 1.339 . S
C838 C217 1.550 . S
C819 C89 1.516 . S
C855 C18 1.574 . S
C874 C179 1.556 . S
