# Generated by pormake.
# Topology nom, (4,4)-cn, num edge types: 1
# Building blocks:
#     Node 0, Type 0, BuildingBlock: GIZVER_clean_linker_0, # of connection points: 4
#     Node 1, Type 0, BuildingBlock: GIZVER_clean_linker_0, # of connection points: 4
#     Node 2, Type 0, BuildingBlock: GIZVER_clean_linker_0, # of connection points: 4
#     Node 3, Type 0, BuildingBlock: GIZVER_clean_linker_0, # of connection points: 4
#     Node 4, Type 0, BuildingBlock: GIZVER_clean_linker_0, # of connection points: 4
#     Node 5, Type 0, BuildingBlock: GIZVER_clean_linker_0, # of connection points: 4
#     Node 6, Type 1, BuildingBlock: QUQFOY_clean_sbu_1, # of connection points: 4
#     Node 7, Type 1, BuildingBlock: QUQFOY_clean_sbu_1, # of connection points: 4
#     Node 8, Type 1, BuildingBlock: QUQFOY_clean_sbu_1, # of connection points: 4
#     Node 9, Type 1, BuildingBlock: QUQFOY_clean_sbu_1, # of connection points: 4
#     Node 10, Type 1, BuildingBlock: QUQFOY_clean_sbu_1, # of connection points: 4
#     Node 11, Type 1, BuildingBlock: QUQFOY_clean_sbu_1, # of connection points: 4
#     Edge 12, Type (0, 1), BuildingBlock: TEMPAE_clean_linker_10, # of connection points: 2
#     Edge 13, Type (0, 1), BuildingBlock: TEMPAE_clean_linker_10, # of connection points: 2
#     Edge 14, Type (0, 1), BuildingBlock: TEMPAE_clean_linker_10, # of connection points: 2
#     Edge 15, Type (0, 1), BuildingBlock: TEMPAE_clean_linker_10, # of connection points: 2
#     Edge 16, Type (0, 1), BuildingBlock: TEMPAE_clean_linker_10, # of connection points: 2
#     Edge 17, Type (0, 1), BuildingBlock: TEMPAE_clean_linker_10, # of connection points: 2
#     Edge 18, Type (0, 1), BuildingBlock: TEMPAE_clean_linker_10, # of connection points: 2
#     Edge 19, Type (0, 1), BuildingBlock: TEMPAE_clean_linker_10, # of connection points: 2
#     Edge 20, Type (0, 1), BuildingBlock: TEMPAE_clean_linker_10, # of connection points: 2
#     Edge 21, Type (0, 1), BuildingBlock: TEMPAE_clean_linker_10, # of connection points: 2
#     Edge 22, Type (0, 1), BuildingBlock: TEMPAE_clean_linker_10, # of connection points: 2
#     Edge 23, Type (0, 1), BuildingBlock: TEMPAE_clean_linker_10, # of connection points: 2
#     Edge 24, Type (0, 1), BuildingBlock: TEMPAE_clean_linker_10, # of connection points: 2
#     Edge 25, Type (0, 1), BuildingBlock: TEMPAE_clean_linker_10, # of connection points: 2
#     Edge 26, Type (0, 1), BuildingBlock: TEMPAE_clean_linker_10, # of connection points: 2
#     Edge 27, Type (0, 1), BuildingBlock: TEMPAE_clean_linker_10, # of connection points: 2
#     Edge 28, Type (0, 1), BuildingBlock: TEMPAE_clean_linker_10, # of connection points: 2
#     Edge 29, Type (0, 1), BuildingBlock: TEMPAE_clean_linker_10, # of connection points: 2
#     Edge 30, Type (0, 1), BuildingBlock: TEMPAE_clean_linker_10, # of connection points: 2
#     Edge 31, Type (0, 1), BuildingBlock: TEMPAE_clean_linker_10, # of connection points: 2
#     Edge 32, Type (0, 1), BuildingBlock: TEMPAE_clean_linker_10, # of connection points: 2
#     Edge 33, Type (0, 1), BuildingBlock: TEMPAE_clean_linker_10, # of connection points: 2
#     Edge 34, Type (0, 1), BuildingBlock: TEMPAE_clean_linker_10, # of connection points: 2
#     Edge 35, Type (0, 1), BuildingBlock: TEMPAE_clean_linker_10, # of connection points: 2
# Relax obj value: 0.004
# Max RMSD: 0.086
# Mean RMSD: 0.077
data_MOF--net-nom--node1-QUQFOY_clean_sbu_1--node2-GIZVER_clean_linker_0--edge1-TEMPAE_clean_linker_10
_symmetry_space_group_name_H-M    P1
_symmetry_Int_Tables_number       1
_symmetry_cell_setting            triclinic
loop_
_symmetry_equiv_pos_as_xyz
'x, y, z'
_cell_length_a     48.973033
_cell_length_b     49.012539
_cell_length_c     44.357425
_cell_angle_alpha  89.881891
_cell_angle_beta   90.02269
_cell_angle_gamma 120.07965
loop_
_atom_site_label
_atom_site_type_symbol
_atom_site_fract_x
_atom_site_fract_y
_atom_site_fract_z
_atom_type_partial_charge
H0 H 0.97425 0.58442 0.36182 0.0
H1 H 1.00054 0.55943 0.27799 0.0
H2 H 0.9111 0.49665 0.31958 0.0
H3 H 0.02267 0.62165 0.33868 0.0
H4 H 0.018 0.61943 0.2988 0.0
H5 H 0.05279 0.59672 0.36299 0.0
H6 H 0.132 0.60986 0.31022 0.0
H7 H 0.05907 0.62098 0.26875 0.0
C8 C 0.9697 0.56742 0.34416 0.0
C9 C 0.94101 0.53876 0.34402 0.0
C10 C 0.99174 0.57473 0.32063 0.0
C11 C 0.98431 0.55325 0.29674 0.0
C12 C 0.95529 0.52478 0.29616 0.0
C13 C 0.93429 0.51762 0.32033 0.0
C14 C 0.02078 0.60715 0.31867 0.0
C15 C 0.05097 0.606 0.3156 0.0
C16 C 0.06437 0.60044 0.34132 0.0
C17 C 0.09407 0.60273 0.33954 0.0
C18 C 0.10892 0.60788 0.31151 0.0
C19 C 0.09698 0.61519 0.2861 0.0
C20 C 0.06784 0.61416 0.28809 0.0
H21 H 0.42879 0.97254 0.52458 0.0
H22 H 0.47897 0.99746 0.43999 0.0
H23 H 0.44739 0.90632 0.47992 0.0
H24 H 0.4427 0.02208 0.50238 0.0
H25 H 0.43954 0.01791 0.46239 0.0
H26 H 0.50299 0.04144 0.5218 0.0
H27 H 0.56449 0.1297 0.47761 0.0
H28 H 0.47581 0.06498 0.43759 0.0
C29 C 0.4403 0.96729 0.50649 0.0
C30 C 0.43802 0.93761 0.50548 0.0
C31 C 0.45576 0.98938 0.48313 0.0
C32 C 0.46845 0.98114 0.45864 0.0
C33 C 0.46581 0.95123 0.45732 0.0
C34 C 0.45123 0.93009 0.48127 0.0
C35 C 0.45448 0.01958 0.48198 0.0
C36 C 0.4867 0.0488 0.47902 0.0
C37 C 0.50872 0.05706 0.50256 0.0
C38 C 0.53702 0.08624 0.50229 0.0
C39 C 0.54363 0.10642 0.47749 0.0
C40 C 0.52186 0.09889 0.45416 0.0
C41 C 0.4933 0.07012 0.45495 0.0
H42 H 0.4287 0.46856 0.62103 0.0
H43 H 0.48052 0.49655 0.70444 0.0
H44 H 0.45836 0.55999 0.65748 0.0
H45 H 0.4289 0.42926 0.65415 0.0
H46 H 0.44461 0.44001 0.6913 0.0
H47 H 0.4667 0.44069 0.61007 0.0
H48 H 0.54395 0.42683 0.63233 0.0
H49 H 0.49395 0.44315 0.70315 0.0
C50 C 0.44207 0.48651 0.6377 0.0
C51 C 0.44399 0.516 0.63558 0.0
C52 C 0.45576 0.47959 0.66235 0.0
C53 C 0.47114 0.50239 0.6849 0.0
C54 C 0.47207 0.53152 0.68356 0.0
C55 C 0.45937 0.53839 0.65822 0.0
C56 C 0.44997 0.44658 0.6671 0.0
C57 C 0.47797 0.44366 0.65761 0.0
C58 C 0.48258 0.44023 0.62684 0.0
C59 C 0.5064 0.43414 0.618 0.0
C60 C 0.52634 0.43269 0.6396 0.0
C61 C 0.52233 0.43602 0.67035 0.0
C62 C 0.49796 0.44153 0.67936 0.0
H63 H 0.98635 0.42081 0.77456 0.0
H64 H 0.9937 0.45679 0.8642 0.0
H65 H 0.92112 0.44926 0.80436 0.0
H66 H 0.02163 0.41781 0.81085 0.0
H67 H 0.02052 0.42783 0.84933 0.0
H68 H 0.05243 0.46202 0.77279 0.0
H69 H 0.13705 0.53893 0.80919 0.0
H70 H 0.0634 0.47576 0.86918 0.0
C71 C 0.97917 0.43207 0.79128 0.0
C72 C 0.9523 0.43469 0.78608 0.0
C73 C 0.9953 0.44181 0.81899 0.0
C74 C 0.98317 0.45245 0.84196 0.0
C75 C 0.95567 0.45415 0.83719 0.0
C76 C 0.94233 0.448 0.80828 0.0
C77 C 0.02246 0.43645 0.82576 0.0
C78 C 0.05371 0.4663 0.82141 0.0
C79 C 0.06581 0.47581 0.79207 0.0
C80 C 0.09605 0.50178 0.78784 0.0
C81 C 0.11339 0.51922 0.81275 0.0
C82 C 0.102 0.51021 0.84215 0.0
C83 C 0.07201 0.48356 0.84648 0.0
H84 H 0.61167 0.06268 0.01234 0.0
H85 H 0.55889 0.03795 0.92931 0.0
H86 H 0.59611 0.13077 0.96692 0.0
H87 H 0.5981 0.01387 -0.01097 0.0
H88 H 0.59368 0.01383 0.94906 0.0
H89 H 0.5433 1.00037 0.01848 0.0
H90 H 0.47193 0.90907 -0.0118 0.0
H91 H 0.55143 0.96613 0.93145 0.0
C92 C 0.60027 0.06834 -0.00559 0.0
C93 C 0.60433 0.0987 -0.00724 0.0
C94 C 0.58348 0.04611 0.97165 0.0
C95 C 0.57066 0.05459 0.94743 0.0
C96 C 0.57478 0.08508 0.94561 0.0
C97 C 0.59111 0.10661 0.96877 0.0
C98 C 0.58313 0.01513 0.97084 0.0
C99 C 0.55024 0.98712 0.97397 0.0
C100 C 0.53334 0.98269 0.00091 0.0
C101 C 0.50458 0.95479 0.00585 0.0
C102 C 0.49278 0.93157 0.98342 0.0
C103 C 0.50924 0.93526 0.95648 0.0
C104 C 0.538 0.96332 0.95178 0.0
H105 H 0.6138 0.55505 0.09992 0.0
H106 H 0.58141 0.5645 0.18764 0.0
H107 H 0.60459 0.49225 0.17192 0.0
H108 H 0.60268 0.59649 0.10777 0.0
H109 H 0.61049 0.6103 0.14571 0.0
H110 H 0.54353 0.55349 0.09583 0.0
H111 H 0.48116 0.58429 0.1296 0.0
H112 H 0.57302 0.62092 0.16832 0.0
C113 C 0.60615 0.54623 0.12258 0.0
C114 C 0.61037 0.52168 0.1336 0.0
C115 C 0.59458 0.56117 0.14176 0.0
C116 C 0.58779 0.55157 0.17209 0.0
C117 C 0.59107 0.52647 0.18268 0.0
C118 C 0.60102 0.51093 0.16311 0.0
C119 C 0.59394 0.59018 0.13133 0.0
C120 C 0.56124 0.58604 0.13318 0.0
C121 C 0.5381 0.56646 0.11223 0.0
C122 C 0.50891 0.5654 0.11098 0.0
C123 C 0.50284 0.58348 0.13144 0.0
C124 C 0.52579 0.60364 0.15188 0.0
C125 C 0.55483 0.6045 0.15319 0.0
O126 O 0.59457 0.3785 0.42096 0.0
Cd127 Cd 0.61693 0.36984 0.386 0.0
Cd128 Cd 0.66507 0.42165 0.41021 0.0
O129 O 0.63709 0.40777 0.44809 0.0
O130 O 0.5862 0.32598 0.37264 0.0
O131 O 0.63213 0.33914 0.3937 0.0
C132 C 0.6054 0.31749 0.38304 0.0
C133 C 0.71928 0.4397 0.41137 0.0
C134 C 0.60723 0.3928 0.44536 0.0
C135 C 0.63674 0.42794 0.3528 0.0
O136 O 0.65048 0.44118 0.37723 0.0
O137 O 0.62607 0.39861 0.34894 0.0
O138 O 0.70784 0.45599 0.42288 0.0
O139 O 0.69971 0.41234 0.40029 0.0
O140 O 0.24072 0.59234 0.58956 0.0
Cd141 Cd 0.27165 0.61127 0.55403 0.0
Cd142 Cd 0.26989 0.6637 0.57232 0.0
O143 O 0.24998 0.63696 0.6105 0.0
O144 O 0.28416 0.57919 0.54455 0.0
O145 O 0.31759 0.62672 0.56207 0.0
C146 C 0.31209 0.5991 0.55394 0.0
C147 C 0.30756 0.71751 0.57488 0.0
C148 C 0.23664 0.60704 0.61103 0.0
C149 C 0.2378 0.63245 0.51401 0.0
O150 O 0.24045 0.6508 0.53543 0.0
O151 O 0.25225 0.61697 0.51508 0.0
O152 O 0.27864 0.70709 0.58265 0.0
O153 O 0.31554 0.69715 0.56677 0.0
O154 O 0.65701 0.23969 0.76726 0.0
Cd155 Cd 0.67944 0.26166 0.7278 0.0
Cd156 Cd 0.62524 0.26475 0.71905 0.0
O157 O 0.6108 0.23471 0.75573 0.0
O158 O 0.7235 0.26967 0.7305 0.0
O159 O 0.71212 0.30797 0.72672 0.0
C160 C 0.73301 0.29931 0.72852 0.0
C161 C 0.61166 0.30427 0.71918 0.0
C162 C 0.62789 0.22872 0.77298 0.0
C163 C 0.64154 0.23168 0.672 0.0
O164 O 0.62552 0.24482 0.67819 0.0
O165 O 0.66318 0.23443 0.68963 0.0
O166 O 0.59129 0.27539 0.71313 0.0
O167 O 0.64019 0.31109 0.72525 0.0
O168 O 0.41879 0.63504 0.94803 0.0
Cd169 Cd 0.42417 0.66053 0.90927 0.0
Cd170 Cd 0.37133 0.60843 0.89418 0.0
O171 O 0.38393 0.58908 0.92905 0.0
O172 O 0.45566 0.70482 0.9199 0.0
O173 O 0.40773 0.69042 0.90286 0.0
C174 C 0.43505 0.71242 0.91189 0.0
C175 C 0.3189 0.59661 0.89336 0.0
C176 C 0.40305 0.60513 0.94986 0.0
C177 C 0.42544 0.63099 0.85158 0.0
O178 O 0.39557 0.61527 0.85424 0.0
O179 O 0.44227 0.6492 0.8726 0.0
O180 O 0.32694 0.57677 0.88401 0.0
O181 O 0.34077 0.62373 0.90292 0.0
O182 O 0.8141 0.38382 0.03343 0.0
Cd183 Cd 0.78818 0.3655 0.07204 0.0
Cd184 Cd 0.78415 0.42041 0.06932 0.0
O185 O 0.8097 0.42642 0.03042 0.0
O186 O 0.77813 0.32077 0.07409 0.0
O187 O 0.74158 0.33444 0.06947 0.0
C188 C 0.74877 0.31247 0.07134 0.0
C189 C 0.74536 0.43511 0.06708 0.0
C190 C 0.82031 0.40933 0.02023 0.0
C191 C 0.81809 0.41169 0.12228 0.0
O192 O 0.80834 0.42854 0.10963 0.0
O193 O 0.81208 0.38542 0.11116 0.0
O194 O 0.77499 0.45567 0.06641 0.0
O195 O 0.73744 0.40575 0.06901 0.0
O196 O 0.42979 0.80468 0.18765 0.0
Cd197 Cd 0.42836 0.78073 0.22634 0.0
Cd198 Cd 0.37067 0.78128 0.23411 0.0
O199 O 0.38922 0.81126 0.1977 0.0
O200 O 0.46607 0.77538 0.22249 0.0
O201 O 0.41751 0.73506 0.22512 0.0
C202 C 0.44739 0.74533 0.22275 0.0
C203 C 0.31672 0.7442 0.23256 0.0
C204 C 0.4128 0.81679 0.18144 0.0
C205 C 0.41953 0.81077 0.2825 0.0
O206 O 0.39093 0.80051 0.27508 0.0
O207 O 0.43782 0.80602 0.26582 0.0
O208 O 0.32663 0.77371 0.23648 0.0
O209 O 0.33734 0.7353 0.22979 0.0
C210 C 0.13481 0.66431 0.26025 0.0
C211 C 0.11963 0.63135 0.26128 0.0
C212 C 0.16564 0.6821 0.24893 0.0
C213 C 0.18124 0.6664 0.23782 0.0
C214 C 0.16421 0.63316 0.23486 0.0
C215 C 0.13363 0.61594 0.24695 0.0
C216 C 0.1828 0.71746 0.25261 0.0
C217 C 0.17949 0.61551 0.22218 0.0
C218 C 0.26437 0.71872 0.2071 0.0
C219 C 0.28266 0.72148 0.23242 0.0
C220 C 0.23129 0.6997 0.20791 0.0
C221 C 0.21632 0.68399 0.23501 0.0
C222 C 0.23497 0.68641 0.26049 0.0
C223 C 0.26797 0.70495 0.25876 0.0
C224 C 0.21238 0.69718 0.18013 0.0
C225 C 0.22003 0.67039 0.29 0.0
H226 H 0.1242 0.67624 0.27174 0.0
H227 H 0.12199 0.59043 0.24799 0.0
H228 H 0.19924 0.72415 0.27201 0.0
H229 H 0.19704 0.72941 0.23232 0.0
H230 H 0.16625 0.72633 0.25689 0.0
H231 H 0.16162 0.5912 0.21532 0.0
H232 H 0.19451 0.6281 0.20244 0.0
H233 H 0.19487 0.61387 0.23961 0.0
H234 H 0.27593 0.73183 0.18682 0.0
H235 H 0.28229 0.70753 0.27838 0.0
H236 H 0.19954 0.7102 0.18373 0.0
H237 H 0.19447 0.6722 0.1757 0.0
H238 H 0.22759 0.70708 0.15987 0.0
H239 H 0.20464 0.67928 0.29855 0.0
H240 H 0.23787 0.67444 0.30755 0.0
H241 H 0.20492 0.64461 0.28656 0.0
C242 C 0.51383 0.14295 0.43911 0.0
C243 C 0.52742 0.12438 0.43286 0.0
C244 C 0.52596 0.17302 0.42622 0.0
C245 C 0.55195 0.18446 0.40615 0.0
C246 C 0.56389 0.16454 0.39773 0.0
C247 C 0.55184 0.13489 0.41165 0.0
C248 C 0.5128 0.19356 0.43626 0.0
C249 C 0.59085 0.17538 0.3757 0.0
C250 C 0.57139 0.26129 0.36704 0.0
C251 C 0.59535 0.2836 0.38564 0.0
C252 C 0.55835 0.22878 0.3722 0.0
C253 C 0.56881 0.21839 0.39714 0.0
C254 C 0.59386 0.24084 0.41526 0.0
C255 C 0.60712 0.27315 0.40901 0.0
C256 C 0.53254 0.20563 0.35171 0.0
C257 C 0.6054 0.23087 0.44241 0.0
H258 H 0.49544 0.13504 0.45607 0.0
H259 H 0.56267 0.12068 0.40726 0.0
H260 H 0.53074 0.21342 0.44995 0.0
H261 H 0.50734 0.20388 0.41651 0.0
H262 H 0.49105 0.18033 0.45003 0.0
H263 H 0.59326 0.15537 0.36724 0.0
H264 H 0.58753 0.18766 0.35622 0.0
H265 H 0.61323 0.19236 0.38696 0.0
H266 H 0.56234 0.26927 0.34882 0.0
H267 H 0.62546 0.29029 0.42358 0.0
H268 H 0.50962 0.19468 0.36379 0.0
H269 H 0.53703 0.18637 0.34519 0.0
H270 H 0.53041 0.21712 0.33093 0.0
H271 H 0.58598 0.2191 0.45908 0.0
H272 H 0.62574 0.25113 0.45358 0.0
H273 H 0.61255 0.21355 0.43574 0.0
C274 C 0.39263 0.50948 0.61987 0.0
C275 C 0.42476 0.52197 0.61382 0.0
C276 C 0.37537 0.52159 0.60561 0.0
C277 C 0.39054 0.54636 0.58432 0.0
C278 C 0.42238 0.55722 0.57634 0.0
C279 C 0.43934 0.54529 0.59165 0.0
C280 C 0.34167 0.50967 0.61526 0.0
C281 C 0.43912 0.58281 0.55306 0.0
C282 C 0.33392 0.564 0.54142 0.0
C283 C 0.33579 0.58913 0.55819 0.0
C284 C 0.3532 0.55115 0.54832 0.0
C285 C 0.37401 0.56302 0.57321 0.0
C286 C 0.37686 0.58923 0.58943 0.0
C287 C 0.35804 0.60226 0.58141 0.0
C288 C 0.35029 0.52403 0.52979 0.0
C289 C 0.39832 0.60227 0.61648 0.0
H290 H 0.38165 0.49193 0.63754 0.0
H291 H 0.46436 0.55524 0.58738 0.0
H292 H 0.3401 0.52873 0.62717 0.0
H293 H 0.32597 0.50302 0.59532 0.0
H294 H 0.33274 0.48895 0.63053 0.0
H295 H 0.46149 0.58441 0.54546 0.0
H296 H 0.42376 0.57858 0.53316 0.0
H297 H 0.44476 0.60588 0.5628 0.0
H298 H 0.31687 0.55391 0.5233 0.0
H299 H 0.35938 0.62152 0.59456 0.0
H300 H 0.33793 0.50191 0.5431 0.0
H301 H 0.374 0.52783 0.524 0.0
H302 H 0.33687 0.52081 0.50863 0.0
H303 H 0.39026 0.58399 0.63438 0.0
H304 H 0.39878 0.62348 0.6259 0.0
H305 H 0.42274 0.60858 0.61035 0.0
C306 C 0.91616 0.4291 0.74391 0.0
C307 C 0.92867 0.41534 0.76308 0.0
C308 C 0.88596 0.41087 0.73129 0.0
C309 C 0.86765 0.37853 0.73901 0.0
C310 C 0.8815 0.36406 0.75594 0.0
C311 C 0.9121 0.38262 0.76735 0.0
C312 C 0.87263 0.42687 0.71212 0.0
C313 C 0.86276 0.32982 0.7652 0.0
C314 C 0.77984 0.3441 0.75242 0.0
C315 C 0.76697 0.32238 0.72889 0.0
C316 C 0.81268 0.36312 0.75552 0.0
C317 C 0.83292 0.3611 0.73383 0.0
C318 C 0.81977 0.34053 0.70895 0.0
C319 C 0.78688 0.32079 0.70719 0.0
C320 C 0.82571 0.38412 0.78287 0.0
C321 C 0.84039 0.33861 0.68474 0.0
H322 H 0.92887 0.45447 0.74084 0.0
H323 H 0.92155 0.37209 0.78262 0.0
H324 H 0.85837 0.41138 0.69329 0.0
H325 H 0.8569 0.43194 0.72606 0.0
H326 H 0.89158 0.44951 0.70268 0.0
H327 H 0.87792 0.32137 0.7754 0.0
H328 H 0.84465 0.32679 0.782 0.0
H329 H 0.85022 0.31468 0.74562 0.0
H330 H 0.76427 0.34496 0.76929 0.0
H331 H 0.7767 0.30392 0.68895 0.0
H332 H 0.84132 0.40894 0.7758 0.0
H333 H 0.84022 0.37703 0.7964 0.0
H334 H 0.80679 0.38301 0.79753 0.0
H335 H 0.85902 0.36259 0.67782 0.0
H336 H 0.82654 0.32574 0.66454 0.0
H337 H 0.85234 0.32614 0.69363 0.0
C338 C 0.51927 0.89769 0.92667 0.0
C339 C 0.49815 0.90729 0.93645 0.0
C340 C 0.50817 0.86684 0.91622 0.0
C341 C 0.47532 0.84499 0.91634 0.0
C342 C 0.45392 0.85557 0.92306 0.0
C343 C 0.46564 0.88679 0.93241 0.0
C344 C 0.53174 0.85685 0.90788 0.0
C345 C 0.41873 0.83314 0.92382 0.0
C346 C 0.44236 0.76124 0.88689 0.0
C347 C 0.44303 0.74556 0.91306 0.0
C348 C 0.45316 0.7938 0.88733 0.0
C349 C 0.46377 0.81055 0.91483 0.0
C350 C 0.46343 0.79434 0.94148 0.0
C351 C 0.45369 0.76217 0.9401 0.0
C352 C 0.45431 0.81043 0.85828 0.0
C353 C 0.47354 0.81101 0.9715 0.0
H354 H 0.54443 0.91329 0.92951 0.0
H355 H 0.44918 0.89435 0.93916 0.0
H356 H 0.53437 0.84367 0.92696 0.0
H357 H 0.52352 0.84097 0.88804 0.0
H358 H 0.55531 0.87747 0.90279 0.0
H359 H 0.40528 0.84584 0.92475 0.0
H360 H 0.41088 0.81749 0.90385 0.0
H361 H 0.41274 0.81792 0.94413 0.0
H362 H 0.43458 0.74829 0.86588 0.0
H363 H 0.45423 0.74987 0.96024 0.0
H364 H 0.47925 0.82738 0.85244 0.0
H365 H 0.44215 0.82423 0.86093 0.0
H366 H 0.44333 0.79372 0.83924 0.0
H367 H 0.49893 0.82918 0.97072 0.0
H368 H 0.46982 0.79453 -0.00965 0.0
H369 H 0.46015 0.82324 0.97641 0.0
C370 C 0.65437 0.51036 0.13241 0.0
C371 C 0.62935 0.51052 0.11718 0.0
C372 C 0.67109 0.49716 0.11948 0.0
C373 C 0.66309 0.48419 0.09017 0.0
C374 C 0.63875 0.48547 0.07399 0.0
C375 C 0.62204 0.49866 0.08775 0.0
C376 C 0.69695 0.49655 0.13759 0.0
C377 C 0.62991 0.47228 0.04254 0.0
C378 C 0.73044 0.47633 0.05874 0.0
C379 C 0.72167 0.44546 0.06742 0.0
C380 C 0.71011 0.48837 0.06323 0.0
C381 C 0.6805 0.46926 0.07723 0.0
C382 C 0.67057 0.43731 0.08394 0.0
C383 C 0.69123 0.42571 0.07876 0.0
C384 C 0.72144 0.52236 0.05523 0.0
C385 C 0.63925 0.41616 0.09899 0.0
H386 H 0.66056 0.52018 0.15493 0.0
H387 H 0.60278 0.49887 0.07593 0.0
H388 H 0.69149 0.47185 0.14074 0.0
H389 H 0.7197 0.5093 0.1253 0.0
H390 H 0.70004 0.5075 0.16017 0.0
H391 H 0.61263 0.47774 0.03197 0.0
H392 H 0.65123 0.48185 0.02805 0.0
H393 H 0.61945 0.44631 0.04328 0.0
H394 H 0.75375 0.49157 0.04945 0.0
H395 H 0.68425 0.40177 0.08535 0.0
H396 H 0.72863 0.53676 0.07609 0.0
H397 H 0.70227 0.5248 0.04459 0.0
H398 H 0.742 0.53213 0.03968 0.0
H399 H 0.64041 0.42341 0.12287 0.0
H400 H 0.63295 0.39101 0.09854 0.0
H401 H 0.62017 0.41843 0.08793 0.0
C402 C 0.42993 0.90314 0.54999 0.0
C403 C 0.41719 0.9116 0.52591 0.0
C404 C 0.41265 0.87329 0.56369 0.0
C405 C 0.38245 0.85123 0.55228 0.0
C406 C 0.36886 0.86057 0.52913 0.0
C407 C 0.38635 0.89074 0.5164 0.0
C408 C 0.4276 0.86464 0.5889 0.0
C409 C 0.33699 0.83779 0.51592 0.0
C410 C 0.35486 0.76365 0.55209 0.0
C411 C 0.32985 0.75189 0.57273 0.0
C412 C 0.373 0.79613 0.5461 0.0
C413 C 0.3665 0.81746 0.56174 0.0
C414 C 0.34269 0.80586 0.58412 0.0
C415 C 0.32431 0.77317 0.58902 0.0
C416 C 0.39783 0.80739 0.52168 0.0
C417 C 0.3357 0.82784 0.60197 0.0
H418 H 0.45405 0.91912 0.55689 0.0
H419 H 0.37689 0.89716 0.49729 0.0
H420 H 0.41014 0.85155 0.60694 0.0
H421 H 0.43603 0.849 0.58008 0.0
H422 H 0.44804 0.8858 0.59888 0.0
H423 H 0.32877 0.84944 0.49969 0.0
H424 H 0.33837 0.81863 0.504 0.0
H425 H 0.3191 0.82671 0.53402 0.0
H426 H 0.35913 0.74731 0.53931 0.0
H427 H 0.30513 0.76421 0.6052 0.0
H428 H 0.42082 0.82617 0.53046 0.0
H429 H 0.39104 0.81773 0.50284 0.0
H430 H 0.40098 0.78804 0.5126 0.0
H431 H 0.3579 0.84823 0.61036 0.0
H432 H 0.31994 0.81577 0.62147 0.0
H433 H 0.32406 0.83728 0.58721 0.0
C434 C 0.57299 0.43987 0.68603 0.0
C435 C 0.54092 0.42857 0.69194 0.0
C436 C 0.588 0.42376 0.69668 0.0
C437 C 0.57077 0.39641 0.71459 0.0
C438 C 0.54011 0.38816 0.7247 0.0
C439 C 0.52532 0.40417 0.71296 0.0
C440 C 0.62062 0.4335 0.68512 0.0
C441 C 0.52148 0.36008 0.74501 0.0
C442 C 0.58139 0.32686 0.69582 0.0
C443 C 0.6023 0.32856 0.71821 0.0
C444 C 0.57139 0.34906 0.69435 0.0
C445 C 0.58161 0.37295 0.71659 0.0
C446 C 0.60244 0.37454 0.73961 0.0
C447 C 0.61302 0.35257 0.73984 0.0
C448 C 0.55002 0.347 0.66877 0.0
C449 C 0.61285 0.39883 0.76433 0.0
H450 H 0.5853 0.45917 0.67021 0.0
H451 H 0.50061 0.39544 0.71785 0.0
H452 H 0.63532 0.43137 0.70294 0.0
H453 H 0.61864 0.41764 0.66636 0.0
H454 H 0.63292 0.45811 0.6765 0.0
H455 H 0.50192 0.36128 0.75641 0.0
H456 H 0.51113 0.33819 0.73138 0.0
H457 H 0.53692 0.35842 0.76236 0.0
H458 H 0.57322 0.30834 0.67904 0.0
H459 H 0.62887 0.35356 0.75742 0.0
H460 H 0.56062 0.36974 0.65636 0.0
H461 H 0.52698 0.34237 0.67784 0.0
H462 H 0.54564 0.32801 0.65251 0.0
H463 H 0.62262 0.42283 0.75469 0.0
H464 H 0.63087 0.39844 0.77926 0.0
H465 H 0.59212 0.39421 0.77823 0.0
C466 C 0.14383 0.55905 0.86635 0.0
C467 C 0.12471 0.5261 0.86707 0.0
C468 C 0.17449 0.57384 0.87817 0.0
C469 C 0.18566 0.55521 0.89191 0.0
C470 C 0.16428 0.52289 0.89773 0.0
C471 C 0.13397 0.50853 0.88491 0.0
C472 C 0.19621 0.60841 0.87168 0.0
C473 C 0.17475 0.50257 0.91383 0.0
C474 C 0.26674 0.57129 0.86823 0.0
C475 C 0.28545 0.58807 0.89283 0.0
C476 C 0.23448 0.56127 0.86754 0.0
C477 C 0.22025 0.56712 0.89268 0.0
C478 C 0.23908 0.58411 0.91769 0.0
C479 C 0.27169 0.59484 0.91727 0.0
C480 C 0.21562 0.54419 0.83987 0.0
C481 C 0.22472 0.58984 0.94533 0.0
H482 H 0.1364 0.57274 0.85297 0.0
H483 H 0.11917 0.48308 0.88586 0.0
H484 H 0.21236 0.62035 0.89085 0.0
H485 H 0.21092 0.61086 0.85169 0.0
H486 H 0.1828 0.62067 0.86675 0.0
H487 H 0.15429 0.48064 0.92274 0.0
H488 H 0.18776 0.49582 0.89783 0.0
H489 H 0.19088 0.51563 0.93273 0.0
H490 H 0.27749 0.56618 0.84932 0.0
H491 H 0.28617 0.60743 0.93651 0.0
H492 H 0.20283 0.55587 0.83105 0.0
H493 H 0.19774 0.5196 0.84583 0.0
H494 H 0.23071 0.54347 0.82155 0.0
H495 H 0.20733 0.59708 0.93914 0.0
H496 H 0.24295 0.60813 0.96018 0.0
H497 H 0.21194 0.56757 0.95839 0.0
C498 C 0.6559 0.14692 -0.00036 0.0
C499 C 0.627 0.12456 0.01218 0.0
C500 C 0.67509 0.17579 0.01394 0.0
C501 C 0.66519 0.18235 0.04164 0.0
C502 C 0.63696 0.1589 0.05543 0.0
C503 C 0.61793 0.13023 0.04031 0.0
C504 C 0.70487 0.20008 -0.0017 0.0
C505 C 0.62598 0.16475 0.08523 0.0
C506 C 0.73079 0.25539 0.07887 0.0
C507 C 0.72464 0.27877 0.06827 0.0
C508 C 0.71017 0.2234 0.07249 0.0
C509 C 0.68326 0.21474 0.05438 0.0
C510 C 0.67608 0.23811 0.04499 0.0
C511 C 0.69671 0.26984 0.05237 0.0
C512 C 0.71817 0.19914 0.08366 0.0
C513 C 0.64785 0.22995 0.0253 0.0
H514 H 0.66255 0.14247 0.97766 0.0
H515 H 0.5953 0.11299 0.04971 0.0
H516 H 0.70253 0.2207 -0.00817 0.0
H517 H 0.72534 0.20867 0.01375 0.0
H518 H 0.71001 0.19062 0.97766 0.0
H519 H 0.60671 0.14264 0.09523 0.0
H520 H 0.64584 0.17572 0.10147 0.0
H521 H 0.61711 0.18139 0.0819 0.0
H522 H 0.75219 0.26216 0.09153 0.0
H523 H 0.69189 0.28785 0.04411 0.0
H524 H 0.72694 0.19101 0.06461 0.0
H525 H 0.69685 0.17821 0.09281 0.0
H526 H 0.73663 0.20878 0.10142 0.0
H527 H 0.65131 0.22214 0.00286 0.0
H528 H 0.64408 0.2503 0.02204 0.0
H529 H 0.62619 0.21013 0.03526 0.0
C530 C 0.51509 0.62607 0.1983 0.0
C531 C 0.52061 0.62742 0.16724 0.0
C532 C 0.50465 0.64534 0.21158 0.0
C533 C 0.49961 0.66615 0.1932 0.0
C534 C 0.50658 0.66841 0.16201 0.0
C535 C 0.51701 0.64906 0.14948 0.0
C536 C 0.49774 0.64249 0.24493 0.0
C537 C 0.5017 0.69029 0.14154 0.0
C538 C 0.44023 0.69196 0.21165 0.0
C539 C 0.46012 0.72372 0.21915 0.0
C540 C 0.45268 0.67235 0.2048 0.0
C541 C 0.48577 0.68472 0.20579 0.0
C542 C 0.50575 0.71622 0.21516 0.0
C543 C 0.49272 0.73538 0.22154 0.0
C544 C 0.43056 0.63892 0.19476 0.0
C545 C 0.54107 0.73022 0.21689 0.0
H546 H 0.51761 0.60905 0.2119 0.0
H547 H 0.52124 0.64992 0.12539 0.0
H548 H 0.50908 0.66616 0.25552 0.0
H549 H 0.47193 0.63152 0.24854 0.0
H550 H 0.50607 0.6279 0.25656 0.0
H551 H 0.50937 0.69004 0.11802 0.0
H552 H 0.47635 0.68326 0.14123 0.0
H553 H 0.51501 0.7148 0.15013 0.0
H554 H 0.41503 0.68276 0.20986 0.0
H555 H 0.50825 0.75981 0.2277 0.0
H556 H 0.43543 0.62224 0.20734 0.0
H557 H 0.43446 0.63657 0.17049 0.0
H558 H 0.40539 0.63192 0.19805 0.0
H559 H 0.54701 0.71405 0.22901 0.0
H560 H 0.55282 0.75344 0.22842 0.0
H561 H 0.55089 0.73346 0.19377 0.0
C562 C 0.90547 0.5081 0.38646 0.0
C563 C 0.91494 0.53213 0.36494 0.0
C564 C 0.8753 0.49426 0.39961 0.0
C565 C 0.85387 0.50404 0.39017 0.0
C566 C 0.86421 0.52976 0.36989 0.0
C567 C 0.89475 0.54365 0.35772 0.0
C568 C 0.8656 0.4676 0.42181 0.0
C569 C 0.84211 0.54069 0.35883 0.0
C570 C 0.76641 0.44346 0.38558 0.0
C571 C 0.75389 0.45336 0.40869 0.0
C572 C 0.79902 0.45926 0.37988 0.0
C573 C 0.81974 0.48509 0.39825 0.0
C574 C 0.80737 0.49397 0.42275 0.0
C575 C 0.77454 0.47831 0.4274 0.0
C576 C 0.81112 0.4493 0.3532 0.0
C577 C 0.82869 0.52065 0.44343 0.0
H578 H 0.92093 0.49882 0.39156 0.0
H579 H 0.90189 0.56172 0.3405 0.0
H580 H 0.85207 0.46979 0.44078 0.0
H581 H 0.85005 0.44483 0.41042 0.0
H582 H 0.88633 0.46688 0.43103 0.0
H583 H 0.85456 0.56275 0.34535 0.0
H584 H 0.82354 0.52207 0.34452 0.0
H585 H 0.83012 0.54474 0.37805 0.0
H586 H 0.75056 0.42435 0.37094 0.0
H587 H 0.76499 0.48593 0.44544 0.0
H588 H 0.82949 0.44381 0.36055 0.0
H589 H 0.82226 0.46896 0.3367 0.0
H590 H 0.79206 0.42829 0.3416 0.0
H591 H 0.84874 0.51783 0.45103 0.0
H592 H 0.81594 0.52201 0.46356 0.0
H593 H 0.83877 0.54337 0.43107 0.0
C594 C 0.10026 0.58423 0.39079 0.0
C595 C 0.11274 0.60578 0.36691 0.0
C596 C 0.11909 0.58703 0.41589 0.0
C597 C 0.15089 0.61194 0.4169 0.0
C598 C 0.16325 0.63405 0.39308 0.0
C599 C 0.14397 0.63086 0.36861 0.0
C600 C 0.10516 0.56323 0.44112 0.0
C601 C 0.19698 0.66101 0.39326 0.0
C602 C 0.19643 0.64083 0.48995 0.0
C603 C 0.21576 0.62727 0.48894 0.0
C604 C 0.17431 0.63502 0.46722 0.0
C605 C 0.17159 0.61536 0.44275 0.0
C606 C 0.19081 0.60138 0.44165 0.0
C607 C 0.21264 0.60745 0.46481 0.0
C608 C 0.15425 0.6504 0.4691 0.0
C609 C 0.18879 0.58058 0.41567 0.0
H610 H 0.07611 0.56496 0.38955 0.0
H611 H 0.15345 0.64813 0.35056 0.0
H612 H 0.11845 0.55049 0.44349 0.0
H613 H 0.10737 0.57542 0.4628 0.0
H614 H 0.07988 0.54572 0.43725 0.0
H615 H 0.20301 0.67582 0.37262 0.0
H616 H 0.20102 0.67622 0.41318 0.0
H617 H 0.21344 0.65172 0.39505 0.0
H618 H 0.19844 0.65595 0.50864 0.0
H619 H 0.22733 0.59673 0.46393 0.0
H620 H 0.12892 0.6324 0.46678 0.0
H621 H 0.16027 0.66739 0.45025 0.0
H622 H 0.15763 0.66318 0.49067 0.0
H623 H 0.16407 0.56132 0.41256 0.0
H624 H 0.204 0.57 0.41908 0.0
H625 H 0.19613 0.59459 0.39452 0.0
C626 C 0.54264 0.09584 0.55787 0.0
C627 C 0.55695 0.09893 0.52971 0.0
C628 C 0.55986 0.11506 0.58215 0.0
C629 C 0.59195 0.13824 0.57796 0.0
C630 C 0.60728 0.1393 0.5506 0.0
C631 C 0.58966 0.11926 0.52693 0.0
C632 C 0.54291 0.11251 0.61136 0.0
C633 C 0.64145 0.16364 0.5452 0.0
C634 C 0.61575 0.21307 0.62185 0.0
C635 C 0.63248 0.21008 0.646 0.0
C636 C 0.60372 0.19049 0.59883 0.0
C637 C 0.60788 0.16391 0.60043 0.0
C638 C 0.62559 0.16126 0.62427 0.0
C639 C 0.63798 0.18459 0.64665 0.0
C640 C 0.58561 0.19456 0.57331 0.0
C641 C 0.63004 0.13302 0.62703 0.0
H642 H 0.51742 0.08032 0.56036 0.0
H643 H 0.60103 0.12123 0.50543 0.0
H644 H 0.55757 0.11371 0.63095 0.0
H645 H 0.53855 0.13259 0.61316 0.0
H646 H 0.51985 0.09024 0.61275 0.0
H647 H 0.65112 0.15808 0.52498 0.0
H648 H 0.64349 0.18703 0.54174 0.0
H649 H 0.65615 0.16561 0.565 0.0
H650 H 0.61161 0.23282 0.62122 0.0
H651 H 0.65066 0.18201 0.66546 0.0
H652 H 0.56049 0.17568 0.57442 0.0
H653 H 0.59508 0.19239 0.55129 0.0
H654 H 0.58671 0.21775 0.57411 0.0
H655 H 0.60708 0.11183 0.63253 0.0
H656 H 0.64726 0.13618 0.64491 0.0
H657 H 0.63818 0.12833 0.60535 0.0
C658 C 0.49308 0.58466 0.70766 0.0
C659 C 0.47963 0.55187 0.71071 0.0
C660 C 0.49111 0.60282 0.73107 0.0
C661 C 0.47589 0.58785 0.75828 0.0
C662 C 0.46586 0.55558 0.76279 0.0
C663 C 0.46765 0.53791 0.73889 0.0
C664 C 0.50244 0.63725 0.72548 0.0
C665 C 0.45019 0.53887 0.7918 0.0
C666 C 0.47159 0.63086 0.82756 0.0
C667 C 0.44053 0.6251 0.82548 0.0
C668 C 0.48427 0.62032 0.80506 0.0
C669 C 0.4655 0.604 0.77985 0.0
C670 C 0.43498 0.60016 0.77665 0.0
C671 C 0.42279 0.61056 0.79962 0.0
C672 C 0.51684 0.6248 0.8093 0.0
C673 C 0.41443 0.58344 0.74976 0.0
H674 H 0.50308 0.59578 0.68617 0.0
H675 H 0.45707 0.51264 0.74163 0.0
H676 H 0.48187 0.64014 0.72021 0.0
H677 H 0.51408 0.65156 0.74579 0.0
H678 H 0.51917 0.64667 0.70622 0.0
H679 H 0.44835 0.51538 0.79353 0.0
H680 H 0.46344 0.5532 0.81158 0.0
H681 H 0.42603 0.53546 0.79286 0.0
H682 H 0.48542 0.64205 0.84756 0.0
H683 H 0.39891 0.60636 0.79775 0.0
H684 H 0.53041 0.63218 0.78792 0.0
H685 H 0.51476 0.60205 0.81618 0.0
H686 H 0.53036 0.64258 0.82695 0.0
H687 H 0.42764 0.59356 0.7285 0.0
H688 H 0.3926 0.58506 0.7493 0.0
H689 H 0.40754 0.55815 0.75037 0.0
C690 C 0.95138 0.47309 0.88891 0.0
C691 C 0.93686 0.45493 0.86319 0.0
C692 C 0.9337 0.46985 0.91501 0.0
C693 C 0.90082 0.44816 0.91519 0.0
C694 C 0.88582 0.43112 0.88882 0.0
C695 C 0.90401 0.43439 0.86339 0.0
C696 C 0.95044 0.48834 0.94285 0.0
C697 C 0.85078 0.40783 0.88796 0.0
C698 C 0.85835 0.40484 0.98611 0.0
C699 C 0.84144 0.41997 -0.00632 0.0
C700 C 0.87889 0.41482 0.96139 0.0
C701 C 0.88239 0.44037 0.94357 0.0
C702 C 0.86584 0.45614 0.95131 0.0
C703 C 0.84561 0.44581 0.97639 0.0
C704 C 0.89623 0.39743 0.95388 0.0
C705 C 0.86874 0.48321 0.93258 0.0
H706 H 0.97665 0.48912 0.88894 0.0
H707 H 0.89244 0.41937 0.84417 0.0
H708 H 0.9377 0.49959 0.9527 0.0
H709 H 0.95073 0.47209 0.96013 0.0
H710 H 0.97517 0.50687 0.93804 0.0
H711 H 0.84225 0.39934 0.86474 0.0
H712 H 0.84541 0.38714 0.90228 0.0
H713 H 0.83731 0.41861 0.89713 0.0
H714 H 0.85558 0.38511 -0.00045 0.0
H715 H 0.83273 0.45773 0.98217 0.0
H716 H 0.92186 0.41432 0.95148 0.0
H717 H 0.88771 0.38513 0.93198 0.0
H718 H 0.89282 0.3797 0.97133 0.0
H719 H 0.89394 0.50118 0.92924 0.0
H720 H 0.85648 0.4947 0.94306 0.0
H721 H 0.85843 0.4745 0.90993 0.0
C722 C 0.50705 0.95037 0.06179 0.0
C723 C 0.48908 0.94652 0.03588 0.0
C724 C 0.49267 0.93346 0.08822 0.0
C725 C 0.45979 0.91183 0.08833 0.0
C726 C 0.44117 0.9107 0.06347 0.0
C727 C 0.45604 0.92858 0.03771 0.0
C728 C 0.51315 0.9363 0.11482 0.0
C729 C 0.40607 0.88789 0.06254 0.0
C730 C 0.43662 0.83619 0.13083 0.0
C731 C 0.42236 0.83979 0.15664 0.0
C732 C 0.44801 0.85913 0.10806 0.0
C733 C 0.44603 0.88682 0.11176 0.0
C734 C 0.43149 0.89051 0.13775 0.0
C735 C 0.41938 0.86666 0.15974 0.0
C736 C 0.46255 0.85389 0.08021 0.0
C737 C 0.42983 0.92008 0.14289 0.0
H738 H 0.53257 0.96427 0.06069 0.0
H739 H 0.442 0.92617 0.01791 0.0
H740 H 0.50147 0.93608 0.13632 0.0
H741 H 0.51705 0.91587 0.11511 0.0
H742 H 0.53653 0.95822 0.11367 0.0
H743 H 0.39438 0.89368 0.04416 0.0
H744 H 0.4019 0.86373 0.05865 0.0
H745 H 0.39476 0.88763 0.08426 0.0
H746 H 0.43885 0.81537 0.12847 0.0
H747 H 0.40876 0.86964 0.17999 0.0
H748 H 0.48796 0.87193 0.07901 0.0
H749 H 0.4511 0.85646 0.05965 0.0
H750 H 0.46032 0.83018 0.07997 0.0
H751 H 0.45403 0.94036 0.14601 0.0
H752 H 0.41555 0.9182 0.16307 0.0
H753 H 0.41961 0.92542 0.12297 0.0
C754 C 0.56762 0.49258 0.2277 0.0
C755 C 0.59179 0.52037 0.215 0.0
C756 C 0.57305 0.47997 0.25395 0.0
C757 C 0.60364 0.49503 0.26682 0.0
C758 C 0.62725 0.52452 0.25543 0.0
C759 C 0.62083 0.53705 0.22979 0.0
C760 C 0.54694 0.44909 0.26615 0.0
C761 C 0.66034 0.54106 0.26803 0.0
C762 C 0.62064 0.46736 0.34072 0.0
C763 C 0.62959 0.44586 0.33065 0.0
C764 C 0.61142 0.48309 0.32028 0.0
C765 C 0.61229 0.47796 0.28904 0.0
C766 C 0.62199 0.45674 0.27874 0.0
C767 C 0.62992 0.44043 0.29977 0.0
C768 C 0.60019 0.50466 0.33209 0.0
C769 C 0.62413 0.45137 0.24551 0.0
H770 H 0.54537 0.47952 0.21584 0.0
H771 H 0.63965 0.5582 0.21939 0.0
H772 H 0.55104 0.42971 0.25918 0.0
H773 H 0.54658 0.4494 0.29116 0.0
H774 H 0.52346 0.44377 0.25758 0.0
H775 H 0.67451 0.5656 0.25945 0.0
H776 H 0.66001 0.54166 0.293 0.0
H777 H 0.67235 0.52786 0.26142 0.0
H778 H 0.61986 0.4711 0.36472 0.0
H779 H 0.63681 0.42375 0.29208 0.0
H780 H 0.57575 0.49634 0.32422 0.0
H781 H 0.61519 0.52885 0.3231 0.0
H782 H 0.60055 0.50576 0.35711 0.0
H783 H 0.60043 0.44104 0.23504 0.0
H784 H 0.63358 0.43531 0.24127 0.0
H785 H 0.6396 0.47418 0.23403 0.0
C786 C 0.48331 0.91753 0.43082 0.0
C787 C 0.4725 0.93917 0.42918 0.0
C788 C 0.47999 0.89811 0.4063 0.0
C789 C 0.46656 0.90124 0.37921 0.0
C790 C 0.45944 0.92577 0.3762 0.0
C791 C 0.46218 0.94427 0.40135 0.0
C792 C 0.48785 0.87224 0.4105 0.0
C793 C 0.44611 0.93058 0.34729 0.0
C794 C 0.46419 0.85589 0.30901 0.0
C795 C 0.43256 0.83154 0.30899 0.0
C796 C 0.47592 0.87858 0.33199 0.0
C797 C 0.45569 0.87634 0.35579 0.0
C798 C 0.42418 0.85086 0.35664 0.0
C799 C 0.41287 0.82901 0.33298 0.0
C800 C 0.50939 0.90575 0.32997 0.0
C801 C 0.40211 0.84718 0.38211 0.0
H802 H 0.49207 0.91402 0.45208 0.0
H803 H 0.45375 0.96087 0.39973 0.0
H804 H 0.46562 0.84936 0.41318 0.0
H805 H 0.5003 0.87026 0.39048 0.0
H806 H 0.50269 0.87615 0.43077 0.0
H807 H 0.44699 0.95368 0.34686 0.0
H808 H 0.45921 0.92919 0.3275 0.0
H809 H 0.42112 0.91165 0.34494 0.0
H810 H 0.4794 0.85813 0.29027 0.0
H811 H 0.38847 0.81013 0.33304 0.0
H812 H 0.52189 0.909 0.35168 0.0
H813 H 0.50907 0.92784 0.32533 0.0
H814 H 0.523 0.90233 0.31181 0.0
H815 H 0.41319 0.84789 0.40414 0.0
H816 H 0.37922 0.82474 0.38062 0.0
H817 H 0.39734 0.86705 0.3817 0.0
C818 C 0.50182 0.39443 0.58134 0.0
C819 C 0.50926 0.4255 0.58695 0.0
C820 C 0.51354 0.38699 0.5558 0.0
C821 C 0.533 0.41131 0.53546 0.0
C822 C 0.53804 0.44218 0.5396 0.0
C823 C 0.52621 0.449 0.56559 0.0
C824 C 0.50771 0.35384 0.55233 0.0
C825 C 0.5582 0.46857 0.51806 0.0
C826 C 0.59951 0.40558 0.49805 0.0
C827 C 0.58734 0.3951 0.46912 0.0
C828 C 0.58181 0.41055 0.51992 0.0
C829 C 0.55144 0.40541 0.51248 0.0
C830 C 0.53886 0.39447 0.48345 0.0
C831 C 0.55687 0.38919 0.46216 0.0
C832 C 0.59577 0.42162 0.55092 0.0
C833 C 0.50672 0.38906 0.47468 0.0
H834 H 0.48898 0.37644 0.59825 0.0
H835 H 0.53224 0.47308 0.57031 0.0
H836 H 0.50143 0.34567 0.52872 0.0
H837 H 0.52962 0.3535 0.55792 0.0
H838 H 0.48857 0.33692 0.56743 0.0
H839 H 0.55566 0.48961 0.52171 0.0
H840 H 0.58336 0.47561 0.52132 0.0
H841 H 0.55197 0.4607 0.49436 0.0
H842 H 0.623 0.41013 0.50354 0.0
H843 H 0.54743 0.38139 0.43972 0.0
H844 H 0.57979 0.40497 0.56832 0.0
H845 H 0.59823 0.44497 0.55564 0.0
H846 H 0.61931 0.42367 0.55329 0.0
H847 H 0.48851 0.37208 0.49044 0.0
H848 H 0.50006 0.37989 0.45135 0.0
H849 H 0.50644 0.41151 0.47639 0.0
C850 C 0.09955 0.51844 0.73393 0.0
C851 C 0.11179 0.50966 0.75816 0.0
C852 C 0.11775 0.53178 0.70782 0.0
C853 C 0.14869 0.53632 0.70627 0.0
C854 C 0.16019 0.52556 0.73 0.0
C855 C 0.14151 0.51221 0.75558 0.0
C856 C 0.10463 0.54264 0.68272 0.0
C857 C 0.193 0.52992 0.72926 0.0
C858 C 0.19483 0.55615 0.63315 0.0
C859 C 0.21445 0.58896 0.63563 0.0
C860 C 0.17259 0.53877 0.65554 0.0
C861 C 0.17016 0.55453 0.68115 0.0
C862 C 0.18983 0.58762 0.68381 0.0
C863 C 0.21166 0.60446 0.66094 0.0
C864 C 0.1519 0.50354 0.65193 0.0
C865 C 0.18815 0.60517 0.71104 0.0
H866 H 0.07658 0.51647 0.73607 0.0
H867 H 0.15075 0.50507 0.77435 0.0
H868 H 0.11739 0.56879 0.68203 0.0
H869 H 0.10824 0.53438 0.6606 0.0
H870 H 0.07906 0.53402 0.68574 0.0
H871 H 0.19744 0.51822 0.74859 0.0
H872 H 0.19676 0.52035 0.70803 0.0
H873 H 0.21074 0.55545 0.7299 0.0
H874 H 0.19659 0.54399 0.61351 0.0
H875 H 0.22664 0.62979 0.66298 0.0
H876 H 0.12668 0.49672 0.65398 0.0
H877 H 0.15699 0.49121 0.67016 0.0
H878 H 0.15552 0.49512 0.62987 0.0
H879 H 0.16374 0.60068 0.71402 0.0
H880 H 0.2044 0.63102 0.70922 0.0
H881 H 0.19429 0.59651 0.73164 0.0
C882 C 0.55814 0.11954 0.9192 0.0
C883 C 0.56788 0.09708 0.91753 0.0
C884 C 0.56182 0.13903 0.89454 0.0
C885 C 0.57472 0.13529 0.86739 0.0
C886 C 0.58056 0.10991 0.86438 0.0
C887 C 0.57732 0.09122 0.8896 0.0
C888 C 0.55518 0.16572 0.89872 0.0
C889 C 0.59339 0.10452 0.83546 0.0
C890 C 0.58132 0.1834 0.79764 0.0
C891 C 0.61332 0.20677 0.79855 0.0
C892 C 0.56807 0.16013 0.82015 0.0
C893 C 0.58719 0.16073 0.84434 0.0
C894 C 0.61914 0.18515 0.84603 0.0
C895 C 0.6319 0.20765 0.82292 0.0
C896 C 0.53411 0.1342 0.81733 0.0
C897 C 0.64015 0.18705 0.87187 0.0
H898 H 0.55012 0.12367 0.94059 0.0
H899 H 0.58489 0.07394 0.88798 0.0
H900 H 0.57783 0.18805 0.90193 0.0
H901 H 0.54356 0.16867 0.87852 0.0
H902 H 0.54004 0.16197 0.91872 0.0
H903 H 0.59119 0.08083 0.83492 0.0
H904 H 0.58093 0.10695 0.81565 0.0
H905 H 0.61875 0.12255 0.83329 0.0
H906 H 0.56694 0.18248 0.77865 0.0
H907 H 0.65658 0.22581 0.82378 0.0
H908 H 0.52131 0.13095 0.83886 0.0
H909 H 0.53326 0.11163 0.81228 0.0
H910 H 0.52152 0.13903 0.79912 0.0
H911 H 0.62892 0.18669 0.89371 0.0
H912 H 0.66375 0.2087 0.87087 0.0
H913 H 0.64344 0.16625 0.87148 0.0
C914 C 0.49998 0.56118 0.05563 0.0
C915 C 0.4875 0.55197 0.08471 0.0
C916 C 0.48095 0.5608 0.03184 0.0
C917 C 0.44891 0.55117 0.0375 0.0
C918 C 0.43523 0.53727 0.06554 0.0
C919 C 0.45474 0.53762 0.08886 0.0
C920 C 0.49622 0.5748 0.00189 0.0
C921 C 0.40099 0.52592 0.07226 0.0
C922 C 0.42627 0.60633 0.00013 0.0
C923 C 0.40991 0.58918 0.97459 0.0
C924 C 0.43753 0.59339 0.02157 0.0
C925 C 0.43255 0.56257 0.01724 0.0
C926 C 0.41442 0.54438 -0.00754 0.0
C927 C 0.40321 0.55791 0.9714 0.0
C928 C 0.45621 0.61343 0.04808 0.0
C929 C 0.40847 0.51145 0.98709 0.0
H930 H 0.52523 0.5721 0.05214 0.0
H931 H 0.44492 0.52983 0.11123 0.0
H932 H 0.4805 0.56114 0.98298 0.0
H933 H 0.50059 0.59928 0.00027 0.0
H934 H 0.51914 0.57553 -0.00077 0.0
H935 H 0.3924 0.50939 0.09173 0.0
H936 H 0.39825 0.54647 0.07789 0.0
H937 H 0.38592 0.51405 0.0524 0.0
H938 H 0.43121 0.63036 0.00288 0.0
H939 H 0.3906 0.54451 0.95166 0.0
H940 H 0.48108 0.61897 0.04633 0.0
H941 H 0.44652 0.60038 0.06951 0.0
H942 H 0.45603 0.63598 0.04926 0.0
H943 H 0.42969 0.51285 0.97659 0.0
H944 H 0.38815 0.49801 0.9717 0.0
H945 H 0.40394 0.4982 0.00855 0.0
C946 C 0.92341 0.47215 0.27132 0.0
C947 C 0.94389 0.50482 0.26864 0.0
C948 C 0.90474 0.45439 0.24699 0.0
C949 C 0.90767 0.46943 0.21897 0.0
C950 C 0.9311 0.50146 0.2151 0.0
C951 C 0.94866 0.51893 0.2401 0.0
C952 C 0.87983 0.42038 0.25219 0.0
C953 C 0.93583 0.518 0.18519 0.0
C954 C 0.86528 0.41951 0.15065 0.0
C955 C 0.83942 0.42431 0.14836 0.0
C956 C 0.88784 0.43408 0.17349 0.0
C957 C 0.88377 0.45298 0.19503 0.0
C958 C 0.85701 0.45689 0.19343 0.0
C959 C 0.83544 0.44297 0.16972 0.0
C960 C 0.91658 0.43026 0.17386 0.0
C961 C 0.85135 0.47613 0.21654 0.0
H962 H 0.92026 0.46086 0.29309 0.0
H963 H 0.96435 0.5441 0.23762 0.0
H964 H 0.85624 0.41841 0.25266 0.0
H965 H 0.87967 0.40523 0.23359 0.0
H966 H 0.88334 0.41113 0.27385 0.0
H967 H 0.95838 0.54083 0.18446 0.0
H968 H 0.93564 0.50293 0.16646 0.0
H969 H 0.91619 0.5227 0.18126 0.0
H970 H 0.8686 0.40545 0.13378 0.0
H971 H 0.81541 0.4466 0.1679 0.0
H972 H 0.91934 0.42184 0.19626 0.0
H973 H 0.93803 0.45348 0.16984 0.0
H974 H 0.91541 0.41349 0.1564 0.0
H975 H 0.85206 0.46768 0.2396 0.0
H976 H 0.82827 0.47492 0.21331 0.0
H977 H 0.87031 0.50117 0.21508 0.0
loop_
_geom_bond_atom_site_label_1
_geom_bond_atom_site_label_2
_geom_bond_distance
_geom_bond_site_symmetry_2
_ccdc_geom_bond_type
H0 C8 0.930 . S
H1 C11 0.930 . S
H2 C13 0.930 . S
H3 C14 0.970 . S
H4 C14 0.970 . S
H5 C16 0.930 . S
H6 C18 0.930 . S
H7 C20 0.930 . S
C8 H0 0.930 . S
C8 C9 1.382 . S
C8 C10 1.426 . S
C9 C8 1.382 . S
C9 C13 1.389 . S
C10 C8 1.426 . S
C10 C11 1.375 . S
C10 C14 1.532 1_655 S
C11 H1 0.930 . S
C11 C10 1.375 . S
C11 C12 1.416 . S
C12 C11 1.416 . S
C12 C13 1.371 . S
C13 H2 0.930 . S
C13 C9 1.389 . S
C13 C12 1.371 . S
C14 H3 0.970 . S
C14 H4 0.970 . S
C14 C10 1.532 1_455 S
C14 C15 1.499 . S
C15 C14 1.499 . S
C15 C16 1.370 . S
C15 C20 1.415 . S
C16 H5 0.930 . S
C16 C15 1.370 . S
C16 C17 1.407 . S
C17 C16 1.407 . S
C17 C18 1.365 . S
C18 H6 0.930 . S
C18 C17 1.365 . S
C18 C19 1.393 . S
C19 C18 1.393 . S
C19 C20 1.387 . S
C20 H7 0.930 . S
C20 C15 1.415 . S
C20 C19 1.387 . S
H21 C29 0.930 . S
H22 C32 0.930 . S
H23 C34 0.930 . S
H24 C35 0.970 . S
H25 C35 0.970 . S
H26 C37 0.930 . S
H27 C39 0.930 . S
H28 C41 0.930 . S
C29 H21 0.930 . S
C29 C30 1.382 . S
C29 C31 1.426 . S
C30 C29 1.382 . S
C30 C34 1.389 . S
C31 C29 1.426 . S
C31 C32 1.375 . S
C31 C35 1.532 1_565 S
C32 H22 0.930 . S
C32 C31 1.375 . S
C32 C33 1.416 . S
C33 C32 1.416 . S
C33 C34 1.371 . S
C34 H23 0.930 . S
C34 C30 1.389 . S
C34 C33 1.371 . S
C35 H24 0.970 . S
C35 H25 0.970 . S
C35 C31 1.532 1_545 S
C35 C36 1.499 . S
C36 C35 1.499 . S
C36 C37 1.370 . S
C36 C41 1.415 . S
C37 H26 0.930 . S
C37 C36 1.370 . S
C37 C38 1.407 . S
C38 C37 1.407 . S
C38 C39 1.365 . S
C39 H27 0.930 . S
C39 C38 1.365 . S
C39 C40 1.393 . S
C40 C39 1.393 . S
C40 C41 1.387 . S
C41 H28 0.930 . S
C41 C36 1.415 . S
C41 C40 1.387 . S
H42 C50 0.930 . S
H43 C53 0.930 . S
H44 C55 0.930 . S
H45 C56 0.970 . S
H46 C56 0.970 . S
H47 C58 0.930 . S
H48 C60 0.930 . S
H49 C62 0.930 . S
C50 H42 0.930 . S
C50 C51 1.382 . S
C50 C52 1.426 . S
C51 C50 1.382 . S
C51 C55 1.389 . S
C52 C50 1.426 . S
C52 C53 1.375 . S
C52 C56 1.532 . S
C53 H43 0.930 . S
C53 C52 1.375 . S
C53 C54 1.416 . S
C54 C53 1.416 . S
C54 C55 1.371 . S
C55 H44 0.930 . S
C55 C51 1.389 . S
C55 C54 1.371 . S
C56 H45 0.970 . S
C56 H46 0.970 . S
C56 C52 1.532 . S
C56 C57 1.499 . S
C57 C56 1.499 . S
C57 C58 1.370 . S
C57 C62 1.415 . S
C58 H47 0.930 . S
C58 C57 1.370 . S
C58 C59 1.407 . S
C59 C58 1.407 . S
C59 C60 1.365 . S
C60 H48 0.930 . S
C60 C59 1.365 . S
C60 C61 1.393 . S
C61 C60 1.393 . S
C61 C62 1.387 . S
C62 H49 0.930 . S
C62 C57 1.415 . S
C62 C61 1.387 . S
H63 C71 0.930 . S
H64 C74 0.930 . S
H65 C76 0.930 . S
H66 C77 0.970 . S
H67 C77 0.970 . S
H68 C79 0.930 . S
H69 C81 0.930 . S
H70 C83 0.930 . S
C71 H63 0.930 . S
C71 C72 1.382 . S
C71 C73 1.426 . S
C72 C71 1.382 . S
C72 C76 1.389 . S
C73 C71 1.426 . S
C73 C74 1.375 . S
C73 C77 1.532 1_655 S
C74 H64 0.930 . S
C74 C73 1.375 . S
C74 C75 1.416 . S
C75 C74 1.416 . S
C75 C76 1.371 . S
C76 H65 0.930 . S
C76 C72 1.389 . S
C76 C75 1.371 . S
C77 H66 0.970 . S
C77 H67 0.970 . S
C77 C73 1.532 1_455 S
C77 C78 1.499 . S
C78 C77 1.499 . S
C78 C79 1.370 . S
C78 C83 1.415 . S
C79 H68 0.930 . S
C79 C78 1.370 . S
C79 C80 1.407 . S
C80 C79 1.407 . S
C80 C81 1.365 . S
C81 H69 0.930 . S
C81 C80 1.365 . S
C81 C82 1.393 . S
C82 C81 1.393 . S
C82 C83 1.387 . S
C83 H70 0.930 . S
C83 C78 1.415 . S
C83 C82 1.387 . S
H84 C92 0.930 . S
H85 C95 0.930 . S
H86 C97 0.930 . S
H87 C98 0.970 1_554 S
H88 C98 0.970 . S
H89 C100 0.930 . S
H90 C102 0.930 . S
H91 C104 0.930 . S
C92 H84 0.930 . S
C92 C93 1.379 1_554 S
C92 C94 1.426 1_554 S
C93 C92 1.379 1_556 S
C93 C97 1.401 . S
C94 C92 1.426 1_556 S
C94 C95 1.375 . S
C94 C98 1.532 . S
C95 H85 0.930 . S
C95 C94 1.375 . S
C95 C96 1.416 . S
C96 C95 1.416 . S
C96 C97 1.371 . S
C97 H86 0.930 . S
C97 C93 1.401 . S
C97 C96 1.371 . S
C98 H87 0.970 1_556 S
C98 H88 0.970 . S
C98 C94 1.532 . S
C98 C99 1.503 1_545 S
C99 C98 1.503 1_565 S
C99 C100 1.355 1_556 S
C99 C104 1.427 . S
C100 H89 0.930 . S
C100 C99 1.355 1_554 S
C100 C101 1.407 . S
C101 C100 1.407 . S
C101 C102 1.365 . S
C102 H90 0.930 . S
C102 C101 1.365 . S
C102 C103 1.393 1_554 S
C103 C102 1.393 1_556 S
C103 C104 1.387 . S
C104 H91 0.930 . S
C104 C99 1.427 . S
C104 C103 1.387 . S
H105 C113 0.930 . S
H106 C116 0.930 . S
H107 C118 0.930 . S
H108 C119 0.970 . S
H109 C119 0.970 . S
H110 C121 0.930 . S
H111 C123 0.930 . S
H112 C125 0.930 . S
C113 H105 0.930 . S
C113 C114 1.382 . S
C113 C115 1.426 . S
C114 C113 1.382 . S
C114 C118 1.389 . S
C115 C113 1.426 . S
C115 C116 1.375 . S
C115 C119 1.532 . S
C116 H106 0.930 . S
C116 C115 1.375 . S
C116 C117 1.416 . S
C117 C116 1.416 . S
C117 C118 1.371 . S
C118 H107 0.930 . S
C118 C114 1.389 . S
C118 C117 1.371 . S
C119 H108 0.970 . S
C119 H109 0.970 . S
C119 C115 1.532 . S
C119 C120 1.499 . S
C120 C119 1.499 . S
C120 C121 1.370 . S
C120 C125 1.415 . S
C121 H110 0.930 . S
C121 C120 1.370 . S
C121 C122 1.407 . S
C122 C121 1.407 . S
C122 C123 1.365 . S
C123 H111 0.930 . S
C123 C122 1.365 . S
C123 C124 1.393 . S
C124 C123 1.393 . S
C124 C125 1.387 . S
C125 H112 0.930 . S
C125 C120 1.415 . S
C125 C124 1.387 . S
O126 Cd127 2.223 . S
O126 C134 1.315 . S
Cd127 O126 2.223 . S
Cd127 O130 2.297 . S
Cd127 O131 2.439 . S
Cd127 O137 2.240 . S
Cd128 O129 2.240 . S
Cd128 O136 2.223 . S
Cd128 O138 2.297 . S
Cd128 O139 2.439 . S
O129 Cd128 2.240 . S
O129 C134 1.279 . S
O130 Cd127 2.297 . S
O130 C132 1.247 . S
O131 Cd127 2.439 . S
O131 C132 1.208 . S
C132 O130 1.247 . S
C132 O131 1.208 . S
C133 O138 1.247 . S
C133 O139 1.208 . S
C134 O126 1.315 . S
C134 O129 1.279 . S
C135 O136 1.315 . S
C135 O137 1.279 . S
O136 Cd128 2.223 . S
O136 C135 1.315 . S
O137 Cd127 2.240 . S
O137 C135 1.279 . S
O138 Cd128 2.297 . S
O138 C133 1.247 . S
O139 Cd128 2.439 . S
O139 C133 1.208 . S
O140 Cd141 2.223 . S
O140 C148 1.315 . S
Cd141 O140 2.223 . S
Cd141 O144 2.297 . S
Cd141 O145 2.439 . S
Cd141 O151 2.240 . S
Cd142 O143 2.240 . S
Cd142 O150 2.223 . S
Cd142 O152 2.297 . S
Cd142 O153 2.439 . S
O143 Cd142 2.240 . S
O143 C148 1.279 . S
O144 Cd141 2.297 . S
O144 C146 1.247 . S
O145 Cd141 2.439 . S
O145 C146 1.208 . S
C146 O144 1.247 . S
C146 O145 1.208 . S
C147 O152 1.247 . S
C147 O153 1.208 . S
C148 O140 1.315 . S
C148 O143 1.279 . S
C149 O150 1.315 . S
C149 O151 1.279 . S
O150 Cd142 2.223 . S
O150 C149 1.315 . S
O151 Cd141 2.240 . S
O151 C149 1.279 . S
O152 Cd142 2.297 . S
O152 C147 1.247 . S
O153 Cd142 2.439 . S
O153 C147 1.208 . S
O154 Cd155 2.223 . S
O154 C162 1.315 . S
Cd155 O154 2.223 . S
Cd155 O158 2.297 . S
Cd155 O159 2.439 . S
Cd155 O165 2.240 . S
Cd156 O157 2.240 . S
Cd156 O164 2.223 . S
Cd156 O166 2.297 . S
Cd156 O167 2.439 . S
O157 Cd156 2.240 . S
O157 C162 1.279 . S
O158 Cd155 2.297 . S
O158 C160 1.247 . S
O159 Cd155 2.439 . S
O159 C160 1.208 . S
C160 O158 1.247 . S
C160 O159 1.208 . S
C161 O166 1.247 . S
C161 O167 1.208 . S
C162 O154 1.315 . S
C162 O157 1.279 . S
C163 O164 1.315 . S
C163 O165 1.279 . S
O164 Cd156 2.223 . S
O164 C163 1.315 . S
O165 Cd155 2.240 . S
O165 C163 1.279 . S
O166 Cd156 2.297 . S
O166 C161 1.247 . S
O167 Cd156 2.439 . S
O167 C161 1.208 . S
O168 Cd169 2.223 . S
O168 C176 1.315 . S
Cd169 O168 2.223 . S
Cd169 O172 2.297 . S
Cd169 O173 2.439 . S
Cd169 O179 2.240 . S
Cd170 O171 2.240 . S
Cd170 O178 2.223 . S
Cd170 O180 2.297 . S
Cd170 O181 2.439 . S
O171 Cd170 2.240 . S
O171 C176 1.279 . S
O172 Cd169 2.297 . S
O172 C174 1.247 . S
O173 Cd169 2.439 . S
O173 C174 1.208 . S
C174 O172 1.247 . S
C174 O173 1.208 . S
C175 O180 1.247 . S
C175 O181 1.208 . S
C176 O168 1.315 . S
C176 O171 1.279 . S
C177 O178 1.315 . S
C177 O179 1.279 . S
O178 Cd170 2.223 . S
O178 C177 1.315 . S
O179 Cd169 2.240 . S
O179 C177 1.279 . S
O180 Cd170 2.297 . S
O180 C175 1.247 . S
O181 Cd170 2.439 . S
O181 C175 1.208 . S
O182 Cd183 2.223 . S
O182 C190 1.315 . S
Cd183 O182 2.223 . S
Cd183 O186 2.297 . S
Cd183 O187 2.439 . S
Cd183 O193 2.240 . S
Cd184 O185 2.240 . S
Cd184 O192 2.223 . S
Cd184 O194 2.297 . S
Cd184 O195 2.439 . S
O185 Cd184 2.240 . S
O185 C190 1.279 . S
O186 Cd183 2.297 . S
O186 C188 1.247 . S
O187 Cd183 2.439 . S
O187 C188 1.208 . S
C188 O186 1.247 . S
C188 O187 1.208 . S
C189 O194 1.247 . S
C189 O195 1.208 . S
C190 O182 1.315 . S
C190 O185 1.279 . S
C191 O192 1.315 . S
C191 O193 1.279 . S
O192 Cd184 2.223 . S
O192 C191 1.315 . S
O193 Cd183 2.240 . S
O193 C191 1.279 . S
O194 Cd184 2.297 . S
O194 C189 1.247 . S
O195 Cd184 2.439 . S
O195 C189 1.208 . S
O196 Cd197 2.223 . S
O196 C204 1.315 . S
Cd197 O196 2.223 . S
Cd197 O200 2.297 . S
Cd197 O201 2.439 . S
Cd197 O207 2.240 . S
Cd198 O199 2.240 . S
Cd198 O206 2.223 . S
Cd198 O208 2.297 . S
Cd198 O209 2.439 . S
O199 Cd198 2.240 . S
O199 C204 1.279 . S
O200 Cd197 2.297 . S
O200 C202 1.247 . S
O201 Cd197 2.439 . S
O201 C202 1.208 . S
C202 O200 1.247 . S
C202 O201 1.208 . S
C203 O208 1.247 . S
C203 O209 1.208 . S
C204 O196 1.315 . S
C204 O199 1.279 . S
C205 O206 1.315 . S
C205 O207 1.279 . S
O206 Cd198 2.223 . S
O206 C205 1.315 . S
O207 Cd197 2.240 . S
O207 C205 1.279 . S
O208 Cd198 2.297 . S
O208 C203 1.247 . S
O209 Cd198 2.439 . S
O209 C203 1.208 . S
C210 C211 1.391 . S
C210 C212 1.394 . S
C210 H226 0.931 . S
C211 C210 1.391 . S
C211 C215 1.376 . S
C212 C210 1.394 . S
C212 C213 1.369 . S
C212 C216 1.531 . S
C213 C212 1.369 . S
C213 C214 1.410 . S
C213 C221 1.503 . S
C214 C213 1.410 . S
C214 C215 1.392 . S
C214 C217 1.511 . S
C215 C211 1.376 . S
C215 C214 1.392 . S
C215 H227 0.929 . S
C216 C212 1.531 . S
C216 H228 0.960 . S
C216 H229 0.962 . S
C216 H230 0.960 . S
C217 C214 1.511 . S
C217 H231 0.961 . S
C217 H232 0.961 . S
C217 H233 0.961 . S
C218 C219 1.370 . S
C218 C220 1.363 . S
C218 H234 0.931 . S
C219 C218 1.370 . S
C219 C223 1.408 . S
C220 C218 1.363 . S
C220 C221 1.370 . S
C220 C224 1.524 . S
C221 C213 1.503 . S
C221 C220 1.370 . S
C221 C222 1.403 . S
C222 C221 1.403 . S
C222 C223 1.404 . S
C222 C225 1.539 . S
C223 C219 1.408 . S
C223 C222 1.404 . S
C223 H235 0.930 . S
C224 C220 1.524 . S
C224 H236 0.956 . S
C224 H237 0.961 . S
C224 H238 0.961 . S
C225 C222 1.539 . S
C225 H239 0.958 . S
C225 H240 0.961 . S
C225 H241 0.960 . S
H226 C210 0.931 . S
H227 C215 0.929 . S
H228 C216 0.960 . S
H229 C216 0.962 . S
H230 C216 0.960 . S
H231 C217 0.961 . S
H232 C217 0.961 . S
H233 C217 0.961 . S
H234 C218 0.931 . S
H235 C223 0.930 . S
H236 C224 0.956 . S
H237 C224 0.961 . S
H238 C224 0.961 . S
H239 C225 0.958 . S
H240 C225 0.961 . S
H241 C225 0.960 . S
C242 C243 1.391 . S
C242 C244 1.394 . S
C242 H258 0.931 . S
C243 C242 1.391 . S
C243 C247 1.376 . S
C244 C242 1.394 . S
C244 C245 1.369 . S
C244 C248 1.531 . S
C245 C244 1.369 . S
C245 C246 1.410 . S
C245 C253 1.503 . S
C246 C245 1.410 . S
C246 C247 1.392 . S
C246 C249 1.511 . S
C247 C243 1.376 . S
C247 C246 1.392 . S
C247 H259 0.929 . S
C248 C244 1.531 . S
C248 H260 0.960 . S
C248 H261 0.962 . S
C248 H262 0.960 . S
C249 C246 1.511 . S
C249 H263 0.961 . S
C249 H264 0.961 . S
C249 H265 0.961 . S
C250 C251 1.370 . S
C250 C252 1.363 . S
C250 H266 0.931 . S
C251 C250 1.370 . S
C251 C255 1.408 . S
C252 C250 1.363 . S
C252 C253 1.370 . S
C252 C256 1.524 . S
C253 C245 1.503 . S
C253 C252 1.370 . S
C253 C254 1.403 . S
C254 C253 1.403 . S
C254 C255 1.404 . S
C254 C257 1.539 . S
C255 C251 1.408 . S
C255 C254 1.404 . S
C255 H267 0.930 . S
C256 C252 1.524 . S
C256 H268 0.956 . S
C256 H269 0.961 . S
C256 H270 0.961 . S
C257 C254 1.539 . S
C257 H271 0.958 . S
C257 H272 0.961 . S
C257 H273 0.960 . S
H258 C242 0.931 . S
H259 C247 0.929 . S
H260 C248 0.960 . S
H261 C248 0.962 . S
H262 C248 0.960 . S
H263 C249 0.961 . S
H264 C249 0.961 . S
H265 C249 0.961 . S
H266 C250 0.931 . S
H267 C255 0.930 . S
H268 C256 0.956 . S
H269 C256 0.961 . S
H270 C256 0.961 . S
H271 C257 0.958 . S
H272 C257 0.961 . S
H273 C257 0.960 . S
C274 C275 1.391 . S
C274 C276 1.394 . S
C274 H290 0.931 . S
C275 C274 1.391 . S
C275 C279 1.376 . S
C276 C274 1.394 . S
C276 C277 1.369 . S
C276 C280 1.531 . S
C277 C276 1.369 . S
C277 C278 1.410 . S
C277 C285 1.503 . S
C278 C277 1.410 . S
C278 C279 1.392 . S
C278 C281 1.511 . S
C279 C275 1.376 . S
C279 C278 1.392 . S
C279 H291 0.929 . S
C280 C276 1.531 . S
C280 H292 0.960 . S
C280 H293 0.962 . S
C280 H294 0.960 . S
C281 C278 1.511 . S
C281 H295 0.961 . S
C281 H296 0.961 . S
C281 H297 0.961 . S
C282 C283 1.370 . S
C282 C284 1.363 . S
C282 H298 0.931 . S
C283 C282 1.370 . S
C283 C287 1.408 . S
C284 C282 1.363 . S
C284 C285 1.370 . S
C284 C288 1.524 . S
C285 C277 1.503 . S
C285 C284 1.370 . S
C285 C286 1.403 . S
C286 C285 1.403 . S
C286 C287 1.404 . S
C286 C289 1.539 . S
C287 C283 1.408 . S
C287 C286 1.404 . S
C287 H299 0.930 . S
C288 C284 1.524 . S
C288 H300 0.956 . S
C288 H301 0.961 . S
C288 H302 0.961 . S
C289 C286 1.539 . S
C289 H303 0.958 . S
C289 H304 0.961 . S
C289 H305 0.960 . S
H290 C274 0.931 . S
H291 C279 0.929 . S
H292 C280 0.960 . S
H293 C280 0.962 . S
H294 C280 0.960 . S
H295 C281 0.961 . S
H296 C281 0.961 . S
H297 C281 0.961 . S
H298 C282 0.931 . S
H299 C287 0.930 . S
H300 C288 0.956 . S
H301 C288 0.961 . S
H302 C288 0.961 . S
H303 C289 0.958 . S
H304 C289 0.961 . S
H305 C289 0.960 . S
C306 C307 1.391 . S
C306 C308 1.394 . S
C306 H322 0.931 . S
C307 C306 1.391 . S
C307 C311 1.376 . S
C308 C306 1.394 . S
C308 C309 1.369 . S
C308 C312 1.531 . S
C309 C308 1.369 . S
C309 C310 1.410 . S
C309 C317 1.503 . S
C310 C309 1.410 . S
C310 C311 1.392 . S
C310 C313 1.511 . S
C311 C307 1.376 . S
C311 C310 1.392 . S
C311 H323 0.929 . S
C312 C308 1.531 . S
C312 H324 0.960 . S
C312 H325 0.962 . S
C312 H326 0.960 . S
C313 C310 1.511 . S
C313 H327 0.961 . S
C313 H328 0.961 . S
C313 H329 0.961 . S
C314 C315 1.370 . S
C314 C316 1.363 . S
C314 H330 0.931 . S
C315 C314 1.370 . S
C315 C319 1.408 . S
C316 C314 1.363 . S
C316 C317 1.370 . S
C316 C320 1.524 . S
C317 C309 1.503 . S
C317 C316 1.370 . S
C317 C318 1.403 . S
C318 C317 1.403 . S
C318 C319 1.404 . S
C318 C321 1.539 . S
C319 C315 1.408 . S
C319 C318 1.404 . S
C319 H331 0.930 . S
C320 C316 1.524 . S
C320 H332 0.956 . S
C320 H333 0.961 . S
C320 H334 0.961 . S
C321 C318 1.539 . S
C321 H335 0.958 . S
C321 H336 0.961 . S
C321 H337 0.960 . S
H322 C306 0.931 . S
H323 C311 0.929 . S
H324 C312 0.960 . S
H325 C312 0.962 . S
H326 C312 0.960 . S
H327 C313 0.961 . S
H328 C313 0.961 . S
H329 C313 0.961 . S
H330 C314 0.931 . S
H331 C319 0.930 . S
H332 C320 0.956 . S
H333 C320 0.961 . S
H334 C320 0.961 . S
H335 C321 0.958 . S
H336 C321 0.961 . S
H337 C321 0.960 . S
C338 C339 1.391 . S
C338 C340 1.394 . S
C338 H354 0.931 . S
C339 C338 1.391 . S
C339 C343 1.376 . S
C340 C338 1.394 . S
C340 C341 1.369 . S
C340 C344 1.531 . S
C341 C340 1.369 . S
C341 C342 1.410 . S
C341 C349 1.503 . S
C342 C341 1.410 . S
C342 C343 1.392 . S
C342 C345 1.522 . S
C343 C339 1.376 . S
C343 C342 1.392 . S
C343 H355 0.946 . S
C344 C340 1.531 . S
C344 H356 0.960 . S
C344 H357 0.962 . S
C344 H358 0.960 . S
C345 C342 1.522 . S
C345 H359 0.957 1_556 S
C345 H360 0.973 . S
C345 H361 0.943 1_556 S
C346 C347 1.370 . S
C346 C348 1.363 . S
C346 H362 0.931 . S
C347 C346 1.370 . S
C347 C351 1.408 . S
C348 C346 1.363 . S
C348 C349 1.370 . S
C348 C352 1.524 . S
C349 C341 1.503 . S
C349 C348 1.370 . S
C349 C350 1.403 . S
C350 C349 1.403 . S
C350 C351 1.404 . S
C350 C353 1.569 . S
C351 C347 1.408 . S
C351 C350 1.404 . S
C351 H363 0.930 . S
C352 C348 1.524 . S
C352 H364 0.956 . S
C352 H365 0.961 . S
C352 H366 0.961 . S
C353 C350 1.569 . S
C353 H367 0.969 . S
C353 H368 0.937 1_556 S
C353 H369 0.945 1_556 S
H354 C338 0.931 . S
H355 C343 0.946 . S
H356 C344 0.960 . S
H357 C344 0.962 . S
H358 C344 0.960 . S
H359 C345 0.957 1_554 S
H360 C345 0.973 . S
H361 C345 0.943 1_554 S
H362 C346 0.931 . S
H363 C351 0.930 . S
H364 C352 0.956 . S
H365 C352 0.961 . S
H366 C352 0.961 . S
H367 C353 0.969 . S
H368 C353 0.937 1_554 S
H369 C353 0.945 1_554 S
C370 C371 1.391 . S
C370 C372 1.394 . S
C370 H386 0.931 . S
C371 C370 1.391 . S
C371 C375 1.376 . S
C372 C370 1.394 . S
C372 C373 1.369 . S
C372 C376 1.531 . S
C373 C372 1.369 . S
C373 C374 1.410 . S
C373 C381 1.503 . S
C374 C373 1.410 . S
C374 C375 1.392 . S
C374 C377 1.511 . S
C375 C371 1.376 . S
C375 C374 1.392 . S
C375 H387 0.929 . S
C376 C372 1.531 . S
C376 H388 0.960 . S
C376 H389 0.962 . S
C376 H390 0.960 . S
C377 C374 1.511 . S
C377 H391 0.961 . S
C377 H392 0.961 . S
C377 H393 0.961 . S
C378 C379 1.370 . S
C378 C380 1.363 . S
C378 H394 0.931 . S
C379 C378 1.370 . S
C379 C383 1.408 . S
C380 C378 1.363 . S
C380 C381 1.370 . S
C380 C384 1.524 . S
C381 C373 1.503 . S
C381 C380 1.370 . S
C381 C382 1.403 . S
C382 C381 1.403 . S
C382 C383 1.404 . S
C382 C385 1.539 . S
C383 C379 1.408 . S
C383 C382 1.404 . S
C383 H395 0.930 . S
C384 C380 1.524 . S
C384 H396 0.956 . S
C384 H397 0.961 . S
C384 H398 0.961 . S
C385 C382 1.539 . S
C385 H399 0.958 . S
C385 H400 0.961 . S
C385 H401 0.960 . S
H386 C370 0.931 . S
H387 C375 0.929 . S
H388 C376 0.960 . S
H389 C376 0.962 . S
H390 C376 0.960 . S
H391 C377 0.961 . S
H392 C377 0.961 . S
H393 C377 0.961 . S
H394 C378 0.931 . S
H395 C383 0.930 . S
H396 C384 0.956 . S
H397 C384 0.961 . S
H398 C384 0.961 . S
H399 C385 0.958 . S
H400 C385 0.961 . S
H401 C385 0.960 . S
C402 C403 1.391 . S
C402 C404 1.394 . S
C402 H418 0.931 . S
C403 C402 1.391 . S
C403 C407 1.376 . S
C404 C402 1.394 . S
C404 C405 1.369 . S
C404 C408 1.531 . S
C405 C404 1.369 . S
C405 C406 1.410 . S
C405 C413 1.503 . S
C406 C405 1.410 . S
C406 C407 1.392 . S
C406 C409 1.511 . S
C407 C403 1.376 . S
C407 C406 1.392 . S
C407 H419 0.929 . S
C408 C404 1.531 . S
C408 H420 0.960 . S
C408 H421 0.962 . S
C408 H422 0.960 . S
C409 C406 1.511 . S
C409 H423 0.961 . S
C409 H424 0.961 . S
C409 H425 0.961 . S
C410 C411 1.370 . S
C410 C412 1.363 . S
C410 H426 0.931 . S
C411 C410 1.370 . S
C411 C415 1.408 . S
C412 C410 1.363 . S
C412 C413 1.370 . S
C412 C416 1.524 . S
C413 C405 1.503 . S
C413 C412 1.370 . S
C413 C414 1.403 . S
C414 C413 1.403 . S
C414 C415 1.404 . S
C414 C417 1.539 . S
C415 C411 1.408 . S
C415 C414 1.404 . S
C415 H427 0.930 . S
C416 C412 1.524 . S
C416 H428 0.956 . S
C416 H429 0.961 . S
C416 H430 0.961 . S
C417 C414 1.539 . S
C417 H431 0.958 . S
C417 H432 0.961 . S
C417 H433 0.960 . S
H418 C402 0.931 . S
H419 C407 0.929 . S
H420 C408 0.960 . S
H421 C408 0.962 . S
H422 C408 0.960 . S
H423 C409 0.961 . S
H424 C409 0.961 . S
H425 C409 0.961 . S
H426 C410 0.931 . S
H427 C415 0.930 . S
H428 C416 0.956 . S
H429 C416 0.961 . S
H430 C416 0.961 . S
H431 C417 0.958 . S
H432 C417 0.961 . S
H433 C417 0.960 . S
C434 C435 1.391 . S
C434 C436 1.394 . S
C434 H450 0.931 . S
C435 C434 1.391 . S
C435 C439 1.376 . S
C436 C434 1.394 . S
C436 C437 1.369 . S
C436 C440 1.531 . S
C437 C436 1.369 . S
C437 C438 1.410 . S
C437 C445 1.503 . S
C438 C437 1.410 . S
C438 C439 1.392 . S
C438 C441 1.511 . S
C439 C435 1.376 . S
C439 C438 1.392 . S
C439 H451 0.929 . S
C440 C436 1.531 . S
C440 H452 0.960 . S
C440 H453 0.962 . S
C440 H454 0.960 . S
C441 C438 1.511 . S
C441 H455 0.961 . S
C441 H456 0.961 . S
C441 H457 0.961 . S
C442 C443 1.370 . S
C442 C444 1.363 . S
C442 H458 0.931 . S
C443 C442 1.370 . S
C443 C447 1.408 . S
C444 C442 1.363 . S
C444 C445 1.370 . S
C444 C448 1.524 . S
C445 C437 1.503 . S
C445 C444 1.370 . S
C445 C446 1.403 . S
C446 C445 1.403 . S
C446 C447 1.404 . S
C446 C449 1.539 . S
C447 C443 1.408 . S
C447 C446 1.404 . S
C447 H459 0.930 . S
C448 C444 1.524 . S
C448 H460 0.956 . S
C448 H461 0.961 . S
C448 H462 0.961 . S
C449 C446 1.539 . S
C449 H463 0.958 . S
C449 H464 0.961 . S
C449 H465 0.960 . S
H450 C434 0.931 . S
H451 C439 0.929 . S
H452 C440 0.960 . S
H453 C440 0.962 . S
H454 C440 0.960 . S
H455 C441 0.961 . S
H456 C441 0.961 . S
H457 C441 0.961 . S
H458 C442 0.931 . S
H459 C447 0.930 . S
H460 C448 0.956 . S
H461 C448 0.961 . S
H462 C448 0.961 . S
H463 C449 0.958 . S
H464 C449 0.961 . S
H465 C449 0.960 . S
C466 C467 1.391 . S
C466 C468 1.394 . S
C466 H482 0.931 . S
C467 C466 1.391 . S
C467 C471 1.376 . S
C468 C466 1.394 . S
C468 C469 1.369 . S
C468 C472 1.531 . S
C469 C468 1.369 . S
C469 C470 1.410 . S
C469 C477 1.503 . S
C470 C469 1.410 . S
C470 C471 1.392 . S
C470 C473 1.511 . S
C471 C467 1.376 . S
C471 C470 1.392 . S
C471 H483 0.929 . S
C472 C468 1.531 . S
C472 H484 0.960 . S
C472 H485 0.962 . S
C472 H486 0.960 . S
C473 C470 1.511 . S
C473 H487 0.961 . S
C473 H488 0.961 . S
C473 H489 0.961 . S
C474 C475 1.370 . S
C474 C476 1.363 . S
C474 H490 0.931 . S
C475 C474 1.370 . S
C475 C479 1.408 . S
C476 C474 1.363 . S
C476 C477 1.370 . S
C476 C480 1.524 . S
C477 C469 1.503 . S
C477 C476 1.370 . S
C477 C478 1.403 . S
C478 C477 1.403 . S
C478 C479 1.404 . S
C478 C481 1.539 . S
C479 C475 1.408 . S
C479 C478 1.404 . S
C479 H491 0.930 . S
C480 C476 1.524 . S
C480 H492 0.956 . S
C480 H493 0.961 . S
C480 H494 0.961 . S
C481 C478 1.539 . S
C481 H495 0.958 . S
C481 H496 0.961 . S
C481 H497 0.960 . S
H482 C466 0.931 . S
H483 C471 0.929 . S
H484 C472 0.960 . S
H485 C472 0.962 . S
H486 C472 0.960 . S
H487 C473 0.961 . S
H488 C473 0.961 . S
H489 C473 0.961 . S
H490 C474 0.931 . S
H491 C479 0.930 . S
H492 C480 0.956 . S
H493 C480 0.961 . S
H494 C480 0.961 . S
H495 C481 0.958 . S
H496 C481 0.961 . S
H497 C481 0.960 . S
C498 C499 1.391 . S
C498 C500 1.394 . S
C498 H514 0.931 1_554 S
C499 C498 1.391 . S
C499 C503 1.376 . S
C500 C498 1.394 . S
C500 C501 1.369 . S
C500 C504 1.531 1_554 S
C501 C500 1.369 . S
C501 C502 1.410 . S
C501 C509 1.503 . S
C502 C501 1.410 . S
C502 C503 1.392 . S
C502 C505 1.511 . S
C503 C499 1.376 . S
C503 C502 1.392 . S
C503 H515 0.929 . S
C504 C500 1.531 1_556 S
C504 H516 0.960 . S
C504 H517 0.962 1_556 S
C504 H518 0.960 . S
C505 C502 1.511 . S
C505 H519 0.961 . S
C505 H520 0.961 . S
C505 H521 0.961 . S
C506 C507 1.370 . S
C506 C508 1.363 . S
C506 H522 0.931 . S
C507 C506 1.370 . S
C507 C511 1.408 . S
C508 C506 1.363 . S
C508 C509 1.370 . S
C508 C512 1.524 . S
C509 C501 1.503 . S
C509 C508 1.370 . S
C509 C510 1.403 . S
C510 C509 1.403 . S
C510 C511 1.404 . S
C510 C513 1.539 1_554 S
C511 C507 1.408 . S
C511 C510 1.404 . S
C511 H523 0.930 . S
C512 C508 1.524 . S
C512 H524 0.956 . S
C512 H525 0.961 . S
C512 H526 0.961 . S
C513 C510 1.539 1_556 S
C513 H527 0.958 . S
C513 H528 0.961 . S
C513 H529 0.960 . S
H514 C498 0.931 1_556 S
H515 C503 0.929 . S
H516 C504 0.960 . S
H517 C504 0.962 1_554 S
H518 C504 0.960 . S
H519 C505 0.961 . S
H520 C505 0.961 . S
H521 C505 0.961 . S
H522 C506 0.931 . S
H523 C511 0.930 . S
H524 C512 0.956 . S
H525 C512 0.961 . S
H526 C512 0.961 . S
H527 C513 0.958 . S
H528 C513 0.961 . S
H529 C513 0.960 . S
C530 C531 1.391 . S
C530 C532 1.394 . S
C530 H546 0.931 . S
C531 C530 1.391 . S
C531 C535 1.376 . S
C532 C530 1.394 . S
C532 C533 1.369 . S
C532 C536 1.531 . S
C533 C532 1.369 . S
C533 C534 1.410 . S
C533 C541 1.503 . S
C534 C533 1.410 . S
C534 C535 1.392 . S
C534 C537 1.511 . S
C535 C531 1.376 . S
C535 C534 1.392 . S
C535 H547 0.929 . S
C536 C532 1.531 . S
C536 H548 0.960 . S
C536 H549 0.962 . S
C536 H550 0.960 . S
C537 C534 1.511 . S
C537 H551 0.961 . S
C537 H552 0.961 . S
C537 H553 0.961 . S
C538 C539 1.370 . S
C538 C540 1.363 . S
C538 H554 0.931 . S
C539 C538 1.370 . S
C539 C543 1.408 . S
C540 C538 1.363 . S
C540 C541 1.370 . S
C540 C544 1.524 . S
C541 C533 1.503 . S
C541 C540 1.370 . S
C541 C542 1.403 . S
C542 C541 1.403 . S
C542 C543 1.404 . S
C542 C545 1.539 . S
C543 C539 1.408 . S
C543 C542 1.404 . S
C543 H555 0.930 . S
C544 C540 1.524 . S
C544 H556 0.956 . S
C544 H557 0.961 . S
C544 H558 0.961 . S
C545 C542 1.539 . S
C545 H559 0.958 . S
C545 H560 0.961 . S
C545 H561 0.960 . S
H546 C530 0.931 . S
H547 C535 0.929 . S
H548 C536 0.960 . S
H549 C536 0.962 . S
H550 C536 0.960 . S
H551 C537 0.961 . S
H552 C537 0.961 . S
H553 C537 0.961 . S
H554 C538 0.931 . S
H555 C543 0.930 . S
H556 C544 0.956 . S
H557 C544 0.961 . S
H558 C544 0.961 . S
H559 C545 0.958 . S
H560 C545 0.961 . S
H561 C545 0.960 . S
C562 C563 1.391 . S
C562 C564 1.394 . S
C562 H578 0.931 . S
C563 C562 1.391 . S
C563 C567 1.376 . S
C564 C562 1.394 . S
C564 C565 1.369 . S
C564 C568 1.531 . S
C565 C564 1.369 . S
C565 C566 1.410 . S
C565 C573 1.503 . S
C566 C565 1.410 . S
C566 C567 1.392 . S
C566 C569 1.511 . S
C567 C563 1.376 . S
C567 C566 1.392 . S
C567 H579 0.929 . S
C568 C564 1.531 . S
C568 H580 0.960 . S
C568 H581 0.962 . S
C568 H582 0.960 . S
C569 C566 1.511 . S
C569 H583 0.961 . S
C569 H584 0.961 . S
C569 H585 0.961 . S
C570 C571 1.370 . S
C570 C572 1.363 . S
C570 H586 0.931 . S
C571 C570 1.370 . S
C571 C575 1.408 . S
C572 C570 1.363 . S
C572 C573 1.370 . S
C572 C576 1.524 . S
C573 C565 1.503 . S
C573 C572 1.370 . S
C573 C574 1.403 . S
C574 C573 1.403 . S
C574 C575 1.404 . S
C574 C577 1.539 . S
C575 C571 1.408 . S
C575 C574 1.404 . S
C575 H587 0.930 . S
C576 C572 1.524 . S
C576 H588 0.956 . S
C576 H589 0.961 . S
C576 H590 0.961 . S
C577 C574 1.539 . S
C577 H591 0.958 . S
C577 H592 0.961 . S
C577 H593 0.960 . S
H578 C562 0.931 . S
H579 C567 0.929 . S
H580 C568 0.960 . S
H581 C568 0.962 . S
H582 C568 0.960 . S
H583 C569 0.961 . S
H584 C569 0.961 . S
H585 C569 0.961 . S
H586 C570 0.931 . S
H587 C575 0.930 . S
H588 C576 0.956 . S
H589 C576 0.961 . S
H590 C576 0.961 . S
H591 C577 0.958 . S
H592 C577 0.961 . S
H593 C577 0.960 . S
C594 C595 1.391 . S
C594 C596 1.394 . S
C594 H610 0.931 . S
C595 C594 1.391 . S
C595 C599 1.376 . S
C596 C594 1.394 . S
C596 C597 1.369 . S
C596 C600 1.531 . S
C597 C596 1.369 . S
C597 C598 1.410 . S
C597 C605 1.503 . S
C598 C597 1.410 . S
C598 C599 1.392 . S
C598 C601 1.511 . S
C599 C595 1.376 . S
C599 C598 1.392 . S
C599 H611 0.929 . S
C600 C596 1.531 . S
C600 H612 0.960 . S
C600 H613 0.962 . S
C600 H614 0.960 . S
C601 C598 1.511 . S
C601 H615 0.961 . S
C601 H616 0.961 . S
C601 H617 0.961 . S
C602 C603 1.370 . S
C602 C604 1.363 . S
C602 H618 0.931 . S
C603 C602 1.370 . S
C603 C607 1.408 . S
C604 C602 1.363 . S
C604 C605 1.370 . S
C604 C608 1.524 . S
C605 C597 1.503 . S
C605 C604 1.370 . S
C605 C606 1.403 . S
C606 C605 1.403 . S
C606 C607 1.404 . S
C606 C609 1.539 . S
C607 C603 1.408 . S
C607 C606 1.404 . S
C607 H619 0.930 . S
C608 C604 1.524 . S
C608 H620 0.956 . S
C608 H621 0.961 . S
C608 H622 0.961 . S
C609 C606 1.539 . S
C609 H623 0.958 . S
C609 H624 0.961 . S
C609 H625 0.960 . S
H610 C594 0.931 . S
H611 C599 0.929 . S
H612 C600 0.960 . S
H613 C600 0.962 . S
H614 C600 0.960 . S
H615 C601 0.961 . S
H616 C601 0.961 . S
H617 C601 0.961 . S
H618 C602 0.931 . S
H619 C607 0.930 . S
H620 C608 0.956 . S
H621 C608 0.961 . S
H622 C608 0.961 . S
H623 C609 0.958 . S
H624 C609 0.961 . S
H625 C609 0.960 . S
C626 C627 1.391 . S
C626 C628 1.394 . S
C626 H642 0.931 . S
C627 C626 1.391 . S
C627 C631 1.376 . S
C628 C626 1.394 . S
C628 C629 1.369 . S
C628 C632 1.531 . S
C629 C628 1.369 . S
C629 C630 1.410 . S
C629 C637 1.503 . S
C630 C629 1.410 . S
C630 C631 1.392 . S
C630 C633 1.511 . S
C631 C627 1.376 . S
C631 C630 1.392 . S
C631 H643 0.929 . S
C632 C628 1.531 . S
C632 H644 0.960 . S
C632 H645 0.962 . S
C632 H646 0.960 . S
C633 C630 1.511 . S
C633 H647 0.961 . S
C633 H648 0.961 . S
C633 H649 0.961 . S
C634 C635 1.370 . S
C634 C636 1.363 . S
C634 H650 0.931 . S
C635 C634 1.370 . S
C635 C639 1.408 . S
C636 C634 1.363 . S
C636 C637 1.370 . S
C636 C640 1.524 . S
C637 C629 1.503 . S
C637 C636 1.370 . S
C637 C638 1.403 . S
C638 C637 1.403 . S
C638 C639 1.404 . S
C638 C641 1.539 . S
C639 C635 1.408 . S
C639 C638 1.404 . S
C639 H651 0.930 . S
C640 C636 1.524 . S
C640 H652 0.956 . S
C640 H653 0.961 . S
C640 H654 0.961 . S
C641 C638 1.539 . S
C641 H655 0.958 . S
C641 H656 0.961 . S
C641 H657 0.960 . S
H642 C626 0.931 . S
H643 C631 0.929 . S
H644 C632 0.960 . S
H645 C632 0.962 . S
H646 C632 0.960 . S
H647 C633 0.961 . S
H648 C633 0.961 . S
H649 C633 0.961 . S
H650 C634 0.931 . S
H651 C639 0.930 . S
H652 C640 0.956 . S
H653 C640 0.961 . S
H654 C640 0.961 . S
H655 C641 0.958 . S
H656 C641 0.961 . S
H657 C641 0.960 . S
C658 C659 1.391 . S
C658 C660 1.394 . S
C658 H674 0.931 . S
C659 C658 1.391 . S
C659 C663 1.376 . S
C660 C658 1.394 . S
C660 C661 1.369 . S
C660 C664 1.531 . S
C661 C660 1.369 . S
C661 C662 1.410 . S
C661 C669 1.503 . S
C662 C661 1.410 . S
C662 C663 1.392 . S
C662 C665 1.511 . S
C663 C659 1.376 . S
C663 C662 1.392 . S
C663 H675 0.929 . S
C664 C660 1.531 . S
C664 H676 0.960 . S
C664 H677 0.962 . S
C664 H678 0.960 . S
C665 C662 1.511 . S
C665 H679 0.961 . S
C665 H680 0.961 . S
C665 H681 0.961 . S
C666 C667 1.370 . S
C666 C668 1.363 . S
C666 H682 0.931 . S
C667 C666 1.370 . S
C667 C671 1.408 . S
C668 C666 1.363 . S
C668 C669 1.370 . S
C668 C672 1.524 . S
C669 C661 1.503 . S
C669 C668 1.370 . S
C669 C670 1.403 . S
C670 C669 1.403 . S
C670 C671 1.404 . S
C670 C673 1.539 . S
C671 C667 1.408 . S
C671 C670 1.404 . S
C671 H683 0.930 . S
C672 C668 1.524 . S
C672 H684 0.956 . S
C672 H685 0.961 . S
C672 H686 0.961 . S
C673 C670 1.539 . S
C673 H687 0.958 . S
C673 H688 0.961 . S
C673 H689 0.960 . S
H674 C658 0.931 . S
H675 C663 0.929 . S
H676 C664 0.960 . S
H677 C664 0.962 . S
H678 C664 0.960 . S
H679 C665 0.961 . S
H680 C665 0.961 . S
H681 C665 0.961 . S
H682 C666 0.931 . S
H683 C671 0.930 . S
H684 C672 0.956 . S
H685 C672 0.961 . S
H686 C672 0.961 . S
H687 C673 0.958 . S
H688 C673 0.961 . S
H689 C673 0.960 . S
C690 C691 1.391 . S
C690 C692 1.394 . S
C690 H706 0.931 . S
C691 C690 1.391 . S
C691 C695 1.376 . S
C692 C690 1.394 . S
C692 C693 1.369 . S
C692 C696 1.531 . S
C693 C692 1.369 . S
C693 C694 1.410 . S
C693 C701 1.503 . S
C694 C693 1.410 . S
C694 C695 1.392 . S
C694 C697 1.511 . S
C695 C691 1.376 . S
C695 C694 1.392 . S
C695 H707 0.929 . S
C696 C692 1.531 . S
C696 H708 0.960 . S
C696 H709 0.962 . S
C696 H710 0.960 . S
C697 C694 1.511 . S
C697 H711 0.961 . S
C697 H712 0.961 . S
C697 H713 0.961 . S
C698 C699 1.370 . S
C698 C700 1.363 1_554 S
C698 H714 0.931 . S
C699 C698 1.370 . S
C699 C703 1.408 1_554 S
C700 C698 1.363 1_556 S
C700 C701 1.370 . S
C700 C704 1.524 . S
C701 C693 1.503 . S
C701 C700 1.370 . S
C701 C702 1.403 . S
C702 C701 1.403 . S
C702 C703 1.404 . S
C702 C705 1.539 . S
C703 C699 1.408 1_556 S
C703 C702 1.404 . S
C703 H715 0.930 . S
C704 C700 1.524 . S
C704 H716 0.956 . S
C704 H717 0.961 . S
C704 H718 0.961 1_556 S
C705 C702 1.539 . S
C705 H719 0.958 . S
C705 H720 0.961 . S
C705 H721 0.960 . S
H706 C690 0.931 . S
H707 C695 0.929 . S
H708 C696 0.960 . S
H709 C696 0.962 . S
H710 C696 0.960 . S
H711 C697 0.961 . S
H712 C697 0.961 . S
H713 C697 0.961 . S
H714 C698 0.931 . S
H715 C703 0.930 . S
H716 C704 0.956 . S
H717 C704 0.961 . S
H718 C704 0.961 1_554 S
H719 C705 0.958 . S
H720 C705 0.961 . S
H721 C705 0.960 . S
C722 C723 1.391 . S
C722 C724 1.394 . S
C722 H738 0.931 . S
C723 C722 1.391 . S
C723 C727 1.376 . S
C724 C722 1.394 . S
C724 C725 1.369 . S
C724 C728 1.531 . S
C725 C724 1.369 . S
C725 C726 1.410 . S
C725 C733 1.503 . S
C726 C725 1.410 . S
C726 C727 1.392 . S
C726 C729 1.511 . S
C727 C723 1.376 . S
C727 C726 1.392 . S
C727 H739 0.929 . S
C728 C724 1.531 . S
C728 H740 0.960 . S
C728 H741 0.962 . S
C728 H742 0.960 . S
C729 C726 1.511 . S
C729 H743 0.961 . S
C729 H744 0.961 . S
C729 H745 0.961 . S
C730 C731 1.370 . S
C730 C732 1.363 . S
C730 H746 0.931 . S
C731 C730 1.370 . S
C731 C735 1.408 . S
C732 C730 1.363 . S
C732 C733 1.370 . S
C732 C736 1.524 . S
C733 C725 1.503 . S
C733 C732 1.370 . S
C733 C734 1.403 . S
C734 C733 1.403 . S
C734 C735 1.404 . S
C734 C737 1.539 . S
C735 C731 1.408 . S
C735 C734 1.404 . S
C735 H747 0.930 . S
C736 C732 1.524 . S
C736 H748 0.956 . S
C736 H749 0.961 . S
C736 H750 0.961 . S
C737 C734 1.539 . S
C737 H751 0.958 . S
C737 H752 0.961 . S
C737 H753 0.960 . S
H738 C722 0.931 . S
H739 C727 0.929 . S
H740 C728 0.960 . S
H741 C728 0.962 . S
H742 C728 0.960 . S
H743 C729 0.961 . S
H744 C729 0.961 . S
H745 C729 0.961 . S
H746 C730 0.931 . S
H747 C735 0.930 . S
H748 C736 0.956 . S
H749 C736 0.961 . S
H750 C736 0.961 . S
H751 C737 0.958 . S
H752 C737 0.961 . S
H753 C737 0.960 . S
C754 C755 1.391 . S
C754 C756 1.394 . S
C754 H770 0.931 . S
C755 C754 1.391 . S
C755 C759 1.376 . S
C756 C754 1.394 . S
C756 C757 1.369 . S
C756 C760 1.531 . S
C757 C756 1.369 . S
C757 C758 1.410 . S
C757 C765 1.503 . S
C758 C757 1.410 . S
C758 C759 1.392 . S
C758 C761 1.511 . S
C759 C755 1.376 . S
C759 C758 1.392 . S
C759 H771 0.929 . S
C760 C756 1.531 . S
C760 H772 0.960 . S
C760 H773 0.962 . S
C760 H774 0.960 . S
C761 C758 1.511 . S
C761 H775 0.961 . S
C761 H776 0.961 . S
C761 H777 0.961 . S
C762 C763 1.370 . S
C762 C764 1.363 . S
C762 H778 0.931 . S
C763 C762 1.370 . S
C763 C767 1.408 . S
C764 C762 1.363 . S
C764 C765 1.370 . S
C764 C768 1.524 . S
C765 C757 1.503 . S
C765 C764 1.370 . S
C765 C766 1.403 . S
C766 C765 1.403 . S
C766 C767 1.404 . S
C766 C769 1.539 . S
C767 C763 1.408 . S
C767 C766 1.404 . S
C767 H779 0.930 . S
C768 C764 1.524 . S
C768 H780 0.956 . S
C768 H781 0.961 . S
C768 H782 0.961 . S
C769 C766 1.539 . S
C769 H783 0.958 . S
C769 H784 0.961 . S
C769 H785 0.960 . S
H770 C754 0.931 . S
H771 C759 0.929 . S
H772 C760 0.960 . S
H773 C760 0.962 . S
H774 C760 0.960 . S
H775 C761 0.961 . S
H776 C761 0.961 . S
H777 C761 0.961 . S
H778 C762 0.931 . S
H779 C767 0.930 . S
H780 C768 0.956 . S
H781 C768 0.961 . S
H782 C768 0.961 . S
H783 C769 0.958 . S
H784 C769 0.961 . S
H785 C769 0.960 . S
C786 C787 1.391 . S
C786 C788 1.394 . S
C786 H802 0.931 . S
C787 C786 1.391 . S
C787 C791 1.376 . S
C788 C786 1.394 . S
C788 C789 1.369 . S
C788 C792 1.531 . S
C789 C788 1.369 . S
C789 C790 1.410 . S
C789 C797 1.503 . S
C790 C789 1.410 . S
C790 C791 1.392 . S
C790 C793 1.511 . S
C791 C787 1.376 . S
C791 C790 1.392 . S
C791 H803 0.929 . S
C792 C788 1.531 . S
C792 H804 0.960 . S
C792 H805 0.962 . S
C792 H806 0.960 . S
C793 C790 1.511 . S
C793 H807 0.961 . S
C793 H808 0.961 . S
C793 H809 0.961 . S
C794 C795 1.370 . S
C794 C796 1.363 . S
C794 H810 0.931 . S
C795 C794 1.370 . S
C795 C799 1.408 . S
C796 C794 1.363 . S
C796 C797 1.370 . S
C796 C800 1.524 . S
C797 C789 1.503 . S
C797 C796 1.370 . S
C797 C798 1.403 . S
C798 C797 1.403 . S
C798 C799 1.404 . S
C798 C801 1.539 . S
C799 C795 1.408 . S
C799 C798 1.404 . S
C799 H811 0.930 . S
C800 C796 1.524 . S
C800 H812 0.956 . S
C800 H813 0.961 . S
C800 H814 0.961 . S
C801 C798 1.539 . S
C801 H815 0.958 . S
C801 H816 0.961 . S
C801 H817 0.960 . S
H802 C786 0.931 . S
H803 C791 0.929 . S
H804 C792 0.960 . S
H805 C792 0.962 . S
H806 C792 0.960 . S
H807 C793 0.961 . S
H808 C793 0.961 . S
H809 C793 0.961 . S
H810 C794 0.931 . S
H811 C799 0.930 . S
H812 C800 0.956 . S
H813 C800 0.961 . S
H814 C800 0.961 . S
H815 C801 0.958 . S
H816 C801 0.961 . S
H817 C801 0.960 . S
C818 C819 1.391 . S
C818 C820 1.394 . S
C818 H834 0.931 . S
C819 C818 1.391 . S
C819 C823 1.376 . S
C820 C818 1.394 . S
C820 C821 1.369 . S
C820 C824 1.531 . S
C821 C820 1.369 . S
C821 C822 1.410 . S
C821 C829 1.503 . S
C822 C821 1.410 . S
C822 C823 1.392 . S
C822 C825 1.511 . S
C823 C819 1.376 . S
C823 C822 1.392 . S
C823 H835 0.929 . S
C824 C820 1.531 . S
C824 H836 0.960 . S
C824 H837 0.962 . S
C824 H838 0.960 . S
C825 C822 1.511 . S
C825 H839 0.961 . S
C825 H840 0.961 . S
C825 H841 0.961 . S
C826 C827 1.370 . S
C826 C828 1.363 . S
C826 H842 0.931 . S
C827 C826 1.370 . S
C827 C831 1.408 . S
C828 C826 1.363 . S
C828 C829 1.370 . S
C828 C832 1.524 . S
C829 C821 1.503 . S
C829 C828 1.370 . S
C829 C830 1.403 . S
C830 C829 1.403 . S
C830 C831 1.404 . S
C830 C833 1.539 . S
C831 C827 1.408 . S
C831 C830 1.404 . S
C831 H843 0.930 . S
C832 C828 1.524 . S
C832 H844 0.956 . S
C832 H845 0.961 . S
C832 H846 0.961 . S
C833 C830 1.539 . S
C833 H847 0.958 . S
C833 H848 0.961 . S
C833 H849 0.960 . S
H834 C818 0.931 . S
H835 C823 0.929 . S
H836 C824 0.960 . S
H837 C824 0.962 . S
H838 C824 0.960 . S
H839 C825 0.961 . S
H840 C825 0.961 . S
H841 C825 0.961 . S
H842 C826 0.931 . S
H843 C831 0.930 . S
H844 C832 0.956 . S
H845 C832 0.961 . S
H846 C832 0.961 . S
H847 C833 0.958 . S
H848 C833 0.961 . S
H849 C833 0.960 . S
C850 C851 1.391 . S
C850 C852 1.394 . S
C850 H866 0.931 . S
C851 C850 1.391 . S
C851 C855 1.376 . S
C852 C850 1.394 . S
C852 C853 1.369 . S
C852 C856 1.531 . S
C853 C852 1.369 . S
C853 C854 1.410 . S
C853 C861 1.503 . S
C854 C853 1.410 . S
C854 C855 1.392 . S
C854 C857 1.511 . S
C855 C851 1.376 . S
C855 C854 1.392 . S
C855 H867 0.929 . S
C856 C852 1.531 . S
C856 H868 0.960 . S
C856 H869 0.962 . S
C856 H870 0.960 . S
C857 C854 1.511 . S
C857 H871 0.961 . S
C857 H872 0.961 . S
C857 H873 0.961 . S
C858 C859 1.370 . S
C858 C860 1.363 . S
C858 H874 0.931 . S
C859 C858 1.370 . S
C859 C863 1.408 . S
C860 C858 1.363 . S
C860 C861 1.370 . S
C860 C864 1.524 . S
C861 C853 1.503 . S
C861 C860 1.370 . S
C861 C862 1.403 . S
C862 C861 1.403 . S
C862 C863 1.404 . S
C862 C865 1.539 . S
C863 C859 1.408 . S
C863 C862 1.404 . S
C863 H875 0.930 . S
C864 C860 1.524 . S
C864 H876 0.956 . S
C864 H877 0.961 . S
C864 H878 0.961 . S
C865 C862 1.539 . S
C865 H879 0.958 . S
C865 H880 0.961 . S
C865 H881 0.960 . S
H866 C850 0.931 . S
H867 C855 0.929 . S
H868 C856 0.960 . S
H869 C856 0.962 . S
H870 C856 0.960 . S
H871 C857 0.961 . S
H872 C857 0.961 . S
H873 C857 0.961 . S
H874 C858 0.931 . S
H875 C863 0.930 . S
H876 C864 0.956 . S
H877 C864 0.961 . S
H878 C864 0.961 . S
H879 C865 0.958 . S
H880 C865 0.961 . S
H881 C865 0.960 . S
C882 C883 1.391 . S
C882 C884 1.394 . S
C882 H898 0.931 . S
C883 C882 1.391 . S
C883 C887 1.376 . S
C884 C882 1.394 . S
C884 C885 1.369 . S
C884 C888 1.531 . S
C885 C884 1.369 . S
C885 C886 1.410 . S
C885 C893 1.503 . S
C886 C885 1.410 . S
C886 C887 1.392 . S
C886 C889 1.511 . S
C887 C883 1.376 . S
C887 C886 1.392 . S
C887 H899 0.929 . S
C888 C884 1.531 . S
C888 H900 0.960 . S
C888 H901 0.962 . S
C888 H902 0.960 . S
C889 C886 1.511 . S
C889 H903 0.961 . S
C889 H904 0.961 . S
C889 H905 0.961 . S
C890 C891 1.370 . S
C890 C892 1.363 . S
C890 H906 0.931 . S
C891 C890 1.370 . S
C891 C895 1.408 . S
C892 C890 1.363 . S
C892 C893 1.370 . S
C892 C896 1.524 . S
C893 C885 1.503 . S
C893 C892 1.370 . S
C893 C894 1.403 . S
C894 C893 1.403 . S
C894 C895 1.404 . S
C894 C897 1.539 . S
C895 C891 1.408 . S
C895 C894 1.404 . S
C895 H907 0.930 . S
C896 C892 1.524 . S
C896 H908 0.956 . S
C896 H909 0.961 . S
C896 H910 0.961 . S
C897 C894 1.539 . S
C897 H911 0.958 . S
C897 H912 0.961 . S
C897 H913 0.960 . S
H898 C882 0.931 . S
H899 C887 0.929 . S
H900 C888 0.960 . S
H901 C888 0.962 . S
H902 C888 0.960 . S
H903 C889 0.961 . S
H904 C889 0.961 . S
H905 C889 0.961 . S
H906 C890 0.931 . S
H907 C895 0.930 . S
H908 C896 0.956 . S
H909 C896 0.961 . S
H910 C896 0.961 . S
H911 C897 0.958 . S
H912 C897 0.961 . S
H913 C897 0.960 . S
C914 C915 1.391 . S
C914 C916 1.394 . S
C914 H930 0.931 . S
C915 C914 1.391 . S
C915 C919 1.376 . S
C916 C914 1.394 . S
C916 C917 1.369 . S
C916 C920 1.531 1_554 S
C917 C916 1.369 . S
C917 C918 1.410 . S
C917 C925 1.503 . S
C918 C917 1.410 . S
C918 C919 1.392 . S
C918 C921 1.511 . S
C919 C915 1.376 . S
C919 C918 1.392 . S
C919 H931 0.929 . S
C920 C916 1.531 1_556 S
C920 H932 0.960 . S
C920 H933 0.962 . S
C920 H934 0.960 . S
C921 C918 1.511 . S
C921 H935 0.961 . S
C921 H936 0.961 . S
C921 H937 0.961 . S
C922 C923 1.370 . S
C922 C924 1.363 1_556 S
C922 H938 0.931 . S
C923 C922 1.370 . S
C923 C927 1.408 . S
C924 C922 1.363 1_554 S
C924 C925 1.370 . S
C924 C928 1.524 . S
C925 C917 1.503 . S
C925 C924 1.370 . S
C925 C926 1.410 . S
C926 C925 1.410 . S
C926 C927 1.392 1_554 S
C926 C929 1.544 . S
C927 C923 1.408 . S
C927 C926 1.392 1_556 S
C927 H939 0.930 . S
C928 C924 1.524 . S
C928 H940 0.956 . S
C928 H941 0.961 . S
C928 H942 0.961 . S
C929 C926 1.544 . S
C929 H943 0.958 1_554 S
C929 H944 0.961 . S
C929 H945 0.960 . S
H930 C914 0.931 . S
H931 C919 0.929 . S
H932 C920 0.960 . S
H933 C920 0.962 . S
H934 C920 0.960 . S
H935 C921 0.961 . S
H936 C921 0.961 . S
H937 C921 0.961 . S
H938 C922 0.931 . S
H939 C927 0.930 . S
H940 C928 0.956 . S
H941 C928 0.961 . S
H942 C928 0.961 . S
H943 C929 0.958 1_556 S
H944 C929 0.961 . S
H945 C929 0.960 . S
C946 C947 1.391 . S
C946 C948 1.394 . S
C946 H962 0.931 . S
C947 C946 1.391 . S
C947 C951 1.376 . S
C948 C946 1.394 . S
C948 C949 1.369 . S
C948 C952 1.531 . S
C949 C948 1.369 . S
C949 C950 1.410 . S
C949 C957 1.503 . S
C950 C949 1.410 . S
C950 C951 1.392 . S
C950 C953 1.511 . S
C951 C947 1.376 . S
C951 C950 1.392 . S
C951 H963 0.929 . S
C952 C948 1.531 . S
C952 H964 0.960 . S
C952 H965 0.962 . S
C952 H966 0.960 . S
C953 C950 1.511 . S
C953 H967 0.961 . S
C953 H968 0.961 . S
C953 H969 0.961 . S
C954 C955 1.370 . S
C954 C956 1.363 . S
C954 H970 0.931 . S
C955 C954 1.370 . S
C955 C959 1.408 . S
C956 C954 1.363 . S
C956 C957 1.370 . S
C956 C960 1.524 . S
C957 C949 1.503 . S
C957 C956 1.370 . S
C957 C958 1.403 . S
C958 C957 1.403 . S
C958 C959 1.404 . S
C958 C961 1.539 . S
C959 C955 1.408 . S
C959 C958 1.404 . S
C959 H971 0.930 . S
C960 C956 1.524 . S
C960 H972 0.956 . S
C960 H973 0.961 . S
C960 H974 0.961 . S
C961 C958 1.539 . S
C961 H975 0.958 . S
C961 H976 0.961 . S
C961 H977 0.960 . S
H962 C946 0.931 . S
H963 C951 0.929 . S
H964 C952 0.960 . S
H965 C952 0.962 . S
H966 C952 0.960 . S
H967 C953 0.961 . S
H968 C953 0.961 . S
H969 C953 0.961 . S
H970 C954 0.931 . S
H971 C959 0.930 . S
H972 C960 0.956 . S
H973 C960 0.961 . S
H974 C960 0.961 . S
H975 C961 0.958 . S
H976 C961 0.961 . S
H977 C961 0.960 . S
C219 C203 1.494 . S
C211 C19 1.398 . S
C243 C40 1.398 . S
C251 C132 1.491 . S
C275 C51 1.399 . S
C283 C146 1.508 . S
C307 C72 1.453 . S
C315 C160 1.482 . S
C347 C174 1.489 . S
C339 C103 1.397 . S
C371 C114 1.459 . S
C379 C189 1.497 . S
C403 C30 1.461 . S
C411 C147 1.490 . S
C435 C61 1.476 . S
C443 C161 1.487 . S
C467 C82 1.473 . S
C475 C175 1.485 . S
C507 C188 1.503 . S
C499 C93 1.397 1_554 S
C539 C202 1.480 . S
C531 C124 1.417 . S
C571 C133 1.491 . S
C563 C9 1.467 . S
C595 C17 1.482 . S
C603 C149 1.546 . S
C627 C38 1.506 . S
C635 C163 1.537 . S
C667 C177 1.530 . S
C659 C54 1.430 . S
C691 C75 1.466 . S
C699 C190 1.544 . S
C731 C204 1.540 . S
C723 C101 1.503 . S
C763 C135 1.534 . S
C755 C117 1.439 . S
C795 C205 1.526 . S
C787 C33 1.429 . S
C819 C59 1.490 . S
C827 C134 1.531 . S
C859 C148 1.547 . S
C851 C80 1.494 . S
C883 C96 1.428 . S
C891 C162 1.527 . S
C915 C122 1.489 . S
C923 C176 1.542 . S
C947 C12 1.438 . S
C955 C191 1.530 . S
