# Generated by pormake.
# Topology pth, (4,4)-cn, num edge types: 1
# Building blocks:
#     Node 0, Type 0, BuildingBlock: GALJAG_clean_sbu_0, # of connection points: 4
#     Node 1, Type 0, BuildingBlock: GALJAG_clean_sbu_0, # of connection points: 4
#     Node 2, Type 0, BuildingBlock: GALJAG_clean_sbu_0, # of connection points: 4
#     Node 3, Type 1, BuildingBlock: AZAVOO_clean_linker_0, # of connection points: 4
#     Node 4, Type 1, BuildingBlock: AZAVOO_clean_linker_0, # of connection points: 4
#     Node 5, Type 1, BuildingBlock: AZAVOO_clean_linker_0, # of connection points: 4
#     Edge 6, Type (0, 1), BuildingBlock: KIFKEQ_clean_linker_1, # of connection points: 2
#     Edge 7, Type (0, 1), BuildingBlock: KIFKEQ_clean_linker_1, # of connection points: 2
#     Edge 8, Type (0, 1), BuildingBlock: KIFKEQ_clean_linker_1, # of connection points: 2
#     Edge 9, Type (0, 1), BuildingBlock: KIFKEQ_clean_linker_1, # of connection points: 2
#     Edge 10, Type (0, 1), BuildingBlock: KIFKEQ_clean_linker_1, # of connection points: 2
#     Edge 11, Type (0, 1), BuildingBlock: KIFKEQ_clean_linker_1, # of connection points: 2
#     Edge 12, Type (0, 1), BuildingBlock: KIFKEQ_clean_linker_1, # of connection points: 2
#     Edge 13, Type (0, 1), BuildingBlock: KIFKEQ_clean_linker_1, # of connection points: 2
#     Edge 14, Type (0, 1), BuildingBlock: KIFKEQ_clean_linker_1, # of connection points: 2
#     Edge 15, Type (0, 1), BuildingBlock: KIFKEQ_clean_linker_1, # of connection points: 2
#     Edge 16, Type (0, 1), BuildingBlock: KIFKEQ_clean_linker_1, # of connection points: 2
#     Edge 17, Type (0, 1), BuildingBlock: KIFKEQ_clean_linker_1, # of connection points: 2
# Relax obj value: 0.128
# Max RMSD: 0.233
# Mean RMSD: 0.161
data_MOF--net-pth--node1-GALJAG_clean_sbu_0--node2-AZAVOO_clean_linker_0--edge1-KIFKEQ_clean_linker_1
_symmetry_space_group_name_H-M    P1
_symmetry_Int_Tables_number       1
_symmetry_cell_setting            triclinic
loop_
_symmetry_equiv_pos_as_xyz
'x, y, z'
_cell_length_a     27.32636
_cell_length_b     27.655797
_cell_length_c     70.702583
_cell_angle_alpha  93.113719
_cell_angle_beta   89.143491
_cell_angle_gamma 119.97249
loop_
_atom_site_label
_atom_site_type_symbol
_atom_site_fract_x
_atom_site_fract_y
_atom_site_fract_z
_atom_type_partial_charge
In0 In 0.0661 0.04049 0.0519 0.0
O1 O 0.01503 0.06929 0.07037 0.0
O2 O 0.10167 0.10161 0.07741 0.0
C3 C 0.99195 0.98161 0.02352 0.0
C4 C 0.15027 0.11556 0.03106 0.0
C5 C 0.06575 0.96074 0.07189 0.0
O6 O 0.99295 0.02336 0.03209 0.0
O7 O 0.02744 0.96934 0.02945 0.0
O8 O 0.10945 0.99599 0.06356 0.0
O9 O 0.02266 0.96577 0.06993 0.0
C10 C 0.05596 0.10032 0.08146 0.0
O11 O 0.15396 0.07734 0.03878 0.0
O12 O 0.10496 0.11597 0.03415 0.0
In13 In 0.02165 0.03394 0.3819 0.0
O14 O 0.06452 0.11899 0.36866 0.0
O15 O 0.98081 0.05984 0.35971 0.0
C16 C 0.11194 0.04662 0.40086 0.0
C17 C 0.95597 0.0356 0.41053 0.0
C18 C 0.0046 0.94281 0.36068 0.0
O19 O 0.11445 0.08469 0.39104 0.0
O20 O 0.06414 0.00282 0.40104 0.0
O21 O 0.97019 0.94083 0.37315 0.0
O22 O 0.04613 0.99093 0.35848 0.0
C23 C 0.02272 0.10812 0.35829 0.0
O24 O 0.93549 0.00501 0.3956 0.0
O25 O 0.00894 0.06542 0.41087 0.0
In26 In 0.04131 0.04764 0.71764 0.0
O27 O 0.99011 0.9609 0.72911 0.0
O28 O 0.98125 0.02653 0.74261 0.0
C29 C 0.11105 0.02763 0.69547 0.0
C30 C 0.96817 0.05202 0.69365 0.0
C31 C 0.12294 0.13485 0.73841 0.0
O32 O 0.09172 0.00379 0.71072 0.0
O33 O 0.09404 0.06045 0.69111 0.0
O34 O 0.0901 0.14065 0.72759 0.0
O35 O 0.11329 0.08544 0.73906 0.0
C36 C 0.96666 0.9754 0.7419 0.0
O37 O 0.0005 0.09306 0.70466 0.0
O38 O 0.97337 0.00936 0.69464 0.0
H39 H 0.00966 0.43628 0.09499 0.0
H40 H 0.08629 0.87595 0.2516 0.0
H41 H 0.93806 0.39339 0.19528 0.0
H42 H 0.9414 0.31583 0.17831 0.0
H43 H 0.11104 0.37859 0.19977 0.0
H44 H 0.10754 0.45685 0.21645 0.0
H45 H 0.95413 0.49081 0.17048 0.0
H46 H 0.96188 0.46544 0.1373 0.0
H47 H 0.12952 0.49416 0.14902 0.0
H48 H 0.12149 0.52022 0.18207 0.0
H49 H 0.95292 0.59263 0.1913 0.0
H50 H 0.96204 0.65589 0.16685 0.0
H51 H 0.13649 0.70001 0.15917 0.0
H52 H 0.12712 0.63725 0.18393 0.0
H53 H 0.9413 0.59888 0.23556 0.0
H54 H 0.9438 0.68563 0.24641 0.0
H55 H 0.12182 0.7787 0.23371 0.0
H56 H 0.1189 0.69146 0.22322 0.0
H57 H 0.93093 0.50861 0.25926 0.0
H58 H 0.91924 0.55612 0.28777 0.0
H59 H 0.09786 0.67724 0.28764 0.0
H60 H 0.10904 0.62855 0.25969 0.0
H61 H 0.93481 0.39535 0.23899 0.0
H62 H 0.93238 0.33011 0.26157 0.0
H63 H 0.10165 0.45224 0.28057 0.0
H64 H 0.1034 0.51725 0.25805 0.0
O65 O 0.00764 0.44688 0.10812 0.0
O66 O 0.0934 0.46168 0.11495 0.0
O67 O 0.99269 0.79113 0.25388 0.0
O68 O 0.08399 0.84109 0.24723 0.0
C69 C 0.02553 0.48424 0.21289 0.0
C70 C 0.0319 0.52142 0.19886 0.0
C71 C 0.03347 0.57206 0.20406 0.0
C72 C 0.02901 0.58581 0.22324 0.0
C73 C 0.02438 0.54938 0.23735 0.0
C74 C 0.02258 0.49851 0.23219 0.0
C75 C 0.02267 0.43072 0.20695 0.0
C76 C 0.97523 0.38932 0.19678 0.0
C77 C 0.97722 0.34503 0.18713 0.0
C78 C 0.02677 0.34153 0.18752 0.0
C79 C 0.07262 0.38072 0.199 0.0
C80 C 0.07053 0.42504 0.20868 0.0
C81 C 0.03721 0.50727 0.17864 0.0
C82 C 0.99259 0.49192 0.1658 0.0
C83 C -0.00291 0.47729 0.14689 0.0
C84 C 0.04629 0.47767 0.14051 0.0
C85 C 0.09103 0.49337 0.15345 0.0
C86 C 0.08654 0.5082 0.17233 0.0
C87 C 0.03937 0.61059 0.18933 0.0
C88 C 0.99307 0.61611 0.18435 0.0
C89 C -0.00174 0.65184 0.1703 0.0
C90 C 0.04993 0.68265 0.16105 0.0
C91 C 0.09633 0.6771 0.16616 0.0
C92 C 0.09102 0.64121 0.18019 0.0
C93 C 0.02994 0.63895 0.22866 0.0
C94 C 0.98075 0.63808 0.23511 0.0
C95 C 0.98231 0.68768 0.24129 0.0
C96 C 0.03308 0.73913 0.24097 0.0
C97 C 0.08207 0.73984 0.23417 0.0
C98 C 0.0805 0.69014 0.22809 0.0
C99 C 0.02074 0.5655 0.2574 0.0
C100 C 0.96783 0.54387 0.26596 0.0
C101 C 0.96115 0.57154 0.28207 0.0
C102 C 0.00737 0.62115 0.28977 0.0
C103 C 0.06135 0.63903 0.28223 0.0
C104 C 0.06796 0.61125 0.26622 0.0
C105 C 0.01927 0.4609 0.24691 0.0
C106 C 0.97111 0.40806 0.24816 0.0
C107 C 0.96997 0.37082 0.26097 0.0
C108 C 0.01697 0.38591 0.27277 0.0
C109 C 0.06457 0.43958 0.27182 0.0
C110 C 0.06571 0.47672 0.25896 0.0
C111 C 0.05075 0.46166 0.12045 0.0
C112 C 0.03512 0.79186 0.24775 0.0
H113 H 0.62065 0.01933 0.43102 0.0
H114 H 0.25435 0.11881 0.58692 0.0
H115 H 0.59473 0.97053 0.53694 0.0
H116 H 0.66909 0.96711 0.51812 0.0
H117 H 0.76525 0.14742 0.52092 0.0
H118 H 0.69156 0.15057 0.5403 0.0
H119 H 0.51969 0.97912 0.50618 0.0
H120 H 0.55128 0.97918 0.47358 0.0
H121 H 0.6583 0.15886 0.47942 0.0
H122 H 0.62601 0.15809 0.51197 0.0
H123 H 0.40784 0.98334 0.52118 0.0
H124 H 0.35036 0.98561 0.49544 0.0
H125 H 0.46669 0.16244 0.49133 0.0
H126 H 0.52331 0.15981 0.51747 0.0
H127 H 0.38396 0.97554 0.56139 0.0
H128 H 0.29891 0.97657 0.57215 0.0
H129 H 0.38872 0.15691 0.57109 0.0
H130 H 0.47361 0.15519 0.56048 0.0
H131 H 0.45835 0.96129 0.58587 0.0
H132 H 0.39455 0.94487 0.61254 0.0
H133 H 0.46713 0.12301 0.62295 0.0
H134 H 0.53008 0.1391 0.59604 0.0
H135 H 0.5802 0.96966 0.57307 0.0
H136 H 0.64514 0.96724 0.59601 0.0
H137 H 0.70499 0.14063 0.61286 0.0
H138 H 0.63975 0.14245 0.58989 0.0
O139 O 0.6079 0.02038 0.4438 0.0
O140 O 0.66283 0.11263 0.44763 0.0
O141 O 0.24334 0.02453 0.58313 0.0
O142 O 0.28701 0.11712 0.5823 0.0
C143 C 0.58699 0.06295 0.54574 0.0
C144 C 0.55421 0.06768 0.53148 0.0
C145 C 0.50476 0.06902 0.53626 0.0
C146 C 0.48751 0.06484 0.55524 0.0
C147 C 0.52014 0.05976 0.56952 0.0
C148 C 0.57018 0.05925 0.56481 0.0
C149 C 0.63817 0.06078 0.54009 0.0
C150 C 0.63321 0.00916 0.53435 0.0
C151 C 0.67538 0.00728 0.52351 0.0
C152 C 0.72233 0.05703 0.51804 0.0
C153 C 0.72924 0.10861 0.52501 0.0
C154 C 0.68759 0.11044 0.53617 0.0
C155 C 0.57059 0.06858 0.51134 0.0
C156 C 0.54955 0.01844 0.5003 0.0
C157 C 0.56783 0.01862 0.48172 0.0
C158 C 0.60748 0.06902 0.47391 0.0
C159 C 0.62778 0.11932 0.485 0.0
C160 C 0.60934 0.11906 0.50355 0.0
C161 C 0.46937 0.07143 0.52115 0.0
C162 C 0.42059 0.02256 0.51478 0.0
C163 C 0.38825 0.02389 0.49997 0.0
C164 C 0.40431 0.07416 0.49127 0.0
C165 C 0.45311 0.12323 0.49784 0.0
C166 C 0.48549 0.12181 0.51268 0.0
C167 C 0.43481 0.0653 0.56025 0.0
C168 C 0.385 0.01516 0.5634 0.0
C169 C 0.33657 0.0159 0.56956 0.0
C170 C 0.33711 0.06688 0.57258 0.0
C171 C 0.38689 0.11696 0.56897 0.0
C172 C 0.43535 0.11613 0.56284 0.0
C173 C 0.49866 0.05134 0.58908 0.0
C174 C 0.46229 -0.00326 0.59447 0.0
C175 C 0.42559 0.98742 0.60954 0.0
C176 C 0.42574 0.03271 0.61959 0.0
C177 C 0.46655 0.08748 0.61547 0.0
C178 C 0.50267 0.09675 0.6002 0.0
C179 C 0.60575 0.05634 0.57976 0.0
C180 C 0.60723 0.00697 0.58178 0.0
C181 C 0.64443 0.00577 0.59483 0.0
C182 C 0.6805 0.0539 0.60614 0.0
C183 C 0.67747 0.10279 0.60447 0.0
C184 C 0.64042 0.10398 0.59134 0.0
C185 C 0.62783 0.0689 0.45433 0.0
C186 C 0.28622 0.06799 0.57963 0.0
H187 H 0.61905 0.63573 0.00825 0.0
H188 H 0.29436 0.18932 0.85049 0.0
H189 H 0.58628 0.67415 0.91152 0.0
H190 H 0.66141 0.75461 0.92881 0.0
H191 H 0.78515 0.72658 0.8988 0.0
H192 H 0.70867 0.64257 0.88292 0.0
H193 H 0.51046 0.57366 0.93331 0.0
H194 H 0.5415 0.59945 0.96643 0.0
H195 H 0.69519 0.59721 0.95279 0.0
H196 H 0.66324 0.57061 0.91977 0.0
H197 H 0.41572 0.47567 0.91031 0.0
H198 H 0.35808 0.40711 0.93316 0.0
H199 H 0.49306 0.37164 0.9419 0.0
H200 H 0.55094 0.44133 0.91908 0.0
H201 H 0.39954 0.46344 0.86778 0.0
H202 H 0.32104 0.37202 0.85706 0.0
H203 H 0.42285 0.29666 0.86792 0.0
H204 H 0.5013 0.38853 0.87833 0.0
H205 H 0.47291 0.55534 0.84386 0.0
H206 H 0.41377 0.49917 0.81656 0.0
H207 H 0.49597 0.40025 0.81531 0.0
H208 H 0.55461 0.45633 0.84257 0.0
H209 H 0.59062 0.68145 0.86477 0.0
H210 H 0.65106 0.74916 0.84187 0.0
H211 H 0.70623 0.6348 0.82085 0.0
H212 H 0.64634 0.56779 0.84387 0.0
O213 O 0.6073 0.62491 0.99512 0.0
O214 O 0.68577 0.62355 0.98733 0.0
O215 O 0.27425 0.26683 0.84923 0.0
O216 O 0.32448 0.22585 0.85486 0.0
C217 C 0.59577 0.59526 0.89005 0.0
C218 C 0.56641 0.55597 0.90393 0.0
C219 C 0.52045 0.50305 0.89854 0.0
C220 C 0.50464 0.48856 0.87931 0.0
C221 C 0.53533 0.52678 0.86533 0.0
C222 C 0.58086 0.58028 0.87065 0.0
C223 C 0.64194 0.65186 0.89628 0.0
C224 C 0.62972 0.68599 0.90848 0.0
C225 C 0.67307 0.73251 0.91825 0.0
C226 C 0.72986 0.74693 0.91559 0.0
C227 C 0.74202 0.71584 0.90176 0.0
C228 C 0.69839 0.66826 0.89238 0.0
C229 C 0.58449 0.57005 0.92417 0.0
C230 C 0.55054 0.57821 0.93755 0.0
C231 C 0.56852 0.5932 0.95644 0.0
C232 C 0.62087 0.60044 0.96226 0.0
C233 C 0.65465 0.59197 0.94879 0.0
C234 C 0.63652 0.57679 0.92993 0.0
C235 C 0.48721 0.46311 0.91304 0.0
C236 C 0.43281 0.45315 0.9172 0.0
C237 C 0.39992 0.41378 0.93016 0.0
C238 C 0.42083 0.38352 0.93916 0.0
C239 C 0.47597 0.3945 0.93525 0.0
C240 C 0.50894 0.43404 0.92223 0.0
C241 C 0.4561 0.43254 0.87372 0.0
C242 C 0.40475 0.42711 0.86782 0.0
C243 C 0.35999 0.37485 0.86174 0.0
C244 C 0.3657 0.32701 0.86161 0.0
C245 C 0.41704 0.33261 0.86783 0.0
C246 C 0.46185 0.38496 0.87383 0.0
C247 C 0.51758 0.50949 0.84524 0.0
C248 C 0.48013 0.52344 0.83706 0.0
C249 C 0.4462 0.49114 0.82154 0.0
C250 C 0.44958 0.4447 0.81415 0.0
C251 C 0.49204 0.43534 0.82096 0.0
C252 C 0.52595 0.46767 0.83637 0.0
C253 C 0.61405 0.6197 0.85595 0.0
C254 C 0.61557 0.67101 0.85514 0.0
C255 C 0.65018 0.70961 0.84213 0.0
C256 C 0.68334 0.69722 0.82959 0.0
C257 C 0.68063 0.64521 0.83016 0.0
C258 C 0.64647 0.60691 0.84329 0.0
C259 C 0.64012 0.61696 0.98229 0.0
C260 C 0.31859 0.27154 0.85488 0.0
H261 H 0.13711 0.16413 0.10795 0.0
H262 H 0.96382 0.10828 0.09252 0.0
H263 H 0.13018 0.21782 0.13526 0.0
H264 H 0.95721 0.1632 0.11966 0.0
H265 H 0.94962 0.23121 0.17903 0.0
H266 H 0.95628 0.16949 0.1543 0.0
H267 H 0.12344 0.3013 0.14079 0.0
H268 H 0.11685 0.36251 0.16541 0.0
C269 C 0.09755 0.16346 0.11038 0.0
C270 C 0.05108 0.1323 0.09805 0.0
C271 C 0.09364 0.19436 0.12599 0.0
C272 C 0.04322 0.19493 0.1296 0.0
C273 C -0.00357 0.16307 0.11741 0.0
C274 C 0.00032 0.132 0.10178 0.0
C275 C 0.98792 0.24667 0.17086 0.0
C276 C 0.03281 0.30157 0.17423 0.0
C277 C 0.99165 0.21148 0.15666 0.0
C278 C 0.04031 0.23056 0.14555 0.0
C279 C 0.08572 0.28497 0.14929 0.0
C280 C 0.08203 0.32004 0.16347 0.0
H281 H 0.98994 0.06996 0.44708 0.0
H282 H 0.84393 0.00337 0.40992 0.0
H283 H 0.93321 0.07354 0.47365 0.0
H284 H 0.78753 0.0083 0.43648 0.0
H285 H 0.74098 0.10352 0.48416 0.0
H286 H 0.79659 0.09563 0.45796 0.0
H287 H 0.84118 -0.00262 0.49165 0.0
H288 H 0.78431 0.00433 0.51782 0.0
C289 C 0.94573 0.05616 0.44462 0.0
C290 C 0.9212 0.03651 0.42649 0.0
C291 C 0.91336 0.05796 0.45981 0.0
C292 C 0.85627 0.04127 0.45701 0.0
C293 C 0.83164 0.02156 0.4389 0.0
C294 C 0.86373 0.0186 0.42378 0.0
C295 C 0.76318 0.08074 0.48599 0.0
C296 C 0.75921 0.05506 0.50298 0.0
C297 C 0.79439 0.07579 0.47099 0.0
C298 C 0.82289 0.04587 0.47287 0.0
C299 C 0.81964 0.02084 0.48997 0.0
C300 C 0.78736 0.02481 0.50486 0.0
H301 H 0.90282 0.9945 0.76802 0.0
H302 H 0.93561 0.86593 0.74475 0.0
H303 H 0.83187 0.92764 0.78874 0.0
H304 H 0.86607 0.79952 0.76584 0.0
H305 H 0.69916 0.67993 0.79215 0.0
H306 H 0.76625 0.74771 0.77078 0.0
H307 H 0.82337 0.87624 0.81606 0.0
H308 H 0.75549 0.80855 0.83727 0.0
C309 C 0.89511 0.95203 0.76744 0.0
C310 C 0.92469 0.93539 0.75478 0.0
C311 C 0.85465 0.91377 0.77937 0.0
C312 C 0.84315 0.85813 0.77895 0.0
C313 C 0.87311 0.84173 0.76632 0.0
C314 C 0.9133 0.87989 0.75433 0.0
C315 C 0.72608 0.72271 0.7975 0.0
C316 C 0.72216 0.73897 0.81637 0.0
C317 C 0.76466 0.76151 0.78529 0.0
C318 C 0.80048 0.8174 0.79173 0.0
C319 C 0.79591 0.83377 0.81055 0.0
C320 C 0.75707 0.79501 0.82272 0.0
H321 H 0.97624 0.88121 0.09039 0.0
H322 H 0.1532 0.94298 0.07952 0.0
H323 H 0.97474 0.81222 0.11065 0.0
H324 H 0.15147 0.87289 0.09963 0.0
H325 H 0.13627 0.78902 0.15654 0.0
H326 H 0.14192 0.85419 0.13351 0.0
H327 H 0.98144 0.7276 0.1092 0.0
H328 H 0.97572 0.66264 0.13228 0.0
C329 C 0.01473 0.87969 0.0922 0.0
C330 C 0.06488 0.91752 0.08342 0.0
C331 C 0.01377 0.83989 0.10371 0.0
C332 C 0.06295 0.83701 0.10669 0.0
C333 C 0.11305 0.87447 0.09773 0.0
C334 C 0.11398 0.91436 0.08616 0.0
C335 C 0.10264 0.77494 0.14609 0.0
C336 C 0.05531 0.72095 0.1463 0.0
C337 C 0.10591 0.81219 0.13289 0.0
C338 C 0.06193 0.79613 0.11963 0.0
C339 C 0.01549 0.74152 0.11947 0.0
C340 C 0.01219 0.70436 0.13268 0.0
H341 H 0.21506 0.14078 0.40713 0.0
H342 H 0.11767 0.96638 0.41947 0.0
H343 H 0.2928 0.15103 0.42698 0.0
H344 H 0.1946 0.97666 0.43928 0.0
H345 H 0.3574 -0.0016 0.46129 0.0
H346 H 0.29237 0.99458 0.43724 0.0
H347 H 0.30779 0.14827 0.46166 0.0
H348 H 0.37277 0.15202 0.4858 0.0
C349 C 0.21048 0.10465 0.41397 0.0
C350 C 0.16035 0.05285 0.41184 0.0
C351 C 0.25477 0.11056 0.42536 0.0
C352 C 0.24976 0.06462 0.43463 0.0
C353 C 0.20004 0.01262 0.4321 0.0
C354 C 0.1558 0.00684 0.42087 0.0
C355 C 0.34699 0.03143 0.4615 0.0
C356 C 0.36951 0.07508 0.47558 0.0
C357 C 0.30991 0.02931 0.44771 0.0
C358 C 0.29462 0.07083 0.4477 0.0
C359 C 0.31921 0.11594 0.46123 0.0
C360 C 0.35632 0.11803 0.47506 0.0
H361 H 0.14476 0.24276 0.74452 0.0
H362 H 0.20979 0.13317 0.75565 0.0
H363 H 0.22435 0.31941 0.76236 0.0
H364 H 0.29001 0.2095 0.77256 0.0
H365 H 0.39034 0.33417 0.8197 0.0
H366 H 0.31074 0.26147 0.80147 0.0
H367 H 0.32431 0.38322 0.7627 0.0
H368 H 0.40321 0.45695 0.78175 0.0
C369 C 0.17622 0.23522 0.75069 0.0
C370 C 0.17078 0.18192 0.74891 0.0
C371 C 0.22204 0.27916 0.76077 0.0
C372 C 0.26349 0.27063 0.76906 0.0
C373 C 0.25831 0.21742 0.76682 0.0
C374 C 0.21237 0.17359 0.75703 0.0
C375 C 0.37675 0.34533 0.80716 0.0
C376 C 0.4035 0.401 0.80194 0.0
C377 C 0.33109 0.30359 0.79664 0.0
C378 C 0.31139 0.31617 0.78041 0.0
C379 C 0.33805 0.37207 0.7752 0.0
C380 C 0.38346 0.41421 0.78597 0.0
H381 H 0.89349 0.96776 0.66959 0.0
H382 H 0.94898 0.13858 0.68874 0.0
H383 H 0.8236 0.96829 0.64878 0.0
H384 H 0.87971 0.1396 0.66755 0.0
H385 H 0.70806 0.09898 0.64251 0.0
H386 H 0.77801 0.09925 0.66367 0.0
H387 H 0.8183 0.00935 0.62013 0.0
H388 H 0.74824 0.00878 0.59908 0.0
C389 C 0.89096 0.00557 0.66926 0.0
C390 C 0.92673 0.05316 0.68078 0.0
C391 C 0.85109 0.00597 0.65726 0.0
C392 C 0.84612 0.05403 0.65646 0.0
C393 C 0.88199 0.10169 0.66799 0.0
C394 C 0.92191 0.10126 0.68003 0.0
C395 C 0.73209 0.07953 0.63745 0.0
C396 C 0.72245 0.05361 0.61917 0.0
C397 C 0.77224 0.07978 0.64955 0.0
C398 C 0.8037 0.05425 0.6436 0.0
C399 C 0.79412 0.02854 0.62528 0.0
C400 C 0.75393 0.02817 0.61322 0.0
H401 H 0.95362 0.87348 0.01217 0.0
H402 H 0.94497 0.01922 -0.00145 0.0
H403 H 0.89315 0.82133 0.98511 0.0
H404 H 0.88747 0.96849 0.97048 0.0
H405 H 0.73741 0.84238 0.933 0.0
H406 H 0.80004 0.89988 0.95892 0.0
H407 H 0.89088 0.80922 0.95278 0.0
H408 H 0.82458 0.74782 0.92852 0.0
C409 C 0.93906 0.89444 0.0032 0.0
C410 C 0.95374 0.95019 0.00741 0.0
C411 C 0.90491 0.86481 0.9875 0.0
C412 C 0.88587 0.89072 0.97527 0.0
C413 C 0.90058 0.94674 0.97961 0.0
C414 C 0.93368 0.97598 0.99566 0.0
C415 C 0.77035 0.83422 0.93728 0.0
C416 C 0.77481 0.78939 0.92876 0.0
C417 C 0.80706 0.86799 0.95203 0.0
C418 C 0.85014 0.85873 0.95834 0.0
C419 C 0.85715 0.81661 0.94883 0.0
C420 C 0.81963 0.78198 0.93447 0.0
H421 H 0.08545 0.93518 0.34017 0.0
H422 H 0.91371 0.83654 0.35908 0.0
H423 H 0.08105 0.85122 0.32551 0.0
H424 H 0.90917 0.75222 0.34406 0.0
H425 H 0.92104 0.64428 0.29029 0.0
H426 H 0.91585 0.71819 0.30902 0.0
H427 H 0.07064 0.7598 0.33821 0.0
H428 H 0.07511 0.68454 0.31998 0.0
C429 C 0.0466 0.8956 0.34106 0.0
C430 C -0.00013 0.89235 0.35073 0.0
C431 C 0.04431 0.84753 0.33284 0.0
C432 C -0.00499 0.79532 0.33388 0.0
C433 C 0.9477 0.79207 0.34314 0.0
C434 C 0.95029 0.84019 0.35167 0.0
C435 C 0.95293 0.66772 0.30117 0.0
C436 C -0.00128 0.65861 0.30356 0.0
C437 C 0.95006 0.7103 0.31179 0.0
C438 C 0.99322 0.74498 0.32483 0.0
C439 C 0.03727 0.73403 0.32801 0.0
C440 C 0.03981 0.69103 0.31757 0.0
H441 H 0.1391 0.05192 0.6587 0.0
H442 H 0.17916 0.98912 0.70725 0.0
H443 H 0.21391 0.04663 0.64087 0.0
H444 H 0.25486 0.98508 0.6895 0.0
H445 H 0.43016 0.07351 0.65604 0.0
H446 H 0.35059 0.06596 0.67488 0.0
H447 H 0.23537 0.96622 0.62915 0.0
H448 H 0.31443 0.97281 0.61054 0.0
C449 C 0.16367 0.03668 0.66549 0.0
C450 C 0.15338 0.02082 0.68431 0.0
C451 C 0.20625 0.03353 0.6553 0.0
C452 C 0.23997 0.01553 0.66389 0.0
C453 C 0.22945 -0.00075 0.68265 0.0
C454 C 0.18605 0.00128 0.69272 0.0
C455 C 0.38765 0.04916 0.65024 0.0
C456 C 0.37815 0.02328 0.63199 0.0
C457 C 0.34231 0.04477 0.66096 0.0
C458 C 0.2871 0.01557 0.65338 0.0
C459 C 0.2776 0.98898 0.63525 0.0
C460 C 0.32267 0.9924 0.62471 0.0
H461 H 0.25389 0.12715 0.0227 0.0
H462 H 0.14458 0.19354 0.01112 0.0
H463 H 0.32281 0.1903 0.00031 0.0
H464 H 0.2129 0.25602 0.98898 0.0
H465 H 0.30943 0.30603 0.93451 0.0
H466 H 0.24698 0.24036 0.9572 0.0
H467 H 0.38731 0.29628 -0.00375 0.0
H468 H 0.45017 0.36303 0.97354 0.0
C469 C 0.2448 0.15539 0.01548 0.0
C470 C 0.19382 0.15529 0.01856 0.0
C471 C 0.28419 0.1915 0.00275 0.0
C472 C 0.27275 0.22746 0.9928 0.0
C473 C 0.22232 0.22803 -0.00377 0.0
C474 C 0.18337 0.19247 0.009 0.0
C475 C 0.32701 0.30454 0.94796 0.0
C476 C 0.38449 0.34034 0.95238 0.0
C477 C 0.29129 0.26685 0.96091 0.0
C478 C 0.31226 0.26387 0.97855 0.0
C479 C 0.3702 0.29773 0.9827 0.0
C480 C 0.40607 0.33581 0.96972 0.0
H481 H 0.93788 0.09255 0.33455 0.0
H482 H 0.10641 0.21563 0.35375 0.0
H483 H 0.93607 0.16002 0.3142 0.0
H484 H 0.10502 0.28298 0.33312 0.0
H485 H 0.05613 0.40492 0.30941 0.0
H486 H 0.05791 0.33795 0.33012 0.0
H487 H 0.98055 0.20807 0.28559 0.0
H488 H 0.97876 0.27489 0.26494 0.0
C489 C 0.97465 0.13397 0.33435 0.0
C490 C 0.02231 0.14883 0.34572 0.0
C491 C 0.97372 0.17254 0.32262 0.0
C492 C 0.02042 0.22684 0.32203 0.0
C493 C 0.06812 0.24168 0.33343 0.0
C494 C 0.06908 0.20303 0.34514 0.0
C495 C 0.03978 0.36212 0.30403 0.0
C496 C 0.01712 0.34516 0.28556 0.0
C497 C 0.04087 0.3238 0.31587 0.0
C498 C 0.01934 0.26769 0.3095 0.0
C499 C -0.00337 0.25077 0.29103 0.0
C500 C -0.00446 0.28905 0.27921 0.0
loop_
_geom_bond_atom_site_label_1
_geom_bond_atom_site_label_2
_geom_bond_distance
_geom_bond_site_symmetry_2
_ccdc_geom_bond_type
In0 O1 2.294 . S
In0 O2 2.326 . S
In0 O6 2.266 1_445 S
In0 O7 2.326 1_545 S
In0 O8 2.266 1_545 S
In0 O9 2.326 1_545 S
In0 O11 2.294 . S
In0 O12 2.326 . S
O1 In0 2.294 . S
O1 C10 1.240 . S
O2 In0 2.326 . S
O2 C10 1.252 . S
C3 O6 1.252 . S
C3 O7 1.260 1_655 S
C4 O11 1.240 . S
C4 O12 1.252 . S
C5 O8 1.252 . S
C5 O9 1.260 . S
O6 In0 2.266 1_665 S
O6 C3 1.252 . S
O7 In0 2.326 1_565 S
O7 C3 1.260 1_455 S
O8 In0 2.266 1_565 S
O8 C5 1.252 . S
O9 In0 2.326 1_565 S
O9 C5 1.260 . S
C10 O1 1.240 . S
C10 O2 1.252 . S
O11 In0 2.294 . S
O11 C4 1.240 . S
O12 In0 2.326 . S
O12 C4 1.252 . S
In13 O14 2.294 . S
In13 O15 2.326 1_455 S
In13 O19 2.266 . S
In13 O20 2.326 1_545 S
In13 O21 2.266 1_445 S
In13 O22 2.326 1_545 S
In13 O24 2.294 1_445 S
In13 O25 2.326 1_455 S
O14 In13 2.294 . S
O14 C23 1.240 . S
O15 In13 2.326 1_655 S
O15 C23 1.252 1_655 S
C16 O19 1.252 . S
C16 O20 1.260 1_545 S
C17 O24 1.240 1_545 S
C17 O25 1.252 . S
C18 O21 1.252 1_455 S
C18 O22 1.260 . S
O19 In13 2.266 . S
O19 C16 1.252 . S
O20 In13 2.326 1_565 S
O20 C16 1.260 1_565 S
O21 In13 2.266 1_665 S
O21 C18 1.252 1_655 S
O22 In13 2.326 1_565 S
O22 C18 1.260 . S
C23 O14 1.240 . S
C23 O15 1.252 1_455 S
O24 In13 2.294 1_665 S
O24 C17 1.240 1_565 S
O25 In13 2.326 1_655 S
O25 C17 1.252 . S
In26 O27 2.294 1_545 S
In26 O28 2.326 . S
In26 O32 2.266 . S
In26 O33 2.326 . S
In26 O34 2.266 . S
In26 O35 2.326 . S
In26 O37 2.294 . S
In26 O38 2.326 . S
O27 In26 2.294 1_565 S
O27 C36 1.240 . S
O28 In26 2.326 . S
O28 C36 1.252 1_545 S
C29 O32 1.252 . S
C29 O33 1.260 . S
C30 O37 1.240 1_655 S
C30 O38 1.252 1_655 S
C31 O34 1.252 . S
C31 O35 1.260 . S
O32 In26 2.266 . S
O32 C29 1.252 . S
O33 In26 2.326 . S
O33 C29 1.260 . S
O34 In26 2.266 . S
O34 C31 1.252 . S
O35 In26 2.326 . S
O35 C31 1.260 . S
C36 O27 1.240 . S
C36 O28 1.252 1_565 S
O37 In26 2.294 . S
O37 C30 1.240 1_455 S
O38 In26 2.326 . S
O38 C30 1.252 1_455 S
H39 O65 0.856 . S
H40 O68 0.854 . S
H41 C76 0.930 . S
H42 C77 0.930 . S
H43 C79 0.930 . S
H44 C80 0.930 . S
H45 C82 0.931 1_655 S
H46 C83 0.930 1_655 S
H47 C85 0.930 . S
H48 C86 0.929 . S
H49 C88 0.930 1_655 S
H50 C89 0.931 1_655 S
H51 C91 0.930 . S
H52 C92 0.929 . S
H53 C94 0.931 . S
H54 C95 0.931 1_655 S
H55 C97 0.930 . S
H56 C98 0.932 . S
H57 C100 0.930 . S
H58 C101 0.929 . S
H59 C103 0.931 . S
H60 C104 0.930 . S
H61 C106 0.929 . S
H62 C107 0.931 . S
H63 C109 0.930 . S
H64 C110 0.929 . S
O65 H39 0.856 . S
O65 C111 1.300 . S
O66 C111 1.209 . S
O67 C112 1.199 . S
O68 H40 0.854 . S
O68 C112 1.297 . S
C69 C70 1.404 . S
C69 C74 1.397 . S
C69 C75 1.492 . S
C70 C69 1.404 . S
C70 C71 1.396 . S
C70 C81 1.492 . S
C71 C70 1.396 . S
C71 C72 1.397 . S
C71 C87 1.509 . S
C72 C71 1.397 . S
C72 C73 1.412 . S
C72 C93 1.485 . S
C73 C72 1.412 . S
C73 C74 1.388 . S
C73 C99 1.490 . S
C74 C69 1.397 . S
C74 C73 1.388 . S
C74 C105 1.519 . S
C75 C69 1.492 . S
C75 C76 1.363 1_455 S
C75 C80 1.390 . S
C76 H41 0.930 . S
C76 C75 1.363 1_655 S
C76 C77 1.372 . S
C77 H42 0.930 . S
C77 C76 1.372 . S
C77 C78 1.383 1_655 S
C78 C77 1.383 1_455 S
C78 C79 1.395 . S
C79 H43 0.930 . S
C79 C78 1.395 . S
C79 C80 1.362 . S
C80 H44 0.930 . S
C80 C75 1.390 . S
C80 C79 1.362 . S
C81 C70 1.492 . S
C81 C82 1.377 . S
C81 C86 1.397 . S
C82 H45 0.931 1_455 S
C82 C81 1.377 . S
C82 C83 1.376 . S
C83 H46 0.930 1_455 S
C83 C82 1.376 . S
C83 C84 1.376 . S
C84 C83 1.376 . S
C84 C85 1.378 . S
C84 C111 1.486 . S
C85 H47 0.930 . S
C85 C84 1.378 . S
C85 C86 1.376 . S
C86 H48 0.929 . S
C86 C81 1.397 . S
C86 C85 1.376 . S
C87 C71 1.509 . S
C87 C88 1.391 . S
C87 C92 1.386 . S
C88 H49 0.930 1_455 S
C88 C87 1.391 . S
C88 C89 1.375 . S
C89 H50 0.931 1_455 S
C89 C88 1.375 . S
C89 C90 1.375 . S
C90 C89 1.375 . S
C90 C91 1.361 . S
C91 H51 0.930 . S
C91 C90 1.361 . S
C91 C92 1.399 . S
C92 H52 0.929 . S
C92 C87 1.386 . S
C92 C91 1.399 . S
C93 C72 1.485 . S
C93 C94 1.394 1_455 S
C93 C98 1.360 . S
C94 H53 0.931 . S
C94 C93 1.394 1_655 S
C94 C95 1.371 1_655 S
C95 H54 0.931 1_455 S
C95 C94 1.371 1_455 S
C95 C96 1.396 . S
C96 C95 1.396 . S
C96 C97 1.390 . S
C96 C112 1.476 . S
C97 H55 0.930 . S
C97 C96 1.390 . S
C97 C98 1.366 . S
C98 H56 0.932 . S
C98 C93 1.360 . S
C98 C97 1.366 . S
C99 C73 1.490 . S
C99 C100 1.380 1_455 S
C99 C104 1.386 . S
C100 H57 0.930 . S
C100 C99 1.380 1_655 S
C100 C101 1.381 . S
C101 H58 0.929 . S
C101 C100 1.381 . S
C101 C102 1.371 1_655 S
C102 C101 1.371 1_455 S
C102 C103 1.380 . S
C103 H59 0.931 . S
C103 C102 1.380 . S
C103 C104 1.387 . S
C104 H60 0.930 . S
C104 C99 1.386 . S
C104 C103 1.387 . S
C105 C74 1.519 . S
C105 C106 1.377 1_455 S
C105 C110 1.361 . S
C106 H61 0.929 . S
C106 C105 1.377 1_655 S
C106 C107 1.386 . S
C107 H62 0.931 . S
C107 C106 1.386 . S
C107 C108 1.363 1_655 S
C108 C107 1.363 1_455 S
C108 C109 1.385 . S
C109 H63 0.930 . S
C109 C108 1.385 . S
C109 C110 1.396 . S
C110 H64 0.929 . S
C110 C105 1.361 . S
C110 C109 1.396 . S
C111 O65 1.300 . S
C111 O66 1.209 . S
C111 C84 1.486 . S
C112 O67 1.199 . S
C112 O68 1.297 . S
C112 C96 1.476 . S
H113 O139 0.856 . S
H114 O142 0.854 . S
H115 C150 0.930 . S
H116 C151 0.930 . S
H117 C153 0.930 . S
H118 C154 0.930 . S
H119 C156 0.931 1_565 S
H120 C157 0.930 1_565 S
H121 C159 0.930 . S
H122 C160 0.929 . S
H123 C162 0.930 1_565 S
H124 C163 0.931 1_565 S
H125 C165 0.930 . S
H126 C166 0.929 . S
H127 C168 0.931 1_565 S
H128 C169 0.930 1_565 S
H129 C171 0.930 . S
H130 C172 0.932 . S
H131 C174 0.930 1_565 S
H132 C175 0.929 . S
H133 C177 0.931 . S
H134 C178 0.930 . S
H135 C180 0.929 1_565 S
H136 C181 0.931 1_565 S
H137 C183 0.930 . S
H138 C184 0.929 . S
O139 H113 0.856 . S
O139 C185 1.300 . S
O140 C185 1.209 . S
O141 C186 1.199 . S
O142 H114 0.854 . S
O142 C186 1.297 . S
C143 C144 1.404 . S
C143 C148 1.397 . S
C143 C149 1.492 . S
C144 C143 1.404 . S
C144 C145 1.396 . S
C144 C155 1.492 . S
C145 C144 1.396 . S
C145 C146 1.397 . S
C145 C161 1.509 . S
C146 C145 1.397 . S
C146 C147 1.412 . S
C146 C167 1.485 . S
C147 C146 1.412 . S
C147 C148 1.388 . S
C147 C173 1.490 . S
C148 C143 1.397 . S
C148 C147 1.388 . S
C148 C179 1.519 . S
C149 C143 1.492 . S
C149 C150 1.363 1_545 S
C149 C154 1.390 . S
C150 H115 0.930 . S
C150 C149 1.363 1_565 S
C150 C151 1.372 . S
C151 H116 0.930 . S
C151 C150 1.372 . S
C151 C152 1.383 1_565 S
C152 C151 1.383 1_545 S
C152 C153 1.395 . S
C153 H117 0.930 . S
C153 C152 1.395 . S
C153 C154 1.362 . S
C154 H118 0.930 . S
C154 C149 1.390 . S
C154 C153 1.362 . S
C155 C144 1.492 . S
C155 C156 1.377 . S
C155 C160 1.397 . S
C156 H119 0.931 1_545 S
C156 C155 1.377 . S
C156 C157 1.376 . S
C157 H120 0.930 1_545 S
C157 C156 1.376 . S
C157 C158 1.376 . S
C158 C157 1.376 . S
C158 C159 1.378 . S
C158 C185 1.486 . S
C159 H121 0.930 . S
C159 C158 1.378 . S
C159 C160 1.376 . S
C160 H122 0.929 . S
C160 C155 1.397 . S
C160 C159 1.376 . S
C161 C145 1.509 . S
C161 C162 1.391 . S
C161 C166 1.386 . S
C162 H123 0.930 1_545 S
C162 C161 1.391 . S
C162 C163 1.375 . S
C163 H124 0.931 1_545 S
C163 C162 1.375 . S
C163 C164 1.375 . S
C164 C163 1.375 . S
C164 C165 1.361 . S
C165 H125 0.930 . S
C165 C164 1.361 . S
C165 C166 1.399 . S
C166 H126 0.929 . S
C166 C161 1.386 . S
C166 C165 1.399 . S
C167 C146 1.485 . S
C167 C168 1.394 . S
C167 C172 1.360 . S
C168 H127 0.931 1_545 S
C168 C167 1.394 . S
C168 C169 1.372 . S
C169 H128 0.930 1_545 S
C169 C168 1.372 . S
C169 C170 1.397 . S
C170 C169 1.397 . S
C170 C171 1.390 . S
C170 C186 1.476 . S
C171 H129 0.930 . S
C171 C170 1.390 . S
C171 C172 1.366 . S
C172 H130 0.932 . S
C172 C167 1.360 . S
C172 C171 1.366 . S
C173 C147 1.490 . S
C173 C174 1.380 . S
C173 C178 1.386 . S
C174 H131 0.930 1_545 S
C174 C173 1.380 . S
C174 C175 1.381 1_545 S
C175 H132 0.929 . S
C175 C174 1.381 1_565 S
C175 C176 1.371 1_565 S
C176 C175 1.371 1_545 S
C176 C177 1.380 . S
C177 H133 0.931 . S
C177 C176 1.380 . S
C177 C178 1.387 . S
C178 H134 0.930 . S
C178 C173 1.386 . S
C178 C177 1.387 . S
C179 C148 1.519 . S
C179 C180 1.377 . S
C179 C184 1.361 . S
C180 H135 0.929 1_545 S
C180 C179 1.377 . S
C180 C181 1.386 . S
C181 H136 0.931 1_545 S
C181 C180 1.386 . S
C181 C182 1.363 . S
C182 C181 1.363 . S
C182 C183 1.385 . S
C183 H137 0.930 . S
C183 C182 1.385 . S
C183 C184 1.396 . S
C184 H138 0.929 . S
C184 C179 1.361 . S
C184 C183 1.396 . S
C185 O139 1.300 . S
C185 O140 1.209 . S
C185 C158 1.486 . S
C186 O141 1.199 . S
C186 O142 1.297 . S
C186 C170 1.476 . S
H187 O213 0.856 . S
H188 O216 0.854 . S
H189 C224 0.930 . S
H190 C225 0.930 . S
H191 C227 0.930 . S
H192 C228 0.930 . S
H193 C230 0.931 . S
H194 C231 0.930 . S
H195 C233 0.930 . S
H196 C234 0.929 . S
H197 C236 0.930 . S
H198 C237 0.931 . S
H199 C239 0.930 . S
H200 C240 0.929 . S
H201 C242 0.931 . S
H202 C243 0.930 . S
H203 C245 0.930 . S
H204 C246 0.932 . S
H205 C248 0.930 . S
H206 C249 0.929 . S
H207 C251 0.931 . S
H208 C252 0.930 . S
H209 C254 0.929 . S
H210 C255 0.931 . S
H211 C257 0.930 . S
H212 C258 0.929 . S
O213 H187 0.856 . S
O213 C259 1.300 . S
O214 C259 1.209 . S
O215 C260 1.199 . S
O216 H188 0.854 . S
O216 C260 1.297 . S
C217 C218 1.404 . S
C217 C222 1.397 . S
C217 C223 1.492 . S
C218 C217 1.404 . S
C218 C219 1.396 . S
C218 C229 1.492 . S
C219 C218 1.396 . S
C219 C220 1.397 . S
C219 C235 1.509 . S
C220 C219 1.397 . S
C220 C221 1.412 . S
C220 C241 1.485 . S
C221 C220 1.412 . S
C221 C222 1.388 . S
C221 C247 1.490 . S
C222 C217 1.397 . S
C222 C221 1.388 . S
C222 C253 1.519 . S
C223 C217 1.492 . S
C223 C224 1.363 . S
C223 C228 1.390 . S
C224 H189 0.930 . S
C224 C223 1.363 . S
C224 C225 1.372 . S
C225 H190 0.930 . S
C225 C224 1.372 . S
C225 C226 1.383 . S
C226 C225 1.383 . S
C226 C227 1.395 . S
C227 H191 0.930 . S
C227 C226 1.395 . S
C227 C228 1.362 . S
C228 H192 0.930 . S
C228 C223 1.390 . S
C228 C227 1.362 . S
C229 C218 1.492 . S
C229 C230 1.377 . S
C229 C234 1.397 . S
C230 H193 0.931 . S
C230 C229 1.377 . S
C230 C231 1.376 . S
C231 H194 0.930 . S
C231 C230 1.376 . S
C231 C232 1.376 . S
C232 C231 1.376 . S
C232 C233 1.378 . S
C232 C259 1.486 1_556 S
C233 H195 0.930 . S
C233 C232 1.378 . S
C233 C234 1.376 . S
C234 H196 0.929 . S
C234 C229 1.397 . S
C234 C233 1.376 . S
C235 C219 1.509 . S
C235 C236 1.391 . S
C235 C240 1.386 . S
C236 H197 0.930 . S
C236 C235 1.391 . S
C236 C237 1.375 . S
C237 H198 0.931 . S
C237 C236 1.375 . S
C237 C238 1.375 . S
C238 C237 1.375 . S
C238 C239 1.361 . S
C239 H199 0.930 . S
C239 C238 1.361 . S
C239 C240 1.399 . S
C240 H200 0.929 . S
C240 C235 1.386 . S
C240 C239 1.399 . S
C241 C220 1.485 . S
C241 C242 1.394 . S
C241 C246 1.360 . S
C242 H201 0.931 . S
C242 C241 1.394 . S
C242 C243 1.372 . S
C243 H202 0.930 . S
C243 C242 1.372 . S
C243 C244 1.397 . S
C244 C243 1.397 . S
C244 C245 1.390 . S
C244 C260 1.476 . S
C245 H203 0.930 . S
C245 C244 1.390 . S
C245 C246 1.366 . S
C246 H204 0.932 . S
C246 C241 1.360 . S
C246 C245 1.366 . S
C247 C221 1.490 . S
C247 C248 1.380 . S
C247 C252 1.386 . S
C248 H205 0.930 . S
C248 C247 1.380 . S
C248 C249 1.381 . S
C249 H206 0.929 . S
C249 C248 1.381 . S
C249 C250 1.371 . S
C250 C249 1.371 . S
C250 C251 1.380 . S
C251 H207 0.931 . S
C251 C250 1.380 . S
C251 C252 1.387 . S
C252 H208 0.930 . S
C252 C247 1.386 . S
C252 C251 1.387 . S
C253 C222 1.519 . S
C253 C254 1.377 . S
C253 C258 1.361 . S
C254 H209 0.929 . S
C254 C253 1.377 . S
C254 C255 1.386 . S
C255 H210 0.931 . S
C255 C254 1.386 . S
C255 C256 1.363 . S
C256 C255 1.363 . S
C256 C257 1.385 . S
C257 H211 0.930 . S
C257 C256 1.385 . S
C257 C258 1.396 . S
C258 H212 0.929 . S
C258 C253 1.361 . S
C258 C257 1.396 . S
C259 O213 1.300 . S
C259 O214 1.209 . S
C259 C232 1.486 1_554 S
C260 O215 1.199 . S
C260 O216 1.297 . S
C260 C244 1.476 . S
H261 C269 0.950 . S
H262 C274 0.950 . S
H263 C271 0.950 . S
H264 C273 0.950 1_655 S
H265 C275 0.950 . S
H266 C277 0.950 . S
H267 C279 0.950 . S
H268 C280 0.950 . S
C269 H261 0.950 . S
C269 C270 1.386 . S
C269 C271 1.391 . S
C270 C269 1.386 . S
C270 C274 1.393 . S
C271 H263 0.950 . S
C271 C269 1.391 . S
C271 C272 1.400 . S
C272 C271 1.400 . S
C272 C273 1.398 . S
C272 C278 1.491 . S
C273 H264 0.950 1_455 S
C273 C272 1.398 . S
C273 C274 1.391 . S
C274 H262 0.950 . S
C274 C270 1.393 . S
C274 C273 1.391 . S
C275 H265 0.950 . S
C275 C276 1.386 1_655 S
C275 C277 1.391 . S
C276 C275 1.386 1_455 S
C276 C280 1.393 . S
C277 H266 0.950 . S
C277 C275 1.391 . S
C277 C278 1.400 1_655 S
C278 C272 1.491 . S
C278 C277 1.400 1_455 S
C278 C279 1.398 . S
C279 H267 0.950 . S
C279 C278 1.398 . S
C279 C280 1.391 . S
C280 H268 0.950 . S
C280 C276 1.393 . S
C280 C279 1.391 . S
H281 C289 0.936 1_565 S
H282 C294 0.950 . S
H283 C291 0.950 1_565 S
H284 C293 0.950 . S
H285 C295 0.950 . S
H286 C297 0.950 . S
H287 C299 0.950 1_565 S
H288 C300 0.950 1_565 S
C289 H281 0.936 1_545 S
C289 C290 1.386 . S
C289 C291 1.391 . S
C290 C289 1.386 . S
C290 C294 1.393 . S
C291 H283 0.950 1_545 S
C291 C289 1.391 . S
C291 C292 1.400 . S
C292 C291 1.400 . S
C292 C293 1.398 . S
C292 C298 1.491 . S
C293 H284 0.950 . S
C293 C292 1.398 . S
C293 C294 1.391 . S
C294 H282 0.950 . S
C294 C290 1.393 . S
C294 C293 1.391 . S
C295 H285 0.950 . S
C295 C296 1.386 . S
C295 C297 1.391 . S
C296 C295 1.386 . S
C296 C300 1.393 . S
C297 H286 0.950 . S
C297 C295 1.391 . S
C297 C298 1.400 . S
C298 C292 1.491 . S
C298 C297 1.400 . S
C298 C299 1.398 . S
C299 H287 0.950 1_545 S
C299 C298 1.398 . S
C299 C300 1.391 . S
C300 H288 0.950 1_545 S
C300 C296 1.393 . S
C300 C299 1.391 . S
H301 C309 0.950 . S
H302 C314 0.950 . S
H303 C311 0.950 . S
H304 C313 0.950 . S
H305 C315 0.950 . S
H306 C317 0.950 . S
H307 C319 0.950 . S
H308 C320 0.950 . S
C309 H301 0.950 . S
C309 C310 1.386 . S
C309 C311 1.391 . S
C310 C309 1.386 . S
C310 C314 1.393 . S
C311 H303 0.950 . S
C311 C309 1.391 . S
C311 C312 1.400 . S
C312 C311 1.400 . S
C312 C313 1.398 . S
C312 C318 1.491 . S
C313 H304 0.950 . S
C313 C312 1.398 . S
C313 C314 1.391 . S
C314 H302 0.950 . S
C314 C310 1.393 . S
C314 C313 1.391 . S
C315 H305 0.950 . S
C315 C316 1.386 . S
C315 C317 1.391 . S
C316 C315 1.386 . S
C316 C320 1.393 . S
C317 H306 0.950 . S
C317 C315 1.391 . S
C317 C318 1.400 . S
C318 C312 1.491 . S
C318 C317 1.400 . S
C318 C319 1.398 . S
C319 H307 0.950 . S
C319 C318 1.398 . S
C319 C320 1.391 . S
C320 H308 0.950 . S
C320 C316 1.393 . S
C320 C319 1.391 . S
H321 C329 0.950 1_655 S
H322 C334 0.950 . S
H323 C331 0.950 1_655 S
H324 C333 0.950 . S
H325 C335 0.950 . S
H326 C337 0.950 . S
H327 C339 0.950 1_655 S
H328 C340 0.950 1_655 S
C329 H321 0.950 1_455 S
C329 C330 1.386 . S
C329 C331 1.391 . S
C330 C329 1.386 . S
C330 C334 1.393 . S
C331 H323 0.950 1_455 S
C331 C329 1.391 . S
C331 C332 1.400 . S
C332 C331 1.400 . S
C332 C333 1.398 . S
C332 C338 1.491 . S
C333 H324 0.950 . S
C333 C332 1.398 . S
C333 C334 1.391 . S
C334 H322 0.950 . S
C334 C330 1.393 . S
C334 C333 1.391 . S
C335 H325 0.950 . S
C335 C336 1.386 . S
C335 C337 1.391 . S
C336 C335 1.386 . S
C336 C340 1.393 . S
C337 H326 0.950 . S
C337 C335 1.391 . S
C337 C338 1.400 . S
C338 C332 1.491 . S
C338 C337 1.400 . S
C338 C339 1.398 . S
C339 H327 0.950 1_455 S
C339 C338 1.398 . S
C339 C340 1.391 . S
C340 H328 0.950 1_455 S
C340 C336 1.393 . S
C340 C339 1.391 . S
H341 C349 0.950 . S
H342 C354 0.950 . S
H343 C351 0.950 . S
H344 C353 0.950 . S
H345 C355 0.950 . S
H346 C357 0.950 1_565 S
H347 C359 0.950 . S
H348 C360 0.950 . S
C349 H341 0.950 . S
C349 C350 1.386 . S
C349 C351 1.391 . S
C350 C349 1.386 . S
C350 C354 1.393 1_545 S
C351 H343 0.950 . S
C351 C349 1.391 . S
C351 C352 1.400 . S
C352 C351 1.400 . S
C352 C353 1.398 1_545 S
C352 C358 1.491 . S
C353 H344 0.950 . S
C353 C352 1.398 1_565 S
C353 C354 1.391 . S
C354 H342 0.950 . S
C354 C350 1.393 1_565 S
C354 C353 1.391 . S
C355 H345 0.950 . S
C355 C356 1.386 . S
C355 C357 1.391 . S
C356 C355 1.386 . S
C356 C360 1.393 . S
C357 H346 0.950 1_545 S
C357 C355 1.391 . S
C357 C358 1.400 . S
C358 C352 1.491 . S
C358 C357 1.400 . S
C358 C359 1.398 . S
C359 H347 0.950 . S
C359 C358 1.398 . S
C359 C360 1.391 . S
C360 H348 0.950 . S
C360 C356 1.393 . S
C360 C359 1.391 . S
H361 C369 0.950 . S
H362 C374 0.950 . S
H363 C371 0.950 . S
H364 C373 0.950 . S
H365 C375 0.950 . S
H366 C377 0.950 . S
H367 C379 0.950 . S
H368 C380 0.950 . S
C369 H361 0.950 . S
C369 C370 1.386 . S
C369 C371 1.391 . S
C370 C369 1.386 . S
C370 C374 1.393 . S
C371 H363 0.950 . S
C371 C369 1.391 . S
C371 C372 1.400 . S
C372 C371 1.400 . S
C372 C373 1.398 . S
C372 C378 1.491 . S
C373 H364 0.950 . S
C373 C372 1.398 . S
C373 C374 1.391 . S
C374 H362 0.950 . S
C374 C370 1.393 . S
C374 C373 1.391 . S
C375 H365 0.950 . S
C375 C376 1.386 . S
C375 C377 1.391 . S
C376 C375 1.386 . S
C376 C380 1.393 . S
C377 H366 0.950 . S
C377 C375 1.391 . S
C377 C378 1.400 . S
C378 C372 1.491 . S
C378 C377 1.400 . S
C378 C379 1.398 . S
C379 H367 0.950 . S
C379 C378 1.398 . S
C379 C380 1.391 . S
C380 H368 0.950 . S
C380 C376 1.393 . S
C380 C379 1.391 . S
H381 C389 0.950 . S
H382 C394 0.950 . S
H383 C391 0.950 . S
H384 C393 0.950 . S
H385 C395 0.950 . S
H386 C397 0.950 . S
H387 C399 0.950 . S
H388 C400 0.950 . S
C389 H381 0.950 . S
C389 C390 1.386 . S
C389 C391 1.391 . S
C390 C389 1.386 . S
C390 C394 1.393 . S
C391 H383 0.950 . S
C391 C389 1.391 . S
C391 C392 1.400 . S
C392 C391 1.400 . S
C392 C393 1.398 . S
C392 C398 1.491 . S
C393 H384 0.950 . S
C393 C392 1.398 . S
C393 C394 1.391 . S
C394 H382 0.950 . S
C394 C390 1.393 . S
C394 C393 1.391 . S
C395 H385 0.950 . S
C395 C396 1.386 . S
C395 C397 1.391 . S
C396 C395 1.386 . S
C396 C400 1.393 . S
C397 H386 0.950 . S
C397 C395 1.391 . S
C397 C398 1.400 . S
C398 C392 1.491 . S
C398 C397 1.400 . S
C398 C399 1.398 . S
C399 H387 0.950 . S
C399 C398 1.398 . S
C399 C400 1.391 . S
C400 H388 0.950 . S
C400 C396 1.393 . S
C400 C399 1.391 . S
H401 C409 0.950 . S
H402 C414 0.950 . S
H403 C411 0.950 . S
H404 C413 0.950 . S
H405 C415 0.950 . S
H406 C417 0.950 . S
H407 C419 0.950 . S
H408 C420 0.950 . S
C409 H401 0.950 . S
C409 C410 1.386 . S
C409 C411 1.391 . S
C410 C409 1.386 . S
C410 C414 1.393 . S
C411 H403 0.950 . S
C411 C409 1.391 . S
C411 C412 1.400 1_554 S
C412 C411 1.400 1_556 S
C412 C413 1.398 . S
C412 C418 1.491 . S
C413 H404 0.950 . S
C413 C412 1.398 . S
C413 C414 1.391 1_556 S
C414 H402 0.950 . S
C414 C410 1.393 . S
C414 C413 1.391 1_554 S
C415 H405 0.950 . S
C415 C416 1.386 . S
C415 C417 1.391 . S
C416 C415 1.386 . S
C416 C420 1.393 . S
C417 H406 0.950 . S
C417 C415 1.391 . S
C417 C418 1.400 . S
C418 C412 1.491 . S
C418 C417 1.400 . S
C418 C419 1.398 . S
C419 H407 0.950 . S
C419 C418 1.398 . S
C419 C420 1.391 . S
C420 H408 0.950 . S
C420 C416 1.393 . S
C420 C419 1.391 . S
H421 C429 0.950 . S
H422 C434 0.950 . S
H423 C431 0.950 . S
H424 C433 0.950 . S
H425 C435 0.950 . S
H426 C437 0.950 . S
H427 C439 0.950 . S
H428 C440 0.950 . S
C429 H421 0.950 . S
C429 C430 1.386 . S
C429 C431 1.391 . S
C430 C429 1.386 . S
C430 C434 1.393 1_455 S
C431 H423 0.950 . S
C431 C429 1.391 . S
C431 C432 1.400 . S
C432 C431 1.400 . S
C432 C433 1.398 1_455 S
C432 C438 1.491 . S
C433 H424 0.950 . S
C433 C432 1.398 1_655 S
C433 C434 1.391 . S
C434 H422 0.950 . S
C434 C430 1.393 1_655 S
C434 C433 1.391 . S
C435 H425 0.950 . S
C435 C436 1.386 1_655 S
C435 C437 1.391 . S
C436 C435 1.386 1_455 S
C436 C440 1.393 . S
C437 H426 0.950 . S
C437 C435 1.391 . S
C437 C438 1.400 1_655 S
C438 C432 1.491 . S
C438 C437 1.400 1_455 S
C438 C439 1.398 . S
C439 H427 0.950 . S
C439 C438 1.398 . S
C439 C440 1.391 . S
C440 H428 0.950 . S
C440 C436 1.393 . S
C440 C439 1.391 . S
H441 C449 0.950 . S
H442 C454 0.950 . S
H443 C451 0.950 . S
H444 C453 0.950 . S
H445 C455 0.950 . S
H446 C457 0.950 . S
H447 C459 0.950 . S
H448 C460 0.950 . S
C449 H441 0.950 . S
C449 C450 1.386 . S
C449 C451 1.391 . S
C450 C449 1.386 . S
C450 C454 1.393 . S
C451 H443 0.950 . S
C451 C449 1.391 . S
C451 C452 1.400 . S
C452 C451 1.400 . S
C452 C453 1.398 . S
C452 C458 1.491 . S
C453 H444 0.950 . S
C453 C452 1.398 . S
C453 C454 1.391 . S
C454 H442 0.950 . S
C454 C450 1.393 . S
C454 C453 1.391 . S
C455 H445 0.950 . S
C455 C456 1.386 . S
C455 C457 1.391 . S
C456 C455 1.386 . S
C456 C460 1.393 . S
C457 H446 0.950 . S
C457 C455 1.391 . S
C457 C458 1.400 . S
C458 C452 1.491 . S
C458 C457 1.400 . S
C458 C459 1.398 . S
C459 H447 0.950 . S
C459 C458 1.398 . S
C459 C460 1.391 . S
C460 H448 0.950 . S
C460 C456 1.393 . S
C460 C459 1.391 . S
H461 C469 0.950 . S
H462 C474 0.950 . S
H463 C471 0.950 . S
H464 C473 0.950 . S
H465 C475 0.950 . S
H466 C477 0.950 . S
H467 C479 0.937 1_554 S
H468 C480 0.950 . S
C469 H461 0.950 . S
C469 C470 1.386 . S
C469 C471 1.391 . S
C470 C469 1.386 . S
C470 C474 1.393 . S
C471 H463 0.950 . S
C471 C469 1.391 . S
C471 C472 1.400 . S
C472 C471 1.400 . S
C472 C473 1.398 1_554 S
C472 C478 1.491 1_554 S
C473 H464 0.950 . S
C473 C472 1.398 1_556 S
C473 C474 1.391 1_556 S
C474 H462 0.950 . S
C474 C470 1.393 . S
C474 C473 1.391 1_554 S
C475 H465 0.950 . S
C475 C476 1.386 . S
C475 C477 1.391 . S
C476 C475 1.386 . S
C476 C480 1.393 . S
C477 H466 0.950 . S
C477 C475 1.391 . S
C477 C478 1.400 . S
C478 C472 1.491 1_556 S
C478 C477 1.400 . S
C478 C479 1.403 . S
C479 H467 0.937 1_556 S
C479 C478 1.403 . S
C479 C480 1.399 . S
C480 H468 0.950 . S
C480 C476 1.393 . S
C480 C479 1.399 . S
H481 C489 0.950 . S
H482 C494 0.950 . S
H483 C491 0.950 . S
H484 C493 0.950 . S
H485 C495 0.950 . S
H486 C497 0.950 . S
H487 C499 0.950 . S
H488 C500 0.950 . S
C489 H481 0.950 . S
C489 C490 1.386 . S
C489 C491 1.391 . S
C490 C489 1.386 . S
C490 C494 1.393 . S
C491 H483 0.950 . S
C491 C489 1.391 . S
C491 C492 1.400 . S
C492 C491 1.400 . S
C492 C493 1.398 . S
C492 C498 1.491 . S
C493 H484 0.950 . S
C493 C492 1.398 . S
C493 C494 1.391 . S
C494 H482 0.950 . S
C494 C490 1.393 . S
C494 C493 1.391 . S
C495 H485 0.950 . S
C495 C496 1.386 . S
C495 C497 1.391 . S
C496 C495 1.386 . S
C496 C500 1.393 . S
C497 H486 0.950 . S
C497 C495 1.391 . S
C497 C498 1.400 . S
C498 C492 1.491 . S
C498 C497 1.400 . S
C498 C499 1.398 . S
C499 H487 0.950 . S
C499 C498 1.398 . S
C499 C500 1.391 . S
C500 H488 0.950 . S
C500 C496 1.393 . S
C500 C499 1.391 . S
C276 C78 1.458 . S
C270 C10 1.533 . S
C290 C17 1.449 . S
C296 C152 1.377 . S
C310 C36 2.186 1_655 S
C316 C256 2.182 . S
C330 C5 0.884 . S
C336 C90 0.871 . S
C356 C164 0.869 . S
C350 C16 0.864 . S
C370 C31 1.638 . S
C376 C250 1.512 . S
C396 C182 2.158 . S
C390 C30 2.165 . S
C410 C3 1.515 . S
C416 C226 1.441 . S
C436 C102 1.524 . S
C430 C18 1.673 . S
C456 C176 1.481 . S
C450 C29 1.607 . S
C476 C238 0.857 . S
C470 C4 0.863 . S
C490 C23 2.230 . S
C496 C108 2.227 . S
