# Generated by pormake.
# Topology nom, (4,4)-cn, num edge types: 1
# Building blocks:
#     Node 0, Type 0, BuildingBlock: AZAVOO_clean_linker_0, # of connection points: 4
#     Node 1, Type 0, BuildingBlock: AZAVOO_clean_linker_0, # of connection points: 4
#     Node 2, Type 0, BuildingBlock: AZAVOO_clean_linker_0, # of connection points: 4
#     Node 3, Type 0, BuildingBlock: AZAVOO_clean_linker_0, # of connection points: 4
#     Node 4, Type 0, BuildingBlock: AZAVOO_clean_linker_0, # of connection points: 4
#     Node 5, Type 0, BuildingBlock: AZAVOO_clean_linker_0, # of connection points: 4
#     Node 6, Type 1, BuildingBlock: NAHDIM_clean_sbu_0, # of connection points: 4
#     Node 7, Type 1, BuildingBlock: NAHDIM_clean_sbu_0, # of connection points: 4
#     Node 8, Type 1, BuildingBlock: NAHDIM_clean_sbu_0, # of connection points: 4
#     Node 9, Type 1, BuildingBlock: NAHDIM_clean_sbu_0, # of connection points: 4
#     Node 10, Type 1, BuildingBlock: NAHDIM_clean_sbu_0, # of connection points: 4
#     Node 11, Type 1, BuildingBlock: NAHDIM_clean_sbu_0, # of connection points: 4
#     Edge 12, Type (0, 1), BuildingBlock: OJICUG_clean_linker_0, # of connection points: 2
#     Edge 13, Type (0, 1), BuildingBlock: OJICUG_clean_linker_0, # of connection points: 2
#     Edge 14, Type (0, 1), BuildingBlock: OJICUG_clean_linker_0, # of connection points: 2
#     Edge 15, Type (0, 1), BuildingBlock: OJICUG_clean_linker_0, # of connection points: 2
#     Edge 16, Type (0, 1), BuildingBlock: OJICUG_clean_linker_0, # of connection points: 2
#     Edge 17, Type (0, 1), BuildingBlock: OJICUG_clean_linker_0, # of connection points: 2
#     Edge 18, Type (0, 1), BuildingBlock: OJICUG_clean_linker_0, # of connection points: 2
#     Edge 19, Type (0, 1), BuildingBlock: OJICUG_clean_linker_0, # of connection points: 2
#     Edge 20, Type (0, 1), BuildingBlock: OJICUG_clean_linker_0, # of connection points: 2
#     Edge 21, Type (0, 1), BuildingBlock: OJICUG_clean_linker_0, # of connection points: 2
#     Edge 22, Type (0, 1), BuildingBlock: OJICUG_clean_linker_0, # of connection points: 2
#     Edge 23, Type (0, 1), BuildingBlock: OJICUG_clean_linker_0, # of connection points: 2
#     Edge 24, Type (0, 1), BuildingBlock: OJICUG_clean_linker_0, # of connection points: 2
#     Edge 25, Type (0, 1), BuildingBlock: OJICUG_clean_linker_0, # of connection points: 2
#     Edge 26, Type (0, 1), BuildingBlock: OJICUG_clean_linker_0, # of connection points: 2
#     Edge 27, Type (0, 1), BuildingBlock: OJICUG_clean_linker_0, # of connection points: 2
#     Edge 28, Type (0, 1), BuildingBlock: OJICUG_clean_linker_0, # of connection points: 2
#     Edge 29, Type (0, 1), BuildingBlock: OJICUG_clean_linker_0, # of connection points: 2
#     Edge 30, Type (0, 1), BuildingBlock: OJICUG_clean_linker_0, # of connection points: 2
#     Edge 31, Type (0, 1), BuildingBlock: OJICUG_clean_linker_0, # of connection points: 2
#     Edge 32, Type (0, 1), BuildingBlock: OJICUG_clean_linker_0, # of connection points: 2
#     Edge 33, Type (0, 1), BuildingBlock: OJICUG_clean_linker_0, # of connection points: 2
#     Edge 34, Type (0, 1), BuildingBlock: OJICUG_clean_linker_0, # of connection points: 2
#     Edge 35, Type (0, 1), BuildingBlock: OJICUG_clean_linker_0, # of connection points: 2
# Relax obj value: 0.170
# Max RMSD: 0.228
# Mean RMSD: 0.169
data_MOF--net-nom--node1-NAHDIM_clean_sbu_0--node2-AZAVOO_clean_linker_0--edge1-OJICUG_clean_linker_0
_symmetry_space_group_name_H-M    P1
_symmetry_Int_Tables_number       1
_symmetry_cell_setting            triclinic
loop_
_symmetry_equiv_pos_as_xyz
'x, y, z'
_cell_length_a     36.600718
_cell_length_b     39.176655
_cell_length_c     45.852567
_cell_angle_alpha  90.079944
_cell_angle_beta   90.409681
_cell_angle_gamma 122.55049
loop_
_atom_site_label
_atom_site_type_symbol
_atom_site_fract_x
_atom_site_fract_y
_atom_site_fract_z
_atom_type_partial_charge
H0 H 0.08991 0.4504 0.10487 0.0
H1 H 0.33363 0.71192 0.37046 0.0
H2 H 0.00976 0.43364 0.25477 0.0
H3 H 0.95913 0.3942 0.21524 0.0
H4 H 0.93624 0.49023 0.20097 0.0
H5 H 0.98671 0.5293 0.24089 0.0
H6 H 0.10602 0.47883 0.23094 0.0
H7 H 0.10447 0.46009 0.17978 0.0
H8 H 0.05906 0.53761 0.15482 0.0
H9 H 0.0613 0.55644 0.20601 0.0
H10 H 0.18987 0.54388 0.27262 0.0
H11 H 0.26419 0.5935 0.25733 0.0
H12 H 0.21956 0.66353 0.21542 0.0
H13 H 0.14578 0.6141 0.23083 0.0
H14 H 0.15394 0.53337 0.33914 0.0
H15 H 0.22144 0.57332 0.36717 0.0
H16 H 0.24678 0.68175 0.32362 0.0
H17 H 0.17876 0.64163 0.29627 0.0
H18 H 0.0511 0.48926 0.35642 0.0
H19 H 0.06914 0.50321 0.40857 0.0
H20 H 0.1302 0.63112 0.3927 0.0
H21 H 0.11073 0.61701 0.34091 0.0
H22 H 0.963 0.44974 0.30428 0.0
H23 H 0.89575 0.43949 0.32316 0.0
H24 H 0.96184 0.56805 0.34149 0.0
H25 H 0.02658 0.57829 0.31909 0.0
O26 O 0.09098 0.45873 0.1249 0.0
O27 O 0.06741 0.4988 0.11325 0.0
O28 O 0.29128 0.63907 0.38243 0.0
O29 O 0.30668 0.69543 0.35978 0.0
C30 C 0.04186 0.51208 0.26753 0.0
C31 C 0.08211 0.5281 0.25338 0.0
C32 C 0.12107 0.55315 0.26879 0.0
C33 C 0.12022 0.56017 0.29889 0.0
C34 C 0.08011 0.54493 0.313 0.0
C35 C 0.04076 0.52253 0.29697 0.0
C36 C 0.00183 0.48427 0.25067 0.0
C37 C 0.99249 0.44543 0.24385 0.0
C38 C 0.96408 0.42324 0.22099 0.0
C39 C 0.94442 0.43948 0.20461 0.0
C40 C 0.95082 0.47686 0.21323 0.0
C41 C 0.97941 0.49914 0.23614 0.0
C42 C 0.08349 0.51873 0.22214 0.0
C43 C 0.09608 0.49195 0.21434 0.0
C44 C 0.095 0.48119 0.18512 0.0
C45 C 0.0814 0.49717 0.16321 0.0
C46 C 0.06953 0.52461 0.17114 0.0
C47 C 0.07074 0.5354 0.20034 0.0
C48 C 0.16268 0.57572 0.25305 0.0
C49 C 0.19605 0.56927 0.25932 0.0
C50 C 0.23839 0.59771 0.25077 0.0
C51 C 0.24765 0.63265 0.2356 0.0
C52 C 0.21338 0.63684 0.22695 0.0
C53 C 0.17118 0.60858 0.23568 0.0
C54 C 0.1616 0.58456 0.31557 0.0
C55 C 0.17411 0.56576 0.33574 0.0
C56 C 0.21268 0.58864 0.35168 0.0
C57 C 0.23957 0.63074 0.34758 0.0
C58 C 0.2269 0.64942 0.32729 0.0
C59 C 0.18815 0.62656 0.31154 0.0
C60 C 0.0802 0.55217 0.34485 0.0
C61 C 0.06681 0.52011 0.3644 0.0
C62 C 0.07727 0.5281 0.39407 0.0
C63 C 0.10157 0.56824 0.40434 0.0
C64 C 0.11177 0.59998 0.38514 0.0
C65 C 0.1006 0.59194 0.35567 0.0
C66 C -0.00012 0.51482 0.31004 0.0
C67 C 0.96261 0.47573 0.31186 0.0
C68 C 0.92426 0.46989 0.32326 0.0
C69 C 0.92275 0.50293 0.33396 0.0
C70 C 0.96078 0.54183 0.33284 0.0
C71 C -0.00159 0.54773 0.32049 0.0
C72 C 0.07948 0.48509 0.13227 0.0
C73 C 0.28067 0.65517 0.36437 0.0
H74 H 0.60354 0.10531 0.30846 0.0
H75 H 0.51917 0.23937 0.60065 0.0
H76 H 0.56998 0.01225 0.45453 0.0
H77 H 0.57184 0.96793 0.4178 0.0
H78 H 0.43198 0.90008 0.41187 0.0
H79 H 0.4305 0.94463 0.44889 0.0
H80 H 0.5946 0.09772 0.4358 0.0
H81 H 0.61139 0.1086 0.38379 0.0
H82 H 0.47485 0.03075 0.363 0.0
H83 H 0.45851 0.02052 0.4151 0.0
H84 H 0.60062 0.15116 0.48611 0.0
H85 H 0.62724 0.2187 0.46688 0.0
H86 H 0.50369 0.17336 0.42397 0.0
H87 H 0.47754 0.10558 0.44312 0.0
H88 H 0.57876 0.11776 0.54784 0.0
H89 H 0.591 0.1713 0.58172 0.0
H90 H 0.4783 0.16616 0.54627 0.0
H91 H 0.46602 0.11209 0.51283 0.0
H92 H 0.54716 0.02811 0.5584 0.0
H93 H 0.55734 0.04648 0.61005 0.0
H94 H 0.44594 0.05724 0.60668 0.0
H95 H 0.43614 0.03895 0.55488 0.0
H96 H 0.52189 0.95761 0.51024 0.0
H97 H 0.48187 0.88606 0.5241 0.0
H98 H 0.36581 0.8882 0.53443 0.0
H99 H 0.40614 0.95963 0.52079 0.0
O100 O 0.59616 0.1008 0.32891 0.0
O101 O 0.52562 0.06037 0.3194 0.0
O102 O 0.5723 0.21917 0.60522 0.0
O103 O 0.51536 0.21857 0.58724 0.0
C104 C 0.50046 0.01286 0.47282 0.0
C105 C 0.51529 0.05136 0.46075 0.0
C106 C 0.52086 0.0831 0.47868 0.0
C107 C 0.51253 0.07665 0.5088 0.0
C108 C 0.49621 0.03774 0.52075 0.0
C109 C 0.48904 0.0055 0.50261 0.0
C110 C 0.50012 0.98166 0.45426 0.0
C111 C 0.53971 0.98732 0.44568 0.0
C112 C 0.54073 0.9622 0.42457 0.0
C113 C 0.50211 0.93082 0.41171 0.0
C114 C 0.46226 0.92385 0.42152 0.0
C115 C 0.4613 0.9492 0.44262 0.0
C116 C 0.52536 0.05847 0.42917 0.0
C117 C 0.56837 0.0833 0.41996 0.0
C118 C 0.57786 0.08933 0.39025 0.0
C119 C 0.54446 0.07053 0.36922 0.0
C120 C 0.50134 0.04567 0.3786 0.0
C121 C 0.49191 0.03976 0.40833 0.0
C122 C 0.53711 0.12367 0.46617 0.0
C123 C 0.57935 0.15588 0.47256 0.0
C124 C 0.59438 0.19441 0.46165 0.0
C125 C 0.56741 0.20146 0.44411 0.0
C126 C 0.52532 0.16884 0.43724 0.0
C127 C 0.51028 0.13023 0.44823 0.0
C128 C 0.52138 0.11094 0.52803 0.0
C129 C 0.5568 0.12829 0.54742 0.0
C130 C 0.56373 0.15888 0.56672 0.0
C131 C 0.53554 0.17295 0.56676 0.0
C132 C 0.50056 0.15599 0.54686 0.0
C133 C 0.49355 0.12522 0.52766 0.0
C134 C 0.4913 0.03275 0.55284 0.0
C135 C 0.52368 0.03245 0.56915 0.0
C136 C 0.52957 0.04318 0.59868 0.0
C137 C 0.50306 0.05427 0.61222 0.0
C138 C 0.46738 0.04963 0.59664 0.0
C139 C 0.46142 0.03874 0.56716 0.0
C140 C 0.46682 0.96369 0.51424 0.0
C141 C 0.48795 0.94268 0.51579 0.0
C142 C 0.46498 0.90181 0.52361 0.0
C143 C 0.42051 0.88131 0.53013 0.0
C144 C 0.40005 0.90309 0.52983 0.0
C145 C 0.42301 0.94388 0.52194 0.0
C146 C 0.55465 0.07682 0.33767 0.0
C147 C 0.54235 0.20497 0.58758 0.0
H148 H 0.6253 0.57058 0.81311 0.0
H149 H 0.62287 0.37367 0.52181 0.0
H150 H 0.59991 0.62681 0.66632 0.0
H151 H 0.57808 0.65066 0.70798 0.0
H152 H 0.4447 0.55434 0.69298 0.0
H153 H 0.46695 0.53 0.65192 0.0
H154 H 0.64162 0.57501 0.6861 0.0
H155 H 0.64807 0.57995 0.73936 0.0
H156 H 0.50852 0.50379 0.74597 0.0
H157 H 0.50264 0.49848 0.69279 0.0
H158 H 0.65776 0.51693 0.64197 0.0
H159 H 0.66943 0.46622 0.66371 0.0
H160 H 0.53438 0.39465 0.68785 0.0
H161 H 0.52319 0.4452 0.66624 0.0
H162 H 0.65317 0.54572 0.5754 0.0
H163 H 0.67822 0.5108 0.54521 0.0
H164 H 0.56511 0.39563 0.56939 0.0
H165 H 0.54019 0.431 0.59919 0.0
H166 H 0.61027 0.5912 0.55435 0.0
H167 H 0.62509 0.5813 0.504 0.0
H168 H 0.52075 0.45566 0.508 0.0
H169 H 0.50566 0.46586 0.55805 0.0
H170 H 0.55154 0.62377 0.6003 0.0
H171 H 0.49265 0.63425 0.58848 0.0
H172 H 0.40555 0.50557 0.57474 0.0
H173 H 0.46404 0.4953 0.58671 0.0
O174 O 0.62206 0.56783 0.79213 0.0
O175 O 0.55014 0.52935 0.79427 0.0
O176 O 0.67183 0.44818 0.52243 0.0
O177 O 0.61413 0.38819 0.53403 0.0
C178 C 0.54986 0.55464 0.63865 0.0
C179 C 0.56795 0.53522 0.65326 0.0
C180 C 0.58064 0.51264 0.63728 0.0
C181 C 0.57891 0.51242 0.60658 0.0
C182 C 0.55975 0.53094 0.59201 0.0
C183 C 0.54315 0.55026 0.60812 0.0
C184 C 0.53505 0.57653 0.65633 0.0
C185 C 0.56578 0.61194 0.67131 0.0
C186 C 0.55326 0.62552 0.69507 0.0
C187 C 0.50985 0.60381 0.70397 0.0
C188 C 0.4785 0.57119 0.68677 0.0
C189 C 0.49104 0.55753 0.66312 0.0
C190 C 0.57168 0.5368 0.68562 0.0
C191 C 0.61254 0.55926 0.69913 0.0
C192 C 0.61609 0.56211 0.72953 0.0
C193 C 0.57879 0.54245 0.74693 0.0
C194 C 0.53789 0.51945 0.73324 0.0
C195 C 0.53443 0.51647 0.70287 0.0
C196 C 0.58971 0.48474 0.65268 0.0
C197 C 0.63096 0.49051 0.6523 0.0
C198 C 0.63745 0.46149 0.66456 0.0
C199 C 0.60278 0.42648 0.67749 0.0
C200 C 0.56186 0.42155 0.67849 0.0
C201 C 0.55539 0.45035 0.66613 0.0
C202 C 0.59502 0.49088 0.58955 0.0
C203 C 0.634 0.51295 0.57424 0.0
C204 C 0.64821 0.49292 0.55703 0.0
C205 C 0.62368 0.45038 0.55493 0.0
C206 C 0.58481 0.42838 0.57057 0.0
C207 C 0.57058 0.44847 0.5877 0.0
C208 C 0.55716 0.52915 0.5598 0.0
C209 C 0.58917 0.56213 0.5438 0.0
C210 C 0.59778 0.55639 0.51518 0.0
C211 C 0.57453 0.51756 0.50255 0.0
C212 C 0.53932 0.48575 0.51751 0.0
C213 C 0.53042 0.49162 0.54591 0.0
C214 C 0.5121 0.55878 0.59433 0.0
C215 C 0.52009 0.59807 0.59385 0.0
C216 C 0.48648 0.60398 0.58714 0.0
C217 C 0.44448 0.57061 0.58106 0.0
C218 C 0.43749 0.53172 0.57965 0.0
C219 C 0.47101 0.5259 0.58615 0.0
C220 C 0.58261 0.54603 0.77919 0.0
C221 C 0.63818 0.42901 0.53618 0.0
H222 H 0.02738 0.39724 0.00194 0.0
H223 H 0.29325 0.50996 0.71222 0.0
H224 H 0.97543 0.44219 0.84024 0.0
H225 H 0.92392 0.42684 0.87946 0.0
H226 H 0.89658 0.30514 0.88391 0.0
H227 H 0.94839 0.32081 0.84456 0.0
H228 H 0.03878 0.45086 0.88156 0.0
H229 H 0.03363 0.43833 0.93406 0.0
H230 H 0.04 0.33266 0.91889 0.0
H231 H 0.04444 0.34525 0.86632 0.0
H232 H 0.12364 0.48653 0.86014 0.0
H233 H 0.19348 0.51366 0.88464 0.0
H234 H 0.20254 0.41674 0.84812 0.0
H235 H 0.13165 0.38904 0.82416 0.0
H236 H 0.13792 0.51173 0.78639 0.0
H237 H 0.20762 0.54857 0.7613 0.0
H238 H 0.19634 0.43506 0.74233 0.0
H239 H 0.12658 0.39868 0.76736 0.0
H240 H 0.04413 0.48402 0.75763 0.0
H241 H 0.0698 0.51723 0.7104 0.0
H242 H 0.0881 0.42196 0.68263 0.0
H243 H 0.0611 0.38846 0.72958 0.0
H244 H 0.95995 0.43714 0.78494 0.0
H245 H 0.88556 0.40401 0.76599 0.0
H246 H 0.88755 0.29745 0.74488 0.0
H247 H 0.96182 0.33092 0.76372 0.0
O248 O 0.02953 0.40166 0.9811 0.0
O249 O 0.03366 0.34801 0.97221 0.0
O250 O 0.27 0.5537 0.73255 0.0
O251 O 0.26586 0.49619 0.72236 0.0
C252 C 0.00529 0.39594 0.82274 0.0
C253 C 0.04317 0.4056 0.83823 0.0
C254 C 0.08274 0.42243 0.82348 0.0
C255 C 0.0848 0.43056 0.79338 0.0
C256 C 0.04681 0.42052 0.77772 0.0
C257 C 0.00684 0.40226 0.79233 0.0
C258 C 0.96529 0.38249 0.83941 0.0
C259 C 0.95696 0.41171 0.84881 0.0
C260 C 0.9281 0.40311 0.87149 0.0
C261 C 0.90687 0.36503 0.88492 0.0
C262 C 0.9125 0.3347 0.87384 0.0
C263 C 0.94177 0.34347 0.85128 0.0
C264 C 0.04156 0.39872 0.87019 0.0
C265 C 0.03884 0.42492 0.88963 0.0
C266 C 0.03603 0.41775 0.91961 0.0
C267 C 0.0363 0.38443 0.93068 0.0
C268 C 0.03962 0.35854 0.91108 0.0
C269 C 0.04224 0.36568 0.88108 0.0
C270 C 0.12298 0.4361 0.84027 0.0
C271 C 0.1402 0.4706 0.85804 0.0
C272 C 0.17985 0.48581 0.87218 0.0
C273 C 0.20316 0.46708 0.86837 0.0
C274 C 0.18503 0.43158 0.85142 0.0
C275 C 0.14492 0.41598 0.83761 0.0
C276 C 0.12745 0.45265 0.77871 0.0
C277 C 0.15069 0.49496 0.77685 0.0
C278 C 0.19042 0.51587 0.7625 0.0
C279 C 0.20757 0.49474 0.74981 0.0
C280 C 0.18411 0.45226 0.75187 0.0
C281 C 0.14434 0.43141 0.76619 0.0
C282 C 0.05069 0.43381 0.74699 0.0
C283 C 0.05213 0.46958 0.74091 0.0
C284 C 0.06747 0.48883 0.71408 0.0
C285 C 0.08173 0.47266 0.69288 0.0
C286 C 0.07716 0.43518 0.69833 0.0
C287 C 0.06167 0.41589 0.72514 0.0
C288 C 0.96595 0.38624 0.77582 0.0
C289 C 0.94454 0.407 0.77564 0.0
C290 C 0.90208 0.38796 0.76497 0.0
C291 C 0.88057 0.34794 0.75426 0.0
C292 C 0.90332 0.32835 0.75276 0.0
C293 C 0.94567 0.34737 0.76354 0.0
C294 C 0.03311 0.3768 0.96254 0.0
C295 C 0.24968 0.51679 0.73443 0.0
H296 H 0.37639 0.98359 0.79945 0.0
H297 H 0.37375 0.72932 0.05018 0.0
H298 H 0.43301 0.05025 0.94479 0.0
H299 H 0.46792 0.10091 0.90659 0.0
H300 H 0.59034 0.11435 0.92789 0.0
H301 H 0.55438 0.06109 0.96384 0.0
H302 H 0.36845 0.95483 0.9251 0.0
H303 H 0.35868 0.96174 0.87304 0.0
H304 H 0.49527 0.01206 0.8595 0.0
H305 H 0.50439 0.00428 0.91142 0.0
H306 H 0.34664 0.86689 0.95903 0.0
H307 H 0.33183 0.8057 0.93302 0.0
H308 H 0.46503 0.86998 0.90453 0.0
H309 H 0.47926 0.92999 0.93034 0.0
H310 H 0.3596 0.89059 0.02971 0.0
H311 H 0.33097 0.82373 0.05123 0.0
H312 H 0.43604 0.81933 0.01295 0.0
H313 H 0.46452 0.88632 0.99187 0.0
H314 H 0.41669 0.97101 0.0637 0.0
H315 H 0.42949 0.95637 0.1134 0.0
H316 H 0.53204 0.94298 0.08117 0.0
H317 H 0.51654 0.95441 0.03178 0.0
H318 H 0.46942 0.07048 0.02073 0.0
H319 H 0.5275 0.1335 0.04381 0.0
H320 H 0.61185 0.08793 0.04171 0.0
H321 H 0.55465 0.02618 0.01806 0.0
O322 O 0.38089 0.98075 0.8199 0.0
O323 O 0.45142 0.00692 0.8142 0.0
O324 O 0.33126 0.75971 0.06145 0.0
O325 O 0.38439 0.75579 0.042 0.0
C326 C 0.46755 0.01139 0.9715 0.0
C327 C 0.44294 0.97622 0.95393 0.0
C328 C 0.42645 0.9376 0.96603 0.0
C329 C 0.43107 0.93364 0.9962 0.0
C330 C 0.45554 0.96853 0.01379 0.0
C331 C 0.47499 0.00741 0.00129 0.0
C332 C 0.49094 0.05157 0.957 0.0
C333 C 0.46766 0.06513 0.94182 0.0
C334 C 0.48777 0.0942 0.91995 0.0
C335 C 0.53176 0.11086 0.91351 0.0
C336 C 0.55609 0.10112 0.93156 0.0
C337 C 0.53575 0.07128 0.95275 0.0
C338 C 0.43719 0.97959 0.92211 0.0
C339 C 0.39615 0.96721 0.91082 0.0
C340 C 0.39071 0.97127 0.88109 0.0
C341 C 0.42624 0.98767 0.86212 0.0
C342 C 0.46725 -0.00053 0.8735 0.0
C343 C 0.47258 0.99521 0.90318 0.0
C344 C 0.41393 0.90286 0.94638 0.0
C345 C 0.37211 0.86783 0.94646 0.0
C346 C 0.36382 0.83301 0.93172 0.0
C347 C 0.39725 0.83304 0.91667 0.0
C348 C 0.43829 0.86906 0.91532 0.0
C349 C 0.44655 0.90348 0.93013 0.0
C350 C 0.41382 0.89302 0.00905 0.0
C351 C 0.37631 0.87507 0.02601 0.0
C352 C 0.36006 0.83692 0.03825 0.0
C353 C 0.38116 0.81612 0.03373 0.0
C354 C 0.41893 0.83442 0.0168 0.0
C355 C 0.43521 0.87262 0.00467 0.0
C356 C 0.4658 0.96387 0.04428 0.0
C357 C 0.44202 0.96512 0.0676 0.0
C358 C 0.44965 0.95702 0.09597 0.0
C359 C 0.48159 0.94809 0.10139 0.0
C360 C 0.50643 0.94865 0.07789 0.0
C361 C 0.49807 0.95572 0.04963 0.0
C362 C 0.50756 0.04346 0.01826 0.0
C363 C 0.50019 0.07392 0.02582 0.0
C364 C 0.53326 0.10973 0.03895 0.0
C365 C 0.57394 0.1153 0.0448 0.0
C366 C 0.58053 0.08406 0.03814 0.0
C367 C 0.54779 0.04868 0.02473 0.0
C368 C 0.42046 0.99241 0.83063 0.0
C369 C 0.36397 0.77554 0.0466 0.0
H370 H 0.51859 0.49703 0.92833 0.0
H371 H 0.71254 0.4532 0.22126 0.0
H372 H 0.50194 0.55411 0.08072 0.0
H373 H 0.47984 0.57371 0.03673 0.0
H374 H 0.60919 0.67953 0.02891 0.0
H375 H 0.63114 0.65973 0.07323 0.0
H376 H 0.52444 0.49397 0.05576 0.0
H377 H 0.511 0.48386 0.00312 0.0
H378 H 0.63261 0.59657 0.9878 0.0
H379 H 0.64576 0.60605 0.0405 0.0
H380 H 0.55916 0.45404 0.09699 0.0
H381 H 0.58542 0.41101 0.08175 0.0
H382 H 0.70746 0.51775 0.05703 0.0
H383 H 0.6805 0.56018 0.07174 0.0
H384 H 0.55817 0.47223 0.16053 0.0
H385 H 0.57899 0.43526 0.19239 0.0
H386 H 0.71363 0.52006 0.17141 0.0
H387 H 0.69227 0.55686 0.13973 0.0
H388 H 0.54273 0.53151 0.18613 0.0
H389 H 0.55669 0.51536 0.23487 0.0
H390 H 0.69427 0.5982 0.22209 0.0
H391 H 0.67982 0.6146 0.17397 0.0
H392 H 0.51541 0.58829 0.1348 0.0
H393 H 0.50529 0.63987 0.15628 0.0
H394 H 0.64188 0.71338 0.17725 0.0
H395 H 0.65213 0.66215 0.15484 0.0
O396 O 0.525 0.50114 0.949 0.0
O397 O 0.58806 0.55904 0.94228 0.0
O398 O 0.63362 0.42384 0.21818 0.0
O399 O 0.70333 0.46664 0.2082 0.0
C400 C 0.58451 0.58508 0.0979 0.0
C401 C 0.5927 0.55772 0.0838 0.0
C402 C 0.6063 0.53623 0.10016 0.0
C403 C 0.6111 0.54132 0.13058 0.0
C404 C 0.6041 0.56943 0.14463 0.0
C405 C 0.59107 0.59166 0.12834 0.0
C406 C 0.56811 0.60545 0.07999 0.0
C407 C 0.52488 0.58263 0.07041 0.0
C408 C 0.51249 0.59358 0.04513 0.0
C409 C 0.54316 0.62758 0.02923 0.0
C410 C 0.58505 0.65318 0.04085 0.0
C411 C 0.59752 0.64209 0.06622 0.0
C412 C 0.58595 0.55078 0.05184 0.0
C413 C 0.54826 0.51623 0.04095 0.0
C414 C 0.54064 0.51062 0.0109 0.0
C415 C 0.57069 0.53947 0.99124 0.0
C416 C 0.6088 0.57379 0.00232 0.0
C417 C 0.6164 0.5793 0.03238 0.0
C418 C 0.61813 0.51002 0.08553 0.0
C419 C 0.59105 0.46785 0.08748 0.0
C420 C 0.60621 0.44347 0.07898 0.0
C421 C 0.64869 0.46108 0.06855 0.0
C422 C 0.67448 0.50325 0.06471 0.0
C423 C 0.65924 0.52755 0.07316 0.0
C424 C 0.62375 0.51722 0.14798 0.0
C425 C 0.5921 0.48255 0.16271 0.0
C426 C 0.6041 0.46157 0.18091 0.0
C427 C 0.64803 0.47486 0.18459 0.0
C428 C 0.67955 0.50911 0.16917 0.0
C429 C 0.66748 0.53008 0.15098 0.0
C430 C 0.61031 0.57409 0.17659 0.0
C431 C 0.57563 0.54784 0.19461 0.0
C432 C 0.58375 0.53807 0.22217 0.0
C433 C 0.62663 0.55465 0.23197 0.0
C434 C 0.66086 0.58489 0.21528 0.0
C435 C 0.65269 0.59465 0.1878 0.0
C436 C 0.58455 0.62168 0.14298 0.0
C437 C 0.54317 0.61555 0.14392 0.0
C438 C 0.53744 0.6449 0.15626 0.0
C439 C 0.5729 0.68055 0.16827 0.0
C440 C 0.61406 0.68601 0.16828 0.0
C441 C 0.6199 0.65688 0.1555 0.0
C442 C 0.56198 0.53393 0.95936 0.0
C443 C 0.66104 0.45344 0.20464 0.0
C444 C 0.63716 0.3646 0.40302 0.0
O445 O 0.66579 0.39482 0.41958 0.0
O446 O 0.72667 0.44605 0.36634 0.0
Zn447 Zn 0.66516 0.43215 0.36929 0.0
O448 O 0.65634 0.46021 0.40308 0.0
C449 C 0.67281 0.48475 0.32472 0.0
O450 O 0.70711 0.50862 0.34089 0.0
O451 O 0.62903 0.37241 0.37775 0.0
C452 C 0.63728 0.47933 0.40081 0.0
O453 O 0.62467 0.48399 0.37508 0.0
C454 C 0.76088 0.47912 0.37384 0.0
O455 O 0.75814 0.50834 0.38542 0.0
O456 O 0.64843 0.44771 0.33181 0.0
C457 C 0.31456 0.70702 0.5436 0.0
O458 O 0.31933 0.68423 0.52494 0.0
O459 O 0.29674 0.61353 0.55945 0.0
Zn460 Zn 0.25174 0.62865 0.56022 0.0
O461 O 0.219 0.6129 0.52186 0.0
C462 C 0.18274 0.56284 0.59244 0.0
O463 O 0.1813 0.54307 0.56883 0.0
O464 O 0.28528 0.6898 0.56287 0.0
C465 C 0.17969 0.6025 0.51908 0.0
O466 O 0.15779 0.60065 0.54223 0.0
C467 C 0.30063 0.59286 0.57914 0.0
O468 O 0.2734 0.57891 0.60097 0.0
O469 O 0.21042 0.60083 0.59398 0.0
C470 C 0.61553 0.29297 0.71611 0.0
O471 O 0.63667 0.28123 0.7003 0.0
O472 O 0.671 0.25529 0.75151 0.0
Zn473 Zn 0.60638 0.22908 0.74911 0.0
O474 O 0.57874 0.18728 0.71688 0.0
C475 C 0.59848 0.18941 0.8024 0.0
O476 O 0.63119 0.18945 0.79075 0.0
O477 O 0.59743 0.27394 0.7394 0.0
C478 C 0.57306 0.15228 0.71666 0.0
O479 O 0.58651 0.14074 0.73895 0.0
C480 C 0.69555 0.25372 0.73285 0.0
O481 O 0.67859 0.23162 0.70915 0.0
O482 O 0.58096 0.20495 0.78829 0.0
C483 C 0.40911 0.69696 0.88891 0.0
O484 O 0.39128 0.6653 0.90606 0.0
O485 O 0.39703 0.60516 0.8725 0.0
Zn486 Zn 0.45266 0.65936 0.8698 0.0
O487 O 0.49007 0.6671 0.9046 0.0
C488 C 0.46987 0.62593 0.82125 0.0
O489 O 0.44657 0.59355 0.83725 0.0
O490 O 0.43752 0.70159 0.87075 0.0
C491 C 0.49654 0.6393 0.91117 0.0
O492 O 0.48207 0.60814 0.89348 0.0
C493 C 0.3792 0.58321 0.89474 0.0
O494 O 0.39659 0.59611 0.92076 0.0
O495 O 0.47958 0.66017 0.83126 0.0
C496 C 0.73701 0.3762 0.0634 0.0
O497 O 0.7303 0.35007 0.08389 0.0
O498 O 0.74284 0.29509 0.04947 0.0
Zn499 Zn 0.79292 0.35252 0.04874 0.0
O500 O 0.8251 0.36983 0.08711 0.0
C501 C 0.81177 0.33959 0.99122 0.0
O502 O 0.76999 0.31224 0.9918 0.0
O503 O 0.76528 0.3843 0.04413 0.0
C504 C 0.85834 0.36925 0.09419 0.0
O505 O 0.87461 0.35568 0.0754 0.0
C506 C 0.73055 0.26864 0.0693 0.0
O507 O 0.754 0.27667 0.09314 0.0
O508 O 0.83018 0.36131 0.01381 0.0
C509 C 0.53745 0.79815 0.21129 0.0
O510 O 0.51614 0.80827 0.19395 0.0
O511 O 0.44536 0.78647 0.2489 0.0
Zn512 Zn 0.50731 0.8333 0.24852 0.0
O513 O 0.51342 0.87055 0.21622 0.0
C514 C 0.49994 0.84241 0.30993 0.0
O515 O 0.47095 0.80341 0.30756 0.0
O516 O 0.54169 0.80828 0.23809 0.0
C517 C 0.49833 0.89309 0.21496 0.0
O518 O 0.47937 0.8968 0.23788 0.0
C519 C 0.42005 0.77493 0.2269 0.0
O520 O 0.43345 0.79558 0.20256 0.0
O521 O 0.52181 0.86169 0.28763 0.0
C522 C 0.32168 0.67991 0.25609 0.0
C523 C 0.29293 0.66702 0.2322 0.0
H524 H 0.38412 0.72423 0.27325 0.0
C525 C 0.30656 0.68942 0.20627 0.0
H526 H 0.31173 0.66375 0.27658 0.0
C527 C 0.348 0.72441 0.20442 0.0
C528 C 0.37644 0.7377 0.22853 0.0
H529 H 0.285 0.6801 0.18753 0.0
H530 H 0.35754 0.74122 0.18421 0.0
C531 C 0.36298 0.71487 0.25428 0.0
C532 C 0.6074 0.27632 0.45235 0.0
C533 C 0.58316 0.24296 0.43361 0.0
H534 H 0.64301 0.34056 0.45747 0.0
C535 C 0.57487 0.24974 0.40488 0.0
H536 H 0.61356 0.2721 0.47478 0.0
C537 C 0.59155 0.28921 0.39492 0.0
C538 C 0.61683 0.32256 0.41353 0.0
H539 H 0.55646 0.22464 0.38987 0.0
H540 H 0.58543 0.29362 0.37253 0.0
C541 C 0.62408 0.3156 0.44243 0.0
C542 C 0.3702 0.5508 0.59612 0.0
C543 C 0.40714 0.57556 0.57922 0.0
H544 H 0.30779 0.53699 0.60942 0.0
C545 C 0.40847 0.60552 0.56165 0.0
H546 H 0.36856 0.52781 0.61017 0.0
C547 C 0.37337 0.61055 0.56099 0.0
C548 C 0.33674 0.5862 0.57834 0.0
H549 H 0.43658 0.62496 0.54843 0.0
H550 H 0.37533 0.63406 0.5474 0.0
C551 C 0.33551 0.55622 0.59582 0.0
C552 C 0.81611 0.29922 0.72319 0.0
C553 C 0.83349 0.3253 0.7475 0.0
H554 H 0.75877 0.25612 0.69935 0.0
C555 C 0.80522 0.32781 0.76662 0.0
H556 H 0.83717 0.29677 0.70805 0.0
C557 C 0.76057 0.30454 0.76176 0.0
C558 C 0.74303 0.27822 0.73761 0.0
H559 H 0.81751 0.347 0.78585 0.0
H560 H 0.7398 0.30707 0.77714 0.0
C561 C 0.77127 0.27599 0.71822 0.0
C562 C 0.37197 0.7604 0.92369 0.0
C563 C 0.39202 0.79494 0.90598 0.0
H564 H 0.36154 0.7022 0.93207 0.0
C565 C 0.41289 0.79466 0.88043 0.0
H566 H 0.35605 0.75978 0.94369 0.0
C567 C 0.41684 0.76195 0.87406 0.0
C568 C 0.39957 0.72875 0.89299 0.0
H569 H 0.42803 0.82062 0.8661 0.0
H570 H 0.43486 0.7634 0.85496 0.0
C571 C 0.37556 0.72754 0.91719 0.0
C572 C 0.66101 0.40808 0.08667 0.0
C573 C 0.66799 0.43647 0.06519 0.0
H574 H 0.67738 0.36694 0.10293 0.0
C575 C 0.6965 0.44362 0.04226 0.0
H576 H 0.63992 0.40247 0.10494 0.0
C577 C 0.71853 0.42357 0.04131 0.0
C578 C 0.7124 0.39606 0.06329 0.0
H579 H 0.70225 0.46515 0.0253 0.0
H580 H 0.74082 0.4301 0.02363 0.0
C581 C 0.68289 0.38803 0.08569 0.0
C582 C 0.36219 0.8193 0.55636 0.0
C583 C 0.39483 0.83683 0.53513 0.0
H584 H 0.31127 0.76452 0.5759 0.0
C585 C 0.40141 0.81131 0.51747 0.0
H586 H 0.35653 0.83816 0.57048 0.0
C587 C 0.37564 0.76935 0.52058 0.0
C588 C 0.34257 0.75171 0.54146 0.0
H589 H 0.42573 0.82369 0.50058 0.0
H590 H 0.38138 0.75072 0.50627 0.0
C591 C 0.33637 0.77715 0.55955 0.0
C592 C 0.63116 0.38129 0.67196 0.0
C593 C 0.6083 0.39395 0.68844 0.0
H594 H 0.6511 0.33934 0.66768 0.0
C595 C 0.58865 0.37374 0.71452 0.0
H596 H 0.6461 0.39587 0.65156 0.0
C597 C 0.59118 0.34108 0.72368 0.0
C598 C 0.61339 0.32797 0.70691 0.0
H599 H 0.57115 0.3831 0.72781 0.0
H600 H 0.57547 0.32595 0.74378 0.0
C601 C 0.63367 0.34864 0.68109 0.0
C602 C 0.26087 0.50624 0.90611 0.0
C603 C 0.24874 0.48845 0.87821 0.0
H604 H 0.31271 0.55018 0.93359 0.0
C605 C 0.28096 0.4971 0.8578 0.0
H606 H 0.23646 0.49981 0.92221 0.0
C607 C 0.3242 0.52606 0.86415 0.0
C608 C 0.33592 0.54641 0.89111 0.0
H609 H 0.27245 0.48405 0.83607 0.0
H610 H 0.34814 0.53426 0.84731 0.0
C611 C 0.30436 0.53487 0.91263 0.0
C612 C 0.64047 0.15822 0.07572 0.0
C613 C 0.61122 0.15515 0.05421 0.0
H614 H 0.70138 0.19691 0.09768 0.0
C615 C 0.62032 0.19001 0.03922 0.0
H616 H 0.63406 0.13167 0.08759 0.0
C617 C 0.65877 0.22689 0.04467 0.0
C618 C 0.68882 0.22983 0.06542 0.0
H619 H 0.59867 0.18842 0.02227 0.0
H620 H 0.66526 0.25302 0.03218 0.0
C621 C 0.67888 0.19542 0.08147 0.0
C622 C 0.58119 0.7296 0.20718 0.0
C623 C 0.56697 0.71275 0.17916 0.0
H624 H 0.58279 0.76998 0.23966 0.0
C625 C 0.54595 0.7262 0.16139 0.0
H626 H 0.59758 0.71965 0.22123 0.0
C627 C 0.53809 0.7551 0.17163 0.0
C628 C 0.55058 0.77092 0.20007 0.0
H629 H 0.53528 0.7141 0.13954 0.0
H630 H 0.52109 0.76417 0.15738 0.0
C631 C 0.57275 0.75831 0.21768 0.0
C632 C 0.85014 0.46057 0.35871 0.0
C633 C 0.88174 0.49725 0.34561 0.0
H634 H 0.78686 0.426 0.37761 0.0
C635 C 0.87346 0.52842 0.34334 0.0
H636 H 0.85535 0.4361 0.36162 0.0
C637 C 0.83502 0.52312 0.35383 0.0
C638 C 0.80325 0.4861 0.36592 0.0
H639 H 0.89599 0.55672 0.33272 0.0
H640 H 0.82934 0.5474 0.3513 0.0
C641 C 0.81103 0.45485 0.36827 0.0
C642 C 0.16608 0.60148 0.43723 0.0
C643 C 0.12083 0.57738 0.43392 0.0
H644 H 0.22015 0.62778 0.46676 0.0
C645 C 0.09483 0.56131 0.45872 0.0
H646 H 0.18675 0.61377 0.41831 0.0
C647 C 0.1139 0.56981 0.48653 0.0
C648 C 0.15926 0.59363 0.48984 0.0
H649 H 0.05987 0.5425 0.45656 0.0
H650 H 0.0932 0.55729 0.5054 0.0
C651 C 0.18514 0.60922 0.4649 0.0
C652 C 0.53314 0.06464 0.66334 0.0
C653 C 0.51668 0.07654 0.64045 0.0
H654 H 0.56359 0.07904 0.70555 0.0
C655 C 0.51732 0.11258 0.64345 0.0
H656 H 0.53307 0.03703 0.66163 0.0
C657 C 0.535 0.13671 0.66836 0.0
C658 C 0.55235 0.12535 0.691 0.0
H659 H 0.5057 0.12305 0.62599 0.0
H660 H 0.53574 0.16469 0.66958 0.0
C661 C 0.5506 0.08871 0.68845 0.0
C662 C 0.4746 0.57706 0.75177 0.0
C663 C 0.49863 0.61047 0.73343 0.0
H664 H 0.44732 0.55585 0.79374 0.0
C665 C 0.51425 0.64959 0.74431 0.0
H666 H 0.46321 0.54664 0.74426 0.0
C667 C 0.50531 0.65501 0.773 0.0
C668 C 0.48109 0.62139 0.79125 0.0
H669 H 0.5332 0.67585 0.73063 0.0
H670 H 0.51732 0.68539 0.78084 0.0
C671 C 0.46598 0.58244 0.7803 0.0
C672 C 0.90099 0.38638 0.93511 0.0
C673 C 0.88221 0.35832 0.91201 0.0
H674 H 0.89372 0.40226 0.97841 0.0
C675 C 0.84057 0.32366 0.91534 0.0
H676 H 0.93342 0.41303 0.93324 0.0
C677 C 0.81774 0.31756 0.94114 0.0
C678 C 0.83644 0.34571 0.96424 0.0
H679 H 0.82549 0.30157 0.89786 0.0
H680 H 0.78548 0.29072 0.94299 0.0
C681 C 0.87842 0.38005 0.96103 0.0
C682 C 0.49741 0.90584 0.13353 0.0
C683 C 0.48741 0.9357 0.13089 0.0
H684 H 0.50941 0.86979 0.1618 0.0
C685 C 0.48214 0.95248 0.15649 0.0
H686 H 0.50046 0.89123 0.11448 0.0
C687 C 0.48628 0.93925 0.184 0.0
C688 C 0.49638 0.90947 0.18638 0.0
H689 H 0.47489 0.97583 0.15533 0.0
H690 H 0.48152 0.95225 0.20335 0.0
C691 C 0.50229 0.89327 0.16083 0.0
C692 C 0.61339 0.49457 0.26057 0.0
C693 C 0.63618 0.53688 0.25715 0.0
H694 H 0.60731 0.44477 0.28439 0.0
C695 C 0.67071 0.56164 0.27627 0.0
H696 H 0.58723 0.47458 0.24577 0.0
C697 C 0.68269 0.54453 0.29798 0.0
C698 C 0.66024 0.50226 0.3012 0.0
H699 H 0.68873 0.5943 0.27432 0.0
H700 H 0.70956 0.56458 0.3123 0.0
C701 C 0.62522 0.47743 0.28244 0.0
C702 C 0.47428 0.86538 0.38463 0.0
C703 C 0.50363 0.90743 0.38677 0.0
H704 H 0.45058 0.81172 0.35892 0.0
C705 C 0.53351 0.92753 0.36419 0.0
H706 H 0.45118 0.84903 0.4018 0.0
C707 C 0.53326 0.90624 0.33965 0.0
C708 C 0.5032 0.86433 0.33715 0.0
H709 H 0.55619 0.96003 0.36502 0.0
H710 H 0.55597 0.92284 0.32233 0.0
C711 C 0.47418 0.84401 0.36013 0.0
C712 C 0.60072 0.47857 0.4775 0.0
C713 C 0.59107 0.50871 0.47628 0.0
H714 H 0.62405 0.44641 0.45478 0.0
C715 C 0.59886 0.53077 0.45052 0.0
H716 H 0.59544 0.46153 0.49729 0.0
C717 C 0.61465 0.52171 0.42595 0.0
C718 C 0.62396 0.49128 0.42715 0.0
H719 H 0.59198 0.55439 0.44926 0.0
H720 H 0.61945 0.5384 0.40602 0.0
C721 C 0.61746 0.47021 0.45328 0.0
C722 C 0.13519 0.53832 0.66847 0.0
C723 C 0.10475 0.49633 0.66641 0.0
H724 H 0.18356 0.59225 0.64684 0.0
C725 C 0.09873 0.47693 0.63938 0.0
H726 H 0.14124 0.55417 0.68905 0.0
C727 C 0.12335 0.49875 0.61523 0.0
C728 C 0.15457 0.5405 0.61752 0.0
H729 H 0.07525 0.44475 0.63694 0.0
H730 H 0.11831 0.48268 0.59487 0.0
C731 C 0.15973 0.56016 0.64429 0.0
C732 C 0.53861 0.15937 0.87438 0.0
C733 C 0.5506 0.13346 0.88593 0.0
H734 H 0.54414 0.19733 0.83877 0.0
C735 C 0.57869 0.12669 0.86975 0.0
H736 H 0.51722 0.16543 0.88627 0.0
C737 C 0.59449 0.14533 0.84292 0.0
C738 C 0.58209 0.17072 0.83122 0.0
H739 H 0.58762 0.10595 0.87733 0.0
H740 H 0.61572 0.13903 0.83104 0.0
C741 C 0.55404 0.17767 0.8472 0.0
C742 C 0.54056 0.66891 0.98838 0.0
C743 C 0.53335 0.63213 0.99876 0.0
H744 H 0.53433 0.70013 0.95221 0.0
C745 C 0.51722 0.59899 0.97959 0.0
H746 H 0.55336 0.69493 0.00277 0.0
C747 C 0.50727 0.60207 0.95077 0.0
C748 C 0.51258 0.63823 0.94056 0.0
H749 H 0.51211 0.5705 0.98699 0.0
H750 H 0.4941 0.57562 0.93678 0.0
C751 C 0.52982 0.67184 0.95952 0.0
C752 C 0.93813 0.40419 0.15743 0.0
C753 C 0.92083 0.41939 0.1771 0.0
H754 H 0.93208 0.37647 0.1159 0.0
C755 C 0.88227 0.41699 0.16959 0.0
H756 H 0.96829 0.40632 0.16233 0.0
C757 C 0.86165 0.4001 0.14288 0.0
C758 C 0.87926 0.38539 0.12302 0.0
H759 H 0.86807 0.42825 0.18434 0.0
H760 H 0.8321 0.39897 0.13769 0.0
C761 C 0.91755 0.38734 0.1307 0.0
loop_
_geom_bond_atom_site_label_1
_geom_bond_atom_site_label_2
_geom_bond_distance
_geom_bond_site_symmetry_2
_ccdc_geom_bond_type
H0 O26 0.856 . S
H1 O29 0.854 . S
H2 C37 0.930 1_455 S
H3 C38 0.930 . S
H4 C40 0.930 . S
H5 C41 0.930 . S
H6 C43 0.931 . S
H7 C44 0.930 . S
H8 C46 0.930 . S
H9 C47 0.929 . S
H10 C49 0.930 . S
H11 C50 0.931 . S
H12 C52 0.930 . S
H13 C53 0.929 . S
H14 C55 0.931 . S
H15 C56 0.930 . S
H16 C58 0.930 . S
H17 C59 0.932 . S
H18 C61 0.930 . S
H19 C62 0.929 . S
H20 C64 0.931 . S
H21 C65 0.930 . S
H22 C67 0.929 . S
H23 C68 0.931 . S
H24 C70 0.930 . S
H25 C71 0.929 . S
O26 H0 0.856 . S
O26 C72 1.300 . S
O27 C72 1.209 . S
O28 C73 1.199 . S
O29 H1 0.854 . S
O29 C73 1.297 . S
C30 C31 1.404 . S
C30 C35 1.397 . S
C30 C36 1.492 . S
C31 C30 1.404 . S
C31 C32 1.396 . S
C31 C42 1.492 . S
C32 C31 1.396 . S
C32 C33 1.397 . S
C32 C48 1.509 . S
C33 C32 1.397 . S
C33 C34 1.412 . S
C33 C54 1.485 . S
C34 C33 1.412 . S
C34 C35 1.388 . S
C34 C60 1.490 . S
C35 C30 1.397 . S
C35 C34 1.388 . S
C35 C66 1.519 1_455 S
C36 C30 1.492 . S
C36 C37 1.363 1_455 S
C36 C41 1.390 1_455 S
C37 H2 0.930 1_655 S
C37 C36 1.363 1_655 S
C37 C38 1.372 . S
C38 H3 0.930 . S
C38 C37 1.372 . S
C38 C39 1.383 . S
C39 C38 1.383 . S
C39 C40 1.395 . S
C40 H4 0.930 . S
C40 C39 1.395 . S
C40 C41 1.362 . S
C41 H5 0.930 . S
C41 C36 1.390 1_655 S
C41 C40 1.362 . S
C42 C31 1.492 . S
C42 C43 1.377 . S
C42 C47 1.397 . S
C43 H6 0.931 . S
C43 C42 1.377 . S
C43 C44 1.376 . S
C44 H7 0.930 . S
C44 C43 1.376 . S
C44 C45 1.376 . S
C45 C44 1.376 . S
C45 C46 1.378 . S
C45 C72 1.486 . S
C46 H8 0.930 . S
C46 C45 1.378 . S
C46 C47 1.376 . S
C47 H9 0.929 . S
C47 C42 1.397 . S
C47 C46 1.376 . S
C48 C32 1.509 . S
C48 C49 1.391 . S
C48 C53 1.386 . S
C49 H10 0.930 . S
C49 C48 1.391 . S
C49 C50 1.375 . S
C50 H11 0.931 . S
C50 C49 1.375 . S
C50 C51 1.375 . S
C51 C50 1.375 . S
C51 C52 1.361 . S
C52 H12 0.930 . S
C52 C51 1.361 . S
C52 C53 1.399 . S
C53 H13 0.929 . S
C53 C48 1.386 . S
C53 C52 1.399 . S
C54 C33 1.485 . S
C54 C55 1.394 . S
C54 C59 1.360 . S
C55 H14 0.931 . S
C55 C54 1.394 . S
C55 C56 1.372 . S
C56 H15 0.930 . S
C56 C55 1.372 . S
C56 C57 1.397 . S
C57 C56 1.397 . S
C57 C58 1.390 . S
C57 C73 1.476 . S
C58 H16 0.930 . S
C58 C57 1.390 . S
C58 C59 1.366 . S
C59 H17 0.932 . S
C59 C54 1.360 . S
C59 C58 1.366 . S
C60 C34 1.490 . S
C60 C61 1.380 . S
C60 C65 1.386 . S
C61 H18 0.930 . S
C61 C60 1.380 . S
C61 C62 1.381 . S
C62 H19 0.929 . S
C62 C61 1.381 . S
C62 C63 1.371 . S
C63 C62 1.371 . S
C63 C64 1.380 . S
C64 H20 0.931 . S
C64 C63 1.380 . S
C64 C65 1.387 . S
C65 H21 0.930 . S
C65 C60 1.386 . S
C65 C64 1.387 . S
C66 C35 1.519 1_655 S
C66 C67 1.377 . S
C66 C71 1.361 . S
C67 H22 0.929 . S
C67 C66 1.377 . S
C67 C68 1.386 . S
C68 H23 0.931 . S
C68 C67 1.386 . S
C68 C69 1.363 . S
C69 C68 1.363 . S
C69 C70 1.385 . S
C70 H24 0.930 . S
C70 C69 1.385 . S
C70 C71 1.396 . S
C71 H25 0.929 . S
C71 C66 1.361 . S
C71 C70 1.396 . S
C72 O26 1.300 . S
C72 O27 1.209 . S
C72 C45 1.486 . S
C73 O28 1.199 . S
C73 O29 1.297 . S
C73 C57 1.476 . S
H74 O100 0.856 . S
H75 O103 0.854 . S
H76 C111 0.930 1_545 S
H77 C112 0.930 . S
H78 C114 0.930 . S
H79 C115 0.930 . S
H80 C117 0.931 . S
H81 C118 0.930 . S
H82 C120 0.930 . S
H83 C121 0.929 . S
H84 C123 0.930 . S
H85 C124 0.931 . S
H86 C126 0.930 . S
H87 C127 0.929 . S
H88 C129 0.931 . S
H89 C130 0.930 . S
H90 C132 0.930 . S
H91 C133 0.932 . S
H92 C135 0.930 . S
H93 C136 0.929 . S
H94 C138 0.931 . S
H95 C139 0.930 . S
H96 C141 0.929 . S
H97 C142 0.931 . S
H98 C144 0.930 . S
H99 C145 0.929 . S
O100 H74 0.856 . S
O100 C146 1.300 . S
O101 C146 1.209 . S
O102 C147 1.199 . S
O103 H75 0.854 . S
O103 C147 1.297 . S
C104 C105 1.404 . S
C104 C109 1.397 . S
C104 C110 1.492 1_545 S
C105 C104 1.404 . S
C105 C106 1.396 . S
C105 C116 1.492 . S
C106 C105 1.396 . S
C106 C107 1.397 . S
C106 C122 1.509 . S
C107 C106 1.397 . S
C107 C108 1.412 . S
C107 C128 1.485 . S
C108 C107 1.412 . S
C108 C109 1.388 . S
C108 C134 1.490 . S
C109 C104 1.397 . S
C109 C108 1.388 . S
C109 C140 1.519 1_545 S
C110 C104 1.492 1_565 S
C110 C111 1.363 . S
C110 C115 1.390 . S
C111 H76 0.930 1_565 S
C111 C110 1.363 . S
C111 C112 1.372 . S
C112 H77 0.930 . S
C112 C111 1.372 . S
C112 C113 1.383 . S
C113 C112 1.383 . S
C113 C114 1.395 . S
C114 H78 0.930 . S
C114 C113 1.395 . S
C114 C115 1.362 . S
C115 H79 0.930 . S
C115 C110 1.390 . S
C115 C114 1.362 . S
C116 C105 1.492 . S
C116 C117 1.377 . S
C116 C121 1.397 . S
C117 H80 0.931 . S
C117 C116 1.377 . S
C117 C118 1.376 . S
C118 H81 0.930 . S
C118 C117 1.376 . S
C118 C119 1.376 . S
C119 C118 1.376 . S
C119 C120 1.378 . S
C119 C146 1.486 . S
C120 H82 0.930 . S
C120 C119 1.378 . S
C120 C121 1.376 . S
C121 H83 0.929 . S
C121 C116 1.397 . S
C121 C120 1.376 . S
C122 C106 1.509 . S
C122 C123 1.391 . S
C122 C127 1.386 . S
C123 H84 0.930 . S
C123 C122 1.391 . S
C123 C124 1.375 . S
C124 H85 0.931 . S
C124 C123 1.375 . S
C124 C125 1.375 . S
C125 C124 1.375 . S
C125 C126 1.361 . S
C126 H86 0.930 . S
C126 C125 1.361 . S
C126 C127 1.399 . S
C127 H87 0.929 . S
C127 C122 1.386 . S
C127 C126 1.399 . S
C128 C107 1.485 . S
C128 C129 1.394 . S
C128 C133 1.360 . S
C129 H88 0.931 . S
C129 C128 1.394 . S
C129 C130 1.372 . S
C130 H89 0.930 . S
C130 C129 1.372 . S
C130 C131 1.397 . S
C131 C130 1.397 . S
C131 C132 1.390 . S
C131 C147 1.476 . S
C132 H90 0.930 . S
C132 C131 1.390 . S
C132 C133 1.366 . S
C133 H91 0.932 . S
C133 C128 1.360 . S
C133 C132 1.366 . S
C134 C108 1.490 . S
C134 C135 1.380 . S
C134 C139 1.386 . S
C135 H92 0.930 . S
C135 C134 1.380 . S
C135 C136 1.381 . S
C136 H93 0.929 . S
C136 C135 1.381 . S
C136 C137 1.371 . S
C137 C136 1.371 . S
C137 C138 1.380 . S
C138 H94 0.931 . S
C138 C137 1.380 . S
C138 C139 1.387 . S
C139 H95 0.930 . S
C139 C134 1.386 . S
C139 C138 1.387 . S
C140 C109 1.519 1_565 S
C140 C141 1.377 . S
C140 C145 1.361 . S
C141 H96 0.929 . S
C141 C140 1.377 . S
C141 C142 1.386 . S
C142 H97 0.931 . S
C142 C141 1.386 . S
C142 C143 1.363 . S
C143 C142 1.363 . S
C143 C144 1.385 . S
C144 H98 0.930 . S
C144 C143 1.385 . S
C144 C145 1.396 . S
C145 H99 0.929 . S
C145 C140 1.361 . S
C145 C144 1.396 . S
C146 O100 1.300 . S
C146 O101 1.209 . S
C146 C119 1.486 . S
C147 O102 1.199 . S
C147 O103 1.297 . S
C147 C131 1.476 . S
H148 O174 0.856 . S
H149 O177 0.854 . S
H150 C185 0.930 . S
H151 C186 0.930 . S
H152 C188 0.930 . S
H153 C189 0.930 . S
H154 C191 0.931 . S
H155 C192 0.930 . S
H156 C194 0.930 . S
H157 C195 0.929 . S
H158 C197 0.930 . S
H159 C198 0.931 . S
H160 C200 0.930 . S
H161 C201 0.929 . S
H162 C203 0.931 . S
H163 C204 0.930 . S
H164 C206 0.930 . S
H165 C207 0.932 . S
H166 C209 0.930 . S
H167 C210 0.929 . S
H168 C212 0.931 . S
H169 C213 0.930 . S
H170 C215 0.929 . S
H171 C216 0.931 . S
H172 C218 0.930 . S
H173 C219 0.929 . S
O174 H148 0.856 . S
O174 C220 1.300 . S
O175 C220 1.209 . S
O176 C221 1.199 . S
O177 H149 0.854 . S
O177 C221 1.297 . S
C178 C179 1.404 . S
C178 C183 1.397 . S
C178 C184 1.492 . S
C179 C178 1.404 . S
C179 C180 1.396 . S
C179 C190 1.492 . S
C180 C179 1.396 . S
C180 C181 1.397 . S
C180 C196 1.509 . S
C181 C180 1.397 . S
C181 C182 1.412 . S
C181 C202 1.485 . S
C182 C181 1.412 . S
C182 C183 1.388 . S
C182 C208 1.490 . S
C183 C178 1.397 . S
C183 C182 1.388 . S
C183 C214 1.519 . S
C184 C178 1.492 . S
C184 C185 1.363 . S
C184 C189 1.390 . S
C185 H150 0.930 . S
C185 C184 1.363 . S
C185 C186 1.372 . S
C186 H151 0.930 . S
C186 C185 1.372 . S
C186 C187 1.383 . S
C187 C186 1.383 . S
C187 C188 1.395 . S
C188 H152 0.930 . S
C188 C187 1.395 . S
C188 C189 1.362 . S
C189 H153 0.930 . S
C189 C184 1.390 . S
C189 C188 1.362 . S
C190 C179 1.492 . S
C190 C191 1.377 . S
C190 C195 1.397 . S
C191 H154 0.931 . S
C191 C190 1.377 . S
C191 C192 1.376 . S
C192 H155 0.930 . S
C192 C191 1.376 . S
C192 C193 1.376 . S
C193 C192 1.376 . S
C193 C194 1.378 . S
C193 C220 1.486 . S
C194 H156 0.930 . S
C194 C193 1.378 . S
C194 C195 1.376 . S
C195 H157 0.929 . S
C195 C190 1.397 . S
C195 C194 1.376 . S
C196 C180 1.509 . S
C196 C197 1.391 . S
C196 C201 1.386 . S
C197 H158 0.930 . S
C197 C196 1.391 . S
C197 C198 1.375 . S
C198 H159 0.931 . S
C198 C197 1.375 . S
C198 C199 1.375 . S
C199 C198 1.375 . S
C199 C200 1.361 . S
C200 H160 0.930 . S
C200 C199 1.361 . S
C200 C201 1.399 . S
C201 H161 0.929 . S
C201 C196 1.386 . S
C201 C200 1.399 . S
C202 C181 1.485 . S
C202 C203 1.394 . S
C202 C207 1.360 . S
C203 H162 0.931 . S
C203 C202 1.394 . S
C203 C204 1.372 . S
C204 H163 0.930 . S
C204 C203 1.372 . S
C204 C205 1.397 . S
C205 C204 1.397 . S
C205 C206 1.390 . S
C205 C221 1.476 . S
C206 H164 0.930 . S
C206 C205 1.390 . S
C206 C207 1.366 . S
C207 H165 0.932 . S
C207 C202 1.360 . S
C207 C206 1.366 . S
C208 C182 1.490 . S
C208 C209 1.380 . S
C208 C213 1.386 . S
C209 H166 0.930 . S
C209 C208 1.380 . S
C209 C210 1.381 . S
C210 H167 0.929 . S
C210 C209 1.381 . S
C210 C211 1.371 . S
C211 C210 1.371 . S
C211 C212 1.380 . S
C212 H168 0.931 . S
C212 C211 1.380 . S
C212 C213 1.387 . S
C213 H169 0.930 . S
C213 C208 1.386 . S
C213 C212 1.387 . S
C214 C183 1.519 . S
C214 C215 1.377 . S
C214 C219 1.361 . S
C215 H170 0.929 . S
C215 C214 1.377 . S
C215 C216 1.386 . S
C216 H171 0.931 . S
C216 C215 1.386 . S
C216 C217 1.363 . S
C217 C216 1.363 . S
C217 C218 1.385 . S
C218 H172 0.930 . S
C218 C217 1.385 . S
C218 C219 1.396 . S
C219 H173 0.929 . S
C219 C214 1.361 . S
C219 C218 1.396 . S
C220 O174 1.300 . S
C220 O175 1.209 . S
C220 C193 1.486 . S
C221 O176 1.199 . S
C221 O177 1.297 . S
C221 C205 1.476 . S
H222 O248 0.873 . S
H223 O251 0.854 . S
H224 C259 0.930 1_455 S
H225 C260 0.930 . S
H226 C262 0.930 . S
H227 C263 0.930 . S
H228 C265 0.931 . S
H229 C266 0.930 . S
H230 C268 0.930 . S
H231 C269 0.929 . S
H232 C271 0.930 . S
H233 C272 0.931 . S
H234 C274 0.930 . S
H235 C275 0.929 . S
H236 C277 0.931 . S
H237 C278 0.930 . S
H238 C280 0.930 . S
H239 C281 0.932 . S
H240 C283 0.930 . S
H241 C284 0.929 . S
H242 C286 0.931 . S
H243 C287 0.930 . S
H244 C289 0.929 . S
H245 C290 0.931 . S
H246 C292 0.930 . S
H247 C293 0.929 . S
O248 H222 0.873 . S
O248 C294 1.300 . S
O249 C294 1.209 . S
O250 C295 1.199 . S
O251 H223 0.854 . S
O251 C295 1.297 . S
C252 C253 1.404 . S
C252 C257 1.397 . S
C252 C258 1.492 1_455 S
C253 C252 1.404 . S
C253 C254 1.396 . S
C253 C264 1.492 . S
C254 C253 1.396 . S
C254 C255 1.397 . S
C254 C270 1.509 . S
C255 C254 1.397 . S
C255 C256 1.412 . S
C255 C276 1.485 . S
C256 C255 1.412 . S
C256 C257 1.388 . S
C256 C282 1.490 . S
C257 C252 1.397 . S
C257 C256 1.388 . S
C257 C288 1.519 1_455 S
C258 C252 1.492 1_655 S
C258 C259 1.363 . S
C258 C263 1.390 . S
C259 H224 0.930 1_655 S
C259 C258 1.363 . S
C259 C260 1.372 . S
C260 H225 0.930 . S
C260 C259 1.372 . S
C260 C261 1.383 . S
C261 C260 1.383 . S
C261 C262 1.395 . S
C262 H226 0.930 . S
C262 C261 1.395 . S
C262 C263 1.362 . S
C263 H227 0.930 . S
C263 C258 1.390 . S
C263 C262 1.362 . S
C264 C253 1.492 . S
C264 C265 1.377 . S
C264 C269 1.397 . S
C265 H228 0.931 . S
C265 C264 1.377 . S
C265 C266 1.376 . S
C266 H229 0.930 . S
C266 C265 1.376 . S
C266 C267 1.376 . S
C267 C266 1.376 . S
C267 C268 1.378 . S
C267 C294 1.486 . S
C268 H230 0.930 . S
C268 C267 1.378 . S
C268 C269 1.376 . S
C269 H231 0.929 . S
C269 C264 1.397 . S
C269 C268 1.376 . S
C270 C254 1.509 . S
C270 C271 1.391 . S
C270 C275 1.386 . S
C271 H232 0.930 . S
C271 C270 1.391 . S
C271 C272 1.375 . S
C272 H233 0.931 . S
C272 C271 1.375 . S
C272 C273 1.375 . S
C273 C272 1.375 . S
C273 C274 1.361 . S
C274 H234 0.930 . S
C274 C273 1.361 . S
C274 C275 1.399 . S
C275 H235 0.929 . S
C275 C270 1.386 . S
C275 C274 1.399 . S
C276 C255 1.485 . S
C276 C277 1.394 . S
C276 C281 1.360 . S
C277 H236 0.931 . S
C277 C276 1.394 . S
C277 C278 1.372 . S
C278 H237 0.930 . S
C278 C277 1.372 . S
C278 C279 1.397 . S
C279 C278 1.397 . S
C279 C280 1.390 . S
C279 C295 1.476 . S
C280 H238 0.930 . S
C280 C279 1.390 . S
C280 C281 1.366 . S
C281 H239 0.932 . S
C281 C276 1.360 . S
C281 C280 1.366 . S
C282 C256 1.490 . S
C282 C283 1.380 . S
C282 C287 1.386 . S
C283 H240 0.930 . S
C283 C282 1.380 . S
C283 C284 1.381 . S
C284 H241 0.929 . S
C284 C283 1.381 . S
C284 C285 1.371 . S
C285 C284 1.371 . S
C285 C286 1.380 . S
C286 H242 0.931 . S
C286 C285 1.380 . S
C286 C287 1.387 . S
C287 H243 0.930 . S
C287 C282 1.386 . S
C287 C286 1.387 . S
C288 C257 1.519 1_655 S
C288 C289 1.377 . S
C288 C293 1.361 . S
C289 H244 0.929 . S
C289 C288 1.377 . S
C289 C290 1.386 . S
C290 H245 0.931 . S
C290 C289 1.386 . S
C290 C291 1.363 . S
C291 C290 1.363 . S
C291 C292 1.385 . S
C292 H246 0.930 . S
C292 C291 1.385 . S
C292 C293 1.396 . S
C293 H247 0.929 . S
C293 C288 1.361 . S
C293 C292 1.396 . S
C294 O248 1.300 . S
C294 O249 1.209 . S
C294 C267 1.486 . S
C295 O250 1.199 . S
C295 O251 1.297 . S
C295 C279 1.476 . S
H296 O322 0.856 . S
H297 O325 0.854 . S
H298 C333 0.930 . S
H299 C334 0.930 . S
H300 C336 0.930 . S
H301 C337 0.930 . S
H302 C339 0.931 . S
H303 C340 0.930 . S
H304 C342 0.930 . S
H305 C343 0.929 . S
H306 C345 0.930 . S
H307 C346 0.931 . S
H308 C348 0.930 . S
H309 C349 0.929 . S
H310 C351 0.931 . S
H311 C352 0.930 . S
H312 C354 0.930 . S
H313 C355 0.940 . S
H314 C357 0.930 . S
H315 C358 0.915 1_545 S
H316 C360 0.931 . S
H317 C361 0.930 . S
H318 C363 0.929 . S
H319 C364 0.931 . S
H320 C366 0.930 . S
H321 C367 0.929 . S
O322 H296 0.856 . S
O322 C368 1.300 . S
O323 C368 1.209 . S
O324 C369 1.199 . S
O325 H297 0.854 . S
O325 C369 1.297 . S
C326 C327 1.404 1_545 S
C326 C331 1.397 . S
C326 C332 1.492 . S
C327 C326 1.404 1_565 S
C327 C328 1.396 . S
C327 C338 1.492 . S
C328 C327 1.396 . S
C328 C329 1.397 . S
C328 C344 1.509 . S
C329 C328 1.397 . S
C329 C330 1.412 1_556 S
C329 C350 1.485 1_556 S
C330 C329 1.412 1_554 S
C330 C331 1.388 1_564 S
C330 C356 1.490 . S
C331 C326 1.397 . S
C331 C330 1.388 1_546 S
C331 C362 1.519 . S
C332 C326 1.492 . S
C332 C333 1.363 . S
C332 C337 1.390 . S
C333 H298 0.930 . S
C333 C332 1.363 . S
C333 C334 1.372 . S
C334 H299 0.930 . S
C334 C333 1.372 . S
C334 C335 1.383 . S
C335 C334 1.383 . S
C335 C336 1.395 . S
C336 H300 0.930 . S
C336 C335 1.395 . S
C336 C337 1.362 . S
C337 H301 0.930 . S
C337 C332 1.390 . S
C337 C336 1.362 . S
C338 C327 1.492 . S
C338 C339 1.377 . S
C338 C343 1.397 . S
C339 H302 0.931 . S
C339 C338 1.377 . S
C339 C340 1.376 . S
C340 H303 0.930 . S
C340 C339 1.376 . S
C340 C341 1.376 . S
C341 C340 1.376 . S
C341 C342 1.378 . S
C341 C368 1.486 . S
C342 H304 0.930 . S
C342 C341 1.378 . S
C342 C343 1.376 . S
C343 H305 0.929 . S
C343 C338 1.397 . S
C343 C342 1.376 . S
C344 C328 1.509 . S
C344 C345 1.391 . S
C344 C349 1.386 . S
C345 H306 0.930 . S
C345 C344 1.391 . S
C345 C346 1.375 . S
C346 H307 0.931 . S
C346 C345 1.375 . S
C346 C347 1.375 . S
C347 C346 1.375 . S
C347 C348 1.361 . S
C348 H308 0.930 . S
C348 C347 1.361 . S
C348 C349 1.399 . S
C349 H309 0.929 . S
C349 C344 1.386 . S
C349 C348 1.399 . S
C350 C329 1.485 1_554 S
C350 C351 1.394 . S
C350 C355 1.360 . S
C351 H310 0.931 . S
C351 C350 1.394 . S
C351 C352 1.372 . S
C352 H311 0.930 . S
C352 C351 1.372 . S
C352 C353 1.397 . S
C353 C352 1.397 . S
C353 C354 1.390 . S
C353 C369 1.476 . S
C354 H312 0.930 . S
C354 C353 1.390 . S
C354 C355 1.366 . S
C355 H313 0.940 . S
C355 C350 1.360 . S
C355 C354 1.366 . S
C356 C330 1.490 . S
C356 C357 1.380 . S
C356 C361 1.386 . S
C357 H314 0.930 . S
C357 C356 1.380 . S
C357 C358 1.381 . S
C358 H315 0.915 1_565 S
C358 C357 1.381 . S
C358 C359 1.371 . S
C359 C358 1.371 . S
C359 C360 1.380 . S
C360 H316 0.931 . S
C360 C359 1.380 . S
C360 C361 1.387 . S
C361 H317 0.930 . S
C361 C356 1.386 . S
C361 C360 1.387 . S
C362 C331 1.519 . S
C362 C363 1.377 . S
C362 C367 1.361 1_556 S
C363 H318 0.929 . S
C363 C362 1.377 . S
C363 C364 1.386 1_556 S
C364 H319 0.931 . S
C364 C363 1.386 1_554 S
C364 C365 1.363 . S
C365 C364 1.363 . S
C365 C366 1.385 . S
C366 H320 0.930 . S
C366 C365 1.385 . S
C366 C367 1.396 . S
C367 H321 0.929 . S
C367 C362 1.361 1_554 S
C367 C366 1.396 . S
C368 O322 1.300 . S
C368 O323 1.209 . S
C368 C341 1.486 . S
C369 O324 1.199 . S
C369 O325 1.297 . S
C369 C353 1.476 . S
H370 O396 0.856 . S
H371 O399 0.854 . S
H372 C407 0.930 . S
H373 C408 0.930 . S
H374 C410 0.930 . S
H375 C411 0.930 . S
H376 C413 0.931 . S
H377 C414 0.930 . S
H378 C416 0.930 1_556 S
H379 C417 0.929 . S
H380 C419 0.930 . S
H381 C420 0.931 . S
H382 C422 0.930 . S
H383 C423 0.929 . S
H384 C425 0.931 . S
H385 C426 0.930 . S
H386 C428 0.930 . S
H387 C429 0.932 . S
H388 C431 0.930 . S
H389 C432 0.929 . S
H390 C434 0.931 . S
H391 C435 0.930 . S
H392 C437 0.929 . S
H393 C438 0.931 . S
H394 C440 0.930 . S
H395 C441 0.929 . S
O396 H370 0.856 . S
O396 C442 1.300 . S
O397 C442 1.209 . S
O398 C443 1.199 . S
O399 H371 0.854 . S
O399 C443 1.297 . S
C400 C401 1.404 . S
C400 C405 1.397 . S
C400 C406 1.492 . S
C401 C400 1.404 . S
C401 C402 1.396 . S
C401 C412 1.492 . S
C402 C401 1.396 . S
C402 C403 1.397 . S
C402 C418 1.509 . S
C403 C402 1.397 . S
C403 C404 1.412 . S
C403 C424 1.485 . S
C404 C403 1.412 . S
C404 C405 1.388 . S
C404 C430 1.490 . S
C405 C400 1.397 . S
C405 C404 1.388 . S
C405 C436 1.519 . S
C406 C400 1.492 . S
C406 C407 1.363 . S
C406 C411 1.390 . S
C407 H372 0.930 . S
C407 C406 1.363 . S
C407 C408 1.372 . S
C408 H373 0.930 . S
C408 C407 1.372 . S
C408 C409 1.383 . S
C409 C408 1.383 . S
C409 C410 1.395 . S
C410 H374 0.930 . S
C410 C409 1.395 . S
C410 C411 1.362 . S
C411 H375 0.930 . S
C411 C406 1.390 . S
C411 C410 1.362 . S
C412 C401 1.492 . S
C412 C413 1.377 . S
C412 C417 1.397 . S
C413 H376 0.931 . S
C413 C412 1.377 . S
C413 C414 1.376 . S
C414 H377 0.930 . S
C414 C413 1.376 . S
C414 C415 1.376 1_554 S
C415 C414 1.376 1_556 S
C415 C416 1.378 1_556 S
C415 C442 1.486 . S
C416 H378 0.930 1_554 S
C416 C415 1.378 1_554 S
C416 C417 1.376 . S
C417 H379 0.929 . S
C417 C412 1.397 . S
C417 C416 1.376 . S
C418 C402 1.509 . S
C418 C419 1.391 . S
C418 C423 1.386 . S
C419 H380 0.930 . S
C419 C418 1.391 . S
C419 C420 1.375 . S
C420 H381 0.931 . S
C420 C419 1.375 . S
C420 C421 1.375 . S
C421 C420 1.375 . S
C421 C422 1.361 . S
C422 H382 0.930 . S
C422 C421 1.361 . S
C422 C423 1.399 . S
C423 H383 0.929 . S
C423 C418 1.386 . S
C423 C422 1.399 . S
C424 C403 1.485 . S
C424 C425 1.394 . S
C424 C429 1.360 . S
C425 H384 0.931 . S
C425 C424 1.394 . S
C425 C426 1.372 . S
C426 H385 0.930 . S
C426 C425 1.372 . S
C426 C427 1.397 . S
C427 C426 1.397 . S
C427 C428 1.390 . S
C427 C443 1.476 . S
C428 H386 0.930 . S
C428 C427 1.390 . S
C428 C429 1.366 . S
C429 H387 0.932 . S
C429 C424 1.360 . S
C429 C428 1.366 . S
C430 C404 1.490 . S
C430 C431 1.380 . S
C430 C435 1.386 . S
C431 H388 0.930 . S
C431 C430 1.380 . S
C431 C432 1.381 . S
C432 H389 0.929 . S
C432 C431 1.381 . S
C432 C433 1.371 . S
C433 C432 1.371 . S
C433 C434 1.380 . S
C434 H390 0.931 . S
C434 C433 1.380 . S
C434 C435 1.387 . S
C435 H391 0.930 . S
C435 C430 1.386 . S
C435 C434 1.387 . S
C436 C405 1.519 . S
C436 C437 1.377 . S
C436 C441 1.361 . S
C437 H392 0.929 . S
C437 C436 1.377 . S
C437 C438 1.386 . S
C438 H393 0.931 . S
C438 C437 1.386 . S
C438 C439 1.363 . S
C439 C438 1.363 . S
C439 C440 1.385 . S
C440 H394 0.930 . S
C440 C439 1.385 . S
C440 C441 1.396 . S
C441 H395 0.929 . S
C441 C436 1.361 . S
C441 C440 1.396 . S
C442 O396 1.300 . S
C442 O397 1.209 . S
C442 C415 1.486 . S
C443 O398 1.199 . S
C443 O399 1.297 . S
C443 C427 1.476 . S
C444 O445 1.160 . S
C444 O451 1.185 . S
O445 C444 1.160 . S
O446 Zn447 1.899 . S
O446 C454 1.284 . S
Zn447 O446 1.899 . S
Zn447 O448 2.032 . S
Zn447 O451 2.086 . S
Zn447 O456 1.977 . S
O448 Zn447 2.032 . S
O448 C452 1.278 . S
C449 O450 1.203 . S
C449 O456 1.267 . S
O450 C449 1.203 . S
O451 C444 1.185 . S
O451 Zn447 2.086 . S
C452 O448 1.278 . S
C452 O453 1.211 . S
O453 C452 1.211 . S
C454 O446 1.284 . S
C454 O455 1.273 . S
O455 C454 1.273 . S
O456 Zn447 1.977 . S
O456 C449 1.267 . S
C457 O458 1.160 . S
C457 O464 1.185 . S
O458 C457 1.160 . S
O459 Zn460 1.899 . S
O459 C467 1.284 . S
Zn460 O459 1.899 . S
Zn460 O461 2.032 . S
Zn460 O464 2.086 . S
Zn460 O469 1.977 . S
O461 Zn460 2.032 . S
O461 C465 1.278 . S
C462 O463 1.203 . S
C462 O469 1.267 . S
O463 C462 1.203 . S
O464 C457 1.185 . S
O464 Zn460 2.086 . S
C465 O461 1.278 . S
C465 O466 1.211 . S
O466 C465 1.211 . S
C467 O459 1.284 . S
C467 O468 1.273 . S
O468 C467 1.273 . S
O469 Zn460 1.977 . S
O469 C462 1.267 . S
C470 O471 1.160 . S
C470 O477 1.185 . S
O471 C470 1.160 . S
O472 Zn473 1.899 . S
O472 C480 1.284 . S
Zn473 O472 1.899 . S
Zn473 O474 2.032 . S
Zn473 O477 2.086 . S
Zn473 O482 1.977 . S
O474 Zn473 2.032 . S
O474 C478 1.278 . S
C475 O476 1.203 . S
C475 O482 1.267 . S
O476 C475 1.203 . S
O477 C470 1.185 . S
O477 Zn473 2.086 . S
C478 O474 1.278 . S
C478 O479 1.211 . S
O479 C478 1.211 . S
C480 O472 1.284 . S
C480 O481 1.273 . S
O481 C480 1.273 . S
O482 Zn473 1.977 . S
O482 C475 1.267 . S
C483 O484 1.160 . S
C483 O490 1.185 . S
O484 C483 1.160 . S
O485 Zn486 1.899 . S
O485 C493 1.284 . S
Zn486 O485 1.899 . S
Zn486 O487 2.032 . S
Zn486 O490 2.086 . S
Zn486 O495 1.977 . S
O487 Zn486 2.032 . S
O487 C491 1.278 . S
C488 O489 1.203 . S
C488 O495 1.267 . S
O489 C488 1.203 . S
O490 C483 1.185 . S
O490 Zn486 2.086 . S
C491 O487 1.278 . S
C491 O492 1.211 . S
O492 C491 1.211 . S
C493 O485 1.284 . S
C493 O494 1.273 . S
O494 C493 1.273 . S
O495 Zn486 1.977 . S
O495 C488 1.267 . S
C496 O497 1.160 . S
C496 O503 1.185 . S
O497 C496 1.160 . S
O498 Zn499 1.899 . S
O498 C506 1.284 . S
Zn499 O498 1.899 . S
Zn499 O500 2.032 . S
Zn499 O503 2.086 . S
Zn499 O508 1.977 . S
O500 Zn499 2.032 . S
O500 C504 1.278 . S
C501 O502 1.203 . S
C501 O508 1.267 . S
O502 C501 1.203 . S
O503 C496 1.185 . S
O503 Zn499 2.086 . S
C504 O500 1.278 . S
C504 O505 1.211 . S
O505 C504 1.211 . S
C506 O498 1.284 . S
C506 O507 1.273 . S
O507 C506 1.273 . S
O508 Zn499 1.977 . S
O508 C501 1.267 . S
C509 O510 1.160 . S
C509 O516 1.185 . S
O510 C509 1.160 . S
O511 Zn512 1.899 . S
O511 C519 1.284 . S
Zn512 O511 1.899 . S
Zn512 O513 2.032 . S
Zn512 O516 2.086 . S
Zn512 O521 1.977 . S
O513 Zn512 2.032 . S
O513 C517 1.278 . S
C514 O515 1.203 . S
C514 O521 1.267 . S
O515 C514 1.203 . S
O516 C509 1.185 . S
O516 Zn512 2.086 . S
C517 O513 1.278 . S
C517 O518 1.211 . S
O518 C517 1.211 . S
C519 O511 1.284 . S
C519 O520 1.273 . S
O520 C519 1.273 . S
O521 Zn512 1.977 . S
O521 C514 1.267 . S
C522 C523 1.387 . S
C522 H526 0.950 . S
C522 C531 1.390 . S
C523 C522 1.387 . S
C523 C525 1.387 . S
H524 C531 0.950 . S
C525 C523 1.387 . S
C525 C527 1.390 . S
C525 H529 0.950 . S
H526 C522 0.950 . S
C527 C525 1.390 . S
C527 C528 1.387 . S
C527 H530 0.950 . S
C528 C527 1.387 . S
C528 C531 1.387 . S
H529 C525 0.950 . S
H530 C527 0.950 . S
C531 C522 1.390 . S
C531 H524 0.950 . S
C531 C528 1.387 . S
C532 C533 1.387 . S
C532 H536 0.950 . S
C532 C541 1.390 . S
C533 C532 1.387 . S
C533 C535 1.387 . S
H534 C541 0.950 . S
C535 C533 1.387 . S
C535 C537 1.390 . S
C535 H539 0.950 . S
H536 C532 0.950 . S
C537 C535 1.390 . S
C537 C538 1.387 . S
C537 H540 0.950 . S
C538 C537 1.387 . S
C538 C541 1.387 . S
H539 C535 0.950 . S
H540 C537 0.950 . S
C541 C532 1.390 . S
C541 H534 0.950 . S
C541 C538 1.387 . S
C542 C543 1.387 . S
C542 H546 0.950 . S
C542 C551 1.390 . S
C543 C542 1.387 . S
C543 C545 1.387 . S
H544 C551 0.950 . S
C545 C543 1.387 . S
C545 C547 1.390 . S
C545 H549 0.950 . S
H546 C542 0.950 . S
C547 C545 1.390 . S
C547 C548 1.387 . S
C547 H550 0.950 . S
C548 C547 1.387 . S
C548 C551 1.387 . S
H549 C545 0.950 . S
H550 C547 0.950 . S
C551 C542 1.390 . S
C551 H544 0.950 . S
C551 C548 1.387 . S
C552 C553 1.387 . S
C552 H556 0.950 . S
C552 C561 1.390 . S
C553 C552 1.387 . S
C553 C555 1.387 . S
H554 C561 0.950 . S
C555 C553 1.387 . S
C555 C557 1.390 . S
C555 H559 0.950 . S
H556 C552 0.950 . S
C557 C555 1.390 . S
C557 C558 1.387 . S
C557 H560 0.950 . S
C558 C557 1.387 . S
C558 C561 1.387 . S
H559 C555 0.950 . S
H560 C557 0.950 . S
C561 C552 1.390 . S
C561 H554 0.950 . S
C561 C558 1.387 . S
C562 C563 1.387 . S
C562 H566 0.950 . S
C562 C571 1.390 . S
C563 C562 1.387 . S
C563 C565 1.387 . S
H564 C571 0.950 . S
C565 C563 1.387 . S
C565 C567 1.390 . S
C565 H569 0.950 . S
H566 C562 0.950 . S
C567 C565 1.390 . S
C567 C568 1.387 . S
C567 H570 0.950 . S
C568 C567 1.387 . S
C568 C571 1.387 . S
H569 C565 0.950 . S
H570 C567 0.950 . S
C571 C562 1.390 . S
C571 H564 0.950 . S
C571 C568 1.387 . S
C572 C573 1.387 . S
C572 H576 0.950 . S
C572 C581 1.390 . S
C573 C572 1.387 . S
C573 C575 1.387 . S
H574 C581 0.950 . S
C575 C573 1.387 . S
C575 C577 1.390 . S
C575 H579 0.950 . S
H576 C572 0.950 . S
C577 C575 1.390 . S
C577 C578 1.387 . S
C577 H580 0.950 . S
C578 C577 1.387 . S
C578 C581 1.387 . S
H579 C575 0.950 . S
H580 C577 0.950 . S
C581 C572 1.390 . S
C581 H574 0.950 . S
C581 C578 1.387 . S
C582 C583 1.387 . S
C582 H586 0.950 . S
C582 C591 1.390 . S
C583 C582 1.387 . S
C583 C585 1.387 . S
H584 C591 0.950 . S
C585 C583 1.387 . S
C585 C587 1.390 . S
C585 H589 0.950 . S
H586 C582 0.950 . S
C587 C585 1.390 . S
C587 C588 1.387 . S
C587 H590 0.950 . S
C588 C587 1.387 . S
C588 C591 1.387 . S
H589 C585 0.950 . S
H590 C587 0.950 . S
C591 C582 1.390 . S
C591 H584 0.950 . S
C591 C588 1.387 . S
C592 C593 1.387 . S
C592 H596 0.950 . S
C592 C601 1.390 . S
C593 C592 1.387 . S
C593 C595 1.387 . S
H594 C601 0.950 . S
C595 C593 1.387 . S
C595 C597 1.390 . S
C595 H599 0.950 . S
H596 C592 0.950 . S
C597 C595 1.390 . S
C597 C598 1.387 . S
C597 H600 0.950 . S
C598 C597 1.387 . S
C598 C601 1.387 . S
H599 C595 0.950 . S
H600 C597 0.950 . S
C601 C592 1.390 . S
C601 H594 0.950 . S
C601 C598 1.387 . S
C602 C603 1.387 . S
C602 H606 0.950 . S
C602 C611 1.390 . S
C603 C602 1.387 . S
C603 C605 1.387 . S
H604 C611 0.950 . S
C605 C603 1.387 . S
C605 C607 1.390 . S
C605 H609 0.950 . S
H606 C602 0.950 . S
C607 C605 1.390 . S
C607 C608 1.387 . S
C607 H610 0.950 . S
C608 C607 1.387 . S
C608 C611 1.387 . S
H609 C605 0.950 . S
H610 C607 0.950 . S
C611 C602 1.390 . S
C611 H604 0.950 . S
C611 C608 1.387 . S
C612 C613 1.387 . S
C612 H616 0.950 . S
C612 C621 1.390 . S
C613 C612 1.387 . S
C613 C615 1.387 . S
H614 C621 0.950 . S
C615 C613 1.387 . S
C615 C617 1.390 . S
C615 H619 0.950 1_554 S
H616 C612 0.950 . S
C617 C615 1.390 . S
C617 C618 1.387 . S
C617 H620 0.920 1_554 S
C618 C617 1.387 . S
C618 C621 1.387 . S
H619 C615 0.950 1_556 S
H620 C617 0.920 1_556 S
C621 C612 1.390 . S
C621 H614 0.950 . S
C621 C618 1.387 . S
C622 C623 1.387 . S
C622 H626 0.950 . S
C622 C631 1.390 . S
C623 C622 1.387 . S
C623 C625 1.387 . S
H624 C631 0.950 . S
C625 C623 1.387 . S
C625 C627 1.390 . S
C625 H629 0.950 . S
H626 C622 0.950 . S
C627 C625 1.390 . S
C627 C628 1.387 . S
C627 H630 0.950 . S
C628 C627 1.387 . S
C628 C631 1.387 . S
H629 C625 0.950 . S
H630 C627 0.950 . S
C631 C622 1.390 . S
C631 H624 0.950 . S
C631 C628 1.387 . S
C632 C633 1.387 . S
C632 H636 0.950 . S
C632 C641 1.390 . S
C633 C632 1.387 . S
C633 C635 1.387 . S
H634 C641 0.950 . S
C635 C633 1.387 . S
C635 C637 1.390 . S
C635 H639 0.950 . S
H636 C632 0.950 . S
C637 C635 1.390 . S
C637 C638 1.387 . S
C637 H640 0.950 . S
C638 C637 1.387 . S
C638 C641 1.387 . S
H639 C635 0.950 . S
H640 C637 0.950 . S
C641 C632 1.390 . S
C641 H634 0.950 . S
C641 C638 1.387 . S
C642 C643 1.387 . S
C642 H646 0.950 . S
C642 C651 1.390 . S
C643 C642 1.387 . S
C643 C645 1.387 . S
H644 C651 0.950 . S
C645 C643 1.387 . S
C645 C647 1.390 . S
C645 H649 0.950 . S
H646 C642 0.950 . S
C647 C645 1.390 . S
C647 C648 1.387 . S
C647 H650 0.950 . S
C648 C647 1.387 . S
C648 C651 1.387 . S
H649 C645 0.950 . S
H650 C647 0.950 . S
C651 C642 1.390 . S
C651 H644 0.950 . S
C651 C648 1.387 . S
C652 C653 1.387 . S
C652 H656 0.950 . S
C652 C661 1.390 . S
C653 C652 1.387 . S
C653 C655 1.387 . S
H654 C661 0.950 . S
C655 C653 1.387 . S
C655 C657 1.390 . S
C655 H659 0.950 . S
H656 C652 0.950 . S
C657 C655 1.390 . S
C657 C658 1.387 . S
C657 H660 0.950 . S
C658 C657 1.387 . S
C658 C661 1.387 . S
H659 C655 0.950 . S
H660 C657 0.950 . S
C661 C652 1.390 . S
C661 H654 0.950 . S
C661 C658 1.387 . S
C662 C663 1.387 . S
C662 H666 0.950 . S
C662 C671 1.390 . S
C663 C662 1.387 . S
C663 C665 1.387 . S
H664 C671 0.950 . S
C665 C663 1.387 . S
C665 C667 1.390 . S
C665 H669 0.950 . S
H666 C662 0.950 . S
C667 C665 1.390 . S
C667 C668 1.387 . S
C667 H670 0.950 . S
C668 C667 1.387 . S
C668 C671 1.387 . S
H669 C665 0.950 . S
H670 C667 0.950 . S
C671 C662 1.390 . S
C671 H664 0.950 . S
C671 C668 1.387 . S
C672 C673 1.387 . S
C672 H676 0.950 . S
C672 C681 1.390 . S
C673 C672 1.387 . S
C673 C675 1.387 . S
H674 C681 0.950 . S
C675 C673 1.387 . S
C675 C677 1.390 . S
C675 H679 0.950 . S
H676 C672 0.950 . S
C677 C675 1.390 . S
C677 C678 1.387 . S
C677 H680 0.950 . S
C678 C677 1.387 . S
C678 C681 1.387 . S
H679 C675 0.950 . S
H680 C677 0.950 . S
C681 C672 1.390 . S
C681 H674 0.950 . S
C681 C678 1.387 . S
C682 C683 1.387 . S
C682 H686 0.950 . S
C682 C691 1.390 . S
C683 C682 1.387 . S
C683 C685 1.387 . S
H684 C691 0.950 . S
C685 C683 1.387 . S
C685 C687 1.390 . S
C685 H689 0.950 . S
H686 C682 0.950 . S
C687 C685 1.390 . S
C687 C688 1.387 . S
C687 H690 0.950 . S
C688 C687 1.387 . S
C688 C691 1.387 . S
H689 C685 0.950 . S
H690 C687 0.950 . S
C691 C682 1.390 . S
C691 H684 0.950 . S
C691 C688 1.387 . S
C692 C693 1.387 . S
C692 H696 0.950 . S
C692 C701 1.390 . S
C693 C692 1.387 . S
C693 C695 1.387 . S
H694 C701 0.950 . S
C695 C693 1.387 . S
C695 C697 1.390 . S
C695 H699 0.950 . S
H696 C692 0.950 . S
C697 C695 1.390 . S
C697 C698 1.387 . S
C697 H700 0.950 . S
C698 C697 1.387 . S
C698 C701 1.387 . S
H699 C695 0.950 . S
H700 C697 0.950 . S
C701 C692 1.390 . S
C701 H694 0.950 . S
C701 C698 1.387 . S
C702 C703 1.387 . S
C702 H706 0.950 . S
C702 C711 1.390 . S
C703 C702 1.387 . S
C703 C705 1.387 . S
H704 C711 0.950 . S
C705 C703 1.387 . S
C705 C707 1.390 . S
C705 H709 0.950 . S
H706 C702 0.950 . S
C707 C705 1.390 . S
C707 C708 1.387 . S
C707 H710 0.950 . S
C708 C707 1.387 . S
C708 C711 1.387 . S
H709 C705 0.950 . S
H710 C707 0.950 . S
C711 C702 1.390 . S
C711 H704 0.950 . S
C711 C708 1.387 . S
C712 C713 1.387 . S
C712 H716 0.950 . S
C712 C721 1.390 . S
C713 C712 1.387 . S
C713 C715 1.387 . S
H714 C721 0.950 . S
C715 C713 1.387 . S
C715 C717 1.390 . S
C715 H719 0.950 . S
H716 C712 0.950 . S
C717 C715 1.390 . S
C717 C718 1.387 . S
C717 H720 0.950 . S
C718 C717 1.387 . S
C718 C721 1.387 . S
H719 C715 0.950 . S
H720 C717 0.950 . S
C721 C712 1.390 . S
C721 H714 0.950 . S
C721 C718 1.387 . S
C722 C723 1.387 . S
C722 H726 0.950 . S
C722 C731 1.390 . S
C723 C722 1.387 . S
C723 C725 1.387 . S
H724 C731 0.950 . S
C725 C723 1.387 . S
C725 C727 1.390 . S
C725 H729 0.950 . S
H726 C722 0.950 . S
C727 C725 1.390 . S
C727 C728 1.387 . S
C727 H730 0.950 . S
C728 C727 1.387 . S
C728 C731 1.387 . S
H729 C725 0.950 . S
H730 C727 0.950 . S
C731 C722 1.390 . S
C731 H724 0.950 . S
C731 C728 1.387 . S
C732 C733 1.387 . S
C732 H736 0.950 . S
C732 C741 1.390 . S
C733 C732 1.387 . S
C733 C735 1.387 . S
H734 C741 0.950 . S
C735 C733 1.387 . S
C735 C737 1.390 . S
C735 H739 0.950 . S
H736 C732 0.950 . S
C737 C735 1.390 . S
C737 C738 1.387 . S
C737 H740 0.950 . S
C738 C737 1.387 . S
C738 C741 1.387 . S
H739 C735 0.950 . S
H740 C737 0.950 . S
C741 C732 1.390 . S
C741 H734 0.950 . S
C741 C738 1.387 . S
C742 C743 1.387 . S
C742 H746 0.950 . S
C742 C751 1.390 1_554 S
C743 C742 1.387 . S
C743 C745 1.387 . S
H744 C751 0.950 . S
C745 C743 1.387 . S
C745 C747 1.390 1_554 S
C745 H749 0.950 . S
H746 C742 0.950 . S
C747 C745 1.390 1_556 S
C747 C748 1.387 . S
C747 H750 0.950 . S
C748 C747 1.387 . S
C748 C751 1.387 . S
H749 C745 0.950 . S
H750 C747 0.950 . S
C751 C742 1.390 1_556 S
C751 H744 0.950 . S
C751 C748 1.387 . S
C752 C753 1.387 . S
C752 H756 0.950 . S
C752 C761 1.390 . S
C753 C752 1.387 . S
C753 C755 1.387 . S
H754 C761 0.950 . S
C755 C753 1.387 . S
C755 C757 1.390 . S
C755 H759 0.950 . S
H756 C752 0.950 . S
C757 C755 1.390 . S
C757 C758 1.387 . S
C757 H760 0.950 . S
C758 C757 1.387 . S
C758 C761 1.387 . S
H759 C755 0.950 . S
H760 C757 0.950 . S
C761 C752 1.390 . S
C761 H754 0.950 . S
C761 C758 1.387 . S
C528 C519 1.434 . S
C523 C51 1.388 . S
C533 C125 1.522 . S
C538 C444 1.416 . S
C543 C217 2.501 . S
C548 C467 2.557 . S
C553 C291 1.506 . S
C558 C480 1.503 . S
C568 C483 1.019 . S
C563 C347 1.089 . S
C573 C421 0.955 . S
C578 C496 0.944 . S
C583 C143 2.189 . S
C588 C457 2.065 . S
C593 C199 1.559 . S
C598 C470 1.472 . S
C603 C273 0.684 . S
C608 C493 0.683 . S
C618 C506 1.731 . S
C613 C365 1.673 . S
C628 C509 1.764 . S
C623 C439 1.934 . S
C638 C454 2.414 . S
C633 C69 2.376 . S
C643 C63 1.504 . S
C648 C465 1.601 . S
C653 C137 1.551 . S
C658 C478 1.632 . S
C668 C488 1.399 . S
C663 C187 1.360 . S
C673 C261 1.495 . S
C678 C501 1.489 1_556 S
C688 C517 1.668 . S
C683 C359 1.523 . S
C698 C449 1.301 . S
C693 C433 1.210 . S
C708 C514 1.559 . S
C703 C113 1.667 . S
C713 C211 1.431 . S
C718 C452 1.530 . S
C728 C462 1.692 . S
C723 C285 1.622 . S
C733 C335 1.418 . S
C738 C475 1.522 . S
C743 C409 1.322 . S
C748 C491 1.428 . S
C753 C39 1.645 . S
C758 C504 1.704 . S
