# Generated by pormake.
# Topology anh, (6,3)-cn, num edge types: 1
# Building blocks:
#     Node 0, Type 0, BuildingBlock: HISSIN_clean_sbu_0, # of connection points: 6
#     Node 1, Type 0, BuildingBlock: HISSIN_clean_sbu_0, # of connection points: 6
#     Node 2, Type 0, BuildingBlock: HISSIN_clean_sbu_0, # of connection points: 6
#     Node 3, Type 1, BuildingBlock: BELTOD_clean_linker_0, # of connection points: 3
#     Node 4, Type 1, BuildingBlock: BELTOD_clean_linker_0, # of connection points: 3
#     Node 5, Type 1, BuildingBlock: BELTOD_clean_linker_0, # of connection points: 3
#     Node 6, Type 1, BuildingBlock: BELTOD_clean_linker_0, # of connection points: 3
#     Node 7, Type 1, BuildingBlock: BELTOD_clean_linker_0, # of connection points: 3
#     Node 8, Type 1, BuildingBlock: BELTOD_clean_linker_0, # of connection points: 3
#     Edge 9, Type (0, 1), BuildingBlock: UVAHIK_clean_linker_0, # of connection points: 2
#     Edge 10, Type (0, 1), BuildingBlock: UVAHIK_clean_linker_0, # of connection points: 2
#     Edge 11, Type (0, 1), BuildingBlock: UVAHIK_clean_linker_0, # of connection points: 2
#     Edge 12, Type (0, 1), BuildingBlock: UVAHIK_clean_linker_0, # of connection points: 2
#     Edge 13, Type (0, 1), BuildingBlock: UVAHIK_clean_linker_0, # of connection points: 2
#     Edge 14, Type (0, 1), BuildingBlock: UVAHIK_clean_linker_0, # of connection points: 2
#     Edge 15, Type (0, 1), BuildingBlock: UVAHIK_clean_linker_0, # of connection points: 2
#     Edge 16, Type (0, 1), BuildingBlock: UVAHIK_clean_linker_0, # of connection points: 2
#     Edge 17, Type (0, 1), BuildingBlock: UVAHIK_clean_linker_0, # of connection points: 2
#     Edge 18, Type (0, 1), BuildingBlock: UVAHIK_clean_linker_0, # of connection points: 2
#     Edge 19, Type (0, 1), BuildingBlock: UVAHIK_clean_linker_0, # of connection points: 2
#     Edge 20, Type (0, 1), BuildingBlock: UVAHIK_clean_linker_0, # of connection points: 2
#     Edge 21, Type (0, 1), BuildingBlock: UVAHIK_clean_linker_0, # of connection points: 2
#     Edge 22, Type (0, 1), BuildingBlock: UVAHIK_clean_linker_0, # of connection points: 2
#     Edge 23, Type (0, 1), BuildingBlock: UVAHIK_clean_linker_0, # of connection points: 2
#     Edge 24, Type (0, 1), BuildingBlock: UVAHIK_clean_linker_0, # of connection points: 2
#     Edge 25, Type (0, 1), BuildingBlock: UVAHIK_clean_linker_0, # of connection points: 2
#     Edge 26, Type (0, 1), BuildingBlock: UVAHIK_clean_linker_0, # of connection points: 2
# Relax obj value: 0.200
# Max RMSD: 0.177
# Mean RMSD: 0.141
data_MOF--net-anh--node1-HISSIN_clean_sbu_0--node2-BELTOD_clean_linker_0--edge1-UVAHIK_clean_linker_0
_symmetry_space_group_name_H-M    P1
_symmetry_Int_Tables_number       1
_symmetry_cell_setting            triclinic
loop_
_symmetry_equiv_pos_as_xyz
'x, y, z'
_cell_length_a     43.035629
_cell_length_b     42.902543
_cell_length_c     76.466503
_cell_angle_alpha  92.498482
_cell_angle_beta   88.978794
_cell_angle_gamma 120.12807
loop_
_atom_site_label
_atom_site_type_symbol
_atom_site_fract_x
_atom_site_fract_y
_atom_site_fract_z
_atom_type_partial_charge
Eu0 Eu 1.03817 0.52911 0.15725 0.0
Eu1 Eu 0.08124 0.61438 0.16935 0.0
C2 C 1.04882 0.55462 0.1977 0.0
C3 C 0.96778 0.44071 0.13634 0.0
C4 C 0.93938 0.44749 0.13919 0.0
C5 C 0.93056 0.39197 0.11562 0.0
C6 C 0.90641 0.42588 0.13081 0.0
C7 C 0.9635 0.41347 0.12417 0.0
C8 C 0.90126 0.39724 0.11923 0.0
C9 C 1.00179 0.46197 0.14599 0.0
O10 O 0.12378 0.59784 0.17127 0.0
O11 O 0.0963 0.54353 0.15566 0.0
C12 C 0.12486 0.57047 0.16332 0.0
O13 O 1.04387 0.56146 0.13357 0.0
O14 O 0.11342 0.65819 0.18818 0.0
O15 O 0.09788 0.6699 0.16357 0.0
O16 O 0.09742 0.60945 0.14192 0.0
C17 C 0.07413 0.59029 0.12963 0.0
O18 O 0.9938 0.54193 0.16249 0.0
O19 O 1.02597 0.60362 0.16125 0.0
O20 O 1.05031 0.58417 0.19273 0.0
O21 O 1.02817 0.48707 0.13729 0.0
O22 O 0.99947 0.47291 0.16191 0.0
O23 O 1.05143 0.53246 0.18612 0.0
C24 C 0.15628 0.70888 0.17375 0.0
C25 C 0.17136 0.74541 0.1787 0.0
C26 C 0.21416 0.72 0.16302 0.0
C27 C 0.20796 0.76918 0.17601 0.0
C28 C 0.17767 0.69646 0.16559 0.0
C29 C 0.22991 0.75656 0.16844 0.0
C30 C 0.11858 0.68311 0.17737 0.0
C31 C 0.99508 0.57305 0.16131 0.0
H32 H 0.94231 0.46878 0.14835 0.0
H33 H 0.92772 0.37055 0.10658 0.0
H34 H 0.88448 0.43052 0.13416 0.0
H35 H 0.98539 0.40832 0.12156 0.0
H36 H 0.15502 0.7554 0.18488 0.0
H37 H 0.23023 0.70914 0.15744 0.0
H38 H 0.21916 0.79727 0.1801 0.0
H39 H 0.16629 0.66829 0.16158 0.0
Eu40 Eu 0.55684 1.01466 0.49726 0.0
Eu41 Eu 0.51013 0.05525 0.50182 0.0
C42 C 0.53088 1.02573 0.53543 0.0
C43 C 0.58746 0.94377 0.49384 0.0
C44 C 0.59488 0.93401 0.50988 0.0
C45 C 0.57876 0.88751 0.48038 0.0
C46 C 0.59477 0.90157 0.51107 0.0
C47 C 0.57893 0.91997 0.47917 0.0
C48 C 0.58739 0.8783 0.49625 0.0
C49 C 0.59154 0.97975 0.49187 0.0
O50 O 0.56703 0.10005 0.4966 0.0
O51 O 0.59879 0.07287 0.50425 0.0
C52 C 0.59762 0.10198 0.5005 0.0
O53 O 0.56635 1.04632 0.47326 0.0
O54 O 0.49879 0.09389 0.51572 0.0
O55 O 0.46954 0.06657 0.49197 0.0
O56 O 0.51156 1.04202 0.47298 0.0
C57 C 0.54085 1.04754 0.46489 0.0
O58 O 0.49883 0.97273 0.49031 0.0
O59 O 0.4688 0.9967 0.50549 0.0
O60 O 0.52545 0.05078 0.52932 0.0
O61 O 0.57143 0.98228 0.48009 0.0
O62 O 0.59513 0.99942 0.50606 0.0
O63 O 0.53678 1.00421 0.52495 0.0
C64 C 0.49356 0.12961 0.49525 0.0
C65 C 0.51214 0.13652 0.47927 0.0
C66 C 0.519 0.19399 0.50075 0.0
C67 C 0.53495 0.17189 0.4744 0.0
C68 C 0.496 0.15854 0.50558 0.0
C69 C 0.53996 0.20103 0.4855 0.0
C70 C 0.47932 0.09413 0.50293 0.0
C71 C 0.46897 0.96928 0.49719 0.0
H72 H 0.6019 0.95189 0.52139 0.0
H73 H 0.57264 0.86999 0.46877 0.0
H74 H 0.60209 0.89555 0.52343 0.0
H75 H 0.57335 0.92687 0.4666 0.0
H76 H 0.51115 0.11474 0.47112 0.0
H77 H 0.52243 0.21577 0.5097 0.0
H78 H 0.55024 0.1764 0.46244 0.0
H79 H 0.48238 0.15384 0.51806 0.0
Eu80 Eu 0.51324 0.49498 0.8289 0.0
Eu81 Eu 0.59908 0.53818 0.83754 0.0
C82 C 0.54221 0.51479 0.86823 0.0
C83 C 0.42624 0.48448 0.81504 0.0
C84 C 0.44587 0.52117 0.81141 0.0
C85 C 0.37101 0.48626 0.81308 0.0
C86 C 0.42839 0.54071 0.80944 0.0
C87 C 0.38869 0.46681 0.81534 0.0
C88 C 0.39077 0.5238 0.81086 0.0
C89 C 0.44546 0.46659 0.8208 0.0
O90 O 0.58332 0.47919 0.83899 0.0
O91 O 0.52627 0.45003 0.82705 0.0
C92 C 0.55476 0.44969 0.83281 0.0
O93 O 0.54375 0.5183 0.80382 0.0
O94 O 0.64407 0.54847 0.85434 0.0
O95 O 0.65317 0.58045 0.83151 0.0
O96 O 0.59292 0.5145 0.81045 0.0
C97 C 0.57228 0.51666 0.79885 0.0
O98 O 0.52737 0.55291 0.83447 0.0
O99 O 0.58721 0.58064 0.82801 0.0
O100 O 0.57117 0.54187 0.86188 0.0
O101 O 0.46936 0.46693 0.80996 0.0
O102 O 0.45779 0.47556 0.83677 0.0
O103 O 0.51894 0.48859 0.85776 0.0
C104 C 0.69836 0.56758 0.83903 0.0
C105 C 0.70139 0.55557 0.82202 0.0
C106 C 0.75535 0.57326 0.84676 0.0
C107 C 0.73172 0.55323 0.81732 0.0
C108 C 0.72526 0.57592 0.8514 0.0
C109 C 0.75912 0.56237 0.82962 0.0
C110 C 0.66781 0.57228 0.84401 0.0
C111 C 0.55749 0.5819 0.83038 0.0
H112 H 0.47495 0.53524 0.8111 0.0
H113 H 0.34198 0.47216 0.81385 0.0
H114 H 0.44474 0.56954 0.80802 0.0
H115 H 0.37316 0.43843 0.81809 0.0
H116 H 0.68065 0.54857 0.8123 0.0
H117 H 0.77631 0.58101 0.85645 0.0
H118 H 0.73391 0.54461 0.80405 0.0
H119 H 0.7233 0.58515 0.86458 0.0
P120 P 0.68162 0.06995 0.2303 0.0
H121 H 0.68199 1.03807 0.19607 0.0
H122 H 0.63564 0.98464 0.17976 0.0
H123 H 0.56899 0.95365 0.22581 0.0
H124 H 0.61385 1.00732 0.24165 0.0
H125 H 0.7351 0.14161 0.21903 0.0
H126 H 0.73154 0.1833 0.1995 0.0
H127 H 0.61727 0.11072 0.19347 0.0
H128 H 0.62102 0.06916 0.21314 0.0
H129 H 0.67292 1.02784 0.26076 0.0
H130 H 0.66449 0.12092 0.24915 0.0
O131 O 0.72342 0.07697 0.2298 0.0
H132 H 0.65075 1.02885 0.29048 0.0
H133 H 0.64367 0.12262 0.27897 0.0
C134 C 0.65184 1.0264 0.2202 0.0
C135 C 0.65782 1.01916 0.20278 0.0
C136 C 0.63144 0.9888 0.19347 0.0
C137 C 0.59914 0.96496 0.20166 0.0
C138 C 0.59408 0.97125 0.21936 0.0
C139 C 0.61994 1.00201 0.22848 0.0
C140 C 0.67855 0.102 0.21714 0.0
C141 C 0.70928 0.1348 0.21361 0.0
C142 C 0.70709 0.1587 0.20257 0.0
C143 C 0.67408 0.15014 0.19492 0.0
C144 C 0.64307 0.11779 0.19904 0.0
C145 C 0.64525 0.09407 0.21023 0.0
C146 C 0.66959 0.07375 0.25264 0.0
C147 C 0.6667 0.04867 0.26466 0.0
C148 C 0.65402 0.04919 0.28154 0.0
C149 C 0.64534 0.07563 0.28679 0.0
C150 C 0.65013 0.10194 0.27509 0.0
C151 C 0.66196 0.10088 0.25806 0.0
P152 P 0.80366 0.6374 0.57911 0.0
H153 H 0.845 0.62674 0.55114 0.0
H154 H 0.8329 0.57372 0.53249 0.0
H155 H 0.7373 0.50848 0.56237 0.0
H156 H 0.74891 0.56125 0.58053 0.0
H157 H 0.82335 0.697 0.55564 0.0
H158 H 0.78701 0.71496 0.53909 0.0
H159 H 0.6903 0.62372 0.55808 0.0
H160 H 0.72672 0.60622 0.57467 0.0
H161 H 0.79887 0.58708 0.60542 0.0
H162 H 0.77138 0.67037 0.60151 0.0
O163 O 0.84679 0.6697 0.57984 0.0
H164 H 0.76788 0.57064 0.63358 0.0
H165 H 0.74046 0.65412 0.62956 0.0
C166 C 0.79863 0.59764 0.56766 0.0
C167 C 0.82198 0.60079 0.55394 0.0
C168 C 0.81495 0.57063 0.54323 0.0
C169 C 0.7845 0.53695 0.54618 0.0
C170 C 0.76148 0.5339 0.56009 0.0
C171 C 0.76821 0.56407 0.57055 0.0
C172 C 0.77765 0.65077 0.56663 0.0
C173 C 0.79435 0.68095 0.55624 0.0
C174 C 0.77356 0.69097 0.54668 0.0
C175 C 0.73581 0.67082 0.54739 0.0
C176 C 0.7193 0.64004 0.55748 0.0
C177 C 0.74007 0.63 0.56693 0.0
C178 C 0.78605 0.62887 0.60103 0.0
C179 C 0.78621 0.60184 0.61061 0.0
C180 C 0.76846 0.59244 0.62667 0.0
C181 C 0.75113 0.61063 0.63359 0.0
C182 C 0.75342 0.63951 0.62454 0.0
C183 C 0.77089 0.64865 0.60844 0.0
P184 P 0.19891 0.79089 0.90514 0.0
H185 H 0.24752 0.82183 0.87592 0.0
H186 H 0.28707 0.80408 0.86047 0.0
H187 H 0.26796 0.72844 0.9004 0.0
H188 H 0.22766 0.74497 0.91529 0.0
H189 H 0.15654 0.8058 0.88053 0.0
H190 H 0.10745 0.76639 0.86038 0.0
H191 H 0.11447 0.67473 0.87645 0.0
H192 H 0.16272 0.71408 0.89681 0.0
H193 H 0.2401 0.79954 0.93692 0.0
H194 H 0.12863 0.75029 0.92197 0.0
O195 O 0.2094 0.83389 0.9044 0.0
H196 H 0.2223 0.77332 0.96565 0.0
H197 H 0.11056 0.7252 0.95079 0.0
C198 C 0.23561 0.78571 0.8971 0.0
C199 C 0.2529 0.80238 0.88166 0.0
C200 C 0.27523 0.79208 0.87278 0.0
C201 C 0.28078 0.76523 0.87938 0.0
C202 C 0.26477 0.74982 0.89527 0.0
C203 C 0.2419 0.75953 0.90389 0.0
C204 C 0.16289 0.76271 0.89025 0.0
C205 C 0.14743 0.77723 0.87971 0.0
C206 C 0.11967 0.75473 0.86807 0.0
C207 C 0.1071 0.71743 0.86683 0.0
C208 C 0.12324 0.70324 0.87724 0.0
C209 C 0.15086 0.7257 0.88885 0.0
C210 C 0.18577 0.77563 0.92707 0.0
C211 C 0.21179 0.78328 0.93988 0.0
C212 C 0.20151 0.76847 0.95636 0.0
C213 C 0.16492 0.74649 0.96046 0.0
C214 C 0.13895 0.74098 0.94791 0.0
C215 C 0.14929 0.7555 0.93141 0.0
P216 P 1.04903 0.51346 0.44559 0.0
H217 H 0.08583 0.54063 0.47961 0.0
H218 H 0.13429 0.6 0.48973 0.0
H219 H 0.12376 0.64539 0.44236 0.0
H220 H 0.07471 0.58678 0.43285 0.0
H221 H 0.98916 0.45052 0.42875 0.0
H222 H 0.93044 0.4048 0.43829 0.0
H223 H 0.94843 0.46149 0.4885 0.0
H224 H 1.0084 0.50778 0.47869 0.0
H225 H 0.09407 0.50879 0.41745 0.0
H226 H 1.00394 0.52629 0.42194 0.0
O227 O 0.07089 0.49159 0.44967 0.0
H228 H 0.09338 0.5125 0.38568 0.0
H229 H 1.0027 0.52954 0.39008 0.0
C230 C 0.0763 0.55876 0.45542 0.0
C231 C 0.09318 0.5636 0.47167 0.0
C232 C 0.12149 0.59767 0.4773 0.0
C233 C 0.1339 0.62791 0.46678 0.0
C234 C 0.11525 0.62324 0.45101 0.0
C235 C 0.08686 0.58928 0.44547 0.0
C236 C 1.00302 0.48369 0.45269 0.0
C237 C 0.98032 0.45401 0.44166 0.0
C238 C 0.94641 0.42752 0.4472 0.0
C239 C 0.93398 0.42933 0.46415 0.0
C240 C 0.95687 0.45903 0.47534 0.0
C241 C 0.99109 0.48584 0.46969 0.0
C242 C 1.04865 0.51663 0.42205 0.0
C243 C 0.07392 0.51316 0.41159 0.0
C244 C 0.0734 0.51514 0.39338 0.0
C245 C 1.04779 0.52101 0.38526 0.0
C246 C 1.02293 0.5252 0.39587 0.0
C247 C 1.02343 0.52311 0.41408 0.0
P248 P 0.5924 1.0326 0.78245 0.0
H249 H 0.61704 0.08253 0.81321 0.0
H250 H 0.60547 0.13098 0.82284 0.0
H251 H 0.52035 0.0929 0.78455 0.0
H252 H 0.53143 1.04399 0.77527 0.0
H253 H 0.63532 1.00957 0.80161 0.0
H254 H 0.62456 0.95126 0.81038 0.0
H255 H 0.51396 0.90235 0.79369 0.0
H256 H 0.5251 0.96158 0.78482 0.0
H257 H 0.5999 0.08402 0.75689 0.0
H258 H 0.56409 0.97035 0.75646 0.0
O259 O 0.63709 0.05823 0.78321 0.0
H260 H 0.58847 0.07952 0.72554 0.0
H261 H 0.55142 0.96538 0.72522 0.0
C262 C 0.57555 0.05979 0.7933 0.0
C263 C 0.59511 0.08384 0.80725 0.0
C264 C 0.58856 0.11172 0.81271 0.0
C265 C 0.56247 0.11638 0.80422 0.0
C266 C 0.54113 0.09058 0.79114 0.0
C267 C 0.5473 0.06235 0.7859 0.0
C268 C 0.58117 0.9902 0.7923 0.0
C269 C 0.6085 0.98659 0.80004 0.0
C270 C 0.60226 0.95296 0.80515 0.0
C271 C 0.56844 0.92172 0.80263 0.0
C272 C 0.54051 0.92563 0.7956 0.0
C273 C 0.54673 0.95958 0.79067 0.0
C274 C 0.58164 1.02734 0.7593 0.0
C275 C 0.58883 0.05788 0.75014 0.0
C276 C 0.58217 0.05524 0.73216 0.0
C277 C 0.56851 1.02197 0.7228 0.0
C278 C 0.56195 0.99146 0.73196 0.0
C279 C 0.56872 0.99419 0.74999 0.0
P280 P 0.53558 0.52138 0.1173 0.0
H281 H 0.57808 0.55357 0.15005 0.0
H282 H 0.63958 0.56935 0.15802 0.0
H283 H 0.65741 0.54472 0.10469 0.0
H284 H 0.59716 0.52977 0.09697 0.0
H285 H 0.4811 0.49236 0.14486 0.0
H286 H 0.43361 0.50465 0.15392 0.0
H287 H 0.47943 0.59774 0.12185 0.0
H288 H 0.52738 0.5855 0.11295 0.0
H289 H 0.49207 0.46474 0.09092 0.0
H290 H 0.56773 0.57897 0.09206 0.0
O291 O 0.51798 0.47828 0.12234 0.0
H292 H 0.48801 0.46423 0.05918 0.0
H293 H 0.56246 0.57918 0.0603 0.0
C294 C 0.58311 0.54188 0.12272 0.0
C295 C 0.59573 0.5528 0.13999 0.0
C296 C 0.63083 0.56128 0.14457 0.0
C297 C 0.654 0.55864 0.13201 0.0
C298 C 0.64116 0.54816 0.11471 0.0
C299 C 0.60633 0.53969 0.11021 0.0
C300 C 0.5079 0.53768 0.128 0.0
C301 C 0.4816 0.51594 0.14002 0.0
C302 C 0.45403 0.52279 0.14508 0.0
C303 C 0.452 0.55174 0.13833 0.0
C304 C 0.47994 0.57514 0.12731 0.0
C305 C 0.50754 0.56814 0.12219 0.0
C306 C 0.53045 0.52186 0.09389 0.0
C307 C 0.50755 0.48987 0.08436 0.0
C308 C 0.505 0.48968 0.06614 0.0
C309 C 0.525 0.52164 0.05703 0.0
C310 C 0.54714 0.55389 0.06675 0.0
C311 C 0.54989 0.55394 0.08498 0.0
C312 C 0.15952 0.53826 0.15706 0.0
C313 C 0.1595 0.57012 0.16229 0.0
C314 C 0.19175 0.53779 0.15507 0.0
C315 C 0.29064 0.59025 0.16547 0.0
H316 H 0.29397 0.52653 0.1289 0.0
C317 C 0.42267 0.58978 0.14501 0.0
C318 C 0.41962 0.55574 0.14183 0.0
C319 C 0.39194 0.59299 0.14788 0.0
C320 C 0.29352 0.54428 0.13929 0.0
H321 H 0.19403 0.62661 0.16968 0.0
H322 H 0.25033 0.62609 0.16583 0.0
H323 H 0.23952 0.52971 0.13311 0.0
H324 H 0.38127 0.49847 0.13892 0.0
H325 H 0.32821 0.50405 0.1439 0.0
H326 H 0.3452 0.60517 0.17133 0.0
C327 C 0.22527 0.60112 0.16356 0.0
C328 C 0.26205 0.54604 0.14179 0.0
C329 C 0.19286 0.60149 0.16572 0.0
C330 C 0.38493 0.52512 0.14155 0.0
C331 C 0.35432 0.52835 0.14422 0.0
C332 C 0.32234 0.58871 0.16285 0.0
C333 C 0.22529 0.56929 0.15802 0.0
C334 C 0.25978 0.56869 0.15506 0.0
C335 C 0.35725 0.56231 0.14737 0.0
C336 C 0.32411 0.56536 0.14984 0.0
H337 H 0.13448 0.51342 0.15445 0.0
H338 H 0.19019 0.51245 0.15127 0.0
H339 H 0.29016 0.60779 0.17595 0.0
H340 H 0.44886 0.61397 0.1454 0.0
H341 H 0.39533 0.61961 0.15016 0.0
C342 C 0.63121 0.16962 0.49727 0.0
C343 C 0.63186 0.13744 0.49924 0.0
C344 C 0.66315 0.20259 0.49512 0.0
C345 C 0.76408 0.24751 0.49895 0.0
H346 H 0.76178 0.31658 0.4688 0.0
C347 C 0.89255 0.38638 0.48698 0.0
C348 C 0.89791 0.39947 0.46996 0.0
C349 C 0.85967 0.35636 0.49175 0.0
C350 C 0.76319 0.2976 0.47716 0.0
H351 H 0.66722 0.11528 0.50049 0.0
H352 H 0.72251 0.17217 0.49628 0.0
H353 H 0.70676 0.26064 0.47437 0.0
H354 H 0.87147 0.39164 0.44493 0.0
H355 H 0.81521 0.33935 0.45296 0.0
H356 H 0.82088 0.2838 0.50107 0.0
C357 C 0.69743 0.17232 0.49682 0.0
C358 C 0.73124 0.26548 0.48061 0.0
C359 C 0.66551 0.1394 0.49917 0.0
C360 C 0.86887 0.38222 0.45808 0.0
C361 C 0.83615 0.35227 0.4628 0.0
C362 C 0.79611 0.27953 0.49539 0.0
C363 C 0.69688 0.20454 0.49464 0.0
C364 C 0.73106 0.23965 0.49147 0.0
C365 C 0.831 0.33846 0.47966 0.0
C366 C 0.79635 0.30505 0.48429 0.0
H367 H 0.60593 0.1694 0.49732 0.0
H368 H 0.66129 0.22664 0.49391 0.0
H369 H 0.76535 0.2289 0.50762 0.0
H370 H 0.91413 0.39861 0.49653 0.0
H371 H 0.85684 0.34715 0.50494 0.0
C372 C 0.58902 0.64775 0.82296 0.0
C373 C 0.55764 0.6165 0.82804 0.0
C374 C 0.58899 0.68001 0.82049 0.0
C375 C 0.52751 0.71688 0.81352 0.0
H376 H 0.61255 0.80808 0.82579 0.0
C377 C 0.54375 0.85513 0.7952 0.0
C378 C 0.56327 0.88537 0.80663 0.0
C379 C 0.54166 0.82198 0.79816 0.0
C380 C 0.58833 0.78295 0.82243 0.0
H381 H 0.50143 0.59518 0.83449 0.0
H382 H 0.50148 0.65125 0.83048 0.0
H383 H 0.61166 0.75199 0.83052 0.0
H384 H 0.59447 0.90341 0.83066 0.0
H385 H 0.59043 0.84592 0.83594 0.0
H386 H 0.50389 0.74794 0.80584 0.0
C387 C 0.52615 0.65083 0.82813 0.0
C388 C 0.58802 0.75055 0.82492 0.0
C389 C 0.52619 0.61855 0.83057 0.0
C390 C 0.57971 0.88105 0.82137 0.0
C391 C 0.5775 0.84793 0.82437 0.0
C392 C 0.52779 0.74933 0.81106 0.0
C393 C 0.55757 0.68218 0.82305 0.0
C394 C 0.55766 0.7169 0.82048 0.0
C395 C 0.55889 0.81791 0.81269 0.0
C396 C 0.55824 0.78298 0.81546 0.0
H397 H 0.61373 0.64732 0.82075 0.0
H398 H 0.61362 0.70315 0.81629 0.0
H399 H 0.50368 0.69174 0.80973 0.0
H400 H 0.5311 0.85739 0.78359 0.0
H401 H 0.5274 0.79985 0.78871 0.0
C402 C 0.96009 0.60596 0.15971 0.0
C403 C 0.96057 0.57337 0.1596 0.0
C404 C 0.92767 0.60603 0.15782 0.0
C405 C 0.82719 0.54576 0.1598 0.0
H406 H 0.82689 0.62193 0.13454 0.0
C407 C 0.69664 0.55361 0.15281 0.0
C408 C 0.69055 0.56476 0.13679 0.0
C409 C 0.72995 0.55654 0.15652 0.0
C410 C 0.82623 0.60019 0.14152 0.0
H411 H 0.92665 0.5152 0.15732 0.0
H412 H 0.87076 0.5153 0.15359 0.0
H413 H 0.88301 0.62241 0.13866 0.0
H414 H 0.7161 0.58933 0.11248 0.0
H415 H 0.77315 0.59333 0.11864 0.0
H416 H 0.77019 0.52275 0.16204 0.0
C417 C 0.89525 0.54096 0.15555 0.0
C418 C 0.85876 0.60076 0.14413 0.0
C419 C 0.92759 0.5409 0.15756 0.0
C420 C 0.71927 0.57985 0.12485 0.0
C421 C 0.75243 0.58262 0.12851 0.0
C422 C 0.79462 0.54508 0.1571 0.0
C423 C 0.89463 0.57352 0.15563 0.0
C424 C 0.85985 0.57345 0.15324 0.0
C425 C 0.75832 0.57067 0.14433 0.0
C426 C 0.79348 0.57217 0.14782 0.0
H427 H 0.98481 0.63155 0.16132 0.0
H428 H 0.92857 0.63173 0.15826 0.0
H429 H 0.82664 0.52447 0.16713 0.0
H430 H 0.67533 0.54157 0.16233 0.0
H431 H 0.73334 0.54755 0.16898 0.0
C432 C 0.4325 0.90612 0.48374 0.0
C433 C 0.43453 0.93399 0.49497 0.0
C434 C 0.40003 0.87335 0.4813 0.0
C435 C 0.30016 0.83077 0.48796 0.0
H436 H 0.30193 0.74225 0.47851 0.0
C437 C 0.17109 0.69653 0.46679 0.0
C438 C 0.16722 0.66337 0.47158 0.0
C439 C 0.20311 0.72928 0.47021 0.0
C440 C 0.30064 0.76651 0.48134 0.0
H441 H 0.40349 0.94851 0.51265 0.0
H442 H 0.34743 0.89138 0.50883 0.0
H443 H 0.35788 0.79843 0.48382 0.0
H444 H 0.19504 0.63972 0.48403 0.0
H445 H 0.24971 0.69642 0.49062 0.0
H446 H 0.24282 0.79861 0.4861 0.0
C447 C 0.37068 0.895 0.5015 0.0
C448 C 0.33309 0.79914 0.48412 0.0
C449 C 0.40309 0.92788 0.50381 0.0
C450 C 0.19637 0.66439 0.48028 0.0
C451 C 0.22828 0.69717 0.48381 0.0
C452 C 0.26768 0.79808 0.48531 0.0
C453 C 0.36846 0.86712 0.49013 0.0
C454 C 0.33352 0.83196 0.48741 0.0
C455 C 0.23245 0.73024 0.47868 0.0
C456 C 0.26727 0.7653 0.48187 0.0
H457 H 0.45595 0.90973 0.47658 0.0
H458 H 0.39968 0.85315 0.47219 0.0
H459 H 0.29897 0.85523 0.49021 0.0
H460 H 0.14937 0.69734 0.46031 0.0
H461 H 0.205 0.75382 0.46583 0.0
C462 C 0.58798 0.415 0.83158 0.0
C463 C 0.55528 0.41505 0.83155 0.0
C464 C 0.58859 0.38263 0.8293 0.0
C465 C 0.53386 0.28385 0.83355 0.0
H466 H 0.59941 0.27919 0.7995 0.0
C467 C 0.55967 0.16224 0.8253 0.0
C468 C 0.5595 0.14939 0.80801 0.0
C469 C 0.55841 0.1941 0.82865 0.0
C470 C 0.58091 0.28 0.80905 0.0
H471 H 0.49747 0.38058 0.82949 0.0
H472 H 0.49854 0.32415 0.82597 0.0
H473 H 0.599 0.33567 0.80475 0.0
H474 H 0.55836 0.16054 0.78073 0.0
H475 H 0.55676 0.21621 0.78658 0.0
H476 H 0.51605 0.22821 0.83795 0.0
C477 C 0.52375 0.34925 0.82763 0.0
C478 C 0.58087 0.31248 0.81215 0.0
C479 C 0.52317 0.38168 0.82957 0.0
C480 C 0.5581 0.16933 0.79421 0.0
C481 C 0.55753 0.20148 0.79755 0.0
C482 C 0.53439 0.25152 0.83068 0.0
C483 C 0.55649 0.34929 0.82725 0.0
C484 C 0.55717 0.31483 0.82436 0.0
C485 C 0.55774 0.21438 0.81481 0.0
C486 C 0.55772 0.24905 0.81827 0.0
H487 H 0.61327 0.44011 0.83297 0.0
H488 H 0.61426 0.38367 0.8292 0.0
H489 H 0.5154 0.28472 0.8431 0.0
H490 H 0.56069 0.14759 0.83625 0.0
H491 H 0.55877 0.20331 0.8421 0.0
C492 C 0.58092 0.82505 0.51184 0.0
C493 C 0.59197 0.84634 0.49705 0.0
C494 C 0.58989 0.79825 0.51364 0.0
C495 C 0.66123 0.78026 0.50047 0.0
H496 H 0.60304 0.69035 0.52364 0.0
C497 C 0.72191 0.69492 0.52115 0.0
C498 C 0.71372 0.68275 0.53828 0.0
C499 C 0.70235 0.70828 0.51308 0.0
C500 C 0.61963 0.71541 0.51718 0.0
H501 H 0.61946 0.85491 0.47212 0.0
H502 H 0.63454 0.80777 0.47516 0.0
H503 H 0.57585 0.72536 0.51471 0.0
H504 H 0.67829 0.67445 0.5603 0.0
H505 H 0.64463 0.69829 0.5464 0.0
H506 H 0.70535 0.7714 0.50358 0.0
C507 C 0.6193 0.8121 0.48544 0.0
C508 C 0.60404 0.73537 0.51205 0.0
C509 C 0.61034 0.83886 0.48364 0.0
C510 C 0.68495 0.68325 0.547 0.0
C511 C 0.66555 0.69679 0.53899 0.0
C512 C 0.67683 0.76043 0.50566 0.0
C513 C 0.61013 0.79227 0.50069 0.0
C514 C 0.6249 0.76841 0.50399 0.0
C515 C 0.67437 0.70999 0.52204 0.0
C516 C 0.65644 0.72821 0.51444 0.0
H517 H 0.56631 0.82986 0.52228 0.0
H518 H 0.5826 0.78357 0.5256 0.0
H519 H 0.67819 0.80588 0.49454 0.0
H520 H 0.7436 0.69431 0.51403 0.0
H521 H 0.70946 0.71774 0.49991 0.0
C522 C 0.81141 0.58131 0.80942 0.0
C523 C 0.79296 0.56347 0.82446 0.0
C524 C 0.84669 0.58905 0.80651 0.0
C525 C 0.91942 0.57484 0.82324 0.0
H526 H 0.97752 0.67854 0.81974 0.0
C527 C 1.04862 0.66028 0.86181 0.0
C528 C 0.0759 0.69309 0.85549 0.0
C529 C 1.01752 0.6388 0.85199 0.0
C530 C 0.96205 0.64944 0.82025 0.0
H531 H 0.79529 0.53638 0.84723 0.0
H532 H 0.85686 0.55024 0.84235 0.0
H533 H 0.91423 0.64837 0.81235 0.0
H534 H 0.09301 0.72796 0.83342 0.0
H535 H 1.03837 0.69037 0.81621 0.0
H536 H 0.96707 0.5764 0.83215 0.0
C537 C 0.8443 0.55824 0.83273 0.0
C538 C 0.92562 0.63206 0.81598 0.0
C539 C 0.80915 0.55065 0.83567 0.0
C540 C 0.07213 0.70312 0.83875 0.0
C541 C 1.04095 0.68154 0.82888 0.0
C542 C 0.95595 0.59224 0.82747 0.0
C543 C 0.86399 0.57892 0.81856 0.0
C544 C 0.90356 0.59487 0.81828 0.0
C545 C 1.01291 0.64958 0.83559 0.0
C546 C 0.97722 0.62998 0.82687 0.0
H547 H 0.79955 0.59151 0.80056 0.0
H548 H 0.8611 0.6047 0.79537 0.0
H549 H 0.90316 0.54604 0.82484 0.0
H550 H 1.05047 0.65199 0.87475 0.0
H551 H 0.99622 0.61478 0.85775 0.0
C552 C 0.28928 0.77676 0.15357 0.0
C553 C 0.2695 0.78031 0.1676 0.0
C554 C 0.32681 0.79515 0.15416 0.0
C555 C 0.39933 0.83385 0.18688 0.0
H556 H 0.46241 0.87771 0.14754 0.0
C557 C 0.55415 0.94642 0.17778 0.0
C558 C 0.56841 0.93666 0.19148 0.0
C559 C 0.51966 0.92249 0.17137 0.0
C560 C 0.4451 0.86548 0.15863 0.0
H561 H 0.27385 0.80762 0.19278 0.0
H562 H 0.33903 0.84063 0.19347 0.0
H563 H 0.39731 0.84918 0.14364 0.0
H564 H 0.56003 0.89338 0.20794 0.0
H565 H 0.50037 0.85081 0.19622 0.0
H566 H 0.44652 0.85135 0.20213 0.0
C567 C 0.32553 0.82286 0.18223 0.0
C568 C 0.40786 0.84899 0.15637 0.0
C569 C 0.28811 0.80435 0.1817 0.0
C570 C 0.54934 0.90146 0.19744 0.0
C571 C 0.51513 0.87732 0.19083 0.0
C572 C 0.43633 0.85034 0.18914 0.0
C573 C 0.34526 0.81754 0.16876 0.0
C574 C 0.38467 0.83365 0.17059 0.0
C575 C 0.49907 0.88831 0.17847 0.0
C576 C 0.45977 0.86681 0.17513 0.0
H577 H 0.27575 0.75895 0.14235 0.0
H578 H 0.34126 0.79058 0.14355 0.0
H579 H 0.38217 0.82155 0.19801 0.0
H580 H 0.56833 0.9736 0.1731 0.0
H581 H 0.50816 0.93196 0.16192 0.0
C582 C 0.56687 0.26834 0.48678 0.0
C583 C 0.57024 0.23798 0.4826 0.0
C584 C 0.59709 0.30288 0.48715 0.0
C585 C 0.69303 0.34526 0.49621 0.0
H586 H 0.68981 0.43245 0.48894 0.0
C587 C 0.76277 0.47138 0.54078 0.0
C588 C 0.77458 0.50547 0.53409 0.0
C589 C 0.74701 0.44054 0.52975 0.0
C590 C 0.69164 0.40851 0.49071 0.0
H591 H 0.60779 0.22039 0.4744 0.0
H592 H 0.66022 0.28066 0.47468 0.0
H593 H 0.64263 0.37497 0.4766 0.0
H594 H 0.78136 0.53442 0.5105 0.0
H595 H 0.75368 0.4803 0.49112 0.0
H596 H 0.74134 0.37866 0.51086 0.0
C597 C 0.6343 0.27769 0.47793 0.0
C598 C 0.66436 0.37551 0.4838 0.0
C599 C 0.6041 0.24316 0.47759 0.0
C600 C 0.77258 0.50843 0.51597 0.0
C601 C 0.75653 0.47748 0.50492 0.0
C602 C 0.72029 0.37826 0.50312 0.0
C603 C 0.63134 0.3078 0.48332 0.0
C604 C 0.66393 0.34334 0.48712 0.0
C605 C 0.74252 0.44313 0.5118 0.0
C606 C 0.71903 0.40999 0.50108 0.0
H607 H 0.54111 0.2653 0.49048 0.0
H608 H 0.59383 0.32543 0.4915 0.0
H609 H 0.69355 0.32101 0.49905 0.0
H610 H 0.76425 0.46844 0.55469 0.0
H611 H 0.7362 0.4145 0.53552 0.0
C612 C 0.38723 0.57882 0.80382 0.0
C613 C 0.37327 0.54619 0.8125 0.0
C614 C 0.37615 0.60362 0.80842 0.0
C615 C 0.33941 0.62786 0.84702 0.0
H616 H 0.33473 0.69528 0.81654 0.0
C617 C 0.32516 0.74404 0.87663 0.0
C618 C 0.29924 0.74972 0.86887 0.0
C619 C 0.33752 0.7232 0.86784 0.0
C620 C 0.33581 0.67654 0.82521 0.0
H621 H 0.33411 0.5129 0.83175 0.0
H622 H 0.31347 0.55496 0.83893 0.0
H623 H 0.34439 0.64745 0.80396 0.0
H624 H 0.26716 0.73979 0.84558 0.0
H625 H 0.28801 0.70259 0.83034 0.0
H626 H 0.32966 0.65576 0.86817 0.0
C627 C 0.33409 0.56207 0.82907 0.0
C628 C 0.34158 0.6493 0.81801 0.0
C629 C 0.34553 0.53757 0.82469 0.0
C630 C 0.28745 0.73605 0.85176 0.0
C631 C 0.29944 0.71476 0.84304 0.0
C632 C 0.33346 0.6548 0.85416 0.0
C633 C 0.35048 0.59608 0.82163 0.0
C634 C 0.34328 0.62454 0.82886 0.0
C635 C 0.32366 0.70704 0.85124 0.0
C636 C 0.33166 0.67956 0.84339 0.0
H637 H 0.40798 0.58601 0.79403 0.0
H638 H 0.38923 0.62948 0.80234 0.0
H639 H 0.34136 0.60984 0.85584 0.0
H640 H 0.33483 0.75459 0.88977 0.0
H641 H 0.35694 0.71861 0.87434 0.0
C642 C 0.85299 0.33328 0.11357 0.0
C643 C 0.86437 0.37018 0.11318 0.0
C644 C 0.81658 0.30758 0.1127 0.0
C645 C 0.73657 0.30434 0.12955 0.0
H646 H 0.70377 0.20256 0.12234 0.0
C647 C 0.69265 0.21142 0.18451 0.0
C648 C 0.67297 0.17386 0.18174 0.0
C649 C 0.69818 0.23402 0.17081 0.0
C650 C 0.71143 0.23069 0.12417 0.0
H651 H 0.84674 0.4086 0.10892 0.0
H652 H 0.78282 0.36352 0.10771 0.0
H653 H 0.74931 0.24554 0.10326 0.0
H654 H 0.64051 0.13044 0.163 0.0
H655 H 0.64996 0.17004 0.13901 0.0
H656 H 0.69994 0.28962 0.15099 0.0
C657 C 0.80214 0.35461 0.10901 0.0
C658 C 0.73792 0.25544 0.11327 0.0
C659 C 0.83874 0.38042 0.1098 0.0
C660 C 0.65595 0.15936 0.16548 0.0
C661 C 0.66152 0.18202 0.15172 0.0
C662 C 0.7097 0.27955 0.14028 0.0
C663 C 0.79057 0.31811 0.1115 0.0
C664 C 0.75312 0.29266 0.11693 0.0
C665 C 0.68416 0.21954 0.154 0.0
C666 C 0.69934 0.24283 0.13871 0.0
H667 H 0.87176 0.32424 0.11625 0.0
H668 H 0.8089 0.27983 0.11483 0.0
H669 H 0.74714 0.33277 0.13263 0.0
H670 H 0.70554 0.22331 0.19701 0.0
H671 H 0.71604 0.26269 0.17313 0.0
C672 C 0.11342 0.63526 0.10803 0.0
C673 C 0.08216 0.60249 0.11145 0.0
C674 C 0.12126 0.64779 0.09112 0.0
C675 C 0.07979 0.6394 0.0481 0.0
H676 H 0.17925 0.6902 0.03317 0.0
C677 C 0.12466 0.69304 0.97833 0.0
C678 C 0.15389 0.72847 0.97749 0.0
C679 C 0.11484 0.67566 0.99421 0.0
C680 C 0.15139 0.67627 0.0372 0.0
H681 H 1.0347 0.55698 0.0997 0.0
H682 H 1.04877 0.57873 0.0699 0.0
H683 H 0.16406 0.66193 0.06137 0.0
H684 H 0.19514 0.77358 0.99289 0.0
H685 H 0.17838 0.74294 0.02051 0.0
H686 H 1.0673 0.65375 0.02377 0.0
C687 C 1.06694 0.59491 0.08044 0.0
C688 C 0.14265 0.66009 0.05336 0.0
C689 C 1.05897 0.58236 0.09749 0.0
C690 C 0.17292 0.74611 0.99297 0.0
C691 C 0.16328 0.7286 0.00881 0.0
C692 C 0.08855 0.65539 0.03183 0.0
C693 C 0.09823 0.62782 0.07708 0.0
C694 C 0.10684 0.64204 0.05918 0.0
C695 C 0.13424 0.69316 0.00958 0.0
C696 C 0.12452 0.67451 0.02637 0.0
H697 H 0.13182 0.65166 0.11847 0.0
H698 H 0.14517 0.67359 0.08911 0.0
H699 H 1.05201 0.62604 0.05224 0.0
H700 H 0.10978 0.67834 0.96664 0.0
H701 H 0.09256 0.64821 0.9944 0.0
C702 C 0.51656 1.03857 0.43447 0.0
C703 C 0.54571 0.05522 0.44618 0.0
C704 C 0.52237 1.04301 0.41645 0.0
C705 C 0.5834 0.10031 0.38323 0.0
H706 H 0.56116 1.01233 0.35681 0.0
C707 C 0.64885 0.10331 0.31657 0.0
C708 C 0.6301 0.07497 0.30424 0.0
C709 C 0.63467 0.10209 0.33327 0.0
C710 C 0.56684 1.03716 0.36376 0.0
H711 H 0.60323 0.09117 0.44856 0.0
H712 H 0.61314 0.09984 0.41716 0.0
H713 H 0.54142 1.00923 0.38701 0.0
H714 H 0.58157 1.02392 0.29913 0.0
H715 H 0.55574 1.02238 0.32796 0.0
H716 H 0.60842 0.12842 0.36008 0.0
C717 C 0.58601 0.083 0.42185 0.0
C718 C 0.55557 1.03527 0.38111 0.0
C719 C 0.58037 0.07784 0.43975 0.0
C720 C 0.59659 1.04584 0.3086 0.0
C721 C 0.58199 1.04495 0.32515 0.0
C722 C 0.59402 0.10219 0.36575 0.0
C723 C 0.55722 0.06498 0.41004 0.0
C724 C 0.56445 0.06687 0.39107 0.0
C725 C 0.60105 0.07282 0.33783 0.0
C726 C 0.58668 0.07069 0.3559 0.0
H727 H 0.48962 1.02093 0.43916 0.0
H728 H 0.49983 1.02884 0.40751 0.0
H729 H 0.59043 0.12501 0.39072 0.0
H730 H 0.67483 0.12597 0.3134 0.0
H731 H 0.65057 0.12372 0.3427 0.0
C732 C 0.6132 0.51647 0.77544 0.0
C733 C 0.5836 0.5203 0.78031 0.0
C734 C 0.6263 0.52261 0.75841 0.0
C735 C 0.63023 0.57192 0.71969 0.0
H736 H 0.66995 0.51582 0.69847 0.0
C737 C 0.70539 0.56161 0.65193 0.0
C738 C 0.72932 0.59848 0.64973 0.0
C739 C 0.68382 0.55005 0.66681 0.0
C740 C 0.6586 0.53153 0.70405 0.0
H741 H 0.5439 0.53266 0.77094 0.0
H742 H 0.56676 0.54315 0.74091 0.0
H743 H 0.63674 0.4971 0.72568 0.0
H744 H 0.74967 0.65216 0.66143 0.0
H745 H 0.71265 0.632 0.68763 0.0
H746 H 0.65189 0.60619 0.69792 0.0
C747 C 0.57998 0.53573 0.75044 0.0
C748 C 0.63987 0.52099 0.71977 0.0
C749 C 0.56675 0.5295 0.76758 0.0
C750 C 0.73127 0.62358 0.66273 0.0
C751 C 0.70988 0.61201 0.67768 0.0
C752 C 0.64887 0.5824 0.70389 0.0
C753 C 0.61014 0.53266 0.74573 0.0
C754 C 0.62612 0.54147 0.72798 0.0
C755 C 0.68587 0.57509 0.6799 0.0
C756 C 0.66385 0.56268 0.69604 0.0
H757 H 0.62689 0.50941 0.78489 0.0
H758 H 0.64991 0.52058 0.75535 0.0
H759 H 0.62019 0.58844 0.72571 0.0
H760 H 0.7028 0.54169 0.64197 0.0
H761 H 0.66524 0.52147 0.66794 0.0
C762 C 0.54126 0.99868 0.56166 0.0
C763 C 0.53157 1.02244 0.55468 0.0
C764 C 0.54352 0.99675 0.57978 0.0
C765 C 0.51387 1.01781 0.6222 0.0
H766 H 0.59565 1.01518 0.6409 0.0
C767 C 0.54798 1.03949 0.69618 0.0
C768 C 0.56184 1.01946 0.70355 0.0
C769 C 0.54291 1.03822 0.67808 0.0
C770 C 0.57234 1.01536 0.63592 0.0
H771 H 0.51611 0.06243 0.56144 0.0
H772 H 0.52005 0.05903 0.593 0.0
H773 H 0.58905 1.01569 0.60935 0.0
H774 H 0.58102 0.98215 0.69747 0.0
H775 H 0.57125 0.97917 0.666 0.0
H776 H 0.49708 1.01741 0.64876 0.0
C777 C 0.52571 1.04172 0.58444 0.0
C778 C 0.56859 1.01571 0.6178 0.0
C779 C 0.52363 1.04379 0.56631 0.0
C780 C 0.56997 0.99768 0.69232 0.0
C781 C 0.56481 0.99635 0.67421 0.0
C782 C 0.51753 1.01731 0.64033 0.0
C783 C 0.53596 1.01838 0.59141 0.0
C784 C 0.53941 1.01711 0.6107 0.0
C785 C 0.55142 1.01678 0.66682 0.0
C786 C 0.54692 1.01626 0.64746 0.0
H787 H 0.54755 0.98178 0.55313 0.0
H788 H 0.55105 0.97816 0.5847 0.0
H789 H 0.4908 1.01837 0.61718 0.0
H790 H 0.54095 0.0562 0.7044 0.0
H791 H 0.53292 0.05464 0.6729 0.0
C792 C 0.50438 0.48864 0.89514 0.0
C793 C 0.53668 0.51427 0.88747 0.0
C794 C 0.49994 0.48893 0.91338 0.0
C795 C 0.5392 0.54863 0.95344 0.0
H796 H 0.49117 0.45923 0.97795 0.0
C797 C 0.5546 0.5431 0.02782 0.0
C798 C 0.52356 0.52109 0.03749 0.0
C799 C 0.55358 0.5421 0.00952 0.0
C800 C 0.50431 0.48442 0.97127 0.0
H801 H 0.58986 0.55988 0.8931 0.0
H802 H 0.58247 0.55984 0.92453 0.0
H803 H 0.49383 0.45742 0.94598 0.0
H804 H 0.46685 0.48109 0.03521 0.0
H805 H 0.46541 0.47885 0.00326 0.0
H806 H 0.55051 0.57558 0.97873 0.0
C807 C 0.56009 0.54007 0.91658 0.0
C808 C 0.50577 0.4834 0.95293 0.0
C809 C 0.56443 0.53992 0.89846 0.0
C810 C 0.49146 0.49802 0.02827 0.0
C811 C 0.49055 0.49676 0.00994 0.0
C812 C 0.53802 0.54962 0.97172 0.0
C813 C 0.52776 0.51479 0.92433 0.0
C814 C 0.52371 0.51553 0.94377 0.0
C815 C 0.5216 0.51883 0.00036 0.0
C816 C 0.52096 0.51756 0.98087 0.0
H817 H 0.48246 0.46854 0.88706 0.0
H818 H 0.47455 0.46919 0.91886 0.0
H819 H 0.55246 0.57396 0.94688 0.0
H820 H 0.58001 0.56064 0.03435 0.0
H821 H 0.57811 0.55905 0.00252 0.0
C822 C 1.0501 0.51982 0.22323 0.0
C823 C 1.04598 0.54771 0.21671 0.0
C824 C 1.04971 0.51533 0.24133 0.0
C825 C 1.0634 0.56633 0.28376 0.0
H826 H 1.01687 0.47198 0.30374 0.0
C827 C 1.0412 0.54871 0.35819 0.0
C828 C 1.04714 0.52291 0.36583 0.0
C829 C 1.04099 0.55076 0.33998 0.0
C830 C 1.03032 0.49853 0.29835 0.0
H831 H 1.03697 0.59194 0.22421 0.0
H832 H 1.03573 0.58377 0.25546 0.0
H833 H 1.01632 0.4768 0.27202 0.0
H834 H 1.05688 0.47856 0.36016 0.0
H835 H 1.05696 0.48245 0.3284 0.0
H836 H 0.0773 0.58811 0.31001 0.0
C837 C 1.0401 0.56583 0.2467 0.0
C838 C 1.03003 0.50129 0.28016 0.0
C839 C 1.04057 0.57035 0.2287 0.0
C840 C 1.05261 0.49903 0.35475 0.0
C841 C 1.05226 0.50099 0.33652 0.0
C842 C 1.06363 0.56357 0.30191 0.0
C843 C 1.04518 0.53862 0.25331 0.0
C844 C 1.04631 0.53526 0.27263 0.0
C845 C 1.04661 0.527 0.32889 0.0
C846 C 1.04689 0.52967 0.30948 0.0
H847 H 1.0544 0.50194 0.21438 0.0
H848 H 1.0539 0.49421 0.24594 0.0
H849 H 0.07694 0.59295 0.27844 0.0
H850 H 1.03721 0.56774 0.3663 0.0
H851 H 1.03614 0.57087 0.33458 0.0
loop_
_geom_bond_atom_site_label_1
_geom_bond_atom_site_label_2
_geom_bond_distance
_geom_bond_site_symmetry_2
_ccdc_geom_bond_type
Eu0 C9 2.828 . S
Eu0 O11 2.392 1_655 S
Eu0 O13 2.418 . S
Eu0 O18 2.373 . S
Eu0 O21 2.488 . S
Eu0 O22 2.471 . S
Eu0 O23 2.349 . S
Eu1 O10 2.373 . S
Eu1 O14 2.488 . S
Eu1 O15 2.471 . S
Eu1 O16 2.349 . S
Eu1 O19 2.392 1_455 S
Eu1 O20 2.418 . S
Eu1 C30 2.828 . S
C2 O20 1.244 . S
C2 O23 1.265 1_455 S
C3 C4 1.379 . S
C3 C7 1.373 . S
C3 C9 1.505 . S
C4 C3 1.379 . S
C4 C6 1.369 . S
C4 H32 0.930 . S
C5 C7 1.383 . S
C5 C8 1.382 . S
C5 H33 0.930 . S
C6 C4 1.369 . S
C6 C8 1.392 . S
C6 H34 0.930 . S
C7 C3 1.373 . S
C7 C5 1.383 . S
C7 H35 0.931 . S
C8 C5 1.382 . S
C8 C6 1.392 . S
C9 Eu0 2.828 . S
C9 C3 1.505 . S
C9 O21 1.249 . S
C9 O22 1.244 . S
O10 Eu1 2.373 . S
O10 C12 1.258 . S
O11 Eu0 2.392 1_455 S
O11 C12 1.242 . S
C12 O10 1.258 . S
C12 O11 1.242 . S
O13 Eu0 2.418 . S
O13 C17 1.244 . S
O14 Eu1 2.488 . S
O14 C30 1.249 . S
O15 Eu1 2.471 . S
O15 C30 1.244 . S
O16 Eu1 2.349 . S
O16 C17 1.265 1_455 S
C17 O13 1.244 . S
C17 O16 1.265 1_655 S
O18 Eu0 2.373 . S
O18 C31 1.258 . S
O19 Eu1 2.392 1_655 S
O19 C31 1.242 . S
O20 Eu1 2.418 . S
O20 C2 1.244 . S
O21 Eu0 2.488 . S
O21 C9 1.249 . S
O22 Eu0 2.471 . S
O22 C9 1.244 . S
O23 Eu0 2.349 . S
O23 C2 1.265 1_655 S
C24 C25 1.379 . S
C24 C28 1.373 . S
C24 C30 1.505 . S
C25 C24 1.379 . S
C25 C27 1.369 . S
C25 H36 0.930 . S
C26 C28 1.383 . S
C26 C29 1.382 . S
C26 H37 0.930 . S
C27 C25 1.369 . S
C27 C29 1.392 . S
C27 H38 0.930 . S
C28 C24 1.373 . S
C28 C26 1.383 . S
C28 H39 0.931 . S
C29 C26 1.382 . S
C29 C27 1.392 . S
C30 Eu1 2.828 . S
C30 O14 1.249 . S
C30 O15 1.244 . S
C30 C24 1.505 . S
C31 O18 1.258 . S
C31 O19 1.242 . S
H32 C4 0.930 . S
H33 C5 0.930 . S
H34 C6 0.930 . S
H35 C7 0.931 . S
H36 C25 0.930 . S
H37 C26 0.930 . S
H38 C27 0.930 . S
H39 C28 0.931 . S
Eu40 C49 2.828 . S
Eu40 O51 2.392 1_565 S
Eu40 O53 2.418 . S
Eu40 O58 2.373 . S
Eu40 O61 2.488 . S
Eu40 O62 2.471 . S
Eu40 O63 2.333 1_565 S
Eu41 O50 2.373 . S
Eu41 O54 2.488 . S
Eu41 O55 2.471 . S
Eu41 O56 2.349 . S
Eu41 O59 2.392 1_545 S
Eu41 O60 2.418 . S
Eu41 C70 2.828 . S
C42 O60 1.244 . S
C42 O63 1.281 . S
C43 C44 1.379 . S
C43 C47 1.373 . S
C43 C49 1.505 . S
C44 C43 1.379 . S
C44 C46 1.369 . S
C44 H72 0.930 . S
C45 C47 1.383 . S
C45 C48 1.382 . S
C45 H73 0.930 . S
C46 C44 1.369 . S
C46 C48 1.392 . S
C46 H74 0.930 . S
C47 C43 1.373 . S
C47 C45 1.383 . S
C47 H75 0.931 . S
C48 C45 1.382 . S
C48 C46 1.392 . S
C49 Eu40 2.828 . S
C49 C43 1.505 . S
C49 O61 1.249 . S
C49 O62 1.244 . S
O50 Eu41 2.373 . S
O50 C52 1.258 . S
O51 Eu40 2.392 1_545 S
O51 C52 1.242 . S
C52 O50 1.258 . S
C52 O51 1.242 . S
O53 Eu40 2.418 . S
O53 C57 1.244 1_565 S
O54 Eu41 2.488 . S
O54 C70 1.249 . S
O55 Eu41 2.471 . S
O55 C70 1.244 . S
O56 Eu41 2.349 . S
O56 C57 1.265 . S
C57 O53 1.244 1_545 S
C57 O56 1.265 . S
O58 Eu40 2.373 . S
O58 C71 1.258 . S
O59 Eu41 2.392 1_565 S
O59 C71 1.242 . S
O60 Eu41 2.418 . S
O60 C42 1.244 . S
O61 Eu40 2.488 . S
O61 C49 1.249 . S
O62 Eu40 2.471 . S
O62 C49 1.244 . S
O63 Eu40 2.333 1_545 S
O63 C42 1.281 . S
C64 C65 1.379 . S
C64 C68 1.373 . S
C64 C70 1.505 . S
C65 C64 1.379 . S
C65 C67 1.369 . S
C65 H76 0.930 . S
C66 C68 1.383 . S
C66 C69 1.382 . S
C66 H77 0.930 . S
C67 C65 1.369 . S
C67 C69 1.392 . S
C67 H78 0.930 . S
C68 C64 1.373 . S
C68 C66 1.383 . S
C68 H79 0.931 . S
C69 C66 1.382 . S
C69 C67 1.392 . S
C70 Eu41 2.828 . S
C70 O54 1.249 . S
C70 O55 1.244 . S
C70 C64 1.505 . S
C71 O58 1.258 . S
C71 O59 1.242 . S
H72 C44 0.930 . S
H73 C45 0.930 . S
H74 C46 0.930 . S
H75 C47 0.931 . S
H76 C65 0.930 . S
H77 C66 0.930 . S
H78 C67 0.930 . S
H79 C68 0.931 . S
Eu80 C89 2.828 . S
Eu80 O91 2.392 . S
Eu80 O93 2.418 . S
Eu80 O98 2.373 . S
Eu80 O101 2.488 . S
Eu80 O102 2.471 . S
Eu80 O103 2.349 . S
Eu81 O90 2.373 . S
Eu81 O94 2.488 . S
Eu81 O95 2.471 . S
Eu81 O96 2.349 . S
Eu81 O99 2.392 . S
Eu81 O100 2.418 . S
Eu81 C110 2.828 . S
C82 O100 1.244 . S
C82 O103 1.265 . S
C83 C84 1.379 . S
C83 C87 1.373 . S
C83 C89 1.505 . S
C84 C83 1.379 . S
C84 C86 1.369 . S
C84 H112 0.930 . S
C85 C87 1.383 . S
C85 C88 1.382 . S
C85 H113 0.930 . S
C86 C84 1.369 . S
C86 C88 1.392 . S
C86 H114 0.930 . S
C87 C83 1.373 . S
C87 C85 1.383 . S
C87 H115 0.931 . S
C88 C85 1.382 . S
C88 C86 1.392 . S
C89 Eu80 2.828 . S
C89 C83 1.505 . S
C89 O101 1.249 . S
C89 O102 1.244 . S
O90 Eu81 2.373 . S
O90 C92 1.258 . S
O91 Eu80 2.392 . S
O91 C92 1.242 . S
C92 O90 1.258 . S
C92 O91 1.242 . S
O93 Eu80 2.418 . S
O93 C97 1.244 . S
O94 Eu81 2.488 . S
O94 C110 1.249 . S
O95 Eu81 2.471 . S
O95 C110 1.244 . S
O96 Eu81 2.349 . S
O96 C97 1.265 . S
C97 O93 1.244 . S
C97 O96 1.265 . S
O98 Eu80 2.373 . S
O98 C111 1.258 . S
O99 Eu81 2.392 . S
O99 C111 1.242 . S
O100 Eu81 2.418 . S
O100 C82 1.244 . S
O101 Eu80 2.488 . S
O101 C89 1.249 . S
O102 Eu80 2.471 . S
O102 C89 1.244 . S
O103 Eu80 2.349 . S
O103 C82 1.265 . S
C104 C105 1.379 . S
C104 C108 1.373 . S
C104 C110 1.505 . S
C105 C104 1.379 . S
C105 C107 1.369 . S
C105 H116 0.930 . S
C106 C108 1.383 . S
C106 C109 1.382 . S
C106 H117 0.930 . S
C107 C105 1.369 . S
C107 C109 1.392 . S
C107 H118 0.930 . S
C108 C104 1.373 . S
C108 C106 1.383 . S
C108 H119 0.931 . S
C109 C106 1.382 . S
C109 C107 1.392 . S
C110 Eu81 2.828 . S
C110 O94 1.249 . S
C110 O95 1.244 . S
C110 C104 1.505 . S
C111 O98 1.258 . S
C111 O99 1.242 . S
H112 C84 0.930 . S
H113 C85 0.930 . S
H114 C86 0.930 . S
H115 C87 0.931 . S
H116 C105 0.930 . S
H117 C106 0.930 . S
H118 C107 0.930 . S
H119 C108 0.931 . S
P120 O131 1.490 1_545 S
P120 C134 1.812 1_545 S
P120 C140 1.803 . S
P120 C146 1.819 . S
H121 C135 0.941 . S
H122 C136 0.939 . S
H123 C138 0.940 . S
H124 C139 0.924 1_545 S
H125 C141 0.939 . S
H126 C142 0.942 . S
H127 C144 0.940 . S
H128 C145 0.939 . S
H129 C147 0.941 . S
H130 C151 0.939 . S
O131 P120 1.490 1_565 S
H132 C148 0.939 . S
H133 C150 0.940 . S
C134 P120 1.812 1_565 S
C134 C135 1.389 . S
C134 C139 1.391 . S
C135 H121 0.941 . S
C135 C134 1.389 . S
C135 C136 1.397 . S
C136 H122 0.939 . S
C136 C135 1.397 . S
C136 C137 1.378 . S
C137 C136 1.378 . S
C137 C138 1.378 . S
C138 H123 0.940 . S
C138 C137 1.378 . S
C138 C139 1.396 . S
C139 H124 0.924 1_565 S
C139 C134 1.391 . S
C139 C138 1.396 . S
C140 P120 1.803 . S
C140 C141 1.378 . S
C140 C145 1.400 . S
C141 H125 0.939 . S
C141 C140 1.378 . S
C141 C142 1.361 . S
C142 H126 0.942 . S
C142 C141 1.361 . S
C142 C143 1.369 . S
C143 C142 1.369 . S
C143 C144 1.404 . S
C144 H127 0.940 . S
C144 C143 1.404 . S
C144 C145 1.389 . S
C145 H128 0.939 . S
C145 C140 1.400 . S
C145 C144 1.389 . S
C146 P120 1.819 . S
C146 C147 1.391 1_545 S
C146 C151 1.391 . S
C147 H129 0.941 . S
C147 C146 1.391 1_565 S
C147 C148 1.396 . S
C148 H132 0.939 . S
C148 C147 1.396 . S
C148 C149 1.397 1_565 S
C149 C148 1.397 1_545 S
C149 C150 1.385 . S
C150 H133 0.940 . S
C150 C149 1.385 . S
C150 C151 1.388 . S
C151 H130 0.939 . S
C151 C146 1.391 . S
C151 C150 1.388 . S
P152 O163 1.490 . S
P152 C166 1.812 . S
P152 C172 1.803 . S
P152 C178 1.819 . S
H153 C167 0.941 . S
H154 C168 0.939 . S
H155 C170 0.940 . S
H156 C171 0.940 . S
H157 C173 0.939 . S
H158 C174 0.942 . S
H159 C176 0.940 . S
H160 C177 0.939 . S
H161 C179 0.941 . S
H162 C183 0.939 . S
O163 P152 1.490 . S
H164 C180 0.939 . S
H165 C182 0.940 . S
C166 P152 1.812 . S
C166 C167 1.389 . S
C166 C171 1.391 . S
C167 H153 0.941 . S
C167 C166 1.389 . S
C167 C168 1.397 . S
C168 H154 0.939 . S
C168 C167 1.397 . S
C168 C169 1.378 . S
C169 C168 1.378 . S
C169 C170 1.378 . S
C170 H155 0.940 . S
C170 C169 1.378 . S
C170 C171 1.396 . S
C171 H156 0.940 . S
C171 C166 1.391 . S
C171 C170 1.396 . S
C172 P152 1.803 . S
C172 C173 1.378 . S
C172 C177 1.400 . S
C173 H157 0.939 . S
C173 C172 1.378 . S
C173 C174 1.361 . S
C174 H158 0.942 . S
C174 C173 1.361 . S
C174 C175 1.369 . S
C175 C174 1.369 . S
C175 C176 1.404 . S
C176 H159 0.940 . S
C176 C175 1.404 . S
C176 C177 1.389 . S
C177 H160 0.939 . S
C177 C172 1.400 . S
C177 C176 1.389 . S
C178 P152 1.819 . S
C178 C179 1.391 . S
C178 C183 1.391 . S
C179 H161 0.941 . S
C179 C178 1.391 . S
C179 C180 1.396 . S
C180 H164 0.939 . S
C180 C179 1.396 . S
C180 C181 1.397 . S
C181 C180 1.397 . S
C181 C182 1.385 . S
C182 H165 0.940 . S
C182 C181 1.385 . S
C182 C183 1.388 . S
C183 H162 0.939 . S
C183 C178 1.391 . S
C183 C182 1.388 . S
P184 O195 1.490 . S
P184 C198 1.812 . S
P184 C204 1.803 . S
P184 C210 1.819 . S
H185 C199 0.941 . S
H186 C200 0.939 . S
H187 C202 0.940 . S
H188 C203 0.940 . S
H189 C205 0.939 1_455 S
H190 C206 0.942 . S
H191 C208 0.940 . S
H192 C209 0.939 1_455 S
H193 C211 0.941 . S
H194 C215 0.939 1_655 S
O195 P184 1.490 . S
H196 C212 0.939 . S
H197 C214 0.940 1_655 S
C198 P184 1.812 . S
C198 C199 1.389 . S
C198 C203 1.391 . S
C199 H185 0.941 . S
C199 C198 1.389 . S
C199 C200 1.397 . S
C200 H186 0.939 . S
C200 C199 1.397 . S
C200 C201 1.378 . S
C201 C200 1.378 . S
C201 C202 1.378 . S
C202 H187 0.940 . S
C202 C201 1.378 . S
C202 C203 1.396 . S
C203 H188 0.940 . S
C203 C198 1.391 . S
C203 C202 1.396 . S
C204 P184 1.803 . S
C204 C205 1.378 1_455 S
C204 C209 1.400 1_455 S
C205 H189 0.939 1_655 S
C205 C204 1.378 1_655 S
C205 C206 1.361 . S
C206 H190 0.942 . S
C206 C205 1.361 . S
C206 C207 1.369 . S
C207 C206 1.369 . S
C207 C208 1.404 . S
C208 H191 0.940 . S
C208 C207 1.404 . S
C208 C209 1.389 . S
C209 H192 0.939 1_655 S
C209 C204 1.400 1_655 S
C209 C208 1.389 . S
C210 P184 1.819 . S
C210 C211 1.391 . S
C210 C215 1.391 . S
C211 H193 0.941 . S
C211 C210 1.391 . S
C211 C212 1.396 . S
C212 H196 0.939 . S
C212 C211 1.396 . S
C212 C213 1.397 . S
C213 C212 1.397 . S
C213 C214 1.385 . S
C214 H197 0.940 1_455 S
C214 C213 1.385 . S
C214 C215 1.388 . S
C215 H194 0.939 1_455 S
C215 C210 1.391 . S
C215 C214 1.388 . S
P216 O227 1.490 . S
P216 C230 1.812 . S
P216 C236 1.828 . S
P216 C242 1.819 . S
H217 C231 0.941 . S
H218 C232 0.939 . S
H219 C234 0.940 . S
H220 C235 0.940 . S
H221 C237 0.939 . S
H222 C238 0.942 . S
H223 C240 0.940 . S
H224 C241 0.939 . S
H225 C243 0.941 . S
H226 C247 0.939 . S
O227 P216 1.490 . S
H228 C244 0.939 . S
H229 C246 0.940 . S
C230 P216 1.812 . S
C230 C231 1.389 . S
C230 C235 1.391 . S
C231 H217 0.941 . S
C231 C230 1.389 . S
C231 C232 1.397 . S
C232 H218 0.939 . S
C232 C231 1.397 . S
C232 C233 1.378 . S
C233 C232 1.378 . S
C233 C234 1.378 . S
C234 H219 0.940 . S
C234 C233 1.378 . S
C234 C235 1.396 . S
C235 H220 0.940 . S
C235 C230 1.391 . S
C235 C234 1.396 . S
C236 P216 1.828 . S
C236 C237 1.380 1_455 S
C236 C241 1.373 1_455 S
C237 H221 0.939 . S
C237 C236 1.380 1_655 S
C237 C238 1.361 . S
C238 H222 0.942 . S
C238 C237 1.361 . S
C238 C239 1.369 . S
C239 C238 1.369 . S
C239 C240 1.404 . S
C240 H223 0.940 . S
C240 C239 1.404 . S
C240 C241 1.389 . S
C241 H224 0.939 . S
C241 C236 1.373 1_655 S
C241 C240 1.389 . S
C242 P216 1.819 . S
C242 C243 1.391 . S
C242 C247 1.391 1_455 S
C243 H225 0.941 . S
C243 C242 1.391 . S
C243 C244 1.396 . S
C244 H228 0.939 . S
C244 C243 1.396 . S
C244 C245 1.397 . S
C245 C244 1.397 . S
C245 C246 1.385 1_455 S
C246 H229 0.940 . S
C246 C245 1.385 1_655 S
C246 C247 1.388 . S
C247 H226 0.939 . S
C247 C242 1.391 1_655 S
C247 C246 1.388 . S
P248 O259 1.490 . S
P248 C262 1.812 . S
P248 C268 1.782 1_545 S
P248 C274 1.819 . S
H249 C263 0.941 . S
H250 C264 0.939 . S
H251 C266 0.940 . S
H252 C267 0.940 . S
H253 C269 0.939 . S
H254 C270 0.942 . S
H255 C272 0.940 . S
H256 C273 0.939 . S
H257 C275 0.941 . S
H258 C279 0.939 . S
O259 P248 1.490 . S
H260 C276 0.939 . S
H261 C278 0.940 . S
C262 P248 1.812 . S
C262 C263 1.389 . S
C262 C267 1.391 . S
C263 H249 0.941 . S
C263 C262 1.389 . S
C263 C264 1.397 . S
C264 H250 0.939 . S
C264 C263 1.397 . S
C264 C265 1.378 . S
C265 C264 1.378 . S
C265 C266 1.378 . S
C266 H251 0.940 . S
C266 C265 1.378 . S
C266 C267 1.396 . S
C267 H252 0.940 . S
C267 C262 1.391 . S
C267 C266 1.396 . S
C268 P248 1.782 1_565 S
C268 C269 1.401 . S
C268 C273 1.401 . S
C269 H253 0.939 . S
C269 C268 1.401 . S
C269 C270 1.361 . S
C270 H254 0.942 . S
C270 C269 1.361 . S
C270 C271 1.369 . S
C271 C270 1.369 . S
C271 C272 1.404 . S
C272 H255 0.940 . S
C272 C271 1.404 . S
C272 C273 1.389 . S
C273 H256 0.939 . S
C273 C268 1.401 . S
C273 C272 1.389 . S
C274 P248 1.819 . S
C274 C275 1.391 . S
C274 C279 1.391 1_545 S
C275 H257 0.941 . S
C275 C274 1.391 . S
C275 C276 1.396 . S
C276 H260 0.939 . S
C276 C275 1.396 . S
C276 C277 1.397 . S
C277 C276 1.397 . S
C277 C278 1.385 1_545 S
C278 H261 0.940 . S
C278 C277 1.385 1_565 S
C278 C279 1.388 . S
C279 H258 0.939 . S
C279 C274 1.391 1_565 S
C279 C278 1.388 . S
P280 O291 1.490 . S
P280 C294 1.812 . S
P280 C300 1.803 . S
P280 C306 1.819 . S
H281 C295 0.941 . S
H282 C296 0.939 . S
H283 C298 0.940 . S
H284 C299 0.940 . S
H285 C301 0.939 . S
H286 C302 0.942 . S
H287 C304 0.940 . S
H288 C305 0.939 . S
H289 C307 0.941 . S
H290 C311 0.939 . S
O291 P280 1.490 . S
H292 C308 0.939 . S
H293 C310 0.940 . S
C294 P280 1.812 . S
C294 C295 1.389 . S
C294 C299 1.391 . S
C295 H281 0.941 . S
C295 C294 1.389 . S
C295 C296 1.397 . S
C296 H282 0.939 . S
C296 C295 1.397 . S
C296 C297 1.378 . S
C297 C296 1.378 . S
C297 C298 1.378 . S
C298 H283 0.940 . S
C298 C297 1.378 . S
C298 C299 1.396 . S
C299 H284 0.940 . S
C299 C294 1.391 . S
C299 C298 1.396 . S
C300 P280 1.803 . S
C300 C301 1.378 . S
C300 C305 1.400 . S
C301 H285 0.939 . S
C301 C300 1.378 . S
C301 C302 1.361 . S
C302 H286 0.942 . S
C302 C301 1.361 . S
C302 C303 1.369 . S
C303 C302 1.369 . S
C303 C304 1.404 . S
C304 H287 0.940 . S
C304 C303 1.404 . S
C304 C305 1.389 . S
C305 H288 0.939 . S
C305 C300 1.400 . S
C305 C304 1.389 . S
C306 P280 1.819 . S
C306 C307 1.391 . S
C306 C311 1.391 . S
C307 H289 0.941 . S
C307 C306 1.391 . S
C307 C308 1.396 . S
C308 H292 0.939 . S
C308 C307 1.396 . S
C308 C309 1.397 . S
C309 C308 1.397 . S
C309 C310 1.385 . S
C310 H293 0.940 . S
C310 C309 1.385 . S
C310 C311 1.388 . S
C311 H290 0.939 . S
C311 C306 1.391 . S
C311 C310 1.388 . S
C312 C313 1.349 . S
C312 C314 1.327 . S
C312 H337 0.950 . S
C313 C312 1.349 . S
C313 C329 1.349 . S
C314 C312 1.327 . S
C314 C333 1.429 . S
C314 H338 0.950 . S
C315 C332 1.574 . S
C315 C334 1.368 . S
C315 H339 0.949 . S
H316 C320 0.949 . S
C317 C318 1.349 . S
C317 C319 1.327 . S
C317 H340 0.950 . S
C318 C317 1.349 . S
C318 C330 1.349 . S
C319 C317 1.327 . S
C319 C335 1.429 . S
C319 H341 0.950 . S
C320 H316 0.949 . S
C320 C328 1.574 . S
C320 C336 1.368 . S
H321 C329 0.950 . S
H322 C327 0.950 . S
H323 C328 0.949 . S
H324 C330 0.950 . S
H325 C331 0.950 . S
H326 C332 0.949 . S
C327 H322 0.950 . S
C327 C329 1.327 . S
C327 C333 1.429 . S
C328 C320 1.574 . S
C328 H323 0.949 . S
C328 C334 1.368 . S
C329 C313 1.349 . S
C329 H321 0.950 . S
C329 C327 1.327 . S
C330 C318 1.349 . S
C330 H324 0.950 . S
C330 C331 1.327 . S
C331 H325 0.950 . S
C331 C330 1.327 . S
C331 C335 1.429 . S
C332 C315 1.574 . S
C332 H326 0.949 . S
C332 C336 1.368 . S
C333 C314 1.429 . S
C333 C327 1.429 . S
C333 C334 1.523 . S
C334 C315 1.368 . S
C334 C328 1.368 . S
C334 C333 1.523 . S
C335 C319 1.429 . S
C335 C331 1.429 . S
C335 C336 1.523 . S
C336 C320 1.368 . S
C336 C332 1.368 . S
C336 C335 1.523 . S
H337 C312 0.950 . S
H338 C314 0.950 . S
H339 C315 0.949 . S
H340 C317 0.950 . S
H341 C319 0.950 . S
C342 C343 1.349 . S
C342 C344 1.327 . S
C342 H367 0.950 . S
C343 C342 1.349 . S
C343 C359 1.349 . S
C344 C342 1.327 . S
C344 C363 1.429 . S
C344 H368 0.950 . S
C345 C362 1.574 . S
C345 C364 1.368 . S
C345 H369 0.949 . S
H346 C350 0.949 . S
C347 C348 1.349 . S
C347 C349 1.327 . S
C347 H370 0.950 . S
C348 C347 1.349 . S
C348 C360 1.349 . S
C349 C347 1.327 . S
C349 C365 1.429 . S
C349 H371 0.950 . S
C350 H346 0.949 . S
C350 C358 1.574 . S
C350 C366 1.368 . S
H351 C359 0.950 . S
H352 C357 0.950 . S
H353 C358 0.949 . S
H354 C360 0.950 . S
H355 C361 0.950 . S
H356 C362 0.949 . S
C357 H352 0.950 . S
C357 C359 1.327 . S
C357 C363 1.429 . S
C358 C350 1.574 . S
C358 H353 0.949 . S
C358 C364 1.368 . S
C359 C343 1.349 . S
C359 H351 0.950 . S
C359 C357 1.327 . S
C360 C348 1.349 . S
C360 H354 0.950 . S
C360 C361 1.327 . S
C361 H355 0.950 . S
C361 C360 1.327 . S
C361 C365 1.429 . S
C362 C345 1.574 . S
C362 H356 0.949 . S
C362 C366 1.368 . S
C363 C344 1.429 . S
C363 C357 1.429 . S
C363 C364 1.523 . S
C364 C345 1.368 . S
C364 C358 1.368 . S
C364 C363 1.523 . S
C365 C349 1.429 . S
C365 C361 1.429 . S
C365 C366 1.523 . S
C366 C350 1.368 . S
C366 C362 1.368 . S
C366 C365 1.523 . S
H367 C342 0.950 . S
H368 C344 0.950 . S
H369 C345 0.949 . S
H370 C347 0.950 . S
H371 C349 0.950 . S
C372 C373 1.349 . S
C372 C374 1.327 . S
C372 H397 0.950 . S
C373 C372 1.349 . S
C373 C389 1.349 . S
C374 C372 1.327 . S
C374 C393 1.429 . S
C374 H398 0.950 . S
C375 C392 1.574 . S
C375 C394 1.368 . S
C375 H399 0.949 . S
H376 C380 0.949 . S
C377 C378 1.349 . S
C377 C379 1.327 . S
C377 H400 0.950 . S
C378 C377 1.349 . S
C378 C390 1.349 . S
C379 C377 1.327 . S
C379 C395 1.429 . S
C379 H401 0.950 . S
C380 H376 0.949 . S
C380 C388 1.574 . S
C380 C396 1.368 . S
H381 C389 0.950 . S
H382 C387 0.950 . S
H383 C388 0.949 . S
H384 C390 0.950 . S
H385 C391 0.950 . S
H386 C392 0.949 . S
C387 H382 0.950 . S
C387 C389 1.327 . S
C387 C393 1.429 . S
C388 C380 1.574 . S
C388 H383 0.949 . S
C388 C394 1.368 . S
C389 C373 1.349 . S
C389 H381 0.950 . S
C389 C387 1.327 . S
C390 C378 1.349 . S
C390 H384 0.950 . S
C390 C391 1.327 . S
C391 H385 0.950 . S
C391 C390 1.327 . S
C391 C395 1.429 . S
C392 C375 1.574 . S
C392 H386 0.949 . S
C392 C396 1.368 . S
C393 C374 1.429 . S
C393 C387 1.429 . S
C393 C394 1.523 . S
C394 C375 1.368 . S
C394 C388 1.368 . S
C394 C393 1.523 . S
C395 C379 1.429 . S
C395 C391 1.429 . S
C395 C396 1.523 . S
C396 C380 1.368 . S
C396 C392 1.368 . S
C396 C395 1.523 . S
H397 C372 0.950 . S
H398 C374 0.950 . S
H399 C375 0.949 . S
H400 C377 0.950 . S
H401 C379 0.950 . S
C402 C403 1.349 . S
C402 C404 1.327 . S
C402 H427 0.950 . S
C403 C402 1.349 . S
C403 C419 1.349 . S
C404 C402 1.327 . S
C404 C423 1.429 . S
C404 H428 0.950 . S
C405 C422 1.574 . S
C405 C424 1.368 . S
C405 H429 0.949 . S
H406 C410 0.949 . S
C407 C408 1.349 . S
C407 C409 1.327 . S
C407 H430 0.950 . S
C408 C407 1.349 . S
C408 C420 1.349 . S
C409 C407 1.327 . S
C409 C425 1.429 . S
C409 H431 0.950 . S
C410 H406 0.949 . S
C410 C418 1.574 . S
C410 C426 1.368 . S
H411 C419 0.950 . S
H412 C417 0.950 . S
H413 C418 0.949 . S
H414 C420 0.950 . S
H415 C421 0.950 . S
H416 C422 0.949 . S
C417 H412 0.950 . S
C417 C419 1.327 . S
C417 C423 1.429 . S
C418 C410 1.574 . S
C418 H413 0.949 . S
C418 C424 1.368 . S
C419 C403 1.349 . S
C419 H411 0.950 . S
C419 C417 1.327 . S
C420 C408 1.349 . S
C420 H414 0.950 . S
C420 C421 1.327 . S
C421 H415 0.950 . S
C421 C420 1.327 . S
C421 C425 1.429 . S
C422 C405 1.574 . S
C422 H416 0.949 . S
C422 C426 1.368 . S
C423 C404 1.429 . S
C423 C417 1.429 . S
C423 C424 1.523 . S
C424 C405 1.368 . S
C424 C418 1.368 . S
C424 C423 1.523 . S
C425 C409 1.429 . S
C425 C421 1.429 . S
C425 C426 1.523 . S
C426 C410 1.368 . S
C426 C422 1.368 . S
C426 C425 1.523 . S
H427 C402 0.950 . S
H428 C404 0.950 . S
H429 C405 0.949 . S
H430 C407 0.950 . S
H431 C409 0.950 . S
C432 C433 1.349 . S
C432 C434 1.327 . S
C432 H457 0.950 . S
C433 C432 1.349 . S
C433 C449 1.349 . S
C434 C432 1.327 . S
C434 C453 1.429 . S
C434 H458 0.950 . S
C435 C452 1.574 . S
C435 C454 1.368 . S
C435 H459 0.949 . S
H436 C440 0.949 . S
C437 C438 1.349 . S
C437 C439 1.327 . S
C437 H460 0.950 . S
C438 C437 1.349 . S
C438 C450 1.349 . S
C439 C437 1.327 . S
C439 C455 1.429 . S
C439 H461 0.950 . S
C440 H436 0.949 . S
C440 C448 1.574 . S
C440 C456 1.368 . S
H441 C449 0.950 . S
H442 C447 0.950 . S
H443 C448 0.949 . S
H444 C450 0.950 . S
H445 C451 0.950 . S
H446 C452 0.949 . S
C447 H442 0.950 . S
C447 C449 1.327 . S
C447 C453 1.429 . S
C448 C440 1.574 . S
C448 H443 0.949 . S
C448 C454 1.368 . S
C449 C433 1.349 . S
C449 H441 0.950 . S
C449 C447 1.327 . S
C450 C438 1.349 . S
C450 H444 0.950 . S
C450 C451 1.327 . S
C451 H445 0.950 . S
C451 C450 1.327 . S
C451 C455 1.429 . S
C452 C435 1.574 . S
C452 H446 0.949 . S
C452 C456 1.368 . S
C453 C434 1.429 . S
C453 C447 1.429 . S
C453 C454 1.523 . S
C454 C435 1.368 . S
C454 C448 1.368 . S
C454 C453 1.523 . S
C455 C439 1.429 . S
C455 C451 1.429 . S
C455 C456 1.523 . S
C456 C440 1.368 . S
C456 C452 1.368 . S
C456 C455 1.523 . S
H457 C432 0.950 . S
H458 C434 0.950 . S
H459 C435 0.949 . S
H460 C437 0.950 . S
H461 C439 0.950 . S
C462 C463 1.349 . S
C462 C464 1.327 . S
C462 H487 0.950 . S
C463 C462 1.349 . S
C463 C479 1.349 . S
C464 C462 1.327 . S
C464 C483 1.429 . S
C464 H488 0.950 . S
C465 C482 1.574 . S
C465 C484 1.368 . S
C465 H489 0.949 . S
H466 C470 0.949 . S
C467 C468 1.349 . S
C467 C469 1.327 . S
C467 H490 0.950 . S
C468 C467 1.349 . S
C468 C480 1.349 . S
C469 C467 1.327 . S
C469 C485 1.429 . S
C469 H491 0.950 . S
C470 H466 0.949 . S
C470 C478 1.574 . S
C470 C486 1.368 . S
H471 C479 0.950 . S
H472 C477 0.950 . S
H473 C478 0.949 . S
H474 C480 0.950 . S
H475 C481 0.950 . S
H476 C482 0.949 . S
C477 H472 0.950 . S
C477 C479 1.327 . S
C477 C483 1.429 . S
C478 C470 1.574 . S
C478 H473 0.949 . S
C478 C484 1.368 . S
C479 C463 1.349 . S
C479 H471 0.950 . S
C479 C477 1.327 . S
C480 C468 1.349 . S
C480 H474 0.950 . S
C480 C481 1.327 . S
C481 H475 0.950 . S
C481 C480 1.327 . S
C481 C485 1.429 . S
C482 C465 1.574 . S
C482 H476 0.949 . S
C482 C486 1.368 . S
C483 C464 1.429 . S
C483 C477 1.429 . S
C483 C484 1.523 . S
C484 C465 1.368 . S
C484 C478 1.368 . S
C484 C483 1.523 . S
C485 C469 1.429 . S
C485 C481 1.429 . S
C485 C486 1.523 . S
C486 C470 1.368 . S
C486 C482 1.368 . S
C486 C485 1.523 . S
H487 C462 0.950 . S
H488 C464 0.950 . S
H489 C465 0.949 . S
H490 C467 0.950 . S
H491 C469 0.950 . S
C492 C493 1.349 . S
C492 C494 1.327 . S
C492 H517 0.950 . S
C493 C492 1.349 . S
C493 C509 1.349 . S
C494 C492 1.327 . S
C494 C513 1.429 . S
C494 H518 0.950 . S
C495 C512 1.574 . S
C495 C514 1.368 . S
C495 H519 0.949 . S
H496 C500 0.949 . S
C497 C498 1.349 . S
C497 C499 1.327 . S
C497 H520 0.950 . S
C498 C497 1.349 . S
C498 C510 1.349 . S
C499 C497 1.327 . S
C499 C515 1.429 . S
C499 H521 0.950 . S
C500 H496 0.949 . S
C500 C508 1.574 . S
C500 C516 1.368 . S
H501 C509 0.950 . S
H502 C507 0.950 . S
H503 C508 0.949 . S
H504 C510 0.950 . S
H505 C511 0.950 . S
H506 C512 0.949 . S
C507 H502 0.950 . S
C507 C509 1.327 . S
C507 C513 1.429 . S
C508 C500 1.574 . S
C508 H503 0.949 . S
C508 C514 1.368 . S
C509 C493 1.349 . S
C509 H501 0.950 . S
C509 C507 1.327 . S
C510 C498 1.349 . S
C510 H504 0.950 . S
C510 C511 1.327 . S
C511 H505 0.950 . S
C511 C510 1.327 . S
C511 C515 1.429 . S
C512 C495 1.574 . S
C512 H506 0.949 . S
C512 C516 1.368 . S
C513 C494 1.429 . S
C513 C507 1.429 . S
C513 C514 1.523 . S
C514 C495 1.368 . S
C514 C508 1.368 . S
C514 C513 1.523 . S
C515 C499 1.429 . S
C515 C511 1.429 . S
C515 C516 1.523 . S
C516 C500 1.368 . S
C516 C512 1.368 . S
C516 C515 1.523 . S
H517 C492 0.950 . S
H518 C494 0.950 . S
H519 C495 0.949 . S
H520 C497 0.950 . S
H521 C499 0.950 . S
C522 C523 1.349 . S
C522 C524 1.327 . S
C522 H547 0.950 . S
C523 C522 1.349 . S
C523 C539 1.349 . S
C524 C522 1.327 . S
C524 C543 1.429 . S
C524 H548 0.950 . S
C525 C542 1.574 . S
C525 C544 1.368 . S
C525 H549 0.949 . S
H526 C530 0.949 . S
C527 C528 1.349 . S
C527 C529 1.327 . S
C527 H550 0.950 . S
C528 C527 1.349 . S
C528 C540 1.349 . S
C529 C527 1.327 . S
C529 C545 1.429 . S
C529 H551 0.950 . S
C530 H526 0.949 . S
C530 C538 1.574 . S
C530 C546 1.368 . S
H531 C539 0.950 . S
H532 C537 0.950 . S
H533 C538 0.949 . S
H534 C540 0.950 . S
H535 C541 0.950 . S
H536 C542 0.949 . S
C537 H532 0.950 . S
C537 C539 1.327 . S
C537 C543 1.429 . S
C538 C530 1.574 . S
C538 H533 0.949 . S
C538 C544 1.368 . S
C539 C523 1.349 . S
C539 H531 0.950 . S
C539 C537 1.327 . S
C540 C528 1.349 . S
C540 H534 0.950 . S
C540 C541 1.327 . S
C541 H535 0.950 . S
C541 C540 1.327 . S
C541 C545 1.429 . S
C542 C525 1.574 . S
C542 H536 0.949 . S
C542 C546 1.368 . S
C543 C524 1.429 . S
C543 C537 1.429 . S
C543 C544 1.523 . S
C544 C525 1.368 . S
C544 C538 1.368 . S
C544 C543 1.523 . S
C545 C529 1.429 . S
C545 C541 1.429 . S
C545 C546 1.523 . S
C546 C530 1.368 . S
C546 C542 1.368 . S
C546 C545 1.523 . S
H547 C522 0.950 . S
H548 C524 0.950 . S
H549 C525 0.949 . S
H550 C527 0.950 . S
H551 C529 0.950 . S
C552 C553 1.349 . S
C552 C554 1.327 . S
C552 H577 0.950 . S
C553 C552 1.349 . S
C553 C569 1.349 . S
C554 C552 1.327 . S
C554 C573 1.429 . S
C554 H578 0.950 . S
C555 C572 1.574 . S
C555 C574 1.368 . S
C555 H579 0.949 . S
H556 C560 0.949 . S
C557 C558 1.349 . S
C557 C559 1.327 . S
C557 H580 0.950 . S
C558 C557 1.349 . S
C558 C570 1.349 . S
C559 C557 1.327 . S
C559 C575 1.429 . S
C559 H581 0.950 . S
C560 H556 0.949 . S
C560 C568 1.574 . S
C560 C576 1.368 . S
H561 C569 0.950 . S
H562 C567 0.950 . S
H563 C568 0.949 . S
H564 C570 0.950 . S
H565 C571 0.950 . S
H566 C572 0.949 . S
C567 H562 0.950 . S
C567 C569 1.327 . S
C567 C573 1.429 . S
C568 C560 1.574 . S
C568 H563 0.949 . S
C568 C574 1.368 . S
C569 C553 1.349 . S
C569 H561 0.950 . S
C569 C567 1.327 . S
C570 C558 1.349 . S
C570 H564 0.950 . S
C570 C571 1.327 . S
C571 H565 0.950 . S
C571 C570 1.327 . S
C571 C575 1.429 . S
C572 C555 1.574 . S
C572 H566 0.949 . S
C572 C576 1.368 . S
C573 C554 1.429 . S
C573 C567 1.429 . S
C573 C574 1.523 . S
C574 C555 1.368 . S
C574 C568 1.368 . S
C574 C573 1.523 . S
C575 C559 1.429 . S
C575 C571 1.429 . S
C575 C576 1.523 . S
C576 C560 1.368 . S
C576 C572 1.368 . S
C576 C575 1.523 . S
H577 C552 0.950 . S
H578 C554 0.950 . S
H579 C555 0.949 . S
H580 C557 0.950 . S
H581 C559 0.950 . S
C582 C583 1.349 . S
C582 C584 1.327 . S
C582 H607 0.950 . S
C583 C582 1.349 . S
C583 C599 1.349 . S
C584 C582 1.327 . S
C584 C603 1.429 . S
C584 H608 0.950 . S
C585 C602 1.574 . S
C585 C604 1.368 . S
C585 H609 0.949 . S
H586 C590 0.949 . S
C587 C588 1.349 . S
C587 C589 1.327 . S
C587 H610 0.950 . S
C588 C587 1.349 . S
C588 C600 1.349 . S
C589 C587 1.327 . S
C589 C605 1.429 . S
C589 H611 0.950 . S
C590 H586 0.949 . S
C590 C598 1.574 . S
C590 C606 1.368 . S
H591 C599 0.950 . S
H592 C597 0.950 . S
H593 C598 0.949 . S
H594 C600 0.950 . S
H595 C601 0.950 . S
H596 C602 0.949 . S
C597 H592 0.950 . S
C597 C599 1.327 . S
C597 C603 1.429 . S
C598 C590 1.574 . S
C598 H593 0.949 . S
C598 C604 1.368 . S
C599 C583 1.349 . S
C599 H591 0.950 . S
C599 C597 1.327 . S
C600 C588 1.349 . S
C600 H594 0.950 . S
C600 C601 1.327 . S
C601 H595 0.950 . S
C601 C600 1.327 . S
C601 C605 1.429 . S
C602 C585 1.574 . S
C602 H596 0.949 . S
C602 C606 1.368 . S
C603 C584 1.429 . S
C603 C597 1.429 . S
C603 C604 1.523 . S
C604 C585 1.368 . S
C604 C598 1.368 . S
C604 C603 1.523 . S
C605 C589 1.429 . S
C605 C601 1.429 . S
C605 C606 1.523 . S
C606 C590 1.368 . S
C606 C602 1.368 . S
C606 C605 1.523 . S
H607 C582 0.950 . S
H608 C584 0.950 . S
H609 C585 0.949 . S
H610 C587 0.950 . S
H611 C589 0.950 . S
C612 C613 1.349 . S
C612 C614 1.327 . S
C612 H637 0.950 . S
C613 C612 1.349 . S
C613 C629 1.349 . S
C614 C612 1.327 . S
C614 C633 1.429 . S
C614 H638 0.950 . S
C615 C632 1.574 . S
C615 C634 1.368 . S
C615 H639 0.949 . S
H616 C620 0.949 . S
C617 C618 1.349 . S
C617 C619 1.327 . S
C617 H640 0.950 . S
C618 C617 1.349 . S
C618 C630 1.349 . S
C619 C617 1.327 . S
C619 C635 1.429 . S
C619 H641 0.950 . S
C620 H616 0.949 . S
C620 C628 1.574 . S
C620 C636 1.368 . S
H621 C629 0.950 . S
H622 C627 0.950 . S
H623 C628 0.949 . S
H624 C630 0.950 . S
H625 C631 0.950 . S
H626 C632 0.949 . S
C627 H622 0.950 . S
C627 C629 1.327 . S
C627 C633 1.429 . S
C628 C620 1.574 . S
C628 H623 0.949 . S
C628 C634 1.368 . S
C629 C613 1.349 . S
C629 H621 0.950 . S
C629 C627 1.327 . S
C630 C618 1.349 . S
C630 H624 0.950 . S
C630 C631 1.327 . S
C631 H625 0.950 . S
C631 C630 1.327 . S
C631 C635 1.429 . S
C632 C615 1.574 . S
C632 H626 0.949 . S
C632 C636 1.368 . S
C633 C614 1.429 . S
C633 C627 1.429 . S
C633 C634 1.523 . S
C634 C615 1.368 . S
C634 C628 1.368 . S
C634 C633 1.523 . S
C635 C619 1.429 . S
C635 C631 1.429 . S
C635 C636 1.523 . S
C636 C620 1.368 . S
C636 C632 1.368 . S
C636 C635 1.523 . S
H637 C612 0.950 . S
H638 C614 0.950 . S
H639 C615 0.949 . S
H640 C617 0.950 . S
H641 C619 0.950 . S
C642 C643 1.349 . S
C642 C644 1.327 . S
C642 H667 0.950 . S
C643 C642 1.349 . S
C643 C659 1.349 . S
C644 C642 1.327 . S
C644 C663 1.429 . S
C644 H668 0.950 . S
C645 C662 1.574 . S
C645 C664 1.368 . S
C645 H669 0.949 . S
H646 C650 0.949 . S
C647 C648 1.349 . S
C647 C649 1.327 . S
C647 H670 0.950 . S
C648 C647 1.349 . S
C648 C660 1.349 . S
C649 C647 1.327 . S
C649 C665 1.429 . S
C649 H671 0.950 . S
C650 H646 0.949 . S
C650 C658 1.574 . S
C650 C666 1.368 . S
H651 C659 0.950 . S
H652 C657 0.950 . S
H653 C658 0.949 . S
H654 C660 0.950 . S
H655 C661 0.950 . S
H656 C662 0.949 . S
C657 H652 0.950 . S
C657 C659 1.327 . S
C657 C663 1.429 . S
C658 C650 1.574 . S
C658 H653 0.949 . S
C658 C664 1.368 . S
C659 C643 1.349 . S
C659 H651 0.950 . S
C659 C657 1.327 . S
C660 C648 1.349 . S
C660 H654 0.950 . S
C660 C661 1.327 . S
C661 H655 0.950 . S
C661 C660 1.327 . S
C661 C665 1.429 . S
C662 C645 1.574 . S
C662 H656 0.949 . S
C662 C666 1.368 . S
C663 C644 1.429 . S
C663 C657 1.429 . S
C663 C664 1.523 . S
C664 C645 1.368 . S
C664 C658 1.368 . S
C664 C663 1.523 . S
C665 C649 1.429 . S
C665 C661 1.429 . S
C665 C666 1.523 . S
C666 C650 1.368 . S
C666 C662 1.368 . S
C666 C665 1.523 . S
H667 C642 0.950 . S
H668 C644 0.950 . S
H669 C645 0.949 . S
H670 C647 0.950 . S
H671 C649 0.950 . S
C672 C673 1.349 . S
C672 C674 1.327 . S
C672 H697 0.950 . S
C673 C672 1.349 . S
C673 C689 1.349 1_455 S
C674 C672 1.327 . S
C674 C693 1.429 . S
C674 H698 0.950 . S
C675 C692 1.574 . S
C675 C694 1.368 1_655 S
C675 H699 0.949 . S
H676 C680 0.949 . S
C677 C678 1.349 . S
C677 C679 1.327 1_455 S
C677 H700 0.950 1_455 S
C678 C677 1.349 . S
C678 C690 1.349 . S
C679 C677 1.327 1_655 S
C679 C695 1.429 1_656 S
C679 H701 0.950 . S
C680 H676 0.949 . S
C680 C688 1.574 . S
C680 C696 1.368 . S
H681 C689 0.950 . S
H682 C687 0.950 . S
H683 C688 0.949 . S
H684 C690 0.950 . S
H685 C691 0.950 1_554 S
H686 C692 0.949 . S
C687 H682 0.950 . S
C687 C689 1.327 . S
C687 C693 1.429 1_655 S
C688 C680 1.574 . S
C688 H683 0.949 . S
C688 C694 1.368 . S
C689 C673 1.349 1_655 S
C689 H681 0.950 . S
C689 C687 1.327 . S
C690 C678 1.349 . S
C690 H684 0.950 . S
C690 C691 1.327 . S
C691 H685 0.950 1_556 S
C691 C690 1.327 . S
C691 C695 1.429 1_556 S
C692 C675 1.574 . S
C692 H686 0.949 . S
C692 C696 1.368 1_655 S
C693 C674 1.429 . S
C693 C687 1.429 1_455 S
C693 C694 1.523 . S
C694 C675 1.368 1_455 S
C694 C688 1.368 . S
C694 C693 1.523 . S
C695 C679 1.429 1_454 S
C695 C691 1.429 1_554 S
C695 C696 1.523 . S
C696 C680 1.368 . S
C696 C692 1.368 1_455 S
C696 C695 1.523 . S
H697 C672 0.950 . S
H698 C674 0.950 . S
H699 C675 0.949 . S
H700 C677 0.950 1_655 S
H701 C679 0.950 . S
C702 C703 1.349 1_565 S
C702 C704 1.327 . S
C702 H727 0.950 . S
C703 C702 1.349 1_545 S
C703 C719 1.349 . S
C704 C702 1.327 . S
C704 C723 1.429 1_565 S
C704 H728 0.950 . S
C705 C722 1.574 . S
C705 C724 1.368 . S
C705 H729 0.949 . S
H706 C710 0.949 . S
C707 C708 1.349 . S
C707 C709 1.327 . S
C707 H730 0.950 . S
C708 C707 1.349 . S
C708 C720 1.329 1_545 S
C709 C707 1.327 . S
C709 C725 1.429 . S
C709 H731 0.950 . S
C710 H706 0.949 . S
C710 C718 1.574 . S
C710 C726 1.368 1_565 S
H711 C719 0.950 . S
H712 C717 0.950 . S
H713 C718 0.949 . S
H714 C720 0.964 . S
H715 C721 0.950 . S
H716 C722 0.949 . S
C717 H712 0.950 . S
C717 C719 1.327 . S
C717 C723 1.429 . S
C718 C710 1.574 . S
C718 H713 0.949 . S
C718 C724 1.368 1_565 S
C719 C703 1.349 . S
C719 H711 0.950 . S
C719 C717 1.327 . S
C720 C708 1.329 1_565 S
C720 H714 0.964 . S
C720 C721 1.335 . S
C721 H715 0.950 . S
C721 C720 1.335 . S
C721 C725 1.429 1_565 S
C722 C705 1.574 . S
C722 H716 0.949 . S
C722 C726 1.368 . S
C723 C704 1.429 1_545 S
C723 C717 1.429 . S
C723 C724 1.523 . S
C724 C705 1.368 . S
C724 C718 1.368 1_545 S
C724 C723 1.523 . S
C725 C709 1.429 . S
C725 C721 1.429 1_545 S
C725 C726 1.523 . S
C726 C710 1.368 1_545 S
C726 C722 1.368 . S
C726 C725 1.523 . S
H727 C702 0.950 . S
H728 C704 0.950 . S
H729 C705 0.949 . S
H730 C707 0.950 . S
H731 C709 0.950 . S
C732 C733 1.349 . S
C732 C734 1.327 . S
C732 H757 0.950 . S
C733 C732 1.349 . S
C733 C749 1.349 . S
C734 C732 1.327 . S
C734 C753 1.429 . S
C734 H758 0.950 . S
C735 C752 1.574 . S
C735 C754 1.368 . S
C735 H759 0.949 . S
H736 C740 0.949 . S
C737 C738 1.349 . S
C737 C739 1.327 . S
C737 H760 0.950 . S
C738 C737 1.349 . S
C738 C750 1.349 . S
C739 C737 1.327 . S
C739 C755 1.429 . S
C739 H761 0.950 . S
C740 H736 0.949 . S
C740 C748 1.574 . S
C740 C756 1.368 . S
H741 C749 0.950 . S
H742 C747 0.950 . S
H743 C748 0.949 . S
H744 C750 0.950 . S
H745 C751 0.950 . S
H746 C752 0.949 . S
C747 H742 0.950 . S
C747 C749 1.327 . S
C747 C753 1.429 . S
C748 C740 1.574 . S
C748 H743 0.949 . S
C748 C754 1.368 . S
C749 C733 1.349 . S
C749 H741 0.950 . S
C749 C747 1.327 . S
C750 C738 1.349 . S
C750 H744 0.950 . S
C750 C751 1.327 . S
C751 H745 0.950 . S
C751 C750 1.327 . S
C751 C755 1.429 . S
C752 C735 1.574 . S
C752 H746 0.949 . S
C752 C756 1.368 . S
C753 C734 1.429 . S
C753 C747 1.429 . S
C753 C754 1.523 . S
C754 C735 1.368 . S
C754 C748 1.368 . S
C754 C753 1.523 . S
C755 C739 1.429 . S
C755 C751 1.429 . S
C755 C756 1.523 . S
C756 C740 1.368 . S
C756 C752 1.368 . S
C756 C755 1.523 . S
H757 C732 0.950 . S
H758 C734 0.950 . S
H759 C735 0.949 . S
H760 C737 0.950 . S
H761 C739 0.950 . S
C762 C763 1.349 1_565 S
C762 C764 1.327 . S
C762 H787 0.950 . S
C763 C762 1.349 1_545 S
C763 C779 1.349 . S
C764 C762 1.327 . S
C764 C783 1.429 1_565 S
C764 H788 0.950 . S
C765 C782 1.574 . S
C765 C784 1.368 . S
C765 H789 0.949 . S
H766 C770 0.949 . S
C767 C768 1.349 . S
C767 C769 1.327 . S
C767 H790 0.950 . S
C768 C767 1.349 . S
C768 C780 1.349 1_545 S
C769 C767 1.327 . S
C769 C785 1.429 . S
C769 H791 0.950 . S
C770 H766 0.949 . S
C770 C778 1.574 . S
C770 C786 1.368 1_565 S
H771 C779 0.950 . S
H772 C777 0.950 . S
H773 C778 0.949 . S
H774 C780 0.950 . S
H775 C781 0.950 . S
H776 C782 0.949 . S
C777 H772 0.950 . S
C777 C779 1.327 . S
C777 C783 1.429 . S
C778 C770 1.574 . S
C778 H773 0.949 . S
C778 C784 1.368 1_565 S
C779 C763 1.349 . S
C779 H771 0.950 . S
C779 C777 1.327 . S
C780 C768 1.349 1_565 S
C780 H774 0.950 . S
C780 C781 1.327 . S
C781 H775 0.950 . S
C781 C780 1.327 . S
C781 C785 1.429 1_565 S
C782 C765 1.574 . S
C782 H776 0.949 . S
C782 C786 1.368 . S
C783 C764 1.429 1_545 S
C783 C777 1.429 . S
C783 C784 1.523 . S
C784 C765 1.368 . S
C784 C778 1.368 1_545 S
C784 C783 1.523 . S
C785 C769 1.429 . S
C785 C781 1.429 1_545 S
C785 C786 1.523 . S
C786 C770 1.368 1_545 S
C786 C782 1.368 . S
C786 C785 1.523 . S
H787 C762 0.950 . S
H788 C764 0.950 . S
H789 C765 0.949 . S
H790 C767 0.950 . S
H791 C769 0.950 . S
C792 C793 1.349 . S
C792 C794 1.327 . S
C792 H817 0.950 . S
C793 C792 1.349 . S
C793 C809 1.349 . S
C794 C792 1.327 . S
C794 C813 1.429 . S
C794 H818 0.950 . S
C795 C812 1.574 . S
C795 C814 1.368 . S
C795 H819 0.949 . S
H796 C800 0.949 . S
C797 C798 1.349 . S
C797 C799 1.327 . S
C797 H820 0.950 . S
C798 C797 1.349 . S
C798 C810 1.349 . S
C799 C797 1.327 . S
C799 C815 1.429 1_554 S
C799 H821 0.980 . S
C800 H796 0.949 . S
C800 C808 1.574 . S
C800 C816 1.368 . S
H801 C809 0.950 . S
H802 C807 0.950 . S
H803 C808 0.949 . S
H804 C810 0.950 . S
H805 C811 0.950 1_556 S
H806 C812 0.949 . S
C807 H802 0.950 . S
C807 C809 1.327 . S
C807 C813 1.429 . S
C808 C800 1.574 . S
C808 H803 0.949 . S
C808 C814 1.368 . S
C809 C793 1.349 . S
C809 H801 0.950 . S
C809 C807 1.327 . S
C810 C798 1.349 . S
C810 H804 0.950 . S
C810 C811 1.327 . S
C811 H805 0.950 1_554 S
C811 C810 1.327 . S
C811 C815 1.429 1_554 S
C812 C795 1.574 . S
C812 H806 0.949 . S
C812 C816 1.368 . S
C813 C794 1.429 . S
C813 C807 1.429 . S
C813 C814 1.523 . S
C814 C795 1.368 . S
C814 C808 1.368 . S
C814 C813 1.523 . S
C815 C799 1.429 1_556 S
C815 C811 1.429 1_556 S
C815 C816 1.523 . S
C816 C800 1.368 . S
C816 C812 1.368 . S
C816 C815 1.523 . S
H817 C792 0.950 . S
H818 C794 0.950 . S
H819 C795 0.949 . S
H820 C797 0.950 . S
H821 C799 0.980 . S
C822 C823 1.346 1_455 S
C822 C824 1.327 . S
C822 H847 0.950 . S
C823 C822 1.346 1_655 S
C823 C839 1.351 . S
C824 C822 1.327 . S
C824 C843 1.429 . S
C824 H848 0.950 . S
C825 C842 1.575 . S
C825 C844 1.379 . S
C825 H849 0.939 1_455 S
H826 C830 0.949 . S
C827 C828 1.349 . S
C827 C829 1.327 . S
C827 H850 0.950 . S
C828 C827 1.349 . S
C828 C840 1.349 . S
C829 C827 1.327 . S
C829 C845 1.429 . S
C829 H851 0.950 . S
C830 H826 0.949 . S
C830 C838 1.574 . S
C830 C846 1.368 . S
H831 C839 0.950 . S
H832 C837 0.950 . S
H833 C838 0.949 . S
H834 C840 0.950 . S
H835 C841 0.950 . S
H836 C842 0.952 . S
C837 H832 0.950 . S
C837 C839 1.327 . S
C837 C843 1.429 1_655 S
C838 C830 1.574 . S
C838 H833 0.949 . S
C838 C844 1.368 . S
C839 C823 1.351 . S
C839 H831 0.950 . S
C839 C837 1.327 . S
C840 C828 1.349 . S
C840 H834 0.950 . S
C840 C841 1.327 . S
C841 H835 0.950 . S
C841 C840 1.327 . S
C841 C845 1.429 . S
C842 C825 1.575 . S
C842 H836 0.952 . S
C842 C846 1.368 . S
C843 C824 1.429 . S
C843 C837 1.429 1_455 S
C843 C844 1.523 . S
C844 C825 1.379 . S
C844 C838 1.368 . S
C844 C843 1.523 . S
C845 C829 1.429 . S
C845 C841 1.429 . S
C845 C846 1.523 . S
C846 C830 1.368 . S
C846 C842 1.368 . S
C846 C845 1.523 . S
H847 C822 0.950 . S
H848 C824 0.950 . S
H849 C825 0.939 1_655 S
H850 C827 0.950 . S
H851 C829 0.950 . S
C313 C12 2.821 . S
C318 C303 2.764 . S
C343 C52 2.849 . S
C348 C239 2.797 . S
C373 C111 2.903 . S
C378 C271 2.848 . S
C403 C31 3.064 . S
C408 C297 3.007 . S
C438 C233 2.976 . S
C433 C71 3.038 . S
C468 C265 2.921 . S
C463 C92 2.976 . S
C493 C48 0.410 . S
C498 C175 0.359 . S
C523 C109 0.425 . S
C528 C207 0.306 . S
C553 C29 0.405 . S
C558 C137 0.385 . S
C588 C169 0.255 . S
C583 C69 0.353 . S
C618 C201 0.288 . S
C613 C88 0.269 . S
C643 C8 0.269 . S
C648 C143 0.346 . S
C678 C213 1.098 . S
C673 C17 1.093 1_455 S
C703 C57 1.089 . S
C708 C149 1.079 . S
C733 C97 1.098 . S
C738 C181 1.106 . S
C768 C277 1.733 . S
C763 C42 1.710 . S
C798 C309 1.732 . S
C793 C82 1.716 . S
C823 C2 1.723 1_655 S
C828 C245 1.736 . S
