# Generated by pormake.
# Topology anh, (6,3)-cn, num edge types: 1
# Building blocks:
#     Node 0, Type 0, BuildingBlock: INOVEN_clean_sbu_0, # of connection points: 6
#     Node 1, Type 0, BuildingBlock: INOVEN_clean_sbu_0, # of connection points: 6
#     Node 2, Type 0, BuildingBlock: INOVEN_clean_sbu_0, # of connection points: 6
#     Node 3, Type 1, BuildingBlock: BETDAH_clean_linker_0, # of connection points: 3
#     Node 4, Type 1, BuildingBlock: BETDAH_clean_linker_0, # of connection points: 3
#     Node 5, Type 1, BuildingBlock: BETDAH_clean_linker_0, # of connection points: 3
#     Node 6, Type 1, BuildingBlock: BETDAH_clean_linker_0, # of connection points: 3
#     Node 7, Type 1, BuildingBlock: BETDAH_clean_linker_0, # of connection points: 3
#     Node 8, Type 1, BuildingBlock: BETDAH_clean_linker_0, # of connection points: 3
#     Edge 9, Type (0, 1), BuildingBlock: XIVTED_clean_linker_0, # of connection points: 2
#     Edge 10, Type (0, 1), BuildingBlock: XIVTED_clean_linker_0, # of connection points: 2
#     Edge 11, Type (0, 1), BuildingBlock: XIVTED_clean_linker_0, # of connection points: 2
#     Edge 12, Type (0, 1), BuildingBlock: XIVTED_clean_linker_0, # of connection points: 2
#     Edge 13, Type (0, 1), BuildingBlock: XIVTED_clean_linker_0, # of connection points: 2
#     Edge 14, Type (0, 1), BuildingBlock: XIVTED_clean_linker_0, # of connection points: 2
#     Edge 15, Type (0, 1), BuildingBlock: XIVTED_clean_linker_0, # of connection points: 2
#     Edge 16, Type (0, 1), BuildingBlock: XIVTED_clean_linker_0, # of connection points: 2
#     Edge 17, Type (0, 1), BuildingBlock: XIVTED_clean_linker_0, # of connection points: 2
#     Edge 18, Type (0, 1), BuildingBlock: XIVTED_clean_linker_0, # of connection points: 2
#     Edge 19, Type (0, 1), BuildingBlock: XIVTED_clean_linker_0, # of connection points: 2
#     Edge 20, Type (0, 1), BuildingBlock: XIVTED_clean_linker_0, # of connection points: 2
#     Edge 21, Type (0, 1), BuildingBlock: XIVTED_clean_linker_0, # of connection points: 2
#     Edge 22, Type (0, 1), BuildingBlock: XIVTED_clean_linker_0, # of connection points: 2
#     Edge 23, Type (0, 1), BuildingBlock: XIVTED_clean_linker_0, # of connection points: 2
#     Edge 24, Type (0, 1), BuildingBlock: XIVTED_clean_linker_0, # of connection points: 2
#     Edge 25, Type (0, 1), BuildingBlock: XIVTED_clean_linker_0, # of connection points: 2
#     Edge 26, Type (0, 1), BuildingBlock: XIVTED_clean_linker_0, # of connection points: 2
# Relax obj value: 0.144
# Max RMSD: 0.186
# Mean RMSD: 0.109
data_MOF--net-anh--node1-INOVEN_clean_sbu_0--node2-BETDAH_clean_linker_0--edge1-XIVTED_clean_linker_0
_symmetry_space_group_name_H-M    P1
_symmetry_Int_Tables_number       1
_symmetry_cell_setting            triclinic
loop_
_symmetry_equiv_pos_as_xyz
'x, y, z'
_cell_length_a     32.39323
_cell_length_b     38.418209
_cell_length_c     49.398933
_cell_angle_alpha  95.232537
_cell_angle_beta   91.176118
_cell_angle_gamma 129.70628
loop_
_atom_site_label
_atom_site_type_symbol
_atom_site_fract_x
_atom_site_fract_y
_atom_site_fract_z
_atom_type_partial_charge
Gd0 Gd 0.13797 0.55212 0.14229 0.0
Gd1 Gd 0.07504 0.57876 0.16593 0.0
C2 C 0.19562 0.66013 0.15679 0.0
C3 C 0.19217 0.53771 0.11312 0.0
C4 C 0.18993 0.49883 0.10417 0.0
C5 C 0.18917 0.47324 0.12303 0.0
C6 C 0.18914 0.48742 0.07627 0.0
C7 C 0.18968 0.42679 0.08625 0.0
C8 C 0.18881 0.45166 0.06736 0.0
C9 C 0.18927 0.43773 0.11417 0.0
C10 C 0.13743 0.55678 0.19704 0.0
C11 C 1.01787 0.46978 0.15364 0.0
C12 C 1.0145 0.58606 0.19464 0.0
C13 C 0.95591 0.55598 0.19522 0.0
C14 C 0.92258 0.5155 0.17689 0.0
C15 C 0.93282 0.56788 0.21338 0.0
C16 C 0.84305 0.49987 0.19381 0.0
C17 C 0.87665 0.54005 0.21263 0.0
C18 C 0.86671 0.48759 0.17627 0.0
C19 C 0.07415 0.5736 0.11096 0.0
O20 O 0.1926 0.629 0.14046 0.0
O21 O 0.15734 0.64778 0.17281 0.0
O22 O 0.15295 0.53539 0.10262 0.0
O23 O 0.20585 0.55406 0.13912 0.0
O24 O 0.13591 0.5263 0.18208 0.0
O25 O 0.14216 0.58431 0.18263 0.0
O26 O 1.01696 0.50163 0.16547 0.0
O27 O 0.05936 0.48057 0.14085 0.0
O28 O 1.03203 0.60414 0.17208 0.0
O29 O 1.03726 0.5701 0.20323 0.0
O30 O 0.07462 0.60319 0.12619 0.0
O31 O 0.07028 0.54626 0.12527 0.0
H32 H 0.18938 0.48106 0.14469 0.0
H33 H 0.18927 0.50649 0.06136 0.0
H34 H 0.18826 0.44373 0.04569 0.0
H35 H 0.19076 0.41983 0.12936 0.0
H36 H 0.93973 0.5061 0.16248 0.0
H37 H 0.95815 0.59905 0.22769 0.0
H38 H 0.8595 0.55031 0.2264 0.0
H39 H 0.84211 0.45748 0.16111 0.0
Gd40 Gd 0.69172 0.08303 0.47728 0.0
Gd41 Gd 0.62006 0.10398 0.46589 0.0
C42 C 0.56201 1.00006 0.46415 0.0
C43 C 0.73777 0.05333 0.49616 0.0
C44 C 0.72158 0.01142 0.50571 0.0
C45 C 0.75782 0.0031 0.50574 0.0
C46 C 0.67023 0.97923 0.51426 0.0
C47 C 0.69142 0.93027 0.52241 0.0
C48 C 0.65523 0.93893 0.5225 0.0
C49 C 0.74297 0.96296 0.51401 0.0
C50 C 0.68069 0.09152 0.4245 0.0
C51 C 0.75174 0.18769 0.47499 0.0
C52 C 0.57431 0.1356 0.45026 0.0
C53 C 0.58144 0.17658 0.4601 0.0
C54 C 0.60771 0.20046 0.48619 0.0
C55 C 0.56153 0.19177 0.44369 0.0
C56 C 0.5924 0.25371 0.47981 0.0
C57 C 0.56705 0.23007 0.45342 0.0
C58 C 0.61292 0.2385 0.496 0.0
C59 C 0.63119 0.09591 0.51874 0.0
O60 O 0.6068 0.01515 0.4786 0.0
O61 O 0.5609 0.02861 0.45185 0.0
O62 O 0.72633 0.05032 0.47009 0.0
O63 O 0.72836 0.07674 0.51152 0.0
O64 O 0.72596 0.10701 0.43728 0.0
O65 O 0.64317 0.07092 0.43972 0.0
O66 O 0.70352 0.17349 0.46652 0.0
O67 O 0.7576 0.15919 0.48322 0.0
O68 O 0.55441 0.1053 0.46715 0.0
O69 O 0.61471 0.14271 0.43879 0.0
O70 O 0.58654 0.08147 0.50604 0.0
O71 O 0.66871 0.11635 0.50352 0.0
H72 H 0.79752 0.0275 0.49907 0.0
H73 H 0.64175 0.98517 0.51448 0.0
H74 H 0.61543 0.91469 0.52907 0.0
H75 H 0.7715 0.9571 0.51322 0.0
H76 H 0.62354 0.18927 0.49912 0.0
H77 H 0.5415 0.17389 0.42342 0.0
H78 H 0.55161 0.24122 0.44018 0.0
H79 H 0.63199 0.25531 0.51653 0.0
Gd80 Gd 0.61567 0.59481 0.84964 0.0
Gd81 Gd 0.53667 0.49431 0.84177 0.0
C82 C 0.48257 0.54309 0.84685 0.0
C83 C 0.67235 0.68003 0.84341 0.0
C84 C 0.6644 0.71137 0.83517 0.0
C85 C 0.70539 0.74916 0.82299 0.0
C86 C 0.61616 0.70343 0.83832 0.0
C87 C 0.65036 0.77124 0.81721 0.0
C88 C 0.60921 0.73313 0.82944 0.0
C89 C 0.69852 0.7788 0.81409 0.0
C90 C 0.59138 0.55666 0.896 0.0
C91 C 0.6706 0.54642 0.84741 0.0
C92 C 0.48653 0.40931 0.84519 0.0
C93 C 0.49931 0.37969 0.83676 0.0
C94 C 0.53401 0.39068 0.81641 0.0
C95 C 0.47818 0.34099 0.84947 0.0
C96 C 0.52542 0.32377 0.82107 0.0
C97 C 0.49113 0.31327 0.84173 0.0
C98 C 0.54673 0.36291 0.80855 0.0
C99 C 0.55908 0.53093 0.79486 0.0
O100 O 0.53304 0.5806 0.84378 0.0
O101 O 0.47454 0.5049 0.84963 0.0
O102 O 0.65634 0.66483 0.86687 0.0
O103 O 0.6607 0.64851 0.82409 0.0
O104 O 0.64016 0.5918 0.89212 0.0
O105 O 0.55872 0.54491 0.87588 0.0
O106 O 0.61899 0.50767 0.84518 0.0
O107 O 0.68003 0.58585 0.84868 0.0
O108 O 0.47511 0.42312 0.82532 0.0
O109 O 0.51886 0.44196 0.86536 0.0
O110 O 0.51132 0.49544 0.79943 0.0
O111 O 0.59306 0.54393 0.81475 0.0
H112 H 0.7427 0.75555 0.82014 0.0
H113 H 0.58394 0.67431 0.8476 0.0
H114 H 0.57186 0.72654 0.83246 0.0
H115 H 0.73069 0.80729 0.80439 0.0
H116 H 0.55116 0.4207 0.8065 0.0
H117 H 0.45187 0.33234 0.86545 0.0
H118 H 0.47472 0.2839 0.85217 0.0
H119 H 0.57264 0.37182 0.79235 0.0
H120 H 0.52589 0.97955 0.22554 0.0
H121 H 0.67276 0.10916 0.21029 0.0
H122 H 0.55351 0.01154 0.14351 0.0
C123 C 0.55159 0.00314 0.21145 0.0
C124 C 0.53375 0.99012 0.1835 0.0
C125 C 0.60204 0.0454 0.22146 0.0
C126 C 0.63393 0.07645 0.20294 0.0
C127 C 0.61629 0.06459 0.17476 0.0
C128 C 0.56676 0.02098 0.16519 0.0
N129 N 0.64724 0.09513 0.15538 0.0
C130 C 0.6945 0.14071 0.16134 0.0
H131 H 0.61375 0.50351 0.59984 0.0
H132 H 0.60341 0.60786 0.58922 0.0
H133 H 0.59732 0.5293 0.51906 0.0
C134 C 0.6113 0.52324 0.58657 0.0
C135 C 0.60622 0.51248 0.55811 0.0
C136 C 0.60973 0.55726 0.59798 0.0
C137 C 0.6047 0.58166 0.58056 0.0
C138 C 0.60059 0.57167 0.55202 0.0
C139 C 0.60086 0.53694 0.54108 0.0
N140 N 0.59487 0.59485 0.53352 0.0
C141 C 0.60191 0.63428 0.54074 0.0
H142 H 0.98461 0.55477 0.9074 0.0
H143 H 0.11342 0.55037 0.89889 0.0
H144 H 1.02396 0.53811 0.82694 0.0
C145 C 1.00885 0.55198 0.89408 0.0
C146 C 0.99718 0.54635 0.86571 0.0
C147 C 1.04978 0.55303 0.90595 0.0
C148 C 0.08186 0.54894 0.88936 0.0
C149 C 0.07447 0.54393 0.86077 0.0
C150 C 1.03092 0.54214 0.84894 0.0
N151 N 0.10964 0.54089 0.84399 0.0
C152 C 0.15488 0.54249 0.85094 0.0
H153 H 0.23234 0.67301 0.39504 0.0
H154 H 0.106 0.53739 0.4133 0.0
H155 H 0.21642 0.64648 0.47845 0.0
C156 C 0.21114 0.64964 0.40998 0.0
C157 C 0.22963 0.66585 0.43778 0.0
C158 C 0.16685 0.60361 0.40096 0.0
C159 C 0.14035 0.57285 0.4202 0.0
C160 C 0.15786 0.58819 0.44831 0.0
C161 C 0.20295 0.63461 0.45686 0.0
N162 N 0.13117 0.55832 0.46855 0.0
C163 C 0.08447 0.51229 0.46386 0.0
H164 H 0.62117 0.13958 0.71613 0.0
H165 H 0.61849 0.02803 0.72646 0.0
H166 H 0.58155 0.083 0.79185 0.0
C167 C 0.61658 0.11607 0.72895 0.0
C168 C 0.60102 0.11544 0.75533 0.0
C169 C 0.62254 0.08443 0.71827 0.0
C170 C 0.61436 0.0527 0.73464 0.0
C171 C 0.60005 0.05262 0.76138 0.0
C172 C 0.5931 0.08366 0.77134 0.0
N173 N 0.59063 0.02126 0.77879 0.0
C174 C 0.60194 0.99205 0.774 0.0
H175 H 0.55531 0.41091 0.07221 0.0
H176 H 0.39892 0.30919 0.02733 0.0
H177 H 0.43517 0.28587 0.10433 0.0
C178 C 0.51522 0.37781 0.0701 0.0
C179 C 0.4997 0.35007 0.09082 0.0
C180 C 0.47959 0.36339 0.04686 0.0
C181 C 0.42719 0.32102 0.04502 0.0
C182 C 0.41102 0.29321 0.06581 0.0
C183 C 0.44787 0.30721 0.08824 0.0
N184 N 0.35668 0.25288 0.06535 0.0
C185 C 0.31558 0.25428 0.05997 0.0
H186 H 0.14238 0.34498 0.10552 0.0
H187 H 0.31573 0.29971 0.02159 0.0
H188 H 0.2485 0.42847 0.04643 0.0
H189 H 0.24052 0.23676 0.09284 0.0
H190 H 0.27262 0.33384 0.02311 0.0
H191 H 0.16062 0.29293 0.09424 0.0
C192 C 0.16922 0.35228 0.09006 0.0
C193 C 0.19454 0.39165 0.07721 0.0
C194 C 0.26464 0.31185 0.03811 0.0
C195 C 0.21486 0.33177 0.06394 0.0
C196 C 0.28892 0.29219 0.03712 0.0
C197 C 0.28125 0.26554 0.05709 0.0
C198 C 0.23294 0.30491 0.05939 0.0
C199 C 0.24687 0.25703 0.07702 0.0
C200 C 0.17933 0.32237 0.08353 0.0
C201 C 0.22779 0.39856 0.05681 0.0
N202 N 0.22428 0.27709 0.07786 0.0
N203 N 0.23736 0.36919 0.05102 0.0
H204 H 0.75638 0.25759 0.46039 0.0
H205 H 0.08084 0.44281 0.4751 0.0
H206 H 0.8589 0.22914 0.48662 0.0
H207 H 0.97943 0.47365 0.45232 0.0
H208 H 0.99994 0.36376 0.47797 0.0
H209 H 0.83684 0.33597 0.45652 0.0
C210 C 0.79573 0.26774 0.46547 0.0
C211 C 0.80051 0.23635 0.47392 0.0
C212 C 0.99518 0.38762 0.47218 0.0
C213 C 0.89342 0.32663 0.46928 0.0
C214 C 1.04139 0.43268 0.47041 0.0
C215 C 1.03663 0.46451 0.46325 0.0
C216 C 0.94363 0.37424 0.46684 0.0
C217 C 0.9847 0.44992 0.4577 0.0
C218 C 0.84179 0.31265 0.46318 0.0
C219 C 0.85289 0.2519 0.48012 0.0
N220 N 0.94025 0.40591 0.45964 0.0
N221 N 0.89705 0.29569 0.47762 0.0
H222 H 0.55953 0.75072 0.79171 0.0
H223 H 0.69714 0.01261 0.78709 0.0
H224 H 0.72546 0.86471 0.82128 0.0
H225 H 0.52859 0.90017 0.76311 0.0
H226 H 0.7106 0.95816 0.79491 0.0
H227 H 0.54902 0.80411 0.7773 0.0
C228 C 0.59372 0.78695 0.79527 0.0
C229 C 0.64342 0.80316 0.80786 0.0
C230 C 0.67076 0.94526 0.7876 0.0
C231 C 0.63183 0.86453 0.79103 0.0
C232 C 0.66326 0.97631 0.78296 0.0
C233 C 0.61188 0.96049 0.77428 0.0
C234 C 0.62632 0.89817 0.78371 0.0
C235 C 0.56892 0.91339 0.7696 0.0
C236 C 0.58779 0.81741 0.78684 0.0
C237 C 0.68656 0.8505 0.81141 0.0
N238 N 0.577 0.88378 0.77453 0.0
N239 N 0.67969 0.87943 0.80314 0.0
H240 H 0.7626 0.40676 0.18539 0.0
H241 H 0.5569 0.43203 0.12316 0.0
H242 H 0.78901 0.5326 0.19287 0.0
H243 H 0.53035 0.30621 0.11329 0.0
H244 H 0.63197 0.4647 0.15781 0.0
H245 H 0.66849 0.36516 0.16842 0.0
C246 C 0.74831 0.42552 0.18392 0.0
C247 C 0.78395 0.47332 0.18998 0.0
C248 C 0.60931 0.4297 0.14843 0.0
C249 C 0.67656 0.42606 0.1705 0.0
C250 C 0.56659 0.41114 0.12862 0.0
C251 C 0.53833 0.36678 0.11505 0.0
C252 C 0.62439 0.40392 0.15442 0.0
C253 C 0.55157 0.34071 0.12318 0.0
C254 C 0.69458 0.40175 0.17429 0.0
C255 C 0.76308 0.49581 0.18833 0.0
N256 N 0.59441 0.35999 0.14202 0.0
N257 N 0.711 0.47207 0.17826 0.0
H258 H 0.46385 0.95795 0.43592 0.0
H259 H 0.32093 0.70629 0.47344 0.0
H260 H 0.54635 0.92964 0.48696 0.0
H261 H 0.24598 0.73894 0.42032 0.0
H262 H 0.40179 0.78782 0.48153 0.0
H263 H 0.38266 0.87805 0.43221 0.0
C264 C 0.46506 0.93498 0.44637 0.0
C265 C 0.51245 0.95089 0.46171 0.0
C266 C 0.36747 0.77711 0.46824 0.0
C267 C 0.41851 0.85836 0.45758 0.0
C268 C 0.32114 0.73061 0.4638 0.0
C269 C 0.27662 0.71555 0.44599 0.0
C270 C 0.36921 0.80886 0.4549 0.0
C271 C 0.27948 0.74871 0.4339 0.0
C272 C 0.4184 0.88914 0.44427 0.0
C273 C 0.51097 0.91909 0.47483 0.0
N274 N 0.32478 0.79343 0.43847 0.0
N275 N 0.46491 0.87444 0.47244 0.0
H276 H 0.62163 0.3489 0.80595 0.0
H277 H 0.51542 0.09379 0.78166 0.0
H278 H 0.4589 0.23011 0.81613 0.0
H279 H 0.66219 0.20719 0.75254 0.0
H280 H 0.49799 0.14466 0.79856 0.0
H281 H 0.64075 0.2988 0.7901 0.0
C282 C 0.58978 0.31232 0.80476 0.0
C283 C 0.5384 0.29382 0.81232 0.0
C284 C 0.53403 0.15847 0.78849 0.0
C285 C 0.56052 0.23628 0.7946 0.0
C286 C 0.54419 0.12951 0.77899 0.0
C287 C 0.59044 0.14633 0.76575 0.0
C288 C 0.57055 0.20477 0.78492 0.0
C289 C 0.62588 0.19278 0.76247 0.0
C290 C 0.60088 0.28376 0.79582 0.0
C291 C 0.49928 0.24611 0.8109 0.0
N292 N 0.61531 0.22044 0.77208 0.0
N293 N 0.51116 0.21907 0.80223 0.0
H294 H 0.752 0.91762 0.55258 0.0
H295 H 0.53051 0.64469 0.52544 0.0
H296 H 0.59399 0.84367 0.50972 0.0
H297 H 0.69234 0.7182 0.56242 0.0
H298 H 0.54899 0.71731 0.52506 0.0
H299 H 0.72729 0.8452 0.56149 0.0
C300 C 0.71205 0.88616 0.54508 0.0
C301 C 0.67524 0.88679 0.5301 0.0
C302 C 0.58032 0.71765 0.53359 0.0
C303 C 0.64649 0.80362 0.54046 0.0
C304 C 0.56965 0.67626 0.53392 0.0
C305 C 0.61002 0.67597 0.54407 0.0
C306 C 0.6319 0.75887 0.54332 0.0
C307 C 0.66024 0.71739 0.55456 0.0
C308 C 0.69788 0.84481 0.5503 0.0
C309 C 0.62362 0.84496 0.52146 0.0
N310 N 0.66996 0.75734 0.55376 0.0
N311 N 0.61096 0.8051 0.52657 0.0
H312 H 0.78275 0.61928 0.85774 0.0
H313 H 0.88959 0.47402 0.84178 0.0
H314 H 0.67266 0.47285 0.83944 0.0
H315 H 0.99273 0.61714 0.87182 0.0
H316 H 0.81226 0.47286 0.83698 0.0
H317 H 0.85872 0.61907 0.8596 0.0
C318 C 0.77384 0.58678 0.854 0.0
C319 C 0.71915 0.54604 0.84842 0.0
C320 C 0.85188 0.50489 0.84419 0.0
C321 C 0.80987 0.54562 0.85038 0.0
C322 C 0.89696 0.50575 0.84657 0.0
C323 C 0.95017 0.54621 0.85631 0.0
C324 C 0.85813 0.54478 0.85166 0.0
C325 C 0.9541 0.58516 0.86335 0.0
C326 C 0.81813 0.58675 0.85512 0.0
C327 C 0.71289 0.50556 0.8439 0.0
N328 N 0.91002 0.58344 0.86082 0.0
N329 N 0.75664 0.5065 0.84488 0.0
H330 H 0.21399 0.73298 0.18716 0.0
H331 H 0.51077 0.92376 0.14307 0.0
H332 H 0.2865 0.7008 0.12906 0.0
H333 H 0.43669 0.95008 0.20363 0.0
H334 H 0.4268 0.8437 0.13394 0.0
H335 H 0.29296 0.81358 0.19022 0.0
C336 C 0.24644 0.74276 0.17495 0.0
C337 C 0.24337 0.70966 0.15793 0.0
C338 C 0.42878 0.86714 0.14902 0.0
C339 C 0.33488 0.80289 0.16137 0.0
C340 C 0.47655 0.91294 0.15406 0.0
C341 C 0.48093 0.94367 0.17427 0.0
C342 C 0.38499 0.85202 0.16422 0.0
C343 C 0.43541 0.92755 0.18808 0.0
C344 C 0.29173 0.78904 0.1767 0.0
C345 C 0.28697 0.72492 0.14255 0.0
N346 N 0.38974 0.88304 0.18294 0.0
N347 N 0.33093 0.77031 0.14472 0.0
H348 H 0.67595 0.33256 0.51269 0.0
H349 H 0.53615 0.4447 0.51627 0.0
H350 H 0.518 0.26556 0.47197 0.0
H351 H 0.67218 0.4941 0.5726 0.0
H352 H 0.53382 0.38271 0.49651 0.0
H353 H 0.67982 0.39563 0.53178 0.0
C354 C 0.64195 0.33091 0.50781 0.0
C355 C 0.59644 0.29338 0.49071 0.0
C356 C 0.56419 0.40708 0.5132 0.0
C357 C 0.60116 0.36609 0.51223 0.0
C358 C 0.56574 0.44263 0.52438 0.0
C359 C 0.60452 0.47467 0.54607 0.0
C360 C 0.60197 0.40366 0.52361 0.0
C361 C 0.64138 0.46993 0.55603 0.0
C362 C 0.64435 0.3671 0.51865 0.0
C363 C 0.55424 0.2939 0.4847 0.0
N364 N 0.63935 0.43519 0.54465 0.0
N365 N 0.55765 0.32961 0.49543 0.0
H366 H 0.47974 0.61461 0.84139 0.0
H367 H 0.1577 0.47241 0.85857 0.0
H368 H 0.37232 0.47368 0.85436 0.0
H369 H 0.26445 0.61293 0.84499 0.0
H370 H 0.23421 0.47254 0.85773 0.0
H371 H 0.40379 0.615 0.84302 0.0
C372 C 0.44051 0.58349 0.8446 0.0
C373 C 0.43447 0.54402 0.8477 0.0
C374 C 0.24145 0.50362 0.85504 0.0
C375 C 0.34373 0.54429 0.84968 0.0
C376 C 0.1971 0.50365 0.85564 0.0
C377 C 0.20296 0.54288 0.85219 0.0
C378 C 0.29403 0.54314 0.85081 0.0
C379 C 0.25642 0.58165 0.84809 0.0
C380 C 0.39639 0.58379 0.84554 0.0
C381 C 0.38084 0.50531 0.85178 0.0
N382 N 0.29866 0.58072 0.84754 0.0
N383 N 0.33886 0.50653 0.85262 0.0
H384 H 1.00309 0.39301 0.1327 0.0
H385 H 0.71019 0.21539 0.18538 0.0
H386 H 0.92503 0.43411 0.1782 0.0
H387 H 0.78819 0.17427 0.14029 0.0
H388 H 0.78965 0.29583 0.18421 0.0
H389 H 0.92594 0.3131 0.13601 0.0
C390 C 0.9698 0.38537 0.14335 0.0
C391 C 0.97086 0.42071 0.1551 0.0
C392 C 0.78968 0.26931 0.17473 0.0
C393 C 0.88194 0.32872 0.15907 0.0
C394 C 0.74442 0.22344 0.17552 0.0
C395 C 0.74304 0.18839 0.16311 0.0
C396 C 0.83379 0.28018 0.16126 0.0
C397 C 0.78801 0.20045 0.15029 0.0
C398 C 0.92567 0.3396 0.14527 0.0
C399 C 0.92628 0.40831 0.16871 0.0
N400 N 0.83144 0.24525 0.14963 0.0
N401 N 0.88386 0.36357 0.17029 0.0
H402 H 0.06165 0.50804 0.07456 0.0
H403 H 0.05837 0.61489 0.94337 0.0
H404 H 0.08427 0.63194 0.07879 0.0
H405 H 0.06092 0.50361 0.93764 0.0
H406 H 0.06665 0.6205 0.99311 0.0
H407 H 0.06005 0.50445 0.02458 0.0
C408 C 0.06663 0.53461 0.06499 0.0
C409 C 0.07332 0.57045 0.08083 0.0
C410 C 0.06566 0.59494 0.98106 0.0
C411 C 0.07087 0.56631 0.02376 0.0
C412 C 0.06075 0.59164 0.95262 0.0
C413 C 0.05865 0.55856 0.9363 0.0
C414 C 0.06809 0.56471 -0.00653 0.0
C415 C 0.06265 0.52974 0.94945 0.0
C416 C 0.06561 0.53252 0.03648 0.0
C417 C 0.07893 0.60367 0.06737 0.0
N418 N 0.06676 0.53324 0.97725 0.0
N419 N 0.0774 0.60071 0.03969 0.0
H420 H 0.7535 0.15002 0.39065 0.0
H421 H 0.58527 0.98611 0.25582 0.0
H422 H 0.5883 0.02777 0.39097 0.0
H423 H 0.66211 0.12831 0.25542 0.0
H424 H 0.60513 1.00047 0.30525 0.0
H425 H 0.73836 0.14285 0.34052 0.0
C426 C 0.71414 0.12182 0.38015 0.0
C427 C 0.67205 0.08934 0.39478 0.0
C428 C 0.61768 0.02845 0.29424 0.0
C429 C 0.65522 0.08052 0.33807 0.0
C430 C 0.60608 0.02038 0.26601 0.0
C431 C 0.62043 0.05574 0.25126 0.0
C432 C 0.6455 0.0725 0.30798 0.0
C433 C 0.64995 0.09989 0.26579 0.0
C434 C 0.70559 0.11793 0.35174 0.0
C435 C 0.62173 0.05353 0.3804 0.0
N436 N 0.66159 0.10709 0.29345 0.0
N437 N 0.61494 0.04964 0.35275 0.0
H438 H 0.65727 0.57771 0.77439 0.0
H439 H 0.54011 0.56144 0.62513 0.0
H440 H 0.49151 0.51589 0.75311 0.0
H441 H 0.6773 0.56842 0.63889 0.0
H442 H 0.53264 0.56374 0.6744 0.0
H443 H 0.67535 0.59287 0.72691 0.0
C444 C 0.62495 0.56794 0.75981 0.0
C445 C 0.57271 0.54513 0.76747 0.0
C446 C 0.56474 0.56529 0.66665 0.0
C447 C 0.59311 0.56268 0.71356 0.0
C448 C 0.56926 0.56432 0.6386 0.0
C449 C 0.60919 0.56448 0.62795 0.0
C450 C 0.60077 0.56696 0.68422 0.0
C451 C 0.64559 0.56775 0.64629 0.0
C452 C 0.6352 0.57641 0.73278 0.0
C453 C 0.53221 0.53316 0.74788 0.0
N454 N 0.64043 0.56872 0.67355 0.0
N455 N 0.54322 0.542 0.72181 0.0
H456 H 0.72239 0.14874 0.55529 0.0
H457 H 0.56535 0.01012 0.67891 0.0
H458 H 0.55241 0.03253 0.54761 0.0
H459 H 0.70112 0.15452 0.69151 0.0
H460 H 0.57303 0.00981 0.62961 0.0
H461 H 0.72695 0.14332 0.60446 0.0
C462 C 0.68631 0.12182 0.56391 0.0
C463 C 0.63682 0.09137 0.54761 0.0
C464 C 0.60162 0.0414 0.64324 0.0
C465 C 0.64191 0.08446 0.60322 0.0
C466 C 0.59753 0.04152 0.67133 0.0
C467 C 0.63249 0.08245 0.68921 0.0
C468 C 0.64139 0.08238 0.63302 0.0
C469 C 0.67314 0.12234 0.67831 0.0
C470 C 0.68888 0.11882 0.59186 0.0
C471 C 0.59119 0.05701 0.55962 0.0
N472 N 0.6764 0.12138 0.65087 0.0
N473 N 0.59481 0.05446 0.58669 0.0
H474 H 0.48996 0.49183 0.90922 0.0
H475 H 0.57868 0.41672 0.027 0.0
H476 H 0.65679 0.5623 0.93559 0.0
H477 H 0.42071 0.3778 0.01653 0.0
H478 H 0.60724 0.46632 0.99163 0.0
H479 H 0.46294 0.44572 0.94642 0.0
C480 C 0.52093 0.49774 0.923 0.0
C481 C 0.57568 0.53091 0.91944 0.0
C482 C 0.5664 0.44701 -0.00284 0.0
C483 C 0.54504 0.47794 0.96186 0.0
C484 C 0.55002 0.41876 0.01744 0.0
C485 C 0.49712 0.39298 0.0249 0.0
C486 C 0.52951 0.4492 0.98396 0.0
C487 C 0.46158 0.39638 0.01125 0.0
C488 C 0.50548 0.47144 0.94422 0.0
C489 C 0.61416 0.53717 0.93778 0.0
N490 N 0.47839 0.42385 0.99141 0.0
N491 N 0.59808 0.51064 0.95815 0.0
H492 H 0.14263 0.6203 0.23017 0.0
H493 H 0.14523 0.52982 0.36937 0.0
H494 H 0.12706 0.50033 0.23178 0.0
H495 H 0.15079 0.64428 0.36474 0.0
H496 H 0.13126 0.51393 0.3192 0.0
H497 H 0.14011 0.62616 0.27954 0.0
C498 C 0.13849 0.59505 0.24096 0.0
C499 C 0.13518 0.55985 0.22691 0.0
C500 C 0.13497 0.54221 0.32921 0.0
C501 C 0.13261 0.56644 0.28366 0.0
C502 C 0.14253 0.55106 0.35781 0.0
C503 C 0.14981 0.58874 0.37117 0.0
C504 C 0.13466 0.57128 0.31398 0.0
C505 C 0.14628 0.61534 0.35523 0.0
C506 C 0.13698 0.59836 0.26919 0.0
C507 C 0.12994 0.52811 0.24192 0.0
N508 N 0.13945 0.60635 0.32756 0.0
N509 N 0.12911 0.53229 0.26955 0.0
loop_
_geom_bond_atom_site_label_1
_geom_bond_atom_site_label_2
_geom_bond_distance
_geom_bond_site_symmetry_2
_ccdc_geom_bond_type
Gd0 C3 2.818 . S
Gd0 O20 2.377 . S
Gd0 O22 2.448 . S
Gd0 O23 2.506 . S
Gd0 O24 2.435 . S
Gd0 O25 2.717 . S
Gd0 O27 2.395 1_455 S
Gd0 O31 2.327 . S
Gd1 C12 2.818 1_455 S
Gd1 O21 2.395 . S
Gd1 O25 2.327 . S
Gd1 O26 2.377 1_455 S
Gd1 O28 2.448 1_455 S
Gd1 O29 2.506 1_455 S
Gd1 O30 2.435 . S
Gd1 O31 2.717 . S
C2 O20 1.240 . S
C2 O21 1.240 . S
C3 Gd0 2.818 . S
C3 C4 1.510 . S
C3 O22 1.249 . S
C3 O23 1.252 . S
C4 C3 1.510 . S
C4 C5 1.404 . S
C4 C6 1.352 . S
C5 C4 1.404 . S
C5 C9 1.389 . S
C5 H32 0.930 . S
C6 C4 1.352 . S
C6 C8 1.374 . S
C6 H33 0.931 . S
C7 C8 1.359 . S
C7 C9 1.364 . S
C8 C6 1.374 . S
C8 C7 1.359 . S
C8 H34 0.931 . S
C9 C5 1.389 . S
C9 C7 1.364 . S
C9 H35 0.931 . S
C10 O24 1.256 . S
C10 O25 1.257 . S
C11 O26 1.240 . S
C11 O27 1.240 . S
C12 Gd1 2.818 1_655 S
C12 C13 1.510 . S
C12 O28 1.249 . S
C12 O29 1.252 . S
C13 C12 1.510 . S
C13 C14 1.404 . S
C13 C15 1.352 . S
C14 C13 1.404 . S
C14 C18 1.389 . S
C14 H36 0.930 . S
C15 C13 1.352 . S
C15 C17 1.374 . S
C15 H37 0.931 . S
C16 C17 1.359 . S
C16 C18 1.364 . S
C17 C15 1.374 . S
C17 C16 1.359 . S
C17 H38 0.931 . S
C18 C14 1.389 . S
C18 C16 1.364 . S
C18 H39 0.931 . S
C19 O30 1.256 . S
C19 O31 1.257 . S
O20 Gd0 2.377 . S
O20 C2 1.240 . S
O21 Gd1 2.395 . S
O21 C2 1.240 . S
O22 Gd0 2.448 . S
O22 C3 1.249 . S
O23 Gd0 2.506 . S
O23 C3 1.252 . S
O24 Gd0 2.435 . S
O24 C10 1.256 . S
O25 Gd0 2.717 . S
O25 Gd1 2.327 . S
O25 C10 1.257 . S
O26 Gd1 2.377 1_655 S
O26 C11 1.240 . S
O27 Gd0 2.395 1_655 S
O27 C11 1.240 . S
O28 Gd1 2.448 1_655 S
O28 C12 1.249 . S
O29 Gd1 2.506 1_655 S
O29 C12 1.252 . S
O30 Gd1 2.435 . S
O30 C19 1.256 . S
O31 Gd0 2.327 . S
O31 Gd1 2.717 . S
O31 C19 1.257 . S
H32 C5 0.930 . S
H33 C6 0.931 . S
H34 C8 0.931 . S
H35 C9 0.931 . S
H36 C14 0.930 . S
H37 C15 0.931 . S
H38 C17 0.931 . S
H39 C18 0.931 . S
Gd40 C43 2.818 1_545 S
Gd40 O60 2.377 1_545 S
Gd40 O62 2.448 1_545 S
Gd40 O63 2.506 1_545 S
Gd40 O64 2.435 . S
Gd40 O65 2.717 . S
Gd40 O67 2.395 . S
Gd40 O71 2.327 . S
Gd41 C52 2.818 . S
Gd41 O61 2.395 1_545 S
Gd41 O65 2.327 . S
Gd41 O66 2.377 . S
Gd41 O68 2.448 . S
Gd41 O69 2.506 . S
Gd41 O70 2.435 . S
Gd41 O71 2.717 . S
C42 O60 1.240 . S
C42 O61 1.240 . S
C43 Gd40 2.818 1_565 S
C43 C44 1.510 . S
C43 O62 1.249 . S
C43 O63 1.252 . S
C44 C43 1.510 . S
C44 C45 1.404 . S
C44 C46 1.352 . S
C45 C44 1.404 . S
C45 C49 1.389 . S
C45 H72 0.930 . S
C46 C44 1.352 . S
C46 C48 1.374 . S
C46 H73 0.931 . S
C47 C48 1.359 . S
C47 C49 1.364 . S
C48 C46 1.374 . S
C48 C47 1.359 . S
C48 H74 0.931 . S
C49 C45 1.389 . S
C49 C47 1.364 . S
C49 H75 0.931 . S
C50 O64 1.256 . S
C50 O65 1.257 . S
C51 O66 1.240 . S
C51 O67 1.240 . S
C52 Gd41 2.818 . S
C52 C53 1.510 . S
C52 O68 1.249 . S
C52 O69 1.252 . S
C53 C52 1.510 . S
C53 C54 1.404 . S
C53 C55 1.352 . S
C54 C53 1.404 . S
C54 C58 1.389 . S
C54 H76 0.930 . S
C55 C53 1.352 . S
C55 C57 1.374 . S
C55 H77 0.931 . S
C56 C57 1.359 . S
C56 C58 1.364 . S
C57 C55 1.374 . S
C57 C56 1.359 . S
C57 H78 0.931 . S
C58 C54 1.389 . S
C58 C56 1.364 . S
C58 H79 0.931 . S
C59 O70 1.256 . S
C59 O71 1.257 . S
O60 Gd40 2.377 1_565 S
O60 C42 1.240 . S
O61 Gd41 2.395 1_565 S
O61 C42 1.240 . S
O62 Gd40 2.448 1_565 S
O62 C43 1.249 . S
O63 Gd40 2.506 1_565 S
O63 C43 1.252 . S
O64 Gd40 2.435 . S
O64 C50 1.256 . S
O65 Gd40 2.717 . S
O65 Gd41 2.327 . S
O65 C50 1.257 . S
O66 Gd41 2.377 . S
O66 C51 1.240 . S
O67 Gd40 2.395 . S
O67 C51 1.240 . S
O68 Gd41 2.448 . S
O68 C52 1.249 . S
O69 Gd41 2.506 . S
O69 C52 1.252 . S
O70 Gd41 2.435 . S
O70 C59 1.256 . S
O71 Gd40 2.327 . S
O71 Gd41 2.717 . S
O71 C59 1.257 . S
H72 C45 0.930 . S
H73 C46 0.931 . S
H74 C48 0.931 . S
H75 C49 0.931 . S
H76 C54 0.930 . S
H77 C55 0.931 . S
H78 C57 0.931 . S
H79 C58 0.931 . S
Gd80 C83 2.818 . S
Gd80 O100 2.377 . S
Gd80 O102 2.448 . S
Gd80 O103 2.506 . S
Gd80 O104 2.435 . S
Gd80 O105 2.717 . S
Gd80 O107 2.395 . S
Gd80 O111 2.327 . S
Gd81 C92 2.818 . S
Gd81 O101 2.395 . S
Gd81 O105 2.327 . S
Gd81 O106 2.377 . S
Gd81 O108 2.448 . S
Gd81 O109 2.506 . S
Gd81 O110 2.435 . S
Gd81 O111 2.717 . S
C82 O100 1.240 . S
C82 O101 1.240 . S
C83 Gd80 2.818 . S
C83 C84 1.510 . S
C83 O102 1.249 . S
C83 O103 1.252 . S
C84 C83 1.510 . S
C84 C85 1.404 . S
C84 C86 1.352 . S
C85 C84 1.404 . S
C85 C89 1.389 . S
C85 H112 0.930 . S
C86 C84 1.352 . S
C86 C88 1.374 . S
C86 H113 0.931 . S
C87 C88 1.359 . S
C87 C89 1.364 . S
C88 C86 1.374 . S
C88 C87 1.359 . S
C88 H114 0.931 . S
C89 C85 1.389 . S
C89 C87 1.364 . S
C89 H115 0.931 . S
C90 O104 1.256 . S
C90 O105 1.257 . S
C91 O106 1.240 . S
C91 O107 1.240 . S
C92 Gd81 2.818 . S
C92 C93 1.510 . S
C92 O108 1.249 . S
C92 O109 1.252 . S
C93 C92 1.510 . S
C93 C94 1.404 . S
C93 C95 1.352 . S
C94 C93 1.404 . S
C94 C98 1.389 . S
C94 H116 0.930 . S
C95 C93 1.352 . S
C95 C97 1.374 . S
C95 H117 0.931 . S
C96 C97 1.359 . S
C96 C98 1.364 . S
C97 C95 1.374 . S
C97 C96 1.359 . S
C97 H118 0.931 . S
C98 C94 1.389 . S
C98 C96 1.364 . S
C98 H119 0.931 . S
C99 O110 1.256 . S
C99 O111 1.257 . S
O100 Gd80 2.377 . S
O100 C82 1.240 . S
O101 Gd81 2.395 . S
O101 C82 1.240 . S
O102 Gd80 2.448 . S
O102 C83 1.249 . S
O103 Gd80 2.506 . S
O103 C83 1.252 . S
O104 Gd80 2.435 . S
O104 C90 1.256 . S
O105 Gd80 2.717 . S
O105 Gd81 2.327 . S
O105 C90 1.257 . S
O106 Gd81 2.377 . S
O106 C91 1.240 . S
O107 Gd80 2.395 . S
O107 C91 1.240 . S
O108 Gd81 2.448 . S
O108 C92 1.249 . S
O109 Gd81 2.506 . S
O109 C92 1.252 . S
O110 Gd81 2.435 . S
O110 C99 1.256 . S
O111 Gd80 2.327 . S
O111 Gd81 2.717 . S
O111 C99 1.257 . S
H112 C85 0.930 . S
H113 C86 0.931 . S
H114 C88 0.931 . S
H115 C89 0.931 . S
H116 C94 0.930 . S
H117 C95 0.931 . S
H118 C97 0.931 . S
H119 C98 0.931 . S
H120 C123 0.925 1_565 S
H121 C126 0.929 . S
H122 C128 0.930 . S
C123 H120 0.925 1_545 S
C123 C124 1.396 1_545 S
C123 C125 1.402 . S
C124 C123 1.396 1_565 S
C124 C128 1.407 1_565 S
C125 C123 1.402 . S
C125 C126 1.394 . S
C126 H121 0.929 . S
C126 C125 1.394 . S
C126 C127 1.382 . S
C127 C126 1.382 . S
C127 C128 1.392 . S
C127 N129 1.420 . S
C128 H122 0.930 . S
C128 C124 1.407 1_545 S
C128 C127 1.392 . S
N129 C127 1.420 . S
N129 C130 1.244 . S
C130 N129 1.244 . S
H131 C134 0.929 . S
H132 C137 0.929 . S
H133 C139 0.930 . S
C134 H131 0.929 . S
C134 C135 1.398 . S
C134 C136 1.396 . S
C135 C134 1.398 . S
C135 C139 1.407 . S
C136 C134 1.396 . S
C136 C137 1.394 . S
C137 H132 0.929 . S
C137 C136 1.394 . S
C137 C138 1.382 . S
C138 C137 1.382 . S
C138 C139 1.392 . S
C138 N140 1.420 . S
C139 H133 0.930 . S
C139 C135 1.407 . S
C139 C138 1.392 . S
N140 C138 1.420 . S
N140 C141 1.244 . S
C141 N140 1.244 . S
H142 C145 0.929 . S
H143 C148 0.929 . S
H144 C150 0.930 . S
C145 H142 0.929 . S
C145 C146 1.398 . S
C145 C147 1.396 . S
C146 C145 1.398 . S
C146 C150 1.407 . S
C147 C145 1.396 . S
C147 C148 1.394 . S
C148 H143 0.929 . S
C148 C147 1.394 . S
C148 C149 1.382 . S
C149 C148 1.382 . S
C149 C150 1.392 . S
C149 N151 1.420 . S
C150 H144 0.930 . S
C150 C146 1.407 . S
C150 C149 1.392 . S
N151 C149 1.420 . S
N151 C152 1.244 . S
C152 N151 1.244 . S
H153 C156 0.929 . S
H154 C159 0.929 . S
H155 C161 0.930 . S
C156 H153 0.929 . S
C156 C157 1.398 . S
C156 C158 1.396 . S
C157 C156 1.398 . S
C157 C161 1.407 . S
C158 C156 1.396 . S
C158 C159 1.394 1_455 S
C159 H154 0.929 . S
C159 C158 1.394 1_655 S
C159 C160 1.382 . S
C160 C159 1.382 . S
C160 C161 1.392 1_655 S
C160 N162 1.420 . S
C161 H155 0.930 . S
C161 C157 1.407 . S
C161 C160 1.392 1_455 S
N162 C160 1.420 . S
N162 C163 1.244 . S
C163 N162 1.244 . S
H164 C167 0.929 . S
H165 C170 0.929 1_565 S
H166 C172 0.930 . S
C167 H164 0.929 . S
C167 C168 1.398 . S
C167 C169 1.396 . S
C168 C167 1.398 . S
C168 C172 1.407 . S
C169 C167 1.396 . S
C169 C170 1.394 . S
C170 H165 0.929 1_545 S
C170 C169 1.394 . S
C170 C171 1.382 . S
C171 C170 1.382 . S
C171 C172 1.392 . S
C171 N173 1.420 . S
C172 H166 0.930 . S
C172 C168 1.407 . S
C172 C171 1.392 . S
N173 C171 1.420 . S
N173 C174 1.244 1_545 S
C174 N173 1.244 1_565 S
H175 C178 0.929 . S
H176 C181 0.929 . S
H177 C183 0.930 . S
C178 H175 0.929 . S
C178 C179 1.398 . S
C178 C180 1.396 . S
C179 C178 1.398 . S
C179 C183 1.407 . S
C180 C178 1.396 . S
C180 C181 1.394 . S
C181 H176 0.929 . S
C181 C180 1.394 . S
C181 C182 1.382 . S
C182 C181 1.382 . S
C182 C183 1.392 . S
C182 N184 1.420 . S
C183 H177 0.930 . S
C183 C179 1.407 . S
C183 C182 1.392 . S
N184 C182 1.420 . S
N184 C185 1.244 . S
C185 N184 1.244 . S
H186 C192 0.930 . S
H187 C196 0.930 . S
H188 C201 0.929 . S
H189 C199 0.929 . S
H190 C194 0.929 . S
H191 C200 0.929 . S
C192 H186 0.930 . S
C192 C193 1.367 . S
C192 C200 1.378 . S
C193 C192 1.367 . S
C193 C201 1.433 . S
C194 H190 0.929 . S
C194 C196 1.378 . S
C194 C198 1.350 . S
C195 C198 1.463 . S
C195 C200 1.350 . S
C195 N203 1.427 . S
C196 H187 0.930 . S
C196 C194 1.378 . S
C196 C197 1.367 . S
C197 C196 1.367 . S
C197 C199 1.433 . S
C198 C194 1.350 . S
C198 C195 1.463 . S
C198 N202 1.427 . S
C199 H189 0.929 . S
C199 C197 1.433 . S
C199 N202 1.384 . S
C200 H191 0.929 . S
C200 C192 1.378 . S
C200 C195 1.350 . S
C201 H188 0.929 . S
C201 C193 1.433 . S
C201 N203 1.384 . S
N202 C198 1.427 . S
N202 C199 1.384 . S
N203 C195 1.427 . S
N203 C201 1.384 . S
H204 C210 0.930 . S
H205 C214 0.930 . S
H206 C219 0.929 . S
H207 C217 0.929 . S
H208 C212 0.929 . S
H209 C218 0.929 . S
C210 H204 0.930 . S
C210 C211 1.367 . S
C210 C218 1.378 . S
C211 C210 1.367 . S
C211 C219 1.433 . S
C212 H208 0.929 . S
C212 C214 1.378 . S
C212 C216 1.350 . S
C213 C216 1.463 . S
C213 C218 1.350 . S
C213 N221 1.427 . S
C214 H205 0.930 . S
C214 C212 1.378 . S
C214 C215 1.367 . S
C215 C214 1.367 . S
C215 C217 1.433 . S
C216 C212 1.350 . S
C216 C213 1.463 . S
C216 N220 1.427 . S
C217 H207 0.929 . S
C217 C215 1.433 . S
C217 N220 1.384 . S
C218 H209 0.929 . S
C218 C210 1.378 . S
C218 C213 1.350 . S
C219 H206 0.929 . S
C219 C211 1.433 . S
C219 N221 1.384 . S
N220 C216 1.427 . S
N220 C217 1.384 . S
N221 C213 1.427 . S
N221 C219 1.384 . S
H222 C228 0.930 . S
H223 C232 0.930 . S
H224 C237 0.929 . S
H225 C235 0.929 . S
H226 C230 0.929 . S
H227 C236 0.929 . S
C228 H222 0.930 . S
C228 C229 1.367 . S
C228 C236 1.378 . S
C229 C228 1.367 . S
C229 C237 1.433 . S
C230 H226 0.929 . S
C230 C232 1.378 . S
C230 C234 1.350 . S
C231 C234 1.463 . S
C231 C236 1.350 . S
C231 N239 1.427 . S
C232 H223 0.930 . S
C232 C230 1.378 . S
C232 C233 1.367 . S
C233 C232 1.367 . S
C233 C235 1.433 . S
C234 C230 1.350 . S
C234 C231 1.463 . S
C234 N238 1.427 . S
C235 H225 0.929 . S
C235 C233 1.433 . S
C235 N238 1.384 . S
C236 H227 0.929 . S
C236 C228 1.378 . S
C236 C231 1.350 . S
C237 H224 0.929 . S
C237 C229 1.433 . S
C237 N239 1.384 . S
N238 C234 1.427 . S
N238 C235 1.384 . S
N239 C231 1.427 . S
N239 C237 1.384 . S
H240 C246 0.930 . S
H241 C250 0.930 . S
H242 C255 0.929 . S
H243 C253 0.929 . S
H244 C248 0.929 . S
H245 C254 0.929 . S
C246 H240 0.930 . S
C246 C247 1.367 . S
C246 C254 1.378 . S
C247 C246 1.367 . S
C247 C255 1.433 . S
C248 H244 0.929 . S
C248 C250 1.378 . S
C248 C252 1.350 . S
C249 C252 1.463 . S
C249 C254 1.350 . S
C249 N257 1.427 . S
C250 H241 0.930 . S
C250 C248 1.378 . S
C250 C251 1.367 . S
C251 C250 1.367 . S
C251 C253 1.433 . S
C252 C248 1.350 . S
C252 C249 1.463 . S
C252 N256 1.427 . S
C253 H243 0.929 . S
C253 C251 1.433 . S
C253 N256 1.384 . S
C254 H245 0.929 . S
C254 C246 1.378 . S
C254 C249 1.350 . S
C255 H242 0.929 . S
C255 C247 1.433 . S
C255 N257 1.384 . S
N256 C252 1.427 . S
N256 C253 1.384 . S
N257 C249 1.427 . S
N257 C255 1.384 . S
H258 C264 0.930 . S
H259 C268 0.930 . S
H260 C273 0.929 . S
H261 C271 0.929 . S
H262 C266 0.929 . S
H263 C272 0.929 . S
C264 H258 0.930 . S
C264 C265 1.367 . S
C264 C272 1.378 . S
C265 C264 1.367 . S
C265 C273 1.433 . S
C266 H262 0.929 . S
C266 C268 1.378 . S
C266 C270 1.350 . S
C267 C270 1.463 . S
C267 C272 1.350 . S
C267 N275 1.427 . S
C268 H259 0.930 . S
C268 C266 1.378 . S
C268 C269 1.367 . S
C269 C268 1.367 . S
C269 C271 1.433 . S
C270 C266 1.350 . S
C270 C267 1.463 . S
C270 N274 1.427 . S
C271 H261 0.929 . S
C271 C269 1.433 . S
C271 N274 1.384 . S
C272 H263 0.929 . S
C272 C264 1.378 . S
C272 C267 1.350 . S
C273 H260 0.929 . S
C273 C265 1.433 . S
C273 N275 1.384 . S
N274 C270 1.427 . S
N274 C271 1.384 . S
N275 C267 1.427 . S
N275 C273 1.384 . S
H276 C282 0.930 . S
H277 C286 0.930 . S
H278 C291 0.929 . S
H279 C289 0.929 . S
H280 C284 0.929 . S
H281 C290 0.929 . S
C282 H276 0.930 . S
C282 C283 1.367 . S
C282 C290 1.378 . S
C283 C282 1.367 . S
C283 C291 1.433 . S
C284 H280 0.929 . S
C284 C286 1.378 . S
C284 C288 1.350 . S
C285 C288 1.463 . S
C285 C290 1.350 . S
C285 N293 1.427 . S
C286 H277 0.930 . S
C286 C284 1.378 . S
C286 C287 1.367 . S
C287 C286 1.367 . S
C287 C289 1.433 . S
C288 C284 1.350 . S
C288 C285 1.463 . S
C288 N292 1.427 . S
C289 H279 0.929 . S
C289 C287 1.433 . S
C289 N292 1.384 . S
C290 H281 0.929 . S
C290 C282 1.378 . S
C290 C285 1.350 . S
C291 H278 0.929 . S
C291 C283 1.433 . S
C291 N293 1.384 . S
N292 C288 1.427 . S
N292 C289 1.384 . S
N293 C285 1.427 . S
N293 C291 1.384 . S
H294 C300 0.930 . S
H295 C304 0.930 . S
H296 C309 0.929 . S
H297 C307 0.929 . S
H298 C302 0.929 . S
H299 C308 0.929 . S
C300 H294 0.930 . S
C300 C301 1.367 . S
C300 C308 1.378 . S
C301 C300 1.367 . S
C301 C309 1.433 . S
C302 H298 0.929 . S
C302 C304 1.378 . S
C302 C306 1.350 . S
C303 C306 1.463 . S
C303 C308 1.350 . S
C303 N311 1.427 . S
C304 H295 0.930 . S
C304 C302 1.378 . S
C304 C305 1.367 . S
C305 C304 1.367 . S
C305 C307 1.433 . S
C306 C302 1.350 . S
C306 C303 1.463 . S
C306 N310 1.427 . S
C307 H297 0.929 . S
C307 C305 1.433 . S
C307 N310 1.384 . S
C308 H299 0.929 . S
C308 C300 1.378 . S
C308 C303 1.350 . S
C309 H296 0.929 . S
C309 C301 1.433 . S
C309 N311 1.384 . S
N310 C306 1.427 . S
N310 C307 1.384 . S
N311 C303 1.427 . S
N311 C309 1.384 . S
H312 C318 0.930 . S
H313 C322 0.930 . S
H314 C327 0.929 . S
H315 C325 0.929 . S
H316 C320 0.929 . S
H317 C326 0.929 . S
C318 H312 0.930 . S
C318 C319 1.367 . S
C318 C326 1.378 . S
C319 C318 1.367 . S
C319 C327 1.433 . S
C320 H316 0.929 . S
C320 C322 1.378 . S
C320 C324 1.350 . S
C321 C324 1.463 . S
C321 C326 1.350 . S
C321 N329 1.427 . S
C322 H313 0.930 . S
C322 C320 1.378 . S
C322 C323 1.367 . S
C323 C322 1.367 . S
C323 C325 1.433 . S
C324 C320 1.350 . S
C324 C321 1.463 . S
C324 N328 1.427 . S
C325 H315 0.929 . S
C325 C323 1.433 . S
C325 N328 1.384 . S
C326 H317 0.929 . S
C326 C318 1.378 . S
C326 C321 1.350 . S
C327 H314 0.929 . S
C327 C319 1.433 . S
C327 N329 1.384 . S
N328 C324 1.427 . S
N328 C325 1.384 . S
N329 C321 1.427 . S
N329 C327 1.384 . S
H330 C336 0.930 . S
H331 C340 0.930 . S
H332 C345 0.929 . S
H333 C343 0.929 . S
H334 C338 0.929 . S
H335 C344 0.929 . S
C336 H330 0.930 . S
C336 C337 1.367 . S
C336 C344 1.378 . S
C337 C336 1.367 . S
C337 C345 1.433 . S
C338 H334 0.929 . S
C338 C340 1.378 . S
C338 C342 1.350 . S
C339 C342 1.463 . S
C339 C344 1.350 . S
C339 N347 1.427 . S
C340 H331 0.930 . S
C340 C338 1.378 . S
C340 C341 1.367 . S
C341 C340 1.367 . S
C341 C343 1.433 . S
C342 C338 1.350 . S
C342 C339 1.463 . S
C342 N346 1.427 . S
C343 H333 0.929 . S
C343 C341 1.433 . S
C343 N346 1.384 . S
C344 H335 0.929 . S
C344 C336 1.378 . S
C344 C339 1.350 . S
C345 H332 0.929 . S
C345 C337 1.433 . S
C345 N347 1.384 . S
N346 C342 1.427 . S
N346 C343 1.384 . S
N347 C339 1.427 . S
N347 C345 1.384 . S
H348 C354 0.930 . S
H349 C358 0.930 . S
H350 C363 0.929 . S
H351 C361 0.929 . S
H352 C356 0.929 . S
H353 C362 0.929 . S
C354 H348 0.930 . S
C354 C355 1.367 . S
C354 C362 1.378 . S
C355 C354 1.367 . S
C355 C363 1.433 . S
C356 H352 0.929 . S
C356 C358 1.378 . S
C356 C360 1.350 . S
C357 C360 1.463 . S
C357 C362 1.350 . S
C357 N365 1.427 . S
C358 H349 0.930 . S
C358 C356 1.378 . S
C358 C359 1.367 . S
C359 C358 1.367 . S
C359 C361 1.433 . S
C360 C356 1.350 . S
C360 C357 1.463 . S
C360 N364 1.427 . S
C361 H351 0.929 . S
C361 C359 1.433 . S
C361 N364 1.384 . S
C362 H353 0.929 . S
C362 C354 1.378 . S
C362 C357 1.350 . S
C363 H350 0.929 . S
C363 C355 1.433 . S
C363 N365 1.384 . S
N364 C360 1.427 . S
N364 C361 1.384 . S
N365 C357 1.427 . S
N365 C363 1.384 . S
H366 C372 0.930 . S
H367 C376 0.930 . S
H368 C381 0.929 . S
H369 C379 0.929 . S
H370 C374 0.929 . S
H371 C380 0.929 . S
C372 H366 0.930 . S
C372 C373 1.367 . S
C372 C380 1.378 . S
C373 C372 1.367 . S
C373 C381 1.433 . S
C374 H370 0.929 . S
C374 C376 1.378 . S
C374 C378 1.350 . S
C375 C378 1.463 . S
C375 C380 1.350 . S
C375 N383 1.427 . S
C376 H367 0.930 . S
C376 C374 1.378 . S
C376 C377 1.367 . S
C377 C376 1.367 . S
C377 C379 1.433 . S
C378 C374 1.350 . S
C378 C375 1.463 . S
C378 N382 1.427 . S
C379 H369 0.929 . S
C379 C377 1.433 . S
C379 N382 1.384 . S
C380 H371 0.929 . S
C380 C372 1.378 . S
C380 C375 1.350 . S
C381 H368 0.929 . S
C381 C373 1.433 . S
C381 N383 1.384 . S
N382 C378 1.427 . S
N382 C379 1.384 . S
N383 C375 1.427 . S
N383 C381 1.384 . S
H384 C390 0.930 . S
H385 C394 0.930 . S
H386 C399 0.929 . S
H387 C397 0.929 . S
H388 C392 0.929 . S
H389 C398 0.929 . S
C390 H384 0.930 . S
C390 C391 1.367 . S
C390 C398 1.378 . S
C391 C390 1.367 . S
C391 C399 1.433 . S
C392 H388 0.929 . S
C392 C394 1.378 . S
C392 C396 1.350 . S
C393 C396 1.463 . S
C393 C398 1.350 . S
C393 N401 1.427 . S
C394 H385 0.930 . S
C394 C392 1.378 . S
C394 C395 1.367 . S
C395 C394 1.367 . S
C395 C397 1.433 . S
C396 C392 1.350 . S
C396 C393 1.463 . S
C396 N400 1.427 . S
C397 H387 0.929 . S
C397 C395 1.433 . S
C397 N400 1.384 . S
C398 H389 0.929 . S
C398 C390 1.378 . S
C398 C393 1.350 . S
C399 H386 0.929 . S
C399 C391 1.433 . S
C399 N401 1.384 . S
N400 C396 1.427 . S
N400 C397 1.384 . S
N401 C393 1.427 . S
N401 C399 1.384 . S
H402 C408 0.930 . S
H403 C412 0.930 . S
H404 C417 0.929 . S
H405 C415 0.929 . S
H406 C410 0.929 . S
H407 C416 0.929 . S
C408 H402 0.930 . S
C408 C409 1.367 . S
C408 C416 1.378 . S
C409 C408 1.367 . S
C409 C417 1.433 . S
C410 H406 0.929 . S
C410 C412 1.378 . S
C410 C414 1.350 . S
C411 C414 1.463 1_554 S
C411 C416 1.350 . S
C411 N419 1.427 . S
C412 H403 0.930 . S
C412 C410 1.378 . S
C412 C413 1.367 . S
C413 C412 1.367 . S
C413 C415 1.433 . S
C414 C410 1.350 . S
C414 C411 1.463 1_556 S
C414 N418 1.427 . S
C415 H405 0.929 . S
C415 C413 1.433 . S
C415 N418 1.384 . S
C416 H407 0.929 . S
C416 C408 1.378 . S
C416 C411 1.350 . S
C417 H404 0.929 . S
C417 C409 1.433 . S
C417 N419 1.384 . S
N418 C414 1.427 . S
N418 C415 1.384 . S
N419 C411 1.427 . S
N419 C417 1.384 . S
H420 C426 0.930 . S
H421 C430 0.930 1_565 S
H422 C435 0.929 . S
H423 C433 0.929 . S
H424 C428 0.929 1_565 S
H425 C434 0.929 . S
C426 H420 0.930 . S
C426 C427 1.367 . S
C426 C434 1.378 . S
C427 C426 1.367 . S
C427 C435 1.433 1_545 S
C428 H424 0.929 1_545 S
C428 C430 1.378 . S
C428 C432 1.350 . S
C429 C432 1.463 . S
C429 C434 1.350 . S
C429 N437 1.427 1_545 S
C430 H421 0.930 1_545 S
C430 C428 1.378 . S
C430 C431 1.367 . S
C431 C430 1.367 . S
C431 C433 1.433 . S
C432 C428 1.350 . S
C432 C429 1.463 . S
C432 N436 1.427 . S
C433 H423 0.929 . S
C433 C431 1.433 . S
C433 N436 1.384 . S
C434 H425 0.929 . S
C434 C426 1.378 . S
C434 C429 1.350 . S
C435 H422 0.929 . S
C435 C427 1.433 1_565 S
C435 N437 1.384 . S
N436 C432 1.427 . S
N436 C433 1.384 . S
N437 C429 1.427 1_565 S
N437 C435 1.384 . S
H438 C444 0.930 . S
H439 C448 0.930 . S
H440 C453 0.929 . S
H441 C451 0.929 . S
H442 C446 0.929 . S
H443 C452 0.929 . S
C444 H438 0.930 . S
C444 C445 1.367 . S
C444 C452 1.378 . S
C445 C444 1.367 . S
C445 C453 1.433 . S
C446 H442 0.929 . S
C446 C448 1.378 . S
C446 C450 1.350 . S
C447 C450 1.463 . S
C447 C452 1.350 . S
C447 N455 1.427 . S
C448 H439 0.930 . S
C448 C446 1.378 . S
C448 C449 1.367 . S
C449 C448 1.367 . S
C449 C451 1.433 . S
C450 C446 1.350 . S
C450 C447 1.463 . S
C450 N454 1.427 . S
C451 H441 0.929 . S
C451 C449 1.433 . S
C451 N454 1.384 . S
C452 H443 0.929 . S
C452 C444 1.378 . S
C452 C447 1.350 . S
C453 H440 0.929 . S
C453 C445 1.433 . S
C453 N455 1.384 . S
N454 C450 1.427 . S
N454 C451 1.384 . S
N455 C447 1.427 . S
N455 C453 1.384 . S
H456 C462 0.930 . S
H457 C466 0.930 1_565 S
H458 C471 0.929 1_565 S
H459 C469 0.929 . S
H460 C464 0.929 1_565 S
H461 C470 0.929 . S
C462 H456 0.930 . S
C462 C463 1.367 . S
C462 C470 1.378 . S
C463 C462 1.367 . S
C463 C471 1.433 . S
C464 H460 0.929 1_545 S
C464 C466 1.378 . S
C464 C468 1.350 . S
C465 C468 1.463 . S
C465 C470 1.350 . S
C465 N473 1.427 . S
C466 H457 0.930 1_545 S
C466 C464 1.378 . S
C466 C467 1.367 . S
C467 C466 1.367 . S
C467 C469 1.433 . S
C468 C464 1.350 . S
C468 C465 1.463 . S
C468 N472 1.427 . S
C469 H459 0.929 . S
C469 C467 1.433 . S
C469 N472 1.384 . S
C470 H461 0.929 . S
C470 C462 1.378 . S
C470 C465 1.350 . S
C471 H458 0.929 1_545 S
C471 C463 1.433 . S
C471 N473 1.384 . S
N472 C468 1.427 . S
N472 C469 1.384 . S
N473 C465 1.427 . S
N473 C471 1.384 . S
H474 C480 0.930 . S
H475 C484 0.930 . S
H476 C489 0.929 . S
H477 C487 0.929 . S
H478 C482 0.952 . S
H479 C488 0.929 . S
C480 H474 0.930 . S
C480 C481 1.367 . S
C480 C488 1.378 . S
C481 C480 1.367 . S
C481 C489 1.433 . S
C482 H478 0.952 . S
C482 C484 1.336 1_556 S
C482 C486 1.369 . S
C483 C486 1.463 . S
C483 C488 1.350 . S
C483 N491 1.427 . S
C484 H475 0.930 . S
C484 C482 1.336 1_554 S
C484 C485 1.367 . S
C485 C484 1.367 . S
C485 C487 1.433 . S
C486 C482 1.369 . S
C486 C483 1.463 . S
C486 N490 1.427 1_556 S
C487 H477 0.929 . S
C487 C485 1.433 . S
C487 N490 1.384 . S
C488 H479 0.929 . S
C488 C480 1.378 . S
C488 C483 1.350 . S
C489 H476 0.929 . S
C489 C481 1.433 . S
C489 N491 1.384 . S
N490 C486 1.427 1_554 S
N490 C487 1.384 . S
N491 C483 1.427 . S
N491 C489 1.384 . S
H492 C498 0.930 . S
H493 C502 0.930 . S
H494 C507 0.929 . S
H495 C505 0.929 . S
H496 C500 0.929 . S
H497 C506 0.929 . S
C498 H492 0.930 . S
C498 C499 1.367 . S
C498 C506 1.378 . S
C499 C498 1.367 . S
C499 C507 1.433 . S
C500 H496 0.929 . S
C500 C502 1.378 . S
C500 C504 1.350 . S
C501 C504 1.463 . S
C501 C506 1.350 . S
C501 N509 1.427 . S
C502 H493 0.930 . S
C502 C500 1.378 . S
C502 C503 1.367 . S
C503 C502 1.367 . S
C503 C505 1.433 . S
C504 C500 1.350 . S
C504 C501 1.463 . S
C504 N508 1.427 . S
C505 H495 0.929 . S
C505 C503 1.433 . S
C505 N508 1.384 . S
C506 H497 0.929 . S
C506 C498 1.378 . S
C506 C501 1.350 . S
C507 H494 0.929 . S
C507 C499 1.433 . S
C507 N509 1.384 . S
N508 C504 1.427 . S
N508 C505 1.384 . S
N509 C501 1.427 . S
N509 C507 1.384 . S
C193 C7 0.772 . S
C197 C185 0.779 . S
C211 C51 1.939 . S
C215 C163 1.889 . S
C229 C87 1.273 . S
C233 C174 1.291 . S
C247 C16 0.379 . S
C251 C179 0.239 . S
C269 C157 1.845 . S
C265 C42 1.891 . S
C287 C168 1.182 . S
C283 C96 1.183 . S
C301 C47 1.289 . S
C305 C141 1.296 . S
C319 C91 3.040 . S
C323 C146 2.991 1_655 S
C337 C2 1.914 . S
C341 C124 1.880 . S
C359 C135 1.181 . S
C355 C56 1.171 . S
C377 C152 2.984 . S
C373 C82 3.031 . S
C391 C11 1.942 . S
C395 C130 1.906 . S
C413 C147 1.726 . S
C409 C19 1.694 . S
C427 C50 1.415 . S
C431 C125 1.464 . S
C445 C99 1.507 . S
C449 C136 1.544 . S
C467 C169 1.518 . S
C463 C59 1.501 . S
C485 C180 1.275 . S
C481 C90 1.248 . S
C499 C10 1.399 . S
C503 C158 1.432 . S
