# Generated by pormake.
# Topology pth, (4,4)-cn, num edge types: 1
# Building blocks:
#     Node 0, Type 0, BuildingBlock: CEKHIL_clean_sbu_0, # of connection points: 4
#     Node 1, Type 0, BuildingBlock: CEKHIL_clean_sbu_0, # of connection points: 4
#     Node 2, Type 0, BuildingBlock: CEKHIL_clean_sbu_0, # of connection points: 4
#     Node 3, Type 1, BuildingBlock: AZAVOO_clean_linker_0, # of connection points: 4
#     Node 4, Type 1, BuildingBlock: AZAVOO_clean_linker_0, # of connection points: 4
#     Node 5, Type 1, BuildingBlock: AZAVOO_clean_linker_0, # of connection points: 4
#     Edge 6, Type (0, 1), BuildingBlock: XIVTED_clean_linker_0, # of connection points: 2
#     Edge 7, Type (0, 1), BuildingBlock: XIVTED_clean_linker_0, # of connection points: 2
#     Edge 8, Type (0, 1), BuildingBlock: XIVTED_clean_linker_0, # of connection points: 2
#     Edge 9, Type (0, 1), BuildingBlock: XIVTED_clean_linker_0, # of connection points: 2
#     Edge 10, Type (0, 1), BuildingBlock: XIVTED_clean_linker_0, # of connection points: 2
#     Edge 11, Type (0, 1), BuildingBlock: XIVTED_clean_linker_0, # of connection points: 2
#     Edge 12, Type (0, 1), BuildingBlock: XIVTED_clean_linker_0, # of connection points: 2
#     Edge 13, Type (0, 1), BuildingBlock: XIVTED_clean_linker_0, # of connection points: 2
#     Edge 14, Type (0, 1), BuildingBlock: XIVTED_clean_linker_0, # of connection points: 2
#     Edge 15, Type (0, 1), BuildingBlock: XIVTED_clean_linker_0, # of connection points: 2
#     Edge 16, Type (0, 1), BuildingBlock: XIVTED_clean_linker_0, # of connection points: 2
#     Edge 17, Type (0, 1), BuildingBlock: XIVTED_clean_linker_0, # of connection points: 2
# Relax obj value: 0.107
# Max RMSD: 0.224
# Mean RMSD: 0.144
data_MOF--net-pth--node1-CEKHIL_clean_sbu_0--node2-AZAVOO_clean_linker_0--edge1-XIVTED_clean_linker_0
_symmetry_space_group_name_H-M    P1
_symmetry_Int_Tables_number       1
_symmetry_cell_setting            triclinic
loop_
_symmetry_equiv_pos_as_xyz
'x, y, z'
_cell_length_a     25.953032
_cell_length_b     26.303191
_cell_length_c     71.902105
_cell_angle_alpha  93.402216
_cell_angle_beta   88.746146
_cell_angle_gamma 120.2983
loop_
_atom_site_label
_atom_site_type_symbol
_atom_site_fract_x
_atom_site_fract_y
_atom_site_fract_z
_atom_type_partial_charge
Co0 Co 0.08562 0.06363 0.09156 0.0
O1 O 0.03752 0.98811 0.10184 0.0
O2 O 0.12508 0.01799 0.08837 0.0
C3 C 0.07744 0.11569 0.11629 0.0
O4 O 0.14865 0.13846 0.07986 0.0
Co5 Co 0.03368 0.14349 0.08365 0.0
O6 O 0.11794 0.2044 0.07966 0.0
C7 C 0.0083 0.04214 0.0575 0.0
C8 C 0.07991 0.97754 0.09715 0.0
C9 C 0.15778 0.19014 0.07689 0.0
O10 O 0.04334 0.0317 0.06686 0.0
O11 O 0.9958 0.08221 0.06254 0.0
O12 O 0.11683 0.09912 0.11627 0.0
O13 O 0.0418 0.09711 0.10203 0.0
Co14 Co 0.04464 0.08602 0.4083 0.0
O15 O 0.00171 0.11198 0.39381 0.0
O16 O 0.08465 0.17121 0.40992 0.0
C17 C 0.04511 0.0208 0.38668 0.0
O18 O 0.10203 0.07533 0.42427 0.0
Co19 Co 0.9845 0.95504 0.41898 0.0
O20 O 0.0669 0.97831 0.42639 0.0
C21 C 0.95767 0.03805 0.44057 0.0
C22 C 0.04313 0.16534 0.39869 0.0
C23 C 0.1076 0.03207 0.42924 0.0
O24 O 0.9951 0.08095 0.4309 0.0
O25 O 0.94475 0.98452 0.43723 0.0
O26 O 0.08371 0.07665 0.38598 0.0
O27 O 0.0038 0.00729 0.39896 0.0
Co28 Co 0.05729 0.08393 0.74624 0.0
O29 O 0.11601 0.11685 0.72721 0.0
O30 O 0.10479 0.04584 0.74493 0.0
C31 C 0.98028 0.07368 0.72938 0.0
O32 O 0.00011 0.03826 0.76684 0.0
Co33 Co 0.99782 0.1541 0.76197 0.0
O34 O 0.94665 0.08152 0.77534 0.0
C35 C 0.12317 0.19601 0.77086 0.0
C36 C 0.13395 0.08131 0.73179 0.0
C37 C 0.95816 0.03998 0.77627 0.0
O38 O 0.11547 0.14573 0.76472 0.0
O39 O 0.0833 0.21059 0.76938 0.0
O40 O 0.99593 0.03383 0.72772 0.0
O41 O 0.01486 0.12023 0.73969 0.0
H42 H 0.96481 0.39197 0.13563 0.0
H43 H 0.18196 0.95884 0.26713 0.0
H44 H 0.96238 0.42163 0.23654 0.0
H45 H 0.95356 0.33302 0.22049 0.0
H46 H 0.14287 0.40375 0.22835 0.0
H47 H 0.15071 0.49135 0.24481 0.0
H48 H 0.96866 0.51018 0.20756 0.0
H49 H 0.95048 0.45868 0.1768 0.0
H50 H 0.12763 0.4818 0.178 0.0
H51 H 0.14551 0.53407 0.20861 0.0
H52 H 0.99485 0.64039 0.22186 0.0
H53 H 0.99583 0.69161 0.19448 0.0
H54 H 0.162 0.70323 0.17723 0.0
H55 H 0.16175 0.65421 0.20515 0.0
H56 H 0.00218 0.66666 0.26321 0.0
H57 H 0.01792 0.76539 0.27087 0.0
H58 H 0.19916 0.84159 0.25105 0.0
H59 H 0.18296 0.74243 0.24367 0.0
H60 H 0.99359 0.58217 0.29033 0.0
H61 H 0.99625 0.64709 0.31648 0.0
H62 H 0.18626 0.75963 0.30913 0.0
H63 H 0.18259 0.69506 0.28265 0.0
H64 H 0.9803 0.44735 0.27511 0.0
H65 H 0.97794 0.39214 0.30149 0.0
H66 H 0.16042 0.52523 0.31527 0.0
H67 H 0.16335 0.57786 0.28803 0.0
O68 O 0.97326 0.41322 0.14767 0.0
O69 O 0.06412 0.42487 0.14921 0.0
O70 O 0.08061 0.87786 0.27385 0.0
O71 O 0.17413 0.91935 0.26382 0.0
C72 C 0.06603 0.5228 0.24497 0.0
C73 C 0.06781 0.55409 0.22938 0.0
C74 C 0.07684 0.61156 0.23193 0.0
C75 C 0.08352 0.63757 0.25008 0.0
C76 C 0.08242 0.60651 0.26566 0.0
C77 C 0.07372 0.54905 0.26316 0.0
C78 C 0.05725 0.46289 0.24165 0.0
C79 C 0.00131 0.41661 0.23555 0.0
C80 C 0.99656 0.36645 0.22618 0.0
C81 C 0.04781 0.36215 0.22272 0.0
C82 C 0.10254 0.40564 0.23079 0.0
C83 C 0.10716 0.45572 0.24026 0.0
C84 C 0.05827 0.52559 0.2103 0.0
C85 C 0.00361 0.50448 0.20106 0.0
C86 C 0.9933 0.4749 0.18354 0.0
C87 C 0.03752 0.46589 0.17497 0.0
C88 C 0.09257 0.48785 0.18422 0.0
C89 C 0.10291 0.51767 0.20169 0.0
C90 C 0.07836 0.64392 0.21552 0.0
C91 C 0.0317 0.65455 0.21225 0.0
C92 C 0.032 0.68312 0.19645 0.0
C93 C 0.07881 0.70118 0.18355 0.0
C94 C 0.12559 0.69046 0.18695 0.0
C95 C 0.12541 0.66223 0.20282 0.0
C96 C 0.0915 0.69753 0.25294 0.0
C97 C 0.04512 0.70478 0.26043 0.0
C98 C 0.05426 0.7612 0.26481 0.0
C99 C 0.10993 0.81142 0.26165 0.0
C100 C 0.15583 0.80388 0.2537 0.0
C101 C 0.14664 0.74736 0.24938 0.0
C102 C 0.08775 0.63439 0.28455 0.0
C103 C 0.0361 0.61962 0.29484 0.0
C104 C 0.03778 0.65689 0.30977 0.0
C105 C 0.09131 0.70922 0.31462 0.0
C106 C 0.14413 0.72038 0.30544 0.0
C107 C 0.14231 0.68327 0.29047 0.0
C108 C 0.07211 0.5164 0.27954 0.0
C109 C 0.01992 0.46422 0.28373 0.0
C110 C 0.01846 0.43318 0.29902 0.0
C111 C 0.06894 0.45419 0.31067 0.0
C112 C 0.12095 0.5071 0.30652 0.0
C113 C 0.12259 0.53764 0.29105 0.0
C114 C 0.02602 0.43351 0.15652 0.0
C115 C 0.1204 0.87141 0.2668 0.0
H116 H 0.70732 0.09751 0.47004 0.0
H117 H 0.25559 0.14771 0.6201 0.0
H118 H 0.64037 0.02128 0.57543 0.0
H119 H 0.71913 0.02017 0.55667 0.0
H120 H 0.80518 0.20929 0.55317 0.0
H121 H 0.72476 0.20935 0.5715 0.0
H122 H 0.58775 0.02941 0.54166 0.0
H123 H 0.63219 0.04035 0.51076 0.0
H124 H 0.67608 0.22257 0.51297 0.0
H125 H 0.63215 0.21116 0.54405 0.0
H126 H 0.47528 0.02057 0.54237 0.0
H127 H 0.41142 0.01148 0.51658 0.0
H128 H 0.43092 0.18059 0.53407 0.0
H129 H 0.49785 0.19059 0.55939 0.0
H130 H 0.39547 0.01828 0.57827 0.0
H131 H 0.30245 0.01627 0.58653 0.0
H132 H 0.40412 0.18989 0.61396 0.0
H133 H 0.49668 0.19164 0.60539 0.0
H134 H 0.44641 0.00438 0.61444 0.0
H135 H 0.39371 -0.00112 0.64346 0.0
H136 H 0.5332 0.17514 0.66057 0.0
H137 H 0.58466 0.18076 0.63113 0.0
H138 H 0.56773 0.00446 0.61495 0.0
H139 H 0.62322 0.99211 0.63973 0.0
H140 H 0.75871 0.17619 0.63811 0.0
H141 H 0.70236 0.18819 0.61356 0.0
O142 O 0.68877 0.09384 0.48209 0.0
O143 O 0.70809 0.18655 0.48351 0.0
O144 O 0.24136 0.05893 0.6018 0.0
O145 O 0.29164 0.14766 0.61639 0.0
C146 C 0.61938 0.11227 0.5792 0.0
C147 C 0.585 0.11417 0.56455 0.0
C148 C 0.52965 0.11025 0.56834 0.0
C149 C 0.50919 0.10563 0.58686 0.0
C150 C 0.5425 0.1013 0.6014 0.0
C151 C 0.59747 0.10429 0.59754 0.0
C152 C 0.67668 0.11525 0.57461 0.0
C153 C 0.67767 0.06275 0.57133 0.0
C154 C 0.72278 0.06229 0.56051 0.0
C155 C 0.76772 0.11453 0.553 0.0
C156 C 0.77034 0.16812 0.55833 0.0
C157 C 0.72499 0.16843 0.56904 0.0
C158 C 0.60712 0.1196 0.5451 0.0
C159 C 0.60683 0.07159 0.53541 0.0
C160 C 0.63225 0.07798 0.51777 0.0
C161 C 0.65798 0.13243 0.50943 0.0
C162 C 0.65678 0.18008 0.51902 0.0
C163 C 0.6315 0.17365 0.53671 0.0
C164 C 0.49125 0.10625 0.5527 0.0
C165 C 0.46634 0.05598 0.5405 0.0
C166 C 0.42932 0.05063 0.52588 0.0
C167 C 0.41552 0.09507 0.52333 0.0
C168 C 0.44109 0.14583 0.53552 0.0
C169 C 0.47884 0.15142 0.55008 0.0
C170 C 0.45273 0.10519 0.59117 0.0
C171 C 0.3975 0.05604 0.58589 0.0
C172 C 0.34448 0.05493 0.5907 0.0
C173 C 0.34586 0.10293 0.60094 0.0
C174 C 0.40141 0.15221 0.60609 0.0
C175 C 0.45435 0.15335 0.6012 0.0
C176 C 0.51879 0.09325 0.62061 0.0
C177 C 0.46627 0.04118 0.62468 0.0
C178 C 0.43645 0.03802 0.64134 0.0
C179 C 0.45888 0.0869 0.65423 0.0
C180 C 0.51432 0.13713 0.65077 0.0
C181 C 0.54402 0.1403 0.63406 0.0
C182 C 0.63111 0.09722 0.61254 0.0
C183 C 0.60929 0.04208 0.62004 0.0
C184 C 0.64115 0.03506 0.63408 0.0
C185 C 0.69524 0.08321 0.64089 0.0
C186 C 0.71677 0.13847 0.63334 0.0
C187 C 0.68498 0.14536 0.61925 0.0
C188 C 0.6864 0.13945 0.4909 0.0
C189 C 0.2897 0.10163 0.60635 0.0
H190 H 0.65906 0.70453 0.03947 0.0
H191 H 0.2848 0.19935 0.89402 0.0
H192 H 0.63302 0.71912 0.93784 0.0
H193 H 0.71514 0.80621 0.95359 0.0
H194 H 0.83349 0.73917 0.93933 0.0
H195 H 0.75007 0.65104 0.9241 0.0
H196 H 0.54865 0.62358 0.9655 0.0
H197 H 0.58107 0.66034 0.99765 0.0
H198 H 0.72849 0.62861 0.99005 0.0
H199 H 0.69495 0.59108 0.95799 0.0
H200 H 0.44096 0.51167 0.94781 0.0
H201 H 0.38489 0.45843 0.97476 0.0
H202 H 0.52093 0.41512 0.98587 0.0
H203 H 0.57605 0.46746 0.95853 0.0
H204 H 0.41798 0.49161 0.90891 0.0
H205 H 0.32852 0.39717 0.9005 0.0
H206 H 0.42781 0.30784 0.90737 0.0
H207 H 0.51708 0.40276 0.9156 0.0
H208 H 0.48874 0.57491 0.88442 0.0
H209 H 0.43249 0.52636 0.85581 0.0
H210 H 0.52722 0.43038 0.84871 0.0
H211 H 0.58137 0.47771 0.87794 0.0
H212 H 0.58919 0.67957 0.8913 0.0
H213 H 0.64611 0.74943 0.86764 0.0
H214 H 0.77107 0.68609 0.86533 0.0
H215 H 0.71214 0.61473 0.88852 0.0
O216 O 0.64672 0.68929 0.02677 0.0
O217 O 0.72221 0.67288 0.02208 0.0
O218 O 0.27043 0.28533 0.89406 0.0
O219 O 0.31939 0.23724 0.89743 0.0
C220 C 0.63319 0.62037 0.92522 0.0
C221 C 0.60042 0.58394 0.9398 0.0
C222 C 0.54813 0.52941 0.93573 0.0
C223 C 0.52864 0.51139 0.9171 0.0
C224 C 0.56132 0.5481 0.90255 0.0
C225 C 0.61371 0.60248 0.9066 0.0
C226 C 0.68575 0.67892 0.92994 0.0
C227 C 0.67718 0.72429 0.93759 0.0
C228 C 0.72428 0.77409 0.94655 0.0
C229 C 0.78076 0.77929 0.94792 0.0
C230 C 0.79027 0.73595 0.93877 0.0
C231 C 0.74296 0.68596 0.92988 0.0
C232 C 0.61941 0.6046 0.95947 0.0
C233 C 0.58765 0.62419 0.97087 0.0
C234 C 0.6064 0.64535 0.9892 0.0
C235 C 0.65743 0.64749 0.99642 0.0
C236 C 0.68901 0.62757 0.98493 0.0
C237 C 0.67002 0.60617 0.96662 0.0
C238 C 0.51224 0.49298 0.95117 0.0
C239 C 0.45813 0.48989 0.95591 0.0
C240 C 0.42663 0.46015 0.97144 0.0
C241 C 0.44879 0.43304 0.98255 0.0
C242 C 0.50252 0.43522 0.97752 0.0
C243 C 0.53406 0.46508 0.96196 0.0
C244 C 0.4739 0.45387 0.91275 0.0
C245 C 0.42024 0.45156 0.90856 0.0
C246 C 0.36925 0.39758 0.90379 0.0
C247 C 0.37106 0.34492 0.90321 0.0
C248 C 0.42489 0.34751 0.90765 0.0
C249 C 0.47589 0.40159 0.91239 0.0
C250 C 0.53879 0.52955 0.8832 0.0
C251 C 0.49845 0.54464 0.87637 0.0
C252 C 0.46648 0.51686 0.85996 0.0
C253 C 0.47473 0.47379 0.85001 0.0
C254 C 0.51882 0.46236 0.85621 0.0
C255 C 0.55032 0.48978 0.87277 0.0
C256 C 0.64662 0.64223 0.89154 0.0
C257 C 0.62846 0.68041 0.88548 0.0
C258 C 0.66142 0.72064 0.8721 0.0
C259 C 0.71357 0.72382 0.86467 0.0
C260 C 0.73089 0.68449 0.87059 0.0
C261 C 0.69756 0.64394 0.8839 0.0
C262 C 0.67758 0.67058 0.01584 0.0
C263 C 0.31715 0.28752 0.89796 0.0
H264 H 0.00231 0.16001 0.11913 0.0
H265 H 0.10529 0.29827 0.22318 0.0
H266 H 0.13838 0.15006 0.14945 0.0
H267 H 0.98864 0.32814 0.18936 0.0
H268 H 0.11111 0.23587 0.1975 0.0
H269 H 0.99064 0.21495 0.14587 0.0
C270 C 0.02984 0.16955 0.13141 0.0
C271 C 0.07152 0.1507 0.13207 0.0
C272 C 0.08384 0.25572 0.1958 0.0
C273 C 0.05812 0.2131 0.16278 0.0
C274 C 0.08046 0.29123 0.21045 0.0
C275 C 0.04618 0.31821 0.20847 0.0
C276 C 0.05285 0.24732 0.17907 0.0
C277 C 0.01466 0.30735 0.19169 0.0
C278 C 0.0231 0.2008 0.14668 0.0
C279 C 0.10591 0.16407 0.14834 0.0
N280 N 0.01899 0.27301 0.17763 0.0
N281 N 0.09841 0.19444 0.16308 0.0
H282 H 0.90387 0.96832 0.46971 0.0
H283 H 0.80083 0.17593 0.52128 0.0
H284 H 0.95191 0.13821 0.44967 0.0
H285 H 0.81871 0.04469 0.54926 0.0
H286 H 0.85111 0.16103 0.49426 0.0
H287 H 0.86449 0.99185 0.49787 0.0
C288 C 0.90579 0.01047 0.47114 0.0
C289 C 0.93105 0.05128 0.45722 0.0
C290 C 0.84476 0.13614 0.50642 0.0
C291 C 0.88615 0.07849 0.48959 0.0
C292 C 0.81654 0.14496 0.52196 0.0
C293 C 0.80558 0.11159 0.53767 0.0
C294 C 0.86136 0.09303 0.50644 0.0
C295 C 0.82548 0.07086 0.53742 0.0
C296 C 0.88376 0.02404 0.48733 0.0
C297 C 0.93281 0.10543 0.46002 0.0
N298 N 0.85187 0.06231 0.52198 0.0
N299 N 0.91027 0.11735 0.47586 0.0
H300 H 0.88107 0.03876 0.80297 0.0
H301 H 0.77352 0.71351 0.83387 0.0
H302 H 0.95311 0.93343 0.77901 0.0
H303 H 0.73876 0.83831 0.86507 0.0
H304 H 0.83431 0.78989 0.81227 0.0
H305 H 0.82245 0.9617 0.82421 0.0
C306 C 0.88454 -0.00066 0.80212 0.0
C307 C 0.92223 0.99271 0.78913 0.0
C308 C 0.81334 0.80041 0.82386 0.0
C309 C 0.85475 0.90383 0.81356 0.0
C310 C 0.7788 0.75693 0.83625 0.0
C311 C 0.75057 0.76927 0.85129 0.0
C312 C 0.81943 0.85652 0.82648 0.0
C313 C 0.7585 0.8262 0.85349 0.0
C314 C 0.8511 0.95535 0.81434 0.0
C315 C 0.92484 0.94057 0.78882 0.0
N316 N 0.79197 0.86751 0.84122 0.0
N317 N 0.89137 0.89799 0.80082 0.0
H318 H 0.17516 0.96154 0.10174 0.0
H319 H 0.98408 0.67865 0.16134 0.0
H320 H 0.9843 0.87632 0.10843 0.0
H321 H 0.17453 0.79428 0.16759 0.0
H322 H 0.98427 0.73634 0.13592 0.0
H323 H 0.17571 0.88476 0.11935 0.0
C324 C 0.13323 0.92588 0.1065 0.0
C325 C 0.07969 0.92558 0.10387 0.0
C326 C 0.02608 0.74868 0.14275 0.0
C327 C 0.08006 0.83828 0.12404 0.0
C328 C 0.02599 0.71605 0.15736 0.0
C329 C 0.07922 0.7322 0.16687 0.0
C330 C 0.07981 0.79775 0.13753 0.0
C331 C 0.13242 0.78006 0.16068 0.0
C332 C 0.13364 0.8824 0.11666 0.0
C333 C 0.02665 0.87854 0.11038 0.0
N334 N 0.13127 0.81148 0.14651 0.0
N335 N 0.02823 0.83707 0.12032 0.0
H336 H 0.20202 0.13984 0.44153 0.0
H337 H 0.31394 0.99367 0.51204 0.0
H338 H 0.13355 0.95238 0.44257 0.0
H339 H 0.41933 0.17808 0.50071 0.0
H340 H 0.24517 0.97979 0.48728 0.0
H341 H 0.2812 0.15705 0.46338 0.0
C342 C 0.20394 0.10237 0.44614 0.0
C343 C 0.16048 0.0445 0.44035 0.0
C344 C 0.28354 0.02328 0.49008 0.0
C345 C 0.2503 0.06395 0.46546 0.0
C346 C 0.32309 0.03123 0.50421 0.0
C347 C 0.37301 0.08705 0.50838 0.0
C348 C 0.29323 0.07156 0.4801 0.0
C349 C 0.38122 0.13436 0.49808 0.0
C350 C 0.24909 0.11228 0.45863 0.0
C351 C 0.16547 0.99774 0.44676 0.0
N352 N 0.34159 0.12559 0.48443 0.0
N353 N 0.20905 0.0085 0.45909 0.0
H354 H 0.21008 0.17538 0.78286 0.0
H355 H 0.42373 0.50603 0.82326 0.0
H356 H 0.16734 0.31362 0.77999 0.0
H357 H 0.42821 0.35533 0.84212 0.0
H358 H 0.34247 0.43994 0.80175 0.0
H359 H 0.30296 0.24538 0.79917 0.0
C360 C 0.22024 0.22046 0.78559 0.0
C361 C 0.1804 0.23843 0.78025 0.0
C362 C 0.36186 0.42164 0.81048 0.0
C363 C 0.28697 0.31879 0.79874 0.0
C364 C 0.40814 0.45924 0.82279 0.0
C365 C 0.43262 0.43631 0.83472 0.0
C366 C 0.34025 0.36075 0.80997 0.0
C367 C 0.4114 0.37536 0.83312 0.0
C368 C 0.27328 0.26034 0.7949 0.0
C369 C 0.19629 0.29759 0.78406 0.0
N370 N 0.36622 0.33972 0.82109 0.0
N371 N 0.24832 0.33565 0.79311 0.0
H372 H 0.93726 0.14936 0.73145 0.0
H373 H 0.71744 0.99253 0.64389 0.0
H374 H 0.90899 0.98775 0.70321 0.0
H375 H 0.75157 0.15711 0.67138 0.0
H376 H 0.77914 0.98423 0.66739 0.0
H377 H 0.86089 0.14691 0.71161 0.0
C378 C 0.9146 0.11307 0.72116 0.0
C379 C 0.92987 0.06902 0.71882 0.0
C380 C 0.77283 0.02198 0.66835 0.0
C381 C 0.84269 0.06614 0.69594 0.0
C382 C 0.73739 0.02661 0.65499 0.0
C383 C 0.72975 0.07585 0.6556 0.0
C384 C 0.80078 0.0669 0.68243 0.0
C385 C 0.75714 0.11895 0.67018 0.0
C386 C 0.87103 0.11172 0.70981 0.0
C387 C 0.89877 0.0228 0.70538 0.0
N388 N 0.79161 0.11358 0.68296 0.0
N389 N 0.85697 0.02282 0.69432 0.0
H390 H 0.01327 0.9455 0.04335 0.0
H391 H 0.81107 0.89543 0.95401 0.0
H392 H 0.94354 0.05855 0.03131 0.0
H393 H 0.8528 0.76652 0.97208 0.0
H394 H 0.87351 0.96382 0.97937 0.0
H395 H 0.96769 0.88703 0.01451 0.0
C396 C 0.98853 0.95818 0.03466 0.0
C397 C 0.98176 0.00675 0.03991 0.0
C398 C 0.8695 0.92078 0.97762 0.0
C399 C 0.92977 0.94008 0.00679 0.0
C400 C 0.8339 0.88175 0.96316 0.0
C401 C 0.82629 0.82496 0.96097 0.0
C402 C 0.89769 0.90289 0.98998 0.0
C403 C 0.85774 0.80998 0.97307 0.0
C404 C 0.96257 0.92477 0.01817 0.0
C405 C 0.94944 0.02115 0.02797 0.0
N406 N 0.89159 0.84849 0.98714 0.0
N407 N 0.92451 0.98785 0.01201 0.0
H408 H 0.12952 0.03776 0.36058 0.0
H409 H 0.0286 0.69563 0.34712 0.0
H410 H 0.98052 0.90116 0.38927 0.0
H411 H 0.15017 0.82798 0.31049 0.0
H412 H 0.01881 0.77193 0.36532 0.0
H413 H 0.14531 0.96253 0.34435 0.0
C414 C 0.10003 0.99191 0.36343 0.0
C415 C 0.05355 0.97562 0.37625 0.0
C416 C 0.04797 0.78422 0.35338 0.0
C417 C 0.07167 0.88942 0.35788 0.0
C418 C 0.0536 0.74074 0.343 0.0
C419 C 0.09034 0.75537 0.32727 0.0
C420 C 0.07934 0.84271 0.34799 0.0
C421 C 0.12217 0.81469 0.32269 0.0
C422 C 0.10913 0.94901 0.35419 0.0
C423 C 0.0168 0.91561 0.37946 0.0
N424 N 0.11572 0.85607 0.33295 0.0
N425 N 0.02672 0.87463 0.37035 0.0
H426 H 0.21485 0.16713 0.71052 0.0
H427 H 0.38606 -0.00133 0.67738 0.0
H428 H 0.1735 0.00175 0.73259 0.0
H429 H 0.44241 0.17832 0.66557 0.0
H430 H 0.31094 -0.00143 0.69874 0.0
H431 H 0.30041 0.17144 0.69474 0.0
C432 C 0.22381 0.13157 0.71204 0.0
C433 C 0.18666 0.0837 0.72274 0.0
C434 C 0.34048 0.03823 0.69168 0.0
C435 C 0.28514 0.08832 0.70459 0.0
C436 C 0.38323 0.03831 0.67947 0.0
C437 C 0.42047 0.0885 0.66959 0.0
C438 C 0.33463 0.0885 0.69383 0.0
C439 C 0.41528 0.1388 0.67298 0.0
C440 C 0.27303 0.13424 0.70309 0.0
C441 C 0.20095 0.0393 0.72439 0.0
N442 N 0.37278 0.13723 0.68463 0.0
N443 N 0.24889 0.04235 0.71522 0.0
H444 H 0.24369 0.16979 0.06125 0.0
H445 H 0.39508 0.47048 0.00866 0.0
H446 H 0.19823 0.30611 0.07075 0.0
H447 H 0.42788 0.32741 0.99483 0.0
H448 H 0.33467 0.41718 0.03491 0.0
H449 H 0.32426 0.23401 0.04087 0.0
C450 C 0.25123 0.21357 0.05934 0.0
C451 C 0.21338 0.23214 0.06751 0.0
C452 C 0.35539 0.39756 0.02623 0.0
C453 C 0.30522 0.30559 0.04403 0.0
C454 C 0.38957 0.4278 0.01115 0.0
C455 C 0.41582 0.40295 -0.00065 0.0
C456 C 0.34713 0.34186 0.02954 0.0
C457 C 0.40848 0.34823 0.00356 0.0
C458 C 0.2971 0.2501 0.04761 0.0
C459 C 0.22562 0.28948 0.06455 0.0
N460 N 0.37433 0.31924 0.01821 0.0
N461 N 0.27 0.32385 0.0529 0.0
H462 H 0.95114 0.17181 0.38381 0.0
H463 H 0.15976 0.44087 0.32416 0.0
H464 H 0.14128 0.27337 0.3935 0.0
H465 H 0.9752 0.38918 0.33388 0.0
H466 H 0.15446 0.37934 0.34906 0.0
H467 H 0.95837 0.24985 0.36512 0.0
C468 C 0.99429 0.21102 0.38222 0.0
C469 C 0.04574 0.21615 0.39012 0.0
C470 C 0.11537 0.38206 0.34585 0.0
C471 C 0.05455 0.30483 0.36843 0.0
C472 C 0.11833 0.41741 0.33166 0.0
C473 C 0.06766 0.42006 0.32669 0.0
C474 C 0.06115 0.34825 0.35498 0.0
C475 C 0.01502 0.38751 0.3368 0.0
C476 C -0.00161 0.25553 0.37157 0.0
C477 C 0.10054 0.26783 0.38767 0.0
N478 N 0.01294 0.35244 0.35028 0.0
N479 N 0.10372 0.3098 0.37674 0.0
loop_
_geom_bond_atom_site_label_1
_geom_bond_atom_site_label_2
_geom_bond_distance
_geom_bond_site_symmetry_2
_ccdc_geom_bond_type
Co0 O1 2.216 . S
Co0 O2 2.091 . S
Co0 O4 2.004 . S
Co0 O10 2.021 . S
Co0 O12 2.137 . S
Co0 O13 2.244 . S
O1 Co0 2.216 . S
O1 C8 1.247 . S
O2 Co0 2.091 . S
O2 C8 1.261 . S
C3 O12 1.247 . S
C3 O13 1.272 . S
O4 Co0 2.004 . S
O4 C9 1.259 . S
Co5 O6 2.061 . S
Co5 O11 2.052 1_455 S
Co5 O13 2.135 . S
O6 Co5 2.061 . S
O6 C9 1.235 . S
C7 O10 1.238 . S
C7 O11 1.241 1_455 S
C8 O1 1.247 . S
C8 O2 1.261 . S
C9 O4 1.259 . S
C9 O6 1.235 . S
O10 Co0 2.021 . S
O10 C7 1.238 . S
O11 Co5 2.052 1_655 S
O11 C7 1.241 1_655 S
O12 Co0 2.137 . S
O12 C3 1.247 . S
O13 Co0 2.244 . S
O13 C3 1.272 . S
O13 Co5 2.135 . S
Co14 O15 2.216 . S
Co14 O16 2.091 . S
Co14 O18 2.004 . S
Co14 O24 2.021 . S
Co14 O26 2.137 . S
Co14 O27 2.244 1_545 S
O15 Co14 2.216 . S
O15 C22 1.247 . S
O16 Co14 2.091 . S
O16 C22 1.261 . S
C17 O26 1.247 1_565 S
C17 O27 1.272 . S
O18 Co14 2.004 . S
O18 C23 1.259 . S
Co19 O20 2.061 1_565 S
Co19 O25 2.052 1_455 S
Co19 O27 2.135 . S
O20 Co19 2.061 1_545 S
O20 C23 1.235 . S
C21 O24 1.238 1_655 S
C21 O25 1.241 1_545 S
C22 O15 1.247 . S
C22 O16 1.261 . S
C23 O18 1.259 . S
C23 O20 1.235 . S
O24 Co14 2.021 . S
O24 C21 1.238 1_455 S
O25 Co19 2.052 1_655 S
O25 C21 1.241 1_565 S
O26 Co14 2.137 . S
O26 C17 1.247 1_545 S
O27 Co14 2.244 1_565 S
O27 C17 1.272 . S
O27 Co19 2.135 . S
Co28 O29 2.216 . S
Co28 O30 2.091 . S
Co28 O32 2.004 . S
Co28 O38 2.021 . S
Co28 O40 2.137 . S
Co28 O41 2.244 . S
O29 Co28 2.216 . S
O29 C36 1.247 . S
O30 Co28 2.091 . S
O30 C36 1.261 . S
C31 O40 1.247 . S
C31 O41 1.272 . S
O32 Co28 2.004 . S
O32 C37 1.259 . S
Co33 O34 2.061 . S
Co33 O39 2.052 . S
Co33 O41 2.135 . S
O34 Co33 2.061 . S
O34 C37 1.235 . S
C35 O38 1.238 . S
C35 O39 1.241 . S
C36 O29 1.247 . S
C36 O30 1.261 . S
C37 O32 1.259 . S
C37 O34 1.235 . S
O38 Co28 2.021 . S
O38 C35 1.238 . S
O39 Co33 2.052 . S
O39 C35 1.241 . S
O40 Co28 2.137 . S
O40 C31 1.247 . S
O41 Co28 2.244 . S
O41 C31 1.272 . S
O41 Co33 2.135 . S
H42 O68 0.856 . S
H43 O71 0.854 . S
H44 C79 0.930 . S
H45 C80 0.930 . S
H46 C82 0.930 . S
H47 C83 0.930 . S
H48 C85 0.931 1_655 S
H49 C86 0.930 1_655 S
H50 C88 0.930 . S
H51 C89 0.929 . S
H52 C91 0.930 1_655 S
H53 C92 0.931 1_655 S
H54 C94 0.930 . S
H55 C95 0.929 . S
H56 C97 0.931 1_655 S
H57 C98 0.930 1_655 S
H58 C100 0.930 . S
H59 C101 0.932 . S
H60 C103 0.930 . S
H61 C104 0.929 . S
H62 C106 0.931 . S
H63 C107 0.930 . S
H64 C109 0.929 1_655 S
H65 C110 0.931 1_655 S
H66 C112 0.930 . S
H67 C113 0.929 . S
O68 H42 0.856 . S
O68 C114 1.300 . S
O69 C114 1.209 . S
O70 C115 1.199 . S
O71 H43 0.854 . S
O71 C115 1.297 . S
C72 C73 1.404 . S
C72 C77 1.397 . S
C72 C78 1.492 . S
C73 C72 1.404 . S
C73 C74 1.396 . S
C73 C84 1.492 . S
C74 C73 1.396 . S
C74 C75 1.397 . S
C74 C90 1.509 . S
C75 C74 1.397 . S
C75 C76 1.412 . S
C75 C96 1.485 . S
C76 C75 1.412 . S
C76 C77 1.388 . S
C76 C102 1.490 . S
C77 C72 1.397 . S
C77 C76 1.388 . S
C77 C108 1.519 . S
C78 C72 1.492 . S
C78 C79 1.363 1_455 S
C78 C83 1.390 . S
C79 H44 0.930 . S
C79 C78 1.363 1_655 S
C79 C80 1.372 . S
C80 H45 0.930 . S
C80 C79 1.372 . S
C80 C81 1.383 1_655 S
C81 C80 1.383 1_455 S
C81 C82 1.395 . S
C82 H46 0.930 . S
C82 C81 1.395 . S
C82 C83 1.362 . S
C83 H47 0.930 . S
C83 C78 1.390 . S
C83 C82 1.362 . S
C84 C73 1.492 . S
C84 C85 1.377 . S
C84 C89 1.397 . S
C85 H48 0.931 1_455 S
C85 C84 1.377 . S
C85 C86 1.376 . S
C86 H49 0.930 1_455 S
C86 C85 1.376 . S
C86 C87 1.376 . S
C87 C86 1.376 . S
C87 C88 1.378 . S
C87 C114 1.486 . S
C88 H50 0.930 . S
C88 C87 1.378 . S
C88 C89 1.376 . S
C89 H51 0.929 . S
C89 C84 1.397 . S
C89 C88 1.376 . S
C90 C74 1.509 . S
C90 C91 1.391 . S
C90 C95 1.386 . S
C91 H52 0.930 1_455 S
C91 C90 1.391 . S
C91 C92 1.375 . S
C92 H53 0.931 1_455 S
C92 C91 1.375 . S
C92 C93 1.375 . S
C93 C92 1.375 . S
C93 C94 1.361 . S
C94 H54 0.930 . S
C94 C93 1.361 . S
C94 C95 1.399 . S
C95 H55 0.929 . S
C95 C90 1.386 . S
C95 C94 1.399 . S
C96 C75 1.485 . S
C96 C97 1.394 . S
C96 C101 1.360 . S
C97 H56 0.931 1_455 S
C97 C96 1.394 . S
C97 C98 1.372 . S
C98 H57 0.930 1_455 S
C98 C97 1.372 . S
C98 C99 1.397 . S
C99 C98 1.397 . S
C99 C100 1.390 . S
C99 C115 1.476 . S
C100 H58 0.930 . S
C100 C99 1.390 . S
C100 C101 1.366 . S
C101 H59 0.932 . S
C101 C96 1.360 . S
C101 C100 1.366 . S
C102 C76 1.490 . S
C102 C103 1.380 1_455 S
C102 C107 1.386 . S
C103 H60 0.930 . S
C103 C102 1.380 1_655 S
C103 C104 1.381 . S
C104 H61 0.929 . S
C104 C103 1.381 . S
C104 C105 1.371 1_655 S
C105 C104 1.371 1_455 S
C105 C106 1.380 . S
C106 H62 0.931 . S
C106 C105 1.380 . S
C106 C107 1.387 . S
C107 H63 0.930 . S
C107 C102 1.386 . S
C107 C106 1.387 . S
C108 C77 1.519 . S
C108 C109 1.377 . S
C108 C113 1.361 . S
C109 H64 0.929 1_455 S
C109 C108 1.377 . S
C109 C110 1.386 . S
C110 H65 0.931 1_455 S
C110 C109 1.386 . S
C110 C111 1.363 . S
C111 C110 1.363 . S
C111 C112 1.385 . S
C112 H66 0.930 . S
C112 C111 1.385 . S
C112 C113 1.396 . S
C113 H67 0.929 . S
C113 C108 1.361 . S
C113 C112 1.396 . S
C114 O68 1.300 . S
C114 O69 1.209 . S
C114 C87 1.486 . S
C115 O70 1.199 . S
C115 O71 1.297 . S
C115 C99 1.476 . S
H116 O142 0.856 . S
H117 O145 0.854 . S
H118 C153 0.930 1_565 S
H119 C154 0.930 1_565 S
H120 C156 0.930 . S
H121 C157 0.930 . S
H122 C159 0.931 . S
H123 C160 0.930 . S
H124 C162 0.930 . S
H125 C163 0.929 . S
H126 C165 0.930 . S
H127 C166 0.931 . S
H128 C168 0.930 . S
H129 C169 0.929 . S
H130 C171 0.931 . S
H131 C172 0.930 . S
H132 C174 0.930 . S
H133 C175 0.932 . S
H134 C177 0.930 . S
H135 C178 0.929 1_565 S
H136 C180 0.931 . S
H137 C181 0.930 . S
H138 C183 0.929 . S
H139 C184 0.931 . S
H140 C186 0.930 . S
H141 C187 0.929 . S
O142 H116 0.856 . S
O142 C188 1.300 . S
O143 C188 1.209 . S
O144 C189 1.199 . S
O145 H117 0.854 . S
O145 C189 1.297 . S
C146 C147 1.404 . S
C146 C151 1.397 . S
C146 C152 1.492 . S
C147 C146 1.404 . S
C147 C148 1.396 . S
C147 C158 1.492 . S
C148 C147 1.396 . S
C148 C149 1.397 . S
C148 C164 1.509 . S
C149 C148 1.397 . S
C149 C150 1.412 . S
C149 C170 1.485 . S
C150 C149 1.412 . S
C150 C151 1.388 . S
C150 C176 1.490 . S
C151 C146 1.397 . S
C151 C150 1.388 . S
C151 C182 1.519 . S
C152 C146 1.492 . S
C152 C153 1.363 . S
C152 C157 1.390 . S
C153 H118 0.930 1_545 S
C153 C152 1.363 . S
C153 C154 1.372 . S
C154 H119 0.930 1_545 S
C154 C153 1.372 . S
C154 C155 1.383 . S
C155 C154 1.383 . S
C155 C156 1.395 . S
C156 H120 0.930 . S
C156 C155 1.395 . S
C156 C157 1.362 . S
C157 H121 0.930 . S
C157 C152 1.390 . S
C157 C156 1.362 . S
C158 C147 1.492 . S
C158 C159 1.377 . S
C158 C163 1.397 . S
C159 H122 0.931 . S
C159 C158 1.377 . S
C159 C160 1.376 . S
C160 H123 0.930 . S
C160 C159 1.376 . S
C160 C161 1.376 . S
C161 C160 1.376 . S
C161 C162 1.378 . S
C161 C188 1.486 . S
C162 H124 0.930 . S
C162 C161 1.378 . S
C162 C163 1.376 . S
C163 H125 0.929 . S
C163 C158 1.397 . S
C163 C162 1.376 . S
C164 C148 1.509 . S
C164 C165 1.391 . S
C164 C169 1.386 . S
C165 H126 0.930 . S
C165 C164 1.391 . S
C165 C166 1.375 . S
C166 H127 0.931 . S
C166 C165 1.375 . S
C166 C167 1.375 . S
C167 C166 1.375 . S
C167 C168 1.361 . S
C168 H128 0.930 . S
C168 C167 1.361 . S
C168 C169 1.399 . S
C169 H129 0.929 . S
C169 C164 1.386 . S
C169 C168 1.399 . S
C170 C149 1.485 . S
C170 C171 1.394 . S
C170 C175 1.360 . S
C171 H130 0.931 . S
C171 C170 1.394 . S
C171 C172 1.372 . S
C172 H131 0.930 . S
C172 C171 1.372 . S
C172 C173 1.397 . S
C173 C172 1.397 . S
C173 C174 1.390 . S
C173 C189 1.476 . S
C174 H132 0.930 . S
C174 C173 1.390 . S
C174 C175 1.366 . S
C175 H133 0.932 . S
C175 C170 1.360 . S
C175 C174 1.366 . S
C176 C150 1.490 . S
C176 C177 1.380 . S
C176 C181 1.386 . S
C177 H134 0.930 . S
C177 C176 1.380 . S
C177 C178 1.381 . S
C178 H135 0.929 1_545 S
C178 C177 1.381 . S
C178 C179 1.371 . S
C179 C178 1.371 . S
C179 C180 1.380 . S
C180 H136 0.931 . S
C180 C179 1.380 . S
C180 C181 1.387 . S
C181 H137 0.930 . S
C181 C176 1.386 . S
C181 C180 1.387 . S
C182 C151 1.519 . S
C182 C183 1.377 . S
C182 C187 1.361 . S
C183 H138 0.929 . S
C183 C182 1.377 . S
C183 C184 1.386 . S
C184 H139 0.931 . S
C184 C183 1.386 . S
C184 C185 1.363 . S
C185 C184 1.363 . S
C185 C186 1.385 . S
C186 H140 0.930 . S
C186 C185 1.385 . S
C186 C187 1.396 . S
C187 H141 0.929 . S
C187 C182 1.361 . S
C187 C186 1.396 . S
C188 O142 1.300 . S
C188 O143 1.209 . S
C188 C161 1.486 . S
C189 O144 1.199 . S
C189 O145 1.297 . S
C189 C173 1.476 . S
H190 O216 0.856 . S
H191 O219 0.854 . S
H192 C227 0.930 . S
H193 C228 0.930 . S
H194 C230 0.930 . S
H195 C231 0.930 . S
H196 C233 0.931 . S
H197 C234 0.930 . S
H198 C236 0.930 1_554 S
H199 C237 0.929 . S
H200 C239 0.930 . S
H201 C240 0.931 . S
H202 C242 0.930 . S
H203 C243 0.929 . S
H204 C245 0.931 . S
H205 C246 0.930 . S
H206 C248 0.930 . S
H207 C249 0.932 . S
H208 C251 0.930 . S
H209 C252 0.929 . S
H210 C254 0.931 . S
H211 C255 0.930 . S
H212 C257 0.929 . S
H213 C258 0.931 . S
H214 C260 0.930 . S
H215 C261 0.929 . S
O216 H190 0.856 . S
O216 C262 1.300 . S
O217 C262 1.209 . S
O218 C263 1.199 . S
O219 H191 0.854 . S
O219 C263 1.297 . S
C220 C221 1.404 . S
C220 C225 1.397 . S
C220 C226 1.492 . S
C221 C220 1.404 . S
C221 C222 1.396 . S
C221 C232 1.492 . S
C222 C221 1.396 . S
C222 C223 1.397 . S
C222 C238 1.509 . S
C223 C222 1.397 . S
C223 C224 1.412 . S
C223 C244 1.485 . S
C224 C223 1.412 . S
C224 C225 1.388 . S
C224 C250 1.490 . S
C225 C220 1.397 . S
C225 C224 1.388 . S
C225 C256 1.519 . S
C226 C220 1.492 . S
C226 C227 1.363 . S
C226 C231 1.390 . S
C227 H192 0.930 . S
C227 C226 1.363 . S
C227 C228 1.372 . S
C228 H193 0.930 . S
C228 C227 1.372 . S
C228 C229 1.383 . S
C229 C228 1.383 . S
C229 C230 1.395 . S
C230 H194 0.930 . S
C230 C229 1.395 . S
C230 C231 1.362 . S
C231 H195 0.930 . S
C231 C226 1.390 . S
C231 C230 1.362 . S
C232 C221 1.492 . S
C232 C233 1.377 . S
C232 C237 1.397 . S
C233 H196 0.931 . S
C233 C232 1.377 . S
C233 C234 1.376 1_556 S
C234 H197 0.930 . S
C234 C233 1.376 1_554 S
C234 C235 1.376 . S
C235 C234 1.376 . S
C235 C236 1.378 1_554 S
C235 C262 1.486 . S
C236 H198 0.930 1_556 S
C236 C235 1.378 1_556 S
C236 C237 1.376 . S
C237 H199 0.929 . S
C237 C232 1.397 . S
C237 C236 1.376 . S
C238 C222 1.509 . S
C238 C239 1.391 . S
C238 C243 1.386 . S
C239 H200 0.930 . S
C239 C238 1.391 . S
C239 C240 1.375 . S
C240 H201 0.931 . S
C240 C239 1.375 . S
C240 C241 1.375 . S
C241 C240 1.375 . S
C241 C242 1.361 . S
C242 H202 0.930 . S
C242 C241 1.361 . S
C242 C243 1.399 . S
C243 H203 0.929 . S
C243 C238 1.386 . S
C243 C242 1.399 . S
C244 C223 1.485 . S
C244 C245 1.394 . S
C244 C249 1.360 . S
C245 H204 0.931 . S
C245 C244 1.394 . S
C245 C246 1.372 . S
C246 H205 0.930 . S
C246 C245 1.372 . S
C246 C247 1.397 . S
C247 C246 1.397 . S
C247 C248 1.390 . S
C247 C263 1.476 . S
C248 H206 0.930 . S
C248 C247 1.390 . S
C248 C249 1.366 . S
C249 H207 0.932 . S
C249 C244 1.360 . S
C249 C248 1.366 . S
C250 C224 1.490 . S
C250 C251 1.380 . S
C250 C255 1.386 . S
C251 H208 0.930 . S
C251 C250 1.380 . S
C251 C252 1.381 . S
C252 H209 0.929 . S
C252 C251 1.381 . S
C252 C253 1.371 . S
C253 C252 1.371 . S
C253 C254 1.380 . S
C254 H210 0.931 . S
C254 C253 1.380 . S
C254 C255 1.387 . S
C255 H211 0.930 . S
C255 C250 1.386 . S
C255 C254 1.387 . S
C256 C225 1.519 . S
C256 C257 1.377 . S
C256 C261 1.361 . S
C257 H212 0.929 . S
C257 C256 1.377 . S
C257 C258 1.386 . S
C258 H213 0.931 . S
C258 C257 1.386 . S
C258 C259 1.363 . S
C259 C258 1.363 . S
C259 C260 1.385 . S
C260 H214 0.930 . S
C260 C259 1.385 . S
C260 C261 1.396 . S
C261 H215 0.929 . S
C261 C256 1.361 . S
C261 C260 1.396 . S
C262 O216 1.300 . S
C262 O217 1.209 . S
C262 C235 1.486 . S
C263 O218 1.199 . S
C263 O219 1.297 . S
C263 C247 1.476 . S
H264 C270 0.930 . S
H265 C274 0.930 . S
H266 C279 0.929 . S
H267 C277 0.929 . S
H268 C272 0.929 . S
H269 C278 0.929 . S
C270 H264 0.930 . S
C270 C271 1.367 . S
C270 C278 1.378 . S
C271 C270 1.367 . S
C271 C279 1.433 . S
C272 H268 0.929 . S
C272 C274 1.378 . S
C272 C276 1.350 . S
C273 C276 1.463 . S
C273 C278 1.350 . S
C273 N281 1.427 . S
C274 H265 0.930 . S
C274 C272 1.378 . S
C274 C275 1.367 . S
C275 C274 1.367 . S
C275 C277 1.433 . S
C276 C272 1.350 . S
C276 C273 1.463 . S
C276 N280 1.427 . S
C277 H267 0.929 . S
C277 C275 1.433 . S
C277 N280 1.384 . S
C278 H269 0.929 . S
C278 C270 1.378 . S
C278 C273 1.350 . S
C279 H266 0.929 . S
C279 C271 1.433 . S
C279 N281 1.384 . S
N280 C276 1.427 . S
N280 C277 1.384 . S
N281 C273 1.427 . S
N281 C279 1.384 . S
H282 C288 0.930 . S
H283 C292 0.930 . S
H284 C297 0.929 . S
H285 C295 0.929 . S
H286 C290 0.929 . S
H287 C296 0.929 . S
C288 H282 0.930 . S
C288 C289 1.367 . S
C288 C296 1.378 . S
C289 C288 1.367 . S
C289 C297 1.433 . S
C290 H286 0.929 . S
C290 C292 1.378 . S
C290 C294 1.350 . S
C291 C294 1.463 . S
C291 C296 1.350 . S
C291 N299 1.427 . S
C292 H283 0.930 . S
C292 C290 1.378 . S
C292 C293 1.367 . S
C293 C292 1.367 . S
C293 C295 1.433 . S
C294 C290 1.350 . S
C294 C291 1.463 . S
C294 N298 1.427 . S
C295 H285 0.929 . S
C295 C293 1.433 . S
C295 N298 1.384 . S
C296 H287 0.929 . S
C296 C288 1.378 . S
C296 C291 1.350 . S
C297 H284 0.929 . S
C297 C289 1.433 . S
C297 N299 1.384 . S
N298 C294 1.427 . S
N298 C295 1.384 . S
N299 C291 1.427 . S
N299 C297 1.384 . S
H300 C306 0.930 1_445 S
H301 C310 0.930 . S
H302 C315 0.929 . S
H303 C313 0.929 . S
H304 C308 0.929 . S
H305 C314 0.929 . S
C306 H300 0.930 1_665 S
C306 C307 1.367 . S
C306 C314 1.378 . S
C307 C306 1.367 . S
C307 C315 1.433 . S
C308 H304 0.929 . S
C308 C310 1.378 . S
C308 C312 1.350 . S
C309 C312 1.463 . S
C309 C314 1.350 . S
C309 N317 1.427 . S
C310 H301 0.930 . S
C310 C308 1.378 . S
C310 C311 1.367 . S
C311 C310 1.367 . S
C311 C313 1.433 . S
C312 C308 1.350 . S
C312 C309 1.463 . S
C312 N316 1.427 . S
C313 H303 0.929 . S
C313 C311 1.433 . S
C313 N316 1.384 . S
C314 H305 0.929 . S
C314 C306 1.378 . S
C314 C309 1.350 . S
C315 H302 0.929 . S
C315 C307 1.433 . S
C315 N317 1.384 . S
N316 C312 1.427 . S
N316 C313 1.384 . S
N317 C309 1.427 . S
N317 C315 1.384 . S
H318 C324 0.930 1_545 S
H319 C328 0.930 . S
H320 C333 0.929 . S
H321 C331 0.929 . S
H322 C326 0.929 . S
H323 C332 0.929 . S
C324 H318 0.930 1_565 S
C324 C325 1.367 . S
C324 C332 1.378 . S
C325 C324 1.367 . S
C325 C333 1.433 . S
C326 H322 0.929 . S
C326 C328 1.378 . S
C326 C330 1.350 . S
C327 C330 1.463 . S
C327 C332 1.350 . S
C327 N335 1.427 . S
C328 H319 0.930 . S
C328 C326 1.378 . S
C328 C329 1.367 . S
C329 C328 1.367 . S
C329 C331 1.433 . S
C330 C326 1.350 . S
C330 C327 1.463 . S
C330 N334 1.427 . S
C331 H321 0.929 . S
C331 C329 1.433 . S
C331 N334 1.384 . S
C332 H323 0.929 . S
C332 C324 1.378 . S
C332 C327 1.350 . S
C333 H320 0.929 . S
C333 C325 1.433 . S
C333 N335 1.384 . S
N334 C330 1.427 . S
N334 C331 1.384 . S
N335 C327 1.427 . S
N335 C333 1.384 . S
H336 C342 0.930 . S
H337 C346 0.930 . S
H338 C351 0.929 . S
H339 C349 0.929 . S
H340 C344 0.929 . S
H341 C350 0.929 . S
C342 H336 0.930 . S
C342 C343 1.367 . S
C342 C350 1.378 . S
C343 C342 1.367 . S
C343 C351 1.433 . S
C344 H340 0.929 . S
C344 C346 1.378 . S
C344 C348 1.350 . S
C345 C348 1.463 . S
C345 C350 1.350 . S
C345 N353 1.427 . S
C346 H337 0.930 . S
C346 C344 1.378 . S
C346 C347 1.367 . S
C347 C346 1.367 . S
C347 C349 1.433 . S
C348 C344 1.350 . S
C348 C345 1.463 . S
C348 N352 1.427 . S
C349 H339 0.929 . S
C349 C347 1.433 . S
C349 N352 1.384 . S
C350 H341 0.929 . S
C350 C342 1.378 . S
C350 C345 1.350 . S
C351 H338 0.929 . S
C351 C343 1.433 . S
C351 N353 1.384 . S
N352 C348 1.427 . S
N352 C349 1.384 . S
N353 C345 1.427 . S
N353 C351 1.384 . S
H354 C360 0.930 . S
H355 C364 0.930 . S
H356 C369 0.929 . S
H357 C367 0.929 . S
H358 C362 0.929 . S
H359 C368 0.929 . S
C360 H354 0.930 . S
C360 C361 1.367 . S
C360 C368 1.378 . S
C361 C360 1.367 . S
C361 C369 1.433 . S
C362 H358 0.929 . S
C362 C364 1.378 . S
C362 C366 1.350 . S
C363 C366 1.463 . S
C363 C368 1.350 . S
C363 N371 1.427 . S
C364 H355 0.930 . S
C364 C362 1.378 . S
C364 C365 1.367 . S
C365 C364 1.367 . S
C365 C367 1.433 . S
C366 C362 1.350 . S
C366 C363 1.463 . S
C366 N370 1.427 . S
C367 H357 0.929 . S
C367 C365 1.433 . S
C367 N370 1.384 . S
C368 H359 0.929 . S
C368 C360 1.378 . S
C368 C363 1.350 . S
C369 H356 0.929 . S
C369 C361 1.433 . S
C369 N371 1.384 . S
N370 C366 1.427 . S
N370 C367 1.384 . S
N371 C363 1.427 . S
N371 C369 1.384 . S
H372 C378 0.930 . S
H373 C382 0.930 . S
H374 C387 0.929 . S
H375 C385 0.929 . S
H376 C380 0.929 . S
H377 C386 0.929 . S
C378 H372 0.930 . S
C378 C379 1.367 . S
C378 C386 1.378 . S
C379 C378 1.367 . S
C379 C387 1.433 1_655 S
C380 H376 0.929 . S
C380 C382 1.378 . S
C380 C384 1.350 . S
C381 C384 1.463 . S
C381 C386 1.350 . S
C381 N389 1.427 . S
C382 H373 0.930 . S
C382 C380 1.378 . S
C382 C383 1.367 . S
C383 C382 1.367 . S
C383 C385 1.433 . S
C384 C380 1.350 . S
C384 C381 1.463 . S
C384 N388 1.427 . S
C385 H375 0.929 . S
C385 C383 1.433 . S
C385 N388 1.384 . S
C386 H377 0.929 . S
C386 C378 1.378 . S
C386 C381 1.350 . S
C387 H374 0.929 . S
C387 C379 1.433 1_455 S
C387 N389 1.384 1_455 S
N388 C384 1.427 . S
N388 C385 1.384 . S
N389 C381 1.427 . S
N389 C387 1.384 1_655 S
H390 C396 0.930 . S
H391 C400 0.930 . S
H392 C405 0.947 . S
H393 C403 0.929 . S
H394 C398 0.938 . S
H395 C404 0.929 . S
C396 H390 0.930 . S
C396 C397 1.367 . S
C396 C404 1.378 . S
C397 C396 1.367 . S
C397 C405 1.417 1_565 S
C398 H394 0.938 . S
C398 C400 1.378 . S
C398 C402 1.340 1_556 S
C399 C402 1.482 . S
C399 C404 1.350 . S
C399 N407 1.427 . S
C400 H391 0.930 . S
C400 C398 1.378 . S
C400 C401 1.367 . S
C401 C400 1.367 . S
C401 C403 1.433 . S
C402 C398 1.340 1_554 S
C402 C399 1.482 . S
C402 N406 1.419 1_554 S
C403 H393 0.929 . S
C403 C401 1.433 . S
C403 N406 1.384 . S
C404 H395 0.929 . S
C404 C396 1.378 . S
C404 C399 1.350 . S
C405 H392 0.947 . S
C405 C397 1.417 1_545 S
C405 N407 1.381 1_545 S
N406 C402 1.419 1_556 S
N406 C403 1.384 . S
N407 C399 1.427 . S
N407 C405 1.381 1_565 S
H408 C414 0.930 . S
H409 C418 0.930 . S
H410 C423 0.929 1_655 S
H411 C421 0.929 . S
H412 C416 0.929 . S
H413 C422 0.929 . S
C414 H408 0.930 . S
C414 C415 1.367 . S
C414 C422 1.378 . S
C415 C414 1.367 . S
C415 C423 1.433 . S
C416 H412 0.929 . S
C416 C418 1.378 . S
C416 C420 1.350 1_655 S
C417 C420 1.463 . S
C417 C422 1.350 . S
C417 N425 1.427 . S
C418 H409 0.930 . S
C418 C416 1.378 . S
C418 C419 1.367 1_655 S
C419 C418 1.367 1_455 S
C419 C421 1.433 . S
C420 C416 1.350 1_455 S
C420 C417 1.463 . S
C420 N424 1.427 . S
C421 H411 0.929 . S
C421 C419 1.433 . S
C421 N424 1.384 . S
C422 H413 0.929 . S
C422 C414 1.378 . S
C422 C417 1.350 . S
C423 H410 0.929 1_455 S
C423 C415 1.433 . S
C423 N425 1.384 . S
N424 C420 1.427 . S
N424 C421 1.384 . S
N425 C417 1.427 . S
N425 C423 1.384 . S
H426 C432 0.930 . S
H427 C436 0.930 . S
H428 C441 0.929 . S
H429 C439 0.929 . S
H430 C434 0.929 . S
H431 C440 0.929 . S
C432 H426 0.930 . S
C432 C433 1.367 . S
C432 C440 1.378 . S
C433 C432 1.367 . S
C433 C441 1.433 . S
C434 H430 0.929 . S
C434 C436 1.378 . S
C434 C438 1.350 . S
C435 C438 1.463 . S
C435 C440 1.350 . S
C435 N443 1.427 . S
C436 H427 0.930 . S
C436 C434 1.378 . S
C436 C437 1.367 . S
C437 C436 1.367 . S
C437 C439 1.433 . S
C438 C434 1.350 . S
C438 C435 1.463 . S
C438 N442 1.427 . S
C439 H429 0.929 . S
C439 C437 1.433 . S
C439 N442 1.384 . S
C440 H431 0.929 . S
C440 C432 1.378 . S
C440 C435 1.350 . S
C441 H428 0.929 . S
C441 C433 1.433 . S
C441 N443 1.384 . S
N442 C438 1.427 . S
N442 C439 1.384 . S
N443 C435 1.427 . S
N443 C441 1.384 . S
H444 C450 0.930 . S
H445 C454 0.930 . S
H446 C459 0.929 . S
H447 C457 0.929 . S
H448 C452 0.929 . S
H449 C458 0.929 . S
C450 H444 0.930 . S
C450 C451 1.367 . S
C450 C458 1.378 . S
C451 C450 1.367 . S
C451 C459 1.433 . S
C452 H448 0.929 . S
C452 C454 1.378 . S
C452 C456 1.350 . S
C453 C456 1.463 . S
C453 C458 1.350 . S
C453 N461 1.427 . S
C454 H445 0.930 . S
C454 C452 1.378 . S
C454 C455 1.367 1_554 S
C455 C454 1.367 1_556 S
C455 C457 1.433 . S
C456 C452 1.350 . S
C456 C453 1.463 . S
C456 N460 1.427 . S
C457 H447 0.929 . S
C457 C455 1.433 . S
C457 N460 1.384 1_556 S
C458 H449 0.929 . S
C458 C450 1.378 . S
C458 C453 1.350 . S
C459 H446 0.929 . S
C459 C451 1.433 . S
C459 N461 1.384 . S
N460 C456 1.427 . S
N460 C457 1.384 1_554 S
N461 C453 1.427 . S
N461 C459 1.384 . S
H462 C468 0.930 1_655 S
H463 C472 0.930 . S
H464 C477 0.929 . S
H465 C475 0.929 1_655 S
H466 C470 0.929 . S
H467 C476 0.929 1_655 S
C468 H462 0.930 1_455 S
C468 C469 1.367 . S
C468 C476 1.378 . S
C469 C468 1.367 . S
C469 C477 1.433 . S
C470 H466 0.929 . S
C470 C472 1.378 . S
C470 C474 1.350 . S
C471 C474 1.463 . S
C471 C476 1.350 . S
C471 N479 1.427 . S
C472 H463 0.930 . S
C472 C470 1.378 . S
C472 C473 1.367 . S
C473 C472 1.367 . S
C473 C475 1.433 . S
C474 C470 1.350 . S
C474 C471 1.463 . S
C474 N478 1.427 . S
C475 H465 0.929 1_455 S
C475 C473 1.433 . S
C475 N478 1.384 . S
C476 H467 0.929 1_455 S
C476 C468 1.378 . S
C476 C471 1.350 . S
C477 H464 0.929 . S
C477 C469 1.433 . S
C477 N479 1.384 . S
N478 C474 1.427 . S
N478 C475 1.384 . S
N479 C471 1.427 . S
N479 C477 1.384 . S
C275 C81 1.467 . S
C271 C3 1.548 . S
C289 C21 1.460 . S
C293 C155 1.417 . S
C307 C37 2.099 1_665 S
C311 C259 2.124 . S
C325 C8 0.848 1_565 S
C329 C93 0.850 . S
C347 C167 0.820 . S
C343 C23 0.828 . S
C361 C35 1.577 . S
C365 C253 1.484 . S
C383 C185 2.124 . S
C379 C31 2.125 1_655 S
C397 C7 1.513 1_665 S
C401 C229 1.472 . S
C419 C105 1.503 . S
C415 C17 1.619 . S
C437 C179 1.407 . S
C433 C36 1.506 . S
C455 C241 0.846 . S
C451 C9 0.842 . S
C469 C22 2.155 . S
C473 C111 2.156 . S
