# Generated by pormake.
# Topology anh, (6,3)-cn, num edge types: 1
# Building blocks:
#     Node 0, Type 0, BuildingBlock: BETDAH_clean_sbu_0, # of connection points: 6
#     Node 1, Type 0, BuildingBlock: BETDAH_clean_sbu_0, # of connection points: 6
#     Node 2, Type 0, BuildingBlock: BETDAH_clean_sbu_0, # of connection points: 6
#     Node 3, Type 1, BuildingBlock: ESEHIV_clean_linker_0, # of connection points: 3
#     Node 4, Type 1, BuildingBlock: ESEHIV_clean_linker_0, # of connection points: 3
#     Node 5, Type 1, BuildingBlock: ESEHIV_clean_linker_0, # of connection points: 3
#     Node 6, Type 1, BuildingBlock: ESEHIV_clean_linker_0, # of connection points: 3
#     Node 7, Type 1, BuildingBlock: ESEHIV_clean_linker_0, # of connection points: 3
#     Node 8, Type 1, BuildingBlock: ESEHIV_clean_linker_0, # of connection points: 3
#     Edge 9, Type (0, 1), BuildingBlock: MIFKUJ_clean_linker_0, # of connection points: 2
#     Edge 10, Type (0, 1), BuildingBlock: MIFKUJ_clean_linker_0, # of connection points: 2
#     Edge 11, Type (0, 1), BuildingBlock: MIFKUJ_clean_linker_0, # of connection points: 2
#     Edge 12, Type (0, 1), BuildingBlock: MIFKUJ_clean_linker_0, # of connection points: 2
#     Edge 13, Type (0, 1), BuildingBlock: MIFKUJ_clean_linker_0, # of connection points: 2
#     Edge 14, Type (0, 1), BuildingBlock: MIFKUJ_clean_linker_0, # of connection points: 2
#     Edge 15, Type (0, 1), BuildingBlock: MIFKUJ_clean_linker_0, # of connection points: 2
#     Edge 16, Type (0, 1), BuildingBlock: MIFKUJ_clean_linker_0, # of connection points: 2
#     Edge 17, Type (0, 1), BuildingBlock: MIFKUJ_clean_linker_0, # of connection points: 2
#     Edge 18, Type (0, 1), BuildingBlock: MIFKUJ_clean_linker_0, # of connection points: 2
#     Edge 19, Type (0, 1), BuildingBlock: MIFKUJ_clean_linker_0, # of connection points: 2
#     Edge 20, Type (0, 1), BuildingBlock: MIFKUJ_clean_linker_0, # of connection points: 2
#     Edge 21, Type (0, 1), BuildingBlock: MIFKUJ_clean_linker_0, # of connection points: 2
#     Edge 22, Type (0, 1), BuildingBlock: MIFKUJ_clean_linker_0, # of connection points: 2
#     Edge 23, Type (0, 1), BuildingBlock: MIFKUJ_clean_linker_0, # of connection points: 2
#     Edge 24, Type (0, 1), BuildingBlock: MIFKUJ_clean_linker_0, # of connection points: 2
#     Edge 25, Type (0, 1), BuildingBlock: MIFKUJ_clean_linker_0, # of connection points: 2
#     Edge 26, Type (0, 1), BuildingBlock: MIFKUJ_clean_linker_0, # of connection points: 2
# Relax obj value: 0.181
# Max RMSD: 0.210
# Mean RMSD: 0.156
data_MOF--net-anh--node1-BETDAH_clean_sbu_0--node2-ESEHIV_clean_linker_0--edge1-MIFKUJ_clean_linker_0
_symmetry_space_group_name_H-M    P1
_symmetry_Int_Tables_number       1
_symmetry_cell_setting            triclinic
loop_
_symmetry_equiv_pos_as_xyz
'x, y, z'
_cell_length_a     37.736995
_cell_length_b     44.253944
_cell_length_c     68.334942
_cell_angle_alpha  93.018821
_cell_angle_beta   89.468872
_cell_angle_gamma 128.41298
loop_
_atom_site_label
_atom_site_type_symbol
_atom_site_fract_x
_atom_site_fract_y
_atom_site_fract_z
_atom_type_partial_charge
Ho0 Ho 0.09624 0.49094 0.15366 0.0
Ho1 Ho 0.05449 0.52819 0.15631 0.0
C2 C 0.15996 0.58531 0.15686 0.0
C3 C 0.15234 0.47865 0.14808 0.0
C4 C 0.19939 0.50958 0.15422 0.0
C5 C 0.2236 0.54558 0.14575 0.0
C6 C 0.26653 0.5764 0.15294 0.0
C7 C 0.28756 0.56994 0.16699 0.0
C8 C 0.26057 0.53708 0.17801 0.0
C9 C 0.21706 0.50648 0.17124 0.0
C10 C 0.07167 0.49497 0.18999 0.0
C11 C 0.99012 0.43518 0.15219 0.0
C12 C 1.02216 0.55835 0.17358 0.0
C13 C 0.97444 0.53655 0.17772 0.0
C14 C 0.95498 0.50885 0.19203 0.0
C15 C 0.90913 0.47748 0.1907 0.0
C16 C 0.88294 0.47358 0.17499 0.0
C17 C 0.90186 0.50284 0.16172 0.0
C18 C 0.94681 0.53462 0.16341 0.0
C19 C 0.05931 0.51711 0.11713 0.0
O20 O 0.1576 0.55465 0.15927 0.0
O21 O 0.12352 0.58167 0.15351 0.0
O22 O 0.1246 0.4637 0.16258 0.0
O23 O 0.13686 0.4858 0.13344 0.0
O24 O 0.06372 0.46409 0.18188 0.0
O25 O 0.09154 0.5218 0.17817 0.0
O26 O 0.99391 0.46548 0.1594 0.0
O27 O 1.02542 0.43892 0.1454 0.0
O28 O 1.03101 0.56154 0.15491 0.0
O29 O 1.04298 0.54845 0.18312 0.0
O30 O 1.04007 0.53074 0.12493 0.0
O31 O 0.07292 0.50747 0.13057 0.0
H32 H 0.20985 0.54998 0.13337 0.0
H33 H 0.28623 0.60236 0.14486 0.0
H34 H 0.2752 0.53207 0.18972 0.0
H35 H 0.19783 0.48005 0.17894 0.0
H36 H 0.97558 0.50996 0.20343 0.0
H37 H 0.89432 0.4561 0.20162 0.0
H38 H 0.88168 0.50114 0.14998 0.0
H39 H 0.96077 0.55572 0.15235 0.0
Ho40 Ho 0.58898 1.00024 0.47535 0.0
Ho41 Ho 0.53242 0.02487 0.47234 0.0
C42 C 0.47867 0.93548 0.4698 0.0
C43 C 0.61934 0.96369 0.48353 0.0
C44 C 0.60018 0.92254 0.48222 0.0
C45 C 0.57456 0.89839 0.49748 0.0
C46 C 0.55995 0.8606 0.49695 0.0
C47 C 0.57089 0.84624 0.48123 0.0
C48 C 0.59438 0.86964 0.46549 0.0
C49 C 0.60897 0.90743 0.466 0.0
C50 C 0.57895 0.0143 0.4388 0.0
C51 C 0.64246 0.08928 0.47592 0.0
C52 C 0.50277 0.06225 0.46477 0.0
C53 C 0.52201 0.10323 0.4679 0.0
C54 C 0.53284 0.1256 0.45171 0.0
C55 C 0.54912 0.16386 0.45445 0.0
C56 C 0.55523 0.18044 0.47343 0.0
C57 C 0.546 0.15863 0.48964 0.0
C58 C 0.5294 0.12035 0.48692 0.0
C59 C 0.54214 0.01057 0.50904 0.0
O60 O 0.5173 0.94398 0.47589 0.0
O61 O 0.47637 0.96256 0.4647 0.0
O62 O 0.62657 0.97988 0.46695 0.0
O63 O 0.60261 0.97397 0.49664 0.0
O64 O 0.61673 0.02432 0.44604 0.0
O65 O 0.54793 0.99625 0.45095 0.0
O66 O 0.60378 0.07992 0.4694 0.0
O67 O 0.64491 0.06311 0.48247 0.0
O68 O 0.49231 0.04281 0.48042 0.0
O69 O 0.52228 0.05467 0.45175 0.0
O70 O 0.50499 1.00156 0.50171 0.0
O71 O 0.57329 0.02854 0.49691 0.0
H72 H 0.56702 0.90902 0.51018 0.0
H73 H 0.54228 0.8434 0.50939 0.0
H74 H 0.60278 0.85913 0.45307 0.0
H75 H 0.6283 0.92516 0.45394 0.0
H76 H 0.5279 0.11325 0.43692 0.0
H77 H 0.55618 0.18031 0.44177 0.0
H78 H 0.54992 0.17074 0.50441 0.0
H79 H 0.52165 0.10406 0.49975 0.0
Ho80 Ho 0.63117 0.57598 0.82214 0.0
Ho81 Ho 0.57043 0.49008 0.82553 0.0
C82 C 0.52021 0.52856 0.82932 0.0
C83 C 0.665 0.64452 0.81282 0.0
C84 C 0.64723 0.66634 0.81369 0.0
C85 C 0.61215 0.65633 0.80083 0.0
C86 C 0.59704 0.67818 0.80128 0.0
C87 C 0.61667 0.71047 0.81455 0.0
C88 C 0.64983 0.71916 0.82819 0.0
C89 C 0.66512 0.69735 0.82771 0.0
C90 C 0.6217 0.55361 0.8581 0.0
C91 C 0.6826 0.53871 0.82583 0.0
C92 C 0.53651 0.42111 0.83449 0.0
C93 C 0.54801 0.39517 0.82968 0.0
C94 C 0.56462 0.38564 0.84447 0.0
C95 C 0.57417 0.36012 0.84022 0.0
C96 C 0.56684 0.3434 0.82115 0.0
C97 C 0.55169 0.35396 0.80626 0.0
C98 C 0.54241 0.37957 0.81045 0.0
C99 C 0.57926 0.51216 0.78867 0.0
O100 O 0.55954 0.56022 0.8234 0.0
O101 O 0.51732 0.49802 0.83349 0.0
O102 O 0.67297 0.6372 0.82977 0.0
O103 O 0.64606 0.61509 0.7999 0.0
O104 O 0.65932 0.58443 0.85225 0.0
O105 O 0.59065 0.53832 0.8453 0.0
O106 O 0.64122 0.50563 0.82783 0.0
O107 O 0.68782 0.57041 0.82171 0.0
O108 O 0.52052 0.42834 0.82013 0.0
O109 O 0.56566 0.45186 0.84587 0.0
O110 O 0.5424 0.48202 0.79542 0.0
O111 O 0.61109 0.52789 0.80137 0.0
H112 H 0.59694 0.63214 0.79012 0.0
H113 H 0.57095 0.67059 0.79077 0.0
H114 H 0.66562 0.74399 0.83853 0.0
H115 H 0.69174 0.70533 0.83799 0.0
H116 H 0.56953 0.39746 0.85938 0.0
H117 H 0.58568 0.35239 0.852 0.0
H118 H 0.54646 0.34199 0.79135 0.0
H119 H 0.53031 0.38668 0.79863 0.0
H120 H 0.50003 0.95961 0.22316 0.0
H121 H 0.61964 0.07769 0.22951 0.0
H122 H 0.57919 0.01589 0.17288 0.0
C123 C 0.52929 0.98535 0.21699 0.0
C124 C 0.53609 0.98409 0.19689 0.0
C125 C 0.56017 0.01845 0.22913 0.0
C126 C 0.59642 0.05173 0.22036 0.0
C127 C 0.60413 0.05181 0.2001 0.0
C128 C 0.57343 0.01735 0.18834 0.0
H129 H 0.5747 0.5737 0.57827 0.0
H130 H 0.58264 0.4808 0.57688 0.0
H131 H 0.57213 0.52122 0.52292 0.0
C132 C 0.57554 0.55252 0.57004 0.0
C133 C 0.57275 0.55003 0.5495 0.0
C134 C 0.57911 0.52757 0.57996 0.0
C135 C 0.57994 0.50016 0.56921 0.0
C136 C 0.57762 0.49781 0.54861 0.0
C137 C 0.57388 0.52279 0.53882 0.0
H138 H 1.03881 0.52808 0.90159 0.0
H139 H 0.1497 0.52488 0.9022 0.0
H140 H 0.10409 0.53689 0.84733 0.0
C141 C 0.06464 0.52929 0.89367 0.0
C142 C 0.06646 0.53265 0.87315 0.0
C143 C 0.09444 0.52661 0.90421 0.0
C144 C 0.12738 0.5273 0.8939 0.0
C145 C 0.13314 0.53183 0.87347 0.0
C146 C 0.1011 0.53352 0.86297 0.0
H147 H 0.98541 0.45939 0.4009 0.0
H148 H 0.11566 0.57049 0.4056 0.0
H149 H 0.05534 0.50759 0.45729 0.0
C150 C 1.0148 0.48171 0.40987 0.0
C151 C 1.01629 0.47737 0.43011 0.0
C152 C 1.05105 0.51421 0.4007 0.0
C153 C 0.08734 0.54502 0.41237 0.0
C154 C 0.08807 0.54334 0.43279 0.0
C155 C 0.05299 0.5093 0.44168 0.0
H156 H 0.56304 0.05447 0.72126 0.0
H157 H 0.55644 0.95438 0.71923 0.0
H158 H 0.57483 0.01458 0.77486 0.0
C159 C 0.56313 0.03365 0.72891 0.0
C160 C 0.56762 0.03689 0.74942 0.0
C161 C 0.56054 0.00455 0.71814 0.0
C162 C 0.56045 0.97752 0.72793 0.0
C163 C 0.56551 0.98042 0.74854 0.0
C164 C 0.56973 0.01081 0.7591 0.0
H165 H 0.47635 0.45334 0.05711 0.0
H166 H 0.6031 0.47405 0.05546 0.0
H167 H 0.51692 0.41874 0.10393 0.0
C168 C 0.49862 0.44829 0.06317 0.0
C169 C 0.49259 0.43534 0.08204 0.0
C170 C 0.53784 0.4611 0.05336 0.0
C171 C 0.57068 0.46079 0.06218 0.0
C172 C 0.56249 0.44529 0.08032 0.0
C173 C 0.52135 0.42858 0.08922 0.0
H174 H 0.31441 0.56675 0.13079 0.0
H175 H 0.35663 0.54348 0.12494 0.0
H176 H 0.40298 0.57075 0.18542 0.0
H177 H 0.35799 0.59296 0.19203 0.0
H178 H 0.46392 0.59191 0.14584 0.0
H179 H 0.33664 0.48371 0.18332 0.0
H180 H 0.25853 0.42885 0.19143 0.0
H181 H 0.2284 0.38743 0.13095 0.0
H182 H 0.30578 0.44211 0.12247 0.0
H183 H 0.53002 0.47549 0.11703 0.0
H184 H 0.50924 0.50975 0.13581 0.0
H185 H 0.39257 0.45855 0.09731 0.0
H186 H 0.41249 0.42285 0.07836 0.0
H187 H 0.37567 0.45015 0.13579 0.0
H188 H 0.47906 0.54698 0.09322 0.0
H189 H 0.54797 0.5972 0.07639 0.0
H190 H 0.61035 0.6612 0.13134 0.0
H191 H 0.54246 0.61073 0.14865 0.0
C192 C 0.33501 0.56976 0.14286 0.0
C193 C 0.33173 0.58059 0.16216 0.0
C194 C 0.35798 0.55523 0.1395 0.0
C195 C 0.38005 0.5535 0.15509 0.0
C196 C 0.38387 0.57049 0.17359 0.0
C197 C 0.35964 0.58428 0.17715 0.0
C198 C 0.40153 0.53612 0.15093 0.0
C199 C 0.44556 0.56091 0.14416 0.0
C200 C 0.3754 0.49569 0.14763 0.0
C201 C 0.32692 0.46739 0.15229 0.0
C202 C 0.31297 0.46355 0.17171 0.0
C203 C 0.26889 0.43224 0.17637 0.0
C204 C 0.23851 0.40474 0.16172 0.0
C205 C 0.25181 0.40879 0.14229 0.0
C206 C 0.29568 0.44 0.13756 0.0
C207 C 0.49913 0.47039 0.11276 0.0
C208 C 0.47248 0.44615 0.09621 0.0
C209 C 0.48828 0.49098 0.12323 0.0
C210 C 0.4506 0.48736 0.1174 0.0
C211 C 0.42253 0.46196 0.10157 0.0
C212 C 0.43328 0.44116 0.09106 0.0
C213 C 0.43671 0.50591 0.12946 0.0
C214 C 0.39479 0.48124 0.13793 0.0
C215 C 0.46309 0.54638 0.13256 0.0
C216 C 0.50588 0.57434 0.12236 0.0
C217 C 0.50791 0.57104 0.10185 0.0
C218 C 0.54675 0.59978 0.09217 0.0
C219 C 0.58363 0.63224 0.1028 0.0
C220 C 0.58192 0.6359 0.12314 0.0
C221 C 0.54336 0.60712 0.13289 0.0
H222 H 0.61343 0.65467 0.09526 0.0
H223 H 0.20472 0.38022 0.16544 0.0
H224 H 0.66772 0.13015 0.44372 0.0
H225 H 0.73469 0.1971 0.43983 0.0
H226 H 0.77622 0.20637 0.49986 0.0
H227 H 0.70958 0.13847 0.50359 0.0
H228 H 0.77667 0.27142 0.48483 0.0
H229 H 0.82966 0.19623 0.46944 0.0
H230 H 0.82294 0.14321 0.45118 0.0
H231 H 0.82966 0.19045 0.3967 0.0
H232 H 0.83564 0.24337 0.41462 0.0
H233 H 0.98504 0.45928 0.46842 0.0
H234 H 0.92741 0.39534 0.48045 0.0
H235 H 0.90552 0.34423 0.4218 0.0
H236 H 0.96706 0.40555 0.41065 0.0
H237 H 0.89812 0.29901 0.44123 0.0
H238 H 0.83437 0.36506 0.45019 0.0
H239 H 0.82884 0.41496 0.4633 0.0
H240 H 0.8275 0.38397 0.52196 0.0
H241 H 0.83388 0.33437 0.50922 0.0
C242 C 0.69125 0.14647 0.45606 0.0
C243 C 0.68381 0.12929 0.47392 0.0
C244 C 0.72936 0.18466 0.45384 0.0
C245 C 0.76029 0.20671 0.46957 0.0
C246 C 0.75266 0.1898 0.48756 0.0
C247 C 0.71495 0.15108 0.48964 0.0
C248 C 0.80117 0.24701 0.46683 0.0
C249 C 0.80375 0.27778 0.47552 0.0
C250 C 0.83533 0.255 0.45408 0.0
C251 C 0.83288 0.22365 0.44339 0.0
C252 C 0.82945 0.19519 0.45357 0.0
C253 C 0.82579 0.16516 0.44328 0.0
C254 C 0.82582 0.16344 0.4228 0.0
C255 C 0.82964 0.19181 0.41256 0.0
C256 C 0.83323 0.22184 0.42279 0.0
C257 C 0.96862 0.4344 0.45813 0.0
C258 C 0.98058 0.43867 0.43826 0.0
C259 C 0.93475 0.39762 0.46501 0.0
C260 C 0.9107 0.36436 0.45205 0.0
C261 C 0.92297 0.36882 0.43235 0.0
C262 C 0.95794 0.40482 0.42576 0.0
C263 C 0.87349 0.32458 0.45848 0.0
C264 C 0.87153 0.29346 0.4506 0.0
C265 C 0.83863 0.31633 0.4711 0.0
C266 C 0.83537 0.34645 0.47877 0.0
C267 C 0.83338 0.36917 0.4659 0.0
C268 C 0.83003 0.39736 0.47326 0.0
C269 C 0.82802 0.40275 0.49346 0.0
C270 C 0.82926 0.37989 0.50633 0.0
C271 C 0.8328 0.35177 0.49905 0.0
H272 H 0.82536 0.42455 0.49913 0.0
H273 H 0.82294 0.14015 0.41486 0.0
H274 H 0.59873 0.74549 0.84306 0.0
H275 H 0.58901 0.79485 0.83827 0.0
H276 H 0.60484 0.7865 0.77607 0.0
H277 H 0.61488 0.73818 0.78071 0.0
H278 H 0.66059 0.86121 0.79229 0.0
H279 H 0.50317 0.74467 0.7941 0.0
H280 H 0.43744 0.68878 0.81015 0.0
H281 H 0.44736 0.76484 0.85552 0.0
H282 H 0.5136 0.82118 0.83986 0.0
H283 H 0.59503 0.94022 0.73425 0.0
H284 H 0.59837 0.89521 0.75064 0.0
H285 H 0.55177 0.91576 0.80372 0.0
H286 H 0.54125 0.95659 0.7865 0.0
H287 H 0.51869 0.8443 0.80117 0.0
H288 H 0.67042 0.9621 0.79526 0.0
H289 H 0.7326 0.01619 0.77691 0.0
H290 H 0.73271 0.93652 0.73828 0.0
H291 H 0.67032 0.88198 0.75627 0.0
C292 C 0.5998 0.75417 0.8284 0.0
C293 C 0.60714 0.73784 0.81221 0.0
C294 C 0.59416 0.78216 0.82569 0.0
C295 C 0.59633 0.79424 0.80682 0.0
C296 C 0.60312 0.77756 0.79075 0.0
C297 C 0.60839 0.74966 0.79339 0.0
C298 C 0.59316 0.82511 0.80329 0.0
C299 C 0.62969 0.85772 0.79434 0.0
C300 C 0.55335 0.82097 0.80655 0.0
C301 C 0.5137 0.78708 0.81597 0.0
C302 C 0.49164 0.74945 0.80761 0.0
C303 C 0.45423 0.71769 0.81661 0.0
C304 C 0.43834 0.72324 0.83388 0.0
C305 C 0.45978 0.76057 0.84217 0.0
C306 C 0.49725 0.79242 0.83324 0.0
C307 C 0.58389 0.93457 0.74918 0.0
C308 C 0.56796 0.95274 0.75887 0.0
C309 C 0.58704 0.90933 0.75877 0.0
C310 C 0.57727 0.90335 0.77869 0.0
C311 C 0.56036 0.92049 0.78842 0.0
C312 C 0.55518 0.94451 0.77856 0.0
C313 C 0.58539 0.87949 0.78916 0.0
C314 C 0.55012 0.84854 0.79961 0.0
C315 C 0.62645 0.88499 0.78725 0.0
C316 C 0.66576 0.91799 0.77715 0.0
C317 C 0.68386 0.95616 0.78291 0.0
C318 C 0.71905 0.98688 0.77253 0.0
C319 C 0.7366 0.97979 0.75645 0.0
C320 C 0.71919 0.94199 0.75077 0.0
C321 C 0.68403 0.91118 0.7611 0.0
H322 H 0.76368 0.0036 0.74838 0.0
H323 H 0.40931 0.69862 0.8408 0.0
H324 H 0.82898 0.41996 0.14529 0.0
H325 H 0.77176 0.4244 0.1333 0.0
H326 H 0.77231 0.47148 0.19042 0.0
H327 H 0.82658 0.46422 0.20256 0.0
H328 H 0.69756 0.43842 0.1741 0.0
H329 H 0.85206 0.54527 0.14762 0.0
H330 H 0.92028 0.57391 0.12787 0.0
H331 H 0.83879 0.49179 0.07993 0.0
H332 H 0.77039 0.46274 0.09944 0.0
H333 H 0.60475 0.50381 0.10769 0.0
H334 H 0.66082 0.51777 0.1324 0.0
H335 H 0.66049 0.42768 0.10446 0.0
H336 H 0.60341 0.41287 0.08025 0.0
H337 H 0.74859 0.51052 0.11358 0.0
H338 H 0.59843 0.39939 0.13731 0.0
H339 H 0.52512 0.36961 0.15279 0.0
H340 H 0.5922 0.45298 0.20171 0.0
H341 H 0.6659 0.48375 0.18625 0.0
C342 C 0.81393 0.42817 0.15562 0.0
C343 C 0.83401 0.44461 0.17432 0.0
C344 C 0.78301 0.43245 0.14855 0.0
C345 C 0.77148 0.45158 0.1606 0.0
C346 C 0.78275 0.45836 0.18068 0.0
C347 C 0.81269 0.45305 0.18778 0.0
C348 C 0.74902 0.46558 0.15233 0.0
C349 C 0.70932 0.45488 0.16109 0.0
C350 C 0.76479 0.48768 0.13553 0.0
C351 C 0.8065 0.50106 0.12524 0.0
C352 C 0.84896 0.53281 0.13305 0.0
C353 C 0.88757 0.54932 0.12183 0.0
C354 C 0.88394 0.53444 0.10273 0.0
C355 C 0.84172 0.50297 0.09481 0.0
C356 C 0.80312 0.48639 0.10597 0.0
C357 C 0.61695 0.48717 0.10703 0.0
C358 C 0.6002 0.45699 0.09263 0.0
C359 C 0.64845 0.49509 0.121 0.0
C360 C 0.66333 0.47313 0.12015 0.0
C361 C 0.64828 0.44434 0.10515 0.0
C362 C 0.6164 0.4361 0.09139 0.0
C363 C 0.69589 0.47999 0.13432 0.0
C364 C 0.73836 0.49567 0.12715 0.0
C365 C 0.6819 0.46122 0.15199 0.0
C366 C 0.63738 0.44458 0.16036 0.0
C367 C 0.59741 0.41201 0.1511 0.0
C368 C 0.55583 0.39476 0.15994 0.0
C369 C 0.55394 0.40958 0.17814 0.0
C370 C 0.59365 0.44173 0.18753 0.0
C371 C 0.63528 0.45917 0.1787 0.0
H372 H 0.52175 0.39599 0.18504 0.0
H373 H 0.91379 0.54748 0.09402 0.0
H374 H 0.39079 0.90567 0.47546 0.0
H375 H 0.32348 0.83718 0.47321 0.0
H376 H 0.40736 0.80485 0.45772 0.0
H377 H 0.47469 0.87292 0.46058 0.0
H378 H 0.32843 0.77196 0.43219 0.0
H379 H 0.37161 0.7862 0.49985 0.0
H380 H 0.3918 0.81557 0.53361 0.0
H381 H 0.26251 0.79062 0.53826 0.0
H382 H 0.24176 0.76151 0.50439 0.0
H383 H 0.17556 0.57161 0.43237 0.0
H384 H 0.24185 0.63752 0.44244 0.0
H385 H 0.15458 0.66074 0.46685 0.0
H386 H 0.08809 0.59428 0.45704 0.0
H387 H 0.23393 0.69937 0.48847 0.0
H388 H 0.19028 0.68336 0.42061 0.0
H389 H 0.17144 0.65495 0.38665 0.0
H390 H 0.30322 0.68477 0.38194 0.0
H391 H 0.32258 0.71276 0.41599 0.0
C392 C 0.39474 0.88388 0.47159 0.0
C393 C 0.43784 0.89451 0.46816 0.0
C394 C 0.35641 0.84485 0.47042 0.0
C395 C 0.36054 0.81601 0.46537 0.0
C396 C 0.40351 0.82668 0.46171 0.0
C397 C 0.44189 0.86551 0.46337 0.0
C398 C 0.31998 0.77474 0.46322 0.0
C399 C 0.30804 0.75592 0.44451 0.0
C400 C 0.29286 0.75423 0.47925 0.0
C401 C 0.30536 0.77213 0.4995 0.0
C402 C 0.34768 0.78739 0.50799 0.0
C403 C 0.35918 0.80387 0.52716 0.0
C404 C 0.32852 0.80507 0.53805 0.0
C405 C 0.28626 0.78973 0.52979 0.0
C406 C 0.2746 0.77321 0.51061 0.0
C407 C 0.17072 0.59037 0.44056 0.0
C408 C 0.12688 0.57791 0.44408 0.0
C409 C 0.20851 0.62815 0.4461 0.0
C410 C 0.20317 0.65442 0.45496 0.0
C411 C 0.15954 0.64108 0.45993 0.0
C412 C 0.1216 0.60306 0.45448 0.0
C413 C 0.24258 0.69628 0.45741 0.0
C414 C 0.25421 0.71534 0.47611 0.0
C415 C 0.26955 0.71716 0.44134 0.0
C416 C 0.2577 0.6998 0.42093 0.0
C417 C 0.21508 0.68351 0.4124 0.0
C418 C 0.20433 0.66755 0.39312 0.0
C419 C 0.23608 0.66799 0.38216 0.0
C420 C 0.27864 0.68439 0.39045 0.0
C421 C 0.28951 0.7003 0.40974 0.0
H422 H 0.22774 0.65571 0.36722 0.0
H423 H 0.33745 0.81779 0.55291 0.0
H424 H 0.63639 0.34307 0.83241 0.0
H425 H 0.64274 0.29157 0.82529 0.0
H426 H 0.5146 0.2241 0.79338 0.0
H427 H 0.50779 0.27474 0.80068 0.0
H428 H 0.51911 0.18028 0.81711 0.0
H429 H 0.61352 0.27499 0.76984 0.0
H430 H 0.67668 0.33896 0.75873 0.0
H431 H 0.77164 0.33416 0.78952 0.0
H432 H 0.7089 0.27031 0.80102 0.0
H433 H 0.51099 0.05483 0.74651 0.0
H434 H 0.51666 0.10721 0.76428 0.0
H435 H 0.63648 0.14129 0.79541 0.0
H436 H 0.63083 0.08861 0.77763 0.0
H437 H 0.64466 0.20288 0.77836 0.0
H438 H 0.54661 0.10138 0.82109 0.0
H439 H 0.48119 0.0354 0.82884 0.0
H440 H 0.39078 0.05175 0.80363 0.0
H441 H 0.4557 0.1177 0.79554 0.0
C442 C 0.60957 0.31711 0.82397 0.0
C443 C 0.57176 0.31299 0.81695 0.0
C444 C 0.61331 0.28786 0.81984 0.0
C445 C 0.57918 0.25408 0.80875 0.0
C446 C 0.54128 0.24988 0.80199 0.0
C447 C 0.53765 0.27901 0.806 0.0
C448 C 0.58248 0.22294 0.80376 0.0
C449 C 0.54662 0.18526 0.80866 0.0
C450 C 0.61888 0.22955 0.79314 0.0
C451 C 0.65651 0.26819 0.78655 0.0
C452 C 0.64783 0.28779 0.77443 0.0
C453 C 0.68356 0.32397 0.76802 0.0
C454 C 0.72814 0.34069 0.77348 0.0
C455 C 0.73708 0.32123 0.78535 0.0
C456 C 0.70146 0.28506 0.79182 0.0
C457 C 0.53847 0.07347 0.75717 0.0
C458 C 0.57054 0.06786 0.76069 0.0
C459 C 0.54152 0.10315 0.76738 0.0
C460 C 0.57682 0.12787 0.78122 0.0
C461 C 0.60893 0.12235 0.78483 0.0
C462 C 0.60556 0.09228 0.77475 0.0
C463 C 0.5807 0.16029 0.79123 0.0
C464 C 0.61784 0.19813 0.78728 0.0
C465 C 0.54523 0.15382 0.8025 0.0
C466 C 0.50604 0.11443 0.80765 0.0
C467 C 0.51279 0.09084 0.81712 0.0
C468 C 0.47579 0.05346 0.82159 0.0
C469 C 0.43186 0.03938 0.81672 0.0
C470 C 0.42483 0.06271 0.80742 0.0
C471 C 0.4617 0.10013 0.80293 0.0
H472 H 0.40327 0.01041 0.82016 0.0
H473 H 0.75576 0.36866 0.76846 0.0
H474 H 0.63027 0.83224 0.47315 0.0
H475 H 0.62341 0.77572 0.48056 0.0
H476 H 0.48765 0.71995 0.50011 0.0
H477 H 0.49477 0.77722 0.49303 0.0
H478 H 0.53549 0.71817 0.52682 0.0
H479 H 0.51077 0.68531 0.45703 0.0
H480 H 0.52759 0.69757 0.42205 0.0
H481 H 0.65822 0.72714 0.43213 0.0
H482 H 0.64223 0.71517 0.46716 0.0
H483 H 0.49957 0.54768 0.54795 0.0
H484 H 0.49291 0.59237 0.53202 0.0
H485 H 0.63026 0.65579 0.51279 0.0
H486 H 0.63607 0.60992 0.52807 0.0
H487 H 0.57731 0.65038 0.48479 0.0
H488 H 0.60658 0.68799 0.55355 0.0
H489 H 0.5929 0.67541 0.58864 0.0
H490 H 0.45874 0.63979 0.58096 0.0
H491 H 0.47148 0.65179 0.54576 0.0
C492 C 0.59843 0.80753 0.47847 0.0
C493 C 0.56307 0.80919 0.48253 0.0
C494 C 0.59451 0.77512 0.48269 0.0
C495 C 0.55486 0.74337 0.49073 0.0
C496 C 0.51859 0.74415 0.49392 0.0
C497 C 0.52267 0.77682 0.48988 0.0
C498 C 0.55333 0.71143 0.49772 0.0
C499 C 0.54361 0.70275 0.51747 0.0
C500 C 0.56572 0.69236 0.48579 0.0
C501 C 0.57536 0.69951 0.46472 0.0
C502 C 0.54315 0.6946 0.45179 0.0
C503 C 0.55251 0.70142 0.43195 0.0
C504 C 0.59397 0.71317 0.42488 0.0
C505 C 0.62611 0.718 0.43762 0.0
C506 C 0.61686 0.71108 0.45745 0.0
C507 C 0.52805 0.57105 0.54016 0.0
C508 C 0.56837 0.57589 0.53924 0.0
C509 C 0.52435 0.59653 0.53113 0.0
C510 C 0.56138 0.62776 0.52152 0.0
C511 C 0.60133 0.63189 0.52014 0.0
C512 C 0.60474 0.60595 0.52889 0.0
C513 C 0.55905 0.65706 0.51372 0.0
C514 C 0.56848 0.66545 0.49397 0.0
C515 C 0.54701 0.67629 0.52569 0.0
C516 C 0.53988 0.67057 0.54701 0.0
C517 C 0.57414 0.67744 0.55935 0.0
C518 C 0.56655 0.67039 0.57924 0.0
C519 C 0.52495 0.65675 0.58701 0.0
C520 C 0.49095 0.65036 0.57492 0.0
C521 C 0.49836 0.65736 0.555 0.0
H522 H 0.51908 0.65118 0.60241 0.0
H523 H 0.60116 0.71848 0.40952 0.0
H524 H 0.76391 0.59407 0.84643 0.0
H525 H 0.82624 0.59308 0.85421 0.0
H526 H 0.75951 0.48543 0.81978 0.0
H527 H 0.69491 0.48464 0.81396 0.0
H528 H 0.7992 0.4782 0.84332 0.0
H529 H 0.87178 0.59617 0.80927 0.0
H530 H 0.89213 0.65997 0.80406 0.0
H531 H 0.95444 0.70143 0.86167 0.0
H532 H 0.93406 0.63777 0.86728 0.0
H533 H 0.99915 0.48751 0.84299 0.0
H534 H 0.93665 0.48831 0.83372 0.0
H535 H 0.98959 0.58553 0.8748 0.0
H536 H 0.05186 0.58512 0.88365 0.0
H537 H 0.95793 0.59807 0.84715 0.0
H538 H 0.88802 0.4812 0.88048 0.0
H539 H 0.86446 0.41669 0.88665 0.0
H540 H 0.79606 0.37273 0.83026 0.0
H541 H 0.8198 0.43714 0.82364 0.0
C542 C 0.76257 0.57031 0.84029 0.0
C543 C 0.72385 0.53986 0.82911 0.0
C544 C 0.79921 0.56988 0.84458 0.0
C545 C 0.80055 0.53998 0.83707 0.0
C546 C 0.76138 0.50944 0.82594 0.0
C547 C 0.72391 0.5091 0.82235 0.0
C548 C 0.84129 0.5398 0.84099 0.0
C549 C 0.83379 0.50466 0.84368 0.0
C550 C 0.88776 0.5737 0.8423 0.0
C551 C 0.90114 0.6122 0.83872 0.0
C552 C 0.88983 0.61893 0.82081 0.0
C553 C 0.9013 0.65502 0.8178 0.0
C554 C 0.92448 0.6847 0.83254 0.0
C555 C 0.93646 0.67841 0.85028 0.0
C556 C 0.92502 0.64236 0.85337 0.0
C557 C 0.99827 0.50972 0.84973 0.0
C558 C 1.03207 0.53663 0.86401 0.0
C559 C 0.96148 0.50977 0.84466 0.0
C560 C 0.95635 0.53659 0.85365 0.0
C561 C 0.99116 0.5642 0.86735 0.0
C562 C 1.02754 0.56404 0.87244 0.0
C563 C 0.91574 0.53646 0.84914 0.0
C564 C 0.92331 0.57159 0.84648 0.0
C565 C 0.86943 0.50253 0.84772 0.0
C566 C 0.85625 0.46413 0.85146 0.0
C567 C 0.86841 0.45789 0.86931 0.0
C568 C 0.85493 0.42132 0.8729 0.0
C569 C 0.82893 0.39067 0.85883 0.0
C570 C 0.81633 0.39652 0.84113 0.0
C571 C 0.82982 0.43306 0.83744 0.0
H572 H 0.81842 0.36236 0.86167 0.0
H573 H 0.93322 0.71259 0.8302 0.0
H574 H 0.23949 0.61271 0.1766 0.0
H575 H 0.30728 0.68066 0.18194 0.0
H576 H 0.24188 0.71598 0.14971 0.0
H577 H 0.17645 0.6491 0.14335 0.0
H578 H 0.32157 0.75507 0.13886 0.0
H579 H 0.25408 0.72492 0.20137 0.0
H580 H 0.22291 0.69008 0.23166 0.0
H581 H 0.35143 0.71924 0.24677 0.0
H582 H 0.38327 0.75387 0.21643 0.0
H583 H 0.46102 0.95593 0.1742 0.0
H584 H 0.39918 0.88731 0.16545 0.0
H585 H 0.47834 0.85706 0.18908 0.0
H586 H 0.53986 0.9254 0.19771 0.0
H587 H 0.39342 0.81569 0.20445 0.0
H588 H 0.45759 0.8484 0.13948 0.0
H589 H 0.48269 0.88465 0.10951 0.0
H590 H 0.35045 0.85245 0.10045 0.0
H591 H 0.32472 0.8163 0.13046 0.0
C592 C 0.24033 0.63499 0.17021 0.0
C593 C 0.20292 0.62536 0.15924 0.0
C594 C 0.27866 0.67389 0.1736 0.0
C595 C 0.27973 0.7037 0.16634 0.0
C596 C 0.2423 0.69379 0.15538 0.0
C597 C 0.20468 0.6553 0.15179 0.0
C598 C 0.31971 0.74531 0.16957 0.0
C599 C 0.33687 0.76825 0.15329 0.0
C600 C 0.34008 0.76282 0.18833 0.0
C601 C 0.32091 0.74157 0.20647 0.0
C602 C 0.27559 0.72356 0.21104 0.0
C603 C 0.25782 0.70394 0.22824 0.0
C604 C 0.28514 0.70236 0.24109 0.0
C605 C 0.33029 0.72043 0.23677 0.0
C606 C 0.34823 0.74008 0.21958 0.0
C607 C 0.46579 0.93469 0.1767 0.0
C608 C 0.50555 0.9459 0.18613 0.0
C609 C 0.43033 0.89548 0.17193 0.0
C610 C 0.43406 0.86695 0.17667 0.0
C611 C 0.47463 0.87846 0.1853 0.0
C612 C 0.51003 0.91751 0.18994 0.0
C613 C 0.39502 0.82506 0.17371 0.0
C614 C 0.37804 0.80223 0.19007 0.0
C615 C 0.37371 0.80779 0.15514 0.0
C616 C 0.38941 0.82999 0.13729 0.0
C617 C 0.43402 0.84936 0.13118 0.0
C618 C 0.44831 0.8698 0.11417 0.0
C619 C 0.41822 0.87093 0.10311 0.0
C620 C 0.37374 0.85159 0.10903 0.0
C621 C 0.35928 0.83109 0.12603 0.0
H622 H 0.42935 0.88673 0.08992 0.0
H623 H 0.27138 0.68732 0.25442 0.0
H624 H 0.62507 0.24301 0.49551 0.0
H625 H 0.63629 0.30291 0.5043 0.0
H626 H 0.51942 0.26224 0.46817 0.0
H627 H 0.50995 0.20357 0.45854 0.0
H628 H 0.57608 0.33533 0.46649 0.0
H629 H 0.5167 0.24988 0.51924 0.0
H630 H 0.51439 0.21058 0.54428 0.0
H631 H 0.63738 0.3117 0.57122 0.0
H632 H 0.64098 0.35147 0.5461 0.0
H633 H 0.51939 0.44462 0.51961 0.0
H634 H 0.52086 0.39497 0.50288 0.0
H635 H 0.64346 0.43933 0.53542 0.0
H636 H 0.64112 0.48792 0.55253 0.0
H637 H 0.58384 0.36509 0.53802 0.0
H638 H 0.63862 0.45088 0.48477 0.0
H639 H 0.63424 0.48792 0.46054 0.0
H640 H 0.5118 0.38334 0.4355 0.0
H641 H 0.51501 0.34574 0.45978 0.0
C642 C 0.60252 0.24743 0.48916 0.0
C643 C 0.56652 0.21882 0.47647 0.0
C644 C 0.60867 0.28143 0.49427 0.0
C645 C 0.57785 0.28659 0.48736 0.0
C646 C 0.54349 0.2589 0.47378 0.0
C647 C 0.53806 0.2254 0.46829 0.0
C648 C 0.57926 0.31922 0.49527 0.0
C649 C 0.57754 0.34172 0.48215 0.0
C650 C 0.58122 0.32768 0.51571 0.0
C651 C 0.57943 0.30356 0.53061 0.0
C652 C 0.54352 0.26366 0.53037 0.0
C653 C 0.54196 0.24131 0.5446 0.0
C654 C 0.57579 0.25861 0.55929 0.0
C655 C 0.61128 0.2983 0.55979 0.0
C656 C 0.61314 0.32075 0.54555 0.0
C657 C 0.54683 0.44387 0.52296 0.0
C658 C 0.57995 0.46969 0.53743 0.0
C659 C 0.54782 0.41573 0.51334 0.0
C660 C 0.5825 0.41364 0.51779 0.0
C661 C 0.61634 0.44035 0.53179 0.0
C662 C 0.61495 0.46798 0.54159 0.0
C663 C 0.5818 0.38178 0.50928 0.0
C664 C 0.58303 0.35906 0.52235 0.0
C665 C 0.57862 0.37285 0.48887 0.0
C666 C 0.57686 0.39554 0.47423 0.0
C667 C 0.61056 0.43581 0.47421 0.0
C668 C 0.60831 0.4569 0.46044 0.0
C669 C 0.57271 0.43801 0.44653 0.0
C670 C 0.53933 0.39796 0.44631 0.0
C671 C 0.54136 0.37674 0.46006 0.0
H672 H 0.57105 0.45439 0.43588 0.0
H673 H 0.57444 0.24127 0.57033 0.0
H674 H 0.49733 0.55039 0.86293 0.0
H675 H 0.43311 0.55074 0.86839 0.0
H676 H 0.38541 0.50627 0.80887 0.0
H677 H 0.45034 0.50666 0.8034 0.0
H678 H 0.36943 0.55464 0.81597 0.0
H679 H 0.33303 0.45111 0.85361 0.0
H680 H 0.34393 0.41876 0.87837 0.0
H681 H 0.3601 0.49791 0.92361 0.0
H682 H 0.34982 0.53104 0.89907 0.0
H683 H 0.14321 0.50263 0.83721 0.0
H684 H 0.20643 0.50227 0.82745 0.0
H685 H 0.27937 0.56739 0.88096 0.0
H686 H 0.2191 0.57022 0.89001 0.0
H687 H 0.27899 0.50466 0.8757 0.0
H688 H 0.31865 0.60938 0.8386 0.0
H689 H 0.31301 0.64525 0.8141 0.0
H690 H 0.29236 0.56516 0.76823 0.0
H691 H 0.29748 0.52858 0.79251 0.0
C692 C 0.47318 0.54056 0.85096 0.0
C693 C 0.47976 0.52844 0.83267 0.0
C694 C 0.43569 0.54046 0.85415 0.0
C695 C 0.40246 0.52792 0.83925 0.0
C696 C 0.40947 0.51615 0.82088 0.0
C697 C 0.447 0.51626 0.81771 0.0
C698 C 0.36139 0.52759 0.84269 0.0
C699 C 0.34933 0.54289 0.82892 0.0
C700 C 0.33445 0.51336 0.85971 0.0
C701 C 0.34116 0.49382 0.87446 0.0
C702 C 0.3393 0.46183 0.86881 0.0
C703 C 0.34529 0.44331 0.88281 0.0
C704 C 0.35284 0.45635 0.90254 0.0
C705 C 0.35433 0.48789 0.90832 0.0
C706 C 0.3484 0.50653 0.89437 0.0
C707 C 0.17301 0.51766 0.84676 0.0
C708 C 0.17413 0.53564 0.86483 0.0
C709 C 0.20954 0.5172 0.84118 0.0
C710 C 0.24859 0.53422 0.85352 0.0
C711 C 0.25021 0.55327 0.87107 0.0
C712 C 0.21474 0.55459 0.87634 0.0
C713 C 0.28707 0.53164 0.84899 0.0
C714 C 0.29875 0.51593 0.86263 0.0
C715 C 0.31359 0.54547 0.83188 0.0
C716 C 0.30755 0.56581 0.81742 0.0
C717 C 0.31205 0.59899 0.82334 0.0
C718 C 0.30923 0.61959 0.80947 0.0
C719 C 0.30206 0.60736 0.78963 0.0
C720 C 0.29769 0.57449 0.78361 0.0
C721 C 0.30054 0.55381 0.79742 0.0
H722 H 0.3001 0.62346 0.77891 0.0
H723 H 0.35744 0.44196 0.91336 0.0
H724 H 0.92744 0.37965 0.12481 0.0
H725 H 0.86125 0.3127 0.13054 0.0
H726 H 0.8951 0.33465 0.19245 0.0
H727 H 0.96015 0.40173 0.18678 0.0
H728 H 0.87697 0.26547 0.17668 0.0
H729 H 0.80149 0.322 0.1817 0.0
H730 H 0.77733 0.35956 0.17206 0.0
H731 H 0.72764 0.29506 0.1164 0.0
H732 H 0.74981 0.25578 0.12622 0.0
H733 H 0.6875 0.10553 0.21838 0.0
H734 H 0.74879 0.16861 0.20844 0.0
H735 H 0.68204 0.14272 0.15209 0.0
H736 H 0.61579 0.08084 0.1634 0.0
H737 H 0.71875 0.21236 0.16188 0.0
H738 H 0.78275 0.14583 0.1625 0.0
H739 H 0.79583 0.10444 0.17819 0.0
H740 H 0.86756 0.18928 0.22624 0.0
H741 H 0.85465 0.23105 0.2109 0.0
C742 C 0.92019 0.37019 0.13963 0.0
C743 C 0.94835 0.39581 0.15539 0.0
C744 C 0.88253 0.332 0.14291 0.0
C745 C 0.87314 0.31855 0.16194 0.0
C746 C 0.90156 0.34426 0.17766 0.0
C747 C 0.9385 0.38261 0.17444 0.0
C748 C 0.83416 0.27759 0.16545 0.0
C749 C 0.84236 0.25381 0.17344 0.0
C750 C 0.78903 0.26198 0.161 0.0
C751 C 0.77778 0.28646 0.15455 0.0
C752 C 0.78581 0.31613 0.16733 0.0
C753 C 0.77228 0.3376 0.16187 0.0
C754 C 0.75157 0.33018 0.14347 0.0
C755 C 0.7439 0.30092 0.1306 0.0
C756 C 0.75657 0.27881 0.13617 0.0
C757 C 0.68467 0.11316 0.20402 0.0
C758 C 0.64532 0.08793 0.19203 0.0
C759 C 0.72103 0.1493 0.19805 0.0
C760 C 0.72142 0.16055 0.17918 0.0
C761 C 0.68307 0.1349 0.16671 0.0
C762 C 0.6453 0.09914 0.1731 0.0
C763 C 0.76115 0.19962 0.17304 0.0
C764 C 0.75327 0.22331 0.1646 0.0
C765 C 0.80666 0.2151 0.17715 0.0
C766 C 0.81783 0.19158 0.18552 0.0
C767 C 0.80164 0.15577 0.17633 0.0
C768 C 0.80887 0.13219 0.1852 0.0
C769 C 0.83253 0.14423 0.20319 0.0
C770 C 0.84938 0.18005 0.21227 0.0
C771 C 0.84231 0.20378 0.20345 0.0
H772 H 0.83777 0.1258 0.21011 0.0
H773 H 0.74107 0.34684 0.13925 0.0
H774 H 0.09157 0.48379 0.09551 0.0
H775 H 0.10086 0.48339 0.05971 0.0
H776 H 0.05433 0.55042 0.05446 0.0
H777 H 1.04369 0.54964 0.0896 0.0
H778 H 1.01453 0.49766 0.02751 0.0
H779 H 0.17027 0.58595 0.05022 0.0
H780 H 0.23932 0.60693 0.06812 0.0
H781 H 0.23592 0.51897 0.03612 0.0
H782 H 0.16639 0.49703 0.01826 0.0
H783 H 0.07755 0.56414 0.93162 0.0
H784 H 0.07472 0.5608 0.96725 0.0
H785 H 0.10489 0.48147 0.96302 0.0
H786 H 0.10687 0.48398 0.9273 0.0
H787 H 0.1527 0.53521 -0.00588 0.0
H788 H 0.99797 0.44862 0.97111 0.0
H789 H 0.93048 0.42959 0.95257 0.0
H790 H 0.93418 0.51709 0.98533 0.0
H791 H 1.00212 0.53702 0.00385 0.0
C792 C 0.08331 0.49835 0.08665 0.0
C793 C 0.06643 0.51642 0.09551 0.0
C794 C 0.08895 0.4984 0.06613 0.0
C795 C 0.07848 0.51703 0.05404 0.0
C796 C 0.06236 0.53547 0.06312 0.0
C797 C 0.0563 0.53504 0.08339 0.0
C798 C 0.08216 0.51652 0.03196 0.0
C799 C 1.04515 0.50639 0.02037 0.0
C800 C 0.12133 0.52666 0.02217 0.0
C801 C 0.16274 0.53949 0.03311 0.0
C802 C 0.18395 0.5708 0.04716 0.0
C803 C 0.22323 0.58292 0.05727 0.0
C804 C 0.24189 0.5642 0.05332 0.0
C805 C 0.22135 0.53336 0.03922 0.0
C806 C 0.18199 0.52106 0.02911 0.0
C807 C 0.08304 0.54553 0.93814 0.0
C808 C 0.09217 0.52417 0.92626 0.0
C809 C 0.08171 0.54385 0.95866 0.0
C810 C 0.08933 0.52067 0.96806 0.0
C811 C 0.09911 0.49976 0.95632 0.0
C812 C 0.10027 0.5013 0.93576 0.0
C813 C 0.08556 0.51741 0.98998 0.0
C814 C 0.12226 0.52653 0.00142 0.0
C815 C 1.04627 0.50659 -0.00025 0.0
C816 C 1.00527 0.49448 0.98875 0.0
C817 C 0.98454 0.46395 0.97426 0.0
C818 C 0.9462 0.45299 0.96377 0.0
C819 C 0.9281 0.47216 0.96774 0.0
C820 C 0.94825 0.50229 0.98225 0.0
C821 C 0.98665 0.51341 -0.00724 0.0
H822 H 0.8984 0.46363 0.95961 0.0
H823 H 0.27235 0.57367 0.06114 0.0
H824 H 0.63289 0.07442 0.41588 0.0
H825 H 0.62422 0.07525 0.38034 0.0
H826 H 0.50168 0.95732 0.37916 0.0
H827 H 0.50917 0.95702 0.41485 0.0
H828 H 0.57711 0.97793 0.3519 0.0
H829 H 0.48448 0.01474 0.37259 0.0
H830 H 0.46931 0.05529 0.39052 0.0
H831 H 0.5789 0.15482 0.36193 0.0
H832 H 0.59519 0.11497 0.34407 0.0
H833 H 0.52317 0.95573 0.25181 0.0
H834 H 0.51993 0.95425 0.28703 0.0
H835 H 0.59317 0.07763 0.29207 0.0
H836 H 0.58939 0.07842 0.25682 0.0
H837 H 0.5416 0.05333 0.31841 0.0
H838 H 0.64034 0.02397 0.29897 0.0
H839 H 0.66317 0.98885 0.28114 0.0
H840 H 0.55666 0.88418 0.3074 0.0
H841 H 0.53286 0.91856 0.32521 0.0
C842 C 0.60379 0.04896 0.40801 0.0
C843 C 0.57161 0.01571 0.41792 0.0
C844 C 0.59887 0.04946 0.38781 0.0
C845 C 0.56236 0.01633 0.37723 0.0
C846 C 0.52994 0.98317 0.38716 0.0
C847 C 0.53413 0.98307 0.40746 0.0
C848 C 0.55952 0.01564 0.35563 0.0
C849 C 0.56887 0.99401 0.34445 0.0
C850 C 0.55061 0.03792 0.34613 0.0
C851 C 0.54138 0.06196 0.35719 0.0
C852 C 0.50572 0.04537 0.37033 0.0
C853 C 0.49682 0.06821 0.38043 0.0
C854 C 0.52321 0.10763 0.37742 0.0
C855 C 0.55855 0.12431 0.36429 0.0
C856 C 0.56762 0.10161 0.35418 0.0
C857 C 0.53723 0.98254 0.2602 0.0
C858 C 0.5568 0.01732 0.25099 0.0
C859 C 0.53659 0.98176 0.28059 0.0
C860 C 0.55791 0.01603 0.29245 0.0
C861 C 0.57683 0.05067 0.28339 0.0
C862 C 0.57542 0.05118 0.26301 0.0
C863 C 0.55975 0.01582 0.31424 0.0
C864 C 0.55021 0.0373 0.3256 0.0
C865 C 0.57015 0.99444 0.32393 0.0
C866 C 0.58458 0.97378 0.31328 0.0
C867 C 0.62164 0.99342 0.30085 0.0
C868 C 0.63477 0.97365 0.29076 0.0
C869 C 0.61131 0.93429 0.2931 0.0
C870 C 0.57476 0.91465 0.30558 0.0
C871 C 0.56147 0.93427 0.31569 0.0
H872 H 0.62151 0.91904 0.28527 0.0
H873 H 0.51619 0.12524 0.38522 0.0
H874 H 0.51359 0.47324 0.76038 0.0
H875 H 0.52035 0.48313 0.72541 0.0
H876 H 0.66142 0.58081 0.7345 0.0
H877 H 0.65499 0.57072 0.76992 0.0
H878 H 0.60669 0.58903 0.70656 0.0
H879 H 0.64427 0.50544 0.71918 0.0
H880 H 0.63166 0.44954 0.73344 0.0
H881 H 0.50524 0.37261 0.70116 0.0
H882 H 0.51671 0.42812 0.68697 0.0
H883 H 0.64435 0.58881 0.60387 0.0
H884 H 0.65062 0.59206 0.63973 0.0
H885 H 0.52526 0.4756 0.64031 0.0
H886 H 0.52058 0.47179 0.60443 0.0
H887 H 0.58086 0.48203 0.66418 0.0
H888 H 0.53683 0.56102 0.65322 0.0
H889 H 0.5436 0.6143 0.63883 0.0
H890 H 0.67356 0.69671 0.6677 0.0
H891 H 0.66788 0.64385 0.68201 0.0
C892 C 0.54607 0.49702 0.75503 0.0
C893 C 0.58395 0.52094 0.76783 0.0
C894 C 0.5498 0.50267 0.73503 0.0
C895 C 0.59142 0.53244 0.72739 0.0
C896 C 0.62902 0.55762 0.74018 0.0
C897 C 0.62537 0.55175 0.76033 0.0
C898 C 0.59551 0.53502 0.70586 0.0
C899 C 0.60193 0.56609 0.69722 0.0
C900 C 0.58792 0.50445 0.69377 0.0
C901 C 0.58123 0.47098 0.70212 0.0
C902 C 0.61362 0.47663 0.71524 0.0
C903 C 0.60669 0.445 0.7233 0.0
C904 C 0.56764 0.40755 0.71824 0.0
C905 C 0.53547 0.40164 0.70508 0.0
C906 C 0.54218 0.43317 0.69701 0.0
C907 C 0.61821 0.56406 0.61177 0.0
C908 C 0.58199 0.53008 0.60157 0.0
C909 C 0.62161 0.56596 0.63223 0.0
C910 C 0.58807 0.53428 0.64283 0.0
C911 C 0.55165 0.50041 0.63252 0.0
C912 C 0.54885 0.49823 0.61207 0.0
C913 C 0.59122 0.53577 0.66461 0.0
C914 C 0.58611 0.50532 0.67337 0.0
C915 C 0.59914 0.56658 0.67673 0.0
C916 C 0.60213 0.59845 0.66853 0.0
C917 C 0.56696 0.5905 0.65642 0.0
C918 C 0.5706 0.62062 0.64827 0.0
C919 C 0.60904 0.65886 0.6523 0.0
C920 C 0.64383 0.66707 0.66456 0.0
C921 C 0.64041 0.63704 0.67271 0.0
H922 H 0.61183 0.68213 0.64596 0.0
H923 H 0.56235 0.3831 0.72449 0.0
H924 H 0.62065 0.039 0.52967 0.0
H925 H 0.62878 0.03662 0.56519 0.0
H926 H 0.48459 0.9708 0.57058 0.0
H927 H 0.47639 0.97312 0.53548 0.0
H928 H 0.53245 0.03428 0.59608 0.0
H929 H 0.53318 0.92913 0.57462 0.0
H930 H 0.56061 0.89749 0.55702 0.0
H931 H 0.68913 0.97491 0.5877 0.0
H932 H 0.66277 0.00753 0.6052 0.0
H933 H 0.48954 0.97597 0.69291 0.0
H934 H 0.49078 0.97593 0.65697 0.0
H935 H 0.63397 0.03264 0.65925 0.0
H936 H 0.63215 0.03134 0.69516 0.0
H937 H 0.59418 0.97888 0.62995 0.0
H938 H 0.5938 0.08327 0.65184 0.0
H939 H 0.56605 0.11375 0.67045 0.0
H940 H 0.43803 0.03828 0.63921 0.0
H941 H 0.4648 0.00698 0.62062 0.0
C942 C 0.59076 0.02372 0.53847 0.0
C943 C 0.54796 0.00671 0.5299 0.0
C944 C 0.59539 0.02226 0.5587 0.0
C945 C 0.55727 0.00371 0.57055 0.0
C946 C 0.51449 0.98553 0.56177 0.0
C947 C 0.50987 0.9869 0.5417 0.0
C948 C 0.56149 0.0052 0.59224 0.0
C949 C 0.54563 0.02186 0.60346 0.0
C950 C 0.58001 0.99013 0.60191 0.0
C951 C 0.59622 0.97116 0.591 0.0
C952 C 0.56752 0.93979 0.5774 0.0
C953 C 0.58282 0.92158 0.56749 0.0
C954 C 0.62664 0.93427 0.57119 0.0
C955 C 0.65525 0.96519 0.5848 0.0
C956 C 0.64016 0.98357 0.59471 0.0
C957 C 0.52108 0.98822 0.68562 0.0
C958 C 0.56077 0.0038 0.69657 0.0
C959 C 0.52191 0.98838 0.66516 0.0
C960 C 0.56267 0.00487 0.65539 0.0
C961 C 0.60219 0.01981 0.66643 0.0
C962 C 0.6012 0.01922 0.68687 0.0
C963 C 0.56415 0.00716 0.63372 0.0
C964 C 0.58133 0.99153 0.62254 0.0
C965 C 0.54707 0.02337 0.62401 0.0
C966 C 0.5312 0.04262 0.63493 0.0
C967 C 0.55966 0.07306 0.64901 0.0
C968 C 0.54411 0.09049 0.65956 0.0
C969 C 0.50028 0.07792 0.65604 0.0
C970 C 0.47196 0.04798 0.64193 0.0
C971 C 0.48732 0.03042 0.63136 0.0
H972 H 0.48828 0.09142 0.66423 0.0
H973 H 0.63837 0.92005 0.56355 0.0
H974 H 0.6824 0.5881 0.88826 0.0
H975 H 0.66806 0.56877 0.9219 0.0
H976 H 0.53273 0.46745 0.90458 0.0
H977 H 0.54606 0.48789 0.87104 0.0
H978 H 0.533 0.51017 0.93336 0.0
H979 H 0.60948 0.45724 0.9205 0.0
H980 H 0.67073 0.45801 0.90687 0.0
H981 H 0.76728 0.55514 0.94609 0.0
H982 H 0.70667 0.55527 0.95979 0.0
H983 H 0.48232 0.42397 0.02217 0.0
H984 H 0.49938 0.44313 0.98855 0.0
H985 H 0.62694 0.55126 0.00812 0.0
H986 H 0.6102 0.53155 0.04209 0.0
H987 H 0.63118 0.50506 0.97862 0.0
H988 H 0.55312 0.55924 0.98953 0.0
H989 H 0.49005 0.55435 0.00443 0.0
H990 H 0.39449 0.44952 0.96943 0.0
H991 H 0.45709 0.45384 0.95435 0.0
C992 C 0.64991 0.56144 0.89163 0.0
C993 C 0.61515 0.53952 0.87739 0.0
C994 C 0.64194 0.55023 0.9107 0.0
C995 C 0.59957 0.51659 0.91543 0.0
C996 C 0.56562 0.49344 0.90096 0.0
C997 C 0.57329 0.50508 0.88195 0.0
C998 C 0.58914 0.50889 0.93592 0.0
C999 C 0.55401 0.50844 0.94322 0.0
C1000 C 0.6174 0.50762 0.94861 0.0
C1001 C 0.65355 0.50635 0.94113 0.0
C1002 C 0.64378 0.47878 0.92622 0.0
C1003 C 0.67839 0.47908 0.91846 0.0
C1004 C 0.72288 0.50664 0.92559 0.0
C1005 C 0.73279 0.53378 0.9406 0.0
C1006 C 0.6983 0.53362 0.9484 0.0
C1007 C 0.51342 0.45216 0.01928 0.0
C1008 C 0.54529 0.47626 0.03426 0.0
C1009 C 0.5231 0.46304 0.00023 0.0
C1010 C 0.56422 0.49846 -0.0038 0.0
C1011 C 0.59517 0.52376 0.01127 0.0
C1012 C 0.58566 0.51262 0.03043 0.0
C1013 C 0.57563 0.50687 0.9759 0.0
C1014 C 0.61063 0.50715 0.96867 0.0
C1015 C 0.54711 0.50766 0.96322 0.0
C1016 C 0.5097 0.507 0.97075 0.0
C1017 C 0.51864 0.53538 0.98489 0.0
C1018 C 0.483 0.53264 -0.00659 0.0
C1019 C 0.43828 0.50166 0.98787 0.0
C1020 C 0.42915 0.47359 0.97364 0.0
C1021 C 0.46469 0.47629 0.96501 0.0
H1022 H 0.41071 0.49938 -0.00538 0.0
H1023 H 0.74968 0.50695 0.9195 0.0
H1024 H 0.10867 0.56205 0.21277 0.0
H1025 H 0.10455 0.56852 0.24851 0.0
H1026 H 1.02053 0.44468 0.25096 0.0
H1027 H 1.02437 0.43816 0.21544 0.0
H1028 H 0.98874 0.47155 0.27444 0.0
H1029 H 0.13231 0.50311 0.2626 0.0
H1030 H 0.20891 0.53696 0.24985 0.0
H1031 H 0.25157 0.64268 0.28009 0.0
H1032 H 0.17474 0.60985 0.29239 0.0
H1033 H 1.02067 0.45376 0.37407 0.0
H1034 H 1.02301 0.45407 0.33845 0.0
H1035 H 0.08853 0.57599 0.34185 0.0
H1036 H 0.08489 0.57584 0.37765 0.0
H1037 H 0.12931 0.55327 0.31593 0.0
H1038 H 0.98223 0.51705 0.32875 0.0
H1039 H 0.90849 0.47791 0.34465 0.0
H1040 H 0.87526 0.37502 0.3148 0.0
H1041 H 0.94922 0.41351 0.29898 0.0
C1042 C 0.08897 0.53625 0.22094 0.0
C1043 C 0.06693 0.49961 0.2113 0.0
C1044 C 0.08686 0.53996 0.24138 0.0
C1045 C 0.06258 0.50709 0.25253 0.0
C1046 C 1.03948 0.47048 0.24277 0.0
C1047 C 1.04181 0.4668 0.22243 0.0
C1048 C 0.06168 0.51055 0.27436 0.0
C1049 C 1.01958 0.48936 0.28344 0.0
C1050 C 0.10179 0.53392 0.28629 0.0
C1051 C 0.14743 0.55416 0.27809 0.0
C1052 C 0.15772 0.53377 0.26618 0.0
C1053 C 0.20124 0.55278 0.25906 0.0
C1054 C 0.23499 0.59206 0.26399 0.0
C1055 C 0.22528 0.61239 0.27607 0.0
C1056 C 0.1817 0.59363 0.28306 0.0
C1057 C 1.0348 0.48059 0.36733 0.0
C1058 C 0.05205 0.51469 0.37886 0.0
C1059 C 1.03645 0.48073 0.34692 0.0
C1060 C 0.05562 0.51497 0.33749 0.0
C1061 C 0.07358 0.54924 0.34885 0.0
C1062 C 0.07155 0.54909 0.36933 0.0
C1063 C 0.05668 0.51469 0.31575 0.0
C1064 C 0.09866 0.53616 0.30677 0.0
C1065 C 1.01661 0.49114 0.30394 0.0
C1066 C 0.97134 0.46815 0.31275 0.0
C1067 C 0.95925 0.48606 0.32562 0.0
C1068 C 0.91744 0.46399 0.33463 0.0
C1069 C 0.88722 0.42399 0.33075 0.0
C1070 C 0.8987 0.40601 0.31778 0.0
C1071 C 0.94054 0.42795 0.30877 0.0
H1072 H 0.8549 0.40694 0.33777 0.0
H1073 H 0.26875 0.60668 0.25856 0.0
loop_
_geom_bond_atom_site_label_1
_geom_bond_atom_site_label_2
_geom_bond_distance
_geom_bond_site_symmetry_2
_ccdc_geom_bond_type
Ho0 C3 2.811 . S
Ho0 O20 2.322 . S
Ho0 O22 2.378 . S
Ho0 O23 2.524 . S
Ho0 O24 2.381 . S
Ho0 O25 2.669 . S
Ho0 O27 2.346 1_455 S
Ho0 O31 2.305 . S
Ho1 C12 2.811 . S
Ho1 O21 2.346 1_655 S
Ho1 O25 2.305 1_655 S
Ho1 O26 2.322 . S
Ho1 O28 2.378 . S
Ho1 O29 2.524 . S
Ho1 O30 2.381 1_655 S
Ho1 O31 2.669 1_655 S
C2 O20 1.259 . S
C2 O21 1.268 . S
C3 Ho0 2.811 . S
C3 C4 1.488 . S
C3 O22 1.215 . S
C3 O23 1.289 . S
C4 C3 1.488 . S
C4 C5 1.348 . S
C4 C9 1.413 . S
C5 C4 1.348 . S
C5 C6 1.442 . S
C5 H32 0.930 . S
C6 C5 1.442 . S
C6 C7 1.381 . S
C6 H33 0.931 . S
C7 C6 1.381 . S
C7 C8 1.321 . S
C8 C7 1.321 . S
C8 C9 1.403 . S
C8 H34 0.934 . S
C9 C4 1.413 . S
C9 C8 1.403 . S
C9 H35 0.930 . S
C10 O24 1.275 . S
C10 O25 1.256 . S
C11 O26 1.259 . S
C11 O27 1.268 . S
C12 Ho1 2.811 . S
C12 C13 1.488 . S
C12 O28 1.215 . S
C12 O29 1.289 . S
C13 C12 1.488 . S
C13 C14 1.348 . S
C13 C18 1.413 . S
C14 C13 1.348 . S
C14 C15 1.442 . S
C14 H36 0.930 . S
C15 C14 1.442 . S
C15 C16 1.381 . S
C15 H37 0.931 . S
C16 C15 1.381 . S
C16 C17 1.321 . S
C17 C16 1.321 . S
C17 C18 1.403 . S
C17 H38 0.934 . S
C18 C13 1.413 . S
C18 C17 1.403 . S
C18 H39 0.930 . S
C19 O30 1.275 . S
C19 O31 1.256 . S
O20 Ho0 2.322 . S
O20 C2 1.259 . S
O21 Ho1 2.346 1_455 S
O21 C2 1.268 . S
O22 Ho0 2.378 . S
O22 C3 1.215 . S
O23 Ho0 2.524 . S
O23 C3 1.289 . S
O24 Ho0 2.381 . S
O24 C10 1.275 . S
O25 Ho0 2.669 . S
O25 Ho1 2.305 1_455 S
O25 C10 1.256 . S
O26 Ho1 2.322 . S
O26 C11 1.259 . S
O27 Ho0 2.346 1_655 S
O27 C11 1.268 . S
O28 Ho1 2.378 . S
O28 C12 1.215 . S
O29 Ho1 2.524 . S
O29 C12 1.289 . S
O30 Ho1 2.381 1_455 S
O30 C19 1.275 . S
O31 Ho0 2.305 . S
O31 Ho1 2.669 1_455 S
O31 C19 1.256 . S
H32 C5 0.930 . S
H33 C6 0.931 . S
H34 C8 0.934 . S
H35 C9 0.930 . S
H36 C14 0.930 . S
H37 C15 0.931 . S
H38 C17 0.934 . S
H39 C18 0.930 . S
Ho40 C43 2.811 . S
Ho40 O60 2.322 . S
Ho40 O62 2.378 . S
Ho40 O63 2.524 . S
Ho40 O64 2.381 . S
Ho40 O65 2.669 1_565 S
Ho40 O67 2.346 1_565 S
Ho40 O71 2.300 1_565 S
Ho41 C52 2.811 . S
Ho41 O61 2.346 1_545 S
Ho41 O65 2.305 . S
Ho41 O66 2.322 . S
Ho41 O68 2.378 . S
Ho41 O69 2.524 . S
Ho41 O70 2.381 . S
Ho41 O71 2.676 . S
C42 O60 1.259 . S
C42 O61 1.268 . S
C43 Ho40 2.811 . S
C43 C44 1.488 . S
C43 O62 1.215 . S
C43 O63 1.289 . S
C44 C43 1.488 . S
C44 C45 1.348 . S
C44 C49 1.413 . S
C45 C44 1.348 . S
C45 C46 1.442 . S
C45 H72 0.930 . S
C46 C45 1.442 . S
C46 C47 1.381 . S
C46 H73 0.931 . S
C47 C46 1.381 . S
C47 C48 1.321 . S
C48 C47 1.321 . S
C48 C49 1.403 . S
C48 H74 0.934 . S
C49 C44 1.413 . S
C49 C48 1.403 . S
C49 H75 0.930 . S
C50 O64 1.275 1_545 S
C50 O65 1.256 . S
C51 O66 1.259 . S
C51 O67 1.268 . S
C52 Ho41 2.811 . S
C52 C53 1.488 . S
C52 O68 1.215 . S
C52 O69 1.289 . S
C53 C52 1.488 . S
C53 C54 1.348 . S
C53 C58 1.413 . S
C54 C53 1.348 . S
C54 C55 1.442 . S
C54 H76 0.930 . S
C55 C54 1.442 . S
C55 C56 1.381 . S
C55 H77 0.931 . S
C56 C55 1.381 . S
C56 C57 1.321 . S
C57 C56 1.321 . S
C57 C58 1.403 . S
C57 H78 0.934 . S
C58 C53 1.413 . S
C58 C57 1.403 . S
C58 H79 0.930 . S
C59 O70 1.275 . S
C59 O71 1.260 . S
O60 Ho40 2.322 . S
O60 C42 1.259 . S
O61 Ho41 2.346 1_565 S
O61 C42 1.268 . S
O62 Ho40 2.378 . S
O62 C43 1.215 . S
O63 Ho40 2.524 . S
O63 C43 1.289 . S
O64 Ho40 2.381 . S
O64 C50 1.275 1_565 S
O65 Ho40 2.669 1_545 S
O65 Ho41 2.305 . S
O65 C50 1.256 . S
O66 Ho41 2.322 . S
O66 C51 1.259 . S
O67 Ho40 2.346 1_545 S
O67 C51 1.268 . S
O68 Ho41 2.378 . S
O68 C52 1.215 . S
O69 Ho41 2.524 . S
O69 C52 1.289 . S
O70 Ho41 2.381 . S
O70 C59 1.275 . S
O71 Ho40 2.300 1_545 S
O71 Ho41 2.676 . S
O71 C59 1.260 . S
H72 C45 0.930 . S
H73 C46 0.931 . S
H74 C48 0.934 . S
H75 C49 0.930 . S
H76 C54 0.930 . S
H77 C55 0.931 . S
H78 C57 0.934 . S
H79 C58 0.930 . S
Ho80 C83 2.811 . S
Ho80 O100 2.322 . S
Ho80 O102 2.378 . S
Ho80 O103 2.524 . S
Ho80 O104 2.381 . S
Ho80 O105 2.669 . S
Ho80 O107 2.346 . S
Ho80 O111 2.305 . S
Ho81 C92 2.811 . S
Ho81 O101 2.346 . S
Ho81 O105 2.305 . S
Ho81 O106 2.322 . S
Ho81 O108 2.378 . S
Ho81 O109 2.524 . S
Ho81 O110 2.381 . S
Ho81 O111 2.669 . S
C82 O100 1.259 . S
C82 O101 1.268 . S
C83 Ho80 2.811 . S
C83 C84 1.488 . S
C83 O102 1.215 . S
C83 O103 1.289 . S
C84 C83 1.488 . S
C84 C85 1.348 . S
C84 C89 1.413 . S
C85 C84 1.348 . S
C85 C86 1.442 . S
C85 H112 0.930 . S
C86 C85 1.442 . S
C86 C87 1.381 . S
C86 H113 0.931 . S
C87 C86 1.381 . S
C87 C88 1.321 . S
C88 C87 1.321 . S
C88 C89 1.403 . S
C88 H114 0.934 . S
C89 C84 1.413 . S
C89 C88 1.403 . S
C89 H115 0.930 . S
C90 O104 1.275 . S
C90 O105 1.256 . S
C91 O106 1.259 . S
C91 O107 1.268 . S
C92 Ho81 2.811 . S
C92 C93 1.488 . S
C92 O108 1.215 . S
C92 O109 1.289 . S
C93 C92 1.488 . S
C93 C94 1.348 . S
C93 C98 1.413 . S
C94 C93 1.348 . S
C94 C95 1.442 . S
C94 H116 0.930 . S
C95 C94 1.442 . S
C95 C96 1.381 . S
C95 H117 0.931 . S
C96 C95 1.381 . S
C96 C97 1.321 . S
C97 C96 1.321 . S
C97 C98 1.403 . S
C97 H118 0.934 . S
C98 C93 1.413 . S
C98 C97 1.403 . S
C98 H119 0.930 . S
C99 O110 1.275 . S
C99 O111 1.256 . S
O100 Ho80 2.322 . S
O100 C82 1.259 . S
O101 Ho81 2.346 . S
O101 C82 1.268 . S
O102 Ho80 2.378 . S
O102 C83 1.215 . S
O103 Ho80 2.524 . S
O103 C83 1.289 . S
O104 Ho80 2.381 . S
O104 C90 1.275 . S
O105 Ho80 2.669 . S
O105 Ho81 2.305 . S
O105 C90 1.256 . S
O106 Ho81 2.322 . S
O106 C91 1.259 . S
O107 Ho80 2.346 . S
O107 C91 1.268 . S
O108 Ho81 2.378 . S
O108 C92 1.215 . S
O109 Ho81 2.524 . S
O109 C92 1.289 . S
O110 Ho81 2.381 . S
O110 C99 1.275 . S
O111 Ho80 2.305 . S
O111 Ho81 2.669 . S
O111 C99 1.256 . S
H112 C85 0.930 . S
H113 C86 0.931 . S
H114 C88 0.934 . S
H115 C89 0.930 . S
H116 C94 0.930 . S
H117 C95 0.931 . S
H118 C97 0.934 . S
H119 C98 0.930 . S
H120 C123 0.931 . S
H121 C126 0.928 . S
H122 C128 0.930 . S
C123 H120 0.931 . S
C123 C124 1.413 . S
C123 C125 1.360 1_565 S
C124 C123 1.413 . S
C124 C128 1.429 1_565 S
C125 C123 1.360 1_545 S
C125 C126 1.372 . S
C126 H121 0.928 . S
C126 C125 1.372 . S
C126 C127 1.404 . S
C127 C126 1.404 . S
C127 C128 1.391 . S
C128 H122 0.930 . S
C128 C124 1.429 1_545 S
C128 C127 1.391 . S
H129 C132 0.931 . S
H130 C135 0.928 . S
H131 C137 0.930 . S
C132 H129 0.931 . S
C132 C133 1.413 . S
C132 C134 1.360 . S
C133 C132 1.413 . S
C133 C137 1.429 . S
C134 C132 1.360 . S
C134 C135 1.372 . S
C135 H130 0.928 . S
C135 C134 1.372 . S
C135 C136 1.404 . S
C136 C135 1.404 . S
C136 C137 1.391 . S
C137 H131 0.930 . S
C137 C133 1.429 . S
C137 C136 1.391 . S
H138 C141 0.955 . S
H139 C144 0.928 . S
H140 C146 0.930 . S
C141 H138 0.955 . S
C141 C142 1.413 . S
C141 C143 1.360 . S
C142 C141 1.413 . S
C142 C146 1.429 . S
C143 C141 1.360 . S
C143 C144 1.372 . S
C144 H139 0.928 . S
C144 C143 1.372 . S
C144 C145 1.404 . S
C145 C144 1.404 . S
C145 C146 1.391 . S
C146 H140 0.930 . S
C146 C142 1.429 . S
C146 C145 1.391 . S
H147 C150 0.931 . S
H148 C153 0.928 . S
H149 C155 0.930 . S
C150 H147 0.931 . S
C150 C151 1.413 . S
C150 C152 1.361 1_655 S
C151 C150 1.413 . S
C151 C155 1.429 1_655 S
C152 C150 1.361 1_455 S
C152 C153 1.371 . S
C153 H148 0.928 . S
C153 C152 1.371 . S
C153 C154 1.404 . S
C154 C153 1.404 . S
C154 C155 1.391 . S
C155 H149 0.930 . S
C155 C151 1.429 1_455 S
C155 C154 1.391 . S
H156 C159 0.931 . S
H157 C162 0.928 . S
H158 C164 0.930 . S
C159 H156 0.931 . S
C159 C160 1.413 . S
C159 C161 1.379 . S
C160 C159 1.413 . S
C160 C164 1.429 . S
C161 C159 1.379 . S
C161 C162 1.352 1_545 S
C162 H157 0.928 . S
C162 C161 1.352 1_565 S
C162 C163 1.404 . S
C163 C162 1.404 . S
C163 C164 1.391 1_565 S
C164 H158 0.930 . S
C164 C160 1.429 . S
C164 C163 1.391 1_545 S
H165 C168 0.931 . S
H166 C171 0.928 . S
H167 C173 0.930 . S
C168 H165 0.931 . S
C168 C169 1.413 . S
C168 C170 1.360 . S
C169 C168 1.413 . S
C169 C173 1.429 . S
C170 C168 1.360 . S
C170 C171 1.372 . S
C171 H166 0.928 . S
C171 C170 1.372 . S
C171 C172 1.404 . S
C172 C171 1.404 . S
C172 C173 1.391 . S
C173 H167 0.930 . S
C173 C169 1.429 . S
C173 C172 1.391 . S
H174 C192 0.951 . S
H175 C194 0.951 . S
H176 C196 0.950 . S
H177 C197 0.950 . S
H178 C199 0.950 . S
H179 C202 0.950 . S
H180 C203 0.950 . S
H181 C205 0.950 . S
H182 C206 0.950 . S
H183 C207 0.951 . S
H184 C209 0.951 . S
H185 C211 0.950 . S
H186 C212 0.950 . S
H187 C214 0.950 . S
H188 C217 0.950 . S
H189 C218 0.950 . S
H190 C220 0.950 . S
H191 C221 0.950 . S
C192 H174 0.951 . S
C192 C193 1.366 . S
C192 C194 1.388 . S
C193 C192 1.366 . S
C193 C197 1.385 . S
C194 H175 0.951 . S
C194 C192 1.388 . S
C194 C195 1.366 . S
C195 C194 1.366 . S
C195 C196 1.414 . S
C195 C198 1.499 . S
C196 H176 0.950 . S
C196 C195 1.414 . S
C196 C197 1.374 . S
C197 H177 0.950 . S
C197 C193 1.385 . S
C197 C196 1.374 . S
C198 C195 1.499 . S
C198 C199 1.373 . S
C198 C200 1.389 . S
C199 H178 0.950 . S
C199 C198 1.373 . S
C199 C215 1.377 . S
C200 C198 1.389 . S
C200 C201 1.524 . S
C200 C214 1.377 . S
C201 C200 1.524 . S
C201 C202 1.397 . S
C201 C206 1.363 . S
C202 H179 0.950 . S
C202 C201 1.397 . S
C202 C203 1.334 . S
C203 H180 0.950 . S
C203 C202 1.334 . S
C203 C204 1.287 . S
C204 C203 1.287 . S
C204 C205 1.524 . S
C204 H223 0.913 . S
C205 H181 0.950 . S
C205 C204 1.524 . S
C205 C206 1.415 . S
C206 H182 0.950 . S
C206 C201 1.363 . S
C206 C205 1.415 . S
C207 H183 0.951 . S
C207 C208 1.366 . S
C207 C209 1.388 . S
C208 C207 1.366 . S
C208 C212 1.385 . S
C209 H184 0.951 . S
C209 C207 1.388 . S
C209 C210 1.366 . S
C210 C209 1.366 . S
C210 C211 1.414 . S
C210 C213 1.499 . S
C211 H185 0.950 . S
C211 C210 1.414 . S
C211 C212 1.374 . S
C212 H186 0.950 . S
C212 C208 1.385 . S
C212 C211 1.374 . S
C213 C210 1.499 . S
C213 C214 1.373 . S
C213 C215 1.389 . S
C214 H187 0.950 . S
C214 C200 1.377 . S
C214 C213 1.373 . S
C215 C199 1.377 . S
C215 C213 1.389 . S
C215 C216 1.524 . S
C216 C215 1.524 . S
C216 C217 1.397 . S
C216 C221 1.363 . S
C217 H188 0.950 . S
C217 C216 1.397 . S
C217 C218 1.334 . S
C218 H189 0.950 . S
C218 C217 1.334 . S
C218 C219 1.287 . S
C219 C218 1.287 . S
C219 C220 1.524 . S
C219 H222 0.999 . S
C220 H190 0.950 . S
C220 C219 1.524 . S
C220 C221 1.415 . S
C221 H191 0.950 . S
C221 C216 1.363 . S
C221 C220 1.415 . S
H222 C219 0.999 . S
H223 C204 0.913 . S
H224 C242 0.951 . S
H225 C244 0.951 . S
H226 C246 0.950 . S
H227 C247 0.950 . S
H228 C249 0.950 . S
H229 C252 0.950 . S
H230 C253 0.950 . S
H231 C255 0.950 . S
H232 C256 0.950 . S
H233 C257 0.951 . S
H234 C259 0.951 . S
H235 C261 0.950 . S
H236 C262 0.950 . S
H237 C264 0.950 . S
H238 C267 0.950 . S
H239 C268 0.950 . S
H240 C270 0.950 . S
H241 C271 0.950 . S
C242 H224 0.951 . S
C242 C243 1.366 . S
C242 C244 1.388 . S
C243 C242 1.366 . S
C243 C247 1.385 . S
C244 H225 0.951 . S
C244 C242 1.388 . S
C244 C245 1.366 . S
C245 C244 1.366 . S
C245 C246 1.414 . S
C245 C248 1.499 . S
C246 H226 0.950 . S
C246 C245 1.414 . S
C246 C247 1.374 . S
C247 H227 0.950 . S
C247 C243 1.385 . S
C247 C246 1.374 . S
C248 C245 1.499 . S
C248 C249 1.373 . S
C248 C250 1.389 . S
C249 H228 0.950 . S
C249 C248 1.373 . S
C249 C265 1.377 . S
C250 C248 1.389 . S
C250 C251 1.524 . S
C250 C264 1.377 . S
C251 C250 1.524 . S
C251 C252 1.397 . S
C251 C256 1.363 . S
C252 H229 0.950 . S
C252 C251 1.397 . S
C252 C253 1.334 . S
C253 H230 0.950 . S
C253 C252 1.334 . S
C253 C254 1.287 . S
C254 C253 1.287 . S
C254 C255 1.524 . S
C254 H273 0.913 . S
C255 H231 0.950 . S
C255 C254 1.524 . S
C255 C256 1.415 . S
C256 H232 0.950 . S
C256 C251 1.363 . S
C256 C255 1.415 . S
C257 H233 0.951 . S
C257 C258 1.366 . S
C257 C259 1.388 . S
C258 C257 1.366 . S
C258 C262 1.385 . S
C259 H234 0.951 . S
C259 C257 1.388 . S
C259 C260 1.366 . S
C260 C259 1.366 . S
C260 C261 1.414 . S
C260 C263 1.499 . S
C261 H235 0.950 . S
C261 C260 1.414 . S
C261 C262 1.374 . S
C262 H236 0.950 . S
C262 C258 1.385 . S
C262 C261 1.374 . S
C263 C260 1.499 . S
C263 C264 1.373 . S
C263 C265 1.389 . S
C264 H237 0.950 . S
C264 C250 1.377 . S
C264 C263 1.373 . S
C265 C249 1.377 . S
C265 C263 1.389 . S
C265 C266 1.524 . S
C266 C265 1.524 . S
C266 C267 1.397 . S
C266 C271 1.363 . S
C267 H238 0.950 . S
C267 C266 1.397 . S
C267 C268 1.334 . S
C268 H239 0.950 . S
C268 C267 1.334 . S
C268 C269 1.287 . S
C269 C268 1.287 . S
C269 C270 1.524 . S
C269 H272 0.999 . S
C270 H240 0.950 . S
C270 C269 1.524 . S
C270 C271 1.415 . S
C271 H241 0.950 . S
C271 C266 1.363 . S
C271 C270 1.415 . S
H272 C269 0.999 . S
H273 C254 0.913 . S
H274 C292 0.951 . S
H275 C294 0.951 . S
H276 C296 0.950 . S
H277 C297 0.950 . S
H278 C299 0.950 . S
H279 C302 0.950 . S
H280 C303 0.950 . S
H281 C305 0.950 . S
H282 C306 0.950 . S
H283 C307 0.951 . S
H284 C309 0.951 . S
H285 C311 0.950 . S
H286 C312 0.950 . S
H287 C314 0.950 . S
H288 C317 0.950 . S
H289 C318 0.950 1_545 S
H290 C320 0.950 . S
H291 C321 0.950 . S
C292 H274 0.951 . S
C292 C293 1.366 . S
C292 C294 1.388 . S
C293 C292 1.366 . S
C293 C297 1.385 . S
C294 H275 0.951 . S
C294 C292 1.388 . S
C294 C295 1.366 . S
C295 C294 1.366 . S
C295 C296 1.414 . S
C295 C298 1.499 . S
C296 H276 0.950 . S
C296 C295 1.414 . S
C296 C297 1.374 . S
C297 H277 0.950 . S
C297 C293 1.385 . S
C297 C296 1.374 . S
C298 C295 1.499 . S
C298 C299 1.373 . S
C298 C300 1.389 . S
C299 H278 0.950 . S
C299 C298 1.373 . S
C299 C315 1.377 . S
C300 C298 1.389 . S
C300 C301 1.524 . S
C300 C314 1.377 . S
C301 C300 1.524 . S
C301 C302 1.397 . S
C301 C306 1.363 . S
C302 H279 0.950 . S
C302 C301 1.397 . S
C302 C303 1.334 . S
C303 H280 0.950 . S
C303 C302 1.334 . S
C303 C304 1.287 . S
C304 C303 1.287 . S
C304 C305 1.524 . S
C304 H323 0.913 . S
C305 H281 0.950 . S
C305 C304 1.524 . S
C305 C306 1.415 . S
C306 H282 0.950 . S
C306 C301 1.363 . S
C306 C305 1.415 . S
C307 H283 0.951 . S
C307 C308 1.366 . S
C307 C309 1.388 . S
C308 C307 1.366 . S
C308 C312 1.385 . S
C309 H284 0.951 . S
C309 C307 1.388 . S
C309 C310 1.366 . S
C310 C309 1.366 . S
C310 C311 1.414 . S
C310 C313 1.499 . S
C311 H285 0.950 . S
C311 C310 1.414 . S
C311 C312 1.374 . S
C312 H286 0.950 . S
C312 C308 1.385 . S
C312 C311 1.374 . S
C313 C310 1.499 . S
C313 C314 1.373 . S
C313 C315 1.389 . S
C314 H287 0.950 . S
C314 C300 1.377 . S
C314 C313 1.373 . S
C315 C299 1.377 . S
C315 C313 1.389 . S
C315 C316 1.524 . S
C316 C315 1.524 . S
C316 C317 1.397 . S
C316 C321 1.363 . S
C317 H288 0.950 . S
C317 C316 1.397 . S
C317 C318 1.334 . S
C318 H289 0.950 1_565 S
C318 C317 1.334 . S
C318 C319 1.287 . S
C319 C318 1.287 . S
C319 C320 1.524 . S
C319 H322 0.999 . S
C320 H290 0.950 . S
C320 C319 1.524 . S
C320 C321 1.415 . S
C321 H291 0.950 . S
C321 C316 1.363 . S
C321 C320 1.415 . S
H322 C319 0.999 . S
H323 C304 0.913 . S
H324 C342 0.951 . S
H325 C344 0.951 . S
H326 C346 0.950 . S
H327 C347 0.950 . S
H328 C349 0.950 . S
H329 C352 0.950 . S
H330 C353 0.950 . S
H331 C355 0.950 . S
H332 C356 0.950 . S
H333 C357 0.951 . S
H334 C359 0.951 . S
H335 C361 0.950 . S
H336 C362 0.950 . S
H337 C364 0.950 . S
H338 C367 0.950 . S
H339 C368 0.950 . S
H340 C370 0.950 . S
H341 C371 0.950 . S
C342 H324 0.951 . S
C342 C343 1.366 . S
C342 C344 1.388 . S
C343 C342 1.366 . S
C343 C347 1.385 . S
C344 H325 0.951 . S
C344 C342 1.388 . S
C344 C345 1.366 . S
C345 C344 1.366 . S
C345 C346 1.414 . S
C345 C348 1.499 . S
C346 H326 0.950 . S
C346 C345 1.414 . S
C346 C347 1.374 . S
C347 H327 0.950 . S
C347 C343 1.385 . S
C347 C346 1.374 . S
C348 C345 1.499 . S
C348 C349 1.373 . S
C348 C350 1.389 . S
C349 H328 0.950 . S
C349 C348 1.373 . S
C349 C365 1.377 . S
C350 C348 1.389 . S
C350 C351 1.524 . S
C350 C364 1.377 . S
C351 C350 1.524 . S
C351 C352 1.397 . S
C351 C356 1.363 . S
C352 H329 0.950 . S
C352 C351 1.397 . S
C352 C353 1.334 . S
C353 H330 0.950 . S
C353 C352 1.334 . S
C353 C354 1.287 . S
C354 C353 1.287 . S
C354 C355 1.524 . S
C354 H373 0.913 . S
C355 H331 0.950 . S
C355 C354 1.524 . S
C355 C356 1.415 . S
C356 H332 0.950 . S
C356 C351 1.363 . S
C356 C355 1.415 . S
C357 H333 0.951 . S
C357 C358 1.366 . S
C357 C359 1.388 . S
C358 C357 1.366 . S
C358 C362 1.385 . S
C359 H334 0.951 . S
C359 C357 1.388 . S
C359 C360 1.366 . S
C360 C359 1.366 . S
C360 C361 1.414 . S
C360 C363 1.499 . S
C361 H335 0.950 . S
C361 C360 1.414 . S
C361 C362 1.374 . S
C362 H336 0.950 . S
C362 C358 1.385 . S
C362 C361 1.374 . S
C363 C360 1.499 . S
C363 C364 1.373 . S
C363 C365 1.389 . S
C364 H337 0.950 . S
C364 C350 1.377 . S
C364 C363 1.373 . S
C365 C349 1.377 . S
C365 C363 1.389 . S
C365 C366 1.524 . S
C366 C365 1.524 . S
C366 C367 1.397 . S
C366 C371 1.363 . S
C367 H338 0.950 . S
C367 C366 1.397 . S
C367 C368 1.334 . S
C368 H339 0.950 . S
C368 C367 1.334 . S
C368 C369 1.287 . S
C369 C368 1.287 . S
C369 C370 1.524 . S
C369 H372 0.999 . S
C370 H340 0.950 . S
C370 C369 1.524 . S
C370 C371 1.415 . S
C371 H341 0.950 . S
C371 C366 1.363 . S
C371 C370 1.415 . S
H372 C369 0.999 . S
H373 C354 0.913 . S
H374 C392 0.951 . S
H375 C394 0.951 . S
H376 C396 0.950 . S
H377 C397 0.950 . S
H378 C399 0.950 . S
H379 C402 0.950 . S
H380 C403 0.950 . S
H381 C405 0.950 . S
H382 C406 0.950 . S
H383 C407 0.951 . S
H384 C409 0.951 . S
H385 C411 0.950 . S
H386 C412 0.950 . S
H387 C414 0.950 . S
H388 C417 0.950 . S
H389 C418 0.950 . S
H390 C420 0.950 . S
H391 C421 0.950 . S
C392 H374 0.951 . S
C392 C393 1.366 . S
C392 C394 1.388 . S
C393 C392 1.366 . S
C393 C397 1.385 . S
C394 H375 0.951 . S
C394 C392 1.388 . S
C394 C395 1.366 . S
C395 C394 1.366 . S
C395 C396 1.414 . S
C395 C398 1.499 . S
C396 H376 0.950 . S
C396 C395 1.414 . S
C396 C397 1.374 . S
C397 H377 0.950 . S
C397 C393 1.385 . S
C397 C396 1.374 . S
C398 C395 1.499 . S
C398 C399 1.373 . S
C398 C400 1.389 . S
C399 H378 0.950 . S
C399 C398 1.373 . S
C399 C415 1.377 . S
C400 C398 1.389 . S
C400 C401 1.524 . S
C400 C414 1.377 . S
C401 C400 1.524 . S
C401 C402 1.397 . S
C401 C406 1.363 . S
C402 H379 0.950 . S
C402 C401 1.397 . S
C402 C403 1.334 . S
C403 H380 0.950 . S
C403 C402 1.334 . S
C403 C404 1.287 . S
C404 C403 1.287 . S
C404 C405 1.524 . S
C404 H423 0.913 . S
C405 H381 0.950 . S
C405 C404 1.524 . S
C405 C406 1.415 . S
C406 H382 0.950 . S
C406 C401 1.363 . S
C406 C405 1.415 . S
C407 H383 0.951 . S
C407 C408 1.366 . S
C407 C409 1.388 . S
C408 C407 1.366 . S
C408 C412 1.385 . S
C409 H384 0.951 . S
C409 C407 1.388 . S
C409 C410 1.366 . S
C410 C409 1.366 . S
C410 C411 1.414 . S
C410 C413 1.499 . S
C411 H385 0.950 . S
C411 C410 1.414 . S
C411 C412 1.374 . S
C412 H386 0.950 . S
C412 C408 1.385 . S
C412 C411 1.374 . S
C413 C410 1.499 . S
C413 C414 1.373 . S
C413 C415 1.389 . S
C414 H387 0.950 . S
C414 C400 1.377 . S
C414 C413 1.373 . S
C415 C399 1.377 . S
C415 C413 1.389 . S
C415 C416 1.524 . S
C416 C415 1.524 . S
C416 C417 1.397 . S
C416 C421 1.363 . S
C417 H388 0.950 . S
C417 C416 1.397 . S
C417 C418 1.334 . S
C418 H389 0.950 . S
C418 C417 1.334 . S
C418 C419 1.287 . S
C419 C418 1.287 . S
C419 C420 1.524 . S
C419 H422 0.999 . S
C420 H390 0.950 . S
C420 C419 1.524 . S
C420 C421 1.415 . S
C421 H391 0.950 . S
C421 C416 1.363 . S
C421 C420 1.415 . S
H422 C419 0.999 . S
H423 C404 0.913 . S
H424 C442 0.951 . S
H425 C444 0.951 . S
H426 C446 0.950 . S
H427 C447 0.950 . S
H428 C449 0.950 . S
H429 C452 0.950 . S
H430 C453 0.950 . S
H431 C455 0.950 . S
H432 C456 0.950 . S
H433 C457 0.951 . S
H434 C459 0.951 . S
H435 C461 0.950 . S
H436 C462 0.950 . S
H437 C464 0.950 . S
H438 C467 0.950 . S
H439 C468 0.950 . S
H440 C470 0.950 . S
H441 C471 0.950 . S
C442 H424 0.951 . S
C442 C443 1.366 . S
C442 C444 1.388 . S
C443 C442 1.366 . S
C443 C447 1.385 . S
C444 H425 0.951 . S
C444 C442 1.388 . S
C444 C445 1.366 . S
C445 C444 1.366 . S
C445 C446 1.414 . S
C445 C448 1.499 . S
C446 H426 0.950 . S
C446 C445 1.414 . S
C446 C447 1.374 . S
C447 H427 0.950 . S
C447 C443 1.385 . S
C447 C446 1.374 . S
C448 C445 1.499 . S
C448 C449 1.373 . S
C448 C450 1.389 . S
C449 H428 0.950 . S
C449 C448 1.373 . S
C449 C465 1.377 . S
C450 C448 1.389 . S
C450 C451 1.524 . S
C450 C464 1.377 . S
C451 C450 1.524 . S
C451 C452 1.397 . S
C451 C456 1.363 . S
C452 H429 0.950 . S
C452 C451 1.397 . S
C452 C453 1.334 . S
C453 H430 0.950 . S
C453 C452 1.334 . S
C453 C454 1.287 . S
C454 C453 1.287 . S
C454 C455 1.524 . S
C454 H473 0.913 . S
C455 H431 0.950 . S
C455 C454 1.524 . S
C455 C456 1.415 . S
C456 H432 0.950 . S
C456 C451 1.363 . S
C456 C455 1.415 . S
C457 H433 0.951 . S
C457 C458 1.366 . S
C457 C459 1.388 . S
C458 C457 1.366 . S
C458 C462 1.385 . S
C459 H434 0.951 . S
C459 C457 1.388 . S
C459 C460 1.366 . S
C460 C459 1.366 . S
C460 C461 1.414 . S
C460 C463 1.499 . S
C461 H435 0.950 . S
C461 C460 1.414 . S
C461 C462 1.374 . S
C462 H436 0.950 . S
C462 C458 1.385 . S
C462 C461 1.374 . S
C463 C460 1.499 . S
C463 C464 1.373 . S
C463 C465 1.389 . S
C464 H437 0.950 . S
C464 C450 1.377 . S
C464 C463 1.373 . S
C465 C449 1.377 . S
C465 C463 1.389 . S
C465 C466 1.524 . S
C466 C465 1.524 . S
C466 C467 1.397 . S
C466 C471 1.363 . S
C467 H438 0.950 . S
C467 C466 1.397 . S
C467 C468 1.334 . S
C468 H439 0.950 . S
C468 C467 1.334 . S
C468 C469 1.287 . S
C469 C468 1.287 . S
C469 C470 1.524 . S
C469 H472 0.999 . S
C470 H440 0.950 . S
C470 C469 1.524 . S
C470 C471 1.415 . S
C471 H441 0.950 . S
C471 C466 1.363 . S
C471 C470 1.415 . S
H472 C469 0.999 . S
H473 C454 0.913 . S
H474 C492 0.951 . S
H475 C494 0.951 . S
H476 C496 0.950 . S
H477 C497 0.950 . S
H478 C499 0.950 . S
H479 C502 0.950 . S
H480 C503 0.950 . S
H481 C505 0.950 . S
H482 C506 0.950 . S
H483 C507 0.951 . S
H484 C509 0.951 . S
H485 C511 0.950 . S
H486 C512 0.950 . S
H487 C514 0.950 . S
H488 C517 0.950 . S
H489 C518 0.950 . S
H490 C520 0.950 . S
H491 C521 0.950 . S
C492 H474 0.951 . S
C492 C493 1.366 . S
C492 C494 1.388 . S
C493 C492 1.366 . S
C493 C497 1.385 . S
C494 H475 0.951 . S
C494 C492 1.388 . S
C494 C495 1.366 . S
C495 C494 1.366 . S
C495 C496 1.414 . S
C495 C498 1.499 . S
C496 H476 0.950 . S
C496 C495 1.414 . S
C496 C497 1.374 . S
C497 H477 0.950 . S
C497 C493 1.385 . S
C497 C496 1.374 . S
C498 C495 1.499 . S
C498 C499 1.373 . S
C498 C500 1.389 . S
C499 H478 0.950 . S
C499 C498 1.373 . S
C499 C515 1.377 . S
C500 C498 1.389 . S
C500 C501 1.524 . S
C500 C514 1.377 . S
C501 C500 1.524 . S
C501 C502 1.397 . S
C501 C506 1.363 . S
C502 H479 0.950 . S
C502 C501 1.397 . S
C502 C503 1.334 . S
C503 H480 0.950 . S
C503 C502 1.334 . S
C503 C504 1.287 . S
C504 C503 1.287 . S
C504 C505 1.524 . S
C504 H523 0.913 . S
C505 H481 0.950 . S
C505 C504 1.524 . S
C505 C506 1.415 . S
C506 H482 0.950 . S
C506 C501 1.363 . S
C506 C505 1.415 . S
C507 H483 0.951 . S
C507 C508 1.366 . S
C507 C509 1.388 . S
C508 C507 1.366 . S
C508 C512 1.385 . S
C509 H484 0.951 . S
C509 C507 1.388 . S
C509 C510 1.366 . S
C510 C509 1.366 . S
C510 C511 1.414 . S
C510 C513 1.499 . S
C511 H485 0.950 . S
C511 C510 1.414 . S
C511 C512 1.374 . S
C512 H486 0.950 . S
C512 C508 1.385 . S
C512 C511 1.374 . S
C513 C510 1.499 . S
C513 C514 1.373 . S
C513 C515 1.389 . S
C514 H487 0.950 . S
C514 C500 1.377 . S
C514 C513 1.373 . S
C515 C499 1.377 . S
C515 C513 1.389 . S
C515 C516 1.524 . S
C516 C515 1.524 . S
C516 C517 1.397 . S
C516 C521 1.363 . S
C517 H488 0.950 . S
C517 C516 1.397 . S
C517 C518 1.334 . S
C518 H489 0.950 . S
C518 C517 1.334 . S
C518 C519 1.287 . S
C519 C518 1.287 . S
C519 C520 1.524 . S
C519 H522 0.999 . S
C520 H490 0.950 . S
C520 C519 1.524 . S
C520 C521 1.415 . S
C521 H491 0.950 . S
C521 C516 1.363 . S
C521 C520 1.415 . S
H522 C519 0.999 . S
H523 C504 0.913 . S
H524 C542 0.951 . S
H525 C544 0.951 . S
H526 C546 0.950 . S
H527 C547 0.950 . S
H528 C549 0.950 . S
H529 C552 0.950 . S
H530 C553 0.950 . S
H531 C555 0.950 . S
H532 C556 0.950 . S
H533 C557 0.951 . S
H534 C559 0.951 . S
H535 C561 0.950 . S
H536 C562 0.950 . S
H537 C564 0.950 . S
H538 C567 0.950 . S
H539 C568 0.950 . S
H540 C570 0.950 . S
H541 C571 0.950 . S
C542 H524 0.951 . S
C542 C543 1.366 . S
C542 C544 1.388 . S
C543 C542 1.366 . S
C543 C547 1.385 . S
C544 H525 0.951 . S
C544 C542 1.388 . S
C544 C545 1.366 . S
C545 C544 1.366 . S
C545 C546 1.414 . S
C545 C548 1.499 . S
C546 H526 0.950 . S
C546 C545 1.414 . S
C546 C547 1.374 . S
C547 H527 0.950 . S
C547 C543 1.385 . S
C547 C546 1.374 . S
C548 C545 1.499 . S
C548 C549 1.373 . S
C548 C550 1.389 . S
C549 H528 0.950 . S
C549 C548 1.373 . S
C549 C565 1.377 . S
C550 C548 1.389 . S
C550 C551 1.524 . S
C550 C564 1.377 . S
C551 C550 1.524 . S
C551 C552 1.397 . S
C551 C556 1.363 . S
C552 H529 0.950 . S
C552 C551 1.397 . S
C552 C553 1.334 . S
C553 H530 0.950 . S
C553 C552 1.334 . S
C553 C554 1.287 . S
C554 C553 1.287 . S
C554 C555 1.524 . S
C554 H573 0.913 . S
C555 H531 0.950 . S
C555 C554 1.524 . S
C555 C556 1.415 . S
C556 H532 0.950 . S
C556 C551 1.363 . S
C556 C555 1.415 . S
C557 H533 0.951 . S
C557 C558 1.366 . S
C557 C559 1.388 . S
C558 C557 1.366 . S
C558 C562 1.385 . S
C559 H534 0.951 . S
C559 C557 1.388 . S
C559 C560 1.366 . S
C560 C559 1.366 . S
C560 C561 1.414 . S
C560 C563 1.499 . S
C561 H535 0.950 . S
C561 C560 1.414 . S
C561 C562 1.374 . S
C562 H536 0.950 . S
C562 C558 1.385 . S
C562 C561 1.374 . S
C563 C560 1.499 . S
C563 C564 1.373 . S
C563 C565 1.389 . S
C564 H537 0.950 . S
C564 C550 1.377 . S
C564 C563 1.373 . S
C565 C549 1.377 . S
C565 C563 1.389 . S
C565 C566 1.524 . S
C566 C565 1.524 . S
C566 C567 1.397 . S
C566 C571 1.363 . S
C567 H538 0.950 . S
C567 C566 1.397 . S
C567 C568 1.334 . S
C568 H539 0.950 . S
C568 C567 1.334 . S
C568 C569 1.287 . S
C569 C568 1.287 . S
C569 C570 1.524 . S
C569 H572 0.999 . S
C570 H540 0.950 . S
C570 C569 1.524 . S
C570 C571 1.415 . S
C571 H541 0.950 . S
C571 C566 1.363 . S
C571 C570 1.415 . S
H572 C569 0.999 . S
H573 C554 0.913 . S
H574 C592 0.951 . S
H575 C594 0.951 . S
H576 C596 0.950 . S
H577 C597 0.950 . S
H578 C599 0.950 . S
H579 C602 0.950 . S
H580 C603 0.950 . S
H581 C605 0.950 . S
H582 C606 0.950 . S
H583 C607 0.951 . S
H584 C609 0.951 . S
H585 C611 0.950 . S
H586 C612 0.950 . S
H587 C614 0.950 . S
H588 C617 0.950 . S
H589 C618 0.950 . S
H590 C620 0.950 . S
H591 C621 0.950 . S
C592 H574 0.951 . S
C592 C593 1.366 . S
C592 C594 1.388 . S
C593 C592 1.366 . S
C593 C597 1.385 . S
C594 H575 0.951 . S
C594 C592 1.388 . S
C594 C595 1.366 . S
C595 C594 1.366 . S
C595 C596 1.414 . S
C595 C598 1.499 . S
C596 H576 0.950 . S
C596 C595 1.414 . S
C596 C597 1.374 . S
C597 H577 0.950 . S
C597 C593 1.385 . S
C597 C596 1.374 . S
C598 C595 1.499 . S
C598 C599 1.373 . S
C598 C600 1.389 . S
C599 H578 0.950 . S
C599 C598 1.373 . S
C599 C615 1.377 . S
C600 C598 1.389 . S
C600 C601 1.524 . S
C600 C614 1.377 . S
C601 C600 1.524 . S
C601 C602 1.397 . S
C601 C606 1.363 . S
C602 H579 0.950 . S
C602 C601 1.397 . S
C602 C603 1.334 . S
C603 H580 0.950 . S
C603 C602 1.334 . S
C603 C604 1.287 . S
C604 C603 1.287 . S
C604 C605 1.524 . S
C604 H623 0.913 . S
C605 H581 0.950 . S
C605 C604 1.524 . S
C605 C606 1.415 . S
C606 H582 0.950 . S
C606 C601 1.363 . S
C606 C605 1.415 . S
C607 H583 0.951 . S
C607 C608 1.366 . S
C607 C609 1.388 . S
C608 C607 1.366 . S
C608 C612 1.385 . S
C609 H584 0.951 . S
C609 C607 1.388 . S
C609 C610 1.366 . S
C610 C609 1.366 . S
C610 C611 1.414 . S
C610 C613 1.499 . S
C611 H585 0.950 . S
C611 C610 1.414 . S
C611 C612 1.374 . S
C612 H586 0.950 . S
C612 C608 1.385 . S
C612 C611 1.374 . S
C613 C610 1.499 . S
C613 C614 1.373 . S
C613 C615 1.389 . S
C614 H587 0.950 . S
C614 C600 1.377 . S
C614 C613 1.373 . S
C615 C599 1.377 . S
C615 C613 1.389 . S
C615 C616 1.524 . S
C616 C615 1.524 . S
C616 C617 1.397 . S
C616 C621 1.363 . S
C617 H588 0.950 . S
C617 C616 1.397 . S
C617 C618 1.334 . S
C618 H589 0.950 . S
C618 C617 1.334 . S
C618 C619 1.287 . S
C619 C618 1.287 . S
C619 C620 1.524 . S
C619 H622 0.999 . S
C620 H590 0.950 . S
C620 C619 1.524 . S
C620 C621 1.415 . S
C621 H591 0.950 . S
C621 C616 1.363 . S
C621 C620 1.415 . S
H622 C619 0.999 . S
H623 C604 0.913 . S
H624 C642 0.951 . S
H625 C644 0.951 . S
H626 C646 0.950 . S
H627 C647 0.950 . S
H628 C649 0.950 . S
H629 C652 0.950 . S
H630 C653 0.950 . S
H631 C655 0.950 . S
H632 C656 0.950 . S
H633 C657 0.951 . S
H634 C659 0.951 . S
H635 C661 0.950 . S
H636 C662 0.950 . S
H637 C664 0.950 . S
H638 C667 0.950 . S
H639 C668 0.950 . S
H640 C670 0.950 . S
H641 C671 0.950 . S
C642 H624 0.951 . S
C642 C643 1.366 . S
C642 C644 1.388 . S
C643 C642 1.366 . S
C643 C647 1.385 . S
C644 H625 0.951 . S
C644 C642 1.388 . S
C644 C645 1.366 . S
C645 C644 1.366 . S
C645 C646 1.414 . S
C645 C648 1.499 . S
C646 H626 0.950 . S
C646 C645 1.414 . S
C646 C647 1.374 . S
C647 H627 0.950 . S
C647 C643 1.385 . S
C647 C646 1.374 . S
C648 C645 1.499 . S
C648 C649 1.373 . S
C648 C650 1.389 . S
C649 H628 0.950 . S
C649 C648 1.373 . S
C649 C665 1.377 . S
C650 C648 1.389 . S
C650 C651 1.524 . S
C650 C664 1.377 . S
C651 C650 1.524 . S
C651 C652 1.397 . S
C651 C656 1.363 . S
C652 H629 0.950 . S
C652 C651 1.397 . S
C652 C653 1.334 . S
C653 H630 0.950 . S
C653 C652 1.334 . S
C653 C654 1.287 . S
C654 C653 1.287 . S
C654 C655 1.524 . S
C654 H673 0.913 . S
C655 H631 0.950 . S
C655 C654 1.524 . S
C655 C656 1.415 . S
C656 H632 0.950 . S
C656 C651 1.363 . S
C656 C655 1.415 . S
C657 H633 0.951 . S
C657 C658 1.366 . S
C657 C659 1.388 . S
C658 C657 1.366 . S
C658 C662 1.385 . S
C659 H634 0.951 . S
C659 C657 1.388 . S
C659 C660 1.366 . S
C660 C659 1.366 . S
C660 C661 1.414 . S
C660 C663 1.499 . S
C661 H635 0.950 . S
C661 C660 1.414 . S
C661 C662 1.374 . S
C662 H636 0.950 . S
C662 C658 1.385 . S
C662 C661 1.374 . S
C663 C660 1.499 . S
C663 C664 1.373 . S
C663 C665 1.389 . S
C664 H637 0.950 . S
C664 C650 1.377 . S
C664 C663 1.373 . S
C665 C649 1.377 . S
C665 C663 1.389 . S
C665 C666 1.524 . S
C666 C665 1.524 . S
C666 C667 1.397 . S
C666 C671 1.363 . S
C667 H638 0.950 . S
C667 C666 1.397 . S
C667 C668 1.334 . S
C668 H639 0.950 . S
C668 C667 1.334 . S
C668 C669 1.287 . S
C669 C668 1.287 . S
C669 C670 1.524 . S
C669 H672 0.999 . S
C670 H640 0.950 . S
C670 C669 1.524 . S
C670 C671 1.415 . S
C671 H641 0.950 . S
C671 C666 1.363 . S
C671 C670 1.415 . S
H672 C669 0.999 . S
H673 C654 0.913 . S
H674 C692 0.951 . S
H675 C694 0.951 . S
H676 C696 0.950 . S
H677 C697 0.950 . S
H678 C699 0.950 . S
H679 C702 0.950 . S
H680 C703 0.950 . S
H681 C705 0.950 . S
H682 C706 0.950 . S
H683 C707 0.951 . S
H684 C709 0.951 . S
H685 C711 0.950 . S
H686 C712 0.950 . S
H687 C714 0.950 . S
H688 C717 0.950 . S
H689 C718 0.950 . S
H690 C720 0.950 . S
H691 C721 0.950 . S
C692 H674 0.951 . S
C692 C693 1.366 . S
C692 C694 1.388 . S
C693 C692 1.366 . S
C693 C697 1.385 . S
C694 H675 0.951 . S
C694 C692 1.388 . S
C694 C695 1.366 . S
C695 C694 1.366 . S
C695 C696 1.414 . S
C695 C698 1.499 . S
C696 H676 0.950 . S
C696 C695 1.414 . S
C696 C697 1.374 . S
C697 H677 0.950 . S
C697 C693 1.385 . S
C697 C696 1.374 . S
C698 C695 1.499 . S
C698 C699 1.373 . S
C698 C700 1.389 . S
C699 H678 0.950 . S
C699 C698 1.373 . S
C699 C715 1.377 . S
C700 C698 1.389 . S
C700 C701 1.524 . S
C700 C714 1.377 . S
C701 C700 1.524 . S
C701 C702 1.397 . S
C701 C706 1.363 . S
C702 H679 0.950 . S
C702 C701 1.397 . S
C702 C703 1.334 . S
C703 H680 0.950 . S
C703 C702 1.334 . S
C703 C704 1.287 . S
C704 C703 1.287 . S
C704 C705 1.524 . S
C704 H723 0.913 . S
C705 H681 0.950 . S
C705 C704 1.524 . S
C705 C706 1.415 . S
C706 H682 0.950 . S
C706 C701 1.363 . S
C706 C705 1.415 . S
C707 H683 0.951 . S
C707 C708 1.366 . S
C707 C709 1.388 . S
C708 C707 1.366 . S
C708 C712 1.385 . S
C709 H684 0.951 . S
C709 C707 1.388 . S
C709 C710 1.366 . S
C710 C709 1.366 . S
C710 C711 1.414 . S
C710 C713 1.499 . S
C711 H685 0.950 . S
C711 C710 1.414 . S
C711 C712 1.374 . S
C712 H686 0.950 . S
C712 C708 1.385 . S
C712 C711 1.374 . S
C713 C710 1.499 . S
C713 C714 1.373 . S
C713 C715 1.389 . S
C714 H687 0.950 . S
C714 C700 1.377 . S
C714 C713 1.373 . S
C715 C699 1.377 . S
C715 C713 1.389 . S
C715 C716 1.524 . S
C716 C715 1.524 . S
C716 C717 1.397 . S
C716 C721 1.363 . S
C717 H688 0.950 . S
C717 C716 1.397 . S
C717 C718 1.334 . S
C718 H689 0.950 . S
C718 C717 1.334 . S
C718 C719 1.287 . S
C719 C718 1.287 . S
C719 C720 1.524 . S
C719 H722 0.999 . S
C720 H690 0.950 . S
C720 C719 1.524 . S
C720 C721 1.415 . S
C721 H691 0.950 . S
C721 C716 1.363 . S
C721 C720 1.415 . S
H722 C719 0.999 . S
H723 C704 0.913 . S
H724 C742 0.951 . S
H725 C744 0.951 . S
H726 C746 0.950 . S
H727 C747 0.950 . S
H728 C749 0.950 . S
H729 C752 0.950 . S
H730 C753 0.950 . S
H731 C755 0.950 . S
H732 C756 0.950 . S
H733 C757 0.951 . S
H734 C759 0.951 . S
H735 C761 0.950 . S
H736 C762 0.950 . S
H737 C764 0.950 . S
H738 C767 0.950 . S
H739 C768 0.950 . S
H740 C770 0.950 . S
H741 C771 0.950 . S
C742 H724 0.951 . S
C742 C743 1.366 . S
C742 C744 1.388 . S
C743 C742 1.366 . S
C743 C747 1.385 . S
C744 H725 0.951 . S
C744 C742 1.388 . S
C744 C745 1.366 . S
C745 C744 1.366 . S
C745 C746 1.414 . S
C745 C748 1.499 . S
C746 H726 0.950 . S
C746 C745 1.414 . S
C746 C747 1.374 . S
C747 H727 0.950 . S
C747 C743 1.385 . S
C747 C746 1.374 . S
C748 C745 1.499 . S
C748 C749 1.373 . S
C748 C750 1.389 . S
C749 H728 0.950 . S
C749 C748 1.373 . S
C749 C765 1.377 . S
C750 C748 1.389 . S
C750 C751 1.524 . S
C750 C764 1.377 . S
C751 C750 1.524 . S
C751 C752 1.397 . S
C751 C756 1.363 . S
C752 H729 0.950 . S
C752 C751 1.397 . S
C752 C753 1.334 . S
C753 H730 0.950 . S
C753 C752 1.334 . S
C753 C754 1.287 . S
C754 C753 1.287 . S
C754 C755 1.524 . S
C754 H773 0.913 . S
C755 H731 0.950 . S
C755 C754 1.524 . S
C755 C756 1.415 . S
C756 H732 0.950 . S
C756 C751 1.363 . S
C756 C755 1.415 . S
C757 H733 0.951 . S
C757 C758 1.366 . S
C757 C759 1.388 . S
C758 C757 1.366 . S
C758 C762 1.385 . S
C759 H734 0.951 . S
C759 C757 1.388 . S
C759 C760 1.366 . S
C760 C759 1.366 . S
C760 C761 1.414 . S
C760 C763 1.499 . S
C761 H735 0.950 . S
C761 C760 1.414 . S
C761 C762 1.374 . S
C762 H736 0.950 . S
C762 C758 1.385 . S
C762 C761 1.374 . S
C763 C760 1.499 . S
C763 C764 1.373 . S
C763 C765 1.389 . S
C764 H737 0.950 . S
C764 C750 1.377 . S
C764 C763 1.373 . S
C765 C749 1.377 . S
C765 C763 1.389 . S
C765 C766 1.524 . S
C766 C765 1.524 . S
C766 C767 1.397 . S
C766 C771 1.363 . S
C767 H738 0.950 . S
C767 C766 1.397 . S
C767 C768 1.334 . S
C768 H739 0.950 . S
C768 C767 1.334 . S
C768 C769 1.287 . S
C769 C768 1.287 . S
C769 C770 1.524 . S
C769 H772 0.999 . S
C770 H740 0.950 . S
C770 C769 1.524 . S
C770 C771 1.415 . S
C771 H741 0.950 . S
C771 C766 1.363 . S
C771 C770 1.415 . S
H772 C769 0.999 . S
H773 C754 0.913 . S
H774 C792 0.951 . S
H775 C794 0.951 . S
H776 C796 0.950 . S
H777 C797 0.950 . S
H778 C799 0.950 1_655 S
H779 C802 0.950 . S
H780 C803 0.950 . S
H781 C805 0.950 . S
H782 C806 0.950 . S
H783 C807 0.951 . S
H784 C809 0.951 . S
H785 C811 0.950 . S
H786 C812 0.950 . S
H787 C814 0.950 . S
H788 C817 0.950 . S
H789 C818 0.950 . S
H790 C820 0.943 1_554 S
H791 C821 0.950 . S
C792 H774 0.951 . S
C792 C793 1.366 . S
C792 C794 1.388 . S
C793 C792 1.366 . S
C793 C797 1.385 . S
C794 H775 0.951 . S
C794 C792 1.388 . S
C794 C795 1.366 . S
C795 C794 1.366 . S
C795 C796 1.414 . S
C795 C798 1.499 . S
C796 H776 0.950 . S
C796 C795 1.414 . S
C796 C797 1.374 . S
C797 H777 0.950 . S
C797 C793 1.385 . S
C797 C796 1.374 . S
C798 C795 1.499 . S
C798 C799 1.373 . S
C798 C800 1.389 . S
C799 H778 0.950 1_455 S
C799 C798 1.373 . S
C799 C815 1.377 . S
C800 C798 1.389 . S
C800 C801 1.524 . S
C800 C814 1.377 . S
C801 C800 1.524 . S
C801 C802 1.397 . S
C801 C806 1.363 . S
C802 H779 0.950 . S
C802 C801 1.397 . S
C802 C803 1.334 . S
C803 H780 0.950 . S
C803 C802 1.334 . S
C803 C804 1.287 . S
C804 C803 1.287 . S
C804 C805 1.524 . S
C804 H823 0.913 . S
C805 H781 0.950 . S
C805 C804 1.524 . S
C805 C806 1.415 . S
C806 H782 0.950 . S
C806 C801 1.363 . S
C806 C805 1.415 . S
C807 H783 0.951 . S
C807 C808 1.366 . S
C807 C809 1.388 . S
C808 C807 1.366 . S
C808 C812 1.385 . S
C809 H784 0.951 . S
C809 C807 1.388 . S
C809 C810 1.366 . S
C810 C809 1.366 . S
C810 C811 1.414 . S
C810 C813 1.483 1_556 S
C811 H785 0.950 . S
C811 C810 1.414 . S
C811 C812 1.374 . S
C812 H786 0.950 . S
C812 C808 1.385 . S
C812 C811 1.374 . S
C813 C810 1.483 1_554 S
C813 C814 1.381 . S
C813 C815 1.398 . S
C814 H787 0.950 . S
C814 C800 1.377 . S
C814 C813 1.381 . S
C815 C799 1.377 . S
C815 C813 1.398 . S
C815 C816 1.547 1_455 S
C816 C815 1.547 1_655 S
C816 C817 1.365 1_554 S
C816 C821 1.377 . S
C817 H788 0.950 . S
C817 C816 1.365 1_556 S
C817 C818 1.334 . S
C818 H789 0.950 . S
C818 C817 1.334 . S
C818 C819 1.287 . S
C819 C818 1.287 . S
C819 C820 1.524 . S
C819 H822 0.999 . S
C820 H790 0.943 1_556 S
C820 C819 1.524 . S
C820 C821 1.415 1_556 S
C821 H791 0.950 . S
C821 C816 1.377 . S
C821 C820 1.415 1_554 S
H822 C819 0.999 . S
H823 C804 0.913 . S
H824 C842 0.951 . S
H825 C844 0.951 . S
H826 C846 0.950 . S
H827 C847 0.950 . S
H828 C849 0.950 . S
H829 C852 0.950 . S
H830 C853 0.950 . S
H831 C855 0.950 . S
H832 C856 0.950 . S
H833 C857 0.951 . S
H834 C859 0.951 . S
H835 C861 0.950 . S
H836 C862 0.950 . S
H837 C864 0.950 . S
H838 C867 0.950 1_545 S
H839 C868 0.950 . S
H840 C870 0.950 . S
H841 C871 0.950 . S
C842 H824 0.951 . S
C842 C843 1.366 . S
C842 C844 1.388 . S
C843 C842 1.366 . S
C843 C847 1.385 1_545 S
C844 H825 0.951 . S
C844 C842 1.388 . S
C844 C845 1.366 . S
C845 C844 1.366 . S
C845 C846 1.414 1_545 S
C845 C848 1.499 . S
C846 H826 0.950 . S
C846 C845 1.414 1_565 S
C846 C847 1.374 . S
C847 H827 0.950 . S
C847 C843 1.385 1_565 S
C847 C846 1.374 . S
C848 C845 1.499 . S
C848 C849 1.373 1_545 S
C848 C850 1.389 . S
C849 H828 0.950 . S
C849 C848 1.373 1_565 S
C849 C865 1.377 . S
C850 C848 1.389 . S
C850 C851 1.524 . S
C850 C864 1.377 . S
C851 C850 1.524 . S
C851 C852 1.397 . S
C851 C856 1.363 . S
C852 H829 0.950 . S
C852 C851 1.397 . S
C852 C853 1.334 . S
C853 H830 0.950 . S
C853 C852 1.334 . S
C853 C854 1.287 . S
C854 C853 1.287 . S
C854 C855 1.524 . S
C854 H873 0.913 . S
C855 H831 0.950 . S
C855 C854 1.524 . S
C855 C856 1.415 . S
C856 H832 0.950 . S
C856 C851 1.363 . S
C856 C855 1.415 . S
C857 H833 0.951 . S
C857 C858 1.366 1_565 S
C857 C859 1.388 . S
C858 C857 1.366 1_545 S
C858 C862 1.385 . S
C859 H834 0.951 . S
C859 C857 1.388 . S
C859 C860 1.366 1_565 S
C860 C859 1.366 1_545 S
C860 C861 1.414 . S
C860 C863 1.499 . S
C861 H835 0.950 . S
C861 C860 1.414 . S
C861 C862 1.374 . S
C862 H836 0.950 . S
C862 C858 1.385 . S
C862 C861 1.374 . S
C863 C860 1.499 . S
C863 C864 1.373 . S
C863 C865 1.389 1_545 S
C864 H837 0.950 . S
C864 C850 1.377 . S
C864 C863 1.373 . S
C865 C849 1.377 . S
C865 C863 1.389 1_565 S
C865 C866 1.524 . S
C866 C865 1.524 . S
C866 C867 1.397 . S
C866 C871 1.363 . S
C867 H838 0.950 1_565 S
C867 C866 1.397 . S
C867 C868 1.334 . S
C868 H839 0.950 . S
C868 C867 1.334 . S
C868 C869 1.287 . S
C869 C868 1.287 . S
C869 C870 1.524 . S
C869 H872 0.999 . S
C870 H840 0.950 . S
C870 C869 1.524 . S
C870 C871 1.415 . S
C871 H841 0.950 . S
C871 C866 1.363 . S
C871 C870 1.415 . S
H872 C869 0.999 . S
H873 C854 0.913 . S
H874 C892 0.951 . S
H875 C894 0.951 . S
H876 C896 0.950 . S
H877 C897 0.950 . S
H878 C899 0.950 . S
H879 C902 0.950 . S
H880 C903 0.950 . S
H881 C905 0.950 . S
H882 C906 0.950 . S
H883 C907 0.951 . S
H884 C909 0.951 . S
H885 C911 0.950 . S
H886 C912 0.950 . S
H887 C914 0.950 . S
H888 C917 0.950 . S
H889 C918 0.950 . S
H890 C920 0.950 . S
H891 C921 0.950 . S
C892 H874 0.951 . S
C892 C893 1.366 . S
C892 C894 1.388 . S
C893 C892 1.366 . S
C893 C897 1.385 . S
C894 H875 0.951 . S
C894 C892 1.388 . S
C894 C895 1.366 . S
C895 C894 1.366 . S
C895 C896 1.414 . S
C895 C898 1.499 . S
C896 H876 0.950 . S
C896 C895 1.414 . S
C896 C897 1.374 . S
C897 H877 0.950 . S
C897 C893 1.385 . S
C897 C896 1.374 . S
C898 C895 1.499 . S
C898 C899 1.373 . S
C898 C900 1.389 . S
C899 H878 0.950 . S
C899 C898 1.373 . S
C899 C915 1.377 . S
C900 C898 1.389 . S
C900 C901 1.524 . S
C900 C914 1.377 . S
C901 C900 1.524 . S
C901 C902 1.397 . S
C901 C906 1.363 . S
C902 H879 0.950 . S
C902 C901 1.397 . S
C902 C903 1.334 . S
C903 H880 0.950 . S
C903 C902 1.334 . S
C903 C904 1.287 . S
C904 C903 1.287 . S
C904 C905 1.524 . S
C904 H923 0.913 . S
C905 H881 0.950 . S
C905 C904 1.524 . S
C905 C906 1.415 . S
C906 H882 0.950 . S
C906 C901 1.363 . S
C906 C905 1.415 . S
C907 H883 0.951 . S
C907 C908 1.366 . S
C907 C909 1.388 . S
C908 C907 1.366 . S
C908 C912 1.385 . S
C909 H884 0.951 . S
C909 C907 1.388 . S
C909 C910 1.366 . S
C910 C909 1.366 . S
C910 C911 1.414 . S
C910 C913 1.499 . S
C911 H885 0.950 . S
C911 C910 1.414 . S
C911 C912 1.374 . S
C912 H886 0.950 . S
C912 C908 1.385 . S
C912 C911 1.374 . S
C913 C910 1.499 . S
C913 C914 1.373 . S
C913 C915 1.389 . S
C914 H887 0.950 . S
C914 C900 1.377 . S
C914 C913 1.373 . S
C915 C899 1.377 . S
C915 C913 1.389 . S
C915 C916 1.524 . S
C916 C915 1.524 . S
C916 C917 1.397 . S
C916 C921 1.363 . S
C917 H888 0.950 . S
C917 C916 1.397 . S
C917 C918 1.334 . S
C918 H889 0.950 . S
C918 C917 1.334 . S
C918 C919 1.287 . S
C919 C918 1.287 . S
C919 C920 1.524 . S
C919 H922 0.999 . S
C920 H890 0.950 . S
C920 C919 1.524 . S
C920 C921 1.415 . S
C921 H891 0.950 . S
C921 C916 1.363 . S
C921 C920 1.415 . S
H922 C919 0.999 . S
H923 C904 0.913 . S
H924 C942 0.951 . S
H925 C944 0.951 . S
H926 C946 0.950 . S
H927 C947 0.950 . S
H928 C949 0.950 . S
H929 C952 0.950 . S
H930 C953 0.950 . S
H931 C955 0.950 . S
H932 C956 0.950 1_545 S
H933 C957 0.951 . S
H934 C959 0.951 . S
H935 C961 0.950 . S
H936 C962 0.950 . S
H937 C964 0.950 . S
H938 C967 0.950 . S
H939 C968 0.950 . S
H940 C970 0.950 . S
H941 C971 0.950 . S
C942 H924 0.951 . S
C942 C943 1.366 . S
C942 C944 1.388 . S
C943 C942 1.366 . S
C943 C947 1.385 1_545 S
C944 H925 0.951 . S
C944 C942 1.388 . S
C944 C945 1.366 . S
C945 C944 1.366 . S
C945 C946 1.414 1_545 S
C945 C948 1.499 . S
C946 H926 0.950 . S
C946 C945 1.414 1_565 S
C946 C947 1.374 . S
C947 H927 0.950 . S
C947 C943 1.385 1_565 S
C947 C946 1.374 . S
C948 C945 1.499 . S
C948 C949 1.373 . S
C948 C950 1.389 1_545 S
C949 H928 0.950 . S
C949 C948 1.373 . S
C949 C965 1.377 . S
C950 C948 1.389 1_565 S
C950 C951 1.524 . S
C950 C964 1.377 . S
C951 C950 1.524 . S
C951 C952 1.397 . S
C951 C956 1.363 . S
C952 H929 0.950 . S
C952 C951 1.397 . S
C952 C953 1.334 . S
C953 H930 0.950 . S
C953 C952 1.334 . S
C953 C954 1.287 . S
C954 C953 1.287 . S
C954 C955 1.524 . S
C954 H973 0.913 . S
C955 H931 0.950 . S
C955 C954 1.524 . S
C955 C956 1.415 . S
C956 H932 0.950 1_565 S
C956 C951 1.363 . S
C956 C955 1.415 . S
C957 H933 0.951 . S
C957 C958 1.370 1_565 S
C957 C959 1.388 . S
C958 C957 1.370 1_545 S
C958 C962 1.382 . S
C959 H934 0.951 . S
C959 C957 1.388 . S
C959 C960 1.366 1_565 S
C960 C959 1.366 1_545 S
C960 C961 1.414 . S
C960 C963 1.499 . S
C961 H935 0.950 . S
C961 C960 1.414 . S
C961 C962 1.374 . S
C962 H936 0.950 . S
C962 C958 1.382 . S
C962 C961 1.374 . S
C963 C960 1.499 . S
C963 C964 1.373 1_545 S
C963 C965 1.389 . S
C964 H937 0.950 . S
C964 C950 1.377 . S
C964 C963 1.373 1_565 S
C965 C949 1.377 . S
C965 C963 1.389 . S
C965 C966 1.524 . S
C966 C965 1.524 . S
C966 C967 1.397 . S
C966 C971 1.363 . S
C967 H938 0.950 . S
C967 C966 1.397 . S
C967 C968 1.334 . S
C968 H939 0.950 . S
C968 C967 1.334 . S
C968 C969 1.287 . S
C969 C968 1.287 . S
C969 C970 1.524 . S
C969 H972 0.999 . S
C970 H940 0.950 . S
C970 C969 1.524 . S
C970 C971 1.415 . S
C971 H941 0.950 . S
C971 C966 1.363 . S
C971 C970 1.415 . S
H972 C969 0.999 . S
H973 C954 0.913 . S
H974 C992 0.951 . S
H975 C994 0.951 . S
H976 C996 0.950 . S
H977 C997 0.950 . S
H978 C999 0.950 . S
H979 C1002 0.950 . S
H980 C1003 0.950 . S
H981 C1005 0.950 . S
H982 C1006 0.950 . S
H983 C1007 0.951 . S
H984 C1009 0.951 . S
H985 C1011 0.950 . S
H986 C1012 0.950 . S
H987 C1014 0.950 . S
H988 C1017 0.950 . S
H989 C1018 0.950 . S
H990 C1020 0.950 . S
H991 C1021 0.950 . S
C992 H974 0.951 . S
C992 C993 1.366 . S
C992 C994 1.388 . S
C993 C992 1.366 . S
C993 C997 1.385 . S
C994 H975 0.951 . S
C994 C992 1.388 . S
C994 C995 1.366 . S
C995 C994 1.366 . S
C995 C996 1.414 . S
C995 C998 1.499 . S
C996 H976 0.950 . S
C996 C995 1.414 . S
C996 C997 1.374 . S
C997 H977 0.950 . S
C997 C993 1.385 . S
C997 C996 1.374 . S
C998 C995 1.499 . S
C998 C999 1.373 . S
C998 C1000 1.389 . S
C999 H978 0.950 . S
C999 C998 1.373 . S
C999 C1015 1.377 . S
C1000 C998 1.389 . S
C1000 C1001 1.524 . S
C1000 C1014 1.377 . S
C1001 C1000 1.524 . S
C1001 C1002 1.397 . S
C1001 C1006 1.363 . S
C1002 H979 0.950 . S
C1002 C1001 1.397 . S
C1002 C1003 1.334 . S
C1003 H980 0.950 . S
C1003 C1002 1.334 . S
C1003 C1004 1.287 . S
C1004 C1003 1.287 . S
C1004 C1005 1.524 . S
C1004 H1023 0.913 . S
C1005 H981 0.950 . S
C1005 C1004 1.524 . S
C1005 C1006 1.415 . S
C1006 H982 0.950 . S
C1006 C1001 1.363 . S
C1006 C1005 1.415 . S
C1007 H983 0.951 . S
C1007 C1008 1.366 . S
C1007 C1009 1.388 . S
C1008 C1007 1.366 . S
C1008 C1012 1.385 . S
C1009 H984 0.951 . S
C1009 C1007 1.388 . S
C1009 C1010 1.366 . S
C1010 C1009 1.366 . S
C1010 C1011 1.414 . S
C1010 C1013 1.499 1_554 S
C1011 H985 0.950 . S
C1011 C1010 1.414 . S
C1011 C1012 1.374 . S
C1012 H986 0.950 . S
C1012 C1008 1.385 . S
C1012 C1011 1.374 . S
C1013 C1010 1.499 1_556 S
C1013 C1014 1.373 . S
C1013 C1015 1.389 . S
C1014 H987 0.950 . S
C1014 C1000 1.377 . S
C1014 C1013 1.373 . S
C1015 C999 1.377 . S
C1015 C1013 1.389 . S
C1015 C1016 1.524 . S
C1016 C1015 1.524 . S
C1016 C1017 1.397 1_556 S
C1016 C1021 1.363 . S
C1017 H988 0.950 . S
C1017 C1016 1.397 1_554 S
C1017 C1018 1.334 . S
C1018 H989 0.950 . S
C1018 C1017 1.334 . S
C1018 C1019 1.287 . S
C1019 C1018 1.287 . S
C1019 C1020 1.524 1_554 S
C1019 H1022 0.999 . S
C1020 H990 0.950 . S
C1020 C1019 1.524 1_556 S
C1020 C1021 1.415 . S
C1021 H991 0.950 . S
C1021 C1016 1.363 . S
C1021 C1020 1.415 . S
H1022 C1019 0.999 . S
H1023 C1004 0.913 . S
H1024 C1042 0.951 . S
H1025 C1044 0.951 . S
H1026 C1046 0.950 . S
H1027 C1047 0.950 . S
H1028 C1049 0.950 . S
H1029 C1052 0.950 . S
H1030 C1053 0.950 . S
H1031 C1055 0.950 . S
H1032 C1056 0.950 . S
H1033 C1057 0.951 . S
H1034 C1059 0.951 . S
H1035 C1061 0.950 . S
H1036 C1062 0.950 . S
H1037 C1064 0.950 . S
H1038 C1067 0.950 . S
H1039 C1068 0.950 . S
H1040 C1070 0.950 . S
H1041 C1071 0.950 . S
C1042 H1024 0.951 . S
C1042 C1043 1.366 . S
C1042 C1044 1.388 . S
C1043 C1042 1.366 . S
C1043 C1047 1.385 1_455 S
C1044 H1025 0.951 . S
C1044 C1042 1.388 . S
C1044 C1045 1.366 . S
C1045 C1044 1.366 . S
C1045 C1046 1.414 1_455 S
C1045 C1048 1.499 . S
C1046 H1026 0.950 . S
C1046 C1045 1.414 1_655 S
C1046 C1047 1.374 . S
C1047 H1027 0.950 . S
C1047 C1043 1.385 1_655 S
C1047 C1046 1.374 . S
C1048 C1045 1.499 . S
C1048 C1049 1.373 1_455 S
C1048 C1050 1.389 . S
C1049 H1028 0.950 . S
C1049 C1048 1.373 1_655 S
C1049 C1065 1.377 . S
C1050 C1048 1.389 . S
C1050 C1051 1.524 . S
C1050 C1064 1.377 . S
C1051 C1050 1.524 . S
C1051 C1052 1.397 . S
C1051 C1056 1.363 . S
C1052 H1029 0.950 . S
C1052 C1051 1.397 . S
C1052 C1053 1.334 . S
C1053 H1030 0.950 . S
C1053 C1052 1.334 . S
C1053 C1054 1.287 . S
C1054 C1053 1.287 . S
C1054 C1055 1.524 . S
C1054 H1073 0.913 . S
C1055 H1031 0.950 . S
C1055 C1054 1.524 . S
C1055 C1056 1.415 . S
C1056 H1032 0.950 . S
C1056 C1051 1.363 . S
C1056 C1055 1.415 . S
C1057 H1033 0.951 . S
C1057 C1058 1.366 . S
C1057 C1059 1.388 . S
C1058 C1057 1.366 . S
C1058 C1062 1.385 1_655 S
C1059 H1034 0.951 . S
C1059 C1057 1.388 . S
C1059 C1060 1.366 1_655 S
C1060 C1059 1.366 1_455 S
C1060 C1061 1.414 . S
C1060 C1063 1.499 . S
C1061 H1035 0.950 . S
C1061 C1060 1.414 . S
C1061 C1062 1.374 . S
C1062 H1036 0.950 . S
C1062 C1058 1.385 1_455 S
C1062 C1061 1.374 . S
C1063 C1060 1.499 . S
C1063 C1064 1.373 . S
C1063 C1065 1.389 1_455 S
C1064 H1037 0.950 . S
C1064 C1050 1.377 . S
C1064 C1063 1.373 . S
C1065 C1049 1.377 . S
C1065 C1063 1.389 1_655 S
C1065 C1066 1.524 . S
C1066 C1065 1.524 . S
C1066 C1067 1.397 . S
C1066 C1071 1.363 . S
C1067 H1038 0.950 . S
C1067 C1066 1.397 . S
C1067 C1068 1.334 . S
C1068 H1039 0.950 . S
C1068 C1067 1.334 . S
C1068 C1069 1.287 . S
C1069 C1068 1.287 . S
C1069 C1070 1.524 . S
C1069 H1072 0.999 . S
C1070 H1040 0.950 . S
C1070 C1069 1.524 . S
C1070 C1071 1.415 . S
C1071 H1041 0.950 . S
C1071 C1066 1.363 . S
C1071 C1070 1.415 . S
H1072 C1069 0.999 . S
H1073 C1054 0.913 . S
C193 C7 0.502 . S
C208 C169 0.457 . S
C243 C51 1.772 . S
C258 C151 1.755 . S
C293 C87 1.179 . S
C308 C163 1.193 . S
C343 C16 0.433 . S
C358 C172 0.292 . S
C408 C154 1.796 . S
C393 C42 1.797 . S
C458 C160 1.289 . S
C443 C96 1.268 . S
C493 C47 1.177 . S
C508 C133 1.192 . S
C543 C91 2.954 . S
C558 C142 2.923 1_655 S
C593 C2 1.839 . S
C608 C124 1.853 . S
C658 C136 1.261 . S
C643 C56 1.237 . S
C708 C145 2.826 . S
C693 C82 2.819 . S
C743 C11 1.751 . S
C758 C127 1.735 . S
C808 C143 1.773 . S
C793 C19 1.713 . S
C843 C50 1.336 . S
C858 C125 1.377 . S
C893 C99 1.460 . S
C908 C134 1.510 . S
C958 C161 1.487 . S
C943 C59 1.446 . S
C1008 C170 1.095 . S
C993 C90 1.077 . S
C1043 C10 1.333 . S
C1058 C152 1.367 1_655 S
