# Generated by pormake.
# Topology apo, (3,6)-cn, num edge types: 1
# Building blocks:
#     Node 0, Type 0, BuildingBlock: QEWDON_clean_linker_0, # of connection points: 3
#     Node 1, Type 0, BuildingBlock: QEWDON_clean_linker_0, # of connection points: 3
#     Node 2, Type 0, BuildingBlock: QEWDON_clean_linker_0, # of connection points: 3
#     Node 3, Type 0, BuildingBlock: QEWDON_clean_linker_0, # of connection points: 3
#     Node 4, Type 0, BuildingBlock: QEWDON_clean_linker_0, # of connection points: 3
#     Node 5, Type 0, BuildingBlock: QEWDON_clean_linker_0, # of connection points: 3
#     Node 6, Type 0, BuildingBlock: QEWDON_clean_linker_0, # of connection points: 3
#     Node 7, Type 0, BuildingBlock: QEWDON_clean_linker_0, # of connection points: 3
#     Node 8, Type 1, BuildingBlock: KUMJIN_clean_sbu_1, # of connection points: 6
#     Node 9, Type 1, BuildingBlock: KUMJIN_clean_sbu_1, # of connection points: 6
#     Node 10, Type 1, BuildingBlock: KUMJIN_clean_sbu_1, # of connection points: 6
#     Node 11, Type 1, BuildingBlock: KUMJIN_clean_sbu_1, # of connection points: 6
#     Edge 12, Type (0, 1), None
#     Edge 13, Type (0, 1), None
#     Edge 14, Type (0, 1), None
#     Edge 15, Type (0, 1), None
#     Edge 16, Type (0, 1), None
#     Edge 17, Type (0, 1), None
#     Edge 18, Type (0, 1), None
#     Edge 19, Type (0, 1), None
#     Edge 20, Type (0, 1), None
#     Edge 21, Type (0, 1), None
#     Edge 22, Type (0, 1), None
#     Edge 23, Type (0, 1), None
#     Edge 24, Type (0, 1), None
#     Edge 25, Type (0, 1), None
#     Edge 26, Type (0, 1), None
#     Edge 27, Type (0, 1), None
#     Edge 28, Type (0, 1), None
#     Edge 29, Type (0, 1), None
#     Edge 30, Type (0, 1), None
#     Edge 31, Type (0, 1), None
#     Edge 32, Type (0, 1), None
#     Edge 33, Type (0, 1), None
#     Edge 34, Type (0, 1), None
#     Edge 35, Type (0, 1), None
# Relax obj value: 0.080
# Max RMSD: 0.314
# Mean RMSD: 0.242
data_MOF--net-apo--node1-KUMJIN_clean_sbu_1--node2-QEWDON_clean_linker_0--edge1-none
_symmetry_space_group_name_H-M    P1
_symmetry_Int_Tables_number       1
_symmetry_cell_setting            triclinic
loop_
_symmetry_equiv_pos_as_xyz
'x, y, z'
_cell_length_a     14.651573
_cell_length_b     20.412845
_cell_length_c     26.856608
_cell_angle_alpha  89.96331
_cell_angle_beta   89.21046
_cell_angle_gamma 92.464579
loop_
_atom_site_label
_atom_site_type_symbol
_atom_site_fract_x
_atom_site_fract_y
_atom_site_fract_z
_atom_type_partial_charge
H0 H 0.27684 0.38067 0.32792 0.0
C1 C 0.28918 0.39183 0.36662 0.0
C2 C 0.36068 0.43594 0.37963 0.0
C3 C 0.22976 0.3653 0.40336 0.0
H4 H 0.42535 0.48953 0.43977 0.0
C5 C 0.37376 0.4525 0.42991 0.0
C6 C 0.31375 0.42706 0.46688 0.0
C7 C 0.24232 0.38301 0.4534 0.0
C8 C 0.1445 0.33015 0.38877 0.0
H9 H 0.19278 0.36593 0.48141 0.0
C10 C 0.14412 0.26655 0.3684 0.0
C11 C 0.06048 0.23389 0.35709 0.0
C12 C 0.06193 0.36149 0.39583 0.0
H13 H 0.06142 0.41072 0.41093 0.0
C14 C 0.97953 0.3299 0.3832 0.0
H15 H 0.20771 0.242 0.36324 0.0
C16 C 0.97866 0.26652 0.36414 0.0
H17 H 0.91367 0.24315 0.35454 0.0
H18 H 0.91606 0.35444 0.38845 0.0
H19 H 0.20815 0.0903 0.82598 0.0
C20 C 0.18938 0.07919 0.86374 0.0
C21 C 0.12204 0.02975 0.87445 0.0
C22 C 0.23549 0.11303 0.90225 0.0
H23 H 0.05185 0.97515 0.93243 0.0
C24 C 0.10177 0.01433 0.92438 0.0
C25 C 0.1479 0.04627 0.96375 0.0
C26 C 0.21356 0.09648 0.95218 0.0
C27 C 0.31808 0.15623 0.89122 0.0
H28 H 0.25199 0.12005 0.98189 0.0
C29 C 0.31636 0.21472 0.86246 0.0
C30 C 0.39742 0.25474 0.85532 0.0
C31 C 0.40141 0.13746 0.91075 0.0
H32 H 0.40506 0.09263 0.93216 0.0
C33 C 0.48107 0.17539 0.90241 0.0
H34 H 0.25254 0.22962 0.84703 0.0
C35 C 0.47889 0.23315 0.87509 0.0
H36 H 0.54208 0.25989 0.8683 0.0
H37 H 0.54513 0.15981 0.91705 0.0
H38 H 0.77353 0.07344 0.76192 0.0
C39 C 0.80826 0.08287 0.72678 0.0
C40 C 0.88268 0.04532 0.71221 0.0
C41 C 0.7736 0.12914 0.69386 0.0
H42 H 0.97936 0.02824 0.65214 0.0
C43 C 0.92191 0.05571 0.66438 0.0
C44 C 0.88816 0.10199 0.63174 0.0
C45 C 0.81514 0.13926 0.647 0.0
C46 C 0.68195 0.15475 0.70164 0.0
H47 H 0.78678 0.17348 0.62106 0.0
C48 C 0.66728 0.21363 0.72757 0.0
C49 C 0.58003 0.24062 0.72747 0.0
C50 C 0.6098 0.12328 0.67604 0.0
H51 H 0.6204 0.07857 0.65538 0.0
C52 C 0.52446 0.15015 0.67524 0.0
H53 H 0.72402 0.23938 0.74527 0.0
C54 C 0.50956 0.20801 0.70073 0.0
H55 H 0.44188 0.22702 0.69958 0.0
H56 H 0.46943 0.1259 0.65488 0.0
H57 H 0.71858 0.36645 0.27827 0.0
C58 C 0.69896 0.36517 0.23958 0.0
C59 C 0.63841 0.41113 0.22088 0.0
C60 C 0.74 0.32068 0.20704 0.0
H61 H 0.58491 0.45154 0.15271 0.0
C62 C 0.6228 0.41269 0.16902 0.0
C63 C 0.66342 0.36824 0.13692 0.0
C64 C 0.71619 0.31965 0.15673 0.0
C65 C 0.82674 0.29022 0.21905 0.0
H66 H 0.75203 0.28794 0.1313 0.0
C67 C 0.82959 0.22978 0.24423 0.0
C68 C 0.91035 0.19436 0.2427 0.0
C69 C 0.90587 0.316 0.19465 0.0
H70 H 0.90461 0.36179 0.17423 0.0
C71 C 0.98467 0.28068 0.19259 0.0
H72 H 0.76836 0.20878 0.26215 0.0
C73 C 0.98723 0.22044 0.2165 0.0
H74 H 0.04997 0.19467 0.21451 0.0
H75 H 0.04311 0.2992 0.17104 0.0
H76 H 0.68177 0.60314 0.75564 0.0
C77 C 0.67782 0.57554 0.72142 0.0
C78 C 0.63384 0.51258 0.72134 0.0
C79 C 0.71331 0.60359 0.67676 0.0
H80 H 0.59933 0.42731 0.67786 0.0
C81 C 0.63032 0.47646 0.67723 0.0
C82 C 0.66708 0.50253 0.63267 0.0
C83 C 0.70816 0.56607 0.63279 0.0
C84 C 0.74829 0.67354 0.67366 0.0
H85 H 0.73741 0.58637 0.59854 0.0
C86 C 0.81303 0.70154 0.70714 0.0
C87 C 0.84322 0.76817 0.70206 0.0
C88 C 0.71557 0.71315 0.63543 0.0
H89 H 0.66519 0.69371 0.60957 0.0
C90 C 0.74611 0.77839 0.63027 0.0
H91 H 0.83926 0.67197 0.73671 0.0
C92 C 0.80903 0.80583 0.66344 0.0
H93 H 0.82986 0.85721 0.65952 0.0
H94 H 0.71976 0.80816 0.60082 0.0
H95 H 0.85984 0.82546 0.25302 0.0
C96 C 0.85724 0.85002 0.21743 0.0
C97 C 0.89917 0.91266 0.21125 0.0
C98 C 0.81783 0.81718 0.17641 0.0
H99 H 0.93616 -0.01035 0.16053 0.0
C100 C 0.90163 0.94222 0.16445 0.0
C101 C 0.86245 0.91119 0.12301 0.0
C102 C 0.81954 0.84854 0.12957 0.0
C103 C 0.78528 0.74734 0.18055 0.0
H104 H 0.78787 0.82341 0.09835 0.0
C105 C 0.72128 0.7254 0.21745 0.0
C106 C 0.69682 0.65801 0.22187 0.0
C107 C 0.82232 0.70135 0.14788 0.0
H108 H 0.87205 0.71677 0.11953 0.0
C109 C 0.79785 0.63484 0.15227 0.0
H110 H 0.69202 0.7602 0.24285 0.0
C111 C 0.73625 0.61317 0.18931 0.0
H112 H 0.7193 0.56113 0.19255 0.0
H113 H 0.8277 0.59983 0.12729 0.0
H114 H 0.17069 0.84245 0.32906 0.0
C115 C 0.18843 0.86359 0.3648 0.0
C116 C 0.16323 0.92774 0.37665 0.0
C117 C 0.233 0.82584 0.40036 0.0
H118 H 0.16475 0.00278 0.43311 0.0
C119 C 0.1836 0.95354 0.42371 0.0
C120 C 0.22053 0.91429 0.46042 0.0
C121 C 0.24665 0.85112 0.44835 0.0
C122 C 0.24937 0.75568 0.39233 0.0
H123 H 0.27455 0.82055 0.47698 0.0
C124 C 0.33021 0.73428 0.36946 0.0
C125 C 0.34897 0.66692 0.3698 0.0
C126 C 0.18837 0.70969 0.41502 0.0
H127 H 0.12824 0.72573 0.43468 0.0
C128 C 0.20526 0.64317 0.41388 0.0
H129 H 0.37943 0.76974 0.35344 0.0
C130 C 0.2852 0.62193 0.39184 0.0
H131 H 0.29709 0.57007 0.39219 0.0
H132 H 0.15708 0.60808 0.43106 0.0
H133 H 0.35491 0.62042 0.82763 0.0
C134 C 0.34536 0.60637 0.86614 0.0
C135 C 0.37902 0.54674 0.88367 0.0
C136 C 0.30512 0.65027 0.89971 0.0
H137 H 0.39686 0.48664 0.94885 0.0
C138 C 0.37256 0.53249 0.93476 0.0
C139 C 0.33417 0.57623 0.96816 0.0
C140 C 0.30017 0.63456 0.95063 0.0
C141 C 0.27921 0.71689 0.88491 0.0
H142 H 0.26995 0.66812 0.97681 0.0
C143 C 0.19801 0.72854 0.85885 0.0
C144 C 0.167 0.79313 0.85534 0.0
C145 C 0.32967 0.77009 0.90535 0.0
H146 H 0.39142 0.76216 0.92589 0.0
C147 C 0.29965 0.83351 0.90137 0.0
H148 H 0.157 0.68775 0.84416 0.0
C149 C 0.21881 0.84491 0.87704 0.0
H150 H 0.19666 0.89465 0.87554 0.0
H151 H 0.33871 0.87399 0.91782 0.0
Eu152 Eu 0.11011 0.06259 0.24771 0.0
C153 C 0.69008 0.03022 0.36857 0.0
N154 N 0.76327 0.07264 0.37318 0.0
C155 C 0.6649 0.15873 0.39635 0.0
C156 C 0.60056 0.05071 0.37738 0.0
C157 C 0.75241 0.13559 0.38842 0.0
C158 C 0.58851 0.1162 0.39047 0.0
C159 C 0.6308 0.91965 0.3527 0.0
C160 C 0.70517 0.96538 0.35736 0.0
C161 C 0.54141 0.93976 0.36113 0.0
C162 C 0.52638 0.00504 0.37386 0.0
Eu163 Eu 0.90877 0.03028 0.35934 0.0
N164 N 0.79264 0.94651 0.35265 0.0
C165 C 0.64867 0.85495 0.34009 0.0
C166 C 0.8105 0.88225 0.34471 0.0
C167 C 0.73899 0.83644 0.33559 0.0
H168 H 0.81157 0.16779 0.39461 0.0
H169 H 0.75357 0.78651 0.32598 0.0
H170 H 0.14737 0.89795 0.22687 0.0
H171 H 0.36179 0.26693 0.27534 0.0
H172 H 0.88029 0.86717 0.34263 0.0
H173 H 0.59347 0.81869 0.33468 0.0
H174 H 0.20977 0.21822 0.25563 0.0
H175 H 0.65649 0.20904 0.40761 0.0
H176 H 0.48348 0.90523 0.35798 0.0
H177 H 0.45709 0.01982 0.38048 0.0
H178 H 0.27652 0.82732 0.22552 0.0
H179 H 0.5208 0.13401 0.39709 0.0
H180 H 0.49436 0.19756 0.27914 0.0
N181 N 0.22621 -0.01467 0.24533 0.0
C182 C 0.31214 0.01199 0.25283 0.0
C183 C 0.28729 0.87895 0.23361 0.0
C184 C 0.38873 0.97207 0.25059 0.0
C185 C 0.21349 0.91993 0.23489 0.0
C186 C 0.37509 0.90494 0.24175 0.0
N187 N 0.2524 0.11943 0.25937 0.0
C188 C 0.26566 0.18622 0.2611 0.0
C189 C 0.41479 0.10742 0.26649 0.0
C190 C 0.32528 0.07989 0.26053 0.0
C191 C 0.42699 0.17507 0.27325 0.0
C192 C 0.35218 0.21454 0.27061 0.0
H193 H 0.43219 0.87292 0.24013 0.0
H194 H 0.53625 0.9702 0.25334 0.0
H195 H 0.55887 0.08805 0.26807 0.0
O196 O 0.04642 0.08329 0.17616 0.0
O197 O 0.09904 0.15142 0.298 0.0
O198 O 0.98946 0.12794 0.36074 0.0
O199 O 0.1913 0.08061 0.17924 0.0
O200 O 0.95879 0.08254 0.24575 0.0
O201 O 0.88615 0.12185 0.31328 0.0
O202 O 1.00113 0.02221 0.42156 0.0
O203 O 0.88861 0.9762 0.28539 0.0
O204 O 0.03102 0.96421 0.24681 0.0
O205 O 0.85637 0.02033 0.43637 0.0
O206 O 0.0175 0.95488 0.34586 0.0
O207 O 0.14319 0.02012 0.32333 0.0
C208 C 0.05499 0.16543 0.33955 0.0
C209 C 0.12219 0.03987 0.10633 0.0
C210 C 0.13416 0.02192 1.01607 0.0
C211 C 0.12428 0.95388 1.02485 0.0
C212 C 0.1125 0.97191 0.11352 0.0
C213 C 0.11317 0.92934 0.07307 0.0
C214 C 0.1332 0.06494 0.05746 0.0
C215 C 0.91499 0.12976 0.26709 0.0
C216 C 0.12178 0.08357 0.15023 0.0
C217 C 0.47706 0.00017 0.25577 0.0
C218 C 0.48998 0.06735 0.2641 0.0
C219 C 0.9428 0.94917 0.25218 0.0
C220 C 0.95239 0.07397 0.49566 0.0
C221 C 0.92819 0.11137 0.58126 0.0
C222 C 0.97521 0.17077 0.56966 0.0
C223 C 1.00097 0.13353 0.4854 0.0
C224 C 0.9169 0.0628 0.54416 0.0
C225 C 0.0119 0.1815 0.52207 0.0
C226 C 0.10682 0.96599 0.3431 0.0
C227 C 0.93744 0.0245 0.45575 0.0
H228 H 0.12674 0.91915 0.99445 0.0
H229 H 0.10396 0.95174 0.15057 0.0
H230 H 0.10551 0.87695 0.07915 0.0
H231 H 0.14037 0.11747 0.05177 0.0
H232 H 0.9839 0.20872 0.59762 0.0
H233 H 0.03085 0.14334 0.44911 0.0
H234 H 0.87929 0.01719 0.55276 0.0
H235 H 0.0488 0.22729 0.51346 0.0
Eu236 Eu 0.3912 0.41659 0.73885 0.0
C237 C 0.82048 0.41854 0.85384 0.0
N238 N 0.75695 0.36972 0.84407 0.0
C239 C 0.8757 0.2962 0.82459 0.0
C240 C 0.91469 0.40786 0.84861 0.0
C241 C 0.7833 0.30845 0.83171 0.0
C242 C 0.94167 0.34623 0.83274 0.0
C243 C 0.85653 0.52486 0.8911 0.0
C244 C 0.79174 0.47708 0.87422 0.0
C245 C 0.95007 0.51582 0.88321 0.0
C246 C 0.97905 0.45758 0.86184 0.0
Eu247 Eu 0.60305 0.39418 0.86 0.0
N248 N 0.70063 0.48427 0.88212 0.0
C249 C 0.82564 0.57862 0.91784 0.0
C250 C 0.67025 0.53629 0.90854 0.0
C251 C 0.73216 0.58414 0.92678 0.0
H252 H 0.73345 0.26819 0.82904 0.0
H253 H 0.70777 0.6252 0.94787 0.0
H254 H 0.35882 0.57793 0.74444 0.0
H255 H 0.14396 0.22564 0.67953 0.0
H256 H 0.59857 0.54015 0.91713 0.0
H257 H 0.87335 0.61585 0.93207 0.0
H258 H 0.29775 0.27421 0.69892 0.0
H259 H 0.89609 0.24768 0.81418 0.0
H260 H 1.00071 0.55255 0.89514 0.0
H261 H 0.0516 0.45043 0.85751 0.0
H262 H 0.23138 0.65195 0.75469 0.0
H263 H 0.01335 0.33608 0.82846 0.0
H264 H 0.00668 0.28758 0.69725 0.0
N265 N 0.27264 0.49151 0.7453 0.0
C266 C 0.18575 0.4662 0.74255 0.0
C267 C 0.21727 0.60002 0.75125 0.0
C268 C 0.1106 0.5072 0.74538 0.0
C269 C 0.28929 0.55783 0.74624 0.0
C270 C 0.1274 0.57464 0.75157 0.0
N271 N 0.24668 0.36335 0.72596 0.0
C272 C 0.23773 0.30157 0.70669 0.0
C273 C 0.08355 0.37382 0.72269 0.0
C274 C 0.17234 0.4002 0.732 0.0
C275 C 0.07354 0.30927 0.7056 0.0
C276 C 0.15112 0.27376 0.69613 0.0
H277 H 0.07168 0.60774 0.7545 0.0
H278 H 0.96317 0.51086 0.74187 0.0
H279 H 0.93955 0.39415 0.72111 0.0
O280 O 0.40196 0.38782 0.66035 0.0
O281 O 0.34604 0.32763 0.78889 0.0
O282 O 0.46532 0.36339 0.82929 0.0
O283 O 0.43085 0.48825 0.68114 0.0
O284 O 0.49103 0.3344 0.73275 0.0
O285 O 0.59974 0.31725 0.79621 0.0
O286 O 0.54897 0.39345 0.93655 0.0
O287 O 0.65615 0.4726 0.80475 0.0
O288 O 0.52449 0.44613 0.77337 0.0
O289 O 0.64655 0.3231 0.91538 0.0
O290 O 0.49371 0.46938 0.87087 0.0
O291 O 0.38621 0.48563 0.80681 0.0
C292 C 0.39984 0.31774 0.8266 0.0
C293 C 0.36116 0.46877 0.60275 0.0
C294 C 0.31142 0.45808 0.51653 0.0
C295 C 0.24886 0.50712 0.52493 0.0
C296 C 0.29786 0.51783 0.61012 0.0
C297 C 0.24241 0.53689 0.57141 0.0
C298 C 0.36819 0.4391 0.55545 0.0
C299 C 0.5591 0.30298 0.753 0.0
C300 C 0.41796 0.44738 0.64441 0.0
C301 C 0.0217 0.48024 0.73938 0.0
C302 C 0.00825 0.41377 0.72764 0.0
C303 C 0.60145 0.48009 0.76775 0.0
C304 C 0.65988 0.36995 0.99547 0.0
C305 C 0.68195 0.38617 0.08449 0.0
C306 C 0.76498 0.4208 0.07417 0.0
C307 C 0.74641 0.40029 0.9868 0.0
C308 C 0.62793 0.36183 1.04497 0.0
C309 C 0.79733 0.42726 1.02554 0.0
C310 C 0.42359 0.49872 0.85084 0.0
C311 C 0.60355 0.34973 0.95237 0.0
H312 H 0.20471 0.52221 0.49539 0.0
H313 H 0.29083 0.54158 0.64577 0.0
H314 H 0.19387 0.57466 0.57756 0.0
H315 H 0.41646 0.40106 0.54916 0.0
H316 H 0.80728 0.4397 0.10418 0.0
H317 H 0.77541 0.40235 0.95005 0.0
H318 H 0.56332 0.33571 0.05269 0.0
H319 H 0.86317 0.45159 1.01794 0.0
Eu320 Eu 0.08551 0.89182 0.73358 0.0
C321 C 0.67829 0.87504 0.83589 0.0
N322 N 0.74043 0.92651 0.83628 0.0
C323 C 0.62072 0.00257 0.84222 0.0
C324 C 0.58415 0.88589 0.83911 0.0
C325 C 0.71349 -0.01035 0.83922 0.0
C326 C 0.55584 0.95045 0.84281 0.0
C327 C 0.6453 0.7572 0.83505 0.0
C328 C 0.70884 0.81104 0.83492 0.0
C329 C 0.55141 0.76812 0.83694 0.0
C330 C 0.52125 0.83221 0.83945 0.0
Eu331 Eu 0.8932 0.89731 0.84102 0.0
N332 N 0.80033 0.80135 0.83473 0.0
C333 C 0.6781 0.69388 0.83363 0.0
C334 C 0.83276 0.73983 0.83655 0.0
C335 C 0.7722 0.68531 0.8335 0.0
H336 H 0.76384 0.02966 0.84226 0.0
H337 H 0.79811 0.63673 0.83052 0.0
H338 H 0.20534 0.75659 0.73715 0.0
H339 H 0.19868 0.14951 0.72996 0.0
H340 H 0.90549 0.73323 0.83803 0.0
H341 H 0.63132 0.65132 0.83287 0.0
H342 H 0.08529 0.05621 0.72942 0.0
H343 H 0.5994 0.05255 0.84532 0.0
H344 H 0.50152 0.72734 0.83686 0.0
H345 H 0.4489 0.84004 0.84072 0.0
H346 H 0.36798 0.72719 0.73563 0.0
H347 H 0.48399 0.96055 0.84618 0.0
H348 H 0.36238 0.12981 0.73748 0.0
N349 N 0.23616 0.85864 0.74075 0.0
C350 C 0.30166 0.9077 0.74083 0.0
C351 C 0.35017 0.77805 0.73739 0.0
C352 C 0.39491 0.89346 0.73844 0.0
C353 C 0.2586 0.79454 0.73931 0.0
C354 C 0.41858 0.82777 0.7361 0.0
N355 N 0.18497 -0.01504 0.73921 0.0
C356 C 0.15692 0.04735 0.733 0.0
C357 C 0.34228 0.02424 0.73955 0.0
C358 C 0.2755 0.9725 0.74048 0.0
C359 C 0.31367 0.08862 0.73671 0.0
C360 C 0.22096 0.10007 0.73207 0.0
H361 H 0.48948 0.81494 0.73339 0.0
H362 H 0.5334 0.93502 0.7357 0.0
H363 H 0.48747 0.049 0.74058 0.0
O364 O 0.0471 0.92185 0.65904 0.0
O365 O 0.119 0.95356 0.80442 0.0
O366 O 0.98323 -0.01063 0.83792 0.0
O367 O 0.15305 0.85308 0.66695 0.0
O368 O 0.95272 0.94227 0.72064 0.0
O369 O 0.89843 -0.01049 0.79224 0.0
O370 O 0.93744 0.87139 0.91643 0.0
O371 O 0.85716 0.84461 0.76849 0.0
O372 O 0.98912 0.80131 0.73755 0.0
O373 O 0.81249 0.92167 0.90588 0.0
O374 O 0.02857 0.85001 0.85586 0.0
O375 O 0.07289 0.80242 0.78333 0.0
C376 C 0.07288 -0.0085 0.83512 0.0
C377 C 0.16579 0.92573 0.59826 0.0
C378 C 0.22169 0.93698 0.51252 0.0
C379 C 0.2659 -0.00298 0.52461 0.0
C380 C 0.21087 -0.01419 0.60951 0.0
C381 C 0.26103 0.02097 0.5731 0.0
C382 C 0.1722 0.90113 0.54962 0.0
C383 C 0.91602 -0.00852 0.74379 0.0
C384 C 0.10985 0.88945 0.63623 0.0
C385 C 0.46138 0.94499 0.73758 0.0
C386 C 0.43518 0.01007 0.73971 0.0
C387 C 0.89947 0.80307 0.73976 0.0
C388 C 0.8817 0.93765 0.98262 0.0
C389 C 0.87012 0.94395 0.07321 0.0
C390 C 0.87414 0.01307 0.06923 0.0
C391 C 0.88762 0.0063 0.97969 0.0
C392 C 0.87522 0.90677 1.02921 0.0
C393 C 0.88468 0.04371 1.02294 0.0
C394 C 0.07972 0.80891 0.83163 0.0
C395 C 0.86754 0.89793 0.93782 0.0
H396 H 0.3036 0.02544 0.49645 0.0
H397 H 0.20659 0.00626 0.64605 0.0
H398 H 0.29509 0.06739 0.58237 0.0
H399 H 0.13625 0.85534 0.54021 0.0
H400 H 0.86786 0.04403 0.10165 0.0
H401 H 0.89182 0.03087 0.9439 0.0
H402 H 0.87255 0.8537 1.0307 0.0
H403 H 0.88809 0.09669 1.02053 0.0
Eu404 Eu 0.43177 0.57415 0.24536 0.0
C405 C 0.80863 0.60554 0.36865 0.0
N406 N 0.76594 0.54893 0.3535 0.0
C407 C 0.90984 0.50048 0.33919 0.0
C408 C 0.90474 0.61237 0.36797 0.0
C409 C 0.81453 0.49653 0.33907 0.0
C410 C 0.95527 0.55887 0.35333 0.0
C411 C 0.80024 0.71201 0.40794 0.0
C412 C 0.75637 0.65542 0.38745 0.0
C413 C 0.89569 0.72068 0.40432 0.0
C414 C 0.94748 0.67126 0.38368 0.0
Eu415 Eu 0.60654 0.54227 0.36203 0.0
N416 N 0.66368 0.64656 0.38931 0.0
C417 C 0.74718 0.75754 0.43256 0.0
C418 C 0.61216 0.69022 0.41462 0.0
C419 C 0.65281 0.74648 0.43596 0.0
H420 H 0.77986 0.45083 0.32923 0.0
H421 H 0.61136 0.78078 0.45583 0.0
H422 H 0.32134 0.71356 0.26117 0.0
H423 H 0.29885 0.32519 0.21266 0.0
H424 H 0.54035 0.6808 0.4213 0.0
H425 H 0.77844 0.80114 0.44928 0.0
H426 H 0.41878 0.41195 0.2251 0.0
H427 H 0.94814 0.45841 0.32863 0.0
H428 H 0.93022 0.76481 0.41829 0.0
H429 H 0.02068 0.67813 0.381 0.0
H430 H 0.16147 0.74814 0.26773 0.0
H431 H 0.02928 0.56171 0.35382 0.0
H432 H 0.13738 0.34884 0.22679 0.0
N433 N 0.28328 0.61233 0.25556 0.0
C434 C 0.2141 0.56595 0.25276 0.0
C435 C 0.17547 0.69684 0.26347 0.0
C436 C 0.12226 0.5839 0.25344 0.0
C437 C 0.26563 0.6771 0.26041 0.0
C438 C 0.10344 0.6501 0.25967 0.0
N439 N 0.32455 0.48482 0.24378 0.0
C440 C 0.34816 0.42298 0.23099 0.0
C441 C 0.16487 0.45198 0.24054 0.0
C442 C 0.23508 0.50051 0.2467 0.0
C443 C 0.18892 0.38765 0.23079 0.0
C444 C 0.28056 0.37365 0.22408 0.0
H445 H 0.03366 0.66569 0.26102 0.0
H446 H 0.98158 0.54888 0.24549 0.0
H447 H 0.0186 0.43321 0.23586 0.0
O448 O 0.47791 0.55693 0.16878 0.0
O449 O 0.37601 0.51268 0.31161 0.0
O450 O 0.50306 0.46411 0.3399 0.0
O451 O 0.37792 0.62897 0.18259 0.0
O452 O 0.54012 0.50033 0.23148 0.0
O453 O 0.61936 0.46487 0.30107 0.0
O454 O 0.5886 0.54118 0.44328 0.0
O455 O 0.66883 0.5883 0.29212 0.0
O456 O 0.5495 0.64672 0.26364 0.0
O457 O 0.6587 0.46202 0.40611 0.0
O458 O 0.47202 0.59373 0.37303 0.0
O459 O 0.45659 0.65427 0.30212 0.0
C460 C 0.41527 0.47075 0.34087 0.0
C461 C 0.3635 0.5669 0.1083 0.0
C462 C 0.32217 0.55755 1.02077 0.0
C463 C 0.25823 0.50681 1.03275 0.0
C464 C 0.29872 0.51609 0.119 0.0
C465 C 0.24631 0.48646 0.08181 0.0
C466 C 0.37476 0.58805 0.05859 0.0
C467 C 0.59804 0.46204 0.25323 0.0
C468 C 0.42031 0.59575 0.14874 0.0
C469 C 0.05234 0.53564 0.24673 0.0
C470 C 0.07342 0.46976 0.24111 0.0
C471 C 0.6361 0.63205 0.26212 0.0
C472 C 0.64432 0.45506 0.49621 0.0
C473 C 0.66314 0.46287 0.58625 0.0
C474 C 0.67805 0.3952 0.58768 0.0
C475 C 0.65934 0.38773 0.49851 0.0
C476 C 0.64513 0.49227 0.54019 0.0
C477 C 0.67556 0.358 0.54411 0.0
C478 C 0.43476 0.64193 0.34885 0.0
C479 C 0.63066 0.48671 0.44785 0.0
H480 H 0.21758 0.48298 1.00402 0.0
H481 H 0.28879 0.49849 0.15593 0.0
H482 H 0.1969 0.44723 0.09108 0.0
H483 H 0.42494 0.62683 0.04923 0.0
H484 H 0.69323 0.37107 0.62233 0.0
H485 H 0.65868 0.3581 0.46505 0.0
H486 H 0.63243 0.54414 0.53844 0.0
H487 H 0.68733 0.30605 0.54564 0.0
loop_
_geom_bond_atom_site_label_1
_geom_bond_atom_site_label_2
_geom_bond_distance
_geom_bond_site_symmetry_2
_ccdc_geom_bond_type
H0 C1 0.949 . S
C1 H0 0.949 . S
C1 C2 1.395 . S
C1 C3 1.391 . S
C2 C1 1.395 . S
C2 C5 1.390 . S
C3 C1 1.391 . S
C3 C7 1.387 . S
C3 C8 1.491 . S
H4 C5 0.950 . S
C5 C2 1.390 . S
C5 H4 0.950 . S
C5 C6 1.378 . S
C6 C5 1.378 . S
C6 C7 1.409 . S
C7 C3 1.387 . S
C7 C6 1.409 . S
C7 H9 0.951 . S
C8 C3 1.491 . S
C8 C10 1.382 . S
C8 C12 1.404 . S
H9 C7 0.951 . S
C10 C8 1.382 . S
C10 C11 1.390 . S
C10 H15 0.949 . S
C11 C10 1.390 . S
C11 C16 1.399 . S
C12 C8 1.404 . S
C12 H13 0.950 . S
C12 C14 1.375 . S
H13 C12 0.950 . S
C14 C12 1.375 . S
C14 C16 1.382 . S
C14 H18 0.950 1_455 S
H15 C10 0.949 . S
C16 C11 1.399 . S
C16 C14 1.382 . S
C16 H17 0.952 1_455 S
H17 C16 0.952 1_655 S
H18 C14 0.950 1_655 S
H19 C20 0.949 . S
C20 H19 0.949 . S
C20 C21 1.395 . S
C20 C22 1.391 . S
C21 C20 1.395 . S
C21 C24 1.390 . S
C22 C20 1.391 . S
C22 C26 1.387 . S
C22 C27 1.491 . S
H23 C24 0.950 . S
C24 C21 1.390 . S
C24 H23 0.950 . S
C24 C25 1.378 . S
C25 C24 1.378 . S
C25 C26 1.409 . S
C26 C22 1.387 . S
C26 C25 1.409 . S
C26 H28 0.951 . S
C27 C22 1.491 . S
C27 C29 1.382 . S
C27 C31 1.404 . S
H28 C26 0.951 . S
C29 C27 1.382 . S
C29 C30 1.390 . S
C29 H34 0.949 . S
C30 C29 1.390 . S
C30 C35 1.399 . S
C31 C27 1.404 . S
C31 H32 0.950 . S
C31 C33 1.375 . S
H32 C31 0.950 . S
C33 C31 1.375 . S
C33 C35 1.382 . S
C33 H37 0.950 . S
H34 C29 0.949 . S
C35 C30 1.399 . S
C35 C33 1.382 . S
C35 H36 0.952 . S
H36 C35 0.952 . S
H37 C33 0.950 . S
H38 C39 0.949 . S
C39 H38 0.949 . S
C39 C40 1.395 . S
C39 C41 1.391 . S
C40 C39 1.395 . S
C40 C43 1.390 . S
C41 C39 1.391 . S
C41 C45 1.387 . S
C41 C46 1.491 . S
H42 C43 0.950 . S
C43 C40 1.390 . S
C43 H42 0.950 . S
C43 C44 1.378 . S
C44 C43 1.378 . S
C44 C45 1.409 . S
C45 C41 1.387 . S
C45 C44 1.409 . S
C45 H47 0.951 . S
C46 C41 1.491 . S
C46 C48 1.382 . S
C46 C50 1.404 . S
H47 C45 0.951 . S
C48 C46 1.382 . S
C48 C49 1.390 . S
C48 H53 0.949 . S
C49 C48 1.390 . S
C49 C54 1.399 . S
C50 C46 1.404 . S
C50 H51 0.950 . S
C50 C52 1.375 . S
H51 C50 0.950 . S
C52 C50 1.375 . S
C52 C54 1.382 . S
C52 H56 0.950 . S
H53 C48 0.949 . S
C54 C49 1.399 . S
C54 C52 1.382 . S
C54 H55 0.952 . S
H55 C54 0.952 . S
H56 C52 0.950 . S
H57 C58 0.949 . S
C58 H57 0.949 . S
C58 C59 1.395 . S
C58 C60 1.391 . S
C59 C58 1.395 . S
C59 C62 1.390 . S
C60 C58 1.391 . S
C60 C64 1.387 . S
C60 C65 1.491 . S
H61 C62 0.950 . S
C62 C59 1.390 . S
C62 H61 0.950 . S
C62 C63 1.378 . S
C63 C62 1.378 . S
C63 C64 1.409 . S
C64 C60 1.387 . S
C64 C63 1.409 . S
C64 H66 0.951 . S
C65 C60 1.491 . S
C65 C67 1.382 . S
C65 C69 1.404 . S
H66 C64 0.951 . S
C67 C65 1.382 . S
C67 C68 1.390 . S
C67 H72 0.949 . S
C68 C67 1.390 . S
C68 C73 1.399 . S
C69 C65 1.404 . S
C69 H70 0.950 . S
C69 C71 1.375 . S
H70 C69 0.950 . S
C71 C69 1.375 . S
C71 C73 1.382 . S
C71 H75 0.950 1_655 S
H72 C67 0.949 . S
C73 C68 1.399 . S
C73 C71 1.382 . S
C73 H74 0.952 1_655 S
H74 C73 0.952 1_455 S
H75 C71 0.950 1_455 S
H76 C77 0.949 . S
C77 H76 0.949 . S
C77 C78 1.395 . S
C77 C79 1.391 . S
C78 C77 1.395 . S
C78 C81 1.390 . S
C79 C77 1.391 . S
C79 C83 1.387 . S
C79 C84 1.491 . S
H80 C81 0.950 . S
C81 C78 1.390 . S
C81 H80 0.950 . S
C81 C82 1.378 . S
C82 C81 1.378 . S
C82 C83 1.409 . S
C83 C79 1.387 . S
C83 C82 1.409 . S
C83 H85 0.951 . S
C84 C79 1.491 . S
C84 C86 1.382 . S
C84 C88 1.404 . S
H85 C83 0.951 . S
C86 C84 1.382 . S
C86 C87 1.390 . S
C86 H91 0.949 . S
C87 C86 1.390 . S
C87 C92 1.399 . S
C88 C84 1.404 . S
C88 H89 0.950 . S
C88 C90 1.375 . S
H89 C88 0.950 . S
C90 C88 1.375 . S
C90 C92 1.382 . S
C90 H94 0.950 . S
H91 C86 0.949 . S
C92 C87 1.399 . S
C92 C90 1.382 . S
C92 H93 0.952 . S
H93 C92 0.952 . S
H94 C90 0.950 . S
H95 C96 0.949 . S
C96 H95 0.949 . S
C96 C97 1.395 . S
C96 C98 1.391 . S
C97 C96 1.395 . S
C97 C100 1.390 . S
C98 C96 1.391 . S
C98 C102 1.387 . S
C98 C103 1.491 . S
H99 C100 0.950 . S
C100 C97 1.390 . S
C100 H99 0.950 . S
C100 C101 1.378 . S
C101 C100 1.378 . S
C101 C102 1.409 . S
C102 C98 1.387 . S
C102 C101 1.409 . S
C102 H104 0.951 . S
C103 C98 1.491 . S
C103 C105 1.382 . S
C103 C107 1.404 . S
H104 C102 0.951 . S
C105 C103 1.382 . S
C105 C106 1.390 . S
C105 H110 0.949 . S
C106 C105 1.390 . S
C106 C111 1.399 . S
C107 C103 1.404 . S
C107 H108 0.950 . S
C107 C109 1.375 . S
H108 C107 0.950 . S
C109 C107 1.375 . S
C109 C111 1.382 . S
C109 H113 0.950 . S
H110 C105 0.949 . S
C111 C106 1.399 . S
C111 C109 1.382 . S
C111 H112 0.952 . S
H112 C111 0.952 . S
H113 C109 0.950 . S
H114 C115 0.949 . S
C115 H114 0.949 . S
C115 C116 1.395 . S
C115 C117 1.391 . S
C116 C115 1.395 . S
C116 C119 1.390 . S
C117 C115 1.391 . S
C117 C121 1.387 . S
C117 C122 1.491 . S
H118 C119 0.950 . S
C119 C116 1.390 . S
C119 H118 0.950 . S
C119 C120 1.378 . S
C120 C119 1.378 . S
C120 C121 1.409 . S
C121 C117 1.387 . S
C121 C120 1.409 . S
C121 H123 0.951 . S
C122 C117 1.491 . S
C122 C124 1.382 . S
C122 C126 1.404 . S
H123 C121 0.951 . S
C124 C122 1.382 . S
C124 C125 1.390 . S
C124 H129 0.949 . S
C125 C124 1.390 . S
C125 C130 1.399 . S
C126 C122 1.404 . S
C126 H127 0.950 . S
C126 C128 1.375 . S
H127 C126 0.950 . S
C128 C126 1.375 . S
C128 C130 1.382 . S
C128 H132 0.950 . S
H129 C124 0.949 . S
C130 C125 1.399 . S
C130 C128 1.382 . S
C130 H131 0.952 . S
H131 C130 0.952 . S
H132 C128 0.950 . S
H133 C134 0.949 . S
C134 H133 0.949 . S
C134 C135 1.395 . S
C134 C136 1.391 . S
C135 C134 1.395 . S
C135 C138 1.390 . S
C136 C134 1.391 . S
C136 C140 1.387 . S
C136 C141 1.491 . S
H137 C138 0.950 . S
C138 C135 1.390 . S
C138 H137 0.950 . S
C138 C139 1.378 . S
C139 C138 1.378 . S
C139 C140 1.409 . S
C140 C136 1.387 . S
C140 C139 1.409 . S
C140 H142 0.951 . S
C141 C136 1.491 . S
C141 C143 1.382 . S
C141 C145 1.404 . S
H142 C140 0.951 . S
C143 C141 1.382 . S
C143 C144 1.390 . S
C143 H148 0.949 . S
C144 C143 1.390 . S
C144 C149 1.399 . S
C145 C141 1.404 . S
C145 H146 0.950 . S
C145 C147 1.375 . S
H146 C145 0.950 . S
C147 C145 1.375 . S
C147 C149 1.382 . S
C147 H151 0.950 . S
H148 C143 0.949 . S
C149 C144 1.399 . S
C149 C147 1.382 . S
C149 H150 0.952 . S
H150 C149 0.952 . S
H151 C147 0.950 . S
Eu152 N181 2.600 . S
Eu152 N187 2.562 . S
Eu152 O196 2.462 . S
Eu152 O197 2.373 . S
Eu152 O199 2.432 1_545 S
Eu152 O200 2.291 1_455 S
Eu152 O204 2.335 1_445 S
Eu152 O207 2.372 1_545 S
Eu152 C216 2.787 . S
C153 N154 1.365 . S
C153 C156 1.405 . S
C153 C160 1.448 1_545 S
N154 C153 1.365 . S
N154 C157 1.319 . S
N154 Eu163 2.600 . S
C155 C157 1.397 . S
C155 C158 1.367 . S
C155 H175 0.931 . S
C156 C153 1.405 . S
C156 C158 1.403 . S
C156 C162 1.439 1_545 S
C157 N154 1.319 . S
C157 C155 1.397 . S
C157 H168 0.930 . S
C158 C155 1.367 . S
C158 C156 1.403 . S
C158 H179 0.929 . S
C159 C160 1.430 . S
C159 C161 1.387 . S
C159 C165 1.404 . S
C160 C153 1.448 1_565 S
C160 C159 1.430 . S
C160 N164 1.351 . S
C161 C159 1.387 . S
C161 C162 1.374 . S
C161 H176 0.931 . S
C162 C156 1.439 1_565 S
C162 C161 1.374 . S
C162 H177 0.931 . S
Eu163 N154 2.600 . S
Eu163 N164 2.562 1_545 S
Eu163 O198 2.335 1_655 S
Eu163 O201 2.372 . S
Eu163 O202 2.462 . S
Eu163 O203 2.373 1_545 S
Eu163 O205 2.432 . S
Eu163 O206 2.291 1_645 S
Eu163 C227 2.787 . S
N164 C160 1.351 . S
N164 Eu163 2.562 1_565 S
N164 C166 1.325 . S
C165 C159 1.404 . S
C165 C167 1.366 . S
C165 H173 0.930 . S
C166 N164 1.325 . S
C166 C167 1.416 . S
C166 H172 0.929 . S
C167 C165 1.366 . S
C167 C166 1.416 . S
C167 H169 0.930 . S
H168 C157 0.930 . S
H169 C167 0.930 . S
H170 C185 0.930 . S
H171 C192 0.930 . S
H172 C166 0.929 . S
H173 C165 0.930 . S
H174 C188 0.929 . S
H175 C155 0.931 . S
H176 C161 0.931 . S
H177 C162 0.931 . S
H178 C183 0.931 . S
H179 C158 0.929 . S
H180 C191 0.930 . S
N181 Eu152 2.600 . S
N181 C182 1.365 . S
N181 C185 1.319 1_545 S
C182 N181 1.365 . S
C182 C184 1.405 . S
C182 C190 1.448 . S
C183 H178 0.931 . S
C183 C185 1.397 . S
C183 C186 1.367 1_565 S
C184 C182 1.405 . S
C184 C186 1.403 . S
C184 C217 1.439 . S
C185 H170 0.930 . S
C185 N181 1.319 1_565 S
C185 C183 1.397 . S
C186 C183 1.367 1_545 S
C186 C184 1.403 . S
C186 H193 0.929 . S
N187 Eu152 2.562 . S
N187 C188 1.325 . S
N187 C190 1.351 . S
C188 H174 0.929 . S
C188 N187 1.325 . S
C188 C192 1.416 . S
C189 C190 1.430 . S
C189 C191 1.404 . S
C189 C218 1.387 . S
C190 C182 1.448 . S
C190 N187 1.351 . S
C190 C189 1.430 . S
C191 H180 0.930 . S
C191 C189 1.404 . S
C191 C192 1.366 . S
C192 H171 0.930 . S
C192 C188 1.416 . S
C192 C191 1.366 . S
H193 C186 0.929 . S
H194 C217 0.931 . S
H195 C218 0.931 . S
O196 Eu152 2.462 . S
O196 C216 1.252 . S
O197 Eu152 2.373 . S
O197 C208 1.249 . S
O198 Eu163 2.335 1_455 S
O198 C208 1.264 . S
O199 Eu152 2.432 1_565 S
O199 C216 1.268 1_565 S
O200 Eu152 2.291 1_655 S
O200 C215 1.255 . S
O201 Eu163 2.372 . S
O201 C215 1.257 . S
O202 Eu163 2.462 . S
O202 C227 1.252 . S
O203 Eu163 2.373 1_565 S
O203 C219 1.249 . S
O204 Eu152 2.335 1_665 S
O204 C219 1.264 . S
O205 Eu163 2.432 . S
O205 C227 1.268 . S
O206 Eu163 2.291 1_465 S
O206 C226 1.255 . S
O207 Eu152 2.372 1_565 S
O207 C226 1.257 . S
C208 O197 1.249 . S
C208 O198 1.264 . S
C209 C212 1.382 1_545 S
C209 C214 1.390 . S
C209 C216 1.506 . S
C210 C211 1.398 1_545 S
C210 C214 1.392 1_556 S
C211 C210 1.398 1_565 S
C211 C213 1.372 1_556 S
C211 H228 0.931 . S
C212 C209 1.382 1_565 S
C212 C213 1.390 . S
C212 H229 0.931 . S
C213 C211 1.372 1_554 S
C213 C212 1.390 . S
C213 H230 0.936 . S
C214 C209 1.390 . S
C214 C210 1.392 1_554 S
C214 H231 0.930 . S
C215 O200 1.255 . S
C215 O201 1.257 . S
C216 Eu152 2.787 . S
C216 O196 1.252 . S
C216 O199 1.268 1_545 S
C216 C209 1.506 . S
C217 C184 1.439 . S
C217 H194 0.931 . S
C217 C218 1.374 . S
C218 C189 1.387 . S
C218 H195 0.931 . S
C218 C217 1.374 . S
C219 O203 1.249 . S
C219 O204 1.264 . S
C220 C223 1.382 . S
C220 C224 1.390 . S
C220 C227 1.506 . S
C221 C222 1.398 . S
C221 C224 1.392 . S
C222 C221 1.398 . S
C222 C225 1.372 . S
C222 H232 0.931 . S
C223 C220 1.382 . S
C223 C225 1.390 . S
C223 H233 0.931 . S
C224 C220 1.390 . S
C224 C221 1.392 . S
C224 H234 0.930 . S
C225 C222 1.372 . S
C225 C223 1.390 . S
C225 H235 0.929 . S
C226 O206 1.255 . S
C226 O207 1.257 . S
C227 Eu163 2.787 . S
C227 O202 1.252 . S
C227 O205 1.268 . S
C227 C220 1.506 . S
H228 C211 0.931 . S
H229 C212 0.931 . S
H230 C213 0.936 . S
H231 C214 0.930 . S
H232 C222 0.931 . S
H233 C223 0.931 . S
H234 C224 0.930 . S
H235 C225 0.929 . S
Eu236 N265 2.600 . S
Eu236 N271 2.562 . S
Eu236 O280 2.462 . S
Eu236 O281 2.373 . S
Eu236 O283 2.432 . S
Eu236 O284 2.291 . S
Eu236 O288 2.335 . S
Eu236 O291 2.372 . S
Eu236 C300 2.787 . S
C237 N238 1.365 . S
C237 C240 1.405 . S
C237 C244 1.448 . S
N238 C237 1.365 . S
N238 C241 1.319 . S
N238 Eu247 2.600 . S
C239 C241 1.397 . S
C239 C242 1.367 . S
C239 H259 0.931 . S
C240 C237 1.405 . S
C240 C242 1.403 . S
C240 C246 1.439 . S
C241 N238 1.319 . S
C241 C239 1.397 . S
C241 H252 0.930 . S
C242 C239 1.367 . S
C242 C240 1.403 . S
C242 H263 0.929 1_655 S
C243 C244 1.430 . S
C243 C245 1.387 . S
C243 C249 1.404 . S
C244 C237 1.448 . S
C244 C243 1.430 . S
C244 N248 1.351 . S
C245 C243 1.387 . S
C245 C246 1.374 . S
C245 H260 0.931 . S
C246 C240 1.439 . S
C246 C245 1.374 . S
C246 H261 0.931 1_655 S
Eu247 N238 2.600 . S
Eu247 N248 2.562 . S
Eu247 O282 2.335 . S
Eu247 O285 2.372 . S
Eu247 O286 2.462 . S
Eu247 O287 2.373 . S
Eu247 O289 2.432 . S
Eu247 O290 2.291 . S
Eu247 C311 2.787 . S
N248 C244 1.351 . S
N248 Eu247 2.562 . S
N248 C250 1.325 . S
C249 C243 1.404 . S
C249 C251 1.366 . S
C249 H257 0.930 . S
C250 N248 1.325 . S
C250 C251 1.416 . S
C250 H256 0.929 . S
C251 C249 1.366 . S
C251 C250 1.416 . S
C251 H253 0.930 . S
H252 C241 0.930 . S
H253 C251 0.930 . S
H254 C269 0.930 . S
H255 C276 0.930 . S
H256 C250 0.929 . S
H257 C249 0.930 . S
H258 C272 0.929 . S
H259 C239 0.931 . S
H260 C245 0.931 . S
H261 C246 0.931 1_455 S
H262 C267 0.931 . S
H263 C242 0.929 1_455 S
H264 C275 0.930 . S
N265 Eu236 2.600 . S
N265 C266 1.365 . S
N265 C269 1.319 . S
C266 N265 1.365 . S
C266 C268 1.405 . S
C266 C274 1.448 . S
C267 H262 0.931 . S
C267 C269 1.397 . S
C267 C270 1.367 . S
C268 C266 1.405 . S
C268 C270 1.403 . S
C268 C301 1.439 . S
C269 H254 0.930 . S
C269 N265 1.319 . S
C269 C267 1.397 . S
C270 C267 1.367 . S
C270 C268 1.403 . S
C270 H277 0.929 1_455 S
N271 Eu236 2.562 . S
N271 C272 1.325 . S
N271 C274 1.351 . S
C272 H258 0.929 . S
C272 N271 1.325 . S
C272 C276 1.416 . S
C273 C274 1.430 . S
C273 C275 1.404 . S
C273 C302 1.387 . S
C274 C266 1.448 . S
C274 N271 1.351 . S
C274 C273 1.430 . S
C275 H264 0.930 . S
C275 C273 1.404 . S
C275 C276 1.366 . S
C276 H255 0.930 . S
C276 C272 1.416 . S
C276 C275 1.366 . S
H277 C270 0.929 1_655 S
H278 C301 0.931 1_655 S
H279 C302 0.931 . S
O280 Eu236 2.462 . S
O280 C300 1.252 . S
O281 Eu236 2.373 . S
O281 C292 1.249 . S
O282 Eu247 2.335 . S
O282 C292 1.264 . S
O283 Eu236 2.432 . S
O283 C300 1.268 . S
O284 Eu236 2.291 . S
O284 C299 1.255 . S
O285 Eu247 2.372 . S
O285 C299 1.257 . S
O286 Eu247 2.462 . S
O286 C311 1.252 . S
O287 Eu247 2.373 . S
O287 C303 1.249 . S
O288 Eu236 2.335 . S
O288 C303 1.264 . S
O289 Eu247 2.432 . S
O289 C311 1.268 . S
O290 Eu247 2.291 . S
O290 C310 1.255 . S
O291 Eu236 2.372 . S
O291 C310 1.257 . S
C292 O281 1.249 . S
C292 O282 1.264 . S
C293 C296 1.382 . S
C293 C298 1.390 . S
C293 C300 1.506 . S
C294 C295 1.398 . S
C294 C298 1.392 . S
C295 C294 1.398 . S
C295 C297 1.372 . S
C295 H312 0.931 . S
C296 C293 1.382 . S
C296 C297 1.390 . S
C296 H313 0.931 . S
C297 C295 1.372 . S
C297 C296 1.390 . S
C297 H314 0.929 . S
C298 C293 1.390 . S
C298 C294 1.392 . S
C298 H315 0.930 . S
C299 O284 1.255 . S
C299 O285 1.257 . S
C300 Eu236 2.787 . S
C300 O280 1.252 . S
C300 O283 1.268 . S
C300 C293 1.506 . S
C301 C268 1.439 . S
C301 H278 0.931 1_455 S
C301 C302 1.374 . S
C302 C273 1.387 . S
C302 H279 0.931 . S
C302 C301 1.374 . S
C303 O287 1.249 . S
C303 O288 1.264 . S
C304 C307 1.382 . S
C304 C308 1.390 . S
C304 C311 1.506 . S
C305 C306 1.398 . S
C305 C308 1.392 1_554 S
C306 C305 1.398 . S
C306 C309 1.372 1_554 S
C306 H316 0.931 . S
C307 C304 1.382 . S
C307 C309 1.390 . S
C307 H317 0.931 . S
C308 C304 1.390 . S
C308 C305 1.392 1_556 S
C308 H318 0.930 . S
C309 C306 1.372 1_556 S
C309 C307 1.390 . S
C309 H319 0.930 1_556 S
C310 O290 1.255 . S
C310 O291 1.257 . S
C311 Eu247 2.787 . S
C311 O286 1.252 . S
C311 O289 1.268 . S
C311 C304 1.506 . S
H312 C295 0.931 . S
H313 C296 0.931 . S
H314 C297 0.929 . S
H315 C298 0.930 . S
H316 C306 0.931 . S
H317 C307 0.931 . S
H318 C308 0.930 . S
H319 C309 0.930 1_554 S
Eu320 N349 2.600 . S
Eu320 N355 2.562 1_565 S
Eu320 O364 2.462 . S
Eu320 O365 2.373 1_565 S
Eu320 O367 2.432 . S
Eu320 O368 2.291 1_465 S
Eu320 O372 2.335 1_455 S
Eu320 O375 2.372 . S
Eu320 C384 2.787 . S
C321 N322 1.365 . S
C321 C324 1.405 . S
C321 C328 1.448 . S
N322 C321 1.365 . S
N322 C325 1.319 1_565 S
N322 Eu331 2.600 . S
C323 C325 1.397 . S
C323 C326 1.367 1_545 S
C323 H343 0.931 . S
C324 C321 1.405 . S
C324 C326 1.403 . S
C324 C330 1.439 . S
C325 N322 1.319 1_545 S
C325 C323 1.397 . S
C325 H336 0.930 . S
C326 C323 1.367 1_565 S
C326 C324 1.403 . S
C326 H347 0.929 . S
C327 C328 1.430 . S
C327 C329 1.387 . S
C327 C333 1.404 . S
C328 C321 1.448 . S
C328 C327 1.430 . S
C328 N332 1.351 . S
C329 C327 1.387 . S
C329 C330 1.374 . S
C329 H344 0.931 . S
C330 C324 1.439 . S
C330 C329 1.374 . S
C330 H345 0.931 . S
Eu331 N322 2.600 . S
Eu331 N332 2.562 . S
Eu331 O366 2.335 1_665 S
Eu331 O369 2.372 1_565 S
Eu331 O370 2.462 . S
Eu331 O371 2.373 . S
Eu331 O373 2.432 1_565 S
Eu331 O374 2.291 1_655 S
Eu331 C395 2.787 . S
N332 C328 1.351 . S
N332 Eu331 2.562 . S
N332 C334 1.325 . S
C333 C327 1.404 . S
C333 C335 1.366 . S
C333 H341 0.930 . S
C334 N332 1.325 . S
C334 C335 1.416 . S
C334 H340 0.929 . S
C335 C333 1.366 . S
C335 C334 1.416 . S
C335 H337 0.930 . S
H336 C325 0.930 . S
H337 C335 0.930 . S
H338 C353 0.930 . S
H339 C360 0.930 . S
H340 C334 0.929 . S
H341 C333 0.930 . S
H342 C356 0.929 . S
H343 C323 0.931 . S
H344 C329 0.931 . S
H345 C330 0.931 . S
H346 C351 0.931 . S
H347 C326 0.929 . S
H348 C359 0.930 . S
N349 Eu320 2.600 . S
N349 C350 1.365 . S
N349 C353 1.319 . S
C350 N349 1.365 . S
C350 C352 1.405 . S
C350 C358 1.448 1_565 S
C351 H346 0.931 . S
C351 C353 1.397 . S
C351 C354 1.367 . S
C352 C350 1.405 . S
C352 C354 1.403 . S
C352 C385 1.439 1_565 S
C353 H338 0.930 . S
C353 N349 1.319 . S
C353 C351 1.397 . S
C354 C351 1.367 . S
C354 C352 1.403 . S
C354 H361 0.929 . S
N355 Eu320 2.562 1_545 S
N355 C356 1.325 . S
N355 C358 1.351 . S
C356 H342 0.929 . S
C356 N355 1.325 . S
C356 C360 1.416 . S
C357 C358 1.430 . S
C357 C359 1.404 . S
C357 C386 1.387 . S
C358 C350 1.448 1_545 S
C358 N355 1.351 . S
C358 C357 1.430 . S
C359 H348 0.930 . S
C359 C357 1.404 . S
C359 C360 1.366 . S
C360 H339 0.930 . S
C360 C356 1.416 . S
C360 C359 1.366 . S
H361 C354 0.929 . S
H362 C385 0.931 . S
H363 C386 0.931 . S
O364 Eu320 2.462 . S
O364 C384 1.252 . S
O365 Eu320 2.373 1_545 S
O365 C376 1.249 . S
O366 Eu331 2.335 1_445 S
O366 C376 1.264 . S
O367 Eu320 2.432 . S
O367 C384 1.268 . S
O368 Eu320 2.291 1_645 S
O368 C383 1.255 . S
O369 Eu331 2.372 1_545 S
O369 C383 1.257 . S
O370 Eu331 2.462 . S
O370 C395 1.252 . S
O371 Eu331 2.373 . S
O371 C387 1.249 . S
O372 Eu320 2.335 1_655 S
O372 C387 1.264 . S
O373 Eu331 2.432 1_545 S
O373 C395 1.268 1_545 S
O374 Eu331 2.291 1_455 S
O374 C394 1.255 . S
O375 Eu320 2.372 . S
O375 C394 1.257 . S
C376 O365 1.249 . S
C376 O366 1.264 . S
C377 C380 1.382 . S
C377 C382 1.390 . S
C377 C384 1.506 . S
C378 C379 1.398 . S
C378 C382 1.392 . S
C379 C378 1.398 . S
C379 C381 1.372 . S
C379 H396 0.931 . S
C380 C377 1.382 . S
C380 C381 1.390 . S
C380 H397 0.931 . S
C381 C379 1.372 . S
C381 C380 1.390 . S
C381 H398 0.929 . S
C382 C377 1.390 . S
C382 C378 1.392 . S
C382 H399 0.930 . S
C383 O368 1.255 . S
C383 O369 1.257 . S
C384 Eu320 2.787 . S
C384 O364 1.252 . S
C384 O367 1.268 . S
C384 C377 1.506 . S
C385 C352 1.439 1_545 S
C385 H362 0.931 . S
C385 C386 1.374 . S
C386 C357 1.387 . S
C386 H363 0.931 . S
C386 C385 1.374 . S
C387 O371 1.249 . S
C387 O372 1.264 . S
C388 C391 1.382 1_565 S
C388 C392 1.390 . S
C388 C395 1.506 . S
C389 C390 1.398 1_565 S
C389 C392 1.392 1_554 S
C390 C389 1.398 1_545 S
C390 C393 1.372 1_554 S
C390 H400 0.931 . S
C391 C388 1.382 1_545 S
C391 C393 1.390 . S
C391 H401 0.931 . S
C392 C388 1.390 . S
C392 C389 1.392 1_556 S
C392 H402 0.930 . S
C393 C390 1.372 1_556 S
C393 C391 1.390 . S
C393 H403 0.936 . S
C394 O374 1.255 . S
C394 O375 1.257 . S
C395 Eu331 2.787 . S
C395 O370 1.252 . S
C395 O373 1.268 1_565 S
C395 C388 1.506 . S
H396 C379 0.931 . S
H397 C380 0.931 . S
H398 C381 0.929 . S
H399 C382 0.930 . S
H400 C390 0.931 . S
H401 C391 0.931 . S
H402 C392 0.930 . S
H403 C393 0.936 . S
Eu404 N433 2.600 . S
Eu404 N439 2.562 . S
Eu404 O448 2.462 . S
Eu404 O449 2.373 . S
Eu404 O451 2.432 . S
Eu404 O452 2.291 . S
Eu404 O456 2.335 . S
Eu404 O459 2.372 . S
Eu404 C468 2.787 . S
C405 N406 1.365 . S
C405 C408 1.405 . S
C405 C412 1.448 . S
N406 C405 1.365 . S
N406 C409 1.319 . S
N406 Eu415 2.600 . S
C407 C409 1.397 . S
C407 C410 1.367 . S
C407 H427 0.931 . S
C408 C405 1.405 . S
C408 C410 1.403 . S
C408 C414 1.439 . S
C409 N406 1.319 . S
C409 C407 1.397 . S
C409 H420 0.930 . S
C410 C407 1.367 . S
C410 C408 1.403 . S
C410 H431 0.929 1_655 S
C411 C412 1.430 . S
C411 C413 1.387 . S
C411 C417 1.404 . S
C412 C405 1.448 . S
C412 C411 1.430 . S
C412 N416 1.351 . S
C413 C411 1.387 . S
C413 C414 1.374 . S
C413 H428 0.931 . S
C414 C408 1.439 . S
C414 C413 1.374 . S
C414 H429 0.931 1_655 S
Eu415 N406 2.600 . S
Eu415 N416 2.562 . S
Eu415 O450 2.335 . S
Eu415 O453 2.372 . S
Eu415 O454 2.462 . S
Eu415 O455 2.373 . S
Eu415 O457 2.432 . S
Eu415 O458 2.291 . S
Eu415 C479 2.787 . S
N416 C412 1.351 . S
N416 Eu415 2.562 . S
N416 C418 1.325 . S
C417 C411 1.404 . S
C417 C419 1.366 . S
C417 H425 0.930 . S
C418 N416 1.325 . S
C418 C419 1.416 . S
C418 H424 0.929 . S
C419 C417 1.366 . S
C419 C418 1.416 . S
C419 H421 0.930 . S
H420 C409 0.930 . S
H421 C419 0.930 . S
H422 C437 0.930 . S
H423 C444 0.930 . S
H424 C418 0.929 . S
H425 C417 0.930 . S
H426 C440 0.929 . S
H427 C407 0.931 . S
H428 C413 0.931 . S
H429 C414 0.931 1_455 S
H430 C435 0.931 . S
H431 C410 0.929 1_455 S
H432 C443 0.930 . S
N433 Eu404 2.600 . S
N433 C434 1.365 . S
N433 C437 1.319 . S
C434 N433 1.365 . S
C434 C436 1.405 . S
C434 C442 1.448 . S
C435 H430 0.931 . S
C435 C437 1.397 . S
C435 C438 1.367 . S
C436 C434 1.405 . S
C436 C438 1.403 . S
C436 C469 1.439 . S
C437 H422 0.930 . S
C437 N433 1.319 . S
C437 C435 1.397 . S
C438 C435 1.367 . S
C438 C436 1.403 . S
C438 H445 0.929 1_455 S
N439 Eu404 2.562 . S
N439 C440 1.325 . S
N439 C442 1.351 . S
C440 H426 0.929 . S
C440 N439 1.325 . S
C440 C444 1.416 . S
C441 C442 1.430 . S
C441 C443 1.404 . S
C441 C470 1.387 . S
C442 C434 1.448 . S
C442 N439 1.351 . S
C442 C441 1.430 . S
C443 H432 0.930 . S
C443 C441 1.404 . S
C443 C444 1.366 . S
C444 H423 0.930 . S
C444 C440 1.416 . S
C444 C443 1.366 . S
H445 C438 0.929 1_655 S
H446 C469 0.931 1_655 S
H447 C470 0.931 . S
O448 Eu404 2.462 . S
O448 C468 1.252 . S
O449 Eu404 2.373 . S
O449 C460 1.249 . S
O450 Eu415 2.335 . S
O450 C460 1.264 . S
O451 Eu404 2.432 . S
O451 C468 1.268 . S
O452 Eu404 2.291 . S
O452 C467 1.255 . S
O453 Eu415 2.372 . S
O453 C467 1.257 . S
O454 Eu415 2.462 . S
O454 C479 1.252 . S
O455 Eu415 2.373 . S
O455 C471 1.249 . S
O456 Eu404 2.335 . S
O456 C471 1.264 . S
O457 Eu415 2.432 . S
O457 C479 1.268 . S
O458 Eu415 2.291 . S
O458 C478 1.255 . S
O459 Eu404 2.372 . S
O459 C478 1.257 . S
C460 O449 1.249 . S
C460 O450 1.264 . S
C461 C464 1.382 . S
C461 C466 1.390 . S
C461 C468 1.506 . S
C462 C463 1.398 . S
C462 C466 1.392 1_556 S
C463 C462 1.398 . S
C463 C465 1.372 1_556 S
C463 H480 0.931 . S
C464 C461 1.382 . S
C464 C465 1.390 . S
C464 H481 0.931 . S
C465 C463 1.372 1_554 S
C465 C464 1.390 . S
C465 H482 0.930 1_554 S
C466 C461 1.390 . S
C466 C462 1.392 1_554 S
C466 H483 0.930 . S
C467 O452 1.255 . S
C467 O453 1.257 . S
C468 Eu404 2.787 . S
C468 O448 1.252 . S
C468 O451 1.268 . S
C468 C461 1.506 . S
C469 C436 1.439 . S
C469 H446 0.931 1_455 S
C469 C470 1.374 . S
C470 C441 1.387 . S
C470 H447 0.931 . S
C470 C469 1.374 . S
C471 O455 1.249 . S
C471 O456 1.264 . S
C472 C475 1.382 . S
C472 C476 1.390 . S
C472 C479 1.506 . S
C473 C474 1.398 . S
C473 C476 1.392 . S
C474 C473 1.398 . S
C474 C477 1.372 . S
C474 H484 0.931 . S
C475 C472 1.382 . S
C475 C477 1.390 . S
C475 H485 0.931 . S
C476 C472 1.390 . S
C476 C473 1.392 . S
C476 H486 0.930 . S
C477 C474 1.372 . S
C477 C475 1.390 . S
C477 H487 0.929 . S
C478 O458 1.255 . S
C478 O459 1.257 . S
C479 Eu415 2.787 . S
C479 O454 1.252 . S
C479 O457 1.268 . S
C479 C472 1.506 . S
H480 C463 0.931 . S
H481 C464 0.931 . S
H482 C465 0.930 1_556 S
H483 C466 0.930 . S
H484 C474 0.931 . S
H485 C475 0.931 . S
H486 C476 0.930 . S
H487 C477 0.929 . S
C116 C226 2.313 . S
C310 C135 2.313 . S
C303 C78 2.201 . S
C97 C219 2.202 . S
C383 C40 2.317 . S
C467 C59 2.317 . S
C2 C460 2.205 . S
C21 C376 2.205 . S
C210 C25 1.850 . S
C294 C6 1.850 . S
C305 C63 1.483 . S
C221 C44 1.483 . S
C389 C101 1.859 . S
C82 C473 1.859 . S
C462 C139 1.484 . S
C120 C378 1.484 . S
C208 C11 1.557 . S
C292 C30 1.557 . S
C49 C299 1.499 . S
C215 C68 1.499 . S
C387 C87 1.272 . S
C106 C471 1.272 . S
C125 C478 1.314 . S
C144 C394 1.314 . S
