# Generated by pormake.
# Topology sqc, (4,8)-cn, num edge types: 1
# Building blocks:
#     Node 0, Type 0, BuildingBlock: MUDLON_clean_linker_0, # of connection points: 4
#     Node 1, Type 0, BuildingBlock: MUDLON_clean_linker_0, # of connection points: 4
#     Node 2, Type 0, BuildingBlock: MUDLON_clean_linker_0, # of connection points: 4
#     Node 3, Type 0, BuildingBlock: MUDLON_clean_linker_0, # of connection points: 4
#     Node 4, Type 0, BuildingBlock: MUDLON_clean_linker_0, # of connection points: 4
#     Node 5, Type 0, BuildingBlock: MUDLON_clean_linker_0, # of connection points: 4
#     Node 6, Type 0, BuildingBlock: MUDLON_clean_linker_0, # of connection points: 4
#     Node 7, Type 0, BuildingBlock: MUDLON_clean_linker_0, # of connection points: 4
#     Node 8, Type 1, BuildingBlock: TAGTUT_clean_sbu_3, # of connection points: 8
#     Node 9, Type 1, BuildingBlock: TAGTUT_clean_sbu_3, # of connection points: 8
#     Node 10, Type 1, BuildingBlock: TAGTUT_clean_sbu_3, # of connection points: 8
#     Node 11, Type 1, BuildingBlock: TAGTUT_clean_sbu_3, # of connection points: 8
#     Edge 12, Type (0, 1), BuildingBlock: OJICUG_clean_linker_0, # of connection points: 2
#     Edge 13, Type (0, 1), BuildingBlock: OJICUG_clean_linker_0, # of connection points: 2
#     Edge 14, Type (0, 1), BuildingBlock: OJICUG_clean_linker_0, # of connection points: 2
#     Edge 15, Type (0, 1), BuildingBlock: OJICUG_clean_linker_0, # of connection points: 2
#     Edge 16, Type (0, 1), BuildingBlock: OJICUG_clean_linker_0, # of connection points: 2
#     Edge 17, Type (0, 1), BuildingBlock: OJICUG_clean_linker_0, # of connection points: 2
#     Edge 18, Type (0, 1), BuildingBlock: OJICUG_clean_linker_0, # of connection points: 2
#     Edge 19, Type (0, 1), BuildingBlock: OJICUG_clean_linker_0, # of connection points: 2
#     Edge 20, Type (0, 1), BuildingBlock: OJICUG_clean_linker_0, # of connection points: 2
#     Edge 21, Type (0, 1), BuildingBlock: OJICUG_clean_linker_0, # of connection points: 2
#     Edge 22, Type (0, 1), BuildingBlock: OJICUG_clean_linker_0, # of connection points: 2
#     Edge 23, Type (0, 1), BuildingBlock: OJICUG_clean_linker_0, # of connection points: 2
#     Edge 24, Type (0, 1), BuildingBlock: OJICUG_clean_linker_0, # of connection points: 2
#     Edge 25, Type (0, 1), BuildingBlock: OJICUG_clean_linker_0, # of connection points: 2
#     Edge 26, Type (0, 1), BuildingBlock: OJICUG_clean_linker_0, # of connection points: 2
#     Edge 27, Type (0, 1), BuildingBlock: OJICUG_clean_linker_0, # of connection points: 2
#     Edge 28, Type (0, 1), BuildingBlock: OJICUG_clean_linker_0, # of connection points: 2
#     Edge 29, Type (0, 1), BuildingBlock: OJICUG_clean_linker_0, # of connection points: 2
#     Edge 30, Type (0, 1), BuildingBlock: OJICUG_clean_linker_0, # of connection points: 2
#     Edge 31, Type (0, 1), BuildingBlock: OJICUG_clean_linker_0, # of connection points: 2
#     Edge 32, Type (0, 1), BuildingBlock: OJICUG_clean_linker_0, # of connection points: 2
#     Edge 33, Type (0, 1), BuildingBlock: OJICUG_clean_linker_0, # of connection points: 2
#     Edge 34, Type (0, 1), BuildingBlock: OJICUG_clean_linker_0, # of connection points: 2
#     Edge 35, Type (0, 1), BuildingBlock: OJICUG_clean_linker_0, # of connection points: 2
#     Edge 36, Type (0, 1), BuildingBlock: OJICUG_clean_linker_0, # of connection points: 2
#     Edge 37, Type (0, 1), BuildingBlock: OJICUG_clean_linker_0, # of connection points: 2
#     Edge 38, Type (0, 1), BuildingBlock: OJICUG_clean_linker_0, # of connection points: 2
#     Edge 39, Type (0, 1), BuildingBlock: OJICUG_clean_linker_0, # of connection points: 2
#     Edge 40, Type (0, 1), BuildingBlock: OJICUG_clean_linker_0, # of connection points: 2
#     Edge 41, Type (0, 1), BuildingBlock: OJICUG_clean_linker_0, # of connection points: 2
#     Edge 42, Type (0, 1), BuildingBlock: OJICUG_clean_linker_0, # of connection points: 2
#     Edge 43, Type (0, 1), BuildingBlock: OJICUG_clean_linker_0, # of connection points: 2
# Relax obj value: 0.178
# Max RMSD: 0.281
# Mean RMSD: 0.215
data_MOF--net-sqc--node1-TAGTUT_clean_sbu_3--node2-MUDLON_clean_linker_0--edge1-OJICUG_clean_linker_0
_symmetry_space_group_name_H-M    P1
_symmetry_Int_Tables_number       1
_symmetry_cell_setting            triclinic
loop_
_symmetry_equiv_pos_as_xyz
'x, y, z'
_cell_length_a     25.718766
_cell_length_b     25.718534
_cell_length_c     72.942938
_cell_angle_alpha  90.499139
_cell_angle_beta   90.030536
_cell_angle_gamma 89.882083
loop_
_atom_site_label
_atom_site_type_symbol
_atom_site_fract_x
_atom_site_fract_y
_atom_site_fract_z
_atom_type_partial_charge
H0 H 0.83891 0.94267 0.57226 0.0
N1 N 0.84721 0.95556 0.53628 0.0
H2 H 0.79244 0.9983 0.59439 0.0
H3 H 0.79296 0.04526 0.52861 0.0
H4 H 0.74574 0.09965 0.55048 0.0
H5 H 0.84907 0.00725 0.50345 0.0
H6 H 0.79977 0.98507 0.47597 0.0
H7 H 0.78162 0.87699 0.53159 0.0
H8 H 0.73259 0.85385 0.50391 0.0
H9 H 0.92405 0.88628 0.53711 0.0
H10 H 0.89392 0.04996 0.53048 0.0
H11 H 0.01729 0.90162 0.53281 0.0
H12 H 0.98663 0.06583 0.52664 0.0
H13 H 0.29534 0.97087 0.53846 0.0
H14 H 0.35761 0.00408 0.56037 0.0
H15 H 0.28034 0.15406 0.55939 0.0
H16 H 0.22241 0.12144 0.53552 0.0
H17 H 0.3053 0.06528 0.4994 0.0
H18 H 0.36767 0.0167 0.48139 0.0
H19 H 0.27742 0.87657 0.48928 0.0
H20 H 0.21856 0.92506 0.50922 0.0
H21 H 0.1855 0.9593 0.54267 0.0
H22 H 0.09279 0.94138 0.54736 0.0
H23 H 0.05444 0.05006 0.50451 0.0
N24 N 0.22666 0.02916 0.51866 0.0
H25 H 0.14695 0.06845 0.50034 0.0
C26 C 0.81926 0.98925 0.54879 0.0
C27 C 0.81854 0.97684 0.56745 0.0
C28 C 0.79197 0.00845 0.58001 0.0
C29 C 0.76507 0.05279 0.57404 0.0
C30 C 0.76537 0.06511 0.55535 0.0
C31 C 0.79264 0.03401 0.54284 0.0
C32 C 0.81965 0.9431 0.51957 0.0
C33 C 0.82399 0.9736 0.50372 0.0
C34 C 0.79552 0.96101 0.48799 0.0
C35 C 0.76218 0.91776 0.48776 0.0
C36 C 0.75727 0.88791 0.50372 0.0
C37 C 0.78573 0.90057 0.51945 0.0
C38 C 0.90194 0.96672 0.53419 0.0
C39 C 0.93765 0.92554 0.53487 0.0
C40 C 0.99088 0.93445 0.53251 0.0
C41 C 0.00954 0.98497 0.52935 0.0
C42 C 0.97362 0.02633 0.52878 0.0
C43 C 0.92044 0.01735 0.53113 0.0
C44 C 0.25502 0.04421 0.53496 0.0
C45 C 0.29176 0.0109 0.543 0.0
C46 C 0.32738 0.03018 0.55579 0.0
C47 C 0.32554 0.08262 0.56162 0.0
C48 C 0.28516 0.11426 0.55479 0.0
C49 C 0.25095 0.09544 0.5414 0.0
C50 C 0.25676 0.99947 0.50548 0.0
C51 C 0.29869 0.02417 0.49704 0.0
C52 C 0.3343 0.99598 0.48657 0.0
C53 C 0.3278 0.94222 0.48343 0.0
C54 C 0.28464 0.91756 0.4915 0.0
C55 C 0.25002 0.94565 0.50268 0.0
C56 C 0.17283 0.01554 0.52121 0.0
C57 C 0.15699 0.97914 0.53433 0.0
C58 C 0.10402 0.96878 0.5369 0.0
C59 C 0.06604 0.9946 0.5264 0.0
C60 C 0.08243 0.03022 0.51308 0.0
C61 C 0.13522 0.0405 0.51055 0.0
H62 H 0.37109 0.50623 0.80202 0.0
N63 N 0.31855 0.52329 0.76979 0.0
H64 H 0.34285 0.45096 0.8271 0.0
H65 H 0.23576 0.46219 0.7707 0.0
H66 H 0.20728 0.40628 0.7958 0.0
H67 H 0.29893 0.5295 0.73431 0.0
H68 H 0.34851 0.49104 0.70907 0.0
H69 H 0.41155 0.47212 0.77294 0.0
H70 H 0.45993 0.43057 0.74793 0.0
H71 H 0.40281 0.57192 0.78484 0.0
H72 H 0.25034 0.5972 0.76223 0.0
H73 H 0.41331 0.66497 0.78962 0.0
H74 H 0.26229 0.69085 0.76493 0.0
H75 H 0.28944 0.96496 0.76681 0.0
H76 H 0.23418 0.02096 0.7858 0.0
H77 H 0.32219 0.97808 0.83367 0.0
H78 H 0.37929 0.92348 0.81454 0.0
H79 H 0.32325 0.89527 0.74592 0.0
H80 H 0.34985 0.93083 0.71627 0.0
H81 H 0.48602 0.99773 0.74182 0.0
H82 H 0.45884 0.96246 0.77141 0.0
H83 H 0.44498 0.83293 0.77597 0.0
H84 H 0.43124 0.73949 0.77473 0.0
H85 H 0.26593 0.76445 0.78215 0.0
N86 N 0.37411 0.9076 0.77859 0.0
H87 H 0.27985 0.8577 0.78144 0.0
C88 C 0.30476 0.48925 0.78458 0.0
C89 C 0.33535 0.48473 0.80047 0.0
C90 C 0.31935 0.45276 0.81479 0.0
C91 C 0.27288 0.4243 0.81341 0.0
C92 C 0.24361 0.42719 0.79718 0.0
C93 C 0.25944 0.45948 0.78294 0.0
C94 C 0.35071 0.50238 0.75543 0.0
C95 C 0.33439 0.5084 0.73728 0.0
C96 C 0.3627 0.48625 0.72294 0.0
C97 C 0.40762 0.45673 0.7265 0.0
C98 C 0.4256 0.45314 0.74468 0.0
C99 C 0.39757 0.47623 0.75905 0.0
C100 C 0.32498 0.57772 0.77371 0.0
C101 C 0.37119 0.59759 0.78118 0.0
C102 C 0.37758 0.6512 0.78346 0.0
C103 C 0.33882 0.68623 0.77759 0.0
C104 C 0.29263 0.66572 0.77008 0.0
C105 C 0.28572 0.61209 0.76837 0.0
C106 C 0.3396 0.94054 0.78922 0.0
C107 C 0.29764 0.96781 0.7813 0.0
C108 C 0.26572 0.99968 0.79214 0.0
C109 C 0.27424 0.00356 0.81107 0.0
C110 C 0.31507 0.97546 0.81905 0.0
C111 C 0.34763 0.94453 0.80818 0.0
C112 C 0.38899 0.92694 0.76087 0.0
C113 C 0.35884 0.91753 0.74509 0.0
C114 C 0.37408 0.93771 0.72819 0.0
C115 C 0.4201 0.96677 0.72676 0.0
C116 C 0.45076 0.97485 0.74248 0.0
C117 C 0.43515 0.95525 0.75938 0.0
C118 C 0.36384 0.85245 0.77896 0.0
C119 C 0.40582 0.818 0.7773 0.0
C120 C 0.39778 0.76439 0.77682 0.0
C121 C 0.34738 0.74366 0.77851 0.0
C122 C 0.30526 0.77847 0.78047 0.0
C123 C 0.31324 0.83221 0.78034 0.0
H124 H 0.88811 0.08366 0.06338 0.0
N125 N 0.83336 0.0545 0.0343 0.0
H126 H 0.93103 0.02854 0.0859 0.0
H127 H 0.83942 0.94697 0.03339 0.0
H128 H 0.87908 0.89187 0.05625 0.0
H129 H 0.89469 0.9973 0.01082 0.0
H130 H 0.93862 0.02914 0.98363 0.0
H131 H 0.83361 0.15066 0.02159 0.0
H132 H 0.87457 0.18251 0.99367 0.0
H133 H 0.75352 0.10468 0.04917 0.0
H134 H 0.79177 0.98239 0.01081 0.0
H135 H 0.66131 0.08972 0.0438 0.0
H136 H 0.70061 0.96172 0.00722 0.0
H137 H 0.37893 0.02541 0.03372 0.0
H138 H 0.33382 0.00461 0.0619 0.0
H139 H 0.43297 0.86966 0.06848 0.0
H140 H 0.47353 0.88782 0.03917 0.0
H141 H 0.38569 0.92736 0.99466 0.0
H142 H 0.33877 0.97069 0.97012 0.0
H143 H 0.42003 0.11381 0.98297 0.0
H144 H 0.4624 0.0712 0.00856 0.0
H145 H 0.50126 0.02073 0.04608 0.0
H146 H 0.59227 0.04083 0.04982 0.0
H147 H 0.62298 0.97892 0.99541 0.0
N148 N 0.45656 0.96765 0.01715 0.0
H149 H 0.53255 0.95264 0.99296 0.0
C150 C 0.85987 0.02005 0.04678 0.0
C151 C 0.88633 0.04181 0.06173 0.0
C152 C 0.91025 0.01007 0.07471 0.0
C153 C 0.90776 0.95546 0.07315 0.0
C154 C 0.88199 0.93363 0.05793 0.0
C155 C 0.85865 0.96548 0.04483 0.0
C156 C 0.86163 0.07199 0.01847 0.0
C157 C 0.89077 0.03791 0.00736 0.0
C158 C 0.91526 0.05616 0.99158 0.0
C159 C 0.91011 0.10855 0.98628 0.0
C160 C 0.88037 0.14225 -0.00261 0.0
C161 C 0.85674 0.12414 0.01334 0.0
C162 C 0.77936 0.04358 0.03095 0.0
C163 C 0.74176 0.07364 0.03994 0.0
C164 C 0.68895 0.06445 0.03696 0.0
C165 C 0.67253 0.02362 0.02531 0.0
C166 C 0.71082 0.99395 0.01612 0.0
C167 C 0.76351 0.00475 0.01853 0.0
C168 C 0.4288 0.95714 0.03397 0.0
C169 C 0.3902 0.99069 0.041 0.0
C170 C 0.36499 0.97917 0.05746 0.0
C171 C 0.3791 0.93503 0.06769 0.0
C172 C 0.41932 0.90295 0.06089 0.0
C173 C 0.44304 0.91342 0.04414 0.0
C174 C 0.42809 0.99552 0.00324 0.0
C175 C 0.39279 0.96822 0.99223 0.0
C176 C 0.36665 0.99308 0.97799 0.0
C177 C 0.37619 0.04583 0.9741 0.0
C178 C 0.41105 0.07342 0.98547 0.0
C179 C 0.43594 0.04885 8e-05 0.0
C180 C 0.51015 0.98351 0.01938 0.0
C181 C 0.52767 0.01042 0.03508 0.0
C182 C 0.58014 0.02296 0.03705 0.0
C183 C 0.61608 0.01139 0.023 0.0
C184 C 0.59758 0.98693 0.00691 0.0
C185 C 0.54555 0.97235 0.00532 0.0
H186 H 0.28055 0.52463 0.31558 0.0
N187 N 0.30487 0.4996 0.28142 0.0
H188 H 0.33707 0.56072 0.33922 0.0
H189 H 0.40825 0.52275 0.27744 0.0
H190 H 0.46665 0.55407 0.30136 0.0
H191 H 0.35854 0.50161 0.24895 0.0
H192 H 0.33638 0.55326 0.22202 0.0
H193 H 0.22995 0.56977 0.27845 0.0
H194 H 0.20727 0.62146 0.25159 0.0
H195 H 0.22478 0.43563 0.28555 0.0
H196 H 0.38732 0.43785 0.27126 0.0
H197 H 0.22495 0.34049 0.28336 0.0
H198 H 0.38876 0.34379 0.27002 0.0
H199 H 0.27326 0.0468 0.30203 0.0
H200 H 0.30378 0.00137 0.32897 0.0
H201 H 0.44195 0.09752 0.32967 0.0
H202 H 0.41365 0.13785 0.30131 0.0
H203 H 0.36559 0.01884 0.2712 0.0
H204 H 0.32436 0.95561 0.25119 0.0
H205 H 0.19899 0.06457 0.24119 0.0
H206 H 0.23746 0.12466 0.26316 0.0
H207 H 0.26465 0.17255 0.30114 0.0
H208 H 0.25535 0.26714 0.29953 0.0
H209 H 0.36283 0.26933 0.25392 0.0
N210 N 0.33125 0.11262 0.28095 0.0
H211 H 0.37391 0.17529 0.25648 0.0
C212 C 0.34014 0.52043 0.2949 0.0
C213 C 0.32118 0.53118 0.31247 0.0
C214 C 0.35397 0.55108 0.32604 0.0
C215 C 0.4071 0.5597 0.32244 0.0
C216 C 0.42609 0.54847 0.30472 0.0
C217 C 0.39278 0.5298 0.29101 0.0
C218 C 0.29521 0.53135 0.26562 0.0
C219 C 0.32576 0.5279 0.24969 0.0
C220 C 0.31309 0.55756 0.23431 0.0
C221 C 0.27004 0.59147 0.23466 0.0
C222 C 0.24107 0.59633 0.25092 0.0
C223 C 0.25357 0.56648 0.26621 0.0
C224 C 0.30589 0.444 0.27875 0.0
C225 C 0.26042 0.41557 0.28191 0.0
C226 C 0.26079 0.36123 0.28081 0.0
C227 C 0.30696 0.33417 0.27662 0.0
C228 C 0.35223 0.36303 0.27301 0.0
C229 C 0.35163 0.41727 0.27391 0.0
C230 C 0.34228 0.09434 0.29923 0.0
C231 C 0.31015 0.05805 0.308 0.0
C232 C 0.32759 0.03242 0.32368 0.0
C233 C 0.37653 0.04416 0.3314 0.0
C234 C 0.40541 0.08514 0.32374 0.0
C235 C 0.38893 0.1091 0.30765 0.0
C236 C 0.30528 0.0768 0.2686 0.0
C237 C 0.32887 0.02875 0.26482 0.0
C238 C 0.30532 0.99279 0.25311 0.0
C239 C 0.25854 0.00486 0.24401 0.0
C240 C 0.23455 0.05306 0.24798 0.0
C241 C 0.25713 0.0882 0.26039 0.0
C242 C 0.32084 0.16738 0.27913 0.0
C243 C 0.28606 0.19363 0.29082 0.0
C244 C 0.28048 0.24767 0.28973 0.0
C245 C 0.30888 0.27622 0.27673 0.0
C246 C 0.34143 0.24903 0.26443 0.0
C247 C 0.34754 0.19527 0.26573 0.0
H248 H 0.8706 0.99893 0.30388 0.0
N249 N 0.82102 0.01298 0.27091 0.0
H250 H 0.84008 0.94586 0.32926 0.0
H251 H 0.73944 0.95005 0.27127 0.0
H252 H 0.70892 0.89603 0.29662 0.0
H253 H 0.80659 0.02428 0.23529 0.0
H254 H 0.85849 0.988 0.2103 0.0
H255 H 0.91123 0.95705 0.2747 0.0
H256 H 0.96171 0.91734 0.24978 0.0
H257 H 0.90516 0.06206 0.28575 0.0
H258 H 0.75236 0.08661 0.26333 0.0
H259 H 0.91604 0.15538 0.28986 0.0
H260 H 0.76454 0.18039 0.26545 0.0
H261 H 0.79098 0.45246 0.26733 0.0
H262 H 0.74015 0.51068 0.28705 0.0
H263 H 0.83955 0.47379 0.33274 0.0
H264 H 0.89205 0.41678 0.31281 0.0
H265 H 0.82367 0.38779 0.24539 0.0
H266 H 0.84679 0.42626 0.21578 0.0
H267 H 0.98798 0.48712 0.23971 0.0
H268 H 0.964 0.44966 0.2693 0.0
H269 H 0.94851 0.3218 0.27441 0.0
H270 H 0.93391 0.22843 0.27389 0.0
H271 H 0.76927 0.25521 0.28224 0.0
N272 N 0.87859 0.39715 0.27736 0.0
H273 H 0.784 0.34839 0.28094 0.0
C274 C 0.80651 0.97937 0.28575 0.0
C275 C 0.83536 0.97675 0.3021 0.0
C276 C 0.81804 0.94607 0.3166 0.0
C277 C 0.77209 0.91689 0.31492 0.0
C278 C 0.74475 0.91765 0.29825 0.0
C279 C 0.76181 0.94877 0.28384 0.0
C280 C 0.85408 0.99208 0.25676 0.0
C281 C 0.84071 0.00133 0.23849 0.0
C282 C 0.87038 0.98043 0.22427 0.0
C283 C 0.91367 0.94871 0.22801 0.0
C284 C 0.92871 0.94163 0.24639 0.0
C285 C 0.89941 0.96363 0.26068 0.0
C286 C 0.82721 0.06753 0.27473 0.0
C287 C 0.87354 0.08766 0.28201 0.0
C288 C 0.88012 0.14136 0.28391 0.0
C289 C 0.84138 0.17617 0.27787 0.0
C290 C 0.79492 0.15541 0.27068 0.0
C291 C 0.78786 0.10171 0.26932 0.0
C292 C 0.84631 0.43077 0.28854 0.0
C293 C 0.80259 0.45712 0.28147 0.0
C294 C 0.77329 0.49032 0.29272 0.0
C295 C 0.78646 0.49662 0.31124 0.0
C296 C 0.82911 0.46951 0.31841 0.0
C297 C 0.85892 0.43709 0.30711 0.0
C298 C 0.89201 0.41671 0.25955 0.0
C299 C 0.85957 0.4094 0.24421 0.0
C300 C 0.87282 0.43117 0.22734 0.0
C301 C 0.91921 0.45939 0.22551 0.0
C302 C 0.95231 0.465 0.24072 0.0
C303 C 0.93859 0.44406 0.2576 0.0
C304 C 0.86774 0.34218 0.27788 0.0
C305 C 0.9093 0.30729 0.27609 0.0
C306 C 0.90079 0.25375 0.27603 0.0
C307 C 0.85034 0.23357 0.27824 0.0
C308 C 0.80861 0.26883 0.28022 0.0
C309 C 0.81705 0.32251 0.27973 0.0
H310 H 0.78229 0.0371 0.81045 0.0
N311 N 0.81109 0.00846 0.7771 0.0
H312 H 0.83637 0.07276 0.83485 0.0
H313 H 0.91617 0.025 0.77525 0.0
H314 H 0.97185 0.05562 0.80003 0.0
H315 H 0.8688 0.02153 0.74595 0.0
H316 H 0.84648 0.07725 0.72005 0.0
H317 H 0.73095 0.07259 0.77442 0.0
H318 H 0.70799 0.12817 0.74859 0.0
H319 H 0.73196 0.94461 0.78291 0.0
H320 H 0.89035 0.94754 0.76375 0.0
H321 H 0.73125 0.84969 0.77992 0.0
H322 H 0.89121 0.85349 0.76169 0.0
H323 H 0.77244 0.58809 0.80093 0.0
H324 H 0.80152 0.54548 0.82896 0.0
H325 H 0.9613 0.56414 0.81187 0.0
H326 H 0.93164 0.60792 0.78411 0.0
H327 H 0.8693 0.54994 0.7499 0.0
H328 H 0.81865 0.48979 0.73099 0.0
H329 H 0.67657 0.55628 0.75255 0.0
H330 H 0.72808 0.61681 0.77144 0.0
H331 H 0.77371 0.68184 0.79565 0.0
H332 H 0.76533 0.77613 0.79481 0.0
H333 H 0.8614 0.77931 0.74616 0.0
N334 N 0.83443 0.62155 0.77299 0.0
H335 H 0.87194 0.68501 0.74786 0.0
C336 C 0.84512 0.02776 0.7912 0.0
C337 C 0.82371 0.04112 0.80819 0.0
C338 C 0.85505 0.06078 0.82221 0.0
C339 C 0.90907 0.06651 0.81967 0.0
C340 C 0.93054 0.05231 0.80257 0.0
C341 C 0.89876 0.03391 0.78838 0.0
C342 C 0.80088 0.04241 0.76197 0.0
C343 C 0.83391 0.04492 0.74668 0.0
C344 C 0.82117 0.07695 0.73191 0.0
C345 C 0.77549 0.10723 0.73227 0.0
C346 C 0.74385 0.10607 0.74797 0.0
C347 C 0.75649 0.07392 0.76263 0.0
C348 C 0.81113 0.95323 0.77375 0.0
C349 C 0.76649 0.92472 0.77802 0.0
C350 C 0.7664 0.8705 0.77646 0.0
C351 C 0.81134 0.84362 0.77072 0.0
C352 C 0.85562 0.87263 0.76593 0.0
C353 C 0.8554 0.92682 0.7673 0.0
C354 C 0.85012 0.60099 0.79043 0.0
C355 C 0.8137 0.5838 0.80338 0.0
C356 C 0.83041 0.55916 0.81935 0.0
C357 C 0.88376 0.5511 0.82263 0.0
C358 C 0.92 0.57027 0.80994 0.0
C359 C 0.90322 0.59499 0.79402 0.0
C360 C 0.80256 0.58786 0.76189 0.0
C361 C 0.82724 0.55143 0.75051 0.0
C362 C 0.79819 0.51682 0.7399 0.0
C363 C 0.74354 0.51788 0.74043 0.0
C364 C 0.7186 0.55461 0.75184 0.0
C365 C 0.74792 0.5892 0.7626 0.0
C366 C 0.82451 0.67655 0.772 0.0
C367 C 0.79306 0.70276 0.78484 0.0
C368 C 0.78782 0.75686 0.78419 0.0
C369 C 0.81314 0.78569 0.77051 0.0
C370 C 0.84241 0.75875 0.75717 0.0
C371 C 0.84818 0.70484 0.758 0.0
H372 H 0.33531 0.58779 0.97502 0.0
N373 N 0.34935 0.56525 0.01016 0.0
H374 H 0.28437 0.539 0.95222 0.0
H375 H 0.2964 0.47416 0.01591 0.0
H376 H 0.24564 0.42569 0.99336 0.0
H377 H 0.35024 0.51021 0.04232 0.0
H378 H 0.30073 0.53046 0.06997 0.0
H379 H 0.28468 0.64432 0.01569 0.0
H380 H 0.23492 0.66499 0.04346 0.0
H381 H 0.42857 0.63143 0.01077 0.0
H382 H 0.39279 0.46816 0.01433 0.0
H383 H 0.52097 0.61198 0.01539 0.0
H384 H 0.48459 0.44833 0.0185 0.0
H385 H 0.79294 0.53456 0.00964 0.0
H386 H 0.8541 0.5031 0.98699 0.0
H387 H 0.77841 0.35263 0.98733 0.0
H388 H 0.72141 0.38349 0.01182 0.0
H389 H 0.80559 0.43687 0.04718 0.0
H390 H 0.86887 0.4833 0.06539 0.0
H391 H 0.77634 0.62365 0.06089 0.0
H392 H 0.71666 0.57781 0.04068 0.0
H393 H 0.68778 0.54951 0.00601 0.0
H394 H 0.59611 0.5713 0.00082 0.0
H395 H 0.55131 0.45869 0.0415 0.0
N396 N 0.72513 0.47505 0.02919 0.0
H397 H 0.64289 0.43648 0.0462 0.0
C398 C 0.3199 0.5348 -0.00289 0.0
C399 C 0.31578 0.55242 0.97906 0.0
C400 C 0.28657 0.52469 0.96613 0.0
C401 C 0.26065 0.47884 0.97109 0.0
C402 C 0.26435 0.46143 0.98924 0.0
C403 C 0.29387 0.48894 0.00211 0.0
C404 C 0.32191 0.57653 0.02698 0.0
C405 C 0.32553 0.54424 0.04242 0.0
C406 C 0.2969 0.55564 0.05821 0.0
C407 C 0.26381 0.59917 0.05885 0.0
C408 C 0.25949 0.63073 0.04329 0.0
C409 C 0.28833 0.61945 0.02753 0.0
C410 C 0.40362 0.55155 0.01211 0.0
C411 C 0.44074 0.59139 0.01236 0.0
C412 C 0.4935 0.58015 0.01493 0.0
C413 C 0.51028 0.52857 0.01737 0.0
C414 C 0.47301 0.48856 0.01693 0.0
C415 C 0.42031 0.49985 0.01437 0.0
C416 C 0.75335 0.46086 0.01276 0.0
C417 C 0.78945 0.49482 0.00479 0.0
C418 C 0.82438 0.47658 0.99158 0.0
C419 C 0.82252 0.42456 0.9853 0.0
C420 C 0.78304 0.39217 0.99222 0.0
C421 C 0.74944 0.40998 0.00597 0.0
C422 C 0.75598 0.50316 0.0426 0.0
C423 C 0.79875 0.47758 0.05029 0.0
C424 C 0.83492 0.50453 0.0609 0.0
C425 C 0.82818 0.55777 0.06503 0.0
C426 C 0.78401 0.58313 0.05785 0.0
C427 C 0.74886 0.55646 0.04648 0.0
C428 C 0.67193 0.49105 0.02645 0.0
C429 C 0.65812 0.52962 0.01378 0.0
C430 C 0.60572 0.5422 0.01092 0.0
C431 C 0.56622 0.51645 0.02064 0.0
C432 C 0.58052 0.4786 0.03352 0.0
C433 C 0.63279 0.46612 0.03635 0.0
H434 H 0.38403 0.51887 0.5371 0.0
N435 N 0.31635 0.46641 0.5144 0.0
H436 H 0.42684 0.48475 0.56409 0.0
H437 H 0.3116 0.37012 0.52728 0.0
H438 H 0.35354 0.33571 0.55487 0.0
H439 H 0.36443 0.43126 0.48473 0.0
H440 H 0.41683 0.48041 0.46297 0.0
H441 H 0.3334 0.5722 0.51527 0.0
H442 H 0.38668 0.6215 0.49377 0.0
H443 H 0.28592 0.53256 0.54213 0.0
H444 H 0.23097 0.44379 0.49562 0.0
H445 H 0.19774 0.56157 0.54856 0.0
H446 H 0.1424 0.47467 0.50144 0.0
H447 H 0.85094 0.6005 0.54484 0.0
H448 H 0.79928 0.55577 0.56758 0.0
H449 H 0.93866 0.48825 0.59033 0.0
H450 H 0.99028 0.53128 0.56741 0.0
H451 H 0.89481 0.52374 0.51975 0.0
H452 H 0.85718 0.53648 0.48964 0.0
H453 H 0.93188 0.68709 0.48674 0.0
H454 H 0.964 0.67599 0.5178 0.0
H455 H 0.04281 0.64684 0.54315 0.0
H456 H 0.1316 0.6172 0.53694 0.0
H457 H 0.0726 0.46471 0.52268 0.0
N458 N 0.9553 0.59323 0.53907 0.0
H459 H 0.98411 0.49545 0.52827 0.0
C460 C 0.34478 0.4468 0.52996 0.0
C461 C 0.37745 0.47872 0.54064 0.0
C462 C 0.40147 0.45925 0.5563 0.0
C463 C 0.39315 0.40761 0.56179 0.0
C464 C 0.361 0.37554 0.55098 0.0
C465 C 0.33703 0.39509 0.53525 0.0
C466 C 0.34553 0.49761 0.50169 0.0
C467 C 0.36895 0.4728 0.4867 0.0
C468 C 0.39883 0.50098 0.47434 0.0
C469 C 0.40628 0.5548 0.47679 0.0
C470 C 0.38138 0.58019 0.49148 0.0
C471 C 0.35125 0.55186 0.50386 0.0
C472 C 0.26487 0.48531 0.51846 0.0
C473 C 0.2549 0.51932 0.53325 0.0
C474 C 0.20437 0.53636 0.53682 0.0
C475 C 0.16293 0.52036 0.52555 0.0
C476 C 0.17323 0.48695 0.51061 0.0
C477 C 0.22373 0.46956 0.50716 0.0
C478 C 0.92469 0.56636 0.55296 0.0
C479 C 0.87065 0.57494 0.5543 0.0
C480 C 0.84099 0.54996 0.56762 0.0
C481 C 0.86468 0.51733 0.58057 0.0
C482 C 0.9189 0.51146 0.58014 0.0
C483 C 0.94854 0.53616 0.56677 0.0
C484 C 0.93065 0.59994 0.52138 0.0
C485 C 0.90191 0.56006 0.5128 0.0
C486 C 0.8813 0.56709 0.49527 0.0
C487 C 0.891 0.61307 0.48543 0.0
C488 C 0.9217 0.65184 0.49386 0.0
C489 C 0.94047 0.64559 0.51167 0.0
C490 C 0.00722 0.57341 0.53628 0.0
C491 C 0.04935 0.60703 0.53876 0.0
C492 C 0.09991 0.5899 0.53528 0.0
C493 C 0.10921 0.53853 0.52933 0.0
C494 C 0.06677 0.50472 0.52695 0.0
C495 C 0.0162 0.52207 0.53026 0.0
C496 C 0.16261 0.67381 0.17241 0.0
C497 C 0.97938 0.5928 0.16679 0.0
C498 C 0.97239 0.66254 0.1139 0.0
Mg499 Mg 0.21048 0.77707 0.15519 0.0
Mg500 Mg 0.13923 0.87958 0.14534 0.0
O501 O 0.14891 0.80783 0.14217 0.0
Mg502 Mg 0.09437 0.75599 0.14852 0.0
O503 O 0.04519 0.69899 0.15489 0.0
Mg504 Mg 0.07735 0.63882 0.14123 0.0
Mg505 Mg 0.97337 0.70652 0.15226 0.0
C506 C 0.03352 0.84751 0.12531 0.0
O507 O 0.05176 0.80782 0.17009 0.0
O508 O 0.25952 0.83391 0.13788 0.0
O509 O 0.96869 0.78068 0.16642 0.0
O510 O 0.20677 0.83722 0.1789 0.0
O511 O 0.2085 0.90193 0.13052 0.0
O512 O 0.14759 0.89889 0.17387 0.0
O513 O 0.12922 0.70009 0.12681 0.0
O514 O 0.21294 0.71787 0.13196 0.0
C515 C 0.17752 0.69276 0.12336 0.0
C516 C 0.25167 0.87698 0.12949 0.0
O517 O 0.04009 0.79825 0.1277 0.0
O518 O 0.02305 0.58654 0.15846 0.0
O519 O 0.06365 0.88238 0.13221 0.0
O520 O 0.01421 0.6393 0.11866 0.0
O521 O 0.95372 0.6356 0.16624 0.0
O522 O 0.95179 0.69766 0.12396 0.0
O523 O 0.15249 0.72181 0.16945 0.0
O524 O 0.13859 0.63765 0.16378 0.0
C525 C 0.18157 0.87765 0.18409 0.0
C526 C 0.00257 0.81209 0.17323 0.0
C527 C 0.67848 0.81924 0.42362 0.0
C528 C 0.77089 0.64542 0.41999 0.0
C529 C 0.69359 0.62505 0.36677 0.0
Mg530 Mg 0.57209 0.86189 0.40655 0.0
Mg531 Mg 0.47212 0.78541 0.39766 0.0
O532 O 0.54318 0.7981 0.3942 0.0
Mg533 Mg 0.59821 0.74637 0.40063 0.0
O534 O 0.65873 0.70086 0.4068 0.0
Mg535 Mg 0.71576 0.73452 0.39236 0.0
Mg536 Mg 0.65803 0.62851 0.40649 0.0
C537 C 0.50947 0.68117 0.3774 0.0
O538 O 0.54997 0.70155 0.42293 0.0
O539 O 0.51183 0.90796 0.38968 0.0
O540 O 0.5864 0.62141 0.42138 0.0
O541 O 0.51164 0.85879 0.42981 0.0
O542 O 0.44476 0.85425 0.3835 0.0
O543 O 0.45266 0.79624 0.42612 0.0
O544 O 0.65092 0.78237 0.37836 0.0
O545 O 0.6305 0.86567 0.38319 0.0
C546 C 0.65649 0.83061 0.37469 0.0
C547 C 0.46741 0.89853 0.38232 0.0
O548 O 0.55819 0.69002 0.38012 0.0
O549 O 0.77331 0.68651 0.41013 0.0
O550 O 0.47275 0.70936 0.38422 0.0
O551 O 0.71438 0.6696 0.36974 0.0
O552 O 0.73031 0.61677 0.42063 0.0
O553 O 0.66538 0.60314 0.37878 0.0
O554 O 0.6307 0.807 0.42111 0.0
O555 O 0.71499 0.79696 0.41458 0.0
C556 C 0.47186 0.83378 0.4354 0.0
C557 C 0.55175 0.65311 0.42751 0.0
C558 C 0.66345 0.18784 0.67134 0.0
C559 C 0.48224 0.09573 0.66703 0.0
C560 C 0.47267 0.16672 0.61402 0.0
Mg561 Mg 0.70111 0.29641 0.65371 0.0
Mg562 Mg 0.61722 0.38875 0.64401 0.0
O563 O 0.63738 0.3193 0.64013 0.0
Mg564 Mg 0.58861 0.26346 0.64764 0.0
O565 O 0.5442 0.204 0.65519 0.0
Mg566 Mg 0.57839 0.14544 0.64128 0.0
Mg567 Mg 0.47218 0.20901 0.65252 0.0
C568 C 0.51849 0.34492 0.62298 0.0
O569 O 0.54421 0.31454 0.66886 0.0
O570 O 0.744 0.36107 0.63697 0.0
O571 O 0.46267 0.28271 0.66655 0.0
O572 O 0.68878 0.35497 0.67756 0.0
O573 O 0.68352 0.422 0.63076 0.0
O574 O 0.62243 0.4087 0.67256 0.0
O575 O 0.6276 0.20873 0.62675 0.0
O576 O 0.70964 0.23583 0.63074 0.0
C577 C 0.67639 0.20521 0.62322 0.0
C578 C 0.73011 0.40442 0.62967 0.0
O579 O 0.53056 0.2974 0.62652 0.0
O580 O 0.52653 0.09097 0.65895 0.0
O581 O 0.54325 0.38398 0.62976 0.0
O582 O 0.51446 0.14301 0.61859 0.0
O583 O 0.45484 0.13735 0.66615 0.0
O584 O 0.4521 0.20132 0.62428 0.0
O585 O 0.64983 0.235 0.66823 0.0
O586 O 0.6407 0.14945 0.66345 0.0
C587 C 0.65852 0.39162 0.68287 0.0
C588 C 0.49535 0.31634 0.67267 0.0
C589 C 0.1742 0.32995 0.92071 0.0
C590 C 0.24985 0.1394 0.91818 0.0
C591 C 0.17616 0.13259 0.86515 0.0
Mg592 Mg 0.06879 0.37546 0.90271 0.0
Mg593 Mg 0.96978 0.29896 0.89309 0.0
O594 O 0.04075 0.31195 0.88991 0.0
Mg595 Mg 0.09232 0.25913 0.89806 0.0
O596 O 0.14757 0.21022 0.90611 0.0
Mg597 Mg 0.2077 0.23786 0.89171 0.0
Mg598 Mg 0.13578 0.1384 0.90407 0.0
C599 C 0.00529 0.19291 0.87449 0.0
O600 O 0.03948 0.22188 0.92009 0.0
O601 O 0.00944 0.42181 0.885 0.0
O602 O 0.06207 0.13691 0.91857 0.0
O603 O 0.00678 0.37325 0.92585 0.0
O604 O 0.94393 0.36672 0.8784 0.0
O605 O 0.95006 0.30888 0.92138 0.0
O606 O 0.14887 0.2909 0.87651 0.0
O607 O 0.12984 0.37545 0.88006 0.0
C608 C 0.15652 0.33884 0.87259 0.0
C609 C 0.96584 0.41134 0.87711 0.0
O610 O 0.05364 0.20147 0.87781 0.0
O611 O 0.25816 0.18256 0.90987 0.0
O612 O 0.96842 0.22231 0.88042 0.0
O613 O 0.20209 0.17352 0.86923 0.0
O614 O 0.20612 0.11567 0.91766 0.0
O615 O 0.14245 0.11409 0.87609 0.0
O616 O 0.12589 0.32034 0.91786 0.0
O617 O 0.21015 0.30247 0.91324 0.0
C618 C 0.9678 0.34629 0.93104 0.0
C619 C 0.03309 0.17402 0.92464 0.0
C620 C 0.37551 0.8592 0.47395 0.0
C621 C 0.36585 0.91293 0.47168 0.0
H622 H 0.41651 0.79123 0.4641 0.0
C623 C 0.3932 0.93911 0.45784 0.0
H624 H 0.35597 0.83744 0.48453 0.0
C625 C 0.42966 0.91329 0.44705 0.0
C626 C 0.43862 0.85988 0.44912 0.0
H627 H 0.38583 0.97957 0.45486 0.0
H628 H 0.4491 0.9349 0.43637 0.0
C629 C 0.41083 0.83269 0.4625 0.0
C630 C 0.39733 0.02177 0.69986 0.0
C631 C 0.43438 0.99217 0.70933 0.0
H632 H 0.38345 0.07755 0.67884 0.0
C633 C 0.48604 0.99136 0.70305 0.0
H634 H 0.3573 0.02327 0.70445 0.0
C635 C 0.501 0.0221 0.68825 0.0
C636 C 0.46468 0.05479 0.67968 0.0
H637 H 0.51523 0.96839 0.71002 0.0
H638 H 0.5416 0.02271 0.68431 0.0
C639 C 0.41238 0.05299 0.68524 0.0
C640 C 0.33395 0.04299 0.94286 0.0
C641 C 0.34918 0.07181 0.95849 0.0
H642 H 0.29006 0.04198 0.91784 0.0
C643 C 0.33643 0.12516 0.95931 0.0
H644 H 0.34435 0.00241 0.94128 0.0
C645 C 0.30755 0.14827 0.94531 0.0
C646 C 0.28971 0.11831 0.93047 0.0
H647 H 0.34651 0.1488 0.97112 0.0
H648 H 0.29626 0.18873 0.94669 0.0
C649 C 0.30366 0.06575 0.9292 0.0
C650 C 0.27037 0.93573 0.21968 0.0
C651 C 0.23686 0.96856 0.22979 0.0
H652 H 0.27876 0.88041 0.19792 0.0
C653 C 0.18334 0.96777 0.22549 0.0
H654 H 0.31193 0.93581 0.22192 0.0
C655 C 0.16458 0.93707 0.21097 0.0
C656 C 0.19861 0.90514 0.20087 0.0
H657 H 0.1558 0.99129 0.23312 0.0
H658 H 0.12366 0.93876 0.20751 0.0
C659 C 0.25137 0.90387 0.20569 0.0
C660 C 0.37825 0.15791 0.57445 0.0
C661 C 0.36605 0.10435 0.57434 0.0
H662 H 0.42098 0.21988 0.58728 0.0
C663 C 0.3933 0.0718 0.5865 0.0
H664 H 0.35986 0.18451 0.56504 0.0
C665 C 0.43092 0.09201 0.59836 0.0
C666 C 0.44101 0.14553 0.59892 0.0
H667 H 0.38473 0.03078 0.58745 0.0
H668 H 0.44994 0.06607 0.6079 0.0
C669 C 0.41434 0.17836 0.58691 0.0
C670 C 0.2083 0.01567 0.83571 0.0
C671 C 0.24153 0.0375 0.82266 0.0
H672 H 0.15983 0.0291 0.85907 0.0
C673 C 0.24744 0.09165 0.82206 0.0
H674 H 0.20335 0.9739 0.83634 0.0
C675 C 0.22322 0.12337 0.8352 0.0
C676 C 0.19216 0.10136 0.84897 0.0
H677 H 0.27309 0.10908 0.81207 0.0
H678 H 0.23073 0.1648 0.83509 0.0
C679 C 0.18328 0.04738 0.84862 0.0
C680 C 0.34553 0.86878 0.09004 0.0
C681 C 0.35074 0.9212 0.0849 0.0
H682 H 0.31172 0.81426 0.10843 0.0
C683 C 0.3266 0.95961 0.09593 0.0
H684 H 0.362 0.8376 0.08185 0.0
C685 C 0.29584 0.9457 0.11094 0.0
C686 C 0.29005 0.89327 0.11565 0.0
H687 H 0.33061 0.00049 0.09287 0.0
H688 H 0.27595 0.97586 0.11869 0.0
C689 C 0.31632 0.85515 0.10535 0.0
C690 C 0.36796 0.98242 0.35818 0.0
C691 C 0.39958 0.01073 0.34603 0.0
H692 H 0.36455 0.9239 0.37899 0.0
C693 C 0.45389 0.00353 0.34699 0.0
H694 H 0.3262 0.98748 0.35833 0.0
C695 C 0.47569 0.96875 0.35938 0.0
C696 C 0.44386 0.9389 0.37075 0.0
H697 H 0.47999 0.02294 0.33767 0.0
H698 H 0.5175 0.96338 0.35943 0.0
C699 C 0.38984 0.94621 0.37018 0.0
C700 C 0.68878 0.10617 0.58472 0.0
C701 C 0.73993 0.0883 0.58741 0.0
H702 H 0.62775 0.15673 0.59431 0.0
C703 C 0.76843 0.10681 0.60248 0.0
H704 H 0.66601 0.09217 0.5732 0.0
C705 C 0.74706 0.144 0.61427 0.0
C706 C 0.69641 0.1629 0.6114 0.0
H707 H 0.80801 0.09389 0.60479 0.0
H708 H 0.77053 0.15842 0.62555 0.0
C709 C 0.66689 0.1428 0.59679 0.0
C710 C 0.74482 0.91781 0.34771 0.0
C711 C 0.74959 0.89043 0.33107 0.0
H712 H 0.71175 0.91997 0.37457 0.0
C713 C 0.72844 0.84011 0.32962 0.0
H714 H 0.76031 0.95676 0.34919 0.0
C715 C 0.70102 0.81861 0.34434 0.0
C716 C 0.69344 0.84769 0.3605 0.0
H717 H 0.73186 0.81807 0.31696 0.0
H718 H 0.68329 0.78068 0.34268 0.0
C719 C 0.71676 0.89684 0.3622 0.0
C720 C 0.95849 0.87533 0.08222 0.0
C721 C 0.93289 0.9219 0.0872 0.0
H722 H 0.00969 0.81391 0.09073 0.0
C723 C 0.93405 0.9379 0.10569 0.0
H724 H 0.95867 0.86177 0.06813 0.0
C725 C 0.96384 0.91092 0.11845 0.0
C726 C 0.99214 0.8666 0.11316 0.0
H727 H 0.91343 0.97244 0.11022 0.0
H728 H 0.96665 0.92606 0.13233 0.0
C729 C 0.98761 0.84768 0.09515 0.0
C730 C 0.92778 0.08556 0.85296 0.0
C731 C 0.94163 0.09069 0.83437 0.0
H732 H 0.93726 0.11472 0.88039 0.0
C733 C 0.98375 0.12326 0.82994 0.0
H734 H 0.89705 0.05948 0.85709 0.0
C735 C 0.00843 0.15287 0.84352 0.0
C736 C 0.99063 0.15137 0.86165 0.0
H737 H 0.99557 0.12882 0.81586 0.0
H738 H 0.03839 0.18016 0.83959 0.0
C739 C 0.95133 0.11644 0.8664 0.0
C740 C 0.76414 0.90075 0.45401 0.0
C741 C 0.73612 0.9011 0.47053 0.0
H742 H 0.76712 0.87549 0.42609 0.0
C743 C 0.68515 0.88121 0.47063 0.0
H744 H 0.80355 0.91543 0.45345 0.0
C745 C 0.66406 0.85826 0.45481 0.0
C746 C 0.69393 0.85439 0.43875 0.0
H747 H 0.66233 0.8817 0.4831 0.0
H748 H 0.62593 0.84059 0.45553 0.0
C749 C 0.7433 0.87764 0.43832 0.0
C750 C 0.90798 0.89725 0.19895 0.0
C751 C 0.93901 0.91888 0.2129 0.0
H752 H 0.9039 0.84812 0.1754 0.0
C753 C 0.99288 0.90876 0.21274 0.0
H754 H 0.8663 0.90326 0.19872 0.0
C755 C 0.01467 0.87603 0.19928 0.0
C756 C 0.98281 0.85277 0.18588 0.0
H757 H 0.01797 0.9253 0.22319 0.0
H758 H 0.05584 0.86726 0.19984 0.0
C759 C 0.92957 0.86498 0.18561 0.0
C760 C 0.94278 0.09519 0.95405 0.0
C761 C 0.93637 0.12793 0.96945 0.0
H762 H 0.97813 0.08437 0.92772 0.0
C763 C 0.95715 0.17856 0.96885 0.0
H764 H 0.92604 0.0566 0.95369 0.0
C765 C 0.98566 0.19499 0.95364 0.0
C766 C 0.99471 0.16088 0.93887 0.0
H767 H 0.95354 0.20487 0.98045 0.0
H768 H 0.00322 0.23325 0.95395 0.0
C769 C 0.97208 0.11128 0.93904 0.0
C770 C 0.73224 0.18352 0.71694 0.0
C771 C 0.75717 0.13478 0.71563 0.0
H772 H 0.68369 0.23975 0.70355 0.0
C773 C 0.75836 0.109 0.69859 0.0
H774 H 0.73129 0.2046 0.72985 0.0
C775 C 0.73123 0.12899 0.68368 0.0
C776 C 0.70265 0.17538 0.68541 0.0
H777 H 0.77691 0.07135 0.69711 0.0
H778 H 0.73001 0.10644 0.67107 0.0
C779 C 0.70543 0.2039 0.70187 0.0
C780 C 0.8872 0.43785 0.95968 0.0
C781 C 0.86207 0.40415 0.97196 0.0
H782 H 0.94173 0.44597 0.93779 0.0
C783 C 0.8755 0.35085 0.97136 0.0
H784 H 0.87747 0.47872 0.95911 0.0
C785 C 0.91106 0.33179 0.95841 0.0
C786 C 0.9358 0.36584 0.94635 0.0
H787 H 0.85858 0.32346 0.9808 0.0
H788 H 0.91898 0.29046 0.95776 0.0
C789 C 0.92422 0.41907 0.94732 0.0
C790 C 0.98197 0.48313 0.2008 0.0
C791 C 0.93176 0.48639 0.20826 0.0
H792 H 0.03614 0.51351 0.18144 0.0
C793 C 0.89526 0.52002 0.20032 0.0
H794 H 0.01064 0.45713 0.20662 0.0
C795 C 0.90988 0.55268 0.18602 0.0
C796 C 0.96108 0.55176 0.17928 0.0
H797 H 0.85633 0.52335 0.20589 0.0
H798 H 0.88169 0.58018 0.1808 0.0
C799 C 0.9964 0.51521 0.18633 0.0
C800 C 0.85508 0.67199 0.46093 0.0
C801 C 0.86738 0.62143 0.4669 0.0
H802 H 0.81677 0.71894 0.44097 0.0
C803 C 0.85385 0.57905 0.45544 0.0
H804 H 0.86352 0.70588 0.46927 0.0
C805 C 0.825 0.58678 0.43942 0.0
C806 C 0.81102 0.63712 0.43407 0.0
H807 H 0.86402 0.53961 0.45903 0.0
H808 H 0.8122 0.55331 0.43151 0.0
C809 C 0.82802 0.6797 0.44459 0.0
C810 C 0.73009 0.43031 0.72595 0.0
C811 C 0.71357 0.48204 0.72837 0.0
H812 H 0.7248 0.36065 0.7099 0.0
C813 C 0.67205 0.50052 0.71769 0.0
H814 H 0.76109 0.41452 0.7343 0.0
C815 C 0.65081 0.4694 0.70374 0.0
C816 C 0.67094 0.41939 0.7002 0.0
H817 H 0.65837 0.54016 0.71926 0.0
H818 H 0.62118 0.48591 0.69497 0.0
C819 C 0.70907 0.39935 0.71202 0.0
C820 C 0.89678 0.55821 0.08972 0.0
C821 C 0.86695 0.5859 0.07685 0.0
H822 H 0.95457 0.56064 0.11067 0.0
C823 C 0.87467 0.6402 0.07564 0.0
H824 H 0.89123 0.51707 0.09188 0.0
C825 C 0.90998 0.66581 0.0873 0.0
C826 C 0.93983 0.63734 0.0998 0.0
H827 H 0.85349 0.66321 0.06578 0.0
H828 H 0.9139 0.70768 0.08657 0.0
C829 C 0.93332 0.58335 0.10069 0.0
C830 C 0.76334 0.58486 0.32316 0.0
C831 C 0.75572 0.5309 0.32332 0.0
H832 H 0.74895 0.65766 0.33678 0.0
C833 C 0.72238 0.50915 0.33631 0.0
H834 H 0.78909 0.60217 0.31318 0.0
C835 C 0.69886 0.54063 0.3496 0.0
C836 C 0.70916 0.59439 0.35036 0.0
H837 H 0.71614 0.4675 0.3366 0.0
H838 H 0.67508 0.52221 0.35992 0.0
C839 C 0.74036 0.61645 0.33663 0.0
C840 C 0.84464 0.43792 0.59927 0.0
C841 C 0.83285 0.4895 0.59439 0.0
H842 H 0.82175 0.37058 0.61438 0.0
C843 C 0.78933 0.51375 0.60239 0.0
H844 H 0.87764 0.41788 0.59326 0.0
C845 C 0.75714 0.4865 0.61431 0.0
C846 C 0.76783 0.43441 0.61868 0.0
H847 H 0.77978 0.55377 0.59933 0.0
H848 H 0.72332 0.50618 0.61989 0.0
C849 C 0.81258 0.41072 0.61136 0.0
C850 C 0.87485 0.4732 0.84276 0.0
C851 C 0.90154 0.51898 0.83829 0.0
H852 H 0.87379 0.40374 0.85855 0.0
C853 C 0.94733 0.53138 0.84792 0.0
H854 H 0.83982 0.46208 0.83549 0.0
C855 C 0.96722 0.49755 0.86112 0.0
C856 C 0.94175 0.45053 0.86494 0.0
H857 H 0.96842 0.56676 0.84498 0.0
H858 H 0.0034 0.50752 0.86787 0.0
C859 C 0.89464 0.43945 0.85593 0.0
C860 C 0.18587 0.63286 0.07612 0.0
C861 C 0.23742 0.61437 0.07614 0.0
H862 H 0.12547 0.6712 0.09144 0.0
C863 C 0.26565 0.61499 0.0926 0.0
H864 H 0.16305 0.63223 0.06363 0.0
C865 C 0.2443 0.63718 0.10838 0.0
C866 C 0.19414 0.65886 0.10807 0.0
H867 H 0.30549 0.6013 0.09304 0.0
H868 H 0.26813 0.63974 0.12061 0.0
C869 C 0.16419 0.65461 0.09204 0.0
C870 C 0.24981 0.42231 0.84656 0.0
C871 C 0.25173 0.39664 0.82952 0.0
H872 H 0.21829 0.42345 0.87367 0.0
C873 C 0.22826 0.34746 0.82766 0.0
H874 H 0.26716 0.46035 0.84839 0.0
C875 C 0.20063 0.32592 0.84231 0.0
C876 C 0.19535 0.35386 0.85881 0.0
H877 H 0.22956 0.32668 0.81469 0.0
H878 H 0.18051 0.28934 0.84029 0.0
C879 C 0.22163 0.4013 0.86101 0.0
C880 C 0.4233 0.41998 0.5942 0.0
C881 C 0.41863 0.38771 0.57864 0.0
H882 H 0.45791 0.43125 0.62059 0.0
C883 C 0.44132 0.33788 0.57897 0.0
H884 H 0.40511 0.458 0.59462 0.0
C885 C 0.47099 0.3222 0.59406 0.0
C886 C 0.47858 0.35613 0.609 0.0
H887 H 0.43857 0.3121 0.56719 0.0
H888 H 0.49069 0.28495 0.59349 0.0
C889 C 0.45316 0.4045 0.60916 0.0
C890 C 0.48136 0.61792 0.33212 0.0
C891 C 0.44126 0.58321 0.33685 0.0
H892 H 0.53596 0.67509 0.34162 0.0
C893 C 0.43116 0.5748 0.35558 0.0
H894 H 0.49025 0.62607 0.31794 0.0
C895 C 0.45638 0.60424 0.36905 0.0
C896 C 0.49374 0.64108 0.36413 0.0
H897 H 0.4021 0.54709 0.35989 0.0
H898 H 0.44508 0.59989 0.38327 0.0
C899 C 0.50774 0.64616 0.34568 0.0
C900 C 0.18522 0.4236 0.96072 0.0
C901 C 0.23371 0.44667 0.95708 0.0
H902 H 0.12723 0.36896 0.95168 0.0
C903 C 0.25881 0.43536 0.94045 0.0
H904 H 0.16487 0.4321 0.9734 0.0
C905 C 0.23762 0.39933 0.92823 0.0
C906 C 0.1906 0.37419 0.93226 0.0
H907 H 0.29629 0.45223 0.93731 0.0
H908 H 0.25906 0.38975 0.91586 0.0
C909 C 0.16352 0.3879 0.94829 0.0
C910 C 0.40001 0.40004 0.69873 0.0
C911 C 0.43197 0.42546 0.71158 0.0
H912 H 0.39504 0.34689 0.67628 0.0
C913 C 0.48612 0.4177 0.71067 0.0
H914 H 0.35812 0.40421 0.69917 0.0
C915 C 0.50748 0.38378 0.69754 0.0
C916 C 0.47499 0.35708 0.68516 0.0
H917 H 0.51185 0.43707 0.72029 0.0
H918 H 0.54901 0.37694 0.69758 0.0
C919 C 0.42123 0.36656 0.68567 0.0
C920 C 0.49102 0.55921 0.46059 0.0
C921 C 0.44332 0.58278 0.4648 0.0
H922 H 0.56203 0.56288 0.44594 0.0
C923 C 0.43206 0.63207 0.45746 0.0
H924 H 0.50161 0.52206 0.46643 0.0
C925 C 0.46736 0.6562 0.44553 0.0
C926 C 0.51432 0.63129 0.44085 0.0
H927 H 0.39556 0.65126 0.46058 0.0
H928 H 0.45746 0.6935 0.4397 0.0
C929 C 0.52584 0.58296 0.44882 0.0
C930 C 0.24819 0.58837 0.20129 0.0
C931 C 0.25162 0.61723 0.21767 0.0
H932 H 0.21784 0.58413 0.17406 0.0
C933 C 0.23194 0.66839 0.21808 0.0
H934 H 0.26258 0.54879 0.20053 0.0
C935 C 0.20634 0.6889 0.20277 0.0
C936 C 0.1994 0.65822 0.18694 0.0
H937 H 0.23456 0.69177 0.23047 0.0
H938 H 0.18914 0.72731 0.20376 0.0
C939 C 0.22222 0.60854 0.18614 0.0
loop_
_geom_bond_atom_site_label_1
_geom_bond_atom_site_label_2
_geom_bond_distance
_geom_bond_site_symmetry_2
_ccdc_geom_bond_type
H0 C27 0.929 1_565 S
N1 C26 1.433 1_565 S
N1 C32 1.435 . S
N1 C38 1.423 . S
H2 C28 0.930 . S
H3 C31 0.931 . S
H4 C30 0.929 . S
H5 C33 0.930 1_545 S
H6 C34 0.931 1_545 S
H7 C37 0.929 . S
H8 C36 0.931 . S
H9 C39 0.929 . S
H10 C43 0.932 . S
H11 C40 0.931 . S
H12 C42 0.929 . S
H13 C45 0.929 1_565 S
H14 C46 0.930 . S
H15 C48 0.929 . S
H16 C49 0.931 . S
H17 C51 0.930 1_545 S
H18 C52 0.932 . S
H19 C54 0.931 . S
H20 C55 0.929 . S
H21 C57 0.929 . S
H22 C58 0.931 . S
H23 C60 0.929 . S
N24 C44 1.433 1_565 S
N24 C50 1.435 . S
N24 C56 1.423 . S
H25 C61 0.932 . S
C26 N1 1.433 1_545 S
C26 C27 1.363 . S
C26 C31 1.370 . S
C27 H0 0.929 1_545 S
C27 C26 1.363 . S
C27 C28 1.385 . S
C28 H2 0.930 . S
C28 C27 1.385 . S
C28 C29 1.357 . S
C29 C28 1.357 . S
C29 C30 1.406 . S
C30 H4 0.929 . S
C30 C29 1.406 . S
C30 C31 1.391 . S
C31 H3 0.931 . S
C31 C26 1.370 . S
C31 C30 1.391 . S
C32 N1 1.435 . S
C32 C33 1.358 . S
C32 C37 1.371 . S
C33 H5 0.930 1_565 S
C33 C32 1.358 . S
C33 C34 1.405 . S
C34 H6 0.931 1_565 S
C34 C33 1.405 . S
C34 C35 1.383 . S
C35 C34 1.383 . S
C35 C36 1.393 . S
C36 H8 0.931 . S
C36 C35 1.393 . S
C36 C37 1.382 . S
C37 H7 0.929 . S
C37 C32 1.371 . S
C37 C36 1.382 . S
C38 N1 1.423 . S
C38 C39 1.362 . S
C38 C43 1.388 . S
C39 H9 0.929 . S
C39 C38 1.362 . S
C39 C40 1.376 . S
C40 H11 0.931 . S
C40 C39 1.376 . S
C40 C41 1.396 1_655 S
C41 C40 1.396 1_455 S
C41 C42 1.348 1_455 S
C41 C59 1.472 . S
C42 H12 0.929 . S
C42 C41 1.348 1_655 S
C42 C43 1.443 . S
C43 H10 0.932 . S
C43 C38 1.388 . S
C43 C42 1.443 . S
C44 N24 1.433 1_545 S
C44 C45 1.363 . S
C44 C49 1.370 . S
C45 H13 0.929 1_545 S
C45 C44 1.363 . S
C45 C46 1.385 . S
C46 H14 0.930 . S
C46 C45 1.385 . S
C46 C47 1.357 . S
C47 C46 1.357 . S
C47 C48 1.406 . S
C48 H15 0.929 . S
C48 C47 1.406 . S
C48 C49 1.391 . S
C49 H16 0.931 . S
C49 C44 1.370 . S
C49 C48 1.391 . S
C50 N24 1.435 . S
C50 C51 1.358 . S
C50 C55 1.371 . S
C51 H17 0.930 1_565 S
C51 C50 1.358 . S
C51 C52 1.405 . S
C52 H18 0.932 . S
C52 C51 1.405 . S
C52 C53 1.383 . S
C53 C52 1.383 . S
C53 C54 1.393 . S
C54 H19 0.931 . S
C54 C53 1.393 . S
C54 C55 1.382 . S
C55 H20 0.929 . S
C55 C50 1.371 . S
C55 C54 1.382 . S
C56 N24 1.423 . S
C56 C57 1.362 . S
C56 C61 1.388 . S
C57 H21 0.929 . S
C57 C56 1.362 . S
C57 C58 1.376 . S
C58 H22 0.931 . S
C58 C57 1.376 . S
C58 C59 1.396 . S
C59 C41 1.472 . S
C59 C58 1.396 . S
C59 C60 1.348 . S
C60 H23 0.929 . S
C60 C59 1.348 . S
C60 C61 1.443 . S
C61 H25 0.932 . S
C61 C56 1.388 . S
C61 C60 1.443 . S
H62 C89 0.929 . S
N63 C88 1.433 . S
N63 C94 1.435 . S
N63 C100 1.423 . S
H64 C90 0.930 . S
H65 C93 0.931 . S
H66 C92 0.929 . S
H67 C95 0.930 . S
H68 C96 0.932 . S
H69 C99 0.929 . S
H70 C98 0.931 . S
H71 C101 0.929 . S
H72 C105 0.932 . S
H73 C102 0.931 . S
H74 C104 0.929 . S
H75 C107 0.929 . S
H76 C108 0.930 1_545 S
H77 C110 0.929 . S
H78 C111 0.931 . S
H79 C113 0.930 . S
H80 C114 0.932 1_545 S
H81 C116 0.931 . S
H82 C117 0.929 . S
H83 C119 0.929 . S
H84 C120 0.931 . S
H85 C122 0.929 . S
N86 C106 1.433 . S
N86 C112 1.435 . S
N86 C118 1.423 . S
H87 C123 0.932 . S
C88 N63 1.433 . S
C88 C89 1.363 . S
C88 C93 1.370 . S
C89 H62 0.929 . S
C89 C88 1.363 . S
C89 C90 1.385 . S
C90 H64 0.930 . S
C90 C89 1.385 . S
C90 C91 1.357 . S
C91 C90 1.357 . S
C91 C92 1.406 . S
C92 H66 0.929 . S
C92 C91 1.406 . S
C92 C93 1.391 . S
C93 H65 0.931 . S
C93 C88 1.370 . S
C93 C92 1.391 . S
C94 N63 1.435 . S
C94 C95 1.358 . S
C94 C99 1.371 . S
C95 H67 0.930 . S
C95 C94 1.358 . S
C95 C96 1.405 . S
C96 H68 0.932 . S
C96 C95 1.405 . S
C96 C97 1.383 . S
C97 C96 1.383 . S
C97 C98 1.393 . S
C98 H70 0.931 . S
C98 C97 1.393 . S
C98 C99 1.382 . S
C99 H69 0.929 . S
C99 C94 1.371 . S
C99 C98 1.382 . S
C100 N63 1.423 . S
C100 C101 1.362 . S
C100 C105 1.388 . S
C101 H71 0.929 . S
C101 C100 1.362 . S
C101 C102 1.376 . S
C102 H73 0.931 . S
C102 C101 1.376 . S
C102 C103 1.396 . S
C103 C102 1.396 . S
C103 C104 1.348 . S
C103 C121 1.472 . S
C104 H74 0.929 . S
C104 C103 1.348 . S
C104 C105 1.443 . S
C105 H72 0.932 . S
C105 C100 1.388 . S
C105 C104 1.443 . S
C106 N86 1.433 . S
C106 C107 1.363 . S
C106 C111 1.370 . S
C107 H75 0.929 . S
C107 C106 1.363 . S
C107 C108 1.385 . S
C108 H76 0.930 1_565 S
C108 C107 1.385 . S
C108 C109 1.357 . S
C109 C108 1.357 . S
C109 C110 1.406 . S
C110 H77 0.929 . S
C110 C109 1.406 . S
C110 C111 1.391 . S
C111 H78 0.931 . S
C111 C106 1.370 . S
C111 C110 1.391 . S
C112 N86 1.435 . S
C112 C113 1.358 . S
C112 C117 1.371 . S
C113 H79 0.930 . S
C113 C112 1.358 . S
C113 C114 1.405 . S
C114 H80 0.932 1_565 S
C114 C113 1.405 . S
C114 C115 1.383 . S
C115 C114 1.383 . S
C115 C116 1.393 . S
C116 H81 0.931 . S
C116 C115 1.393 . S
C116 C117 1.382 . S
C117 H82 0.929 . S
C117 C112 1.371 . S
C117 C116 1.382 . S
C118 N86 1.423 . S
C118 C119 1.362 . S
C118 C123 1.388 . S
C119 H83 0.929 . S
C119 C118 1.362 . S
C119 C120 1.376 . S
C120 H84 0.931 . S
C120 C119 1.376 . S
C120 C121 1.396 . S
C121 C103 1.472 . S
C121 C120 1.396 . S
C121 C122 1.348 . S
C122 H85 0.929 . S
C122 C121 1.348 . S
C122 C123 1.443 . S
C123 H87 0.932 . S
C123 C118 1.388 . S
C123 C122 1.443 . S
H124 C151 0.929 . S
N125 C150 1.433 1_545 S
N125 C156 1.435 . S
N125 C162 1.423 . S
H126 C152 0.930 . S
H127 C155 0.931 . S
H128 C154 0.929 . S
H129 C157 0.930 1_565 S
H130 C158 0.932 . S
H131 C161 0.929 . S
H132 C160 0.931 . S
H133 C163 0.929 . S
H134 C167 0.932 . S
H135 C164 0.931 . S
H136 C166 0.929 . S
H137 C169 0.929 . S
H138 C170 0.930 . S
H139 C172 0.929 . S
H140 C173 0.931 . S
H141 C175 0.930 1_565 S
H142 C176 0.932 . S
H143 C178 0.931 . S
H144 C179 0.929 . S
H145 C181 0.929 . S
H146 C182 0.931 . S
H147 C184 0.929 . S
N148 C168 1.418 1_545 S
N148 C174 1.435 . S
N148 C180 1.423 . S
H149 C185 0.932 . S
C150 N125 1.433 1_565 S
C150 C151 1.363 1_565 S
C150 C155 1.370 . S
C151 H124 0.929 . S
C151 C150 1.363 1_545 S
C151 C152 1.385 1_545 S
C152 H126 0.930 . S
C152 C151 1.385 1_565 S
C152 C153 1.357 . S
C153 C152 1.357 . S
C153 C154 1.406 . S
C154 H128 0.929 . S
C154 C153 1.406 . S
C154 C155 1.391 . S
C155 H127 0.931 . S
C155 C150 1.370 . S
C155 C154 1.391 . S
C156 N125 1.435 . S
C156 C157 1.358 . S
C156 C161 1.371 . S
C157 H129 0.930 1_545 S
C157 C156 1.358 . S
C157 C158 1.405 1_554 S
C158 H130 0.932 . S
C158 C157 1.405 1_556 S
C158 C159 1.383 . S
C159 C158 1.383 . S
C159 C160 1.393 . S
C160 H132 0.931 . S
C160 C159 1.393 . S
C160 C161 1.382 1_556 S
C161 H131 0.929 . S
C161 C156 1.371 . S
C161 C160 1.382 1_554 S
C162 N125 1.423 . S
C162 C163 1.362 . S
C162 C167 1.388 . S
C163 H133 0.929 . S
C163 C162 1.362 . S
C163 C164 1.376 . S
C164 H135 0.931 . S
C164 C163 1.376 . S
C164 C165 1.396 . S
C165 C164 1.396 . S
C165 C166 1.348 . S
C165 C183 1.472 . S
C166 H136 0.929 . S
C166 C165 1.348 . S
C166 C167 1.443 . S
C167 H134 0.932 . S
C167 C162 1.388 . S
C167 C166 1.443 . S
C168 N148 1.418 1_565 S
C168 C169 1.360 1_565 S
C168 C173 1.389 . S
C169 H137 0.929 . S
C169 C168 1.360 1_545 S
C169 C170 1.385 1_545 S
C170 H138 0.930 . S
C170 C169 1.385 1_565 S
C170 C171 1.357 . S
C171 C170 1.357 . S
C171 C172 1.406 . S
C172 H139 0.929 . S
C172 C171 1.406 . S
C172 C173 1.391 . S
C173 H140 0.931 . S
C173 C168 1.389 . S
C173 C172 1.391 . S
C174 N148 1.435 . S
C174 C175 1.358 . S
C174 C179 1.371 . S
C175 H141 0.930 1_545 S
C175 C174 1.358 . S
C175 C176 1.405 1_554 S
C176 H142 0.932 . S
C176 C175 1.405 1_556 S
C176 C177 1.383 . S
C177 C176 1.383 . S
C177 C178 1.393 . S
C178 H143 0.931 . S
C178 C177 1.393 . S
C178 C179 1.382 1_556 S
C179 H144 0.929 . S
C179 C174 1.371 . S
C179 C178 1.382 1_554 S
C180 N148 1.423 . S
C180 C181 1.362 . S
C180 C185 1.388 . S
C181 H145 0.929 . S
C181 C180 1.362 . S
C181 C182 1.376 . S
C182 H146 0.931 . S
C182 C181 1.376 . S
C182 C183 1.396 . S
C183 C165 1.472 . S
C183 C182 1.396 . S
C183 C184 1.348 . S
C184 H147 0.929 . S
C184 C183 1.348 . S
C184 C185 1.443 . S
C185 H149 0.932 . S
C185 C180 1.388 . S
C185 C184 1.443 . S
H186 C213 0.929 . S
N187 C212 1.433 . S
N187 C218 1.435 . S
N187 C224 1.423 . S
H188 C214 0.930 . S
H189 C217 0.931 . S
H190 C216 0.929 . S
H191 C219 0.930 . S
H192 C220 0.932 . S
H193 C223 0.929 . S
H194 C222 0.931 . S
H195 C225 0.929 . S
H196 C229 0.932 . S
H197 C226 0.931 . S
H198 C228 0.929 . S
H199 C231 0.929 . S
H200 C232 0.930 . S
H201 C234 0.929 . S
H202 C235 0.931 . S
H203 C237 0.930 . S
H204 C238 0.932 1_565 S
H205 C240 0.931 . S
H206 C241 0.929 . S
H207 C243 0.929 . S
H208 C244 0.931 . S
H209 C246 0.929 . S
N210 C230 1.433 . S
N210 C236 1.435 . S
N210 C242 1.423 . S
H211 C247 0.932 . S
C212 N187 1.433 . S
C212 C213 1.363 . S
C212 C217 1.370 . S
C213 H186 0.929 . S
C213 C212 1.363 . S
C213 C214 1.385 . S
C214 H188 0.930 . S
C214 C213 1.385 . S
C214 C215 1.357 . S
C215 C214 1.357 . S
C215 C216 1.406 . S
C216 H190 0.929 . S
C216 C215 1.406 . S
C216 C217 1.391 . S
C217 H189 0.931 . S
C217 C212 1.370 . S
C217 C216 1.391 . S
C218 N187 1.435 . S
C218 C219 1.358 . S
C218 C223 1.371 . S
C219 H191 0.930 . S
C219 C218 1.358 . S
C219 C220 1.405 . S
C220 H192 0.932 . S
C220 C219 1.405 . S
C220 C221 1.383 . S
C221 C220 1.383 . S
C221 C222 1.393 . S
C222 H194 0.931 . S
C222 C221 1.393 . S
C222 C223 1.382 . S
C223 H193 0.929 . S
C223 C218 1.371 . S
C223 C222 1.382 . S
C224 N187 1.423 . S
C224 C225 1.362 . S
C224 C229 1.388 . S
C225 H195 0.929 . S
C225 C224 1.362 . S
C225 C226 1.376 . S
C226 H197 0.931 . S
C226 C225 1.376 . S
C226 C227 1.396 . S
C227 C226 1.396 . S
C227 C228 1.348 . S
C227 C245 1.472 . S
C228 H198 0.929 . S
C228 C227 1.348 . S
C228 C229 1.443 . S
C229 H196 0.932 . S
C229 C224 1.388 . S
C229 C228 1.443 . S
C230 N210 1.433 . S
C230 C231 1.363 . S
C230 C235 1.370 . S
C231 H199 0.929 . S
C231 C230 1.363 . S
C231 C232 1.385 . S
C232 H200 0.930 . S
C232 C231 1.385 . S
C232 C233 1.357 . S
C233 C232 1.357 . S
C233 C234 1.406 . S
C234 H201 0.929 . S
C234 C233 1.406 . S
C234 C235 1.391 . S
C235 H202 0.931 . S
C235 C230 1.370 . S
C235 C234 1.391 . S
C236 N210 1.435 . S
C236 C237 1.358 . S
C236 C241 1.371 . S
C237 H203 0.930 . S
C237 C236 1.358 . S
C237 C238 1.405 . S
C238 H204 0.932 1_545 S
C238 C237 1.405 . S
C238 C239 1.383 . S
C239 C238 1.383 . S
C239 C240 1.393 . S
C240 H205 0.931 . S
C240 C239 1.393 . S
C240 C241 1.382 . S
C241 H206 0.929 . S
C241 C236 1.371 . S
C241 C240 1.382 . S
C242 N210 1.423 . S
C242 C243 1.362 . S
C242 C247 1.388 . S
C243 H207 0.929 . S
C243 C242 1.362 . S
C243 C244 1.376 . S
C244 H208 0.931 . S
C244 C243 1.376 . S
C244 C245 1.396 . S
C245 C227 1.472 . S
C245 C244 1.396 . S
C245 C246 1.348 . S
C246 H209 0.929 . S
C246 C245 1.348 . S
C246 C247 1.443 . S
C247 H211 0.932 . S
C247 C242 1.388 . S
C247 C246 1.443 . S
H248 C275 0.929 . S
N249 C274 1.439 . S
N249 C280 1.445 . S
N249 C286 1.407 1_565 S
H250 C276 0.930 . S
H251 C279 0.931 . S
H252 C278 0.929 1_545 S
H253 C281 0.930 . S
H254 C282 0.932 . S
H255 C285 0.929 . S
H256 C284 0.931 . S
H257 C287 0.929 . S
H258 C291 0.932 . S
H259 C288 0.931 . S
H260 C290 0.929 . S
H261 C293 0.929 . S
H262 C294 0.930 . S
H263 C296 0.929 . S
H264 C297 0.931 . S
H265 C299 0.930 . S
H266 C300 0.932 . S
H267 C302 0.931 . S
H268 C303 0.929 . S
H269 C305 0.929 . S
H270 C306 0.931 . S
H271 C308 0.929 . S
N272 C292 1.433 . S
N272 C298 1.435 . S
N272 C304 1.423 . S
H273 C309 0.932 . S
C274 N249 1.439 . S
C274 C275 1.363 . S
C274 C279 1.370 1_565 S
C275 H248 0.929 . S
C275 C274 1.363 . S
C275 C276 1.385 . S
C276 H250 0.930 . S
C276 C275 1.385 . S
C276 C277 1.357 . S
C277 C276 1.357 . S
C277 C278 1.406 . S
C278 H252 0.929 1_565 S
C278 C277 1.406 . S
C278 C279 1.391 1_565 S
C279 H251 0.931 . S
C279 C274 1.370 1_545 S
C279 C278 1.391 1_545 S
C280 N249 1.445 . S
C280 C281 1.358 . S
C280 C285 1.371 . S
C281 H253 0.930 . S
C281 C280 1.358 . S
C281 C282 1.405 . S
C282 H254 0.932 . S
C282 C281 1.405 . S
C282 C283 1.383 . S
C283 C282 1.383 . S
C283 C284 1.393 . S
C284 H256 0.931 . S
C284 C283 1.393 . S
C284 C285 1.382 . S
C285 H255 0.929 . S
C285 C280 1.371 . S
C285 C284 1.382 . S
C286 N249 1.407 1_545 S
C286 C287 1.362 . S
C286 C291 1.388 . S
C287 H257 0.929 . S
C287 C286 1.362 . S
C287 C288 1.376 . S
C288 H259 0.931 . S
C288 C287 1.376 . S
C288 C289 1.396 . S
C289 C288 1.396 . S
C289 C290 1.348 . S
C289 C307 1.472 . S
C290 H260 0.929 . S
C290 C289 1.348 . S
C290 C291 1.443 . S
C291 H258 0.932 . S
C291 C286 1.388 . S
C291 C290 1.443 . S
C292 N272 1.433 . S
C292 C293 1.363 . S
C292 C297 1.370 . S
C293 H261 0.929 . S
C293 C292 1.363 . S
C293 C294 1.385 . S
C294 H262 0.930 . S
C294 C293 1.385 . S
C294 C295 1.357 . S
C295 C294 1.357 . S
C295 C296 1.406 . S
C296 H263 0.929 . S
C296 C295 1.406 . S
C296 C297 1.391 . S
C297 H264 0.931 . S
C297 C292 1.370 . S
C297 C296 1.391 . S
C298 N272 1.435 . S
C298 C299 1.358 . S
C298 C303 1.371 . S
C299 H265 0.930 . S
C299 C298 1.358 . S
C299 C300 1.405 . S
C300 H266 0.932 . S
C300 C299 1.405 . S
C300 C301 1.383 . S
C301 C300 1.383 . S
C301 C302 1.393 . S
C302 H267 0.931 . S
C302 C301 1.393 . S
C302 C303 1.382 . S
C303 H268 0.929 . S
C303 C298 1.371 . S
C303 C302 1.382 . S
C304 N272 1.423 . S
C304 C305 1.362 . S
C304 C309 1.388 . S
C305 H269 0.929 . S
C305 C304 1.362 . S
C305 C306 1.376 . S
C306 H270 0.931 . S
C306 C305 1.376 . S
C306 C307 1.396 . S
C307 C289 1.472 . S
C307 C306 1.396 . S
C307 C308 1.348 . S
C308 H271 0.929 . S
C308 C307 1.348 . S
C308 C309 1.443 . S
C309 H273 0.932 . S
C309 C304 1.388 . S
C309 C308 1.443 . S
H310 C337 0.929 . S
N311 C336 1.433 . S
N311 C342 1.435 . S
N311 C348 1.423 1_545 S
H312 C338 0.930 . S
H313 C341 0.931 1_565 S
H314 C340 0.929 . S
H315 C343 0.930 . S
H316 C344 0.932 . S
H317 C347 0.929 . S
H318 C346 0.931 . S
H319 C349 0.929 . S
H320 C353 0.932 . S
H321 C350 0.931 . S
H322 C352 0.929 . S
H323 C355 0.929 . S
H324 C356 0.930 . S
H325 C358 0.929 . S
H326 C359 0.931 . S
H327 C361 0.930 . S
H328 C362 0.932 . S
H329 C364 0.931 . S
H330 C365 0.929 . S
H331 C367 0.929 . S
H332 C368 0.931 . S
H333 C370 0.929 . S
N334 C354 1.433 . S
N334 C360 1.435 . S
N334 C366 1.423 . S
H335 C371 0.932 . S
C336 N311 1.433 . S
C336 C337 1.363 . S
C336 C341 1.370 . S
C337 H310 0.929 . S
C337 C336 1.363 . S
C337 C338 1.385 . S
C338 H312 0.930 . S
C338 C337 1.385 . S
C338 C339 1.357 . S
C339 C338 1.357 . S
C339 C340 1.406 . S
C340 H314 0.929 . S
C340 C339 1.406 . S
C340 C341 1.391 . S
C341 H313 0.931 1_545 S
C341 C336 1.370 . S
C341 C340 1.391 . S
C342 N311 1.435 . S
C342 C343 1.358 . S
C342 C347 1.371 . S
C343 H315 0.930 . S
C343 C342 1.358 . S
C343 C344 1.405 . S
C344 H316 0.932 . S
C344 C343 1.405 . S
C344 C345 1.383 . S
C345 C344 1.383 . S
C345 C346 1.393 . S
C346 H318 0.931 . S
C346 C345 1.393 . S
C346 C347 1.382 . S
C347 H317 0.929 . S
C347 C342 1.371 . S
C347 C346 1.382 . S
C348 N311 1.423 1_565 S
C348 C349 1.362 . S
C348 C353 1.388 . S
C349 H319 0.929 . S
C349 C348 1.362 . S
C349 C350 1.376 . S
C350 H321 0.931 . S
C350 C349 1.376 . S
C350 C351 1.396 . S
C351 C350 1.396 . S
C351 C352 1.348 . S
C351 C369 1.472 . S
C352 H322 0.929 . S
C352 C351 1.348 . S
C352 C353 1.443 . S
C353 H320 0.932 . S
C353 C348 1.388 . S
C353 C352 1.443 . S
C354 N334 1.433 . S
C354 C355 1.363 . S
C354 C359 1.370 . S
C355 H323 0.929 . S
C355 C354 1.363 . S
C355 C356 1.385 . S
C356 H324 0.930 . S
C356 C355 1.385 . S
C356 C357 1.357 . S
C357 C356 1.357 . S
C357 C358 1.406 . S
C358 H325 0.929 . S
C358 C357 1.406 . S
C358 C359 1.391 . S
C359 H326 0.931 . S
C359 C354 1.370 . S
C359 C358 1.391 . S
C360 N334 1.435 . S
C360 C361 1.358 . S
C360 C365 1.371 . S
C361 H327 0.930 . S
C361 C360 1.358 . S
C361 C362 1.405 . S
C362 H328 0.932 . S
C362 C361 1.405 . S
C362 C363 1.383 . S
C363 C362 1.383 . S
C363 C364 1.393 . S
C364 H329 0.931 . S
C364 C363 1.393 . S
C364 C365 1.382 . S
C365 H330 0.929 . S
C365 C360 1.371 . S
C365 C364 1.382 . S
C366 N334 1.423 . S
C366 C367 1.362 . S
C366 C371 1.388 . S
C367 H331 0.929 . S
C367 C366 1.362 . S
C367 C368 1.376 . S
C368 H332 0.931 . S
C368 C367 1.376 . S
C368 C369 1.396 . S
C369 C351 1.472 . S
C369 C368 1.396 . S
C369 C370 1.348 . S
C370 H333 0.929 . S
C370 C369 1.348 . S
C370 C371 1.443 . S
C371 H335 0.932 . S
C371 C366 1.388 . S
C371 C370 1.443 . S
H372 C399 0.937 . S
N373 C398 1.433 . S
N373 C404 1.435 . S
N373 C410 1.423 . S
H374 C400 0.930 . S
H375 C403 0.943 . S
H376 C402 0.929 . S
H377 C405 0.930 . S
H378 C406 0.932 . S
H379 C409 0.929 . S
H380 C408 0.931 . S
H381 C411 0.929 1_556 S
H382 C415 0.932 . S
H383 C412 0.931 1_556 S
H384 C414 0.929 . S
H385 C417 0.939 . S
H386 C418 0.930 . S
H387 C420 0.929 . S
H388 C421 0.941 . S
H389 C423 0.930 . S
H390 C424 0.932 . S
H391 C426 0.931 . S
H392 C427 0.929 . S
H393 C429 0.929 1_556 S
H394 C430 0.931 1_556 S
H395 C432 0.929 . S
N396 C416 1.433 . S
N396 C422 1.435 . S
N396 C428 1.423 . S
H397 C433 0.932 . S
C398 N373 1.433 . S
C398 C399 1.363 1_554 S
C398 C403 1.376 . S
C399 H372 0.937 . S
C399 C398 1.363 1_556 S
C399 C400 1.385 . S
C400 H374 0.930 . S
C400 C399 1.385 . S
C400 C401 1.357 . S
C401 C400 1.357 . S
C401 C402 1.406 . S
C402 H376 0.929 . S
C402 C401 1.406 . S
C402 C403 1.373 1_556 S
C403 H375 0.943 . S
C403 C398 1.376 . S
C403 C402 1.373 1_554 S
C404 N373 1.435 . S
C404 C405 1.358 . S
C404 C409 1.371 . S
C405 H377 0.930 . S
C405 C404 1.358 . S
C405 C406 1.405 . S
C406 H378 0.932 . S
C406 C405 1.405 . S
C406 C407 1.383 . S
C407 C406 1.383 . S
C407 C408 1.393 . S
C408 H380 0.931 . S
C408 C407 1.393 . S
C408 C409 1.382 . S
C409 H379 0.929 . S
C409 C404 1.371 . S
C409 C408 1.382 . S
C410 N373 1.423 . S
C410 C411 1.362 . S
C410 C415 1.388 . S
C411 H381 0.929 1_554 S
C411 C410 1.362 . S
C411 C412 1.376 . S
C412 H383 0.931 1_554 S
C412 C411 1.376 . S
C412 C413 1.396 . S
C413 C412 1.396 . S
C413 C414 1.348 . S
C413 C431 1.472 . S
C414 H384 0.929 . S
C414 C413 1.348 . S
C414 C415 1.443 . S
C415 H382 0.932 . S
C415 C410 1.388 . S
C415 C414 1.443 . S
C416 N396 1.433 . S
C416 C417 1.363 1_554 S
C416 C421 1.375 . S
C417 H385 0.939 . S
C417 C416 1.363 1_556 S
C417 C418 1.385 . S
C418 H386 0.930 . S
C418 C417 1.385 . S
C418 C419 1.357 . S
C419 C418 1.357 . S
C419 C420 1.406 . S
C420 H387 0.929 . S
C420 C419 1.406 . S
C420 C421 1.377 1_556 S
C421 H388 0.941 . S
C421 C416 1.375 . S
C421 C420 1.377 1_554 S
C422 N396 1.435 . S
C422 C423 1.358 . S
C422 C427 1.371 . S
C423 H389 0.930 . S
C423 C422 1.358 . S
C423 C424 1.405 . S
C424 H390 0.932 . S
C424 C423 1.405 . S
C424 C425 1.383 . S
C425 C424 1.383 . S
C425 C426 1.393 . S
C426 H391 0.931 . S
C426 C425 1.393 . S
C426 C427 1.382 . S
C427 H392 0.929 . S
C427 C422 1.371 . S
C427 C426 1.382 . S
C428 N396 1.423 . S
C428 C429 1.362 . S
C428 C433 1.388 . S
C429 H393 0.929 1_554 S
C429 C428 1.362 . S
C429 C430 1.376 . S
C430 H394 0.931 1_554 S
C430 C429 1.376 . S
C430 C431 1.396 . S
C431 C413 1.472 . S
C431 C430 1.396 . S
C431 C432 1.348 . S
C432 H395 0.929 . S
C432 C431 1.348 . S
C432 C433 1.443 . S
C433 H397 0.932 . S
C433 C428 1.388 . S
C433 C432 1.443 . S
H434 C461 0.929 . S
N435 C460 1.433 . S
N435 C466 1.435 . S
N435 C472 1.423 . S
H436 C462 0.930 . S
H437 C465 0.931 . S
H438 C464 0.929 . S
H439 C467 0.930 . S
H440 C468 0.932 . S
H441 C471 0.929 . S
H442 C470 0.931 . S
H443 C473 0.929 . S
H444 C477 0.932 . S
H445 C474 0.931 . S
H446 C476 0.929 . S
H447 C479 0.929 . S
H448 C480 0.930 . S
H449 C482 0.929 . S
H450 C483 0.931 1_455 S
H451 C485 0.930 . S
H452 C486 0.932 . S
H453 C488 0.931 . S
H454 C489 0.929 . S
H455 C491 0.929 . S
H456 C492 0.931 . S
H457 C494 0.929 . S
N458 C478 1.433 . S
N458 C484 1.435 . S
N458 C490 1.423 1_655 S
H459 C495 0.932 . S
C460 N435 1.433 . S
C460 C461 1.363 . S
C460 C465 1.370 . S
C461 H434 0.929 . S
C461 C460 1.363 . S
C461 C462 1.385 . S
C462 H436 0.930 . S
C462 C461 1.385 . S
C462 C463 1.357 . S
C463 C462 1.357 . S
C463 C464 1.406 . S
C464 H438 0.929 . S
C464 C463 1.406 . S
C464 C465 1.391 . S
C465 H437 0.931 . S
C465 C460 1.370 . S
C465 C464 1.391 . S
C466 N435 1.435 . S
C466 C467 1.358 . S
C466 C471 1.371 . S
C467 H439 0.930 . S
C467 C466 1.358 . S
C467 C468 1.405 . S
C468 H440 0.932 . S
C468 C467 1.405 . S
C468 C469 1.383 . S
C469 C468 1.383 . S
C469 C470 1.393 . S
C470 H442 0.931 . S
C470 C469 1.393 . S
C470 C471 1.382 . S
C471 H441 0.929 . S
C471 C466 1.371 . S
C471 C470 1.382 . S
C472 N435 1.423 . S
C472 C473 1.362 . S
C472 C477 1.388 . S
C473 H443 0.929 . S
C473 C472 1.362 . S
C473 C474 1.376 . S
C474 H445 0.931 . S
C474 C473 1.376 . S
C474 C475 1.396 . S
C475 C474 1.396 . S
C475 C476 1.348 . S
C475 C493 1.472 . S
C476 H446 0.929 . S
C476 C475 1.348 . S
C476 C477 1.443 . S
C477 H444 0.932 . S
C477 C472 1.388 . S
C477 C476 1.443 . S
C478 N458 1.433 . S
C478 C479 1.363 . S
C478 C483 1.370 . S
C479 H447 0.929 . S
C479 C478 1.363 . S
C479 C480 1.385 . S
C480 H448 0.930 . S
C480 C479 1.385 . S
C480 C481 1.357 . S
C481 C480 1.357 . S
C481 C482 1.406 . S
C482 H449 0.929 . S
C482 C481 1.406 . S
C482 C483 1.391 . S
C483 H450 0.931 1_655 S
C483 C478 1.370 . S
C483 C482 1.391 . S
C484 N458 1.435 . S
C484 C485 1.358 . S
C484 C489 1.371 . S
C485 H451 0.930 . S
C485 C484 1.358 . S
C485 C486 1.405 . S
C486 H452 0.932 . S
C486 C485 1.405 . S
C486 C487 1.383 . S
C487 C486 1.383 . S
C487 C488 1.393 . S
C488 H453 0.931 . S
C488 C487 1.393 . S
C488 C489 1.382 . S
C489 H454 0.929 . S
C489 C484 1.371 . S
C489 C488 1.382 . S
C490 N458 1.423 1_455 S
C490 C491 1.362 . S
C490 C495 1.388 . S
C491 H455 0.929 . S
C491 C490 1.362 . S
C491 C492 1.376 . S
C492 H456 0.931 . S
C492 C491 1.376 . S
C492 C493 1.396 . S
C493 C475 1.472 . S
C493 C492 1.396 . S
C493 C494 1.348 . S
C494 H457 0.929 . S
C494 C493 1.348 . S
C494 C495 1.443 . S
C495 H459 0.932 . S
C495 C490 1.388 . S
C495 C494 1.443 . S
C496 O523 1.312 . S
C496 O524 1.208 . S
C497 O518 1.331 1_655 S
C497 O521 1.244 . S
C498 O520 1.264 1_655 S
C498 O522 1.273 . S
Mg499 O501 1.936 . S
Mg499 O508 2.081 . S
Mg499 O510 2.023 . S
Mg499 O514 2.031 . S
Mg499 O523 2.291 . S
Mg500 O501 1.963 . S
Mg500 O511 1.942 . S
Mg500 O512 1.955 . S
Mg500 O519 1.986 . S
O501 Mg499 1.936 . S
O501 Mg500 1.963 . S
O501 Mg502 1.915 . S
Mg502 O501 1.915 . S
Mg502 O503 1.915 . S
Mg502 O507 2.013 . S
Mg502 O513 2.114 . S
Mg502 O517 2.013 . S
Mg502 O523 2.114 . S
O503 Mg502 1.915 . S
O503 Mg504 1.936 . S
O503 Mg505 1.963 1_455 S
Mg504 O503 1.936 . S
Mg504 O513 2.291 . S
Mg504 O518 2.081 . S
Mg504 O520 2.023 . S
Mg504 O524 2.031 . S
Mg505 O503 1.963 1_655 S
Mg505 O509 1.986 . S
Mg505 O521 1.942 . S
Mg505 O522 1.955 . S
C506 O517 1.191 . S
C506 O519 1.307 . S
O507 Mg502 2.013 . S
O507 C526 1.191 . S
O508 Mg499 2.081 . S
O508 C516 1.331 . S
O509 Mg505 1.986 . S
O509 C526 1.307 1_655 S
O510 Mg499 2.023 . S
O510 C525 1.264 . S
O511 Mg500 1.942 . S
O511 C516 1.244 . S
O512 Mg500 1.955 . S
O512 C525 1.273 . S
O513 Mg502 2.114 . S
O513 Mg504 2.291 . S
O513 C515 1.312 . S
O514 Mg499 2.031 . S
O514 C515 1.208 . S
C515 O513 1.312 . S
C515 O514 1.208 . S
C516 O508 1.331 . S
C516 O511 1.244 . S
O517 Mg502 2.013 . S
O517 C506 1.191 . S
O518 C497 1.331 1_455 S
O518 Mg504 2.081 . S
O519 Mg500 1.986 . S
O519 C506 1.307 . S
O520 C498 1.264 1_455 S
O520 Mg504 2.023 . S
O521 C497 1.244 . S
O521 Mg505 1.942 . S
O522 C498 1.273 . S
O522 Mg505 1.955 . S
O523 C496 1.312 . S
O523 Mg499 2.291 . S
O523 Mg502 2.114 . S
O524 C496 1.208 . S
O524 Mg504 2.031 . S
C525 O510 1.264 . S
C525 O512 1.273 . S
C526 O507 1.191 . S
C526 O509 1.307 1_455 S
C527 O554 1.312 . S
C527 O555 1.208 . S
C528 O549 1.331 . S
C528 O552 1.244 . S
C529 O551 1.264 . S
C529 O553 1.273 . S
Mg530 O532 1.936 . S
Mg530 O539 2.081 . S
Mg530 O541 2.023 . S
Mg530 O545 2.031 . S
Mg530 O554 2.291 . S
Mg531 O532 1.963 . S
Mg531 O542 1.942 . S
Mg531 O543 1.955 . S
Mg531 O550 1.986 . S
O532 Mg530 1.936 . S
O532 Mg531 1.963 . S
O532 Mg533 1.915 . S
Mg533 O532 1.915 . S
Mg533 O534 1.915 . S
Mg533 O538 2.013 . S
Mg533 O544 2.114 . S
Mg533 O548 2.013 . S
Mg533 O554 2.114 . S
O534 Mg533 1.915 . S
O534 Mg535 1.936 . S
O534 Mg536 1.963 . S
Mg535 O534 1.936 . S
Mg535 O544 2.291 . S
Mg535 O549 2.081 . S
Mg535 O551 2.023 . S
Mg535 O555 2.031 . S
Mg536 O534 1.963 . S
Mg536 O540 1.986 . S
Mg536 O552 1.942 . S
Mg536 O553 1.955 . S
C537 O548 1.191 . S
C537 O550 1.307 . S
O538 Mg533 2.013 . S
O538 C557 1.191 . S
O539 Mg530 2.081 . S
O539 C547 1.331 . S
O540 Mg536 1.986 . S
O540 C557 1.307 . S
O541 Mg530 2.023 . S
O541 C556 1.264 . S
O542 Mg531 1.942 . S
O542 C547 1.244 . S
O543 Mg531 1.955 . S
O543 C556 1.273 . S
O544 Mg533 2.114 . S
O544 Mg535 2.291 . S
O544 C546 1.312 . S
O545 Mg530 2.031 . S
O545 C546 1.208 . S
C546 O544 1.312 . S
C546 O545 1.208 . S
C547 O539 1.331 . S
C547 O542 1.244 . S
O548 Mg533 2.013 . S
O548 C537 1.191 . S
O549 C528 1.331 . S
O549 Mg535 2.081 . S
O550 Mg531 1.986 . S
O550 C537 1.307 . S
O551 C529 1.264 . S
O551 Mg535 2.023 . S
O552 C528 1.244 . S
O552 Mg536 1.942 . S
O553 C529 1.273 . S
O553 Mg536 1.955 . S
O554 C527 1.312 . S
O554 Mg530 2.291 . S
O554 Mg533 2.114 . S
O555 C527 1.208 . S
O555 Mg535 2.031 . S
C556 O541 1.264 . S
C556 O543 1.273 . S
C557 O538 1.191 . S
C557 O540 1.307 . S
C558 O585 1.312 . S
C558 O586 1.208 . S
C559 O580 1.331 . S
C559 O583 1.244 . S
C560 O582 1.264 . S
C560 O584 1.273 . S
Mg561 O563 1.936 . S
Mg561 O570 2.081 . S
Mg561 O572 2.023 . S
Mg561 O576 2.031 . S
Mg561 O585 2.291 . S
Mg562 O563 1.963 . S
Mg562 O573 1.942 . S
Mg562 O574 1.955 . S
Mg562 O581 1.986 . S
O563 Mg561 1.936 . S
O563 Mg562 1.963 . S
O563 Mg564 1.915 . S
Mg564 O563 1.915 . S
Mg564 O565 1.915 . S
Mg564 O569 2.013 . S
Mg564 O575 2.114 . S
Mg564 O579 2.013 . S
Mg564 O585 2.114 . S
O565 Mg564 1.915 . S
O565 Mg566 1.936 . S
O565 Mg567 1.963 . S
Mg566 O565 1.936 . S
Mg566 O575 2.291 . S
Mg566 O580 2.081 . S
Mg566 O582 2.023 . S
Mg566 O586 2.031 . S
Mg567 O565 1.963 . S
Mg567 O571 1.986 . S
Mg567 O583 1.942 . S
Mg567 O584 1.955 . S
C568 O579 1.191 . S
C568 O581 1.307 . S
O569 Mg564 2.013 . S
O569 C588 1.191 . S
O570 Mg561 2.081 . S
O570 C578 1.331 . S
O571 Mg567 1.986 . S
O571 C588 1.307 . S
O572 Mg561 2.023 . S
O572 C587 1.264 . S
O573 Mg562 1.942 . S
O573 C578 1.244 . S
O574 Mg562 1.955 . S
O574 C587 1.273 . S
O575 Mg564 2.114 . S
O575 Mg566 2.291 . S
O575 C577 1.312 . S
O576 Mg561 2.031 . S
O576 C577 1.208 . S
C577 O575 1.312 . S
C577 O576 1.208 . S
C578 O570 1.331 . S
C578 O573 1.244 . S
O579 Mg564 2.013 . S
O579 C568 1.191 . S
O580 C559 1.331 . S
O580 Mg566 2.081 . S
O581 Mg562 1.986 . S
O581 C568 1.307 . S
O582 C560 1.264 . S
O582 Mg566 2.023 . S
O583 C559 1.244 . S
O583 Mg567 1.942 . S
O584 C560 1.273 . S
O584 Mg567 1.955 . S
O585 C558 1.312 . S
O585 Mg561 2.291 . S
O585 Mg564 2.114 . S
O586 C558 1.208 . S
O586 Mg566 2.031 . S
C587 O572 1.264 . S
C587 O574 1.273 . S
C588 O569 1.191 . S
C588 O571 1.307 . S
C589 O616 1.312 . S
C589 O617 1.208 . S
C590 O611 1.331 . S
C590 O614 1.244 . S
C591 O613 1.264 . S
C591 O615 1.273 . S
Mg592 O594 1.936 . S
Mg592 O601 2.081 . S
Mg592 O603 2.023 . S
Mg592 O607 2.031 . S
Mg592 O616 2.291 . S
Mg593 O594 1.963 1_655 S
Mg593 O604 1.942 . S
Mg593 O605 1.955 . S
Mg593 O612 1.986 . S
O594 Mg592 1.936 . S
O594 Mg593 1.963 1_455 S
O594 Mg595 1.915 . S
Mg595 O594 1.915 . S
Mg595 O596 1.915 . S
Mg595 O600 2.013 . S
Mg595 O606 2.114 . S
Mg595 O610 2.013 . S
Mg595 O616 2.114 . S
O596 Mg595 1.915 . S
O596 Mg597 1.936 . S
O596 Mg598 1.963 . S
Mg597 O596 1.936 . S
Mg597 O606 2.291 . S
Mg597 O611 2.081 . S
Mg597 O613 2.023 . S
Mg597 O617 2.031 . S
Mg598 O596 1.963 . S
Mg598 O602 1.986 . S
Mg598 O614 1.942 . S
Mg598 O615 1.955 . S
C599 O610 1.191 . S
C599 O612 1.307 1_455 S
O600 Mg595 2.013 . S
O600 C619 1.191 . S
O601 Mg592 2.081 . S
O601 C609 1.331 1_455 S
O602 Mg598 1.986 . S
O602 C619 1.307 . S
O603 Mg592 2.023 . S
O603 C618 1.264 1_455 S
O604 Mg593 1.942 . S
O604 C609 1.244 . S
O605 Mg593 1.955 . S
O605 C618 1.273 . S
O606 Mg595 2.114 . S
O606 Mg597 2.291 . S
O606 C608 1.312 . S
O607 Mg592 2.031 . S
O607 C608 1.208 . S
C608 O606 1.312 . S
C608 O607 1.208 . S
C609 O601 1.331 1_655 S
C609 O604 1.244 . S
O610 Mg595 2.013 . S
O610 C599 1.191 . S
O611 C590 1.331 . S
O611 Mg597 2.081 . S
O612 Mg593 1.986 . S
O612 C599 1.307 1_655 S
O613 C591 1.264 . S
O613 Mg597 2.023 . S
O614 C590 1.244 . S
O614 Mg598 1.942 . S
O615 C591 1.273 . S
O615 Mg598 1.955 . S
O616 C589 1.312 . S
O616 Mg592 2.291 . S
O616 Mg595 2.114 . S
O617 C589 1.208 . S
O617 Mg597 2.031 . S
C618 O603 1.264 1_655 S
C618 O605 1.273 . S
C619 O600 1.191 . S
C619 O602 1.307 . S
C620 C621 1.387 . S
C620 H624 0.950 . S
C620 C629 1.390 . S
C621 C620 1.387 . S
C621 C623 1.387 . S
H622 C629 0.950 . S
C623 C621 1.387 . S
C623 C625 1.390 . S
C623 H627 0.950 . S
H624 C620 0.950 . S
C625 C623 1.390 . S
C625 C626 1.387 . S
C625 H628 0.950 . S
C626 C625 1.387 . S
C626 C629 1.387 . S
H627 C623 0.950 . S
H628 C625 0.950 . S
C629 C620 1.390 . S
C629 H622 0.950 . S
C629 C626 1.387 . S
C630 C631 1.387 . S
C630 H634 0.950 . S
C630 C639 1.390 . S
C631 C630 1.387 . S
C631 C633 1.387 . S
H632 C639 0.950 . S
C633 C631 1.387 . S
C633 C635 1.390 . S
C633 H637 0.950 1_545 S
H634 C630 0.950 . S
C635 C633 1.390 . S
C635 C636 1.387 . S
C635 H638 0.950 . S
C636 C635 1.387 . S
C636 C639 1.387 . S
H637 C633 0.950 1_565 S
H638 C635 0.950 . S
C639 C630 1.390 . S
C639 H632 0.950 . S
C639 C636 1.387 . S
C640 C641 1.387 . S
C640 H644 0.950 . S
C640 C649 1.390 . S
C641 C640 1.387 . S
C641 C643 1.387 . S
H642 C649 0.950 . S
C643 C641 1.387 . S
C643 C645 1.390 . S
C643 H647 0.950 . S
H644 C640 0.950 . S
C645 C643 1.390 . S
C645 C646 1.387 . S
C645 H648 0.950 . S
C646 C645 1.387 . S
C646 C649 1.387 . S
H647 C643 0.950 . S
H648 C645 0.950 . S
C649 C640 1.390 . S
C649 H642 0.950 . S
C649 C646 1.387 . S
C650 C651 1.387 . S
C650 H654 0.950 1_565 S
C650 C659 1.390 . S
C651 C650 1.387 . S
C651 C653 1.387 . S
H652 C659 0.950 . S
C653 C651 1.387 . S
C653 C655 1.390 . S
C653 H657 0.950 . S
H654 C650 0.950 1_545 S
C655 C653 1.390 . S
C655 C656 1.387 . S
C655 H658 0.950 . S
C656 C655 1.387 . S
C656 C659 1.387 . S
H657 C653 0.950 . S
H658 C655 0.950 . S
C659 C650 1.390 . S
C659 H652 0.950 . S
C659 C656 1.387 . S
C660 C661 1.387 . S
C660 H664 0.950 . S
C660 C669 1.390 . S
C661 C660 1.387 . S
C661 C663 1.387 . S
H662 C669 0.950 . S
C663 C661 1.387 . S
C663 C665 1.390 . S
C663 H667 0.950 . S
H664 C660 0.950 . S
C665 C663 1.390 . S
C665 C666 1.387 . S
C665 H668 0.950 . S
C666 C665 1.387 . S
C666 C669 1.387 . S
H667 C663 0.950 . S
H668 C665 0.950 . S
C669 C660 1.390 . S
C669 H662 0.950 . S
C669 C666 1.387 . S
C670 C671 1.387 1_545 S
C670 H674 0.950 . S
C670 C679 1.390 . S
C671 C670 1.387 1_565 S
C671 C673 1.387 1_565 S
H672 C679 0.950 . S
C673 C671 1.387 1_545 S
C673 C675 1.390 . S
C673 H677 0.950 1_545 S
H674 C670 0.950 . S
C675 C673 1.390 . S
C675 C676 1.387 . S
C675 H678 0.950 . S
C676 C675 1.387 . S
C676 C679 1.387 . S
H677 C673 0.950 1_565 S
H678 C675 0.950 . S
C679 C670 1.390 . S
C679 H672 0.950 . S
C679 C676 1.387 . S
C680 C681 1.387 . S
C680 H684 0.950 . S
C680 C689 1.390 . S
C681 C680 1.387 . S
C681 C683 1.387 . S
H682 C689 0.950 . S
C683 C681 1.387 . S
C683 C685 1.390 . S
C683 H687 0.950 . S
H684 C680 0.950 . S
C685 C683 1.390 . S
C685 C686 1.387 . S
C685 H688 0.950 . S
C686 C685 1.387 . S
C686 C689 1.387 . S
H687 C683 0.950 . S
H688 C685 0.950 . S
C689 C680 1.390 . S
C689 H682 0.950 . S
C689 C686 1.387 . S
C690 C691 1.387 1_565 S
C690 H694 0.950 1_565 S
C690 C699 1.390 . S
C691 C690 1.387 1_545 S
C691 C693 1.387 . S
H692 C699 0.950 . S
C693 C691 1.387 . S
C693 C695 1.390 1_545 S
C693 H697 0.950 . S
H694 C690 0.950 1_545 S
C695 C693 1.390 1_565 S
C695 C696 1.387 . S
C695 H698 0.950 . S
C696 C695 1.387 . S
C696 C699 1.387 . S
H697 C693 0.950 . S
H698 C695 0.950 . S
C699 C690 1.390 . S
C699 H692 0.950 . S
C699 C696 1.387 . S
C700 C701 1.387 . S
C700 H704 0.950 . S
C700 C709 1.390 . S
C701 C700 1.387 . S
C701 C703 1.387 . S
H702 C709 0.950 . S
C703 C701 1.387 . S
C703 C705 1.390 . S
C703 H707 0.950 . S
H704 C700 0.950 . S
C705 C703 1.390 . S
C705 C706 1.387 . S
C705 H708 0.950 . S
C706 C705 1.387 . S
C706 C709 1.387 . S
H707 C703 0.950 . S
H708 C705 0.950 . S
C709 C700 1.390 . S
C709 H702 0.950 . S
C709 C706 1.387 . S
C710 C711 1.387 . S
C710 H714 0.950 . S
C710 C719 1.390 . S
C711 C710 1.387 . S
C711 C713 1.387 . S
H712 C719 0.950 . S
C713 C711 1.387 . S
C713 C715 1.390 . S
C713 H717 0.950 . S
H714 C710 0.950 . S
C715 C713 1.390 . S
C715 C716 1.387 . S
C715 H718 0.950 . S
C716 C715 1.387 . S
C716 C719 1.387 . S
H717 C713 0.950 . S
H718 C715 0.950 . S
C719 C710 1.390 . S
C719 H712 0.950 . S
C719 C716 1.387 . S
C720 C721 1.387 . S
C720 H724 0.950 . S
C720 C729 1.390 . S
C721 C720 1.387 . S
C721 C723 1.387 . S
H722 C729 0.950 1_455 S
C723 C721 1.387 . S
C723 C725 1.390 . S
C723 H727 0.950 . S
H724 C720 0.950 . S
C725 C723 1.390 . S
C725 C726 1.387 1_655 S
C725 H728 0.950 . S
C726 C725 1.387 1_455 S
C726 C729 1.387 1_455 S
H727 C723 0.950 . S
H728 C725 0.950 . S
C729 C720 1.390 . S
C729 H722 0.950 1_655 S
C729 C726 1.387 1_655 S
C730 C731 1.387 . S
C730 H734 0.950 . S
C730 C739 1.390 . S
C731 C730 1.387 . S
C731 C733 1.387 . S
H732 C739 0.950 . S
C733 C731 1.387 . S
C733 C735 1.390 1_655 S
C733 H737 0.950 . S
H734 C730 0.950 . S
C735 C733 1.390 1_455 S
C735 C736 1.387 . S
C735 H738 0.950 . S
C736 C735 1.387 . S
C736 C739 1.387 1_455 S
H737 C733 0.950 . S
H738 C735 0.950 . S
C739 C730 1.390 . S
C739 H732 0.950 . S
C739 C736 1.387 1_655 S
C740 C741 1.387 . S
C740 H744 0.950 . S
C740 C749 1.390 . S
C741 C740 1.387 . S
C741 C743 1.387 . S
H742 C749 0.950 . S
C743 C741 1.387 . S
C743 C745 1.390 . S
C743 H747 0.950 . S
H744 C740 0.950 . S
C745 C743 1.390 . S
C745 C746 1.387 . S
C745 H748 0.950 . S
C746 C745 1.387 . S
C746 C749 1.387 . S
H747 C743 0.950 . S
H748 C745 0.950 . S
C749 C740 1.390 . S
C749 H742 0.950 . S
C749 C746 1.387 . S
C750 C751 1.387 . S
C750 H754 0.950 . S
C750 C759 1.390 . S
C751 C750 1.387 . S
C751 C753 1.387 . S
H752 C759 0.950 . S
C753 C751 1.387 . S
C753 C755 1.390 . S
C753 H757 0.950 . S
H754 C750 0.950 . S
C755 C753 1.390 . S
C755 C756 1.387 . S
C755 H758 0.950 1_655 S
C756 C755 1.387 . S
C756 C759 1.387 . S
H757 C753 0.950 . S
H758 C755 0.950 1_455 S
C759 C750 1.390 . S
C759 H752 0.950 . S
C759 C756 1.387 . S
C760 C761 1.387 . S
C760 H764 0.950 . S
C760 C769 1.390 . S
C761 C760 1.387 . S
C761 C763 1.387 1_655 S
H762 C769 0.950 . S
C763 C761 1.387 1_455 S
C763 C765 1.390 . S
C763 H767 0.950 . S
H764 C760 0.950 . S
C765 C763 1.390 . S
C765 C766 1.387 . S
C765 H768 0.950 . S
C766 C765 1.387 . S
C766 C769 1.387 1_455 S
H767 C763 0.950 . S
H768 C765 0.950 . S
C769 C760 1.390 . S
C769 H762 0.950 . S
C769 C766 1.387 1_655 S
C770 C771 1.387 . S
C770 H774 0.950 . S
C770 C779 1.390 . S
C771 C770 1.387 . S
C771 C773 1.387 . S
H772 C779 0.950 . S
C773 C771 1.387 . S
C773 C775 1.390 . S
C773 H777 0.950 . S
H774 C770 0.950 . S
C775 C773 1.390 . S
C775 C776 1.387 . S
C775 H778 0.950 . S
C776 C775 1.387 . S
C776 C779 1.387 . S
H777 C773 0.950 . S
H778 C775 0.950 . S
C779 C770 1.390 . S
C779 H772 0.950 . S
C779 C776 1.387 . S
C780 C781 1.387 . S
C780 H784 0.950 . S
C780 C789 1.390 . S
C781 C780 1.387 . S
C781 C783 1.387 . S
H782 C789 0.950 . S
C783 C781 1.387 . S
C783 C785 1.390 . S
C783 H787 0.950 . S
H784 C780 0.950 . S
C785 C783 1.390 . S
C785 C786 1.387 . S
C785 H788 0.950 . S
C786 C785 1.387 . S
C786 C789 1.387 . S
H787 C783 0.950 . S
H788 C785 0.950 . S
C789 C780 1.390 . S
C789 H782 0.950 . S
C789 C786 1.387 . S
C790 C791 1.387 . S
C790 H794 0.950 . S
C790 C799 1.390 . S
C791 C790 1.387 . S
C791 C793 1.387 . S
H792 C799 0.950 . S
C793 C791 1.387 . S
C793 C795 1.390 . S
C793 H797 0.950 . S
H794 C790 0.950 . S
C795 C793 1.390 . S
C795 C796 1.387 . S
C795 H798 0.950 . S
C796 C795 1.387 . S
C796 C799 1.387 . S
H797 C793 0.950 . S
H798 C795 0.950 . S
C799 C790 1.390 . S
C799 H792 0.950 . S
C799 C796 1.387 . S
C800 C801 1.387 . S
C800 H804 0.950 . S
C800 C809 1.390 . S
C801 C800 1.387 . S
C801 C803 1.387 . S
H802 C809 0.950 . S
C803 C801 1.387 . S
C803 C805 1.390 . S
C803 H807 0.950 . S
H804 C800 0.950 . S
C805 C803 1.390 . S
C805 C806 1.387 . S
C805 H808 0.950 . S
C806 C805 1.387 . S
C806 C809 1.387 . S
H807 C803 0.950 . S
H808 C805 0.950 . S
C809 C800 1.390 . S
C809 H802 0.950 . S
C809 C806 1.387 . S
C810 C811 1.387 . S
C810 H814 0.950 . S
C810 C819 1.390 . S
C811 C810 1.387 . S
C811 C813 1.387 . S
H812 C819 0.950 . S
C813 C811 1.387 . S
C813 C815 1.390 . S
C813 H817 0.950 . S
H814 C810 0.950 . S
C815 C813 1.390 . S
C815 C816 1.387 . S
C815 H818 0.950 . S
C816 C815 1.387 . S
C816 C819 1.387 . S
H817 C813 0.950 . S
H818 C815 0.950 . S
C819 C810 1.390 . S
C819 H812 0.950 . S
C819 C816 1.387 . S
C820 C821 1.387 . S
C820 H824 0.950 . S
C820 C829 1.390 . S
C821 C820 1.387 . S
C821 C823 1.387 . S
H822 C829 0.950 . S
C823 C821 1.387 . S
C823 C825 1.390 . S
C823 H827 0.950 . S
H824 C820 0.950 . S
C825 C823 1.390 . S
C825 C826 1.387 . S
C825 H828 0.950 . S
C826 C825 1.387 . S
C826 C829 1.387 . S
H827 C823 0.950 . S
H828 C825 0.950 . S
C829 C820 1.390 . S
C829 H822 0.950 . S
C829 C826 1.387 . S
C830 C831 1.387 . S
C830 H834 0.950 . S
C830 C839 1.390 . S
C831 C830 1.387 . S
C831 C833 1.387 . S
H832 C839 0.950 . S
C833 C831 1.387 . S
C833 C835 1.390 . S
C833 H837 0.950 . S
H834 C830 0.950 . S
C835 C833 1.390 . S
C835 C836 1.387 . S
C835 H838 0.950 . S
C836 C835 1.387 . S
C836 C839 1.387 . S
H837 C833 0.950 . S
H838 C835 0.950 . S
C839 C830 1.390 . S
C839 H832 0.950 . S
C839 C836 1.387 . S
C840 C841 1.387 . S
C840 H844 0.950 . S
C840 C849 1.390 . S
C841 C840 1.387 . S
C841 C843 1.387 . S
H842 C849 0.950 . S
C843 C841 1.387 . S
C843 C845 1.390 . S
C843 H847 0.950 . S
H844 C840 0.950 . S
C845 C843 1.390 . S
C845 C846 1.387 . S
C845 H848 0.950 . S
C846 C845 1.387 . S
C846 C849 1.387 . S
H847 C843 0.950 . S
H848 C845 0.950 . S
C849 C840 1.390 . S
C849 H842 0.950 . S
C849 C846 1.387 . S
C850 C851 1.387 . S
C850 H854 0.950 . S
C850 C859 1.390 . S
C851 C850 1.387 . S
C851 C853 1.387 . S
H852 C859 0.950 . S
C853 C851 1.387 . S
C853 C855 1.390 . S
C853 H857 0.950 1_655 S
H854 C850 0.950 . S
C855 C853 1.390 . S
C855 C856 1.387 . S
C855 H858 0.950 1_655 S
C856 C855 1.387 . S
C856 C859 1.387 . S
H857 C853 0.950 1_455 S
H858 C855 0.950 1_455 S
C859 C850 1.390 . S
C859 H852 0.950 . S
C859 C856 1.387 . S
C860 C861 1.387 . S
C860 H864 0.950 . S
C860 C869 1.390 . S
C861 C860 1.387 . S
C861 C863 1.387 . S
H862 C869 0.950 . S
C863 C861 1.387 . S
C863 C865 1.390 . S
C863 H867 0.950 . S
H864 C860 0.950 . S
C865 C863 1.390 . S
C865 C866 1.387 . S
C865 H868 0.950 . S
C866 C865 1.387 . S
C866 C869 1.387 . S
H867 C863 0.950 . S
H868 C865 0.950 . S
C869 C860 1.390 . S
C869 H862 0.950 . S
C869 C866 1.387 . S
C870 C871 1.387 . S
C870 H874 0.950 . S
C870 C879 1.390 . S
C871 C870 1.387 . S
C871 C873 1.387 . S
H872 C879 0.950 . S
C873 C871 1.387 . S
C873 C875 1.390 . S
C873 H877 0.950 . S
H874 C870 0.950 . S
C875 C873 1.390 . S
C875 C876 1.387 . S
C875 H878 0.950 . S
C876 C875 1.387 . S
C876 C879 1.387 . S
H877 C873 0.950 . S
H878 C875 0.950 . S
C879 C870 1.390 . S
C879 H872 0.950 . S
C879 C876 1.387 . S
C880 C881 1.387 . S
C880 H884 0.950 . S
C880 C889 1.390 . S
C881 C880 1.387 . S
C881 C883 1.387 . S
H882 C889 0.950 . S
C883 C881 1.387 . S
C883 C885 1.390 . S
C883 H887 0.950 . S
H884 C880 0.950 . S
C885 C883 1.390 . S
C885 C886 1.387 . S
C885 H888 0.950 . S
C886 C885 1.387 . S
C886 C889 1.387 . S
H887 C883 0.950 . S
H888 C885 0.950 . S
C889 C880 1.390 . S
C889 H882 0.950 . S
C889 C886 1.387 . S
C890 C891 1.387 . S
C890 H894 0.950 . S
C890 C899 1.390 . S
C891 C890 1.387 . S
C891 C893 1.387 . S
H892 C899 0.950 . S
C893 C891 1.387 . S
C893 C895 1.390 . S
C893 H897 0.950 . S
H894 C890 0.950 . S
C895 C893 1.390 . S
C895 C896 1.387 . S
C895 H898 0.950 . S
C896 C895 1.387 . S
C896 C899 1.387 . S
H897 C893 0.950 . S
H898 C895 0.950 . S
C899 C890 1.390 . S
C899 H892 0.950 . S
C899 C896 1.387 . S
C900 C901 1.387 . S
C900 H904 0.950 . S
C900 C909 1.390 . S
C901 C900 1.387 . S
C901 C903 1.387 . S
H902 C909 0.950 . S
C903 C901 1.387 . S
C903 C905 1.390 . S
C903 H907 0.950 . S
H904 C900 0.950 . S
C905 C903 1.390 . S
C905 C906 1.387 . S
C905 H908 0.950 . S
C906 C905 1.387 . S
C906 C909 1.387 . S
H907 C903 0.950 . S
H908 C905 0.950 . S
C909 C900 1.390 . S
C909 H902 0.950 . S
C909 C906 1.387 . S
C910 C911 1.387 . S
C910 H914 0.950 . S
C910 C919 1.390 . S
C911 C910 1.387 . S
C911 C913 1.387 . S
H912 C919 0.950 . S
C913 C911 1.387 . S
C913 C915 1.390 . S
C913 H917 0.950 . S
H914 C910 0.950 . S
C915 C913 1.390 . S
C915 C916 1.387 . S
C915 H918 0.950 . S
C916 C915 1.387 . S
C916 C919 1.387 . S
H917 C913 0.950 . S
H918 C915 0.950 . S
C919 C910 1.390 . S
C919 H912 0.950 . S
C919 C916 1.387 . S
C920 C921 1.387 . S
C920 H924 0.950 . S
C920 C929 1.390 . S
C921 C920 1.387 . S
C921 C923 1.387 . S
H922 C929 0.950 . S
C923 C921 1.387 . S
C923 C925 1.390 . S
C923 H927 0.950 . S
H924 C920 0.950 . S
C925 C923 1.390 . S
C925 C926 1.387 . S
C925 H928 0.950 . S
C926 C925 1.387 . S
C926 C929 1.387 . S
H927 C923 0.950 . S
H928 C925 0.950 . S
C929 C920 1.390 . S
C929 H922 0.950 . S
C929 C926 1.387 . S
C930 C931 1.387 . S
C930 H934 0.950 . S
C930 C939 1.390 . S
C931 C930 1.387 . S
C931 C933 1.387 . S
H932 C939 0.950 . S
C933 C931 1.387 . S
C933 C935 1.390 . S
C933 H937 0.950 . S
H934 C930 0.950 . S
C935 C933 1.390 . S
C935 C936 1.387 . S
C935 H938 0.950 . S
C936 C935 1.387 . S
C936 C939 1.387 . S
H937 C933 0.950 . S
H938 C935 0.950 . S
C939 C930 1.390 . S
C939 H932 0.950 . S
C939 C936 1.387 . S
C626 C556 1.732 . S
C621 C53 1.749 . S
C631 C115 1.704 1_545 S
C636 C559 1.700 . S
C641 C177 1.676 . S
C646 C590 1.674 . S
C656 C525 1.729 . S
C651 C239 1.747 1_565 S
C666 C560 1.945 . S
C661 C47 1.882 . S
C676 C591 1.898 . S
C671 C109 1.830 . S
C686 C516 1.846 . S
C681 C171 1.765 . S
C696 C547 1.874 . S
C691 C233 1.791 . S
C701 C29 1.523 . S
C706 C577 1.469 . S
C711 C277 1.512 . S
C716 C546 1.463 . S
C721 C153 1.452 . S
C726 C506 1.445 . S
C736 C599 1.470 . S
C731 C339 1.461 . S
C746 C527 1.525 . S
C741 C35 1.537 . S
C751 C283 1.511 . S
C756 C526 1.479 1_655 S
C761 C159 1.509 . S
C766 C619 1.485 . S
C776 C558 1.507 . S
C771 C345 1.515 . S
C781 C419 1.828 . S
C786 C618 1.897 . S
C791 C301 1.699 . S
C796 C497 1.693 . S
C801 C487 1.653 . S
C806 C528 1.648 . S
C811 C363 1.716 . S
C816 C587 1.698 . S
C826 C498 1.797 . S
C821 C425 1.813 . S
C831 C295 1.860 . S
C836 C529 1.931 . S
C841 C481 1.781 . S
C846 C578 1.867 . S
C856 C609 1.881 . S
C851 C357 1.794 . S
C861 C407 1.598 . S
C866 C515 1.591 . S
C871 C91 1.500 . S
C876 C608 1.446 . S
C881 C463 1.459 . S
C886 C568 1.460 . S
C896 C537 1.459 . S
C891 C215 1.457 . S
C906 C589 1.420 . S
C901 C401 1.471 . S
C916 C588 1.490 . S
C911 C97 1.519 . S
C926 C557 1.459 . S
C921 C469 1.488 . S
C936 C496 1.531 . S
C931 C221 1.538 . S
