# Generated by pormake.
# Topology zzz, (3,6)-cn, num edge types: 1
# Building blocks:
#     Node 0, Type 0, BuildingBlock: QEWDON_clean_linker_0, # of connection points: 3
#     Node 1, Type 0, BuildingBlock: QEWDON_clean_linker_0, # of connection points: 3
#     Node 2, Type 0, BuildingBlock: QEWDON_clean_linker_0, # of connection points: 3
#     Node 3, Type 0, BuildingBlock: QEWDON_clean_linker_0, # of connection points: 3
#     Node 4, Type 0, BuildingBlock: QEWDON_clean_linker_0, # of connection points: 3
#     Node 5, Type 0, BuildingBlock: QEWDON_clean_linker_0, # of connection points: 3
#     Node 6, Type 0, BuildingBlock: QEWDON_clean_linker_0, # of connection points: 3
#     Node 7, Type 0, BuildingBlock: QEWDON_clean_linker_0, # of connection points: 3
#     Node 8, Type 1, BuildingBlock: BETDEL_clean_sbu_0, # of connection points: 6
#     Node 9, Type 1, BuildingBlock: BETDEL_clean_sbu_0, # of connection points: 6
#     Node 10, Type 1, BuildingBlock: BETDEL_clean_sbu_0, # of connection points: 6
#     Node 11, Type 1, BuildingBlock: BETDEL_clean_sbu_0, # of connection points: 6
#     Edge 12, Type (0, 1), BuildingBlock: XIVTED_clean_linker_0, # of connection points: 2
#     Edge 13, Type (0, 1), BuildingBlock: XIVTED_clean_linker_0, # of connection points: 2
#     Edge 14, Type (0, 1), BuildingBlock: XIVTED_clean_linker_0, # of connection points: 2
#     Edge 15, Type (0, 1), BuildingBlock: XIVTED_clean_linker_0, # of connection points: 2
#     Edge 16, Type (0, 1), BuildingBlock: XIVTED_clean_linker_0, # of connection points: 2
#     Edge 17, Type (0, 1), BuildingBlock: XIVTED_clean_linker_0, # of connection points: 2
#     Edge 18, Type (0, 1), BuildingBlock: XIVTED_clean_linker_0, # of connection points: 2
#     Edge 19, Type (0, 1), BuildingBlock: XIVTED_clean_linker_0, # of connection points: 2
#     Edge 20, Type (0, 1), BuildingBlock: XIVTED_clean_linker_0, # of connection points: 2
#     Edge 21, Type (0, 1), BuildingBlock: XIVTED_clean_linker_0, # of connection points: 2
#     Edge 22, Type (0, 1), BuildingBlock: XIVTED_clean_linker_0, # of connection points: 2
#     Edge 23, Type (0, 1), BuildingBlock: XIVTED_clean_linker_0, # of connection points: 2
#     Edge 24, Type (0, 1), BuildingBlock: XIVTED_clean_linker_0, # of connection points: 2
#     Edge 25, Type (0, 1), BuildingBlock: XIVTED_clean_linker_0, # of connection points: 2
#     Edge 26, Type (0, 1), BuildingBlock: XIVTED_clean_linker_0, # of connection points: 2
#     Edge 27, Type (0, 1), BuildingBlock: XIVTED_clean_linker_0, # of connection points: 2
#     Edge 28, Type (0, 1), BuildingBlock: XIVTED_clean_linker_0, # of connection points: 2
#     Edge 29, Type (0, 1), BuildingBlock: XIVTED_clean_linker_0, # of connection points: 2
#     Edge 30, Type (0, 1), BuildingBlock: XIVTED_clean_linker_0, # of connection points: 2
#     Edge 31, Type (0, 1), BuildingBlock: XIVTED_clean_linker_0, # of connection points: 2
#     Edge 32, Type (0, 1), BuildingBlock: XIVTED_clean_linker_0, # of connection points: 2
#     Edge 33, Type (0, 1), BuildingBlock: XIVTED_clean_linker_0, # of connection points: 2
#     Edge 34, Type (0, 1), BuildingBlock: XIVTED_clean_linker_0, # of connection points: 2
#     Edge 35, Type (0, 1), BuildingBlock: XIVTED_clean_linker_0, # of connection points: 2
# Relax obj value: 0.092
# Max RMSD: 0.192
# Mean RMSD: 0.071
data_MOF--net-zzz--node1-BETDEL_clean_sbu_0--node2-QEWDON_clean_linker_0--edge1-XIVTED_clean_linker_0
_symmetry_space_group_name_H-M    P1
_symmetry_Int_Tables_number       1
_symmetry_cell_setting            triclinic
loop_
_symmetry_equiv_pos_as_xyz
'x, y, z'
_cell_length_a     53.141501
_cell_length_b     54.301525
_cell_length_c     14.755959
_cell_angle_alpha  91.683141
_cell_angle_beta   88.336744
_cell_angle_gamma 94.700656
loop_
_atom_site_label
_atom_site_type_symbol
_atom_site_fract_x
_atom_site_fract_y
_atom_site_fract_z
_atom_type_partial_charge
H0 H 0.75984 0.52331 0.98233 0.0
C1 C 0.77057 0.51897 0.0402 0.0
C2 C 0.79477 0.51113 0.02493 0.0
C3 C 0.76085 0.52205 0.12976 0.0
H4 H 0.8289 0.50208 0.08463 0.0
C5 C 0.80967 0.50689 0.09807 0.0
C6 C 0.80138 0.51092 0.18727 0.0
C7 C 0.77679 0.51833 0.20343 0.0
C8 C 0.73471 0.5303 0.14518 0.0
H9 H 0.77029 0.521 0.27291 0.0
C10 C 0.71537 0.52412 0.08212 0.0
C11 C 0.69113 0.53282 0.0947 0.0
C12 C 0.72903 0.54511 0.22178 0.0
H13 H 0.74327 0.55098 0.27053 0.0
C14 C 0.70496 0.55328 0.23556 0.0
H15 H 0.71895 0.51232 0.02357 0.0
C16 C 0.68619 0.54729 0.17271 0.0
H17 H 0.66795 0.55456 0.18416 0.0
H18 H 0.70097 0.56475 0.29463 0.0
H19 H 1.00159 0.76436 0.94345 0.0
C20 C 1.00287 0.77412 0.00845 0.0
C21 C 0.01489 0.79811 0.01237 0.0
C22 C 0.99118 0.76353 0.08708 0.0
H23 H 0.02316 0.83058 0.09657 0.0
C24 C 0.0152 0.81149 0.09458 0.0
C25 C 1.00205 0.80234 0.17082 0.0
C26 C 0.99051 0.77817 0.16828 0.0
C27 C 0.97806 0.73808 0.08221 0.0
H28 H 0.98067 0.7712 0.22868 0.0
C29 C 0.98743 0.71938 0.02489 0.0
C30 C 0.97488 0.69548 0.02002 0.0
C31 C 0.95575 0.73236 0.13389 0.0
H32 H 0.94741 0.74626 0.1764 0.0
C33 C 0.94346 0.70867 0.12995 0.0
H34 H 1.0047 0.7232 0.98519 0.0
C35 C 0.95293 0.69034 0.07372 0.0
H36 H 0.94271 0.67224 0.07071 0.0
H37 H 0.92631 0.70458 0.16995 0.0
H38 H 0.76073 0.00955 0.95761 0.0
C39 C 0.74898 1.00868 0.01876 0.0
C40 C 0.72717 0.02168 0.02276 0.0
C41 C 0.75487 0.99384 0.09117 0.0
H42 H 0.69333 0.02839 0.09986 0.0
C43 C 0.71094 0.01957 0.09893 0.0
C44 C 0.71552 1.00425 0.16984 0.0
C45 C 0.73763 0.99164 0.16667 0.0
C46 C 0.77811 0.97969 0.0853 0.0
H47 H 0.74117 0.98026 0.22315 0.0
C48 C 0.79998 0.98824 0.0341 0.0
C49 C 0.82146 0.97449 0.02758 0.0
C50 C 0.77839 0.95702 0.12926 0.0
H51 H 0.76196 0.9491 0.16621 0.0
C52 C 0.79976 0.94369 0.12446 0.0
H53 H 0.80064 1.00569 0.00018 0.0
C54 C 0.82112 0.95232 0.0743 0.0
H55 H 0.83718 0.94124 0.07 0.0
H56 H 0.7996 0.92632 0.15868 0.0
H57 H 0.52244 0.75573 0.9676 0.0
C58 C 0.52342 0.74585 0.02989 0.0
C59 C 0.51053 0.72227 0.03597 0.0
C60 C 0.53884 0.75568 0.10109 0.0
H61 H 0.50494 0.68939 0.11452 0.0
C62 C 0.51336 0.70829 0.11249 0.0
C63 C 0.52979 0.71666 0.18037 0.0
C64 C 0.54178 0.74062 0.17679 0.0
C65 C 0.55376 0.78034 0.09238 0.0
H66 H 0.55394 0.74691 0.23172 0.0
C67 C 0.54538 0.79947 0.03987 0.0
C68 C 0.56027 0.82213 0.02968 0.0
C69 C 0.57726 0.78461 0.1345 0.0
H70 H 0.58524 0.77041 0.17175 0.0
C71 C 0.59141 0.80722 0.12779 0.0
H72 H 0.52756 0.79672 0.00587 0.0
C73 C 0.58302 0.82583 0.07647 0.0
H74 H 0.59454 0.84319 0.07322 0.0
H75 H 0.60924 0.81024 0.1617 0.0
H76 H 0.26999 0.51879 0.14186 0.0
C77 C 0.25801 0.51422 0.08479 0.0
C78 C 0.23188 0.51116 0.1011 0.0
C79 C 0.26817 0.51226 -0.00485 0.0
H80 H 0.19534 0.50564 0.04223 0.0
C81 C 0.21563 0.50702 0.02895 0.0
C82 C 0.22472 0.5065 0.93987 0.0
C83 C 0.25097 0.50827 0.92255 0.0
C84 C 0.29635 0.5157 0.97748 0.0
H85 H 0.25756 0.50695 0.85276 0.0
C86 C 0.31391 0.51159 0.04536 0.0
C87 C 0.34028 0.51592 0.02914 0.0
C88 C 0.30605 0.52395 0.89271 0.0
H89 H 0.29381 0.52848 0.8395 0.0
C90 C 0.33197 0.5271 0.87498 0.0
H91 H 0.30724 0.50539 0.11133 0.0
C92 C 0.34892 0.52303 0.942 0.0
H93 H 0.36891 0.52563 0.92524 0.0
H94 H 0.339 0.5331 0.80896 0.0
H95 H 0.01431 0.25719 0.18189 0.0
C96 C 0.02044 0.24826 0.11936 0.0
C97 C 0.03128 0.22561 0.12308 0.0
C98 C 0.01581 0.25835 0.03486 0.0
H99 H 0.04503 0.1952 0.04512 0.0
C100 C 0.03806 0.21342 0.04244 0.0
C101 C 0.03183 0.22197 0.95862 0.0
C102 C 0.02106 0.24462 0.95437 0.0
C103 C 1.00324 0.28188 0.0313 0.0
H104 H 0.01617 0.25104 0.88885 0.0
C105 C 1.00954 0.30186 0.09223 0.0
C106 C 0.99746 0.32399 0.08884 0.0
C107 C 0.98444 0.28432 0.9677 0.0
H108 H 0.97858 0.2692 0.92158 0.0
C109 C 0.97246 0.30615 0.96411 0.0
H110 H 0.02417 0.30039 0.14097 0.0
C111 C 0.97888 0.32584 0.02397 0.0
H112 H 0.9689 0.34238 0.02052 0.0
H113 H 0.95793 0.30773 0.91517 0.0
H114 H 0.26696 0.99275 0.14368 0.0
C115 C 0.28076 0.99971 0.0933 0.0
C116 C 0.3061 0.99501 0.10261 0.0
C117 C 0.27328 0.01235 0.01734 0.0
H118 H 0.34378 0.99975 0.04496 0.0
C119 C 0.32413 1.00319 0.03714 0.0
C120 C 0.31746 0.016 0.96228 0.0
C121 C 0.2921 0.02077 0.95235 0.0
C122 C 0.24584 0.01536 0.00325 0.0
H123 H 0.28718 0.03087 0.8941 0.0
C124 C 0.22851 0.0181 0.07715 0.0
C125 C 0.20243 0.0194 0.06274 0.0
C126 C 0.23653 0.01426 0.91476 0.0
H127 H 0.24883 0.01144 0.85631 0.0
C128 C 0.21095 0.01592 0.90008 0.0
H129 H 0.23527 0.01947 0.14575 0.0
C130 C 0.19403 0.01833 0.97306 0.0
H131 H 0.17419 0.0187 0.95893 0.0
H132 H 0.2041 0.01483 0.83158 0.0
H133 H 0.52242 0.26232 0.14057 0.0
C134 C 0.51756 0.2737 0.08572 0.0
C135 C 0.5173 0.29923 0.10169 0.0
C136 C 0.51236 0.26329 -0.00164 0.0
H137 H 0.51261 0.33432 0.04429 0.0
C138 C 0.51237 0.31449 0.03127 0.0
C139 C 0.5081 0.30507 0.94398 0.0
C140 C 0.50731 0.27939 0.92767 0.0
C141 C 0.5136 0.23604 0.97994 0.0
H142 H 0.50328 0.27226 0.85994 0.0
C143 C 0.50789 0.2185 0.0485 0.0
C144 C 0.50977 0.193 0.03049 0.0
C145 C 0.52134 0.22736 0.89342 0.0
H146 H 0.52687 0.23998 0.83968 0.0
C147 C 0.52278 0.20218 0.8751 0.0
H148 H 0.50166 0.22445 0.1155 0.0
C149 C 0.51704 0.18513 0.94278 0.0
H150 H 0.51896 0.16575 0.92703 0.0
H151 H 0.52881 0.19588 0.80828 0.0
Dy152 Dy 0.0249 0.99787 0.66323 0.0
C153 C 1.00522 0.06267 0.37255 0.0
C154 C 0.01816 0.96186 0.78706 0.0
Dy155 Dy 1.00861 0.02509 0.48865 0.0
O156 O 0.03822 0.97734 0.78062 0.0
O157 O 1.00129 0.96771 0.73133 0.0
O158 O 0.06653 0.99649 0.62433 0.0
O159 O 0.0419 0.01104 0.53885 0.0
C160 C 0.06451 1.00624 0.54562 0.0
C161 C 0.97111 1.00768 0.60127 0.0
O162 O 1.01056 0.98741 0.42429 0.0
O163 O 1.01258 0.96788 0.56265 0.0
O164 O 0.98832 0.05573 0.43372 0.0
O165 O 0.02322 0.04778 0.37027 0.0
O166 O 0.96886 1.00899 0.51392 0.0
O167 O 0.99261 0.01719 0.62391 0.0
O168 O 0.02559 0.03618 0.72293 0.0
O169 O 0.02624 0.05488 0.58198 0.0
C170 C 1.01041 0.96722 0.4733 0.0
C171 C 0.02835 0.056 0.67155 0.0
Dy172 Dy 0.49546 0.99649 0.51445 0.0
C173 C 0.58542 0.04105 0.67384 0.0
C174 C 0.44782 0.98243 0.4598 0.0
Dy175 Dy 0.5375 0.02722 0.62155 0.0
O176 O 0.46782 0.97149 0.43347 0.0
O177 O 0.45407 1.00108 0.51356 0.0
O178 O 0.52521 0.97692 0.4338 0.0
O179 O 0.53293 0.01325 0.48368 0.0
C180 C 0.54254 0.99508 0.44556 0.0
C181 C 0.49041 0.02854 0.69071 0.0
O182 O 0.5301 0.05538 0.51999 0.0
O183 O 0.49394 0.03492 0.45863 0.0
O184 O 0.56541 0.05103 0.70602 0.0
O185 O 0.57901 0.02352 0.61566 0.0
O186 O 0.5078 0.04662 0.70307 0.0
O187 O 0.50004 0.01042 0.65231 0.0
O188 O 0.50264 0.96859 0.61808 0.0
O189 O 0.53996 0.98852 0.67211 0.0
C190 C 0.51019 0.05486 0.46738 0.0
C191 C 0.52338 0.9688 0.66632 0.0
Dy192 Dy 0.5009 0.52371 0.64805 0.0
C193 C 0.53099 0.46143 0.36488 0.0
C194 C 0.49438 0.56045 0.77454 0.0
Dy195 Dy 0.52458 0.49822 0.49147 0.0
O196 O 0.47614 0.5473 0.73476 0.0
O197 O 0.51575 0.55198 0.75039 0.0
O198 O 0.46243 0.50885 0.60276 0.0
O199 O 0.49094 0.51838 0.50565 0.0
C200 C 0.46849 0.50921 0.51678 0.0
C201 C 0.55743 0.51334 0.62013 0.0
O202 O 0.52822 0.53566 0.42956 0.0
O203 O 0.52 0.55486 0.56786 0.0
O204 O 0.54895 0.4729 0.41138 0.0
O205 O 0.51009 0.47162 0.38238 0.0
O206 O 0.56306 0.51311 0.5338 0.0
O207 O 0.53506 0.50403 0.63363 0.0
O208 O 0.49955 0.4868 0.71149 0.0
O209 O 0.50458 0.46725 0.57187 0.0
C210 C 0.52722 0.55598 0.48137 0.0
C211 C 0.49908 0.46642 0.65987 0.0
Dy212 Dy 0.99867 0.50423 0.64818 0.0
C213 C 0.06685 0.52059 0.35188 0.0
C214 C 0.96049 0.50489 0.77509 0.0
Dy215 Dy 0.02844 0.51963 0.47832 0.0
O216 O 0.96932 0.48502 0.73999 0.0
O217 O 0.9741 0.52416 0.74642 0.0
O218 O 1.0077 0.46482 0.62325 0.0
O219 O 1.0033 0.48767 0.51317 0.0
C220 C 1.00937 0.46676 0.53553 0.0
C221 C 0.01735 0.55696 0.59085 0.0
O222 O 0.99022 0.51683 0.41631 0.0
O223 O 0.96981 0.51825 0.5571 0.0
O224 O 0.05716 0.53998 0.38723 0.0
O225 O 0.05396 0.50081 0.37998 0.0
O226 O 0.0187 0.55883 0.50313 0.0
O227 O 0.02378 0.53619 0.61321 0.0
O228 O 0.03686 0.50599 0.70964 0.0
O229 O 0.05709 0.50489 0.5684 0.0
C230 C 0.96952 0.51919 0.46748 0.0
C231 C 0.05738 0.50343 0.65786 0.0
H232 H 0.15988 0.04528 0.07432 0.0
H233 H 0.11304 0.99486 0.56054 0.0
H234 H 0.2016 0.99658 0.22777 0.0
H235 H 0.06401 0.02673 0.37697 0.0
H236 H 0.14766 1.00007 0.44804 0.0
H237 H 0.12684 0.04353 0.19301 0.0
C238 C 0.16218 0.03421 0.13289 0.0
C239 C 0.18358 0.02078 0.13991 0.0
C240 C 0.12937 1.00606 0.43236 0.0
C241 C 0.14571 0.01906 0.27747 0.0
C242 C 0.10958 1.00314 0.49664 0.0
C243 C 0.08557 0.01048 0.47818 0.0
C244 C 0.12524 0.01656 0.3488 0.0
C245 C 0.0822 0.02101 0.39421 0.0
C246 C 0.14327 0.0333 0.20087 0.0
C247 C 0.18564 1.00737 0.21911 0.0
N248 N 0.1018 0.02376 0.33262 0.0
N249 N 0.16693 1.00677 0.28438 0.0
H250 H 0.48235 0.14802 0.02123 0.0
H251 H 0.53528 0.10099 0.48082 0.0
H252 H 0.52763 0.19531 0.2037 0.0
H253 H 0.47846 0.0587 0.32503 0.0
H254 H 0.53222 0.13586 0.38194 0.0
H255 H 0.47992 0.11547 0.13302 0.0
C256 C 0.49161 0.15163 0.08527 0.0
C257 C 0.50534 0.17441 0.10286 0.0
C258 C 0.52028 0.11903 0.36972 0.0
C259 C 0.50283 0.13703 0.23125 0.0
C260 C 0.52206 0.09902 0.42609 0.0
C261 C 0.50722 0.07671 0.41114 0.0
C262 C 0.50372 0.11676 0.29691 0.0
C263 C 0.49032 0.07545 0.33929 0.0
C264 C 0.49018 0.13303 0.14918 0.0
C265 C 0.51674 0.17811 0.18741 0.0
N266 N 0.48921 0.09508 0.2845 0.0
N267 N 0.51548 0.15953 0.24794 0.0
H268 H 0.38476 0.54445 0.05559 0.0
H269 H 0.41922 0.48962 0.52554 0.0
H270 H 0.33865 0.4836 0.17273 0.0
H271 H 0.4748 0.52504 0.34294 0.0
H272 H 0.3876 0.48988 0.40697 0.0
H273 H 0.41592 0.54069 0.1705 0.0
C274 C 0.38118 0.53005 0.10462 0.0
C275 C 0.35897 0.51403 0.10256 0.0
C276 C 0.40677 0.49741 0.39285 0.0
C277 C 0.39471 0.51025 0.2376 0.0
C278 C 0.42479 0.4973 0.46038 0.0
C279 C 0.44965 0.5074 0.44414 0.0
C280 C 0.41357 0.50812 0.30919 0.0
C281 C 0.45587 0.51708 0.35849 0.0
C282 C 0.39905 0.52806 0.17086 0.0
C283 C 0.35528 0.4965 0.17122 0.0
N284 N 0.43792 0.51744 0.29474 0.0
N285 N 0.37291 0.49512 0.23601 0.0
H286 H 1.00354 0.37331 0.05212 0.0
H287 H 0.01528 0.41843 0.57252 0.0
H288 H 1.00536 0.32299 0.27232 0.0
H289 H 1.00833 0.46724 0.35086 0.0
H290 H 0.01581 0.38346 0.46347 0.0
H291 H 1.00948 0.40804 0.16003 0.0
C292 C 1.00524 0.36955 0.12327 0.0
C293 C 1.00364 0.34514 0.15321 0.0
C294 C 0.01433 0.40184 0.43867 0.0
C295 C 1.01058 0.38501 0.27771 0.0
C296 C 0.01406 0.42179 0.50085 0.0
C297 C 1.01161 0.44572 0.47064 0.0
C298 C 1.01218 0.40588 0.34563 0.0
C299 C 1.01016 0.44908 0.37711 0.0
C300 C 1.00872 0.38943 0.18493 0.0
C301 C 1.00654 0.34147 0.24609 0.0
N302 N 1.01035 0.42939 0.31808 0.0
N303 N 1.00966 0.36118 0.30513 0.0
H304 H 0.87155 0.97641 0.06981 0.0
H305 H 0.92164 0.99714 0.55989 0.0
H306 H 0.82258 0.98973 0.8517 0.0
H307 H 0.9708 1.00703 0.78778 0.0
H308 H 0.88535 0.99098 0.66493 0.0
H309 H 0.90827 0.98489 0.96767 0.0
C310 C 0.86854 0.9813 0.00054 0.0
C311 C 0.84392 0.98235 0.96926 0.0
C312 C 0.90406 0.9945 0.69209 0.0
C313 C 0.88591 0.99173 0.8515 0.0
C314 C 0.92482 0.99788 0.63213 0.0
C315 C 0.94932 1.00257 0.66508 0.0
C316 C 0.90773 0.9955 0.78605 0.0
C317 C 0.95226 1.00338 0.75943 0.0
C318 C 0.88951 0.98616 0.94233 0.0
C319 C 0.84118 0.9889 0.87893 0.0
N320 N 0.93174 0.99978 0.8166 0.0
N321 N 0.86187 0.99308 0.82307 0.0
H322 H 0.51273 0.83777 0.00017 0.0
H323 H 0.56798 0.95702 0.73443 0.0
H324 H 0.59124 0.85175 0.91955 0.0
H325 H 0.48965 0.92981 0.71566 0.0
H326 H 0.57588 0.92048 0.81816 0.0
H327 H 0.50275 0.87265 0.90842 0.0
C328 C 0.52784 0.84795 0.96291 0.0
C329 C 0.55297 0.84194 0.9693 0.0
C330 C 0.55695 0.92243 0.79562 0.0
C331 C 0.54169 0.88212 0.86569 0.0
C332 C 0.55239 0.9434 0.74811 0.0
C333 C 0.52811 0.94655 0.71774 0.0
C334 C 0.53705 0.90448 0.81446 0.0
C335 C 0.50869 0.9281 0.73735 0.0
C336 C 0.52212 0.86794 0.91091 0.0
C337 C 0.5717 0.85601 0.91944 0.0
N338 N 0.51353 0.90793 0.785 0.0
N339 N 0.56573 0.87546 0.87085 0.0
H340 H 0.64016 0.52085 0.12228 0.0
H341 H 0.60772 0.52658 0.59606 0.0
H342 H 0.69648 0.53384 0.90881 0.0
H343 H 0.55154 0.50752 0.80452 0.0
H344 H 0.64021 0.53014 0.71062 0.0
H345 H 0.60744 0.51624 0.00832 0.0
C346 C 0.64569 0.5227 0.05143 0.0
C347 C 0.67121 0.52784 0.0254 0.0
C348 C 0.6208 0.52519 0.73159 0.0
C349 C 0.63365 0.52257 0.89407 0.0
C350 C 0.6022 0.52322 0.66614 0.0
C351 C 0.57686 0.51669 0.69069 0.0
C352 C 0.61412 0.52069 0.8228 0.0
C353 C 0.57084 0.51259 0.7826 0.0
C354 C 0.62695 0.51999 0.98631 0.0
C355 C 0.67716 0.52966 0.93227 0.0
N356 N 0.58932 0.51465 0.84528 0.0
N357 N 0.65855 0.52718 0.87027 0.0
H358 H 0.9903 0.6994 0.84156 0.0
H359 H 0.01644 0.55653 0.77622 0.0
H360 H 0.98001 0.64696 0.0561 0.0
H361 H 1.00745 0.60411 0.55247 0.0
H362 H 1.00789 0.59065 0.88194 0.0
H363 H 1.00202 0.66603 0.73698 0.0
C364 C 0.9908 0.68093 0.86688 0.0
C365 C 0.98407 0.67593 0.95759 0.0
C366 C 1.00777 0.59363 0.80972 0.0
C367 C 0.9973 0.63765 0.83832 0.0
C368 C 1.0126 0.57415 0.74938 0.0
C369 C 1.01242 0.57746 0.6555 0.0
C370 C 1.00303 0.6167 0.77598 0.0
C371 C 1.00765 0.60076 0.6244 0.0
C372 C 0.99728 0.66186 0.80704 0.0
C373 C 0.98479 0.65158 0.9865 0.0
N374 N 1.00318 0.61951 0.68446 0.0
N375 N 0.99126 0.63338 0.92715 0.0
H376 H 0.0693 0.20429 0.20369 0.0
H377 H 0.97015 0.09658 0.37918 0.0
H378 H 0.98908 0.21096 0.2212 0.0
H379 H 0.04722 0.08672 0.29572 0.0
H380 H 0.97758 0.14076 0.34942 0.0
H381 H 0.06285 0.16458 0.27832 0.0
C382 C 0.05047 0.19795 0.22756 0.0
C383 C 0.02965 0.21066 0.20526 0.0
C384 C 0.99282 0.1289 0.33731 0.0
C385 C 0.02198 0.16497 0.28679 0.0
C386 C 0.9885 0.10367 0.35307 0.0
C387 C 1.00801 0.08799 0.33861 0.0
C388 C 0.01691 0.1385 0.30786 0.0
C389 C 0.03156 0.09813 0.30637 0.0
C390 C 0.04671 0.17505 0.26821 0.0
C391 C 1.00561 0.20165 0.23696 0.0
N392 N 0.03538 0.12279 0.29239 0.0
N393 N 1.00231 0.17897 0.2741 0.0
H394 H 0.30531 0.0111 0.27898 0.0
H395 H 0.43131 0.94691 0.33458 0.0
H396 H 0.32913 0.95219 0.10328 0.0
H397 H 0.40539 1.00345 0.51756 0.0
H398 H 0.38901 0.94113 0.2716 0.0
H399 H 0.33528 1.00041 0.39146 0.0
C400 C 0.31606 0.99519 0.26603 0.0
C401 C 0.31513 0.98269 0.18175 0.0
C402 C 0.39244 0.95452 0.32661 0.0
C403 C 0.35009 0.97099 0.30748 0.0
C404 C 0.41659 0.95784 0.36224 0.0
C405 C 0.42189 0.97608 0.42954 0.0
C406 C 0.37364 0.96973 0.35814 0.0
C407 C 0.40216 0.98954 0.46414 0.0
C408 C 0.33343 0.98926 0.32958 0.0
C409 C 0.32958 0.96238 0.1675 0.0
N410 N 0.37901 0.98639 0.42703 0.0
N411 N 0.34697 0.95754 0.22873 0.0
H412 H 0.484 0.3113 0.23406 0.0
H413 H 0.57212 0.43436 0.33975 0.0
H414 H 0.56302 0.31847 0.15847 0.0
H415 H 0.49106 0.42971 0.31829 0.0
H416 H 0.57123 0.38953 0.3087 0.0
H417 H 0.48912 0.35113 0.31555 0.0
C418 C 0.50277 0.32057 0.23947 0.0
C419 C 0.52308 0.31181 0.18905 0.0
C420 C 0.5537 0.39843 0.31077 0.0
C421 C 0.52885 0.3578 0.27752 0.0
C422 C 0.55422 0.42397 0.3271 0.0
C423 C 0.53166 0.43576 0.33025 0.0
C424 C 0.53041 0.38465 0.2993 0.0
C425 C 0.50893 0.42143 0.31522 0.0
C426 C 0.50557 0.34362 0.28381 0.0
C427 C 0.54694 0.32472 0.19674 0.0
N428 N 0.50888 0.39664 0.30089 0.0
N429 N 0.54908 0.34752 0.23773 0.0
H430 H 0.21347 0.47557 0.21532 0.0
H431 H 0.10053 0.5605 0.32214 0.0
H432 H 0.21994 0.55426 0.18101 0.0
H433 H 0.09369 0.48075 0.31611 0.0
H434 H 0.1463 0.55985 0.2981 0.0
H435 H 0.17298 0.47887 0.29527 0.0
C436 C 0.20706 0.49375 0.22968 0.0
C437 C 0.21973 0.51464 0.19064 0.0
C438 C 0.13475 0.54251 0.30191 0.0
C439 C 0.17297 0.51846 0.27679 0.0
C440 C 0.10863 0.54287 0.3141 0.0
C441 C 0.09332 0.52065 0.31975 0.0
C442 C 0.14559 0.51975 0.29588 0.0
C443 C 0.10478 0.49832 0.31085 0.0
C444 C 0.1836 0.49558 0.27303 0.0
C445 C 0.21055 0.53774 0.20995 0.0
N446 N 0.13022 0.49844 0.2995 0.0
N447 N 0.18722 0.53899 0.24906 0.0
H448 H 0.06024 0.8221 0.96393 0.0
H449 H 0.97922 0.92637 0.78719 0.0
H450 H 0.98295 0.80927 0.88334 0.0
H451 H 0.05778 0.93937 0.85387 0.0
H452 H 0.9817 0.8823 0.80782 0.0
H453 H 0.06254 0.86272 0.89574 0.0
C454 C 0.04421 0.82729 0.92716 0.0
C455 C 0.02119 0.81264 0.93083 0.0
C456 C 0.99842 0.89473 0.81831 0.0
C457 C 0.02324 0.85931 0.85684 0.0
C458 C 0.99689 0.91997 0.80804 0.0
C459 C 0.01826 0.93654 0.81988 0.0
C460 C 0.02148 0.88595 0.84103 0.0
C461 C 0.04077 0.92722 0.84543 0.0
C462 C 0.04531 0.85074 0.89025 0.0
C463 C 1.00095 0.82017 0.88274 0.0
N464 N 0.04181 0.90249 0.85516 0.0
N465 N 1.00215 0.84338 0.85025 0.0
H466 H 0.72416 1.00391 0.84801 0.0
H467 H 0.60278 0.07375 0.80763 0.0
H468 H 0.70867 0.06717 0.0177 0.0
H469 H 0.62743 0.02147 0.60491 0.0
H470 H 0.64544 0.07768 0.86811 0.0
H471 H 0.69477 0.01657 0.73785 0.0
C472 C 0.71536 0.02104 0.86037 0.0
C473 C 0.71827 0.03415 0.94312 0.0
C474 C 0.64167 0.06572 0.80923 0.0
C475 C 0.68382 0.04819 0.81947 0.0
C476 C 0.6173 0.06343 0.77508 0.0
C477 C 0.61154 0.04683 0.70288 0.0
C478 C 0.66016 0.05104 0.77136 0.0
C479 C 0.63102 0.03409 0.66214 0.0
C480 C 0.69829 0.02815 0.7979 0.0
C481 C 0.70637 0.05621 0.95554 0.0
N482 N 0.65434 0.03612 0.69796 0.0
N483 N 0.68904 0.06215 0.89578 0.0
H484 H 0.53442 0.71262 0.87624 0.0
H485 H 0.45174 0.58406 0.82084 0.0
H486 H 0.46312 0.69892 0.01971 0.0
H487 H 0.53301 0.59533 0.79935 0.0
H488 H 0.45003 0.62871 0.8541 0.0
H489 H 0.52655 0.67336 0.79315 0.0
C490 C 0.51643 0.70202 0.88654 0.0
C491 C 0.49967 0.70863 0.95636 0.0
C492 C 0.46814 0.62125 0.8418 0.0
C493 C 0.49104 0.66342 0.86472 0.0
C494 C 0.46917 0.59585 0.82424 0.0
C495 C 0.49257 0.586 0.80884 0.0
C496 C 0.49064 0.63676 0.84135 0.0
C497 C 0.51458 0.60206 0.81215 0.0
C498 C 0.5122 0.67934 0.84062 0.0
C499 C 0.47666 0.69415 0.96712 0.0
N500 N 0.51305 0.62662 0.82746 0.0
N501 N 0.47332 0.67171 0.92396 0.0
H502 H 0.8051 0.47063 0.92301 0.0
H503 H 0.9361 0.54601 0.81657 0.0
H504 H 0.81579 0.55005 0.93199 0.0
H505 H 0.9247 0.46644 0.79932 0.0
H506 H 0.89065 0.5481 0.83962 0.0
H507 H 0.84592 0.46899 0.84376 0.0
C508 C 0.81539 0.48777 0.90316 0.0
C509 C 0.80742 0.51049 0.93516 0.0
C510 C 0.89804 0.53016 0.83095 0.0
C511 C 0.85456 0.50884 0.84969 0.0
C512 C 0.92404 0.52895 0.81937 0.0
C513 C 0.93416 0.506 0.80733 0.0
C514 C 0.88204 0.50825 0.83085 0.0
C515 C 0.91767 0.4845 0.80972 0.0
C516 C 0.83902 0.48685 0.86013 0.0
C517 C 0.82147 0.53217 0.90881 0.0
N518 N 0.8924 0.48614 0.82134 0.0
N519 N 0.84485 0.53084 0.87033 0.0
H520 H 0.07116 0.20688 0.85298 0.0
H521 H 1.00559 0.0731 0.82639 0.0
H522 H 0.99113 0.1933 0.90456 0.0
H523 H 0.05747 0.09582 0.60875 0.0
H524 H 1.00568 0.11649 0.87918 0.0
H525 H 0.07136 0.16602 0.77591 0.0
C526 C 0.05348 0.19575 0.84423 0.0
C527 C 0.03098 0.20358 0.883 0.0
C528 C 0.01718 0.11185 0.82027 0.0
C529 C 0.03141 0.15654 0.80188 0.0
C530 C 0.01743 0.08715 0.79113 0.0
C531 C 0.03167 0.08097 0.71365 0.0
C532 C 0.03171 0.1303 0.7728 0.0
C533 C 0.04631 0.09992 0.66907 0.0
C534 C 0.05367 0.17237 0.80184 0.0
C535 C 1.00871 0.1881 0.87349 0.0
N536 N 0.04614 0.12378 0.69966 0.0
N537 N 1.00957 0.16504 0.83589 0.0
H538 H 0.34824 0.05873 0.95798 0.0
H539 H 0.45478 0.98949 0.6899 0.0
H540 H 0.33458 0.98775 0.82311 0.0
H541 H 0.4649 0.06715 0.76139 0.0
H542 H 0.41031 0.9893 0.73589 0.0
H543 H 0.38991 0.06381 0.88086 0.0
C544 C 0.35364 0.04471 0.90912 0.0
C545 C 0.33783 0.02303 0.89518 0.0
C546 C 0.42212 1.00647 0.74104 0.0
C547 C 0.38582 0.02805 0.81047 0.0
C548 C 0.44758 1.00658 0.71483 0.0
C549 C 0.46353 0.02843 0.72087 0.0
C550 C 0.41249 0.02828 0.77576 0.0
C551 C 0.45323 0.04991 0.75539 0.0
C552 C 0.37754 0.04743 0.8661 0.0
C553 C 0.34604 1.00495 0.83404 0.0
N554 N 0.42839 0.04927 0.78208 0.0
N555 N 0.36956 1.0077 0.79495 0.0
H556 H 0.46728 0.31415 0.84205 0.0
H557 H 0.51358 0.45355 0.82666 0.0
H558 H 0.54485 0.33915 0.89155 0.0
H559 H 0.47843 0.42311 0.58368 0.0
H560 H 0.51513 0.41143 0.88127 0.0
H561 H 0.46235 0.35343 0.76597 0.0
C562 C 0.48346 0.32746 0.8338 0.0
C563 C 0.50655 0.32343 0.87239 0.0
C564 C 0.50675 0.41411 0.8166 0.0
C565 C 0.50065 0.36841 0.7914 0.0
C566 C 0.5056 0.43807 0.78595 0.0
C567 C 0.49585 0.44177 0.70069 0.0
C568 C 0.49752 0.39379 0.76269 0.0
C569 C 0.48613 0.42096 0.64987 0.0
C570 C 0.48055 0.3499 0.79178 0.0
C571 C 0.52679 0.34154 0.86215 0.0
N572 N 0.48712 0.39777 0.68173 0.0
N573 N 0.52321 0.36346 0.82477 0.0
H574 H 0.19926 0.54545 0.90048 0.0
H575 H 0.09511 0.47631 0.5917 0.0
H576 H 0.20483 0.4686 0.8288 0.0
H577 H 0.07658 0.52599 0.81237 0.0
H578 H 0.13842 0.47695 0.64673 0.0
H579 H 0.15799 0.54352 0.8298 0.0
C580 C 0.19223 0.52844 0.8662 0.0
C581 C 0.20562 0.50725 0.86907 0.0
C582 C 0.12477 0.48749 0.68336 0.0
C583 C 0.15817 0.50477 0.79031 0.0
C584 C 0.10009 0.48709 0.65244 0.0
C585 C 0.08219 0.50094 0.69827 0.0
C586 C 0.1318 0.50251 0.75873 0.0
C587 C 0.08968 0.51479 0.77592 0.0
C588 C 0.16851 0.52724 0.82761 0.0
C589 C 0.19533 0.48544 0.82626 0.0
N590 N 0.11403 0.51553 0.80295 0.0
N591 N 0.17208 0.4847 0.78868 0.0
H592 H 0.0308 0.81572 0.31708 0.0
H593 H 0.98607 0.95141 0.31625 0.0
H594 H 0.96424 0.8325 0.17934 0.0
H595 H 0.02878 0.92587 0.53429 0.0
H596 H 0.98005 0.90848 0.25688 0.0
H597 H 0.03138 0.85609 0.39672 0.0
C598 C 0.01566 0.82747 0.30697 0.0
C599 C 0.99709 0.82064 0.24359 0.0
C600 C 0.99065 0.91239 0.31793 0.0
C601 C 0.99854 0.86734 0.32899 0.0
C602 C 0.99432 0.93687 0.35103 0.0
C603 C 1.0079 0.9422 0.43019 0.0
C604 C 1.00105 0.89334 0.36356 0.0
C605 C 0.01803 0.9226 0.47325 0.0
C606 C 0.01621 0.85067 0.35098 0.0
C607 C 0.97848 0.83696 0.22961 0.0
N608 N 0.01453 0.89914 0.43918 0.0
N609 N 0.97994 0.85977 0.27052 0.0
H610 H 0.68803 0.96089 0.21 0.0
H611 H 0.57709 0.03482 0.43576 0.0
H612 H 0.69523 0.03853 0.28205 0.0
H613 H 0.56918 0.95598 0.38605 0.0
H614 H 0.62157 0.03542 0.39018 0.0
H615 H 0.64649 0.95717 0.28859 0.0
C616 C 0.68127 0.97693 0.24535 0.0
C617 C 0.6951 1.00003 0.24 0.0
C618 C 0.61025 0.0179 0.38947 0.0
C619 C 0.64733 0.99616 0.32705 0.0
C620 C 0.58478 0.01757 0.41547 0.0
C621 C 0.56943 0.99529 0.41532 0.0
C622 C 0.62059 0.99582 0.3614 0.0
C623 C 0.58037 0.97356 0.38716 0.0
C624 C 0.65741 0.9749 0.28904 0.0
C625 C 0.68521 0.02037 0.28501 0.0
N626 N 0.60527 0.97437 0.36097 0.0
N627 N 0.66187 0.01803 0.3255 0.0
H628 H 0.56426 0.68365 0.1458 0.0
H629 H 0.51898 0.60011 0.5656 0.0
H630 H 0.51028 0.70547 0.34967 0.0
H631 H 0.54665 0.5695 0.31179 0.0
H632 H 0.52444 0.64119 0.50327 0.0
H633 H 0.56729 0.64479 0.22403 0.0
C634 C 0.55382 0.68061 0.20922 0.0
C635 C 0.53738 0.69791 0.2426 0.0
C636 C 0.52947 0.62554 0.46136 0.0
C637 C 0.54016 0.65331 0.33074 0.0
C638 C 0.52642 0.60194 0.49678 0.0
C639 C 0.53221 0.58108 0.44362 0.0
C640 C 0.53868 0.62859 0.37223 0.0
C641 C 0.5418 0.58494 0.35507 0.0
C642 C 0.55524 0.65831 0.25287 0.0
C643 C 0.52357 0.69283 0.32308 0.0
N644 N 0.54472 0.60825 0.32207 0.0
N645 N 0.52518 0.67091 0.36432 0.0
H646 H 0.81728 0.54684 0.31279 0.0
H647 H 0.95257 0.49703 0.3089 0.0
H648 H 0.83052 0.47312 0.21733 0.0
H649 H 0.92915 0.54243 0.53566 0.0
H650 H 0.90892 0.49352 0.2563 0.0
H651 H 0.85845 0.54973 0.38679 0.0
C652 C 0.82837 0.53095 0.31032 0.0
C653 C 0.82049 0.50974 0.2586 0.0
C654 C 0.91344 0.50438 0.31728 0.0
C655 C 0.86796 0.51345 0.33824 0.0
C656 C 0.93838 0.50667 0.34648 0.0
C657 C 0.94449 0.52012 0.42642 0.0
C658 C 0.89461 0.51605 0.36726 0.0
C659 C 0.9252 0.5319 0.47352 0.0
C660 C 0.85201 0.53276 0.35118 0.0
C661 C 0.83592 0.48986 0.25619 0.0
N662 N 0.90115 0.52973 0.44301 0.0
N663 N 0.85913 0.49242 0.29322 0.0
loop_
_geom_bond_atom_site_label_1
_geom_bond_atom_site_label_2
_geom_bond_distance
_geom_bond_site_symmetry_2
_ccdc_geom_bond_type
H0 C1 0.949 1_556 S
C1 H0 0.949 1_554 S
C1 C2 1.395 . S
C1 C3 1.391 . S
C2 C1 1.395 . S
C2 C5 1.390 . S
C3 C1 1.391 . S
C3 C7 1.387 . S
C3 C8 1.491 . S
H4 C5 0.950 . S
C5 C2 1.390 . S
C5 H4 0.950 . S
C5 C6 1.378 . S
C6 C5 1.378 . S
C6 C7 1.409 . S
C7 C3 1.387 . S
C7 C6 1.409 . S
C7 H9 0.951 . S
C8 C3 1.491 . S
C8 C10 1.382 . S
C8 C12 1.404 . S
H9 C7 0.951 . S
C10 C8 1.382 . S
C10 C11 1.390 . S
C10 H15 0.949 1_554 S
C11 C10 1.390 . S
C11 C16 1.399 . S
C12 C8 1.404 . S
C12 H13 0.950 . S
C12 C14 1.375 . S
H13 C12 0.950 . S
C14 C12 1.375 . S
C14 C16 1.382 . S
C14 H18 0.950 . S
H15 C10 0.949 1_556 S
C16 C11 1.399 . S
C16 C14 1.382 . S
C16 H17 0.952 . S
H17 C16 0.952 . S
H18 C14 0.950 . S
H19 C20 0.949 . S
C20 H19 0.949 . S
C20 C21 1.395 . S
C20 C22 1.391 1_556 S
C21 C20 1.395 . S
C21 C24 1.390 1_656 S
C22 C20 1.391 1_554 S
C22 C26 1.387 . S
C22 C27 1.491 . S
H23 C24 0.950 . S
C24 C21 1.390 1_454 S
C24 H23 0.950 . S
C24 C25 1.378 1_455 S
C25 C24 1.378 1_655 S
C25 C26 1.409 . S
C26 C22 1.387 . S
C26 C25 1.409 . S
C26 H28 0.951 . S
C27 C22 1.491 . S
C27 C29 1.382 1_554 S
C27 C31 1.404 . S
H28 C26 0.951 . S
C29 C27 1.382 1_556 S
C29 C30 1.390 . S
C29 H34 0.949 1_655 S
C30 C29 1.390 . S
C30 C35 1.399 1_556 S
C31 C27 1.404 . S
C31 H32 0.950 . S
C31 C33 1.375 . S
H32 C31 0.950 . S
C33 C31 1.375 . S
C33 C35 1.382 . S
C33 H37 0.950 . S
H34 C29 0.949 1_455 S
C35 C30 1.399 1_554 S
C35 C33 1.382 . S
C35 H36 0.952 . S
H36 C35 0.952 . S
H37 C33 0.950 . S
H38 C39 0.949 . S
C39 H38 0.949 . S
C39 C40 1.395 . S
C39 C41 1.391 1_556 S
C40 C39 1.395 . S
C40 C43 1.390 1_556 S
C41 C39 1.391 1_554 S
C41 C45 1.387 . S
C41 C46 1.491 . S
H42 C43 0.950 . S
C43 C40 1.390 1_554 S
C43 H42 0.950 . S
C43 C44 1.378 . S
C44 C43 1.378 . S
C44 C45 1.409 . S
C45 C41 1.387 . S
C45 C44 1.409 . S
C45 H47 0.951 . S
C46 C41 1.491 . S
C46 C48 1.382 1_554 S
C46 C50 1.404 . S
H47 C45 0.951 . S
C48 C46 1.382 1_556 S
C48 C49 1.390 . S
C48 H53 0.949 . S
C49 C48 1.390 . S
C49 C54 1.399 1_556 S
C50 C46 1.404 . S
C50 H51 0.950 . S
C50 C52 1.375 . S
H51 C50 0.950 . S
C52 C50 1.375 . S
C52 C54 1.382 . S
C52 H56 0.950 . S
H53 C48 0.949 . S
C54 C49 1.399 1_554 S
C54 C52 1.382 . S
C54 H55 0.952 . S
H55 C54 0.952 . S
H56 C52 0.950 . S
H57 C58 0.949 1_556 S
C58 H57 0.949 1_554 S
C58 C59 1.395 . S
C58 C60 1.391 . S
C59 C58 1.395 . S
C59 C62 1.390 . S
C60 C58 1.391 . S
C60 C64 1.387 . S
C60 C65 1.491 . S
H61 C62 0.950 . S
C62 C59 1.390 . S
C62 H61 0.950 . S
C62 C63 1.378 . S
C63 C62 1.378 . S
C63 C64 1.409 . S
C64 C60 1.387 . S
C64 C63 1.409 . S
C64 H66 0.951 . S
C65 C60 1.491 . S
C65 C67 1.382 . S
C65 C69 1.404 . S
H66 C64 0.951 . S
C67 C65 1.382 . S
C67 C68 1.390 . S
C67 H72 0.949 . S
C68 C67 1.390 . S
C68 C73 1.399 . S
C69 C65 1.404 . S
C69 H70 0.950 . S
C69 C71 1.375 . S
H70 C69 0.950 . S
C71 C69 1.375 . S
C71 C73 1.382 . S
C71 H75 0.950 . S
H72 C67 0.949 . S
C73 C68 1.399 . S
C73 C71 1.382 . S
C73 H74 0.952 . S
H74 C73 0.952 . S
H75 C71 0.950 . S
H76 C77 0.949 . S
C77 H76 0.949 . S
C77 C78 1.395 . S
C77 C79 1.391 . S
C78 C77 1.395 . S
C78 C81 1.390 . S
C79 C77 1.391 . S
C79 C83 1.387 1_554 S
C79 C84 1.491 . S
H80 C81 0.950 . S
C81 C78 1.390 . S
C81 H80 0.950 . S
C81 C82 1.378 1_554 S
C82 C81 1.378 1_556 S
C82 C83 1.409 . S
C83 C79 1.387 1_556 S
C83 C82 1.409 . S
C83 H85 0.951 . S
C84 C79 1.491 . S
C84 C86 1.382 . S
C84 C88 1.404 . S
H85 C83 0.951 . S
C86 C84 1.382 . S
C86 C87 1.390 . S
C86 H91 0.949 . S
C87 C86 1.390 . S
C87 C92 1.399 . S
C88 C84 1.404 . S
C88 H89 0.950 1_554 S
C88 C90 1.375 . S
H89 C88 0.950 1_556 S
C90 C88 1.375 . S
C90 C92 1.382 . S
C90 H94 0.950 1_554 S
H91 C86 0.949 . S
C92 C87 1.399 . S
C92 C90 1.382 . S
C92 H93 0.952 . S
H93 C92 0.952 . S
H94 C90 0.950 1_556 S
H95 C96 0.952 . S
C96 H95 0.952 . S
C96 C97 1.395 . S
C96 C98 1.391 1_455 S
C97 C96 1.395 . S
C97 C100 1.390 . S
C98 C96 1.391 1_655 S
C98 C102 1.384 1_654 S
C98 C103 1.491 . S
H99 C100 0.950 . S
C100 C97 1.390 . S
C100 H99 0.950 . S
C100 C101 1.378 1_554 S
C101 C100 1.378 1_556 S
C101 C102 1.420 . S
C102 C98 1.384 1_456 S
C102 C101 1.420 . S
C102 H104 0.943 1_455 S
C103 C98 1.491 . S
C103 C105 1.382 1_655 S
C103 C107 1.404 . S
H104 C102 0.943 1_655 S
C105 C103 1.382 1_455 S
C105 C106 1.390 1_455 S
C105 H110 0.949 . S
C106 C105 1.390 1_655 S
C106 C111 1.399 . S
C107 C103 1.404 . S
C107 H108 0.950 1_554 S
C107 C109 1.375 . S
H108 C107 0.950 1_556 S
C109 C107 1.375 . S
C109 C111 1.382 . S
C109 H113 0.950 1_554 S
H110 C105 0.949 . S
C111 C106 1.399 . S
C111 C109 1.382 . S
C111 H112 0.952 . S
H112 C111 0.952 . S
H113 C109 0.950 1_556 S
H114 C115 0.949 . S
C115 H114 0.949 . S
C115 C116 1.395 . S
C115 C117 1.391 . S
C116 C115 1.395 . S
C116 C119 1.390 . S
C117 C115 1.391 . S
C117 C121 1.387 . S
C117 C122 1.491 . S
H118 C119 0.950 . S
C119 C116 1.390 . S
C119 H118 0.950 . S
C119 C120 1.378 . S
C120 C119 1.378 . S
C120 C121 1.409 . S
C121 C117 1.387 . S
C121 C120 1.409 . S
C121 H123 0.951 1_554 S
C122 C117 1.491 . S
C122 C124 1.382 . S
C122 C126 1.404 . S
H123 C121 0.951 1_556 S
C124 C122 1.382 . S
C124 C125 1.390 . S
C124 H129 0.949 . S
C125 C124 1.390 . S
C125 C130 1.399 . S
C126 C122 1.404 . S
C126 H127 0.950 1_554 S
C126 C128 1.375 . S
H127 C126 0.950 1_556 S
C128 C126 1.375 . S
C128 C130 1.382 . S
C128 H132 0.950 1_545 S
H129 C124 0.949 . S
C130 C125 1.399 . S
C130 C128 1.382 . S
C130 H131 0.952 . S
H131 C130 0.952 . S
H132 C128 0.950 1_565 S
H133 C134 0.949 . S
C134 H133 0.949 . S
C134 C135 1.395 . S
C134 C136 1.391 . S
C135 C134 1.395 . S
C135 C138 1.390 . S
C136 C134 1.391 . S
C136 C140 1.387 1_554 S
C136 C141 1.491 . S
H137 C138 0.950 . S
C138 C135 1.390 . S
C138 H137 0.950 . S
C138 C139 1.378 1_554 S
C139 C138 1.378 1_556 S
C139 C140 1.409 . S
C140 C136 1.387 1_556 S
C140 C139 1.409 . S
C140 H142 0.951 . S
C141 C136 1.491 . S
C141 C143 1.382 . S
C141 C145 1.404 1_554 S
H142 C140 0.951 . S
C143 C141 1.382 . S
C143 C144 1.390 . S
C143 H148 0.949 . S
C144 C143 1.390 . S
C144 C149 1.399 . S
C145 C141 1.404 1_556 S
C145 H146 0.950 . S
C145 C147 1.375 . S
H146 C145 0.950 . S
C147 C145 1.375 . S
C147 C149 1.382 1_556 S
C147 H151 0.950 . S
H148 C143 0.949 . S
C149 C144 1.399 . S
C149 C147 1.382 1_554 S
C149 H150 0.952 . S
H150 C149 0.952 . S
H151 C147 0.950 . S
Dy152 O156 2.398 . S
Dy152 O157 2.491 1_455 S
Dy152 O158 2.403 . S
Dy152 O159 2.664 1_565 S
Dy152 O163 2.326 . S
Dy152 O167 2.310 1_455 S
Dy152 O168 2.351 1_565 S
C153 O164 1.185 . S
C153 O165 1.355 1_655 S
C154 O156 1.185 . S
C154 O157 1.355 1_455 S
Dy155 O159 2.310 1_655 S
Dy155 O162 2.351 1_545 S
Dy155 O164 2.398 . S
Dy155 O165 2.491 1_655 S
Dy155 O166 2.403 . S
Dy155 O167 2.664 1_545 S
Dy155 O169 2.326 . S
O156 Dy152 2.398 . S
O156 C154 1.185 . S
O157 Dy152 2.491 1_655 S
O157 C154 1.355 1_655 S
O158 Dy152 2.403 . S
O158 C160 1.254 1_565 S
O159 Dy152 2.664 1_545 S
O159 Dy155 2.310 1_455 S
O159 C160 1.268 . S
C160 O158 1.254 1_545 S
C160 O159 1.268 . S
C161 O166 1.254 1_565 S
C161 O167 1.268 . S
O162 Dy155 2.351 1_565 S
O162 C170 1.249 . S
O163 Dy152 2.326 . S
O163 C170 1.267 1_455 S
O164 C153 1.185 . S
O164 Dy155 2.398 . S
O165 C153 1.355 1_455 S
O165 Dy155 2.491 1_455 S
O166 Dy155 2.403 . S
O166 C161 1.254 1_545 S
O167 Dy152 2.310 1_655 S
O167 Dy155 2.664 1_565 S
O167 C161 1.268 . S
O168 Dy152 2.351 1_545 S
O168 C171 1.249 . S
O169 Dy155 2.326 . S
O169 C171 1.267 1_655 S
C170 O162 1.249 . S
C170 O163 1.267 1_655 S
C171 O168 1.249 . S
C171 O169 1.267 1_455 S
Dy172 O176 2.398 . S
Dy172 O177 2.491 1_565 S
Dy172 O178 2.403 . S
Dy172 O179 2.664 . S
Dy172 O183 2.326 1_565 S
Dy172 O187 2.310 1_565 S
Dy172 O188 2.351 . S
C173 O184 1.183 1_565 S
C173 O185 1.356 . S
C174 O176 1.185 1_545 S
C174 O177 1.355 . S
Dy175 O179 2.310 1_545 S
Dy175 O182 2.351 . S
Dy175 O184 2.398 . S
Dy175 O185 2.491 1_545 S
Dy175 O186 2.403 . S
Dy175 O187 2.664 . S
Dy175 O189 2.326 1_545 S
O176 Dy172 2.398 . S
O176 C174 1.185 1_565 S
O177 Dy172 2.491 1_545 S
O177 C174 1.355 . S
O178 Dy172 2.403 . S
O178 C180 1.254 . S
O179 Dy172 2.664 . S
O179 Dy175 2.310 1_565 S
O179 C180 1.268 . S
C180 O178 1.254 . S
C180 O179 1.268 . S
C181 O186 1.254 . S
C181 O187 1.268 . S
O182 Dy175 2.351 . S
O182 C190 1.249 . S
O183 Dy172 2.326 1_545 S
O183 C190 1.267 . S
O184 C173 1.183 1_545 S
O184 Dy175 2.398 . S
O185 C173 1.356 . S
O185 Dy175 2.491 1_565 S
O186 Dy175 2.403 . S
O186 C181 1.254 . S
O187 Dy172 2.310 1_545 S
O187 Dy175 2.664 . S
O187 C181 1.268 . S
O188 Dy172 2.351 . S
O188 C191 1.249 . S
O189 Dy175 2.326 1_565 S
O189 C191 1.267 . S
C190 O182 1.249 . S
C190 O183 1.267 . S
C191 O188 1.249 . S
C191 O189 1.267 . S
Dy192 O196 2.398 . S
Dy192 O197 2.491 . S
Dy192 O198 2.403 . S
Dy192 O199 2.664 . S
Dy192 O203 2.326 . S
Dy192 O207 2.310 . S
Dy192 O208 2.351 . S
C193 O204 1.185 . S
C193 O205 1.355 . S
C194 O196 1.185 . S
C194 O197 1.355 . S
Dy195 O199 2.310 . S
Dy195 O202 2.351 . S
Dy195 O204 2.398 . S
Dy195 O205 2.491 . S
Dy195 O206 2.403 . S
Dy195 O207 2.664 . S
Dy195 O209 2.326 . S
O196 Dy192 2.398 . S
O196 C194 1.185 . S
O197 Dy192 2.491 . S
O197 C194 1.355 . S
O198 Dy192 2.403 . S
O198 C200 1.254 . S
O199 Dy192 2.664 . S
O199 Dy195 2.310 . S
O199 C200 1.268 . S
C200 O198 1.254 . S
C200 O199 1.268 . S
C201 O206 1.254 . S
C201 O207 1.268 . S
O202 Dy195 2.351 . S
O202 C210 1.249 . S
O203 Dy192 2.326 . S
O203 C210 1.267 . S
O204 C193 1.185 . S
O204 Dy195 2.398 . S
O205 C193 1.355 . S
O205 Dy195 2.491 . S
O206 Dy195 2.403 . S
O206 C201 1.254 . S
O207 Dy192 2.310 . S
O207 Dy195 2.664 . S
O207 C201 1.268 . S
O208 Dy192 2.351 . S
O208 C211 1.249 . S
O209 Dy195 2.326 . S
O209 C211 1.267 . S
C210 O202 1.249 . S
C210 O203 1.267 . S
C211 O208 1.249 . S
C211 O209 1.267 . S
Dy212 O216 2.398 . S
Dy212 O217 2.491 . S
Dy212 O218 2.403 . S
Dy212 O219 2.664 1_655 S
Dy212 O223 2.326 . S
Dy212 O227 2.310 . S
Dy212 O228 2.351 1_655 S
C213 O224 1.185 . S
C213 O225 1.355 . S
C214 O216 1.185 . S
C214 O217 1.355 . S
Dy215 O219 2.310 . S
Dy215 O222 2.351 1_455 S
Dy215 O224 2.398 . S
Dy215 O225 2.491 . S
Dy215 O226 2.403 . S
Dy215 O227 2.664 1_455 S
Dy215 O229 2.326 . S
O216 Dy212 2.398 . S
O216 C214 1.185 . S
O217 Dy212 2.491 . S
O217 C214 1.355 . S
O218 Dy212 2.403 . S
O218 C220 1.254 . S
O219 Dy212 2.664 1_455 S
O219 Dy215 2.310 . S
O219 C220 1.268 1_455 S
C220 O218 1.254 . S
C220 O219 1.268 1_655 S
C221 O226 1.254 . S
C221 O227 1.268 1_455 S
O222 Dy215 2.351 1_655 S
O222 C230 1.249 . S
O223 Dy212 2.326 . S
O223 C230 1.267 . S
O224 C213 1.185 . S
O224 Dy215 2.398 . S
O225 C213 1.355 . S
O225 Dy215 2.491 . S
O226 Dy215 2.403 . S
O226 C221 1.254 . S
O227 Dy212 2.310 . S
O227 Dy215 2.664 1_655 S
O227 C221 1.268 1_655 S
O228 Dy212 2.351 1_455 S
O228 C231 1.249 . S
O229 Dy215 2.326 . S
O229 C231 1.267 . S
C230 O222 1.249 . S
C230 O223 1.267 . S
C231 O228 1.249 . S
C231 O229 1.267 . S
H232 C238 0.930 . S
H233 C242 0.906 1_565 S
H234 C247 0.929 . S
H235 C245 0.929 . S
H236 C240 0.929 1_565 S
H237 C246 0.929 . S
C238 H232 0.930 . S
C238 C239 1.367 . S
C238 C246 1.378 . S
C239 C238 1.367 . S
C239 C247 1.433 . S
C240 H236 0.929 1_545 S
C240 C242 1.383 . S
C240 C244 1.350 . S
C241 C244 1.463 . S
C241 C246 1.350 . S
C241 N249 1.427 . S
C242 H233 0.906 1_545 S
C242 C240 1.383 . S
C242 C243 1.386 . S
C243 C242 1.386 . S
C243 C245 1.433 . S
C244 C240 1.350 . S
C244 C241 1.463 . S
C244 N248 1.427 . S
C245 H235 0.929 . S
C245 C243 1.433 . S
C245 N248 1.384 . S
C246 H237 0.929 . S
C246 C238 1.378 . S
C246 C241 1.350 . S
C247 H234 0.929 . S
C247 C239 1.433 . S
C247 N249 1.384 . S
N248 C244 1.427 . S
N248 C245 1.384 . S
N249 C241 1.427 . S
N249 C247 1.384 . S
H250 C256 0.930 . S
H251 C260 0.930 . S
H252 C265 0.929 . S
H253 C263 0.929 . S
H254 C258 0.929 . S
H255 C264 0.929 . S
C256 H250 0.930 . S
C256 C257 1.367 . S
C256 C264 1.378 . S
C257 C256 1.367 . S
C257 C265 1.433 . S
C258 H254 0.929 . S
C258 C260 1.378 . S
C258 C262 1.350 . S
C259 C262 1.463 . S
C259 C264 1.350 . S
C259 N267 1.427 . S
C260 H251 0.930 . S
C260 C258 1.378 . S
C260 C261 1.367 . S
C261 C260 1.367 . S
C261 C263 1.433 . S
C262 C258 1.350 . S
C262 C259 1.463 . S
C262 N266 1.427 . S
C263 H253 0.929 . S
C263 C261 1.433 . S
C263 N266 1.384 . S
C264 H255 0.929 . S
C264 C256 1.378 . S
C264 C259 1.350 . S
C265 H252 0.929 . S
C265 C257 1.433 . S
C265 N267 1.384 . S
N266 C262 1.427 . S
N266 C263 1.384 . S
N267 C259 1.427 . S
N267 C265 1.384 . S
H268 C274 0.930 . S
H269 C278 0.930 . S
H270 C283 0.929 . S
H271 C281 0.929 . S
H272 C276 0.929 . S
H273 C282 0.929 . S
C274 H268 0.930 . S
C274 C275 1.367 . S
C274 C282 1.378 . S
C275 C274 1.367 . S
C275 C283 1.433 . S
C276 H272 0.929 . S
C276 C278 1.378 . S
C276 C280 1.350 . S
C277 C280 1.463 . S
C277 C282 1.350 . S
C277 N285 1.427 . S
C278 H269 0.930 . S
C278 C276 1.378 . S
C278 C279 1.367 . S
C279 C278 1.367 . S
C279 C281 1.433 . S
C280 C276 1.350 . S
C280 C277 1.463 . S
C280 N284 1.427 . S
C281 H271 0.929 . S
C281 C279 1.433 . S
C281 N284 1.384 . S
C282 H273 0.929 . S
C282 C274 1.378 . S
C282 C277 1.350 . S
C283 H270 0.929 . S
C283 C275 1.433 . S
C283 N285 1.384 . S
N284 C280 1.427 . S
N284 C281 1.384 . S
N285 C277 1.427 . S
N285 C283 1.384 . S
H286 C292 0.930 . S
H287 C296 0.930 . S
H288 C301 0.929 . S
H289 C299 0.929 . S
H290 C294 0.929 . S
H291 C300 0.929 . S
C292 H286 0.930 . S
C292 C293 1.367 1_655 S
C292 C300 1.378 . S
C293 C292 1.367 1_455 S
C293 C301 1.433 . S
C294 H290 0.929 . S
C294 C296 1.378 . S
C294 C298 1.350 . S
C295 C298 1.463 . S
C295 C300 1.350 1_455 S
C295 N303 1.427 . S
C296 H287 0.930 . S
C296 C294 1.378 . S
C296 C297 1.367 . S
C297 C296 1.367 . S
C297 C299 1.433 1_455 S
C298 C294 1.350 . S
C298 C295 1.463 . S
C298 N302 1.427 1_455 S
C299 H289 0.929 . S
C299 C297 1.433 1_655 S
C299 N302 1.384 . S
C300 H291 0.929 . S
C300 C292 1.378 . S
C300 C295 1.350 1_655 S
C301 H288 0.929 . S
C301 C293 1.433 . S
C301 N303 1.384 . S
N302 C298 1.427 1_655 S
N302 C299 1.384 . S
N303 C295 1.427 . S
N303 C301 1.384 . S
H304 C310 0.930 1_554 S
H305 C314 0.930 . S
H306 C319 0.929 . S
H307 C317 0.929 1_545 S
H308 C312 0.929 . S
H309 C318 0.929 . S
C310 H304 0.930 1_556 S
C310 C311 1.367 . S
C310 C318 1.378 . S
C311 C310 1.367 . S
C311 C319 1.433 . S
C312 H308 0.929 . S
C312 C314 1.378 . S
C312 C316 1.350 . S
C313 C316 1.463 . S
C313 C318 1.350 . S
C313 N321 1.427 . S
C314 H305 0.930 . S
C314 C312 1.378 . S
C314 C315 1.367 . S
C315 C314 1.367 . S
C315 C317 1.433 . S
C316 C312 1.350 . S
C316 C313 1.463 . S
C316 N320 1.427 . S
C317 H307 0.929 1_565 S
C317 C315 1.433 . S
C317 N320 1.384 . S
C318 H309 0.929 . S
C318 C310 1.378 . S
C318 C313 1.350 . S
C319 H306 0.929 . S
C319 C311 1.433 . S
C319 N321 1.384 . S
N320 C316 1.427 . S
N320 C317 1.384 . S
N321 C313 1.427 . S
N321 C319 1.384 . S
H322 C328 0.930 . S
H323 C332 0.930 . S
H324 C337 0.929 . S
H325 C335 0.929 . S
H326 C330 0.929 . S
H327 C336 0.929 . S
C328 H322 0.930 . S
C328 C329 1.367 . S
C328 C336 1.378 . S
C329 C328 1.367 . S
C329 C337 1.433 . S
C330 H326 0.929 . S
C330 C332 1.378 . S
C330 C334 1.350 . S
C331 C334 1.463 . S
C331 C336 1.350 . S
C331 N339 1.427 . S
C332 H323 0.930 . S
C332 C330 1.378 . S
C332 C333 1.367 . S
C333 C332 1.367 . S
C333 C335 1.433 . S
C334 C330 1.350 . S
C334 C331 1.463 . S
C334 N338 1.427 . S
C335 H325 0.929 . S
C335 C333 1.433 . S
C335 N338 1.384 . S
C336 H327 0.929 . S
C336 C328 1.378 . S
C336 C331 1.350 . S
C337 H324 0.929 . S
C337 C329 1.433 . S
C337 N339 1.384 . S
N338 C334 1.427 . S
N338 C335 1.384 . S
N339 C331 1.427 . S
N339 C337 1.384 . S
H340 C346 0.930 1_554 S
H341 C350 0.930 . S
H342 C355 0.929 . S
H343 C353 0.929 . S
H344 C348 0.929 . S
H345 C354 0.929 . S
C346 H340 0.930 1_556 S
C346 C347 1.367 . S
C346 C354 1.378 . S
C347 C346 1.367 . S
C347 C355 1.433 . S
C348 H344 0.929 . S
C348 C350 1.378 . S
C348 C352 1.350 . S
C349 C352 1.463 . S
C349 C354 1.350 . S
C349 N357 1.427 . S
C350 H341 0.930 . S
C350 C348 1.378 . S
C350 C351 1.367 . S
C351 C350 1.367 . S
C351 C353 1.433 . S
C352 C348 1.350 . S
C352 C349 1.463 . S
C352 N356 1.427 . S
C353 H343 0.929 . S
C353 C351 1.433 . S
C353 N356 1.384 . S
C354 H345 0.929 . S
C354 C346 1.378 . S
C354 C349 1.350 . S
C355 H342 0.929 . S
C355 C347 1.433 . S
C355 N357 1.384 . S
N356 C352 1.427 . S
N356 C353 1.384 . S
N357 C349 1.427 . S
N357 C355 1.384 . S
H358 C364 0.930 . S
H359 C368 0.930 . S
H360 C373 0.929 1_554 S
H361 C371 0.929 . S
H362 C366 0.929 . S
H363 C372 0.929 . S
C364 H358 0.930 . S
C364 C365 1.349 1_455 S
C364 C372 1.378 . S
C365 C364 1.349 1_655 S
C365 C373 1.449 . S
C366 H362 0.929 . S
C366 C368 1.378 . S
C366 C370 1.344 1_655 S
C367 C370 1.463 . S
C367 C372 1.359 . S
C367 N375 1.416 1_455 S
C368 H359 0.930 . S
C368 C366 1.378 . S
C368 C369 1.367 1_655 S
C369 C368 1.367 1_455 S
C369 C371 1.433 . S
C370 C366 1.344 1_455 S
C370 C367 1.463 . S
C370 N374 1.435 . S
C371 H361 0.929 . S
C371 C369 1.433 . S
C371 N374 1.384 . S
C372 H363 0.929 . S
C372 C364 1.378 . S
C372 C367 1.359 . S
C373 H360 0.929 1_556 S
C373 C365 1.449 . S
C373 N375 1.384 . S
N374 C370 1.435 . S
N374 C371 1.384 . S
N375 C367 1.416 1_655 S
N375 C373 1.384 . S
H376 C382 0.930 . S
H377 C386 0.930 . S
H378 C391 0.929 . S
H379 C389 0.927 1_455 S
H380 C384 0.929 . S
H381 C390 0.929 . S
C382 H376 0.930 . S
C382 C383 1.367 . S
C382 C390 1.378 . S
C383 C382 1.367 . S
C383 C391 1.433 1_455 S
C384 H380 0.929 . S
C384 C386 1.378 . S
C384 C388 1.350 . S
C385 C388 1.462 1_455 S
C385 C390 1.351 . S
C385 N393 1.426 1_455 S
C386 H377 0.930 . S
C386 C384 1.378 . S
C386 C387 1.367 . S
C387 C386 1.367 . S
C387 C389 1.436 . S
C388 C384 1.350 . S
C388 C385 1.462 1_655 S
C388 N392 1.427 1_655 S
C389 H379 0.927 1_655 S
C389 C387 1.436 . S
C389 N392 1.384 1_655 S
C390 H381 0.929 . S
C390 C382 1.378 . S
C390 C385 1.351 . S
C391 H378 0.929 . S
C391 C383 1.433 1_655 S
C391 N393 1.384 . S
N392 C388 1.427 1_455 S
N392 C389 1.384 1_455 S
N393 C385 1.426 1_655 S
N393 C391 1.384 . S
H394 C400 0.930 . S
H395 C404 0.930 . S
H396 C409 0.929 . S
H397 C407 0.929 . S
H398 C402 0.929 . S
H399 C408 0.929 . S
C400 H394 0.930 . S
C400 C401 1.367 . S
C400 C408 1.378 . S
C401 C400 1.367 . S
C401 C409 1.433 . S
C402 H398 0.929 . S
C402 C404 1.378 . S
C402 C406 1.350 . S
C403 C406 1.463 . S
C403 C408 1.350 . S
C403 N411 1.427 . S
C404 H395 0.930 . S
C404 C402 1.378 . S
C404 C405 1.367 . S
C405 C404 1.367 . S
C405 C407 1.433 . S
C406 C402 1.350 . S
C406 C403 1.463 . S
C406 N410 1.427 . S
C407 H397 0.929 . S
C407 C405 1.433 . S
C407 N410 1.384 . S
C408 H399 0.929 . S
C408 C400 1.378 . S
C408 C403 1.350 . S
C409 H396 0.929 . S
C409 C401 1.433 . S
C409 N411 1.384 . S
N410 C406 1.427 . S
N410 C407 1.384 . S
N411 C403 1.427 . S
N411 C409 1.384 . S
H412 C418 0.930 . S
H413 C422 0.930 . S
H414 C427 0.929 . S
H415 C425 0.929 . S
H416 C420 0.929 . S
H417 C426 0.929 . S
C418 H412 0.930 . S
C418 C419 1.367 . S
C418 C426 1.378 . S
C419 C418 1.367 . S
C419 C427 1.433 . S
C420 H416 0.929 . S
C420 C422 1.378 . S
C420 C424 1.350 . S
C421 C424 1.463 . S
C421 C426 1.350 . S
C421 N429 1.427 . S
C422 H413 0.930 . S
C422 C420 1.378 . S
C422 C423 1.367 . S
C423 C422 1.367 . S
C423 C425 1.433 . S
C424 C420 1.350 . S
C424 C421 1.463 . S
C424 N428 1.427 . S
C425 H415 0.929 . S
C425 C423 1.433 . S
C425 N428 1.384 . S
C426 H417 0.929 . S
C426 C418 1.378 . S
C426 C421 1.350 . S
C427 H414 0.929 . S
C427 C419 1.433 . S
C427 N429 1.384 . S
N428 C424 1.427 . S
N428 C425 1.384 . S
N429 C421 1.427 . S
N429 C427 1.384 . S
H430 C436 0.930 . S
H431 C440 0.930 . S
H432 C445 0.929 . S
H433 C443 0.929 . S
H434 C438 0.929 . S
H435 C444 0.929 . S
C436 H430 0.930 . S
C436 C437 1.367 . S
C436 C444 1.378 . S
C437 C436 1.367 . S
C437 C445 1.433 . S
C438 H434 0.929 . S
C438 C440 1.378 . S
C438 C442 1.350 . S
C439 C442 1.463 . S
C439 C444 1.350 . S
C439 N447 1.427 . S
C440 H431 0.930 . S
C440 C438 1.378 . S
C440 C441 1.367 . S
C441 C440 1.367 . S
C441 C443 1.433 . S
C442 C438 1.350 . S
C442 C439 1.463 . S
C442 N446 1.427 . S
C443 H433 0.929 . S
C443 C441 1.433 . S
C443 N446 1.384 . S
C444 H435 0.929 . S
C444 C436 1.378 . S
C444 C439 1.350 . S
C445 H432 0.929 . S
C445 C437 1.433 . S
C445 N447 1.384 . S
N446 C442 1.427 . S
N446 C443 1.384 . S
N447 C439 1.427 . S
N447 C445 1.384 . S
H448 C454 0.930 1_554 S
H449 C458 0.931 . S
H450 C463 0.929 . S
H451 C461 0.929 . S
H452 C456 0.929 . S
H453 C462 0.929 . S
C454 H448 0.930 1_556 S
C454 C455 1.351 1_455 S
C454 C462 1.378 . S
C455 C454 1.351 1_655 S
C455 C463 1.450 . S
C456 H452 0.929 . S
C456 C458 1.378 . S
C456 C460 1.350 1_655 S
C457 C460 1.463 . S
C457 C462 1.350 . S
C457 N465 1.427 1_455 S
C458 H449 0.931 . S
C458 C456 1.378 . S
C458 C459 1.366 1_655 S
C459 C458 1.366 1_455 S
C459 C461 1.433 . S
C460 C456 1.350 1_455 S
C460 C457 1.463 . S
C460 N464 1.427 . S
C461 H451 0.929 . S
C461 C459 1.433 . S
C461 N464 1.384 . S
C462 H453 0.929 . S
C462 C454 1.378 . S
C462 C457 1.350 . S
C463 H450 0.929 . S
C463 C455 1.450 . S
C463 N465 1.384 . S
N464 C460 1.427 . S
N464 C461 1.384 . S
N465 C457 1.427 1_655 S
N465 C463 1.384 . S
H466 C472 0.930 . S
H467 C476 0.930 . S
H468 C481 0.929 1_554 S
H469 C479 0.929 . S
H470 C474 0.929 . S
H471 C480 0.929 . S
C472 H466 0.930 . S
C472 C473 1.367 . S
C472 C480 1.378 . S
C473 C472 1.367 . S
C473 C481 1.433 . S
C474 H470 0.929 . S
C474 C476 1.378 . S
C474 C478 1.350 1_545 S
C475 C478 1.463 . S
C475 C480 1.350 . S
C475 N483 1.427 . S
C476 H467 0.930 . S
C476 C474 1.378 . S
C476 C477 1.367 1_545 S
C477 C476 1.367 1_565 S
C477 C479 1.433 . S
C478 C474 1.350 1_565 S
C478 C475 1.463 . S
C478 N482 1.427 . S
C479 H469 0.929 . S
C479 C477 1.433 . S
C479 N482 1.384 . S
C480 H471 0.929 . S
C480 C472 1.378 . S
C480 C475 1.350 . S
C481 H468 0.929 1_556 S
C481 C473 1.433 . S
C481 N483 1.384 . S
N482 C478 1.427 . S
N482 C479 1.384 . S
N483 C475 1.427 . S
N483 C481 1.384 . S
H484 C490 0.930 . S
H485 C494 0.930 . S
H486 C499 0.929 . S
H487 C497 0.929 . S
H488 C492 0.929 . S
H489 C498 0.929 . S
C490 H484 0.930 . S
C490 C491 1.367 . S
C490 C498 1.378 . S
C491 C490 1.367 . S
C491 C499 1.433 1_556 S
C492 H488 0.929 . S
C492 C494 1.378 . S
C492 C496 1.350 . S
C493 C496 1.463 . S
C493 C498 1.350 . S
C493 N501 1.427 . S
C494 H485 0.930 . S
C494 C492 1.378 . S
C494 C495 1.367 . S
C495 C494 1.367 . S
C495 C497 1.433 . S
C496 C492 1.350 . S
C496 C493 1.463 . S
C496 N500 1.427 . S
C497 H487 0.929 . S
C497 C495 1.433 . S
C497 N500 1.384 . S
C498 H489 0.929 . S
C498 C490 1.378 . S
C498 C493 1.350 . S
C499 H486 0.929 . S
C499 C491 1.433 1_554 S
C499 N501 1.384 1_554 S
N500 C496 1.427 . S
N500 C497 1.384 . S
N501 C493 1.427 . S
N501 C499 1.384 1_556 S
H502 C508 0.930 . S
H503 C512 0.930 . S
H504 C517 0.929 . S
H505 C515 0.929 . S
H506 C510 0.929 . S
H507 C516 0.929 . S
C508 H502 0.930 . S
C508 C509 1.367 1_554 S
C508 C516 1.378 1_554 S
C509 C508 1.367 1_556 S
C509 C517 1.433 . S
C510 H506 0.929 . S
C510 C512 1.378 . S
C510 C514 1.350 . S
C511 C514 1.463 . S
C511 C516 1.350 . S
C511 N519 1.427 . S
C512 H503 0.930 . S
C512 C510 1.378 . S
C512 C513 1.367 . S
C513 C512 1.367 . S
C513 C515 1.433 . S
C514 C510 1.350 . S
C514 C511 1.463 . S
C514 N518 1.427 . S
C515 H505 0.929 . S
C515 C513 1.433 . S
C515 N518 1.384 . S
C516 H507 0.929 . S
C516 C508 1.378 1_556 S
C516 C511 1.350 . S
C517 H504 0.929 . S
C517 C509 1.433 . S
C517 N519 1.384 . S
N518 C514 1.427 . S
N518 C515 1.384 . S
N519 C511 1.427 . S
N519 C517 1.384 . S
H520 C526 0.930 . S
H521 C530 0.930 . S
H522 C535 0.929 1_554 S
H523 C533 0.929 . S
H524 C528 0.929 . S
H525 C534 0.929 . S
C526 H520 0.930 . S
C526 C527 1.367 . S
C526 C534 1.378 . S
C527 C526 1.367 . S
C527 C535 1.433 1_455 S
C528 H524 0.929 . S
C528 C530 1.378 . S
C528 C532 1.350 1_655 S
C529 C532 1.463 . S
C529 C534 1.350 . S
C529 N537 1.427 1_455 S
C530 H521 0.930 . S
C530 C528 1.378 . S
C530 C531 1.367 1_655 S
C531 C530 1.367 1_455 S
C531 C533 1.433 . S
C532 C528 1.350 1_455 S
C532 C529 1.463 . S
C532 N536 1.427 . S
C533 H523 0.929 . S
C533 C531 1.433 . S
C533 N536 1.384 . S
C534 H525 0.929 . S
C534 C526 1.378 . S
C534 C529 1.350 . S
C535 H522 0.929 1_556 S
C535 C527 1.433 1_655 S
C535 N537 1.384 . S
N536 C532 1.427 . S
N536 C533 1.384 . S
N537 C529 1.427 1_655 S
N537 C535 1.384 . S
H538 C544 0.930 . S
H539 C548 0.929 . S
H540 C553 0.929 1_554 S
H541 C551 0.929 . S
H542 C546 0.929 . S
H543 C552 0.929 . S
C544 H538 0.930 . S
C544 C545 1.367 . S
C544 C552 1.378 . S
C545 C544 1.367 . S
C545 C553 1.433 . S
C546 H542 0.929 . S
C546 C548 1.378 . S
C546 C550 1.350 . S
C547 C550 1.463 . S
C547 C552 1.350 . S
C547 N555 1.427 . S
C548 H539 0.929 . S
C548 C546 1.378 . S
C548 C549 1.367 . S
C549 C548 1.367 . S
C549 C551 1.433 . S
C550 C546 1.350 . S
C550 C547 1.463 . S
C550 N554 1.427 . S
C551 H541 0.929 . S
C551 C549 1.433 . S
C551 N554 1.384 . S
C552 H543 0.929 . S
C552 C544 1.378 . S
C552 C547 1.350 . S
C553 H540 0.929 1_556 S
C553 C545 1.433 . S
C553 N555 1.384 . S
N554 C550 1.427 . S
N554 C551 1.384 . S
N555 C547 1.427 . S
N555 C553 1.384 . S
H556 C562 0.930 . S
H557 C566 0.930 . S
H558 C571 0.929 . S
H559 C569 0.929 . S
H560 C564 0.929 . S
H561 C570 0.929 . S
C562 H556 0.930 . S
C562 C563 1.367 . S
C562 C570 1.378 . S
C563 C562 1.367 . S
C563 C571 1.433 . S
C564 H560 0.929 . S
C564 C566 1.378 . S
C564 C568 1.350 . S
C565 C568 1.463 . S
C565 C570 1.350 . S
C565 N573 1.427 . S
C566 H557 0.930 . S
C566 C564 1.378 . S
C566 C567 1.367 . S
C567 C566 1.367 . S
C567 C569 1.433 . S
C568 C564 1.350 . S
C568 C565 1.463 . S
C568 N572 1.427 . S
C569 H559 0.929 . S
C569 C567 1.433 . S
C569 N572 1.384 . S
C570 H561 0.929 . S
C570 C562 1.378 . S
C570 C565 1.350 . S
C571 H558 0.929 . S
C571 C563 1.433 . S
C571 N573 1.384 . S
N572 C568 1.427 . S
N572 C569 1.384 . S
N573 C565 1.427 . S
N573 C571 1.384 . S
H574 C580 0.930 1_554 S
H575 C584 0.930 . S
H576 C589 0.929 . S
H577 C587 0.929 . S
H578 C582 0.929 . S
H579 C588 0.929 . S
C580 H574 0.930 1_556 S
C580 C581 1.367 . S
C580 C588 1.378 . S
C581 C580 1.367 . S
C581 C589 1.433 . S
C582 H578 0.929 . S
C582 C584 1.378 . S
C582 C586 1.350 . S
C583 C586 1.463 . S
C583 C588 1.350 . S
C583 N591 1.427 . S
C584 H575 0.930 . S
C584 C582 1.378 . S
C584 C585 1.367 . S
C585 C584 1.367 . S
C585 C587 1.433 . S
C586 C582 1.350 . S
C586 C583 1.463 . S
C586 N590 1.427 . S
C587 H577 0.929 . S
C587 C585 1.433 . S
C587 N590 1.384 . S
C588 H579 0.929 . S
C588 C580 1.378 . S
C588 C583 1.350 . S
C589 H576 0.929 . S
C589 C581 1.433 . S
C589 N591 1.384 . S
N590 C586 1.427 . S
N590 C587 1.384 . S
N591 C583 1.427 . S
N591 C589 1.384 . S
H592 C598 0.930 . S
H593 C602 0.930 . S
H594 C607 0.929 . S
H595 C605 0.929 . S
H596 C600 0.929 . S
H597 C606 0.929 . S
C598 H592 0.930 . S
C598 C599 1.367 1_455 S
C598 C606 1.378 . S
C599 C598 1.367 1_655 S
C599 C607 1.433 . S
C600 H596 0.929 . S
C600 C602 1.378 . S
C600 C604 1.350 . S
C601 C604 1.463 . S
C601 C606 1.350 1_655 S
C601 N609 1.427 . S
C602 H593 0.930 . S
C602 C600 1.378 . S
C602 C603 1.367 . S
C603 C602 1.367 . S
C603 C605 1.433 1_655 S
C604 C600 1.350 . S
C604 C601 1.463 . S
C604 N608 1.427 1_655 S
C605 H595 0.929 . S
C605 C603 1.433 1_455 S
C605 N608 1.384 . S
C606 H597 0.929 . S
C606 C598 1.378 . S
C606 C601 1.350 1_455 S
C607 H594 0.929 . S
C607 C599 1.433 . S
C607 N609 1.384 . S
N608 C604 1.427 1_455 S
N608 C605 1.384 . S
N609 C601 1.427 . S
N609 C607 1.384 . S
H610 C616 0.930 . S
H611 C620 0.930 . S
H612 C625 0.911 1_545 S
H613 C623 0.929 . S
H614 C618 0.929 . S
H615 C624 0.929 . S
C616 H610 0.930 . S
C616 C617 1.367 . S
C616 C624 1.378 . S
C617 C616 1.367 . S
C617 C625 1.433 . S
C618 H614 0.929 . S
C618 C620 1.378 . S
C618 C622 1.350 1_545 S
C619 C622 1.463 . S
C619 C624 1.350 . S
C619 N627 1.427 . S
C620 H611 0.930 . S
C620 C618 1.378 . S
C620 C621 1.367 1_545 S
C621 C620 1.367 1_565 S
C621 C623 1.433 . S
C622 C618 1.350 1_565 S
C622 C619 1.463 . S
C622 N626 1.427 . S
C623 H613 0.929 . S
C623 C621 1.433 . S
C623 N626 1.384 . S
C624 H615 0.929 . S
C624 C616 1.378 . S
C624 C619 1.350 . S
C625 H612 0.911 1_565 S
C625 C617 1.433 . S
C625 N627 1.384 . S
N626 C622 1.427 . S
N626 C623 1.384 . S
N627 C619 1.427 . S
N627 C625 1.384 . S
H628 C634 0.930 . S
H629 C638 0.930 . S
H630 C643 0.929 . S
H631 C641 0.929 . S
H632 C636 0.929 . S
H633 C642 0.929 . S
C634 H628 0.930 . S
C634 C635 1.367 . S
C634 C642 1.378 . S
C635 C634 1.367 . S
C635 C643 1.433 . S
C636 H632 0.929 . S
C636 C638 1.378 . S
C636 C640 1.350 . S
C637 C640 1.463 . S
C637 C642 1.350 . S
C637 N645 1.427 . S
C638 H629 0.930 . S
C638 C636 1.378 . S
C638 C639 1.367 . S
C639 C638 1.367 . S
C639 C641 1.433 . S
C640 C636 1.350 . S
C640 C637 1.463 . S
C640 N644 1.427 . S
C641 H631 0.929 . S
C641 C639 1.433 . S
C641 N644 1.384 . S
C642 H633 0.929 . S
C642 C634 1.378 . S
C642 C637 1.350 . S
C643 H630 0.929 . S
C643 C635 1.433 . S
C643 N645 1.384 . S
N644 C640 1.427 . S
N644 C641 1.384 . S
N645 C637 1.427 . S
N645 C643 1.384 . S
H646 C652 0.930 . S
H647 C656 0.930 . S
H648 C661 0.929 . S
H649 C659 0.929 . S
H650 C654 0.929 . S
H651 C660 0.929 . S
C652 H646 0.930 . S
C652 C653 1.367 . S
C652 C660 1.378 . S
C653 C652 1.367 . S
C653 C661 1.433 . S
C654 H650 0.929 . S
C654 C656 1.378 . S
C654 C658 1.350 . S
C655 C658 1.463 . S
C655 C660 1.350 . S
C655 N663 1.427 . S
C656 H647 0.930 . S
C656 C654 1.378 . S
C656 C657 1.367 . S
C657 C656 1.367 . S
C657 C659 1.433 . S
C658 C654 1.350 . S
C658 C655 1.463 . S
C658 N662 1.427 . S
C659 H649 0.929 . S
C659 C657 1.433 . S
C659 N662 1.384 . S
C660 H651 0.929 . S
C660 C652 1.378 . S
C660 C655 1.350 . S
C661 H648 0.929 . S
C661 C653 1.433 . S
C661 N663 1.384 . S
N662 C658 1.427 . S
N662 C659 1.384 . S
N663 C655 1.427 . S
N663 C661 1.384 . S
C239 C125 1.613 . S
C243 C160 1.717 . S
C261 C190 1.820 . S
C257 C144 1.757 . S
C279 C200 1.533 . S
C275 C87 1.475 . S
C297 C220 1.405 1_455 S
C293 C106 1.351 1_455 S
C315 C161 1.718 . S
C311 C49 1.690 . S
C329 C68 1.824 1_556 S
C333 C191 1.826 . S
C347 C11 1.491 1_556 S
C351 C201 1.531 . S
C365 C30 1.385 . S
C369 C221 1.409 . S
C387 C153 0.914 . S
C383 C97 0.913 . S
C405 C174 0.671 . S
C401 C116 0.704 . S
C423 C193 1.088 . S
C419 C135 1.065 . S
C437 C78 0.804 . S
C441 C213 0.800 . S
C455 C21 0.888 . S
C459 C154 0.923 . S
C477 C173 0.663 . S
C473 C40 0.697 . S
C495 C194 1.086 . S
C491 C59 1.067 1_556 S
C509 C2 0.783 1_556 S
C513 C214 0.805 . S
C527 C101 1.525 . S
C531 C171 1.581 . S
C545 C120 1.414 1_556 S
C549 C181 1.491 . S
C567 C211 1.792 . S
C563 C139 1.703 . S
C585 C231 1.782 . S
C581 C82 1.695 . S
C599 C25 1.527 . S
C603 C170 1.586 . S
C621 C180 1.493 . S
C617 C44 1.410 . S
C639 C210 1.793 . S
C635 C63 1.690 . S
C653 C6 1.710 . S
C657 C230 1.781 . S
