# Generated by pormake.
# Topology ctn, (3,4)-cn, num edge types: 1
# Building blocks:
#     Node 0, Type 0, BuildingBlock: MIDCAF_clean_linker_0, # of connection points: 3
#     Node 1, Type 0, BuildingBlock: MIDCAF_clean_linker_0, # of connection points: 3
#     Node 2, Type 0, BuildingBlock: MIDCAF_clean_linker_0, # of connection points: 3
#     Node 3, Type 0, BuildingBlock: MIDCAF_clean_linker_0, # of connection points: 3
#     Node 4, Type 0, BuildingBlock: MIDCAF_clean_linker_0, # of connection points: 3
#     Node 5, Type 0, BuildingBlock: MIDCAF_clean_linker_0, # of connection points: 3
#     Node 6, Type 0, BuildingBlock: MIDCAF_clean_linker_0, # of connection points: 3
#     Node 7, Type 0, BuildingBlock: MIDCAF_clean_linker_0, # of connection points: 3
#     Node 8, Type 0, BuildingBlock: MIDCAF_clean_linker_0, # of connection points: 3
#     Node 9, Type 0, BuildingBlock: MIDCAF_clean_linker_0, # of connection points: 3
#     Node 10, Type 0, BuildingBlock: MIDCAF_clean_linker_0, # of connection points: 3
#     Node 11, Type 0, BuildingBlock: MIDCAF_clean_linker_0, # of connection points: 3
#     Node 12, Type 0, BuildingBlock: MIDCAF_clean_linker_0, # of connection points: 3
#     Node 13, Type 0, BuildingBlock: MIDCAF_clean_linker_0, # of connection points: 3
#     Node 14, Type 0, BuildingBlock: MIDCAF_clean_linker_0, # of connection points: 3
#     Node 15, Type 0, BuildingBlock: MIDCAF_clean_linker_0, # of connection points: 3
#     Node 16, Type 1, BuildingBlock: UXUYUI_clean_sbu_0, # of connection points: 4
#     Node 17, Type 1, BuildingBlock: UXUYUI_clean_sbu_0, # of connection points: 4
#     Node 18, Type 1, BuildingBlock: UXUYUI_clean_sbu_0, # of connection points: 4
#     Node 19, Type 1, BuildingBlock: UXUYUI_clean_sbu_0, # of connection points: 4
#     Node 20, Type 1, BuildingBlock: UXUYUI_clean_sbu_0, # of connection points: 4
#     Node 21, Type 1, BuildingBlock: UXUYUI_clean_sbu_0, # of connection points: 4
#     Node 22, Type 1, BuildingBlock: UXUYUI_clean_sbu_0, # of connection points: 4
#     Node 23, Type 1, BuildingBlock: UXUYUI_clean_sbu_0, # of connection points: 4
#     Node 24, Type 1, BuildingBlock: UXUYUI_clean_sbu_0, # of connection points: 4
#     Node 25, Type 1, BuildingBlock: UXUYUI_clean_sbu_0, # of connection points: 4
#     Node 26, Type 1, BuildingBlock: UXUYUI_clean_sbu_0, # of connection points: 4
#     Node 27, Type 1, BuildingBlock: UXUYUI_clean_sbu_0, # of connection points: 4
#     Edge 28, Type (0, 1), BuildingBlock: XIVTED_clean_linker_0, # of connection points: 2
#     Edge 29, Type (0, 1), BuildingBlock: XIVTED_clean_linker_0, # of connection points: 2
#     Edge 30, Type (0, 1), BuildingBlock: XIVTED_clean_linker_0, # of connection points: 2
#     Edge 31, Type (0, 1), BuildingBlock: XIVTED_clean_linker_0, # of connection points: 2
#     Edge 32, Type (0, 1), BuildingBlock: XIVTED_clean_linker_0, # of connection points: 2
#     Edge 33, Type (0, 1), BuildingBlock: XIVTED_clean_linker_0, # of connection points: 2
#     Edge 34, Type (0, 1), BuildingBlock: XIVTED_clean_linker_0, # of connection points: 2
#     Edge 35, Type (0, 1), BuildingBlock: XIVTED_clean_linker_0, # of connection points: 2
#     Edge 36, Type (0, 1), BuildingBlock: XIVTED_clean_linker_0, # of connection points: 2
#     Edge 37, Type (0, 1), BuildingBlock: XIVTED_clean_linker_0, # of connection points: 2
#     Edge 38, Type (0, 1), BuildingBlock: XIVTED_clean_linker_0, # of connection points: 2
#     Edge 39, Type (0, 1), BuildingBlock: XIVTED_clean_linker_0, # of connection points: 2
#     Edge 40, Type (0, 1), BuildingBlock: XIVTED_clean_linker_0, # of connection points: 2
#     Edge 41, Type (0, 1), BuildingBlock: XIVTED_clean_linker_0, # of connection points: 2
#     Edge 42, Type (0, 1), BuildingBlock: XIVTED_clean_linker_0, # of connection points: 2
#     Edge 43, Type (0, 1), BuildingBlock: XIVTED_clean_linker_0, # of connection points: 2
#     Edge 44, Type (0, 1), BuildingBlock: XIVTED_clean_linker_0, # of connection points: 2
#     Edge 45, Type (0, 1), BuildingBlock: XIVTED_clean_linker_0, # of connection points: 2
#     Edge 46, Type (0, 1), BuildingBlock: XIVTED_clean_linker_0, # of connection points: 2
#     Edge 47, Type (0, 1), BuildingBlock: XIVTED_clean_linker_0, # of connection points: 2
#     Edge 48, Type (0, 1), BuildingBlock: XIVTED_clean_linker_0, # of connection points: 2
#     Edge 49, Type (0, 1), BuildingBlock: XIVTED_clean_linker_0, # of connection points: 2
#     Edge 50, Type (0, 1), BuildingBlock: XIVTED_clean_linker_0, # of connection points: 2
#     Edge 51, Type (0, 1), BuildingBlock: XIVTED_clean_linker_0, # of connection points: 2
#     Edge 52, Type (0, 1), BuildingBlock: XIVTED_clean_linker_0, # of connection points: 2
#     Edge 53, Type (0, 1), BuildingBlock: XIVTED_clean_linker_0, # of connection points: 2
#     Edge 54, Type (0, 1), BuildingBlock: XIVTED_clean_linker_0, # of connection points: 2
#     Edge 55, Type (0, 1), BuildingBlock: XIVTED_clean_linker_0, # of connection points: 2
#     Edge 56, Type (0, 1), BuildingBlock: XIVTED_clean_linker_0, # of connection points: 2
#     Edge 57, Type (0, 1), BuildingBlock: XIVTED_clean_linker_0, # of connection points: 2
#     Edge 58, Type (0, 1), BuildingBlock: XIVTED_clean_linker_0, # of connection points: 2
#     Edge 59, Type (0, 1), BuildingBlock: XIVTED_clean_linker_0, # of connection points: 2
#     Edge 60, Type (0, 1), BuildingBlock: XIVTED_clean_linker_0, # of connection points: 2
#     Edge 61, Type (0, 1), BuildingBlock: XIVTED_clean_linker_0, # of connection points: 2
#     Edge 62, Type (0, 1), BuildingBlock: XIVTED_clean_linker_0, # of connection points: 2
#     Edge 63, Type (0, 1), BuildingBlock: XIVTED_clean_linker_0, # of connection points: 2
#     Edge 64, Type (0, 1), BuildingBlock: XIVTED_clean_linker_0, # of connection points: 2
#     Edge 65, Type (0, 1), BuildingBlock: XIVTED_clean_linker_0, # of connection points: 2
#     Edge 66, Type (0, 1), BuildingBlock: XIVTED_clean_linker_0, # of connection points: 2
#     Edge 67, Type (0, 1), BuildingBlock: XIVTED_clean_linker_0, # of connection points: 2
#     Edge 68, Type (0, 1), BuildingBlock: XIVTED_clean_linker_0, # of connection points: 2
#     Edge 69, Type (0, 1), BuildingBlock: XIVTED_clean_linker_0, # of connection points: 2
#     Edge 70, Type (0, 1), BuildingBlock: XIVTED_clean_linker_0, # of connection points: 2
#     Edge 71, Type (0, 1), BuildingBlock: XIVTED_clean_linker_0, # of connection points: 2
#     Edge 72, Type (0, 1), BuildingBlock: XIVTED_clean_linker_0, # of connection points: 2
#     Edge 73, Type (0, 1), BuildingBlock: XIVTED_clean_linker_0, # of connection points: 2
#     Edge 74, Type (0, 1), BuildingBlock: XIVTED_clean_linker_0, # of connection points: 2
#     Edge 75, Type (0, 1), BuildingBlock: XIVTED_clean_linker_0, # of connection points: 2
# Relax obj value: 0.000
# Max RMSD: 0.004
# Mean RMSD: 0.003
data_MOF--net-ctn--node1-UXUYUI_clean_sbu_0--node2-MIDCAF_clean_linker_0--edge1-XIVTED_clean_linker_0
_symmetry_space_group_name_H-M    P1
_symmetry_Int_Tables_number       1
_symmetry_cell_setting            triclinic
loop_
_symmetry_equiv_pos_as_xyz
'x, y, z'
_cell_length_a     81.004793
_cell_length_b     80.986763
_cell_length_c     80.979178
_cell_angle_alpha  90.037751
_cell_angle_beta   90.023471
_cell_angle_gamma 90.088114
loop_
_atom_site_label
_atom_site_type_symbol
_atom_site_fract_x
_atom_site_fract_y
_atom_site_fract_z
_atom_type_partial_charge
C0 C 0.98734 0.03034 0.07345 0.0
C1 C 0.99176 0.01904 0.08584 0.0
C2 C 0.0066 0.01024 0.08426 0.0
C3 C 0.01688 0.01276 0.07064 0.0
H4 H 0.05382 0.99042 0.04279 0.0
H5 H 0.0778 0.97279 0.03858 0.0
H6 H 0.09818 0.00843 0.00458 0.0
H7 H 0.07424 0.02618 0.00877 0.0
H8 H 0.05115 0.05512 0.99617 0.0
H9 H 0.04666 0.0792 0.9788 0.0
H10 H 0.00087 0.08905 0.00427 0.0
H11 H 0.00548 0.06521 0.02191 0.0
H12 H 0.99394 0.0419 0.05067 0.0
H13 H 0.97604 0.03741 0.07442 0.0
H14 H 0.01024 0.00133 0.09354 0.0
H15 H 0.02827 0.00582 0.06988 0.0
N16 N 0.03705 0.01753 0.04155 0.0
N17 N 0.04483 0.03376 0.01888 0.0
N18 N 0.02115 0.04048 0.03407 0.0
C19 C 0.04761 0.02058 0.02888 0.0
C20 C 0.0316 0.04375 0.02136 0.0
C21 C 0.0238 0.02742 0.04424 0.0
C22 C 0.06209 0.00975 0.02614 0.0
C23 C 0.06339 0.99454 0.03441 0.0
C24 C 0.07708 0.98437 0.03193 0.0
C25 C 0.08984 0.98924 0.02125 0.0
C26 C 0.08858 0.00443 0.01299 0.0
C27 C 0.07481 0.01455 0.01533 0.0
C28 C 0.02871 0.0582 0.0105 0.0
C29 C 0.0401 0.06238 0.99808 0.0
C30 C 0.03749 0.07616 0.98804 0.0
C31 C 0.02341 0.08607 0.99015 0.0
C32 C 0.01196 0.08183 0.00248 0.0
C33 C 0.01458 0.06808 0.01254 0.0
C34 C 0.0126 0.02426 0.05836 0.0
C35 C 0.99767 0.03297 0.0599 0.0
C36 C 0.25238 0.66517 0.23865 0.0
C37 C 0.2388 0.66258 0.22814 0.0
C38 C 0.2361 0.67367 0.21508 0.0
C39 C 0.24693 0.68684 0.21236 0.0
H40 H 0.2531 0.73483 0.18861 0.0
H41 H 0.2494 0.75303 0.16502 0.0
H42 H 0.30243 0.75557 0.15885 0.0
H43 H 0.30598 0.73832 0.18312 0.0
H44 H 0.32385 0.73754 0.22114 0.0
H45 H 0.34759 0.74145 0.23916 0.0
H46 H 0.32895 0.70375 0.27195 0.0
H47 H 0.30505 0.69994 0.25411 0.0
H48 H 0.2737 0.67974 0.24411 0.0
H49 H 0.25491 0.65676 0.24872 0.0
H50 H 0.22561 0.67217 0.20692 0.0
H51 H 0.24453 0.69501 0.20205 0.0
N52 N 0.27066 0.71271 0.20593 0.0
N53 N 0.29563 0.72614 0.21198 0.0
N54 N 0.28635 0.70452 0.22884 0.0
C55 C 0.28206 0.72446 0.20226 0.0
C56 C 0.29781 0.71629 0.22538 0.0
C57 C 0.27277 0.7026 0.21916 0.0
C58 C 0.27982 0.73522 0.18773 0.0
C59 C 0.26393 0.73935 0.1822 0.0
C60 C 0.26184 0.74971 0.16856 0.0
C61 C 0.2756 0.75587 0.15987 0.0
C62 C 0.2915 0.75148 0.16536 0.0
C63 C 0.29358 0.74146 0.17924 0.0
C64 C 0.31247 0.71844 0.23615 0.0
C65 C 0.32478 0.73005 0.23217 0.0
C66 C 0.33846 0.73224 0.24246 0.0
C67 C 0.34014 0.72292 0.25699 0.0
C68 C 0.3279 0.71127 0.26095 0.0
C69 C 0.31424 0.70902 0.25064 0.0
C70 C 0.26073 0.68922 0.22263 0.0
C71 C 0.26322 0.67833 0.23593 0.0
C72 C 0.98488 0.41438 0.00456 0.0
C73 C 0.97521 0.41243 0.99027 0.0
C74 C 0.96314 0.42437 0.98667 0.0
C75 C 0.9607 0.43783 0.99719 0.0
H76 H 0.93037 0.47782 0.00481 0.0
H77 H 0.9066 0.49585 0.00105 0.0
H78 H 0.91696 0.51935 0.04781 0.0
H79 H 0.94059 0.50128 0.05174 0.0
H80 H 0.97086 0.49037 0.07259 0.0
H81 H 0.98874 0.49425 0.09638 0.0
H82 H 0.02203 0.45715 0.07744 0.0
H83 H 0.00392 0.4529 0.05383 0.0
H84 H 0.99008 0.42883 0.02602 0.0
H85 H 0.99411 0.4053 0.00785 0.0
H86 H 0.95565 0.42339 0.97563 0.0
H87 H 0.95127 0.44675 0.99403 0.0
N88 N 0.95457 0.46419 0.02052 0.0
N89 N 0.96189 0.47905 0.04427 0.0
N90 N 0.97759 0.45618 0.03613 0.0
C91 C 0.95168 0.47686 0.03114 0.0
C92 C 0.97489 0.4688 0.04684 0.0
C93 C 0.96748 0.45378 0.02294 0.0
C94 C 0.93741 0.48803 0.02861 0.0
C95 C 0.92761 0.48682 0.01431 0.0
C96 C 0.91403 0.49722 0.01209 0.0
C97 C 0.90989 0.50899 0.02415 0.0
C98 C 0.91972 0.51026 0.03839 0.0
C99 C 0.93334 0.49995 0.04058 0.0
C100 C 0.98592 0.4713 0.06125 0.0
C101 C 0.98199 0.48302 0.07345 0.0
C102 C 0.99231 0.48533 0.08708 0.0
C103 C 0.00685 0.47604 0.08883 0.0
C104 C 0.0108 0.46435 0.07662 0.0
C105 C 0.00045 0.46198 0.06301 0.0
C106 C 0.97031 0.43971 0.01154 0.0
C107 C 0.98249 0.42786 0.01505 0.0
C108 C 0.73646 0.7551 0.16548 0.0
C109 C 0.72342 0.74516 0.15969 0.0
C110 C 0.7082 0.74571 0.16802 0.0
C111 C 0.7061 0.75582 0.18185 0.0
H112 H 0.67873 0.75909 0.22498 0.0
H113 H 0.65516 0.75507 0.24322 0.0
H114 H 0.66918 0.79845 0.27094 0.0
H115 H 0.69262 0.80267 0.25266 0.0
H116 H 0.72864 0.81774 0.24657 0.0
H117 H 0.74675 0.84139 0.25112 0.0
H118 H 0.76625 0.83603 0.20181 0.0
H119 H 0.74817 0.81238 0.19715 0.0
H120 H 0.74463 0.7728 0.18333 0.0
H121 H 0.74845 0.75481 0.15958 0.0
H122 H 0.69777 0.73849 0.16376 0.0
H123 H 0.69419 0.75595 0.18791 0.0
N124 N 0.70397 0.77407 0.21261 0.0
N125 N 0.71258 0.79645 0.22884 0.0
N126 N 0.72754 0.78918 0.20516 0.0
C127 C 0.70177 0.78393 0.22601 0.0
C128 C 0.72548 0.79918 0.21848 0.0
C129 C 0.71685 0.77659 0.20215 0.0
C130 C 0.6876 0.78123 0.23729 0.0
C131 C 0.67683 0.76778 0.23496 0.0
C132 C 0.66336 0.76541 0.24547 0.0
C133 C 0.6603 0.77646 0.2585 0.0
C134 C 0.67109 0.78984 0.26089 0.0
C135 C 0.6846 0.79219 0.25043 0.0
C136 C 0.7369 0.81317 0.22147 0.0
C137 C 0.73681 0.82155 0.23669 0.0
C138 C 0.74724 0.83505 0.23935 0.0
C139 C 0.75786 0.84056 0.22681 0.0
C140 C 0.75806 0.83213 0.21164 0.0
C141 C 0.74777 0.81852 0.20903 0.0
C142 C 0.71912 0.76579 0.18756 0.0
C143 C 0.7343 0.76537 0.17918 0.0
C144 C 0.03328 0.92419 0.51208 0.0
C145 C 0.02264 0.91142 0.50709 0.0
C146 C 0.0144 0.91277 0.49189 0.0
C147 C 0.01674 0.92663 0.48187 0.0
H148 H 0.99513 0.95263 0.44374 0.0
H149 H 0.97781 0.95696 0.41954 0.0
H150 H 0.00859 0.99797 0.40481 0.0
H151 H 0.02607 0.99359 0.42886 0.0
H152 H 0.05267 0.00716 0.45405 0.0
H153 H 0.07635 0.02513 0.45871 0.0
H154 H 0.09425 0.99195 0.49637 0.0
H155 H 0.07067 0.97384 0.49169 0.0
H156 H 0.04412 0.94754 0.5062 0.0
H157 H 0.03991 0.92341 0.52367 0.0
H158 H 0.006 0.90318 0.4878 0.0
H159 H 0.01019 0.92725 0.47023 0.0
N160 N 0.0203 0.95668 0.46281 0.0
N161 N 0.03557 0.98034 0.45608 0.0
N162 N 0.04292 0.96448 0.47913 0.0
C163 C 0.02285 0.96989 0.45279 0.0
C164 C 0.04566 0.97773 0.46922 0.0
C165 C 0.03026 0.9539 0.47602 0.0
C166 C 0.01205 0.97273 0.43827 0.0
C167 C 0.99823 0.96259 0.43537 0.0
C168 C 0.98822 0.96512 0.42155 0.0
C169 C 0.99185 0.97779 0.41026 0.0
C170 C 0.0056 0.98797 0.41318 0.0
C171 C 0.01556 0.9855 0.42704 0.0
C172 C 0.05976 0.98899 0.47245 0.0
C173 C 0.06161 0.00367 0.46336 0.0
C174 C 0.07514 0.01405 0.46609 0.0
C175 C 0.08717 0.00993 0.47788 0.0
C176 C 0.08526 0.99535 0.48707 0.0
C177 C 0.07168 0.98502 0.48443 0.0
C178 C 0.02751 0.93936 0.48678 0.0
C179 C 0.03575 0.93797 0.502 0.0
C180 C 0.23727 0.74346 0.83573 0.0
C181 C 0.2258 0.75575 0.84001 0.0
C182 C 0.21146 0.75749 0.83039 0.0
C183 C 0.20863 0.74716 0.81685 0.0
H184 H 0.17967 0.74251 0.77538 0.0
H185 H 0.15567 0.74698 0.75782 0.0
H186 H 0.16425 0.70013 0.73385 0.0
H187 H 0.18819 0.69551 0.75146 0.0
H188 H 0.22175 0.67706 0.75797 0.0
H189 H 0.23974 0.65352 0.75311 0.0
H190 H 0.26999 0.66805 0.7946 0.0
H191 H 0.25188 0.69143 0.79972 0.0
H192 H 0.24354 0.72377 0.81931 0.0
H193 H 0.24856 0.74194 0.84273 0.0
H194 H 0.20224 0.76666 0.83347 0.0
H195 H 0.19738 0.74881 0.80982 0.0
N196 N 0.2036 0.72613 0.78849 0.0
N197 N 0.21079 0.70297 0.77269 0.0
N198 N 0.2271 0.71073 0.79533 0.0
C199 C 0.20047 0.71586 0.77559 0.0
C200 C 0.22415 0.70033 0.78248 0.0
C201 C 0.21688 0.72365 0.79843 0.0
C202 C 0.1859 0.71864 0.76486 0.0
C203 C 0.17647 0.73313 0.76639 0.0
C204 C 0.16276 0.73576 0.75626 0.0
C205 C 0.15809 0.72391 0.74447 0.0
C206 C 0.16746 0.70941 0.74296 0.0
C207 C 0.18124 0.70682 0.753 0.0
C208 C 0.2353 0.68617 0.77928 0.0
C209 C 0.23223 0.67528 0.76608 0.0
C210 C 0.24261 0.66182 0.76321 0.0
C211 C 0.25629 0.6589 0.77348 0.0
C212 C 0.25942 0.66982 0.78661 0.0
C213 C 0.24906 0.6833 0.78947 0.0
C214 C 0.22004 0.73479 0.81263 0.0
C215 C 0.23442 0.73309 0.82223 0.0
C216 C 0.97934 0.59082 0.48973 0.0
C217 C 0.97433 0.59104 0.50638 0.0
C218 C 0.96697 0.57674 0.51301 0.0
C219 C 0.96452 0.56273 0.50323 0.0
H220 H 0.92645 0.52827 0.49164 0.0
H221 H 0.90283 0.51026 0.49647 0.0
H222 H 0.92292 0.47452 0.46241 0.0
H223 H 0.94663 0.49247 0.45754 0.0
H224 H 0.97522 0.50401 0.43332 0.0
H225 H 0.99312 0.49898 0.40973 0.0
H226 H 0.01661 0.5463 0.41743 0.0
H227 H 0.99902 0.55121 0.44123 0.0
H228 H 0.98112 0.57697 0.46727 0.0
H229 H 0.98473 0.60165 0.48403 0.0
H230 H 0.96328 0.57622 0.52584 0.0
H231 H 0.95883 0.55194 0.50874 0.0
N232 N 0.95484 0.53685 0.48001 0.0
N233 N 0.96243 0.5204 0.45743 0.0
N234 N 0.97699 0.54478 0.46314 0.0
C235 C 0.95236 0.52321 0.47055 0.0
C236 C 0.97479 0.53111 0.45365 0.0
C237 C 0.96713 0.54767 0.47638 0.0
C238 C 0.93844 0.51187 0.47414 0.0
C239 C 0.92593 0.51654 0.48524 0.0
C240 C 0.91233 0.50627 0.48795 0.0
C241 C 0.91101 0.49103 0.47976 0.0
C242 C 0.92368 0.48615 0.46898 0.0
C243 C 0.93721 0.4965 0.46613 0.0
C244 C 0.98565 0.52802 0.43923 0.0
C245 C 0.9842 0.51335 0.43002 0.0
C246 C 0.99442 0.51049 0.41642 0.0
C247 C 0.0063 0.52223 0.41167 0.0
C248 C 0.00776 0.53688 0.42088 0.0
C249 C 0.99758 0.53973 0.4345 0.0
C250 C 0.96965 0.56254 0.48668 0.0
C251 C 0.97717 0.57669 0.48005 0.0
C252 C 0.83626 0.76163 0.75509 0.0
C253 C 0.83902 0.77225 0.74165 0.0
C254 C 0.82776 0.78509 0.73867 0.0
C255 C 0.81409 0.78732 0.74895 0.0
H256 H 0.7766 0.81965 0.75868 0.0
H257 H 0.75873 0.84347 0.755 0.0
H258 H 0.72649 0.82525 0.79341 0.0
H259 H 0.74454 0.80162 0.79741 0.0
H260 H 0.755 0.77075 0.81813 0.0
H261 H 0.75096 0.75284 0.84192 0.0
H262 H 0.79667 0.72778 0.83087 0.0
H263 H 0.8009 0.74579 0.80719 0.0
H264 H 0.82087 0.7554 0.77559 0.0
H265 H 0.84459 0.75149 0.75759 0.0
H266 H 0.82964 0.79361 0.72854 0.0
H267 H 0.80574 0.79741 0.74632 0.0
N268 N 0.78643 0.79203 0.77094 0.0
N269 N 0.77067 0.78389 0.79379 0.0
N270 N 0.79416 0.76879 0.78632 0.0
C271 C 0.77327 0.79446 0.78103 0.0
C272 C 0.78105 0.77103 0.79653 0.0
C273 C 0.79693 0.77921 0.77346 0.0
C274 C 0.76208 0.8087 0.77839 0.0
C275 C 0.76568 0.82066 0.76633 0.0
C276 C 0.75538 0.83431 0.76415 0.0
C277 C 0.74118 0.8363 0.77393 0.0
C278 C 0.73747 0.82424 0.78585 0.0
C279 C 0.74779 0.81062 0.78807 0.0
C280 C 0.77831 0.75979 0.81073 0.0
C281 C 0.7642 0.76142 0.82072 0.0
C282 C 0.76182 0.75108 0.83432 0.0
C283 C 0.77351 0.73892 0.83829 0.0
C284 C 0.78754 0.73718 0.82825 0.0
C285 C 0.7899 0.74746 0.8146 0.0
C286 C 0.81134 0.77674 0.76245 0.0
C287 C 0.82258 0.76383 0.76536 0.0
C288 C 0.33273 0.26233 0.25299 0.0
C289 C 0.33672 0.27399 0.24078 0.0
C290 C 0.32652 0.28786 0.23879 0.0
C291 C 0.31272 0.29011 0.24888 0.0
H292 H 0.27155 0.31891 0.25434 0.0
H293 H 0.25394 0.34285 0.25032 0.0
H294 H 0.2289 0.3322 0.2962 0.0
H295 H 0.2462 0.30799 0.30006 0.0
H296 H 0.25312 0.27399 0.31774 0.0
H297 H 0.2487 0.25582 0.34124 0.0
H298 H 0.29334 0.2293 0.32916 0.0
H299 H 0.2976 0.24718 0.30544 0.0
H300 H 0.31637 0.25543 0.27252 0.0
H301 H 0.34044 0.25159 0.25493 0.0
H302 H 0.32915 0.29696 0.22935 0.0
H303 H 0.3052 0.301 0.24702 0.0
N304 N 0.28424 0.29428 0.26989 0.0
N305 N 0.26853 0.28649 0.29291 0.0
N306 N 0.29156 0.27082 0.28513 0.0
C307 C 0.27124 0.297 0.28012 0.0
C308 C 0.27862 0.27335 0.29549 0.0
C309 C 0.29446 0.28121 0.27229 0.0
C310 C 0.26034 0.31148 0.27755 0.0
C311 C 0.26227 0.32162 0.26358 0.0
C312 C 0.25223 0.33544 0.26131 0.0
C313 C 0.24003 0.3395 0.27296 0.0
C314 C 0.23802 0.32931 0.28687 0.0
C315 C 0.24803 0.31545 0.28912 0.0
C316 C 0.27575 0.2621 0.30966 0.0
C317 C 0.26199 0.26427 0.32004 0.0
C318 C 0.25949 0.2539 0.33359 0.0
C319 C 0.27069 0.24113 0.33713 0.0
C320 C 0.28435 0.23887 0.32668 0.0
C321 C 0.28685 0.24922 0.3131 0.0
C322 C 0.30883 0.27856 0.26126 0.0
C323 C 0.31897 0.2646 0.26314 0.0
C324 C 0.4872 0.91435 0.50724 0.0
C325 C 0.47647 0.91123 0.49396 0.0
C326 C 0.46306 0.92191 0.49136 0.0
C327 C 0.46032 0.93527 0.50192 0.0
H328 H 0.42811 0.97293 0.51059 0.0
H329 H 0.40459 0.99101 0.50607 0.0
H330 H 0.41748 0.01879 0.54978 0.0
H331 H 0.44119 0.00092 0.55421 0.0
H332 H 0.46744 0.98307 0.57978 0.0
H333 H 0.48524 0.98691 0.60366 0.0
H334 H 0.52486 0.962 0.57798 0.0
H335 H 0.50675 0.95746 0.55447 0.0
H336 H 0.49298 0.92968 0.52795 0.0
H337 H 0.49778 0.9065 0.50944 0.0
H338 H 0.45445 0.91974 0.48135 0.0
H339 H 0.44974 0.94311 0.49963 0.0
N340 N 0.4544 0.96209 0.52467 0.0
N341 N 0.46128 0.977 0.54852 0.0
N342 N 0.47783 0.95485 0.54 0.0
C343 C 0.45111 0.97457 0.53539 0.0
C344 C 0.47468 0.96722 0.55088 0.0
C345 C 0.46771 0.95215 0.52689 0.0
C346 C 0.43662 0.98544 0.53276 0.0
C347 C 0.42597 0.98287 0.51927 0.0
C348 C 0.4124 0.99319 0.51671 0.0
C349 C 0.40916 0.00634 0.52757 0.0
C350 C 0.41976 0.0089 0.54107 0.0
C351 C 0.43332 0.99857 0.54366 0.0
C352 C 0.48566 0.96992 0.56524 0.0
C353 C 0.47996 0.97842 0.57925 0.0
C354 C 0.49023 0.98071 0.59292 0.0
C355 C 0.50656 0.97479 0.59284 0.0
C356 C 0.51229 0.96645 0.5787 0.0
C357 C 0.50192 0.96392 0.56514 0.0
C358 C 0.47094 0.93829 0.51535 0.0
C359 C 0.48448 0.92772 0.5178 0.0
C360 C 0.23606 0.25611 0.66279 0.0
C361 C 0.22639 0.24186 0.66056 0.0
C362 C 0.21409 0.23816 0.67221 0.0
C363 C 0.21142 0.24854 0.68574 0.0
H364 H 0.18049 0.25556 0.72495 0.0
H365 H 0.15682 0.25101 0.74289 0.0
H366 H 0.16893 0.29528 0.77013 0.0
H367 H 0.19244 0.30005 0.75207 0.0
H368 H 0.22491 0.31961 0.74347 0.0
H369 H 0.24247 0.34372 0.74746 0.0
H370 H 0.2676 0.33306 0.70167 0.0
H371 H 0.24997 0.30907 0.69749 0.0
H372 H 0.24113 0.27735 0.67763 0.0
H373 H 0.24578 0.25919 0.65413 0.0
H374 H 0.20631 0.22737 0.67074 0.0
H375 H 0.20175 0.24534 0.6944 0.0
N376 N 0.2054 0.27107 0.71276 0.0
N377 N 0.21247 0.29463 0.72805 0.0
N378 N 0.2279 0.28738 0.70468 0.0
C379 C 0.20249 0.28132 0.72572 0.0
C380 C 0.22522 0.29774 0.71759 0.0
C381 C 0.21808 0.274 0.70218 0.0
C382 C 0.18839 0.27822 0.73699 0.0
C383 C 0.17816 0.26433 0.73477 0.0
C384 C 0.16462 0.26165 0.74513 0.0
C385 C 0.16097 0.2728 0.75791 0.0
C386 C 0.17128 0.28658 0.76024 0.0
C387 C 0.18483 0.28925 0.74992 0.0
C388 C 0.23598 0.31236 0.72014 0.0
C389 C 0.23416 0.32238 0.73422 0.0
C390 C 0.24429 0.33616 0.73658 0.0
C391 C 0.25642 0.3403 0.72488 0.0
C392 C 0.25824 0.33031 0.71081 0.0
C393 C 0.24817 0.31648 0.70848 0.0
C394 C 0.22104 0.26285 0.68795 0.0
C395 C 0.23344 0.26647 0.67634 0.0
C396 C 0.75466 0.16471 0.73816 0.0
C397 C 0.74259 0.16086 0.72629 0.0
C398 C 0.74104 0.17099 0.7123 0.0
C399 C 0.75137 0.18466 0.71019 0.0
H400 H 0.75665 0.22652 0.68247 0.0
H401 H 0.75243 0.24477 0.65903 0.0
H402 H 0.79823 0.26983 0.67021 0.0
H403 H 0.80229 0.25186 0.69392 0.0
H404 H 0.81974 0.24439 0.72807 0.0
H405 H 0.84344 0.24836 0.74614 0.0
H406 H 0.83223 0.20253 0.77097 0.0
H407 H 0.80861 0.19837 0.75281 0.0
H408 H 0.77429 0.18086 0.74536 0.0
H409 H 0.75626 0.15704 0.74899 0.0
H410 H 0.73173 0.16845 0.70304 0.0
H411 H 0.74981 0.19216 0.69924 0.0
N412 N 0.77226 0.21334 0.70676 0.0
N413 N 0.79537 0.22883 0.71479 0.0
N414 N 0.78763 0.20541 0.72996 0.0
C415 C 0.78251 0.22639 0.70429 0.0
C416 C 0.79801 0.21841 0.72767 0.0
C417 C 0.77471 0.2028 0.71956 0.0
C418 C 0.77984 0.23767 0.69012 0.0
C419 C 0.76584 0.23593 0.67998 0.0
C420 C 0.76345 0.24635 0.66646 0.0
C421 C 0.77502 0.25874 0.66269 0.0
C422 C 0.78896 0.26056 0.67288 0.0
C423 C 0.79133 0.25018 0.68645 0.0
C424 C 0.81224 0.22103 0.73892 0.0
C425 C 0.82227 0.23514 0.73738 0.0
C426 C 0.83582 0.23749 0.7478 0.0
C427 C 0.83971 0.22575 0.75997 0.0
C428 C 0.82966 0.21169 0.76158 0.0
C429 C 0.81605 0.20938 0.75122 0.0
C430 C 0.76356 0.18846 0.72198 0.0
C431 C 0.76506 0.17833 0.73601 0.0
C432 C 0.49035 0.53611 0.57665 0.0
C433 C 0.49162 0.52156 0.58603 0.0
C434 C 0.50357 0.50979 0.58161 0.0
C435 C 0.51411 0.51257 0.56823 0.0
H436 H 0.55319 0.49237 0.54299 0.0
H437 H 0.57654 0.4741 0.53848 0.0
H438 H 0.59766 0.50939 0.50447 0.0
H439 H 0.57406 0.52746 0.50857 0.0
H440 H 0.54894 0.55476 0.4938 0.0
H441 H 0.54512 0.57914 0.47659 0.0
H442 H 0.5076 0.5969 0.51001 0.0
H443 H 0.51145 0.57265 0.52734 0.0
H444 H 0.49959 0.5503 0.55643 0.0
H445 H 0.48145 0.54554 0.57985 0.0
H446 H 0.50472 0.49834 0.5884 0.0
H447 H 0.52318 0.50323 0.56522 0.0
N448 N 0.537 0.5198 0.54181 0.0
N449 N 0.54547 0.53631 0.51959 0.0
N450 N 0.52233 0.54383 0.53523 0.0
C451 C 0.54766 0.52273 0.52918 0.0
C452 C 0.53282 0.54691 0.5225 0.0
C453 C 0.52431 0.5303 0.54492 0.0
C454 C 0.56172 0.51143 0.52617 0.0
C455 C 0.56278 0.49624 0.53451 0.0
C456 C 0.57624 0.48578 0.532 0.0
C457 C 0.58905 0.49028 0.52117 0.0
C458 C 0.58792 0.50541 0.51272 0.0
C459 C 0.5744 0.51583 0.51515 0.0
C460 C 0.53052 0.56171 0.51199 0.0
C461 C 0.53989 0.56386 0.49752 0.0
C462 C 0.53764 0.57778 0.48759 0.0
C463 C 0.52607 0.58992 0.49195 0.0
C464 C 0.51674 0.58783 0.50642 0.0
C465 C 0.51889 0.57386 0.5163 0.0
C466 C 0.51292 0.52718 0.55892 0.0
C467 C 0.50085 0.53887 0.56325 0.0
C468 C 0.53344 0.42118 0.0105 0.0
C469 C 0.52432 0.40748 0.00498 0.0
C470 C 0.51785 0.40755 0.98889 0.0
C471 C 0.52038 0.42111 0.97853 0.0
H472 H 0.49692 0.44802 0.94121 0.0
H473 H 0.47927 0.45232 0.91731 0.0
H474 H 0.51228 0.49045 0.89981 0.0
H475 H 0.52969 0.48652 0.92395 0.0
H476 H 0.55447 0.50236 0.95074 0.0
H477 H 0.57775 0.52082 0.95566 0.0
H478 H 0.59596 0.48792 0.99341 0.0
H479 H 0.57278 0.46935 0.98849 0.0
H480 H 0.54333 0.44498 0.00466 0.0
H481 H 0.53865 0.42137 0.02282 0.0
H482 H 0.51068 0.39718 0.98439 0.0
H483 H 0.51521 0.42079 0.9662 0.0
N484 N 0.52282 0.4514 0.95946 0.0
N485 N 0.538 0.47505 0.95249 0.0
N486 N 0.54503 0.45979 0.97605 0.0
C487 C 0.52544 0.46441 0.9492 0.0
C488 C 0.54786 0.47283 0.96588 0.0
C489 C 0.53254 0.44903 0.97292 0.0
C490 C 0.51475 0.46693 0.93455 0.0
C491 C 0.50044 0.45733 0.93228 0.0
C492 C 0.49035 0.45973 0.9185 0.0
C493 C 0.49435 0.47172 0.9066 0.0
C494 C 0.50867 0.48128 0.90885 0.0
C495 C 0.51873 0.47895 0.92268 0.0
C496 C 0.56175 0.48432 0.96918 0.0
C497 C 0.5634 0.49904 0.96011 0.0
C498 C 0.57669 0.50969 0.96299 0.0
C499 C 0.58868 0.50579 0.97489 0.0
C500 C 0.587 0.49115 0.98403 0.0
C501 C 0.57364 0.48057 0.98126 0.0
C502 C 0.52964 0.43477 0.98398 0.0
C503 C 0.53618 0.43463 6e-05 0.0
C504 C 0.73819 0.2432 0.33673 0.0
C505 C 0.72638 0.25513 0.34112 0.0
C506 C 0.71203 0.25662 0.33146 0.0
C507 C 0.70956 0.24644 0.31774 0.0
H508 H 0.67818 0.23873 0.2789 0.0
H509 H 0.65467 0.24323 0.26071 0.0
H510 H 0.67291 0.20567 0.22756 0.0
H511 H 0.69655 0.20123 0.2456 0.0
H512 H 0.72915 0.1816 0.25485 0.0
H513 H 0.74686 0.15766 0.2505 0.0
H514 H 0.76676 0.16341 0.29964 0.0
H515 H 0.74907 0.18731 0.3041 0.0
H516 H 0.74508 0.22396 0.32003 0.0
H517 H 0.7495 0.24189 0.34373 0.0
H518 H 0.70256 0.26549 0.33463 0.0
H519 H 0.69832 0.2479 0.31065 0.0
N520 N 0.70591 0.22643 0.28836 0.0
N521 N 0.71385 0.20374 0.27224 0.0
N522 N 0.72894 0.21068 0.29596 0.0
C523 C 0.70342 0.21657 0.27501 0.0
C524 C 0.72661 0.20069 0.28269 0.0
C525 C 0.71868 0.22361 0.29887 0.0
C526 C 0.68929 0.21958 0.26376 0.0
C527 C 0.67726 0.23145 0.26771 0.0
C528 C 0.66371 0.23398 0.25734 0.0
C529 C 0.66192 0.22478 0.24274 0.0
C530 C 0.67403 0.21307 0.23866 0.0
C531 C 0.68754 0.21046 0.24907 0.0
C532 C 0.73765 0.18639 0.27984 0.0
C533 C 0.7373 0.17779 0.26474 0.0
C534 C 0.74751 0.16413 0.2622 0.0
C535 C 0.75815 0.15866 0.27474 0.0
C536 C 0.75855 0.16726 0.28981 0.0
C537 C 0.74848 0.18102 0.2923 0.0
C538 C 0.72133 0.23447 0.31338 0.0
C539 C 0.73568 0.23297 0.32306 0.0
C540 C 0.4857 0.08811 0.99489 0.0
C541 C 0.47555 0.0902 0.00882 0.0
C542 C 0.46303 0.07856 0.01186 0.0
C543 C 0.46052 0.06532 0.00109 0.0
H544 H 0.42471 0.03199 0.98735 0.0
H545 H 0.40083 0.01421 0.99126 0.0
H546 H 0.41987 0.98046 0.95456 0.0
H547 H 0.44349 0.99851 0.95025 0.0
H548 H 0.4665 0.02299 0.92078 0.0
H549 H 0.48451 0.01939 0.89708 0.0
H550 H 0.52605 0.03618 0.9263 0.0
H551 H 0.50768 0.04081 0.94959 0.0
H552 H 0.49115 0.07375 0.97342 0.0
H553 H 0.49534 0.09695 0.99207 0.0
H554 H 0.45517 0.07964 0.02262 0.0
H555 H 0.45068 0.05667 0.0038 0.0
N556 N 0.45392 0.03981 0.97711 0.0
N557 N 0.46103 0.02511 0.95321 0.0
N558 N 0.47773 0.04702 0.96231 0.0
C559 C 0.45068 0.02749 0.96619 0.0
C560 C 0.47458 0.0348 0.95123 0.0
C561 C 0.4674 0.04964 0.97526 0.0
C562 C 0.43605 0.0167 0.96848 0.0
C563 C 0.42382 0.02079 0.98008 0.0
C564 C 0.41014 0.01053 0.9824 0.0
C565 C 0.40842 0.99585 0.97327 0.0
C566 C 0.42064 0.99179 0.96163 0.0
C567 C 0.43426 0.00212 0.95922 0.0
C568 C 0.48569 0.03221 0.93701 0.0
C569 C 0.47949 0.02591 0.92209 0.0
C570 C 0.4899 0.02373 0.90852 0.0
C571 C 0.50686 0.02742 0.90964 0.0
C572 C 0.51304 0.03353 0.92473 0.0
C573 C 0.50254 0.03608 0.93818 0.0
C574 C 0.47051 0.06335 0.98702 0.0
C575 C 0.48323 0.07482 0.98414 0.0
Li576 Li 0.26666 0.88451 0.99728 0.0
Li577 Li 0.25372 0.86321 0.01444 0.0
Li578 Li 0.24991 0.86383 0.98442 0.0
Li579 Li 0.23684 0.88447 0.00214 0.0
C580 C 0.27691 0.84699 0.98923 0.0
N581 N 0.28791 0.81926 0.97269 0.0
C582 C 0.27553 0.83142 0.99654 0.0
C583 C 0.28397 0.84847 0.97355 0.0
C584 C 0.28116 0.81755 0.98797 0.0
C585 C 0.28941 0.83429 0.96537 0.0
C586 C 0.2582 0.88891 0.03472 0.0
C587 C 0.25025 0.88623 0.0633 0.0
N588 N 0.26574 0.89078 0.06795 0.0
C589 C 0.27403 0.89361 0.03978 0.0
C590 C 0.24619 0.88525 0.04656 0.0
C591 C 0.27759 0.89448 0.05664 0.0
C592 C 0.28426 0.91439 7e-05 0.0
N593 N 0.2854 0.89846 0.99492 0.0
C594 C 0.31286 0.90296 0.98522 0.0
C595 C 0.29936 0.89256 0.98776 0.0
C596 C 0.31201 0.91953 0.99028 0.0
C597 C 0.29752 0.9252 0.99791 0.0
H598 H 0.27297 0.91872 0.00572 0.0
H599 H 0.29997 0.87981 0.98391 0.0
C600 C 0.24468 0.83772 0.03643 0.0
N601 N 0.25646 0.84919 0.03307 0.0
C602 C 0.24641 0.8272 0.04998 0.0
C603 C 0.27232 0.84057 0.05639 0.0
C604 C 0.27027 0.85054 0.0425 0.0
C605 C 0.26031 0.82863 0.06034 0.0
H606 H 0.23402 0.83661 0.02848 0.0
H607 H 0.27968 0.85945 0.03928 0.0
C608 C 0.25412 0.90161 0.97311 0.0
N609 N 0.26649 0.92984 0.95846 0.0
C610 C 0.24776 0.91708 0.97734 0.0
C611 C 0.26672 0.9005 0.96137 0.0
C612 C 0.25418 0.93121 0.96979 0.0
C613 C 0.27284 0.91492 0.95413 0.0
C614 C 0.21648 0.85892 0.0025 0.0
C615 C 0.20745 0.85616 0.98804 0.0
C616 C 0.2082 0.86089 0.01751 0.0
C617 C 0.19023 0.85558 0.98883 0.0
C618 C 0.19096 0.86026 0.01777 0.0
N619 N 0.18241 0.85764 0.00355 0.0
C620 C 0.24294 0.83412 0.96775 0.0
C621 C 0.24824 0.85689 0.95015 0.0
C622 C 0.24074 0.82374 0.95417 0.0
N623 N 0.24672 0.85032 0.9655 0.0
C624 C 0.24618 0.84696 0.93621 0.0
C625 C 0.24238 0.83012 0.93811 0.0
H626 H 0.24164 0.8293 0.98014 0.0
H627 H 0.2511 0.86984 0.94872 0.0
C628 C 0.21628 0.90752 0.01853 0.0
N629 N 0.21786 0.89799 0.0048 0.0
C630 C 0.2025 0.91766 0.02049 0.0
C631 C 0.19229 0.90805 0.99411 0.0
C632 C 0.20635 0.89823 0.99258 0.0
C633 C 0.19026 0.91795 0.00821 0.0
H634 H 0.22577 0.90736 0.02789 0.0
H635 H 0.20817 0.89086 0.9816 0.0
O636 O 0.27114 0.86068 0.99727 0.0
O637 O 0.2545 0.88787 0.01827 0.0
O638 O 0.24829 0.88767 0.98066 0.0
O639 O 0.23333 0.85981 0.00195 0.0
H640 H 0.27006 0.83002 0.00864 0.0
H641 H 0.2849 0.86038 0.96759 0.0
H642 H 0.28011 0.80541 0.99345 0.0
H643 H 0.29475 0.83524 0.95316 0.0
H644 H 0.2411 0.88333 0.07259 0.0
H645 H 0.28351 0.89639 0.03081 0.0
H646 H 0.2339 0.88154 0.04286 0.0
H647 H 0.28981 0.89803 0.06074 0.0
H648 H 0.3239 0.89807 0.97948 0.0
H649 H 0.29634 0.93792 0.00187 0.0
H650 H 0.23702 0.81793 0.05212 0.0
H651 H 0.28315 0.8424 0.064 0.0
H652 H 0.2381 0.91821 0.98648 0.0
H653 H 0.27198 0.88866 0.95813 0.0
H654 H 0.24942 0.94326 0.973 0.0
H655 H 0.28269 0.91425 0.94515 0.0
H656 H 0.21365 0.85468 0.97631 0.0
H657 H 0.215 0.86301 0.02881 0.0
H658 H 0.18308 0.85354 0.97773 0.0
H659 H 0.18439 0.86187 0.02928 0.0
H660 H 0.23756 0.81091 0.95623 0.0
H661 H 0.24773 0.85238 0.92409 0.0
H662 H 0.20137 0.92508 0.03156 0.0
H663 H 0.18327 0.90814 0.98424 0.0
Li664 Li 0.1127 0.50243 0.26579 0.0
Li665 Li 0.13443 0.48579 0.25112 0.0
Li666 Li 0.13341 0.51541 0.24835 0.0
Li667 Li 0.11354 0.49874 0.23477 0.0
C668 C 0.15018 0.50962 0.27584 0.0
N669 N 0.17756 0.52532 0.2888 0.0
C670 C 0.16594 0.50579 0.26996 0.0
C671 C 0.14834 0.52136 0.28836 0.0
C672 C 0.17963 0.51389 0.27666 0.0
C673 C 0.16234 0.52918 0.29474 0.0
C674 C 0.10929 0.46557 0.25679 0.0
C675 C 0.11278 0.43667 0.25044 0.0
N676 N 0.10866 0.43278 0.26625 0.0
C677 C 0.10499 0.46127 0.27294 0.0
C678 C 0.1131 0.45316 0.24541 0.0
C679 C 0.10477 0.44463 0.27749 0.0
C680 C 0.08291 0.50717 0.28293 0.0
N681 N 0.09928 0.50408 0.28479 0.0
C682 C 0.09646 0.50337 0.31413 0.0
C683 C 0.10617 0.50205 0.29995 0.0
C684 C 0.07951 0.50681 0.31265 0.0
C685 C 0.07275 0.50865 0.29676 0.0
H686 H 0.07782 0.50868 0.27067 0.0
H687 H 0.11919 0.49932 0.30101 0.0
C688 C 0.15864 0.46233 0.24159 0.0
N689 N 0.1485 0.46722 0.25401 0.0
C690 C 0.16874 0.44852 0.24357 0.0
C691 C 0.15805 0.4453 0.27126 0.0
C692 C 0.14826 0.45924 0.26877 0.0
C693 C 0.16841 0.43973 0.25852 0.0
H694 H 0.15894 0.46915 0.23014 0.0
H695 H 0.14038 0.46368 0.27859 0.0
C696 C 0.10727 0.53571 0.24759 0.0
N697 N 0.10371 0.56965 0.24678 0.0
C698 C 0.11203 0.54462 0.23359 0.0
C699 C 0.10065 0.54408 0.26116 0.0
C700 C 0.11016 0.56176 0.23343 0.0
C701 C 0.09895 0.56124 0.26051 0.0
C702 C 0.13744 0.49735 0.2141 0.0
C703 C 0.13898 0.51128 0.204 0.0
C704 C 0.13501 0.48185 0.20689 0.0
C705 C 0.13804 0.50944 0.18687 0.0
C706 C 0.13409 0.48053 0.18971 0.0
N707 N 0.13562 0.49424 0.18014 0.0
C708 C 0.16025 0.53427 0.23656 0.0
C709 C 0.14472 0.54781 0.25729 0.0
C710 C 0.17056 0.54798 0.23492 0.0
N711 N 0.14735 0.53458 0.24728 0.0
C712 C 0.15473 0.56181 0.25608 0.0
C713 C 0.16772 0.56209 0.2446 0.0
H714 H 0.16257 0.52333 0.22929 0.0
H715 H 0.13481 0.54756 0.26619 0.0
C716 C 0.09112 0.48155 0.21417 0.0
N717 N 0.09944 0.49602 0.21598 0.0
C718 C 0.08103 0.47894 0.20043 0.0
C719 C 0.08809 0.50626 0.19074 0.0
C720 C 0.09795 0.50836 0.20472 0.0
C721 C 0.07947 0.49137 0.18843 0.0
H722 H 0.09227 0.47202 0.22341 0.0
H723 H 0.1046 0.51977 0.20641 0.0
O724 O 0.13661 0.50215 0.26912 0.0
O725 O 0.10984 0.48183 0.25219 0.0
O726 O 0.10895 0.5189 0.24801 0.0
O727 O 0.13804 0.49892 0.23094 0.0
H728 H 0.16754 0.49682 0.26019 0.0
H729 H 0.1362 0.52458 0.29292 0.0
H730 H 0.19189 0.51113 0.27218 0.0
H731 H 0.1611 0.53837 0.30436 0.0
H732 H 0.11583 0.42696 0.24179 0.0
H733 H 0.10195 0.47066 0.28192 0.0
H734 H 0.11646 0.45622 0.23286 0.0
H735 H 0.10154 0.44114 0.28997 0.0
H736 H 0.10214 0.50156 0.32609 0.0
H737 H 0.05981 0.5115 0.29503 0.0
H738 H 0.17653 0.44462 0.23343 0.0
H739 H 0.15766 0.43908 0.28308 0.0
H740 H 0.1175 0.53844 0.22312 0.0
H741 H 0.09697 0.53745 0.27214 0.0
H742 H 0.11393 0.56881 0.22273 0.0
H743 H 0.09389 0.56786 0.27094 0.0
H744 H 0.14059 0.52342 0.20929 0.0
H745 H 0.13364 0.47096 0.21446 0.0
H746 H 0.13913 0.52012 0.17893 0.0
H747 H 0.13212 0.46862 0.18399 0.0
H748 H 0.18073 0.54749 0.22625 0.0
H749 H 0.15211 0.57238 0.26383 0.0
H750 H 0.07438 0.46738 0.19934 0.0
H751 H 0.08745 0.51611 0.18174 0.0
Li752 Li 0.73302 0.61396 0.99825 0.0
Li753 Li 0.74538 0.63497 0.01636 0.0
Li754 Li 0.74965 0.63509 0.98566 0.0
Li755 Li 0.76378 0.61471 0.00272 0.0
C756 C 0.71217 0.63951 0.99791 0.0
N757 N 0.67813 0.64147 0.99716 0.0
C758 C 0.70343 0.64391 0.01213 0.0
C759 C 0.70361 0.6363 0.98326 0.0
C760 C 0.68622 0.64479 0.0115 0.0
C761 C 0.68639 0.63729 0.98315 0.0
C762 C 0.74698 0.60403 0.03442 0.0
C763 C 0.76284 0.59823 0.05896 0.0
N764 N 0.74944 0.59071 0.06575 0.0
C765 C 0.73342 0.59608 0.04157 0.0
C766 C 0.76186 0.60498 0.04312 0.0
C767 C 0.73489 0.5895 0.05745 0.0
C768 C 0.71445 0.58874 0.98294 0.0
N769 N 0.71447 0.59974 0.99562 0.0
C770 C 0.68783 0.59054 0.00436 0.0
C771 C 0.70162 0.60069 0.00637 0.0
C772 C 0.68741 0.57912 0.9913 0.0
C773 C 0.70098 0.57824 0.98055 0.0
H774 H 0.7249 0.5881 0.97469 0.0
H775 H 0.70207 0.60934 0.01652 0.0
C776 C 0.74603 0.66488 0.03363 0.0
N777 N 0.7422 0.64862 0.03525 0.0
C778 C 0.74389 0.67571 0.04689 0.0
C779 C 0.73394 0.65283 0.06325 0.0
C780 C 0.73611 0.6425 0.04963 0.0
C781 C 0.7378 0.66972 0.06201 0.0
H782 H 0.75068 0.66944 0.02197 0.0
H783 H 0.73281 0.62965 0.05058 0.0
C784 C 0.75441 0.60977 0.96556 0.0
N785 N 0.76124 0.60852 0.93216 0.0
C786 C 0.7703 0.60589 0.96011 0.0
C787 C 0.74194 0.61281 0.95402 0.0
C788 C 0.77352 0.60536 0.94317 0.0
C789 C 0.74566 0.61219 0.93719 0.0
C790 C 0.78041 0.64496 0.01007 0.0
C791 C 0.79222 0.65237 -0.00011 0.0
C792 C 0.7833 0.64392 0.02705 0.0
C793 C 0.80689 0.65825 0.00682 0.0
C794 C 0.79811 0.64996 0.03352 0.0
N795 N 0.80952 0.65691 0.02335 0.0
C796 C 0.73977 0.65857 0.96169 0.0
C797 C 0.76703 0.64845 0.95864 0.0
C798 C 0.74157 0.66843 0.94767 0.0
N799 N 0.75238 0.64879 0.96681 0.0
C800 C 0.76936 0.65805 0.94454 0.0
C801 C 0.75652 0.66823 0.93886 0.0
H802 H 0.72831 0.65875 0.96852 0.0
H803 H 0.77686 0.64057 0.96301 0.0
C804 C 0.78143 0.58629 0.01178 0.0
N805 N 0.78307 0.60157 0.00505 0.0
C806 C 0.79521 0.57617 0.0138 0.0
C807 C 0.81204 0.59745 0.00133 0.0
C808 C 0.79793 0.6072 -0.00034 0.0
C809 C 0.81078 0.58174 0.00859 0.0
H810 H 0.76938 0.58194 0.01557 0.0
H811 H 0.79883 0.61917 0.99389 0.0
O812 O 0.72901 0.63843 0.99832 0.0
O813 O 0.74571 0.61055 0.01887 0.0
O814 O 0.75108 0.61062 0.9821 0.0
O815 O 0.76594 0.6392 0.00345 0.0
H816 H 0.70985 0.64649 0.02355 0.0
H817 H 0.71017 0.63295 0.97214 0.0
H818 H 0.6793 0.64809 0.02243 0.0
H819 H 0.6796 0.63471 0.97193 0.0
H820 H 0.77428 0.59889 0.06583 0.0
H821 H 0.72186 0.59507 0.03498 0.0
H822 H 0.77262 0.61064 0.03765 0.0
H823 H 0.72446 0.58341 0.06316 0.0
H824 H 0.67772 0.59144 0.01306 0.0
H825 H 0.70109 0.56967 0.97028 0.0
H826 H 0.74676 0.68866 0.04519 0.0
H827 H 0.7294 0.64756 0.07467 0.0
H828 H 0.78007 0.60342 0.96887 0.0
H829 H 0.72956 0.61575 0.95803 0.0
H830 H 0.78579 0.60246 0.93878 0.0
H831 H 0.73616 0.61464 0.92813 0.0
H832 H 0.79012 0.6535 0.98675 0.0
H833 H 0.77414 0.6387 0.03521 0.0
H834 H 0.81618 0.66389 0.99905 0.0
H835 H 0.8005 0.64919 0.04664 0.0
H836 H 0.73144 0.67628 0.9439 0.0
H837 H 0.78101 0.65731 0.93804 0.0
H838 H 0.79364 0.56402 0.01916 0.0
H839 H 0.82381 0.60222 0.99716 0.0
Li840 Li 0.86615 0.01504 0.24978 0.0
Li841 Li 0.88785 0.99831 0.26271 0.0
Li842 Li 0.88655 0.00246 0.23324 0.0
Li843 Li 0.86585 0.98521 0.24689 0.0
C844 C 0.90415 0.02685 0.24469 0.0
N845 N 0.93253 0.04079 0.23177 0.0
C846 C 0.91966 0.02161 0.25012 0.0
C847 C 0.90309 0.03931 0.23279 0.0
C848 C 0.93386 0.02878 0.24343 0.0
C849 C 0.91757 0.04615 0.22637 0.0
C850 C 0.86003 0.98793 0.28027 0.0
C851 C 0.86489 0.96294 0.2957 0.0
N852 N 0.85258 0.96718 0.30629 0.0
C853 C 0.84742 0.99203 0.29129 0.0
C854 C 0.86884 0.97326 0.28246 0.0
C855 C 0.84385 0.98138 0.30438 0.0
C856 C 0.83591 0.03093 0.25587 0.0
N857 N 0.85226 0.03356 0.25312 0.0
C858 C 0.84849 0.06275 0.25448 0.0
C859 C 0.85871 0.04904 0.25255 0.0
C860 C 0.83153 0.06045 0.25726 0.0
C861 C 0.82526 0.04429 0.25804 0.0
H862 H 0.83117 0.01844 0.25624 0.0
H863 H 0.87178 0.05073 0.2505 0.0
C864 C 0.91447 0.98563 0.28132 0.0
N865 N 0.90129 0.99598 0.2817 0.0
C866 C 0.92435 0.98368 0.29531 0.0
C867 C 0.90676 0.00293 0.30984 0.0
C868 C 0.89729 0.00459 0.29553 0.0
C869 C 0.92051 0.99238 0.30983 0.0
H870 H 0.91733 0.97897 0.27013 0.0
H871 H 0.88669 0.01271 0.29543 0.0
C872 C 0.85115 0.01095 0.22061 0.0
N873 N 0.82807 0.02942 0.20356 0.0
C874 C 0.83621 0.00382 0.2157 0.0
C875 C 0.85449 0.02736 0.21646 0.0
C876 C 0.82466 0.01338 0.20717 0.0
C877 C 0.84263 0.03654 0.20797 0.0
C878 C 0.89364 0.96889 0.2344 0.0
C879 C 0.88464 0.96757 0.2197 0.0
C880 C 0.90617 0.95751 0.23772 0.0
C881 C 0.88831 0.95488 0.20862 0.0
C882 C 0.90946 0.94499 0.22632 0.0
N883 N 0.90054 0.94395 0.21212 0.0
C884 C 0.9158 0.99875 0.21484 0.0
C885 C 0.89391 0.01114 0.19994 0.0
C886 C 0.92618 -0.0001 0.20114 0.0
N887 N 0.90003 0.0044 0.21402 0.0
C888 C 0.90387 0.01262 0.18597 0.0
C889 C 0.92025 0.00695 0.18643 0.0
H890 H 0.92032 0.99332 0.22618 0.0
H891 H 0.88132 0.0154 0.19953 0.0
C892 C 0.83534 0.96879 0.24515 0.0
N893 N 0.85187 0.96623 0.24628 0.0
C894 C 0.8245 0.95541 0.24405 0.0
C895 C 0.8478 0.93699 0.24659 0.0
C896 C 0.8582 0.95072 0.24746 0.0
C897 C 0.83075 0.93926 0.24458 0.0
H898 H 0.83058 0.98125 0.2451 0.0
H899 H 0.87129 0.94893 0.24909 0.0
O900 O 0.89012 0.01963 0.2508 0.0
O901 O 0.86359 0.99823 0.26736 0.0
O902 O 0.86255 0.0018 0.22914 0.0
O903 O 0.89043 0.98129 0.24545 0.0
H904 H 0.92078 0.01197 0.25925 0.0
H905 H 0.89125 0.04358 0.22842 0.0
H906 H 0.94593 0.02476 0.24746 0.0
H907 H 0.91692 0.05572 0.21708 0.0
H908 H 0.87161 0.95155 0.29754 0.0
H909 H 0.84047 0.00333 0.28972 0.0
H910 H 0.87861 0.96984 0.27403 0.0
H911 H 0.83412 0.98441 0.31301 0.0
H912 H 0.85382 0.07502 0.25401 0.0
H913 H 0.81223 0.04202 0.26004 0.0
H914 H 0.93473 0.97528 0.29483 0.0
H915 H 0.90348 0.00998 0.32072 0.0
H916 H 0.83361 0.99098 0.21819 0.0
H917 H 0.86605 0.03302 0.21993 0.0
H918 H 0.81303 0.00802 0.20336 0.0
H919 H 0.84501 0.04932 0.20488 0.0
H920 H 0.8749 0.97619 0.21683 0.0
H921 H 0.91327 0.95831 0.24901 0.0
H922 H 0.88143 0.95373 0.19722 0.0
H923 H 0.91911 0.9361 0.22875 0.0
H924 H 0.93862 0.99512 0.20202 0.0
H925 H 0.89882 0.01832 0.17499 0.0
H926 H 0.81137 0.95767 0.24291 0.0
H927 H 0.8531 0.92473 0.24713 0.0
Li928 Li 0.24796 0.13551 0.51452 0.0
Li929 Li 0.23461 0.11468 0.49709 0.0
Li930 Li 0.26547 0.11446 0.50108 0.0
Li931 Li 0.25175 0.13502 0.48365 0.0
C932 C 0.2482 0.10633 0.53375 0.0
N933 N 0.24951 0.09646 0.5664 0.0
C934 C 0.23404 0.10032 0.54159 0.0
C935 C 0.26309 0.107 0.54245 0.0
C936 C 0.23493 0.09549 0.55812 0.0
C937 C 0.26349 0.10204 0.55896 0.0
C938 C 0.21469 0.14097 0.49534 0.0
C939 C 0.18962 0.13897 0.47938 0.0
N940 N 0.18084 0.14424 0.49269 0.0
C941 C 0.20545 0.14651 0.50881 0.0
C942 C 0.20675 0.13732 0.48045 0.0
C943 C 0.18834 0.14803 0.50724 0.0
C944 C 0.25407 0.16365 0.53416 0.0
N945 N 0.24549 0.14923 0.53345 0.0
C946 C 0.23308 0.15472 0.55965 0.0
C947 C 0.23498 0.14473 0.54574 0.0
C948 C 0.24199 0.16957 0.56087 0.0
C949 C 0.25258 0.17401 0.54786 0.0
H950 H 0.26208 0.16711 0.52406 0.0
H951 H 0.22782 0.13354 0.54461 0.0
C952 C 0.21527 0.0894 0.48292 0.0
N953 N 0.21557 0.10106 0.495 0.0
C954 C 0.20148 0.07923 0.48097 0.0
C955 C 0.18858 0.09321 0.50397 0.0
C956 C 0.20267 0.10302 0.50555 0.0
C957 C 0.18788 0.08111 0.49156 0.0
H958 H 0.22576 0.08799 0.4748 0.0
H959 H 0.20333 0.1122 0.51521 0.0
C960 C 0.28385 0.14381 0.50605 0.0
N961 N 0.31505 0.15377 0.51573 0.0
C962 C 0.29486 0.15035 0.49448 0.0
C963 C 0.28862 0.14262 0.5226 0.0
C964 C 0.31061 0.15524 0.4996 0.0
C965 C 0.30446 0.14765 0.52723 0.0
C966 C 0.25571 0.1086 0.46423 0.0
C967 C 0.27153 0.10402 0.45911 0.0
C968 C 0.24336 0.11119 0.45247 0.0
C969 C 0.27481 0.10239 0.44225 0.0
C970 C 0.24713 0.10946 0.43572 0.0
N971 N 0.26265 0.10515 0.431 0.0
C972 C 0.28199 0.08582 0.51129 0.0
C973 C 0.29938 0.10532 0.49811 0.0
C974 C 0.2953 0.0752 0.5138 0.0
N975 N 0.28428 0.10064 0.50376 0.0
C976 C 0.31305 0.09509 0.50037 0.0
C977 C 0.31112 0.07983 0.50838 0.0
H978 H 0.26979 0.08228 0.51542 0.0
H979 H 0.3008 0.11687 0.49164 0.0
C980 C 0.24215 0.15941 0.46072 0.0
N981 N 0.25424 0.14842 0.46449 0.0
C982 C 0.2435 0.16935 0.44671 0.0
C983 C 0.26979 0.15658 0.44077 0.0
C984 C 0.26795 0.14694 0.45494 0.0
C985 C 0.25745 0.16798 0.4365 0.0
H986 H 0.23146 0.16049 0.46861 0.0
H987 H 0.27751 0.13829 0.45834 0.0
O988 O 0.24752 0.11112 0.51755 0.0
O989 O 0.23144 0.13922 0.49671 0.0
O990 O 0.2684 0.13891 0.50121 0.0
O991 O 0.25233 0.11043 0.48069 0.0
H992 H 0.22246 0.09949 0.53502 0.0
H993 H 0.27429 0.11109 0.53648 0.0
H994 H 0.22403 0.09094 0.56436 0.0
H995 H 0.27493 0.10254 0.56583 0.0
H996 H 0.1833 0.13607 0.46797 0.0
H997 H 0.21139 0.14955 0.52037 0.0
H998 H 0.21372 0.13317 0.46987 0.0
H999 H 0.18102 0.15222 0.5176 0.0
H1000 H 0.22447 0.151 0.56917 0.0
H1001 H 0.25976 0.18529 0.5483 0.0
H1002 H 0.20139 0.07012 0.47117 0.0
H1003 H 0.17846 0.0949 0.51254 0.0
H1004 H 0.29134 0.15158 0.48167 0.0
H1005 H 0.28012 0.1381 0.53181 0.0
H1006 H 0.31929 0.16021 0.49075 0.0
H1007 H 0.3083 0.14676 0.54 0.0
H1008 H 0.28121 0.10185 0.46803 0.0
H1009 H 0.23101 0.11455 0.45622 0.0
H1010 H 0.28702 0.09896 0.4381 0.0
H1011 H 0.23771 0.11154 0.42648 0.0
H1012 H 0.29326 0.06359 0.52012 0.0
H1013 H 0.32494 0.09899 0.49567 0.0
H1014 H 0.23364 0.17789 0.44381 0.0
H1015 H 0.28086 0.1553 0.4334 0.0
Li1016 Li 0.38549 0.4982 0.76306 0.0
Li1017 Li 0.365 0.51481 0.7505 0.0
Li1018 Li 0.36424 0.48527 0.74707 0.0
Li1019 Li 0.38534 0.50255 0.73215 0.0
C1020 C 0.36232 0.496 0.78442 0.0
N1021 N 0.36536 0.49225 0.81823 0.0
C1022 C 0.36112 0.50972 0.79485 0.0
C1023 C 0.36503 0.48038 0.79122 0.0
C1024 C 0.36267 0.50756 0.8119 0.0
C1025 C 0.36656 0.47874 0.80833 0.0
C1026 C 0.39078 0.53558 0.75066 0.0
C1027 C 0.39807 0.56136 0.73763 0.0
N1028 N 0.39375 0.56957 0.75163 0.0
C1029 C 0.38647 0.54428 0.76494 0.0
C1030 C 0.39666 0.54418 0.7369 0.0
C1031 C 0.38802 0.56146 0.76517 0.0
C1032 C 0.40864 0.48092 0.78264 0.0
N1033 N 0.40021 0.49535 0.78131 0.0
C1034 C 0.41242 0.50539 0.80625 0.0
C1035 C 0.40206 0.50758 0.79266 0.0
C1036 C 0.42117 0.49053 0.80808 0.0
C1037 C 0.41922 0.47822 0.79598 0.0
H1038 H 0.4072 0.47149 0.77332 0.0
H1039 H 0.39532 0.51896 0.79134 0.0
C1040 C 0.33818 0.53263 0.76361 0.0
N1041 N 0.35072 0.53361 0.75252 0.0
C1042 C 0.32749 0.54593 0.76586 0.0
C1043 C 0.34224 0.56075 0.74458 0.0
C1044 C 0.35266 0.54715 0.74276 0.0
C1045 C 0.32957 0.56032 0.75641 0.0
H1046 H 0.3364 0.52146 0.77068 0.0
H1047 H 0.36229 0.54742 0.73355 0.0
C1048 C 0.38938 0.46555 0.74019 0.0
N1049 N 0.39008 0.43298 0.72998 0.0
C1050 C 0.39328 0.46166 0.72383 0.0
C1051 C 0.38599 0.45285 0.75139 0.0
C1052 C 0.39354 0.44512 0.7189 0.0
C1053 C 0.38635 0.43648 0.74597 0.0
C1054 C 0.34753 0.5094 0.72333 0.0
C1055 C 0.33199 0.50525 0.72957 0.0
C1056 C 0.34891 0.5214 0.71102 0.0
C1057 C 0.31803 0.51331 0.72343 0.0
C1058 C 0.33466 0.52917 0.70521 0.0
N1059 N 0.31965 0.525 0.71149 0.0
C1060 C 0.34028 0.46166 0.75681 0.0
C1061 C 0.34993 0.45895 0.72932 0.0
C1062 C 0.32991 0.44802 0.7548 0.0
N1063 N 0.35017 0.46667 0.74422 0.0
C1064 C 0.33981 0.44522 0.72679 0.0
C1065 C 0.32964 0.43954 0.73965 0.0
H1066 H 0.34029 0.46834 0.76835 0.0
H1067 H 0.35767 0.46345 0.71941 0.0
C1068 C 0.41475 0.5077 0.71469 0.0
N1069 N 0.39834 0.50472 0.71291 0.0
C1070 C 0.42482 0.50926 0.70081 0.0
C1071 C 0.40093 0.5044 0.68354 0.0
C1072 C 0.39131 0.50299 0.69778 0.0
C1073 C 0.41794 0.50761 0.68494 0.0
H1074 H 0.41996 0.50897 0.72693 0.0
H1075 H 0.37826 0.50034 0.69679 0.0
O1076 O 0.36114 0.49789 0.76765 0.0
O1077 O 0.3894 0.51874 0.75018 0.0
O1078 O 0.38882 0.4817 0.74519 0.0
O1079 O 0.36135 0.50197 0.7295 0.0
H1080 H 0.35929 0.52196 0.78987 0.0
H1081 H 0.36614 0.46964 0.78338 0.0
H1082 H 0.36185 0.51809 0.82009 0.0
H1083 H 0.36876 0.46673 0.81372 0.0
H1084 H 0.40255 0.56817 0.72705 0.0
H1085 H 0.38159 0.53791 0.77558 0.0
H1086 H 0.39998 0.5377 0.72571 0.0
H1087 H 0.3846 0.56835 0.77609 0.0
H1088 H 0.41335 0.51515 0.81535 0.0
H1089 H 0.42594 0.4667 0.79668 0.0
H1090 H 0.3176 0.54488 0.77479 0.0
H1091 H 0.34429 0.57156 0.737 0.0
H1092 H 0.39599 0.47127 0.71499 0.0
H1093 H 0.38295 0.45561 0.76408 0.0
H1094 H 0.39647 0.44194 0.70626 0.0
H1095 H 0.38363 0.42655 0.75448 0.0
H1096 H 0.33074 0.49606 0.73919 0.0
H1097 H 0.36088 0.52486 0.70619 0.0
H1098 H 0.30593 0.5103 0.72821 0.0
H1099 H 0.33554 0.53856 0.69575 0.0
H1100 H 0.32199 0.44435 0.76493 0.0
H1101 H 0.3401 0.43903 0.71494 0.0
H1102 H 0.43781 0.51195 0.70249 0.0
H1103 H 0.39515 0.50275 0.6716 0.0
Li1104 Li 0.76489 0.38461 0.49832 0.0
Li1105 Li 0.75223 0.36369 0.51595 0.0
Li1106 Li 0.74886 0.36288 0.48596 0.0
Li1107 Li 0.73504 0.38376 0.50269 0.0
C1108 C 0.7861 0.36005 0.49862 0.0
N1109 N 0.82021 0.36066 0.49864 0.0
C1110 C 0.79482 0.35704 0.5132 0.0
C1111 C 0.79473 0.36328 0.48402 0.0
C1112 C 0.81207 0.3574 0.51296 0.0
C1113 C 0.81197 0.36359 0.4843 0.0
C1114 C 0.74662 0.40139 0.52695 0.0
C1115 C 0.72712 0.41417 0.54546 0.0
N1116 N 0.73309 0.42928 0.54117 0.0
C1117 C 0.75258 0.41704 0.52274 0.0
C1118 C 0.73382 0.39992 0.53843 0.0
C1119 C 0.74558 0.43099 0.53008 0.0
C1120 C 0.7856 0.40775 0.48208 0.0
N1121 N 0.78357 0.39863 0.49602 0.0
C1122 C 0.80877 0.40909 0.50726 0.0
C1123 C 0.79465 0.39931 0.50861 0.0
C1124 C 0.81131 0.41851 0.49294 0.0
C1125 C 0.79946 0.41787 0.48029 0.0
H1126 H 0.77647 0.40719 0.47238 0.0
H1127 H 0.79251 0.39217 0.51969 0.0
C1128 C 0.75959 0.33432 0.53294 0.0
N1129 N 0.75539 0.35042 0.53503 0.0
C1130 C 0.76168 0.32405 0.54661 0.0
C1131 C 0.75531 0.34722 0.56434 0.0
C1132 C 0.75337 0.35703 0.55031 0.0
C1133 C 0.75948 0.33046 0.56259 0.0
H1134 H 0.7613 0.32946 0.52061 0.0
H1135 H 0.75017 0.3699 0.55162 0.0
C1136 C 0.74319 0.38731 0.4655 0.0
N1137 N 0.73455 0.38637 0.4325 0.0
C1138 C 0.7268 0.38985 0.46075 0.0
C1139 C 0.7552 0.38438 0.45346 0.0
C1140 C 0.72268 0.38933 0.444 0.0
C1141 C 0.75058 0.38391 0.43685 0.0
C1142 C 0.72577 0.34604 0.51089 0.0
C1143 C 0.72794 0.33043 0.50384 0.0
C1144 C 0.71821 0.34744 0.52635 0.0
C1145 C 0.72253 0.31647 0.51241 0.0
C1146 C 0.71302 0.33318 0.53454 0.0
N1147 N 0.71527 0.31811 0.52746 0.0
C1148 C 0.75946 0.34017 0.46144 0.0
C1149 C 0.73123 0.34776 0.46012 0.0
C1150 C 0.75765 0.33003 0.44761 0.0
N1151 N 0.74637 0.34887 0.46728 0.0
C1152 C 0.7289 0.33789 0.44619 0.0
C1153 C 0.74222 0.32887 0.43975 0.0
H1154 H 0.77129 0.34109 0.46752 0.0
H1155 H 0.72098 0.35459 0.46525 0.0
C1156 C 0.71651 0.41298 0.49934 0.0
N1157 N 0.7158 0.39704 0.50457 0.0
C1158 C 0.70277 0.42324 0.50091 0.0
C1159 C 0.68781 0.40045 0.51313 0.0
C1160 C 0.7018 0.39061 0.51121 0.0
C1161 C 0.68821 0.41701 0.50798 0.0
H1162 H 0.72783 0.41772 0.49406 0.0
H1163 H 0.70151 0.37786 0.51505 0.0
O1164 O 0.76921 0.36003 0.49866 0.0
O1165 O 0.75303 0.3876 0.51959 0.0
O1166 O 0.74742 0.38746 0.48186 0.0
O1167 O 0.7313 0.35984 0.50285 0.0
H1168 H 0.78837 0.35463 0.52464 0.0
H1169 H 0.78819 0.36578 0.47265 0.0
H1170 H 0.81897 0.35517 0.52417 0.0
H1171 H 0.81881 0.3662 0.47312 0.0
H1172 H 0.71711 0.41323 0.55425 0.0
H1173 H 0.76239 0.41843 0.5138 0.0
H1174 H 0.72887 0.38793 0.54163 0.0
H1175 H 0.75003 0.44318 0.5269 0.0
H1176 H 0.8175 0.40945 0.5174 0.0
H1177 H 0.801 0.42493 0.46904 0.0
H1178 H 0.76517 0.3113 0.54467 0.0
H1179 H 0.75333 0.35265 0.5764 0.0
H1180 H 0.71732 0.39201 0.46989 0.0
H1181 H 0.76792 0.38225 0.45693 0.0
H1182 H 0.71004 0.39119 0.44015 0.0
H1183 H 0.75973 0.38153 0.42742 0.0
H1184 H 0.73387 0.32907 0.49196 0.0
H1185 H 0.7167 0.35939 0.53213 0.0
H1186 H 0.72418 0.30431 0.50712 0.0
H1187 H 0.70729 0.33407 0.54657 0.0
H1188 H 0.76825 0.32333 0.44299 0.0
H1189 H 0.71674 0.33713 0.44066 0.0
H1190 H 0.70363 0.43597 0.49691 0.0
H1191 H 0.67674 0.39512 0.51842 0.0
Li1192 Li 0.63698 0.98393 0.75434 0.0
Li1193 Li 0.61604 0.00193 0.76685 0.0
Li1194 Li 0.61644 0.99724 0.73592 0.0
Li1195 Li 0.63709 0.01446 0.74987 0.0
C1196 C 0.60595 0.96583 0.75472 0.0
N1197 N 0.59203 0.93467 0.75589 0.0
C1198 C 0.60057 0.95928 0.76976 0.0
C1199 C 0.60394 0.95664 0.74023 0.0
C1200 C 0.59366 0.94347 0.77011 0.0
C1201 C 0.59695 0.94089 0.74109 0.0
C1202 C 0.64265 0.00375 0.78723 0.0
C1203 C 0.64065 0.02009 0.81206 0.0
N1204 N 0.64681 0.00724 0.82092 0.0
C1205 C 0.64906 0.99074 0.79656 0.0
C1206 C 0.63851 0.01859 0.795 0.0
C1207 C 0.65104 0.99273 0.81359 0.0
C1208 C 0.66519 0.96405 0.74985 0.0
N1209 N 0.65031 0.96484 0.75757 0.0
C1210 C 0.65468 0.9384 0.76989 0.0
C1211 C 0.64505 0.9525 0.76765 0.0
C1212 C 0.66991 0.93704 0.76172 0.0
C1213 C 0.67518 0.95014 0.75165 0.0
H1214 H 0.66932 0.97424 0.74228 0.0
H1215 H 0.63346 0.95364 0.77409 0.0
C1216 C 0.58868 0.01509 0.78361 0.0
N1217 N 0.60172 0.00467 0.78531 0.0
C1218 C 0.57783 0.01762 0.79676 0.0
C1219 C 0.59413 0.99881 0.81321 0.0
C1220 C 0.60442 0.99633 0.79963 0.0
C1221 C 0.58066 0.00955 0.81181 0.0
H1222 H 0.5867 0.02141 0.77202 0.0
H1223 H 0.61456 0.98774 0.80053 0.0
C1224 C 0.64657 0.989 0.71955 0.0
N1225 N 0.65803 0.97368 0.69131 0.0
C1226 C 0.65623 0.99777 0.70825 0.0
C1227 C 0.64286 0.97242 0.71656 0.0
C1228 C 0.66187 0.98981 0.69402 0.0
C1229 C 0.64874 0.96489 0.7022 0.0
C1230 C 0.61159 0.03427 0.74462 0.0
C1231 C 0.60901 0.03901 0.72823 0.0
C1232 C 0.61316 0.04632 0.75687 0.0
C1233 C 0.6083 0.05579 0.72433 0.0
C1234 C 0.61241 0.06298 0.75247 0.0
N1235 N 0.61003 0.06733 0.73643 0.0
C1236 C 0.58654 0.99137 0.7197 0.0
C1237 C 0.60893 0.996 0.70143 0.0
C1238 C 0.57575 0.98922 0.70641 0.0
N1239 N 0.60279 0.99457 0.71699 0.0
C1240 C 0.59865 0.99367 0.68779 0.0
C1241 C 0.58185 0.99022 0.69022 0.0
H1242 H 0.58199 0.99044 0.73223 0.0
H1243 H 0.62174 0.99907 0.69953 0.0
C1244 C 0.66006 0.03898 0.75967 0.0
N1245 N 0.65076 0.03333 0.74689 0.0
C1246 C 0.66993 0.05298 0.75773 0.0
C1247 C 0.66064 0.05497 0.72943 0.0
C1248 C 0.65101 0.04087 0.73191 0.0
C1249 C 0.67026 0.06124 0.74247 0.0
H1250 H 0.65992 0.03256 0.77134 0.0
H1251 H 0.64364 0.03599 0.7219 0.0
O1252 O 0.61257 0.98138 0.75415 0.0
O1253 O 0.64055 0.00197 0.77056 0.0
O1254 O 0.64088 0.99668 0.73348 0.0
O1255 O 0.61259 0.01791 0.74863 0.0
H1256 H 0.60186 0.96626 0.78106 0.0
H1257 H 0.60755 0.96166 0.72841 0.0
H1258 H 0.58958 0.9382 0.78168 0.0
H1259 H 0.59538 0.93363 0.72998 0.0
H1260 H 0.63739 0.03147 0.81825 0.0
H1261 H 0.65244 0.97921 0.79073 0.0
H1262 H 0.63355 0.02878 0.78796 0.0
H1263 H 0.65593 0.98275 0.82097 0.0
H1264 H 0.65015 0.92859 0.77777 0.0
H1265 H 0.68699 0.94974 0.7454 0.0
H1266 H 0.5675 0.02597 0.79531 0.0
H1267 H 0.59651 0.99224 0.82461 0.0
H1268 H 0.65929 0.0106 0.71042 0.0
H1269 H 0.63569 0.96538 0.72532 0.0
H1270 H 0.66931 0.99646 0.68514 0.0
H1271 H 0.64596 0.95206 0.69974 0.0
H1272 H 0.60774 0.02982 0.7186 0.0
H1273 H 0.61501 0.04284 0.76963 0.0
H1274 H 0.60643 0.05965 0.71168 0.0
H1275 H 0.61371 0.07245 0.76181 0.0
H1276 H 0.56286 0.98654 0.70875 0.0
H1277 H 0.60372 0.99481 0.67546 0.0
H1278 H 0.6774 0.05714 0.76802 0.0
H1279 H 0.66038 0.06099 0.7175 0.0
Li1280 Li 0.0161 0.25123 0.86591 0.0
Li1281 Li -0.00039 0.2653 0.88564 0.0
Li1282 Li 0.00314 0.23422 0.88705 0.0
Li1283 Li 0.98648 0.24854 0.86507 0.0
C1284 C 0.03652 0.25279 0.89219 0.0
N1285 N 0.07038 0.25434 0.89615 0.0
C1286 C 0.04523 0.26685 0.88724 0.0
C1287 C 0.04505 0.23952 0.89918 0.0
C1288 C 0.06235 0.26739 0.88932 0.0
C1289 C 0.06216 0.24055 0.90108 0.0
C1290 C 0.99857 0.28546 0.861 0.0
C1291 C 0.9825 0.31039 0.86361 0.0
N1292 N 0.9964 0.31953 0.86126 0.0
C1293 C 0.0127 0.29512 0.85861 0.0
C1294 C 0.98334 0.29317 0.86348 0.0
C1295 C 0.01134 0.31232 0.85877 0.0
C1296 C 0.03376 0.26178 0.83795 0.0
N1297 N 0.03504 0.25216 0.85164 0.0
C1298 C 0.06256 0.24448 0.8442 0.0
C1299 C 0.04892 0.24321 0.85465 0.0
C1300 C 0.06182 0.2549 0.83036 0.0
C1301 C 0.04708 0.26343 0.82716 0.0
H1302 H 0.02235 0.26819 0.8354 0.0
H1303 H 0.04946 0.23508 0.86519 0.0
C1304 C 0.98301 0.28593 0.9084 0.0
N1305 N 0.99707 0.28438 0.89938 0.0
C1306 C 0.98051 0.29981 0.91832 0.0
C1307 C 0.00709 0.31021 0.90965 0.0
C1308 C 0.00911 0.29609 0.89999 0.0
C1309 C 0.99263 0.31224 0.91899 0.0
H1310 H 0.97374 0.27635 0.90796 0.0
H1311 H 0.0202 0.29461 0.89281 0.0
C1312 C 0.0113 0.22256 0.85105 0.0
N1313 N 0.02924 0.20725 0.82644 0.0
C1314 C 0.00808 0.22614 0.83449 0.0
C1315 C 0.02356 0.21114 0.85512 0.0
C1316 C 0.01732 0.21828 0.82222 0.0
C1317 C 0.03251 0.20354 0.8425 0.0
C1318 C 0.96629 0.24377 0.89026 0.0
C1319 C 0.96159 0.22773 0.89459 0.0
C1320 C 0.95418 0.25543 0.8864 0.0
C1321 C 0.94484 0.22357 0.89477 0.0
C1322 C 0.93757 0.25078 0.88669 0.0
N1323 N 0.93328 0.23507 0.89083 0.0
C1324 C 0.00864 0.21717 0.91691 0.0
C1325 C 0.00165 0.20027 0.89402 0.0
C1326 C 0.01012 0.20331 0.92705 0.0
N1327 N 0.00465 0.21537 0.90071 0.0
C1328 C 0.00293 0.18609 0.90371 0.0
C1329 C 0.00735 0.18748 0.92045 0.0
H1330 H 0.01088 0.22938 0.92187 0.0
H1331 H 0.99822 0.19927 0.88115 0.0
C1332 C 0.96271 0.25785 0.84107 0.0
N1333 N 0.96784 0.24546 0.85112 0.0
C1334 C 0.94883 0.25572 0.83106 0.0
C1335 C 0.94605 0.22795 0.84163 0.0
C1336 C 0.96002 0.2306 0.85138 0.0
C1337 C 0.94022 0.24064 0.83134 0.0
H1338 H 0.96943 0.26937 0.84073 0.0
H1339 H 0.96457 0.22086 0.85929 0.0
O1340 O 0.01974 0.25203 0.89036 0.0
O1341 O -0.00034 0.26858 0.86109 0.0
O1342 O 0.00268 0.23042 0.86323 0.0
O1343 O 0.98265 0.24799 0.88971 0.0
H1344 H 0.03894 0.27707 0.88148 0.0
H1345 H 0.03856 0.22849 0.90298 0.0
H1346 H 0.06925 0.27815 0.88542 0.0
H1347 H 0.06891 0.23035 0.90643 0.0
H1348 H 0.9708 0.3165 0.86561 0.0
H1349 H 0.02464 0.28946 0.85691 0.0
H1350 H 0.9723 0.28594 0.86548 0.0
H1351 H 0.02218 0.31992 0.85701 0.0
H1352 H 0.07365 0.23763 0.84711 0.0
H1353 H 0.0458 0.27123 0.81638 0.0
H1354 H 0.9693 0.30068 0.92554 0.0
H1355 H 0.01668 0.31953 0.90959 0.0
H1356 H 0.99866 0.23501 0.83117 0.0
H1357 H 0.02631 0.20838 0.86791 0.0
H1358 H 0.01503 0.22099 0.80934 0.0
H1359 H 0.04211 0.19476 0.84546 0.0
H1360 H 0.97075 0.21855 0.89766 0.0
H1361 H 0.95756 0.26789 0.88305 0.0
H1362 H 0.94104 0.21118 0.89801 0.0
H1363 H 0.92809 0.25965 0.88361 0.0
H1364 H 0.01371 0.20497 0.93983 0.0
H1365 H 0.00037 0.17419 0.89817 0.0
H1366 H 0.94503 0.26571 0.82305 0.0
H1367 H 0.93976 0.21616 0.84235 0.0
Li1368 Li 0.51509 0.75272 0.36533 0.0
Li1369 Li 0.49757 0.76643 0.38581 0.0
Li1370 Li 0.50218 0.73563 0.38604 0.0
Li1371 Li 0.48433 0.74823 0.36513 0.0
C1372 C 0.53469 0.75733 0.39148 0.0
N1373 N 0.5679 0.76459 0.39444 0.0
C1374 C 0.53975 0.77321 0.39597 0.0
C1375 C 0.54651 0.74508 0.38873 0.0
C1376 C 0.55661 0.77665 0.39735 0.0
C1377 C 0.56324 0.74901 0.39022 0.0
C1378 C 0.49167 0.784 0.35613 0.0
C1379 C 0.46961 0.80355 0.352 0.0
N1380 N 0.4806 0.81447 0.3455 0.0
C1381 C 0.5027 0.79533 0.3492 0.0
C1382 C 0.47496 0.78807 0.35737 0.0
C1383 C 0.49689 0.8107 0.34399 0.0
C1384 C 0.53824 0.74345 0.34097 0.0
N1385 N 0.53404 0.75557 0.35178 0.0
C1386 C 0.55702 0.77199 0.34323 0.0
C1387 C 0.54302 0.76971 0.35299 0.0
C1388 C 0.56174 0.75965 0.33197 0.0
C1389 C 0.55212 0.74523 0.33091 0.0
H1390 H 0.53074 0.73245 0.34005 0.0
H1391 H 0.53931 0.77923 0.36158 0.0
C1392 C 0.48741 0.78381 0.41412 0.0
N1393 N 0.49489 0.78556 0.3992 0.0
C1394 C 0.48527 0.79745 0.42444 0.0
C1395 C 0.49889 0.81441 0.404 0.0
C1396 C 0.50077 0.80043 0.3941 0.0
C1397 C 0.49102 0.81304 0.4194 0.0
H1398 H 0.48311 0.77178 0.41801 0.0
H1399 H 0.50721 0.80141 0.38248 0.0
C1400 C 0.50396 0.7153 0.35995 0.0
N1401 N 0.5069 0.68144 0.35701 0.0
C1402 C 0.49048 0.70581 0.35482 0.0
C1403 C 0.51901 0.70759 0.36334 0.0
C1404 C 0.49219 0.6887 0.35346 0.0
C1405 C 0.52023 0.69045 0.36186 0.0
C1406 C 0.46533 0.74862 0.39457 0.0
C1407 C 0.45782 0.7344 0.40087 0.0
C1408 C 0.45637 0.76333 0.39384 0.0
C1409 C 0.44135 0.73504 0.40592 0.0
C1410 C 0.43993 0.76349 0.39903 0.0
N1411 N 0.43281 0.74944 0.40488 0.0
C1412 C 0.51716 0.71683 0.41123 0.0
C1413 C 0.49451 0.70368 0.39814 0.0
C1414 C 0.51965 0.70311 0.42134 0.0
N1415 N 0.50484 0.71682 0.39984 0.0
C1416 C 0.49662 0.68964 0.40789 0.0
C1417 C 0.50935 0.68923 0.41966 0.0
H1418 H 0.52509 0.72751 0.41245 0.0
H1419 H 0.48464 0.70407 0.38917 0.0
C1420 C 0.46508 0.75295 0.33659 0.0
N1421 N 0.46548 0.74511 0.35142 0.0
C1422 C 0.4516 0.75091 0.32603 0.0
C1423 C 0.43937 0.73243 0.34602 0.0
C1424 C 0.45307 0.73486 0.35619 0.0
C1425 C 0.43849 0.74055 0.33071 0.0
H1426 H 0.47527 0.76077 0.33293 0.0
H1427 H 0.45395 0.72828 0.36773 0.0
O1428 O 0.51824 0.75378 0.38988 0.0
O1429 O 0.49719 0.7689 0.36134 0.0
O1430 O 0.50246 0.73206 0.36153 0.0
O1431 O 0.48147 0.74818 0.38958 0.0
H1432 H 0.53079 0.78281 0.39828 0.0
H1433 H 0.54281 0.73269 0.38544 0.0
H1434 H 0.5607 0.78892 0.40072 0.0
H1435 H 0.57252 0.73967 0.38801 0.0
H1436 H 0.45671 0.80686 0.35292 0.0
H1437 H 0.51564 0.79234 0.34794 0.0
H1438 H 0.46615 0.7793 0.36218 0.0
H1439 H 0.50532 0.81963 0.33872 0.0
H1440 H 0.56414 0.78323 0.3446 0.0
H1441 H 0.55512 0.73553 0.32221 0.0
H1442 H 0.47904 0.79584 0.43615 0.0
H1443 H 0.50384 0.8261 0.39978 0.0
H1444 H 0.47879 0.71157 0.35199 0.0
H1445 H 0.52961 0.71475 0.36715 0.0
H1446 H 0.48183 0.6812 0.3496 0.0
H1447 H 0.53177 0.68432 0.36457 0.0
H1448 H 0.4646 0.72295 0.40175 0.0
H1449 H 0.46209 0.77459 0.38955 0.0
H1450 H 0.43536 0.72409 0.41068 0.0
H1451 H 0.43285 0.77479 0.39848 0.0
H1452 H 0.52966 0.70325 0.4302 0.0
H1453 H 0.48826 0.6793 0.40638 0.0
H1454 H 0.45142 0.7575 0.3144 0.0
H1455 H 0.42975 0.72402 0.34996 0.0
Li1456 Li 0.00348 0.766 0.61453 0.0
Li1457 Li 0.98576 0.75278 0.6356 0.0
Li1458 Li 0.0153 0.74909 0.63503 0.0
Li1459 Li 0.9986 0.73604 0.6131 0.0
C1460 C 0.01099 0.77557 0.65228 0.0
N1461 N 0.02808 0.78555 0.6801 0.0
C1462 C 0.0043 0.77296 0.66797 0.0
C1463 C 0.02632 0.78338 0.65074 0.0
C1464 C 0.01314 0.77808 0.68189 0.0
C1465 C 0.03479 0.78829 0.66495 0.0
C1466 C 0.96816 0.75976 0.60455 0.0
C1467 C 0.94213 0.75517 0.5908 0.0
N1468 N 0.93937 0.77173 0.59071 0.0
C1469 C 0.96509 0.77674 0.60425 0.0
C1470 C 0.95662 0.74888 0.5977 0.0
C1471 C 0.95045 0.78255 0.59723 0.0
C1472 C 0.00181 0.78365 0.58458 0.0
N1473 N 0.00564 0.78499 0.60086 0.0
C1474 C 0.01259 0.81345 0.59753 0.0
C1475 C 0.01084 0.79951 0.60749 0.0
C1476 C 0.00877 0.81249 0.58061 0.0
C1477 C 0.00327 0.79731 0.57418 0.0
H1478 H 0.99755 0.77196 0.5797 0.0
H1479 H 0.01365 0.80025 0.6205 0.0
C1480 C 0.96507 0.74514 0.66293 0.0
N1481 N 0.96673 0.7551 0.6495 0.0
C1482 C 0.95134 0.74657 0.67323 0.0
C1483 C 0.94152 0.76892 0.65614 0.0
C1484 C 0.95544 0.76704 0.64617 0.0
C1485 C 0.93927 0.75853 0.66984 0.0
H1486 H 0.97449 0.73616 0.66579 0.0
H1487 H 0.95734 0.77533 0.63596 0.0
C1488 C 0.02866 0.75432 0.59809 0.0
N1489 N 0.04534 0.76785 0.57156 0.0
C1490 C 0.0268 0.74757 0.58231 0.0
C1491 C 0.03918 0.76784 0.6004 0.0
C1492 C 0.0353 0.7546 0.56906 0.0
C1493 C 0.04744 0.77454 0.58682 0.0
C1494 C 0.98794 0.71853 0.64072 0.0
C1495 C 0.99302 0.70604 0.65147 0.0
C1496 C 0.97246 0.7175 0.63315 0.0
C1497 C 0.9825 0.69269 0.65446 0.0
C1498 C 0.9623 0.70396 0.63646 0.0
N1499 N 0.96749 0.69193 0.64696 0.0
C1500 C 0.03087 0.73936 0.66446 0.0
C1501 C 0.04925 0.74899 0.64381 0.0
C1502 C 0.04397 0.73682 0.67536 0.0
N1503 N 0.03373 0.74543 0.64908 0.0
C1504 C 0.0627 0.74675 0.65433 0.0
C1505 C 0.06014 0.7406 0.67034 0.0
H1506 H 0.01836 0.73666 0.66829 0.0
H1507 H 0.05119 0.75362 0.63147 0.0
C1508 C 0.98899 0.71981 0.58375 0.0
N1509 N 0.99561 0.71753 0.59901 0.0
C1510 C 0.98653 0.70635 0.57324 0.0
C1511 C 0.99749 0.68845 0.59447 0.0
C1512 C 8e-05 0.70229 0.60441 0.0
C1513 C 0.99066 0.69044 0.57867 0.0
H1514 H 0.98571 0.73212 0.57973 0.0
H1515 H 0.0056 0.70086 0.61648 0.0
O1516 O 0.00271 0.77024 0.63853 0.0
O1517 O 0.98258 0.75382 0.61106 0.0
O1518 O 0.02018 0.74779 0.61118 0.0
O1519 O 0.99819 0.7316 0.63758 0.0
H1520 H 0.99249 0.76693 0.66942 0.0
H1521 H 0.03177 0.78537 0.63872 0.0
H1522 H 0.00815 0.77607 0.69411 0.0
H1523 H 0.04672 0.79421 0.66394 0.0
H1524 H 0.93308 0.74688 0.58548 0.0
H1525 H 0.97378 0.78536 0.60962 0.0
H1526 H 0.95882 0.73571 0.59768 0.0
H1527 H 0.94789 0.79565 0.597 0.0
H1528 H 0.01707 0.8248 0.60301 0.0
H1529 H -9e-05 0.79603 0.5613 0.0
H1530 H 0.95014 0.73829 0.68366 0.0
H1531 H 0.93277 0.77861 0.65332 0.0
H1532 H 0.01886 0.73703 0.5803 0.0
H1533 H 0.04067 0.77334 0.61247 0.0
H1534 H 0.03391 0.74954 0.55677 0.0
H1535 H 0.05546 0.78511 0.58841 0.0
H1536 H 0.00498 0.70666 0.6574 0.0
H1537 H 0.96831 0.72708 0.62487 0.0
H1538 H 0.98627 0.68292 0.66275 0.0
H1539 H 0.95029 0.70301 0.63069 0.0
H1540 H 0.04146 0.73219 0.68765 0.0
H1541 H 0.075 0.74959 0.64991 0.0
H1542 H 0.98122 0.7083 0.56112 0.0
H1543 H 0.00099 0.67636 0.59896 0.0
Li1544 Li 0.50196 0.26607 0.11697 0.0
Li1545 Li 0.48473 0.25186 0.13749 0.0
Li1546 Li 0.51546 0.24768 0.13736 0.0
Li1547 Li 0.49755 0.23534 0.11646 0.0
C1548 C 0.50867 0.28248 0.14817 0.0
N1549 N 0.52098 0.31127 0.16185 0.0
C1550 C 0.49814 0.29337 0.15643 0.0
C1551 C 0.5255 0.28616 0.14706 0.0
C1552 C 0.50459 0.30789 0.1632 0.0
C1553 C 0.53148 0.30078 0.154 0.0
C1554 C 0.46507 0.25763 0.11184 0.0
C1555 C 0.43616 0.25065 0.11351 0.0
N1556 N 0.43222 0.26656 0.10988 0.0
C1557 C 0.46074 0.27389 0.10802 0.0
C1558 C 0.4527 0.24588 0.11449 0.0
C1559 C 0.44406 0.27816 0.10711 0.0
C1560 C 0.50552 0.28215 0.08683 0.0
N1561 N 0.50433 0.28505 0.10331 0.0
C1562 C 0.50651 0.31413 0.0989 0.0
C1563 C 0.50463 0.30066 0.10947 0.0
C1564 C 0.5078 0.31157 0.08178 0.0
C1565 C 0.50721 0.29528 0.07578 0.0
H1566 H 0.50507 0.2696 0.08227 0.0
H1567 H 0.50341 0.30276 0.12254 0.0
C1568 C 0.46093 0.24185 0.16107 0.0
N1569 N 0.46581 0.25447 0.15115 0.0
C1570 C 0.44689 0.24347 0.17093 0.0
C1571 C 0.44326 0.2711 0.16029 0.0
C1572 C 0.45739 0.26896 0.1507 0.0
C1573 C 0.43781 0.25824 0.17059 0.0
H1574 H 0.46797 0.23053 0.16137 0.0
H1575 H 0.46159 0.27884 0.14276 0.0
C1576 C 0.53384 0.25021 0.10704 0.0
N1577 N 0.56537 0.25461 0.09471 0.0
C1578 C 0.54223 0.23701 0.09975 0.0
C1579 C 0.54139 0.26572 0.10775 0.0
C1580 C 0.55819 0.23945 0.09368 0.0
C1581 C 0.55735 0.26768 0.10154 0.0
C1582 C 0.49628 0.21445 0.14152 0.0
C1583 C 0.51 0.20496 0.1459 0.0
C1584 C 0.48135 0.20664 0.13775 0.0
C1585 C 0.5086 0.18777 0.14619 0.0
C1586 C 0.48046 0.18942 0.13816 0.0
N1587 N 0.49399 0.18042 0.14233 0.0
C1588 C 0.53441 0.25099 0.16627 0.0
C1589 C 0.54745 0.23556 0.14513 0.0
C1590 C 0.54809 0.24907 0.17656 0.0
N1591 N 0.53444 0.24448 0.1508 0.0
C1592 C 0.56137 0.23324 0.15503 0.0
C1593 C 0.56186 0.24011 0.17097 0.0
H1594 H 0.52377 0.25778 0.17059 0.0
H1595 H 0.54695 0.23001 0.13302 0.0
C1596 C 0.48198 0.21579 0.09205 0.0
N1597 N 0.49517 0.21669 0.10237 0.0
C1598 C 0.47985 0.20208 0.08181 0.0
C1599 C 0.50502 0.19055 0.09292 0.0
C1600 C 0.50668 0.20451 0.10289 0.0
C1601 C 0.49144 0.18918 0.0822 0.0
H1602 H 0.47312 0.22575 0.09174 0.0
H1603 H 0.51709 0.20557 0.11119 0.0
O1604 O 0.5025 0.26823 0.14144 0.0
O1605 O 0.48133 0.25325 0.11297 0.0
O1606 O 0.51815 0.24801 0.11293 0.0
O1607 O 0.49748 0.23129 0.14093 0.0
H1608 H 0.48512 0.29069 0.15758 0.0
H1609 H 0.53392 0.27773 0.1411 0.0
H1610 H 0.49656 0.31645 0.16956 0.0
H1611 H 0.54447 0.30377 0.15321 0.0
H1612 H 0.42646 0.24171 0.11565 0.0
H1613 H 0.47015 0.28314 0.10591 0.0
H1614 H 0.45583 0.23324 0.11742 0.0
H1615 H 0.44053 0.29072 0.10426 0.0
H1616 H 0.50712 0.32641 0.10418 0.0
H1617 H 0.50783 0.29265 0.06269 0.0
H1618 H 0.44332 0.23333 0.17888 0.0
H1619 H 0.43656 0.28263 0.15946 0.0
H1620 H 0.53652 0.22497 0.09886 0.0
H1621 H 0.53497 0.27621 0.11287 0.0
H1622 H 0.56486 0.22931 0.08813 0.0
H1623 H 0.56334 0.27962 0.10207 0.0
H1624 H 0.52163 0.2108 0.14893 0.0
H1625 H 0.47061 0.2138 0.13438 0.0
H1626 H 0.51914 0.18027 0.14947 0.0
H1627 H 0.46901 0.18321 0.13514 0.0
H1628 H 0.54794 0.25469 0.18869 0.0
H1629 H 0.57151 0.22592 0.15034 0.0
H1630 H 0.46935 0.20169 0.07354 0.0
H1631 H 0.51416 0.18084 0.09379 0.0
H1632 H 0.23873 0.74743 0.87022 0.0
H1633 H 0.22704 0.83761 0.90884 0.0
H1634 H 0.21945 0.78892 0.84291 0.0
H1635 H 0.25236 0.798 0.93391 0.0
H1636 H 0.22343 0.81971 0.88486 0.0
H1637 H 0.24315 0.76552 0.89396 0.0
C1638 C 0.23553 0.76037 0.86916 0.0
C1639 C 0.2287 0.76664 0.85451 0.0
C1640 C 0.2298 0.81493 0.89559 0.0
C1641 C 0.23351 0.78739 0.88177 0.0
C1642 C 0.23195 0.82518 0.90928 0.0
C1643 C 0.24005 0.81933 0.92344 0.0
C1644 C 0.23573 0.79866 0.89605 0.0
C1645 C 0.24585 0.80299 0.92337 0.0
C1646 C 0.23798 0.77067 0.88276 0.0
C1647 C 0.22452 0.78346 0.854 0.0
N1648 N 0.24357 0.79323 0.9099 0.0
N1649 N 0.22698 0.79323 0.86742 0.0
H1650 H 0.99796 0.50836 0.38186 0.0
H1651 H 0.08736 0.52177 0.34204 0.0
H1652 H 0.03926 0.52939 0.40828 0.0
H1653 H 0.04766 0.49609 0.31733 0.0
H1654 H 0.06982 0.5249 0.36632 0.0
H1655 H 0.01585 0.50397 0.358 0.0
C1656 C 0.01082 0.51195 0.3827 0.0
C1657 C 0.01709 0.51928 0.39713 0.0
C1658 C 0.06495 0.51855 0.3556 0.0
C1659 C 0.03761 0.51448 0.36973 0.0
C1660 C 0.075 0.51666 0.34174 0.0
C1661 C 0.069 0.50864 0.32758 0.0
C1662 C 0.04873 0.51241 0.35532 0.0
C1663 C 0.05275 0.50256 0.32786 0.0
C1664 C 0.02101 0.50952 0.36903 0.0
C1665 C 0.0338 0.52392 0.39736 0.0
N1666 N 0.04318 0.50459 0.34149 0.0
N1667 N 0.04346 0.52147 0.38388 0.0
H1668 H 0.79666 0.72976 0.86115 0.0
H1669 H 0.73405 0.67471 0.9143 0.0
H1670 H 0.74511 0.72386 0.849 0.0
H1671 H 0.78412 0.6854 0.92922 0.0
H1672 H 0.73806 0.69185 0.88981 0.0
H1673 H 0.7926 0.7124 0.88547 0.0
C1674 C 0.7845 0.72472 0.86355 0.0
C1675 C 0.77121 0.72826 0.85302 0.0
C1676 C 0.74816 0.69044 0.89845 0.0
C1677 C 0.76642 0.70848 0.88094 0.0
C1678 C 0.74586 0.68073 0.9125 0.0
C1679 C 0.75876 0.67859 0.92388 0.0
C1680 C 0.7635 0.69807 0.89572 0.0
C1681 C 0.77389 0.68648 0.9207 0.0
C1682 C 0.78217 0.7149 0.87749 0.0
C1683 C 0.75567 0.7216 0.85688 0.0
N1684 N 0.77583 0.69585 0.90693 0.0
N1685 N 0.75371 0.712 0.87051 0.0
H1686 H 0.00194 0.98411 0.37862 0.0
H1687 H 0.91026 0.98928 0.34194 0.0
H1688 H 0.95807 0.97703 0.40802 0.0
H1689 H 0.95424 0.99112 0.31192 0.0
H1690 H 0.92753 0.98609 0.3665 0.0
H1691 H 0.98461 0.98802 0.35424 0.0
C1692 C 0.98865 0.98348 0.37996 0.0
C1693 C 0.98144 0.98025 0.39538 0.0
C1694 C 0.9334 0.98718 0.35454 0.0
C1695 C 0.96152 0.98459 0.36749 0.0
C1696 C 0.92356 0.9891 0.34053 0.0
C1697 C 0.93082 0.99046 0.32485 0.0
C1698 C 0.95066 0.98669 0.35289 0.0
C1699 C 0.94811 0.98992 0.32374 0.0
C1700 C 0.97876 0.98561 0.36602 0.0
C1701 C 0.96415 0.97932 0.39634 0.0
N1702 N 0.95743 0.98811 0.33756 0.0
N1703 N 0.95478 0.98151 0.38259 0.0
H1704 H 0.22674 0.20802 0.65959 0.0
H1705 H 0.24052 0.20342 0.56179 0.0
H1706 H 0.23201 0.25094 0.62845 0.0
H1707 H 0.23905 0.16053 0.5934 0.0
H1708 H 0.23721 0.22102 0.58604 0.0
H1709 H 0.23071 0.19038 0.63542 0.0
C1710 C 0.22867 0.21374 0.64765 0.0
C1711 C 0.22903 0.23099 0.64604 0.0
C1712 C 0.23763 0.20776 0.58768 0.0
C1713 C 0.2337 0.21087 0.61833 0.0
C1714 C 0.23962 0.19769 0.57384 0.0
C1715 C 0.24008 0.18044 0.57553 0.0
C1716 C 0.23604 0.20055 0.60337 0.0
C1717 C 0.23854 0.17374 0.59146 0.0
C1718 C 0.23103 0.20366 0.63387 0.0
C1719 C 0.23182 0.23771 0.63031 0.0
N1720 N 0.23658 0.1838 0.60474 0.0
N1721 N 0.234 0.22764 0.61706 0.0
H1722 H 0.49963 0.50799 0.61602 0.0
H1723 H 0.41033 0.52263 0.65552 0.0
H1724 H 0.45866 0.5289 0.58912 0.0
H1725 H 0.44954 0.49633 0.68022 0.0
H1726 H 0.42793 0.52541 0.63121 0.0
H1727 H 0.48157 0.50397 0.6398 0.0
C1728 C 0.4868 0.51162 0.61505 0.0
C1729 C 0.48068 0.5188 0.60051 0.0
C1730 C 0.43267 0.519 0.64194 0.0
C1731 C 0.45996 0.51444 0.62784 0.0
C1732 C 0.42259 0.51733 0.65581 0.0
C1733 C 0.42845 0.50924 0.66999 0.0
C1734 C 0.44877 0.5126 0.64222 0.0
C1735 C 0.44457 0.50288 0.66969 0.0
C1736 C 0.47651 0.5094 0.62868 0.0
C1737 C 0.464 0.52353 0.60012 0.0
N1738 N 0.45416 0.50472 0.65606 0.0
N1739 N 0.45424 0.5213 0.61358 0.0
H1740 H 0.78125 0.29198 0.66004 0.0
H1741 H 0.74984 0.29821 0.56652 0.0
H1742 H 0.76335 0.25027 0.632 0.0
H1743 H 0.77382 0.33829 0.59233 0.0
H1744 H 0.75359 0.28076 0.59081 0.0
H1745 H 0.77753 0.30947 0.63576 0.0
C1746 C 0.77662 0.28647 0.64877 0.0
C1747 C 0.77263 0.2696 0.64809 0.0
C1748 C 0.75804 0.29337 0.59116 0.0
C1749 C 0.76813 0.28962 0.62028 0.0
C1750 C 0.75599 0.30332 0.57725 0.0
C1751 C 0.76155 0.31975 0.57734 0.0
C1752 C 0.76569 0.29988 0.60531 0.0
C1753 C 0.76913 0.32578 0.59175 0.0
C1754 C 0.77441 0.29649 0.63493 0.0
C1755 C 0.76638 0.26323 0.6332 0.0
N1756 N 0.77098 0.31584 0.60513 0.0
N1757 N 0.76434 0.27324 0.6199 0.0
H1758 H 0.50788 0.00134 0.6141 0.0
H1759 H 0.58678 0.97029 0.66349 0.0
H1760 H 0.53045 0.95388 0.60498 0.0
H1761 H 0.55183 0.0045 0.68447 0.0
H1762 H 0.56836 0.96644 0.63976 0.0
H1763 H 0.52584 0.00489 0.63806 0.0
C1764 C 0.51649 0.9916 0.61714 0.0
C1765 C 0.51755 0.97725 0.60741 0.0
C1766 C 0.56472 0.97475 0.64959 0.0
C1767 C 0.53847 0.98152 0.63464 0.0
C1768 C 0.57524 0.97701 0.66305 0.0
C1769 C 0.57077 0.98771 0.67591 0.0
C1770 C 0.54977 0.98347 0.64886 0.0
C1771 C 0.55564 0.99605 0.67483 0.0
C1772 C 0.5268 0.9937 0.63079 0.0
C1773 C 0.52931 0.96528 0.61185 0.0
N1774 N 0.54571 0.99385 0.66147 0.0
N1775 N 0.53935 0.96773 0.62507 0.0
H1776 H 0.85011 0.25415 0.77522 0.0
H1777 H 0.93091 0.21283 0.81425 0.0
H1778 H 0.86259 0.2027 0.76936 0.0
H1779 H 0.91549 0.26278 0.82462 0.0
H1780 H 0.90629 0.20905 0.79726 0.0
H1781 H 0.8745 0.25781 0.79265 0.0
C1782 C 0.85802 0.24364 0.77756 0.0
C1783 C 0.85431 0.2281 0.77081 0.0
C1784 C 0.90828 0.22083 0.80327 0.0
C1785 C 0.8822 0.23217 0.79082 0.0
C1786 C 0.92231 0.22298 0.81306 0.0
C1787 C 0.92531 0.23815 0.82091 0.0
C1788 C 0.89716 0.23396 0.80126 0.0
C1789 C 0.91384 0.25095 0.81863 0.0
C1790 C 0.87189 0.24571 0.78758 0.0
C1791 C 0.86487 0.21485 0.77444 0.0
N1792 N 0.90029 0.24856 0.80901 0.0
N1793 N 0.87835 0.2172 0.78415 0.0
H1794 H 0.48555 0.87986 0.50277 0.0
H1795 H 0.48262 0.84457 0.41039 0.0
H1796 H 0.47324 0.90952 0.46025 0.0
H1797 H 0.49481 0.815 0.45301 0.0
H1798 H 0.4795 0.8686 0.42837 0.0
H1799 H 0.48944 0.85608 0.48465 0.0
C1800 C 0.48378 0.88141 0.4896 0.0
C1801 C 0.47907 0.89673 0.48303 0.0
C1802 C 0.48285 0.85686 0.4338 0.0
C1803 C 0.48331 0.86946 0.4622 0.0
C1804 C 0.48472 0.84314 0.42352 0.0
C1805 C 0.48898 0.82773 0.43019 0.0
C1806 C 0.48528 0.85518 0.45089 0.0
C1807 C 0.4913 0.82658 0.44734 0.0
C1808 C 0.4859 0.86779 0.47927 0.0
C1809 C 0.47668 0.89791 0.46589 0.0
N1810 N 0.48944 0.84011 0.45708 0.0
N1811 N 0.47883 0.88446 0.45608 0.0
H1812 H 0.13889 0.29594 0.76881 0.0
H1813 H 0.08371 0.23136 0.81954 0.0
H1814 H 0.14956 0.2438 0.77131 0.0
H1815 H 0.07322 0.28351 0.81643 0.0
H1816 H 0.10793 0.23556 0.80199 0.0
H1817 H 0.11483 0.29153 0.78639 0.0
C1818 C 0.13623 0.28357 0.77315 0.0
C1819 C 0.1463 0.27023 0.76861 0.0
C1820 C 0.10031 0.24607 0.80513 0.0
C1821 C 0.11861 0.26505 0.78863 0.0
C1822 C 0.08653 0.2437 0.81522 0.0
C1823 C 0.0764 0.2571 0.81946 0.0
C1824 C 0.10403 0.26197 0.79927 0.0
C1825 C 0.08053 0.27278 0.8133 0.0
C1826 C 0.12242 0.28104 0.78311 0.0
C1827 C 0.14206 0.25442 0.77436 0.0
N1828 N 0.09402 0.27477 0.80356 0.0
N1829 N 0.12856 0.25227 0.78409 0.0
H1830 H 0.52289 0.62212 0.50177 0.0
H1831 H 0.50859 0.65674 0.41032 0.0
H1832 H 0.52384 0.5914 0.45823 0.0
H1833 H 0.51577 0.68806 0.45286 0.0
H1834 H 0.51261 0.63251 0.42787 0.0
H1835 H 0.51875 0.64633 0.48422 0.0
C1836 C 0.52216 0.62047 0.48851 0.0
C1837 C 0.5237 0.60473 0.48144 0.0
C1838 C 0.51334 0.64468 0.43336 0.0
C1839 C 0.51904 0.63237 0.46128 0.0
C1840 C 0.51094 0.65851 0.42338 0.0
C1841 C 0.51184 0.67444 0.43015 0.0
C1842 C 0.51654 0.64678 0.45028 0.0
C1843 C 0.51514 0.67602 0.4471 0.0
C1844 C 0.51989 0.6343 0.4785 0.0
C1845 C 0.52288 0.60333 0.46418 0.0
N1846 N 0.51732 0.66236 0.45659 0.0
N1847 N 0.52055 0.61696 0.45469 0.0
H1848 H 0.84062 0.77461 0.7079 0.0
H1849 H 0.9377 0.75651 0.70364 0.0
H1850 H 0.87076 0.76481 0.75075 0.0
H1851 H 0.90727 0.76465 0.66064 0.0
H1852 H 0.91331 0.75947 0.72109 0.0
H1853 H 0.86494 0.77124 0.69039 0.0
C1854 C 0.85237 0.77182 0.71364 0.0
C1855 C 0.85365 0.77001 0.73083 0.0
C1856 C 0.91196 0.76059 0.70784 0.0
C1857 C 0.88154 0.766 0.71083 0.0
C1858 C 0.92587 0.75881 0.69785 0.0
C1859 C 0.92455 0.76031 0.68063 0.0
C1860 C 0.89657 0.76392 0.70058 0.0
C1861 C 0.90893 0.7636 0.67386 0.0
C1862 C 0.86624 0.76981 0.70362 0.0
C1863 C 0.86915 0.76613 0.73754 0.0
N1864 N 0.89556 0.76529 0.68385 0.0
N1865 N 0.88248 0.76429 0.72754 0.0
H1866 H 0.02246 0.87893 0.49777 0.0
H1867 H 0.00194 0.84487 0.58808 0.0
H1868 H 0.01738 0.91041 0.54046 0.0
H1869 H 0.01939 0.81381 0.54839 0.0
H1870 H 0.0052 0.86892 0.57024 0.0
H1871 H 0.01873 0.85476 0.51552 0.0
C1872 C 0.02047 0.88074 0.51087 0.0
C1873 C 0.02024 0.89668 0.51767 0.0
C1874 C 0.00833 0.85684 0.56545 0.0
C1875 C 0.01601 0.86913 0.53804 0.0
C1876 C 0.00656 0.84308 0.57566 0.0
C1877 C 0.01045 0.82723 0.56979 0.0
C1878 C 0.01391 0.85477 0.54918 0.0
C1879 C 0.01602 0.82572 0.55342 0.0
C1880 C 0.01844 0.86696 0.521 0.0
C1881 C 0.0178 0.89833 0.53475 0.0
N1882 N 0.01756 0.8393 0.5437 0.0
N1883 N 0.01573 0.88472 0.54434 0.0
H1884 H 0.14929 0.75225 0.7283 0.0
H1885 H 0.06615 0.71421 0.69059 0.0
H1886 H 0.13372 0.70191 0.73625 0.0
H1887 H 0.08629 0.76132 0.67593 0.0
H1888 H 0.08976 0.71023 0.70899 0.0
H1889 H 0.1252 0.75655 0.71062 0.0
C1890 C 0.14075 0.74213 0.72639 0.0
C1891 C 0.14351 0.72669 0.73374 0.0
C1892 C 0.08902 0.72144 0.70174 0.0
C1893 C 0.11597 0.73149 0.71347 0.0
C1894 C 0.0755 0.72376 0.69132 0.0
C1895 C 0.07428 0.7381 0.6817 0.0
C1896 C 0.10135 0.73361 0.70265 0.0
C1897 C 0.08685 0.74999 0.68298 0.0
C1898 C 0.12706 0.74456 0.71622 0.0
C1899 C 0.13215 0.71395 0.73067 0.0
N1900 N 0.09984 0.74749 0.69329 0.0
N1901 N 0.11885 0.71664 0.72081 0.0
H1902 H -0.00032 0.61378 0.50516 0.0
H1903 H 0.97407 0.66214 0.58624 0.0
H1904 H 0.95456 0.60276 0.53148 0.0
H1905 H 0.00099 0.68585 0.5469 0.0
H1906 H 0.96982 0.638 0.5684 0.0
H1907 H 0.00324 0.63835 0.52229 0.0
C1908 C 0.99043 0.61652 0.5144 0.0
C1909 C 0.97676 0.60606 0.51677 0.0
C1910 C 0.97661 0.64852 0.56368 0.0
C1911 C 0.98113 0.63396 0.53676 0.0
C1912 C 0.97909 0.66221 0.57385 0.0
C1913 C 0.98786 0.67593 0.56796 0.0
C1914 C 0.98324 0.64845 0.54767 0.0
C1915 C 0.99407 0.67551 0.55181 0.0
C1916 C 0.99256 0.63052 0.52424 0.0
C1917 C 0.96548 0.61017 0.52933 0.0
N1918 N 0.99177 0.6619 0.54224 0.0
N1919 N 0.96797 0.62372 0.5389 0.0
H1920 H 0.76269 0.86663 0.20595 0.0
H1921 H 0.83033 0.91072 0.26272 0.0
H1922 H 0.77712 0.84786 0.25365 0.0
H1923 H 0.80598 0.935 0.22206 0.0
H1924 H 0.81246 0.88664 0.25861 0.0
H1925 H 0.78017 0.89086 0.21053 0.0
C1926 C 0.76962 0.86759 0.21735 0.0
C1927 C 0.76849 0.85523 0.22943 0.0
C1928 C 0.81098 0.89727 0.25064 0.0
C1929 C 0.78845 0.88291 0.2348 0.0
C1930 C 0.82122 0.91096 0.25293 0.0
C1931 C 0.81961 0.92485 0.24271 0.0
C1932 C 0.79921 0.8974 0.2379 0.0
C1933 C 0.80751 0.9246 0.23031 0.0
C1934 C 0.77949 0.88146 0.22002 0.0
C1935 C 0.77756 0.85718 0.24408 0.0
N1936 N 0.79784 0.91105 0.22819 0.0
N1937 N 0.78723 0.87073 0.24633 0.0
H1938 H 0.76321 0.13284 0.29588 0.0
H1939 H 0.83052 0.08875 0.23886 0.0
H1940 H 0.77712 0.15108 0.24781 0.0
H1941 H 0.80746 0.06492 0.28055 0.0
H1942 H 0.81251 0.11265 0.24295 0.0
H1943 H 0.7809 0.10876 0.29153 0.0
C1944 C 0.77005 0.13179 0.28444 0.0
C1945 C 0.76873 0.14397 0.27219 0.0
C1946 C 0.81136 0.10217 0.25117 0.0
C1947 C 0.78893 0.11647 0.26711 0.0
C1948 C 0.82169 0.08859 0.2489 0.0
C1949 C 0.82048 0.07486 0.2594 0.0
C1950 C 0.79986 0.10211 0.26414 0.0
C1951 C 0.80869 0.07519 0.27209 0.0
C1952 C 0.78005 0.11801 0.28191 0.0
C1953 C 0.77769 0.1419 0.2575 0.0
N1954 N 0.7989 0.08864 0.27417 0.0
N1955 N 0.78748 0.12845 0.2554 0.0
H1956 H 0.39298 0.98827 0.00252 0.0
H1957 H 0.33079 0.9229 0.96241 0.0
H1958 H 0.39095 0.97804 0.9502 0.0
H1959 H 0.32536 0.94187 0.01191 0.0
H1960 H 0.35422 0.94152 0.9582 0.0
H1961 H 0.36934 0.97002 0.00663 0.0
C1962 C 0.38751 0.9823 0.99186 0.0
C1963 C 0.394 0.98476 0.97596 0.0
C1964 C 0.34788 0.94163 0.96997 0.0
C1965 C 0.36707 0.96358 0.98068 0.0
C1966 C 0.33459 0.93094 0.97241 0.0
C1967 C 0.32615 0.93084 0.98754 0.0
C1968 C 0.35288 0.95219 0.9828 0.0
C1969 C 0.33144 0.94167 1e-05 0.0
C1970 C 0.37405 0.97181 0.99425 0.0
C1971 C 0.38656 0.97637 0.96271 0.0
N1972 N 0.34452 0.95186 0.99739 0.0
N1973 N 0.37353 0.96614 0.96537 0.0
H1974 H 0.24926 0.36997 0.26132 0.0
H1975 H 0.1599 0.41037 0.27302 0.0
H1976 H 0.20694 0.34308 0.27949 0.0
H1977 H 0.20063 0.4352 0.24925 0.0
H1978 H 0.17727 0.38599 0.27666 0.0
H1979 H 0.23188 0.39428 0.25767 0.0
C1980 C 0.23629 0.36912 0.26444 0.0
C1981 C 0.22957 0.3544 0.2707 0.0
C1982 C 0.1824 0.39676 0.27064 0.0
C1983 C 0.20961 0.38234 0.26677 0.0
C1984 C 0.17253 0.41072 0.26864 0.0
C1985 C 0.17883 0.42485 0.26082 0.0
C1986 C 0.19875 0.39694 0.26484 0.0
C1987 C 0.19521 0.42452 0.25518 0.0
C1988 C 0.22638 0.38305 0.26244 0.0
C1989 C 0.21272 0.35419 0.27483 0.0
N1990 N 0.20461 0.41081 0.25734 0.0
N1991 N 0.20334 0.36794 0.2728 0.0
H1992 H 0.08826 0.0437 0.48002 0.0
H1993 H 0.1868 0.04777 0.48608 0.0
H1994 H 0.11944 0.00056 0.48124 0.0
H1995 H 0.15534 0.09018 0.49289 0.0
H1996 H 0.16228 0.03042 0.48294 0.0
H1997 H 0.11273 0.06112 0.48346 0.0
C1998 C 0.10027 0.0379 0.48098 0.0
C1999 C 0.10182 0.02066 0.48034 0.0
C2000 C 0.16073 0.04352 0.48515 0.0
C2001 C 0.12985 0.04049 0.48433 0.0
C2002 C 0.17472 0.05344 0.48684 0.0
C2003 C 0.1731 0.07044 0.48973 0.0
C2004 C 0.14497 0.05066 0.48624 0.0
C2005 C 0.15714 0.07709 0.49084 0.0
C2006 C 0.11421 0.04784 0.48303 0.0
C2007 C 0.11765 0.01379 0.48184 0.0
N2008 N 0.1437 0.0672 0.48903 0.0
N2009 N 0.13105 0.02373 0.4837 0.0
H2010 H 0.73355 0.13804 0.703 0.0
H2011 H 0.67582 0.08648 0.76444 0.0
H2012 H 0.72694 0.1504 0.75441 0.0
H2013 H 0.68839 0.07021 0.71524 0.0
H2014 H 0.69333 0.11072 0.76058 0.0
H2015 H 0.71565 0.11402 0.70675 0.0
C2016 C 0.72825 0.13574 0.71506 0.0
C2017 C 0.73173 0.14624 0.72842 0.0
C2018 C 0.69226 0.10184 0.75063 0.0
C2019 C 0.71132 0.1187 0.73283 0.0
C2020 C 0.68232 0.08794 0.75285 0.0
C2021 C 0.68064 0.07621 0.74017 0.0
C2022 C 0.70056 0.10413 0.73558 0.0
C2023 C 0.68913 0.07899 0.7253 0.0
C2024 C 0.71811 0.12197 0.71722 0.0
C2025 C 0.72472 0.14253 0.74383 0.0
N2026 N 0.69871 0.09264 0.72343 0.0
N2027 N 0.71482 0.12909 0.7456 0.0
H2028 H 0.40779 0.04002 0.5308 0.0
H2029 H 0.31248 0.04614 0.50515 0.0
H2030 H 0.37781 0.99781 0.51795 0.0
H2031 H 0.34255 0.08838 0.51769 0.0
H2032 H 0.33623 0.02822 0.50991 0.0
H2033 H 0.38398 0.05792 0.52622 0.0
C2034 C 0.39617 0.0345 0.52711 0.0
C2035 C 0.3948 0.01737 0.52478 0.0
C2036 C 0.33765 0.04141 0.51161 0.0
C2037 C 0.36751 0.03783 0.51934 0.0
C2038 C 0.32406 0.05164 0.50899 0.0
C2039 C 0.3255 0.0688 0.51105 0.0
C2040 C 0.35282 0.04835 0.51637 0.0
C2041 C 0.3409 0.07525 0.51577 0.0
C2042 C 0.3826 0.04474 0.5244 0.0
C2043 C 0.37949 0.01096 0.51971 0.0
N2044 N 0.35394 0.06502 0.5183 0.0
N2045 N 0.36645 0.02118 0.51719 0.0
H2046 H 0.6062 0.48381 0.49259 0.0
H2047 H 0.66795 0.41949 0.53489 0.0
H2048 H 0.60523 0.47183 0.54454 0.0
H2049 H 0.67506 0.43889 0.48579 0.0
H2050 H 0.64368 0.43711 0.53803 0.0
H2051 H 0.63038 0.46613 0.4893 0.0
C2052 C 0.61109 0.47754 0.50333 0.0
C2053 C 0.60362 0.47936 0.51888 0.0
C2054 C 0.65056 0.43754 0.52658 0.0
C2055 C 0.6312 0.45888 0.51513 0.0
C2056 C 0.66435 0.42741 0.52474 0.0
C2057 C 0.67352 0.42772 0.51005 0.0
C2058 C 0.64581 0.44798 0.51358 0.0
C2059 C 0.66843 0.43839 0.49738 0.0
C2060 C 0.62487 0.46739 0.50142 0.0
C2061 C 0.61038 0.47064 0.53227 0.0
N2062 N 0.65488 0.44805 0.49941 0.0
N2063 N 0.62375 0.46079 0.53008 0.0
H2064 H 0.73982 0.2469 0.37115 0.0
H2065 H 0.72545 0.336 0.41128 0.0
H2066 H 0.7189 0.28804 0.34452 0.0
H2067 H 0.75391 0.29756 0.43466 0.0
H2068 H 0.72162 0.31814 0.38723 0.0
H2069 H 0.74404 0.26489 0.39498 0.0
C2070 C 0.73621 0.25974 0.37025 0.0
C2071 C 0.729 0.26594 0.35575 0.0
C2072 C 0.72873 0.31362 0.3976 0.0
C2073 C 0.73358 0.28657 0.38315 0.0
C2074 C 0.73084 0.32377 0.41137 0.0
C2075 C 0.74 0.31825 0.425 0.0
C2076 C 0.73573 0.29776 0.39749 0.0
C2077 C 0.7469 0.30237 0.42436 0.0
C2078 C 0.73855 0.26999 0.38391 0.0
C2079 C 0.72428 0.28263 0.35548 0.0
N2080 N 0.74457 0.29266 0.41086 0.0
N2081 N 0.72663 0.29234 0.36897 0.0
H2082 H 0.53451 0.04538 0.90089 0.0
H2083 H 0.54752 0.004 0.81341 0.0
H2084 H 0.50481 0.00384 0.88508 0.0
H2085 H 0.58881 0.02128 0.84226 0.0
H2086 H 0.52939 0.00828 0.83739 0.0
H2087 H 0.55266 0.04084 0.87728 0.0
C2088 C 0.5318 0.03523 0.89261 0.0
C2089 C 0.51801 0.02496 0.89517 0.0
C2090 C 0.54242 0.01111 0.83843 0.0
C2091 C 0.53852 0.02018 0.86775 0.0
C2092 C 0.5527 0.00876 0.8248 0.0
C2093 C 0.56959 0.01228 0.826 0.0
C2094 C 0.54908 0.0174 0.85316 0.0
C2095 C 0.57582 0.01836 0.84097 0.0
C2096 C 0.54214 0.03276 0.87907 0.0
C2097 C 0.51502 0.01233 0.88358 0.0
N2098 N 0.56552 0.02088 0.85397 0.0
N2099 N 0.52511 0.01038 0.87033 0.0
H2100 H 0.26023 0.25003 0.36809 0.0
H2101 H 0.26881 0.1591 0.40587 0.0
H2102 H 0.27568 0.20768 0.33965 0.0
H2103 H 0.25011 0.20084 0.4332 0.0
H2104 H 0.27187 0.17676 0.38159 0.0
H2105 H 0.25658 0.2322 0.3921 0.0
C2106 C 0.26274 0.23696 0.36684 0.0
C2107 C 0.26826 0.23036 0.35179 0.0
C2108 C 0.26707 0.18205 0.39289 0.0
C2109 C 0.26433 0.20988 0.37936 0.0
C2110 C 0.26541 0.172 0.40678 0.0
C2111 C 0.2592 0.1785 0.4216 0.0
C2112 C 0.26256 0.19877 0.39381 0.0
C2113 C 0.25476 0.19525 0.42199 0.0
C2114 C 0.26074 0.2268 0.3806 0.0
C2115 C 0.27161 0.21336 0.35104 0.0
N2116 N 0.25656 0.2048 0.40832 0.0
N2117 N 0.2696 0.20372 0.36462 0.0
H2118 H 0.4782 0.44827 0.8881 0.0
H2119 H 0.44162 0.51299 0.82323 0.0
H2120 H 0.48598 0.50093 0.89156 0.0
H2121 H 0.42598 0.46206 0.82586 0.0
H2122 H 0.45935 0.50848 0.84717 0.0
H2123 H 0.46041 0.45276 0.86419 0.0
C2124 C 0.47611 0.46079 0.88391 0.0
C2125 C 0.48361 0.47424 0.89192 0.0
C2126 C 0.45203 0.4983 0.84251 0.0
C2127 C 0.46342 0.47944 0.86434 0.0
C2128 C 0.44182 0.50088 0.82888 0.0
C2129 C 0.43222 0.4879 0.8225 0.0
C2130 C 0.45274 0.4826 0.84981 0.0
C2131 C 0.4333 0.47238 0.83017 0.0
C2132 C 0.466 0.46333 0.87019 0.0
C2133 C 0.48067 0.49015 0.88568 0.0
N2134 N 0.44337 0.47017 0.84341 0.0
N2135 N 0.47082 0.4923 0.87227 0.0
H2136 H 0.74159 0.75111 0.13157 0.0
H2137 H 0.71319 0.66896 0.08539 0.0
H2138 H 0.71043 0.71421 0.15429 0.0
H2139 H 0.75684 0.6963 0.07143 0.0
H2140 H 0.70983 0.68717 0.10913 0.0
H2141 H 0.74524 0.73285 0.10784 0.0
C2142 C 0.73559 0.73915 0.13167 0.0
C2143 C 0.72569 0.73424 0.14505 0.0
C2144 C 0.72015 0.68915 0.10087 0.0
C2145 C 0.72956 0.71344 0.11768 0.0
C2146 C 0.72216 0.67869 0.08733 0.0
C2147 C 0.7354 0.68098 0.07635 0.0
C2148 C 0.73134 0.70215 0.1034 0.0
C2149 C 0.74632 0.69415 0.07937 0.0
C2150 C 0.73762 0.72878 0.11805 0.0
C2151 C 0.71795 0.71871 0.14421 0.0
N2152 N 0.74403 0.70425 0.09258 0.0
N2153 N 0.72001 0.7089 0.13075 0.0
H2154 H 0.95813 0.01561 0.08677 0.0
H2155 H 0.9533 0.01453 0.18535 0.0
H2156 H 0.00108 0.01724 0.11827 0.0
H2157 H 0.91193 0.00268 0.15382 0.0
H2158 H 0.9708 0.01687 0.16094 0.0
H2159 H 0.94071 0.01242 0.11123 0.0
C2160 C 0.96388 0.01533 0.09885 0.0
C2161 C 0.98107 0.0167 0.10051 0.0
C2162 C 0.9579 0.01373 0.15937 0.0
C2163 C 0.96124 0.01302 0.12852 0.0
C2164 C 0.9479 0.0123 0.17332 0.0
C2165 C 0.93108 0.00839 0.17168 0.0
C2166 C 0.95104 0.01134 0.14362 0.0
C2167 C 0.92474 0.00597 0.1557 0.0
C2168 C 0.95395 0.01342 0.11279 0.0
C2169 C 0.98789 0.01606 0.11643 0.0
N2170 N 0.93471 0.00751 0.14231 0.0
N2171 N 0.97795 0.01434 0.12983 0.0
H2172 H 0.29572 0.78123 0.14916 0.0
H2173 H 0.23606 0.81531 0.08029 0.0
H2174 H 0.2504 0.75571 0.13687 0.0
H2175 H 0.2891 0.8169 0.0743 0.0
H2176 H 0.23971 0.7973 0.10417 0.0
H2177 H 0.29215 0.79848 0.12475 0.0
C2178 C 0.28508 0.77909 0.14135 0.0
C2179 C 0.27341 0.7668 0.14518 0.0
C2180 C 0.2505 0.80164 0.09755 0.0
C2181 C 0.26902 0.78706 0.11752 0.0
C2182 C 0.24847 0.81185 0.08382 0.0
C2183 C 0.26229 0.81773 0.07507 0.0
C2184 C 0.26644 0.79756 0.10285 0.0
C2185 C 0.27805 0.81306 0.08072 0.0
C2186 C 0.28303 0.78907 0.12747 0.0
C2187 C 0.25961 0.76514 0.13472 0.0
N2188 N 0.27968 0.80337 0.09431 0.0
N2189 N 0.25776 0.77522 0.12144 0.0
H2190 H 0.01508 0.50515 0.10418 0.0
H2191 H 0.07538 0.46312 0.17006 0.0
H2192 H 0.02366 0.45259 0.10666 0.0
H2193 H 0.05943 0.51389 0.17296 0.0
H2194 H 0.05782 0.45929 0.14584 0.0
H2195 H 0.03267 0.50888 0.12836 0.0
C2196 C 0.02058 0.49437 0.10985 0.0
C2197 C 0.0178 0.47851 0.10337 0.0
C2198 C 0.05816 0.47126 0.15179 0.0
C2199 C 0.0382 0.48275 0.13097 0.0
C2200 C 0.06812 0.47344 0.16569 0.0
C2201 C 0.06889 0.48885 0.17362 0.0
C2202 C 0.04894 0.4846 0.1457 0.0
C2203 C 0.05943 0.50186 0.16715 0.0
C2204 C 0.0307 0.49653 0.12362 0.0
C2205 C 0.02558 0.46507 0.11107 0.0
N2206 N 0.04987 0.49943 0.15358 0.0
N2207 N 0.03541 0.46749 0.12445 0.0
H2208 H 0.3405 0.72441 0.2908 0.0
H2209 H 0.43834 0.73726 0.29696 0.0
H2210 H 0.3726 0.7272 0.24837 0.0
H2211 H 0.40577 0.73804 0.33914 0.0
H2212 H 0.41449 0.73312 0.279 0.0
H2213 H 0.36438 0.7286 0.30877 0.0
C2214 C 0.35259 0.72581 0.28527 0.0
C2215 C 0.35456 0.72544 0.26805 0.0
C2216 C 0.41255 0.73421 0.29218 0.0
C2217 C 0.38194 0.73039 0.28855 0.0
C2218 C 0.42617 0.73668 0.30245 0.0
C2219 C 0.42408 0.73803 0.31962 0.0
C2220 C 0.39669 0.73307 0.29909 0.0
C2221 C 0.40801 0.73686 0.32602 0.0
C2222 C 0.36621 0.7283 0.29553 0.0
C2223 C 0.37049 0.72759 0.26156 0.0
N2224 N 0.39495 0.73445 0.31576 0.0
N2225 N 0.38356 0.72994 0.27181 0.0
H2226 H 0.95152 0.39403 0.97438 0.0
H2227 H 0.01572 0.32877 0.93756 0.0
H2228 H 0.00429 0.39761 0.98116 0.0
H2229 H 0.9641 0.3298 0.92425 0.0
H2230 H 0.01159 0.35339 0.95441 0.0
H2231 H 0.9557 0.36994 0.95673 0.0
C2232 C 0.964 0.38985 0.97206 0.0
C2233 C 0.97757 0.3979 0.9793 0.0
C2234 C 0.00117 0.34825 0.94778 0.0
C2235 C 0.98242 0.37012 0.95928 0.0
C2236 C 0.00353 0.33422 0.93807 0.0
C2237 C 0.99025 0.32717 0.92941 0.0
C2238 C 0.98539 0.35529 0.94894 0.0
C2239 C 0.97467 0.33463 0.93086 0.0
C2240 C 0.96637 0.37602 0.96205 0.0
C2241 C 0.99343 0.39168 0.97607 0.0
N2242 N 0.97267 0.34827 0.94044 0.0
N2243 N 0.99541 0.37816 0.96634 0.0
H2244 H 0.63894 0.8 0.26994 0.0
H2245 H 0.58484 0.73653 0.32303 0.0
H2246 H 0.64863 0.74766 0.27199 0.0
H2247 H 0.57227 0.7879 0.31649 0.0
H2248 H 0.6088 0.74048 0.30516 0.0
H2249 H 0.61515 0.79599 0.28803 0.0
C2250 C 0.63611 0.78767 0.27428 0.0
C2251 C 0.6458 0.77415 0.26946 0.0
C2252 C 0.60079 0.75089 0.30763 0.0
C2253 C 0.61849 0.76943 0.29008 0.0
C2254 C 0.58705 0.74862 0.31778 0.0
C2255 C 0.57648 0.7619 0.32128 0.0
C2256 C 0.60404 0.76655 0.30095 0.0
C2257 C 0.58017 0.77736 0.31434 0.0
C2258 C 0.62247 0.78537 0.28452 0.0
C2259 C 0.6414 0.75841 0.27526 0.0
N2260 N 0.59363 0.77925 0.30451 0.0
N2261 N 0.62809 0.75649 0.28528 0.0
H2262 H 0.02918 0.08938 0.95692 0.0
H2263 H 0.99825 0.18315 0.95285 0.0
H2264 H 0.01153 0.11645 0.99931 0.0
H2265 H 0.02081 0.15763 0.91185 0.0
H2266 H 0.00195 0.1585 0.96981 0.0
H2267 H 0.02512 0.11393 0.93993 0.0
C2268 C 0.02453 0.10051 0.96268 0.0
C2269 C 0.02074 0.10084 0.9796 0.0
C2270 C 0.00608 0.1583 0.95709 0.0
C2271 C 0.01586 0.12898 0.96015 0.0
C2272 C 0.00405 0.1724 0.94742 0.0
C2273 C 0.00924 0.17251 0.93087 0.0
C2274 C 0.01334 0.14415 0.9502 0.0
C2275 C 0.01641 0.15808 0.92445 0.0
C2276 C 0.02213 0.11451 0.95295 0.0
C2277 C 0.01444 0.11554 0.9863 0.0
N2278 N 0.01826 0.14451 0.93413 0.0
N2279 N 0.01222 0.12902 0.97656 0.0
H2280 H 0.35936 0.29741 0.2317 0.0
H2281 H 0.41367 0.23535 0.17728 0.0
H2282 H 0.348 0.24563 0.22608 0.0
H2283 H 0.42769 0.28579 0.18754 0.0
H2284 H 0.38912 0.23902 0.19439 0.0
H2285 H 0.38384 0.29363 0.21452 0.0
C2286 C 0.36196 0.28526 0.22676 0.0
C2287 C 0.3516 0.27182 0.23031 0.0
C2288 C 0.39758 0.24928 0.1929 0.0
C2289 C 0.37971 0.26736 0.21074 0.0
C2290 C 0.41166 0.24717 0.1832 0.0
C2291 C 0.4228 0.26027 0.18095 0.0
C2292 C 0.39456 0.26462 0.20039 0.0
C2293 C 0.41935 0.2754 0.18871 0.0
C2294 C 0.376 0.28308 0.21704 0.0
C2295 C 0.35573 0.2563 0.2238 0.0
N2296 N 0.40555 0.27715 0.19806 0.0
N2297 N 0.36945 0.2545 0.2143 0.0
H2298 H 0.52869 0.37479 0.99785 0.0
H2299 H 0.49409 0.34256 0.08415 0.0
H2300 H 0.5138 0.40763 0.03705 0.0
H2301 H 0.52592 0.31315 0.05306 0.0
H2302 H 0.49804 0.36588 0.06549 0.0
H2303 H 0.52434 0.35124 0.01635 0.0
C2304 C 0.52443 0.37701 0.01033 0.0
C2305 C 0.52161 0.39314 0.01597 0.0
C2306 C 0.50415 0.35431 0.06279 0.0
C2307 C 0.51658 0.36635 0.03711 0.0
C2308 C 0.502 0.34098 0.07349 0.0
C2309 C 0.50975 0.3258 0.07028 0.0
C2310 C 0.51396 0.35243 0.04865 0.0
C2311 C 0.51949 0.32448 0.05597 0.0
C2312 C 0.52205 0.3636 0.02089 0.0
C2313 C 0.51624 0.39538 0.03229 0.0
N2314 N 0.52128 0.3376 0.04567 0.0
N2315 N 0.51381 0.38212 0.04227 0.0
H2316 H 0.66106 0.22677 0.20895 0.0
H2317 H 0.56269 0.2346 0.20441 0.0
H2318 H 0.62958 0.22827 0.2519 0.0
H2319 H 0.59458 0.24043 0.16209 0.0
H2320 H 0.587 0.23117 0.22187 0.0
H2321 H 0.63677 0.23043 0.19139 0.0
C2322 C 0.64903 0.22781 0.21468 0.0
C2323 C 0.64734 0.22722 0.23191 0.0
C2324 C 0.58868 0.23322 0.20876 0.0
C2325 C 0.6195 0.23148 0.21191 0.0
C2326 C 0.5748 0.23528 0.19878 0.0
C2327 C 0.57656 0.23786 0.18173 0.0
C2328 C 0.60449 0.23368 0.20166 0.0
C2329 C 0.59259 0.23825 0.17512 0.0
C2330 C 0.63518 0.22999 0.20465 0.0
C2331 C 0.63148 0.22885 0.23868 0.0
N2332 N 0.60592 0.23618 0.18509 0.0
N2333 N 0.61817 0.23086 0.22867 0.0
H2334 H 0.45162 0.10904 0.02358 0.0
H2335 H 0.51537 0.17193 0.06549 0.0
H2336 H 0.50455 0.1044 0.01937 0.0
H2337 H 0.46283 0.17272 0.07444 0.0
H2338 H 0.51166 0.14763 0.048 0.0
H2339 H 0.45549 0.13281 0.04168 0.0
C2340 C 0.46407 0.11293 0.02656 0.0
C2341 C 0.47778 0.10464 0.01995 0.0
C2342 C 0.50095 0.15311 0.05381 0.0
C2343 C 0.48229 0.13209 0.04052 0.0
C2344 C 0.50306 0.16695 0.06388 0.0
C2345 C 0.48939 0.17441 0.07148 0.0
C2346 C 0.48504 0.14668 0.05126 0.0
C2347 C 0.4737 0.16755 0.06866 0.0
C2348 C 0.46626 0.12658 0.03683 0.0
C2349 C 0.49361 0.1105 0.024 0.0
N2350 N 0.47196 0.15409 0.05878 0.0
N2351 N 0.49542 0.12386 0.03401 0.0
H2352 H 0.27153 0.35063 0.75337 0.0
H2353 H 0.31176 0.43098 0.71211 0.0
H2354 H 0.26569 0.3634 0.70196 0.0
H2355 H 0.32257 0.41483 0.76176 0.0
H2356 H 0.29402 0.40686 0.70846 0.0
H2357 H 0.28918 0.37486 0.75708 0.0
C2358 C 0.27389 0.35858 0.74288 0.0
C2359 C 0.26713 0.35498 0.72733 0.0
C2360 C 0.30028 0.40859 0.72015 0.0
C2361 C 0.28742 0.38267 0.73146 0.0
C2362 C 0.3105 0.42232 0.72222 0.0
C2363 C 0.31873 0.42496 0.73727 0.0
C2364 C 0.29819 0.3974 0.73322 0.0
C2365 C 0.31633 0.41345 0.75002 0.0
C2366 C 0.28405 0.37236 0.74498 0.0
C2367 C 0.2708 0.36559 0.71412 0.0
N2368 N 0.30629 0.40019 0.74771 0.0
N2369 N 0.28067 0.37897 0.7165 0.0
H2370 H 0.26756 0.64664 0.74395 0.0
H2371 H 0.31835 0.57288 0.78571 0.0
H2372 H 0.26972 0.6381 0.79652 0.0
H2373 H 0.31602 0.58084 0.73306 0.0
H2374 H 0.30045 0.59672 0.78983 0.0
H2375 H 0.28523 0.62258 0.73962 0.0
C2376 C 0.27168 0.63967 0.75458 0.0
C2377 C 0.26715 0.64441 0.77063 0.0
C2378 C 0.30384 0.59327 0.77737 0.0
C2379 C 0.2875 0.61693 0.76577 0.0
C2380 C 0.31398 0.57958 0.775 0.0
C2381 C 0.31867 0.57481 0.75901 0.0
C2382 C 0.29829 0.6023 0.76365 0.0
C2383 C 0.31287 0.58417 0.74561 0.0
C2384 C 0.28184 0.62598 0.7521 0.0
C2385 C 0.27308 0.63504 0.78394 0.0
N2386 N 0.30297 0.59745 0.74824 0.0
N2387 N 0.28292 0.62176 0.78121 0.0
H2388 H 0.87864 0.50047 0.47978 0.0
H2389 H 0.84334 0.4105 0.50004 0.0
H2390 H 0.90978 0.45761 0.48501 0.0
H2391 H 0.81309 0.45044 0.48205 0.0
H2392 H 0.86776 0.42815 0.49722 0.0
H2393 H 0.85434 0.48287 0.48328 0.0
C2394 C 0.88035 0.48736 0.48177 0.0
C2395 C 0.89623 0.48048 0.48212 0.0
C2396 C 0.85578 0.43303 0.49386 0.0
C2397 C 0.8685 0.46026 0.48606 0.0
C2398 C 0.84185 0.42301 0.49556 0.0
C2399 C 0.82619 0.42903 0.49126 0.0
C2400 C 0.85401 0.44925 0.48799 0.0
C2401 C 0.82496 0.44527 0.48535 0.0
C2402 C 0.86649 0.47731 0.48366 0.0
C2403 C 0.89774 0.46338 0.48452 0.0
N2404 N 0.83868 0.45484 0.48396 0.0
N2405 N 0.88404 0.45386 0.48646 0.0
H2406 H 0.73194 0.85159 0.74511 0.0
H2407 H 0.67634 0.91977 0.7901 0.0
H2408 H 0.72588 0.85458 0.798 0.0
H2409 H 0.68705 0.92022 0.7379 0.0
H2410 H 0.69335 0.89506 0.79307 0.0
H2411 H 0.71463 0.87607 0.74207 0.0
C2412 C 0.72704 0.85742 0.7561 0.0
C2413 C 0.73041 0.85099 0.77184 0.0
C2414 C 0.692 0.90057 0.78096 0.0
C2415 C 0.7104 0.87895 0.76843 0.0
C2416 C 0.68221 0.91462 0.77925 0.0
C2417 C 0.68027 0.92208 0.76373 0.0
C2418 C 0.69986 0.89384 0.76705 0.0
C2419 C 0.68836 0.915 0.75013 0.0
C2420 C 0.71709 0.87136 0.75434 0.0
C2421 C 0.72345 0.85893 0.7856 0.0
N2422 N 0.69777 0.90126 0.7521 0.0
N2423 N 0.71379 0.87248 0.78357 0.0
H2424 H 0.58893 0.53953 0.97746 0.0
H2425 H 0.68726 0.54607 0.98423 0.0
H2426 H 0.62114 0.49716 0.97836 0.0
H2427 H 0.65463 0.5872 0.99305 0.0
H2428 H 0.66322 0.5282 0.98029 0.0
H2429 H 0.61293 0.55749 0.98148 0.0
C2430 C 0.60106 0.53402 0.97846 0.0
C2431 C 0.60306 0.51683 0.97758 0.0
C2432 C 0.66131 0.54113 0.98312 0.0
C2433 C 0.63054 0.53728 0.98221 0.0
C2434 C 0.67503 0.55135 0.98527 0.0
C2435 C 0.67293 0.56814 0.98897 0.0
C2436 C 0.64537 0.54777 0.98454 0.0
C2437 C 0.6568 0.57429 0.99038 0.0
C2438 C 0.61474 0.54426 0.98084 0.0
C2439 C 0.61903 0.51033 0.97914 0.0
N2440 N 0.64363 0.56412 0.9881 0.0
N2441 N 0.63216 0.52056 0.98131 0.0
H2442 H 0.22576 0.64229 0.20441 0.0
H2443 H 0.1799 0.58271 0.26868 0.0
H2444 H 0.22693 0.64968 0.2572 0.0
H2445 H 0.17916 0.57566 0.21584 0.0
H2446 H 0.19676 0.6075 0.26482 0.0
H2447 H 0.20822 0.61813 0.20844 0.0
C2448 C 0.22221 0.63892 0.21685 0.0
C2449 C 0.22781 0.64807 0.23048 0.0
C2450 C 0.19291 0.60052 0.25408 0.0
C2451 C 0.20786 0.62021 0.23522 0.0
C2452 C 0.18322 0.58641 0.25626 0.0
C2453 C 0.17812 0.57707 0.24256 0.0
C2454 C 0.19751 0.60536 0.23807 0.0
C2455 C 0.18299 0.58233 0.22678 0.0
C2456 C 0.21227 0.62504 0.21915 0.0
C2457 C 0.22305 0.6429 0.24634 0.0
N2458 N 0.19239 0.59611 0.22497 0.0
N2459 N 0.21335 0.62932 0.24827 0.0
H2460 H 0.88663 0.51725 0.0472 0.0
H2461 H 0.83584 0.57638 0.98648 0.0
H2462 H 0.89985 0.52527 0.99621 0.0
H2463 H 0.81944 0.5631 0.0354 0.0
H2464 H 0.86012 0.55885 0.99021 0.0
H2465 H 0.86267 0.53515 0.0435 0.0
C2466 C 0.88453 0.52286 0.03524 0.0
C2467 C 0.89527 0.51979 0.022 0.0
C2468 C 0.8512 0.55976 0.00012 0.0
C2469 C 0.86779 0.54021 0.01763 0.0
C2470 C 0.8374 0.56984 0.99804 0.0
C2471 C 0.82559 0.5712 0.01065 0.0
C2472 C 0.85329 0.55105 0.01496 0.0
C2473 C 0.82813 0.56227 0.02529 0.0
C2474 C 0.87079 0.533 0.03311 0.0
C2475 C 0.8918 0.52718 0.00671 0.0
N2476 N 0.84171 0.55261 0.02705 0.0
N2477 N 0.87839 0.53708 0.00496 0.0
H2478 H 0.09066 0.95583 0.01615 0.0
H2479 H 0.18916 0.95015 0.01839 0.0
H2480 H 0.12238 0.9984 0.0211 0.0
H2481 H 0.15794 0.91011 0.00209 0.0
H2482 H 0.16471 0.96758 0.0214 0.0
H2483 H 0.11509 0.9384 0.01284 0.0
C2484 C 0.10278 0.96149 0.01658 0.0
C2485 C 0.10451 0.97858 0.01891 0.0
C2486 C 0.16321 0.955 0.01713 0.0
C2487 C 0.13249 0.95874 0.01513 0.0
C2488 C 0.17714 0.94502 0.01552 0.0
C2489 C 0.17556 0.92866 0.01 0.0
C2490 C 0.14756 0.94853 0.01336 0.0
C2491 C 0.15972 0.9227 0.00624 0.0
C2492 C 0.1167 0.95156 0.0146 0.0
C2493 C 0.12049 0.9853 0.01918 0.0
N2494 N 0.14631 0.93261 0.00806 0.0
N2495 N 0.13387 0.97536 0.0174 0.0
loop_
_geom_bond_atom_site_label_1
_geom_bond_atom_site_label_2
_geom_bond_distance
_geom_bond_site_symmetry_2
_ccdc_geom_bond_type
C0 C1 1.384 . S
C0 H13 0.947 . S
C0 C35 1.382 . S
C1 C0 1.384 . S
C1 C2 1.378 1_655 S
C2 C1 1.378 1_455 S
C2 C3 1.378 . S
C2 H14 0.952 . S
C3 C2 1.378 . S
C3 H15 0.950 . S
C3 C34 1.383 . S
H4 C23 0.947 . S
H5 C24 0.946 . S
H6 C26 0.953 . S
H7 C27 0.945 . S
H8 C29 0.952 . S
H9 C30 0.949 . S
H10 C32 0.950 . S
H11 C33 0.948 . S
H12 C35 0.951 . S
H13 C0 0.947 . S
H14 C2 0.952 . S
H15 C3 0.950 . S
N16 C19 1.382 . S
N16 C21 1.363 . S
N17 C19 1.371 . S
N17 C20 1.372 . S
N18 C20 1.361 . S
N18 C21 1.377 . S
C19 N16 1.382 . S
C19 N17 1.371 . S
C19 C22 1.480 . S
C20 N17 1.372 . S
C20 N18 1.361 . S
C20 C28 1.457 . S
C21 N16 1.363 . S
C21 N18 1.377 . S
C21 C34 1.479 . S
C22 C19 1.480 . S
C22 C23 1.383 1_545 S
C22 C27 1.385 . S
C23 H4 0.947 . S
C23 C22 1.383 1_565 S
C23 C24 1.388 . S
C24 H5 0.946 . S
C24 C23 1.388 . S
C24 C25 1.384 . S
C25 C24 1.384 . S
C25 C26 1.377 1_565 S
C26 H6 0.953 . S
C26 C25 1.377 1_545 S
C26 C27 1.369 . S
C27 H7 0.945 . S
C27 C22 1.385 . S
C27 C26 1.369 . S
C28 C20 1.457 . S
C28 C29 1.372 1_554 S
C28 C33 1.364 . S
C29 H8 0.952 . S
C29 C28 1.372 1_556 S
C29 C30 1.389 . S
C30 H9 0.949 . S
C30 C29 1.389 . S
C30 C31 1.387 . S
C31 C30 1.387 . S
C31 C32 1.372 1_556 S
C32 H10 0.950 . S
C32 C31 1.372 1_554 S
C32 C33 1.379 . S
C33 H11 0.948 . S
C33 C28 1.364 . S
C33 C32 1.379 . S
C34 C3 1.383 . S
C34 C21 1.479 . S
C34 C35 1.398 1_455 S
C35 C0 1.382 . S
C35 H12 0.951 . S
C35 C34 1.398 1_655 S
C36 C37 1.384 . S
C36 H49 0.947 . S
C36 C71 1.382 . S
C37 C36 1.384 . S
C37 C38 1.378 . S
C38 C37 1.378 . S
C38 C39 1.378 . S
C38 H50 0.952 . S
C39 C38 1.378 . S
C39 H51 0.950 . S
C39 C70 1.383 . S
H40 C59 0.947 . S
H41 C60 0.946 . S
H42 C62 0.953 . S
H43 C63 0.945 . S
H44 C65 0.952 . S
H45 C66 0.949 . S
H46 C68 0.950 . S
H47 C69 0.948 . S
H48 C71 0.951 . S
H49 C36 0.947 . S
H50 C38 0.952 . S
H51 C39 0.950 . S
N52 C55 1.382 . S
N52 C57 1.363 . S
N53 C55 1.371 . S
N53 C56 1.372 . S
N54 C56 1.361 . S
N54 C57 1.377 . S
C55 N52 1.382 . S
C55 N53 1.371 . S
C55 C58 1.480 . S
C56 N53 1.372 . S
C56 N54 1.361 . S
C56 C64 1.457 . S
C57 N52 1.363 . S
C57 N54 1.377 . S
C57 C70 1.479 . S
C58 C55 1.480 . S
C58 C59 1.383 . S
C58 C63 1.385 . S
C59 H40 0.947 . S
C59 C58 1.383 . S
C59 C60 1.388 . S
C60 H41 0.946 . S
C60 C59 1.388 . S
C60 C61 1.384 . S
C61 C60 1.384 . S
C61 C62 1.377 . S
C62 H42 0.953 . S
C62 C61 1.377 . S
C62 C63 1.369 . S
C63 H43 0.945 . S
C63 C58 1.385 . S
C63 C62 1.369 . S
C64 C56 1.457 . S
C64 C65 1.372 . S
C64 C69 1.364 . S
C65 H44 0.952 . S
C65 C64 1.372 . S
C65 C66 1.389 . S
C66 H45 0.949 . S
C66 C65 1.389 . S
C66 C67 1.387 . S
C67 C66 1.387 . S
C67 C68 1.372 . S
C68 H46 0.950 . S
C68 C67 1.372 . S
C68 C69 1.379 . S
C69 H47 0.948 . S
C69 C64 1.364 . S
C69 C68 1.379 . S
C70 C39 1.383 . S
C70 C57 1.479 . S
C70 C71 1.398 . S
C71 C36 1.382 . S
C71 H48 0.951 . S
C71 C70 1.398 . S
C72 C73 1.384 1_554 S
C72 H85 0.947 . S
C72 C107 1.382 . S
C73 C72 1.384 1_556 S
C73 C74 1.378 . S
C74 C73 1.378 . S
C74 C75 1.378 . S
C74 H86 0.952 . S
C75 C74 1.378 . S
C75 H87 0.950 . S
C75 C106 1.383 1_556 S
H76 C95 0.947 . S
H77 C96 0.946 . S
H78 C98 0.953 . S
H79 C99 0.945 . S
H80 C101 0.952 . S
H81 C102 0.949 . S
H82 C104 0.950 . S
H83 C105 0.948 . S
H84 C107 0.951 . S
H85 C72 0.947 . S
H86 C74 0.952 . S
H87 C75 0.950 . S
N88 C91 1.382 . S
N88 C93 1.363 . S
N89 C91 1.371 . S
N89 C92 1.372 . S
N90 C92 1.361 . S
N90 C93 1.377 . S
C91 N88 1.382 . S
C91 N89 1.371 . S
C91 C94 1.480 . S
C92 N89 1.372 . S
C92 N90 1.361 . S
C92 C100 1.457 . S
C93 N88 1.363 . S
C93 N90 1.377 . S
C93 C106 1.479 . S
C94 C91 1.480 . S
C94 C95 1.383 . S
C94 C99 1.385 . S
C95 H76 0.947 . S
C95 C94 1.383 . S
C95 C96 1.388 . S
C96 H77 0.946 . S
C96 C95 1.388 . S
C96 C97 1.384 . S
C97 C96 1.384 . S
C97 C98 1.377 . S
C98 H78 0.953 . S
C98 C97 1.377 . S
C98 C99 1.369 . S
C99 H79 0.945 . S
C99 C94 1.385 . S
C99 C98 1.369 . S
C100 C92 1.457 . S
C100 C101 1.372 . S
C100 C105 1.364 1_655 S
C101 H80 0.952 . S
C101 C100 1.372 . S
C101 C102 1.389 . S
C102 H81 0.949 . S
C102 C101 1.389 . S
C102 C103 1.387 1_655 S
C103 C102 1.387 1_455 S
C103 C104 1.372 . S
C104 H82 0.950 . S
C104 C103 1.372 . S
C104 C105 1.379 . S
C105 H83 0.948 . S
C105 C100 1.364 1_455 S
C105 C104 1.379 . S
C106 C75 1.383 1_554 S
C106 C93 1.479 . S
C106 C107 1.398 . S
C107 C72 1.382 . S
C107 H84 0.951 . S
C107 C106 1.398 . S
C108 C109 1.384 . S
C108 H121 0.947 . S
C108 C143 1.382 . S
C109 C108 1.384 . S
C109 C110 1.378 . S
C110 C109 1.378 . S
C110 C111 1.378 . S
C110 H122 0.952 . S
C111 C110 1.378 . S
C111 H123 0.950 . S
C111 C142 1.383 . S
H112 C131 0.947 . S
H113 C132 0.946 . S
H114 C134 0.953 . S
H115 C135 0.945 . S
H116 C137 0.952 . S
H117 C138 0.949 . S
H118 C140 0.950 . S
H119 C141 0.948 . S
H120 C143 0.951 . S
H121 C108 0.947 . S
H122 C110 0.952 . S
H123 C111 0.950 . S
N124 C127 1.382 . S
N124 C129 1.363 . S
N125 C127 1.371 . S
N125 C128 1.372 . S
N126 C128 1.361 . S
N126 C129 1.377 . S
C127 N124 1.382 . S
C127 N125 1.371 . S
C127 C130 1.480 . S
C128 N125 1.372 . S
C128 N126 1.361 . S
C128 C136 1.457 . S
C129 N124 1.363 . S
C129 N126 1.377 . S
C129 C142 1.479 . S
C130 C127 1.480 . S
C130 C131 1.383 . S
C130 C135 1.385 . S
C131 H112 0.947 . S
C131 C130 1.383 . S
C131 C132 1.388 . S
C132 H113 0.946 . S
C132 C131 1.388 . S
C132 C133 1.384 . S
C133 C132 1.384 . S
C133 C134 1.377 . S
C134 H114 0.953 . S
C134 C133 1.377 . S
C134 C135 1.369 . S
C135 H115 0.945 . S
C135 C130 1.385 . S
C135 C134 1.369 . S
C136 C128 1.457 . S
C136 C137 1.372 . S
C136 C141 1.364 . S
C137 H116 0.952 . S
C137 C136 1.372 . S
C137 C138 1.389 . S
C138 H117 0.949 . S
C138 C137 1.389 . S
C138 C139 1.387 . S
C139 C138 1.387 . S
C139 C140 1.372 . S
C140 H118 0.950 . S
C140 C139 1.372 . S
C140 C141 1.379 . S
C141 H119 0.948 . S
C141 C136 1.364 . S
C141 C140 1.379 . S
C142 C111 1.383 . S
C142 C129 1.479 . S
C142 C143 1.398 . S
C143 C108 1.382 . S
C143 H120 0.951 . S
C143 C142 1.398 . S
C144 C145 1.384 . S
C144 H157 0.947 . S
C144 C179 1.382 . S
C145 C144 1.384 . S
C145 C146 1.378 . S
C146 C145 1.378 . S
C146 C147 1.378 . S
C146 H158 0.952 . S
C147 C146 1.378 . S
C147 H159 0.950 . S
C147 C178 1.383 . S
H148 C167 0.947 . S
H149 C168 0.946 . S
H150 C170 0.953 . S
H151 C171 0.945 . S
H152 C173 0.952 . S
H153 C174 0.949 . S
H154 C176 0.950 . S
H155 C177 0.948 . S
H156 C179 0.951 . S
H157 C144 0.947 . S
H158 C146 0.952 . S
H159 C147 0.950 . S
N160 C163 1.382 . S
N160 C165 1.363 . S
N161 C163 1.371 . S
N161 C164 1.372 . S
N162 C164 1.361 . S
N162 C165 1.377 . S
C163 N160 1.382 . S
C163 N161 1.371 . S
C163 C166 1.480 . S
C164 N161 1.372 . S
C164 N162 1.361 . S
C164 C172 1.457 . S
C165 N160 1.363 . S
C165 N162 1.377 . S
C165 C178 1.479 . S
C166 C163 1.480 . S
C166 C167 1.383 1_455 S
C166 C171 1.385 . S
C167 H148 0.947 . S
C167 C166 1.383 1_655 S
C167 C168 1.388 . S
C168 H149 0.946 . S
C168 C167 1.388 . S
C168 C169 1.384 . S
C169 C168 1.384 . S
C169 C170 1.377 1_655 S
C170 H150 0.953 . S
C170 C169 1.377 1_455 S
C170 C171 1.369 . S
C171 H151 0.945 . S
C171 C166 1.385 . S
C171 C170 1.369 . S
C172 C164 1.457 . S
C172 C173 1.372 1_565 S
C172 C177 1.364 . S
C173 H152 0.952 . S
C173 C172 1.372 1_545 S
C173 C174 1.389 . S
C174 H153 0.949 . S
C174 C173 1.389 . S
C174 C175 1.387 . S
C175 C174 1.387 . S
C175 C176 1.372 1_545 S
C176 H154 0.950 . S
C176 C175 1.372 1_565 S
C176 C177 1.379 . S
C177 H155 0.948 . S
C177 C172 1.364 . S
C177 C176 1.379 . S
C178 C147 1.383 . S
C178 C165 1.479 . S
C178 C179 1.398 . S
C179 C144 1.382 . S
C179 H156 0.951 . S
C179 C178 1.398 . S
C180 C181 1.384 . S
C180 H193 0.947 . S
C180 C215 1.382 . S
C181 C180 1.384 . S
C181 C182 1.378 . S
C182 C181 1.378 . S
C182 C183 1.378 . S
C182 H194 0.952 . S
C183 C182 1.378 . S
C183 H195 0.950 . S
C183 C214 1.383 . S
H184 C203 0.947 . S
H185 C204 0.946 . S
H186 C206 0.953 . S
H187 C207 0.945 . S
H188 C209 0.952 . S
H189 C210 0.949 . S
H190 C212 0.950 . S
H191 C213 0.948 . S
H192 C215 0.951 . S
H193 C180 0.947 . S
H194 C182 0.952 . S
H195 C183 0.950 . S
N196 C199 1.382 . S
N196 C201 1.363 . S
N197 C199 1.371 . S
N197 C200 1.372 . S
N198 C200 1.361 . S
N198 C201 1.377 . S
C199 N196 1.382 . S
C199 N197 1.371 . S
C199 C202 1.480 . S
C200 N197 1.372 . S
C200 N198 1.361 . S
C200 C208 1.457 . S
C201 N196 1.363 . S
C201 N198 1.377 . S
C201 C214 1.479 . S
C202 C199 1.480 . S
C202 C203 1.383 . S
C202 C207 1.385 . S
C203 H184 0.947 . S
C203 C202 1.383 . S
C203 C204 1.388 . S
C204 H185 0.946 . S
C204 C203 1.388 . S
C204 C205 1.384 . S
C205 C204 1.384 . S
C205 C206 1.377 . S
C206 H186 0.953 . S
C206 C205 1.377 . S
C206 C207 1.369 . S
C207 H187 0.945 . S
C207 C202 1.385 . S
C207 C206 1.369 . S
C208 C200 1.457 . S
C208 C209 1.372 . S
C208 C213 1.364 . S
C209 H188 0.952 . S
C209 C208 1.372 . S
C209 C210 1.389 . S
C210 H189 0.949 . S
C210 C209 1.389 . S
C210 C211 1.387 . S
C211 C210 1.387 . S
C211 C212 1.372 . S
C212 H190 0.950 . S
C212 C211 1.372 . S
C212 C213 1.379 . S
C213 H191 0.948 . S
C213 C208 1.364 . S
C213 C212 1.379 . S
C214 C183 1.383 . S
C214 C201 1.479 . S
C214 C215 1.398 . S
C215 C180 1.382 . S
C215 H192 0.951 . S
C215 C214 1.398 . S
C216 C217 1.384 . S
C216 H229 0.947 . S
C216 C251 1.382 . S
C217 C216 1.384 . S
C217 C218 1.378 . S
C218 C217 1.378 . S
C218 C219 1.378 . S
C218 H230 0.952 . S
C219 C218 1.378 . S
C219 H231 0.950 . S
C219 C250 1.383 . S
H220 C239 0.947 . S
H221 C240 0.946 . S
H222 C242 0.953 . S
H223 C243 0.945 . S
H224 C245 0.952 . S
H225 C246 0.949 . S
H226 C248 0.950 . S
H227 C249 0.948 . S
H228 C251 0.951 . S
H229 C216 0.947 . S
H230 C218 0.952 . S
H231 C219 0.950 . S
N232 C235 1.382 . S
N232 C237 1.363 . S
N233 C235 1.371 . S
N233 C236 1.372 . S
N234 C236 1.361 . S
N234 C237 1.377 . S
C235 N232 1.382 . S
C235 N233 1.371 . S
C235 C238 1.480 . S
C236 N233 1.372 . S
C236 N234 1.361 . S
C236 C244 1.457 . S
C237 N232 1.363 . S
C237 N234 1.377 . S
C237 C250 1.479 . S
C238 C235 1.480 . S
C238 C239 1.383 . S
C238 C243 1.385 . S
C239 H220 0.947 . S
C239 C238 1.383 . S
C239 C240 1.388 . S
C240 H221 0.946 . S
C240 C239 1.388 . S
C240 C241 1.384 . S
C241 C240 1.384 . S
C241 C242 1.377 . S
C242 H222 0.953 . S
C242 C241 1.377 . S
C242 C243 1.369 . S
C243 H223 0.945 . S
C243 C238 1.385 . S
C243 C242 1.369 . S
C244 C236 1.457 . S
C244 C245 1.372 . S
C244 C249 1.364 1_655 S
C245 H224 0.952 . S
C245 C244 1.372 . S
C245 C246 1.389 . S
C246 H225 0.949 . S
C246 C245 1.389 . S
C246 C247 1.387 1_655 S
C247 C246 1.387 1_455 S
C247 C248 1.372 . S
C248 H226 0.950 . S
C248 C247 1.372 . S
C248 C249 1.379 . S
C249 H227 0.948 . S
C249 C244 1.364 1_455 S
C249 C248 1.379 . S
C250 C219 1.383 . S
C250 C237 1.479 . S
C250 C251 1.398 . S
C251 C216 1.382 . S
C251 H228 0.951 . S
C251 C250 1.398 . S
C252 C253 1.384 . S
C252 H265 0.947 . S
C252 C287 1.382 . S
C253 C252 1.384 . S
C253 C254 1.378 . S
C254 C253 1.378 . S
C254 C255 1.378 . S
C254 H266 0.952 . S
C255 C254 1.378 . S
C255 H267 0.950 . S
C255 C286 1.383 . S
H256 C275 0.947 . S
H257 C276 0.946 . S
H258 C278 0.953 . S
H259 C279 0.945 . S
H260 C281 0.952 . S
H261 C282 0.949 . S
H262 C284 0.950 . S
H263 C285 0.948 . S
H264 C287 0.951 . S
H265 C252 0.947 . S
H266 C254 0.952 . S
H267 C255 0.950 . S
N268 C271 1.382 . S
N268 C273 1.363 . S
N269 C271 1.371 . S
N269 C272 1.372 . S
N270 C272 1.361 . S
N270 C273 1.377 . S
C271 N268 1.382 . S
C271 N269 1.371 . S
C271 C274 1.480 . S
C272 N269 1.372 . S
C272 N270 1.361 . S
C272 C280 1.457 . S
C273 N268 1.363 . S
C273 N270 1.377 . S
C273 C286 1.479 . S
C274 C271 1.480 . S
C274 C275 1.383 . S
C274 C279 1.385 . S
C275 H256 0.947 . S
C275 C274 1.383 . S
C275 C276 1.388 . S
C276 H257 0.946 . S
C276 C275 1.388 . S
C276 C277 1.384 . S
C277 C276 1.384 . S
C277 C278 1.377 . S
C278 H258 0.953 . S
C278 C277 1.377 . S
C278 C279 1.369 . S
C279 H259 0.945 . S
C279 C274 1.385 . S
C279 C278 1.369 . S
C280 C272 1.457 . S
C280 C281 1.372 . S
C280 C285 1.364 . S
C281 H260 0.952 . S
C281 C280 1.372 . S
C281 C282 1.389 . S
C282 H261 0.949 . S
C282 C281 1.389 . S
C282 C283 1.387 . S
C283 C282 1.387 . S
C283 C284 1.372 . S
C284 H262 0.950 . S
C284 C283 1.372 . S
C284 C285 1.379 . S
C285 H263 0.948 . S
C285 C280 1.364 . S
C285 C284 1.379 . S
C286 C255 1.383 . S
C286 C273 1.479 . S
C286 C287 1.398 . S
C287 C252 1.382 . S
C287 H264 0.951 . S
C287 C286 1.398 . S
C288 C289 1.384 . S
C288 H301 0.947 . S
C288 C323 1.382 . S
C289 C288 1.384 . S
C289 C290 1.378 . S
C290 C289 1.378 . S
C290 C291 1.378 . S
C290 H302 0.952 . S
C291 C290 1.378 . S
C291 H303 0.950 . S
C291 C322 1.383 . S
H292 C311 0.947 . S
H293 C312 0.946 . S
H294 C314 0.953 . S
H295 C315 0.945 . S
H296 C317 0.952 . S
H297 C318 0.949 . S
H298 C320 0.950 . S
H299 C321 0.948 . S
H300 C323 0.951 . S
H301 C288 0.947 . S
H302 C290 0.952 . S
H303 C291 0.950 . S
N304 C307 1.382 . S
N304 C309 1.363 . S
N305 C307 1.371 . S
N305 C308 1.372 . S
N306 C308 1.361 . S
N306 C309 1.377 . S
C307 N304 1.382 . S
C307 N305 1.371 . S
C307 C310 1.480 . S
C308 N305 1.372 . S
C308 N306 1.361 . S
C308 C316 1.457 . S
C309 N304 1.363 . S
C309 N306 1.377 . S
C309 C322 1.479 . S
C310 C307 1.480 . S
C310 C311 1.383 . S
C310 C315 1.385 . S
C311 H292 0.947 . S
C311 C310 1.383 . S
C311 C312 1.388 . S
C312 H293 0.946 . S
C312 C311 1.388 . S
C312 C313 1.384 . S
C313 C312 1.384 . S
C313 C314 1.377 . S
C314 H294 0.953 . S
C314 C313 1.377 . S
C314 C315 1.369 . S
C315 H295 0.945 . S
C315 C310 1.385 . S
C315 C314 1.369 . S
C316 C308 1.457 . S
C316 C317 1.372 . S
C316 C321 1.364 . S
C317 H296 0.952 . S
C317 C316 1.372 . S
C317 C318 1.389 . S
C318 H297 0.949 . S
C318 C317 1.389 . S
C318 C319 1.387 . S
C319 C318 1.387 . S
C319 C320 1.372 . S
C320 H298 0.950 . S
C320 C319 1.372 . S
C320 C321 1.379 . S
C321 H299 0.948 . S
C321 C316 1.364 . S
C321 C320 1.379 . S
C322 C291 1.383 . S
C322 C309 1.479 . S
C322 C323 1.398 . S
C323 C288 1.382 . S
C323 H300 0.951 . S
C323 C322 1.398 . S
C324 C325 1.384 . S
C324 H337 0.947 . S
C324 C359 1.382 . S
C325 C324 1.384 . S
C325 C326 1.378 . S
C326 C325 1.378 . S
C326 C327 1.378 . S
C326 H338 0.952 . S
C327 C326 1.378 . S
C327 H339 0.950 . S
C327 C358 1.383 . S
H328 C347 0.947 . S
H329 C348 0.946 . S
H330 C350 0.953 . S
H331 C351 0.945 . S
H332 C353 0.952 . S
H333 C354 0.949 . S
H334 C356 0.950 . S
H335 C357 0.948 . S
H336 C359 0.951 . S
H337 C324 0.947 . S
H338 C326 0.952 . S
H339 C327 0.950 . S
N340 C343 1.382 . S
N340 C345 1.363 . S
N341 C343 1.371 . S
N341 C344 1.372 . S
N342 C344 1.361 . S
N342 C345 1.377 . S
C343 N340 1.382 . S
C343 N341 1.371 . S
C343 C346 1.480 . S
C344 N341 1.372 . S
C344 N342 1.361 . S
C344 C352 1.457 . S
C345 N340 1.363 . S
C345 N342 1.377 . S
C345 C358 1.479 . S
C346 C343 1.480 . S
C346 C347 1.383 . S
C346 C351 1.385 1_565 S
C347 H328 0.947 . S
C347 C346 1.383 . S
C347 C348 1.388 . S
C348 H329 0.946 . S
C348 C347 1.388 . S
C348 C349 1.384 1_565 S
C349 C348 1.384 1_545 S
C349 C350 1.377 . S
C350 H330 0.953 . S
C350 C349 1.377 . S
C350 C351 1.369 . S
C351 H331 0.945 . S
C351 C346 1.385 1_545 S
C351 C350 1.369 . S
C352 C344 1.457 . S
C352 C353 1.372 . S
C352 C357 1.364 . S
C353 H332 0.952 . S
C353 C352 1.372 . S
C353 C354 1.389 . S
C354 H333 0.949 . S
C354 C353 1.389 . S
C354 C355 1.387 . S
C355 C354 1.387 . S
C355 C356 1.372 . S
C356 H334 0.950 . S
C356 C355 1.372 . S
C356 C357 1.379 . S
C357 H335 0.948 . S
C357 C352 1.364 . S
C357 C356 1.379 . S
C358 C327 1.383 . S
C358 C345 1.479 . S
C358 C359 1.398 . S
C359 C324 1.382 . S
C359 H336 0.951 . S
C359 C358 1.398 . S
C360 C361 1.384 . S
C360 H373 0.947 . S
C360 C395 1.382 . S
C361 C360 1.384 . S
C361 C362 1.378 . S
C362 C361 1.378 . S
C362 C363 1.378 . S
C362 H374 0.952 . S
C363 C362 1.378 . S
C363 H375 0.950 . S
C363 C394 1.383 . S
H364 C383 0.947 . S
H365 C384 0.946 . S
H366 C386 0.953 . S
H367 C387 0.945 . S
H368 C389 0.952 . S
H369 C390 0.949 . S
H370 C392 0.950 . S
H371 C393 0.948 . S
H372 C395 0.951 . S
H373 C360 0.947 . S
H374 C362 0.952 . S
H375 C363 0.950 . S
N376 C379 1.382 . S
N376 C381 1.363 . S
N377 C379 1.371 . S
N377 C380 1.372 . S
N378 C380 1.361 . S
N378 C381 1.377 . S
C379 N376 1.382 . S
C379 N377 1.371 . S
C379 C382 1.480 . S
C380 N377 1.372 . S
C380 N378 1.361 . S
C380 C388 1.457 . S
C381 N376 1.363 . S
C381 N378 1.377 . S
C381 C394 1.479 . S
C382 C379 1.480 . S
C382 C383 1.383 . S
C382 C387 1.385 . S
C383 H364 0.947 . S
C383 C382 1.383 . S
C383 C384 1.388 . S
C384 H365 0.946 . S
C384 C383 1.388 . S
C384 C385 1.384 . S
C385 C384 1.384 . S
C385 C386 1.377 . S
C386 H366 0.953 . S
C386 C385 1.377 . S
C386 C387 1.369 . S
C387 H367 0.945 . S
C387 C382 1.385 . S
C387 C386 1.369 . S
C388 C380 1.457 . S
C388 C389 1.372 . S
C388 C393 1.364 . S
C389 H368 0.952 . S
C389 C388 1.372 . S
C389 C390 1.389 . S
C390 H369 0.949 . S
C390 C389 1.389 . S
C390 C391 1.387 . S
C391 C390 1.387 . S
C391 C392 1.372 . S
C392 H370 0.950 . S
C392 C391 1.372 . S
C392 C393 1.379 . S
C393 H371 0.948 . S
C393 C388 1.364 . S
C393 C392 1.379 . S
C394 C363 1.383 . S
C394 C381 1.479 . S
C394 C395 1.398 . S
C395 C360 1.382 . S
C395 H372 0.951 . S
C395 C394 1.398 . S
C396 C397 1.384 . S
C396 H409 0.947 . S
C396 C431 1.382 . S
C397 C396 1.384 . S
C397 C398 1.378 . S
C398 C397 1.378 . S
C398 C399 1.378 . S
C398 H410 0.952 . S
C399 C398 1.378 . S
C399 H411 0.950 . S
C399 C430 1.383 . S
H400 C419 0.947 . S
H401 C420 0.946 . S
H402 C422 0.953 . S
H403 C423 0.945 . S
H404 C425 0.952 . S
H405 C426 0.949 . S
H406 C428 0.950 . S
H407 C429 0.948 . S
H408 C431 0.951 . S
H409 C396 0.947 . S
H410 C398 0.952 . S
H411 C399 0.950 . S
N412 C415 1.382 . S
N412 C417 1.363 . S
N413 C415 1.371 . S
N413 C416 1.372 . S
N414 C416 1.361 . S
N414 C417 1.377 . S
C415 N412 1.382 . S
C415 N413 1.371 . S
C415 C418 1.480 . S
C416 N413 1.372 . S
C416 N414 1.361 . S
C416 C424 1.457 . S
C417 N412 1.363 . S
C417 N414 1.377 . S
C417 C430 1.479 . S
C418 C415 1.480 . S
C418 C419 1.383 . S
C418 C423 1.385 . S
C419 H400 0.947 . S
C419 C418 1.383 . S
C419 C420 1.388 . S
C420 H401 0.946 . S
C420 C419 1.388 . S
C420 C421 1.384 . S
C421 C420 1.384 . S
C421 C422 1.377 . S
C422 H402 0.953 . S
C422 C421 1.377 . S
C422 C423 1.369 . S
C423 H403 0.945 . S
C423 C418 1.385 . S
C423 C422 1.369 . S
C424 C416 1.457 . S
C424 C425 1.372 . S
C424 C429 1.364 . S
C425 H404 0.952 . S
C425 C424 1.372 . S
C425 C426 1.389 . S
C426 H405 0.949 . S
C426 C425 1.389 . S
C426 C427 1.387 . S
C427 C426 1.387 . S
C427 C428 1.372 . S
C428 H406 0.950 . S
C428 C427 1.372 . S
C428 C429 1.379 . S
C429 H407 0.948 . S
C429 C424 1.364 . S
C429 C428 1.379 . S
C430 C399 1.383 . S
C430 C417 1.479 . S
C430 C431 1.398 . S
C431 C396 1.382 . S
C431 H408 0.951 . S
C431 C430 1.398 . S
C432 C433 1.384 . S
C432 H445 0.947 . S
C432 C467 1.382 . S
C433 C432 1.384 . S
C433 C434 1.378 . S
C434 C433 1.378 . S
C434 C435 1.378 . S
C434 H446 0.952 . S
C435 C434 1.378 . S
C435 H447 0.950 . S
C435 C466 1.383 . S
H436 C455 0.947 . S
H437 C456 0.946 . S
H438 C458 0.953 . S
H439 C459 0.945 . S
H440 C461 0.952 . S
H441 C462 0.949 . S
H442 C464 0.950 . S
H443 C465 0.948 . S
H444 C467 0.951 . S
H445 C432 0.947 . S
H446 C434 0.952 . S
H447 C435 0.950 . S
N448 C451 1.382 . S
N448 C453 1.363 . S
N449 C451 1.371 . S
N449 C452 1.372 . S
N450 C452 1.361 . S
N450 C453 1.377 . S
C451 N448 1.382 . S
C451 N449 1.371 . S
C451 C454 1.480 . S
C452 N449 1.372 . S
C452 N450 1.361 . S
C452 C460 1.457 . S
C453 N448 1.363 . S
C453 N450 1.377 . S
C453 C466 1.479 . S
C454 C451 1.480 . S
C454 C455 1.383 . S
C454 C459 1.385 . S
C455 H436 0.947 . S
C455 C454 1.383 . S
C455 C456 1.388 . S
C456 H437 0.946 . S
C456 C455 1.388 . S
C456 C457 1.384 . S
C457 C456 1.384 . S
C457 C458 1.377 . S
C458 H438 0.953 . S
C458 C457 1.377 . S
C458 C459 1.369 . S
C459 H439 0.945 . S
C459 C454 1.385 . S
C459 C458 1.369 . S
C460 C452 1.457 . S
C460 C461 1.372 . S
C460 C465 1.364 . S
C461 H440 0.952 . S
C461 C460 1.372 . S
C461 C462 1.389 . S
C462 H441 0.949 . S
C462 C461 1.389 . S
C462 C463 1.387 . S
C463 C462 1.387 . S
C463 C464 1.372 . S
C464 H442 0.950 . S
C464 C463 1.372 . S
C464 C465 1.379 . S
C465 H443 0.948 . S
C465 C460 1.364 . S
C465 C464 1.379 . S
C466 C435 1.383 . S
C466 C453 1.479 . S
C466 C467 1.398 . S
C467 C432 1.382 . S
C467 H444 0.951 . S
C467 C466 1.398 . S
C468 C469 1.384 . S
C468 H481 0.947 . S
C468 C503 1.382 . S
C469 C468 1.384 . S
C469 C470 1.378 1_554 S
C470 C469 1.378 1_556 S
C470 C471 1.378 . S
C470 H482 0.952 . S
C471 C470 1.378 . S
C471 H483 0.950 . S
C471 C502 1.383 . S
H472 C491 0.947 . S
H473 C492 0.946 . S
H474 C494 0.953 . S
H475 C495 0.945 . S
H476 C497 0.952 . S
H477 C498 0.949 . S
H478 C500 0.950 . S
H479 C501 0.948 . S
H480 C503 0.951 . S
H481 C468 0.947 . S
H482 C470 0.952 . S
H483 C471 0.950 . S
N484 C487 1.382 . S
N484 C489 1.363 . S
N485 C487 1.371 . S
N485 C488 1.372 . S
N486 C488 1.361 . S
N486 C489 1.377 . S
C487 N484 1.382 . S
C487 N485 1.371 . S
C487 C490 1.480 . S
C488 N485 1.372 . S
C488 N486 1.361 . S
C488 C496 1.457 . S
C489 N484 1.363 . S
C489 N486 1.377 . S
C489 C502 1.479 . S
C490 C487 1.480 . S
C490 C491 1.383 . S
C490 C495 1.385 . S
C491 H472 0.947 . S
C491 C490 1.383 . S
C491 C492 1.388 . S
C492 H473 0.946 . S
C492 C491 1.388 . S
C492 C493 1.384 . S
C493 C492 1.384 . S
C493 C494 1.377 . S
C494 H474 0.953 . S
C494 C493 1.377 . S
C494 C495 1.369 . S
C495 H475 0.945 . S
C495 C490 1.385 . S
C495 C494 1.369 . S
C496 C488 1.457 . S
C496 C497 1.372 . S
C496 C501 1.364 . S
C497 H476 0.952 . S
C497 C496 1.372 . S
C497 C498 1.389 . S
C498 H477 0.949 . S
C498 C497 1.389 . S
C498 C499 1.387 . S
C499 C498 1.387 . S
C499 C500 1.372 . S
C500 H478 0.950 . S
C500 C499 1.372 . S
C500 C501 1.379 . S
C501 H479 0.948 . S
C501 C496 1.364 . S
C501 C500 1.379 . S
C502 C471 1.383 . S
C502 C489 1.479 . S
C502 C503 1.398 1_556 S
C503 C468 1.382 . S
C503 H480 0.951 . S
C503 C502 1.398 1_554 S
C504 C505 1.384 . S
C504 H517 0.947 . S
C504 C539 1.382 . S
C505 C504 1.384 . S
C505 C506 1.378 . S
C506 C505 1.378 . S
C506 C507 1.378 . S
C506 H518 0.952 . S
C507 C506 1.378 . S
C507 H519 0.950 . S
C507 C538 1.383 . S
H508 C527 0.947 . S
H509 C528 0.946 . S
H510 C530 0.953 . S
H511 C531 0.945 . S
H512 C533 0.952 . S
H513 C534 0.949 . S
H514 C536 0.950 . S
H515 C537 0.948 . S
H516 C539 0.951 . S
H517 C504 0.947 . S
H518 C506 0.952 . S
H519 C507 0.950 . S
N520 C523 1.382 . S
N520 C525 1.363 . S
N521 C523 1.371 . S
N521 C524 1.372 . S
N522 C524 1.361 . S
N522 C525 1.377 . S
C523 N520 1.382 . S
C523 N521 1.371 . S
C523 C526 1.480 . S
C524 N521 1.372 . S
C524 N522 1.361 . S
C524 C532 1.457 . S
C525 N520 1.363 . S
C525 N522 1.377 . S
C525 C538 1.479 . S
C526 C523 1.480 . S
C526 C527 1.383 . S
C526 C531 1.385 . S
C527 H508 0.947 . S
C527 C526 1.383 . S
C527 C528 1.388 . S
C528 H509 0.946 . S
C528 C527 1.388 . S
C528 C529 1.384 . S
C529 C528 1.384 . S
C529 C530 1.377 . S
C530 H510 0.953 . S
C530 C529 1.377 . S
C530 C531 1.369 . S
C531 H511 0.945 . S
C531 C526 1.385 . S
C531 C530 1.369 . S
C532 C524 1.457 . S
C532 C533 1.372 . S
C532 C537 1.364 . S
C533 H512 0.952 . S
C533 C532 1.372 . S
C533 C534 1.389 . S
C534 H513 0.949 . S
C534 C533 1.389 . S
C534 C535 1.387 . S
C535 C534 1.387 . S
C535 C536 1.372 . S
C536 H514 0.950 . S
C536 C535 1.372 . S
C536 C537 1.379 . S
C537 H515 0.948 . S
C537 C532 1.364 . S
C537 C536 1.379 . S
C538 C507 1.383 . S
C538 C525 1.479 . S
C538 C539 1.398 . S
C539 C504 1.382 . S
C539 H516 0.951 . S
C539 C538 1.398 . S
C540 C541 1.384 1_556 S
C540 H553 0.947 . S
C540 C575 1.382 . S
C541 C540 1.384 1_554 S
C541 C542 1.378 . S
C542 C541 1.378 . S
C542 C543 1.378 . S
C542 H554 0.952 . S
C543 C542 1.378 . S
C543 H555 0.950 . S
C543 C574 1.383 1_554 S
H544 C563 0.947 . S
H545 C564 0.946 . S
H546 C566 0.953 . S
H547 C567 0.945 . S
H548 C569 0.952 . S
H549 C570 0.949 . S
H550 C572 0.950 . S
H551 C573 0.948 . S
H552 C575 0.951 . S
H553 C540 0.947 . S
H554 C542 0.952 . S
H555 C543 0.950 . S
N556 C559 1.382 . S
N556 C561 1.363 . S
N557 C559 1.371 . S
N557 C560 1.372 . S
N558 C560 1.361 . S
N558 C561 1.377 . S
C559 N556 1.382 . S
C559 N557 1.371 . S
C559 C562 1.480 . S
C560 N557 1.372 . S
C560 N558 1.361 . S
C560 C568 1.457 . S
C561 N556 1.363 . S
C561 N558 1.377 . S
C561 C574 1.479 . S
C562 C559 1.480 . S
C562 C563 1.383 . S
C562 C567 1.385 1_545 S
C563 H544 0.947 . S
C563 C562 1.383 . S
C563 C564 1.388 . S
C564 H545 0.946 . S
C564 C563 1.388 . S
C564 C565 1.384 1_545 S
C565 C564 1.384 1_565 S
C565 C566 1.377 . S
C566 H546 0.953 . S
C566 C565 1.377 . S
C566 C567 1.369 . S
C567 H547 0.945 . S
C567 C562 1.385 1_565 S
C567 C566 1.369 . S
C568 C560 1.457 . S
C568 C569 1.372 . S
C568 C573 1.364 . S
C569 H548 0.952 . S
C569 C568 1.372 . S
C569 C570 1.389 . S
C570 H549 0.949 . S
C570 C569 1.389 . S
C570 C571 1.387 . S
C571 C570 1.387 . S
C571 C572 1.372 . S
C572 H550 0.950 . S
C572 C571 1.372 . S
C572 C573 1.379 . S
C573 H551 0.948 . S
C573 C568 1.364 . S
C573 C572 1.379 . S
C574 C543 1.383 1_556 S
C574 C561 1.479 . S
C574 C575 1.398 . S
C575 C540 1.382 . S
C575 H552 0.951 . S
C575 C574 1.398 . S
Li576 N593 1.990 . S
Li576 O636 1.956 . S
Li576 O637 1.970 1_556 S
Li576 O638 1.961 . S
Li577 N601 1.990 . S
Li577 O636 1.970 1_554 S
Li577 O637 1.956 . S
Li577 O639 1.961 . S
Li578 N623 1.990 . S
Li578 O636 1.961 . S
Li578 O638 1.956 . S
Li578 O639 1.970 1_556 S
Li579 N629 1.990 . S
Li579 O637 1.961 . S
Li579 O638 1.970 1_554 S
Li579 O639 1.956 . S
C580 C582 1.348 1_556 S
C580 C583 1.356 . S
C580 O636 1.325 . S
N581 C584 1.314 1_556 S
N581 C585 1.279 . S
C582 C580 1.348 1_554 S
C582 C584 1.353 . S
C582 H640 0.929 . S
C583 C580 1.356 . S
C583 C585 1.358 . S
C583 H641 0.930 . S
C584 N581 1.314 1_554 S
C584 C582 1.353 . S
C584 H642 0.930 . S
C585 N581 1.279 . S
C585 C583 1.358 . S
C585 H643 0.930 . S
C586 C589 1.348 . S
C586 C590 1.356 . S
C586 O637 1.325 . S
C587 N588 1.279 . S
C587 C590 1.358 . S
C587 H644 0.930 . S
N588 C587 1.279 . S
N588 C591 1.314 . S
C589 C586 1.348 . S
C589 C591 1.353 . S
C589 H645 0.929 . S
C590 C586 1.356 . S
C590 C587 1.358 . S
C590 H646 0.930 . S
C591 N588 1.314 . S
C591 C589 1.353 . S
C591 H647 0.930 . S
C592 N593 1.314 . S
C592 C597 1.353 . S
C592 H598 0.930 . S
N593 Li576 1.990 . S
N593 C592 1.314 . S
N593 C595 1.279 . S
C594 C595 1.358 . S
C594 C596 1.356 . S
C594 H648 0.930 . S
C595 N593 1.279 . S
C595 C594 1.358 . S
C595 H599 0.930 . S
C596 C594 1.356 . S
C596 C597 1.348 . S
C597 C592 1.353 . S
C597 C596 1.348 . S
C597 H649 0.929 . S
H598 C592 0.930 . S
H599 C595 0.930 . S
C600 N601 1.314 . S
C600 C602 1.353 . S
C600 H606 0.930 . S
N601 Li577 1.990 . S
N601 C600 1.314 . S
N601 C604 1.279 . S
C602 C600 1.353 . S
C602 C605 1.348 . S
C602 H650 0.929 . S
C603 C604 1.358 . S
C603 C605 1.356 . S
C603 H651 0.930 . S
C604 N601 1.279 . S
C604 C603 1.358 . S
C604 H607 0.930 . S
C605 C602 1.348 . S
C605 C603 1.356 . S
H606 C600 0.930 . S
H607 C604 0.930 . S
C608 C610 1.348 . S
C608 C611 1.356 . S
C608 O638 1.325 . S
N609 C612 1.314 . S
N609 C613 1.279 . S
C610 C608 1.348 . S
C610 C612 1.353 . S
C610 H652 0.929 . S
C611 C608 1.356 . S
C611 C613 1.358 . S
C611 H653 0.930 . S
C612 N609 1.314 . S
C612 C610 1.353 . S
C612 H654 0.930 . S
C613 N609 1.279 . S
C613 C611 1.358 . S
C613 H655 0.930 . S
C614 C615 1.348 1_554 S
C614 C616 1.356 . S
C614 O639 1.325 . S
C615 C614 1.348 1_556 S
C615 C617 1.353 . S
C615 H656 0.929 . S
C616 C614 1.356 . S
C616 C618 1.358 . S
C616 H657 0.930 . S
C617 C615 1.353 . S
C617 N619 1.314 1_556 S
C617 H658 0.930 . S
C618 C616 1.358 . S
C618 N619 1.279 . S
C618 H659 0.930 . S
N619 C617 1.314 1_554 S
N619 C618 1.279 . S
C620 C622 1.353 . S
C620 N623 1.314 . S
C620 H626 0.930 . S
C621 N623 1.279 . S
C621 C624 1.358 . S
C621 H627 0.930 . S
C622 C620 1.353 . S
C622 C625 1.348 . S
C622 H660 0.929 . S
N623 Li578 1.990 . S
N623 C620 1.314 . S
N623 C621 1.279 . S
C624 C621 1.358 . S
C624 C625 1.356 . S
C624 H661 0.930 . S
C625 C622 1.348 . S
C625 C624 1.356 . S
H626 C620 0.930 . S
H627 C621 0.930 . S
C628 N629 1.314 . S
C628 C630 1.353 . S
C628 H634 0.930 . S
N629 Li579 1.990 . S
N629 C628 1.314 . S
N629 C632 1.279 . S
C630 C628 1.353 . S
C630 C633 1.348 . S
C630 H662 0.929 . S
C631 C632 1.358 . S
C631 C633 1.356 . S
C631 H663 0.930 . S
C632 N629 1.279 . S
C632 C631 1.358 . S
C632 H635 0.930 . S
C633 C630 1.348 . S
C633 C631 1.356 . S
H634 C628 0.930 . S
H635 C632 0.930 . S
O636 Li576 1.956 . S
O636 Li577 1.970 1_556 S
O636 Li578 1.961 . S
O636 C580 1.325 . S
O637 Li576 1.970 1_554 S
O637 Li577 1.956 . S
O637 Li579 1.961 . S
O637 C586 1.325 . S
O638 Li576 1.961 . S
O638 Li578 1.956 . S
O638 Li579 1.970 1_556 S
O638 C608 1.325 . S
O639 Li577 1.961 . S
O639 Li578 1.970 1_554 S
O639 Li579 1.956 . S
O639 C614 1.325 . S
H640 C582 0.929 . S
H641 C583 0.930 . S
H642 C584 0.930 . S
H643 C585 0.930 . S
H644 C587 0.930 . S
H645 C589 0.929 . S
H646 C590 0.930 . S
H647 C591 0.930 . S
H648 C594 0.930 . S
H649 C597 0.929 . S
H650 C602 0.929 . S
H651 C603 0.930 . S
H652 C610 0.929 . S
H653 C611 0.930 . S
H654 C612 0.930 . S
H655 C613 0.930 . S
H656 C615 0.929 . S
H657 C616 0.930 . S
H658 C617 0.930 . S
H659 C618 0.930 . S
H660 C622 0.929 . S
H661 C624 0.930 . S
H662 C630 0.929 . S
H663 C631 0.930 . S
Li664 N681 1.990 . S
Li664 O724 1.956 . S
Li664 O725 1.970 . S
Li664 O726 1.961 . S
Li665 N689 1.990 . S
Li665 O724 1.970 . S
Li665 O725 1.956 . S
Li665 O727 1.961 . S
Li666 N711 1.990 . S
Li666 O724 1.961 . S
Li666 O726 1.956 . S
Li666 O727 1.970 . S
Li667 N717 1.990 . S
Li667 O725 1.961 . S
Li667 O726 1.970 . S
Li667 O727 1.956 . S
C668 C670 1.348 . S
C668 C671 1.356 . S
C668 O724 1.325 . S
N669 C672 1.314 . S
N669 C673 1.279 . S
C670 C668 1.348 . S
C670 C672 1.353 . S
C670 H728 0.929 . S
C671 C668 1.356 . S
C671 C673 1.358 . S
C671 H729 0.930 . S
C672 N669 1.314 . S
C672 C670 1.353 . S
C672 H730 0.930 . S
C673 N669 1.279 . S
C673 C671 1.358 . S
C673 H731 0.930 . S
C674 C677 1.348 . S
C674 C678 1.356 . S
C674 O725 1.325 . S
C675 N676 1.279 . S
C675 C678 1.358 . S
C675 H732 0.930 . S
N676 C675 1.279 . S
N676 C679 1.314 . S
C677 C674 1.348 . S
C677 C679 1.353 . S
C677 H733 0.929 . S
C678 C674 1.356 . S
C678 C675 1.358 . S
C678 H734 0.930 . S
C679 N676 1.314 . S
C679 C677 1.353 . S
C679 H735 0.930 . S
C680 N681 1.314 . S
C680 C685 1.353 . S
C680 H686 0.930 . S
N681 Li664 1.990 . S
N681 C680 1.314 . S
N681 C683 1.279 . S
C682 C683 1.358 . S
C682 C684 1.356 . S
C682 H736 0.930 . S
C683 N681 1.279 . S
C683 C682 1.358 . S
C683 H687 0.930 . S
C684 C682 1.356 . S
C684 C685 1.348 . S
C685 C680 1.353 . S
C685 C684 1.348 . S
C685 H737 0.929 . S
H686 C680 0.930 . S
H687 C683 0.930 . S
C688 N689 1.314 . S
C688 C690 1.353 . S
C688 H694 0.930 . S
N689 Li665 1.990 . S
N689 C688 1.314 . S
N689 C692 1.279 . S
C690 C688 1.353 . S
C690 C693 1.348 . S
C690 H738 0.929 . S
C691 C692 1.358 . S
C691 C693 1.356 . S
C691 H739 0.930 . S
C692 N689 1.279 . S
C692 C691 1.358 . S
C692 H695 0.930 . S
C693 C690 1.348 . S
C693 C691 1.356 . S
H694 C688 0.930 . S
H695 C692 0.930 . S
C696 C698 1.348 . S
C696 C699 1.356 . S
C696 O726 1.325 . S
N697 C700 1.314 . S
N697 C701 1.279 . S
C698 C696 1.348 . S
C698 C700 1.353 . S
C698 H740 0.929 . S
C699 C696 1.356 . S
C699 C701 1.358 . S
C699 H741 0.930 . S
C700 N697 1.314 . S
C700 C698 1.353 . S
C700 H742 0.930 . S
C701 N697 1.279 . S
C701 C699 1.358 . S
C701 H743 0.930 . S
C702 C703 1.348 . S
C702 C704 1.356 . S
C702 O727 1.325 . S
C703 C702 1.348 . S
C703 C705 1.353 . S
C703 H744 0.929 . S
C704 C702 1.356 . S
C704 C706 1.358 . S
C704 H745 0.930 . S
C705 C703 1.353 . S
C705 N707 1.314 . S
C705 H746 0.930 . S
C706 C704 1.358 . S
C706 N707 1.279 . S
C706 H747 0.930 . S
N707 C705 1.314 . S
N707 C706 1.279 . S
C708 C710 1.353 . S
C708 N711 1.314 . S
C708 H714 0.930 . S
C709 N711 1.279 . S
C709 C712 1.358 . S
C709 H715 0.930 . S
C710 C708 1.353 . S
C710 C713 1.348 . S
C710 H748 0.929 . S
N711 Li666 1.990 . S
N711 C708 1.314 . S
N711 C709 1.279 . S
C712 C709 1.358 . S
C712 C713 1.356 . S
C712 H749 0.930 . S
C713 C710 1.348 . S
C713 C712 1.356 . S
H714 C708 0.930 . S
H715 C709 0.930 . S
C716 N717 1.314 . S
C716 C718 1.353 . S
C716 H722 0.930 . S
N717 Li667 1.990 . S
N717 C716 1.314 . S
N717 C720 1.279 . S
C718 C716 1.353 . S
C718 C721 1.348 . S
C718 H750 0.929 . S
C719 C720 1.358 . S
C719 C721 1.356 . S
C719 H751 0.930 . S
C720 N717 1.279 . S
C720 C719 1.358 . S
C720 H723 0.930 . S
C721 C718 1.348 . S
C721 C719 1.356 . S
H722 C716 0.930 . S
H723 C720 0.930 . S
O724 Li664 1.956 . S
O724 Li665 1.970 . S
O724 Li666 1.961 . S
O724 C668 1.325 . S
O725 Li664 1.970 . S
O725 Li665 1.956 . S
O725 Li667 1.961 . S
O725 C674 1.325 . S
O726 Li664 1.961 . S
O726 Li666 1.956 . S
O726 Li667 1.970 . S
O726 C696 1.325 . S
O727 Li665 1.961 . S
O727 Li666 1.970 . S
O727 Li667 1.956 . S
O727 C702 1.325 . S
H728 C670 0.929 . S
H729 C671 0.930 . S
H730 C672 0.930 . S
H731 C673 0.930 . S
H732 C675 0.930 . S
H733 C677 0.929 . S
H734 C678 0.930 . S
H735 C679 0.930 . S
H736 C682 0.930 . S
H737 C685 0.929 . S
H738 C690 0.929 . S
H739 C691 0.930 . S
H740 C698 0.929 . S
H741 C699 0.930 . S
H742 C700 0.930 . S
H743 C701 0.930 . S
H744 C703 0.929 . S
H745 C704 0.930 . S
H746 C705 0.930 . S
H747 C706 0.930 . S
H748 C710 0.929 . S
H749 C712 0.930 . S
H750 C718 0.929 . S
H751 C719 0.930 . S
Li752 N769 1.990 . S
Li752 O812 1.956 . S
Li752 O813 1.970 1_556 S
Li752 O814 1.961 . S
Li753 N777 1.990 . S
Li753 O812 1.970 1_554 S
Li753 O813 1.956 . S
Li753 O815 1.961 . S
Li754 N799 1.990 . S
Li754 O812 1.961 . S
Li754 O814 1.956 . S
Li754 O815 1.970 1_556 S
Li755 N805 1.990 . S
Li755 O813 1.961 . S
Li755 O814 1.970 1_554 S
Li755 O815 1.956 . S
C756 C758 1.348 1_556 S
C756 C759 1.356 . S
C756 O812 1.325 . S
N757 C760 1.314 1_556 S
N757 C761 1.279 . S
C758 C756 1.348 1_554 S
C758 C760 1.353 . S
C758 H816 0.929 . S
C759 C756 1.356 . S
C759 C761 1.358 . S
C759 H817 0.930 . S
C760 N757 1.314 1_554 S
C760 C758 1.353 . S
C760 H818 0.930 . S
C761 N757 1.279 . S
C761 C759 1.358 . S
C761 H819 0.930 . S
C762 C765 1.348 . S
C762 C766 1.356 . S
C762 O813 1.325 . S
C763 N764 1.279 . S
C763 C766 1.358 . S
C763 H820 0.930 . S
N764 C763 1.279 . S
N764 C767 1.314 . S
C765 C762 1.348 . S
C765 C767 1.353 . S
C765 H821 0.929 . S
C766 C762 1.356 . S
C766 C763 1.358 . S
C766 H822 0.930 . S
C767 N764 1.314 . S
C767 C765 1.353 . S
C767 H823 0.930 . S
C768 N769 1.314 . S
C768 C773 1.353 . S
C768 H774 0.930 . S
N769 Li752 1.990 . S
N769 C768 1.314 . S
N769 C771 1.279 . S
C770 C771 1.358 . S
C770 C772 1.356 . S
C770 H824 0.930 . S
C771 N769 1.279 . S
C771 C770 1.358 . S
C771 H775 0.930 . S
C772 C770 1.356 . S
C772 C773 1.348 . S
C773 C768 1.353 . S
C773 C772 1.348 . S
C773 H825 0.929 . S
H774 C768 0.930 . S
H775 C771 0.930 . S
C776 N777 1.314 . S
C776 C778 1.353 . S
C776 H782 0.930 . S
N777 Li753 1.990 . S
N777 C776 1.314 . S
N777 C780 1.279 . S
C778 C776 1.353 . S
C778 C781 1.348 . S
C778 H826 0.929 . S
C779 C780 1.358 . S
C779 C781 1.356 . S
C779 H827 0.930 . S
C780 N777 1.279 . S
C780 C779 1.358 . S
C780 H783 0.930 . S
C781 C778 1.348 . S
C781 C779 1.356 . S
H782 C776 0.930 . S
H783 C780 0.930 . S
C784 C786 1.348 . S
C784 C787 1.356 . S
C784 O814 1.325 . S
N785 C788 1.314 . S
N785 C789 1.279 . S
C786 C784 1.348 . S
C786 C788 1.353 . S
C786 H828 0.929 . S
C787 C784 1.356 . S
C787 C789 1.358 . S
C787 H829 0.930 . S
C788 N785 1.314 . S
C788 C786 1.353 . S
C788 H830 0.930 . S
C789 N785 1.279 . S
C789 C787 1.358 . S
C789 H831 0.930 . S
C790 C791 1.348 1_554 S
C790 C792 1.356 . S
C790 O815 1.325 . S
C791 C790 1.348 1_556 S
C791 C793 1.353 . S
C791 H832 0.929 . S
C792 C790 1.356 . S
C792 C794 1.358 . S
C792 H833 0.930 . S
C793 C791 1.353 . S
C793 N795 1.314 1_556 S
C793 H834 0.930 . S
C794 C792 1.358 . S
C794 N795 1.279 . S
C794 H835 0.930 . S
N795 C793 1.314 1_554 S
N795 C794 1.279 . S
C796 C798 1.353 . S
C796 N799 1.314 . S
C796 H802 0.930 . S
C797 N799 1.279 . S
C797 C800 1.358 . S
C797 H803 0.930 . S
C798 C796 1.353 . S
C798 C801 1.348 . S
C798 H836 0.929 . S
N799 Li754 1.990 . S
N799 C796 1.314 . S
N799 C797 1.279 . S
C800 C797 1.358 . S
C800 C801 1.356 . S
C800 H837 0.930 . S
C801 C798 1.348 . S
C801 C800 1.356 . S
H802 C796 0.930 . S
H803 C797 0.930 . S
C804 N805 1.314 . S
C804 C806 1.353 . S
C804 H810 0.930 . S
N805 Li755 1.990 . S
N805 C804 1.314 . S
N805 C808 1.279 . S
C806 C804 1.353 . S
C806 C809 1.348 . S
C806 H838 0.929 . S
C807 C808 1.358 . S
C807 C809 1.356 . S
C807 H839 0.930 . S
C808 N805 1.279 . S
C808 C807 1.358 . S
C808 H811 0.930 . S
C809 C806 1.348 . S
C809 C807 1.356 . S
H810 C804 0.930 . S
H811 C808 0.930 . S
O812 Li752 1.956 . S
O812 Li753 1.970 1_556 S
O812 Li754 1.961 . S
O812 C756 1.325 . S
O813 Li752 1.970 1_554 S
O813 Li753 1.956 . S
O813 Li755 1.961 . S
O813 C762 1.325 . S
O814 Li752 1.961 . S
O814 Li754 1.956 . S
O814 Li755 1.970 1_556 S
O814 C784 1.325 . S
O815 Li753 1.961 . S
O815 Li754 1.970 1_554 S
O815 Li755 1.956 . S
O815 C790 1.325 . S
H816 C758 0.929 . S
H817 C759 0.930 . S
H818 C760 0.930 . S
H819 C761 0.930 . S
H820 C763 0.930 . S
H821 C765 0.929 . S
H822 C766 0.930 . S
H823 C767 0.930 . S
H824 C770 0.930 . S
H825 C773 0.929 . S
H826 C778 0.929 . S
H827 C779 0.930 . S
H828 C786 0.929 . S
H829 C787 0.930 . S
H830 C788 0.930 . S
H831 C789 0.930 . S
H832 C791 0.929 . S
H833 C792 0.930 . S
H834 C793 0.930 . S
H835 C794 0.930 . S
H836 C798 0.929 . S
H837 C800 0.930 . S
H838 C806 0.929 . S
H839 C807 0.930 . S
Li840 N857 1.990 . S
Li840 O900 1.956 . S
Li840 O901 1.970 1_545 S
Li840 O902 1.961 . S
Li841 N865 1.990 . S
Li841 O900 1.970 1_565 S
Li841 O901 1.956 . S
Li841 O903 1.961 . S
Li842 N887 1.990 . S
Li842 O900 1.961 . S
Li842 O902 1.956 . S
Li842 O903 1.970 1_545 S
Li843 N893 1.990 . S
Li843 O901 1.961 . S
Li843 O902 1.970 1_565 S
Li843 O903 1.956 . S
C844 C846 1.348 . S
C844 C847 1.356 . S
C844 O900 1.325 . S
N845 C848 1.314 . S
N845 C849 1.279 . S
C846 C844 1.348 . S
C846 C848 1.353 . S
C846 H904 0.929 . S
C847 C844 1.356 . S
C847 C849 1.358 . S
C847 H905 0.930 . S
C848 N845 1.314 . S
C848 C846 1.353 . S
C848 H906 0.930 . S
C849 N845 1.279 . S
C849 C847 1.358 . S
C849 H907 0.930 . S
C850 C853 1.348 1_565 S
C850 C854 1.356 . S
C850 O901 1.325 . S
C851 N852 1.279 . S
C851 C854 1.358 . S
C851 H908 0.930 . S
N852 C851 1.279 . S
N852 C855 1.314 1_565 S
C853 C850 1.348 1_545 S
C853 C855 1.353 . S
C853 H909 0.929 . S
C854 C850 1.356 . S
C854 C851 1.358 . S
C854 H910 0.930 . S
C855 N852 1.314 1_545 S
C855 C853 1.353 . S
C855 H911 0.930 . S
C856 N857 1.314 . S
C856 C861 1.353 . S
C856 H862 0.930 . S
N857 Li840 1.990 . S
N857 C856 1.314 . S
N857 C859 1.279 . S
C858 C859 1.358 . S
C858 C860 1.356 . S
C858 H912 0.930 . S
C859 N857 1.279 . S
C859 C858 1.358 . S
C859 H863 0.930 . S
C860 C858 1.356 . S
C860 C861 1.348 . S
C861 C856 1.353 . S
C861 C860 1.348 . S
C861 H913 0.929 . S
H862 C856 0.930 . S
H863 C859 0.930 . S
C864 N865 1.314 . S
C864 C866 1.353 . S
C864 H870 0.930 . S
N865 Li841 1.990 . S
N865 C864 1.314 . S
N865 C868 1.279 . S
C866 C864 1.353 . S
C866 C869 1.348 . S
C866 H914 0.929 . S
C867 C868 1.358 . S
C867 C869 1.356 . S
C867 H915 0.930 . S
C868 N865 1.279 . S
C868 C867 1.358 . S
C868 H871 0.930 . S
C869 C866 1.348 . S
C869 C867 1.356 . S
H870 C864 0.930 . S
H871 C868 0.930 . S
C872 C874 1.348 1_545 S
C872 C875 1.356 . S
C872 O902 1.325 . S
N873 C876 1.314 1_545 S
N873 C877 1.279 . S
C874 C872 1.348 1_565 S
C874 C876 1.353 . S
C874 H916 0.929 . S
C875 C872 1.356 . S
C875 C877 1.358 . S
C875 H917 0.930 . S
C876 N873 1.314 1_565 S
C876 C874 1.353 . S
C876 H918 0.930 . S
C877 N873 1.279 . S
C877 C875 1.358 . S
C877 H919 0.930 . S
C878 C879 1.348 . S
C878 C880 1.356 . S
C878 O903 1.325 . S
C879 C878 1.348 . S
C879 C881 1.353 . S
C879 H920 0.929 . S
C880 C878 1.356 . S
C880 C882 1.358 . S
C880 H921 0.930 . S
C881 C879 1.353 . S
C881 N883 1.314 . S
C881 H922 0.930 . S
C882 C880 1.358 . S
C882 N883 1.279 . S
C882 H923 0.930 . S
N883 C881 1.314 . S
N883 C882 1.279 . S
C884 C886 1.353 . S
C884 N887 1.314 . S
C884 H890 0.930 . S
C885 N887 1.279 . S
C885 C888 1.358 . S
C885 H891 0.930 . S
C886 C884 1.353 . S
C886 C889 1.348 . S
C886 H924 0.929 . S
N887 Li842 1.990 . S
N887 C884 1.314 . S
N887 C885 1.279 . S
C888 C885 1.358 . S
C888 C889 1.356 . S
C888 H925 0.930 . S
C889 C886 1.348 . S
C889 C888 1.356 . S
H890 C884 0.930 . S
H891 C885 0.930 . S
C892 N893 1.314 . S
C892 C894 1.353 . S
C892 H898 0.930 . S
N893 Li843 1.990 . S
N893 C892 1.314 . S
N893 C896 1.279 . S
C894 C892 1.353 . S
C894 C897 1.348 . S
C894 H926 0.929 . S
C895 C896 1.358 . S
C895 C897 1.356 . S
C895 H927 0.930 . S
C896 N893 1.279 . S
C896 C895 1.358 . S
C896 H899 0.930 . S
C897 C894 1.348 . S
C897 C895 1.356 . S
H898 C892 0.930 . S
H899 C896 0.930 . S
O900 Li840 1.956 . S
O900 Li841 1.970 1_545 S
O900 Li842 1.961 . S
O900 C844 1.325 . S
O901 Li840 1.970 1_565 S
O901 Li841 1.956 . S
O901 Li843 1.961 . S
O901 C850 1.325 . S
O902 Li840 1.961 . S
O902 Li842 1.956 . S
O902 Li843 1.970 1_545 S
O902 C872 1.325 . S
O903 Li841 1.961 . S
O903 Li842 1.970 1_565 S
O903 Li843 1.956 . S
O903 C878 1.325 . S
H904 C846 0.929 . S
H905 C847 0.930 . S
H906 C848 0.930 . S
H907 C849 0.930 . S
H908 C851 0.930 . S
H909 C853 0.929 . S
H910 C854 0.930 . S
H911 C855 0.930 . S
H912 C858 0.930 . S
H913 C861 0.929 . S
H914 C866 0.929 . S
H915 C867 0.930 . S
H916 C874 0.929 . S
H917 C875 0.930 . S
H918 C876 0.930 . S
H919 C877 0.930 . S
H920 C879 0.929 . S
H921 C880 0.930 . S
H922 C881 0.930 . S
H923 C882 0.930 . S
H924 C886 0.929 . S
H925 C888 0.930 . S
H926 C894 0.929 . S
H927 C895 0.930 . S
Li928 N945 1.990 . S
Li928 O988 1.956 . S
Li928 O989 1.970 . S
Li928 O990 1.961 . S
Li929 N953 1.990 . S
Li929 O988 1.970 . S
Li929 O989 1.956 . S
Li929 O991 1.961 . S
Li930 N975 1.990 . S
Li930 O988 1.961 . S
Li930 O990 1.956 . S
Li930 O991 1.970 . S
Li931 N981 1.990 . S
Li931 O989 1.961 . S
Li931 O990 1.970 . S
Li931 O991 1.956 . S
C932 C934 1.348 . S
C932 C935 1.356 . S
C932 O988 1.325 . S
N933 C936 1.314 . S
N933 C937 1.279 . S
C934 C932 1.348 . S
C934 C936 1.353 . S
C934 H992 0.929 . S
C935 C932 1.356 . S
C935 C937 1.358 . S
C935 H993 0.930 . S
C936 N933 1.314 . S
C936 C934 1.353 . S
C936 H994 0.930 . S
C937 N933 1.279 . S
C937 C935 1.358 . S
C937 H995 0.930 . S
C938 C941 1.348 . S
C938 C942 1.356 . S
C938 O989 1.325 . S
C939 N940 1.279 . S
C939 C942 1.358 . S
C939 H996 0.930 . S
N940 C939 1.279 . S
N940 C943 1.314 . S
C941 C938 1.348 . S
C941 C943 1.353 . S
C941 H997 0.929 . S
C942 C938 1.356 . S
C942 C939 1.358 . S
C942 H998 0.930 . S
C943 N940 1.314 . S
C943 C941 1.353 . S
C943 H999 0.930 . S
C944 N945 1.314 . S
C944 C949 1.353 . S
C944 H950 0.930 . S
N945 Li928 1.990 . S
N945 C944 1.314 . S
N945 C947 1.279 . S
C946 C947 1.358 . S
C946 C948 1.356 . S
C946 H1000 0.930 . S
C947 N945 1.279 . S
C947 C946 1.358 . S
C947 H951 0.930 . S
C948 C946 1.356 . S
C948 C949 1.348 . S
C949 C944 1.353 . S
C949 C948 1.348 . S
C949 H1001 0.929 . S
H950 C944 0.930 . S
H951 C947 0.930 . S
C952 N953 1.314 . S
C952 C954 1.353 . S
C952 H958 0.930 . S
N953 Li929 1.990 . S
N953 C952 1.314 . S
N953 C956 1.279 . S
C954 C952 1.353 . S
C954 C957 1.348 . S
C954 H1002 0.929 . S
C955 C956 1.358 . S
C955 C957 1.356 . S
C955 H1003 0.930 . S
C956 N953 1.279 . S
C956 C955 1.358 . S
C956 H959 0.930 . S
C957 C954 1.348 . S
C957 C955 1.356 . S
H958 C952 0.930 . S
H959 C956 0.930 . S
C960 C962 1.348 . S
C960 C963 1.356 . S
C960 O990 1.325 . S
N961 C964 1.314 . S
N961 C965 1.279 . S
C962 C960 1.348 . S
C962 C964 1.353 . S
C962 H1004 0.929 . S
C963 C960 1.356 . S
C963 C965 1.358 . S
C963 H1005 0.930 . S
C964 N961 1.314 . S
C964 C962 1.353 . S
C964 H1006 0.930 . S
C965 N961 1.279 . S
C965 C963 1.358 . S
C965 H1007 0.930 . S
C966 C967 1.348 . S
C966 C968 1.356 . S
C966 O991 1.325 . S
C967 C966 1.348 . S
C967 C969 1.353 . S
C967 H1008 0.929 . S
C968 C966 1.356 . S
C968 C970 1.358 . S
C968 H1009 0.930 . S
C969 C967 1.353 . S
C969 N971 1.314 . S
C969 H1010 0.930 . S
C970 C968 1.358 . S
C970 N971 1.279 . S
C970 H1011 0.930 . S
N971 C969 1.314 . S
N971 C970 1.279 . S
C972 C974 1.353 . S
C972 N975 1.314 . S
C972 H978 0.930 . S
C973 N975 1.279 . S
C973 C976 1.358 . S
C973 H979 0.930 . S
C974 C972 1.353 . S
C974 C977 1.348 . S
C974 H1012 0.929 . S
N975 Li930 1.990 . S
N975 C972 1.314 . S
N975 C973 1.279 . S
C976 C973 1.358 . S
C976 C977 1.356 . S
C976 H1013 0.930 . S
C977 C974 1.348 . S
C977 C976 1.356 . S
H978 C972 0.930 . S
H979 C973 0.930 . S
C980 N981 1.314 . S
C980 C982 1.353 . S
C980 H986 0.930 . S
N981 Li931 1.990 . S
N981 C980 1.314 . S
N981 C984 1.279 . S
C982 C980 1.353 . S
C982 C985 1.348 . S
C982 H1014 0.929 . S
C983 C984 1.358 . S
C983 C985 1.356 . S
C983 H1015 0.930 . S
C984 N981 1.279 . S
C984 C983 1.358 . S
C984 H987 0.930 . S
C985 C982 1.348 . S
C985 C983 1.356 . S
H986 C980 0.930 . S
H987 C984 0.930 . S
O988 Li928 1.956 . S
O988 Li929 1.970 . S
O988 Li930 1.961 . S
O988 C932 1.325 . S
O989 Li928 1.970 . S
O989 Li929 1.956 . S
O989 Li931 1.961 . S
O989 C938 1.325 . S
O990 Li928 1.961 . S
O990 Li930 1.956 . S
O990 Li931 1.970 . S
O990 C960 1.325 . S
O991 Li929 1.961 . S
O991 Li930 1.970 . S
O991 Li931 1.956 . S
O991 C966 1.325 . S
H992 C934 0.929 . S
H993 C935 0.930 . S
H994 C936 0.930 . S
H995 C937 0.930 . S
H996 C939 0.930 . S
H997 C941 0.929 . S
H998 C942 0.930 . S
H999 C943 0.930 . S
H1000 C946 0.930 . S
H1001 C949 0.929 . S
H1002 C954 0.929 . S
H1003 C955 0.930 . S
H1004 C962 0.929 . S
H1005 C963 0.930 . S
H1006 C964 0.930 . S
H1007 C965 0.930 . S
H1008 C967 0.929 . S
H1009 C968 0.930 . S
H1010 C969 0.930 . S
H1011 C970 0.930 . S
H1012 C974 0.929 . S
H1013 C976 0.930 . S
H1014 C982 0.929 . S
H1015 C983 0.930 . S
Li1016 N1033 1.990 . S
Li1016 O1076 1.956 . S
Li1016 O1077 1.970 . S
Li1016 O1078 1.961 . S
Li1017 N1041 1.990 . S
Li1017 O1076 1.970 . S
Li1017 O1077 1.956 . S
Li1017 O1079 1.961 . S
Li1018 N1063 1.990 . S
Li1018 O1076 1.961 . S
Li1018 O1078 1.956 . S
Li1018 O1079 1.970 . S
Li1019 N1069 1.990 . S
Li1019 O1077 1.961 . S
Li1019 O1078 1.970 . S
Li1019 O1079 1.956 . S
C1020 C1022 1.348 . S
C1020 C1023 1.356 . S
C1020 O1076 1.325 . S
N1021 C1024 1.314 . S
N1021 C1025 1.279 . S
C1022 C1020 1.348 . S
C1022 C1024 1.353 . S
C1022 H1080 0.929 . S
C1023 C1020 1.356 . S
C1023 C1025 1.358 . S
C1023 H1081 0.930 . S
C1024 N1021 1.314 . S
C1024 C1022 1.353 . S
C1024 H1082 0.930 . S
C1025 N1021 1.279 . S
C1025 C1023 1.358 . S
C1025 H1083 0.930 . S
C1026 C1029 1.348 . S
C1026 C1030 1.356 . S
C1026 O1077 1.325 . S
C1027 N1028 1.279 . S
C1027 C1030 1.358 . S
C1027 H1084 0.930 . S
N1028 C1027 1.279 . S
N1028 C1031 1.314 . S
C1029 C1026 1.348 . S
C1029 C1031 1.353 . S
C1029 H1085 0.929 . S
C1030 C1026 1.356 . S
C1030 C1027 1.358 . S
C1030 H1086 0.930 . S
C1031 N1028 1.314 . S
C1031 C1029 1.353 . S
C1031 H1087 0.930 . S
C1032 N1033 1.314 . S
C1032 C1037 1.353 . S
C1032 H1038 0.930 . S
N1033 Li1016 1.990 . S
N1033 C1032 1.314 . S
N1033 C1035 1.279 . S
C1034 C1035 1.358 . S
C1034 C1036 1.356 . S
C1034 H1088 0.930 . S
C1035 N1033 1.279 . S
C1035 C1034 1.358 . S
C1035 H1039 0.930 . S
C1036 C1034 1.356 . S
C1036 C1037 1.348 . S
C1037 C1032 1.353 . S
C1037 C1036 1.348 . S
C1037 H1089 0.929 . S
H1038 C1032 0.930 . S
H1039 C1035 0.930 . S
C1040 N1041 1.314 . S
C1040 C1042 1.353 . S
C1040 H1046 0.930 . S
N1041 Li1017 1.990 . S
N1041 C1040 1.314 . S
N1041 C1044 1.279 . S
C1042 C1040 1.353 . S
C1042 C1045 1.348 . S
C1042 H1090 0.929 . S
C1043 C1044 1.358 . S
C1043 C1045 1.356 . S
C1043 H1091 0.930 . S
C1044 N1041 1.279 . S
C1044 C1043 1.358 . S
C1044 H1047 0.930 . S
C1045 C1042 1.348 . S
C1045 C1043 1.356 . S
H1046 C1040 0.930 . S
H1047 C1044 0.930 . S
C1048 C1050 1.348 . S
C1048 C1051 1.356 . S
C1048 O1078 1.325 . S
N1049 C1052 1.314 . S
N1049 C1053 1.279 . S
C1050 C1048 1.348 . S
C1050 C1052 1.353 . S
C1050 H1092 0.929 . S
C1051 C1048 1.356 . S
C1051 C1053 1.358 . S
C1051 H1093 0.930 . S
C1052 N1049 1.314 . S
C1052 C1050 1.353 . S
C1052 H1094 0.930 . S
C1053 N1049 1.279 . S
C1053 C1051 1.358 . S
C1053 H1095 0.930 . S
C1054 C1055 1.348 . S
C1054 C1056 1.356 . S
C1054 O1079 1.325 . S
C1055 C1054 1.348 . S
C1055 C1057 1.353 . S
C1055 H1096 0.929 . S
C1056 C1054 1.356 . S
C1056 C1058 1.358 . S
C1056 H1097 0.930 . S
C1057 C1055 1.353 . S
C1057 N1059 1.314 . S
C1057 H1098 0.930 . S
C1058 C1056 1.358 . S
C1058 N1059 1.279 . S
C1058 H1099 0.930 . S
N1059 C1057 1.314 . S
N1059 C1058 1.279 . S
C1060 C1062 1.353 . S
C1060 N1063 1.314 . S
C1060 H1066 0.930 . S
C1061 N1063 1.279 . S
C1061 C1064 1.358 . S
C1061 H1067 0.930 . S
C1062 C1060 1.353 . S
C1062 C1065 1.348 . S
C1062 H1100 0.929 . S
N1063 Li1018 1.990 . S
N1063 C1060 1.314 . S
N1063 C1061 1.279 . S
C1064 C1061 1.358 . S
C1064 C1065 1.356 . S
C1064 H1101 0.930 . S
C1065 C1062 1.348 . S
C1065 C1064 1.356 . S
H1066 C1060 0.930 . S
H1067 C1061 0.930 . S
C1068 N1069 1.314 . S
C1068 C1070 1.353 . S
C1068 H1074 0.930 . S
N1069 Li1019 1.990 . S
N1069 C1068 1.314 . S
N1069 C1072 1.279 . S
C1070 C1068 1.353 . S
C1070 C1073 1.348 . S
C1070 H1102 0.929 . S
C1071 C1072 1.358 . S
C1071 C1073 1.356 . S
C1071 H1103 0.930 . S
C1072 N1069 1.279 . S
C1072 C1071 1.358 . S
C1072 H1075 0.930 . S
C1073 C1070 1.348 . S
C1073 C1071 1.356 . S
H1074 C1068 0.930 . S
H1075 C1072 0.930 . S
O1076 Li1016 1.956 . S
O1076 Li1017 1.970 . S
O1076 Li1018 1.961 . S
O1076 C1020 1.325 . S
O1077 Li1016 1.970 . S
O1077 Li1017 1.956 . S
O1077 Li1019 1.961 . S
O1077 C1026 1.325 . S
O1078 Li1016 1.961 . S
O1078 Li1018 1.956 . S
O1078 Li1019 1.970 . S
O1078 C1048 1.325 . S
O1079 Li1017 1.961 . S
O1079 Li1018 1.970 . S
O1079 Li1019 1.956 . S
O1079 C1054 1.325 . S
H1080 C1022 0.929 . S
H1081 C1023 0.930 . S
H1082 C1024 0.930 . S
H1083 C1025 0.930 . S
H1084 C1027 0.930 . S
H1085 C1029 0.929 . S
H1086 C1030 0.930 . S
H1087 C1031 0.930 . S
H1088 C1034 0.930 . S
H1089 C1037 0.929 . S
H1090 C1042 0.929 . S
H1091 C1043 0.930 . S
H1092 C1050 0.929 . S
H1093 C1051 0.930 . S
H1094 C1052 0.930 . S
H1095 C1053 0.930 . S
H1096 C1055 0.929 . S
H1097 C1056 0.930 . S
H1098 C1057 0.930 . S
H1099 C1058 0.930 . S
H1100 C1062 0.929 . S
H1101 C1064 0.930 . S
H1102 C1070 0.929 . S
H1103 C1071 0.930 . S
Li1104 N1121 1.990 . S
Li1104 O1164 1.956 . S
Li1104 O1165 1.970 . S
Li1104 O1166 1.961 . S
Li1105 N1129 1.990 . S
Li1105 O1164 1.970 . S
Li1105 O1165 1.956 . S
Li1105 O1167 1.961 . S
Li1106 N1151 1.990 . S
Li1106 O1164 1.961 . S
Li1106 O1166 1.956 . S
Li1106 O1167 1.970 . S
Li1107 N1157 1.990 . S
Li1107 O1165 1.961 . S
Li1107 O1166 1.970 . S
Li1107 O1167 1.956 . S
C1108 C1110 1.348 . S
C1108 C1111 1.356 . S
C1108 O1164 1.325 . S
N1109 C1112 1.314 . S
N1109 C1113 1.279 . S
C1110 C1108 1.348 . S
C1110 C1112 1.353 . S
C1110 H1168 0.929 . S
C1111 C1108 1.356 . S
C1111 C1113 1.358 . S
C1111 H1169 0.930 . S
C1112 N1109 1.314 . S
C1112 C1110 1.353 . S
C1112 H1170 0.930 . S
C1113 N1109 1.279 . S
C1113 C1111 1.358 . S
C1113 H1171 0.930 . S
C1114 C1117 1.348 . S
C1114 C1118 1.356 . S
C1114 O1165 1.325 . S
C1115 N1116 1.279 . S
C1115 C1118 1.358 . S
C1115 H1172 0.930 . S
N1116 C1115 1.279 . S
N1116 C1119 1.314 . S
C1117 C1114 1.348 . S
C1117 C1119 1.353 . S
C1117 H1173 0.929 . S
C1118 C1114 1.356 . S
C1118 C1115 1.358 . S
C1118 H1174 0.930 . S
C1119 N1116 1.314 . S
C1119 C1117 1.353 . S
C1119 H1175 0.930 . S
C1120 N1121 1.314 . S
C1120 C1125 1.353 . S
C1120 H1126 0.930 . S
N1121 Li1104 1.990 . S
N1121 C1120 1.314 . S
N1121 C1123 1.279 . S
C1122 C1123 1.358 . S
C1122 C1124 1.356 . S
C1122 H1176 0.930 . S
C1123 N1121 1.279 . S
C1123 C1122 1.358 . S
C1123 H1127 0.930 . S
C1124 C1122 1.356 . S
C1124 C1125 1.348 . S
C1125 C1120 1.353 . S
C1125 C1124 1.348 . S
C1125 H1177 0.929 . S
H1126 C1120 0.930 . S
H1127 C1123 0.930 . S
C1128 N1129 1.314 . S
C1128 C1130 1.353 . S
C1128 H1134 0.930 . S
N1129 Li1105 1.990 . S
N1129 C1128 1.314 . S
N1129 C1132 1.279 . S
C1130 C1128 1.353 . S
C1130 C1133 1.348 . S
C1130 H1178 0.929 . S
C1131 C1132 1.358 . S
C1131 C1133 1.356 . S
C1131 H1179 0.930 . S
C1132 N1129 1.279 . S
C1132 C1131 1.358 . S
C1132 H1135 0.930 . S
C1133 C1130 1.348 . S
C1133 C1131 1.356 . S
H1134 C1128 0.930 . S
H1135 C1132 0.930 . S
C1136 C1138 1.348 . S
C1136 C1139 1.356 . S
C1136 O1166 1.325 . S
N1137 C1140 1.314 . S
N1137 C1141 1.279 . S
C1138 C1136 1.348 . S
C1138 C1140 1.353 . S
C1138 H1180 0.929 . S
C1139 C1136 1.356 . S
C1139 C1141 1.358 . S
C1139 H1181 0.930 . S
C1140 N1137 1.314 . S
C1140 C1138 1.353 . S
C1140 H1182 0.930 . S
C1141 N1137 1.279 . S
C1141 C1139 1.358 . S
C1141 H1183 0.930 . S
C1142 C1143 1.348 . S
C1142 C1144 1.356 . S
C1142 O1167 1.325 . S
C1143 C1142 1.348 . S
C1143 C1145 1.353 . S
C1143 H1184 0.929 . S
C1144 C1142 1.356 . S
C1144 C1146 1.358 . S
C1144 H1185 0.930 . S
C1145 C1143 1.353 . S
C1145 N1147 1.314 . S
C1145 H1186 0.930 . S
C1146 C1144 1.358 . S
C1146 N1147 1.279 . S
C1146 H1187 0.930 . S
N1147 C1145 1.314 . S
N1147 C1146 1.279 . S
C1148 C1150 1.353 . S
C1148 N1151 1.314 . S
C1148 H1154 0.930 . S
C1149 N1151 1.279 . S
C1149 C1152 1.358 . S
C1149 H1155 0.930 . S
C1150 C1148 1.353 . S
C1150 C1153 1.348 . S
C1150 H1188 0.929 . S
N1151 Li1106 1.990 . S
N1151 C1148 1.314 . S
N1151 C1149 1.279 . S
C1152 C1149 1.358 . S
C1152 C1153 1.356 . S
C1152 H1189 0.930 . S
C1153 C1150 1.348 . S
C1153 C1152 1.356 . S
H1154 C1148 0.930 . S
H1155 C1149 0.930 . S
C1156 N1157 1.314 . S
C1156 C1158 1.353 . S
C1156 H1162 0.930 . S
N1157 Li1107 1.990 . S
N1157 C1156 1.314 . S
N1157 C1160 1.279 . S
C1158 C1156 1.353 . S
C1158 C1161 1.348 . S
C1158 H1190 0.929 . S
C1159 C1160 1.358 . S
C1159 C1161 1.356 . S
C1159 H1191 0.930 . S
C1160 N1157 1.279 . S
C1160 C1159 1.358 . S
C1160 H1163 0.930 . S
C1161 C1158 1.348 . S
C1161 C1159 1.356 . S
H1162 C1156 0.930 . S
H1163 C1160 0.930 . S
O1164 Li1104 1.956 . S
O1164 Li1105 1.970 . S
O1164 Li1106 1.961 . S
O1164 C1108 1.325 . S
O1165 Li1104 1.970 . S
O1165 Li1105 1.956 . S
O1165 Li1107 1.961 . S
O1165 C1114 1.325 . S
O1166 Li1104 1.961 . S
O1166 Li1106 1.956 . S
O1166 Li1107 1.970 . S
O1166 C1136 1.325 . S
O1167 Li1105 1.961 . S
O1167 Li1106 1.970 . S
O1167 Li1107 1.956 . S
O1167 C1142 1.325 . S
H1168 C1110 0.929 . S
H1169 C1111 0.930 . S
H1170 C1112 0.930 . S
H1171 C1113 0.930 . S
H1172 C1115 0.930 . S
H1173 C1117 0.929 . S
H1174 C1118 0.930 . S
H1175 C1119 0.930 . S
H1176 C1122 0.930 . S
H1177 C1125 0.929 . S
H1178 C1130 0.929 . S
H1179 C1131 0.930 . S
H1180 C1138 0.929 . S
H1181 C1139 0.930 . S
H1182 C1140 0.930 . S
H1183 C1141 0.930 . S
H1184 C1143 0.929 . S
H1185 C1144 0.930 . S
H1186 C1145 0.930 . S
H1187 C1146 0.930 . S
H1188 C1150 0.929 . S
H1189 C1152 0.930 . S
H1190 C1158 0.929 . S
H1191 C1159 0.930 . S
Li1192 N1209 1.990 . S
Li1192 O1252 1.956 . S
Li1192 O1253 1.970 1_565 S
Li1192 O1254 1.961 . S
Li1193 N1217 1.990 . S
Li1193 O1252 1.970 1_545 S
Li1193 O1253 1.956 . S
Li1193 O1255 1.961 . S
Li1194 N1239 1.990 . S
Li1194 O1252 1.961 . S
Li1194 O1254 1.956 . S
Li1194 O1255 1.970 1_565 S
Li1195 N1245 1.990 . S
Li1195 O1253 1.961 . S
Li1195 O1254 1.970 1_545 S
Li1195 O1255 1.956 . S
C1196 C1198 1.348 . S
C1196 C1199 1.356 . S
C1196 O1252 1.325 . S
N1197 C1200 1.314 . S
N1197 C1201 1.279 . S
C1198 C1196 1.348 . S
C1198 C1200 1.353 . S
C1198 H1256 0.929 . S
C1199 C1196 1.356 . S
C1199 C1201 1.358 . S
C1199 H1257 0.930 . S
C1200 N1197 1.314 . S
C1200 C1198 1.353 . S
C1200 H1258 0.930 . S
C1201 N1197 1.279 . S
C1201 C1199 1.358 . S
C1201 H1259 0.930 . S
C1202 C1205 1.348 1_545 S
C1202 C1206 1.356 . S
C1202 O1253 1.325 . S
C1203 N1204 1.279 . S
C1203 C1206 1.358 . S
C1203 H1260 0.930 . S
N1204 C1203 1.279 . S
N1204 C1207 1.314 1_545 S
C1205 C1202 1.348 1_565 S
C1205 C1207 1.353 . S
C1205 H1261 0.929 . S
C1206 C1202 1.356 . S
C1206 C1203 1.358 . S
C1206 H1262 0.930 . S
C1207 N1204 1.314 1_565 S
C1207 C1205 1.353 . S
C1207 H1263 0.930 . S
C1208 N1209 1.314 . S
C1208 C1213 1.353 . S
C1208 H1214 0.930 . S
N1209 Li1192 1.990 . S
N1209 C1208 1.314 . S
N1209 C1211 1.279 . S
C1210 C1211 1.358 . S
C1210 C1212 1.356 . S
C1210 H1264 0.930 . S
C1211 N1209 1.279 . S
C1211 C1210 1.358 . S
C1211 H1215 0.930 . S
C1212 C1210 1.356 . S
C1212 C1213 1.348 . S
C1213 C1208 1.353 . S
C1213 C1212 1.348 . S
C1213 H1265 0.929 . S
H1214 C1208 0.930 . S
H1215 C1211 0.930 . S
C1216 N1217 1.314 . S
C1216 C1218 1.353 . S
C1216 H1222 0.930 . S
N1217 Li1193 1.990 . S
N1217 C1216 1.314 . S
N1217 C1220 1.279 . S
C1218 C1216 1.353 . S
C1218 C1221 1.348 . S
C1218 H1266 0.929 . S
C1219 C1220 1.358 . S
C1219 C1221 1.356 . S
C1219 H1267 0.930 . S
C1220 N1217 1.279 . S
C1220 C1219 1.358 . S
C1220 H1223 0.930 . S
C1221 C1218 1.348 . S
C1221 C1219 1.356 . S
H1222 C1216 0.930 . S
H1223 C1220 0.930 . S
C1224 C1226 1.348 1_565 S
C1224 C1227 1.356 . S
C1224 O1254 1.325 . S
N1225 C1228 1.314 1_565 S
N1225 C1229 1.279 . S
C1226 C1224 1.348 1_545 S
C1226 C1228 1.353 . S
C1226 H1268 0.929 . S
C1227 C1224 1.356 . S
C1227 C1229 1.358 . S
C1227 H1269 0.930 . S
C1228 N1225 1.314 1_545 S
C1228 C1226 1.353 . S
C1228 H1270 0.930 . S
C1229 N1225 1.279 . S
C1229 C1227 1.358 . S
C1229 H1271 0.930 . S
C1230 C1231 1.348 . S
C1230 C1232 1.356 . S
C1230 O1255 1.325 . S
C1231 C1230 1.348 . S
C1231 C1233 1.353 . S
C1231 H1272 0.929 . S
C1232 C1230 1.356 . S
C1232 C1234 1.358 . S
C1232 H1273 0.930 . S
C1233 C1231 1.353 . S
C1233 N1235 1.314 . S
C1233 H1274 0.930 . S
C1234 C1232 1.358 . S
C1234 N1235 1.279 . S
C1234 H1275 0.930 . S
N1235 C1233 1.314 . S
N1235 C1234 1.279 . S
C1236 C1238 1.353 . S
C1236 N1239 1.314 . S
C1236 H1242 0.930 . S
C1237 N1239 1.279 . S
C1237 C1240 1.358 . S
C1237 H1243 0.930 . S
C1238 C1236 1.353 . S
C1238 C1241 1.348 . S
C1238 H1276 0.929 . S
N1239 Li1194 1.990 . S
N1239 C1236 1.314 . S
N1239 C1237 1.279 . S
C1240 C1237 1.358 . S
C1240 C1241 1.356 . S
C1240 H1277 0.930 . S
C1241 C1238 1.348 . S
C1241 C1240 1.356 . S
H1242 C1236 0.930 . S
H1243 C1237 0.930 . S
C1244 N1245 1.314 . S
C1244 C1246 1.353 . S
C1244 H1250 0.930 . S
N1245 Li1195 1.990 . S
N1245 C1244 1.314 . S
N1245 C1248 1.279 . S
C1246 C1244 1.353 . S
C1246 C1249 1.348 . S
C1246 H1278 0.929 . S
C1247 C1248 1.358 . S
C1247 C1249 1.356 . S
C1247 H1279 0.930 . S
C1248 N1245 1.279 . S
C1248 C1247 1.358 . S
C1248 H1251 0.930 . S
C1249 C1246 1.348 . S
C1249 C1247 1.356 . S
H1250 C1244 0.930 . S
H1251 C1248 0.930 . S
O1252 Li1192 1.956 . S
O1252 Li1193 1.970 1_565 S
O1252 Li1194 1.961 . S
O1252 C1196 1.325 . S
O1253 Li1192 1.970 1_545 S
O1253 Li1193 1.956 . S
O1253 Li1195 1.961 . S
O1253 C1202 1.325 . S
O1254 Li1192 1.961 . S
O1254 Li1194 1.956 . S
O1254 Li1195 1.970 1_565 S
O1254 C1224 1.325 . S
O1255 Li1193 1.961 . S
O1255 Li1194 1.970 1_545 S
O1255 Li1195 1.956 . S
O1255 C1230 1.325 . S
H1256 C1198 0.929 . S
H1257 C1199 0.930 . S
H1258 C1200 0.930 . S
H1259 C1201 0.930 . S
H1260 C1203 0.930 . S
H1261 C1205 0.929 . S
H1262 C1206 0.930 . S
H1263 C1207 0.930 . S
H1264 C1210 0.930 . S
H1265 C1213 0.929 . S
H1266 C1218 0.929 . S
H1267 C1219 0.930 . S
H1268 C1226 0.929 . S
H1269 C1227 0.930 . S
H1270 C1228 0.930 . S
H1271 C1229 0.930 . S
H1272 C1231 0.929 . S
H1273 C1232 0.930 . S
H1274 C1233 0.930 . S
H1275 C1234 0.930 . S
H1276 C1238 0.929 . S
H1277 C1240 0.930 . S
H1278 C1246 0.929 . S
H1279 C1247 0.930 . S
Li1280 N1297 1.990 . S
Li1280 O1340 1.956 . S
Li1280 O1341 1.970 1_455 S
Li1280 O1342 1.961 . S
Li1281 N1305 1.990 . S
Li1281 O1340 1.970 1_655 S
Li1281 O1341 1.956 . S
Li1281 O1343 1.961 . S
Li1282 N1327 1.990 . S
Li1282 O1340 1.961 . S
Li1282 O1342 1.956 . S
Li1282 O1343 1.970 1_455 S
Li1283 N1333 1.990 . S
Li1283 O1341 1.961 . S
Li1283 O1342 1.970 1_655 S
Li1283 O1343 1.956 . S
C1284 C1286 1.348 . S
C1284 C1287 1.356 . S
C1284 O1340 1.325 . S
N1285 C1288 1.314 . S
N1285 C1289 1.279 . S
C1286 C1284 1.348 . S
C1286 C1288 1.353 . S
C1286 H1344 0.929 . S
C1287 C1284 1.356 . S
C1287 C1289 1.358 . S
C1287 H1345 0.930 . S
C1288 N1285 1.314 . S
C1288 C1286 1.353 . S
C1288 H1346 0.930 . S
C1289 N1285 1.279 . S
C1289 C1287 1.358 . S
C1289 H1347 0.930 . S
C1290 C1293 1.348 1_655 S
C1290 C1294 1.356 . S
C1290 O1341 1.325 . S
C1291 N1292 1.279 . S
C1291 C1294 1.358 . S
C1291 H1348 0.930 . S
N1292 C1291 1.279 . S
N1292 C1295 1.314 1_655 S
C1293 C1290 1.348 1_455 S
C1293 C1295 1.353 . S
C1293 H1349 0.929 . S
C1294 C1290 1.356 . S
C1294 C1291 1.358 . S
C1294 H1350 0.930 . S
C1295 N1292 1.314 1_455 S
C1295 C1293 1.353 . S
C1295 H1351 0.930 . S
C1296 N1297 1.314 . S
C1296 C1301 1.353 . S
C1296 H1302 0.930 . S
N1297 Li1280 1.990 . S
N1297 C1296 1.314 . S
N1297 C1299 1.279 . S
C1298 C1299 1.358 . S
C1298 C1300 1.356 . S
C1298 H1352 0.930 . S
C1299 N1297 1.279 . S
C1299 C1298 1.358 . S
C1299 H1303 0.930 . S
C1300 C1298 1.356 . S
C1300 C1301 1.348 . S
C1301 C1296 1.353 . S
C1301 C1300 1.348 . S
C1301 H1353 0.929 . S
H1302 C1296 0.930 . S
H1303 C1299 0.930 . S
C1304 N1305 1.314 . S
C1304 C1306 1.353 . S
C1304 H1310 0.930 . S
N1305 Li1281 1.990 . S
N1305 C1304 1.314 . S
N1305 C1308 1.279 . S
C1306 C1304 1.353 . S
C1306 C1309 1.348 . S
C1306 H1354 0.929 . S
C1307 C1308 1.358 . S
C1307 C1309 1.356 . S
C1307 H1355 0.930 . S
C1308 N1305 1.279 . S
C1308 C1307 1.358 . S
C1308 H1311 0.930 . S
C1309 C1306 1.348 . S
C1309 C1307 1.356 . S
H1310 C1304 0.930 . S
H1311 C1308 0.930 . S
C1312 C1314 1.348 1_455 S
C1312 C1315 1.356 . S
C1312 O1342 1.325 . S
N1313 C1316 1.314 1_455 S
N1313 C1317 1.279 . S
C1314 C1312 1.348 1_655 S
C1314 C1316 1.353 . S
C1314 H1356 0.929 . S
C1315 C1312 1.356 . S
C1315 C1317 1.358 . S
C1315 H1357 0.930 . S
C1316 N1313 1.314 1_655 S
C1316 C1314 1.353 . S
C1316 H1358 0.930 . S
C1317 N1313 1.279 . S
C1317 C1315 1.358 . S
C1317 H1359 0.930 . S
C1318 C1319 1.348 . S
C1318 C1320 1.356 . S
C1318 O1343 1.325 . S
C1319 C1318 1.348 . S
C1319 C1321 1.353 . S
C1319 H1360 0.929 . S
C1320 C1318 1.356 . S
C1320 C1322 1.358 . S
C1320 H1361 0.930 . S
C1321 C1319 1.353 . S
C1321 N1323 1.314 . S
C1321 H1362 0.930 . S
C1322 C1320 1.358 . S
C1322 N1323 1.279 . S
C1322 H1363 0.930 . S
N1323 C1321 1.314 . S
N1323 C1322 1.279 . S
C1324 C1326 1.353 . S
C1324 N1327 1.314 . S
C1324 H1330 0.930 . S
C1325 N1327 1.279 . S
C1325 C1328 1.358 . S
C1325 H1331 0.930 . S
C1326 C1324 1.353 . S
C1326 C1329 1.348 . S
C1326 H1364 0.929 . S
N1327 Li1282 1.990 . S
N1327 C1324 1.314 . S
N1327 C1325 1.279 . S
C1328 C1325 1.358 . S
C1328 C1329 1.356 . S
C1328 H1365 0.930 . S
C1329 C1326 1.348 . S
C1329 C1328 1.356 . S
H1330 C1324 0.930 . S
H1331 C1325 0.930 . S
C1332 N1333 1.314 . S
C1332 C1334 1.353 . S
C1332 H1338 0.930 . S
N1333 Li1283 1.990 . S
N1333 C1332 1.314 . S
N1333 C1336 1.279 . S
C1334 C1332 1.353 . S
C1334 C1337 1.348 . S
C1334 H1366 0.929 . S
C1335 C1336 1.358 . S
C1335 C1337 1.356 . S
C1335 H1367 0.930 . S
C1336 N1333 1.279 . S
C1336 C1335 1.358 . S
C1336 H1339 0.930 . S
C1337 C1334 1.348 . S
C1337 C1335 1.356 . S
H1338 C1332 0.930 . S
H1339 C1336 0.930 . S
O1340 Li1280 1.956 . S
O1340 Li1281 1.970 1_455 S
O1340 Li1282 1.961 . S
O1340 C1284 1.325 . S
O1341 Li1280 1.970 1_655 S
O1341 Li1281 1.956 . S
O1341 Li1283 1.961 . S
O1341 C1290 1.325 . S
O1342 Li1280 1.961 . S
O1342 Li1282 1.956 . S
O1342 Li1283 1.970 1_455 S
O1342 C1312 1.325 . S
O1343 Li1281 1.961 . S
O1343 Li1282 1.970 1_655 S
O1343 Li1283 1.956 . S
O1343 C1318 1.325 . S
H1344 C1286 0.929 . S
H1345 C1287 0.930 . S
H1346 C1288 0.930 . S
H1347 C1289 0.930 . S
H1348 C1291 0.930 . S
H1349 C1293 0.929 . S
H1350 C1294 0.930 . S
H1351 C1295 0.930 . S
H1352 C1298 0.930 . S
H1353 C1301 0.929 . S
H1354 C1306 0.929 . S
H1355 C1307 0.930 . S
H1356 C1314 0.929 . S
H1357 C1315 0.930 . S
H1358 C1316 0.930 . S
H1359 C1317 0.930 . S
H1360 C1319 0.929 . S
H1361 C1320 0.930 . S
H1362 C1321 0.930 . S
H1363 C1322 0.930 . S
H1364 C1326 0.929 . S
H1365 C1328 0.930 . S
H1366 C1334 0.929 . S
H1367 C1335 0.930 . S
Li1368 N1385 1.990 . S
Li1368 O1428 1.956 . S
Li1368 O1429 1.970 . S
Li1368 O1430 1.961 . S
Li1369 N1393 1.990 . S
Li1369 O1428 1.970 . S
Li1369 O1429 1.956 . S
Li1369 O1431 1.961 . S
Li1370 N1415 1.990 . S
Li1370 O1428 1.961 . S
Li1370 O1430 1.956 . S
Li1370 O1431 1.970 . S
Li1371 N1421 1.990 . S
Li1371 O1429 1.961 . S
Li1371 O1430 1.970 . S
Li1371 O1431 1.956 . S
C1372 C1374 1.348 . S
C1372 C1375 1.356 . S
C1372 O1428 1.325 . S
N1373 C1376 1.314 . S
N1373 C1377 1.279 . S
C1374 C1372 1.348 . S
C1374 C1376 1.353 . S
C1374 H1432 0.929 . S
C1375 C1372 1.356 . S
C1375 C1377 1.358 . S
C1375 H1433 0.930 . S
C1376 N1373 1.314 . S
C1376 C1374 1.353 . S
C1376 H1434 0.930 . S
C1377 N1373 1.279 . S
C1377 C1375 1.358 . S
C1377 H1435 0.930 . S
C1378 C1381 1.348 . S
C1378 C1382 1.356 . S
C1378 O1429 1.325 . S
C1379 N1380 1.279 . S
C1379 C1382 1.358 . S
C1379 H1436 0.930 . S
N1380 C1379 1.279 . S
N1380 C1383 1.314 . S
C1381 C1378 1.348 . S
C1381 C1383 1.353 . S
C1381 H1437 0.929 . S
C1382 C1378 1.356 . S
C1382 C1379 1.358 . S
C1382 H1438 0.930 . S
C1383 N1380 1.314 . S
C1383 C1381 1.353 . S
C1383 H1439 0.930 . S
C1384 N1385 1.314 . S
C1384 C1389 1.353 . S
C1384 H1390 0.930 . S
N1385 Li1368 1.990 . S
N1385 C1384 1.314 . S
N1385 C1387 1.279 . S
C1386 C1387 1.358 . S
C1386 C1388 1.356 . S
C1386 H1440 0.930 . S
C1387 N1385 1.279 . S
C1387 C1386 1.358 . S
C1387 H1391 0.930 . S
C1388 C1386 1.356 . S
C1388 C1389 1.348 . S
C1389 C1384 1.353 . S
C1389 C1388 1.348 . S
C1389 H1441 0.929 . S
H1390 C1384 0.930 . S
H1391 C1387 0.930 . S
C1392 N1393 1.314 . S
C1392 C1394 1.353 . S
C1392 H1398 0.930 . S
N1393 Li1369 1.990 . S
N1393 C1392 1.314 . S
N1393 C1396 1.279 . S
C1394 C1392 1.353 . S
C1394 C1397 1.348 . S
C1394 H1442 0.929 . S
C1395 C1396 1.358 . S
C1395 C1397 1.356 . S
C1395 H1443 0.930 . S
C1396 N1393 1.279 . S
C1396 C1395 1.358 . S
C1396 H1399 0.930 . S
C1397 C1394 1.348 . S
C1397 C1395 1.356 . S
H1398 C1392 0.930 . S
H1399 C1396 0.930 . S
C1400 C1402 1.348 . S
C1400 C1403 1.356 . S
C1400 O1430 1.325 . S
N1401 C1404 1.314 . S
N1401 C1405 1.279 . S
C1402 C1400 1.348 . S
C1402 C1404 1.353 . S
C1402 H1444 0.929 . S
C1403 C1400 1.356 . S
C1403 C1405 1.358 . S
C1403 H1445 0.930 . S
C1404 N1401 1.314 . S
C1404 C1402 1.353 . S
C1404 H1446 0.930 . S
C1405 N1401 1.279 . S
C1405 C1403 1.358 . S
C1405 H1447 0.930 . S
C1406 C1407 1.348 . S
C1406 C1408 1.356 . S
C1406 O1431 1.325 . S
C1407 C1406 1.348 . S
C1407 C1409 1.353 . S
C1407 H1448 0.929 . S
C1408 C1406 1.356 . S
C1408 C1410 1.358 . S
C1408 H1449 0.930 . S
C1409 C1407 1.353 . S
C1409 N1411 1.314 . S
C1409 H1450 0.930 . S
C1410 C1408 1.358 . S
C1410 N1411 1.279 . S
C1410 H1451 0.930 . S
N1411 C1409 1.314 . S
N1411 C1410 1.279 . S
C1412 C1414 1.353 . S
C1412 N1415 1.314 . S
C1412 H1418 0.930 . S
C1413 N1415 1.279 . S
C1413 C1416 1.358 . S
C1413 H1419 0.930 . S
C1414 C1412 1.353 . S
C1414 C1417 1.348 . S
C1414 H1452 0.929 . S
N1415 Li1370 1.990 . S
N1415 C1412 1.314 . S
N1415 C1413 1.279 . S
C1416 C1413 1.358 . S
C1416 C1417 1.356 . S
C1416 H1453 0.930 . S
C1417 C1414 1.348 . S
C1417 C1416 1.356 . S
H1418 C1412 0.930 . S
H1419 C1413 0.930 . S
C1420 N1421 1.314 . S
C1420 C1422 1.353 . S
C1420 H1426 0.930 . S
N1421 Li1371 1.990 . S
N1421 C1420 1.314 . S
N1421 C1424 1.279 . S
C1422 C1420 1.353 . S
C1422 C1425 1.348 . S
C1422 H1454 0.929 . S
C1423 C1424 1.358 . S
C1423 C1425 1.356 . S
C1423 H1455 0.930 . S
C1424 N1421 1.279 . S
C1424 C1423 1.358 . S
C1424 H1427 0.930 . S
C1425 C1422 1.348 . S
C1425 C1423 1.356 . S
H1426 C1420 0.930 . S
H1427 C1424 0.930 . S
O1428 Li1368 1.956 . S
O1428 Li1369 1.970 . S
O1428 Li1370 1.961 . S
O1428 C1372 1.325 . S
O1429 Li1368 1.970 . S
O1429 Li1369 1.956 . S
O1429 Li1371 1.961 . S
O1429 C1378 1.325 . S
O1430 Li1368 1.961 . S
O1430 Li1370 1.956 . S
O1430 Li1371 1.970 . S
O1430 C1400 1.325 . S
O1431 Li1369 1.961 . S
O1431 Li1370 1.970 . S
O1431 Li1371 1.956 . S
O1431 C1406 1.325 . S
H1432 C1374 0.929 . S
H1433 C1375 0.930 . S
H1434 C1376 0.930 . S
H1435 C1377 0.930 . S
H1436 C1379 0.930 . S
H1437 C1381 0.929 . S
H1438 C1382 0.930 . S
H1439 C1383 0.930 . S
H1440 C1386 0.930 . S
H1441 C1389 0.929 . S
H1442 C1394 0.929 . S
H1443 C1395 0.930 . S
H1444 C1402 0.929 . S
H1445 C1403 0.930 . S
H1446 C1404 0.930 . S
H1447 C1405 0.930 . S
H1448 C1407 0.929 . S
H1449 C1408 0.930 . S
H1450 C1409 0.930 . S
H1451 C1410 0.930 . S
H1452 C1414 0.929 . S
H1453 C1416 0.930 . S
H1454 C1422 0.929 . S
H1455 C1423 0.930 . S
Li1456 N1473 1.990 . S
Li1456 O1516 1.956 . S
Li1456 O1517 1.970 1_455 S
Li1456 O1518 1.961 . S
Li1457 N1481 1.990 . S
Li1457 O1516 1.970 1_655 S
Li1457 O1517 1.956 . S
Li1457 O1519 1.961 . S
Li1458 N1503 1.990 . S
Li1458 O1516 1.961 . S
Li1458 O1518 1.956 . S
Li1458 O1519 1.970 1_455 S
Li1459 N1509 1.990 . S
Li1459 O1517 1.961 . S
Li1459 O1518 1.970 1_655 S
Li1459 O1519 1.956 . S
C1460 C1462 1.348 1_455 S
C1460 C1463 1.356 . S
C1460 O1516 1.325 . S
N1461 C1464 1.314 1_455 S
N1461 C1465 1.279 . S
C1462 C1460 1.348 1_655 S
C1462 C1464 1.353 . S
C1462 H1520 0.929 . S
C1463 C1460 1.356 . S
C1463 C1465 1.358 . S
C1463 H1521 0.930 . S
C1464 N1461 1.314 1_655 S
C1464 C1462 1.353 . S
C1464 H1522 0.930 . S
C1465 N1461 1.279 . S
C1465 C1463 1.358 . S
C1465 H1523 0.930 . S
C1466 C1469 1.348 . S
C1466 C1470 1.356 . S
C1466 O1517 1.325 . S
C1467 N1468 1.279 . S
C1467 C1470 1.358 . S
C1467 H1524 0.930 . S
N1468 C1467 1.279 . S
N1468 C1471 1.314 . S
C1469 C1466 1.348 . S
C1469 C1471 1.353 . S
C1469 H1525 0.929 . S
C1470 C1466 1.356 . S
C1470 C1467 1.358 . S
C1470 H1526 0.930 . S
C1471 N1468 1.314 . S
C1471 C1469 1.353 . S
C1471 H1527 0.930 . S
C1472 N1473 1.314 . S
C1472 C1477 1.353 . S
C1472 H1478 0.930 . S
N1473 Li1456 1.990 . S
N1473 C1472 1.314 . S
N1473 C1475 1.279 . S
C1474 C1475 1.358 . S
C1474 C1476 1.356 . S
C1474 H1528 0.930 . S
C1475 N1473 1.279 . S
C1475 C1474 1.358 . S
C1475 H1479 0.930 . S
C1476 C1474 1.356 . S
C1476 C1477 1.348 . S
C1477 C1472 1.353 . S
C1477 C1476 1.348 . S
C1477 H1529 0.929 . S
H1478 C1472 0.930 . S
H1479 C1475 0.930 . S
C1480 N1481 1.314 . S
C1480 C1482 1.353 . S
C1480 H1486 0.930 . S
N1481 Li1457 1.990 . S
N1481 C1480 1.314 . S
N1481 C1484 1.279 . S
C1482 C1480 1.353 . S
C1482 C1485 1.348 . S
C1482 H1530 0.929 . S
C1483 C1484 1.358 . S
C1483 C1485 1.356 . S
C1483 H1531 0.930 . S
C1484 N1481 1.279 . S
C1484 C1483 1.358 . S
C1484 H1487 0.930 . S
C1485 C1482 1.348 . S
C1485 C1483 1.356 . S
H1486 C1480 0.930 . S
H1487 C1484 0.930 . S
C1488 C1490 1.348 . S
C1488 C1491 1.356 . S
C1488 O1518 1.325 . S
N1489 C1492 1.314 . S
N1489 C1493 1.279 . S
C1490 C1488 1.348 . S
C1490 C1492 1.353 . S
C1490 H1532 0.929 . S
C1491 C1488 1.356 . S
C1491 C1493 1.358 . S
C1491 H1533 0.930 . S
C1492 N1489 1.314 . S
C1492 C1490 1.353 . S
C1492 H1534 0.930 . S
C1493 N1489 1.279 . S
C1493 C1491 1.358 . S
C1493 H1535 0.930 . S
C1494 C1495 1.348 1_655 S
C1494 C1496 1.356 . S
C1494 O1519 1.325 . S
C1495 C1494 1.348 1_455 S
C1495 C1497 1.353 . S
C1495 H1536 0.929 . S
C1496 C1494 1.356 . S
C1496 C1498 1.358 . S
C1496 H1537 0.930 . S
C1497 C1495 1.353 . S
C1497 N1499 1.314 1_455 S
C1497 H1538 0.930 . S
C1498 C1496 1.358 . S
C1498 N1499 1.279 . S
C1498 H1539 0.930 . S
N1499 C1497 1.314 1_655 S
N1499 C1498 1.279 . S
C1500 C1502 1.353 . S
C1500 N1503 1.314 . S
C1500 H1506 0.930 . S
C1501 N1503 1.279 . S
C1501 C1504 1.358 . S
C1501 H1507 0.930 . S
C1502 C1500 1.353 . S
C1502 C1505 1.348 . S
C1502 H1540 0.929 . S
N1503 Li1458 1.990 . S
N1503 C1500 1.314 . S
N1503 C1501 1.279 . S
C1504 C1501 1.358 . S
C1504 C1505 1.356 . S
C1504 H1541 0.930 . S
C1505 C1502 1.348 . S
C1505 C1504 1.356 . S
H1506 C1500 0.930 . S
H1507 C1501 0.930 . S
C1508 N1509 1.314 . S
C1508 C1510 1.353 . S
C1508 H1514 0.930 . S
N1509 Li1459 1.990 . S
N1509 C1508 1.314 . S
N1509 C1512 1.279 . S
C1510 C1508 1.353 . S
C1510 C1513 1.348 . S
C1510 H1542 0.929 . S
C1511 C1512 1.358 . S
C1511 C1513 1.356 . S
C1511 H1543 0.930 . S
C1512 N1509 1.279 . S
C1512 C1511 1.358 . S
C1512 H1515 0.930 . S
C1513 C1510 1.348 . S
C1513 C1511 1.356 . S
H1514 C1508 0.930 . S
H1515 C1512 0.930 . S
O1516 Li1456 1.956 . S
O1516 Li1457 1.970 1_455 S
O1516 Li1458 1.961 . S
O1516 C1460 1.325 . S
O1517 Li1456 1.970 1_655 S
O1517 Li1457 1.956 . S
O1517 Li1459 1.961 . S
O1517 C1466 1.325 . S
O1518 Li1456 1.961 . S
O1518 Li1458 1.956 . S
O1518 Li1459 1.970 1_455 S
O1518 C1488 1.325 . S
O1519 Li1457 1.961 . S
O1519 Li1458 1.970 1_655 S
O1519 Li1459 1.956 . S
O1519 C1494 1.325 . S
H1520 C1462 0.929 . S
H1521 C1463 0.930 . S
H1522 C1464 0.930 . S
H1523 C1465 0.930 . S
H1524 C1467 0.930 . S
H1525 C1469 0.929 . S
H1526 C1470 0.930 . S
H1527 C1471 0.930 . S
H1528 C1474 0.930 . S
H1529 C1477 0.929 . S
H1530 C1482 0.929 . S
H1531 C1483 0.930 . S
H1532 C1490 0.929 . S
H1533 C1491 0.930 . S
H1534 C1492 0.930 . S
H1535 C1493 0.930 . S
H1536 C1495 0.929 . S
H1537 C1496 0.930 . S
H1538 C1497 0.930 . S
H1539 C1498 0.930 . S
H1540 C1502 0.929 . S
H1541 C1504 0.930 . S
H1542 C1510 0.929 . S
H1543 C1511 0.930 . S
Li1544 N1561 1.990 . S
Li1544 O1604 1.956 . S
Li1544 O1605 1.970 . S
Li1544 O1606 1.961 . S
Li1545 N1569 1.990 . S
Li1545 O1604 1.970 . S
Li1545 O1605 1.956 . S
Li1545 O1607 1.961 . S
Li1546 N1591 1.990 . S
Li1546 O1604 1.961 . S
Li1546 O1606 1.956 . S
Li1546 O1607 1.970 . S
Li1547 N1597 1.990 . S
Li1547 O1605 1.961 . S
Li1547 O1606 1.970 . S
Li1547 O1607 1.956 . S
C1548 C1550 1.348 . S
C1548 C1551 1.356 . S
C1548 O1604 1.325 . S
N1549 C1552 1.314 . S
N1549 C1553 1.279 . S
C1550 C1548 1.348 . S
C1550 C1552 1.353 . S
C1550 H1608 0.929 . S
C1551 C1548 1.356 . S
C1551 C1553 1.358 . S
C1551 H1609 0.930 . S
C1552 N1549 1.314 . S
C1552 C1550 1.353 . S
C1552 H1610 0.930 . S
C1553 N1549 1.279 . S
C1553 C1551 1.358 . S
C1553 H1611 0.930 . S
C1554 C1557 1.348 . S
C1554 C1558 1.356 . S
C1554 O1605 1.325 . S
C1555 N1556 1.279 . S
C1555 C1558 1.358 . S
C1555 H1612 0.930 . S
N1556 C1555 1.279 . S
N1556 C1559 1.314 . S
C1557 C1554 1.348 . S
C1557 C1559 1.353 . S
C1557 H1613 0.929 . S
C1558 C1554 1.356 . S
C1558 C1555 1.358 . S
C1558 H1614 0.930 . S
C1559 N1556 1.314 . S
C1559 C1557 1.353 . S
C1559 H1615 0.930 . S
C1560 N1561 1.314 . S
C1560 C1565 1.353 . S
C1560 H1566 0.930 . S
N1561 Li1544 1.990 . S
N1561 C1560 1.314 . S
N1561 C1563 1.279 . S
C1562 C1563 1.358 . S
C1562 C1564 1.356 . S
C1562 H1616 0.930 . S
C1563 N1561 1.279 . S
C1563 C1562 1.358 . S
C1563 H1567 0.930 . S
C1564 C1562 1.356 . S
C1564 C1565 1.348 . S
C1565 C1560 1.353 . S
C1565 C1564 1.348 . S
C1565 H1617 0.929 . S
H1566 C1560 0.930 . S
H1567 C1563 0.930 . S
C1568 N1569 1.314 . S
C1568 C1570 1.353 . S
C1568 H1574 0.930 . S
N1569 Li1545 1.990 . S
N1569 C1568 1.314 . S
N1569 C1572 1.279 . S
C1570 C1568 1.353 . S
C1570 C1573 1.348 . S
C1570 H1618 0.929 . S
C1571 C1572 1.358 . S
C1571 C1573 1.356 . S
C1571 H1619 0.930 . S
C1572 N1569 1.279 . S
C1572 C1571 1.358 . S
C1572 H1575 0.930 . S
C1573 C1570 1.348 . S
C1573 C1571 1.356 . S
H1574 C1568 0.930 . S
H1575 C1572 0.930 . S
C1576 C1578 1.348 . S
C1576 C1579 1.356 . S
C1576 O1606 1.325 . S
N1577 C1580 1.314 . S
N1577 C1581 1.279 . S
C1578 C1576 1.348 . S
C1578 C1580 1.353 . S
C1578 H1620 0.929 . S
C1579 C1576 1.356 . S
C1579 C1581 1.358 . S
C1579 H1621 0.930 . S
C1580 N1577 1.314 . S
C1580 C1578 1.353 . S
C1580 H1622 0.930 . S
C1581 N1577 1.279 . S
C1581 C1579 1.358 . S
C1581 H1623 0.930 . S
C1582 C1583 1.348 . S
C1582 C1584 1.356 . S
C1582 O1607 1.325 . S
C1583 C1582 1.348 . S
C1583 C1585 1.353 . S
C1583 H1624 0.929 . S
C1584 C1582 1.356 . S
C1584 C1586 1.358 . S
C1584 H1625 0.930 . S
C1585 C1583 1.353 . S
C1585 N1587 1.314 . S
C1585 H1626 0.930 . S
C1586 C1584 1.358 . S
C1586 N1587 1.279 . S
C1586 H1627 0.930 . S
N1587 C1585 1.314 . S
N1587 C1586 1.279 . S
C1588 C1590 1.353 . S
C1588 N1591 1.314 . S
C1588 H1594 0.930 . S
C1589 N1591 1.279 . S
C1589 C1592 1.358 . S
C1589 H1595 0.930 . S
C1590 C1588 1.353 . S
C1590 C1593 1.348 . S
C1590 H1628 0.929 . S
N1591 Li1546 1.990 . S
N1591 C1588 1.314 . S
N1591 C1589 1.279 . S
C1592 C1589 1.358 . S
C1592 C1593 1.356 . S
C1592 H1629 0.930 . S
C1593 C1590 1.348 . S
C1593 C1592 1.356 . S
H1594 C1588 0.930 . S
H1595 C1589 0.930 . S
C1596 N1597 1.314 . S
C1596 C1598 1.353 . S
C1596 H1602 0.930 . S
N1597 Li1547 1.990 . S
N1597 C1596 1.314 . S
N1597 C1600 1.279 . S
C1598 C1596 1.353 . S
C1598 C1601 1.348 . S
C1598 H1630 0.929 . S
C1599 C1600 1.358 . S
C1599 C1601 1.356 . S
C1599 H1631 0.930 . S
C1600 N1597 1.279 . S
C1600 C1599 1.358 . S
C1600 H1603 0.930 . S
C1601 C1598 1.348 . S
C1601 C1599 1.356 . S
H1602 C1596 0.930 . S
H1603 C1600 0.930 . S
O1604 Li1544 1.956 . S
O1604 Li1545 1.970 . S
O1604 Li1546 1.961 . S
O1604 C1548 1.325 . S
O1605 Li1544 1.970 . S
O1605 Li1545 1.956 . S
O1605 Li1547 1.961 . S
O1605 C1554 1.325 . S
O1606 Li1544 1.961 . S
O1606 Li1546 1.956 . S
O1606 Li1547 1.970 . S
O1606 C1576 1.325 . S
O1607 Li1545 1.961 . S
O1607 Li1546 1.970 . S
O1607 Li1547 1.956 . S
O1607 C1582 1.325 . S
H1608 C1550 0.929 . S
H1609 C1551 0.930 . S
H1610 C1552 0.930 . S
H1611 C1553 0.930 . S
H1612 C1555 0.930 . S
H1613 C1557 0.929 . S
H1614 C1558 0.930 . S
H1615 C1559 0.930 . S
H1616 C1562 0.930 . S
H1617 C1565 0.929 . S
H1618 C1570 0.929 . S
H1619 C1571 0.930 . S
H1620 C1578 0.929 . S
H1621 C1579 0.930 . S
H1622 C1580 0.930 . S
H1623 C1581 0.930 . S
H1624 C1583 0.929 . S
H1625 C1584 0.930 . S
H1626 C1585 0.930 . S
H1627 C1586 0.930 . S
H1628 C1590 0.929 . S
H1629 C1592 0.930 . S
H1630 C1598 0.929 . S
H1631 C1599 0.930 . S
H1632 C1638 0.930 . S
H1633 C1642 0.930 . S
H1634 C1647 0.929 . S
H1635 C1645 0.929 . S
H1636 C1640 0.929 . S
H1637 C1646 0.929 . S
C1638 H1632 0.930 . S
C1638 C1639 1.367 . S
C1638 C1646 1.378 . S
C1639 C1638 1.367 . S
C1639 C1647 1.433 . S
C1640 H1636 0.929 . S
C1640 C1642 1.378 . S
C1640 C1644 1.350 . S
C1641 C1644 1.463 . S
C1641 C1646 1.350 . S
C1641 N1649 1.427 . S
C1642 H1633 0.930 . S
C1642 C1640 1.378 . S
C1642 C1643 1.367 . S
C1643 C1642 1.367 . S
C1643 C1645 1.433 . S
C1644 C1640 1.350 . S
C1644 C1641 1.463 . S
C1644 N1648 1.427 . S
C1645 H1635 0.929 . S
C1645 C1643 1.433 . S
C1645 N1648 1.384 . S
C1646 H1637 0.929 . S
C1646 C1638 1.378 . S
C1646 C1641 1.350 . S
C1647 H1634 0.929 . S
C1647 C1639 1.433 . S
C1647 N1649 1.384 . S
N1648 C1644 1.427 . S
N1648 C1645 1.384 . S
N1649 C1641 1.427 . S
N1649 C1647 1.384 . S
H1650 C1656 0.930 . S
H1651 C1660 0.930 . S
H1652 C1665 0.929 . S
H1653 C1663 0.929 . S
H1654 C1658 0.929 . S
H1655 C1664 0.929 . S
C1656 H1650 0.930 . S
C1656 C1657 1.367 . S
C1656 C1664 1.378 . S
C1657 C1656 1.367 . S
C1657 C1665 1.433 . S
C1658 H1654 0.929 . S
C1658 C1660 1.378 . S
C1658 C1662 1.350 . S
C1659 C1662 1.463 . S
C1659 C1664 1.350 . S
C1659 N1667 1.427 . S
C1660 H1651 0.930 . S
C1660 C1658 1.378 . S
C1660 C1661 1.367 . S
C1661 C1660 1.367 . S
C1661 C1663 1.433 . S
C1662 C1658 1.350 . S
C1662 C1659 1.463 . S
C1662 N1666 1.427 . S
C1663 H1653 0.929 . S
C1663 C1661 1.433 . S
C1663 N1666 1.384 . S
C1664 H1655 0.929 . S
C1664 C1656 1.378 . S
C1664 C1659 1.350 . S
C1665 H1652 0.929 . S
C1665 C1657 1.433 . S
C1665 N1667 1.384 . S
N1666 C1662 1.427 . S
N1666 C1663 1.384 . S
N1667 C1659 1.427 . S
N1667 C1665 1.384 . S
H1668 C1674 0.930 . S
H1669 C1678 0.930 . S
H1670 C1683 0.929 . S
H1671 C1681 0.929 . S
H1672 C1676 0.929 . S
H1673 C1682 0.929 . S
C1674 H1668 0.930 . S
C1674 C1675 1.367 . S
C1674 C1682 1.378 . S
C1675 C1674 1.367 . S
C1675 C1683 1.433 . S
C1676 H1672 0.929 . S
C1676 C1678 1.378 . S
C1676 C1680 1.350 . S
C1677 C1680 1.463 . S
C1677 C1682 1.350 . S
C1677 N1685 1.427 . S
C1678 H1669 0.930 . S
C1678 C1676 1.378 . S
C1678 C1679 1.367 . S
C1679 C1678 1.367 . S
C1679 C1681 1.433 . S
C1680 C1676 1.350 . S
C1680 C1677 1.463 . S
C1680 N1684 1.427 . S
C1681 H1671 0.929 . S
C1681 C1679 1.433 . S
C1681 N1684 1.384 . S
C1682 H1673 0.929 . S
C1682 C1674 1.378 . S
C1682 C1677 1.350 . S
C1683 H1670 0.929 . S
C1683 C1675 1.433 . S
C1683 N1685 1.384 . S
N1684 C1680 1.427 . S
N1684 C1681 1.384 . S
N1685 C1677 1.427 . S
N1685 C1683 1.384 . S
H1686 C1692 0.930 . S
H1687 C1696 0.930 . S
H1688 C1701 0.929 . S
H1689 C1699 0.891 1_545 S
H1690 C1694 0.929 . S
H1691 C1700 0.929 1_545 S
C1692 H1686 0.930 . S
C1692 C1693 1.367 . S
C1692 C1700 1.378 . S
C1693 C1692 1.367 . S
C1693 C1701 1.433 . S
C1694 H1690 0.929 . S
C1694 C1696 1.378 . S
C1694 C1698 1.350 . S
C1695 C1698 1.463 . S
C1695 C1700 1.350 . S
C1695 N1703 1.427 . S
C1696 H1687 0.930 . S
C1696 C1694 1.378 . S
C1696 C1697 1.367 . S
C1697 C1696 1.367 . S
C1697 C1699 1.470 . S
C1698 C1694 1.350 . S
C1698 C1695 1.463 . S
C1698 N1702 1.427 . S
C1699 H1689 0.891 1_565 S
C1699 C1697 1.470 . S
C1699 N1702 1.391 . S
C1700 H1691 0.929 1_565 S
C1700 C1692 1.378 . S
C1700 C1695 1.350 . S
C1701 H1688 0.929 . S
C1701 C1693 1.433 . S
C1701 N1703 1.384 . S
N1702 C1698 1.427 . S
N1702 C1699 1.391 . S
N1703 C1695 1.427 . S
N1703 C1701 1.384 . S
H1704 C1710 0.930 . S
H1705 C1714 0.930 . S
H1706 C1719 0.929 . S
H1707 C1717 0.929 . S
H1708 C1712 0.929 . S
H1709 C1718 0.929 . S
C1710 H1704 0.930 . S
C1710 C1711 1.367 . S
C1710 C1718 1.378 . S
C1711 C1710 1.367 . S
C1711 C1719 1.433 . S
C1712 H1708 0.929 . S
C1712 C1714 1.378 . S
C1712 C1716 1.350 . S
C1713 C1716 1.463 . S
C1713 C1718 1.350 . S
C1713 N1721 1.427 . S
C1714 H1705 0.930 . S
C1714 C1712 1.378 . S
C1714 C1715 1.367 . S
C1715 C1714 1.367 . S
C1715 C1717 1.433 . S
C1716 C1712 1.350 . S
C1716 C1713 1.463 . S
C1716 N1720 1.427 . S
C1717 H1707 0.929 . S
C1717 C1715 1.433 . S
C1717 N1720 1.384 . S
C1718 H1709 0.929 . S
C1718 C1710 1.378 . S
C1718 C1713 1.350 . S
C1719 H1706 0.929 . S
C1719 C1711 1.433 . S
C1719 N1721 1.384 . S
N1720 C1716 1.427 . S
N1720 C1717 1.384 . S
N1721 C1713 1.427 . S
N1721 C1719 1.384 . S
H1722 C1728 0.930 . S
H1723 C1732 0.930 . S
H1724 C1737 0.929 . S
H1725 C1735 0.929 . S
H1726 C1730 0.929 . S
H1727 C1736 0.929 . S
C1728 H1722 0.930 . S
C1728 C1729 1.367 . S
C1728 C1736 1.378 . S
C1729 C1728 1.367 . S
C1729 C1737 1.433 . S
C1730 H1726 0.929 . S
C1730 C1732 1.378 . S
C1730 C1734 1.350 . S
C1731 C1734 1.463 . S
C1731 C1736 1.350 . S
C1731 N1739 1.427 . S
C1732 H1723 0.930 . S
C1732 C1730 1.378 . S
C1732 C1733 1.367 . S
C1733 C1732 1.367 . S
C1733 C1735 1.433 . S
C1734 C1730 1.350 . S
C1734 C1731 1.463 . S
C1734 N1738 1.427 . S
C1735 H1725 0.929 . S
C1735 C1733 1.433 . S
C1735 N1738 1.384 . S
C1736 H1727 0.929 . S
C1736 C1728 1.378 . S
C1736 C1731 1.350 . S
C1737 H1724 0.929 . S
C1737 C1729 1.433 . S
C1737 N1739 1.384 . S
N1738 C1734 1.427 . S
N1738 C1735 1.384 . S
N1739 C1731 1.427 . S
N1739 C1737 1.384 . S
H1740 C1746 0.930 . S
H1741 C1750 0.930 . S
H1742 C1755 0.929 . S
H1743 C1753 0.929 . S
H1744 C1748 0.929 . S
H1745 C1754 0.929 . S
C1746 H1740 0.930 . S
C1746 C1747 1.367 . S
C1746 C1754 1.378 . S
C1747 C1746 1.367 . S
C1747 C1755 1.433 . S
C1748 H1744 0.929 . S
C1748 C1750 1.378 . S
C1748 C1752 1.350 . S
C1749 C1752 1.463 . S
C1749 C1754 1.350 . S
C1749 N1757 1.427 . S
C1750 H1741 0.930 . S
C1750 C1748 1.378 . S
C1750 C1751 1.367 . S
C1751 C1750 1.367 . S
C1751 C1753 1.433 . S
C1752 C1748 1.350 . S
C1752 C1749 1.463 . S
C1752 N1756 1.427 . S
C1753 H1743 0.929 . S
C1753 C1751 1.433 . S
C1753 N1756 1.384 . S
C1754 H1745 0.929 . S
C1754 C1746 1.378 . S
C1754 C1749 1.350 . S
C1755 H1742 0.929 . S
C1755 C1747 1.433 . S
C1755 N1757 1.384 . S
N1756 C1752 1.427 . S
N1756 C1753 1.384 . S
N1757 C1749 1.427 . S
N1757 C1755 1.384 . S
H1758 C1764 0.930 1_545 S
H1759 C1768 0.930 . S
H1760 C1773 0.929 . S
H1761 C1771 0.929 . S
H1762 C1766 0.929 . S
H1763 C1772 0.929 1_545 S
C1764 H1758 0.930 1_565 S
C1764 C1765 1.367 . S
C1764 C1772 1.378 . S
C1765 C1764 1.367 . S
C1765 C1773 1.433 . S
C1766 H1762 0.929 . S
C1766 C1768 1.378 . S
C1766 C1770 1.350 . S
C1767 C1770 1.463 . S
C1767 C1772 1.350 . S
C1767 N1775 1.427 . S
C1768 H1759 0.930 . S
C1768 C1766 1.378 . S
C1768 C1769 1.367 . S
C1769 C1768 1.367 . S
C1769 C1771 1.433 1_565 S
C1770 C1766 1.350 . S
C1770 C1767 1.463 . S
C1770 N1774 1.382 1_565 S
C1771 H1761 0.929 . S
C1771 C1769 1.433 1_545 S
C1771 N1774 1.390 . S
C1772 H1763 0.929 1_565 S
C1772 C1764 1.378 . S
C1772 C1767 1.350 . S
C1773 H1760 0.929 . S
C1773 C1765 1.433 . S
C1773 N1775 1.384 . S
N1774 C1770 1.382 1_545 S
N1774 C1771 1.390 . S
N1775 C1767 1.427 . S
N1775 C1773 1.384 . S
H1776 C1782 0.930 . S
H1777 C1786 0.930 . S
H1778 C1791 0.929 . S
H1779 C1789 0.929 . S
H1780 C1784 0.929 . S
H1781 C1790 0.929 . S
C1782 H1776 0.930 . S
C1782 C1783 1.367 . S
C1782 C1790 1.378 . S
C1783 C1782 1.367 . S
C1783 C1791 1.433 . S
C1784 H1780 0.929 . S
C1784 C1786 1.378 . S
C1784 C1788 1.350 . S
C1785 C1788 1.463 . S
C1785 C1790 1.350 . S
C1785 N1793 1.427 . S
C1786 H1777 0.930 . S
C1786 C1784 1.378 . S
C1786 C1787 1.367 . S
C1787 C1786 1.367 . S
C1787 C1789 1.433 . S
C1788 C1784 1.350 . S
C1788 C1785 1.463 . S
C1788 N1792 1.427 . S
C1789 H1779 0.929 . S
C1789 C1787 1.433 . S
C1789 N1792 1.384 . S
C1790 H1781 0.929 . S
C1790 C1782 1.378 . S
C1790 C1785 1.350 . S
C1791 H1778 0.929 . S
C1791 C1783 1.433 . S
C1791 N1793 1.384 . S
N1792 C1788 1.427 . S
N1792 C1789 1.384 . S
N1793 C1785 1.427 . S
N1793 C1791 1.384 . S
H1794 C1800 0.930 . S
H1795 C1804 0.930 . S
H1796 C1809 0.929 . S
H1797 C1807 0.929 . S
H1798 C1802 0.929 . S
H1799 C1808 0.929 . S
C1800 H1794 0.930 . S
C1800 C1801 1.367 . S
C1800 C1808 1.378 . S
C1801 C1800 1.367 . S
C1801 C1809 1.433 . S
C1802 H1798 0.929 . S
C1802 C1804 1.378 . S
C1802 C1806 1.350 . S
C1803 C1806 1.463 . S
C1803 C1808 1.350 . S
C1803 N1811 1.427 . S
C1804 H1795 0.930 . S
C1804 C1802 1.378 . S
C1804 C1805 1.367 . S
C1805 C1804 1.367 . S
C1805 C1807 1.433 . S
C1806 C1802 1.350 . S
C1806 C1803 1.463 . S
C1806 N1810 1.427 . S
C1807 H1797 0.929 . S
C1807 C1805 1.433 . S
C1807 N1810 1.384 . S
C1808 H1799 0.929 . S
C1808 C1800 1.378 . S
C1808 C1803 1.350 . S
C1809 H1796 0.929 . S
C1809 C1801 1.433 . S
C1809 N1811 1.384 . S
N1810 C1806 1.427 . S
N1810 C1807 1.384 . S
N1811 C1803 1.427 . S
N1811 C1809 1.384 . S
H1812 C1818 0.930 . S
H1813 C1822 0.930 . S
H1814 C1827 0.929 . S
H1815 C1825 0.929 . S
H1816 C1820 0.929 . S
H1817 C1826 0.929 . S
C1818 H1812 0.930 . S
C1818 C1819 1.367 . S
C1818 C1826 1.378 . S
C1819 C1818 1.367 . S
C1819 C1827 1.433 . S
C1820 H1816 0.929 . S
C1820 C1822 1.378 . S
C1820 C1824 1.350 . S
C1821 C1824 1.463 . S
C1821 C1826 1.350 . S
C1821 N1829 1.427 . S
C1822 H1813 0.930 . S
C1822 C1820 1.378 . S
C1822 C1823 1.367 . S
C1823 C1822 1.367 . S
C1823 C1825 1.433 . S
C1824 C1820 1.350 . S
C1824 C1821 1.463 . S
C1824 N1828 1.427 . S
C1825 H1815 0.929 . S
C1825 C1823 1.433 . S
C1825 N1828 1.384 . S
C1826 H1817 0.929 . S
C1826 C1818 1.378 . S
C1826 C1821 1.350 . S
C1827 H1814 0.929 . S
C1827 C1819 1.433 . S
C1827 N1829 1.384 . S
N1828 C1824 1.427 . S
N1828 C1825 1.384 . S
N1829 C1821 1.427 . S
N1829 C1827 1.384 . S
H1830 C1836 0.930 . S
H1831 C1840 0.930 . S
H1832 C1845 0.929 . S
H1833 C1843 0.929 . S
H1834 C1838 0.929 . S
H1835 C1844 0.929 . S
C1836 H1830 0.930 . S
C1836 C1837 1.367 . S
C1836 C1844 1.378 . S
C1837 C1836 1.367 . S
C1837 C1845 1.433 . S
C1838 H1834 0.929 . S
C1838 C1840 1.378 . S
C1838 C1842 1.350 . S
C1839 C1842 1.463 . S
C1839 C1844 1.350 . S
C1839 N1847 1.427 . S
C1840 H1831 0.930 . S
C1840 C1838 1.378 . S
C1840 C1841 1.367 . S
C1841 C1840 1.367 . S
C1841 C1843 1.433 . S
C1842 C1838 1.350 . S
C1842 C1839 1.463 . S
C1842 N1846 1.427 . S
C1843 H1833 0.929 . S
C1843 C1841 1.433 . S
C1843 N1846 1.384 . S
C1844 H1835 0.929 . S
C1844 C1836 1.378 . S
C1844 C1839 1.350 . S
C1845 H1832 0.929 . S
C1845 C1837 1.433 . S
C1845 N1847 1.384 . S
N1846 C1842 1.427 . S
N1846 C1843 1.384 . S
N1847 C1839 1.427 . S
N1847 C1845 1.384 . S
H1848 C1854 0.930 . S
H1849 C1858 0.930 . S
H1850 C1863 0.929 . S
H1851 C1861 0.929 . S
H1852 C1856 0.929 . S
H1853 C1862 0.929 . S
C1854 H1848 0.930 . S
C1854 C1855 1.367 . S
C1854 C1862 1.378 . S
C1855 C1854 1.367 . S
C1855 C1863 1.433 . S
C1856 H1852 0.929 . S
C1856 C1858 1.378 . S
C1856 C1860 1.350 . S
C1857 C1860 1.463 . S
C1857 C1862 1.350 . S
C1857 N1865 1.427 . S
C1858 H1849 0.930 . S
C1858 C1856 1.378 . S
C1858 C1859 1.367 . S
C1859 C1858 1.367 . S
C1859 C1861 1.433 . S
C1860 C1856 1.350 . S
C1860 C1857 1.463 . S
C1860 N1864 1.427 . S
C1861 H1851 0.929 . S
C1861 C1859 1.433 . S
C1861 N1864 1.384 . S
C1862 H1853 0.929 . S
C1862 C1854 1.378 . S
C1862 C1857 1.350 . S
C1863 H1850 0.929 . S
C1863 C1855 1.433 . S
C1863 N1865 1.384 . S
N1864 C1860 1.427 . S
N1864 C1861 1.384 . S
N1865 C1857 1.427 . S
N1865 C1863 1.384 . S
H1866 C1872 0.930 . S
H1867 C1876 0.930 1_655 S
H1868 C1881 0.929 . S
H1869 C1879 0.929 . S
H1870 C1874 0.940 . S
H1871 C1880 0.929 . S
C1872 H1866 0.930 . S
C1872 C1873 1.367 . S
C1872 C1880 1.378 . S
C1873 C1872 1.367 . S
C1873 C1881 1.433 . S
C1874 H1870 0.940 . S
C1874 C1876 1.378 . S
C1874 C1878 1.350 . S
C1875 C1878 1.463 . S
C1875 C1880 1.350 . S
C1875 N1883 1.427 . S
C1876 H1867 0.930 1_455 S
C1876 C1874 1.378 . S
C1876 C1877 1.367 . S
C1877 C1876 1.367 . S
C1877 C1879 1.433 . S
C1878 C1874 1.350 . S
C1878 C1875 1.463 . S
C1878 N1882 1.427 . S
C1879 H1869 0.929 . S
C1879 C1877 1.433 . S
C1879 N1882 1.384 . S
C1880 H1871 0.929 . S
C1880 C1872 1.378 . S
C1880 C1875 1.350 . S
C1881 H1868 0.929 . S
C1881 C1873 1.433 . S
C1881 N1883 1.384 . S
N1882 C1878 1.427 . S
N1882 C1879 1.384 . S
N1883 C1875 1.427 . S
N1883 C1881 1.384 . S
H1884 C1890 0.930 . S
H1885 C1894 0.930 . S
H1886 C1899 0.929 . S
H1887 C1897 0.929 . S
H1888 C1892 0.929 . S
H1889 C1898 0.929 . S
C1890 H1884 0.930 . S
C1890 C1891 1.367 . S
C1890 C1898 1.378 . S
C1891 C1890 1.367 . S
C1891 C1899 1.433 . S
C1892 H1888 0.929 . S
C1892 C1894 1.378 . S
C1892 C1896 1.350 . S
C1893 C1896 1.463 . S
C1893 C1898 1.350 . S
C1893 N1901 1.427 . S
C1894 H1885 0.930 . S
C1894 C1892 1.378 . S
C1894 C1895 1.367 . S
C1895 C1894 1.367 . S
C1895 C1897 1.433 . S
C1896 C1892 1.350 . S
C1896 C1893 1.463 . S
C1896 N1900 1.427 . S
C1897 H1887 0.929 . S
C1897 C1895 1.433 . S
C1897 N1900 1.384 . S
C1898 H1889 0.929 . S
C1898 C1890 1.378 . S
C1898 C1893 1.350 . S
C1899 H1886 0.929 . S
C1899 C1891 1.433 . S
C1899 N1901 1.384 . S
N1900 C1896 1.427 . S
N1900 C1897 1.384 . S
N1901 C1893 1.427 . S
N1901 C1899 1.384 . S
H1902 C1908 0.930 1_455 S
H1903 C1912 0.930 . S
H1904 C1917 0.929 . S
H1905 C1915 0.929 . S
H1906 C1910 0.929 . S
H1907 C1916 0.929 1_455 S
C1908 H1902 0.930 1_655 S
C1908 C1909 1.367 . S
C1908 C1916 1.378 . S
C1909 C1908 1.367 . S
C1909 C1917 1.433 . S
C1910 H1906 0.929 . S
C1910 C1912 1.378 . S
C1910 C1914 1.350 . S
C1911 C1914 1.463 . S
C1911 C1916 1.350 . S
C1911 N1919 1.427 . S
C1912 H1903 0.930 . S
C1912 C1910 1.378 . S
C1912 C1913 1.367 . S
C1913 C1912 1.367 . S
C1913 C1915 1.433 1_655 S
C1914 C1910 1.350 . S
C1914 C1911 1.463 . S
C1914 N1918 1.427 1_655 S
C1915 H1905 0.929 . S
C1915 C1913 1.433 1_455 S
C1915 N1918 1.384 . S
C1916 H1907 0.929 1_655 S
C1916 C1908 1.378 . S
C1916 C1911 1.350 . S
C1917 H1904 0.929 . S
C1917 C1909 1.433 . S
C1917 N1919 1.384 . S
N1918 C1914 1.427 1_455 S
N1918 C1915 1.384 . S
N1919 C1911 1.427 . S
N1919 C1917 1.384 . S
H1920 C1926 0.930 . S
H1921 C1930 0.930 . S
H1922 C1935 0.929 . S
H1923 C1933 0.929 . S
H1924 C1928 0.929 . S
H1925 C1934 0.929 . S
C1926 H1920 0.930 . S
C1926 C1927 1.367 . S
C1926 C1934 1.378 . S
C1927 C1926 1.367 . S
C1927 C1935 1.433 . S
C1928 H1924 0.929 . S
C1928 C1930 1.378 . S
C1928 C1932 1.350 . S
C1929 C1932 1.463 . S
C1929 C1934 1.350 . S
C1929 N1937 1.427 . S
C1930 H1921 0.930 . S
C1930 C1928 1.378 . S
C1930 C1931 1.367 . S
C1931 C1930 1.367 . S
C1931 C1933 1.433 . S
C1932 C1928 1.350 . S
C1932 C1929 1.463 . S
C1932 N1936 1.427 . S
C1933 H1923 0.929 . S
C1933 C1931 1.433 . S
C1933 N1936 1.384 . S
C1934 H1925 0.929 . S
C1934 C1926 1.378 . S
C1934 C1929 1.350 . S
C1935 H1922 0.929 . S
C1935 C1927 1.433 . S
C1935 N1937 1.384 . S
N1936 C1932 1.427 . S
N1936 C1933 1.384 . S
N1937 C1929 1.427 . S
N1937 C1935 1.384 . S
H1938 C1944 0.930 . S
H1939 C1948 0.930 . S
H1940 C1953 0.929 . S
H1941 C1951 0.929 . S
H1942 C1946 0.929 . S
H1943 C1952 0.929 . S
C1944 H1938 0.930 . S
C1944 C1945 1.367 . S
C1944 C1952 1.378 . S
C1945 C1944 1.367 . S
C1945 C1953 1.433 . S
C1946 H1942 0.929 . S
C1946 C1948 1.378 . S
C1946 C1950 1.350 . S
C1947 C1950 1.463 . S
C1947 C1952 1.350 . S
C1947 N1955 1.427 . S
C1948 H1939 0.930 . S
C1948 C1946 1.378 . S
C1948 C1949 1.367 . S
C1949 C1948 1.367 . S
C1949 C1951 1.433 . S
C1950 C1946 1.350 . S
C1950 C1947 1.463 . S
C1950 N1954 1.427 . S
C1951 H1941 0.929 . S
C1951 C1949 1.433 . S
C1951 N1954 1.384 . S
C1952 H1943 0.929 . S
C1952 C1944 1.378 . S
C1952 C1947 1.350 . S
C1953 H1940 0.929 . S
C1953 C1945 1.433 . S
C1953 N1955 1.384 . S
N1954 C1950 1.427 . S
N1954 C1951 1.384 . S
N1955 C1947 1.427 . S
N1955 C1953 1.384 . S
H1956 C1962 0.930 1_554 S
H1957 C1966 0.930 . S
H1958 C1971 0.929 . S
H1959 C1969 0.929 . S
H1960 C1964 0.929 . S
H1961 C1970 0.929 1_554 S
C1962 H1956 0.930 1_556 S
C1962 C1963 1.367 . S
C1962 C1970 1.378 . S
C1963 C1962 1.367 . S
C1963 C1971 1.433 . S
C1964 H1960 0.929 . S
C1964 C1966 1.378 . S
C1964 C1968 1.350 . S
C1965 C1968 1.463 . S
C1965 C1970 1.350 . S
C1965 N1973 1.427 . S
C1966 H1957 0.930 . S
C1966 C1964 1.378 . S
C1966 C1967 1.367 . S
C1967 C1966 1.367 . S
C1967 C1969 1.433 1_556 S
C1968 C1964 1.350 . S
C1968 C1965 1.463 . S
C1968 N1972 1.460 . S
C1969 H1959 0.929 . S
C1969 C1967 1.433 1_554 S
C1969 N1972 1.380 1_554 S
C1970 H1961 0.929 1_556 S
C1970 C1962 1.378 . S
C1970 C1965 1.350 . S
C1971 H1958 0.929 . S
C1971 C1963 1.433 . S
C1971 N1973 1.384 . S
N1972 C1968 1.460 . S
N1972 C1969 1.380 1_556 S
N1973 C1965 1.427 . S
N1973 C1971 1.384 . S
H1974 C1980 0.930 . S
H1975 C1984 0.930 . S
H1976 C1989 0.929 . S
H1977 C1987 0.929 . S
H1978 C1982 0.929 . S
H1979 C1988 0.929 . S
C1980 H1974 0.930 . S
C1980 C1981 1.367 . S
C1980 C1988 1.378 . S
C1981 C1980 1.367 . S
C1981 C1989 1.433 . S
C1982 H1978 0.929 . S
C1982 C1984 1.378 . S
C1982 C1986 1.350 . S
C1983 C1986 1.463 . S
C1983 C1988 1.350 . S
C1983 N1991 1.427 . S
C1984 H1975 0.930 . S
C1984 C1982 1.378 . S
C1984 C1985 1.367 . S
C1985 C1984 1.367 . S
C1985 C1987 1.433 . S
C1986 C1982 1.350 . S
C1986 C1983 1.463 . S
C1986 N1990 1.427 . S
C1987 H1977 0.929 . S
C1987 C1985 1.433 . S
C1987 N1990 1.384 . S
C1988 H1979 0.929 . S
C1988 C1980 1.378 . S
C1988 C1983 1.350 . S
C1989 H1976 0.929 . S
C1989 C1981 1.433 . S
C1989 N1991 1.384 . S
N1990 C1986 1.427 . S
N1990 C1987 1.384 . S
N1991 C1983 1.427 . S
N1991 C1989 1.384 . S
H1992 C1998 0.930 . S
H1993 C2002 0.930 . S
H1994 C2007 0.929 . S
H1995 C2005 0.929 . S
H1996 C2000 0.929 . S
H1997 C2006 0.929 . S
C1998 H1992 0.930 . S
C1998 C1999 1.367 . S
C1998 C2006 1.378 . S
C1999 C1998 1.367 . S
C1999 C2007 1.433 . S
C2000 H1996 0.929 . S
C2000 C2002 1.378 . S
C2000 C2004 1.350 . S
C2001 C2004 1.463 . S
C2001 C2006 1.350 . S
C2001 N2009 1.427 . S
C2002 H1993 0.930 . S
C2002 C2000 1.378 . S
C2002 C2003 1.367 . S
C2003 C2002 1.367 . S
C2003 C2005 1.433 . S
C2004 C2000 1.350 . S
C2004 C2001 1.463 . S
C2004 N2008 1.427 . S
C2005 H1995 0.929 . S
C2005 C2003 1.433 . S
C2005 N2008 1.384 . S
C2006 H1997 0.929 . S
C2006 C1998 1.378 . S
C2006 C2001 1.350 . S
C2007 H1994 0.929 . S
C2007 C1999 1.433 . S
C2007 N2009 1.384 . S
N2008 C2004 1.427 . S
N2008 C2005 1.384 . S
N2009 C2001 1.427 . S
N2009 C2007 1.384 . S
H2010 C2016 0.930 . S
H2011 C2020 0.930 . S
H2012 C2025 0.929 . S
H2013 C2023 0.929 . S
H2014 C2018 0.929 . S
H2015 C2024 0.929 . S
C2016 H2010 0.930 . S
C2016 C2017 1.367 . S
C2016 C2024 1.378 . S
C2017 C2016 1.367 . S
C2017 C2025 1.433 . S
C2018 H2014 0.929 . S
C2018 C2020 1.378 . S
C2018 C2022 1.350 . S
C2019 C2022 1.463 . S
C2019 C2024 1.350 . S
C2019 N2027 1.427 . S
C2020 H2011 0.930 . S
C2020 C2018 1.378 . S
C2020 C2021 1.367 . S
C2021 C2020 1.367 . S
C2021 C2023 1.433 . S
C2022 C2018 1.350 . S
C2022 C2019 1.463 . S
C2022 N2026 1.427 . S
C2023 H2013 0.929 . S
C2023 C2021 1.433 . S
C2023 N2026 1.384 . S
C2024 H2015 0.929 . S
C2024 C2016 1.378 . S
C2024 C2019 1.350 . S
C2025 H2012 0.929 . S
C2025 C2017 1.433 . S
C2025 N2027 1.384 . S
N2026 C2022 1.427 . S
N2026 C2023 1.384 . S
N2027 C2019 1.427 . S
N2027 C2025 1.384 . S
H2028 C2034 0.930 . S
H2029 C2038 0.930 . S
H2030 C2043 0.929 . S
H2031 C2041 0.929 . S
H2032 C2036 0.929 . S
H2033 C2042 0.929 . S
C2034 H2028 0.930 . S
C2034 C2035 1.367 . S
C2034 C2042 1.378 . S
C2035 C2034 1.367 . S
C2035 C2043 1.433 . S
C2036 H2032 0.929 . S
C2036 C2038 1.378 . S
C2036 C2040 1.350 . S
C2037 C2040 1.463 . S
C2037 C2042 1.350 . S
C2037 N2045 1.427 . S
C2038 H2029 0.930 . S
C2038 C2036 1.378 . S
C2038 C2039 1.367 . S
C2039 C2038 1.367 . S
C2039 C2041 1.433 . S
C2040 C2036 1.350 . S
C2040 C2037 1.463 . S
C2040 N2044 1.427 . S
C2041 H2031 0.929 . S
C2041 C2039 1.433 . S
C2041 N2044 1.384 . S
C2042 H2033 0.929 . S
C2042 C2034 1.378 . S
C2042 C2037 1.350 . S
C2043 H2030 0.929 . S
C2043 C2035 1.433 . S
C2043 N2045 1.384 . S
N2044 C2040 1.427 . S
N2044 C2041 1.384 . S
N2045 C2037 1.427 . S
N2045 C2043 1.384 . S
H2046 C2052 0.930 . S
H2047 C2056 0.930 . S
H2048 C2061 0.929 . S
H2049 C2059 0.929 . S
H2050 C2054 0.929 . S
H2051 C2060 0.929 . S
C2052 H2046 0.930 . S
C2052 C2053 1.367 . S
C2052 C2060 1.378 . S
C2053 C2052 1.367 . S
C2053 C2061 1.433 . S
C2054 H2050 0.929 . S
C2054 C2056 1.378 . S
C2054 C2058 1.350 . S
C2055 C2058 1.463 . S
C2055 C2060 1.350 . S
C2055 N2063 1.427 . S
C2056 H2047 0.930 . S
C2056 C2054 1.378 . S
C2056 C2057 1.367 . S
C2057 C2056 1.367 . S
C2057 C2059 1.433 . S
C2058 C2054 1.350 . S
C2058 C2055 1.463 . S
C2058 N2062 1.427 . S
C2059 H2049 0.929 . S
C2059 C2057 1.433 . S
C2059 N2062 1.384 . S
C2060 H2051 0.929 . S
C2060 C2052 1.378 . S
C2060 C2055 1.350 . S
C2061 H2048 0.929 . S
C2061 C2053 1.433 . S
C2061 N2063 1.384 . S
N2062 C2058 1.427 . S
N2062 C2059 1.384 . S
N2063 C2055 1.427 . S
N2063 C2061 1.384 . S
H2064 C2070 0.930 . S
H2065 C2074 0.930 . S
H2066 C2079 0.929 . S
H2067 C2077 0.929 . S
H2068 C2072 0.929 . S
H2069 C2078 0.929 . S
C2070 H2064 0.930 . S
C2070 C2071 1.367 . S
C2070 C2078 1.378 . S
C2071 C2070 1.367 . S
C2071 C2079 1.433 . S
C2072 H2068 0.929 . S
C2072 C2074 1.378 . S
C2072 C2076 1.350 . S
C2073 C2076 1.463 . S
C2073 C2078 1.350 . S
C2073 N2081 1.427 . S
C2074 H2065 0.930 . S
C2074 C2072 1.378 . S
C2074 C2075 1.367 . S
C2075 C2074 1.367 . S
C2075 C2077 1.433 . S
C2076 C2072 1.350 . S
C2076 C2073 1.463 . S
C2076 N2080 1.427 . S
C2077 H2067 0.929 . S
C2077 C2075 1.433 . S
C2077 N2080 1.384 . S
C2078 H2069 0.929 . S
C2078 C2070 1.378 . S
C2078 C2073 1.350 . S
C2079 H2066 0.929 . S
C2079 C2071 1.433 . S
C2079 N2081 1.384 . S
N2080 C2076 1.427 . S
N2080 C2077 1.384 . S
N2081 C2073 1.427 . S
N2081 C2079 1.384 . S
H2082 C2088 0.930 . S
H2083 C2092 0.899 1_565 S
H2084 C2097 0.925 . S
H2085 C2095 0.929 . S
H2086 C2090 0.929 1_565 S
H2087 C2096 0.929 . S
C2088 H2082 0.930 . S
C2088 C2089 1.367 . S
C2088 C2096 1.378 . S
C2089 C2088 1.367 . S
C2089 C2097 1.433 . S
C2090 H2086 0.929 1_545 S
C2090 C2092 1.383 . S
C2090 C2094 1.350 . S
C2091 C2094 1.463 . S
C2091 C2096 1.350 . S
C2091 N2099 1.427 . S
C2092 H2083 0.899 1_545 S
C2092 C2090 1.383 . S
C2092 C2093 1.395 . S
C2093 C2092 1.395 . S
C2093 C2095 1.433 . S
C2094 C2090 1.350 . S
C2094 C2091 1.463 . S
C2094 N2098 1.427 . S
C2095 H2085 0.929 . S
C2095 C2093 1.433 . S
C2095 N2098 1.384 . S
C2096 H2087 0.929 . S
C2096 C2088 1.378 . S
C2096 C2091 1.350 . S
C2097 H2084 0.925 . S
C2097 C2089 1.433 . S
C2097 N2099 1.384 . S
N2098 C2094 1.427 . S
N2098 C2095 1.384 . S
N2099 C2091 1.427 . S
N2099 C2097 1.384 . S
H2100 C2106 0.930 . S
H2101 C2110 0.930 . S
H2102 C2115 0.929 . S
H2103 C2113 0.929 . S
H2104 C2108 0.929 . S
H2105 C2114 0.929 . S
C2106 H2100 0.930 . S
C2106 C2107 1.367 . S
C2106 C2114 1.378 . S
C2107 C2106 1.367 . S
C2107 C2115 1.433 . S
C2108 H2104 0.929 . S
C2108 C2110 1.378 . S
C2108 C2112 1.350 . S
C2109 C2112 1.463 . S
C2109 C2114 1.350 . S
C2109 N2117 1.427 . S
C2110 H2101 0.930 . S
C2110 C2108 1.378 . S
C2110 C2111 1.367 . S
C2111 C2110 1.367 . S
C2111 C2113 1.433 . S
C2112 C2108 1.350 . S
C2112 C2109 1.463 . S
C2112 N2116 1.427 . S
C2113 H2103 0.929 . S
C2113 C2111 1.433 . S
C2113 N2116 1.384 . S
C2114 H2105 0.929 . S
C2114 C2106 1.378 . S
C2114 C2109 1.350 . S
C2115 H2102 0.929 . S
C2115 C2107 1.433 . S
C2115 N2117 1.384 . S
N2116 C2112 1.427 . S
N2116 C2113 1.384 . S
N2117 C2109 1.427 . S
N2117 C2115 1.384 . S
H2118 C2124 0.930 . S
H2119 C2128 0.930 . S
H2120 C2133 0.929 . S
H2121 C2131 0.929 . S
H2122 C2126 0.929 . S
H2123 C2132 0.929 . S
C2124 H2118 0.930 . S
C2124 C2125 1.367 . S
C2124 C2132 1.378 . S
C2125 C2124 1.367 . S
C2125 C2133 1.433 . S
C2126 H2122 0.929 . S
C2126 C2128 1.378 . S
C2126 C2130 1.350 . S
C2127 C2130 1.463 . S
C2127 C2132 1.350 . S
C2127 N2135 1.427 . S
C2128 H2119 0.930 . S
C2128 C2126 1.378 . S
C2128 C2129 1.367 . S
C2129 C2128 1.367 . S
C2129 C2131 1.433 . S
C2130 C2126 1.350 . S
C2130 C2127 1.463 . S
C2130 N2134 1.427 . S
C2131 H2121 0.929 . S
C2131 C2129 1.433 . S
C2131 N2134 1.384 . S
C2132 H2123 0.929 . S
C2132 C2124 1.378 . S
C2132 C2127 1.350 . S
C2133 H2120 0.929 . S
C2133 C2125 1.433 . S
C2133 N2135 1.384 . S
N2134 C2130 1.427 . S
N2134 C2131 1.384 . S
N2135 C2127 1.427 . S
N2135 C2133 1.384 . S
H2136 C2142 0.930 . S
H2137 C2146 0.930 . S
H2138 C2151 0.929 . S
H2139 C2149 0.929 . S
H2140 C2144 0.929 . S
H2141 C2150 0.929 . S
C2142 H2136 0.930 . S
C2142 C2143 1.367 . S
C2142 C2150 1.378 . S
C2143 C2142 1.367 . S
C2143 C2151 1.433 . S
C2144 H2140 0.929 . S
C2144 C2146 1.378 . S
C2144 C2148 1.350 . S
C2145 C2148 1.463 . S
C2145 C2150 1.350 . S
C2145 N2153 1.427 . S
C2146 H2137 0.930 . S
C2146 C2144 1.378 . S
C2146 C2147 1.367 . S
C2147 C2146 1.367 . S
C2147 C2149 1.433 . S
C2148 C2144 1.350 . S
C2148 C2145 1.463 . S
C2148 N2152 1.427 . S
C2149 H2139 0.929 . S
C2149 C2147 1.433 . S
C2149 N2152 1.384 . S
C2150 H2141 0.929 . S
C2150 C2142 1.378 . S
C2150 C2145 1.350 . S
C2151 H2138 0.929 . S
C2151 C2143 1.433 . S
C2151 N2153 1.384 . S
N2152 C2148 1.427 . S
N2152 C2149 1.384 . S
N2153 C2145 1.427 . S
N2153 C2151 1.384 . S
H2154 C2160 0.930 . S
H2155 C2164 0.930 . S
H2156 C2169 0.929 . S
H2157 C2167 0.929 1_565 S
H2158 C2162 0.929 . S
H2159 C2168 0.929 . S
C2160 H2154 0.930 . S
C2160 C2161 1.367 . S
C2160 C2168 1.378 . S
C2161 C2160 1.367 . S
C2161 C2169 1.433 . S
C2162 H2158 0.929 . S
C2162 C2164 1.378 . S
C2162 C2166 1.350 . S
C2163 C2166 1.463 . S
C2163 C2168 1.350 . S
C2163 N2171 1.427 . S
C2164 H2155 0.930 . S
C2164 C2162 1.378 . S
C2164 C2165 1.367 . S
C2165 C2164 1.367 . S
C2165 C2167 1.433 . S
C2166 C2162 1.350 . S
C2166 C2163 1.463 . S
C2166 N2170 1.427 . S
C2167 H2157 0.929 1_545 S
C2167 C2165 1.433 . S
C2167 N2170 1.384 . S
C2168 H2159 0.929 . S
C2168 C2160 1.378 . S
C2168 C2163 1.350 . S
C2169 H2156 0.929 . S
C2169 C2161 1.433 . S
C2169 N2171 1.384 . S
N2170 C2166 1.427 . S
N2170 C2167 1.384 . S
N2171 C2163 1.427 . S
N2171 C2169 1.384 . S
H2172 C2178 0.930 . S
H2173 C2182 0.930 . S
H2174 C2187 0.929 . S
H2175 C2185 0.929 . S
H2176 C2180 0.929 . S
H2177 C2186 0.929 . S
C2178 H2172 0.930 . S
C2178 C2179 1.367 . S
C2178 C2186 1.378 . S
C2179 C2178 1.367 . S
C2179 C2187 1.433 . S
C2180 H2176 0.929 . S
C2180 C2182 1.378 . S
C2180 C2184 1.350 . S
C2181 C2184 1.463 . S
C2181 C2186 1.350 . S
C2181 N2189 1.427 . S
C2182 H2173 0.930 . S
C2182 C2180 1.378 . S
C2182 C2183 1.367 . S
C2183 C2182 1.367 . S
C2183 C2185 1.433 . S
C2184 C2180 1.350 . S
C2184 C2181 1.463 . S
C2184 N2188 1.427 . S
C2185 H2175 0.929 . S
C2185 C2183 1.433 . S
C2185 N2188 1.384 . S
C2186 H2177 0.929 . S
C2186 C2178 1.378 . S
C2186 C2181 1.350 . S
C2187 H2174 0.929 . S
C2187 C2179 1.433 . S
C2187 N2189 1.384 . S
N2188 C2184 1.427 . S
N2188 C2185 1.384 . S
N2189 C2181 1.427 . S
N2189 C2187 1.384 . S
H2190 C2196 0.930 . S
H2191 C2200 0.930 . S
H2192 C2205 0.929 . S
H2193 C2203 0.929 . S
H2194 C2198 0.929 . S
H2195 C2204 0.929 . S
C2196 H2190 0.930 . S
C2196 C2197 1.367 . S
C2196 C2204 1.378 . S
C2197 C2196 1.367 . S
C2197 C2205 1.433 . S
C2198 H2194 0.929 . S
C2198 C2200 1.378 . S
C2198 C2202 1.350 . S
C2199 C2202 1.463 . S
C2199 C2204 1.350 . S
C2199 N2207 1.427 . S
C2200 H2191 0.930 . S
C2200 C2198 1.378 . S
C2200 C2201 1.367 . S
C2201 C2200 1.367 . S
C2201 C2203 1.433 . S
C2202 C2198 1.350 . S
C2202 C2199 1.463 . S
C2202 N2206 1.427 . S
C2203 H2193 0.929 . S
C2203 C2201 1.433 . S
C2203 N2206 1.384 . S
C2204 H2195 0.929 . S
C2204 C2196 1.378 . S
C2204 C2199 1.350 . S
C2205 H2192 0.929 . S
C2205 C2197 1.433 . S
C2205 N2207 1.384 . S
N2206 C2202 1.427 . S
N2206 C2203 1.384 . S
N2207 C2199 1.427 . S
N2207 C2205 1.384 . S
H2208 C2214 0.930 . S
H2209 C2218 0.930 . S
H2210 C2223 0.929 . S
H2211 C2221 0.929 . S
H2212 C2216 0.929 . S
H2213 C2222 0.929 . S
C2214 H2208 0.930 . S
C2214 C2215 1.367 . S
C2214 C2222 1.378 . S
C2215 C2214 1.367 . S
C2215 C2223 1.433 . S
C2216 H2212 0.929 . S
C2216 C2218 1.378 . S
C2216 C2220 1.350 . S
C2217 C2220 1.463 . S
C2217 C2222 1.350 . S
C2217 N2225 1.427 . S
C2218 H2209 0.930 . S
C2218 C2216 1.378 . S
C2218 C2219 1.367 . S
C2219 C2218 1.367 . S
C2219 C2221 1.433 . S
C2220 C2216 1.350 . S
C2220 C2217 1.463 . S
C2220 N2224 1.427 . S
C2221 H2211 0.929 . S
C2221 C2219 1.433 . S
C2221 N2224 1.384 . S
C2222 H2213 0.929 . S
C2222 C2214 1.378 . S
C2222 C2217 1.350 . S
C2223 H2210 0.929 . S
C2223 C2215 1.433 . S
C2223 N2225 1.384 . S
N2224 C2220 1.427 . S
N2224 C2221 1.384 . S
N2225 C2217 1.427 . S
N2225 C2223 1.384 . S
H2226 C2232 0.930 . S
H2227 C2236 0.930 . S
H2228 C2241 0.929 1_455 S
H2229 C2239 0.929 . S
H2230 C2234 0.960 . S
H2231 C2240 0.929 . S
C2232 H2226 0.930 . S
C2232 C2233 1.367 . S
C2232 C2240 1.378 . S
C2233 C2232 1.367 . S
C2233 C2241 1.433 . S
C2234 H2230 0.960 . S
C2234 C2236 1.382 . S
C2234 C2238 1.315 1_455 S
C2235 C2238 1.463 . S
C2235 C2240 1.350 . S
C2235 N2243 1.427 . S
C2236 H2227 0.930 . S
C2236 C2234 1.382 . S
C2236 C2237 1.367 1_455 S
C2237 C2236 1.367 1_655 S
C2237 C2239 1.433 . S
C2238 C2234 1.315 1_655 S
C2238 C2235 1.463 . S
C2238 N2242 1.427 . S
C2239 H2229 0.929 . S
C2239 C2237 1.433 . S
C2239 N2242 1.384 . S
C2240 H2231 0.929 . S
C2240 C2232 1.378 . S
C2240 C2235 1.350 . S
C2241 H2228 0.929 1_655 S
C2241 C2233 1.433 . S
C2241 N2243 1.384 . S
N2242 C2238 1.427 . S
N2242 C2239 1.384 . S
N2243 C2235 1.427 . S
N2243 C2241 1.384 . S
H2244 C2250 0.930 . S
H2245 C2254 0.930 . S
H2246 C2259 0.929 . S
H2247 C2257 0.929 . S
H2248 C2252 0.929 . S
H2249 C2258 0.929 . S
C2250 H2244 0.930 . S
C2250 C2251 1.367 . S
C2250 C2258 1.378 . S
C2251 C2250 1.367 . S
C2251 C2259 1.433 . S
C2252 H2248 0.929 . S
C2252 C2254 1.378 . S
C2252 C2256 1.350 . S
C2253 C2256 1.463 . S
C2253 C2258 1.350 . S
C2253 N2261 1.427 . S
C2254 H2245 0.930 . S
C2254 C2252 1.378 . S
C2254 C2255 1.367 . S
C2255 C2254 1.367 . S
C2255 C2257 1.433 . S
C2256 C2252 1.350 . S
C2256 C2253 1.463 . S
C2256 N2260 1.427 . S
C2257 H2247 0.929 . S
C2257 C2255 1.433 . S
C2257 N2260 1.384 . S
C2258 H2249 0.929 . S
C2258 C2250 1.378 . S
C2258 C2253 1.350 . S
C2259 H2246 0.929 . S
C2259 C2251 1.433 . S
C2259 N2261 1.384 . S
N2260 C2256 1.427 . S
N2260 C2257 1.384 . S
N2261 C2253 1.427 . S
N2261 C2259 1.384 . S
H2262 C2268 0.930 . S
H2263 C2272 0.930 . S
H2264 C2277 0.929 . S
H2265 C2275 0.929 . S
H2266 C2270 0.929 . S
H2267 C2276 0.929 . S
C2268 H2262 0.930 . S
C2268 C2269 1.367 . S
C2268 C2276 1.378 . S
C2269 C2268 1.367 . S
C2269 C2277 1.433 . S
C2270 H2266 0.929 . S
C2270 C2272 1.378 . S
C2270 C2274 1.350 . S
C2271 C2274 1.463 . S
C2271 C2276 1.350 . S
C2271 N2279 1.427 . S
C2272 H2263 0.930 . S
C2272 C2270 1.378 . S
C2272 C2273 1.367 . S
C2273 C2272 1.367 . S
C2273 C2275 1.433 . S
C2274 C2270 1.350 . S
C2274 C2271 1.463 . S
C2274 N2278 1.427 . S
C2275 H2265 0.929 . S
C2275 C2273 1.433 . S
C2275 N2278 1.384 . S
C2276 H2267 0.929 . S
C2276 C2268 1.378 . S
C2276 C2271 1.350 . S
C2277 H2264 0.929 . S
C2277 C2269 1.433 . S
C2277 N2279 1.384 . S
N2278 C2274 1.427 . S
N2278 C2275 1.384 . S
N2279 C2271 1.427 . S
N2279 C2277 1.384 . S
H2280 C2286 0.930 . S
H2281 C2290 0.930 . S
H2282 C2295 0.929 . S
H2283 C2293 0.929 . S
H2284 C2288 0.929 . S
H2285 C2294 0.929 . S
C2286 H2280 0.930 . S
C2286 C2287 1.367 . S
C2286 C2294 1.378 . S
C2287 C2286 1.367 . S
C2287 C2295 1.433 . S
C2288 H2284 0.929 . S
C2288 C2290 1.378 . S
C2288 C2292 1.350 . S
C2289 C2292 1.463 . S
C2289 C2294 1.350 . S
C2289 N2297 1.427 . S
C2290 H2281 0.930 . S
C2290 C2288 1.378 . S
C2290 C2291 1.367 . S
C2291 C2290 1.367 . S
C2291 C2293 1.433 . S
C2292 C2288 1.350 . S
C2292 C2289 1.463 . S
C2292 N2296 1.427 . S
C2293 H2283 0.929 . S
C2293 C2291 1.433 . S
C2293 N2296 1.384 . S
C2294 H2285 0.929 . S
C2294 C2286 1.378 . S
C2294 C2289 1.350 . S
C2295 H2282 0.929 . S
C2295 C2287 1.433 . S
C2295 N2297 1.384 . S
N2296 C2292 1.427 . S
N2296 C2293 1.384 . S
N2297 C2289 1.427 . S
N2297 C2295 1.384 . S
H2298 C2304 0.930 . S
H2299 C2308 0.930 . S
H2300 C2313 0.929 . S
H2301 C2311 0.929 . S
H2302 C2306 0.929 . S
H2303 C2312 0.929 . S
C2304 H2298 0.930 . S
C2304 C2305 1.367 . S
C2304 C2312 1.378 . S
C2305 C2304 1.367 . S
C2305 C2313 1.433 . S
C2306 H2302 0.929 . S
C2306 C2308 1.378 . S
C2306 C2310 1.350 . S
C2307 C2310 1.463 . S
C2307 C2312 1.350 . S
C2307 N2315 1.427 . S
C2308 H2299 0.930 . S
C2308 C2306 1.378 . S
C2308 C2309 1.367 . S
C2309 C2308 1.367 . S
C2309 C2311 1.433 . S
C2310 C2306 1.350 . S
C2310 C2307 1.463 . S
C2310 N2314 1.427 . S
C2311 H2301 0.929 . S
C2311 C2309 1.433 . S
C2311 N2314 1.384 . S
C2312 H2303 0.929 . S
C2312 C2304 1.378 . S
C2312 C2307 1.350 . S
C2313 H2300 0.929 . S
C2313 C2305 1.433 . S
C2313 N2315 1.384 . S
N2314 C2310 1.427 . S
N2314 C2311 1.384 . S
N2315 C2307 1.427 . S
N2315 C2313 1.384 . S
H2316 C2322 0.930 . S
H2317 C2326 0.930 . S
H2318 C2331 0.929 . S
H2319 C2329 0.929 . S
H2320 C2324 0.929 . S
H2321 C2330 0.929 . S
C2322 H2316 0.930 . S
C2322 C2323 1.367 . S
C2322 C2330 1.378 . S
C2323 C2322 1.367 . S
C2323 C2331 1.433 . S
C2324 H2320 0.929 . S
C2324 C2326 1.378 . S
C2324 C2328 1.350 . S
C2325 C2328 1.463 . S
C2325 C2330 1.350 . S
C2325 N2333 1.427 . S
C2326 H2317 0.930 . S
C2326 C2324 1.378 . S
C2326 C2327 1.367 . S
C2327 C2326 1.367 . S
C2327 C2329 1.433 . S
C2328 C2324 1.350 . S
C2328 C2325 1.463 . S
C2328 N2332 1.427 . S
C2329 H2319 0.929 . S
C2329 C2327 1.433 . S
C2329 N2332 1.384 . S
C2330 H2321 0.929 . S
C2330 C2322 1.378 . S
C2330 C2325 1.350 . S
C2331 H2318 0.929 . S
C2331 C2323 1.433 . S
C2331 N2333 1.384 . S
N2332 C2328 1.427 . S
N2332 C2329 1.384 . S
N2333 C2325 1.427 . S
N2333 C2331 1.384 . S
H2334 C2340 0.930 . S
H2335 C2344 0.930 . S
H2336 C2349 0.929 . S
H2337 C2347 0.929 . S
H2338 C2342 0.929 . S
H2339 C2348 0.929 . S
C2340 H2334 0.930 . S
C2340 C2341 1.367 . S
C2340 C2348 1.378 . S
C2341 C2340 1.367 . S
C2341 C2349 1.433 . S
C2342 H2338 0.929 . S
C2342 C2344 1.378 . S
C2342 C2346 1.350 . S
C2343 C2346 1.463 . S
C2343 C2348 1.350 . S
C2343 N2351 1.427 . S
C2344 H2335 0.930 . S
C2344 C2342 1.378 . S
C2344 C2345 1.367 . S
C2345 C2344 1.367 . S
C2345 C2347 1.433 . S
C2346 C2342 1.350 . S
C2346 C2343 1.463 . S
C2346 N2350 1.427 . S
C2347 H2337 0.929 . S
C2347 C2345 1.433 . S
C2347 N2350 1.384 . S
C2348 H2339 0.929 . S
C2348 C2340 1.378 . S
C2348 C2343 1.350 . S
C2349 H2336 0.929 . S
C2349 C2341 1.433 . S
C2349 N2351 1.384 . S
N2350 C2346 1.427 . S
N2350 C2347 1.384 . S
N2351 C2343 1.427 . S
N2351 C2349 1.384 . S
H2352 C2358 0.930 . S
H2353 C2362 0.930 . S
H2354 C2367 0.929 . S
H2355 C2365 0.929 . S
H2356 C2360 0.929 . S
H2357 C2366 0.929 . S
C2358 H2352 0.930 . S
C2358 C2359 1.367 . S
C2358 C2366 1.378 . S
C2359 C2358 1.367 . S
C2359 C2367 1.433 . S
C2360 H2356 0.929 . S
C2360 C2362 1.378 . S
C2360 C2364 1.350 . S
C2361 C2364 1.463 . S
C2361 C2366 1.350 . S
C2361 N2369 1.427 . S
C2362 H2353 0.930 . S
C2362 C2360 1.378 . S
C2362 C2363 1.367 . S
C2363 C2362 1.367 . S
C2363 C2365 1.433 . S
C2364 C2360 1.350 . S
C2364 C2361 1.463 . S
C2364 N2368 1.427 . S
C2365 H2355 0.929 . S
C2365 C2363 1.433 . S
C2365 N2368 1.384 . S
C2366 H2357 0.929 . S
C2366 C2358 1.378 . S
C2366 C2361 1.350 . S
C2367 H2354 0.929 . S
C2367 C2359 1.433 . S
C2367 N2369 1.384 . S
N2368 C2364 1.427 . S
N2368 C2365 1.384 . S
N2369 C2361 1.427 . S
N2369 C2367 1.384 . S
H2370 C2376 0.930 . S
H2371 C2380 0.930 . S
H2372 C2385 0.929 . S
H2373 C2383 0.929 . S
H2374 C2378 0.929 . S
H2375 C2384 0.929 . S
C2376 H2370 0.930 . S
C2376 C2377 1.367 . S
C2376 C2384 1.378 . S
C2377 C2376 1.367 . S
C2377 C2385 1.433 . S
C2378 H2374 0.929 . S
C2378 C2380 1.378 . S
C2378 C2382 1.350 . S
C2379 C2382 1.463 . S
C2379 C2384 1.350 . S
C2379 N2387 1.427 . S
C2380 H2371 0.930 . S
C2380 C2378 1.378 . S
C2380 C2381 1.367 . S
C2381 C2380 1.367 . S
C2381 C2383 1.433 . S
C2382 C2378 1.350 . S
C2382 C2379 1.463 . S
C2382 N2386 1.427 . S
C2383 H2373 0.929 . S
C2383 C2381 1.433 . S
C2383 N2386 1.384 . S
C2384 H2375 0.929 . S
C2384 C2376 1.378 . S
C2384 C2379 1.350 . S
C2385 H2372 0.929 . S
C2385 C2377 1.433 . S
C2385 N2387 1.384 . S
N2386 C2382 1.427 . S
N2386 C2383 1.384 . S
N2387 C2379 1.427 . S
N2387 C2385 1.384 . S
H2388 C2394 0.930 . S
H2389 C2398 0.930 . S
H2390 C2403 0.929 . S
H2391 C2401 0.929 . S
H2392 C2396 0.929 . S
H2393 C2402 0.929 . S
C2394 H2388 0.930 . S
C2394 C2395 1.367 . S
C2394 C2402 1.378 . S
C2395 C2394 1.367 . S
C2395 C2403 1.433 . S
C2396 H2392 0.929 . S
C2396 C2398 1.378 . S
C2396 C2400 1.350 . S
C2397 C2400 1.463 . S
C2397 C2402 1.350 . S
C2397 N2405 1.427 . S
C2398 H2389 0.930 . S
C2398 C2396 1.378 . S
C2398 C2399 1.367 . S
C2399 C2398 1.367 . S
C2399 C2401 1.433 . S
C2400 C2396 1.350 . S
C2400 C2397 1.463 . S
C2400 N2404 1.427 . S
C2401 H2391 0.929 . S
C2401 C2399 1.433 . S
C2401 N2404 1.384 . S
C2402 H2393 0.929 . S
C2402 C2394 1.378 . S
C2402 C2397 1.350 . S
C2403 H2390 0.929 . S
C2403 C2395 1.433 . S
C2403 N2405 1.384 . S
N2404 C2400 1.427 . S
N2404 C2401 1.384 . S
N2405 C2397 1.427 . S
N2405 C2403 1.384 . S
H2406 C2412 0.930 . S
H2407 C2416 0.930 . S
H2408 C2421 0.929 . S
H2409 C2419 0.929 . S
H2410 C2414 0.929 . S
H2411 C2420 0.929 . S
C2412 H2406 0.930 . S
C2412 C2413 1.367 . S
C2412 C2420 1.378 . S
C2413 C2412 1.367 . S
C2413 C2421 1.433 . S
C2414 H2410 0.929 . S
C2414 C2416 1.378 . S
C2414 C2418 1.350 . S
C2415 C2418 1.463 . S
C2415 C2420 1.350 . S
C2415 N2423 1.427 . S
C2416 H2407 0.930 . S
C2416 C2414 1.378 . S
C2416 C2417 1.367 . S
C2417 C2416 1.367 . S
C2417 C2419 1.433 . S
C2418 C2414 1.350 . S
C2418 C2415 1.463 . S
C2418 N2422 1.427 . S
C2419 H2409 0.929 . S
C2419 C2417 1.433 . S
C2419 N2422 1.384 . S
C2420 H2411 0.929 . S
C2420 C2412 1.378 . S
C2420 C2415 1.350 . S
C2421 H2408 0.929 . S
C2421 C2413 1.433 . S
C2421 N2423 1.384 . S
N2422 C2418 1.427 . S
N2422 C2419 1.384 . S
N2423 C2415 1.427 . S
N2423 C2421 1.384 . S
H2424 C2430 0.930 . S
H2425 C2434 0.930 1_554 S
H2426 C2439 0.929 . S
H2427 C2437 0.929 . S
H2428 C2432 0.929 1_554 S
H2429 C2438 0.929 . S
C2430 H2424 0.930 . S
C2430 C2431 1.367 . S
C2430 C2438 1.378 . S
C2431 C2430 1.367 . S
C2431 C2439 1.433 . S
C2432 H2428 0.929 1_556 S
C2432 C2434 1.378 . S
C2432 C2436 1.350 . S
C2433 C2436 1.463 . S
C2433 C2438 1.350 . S
C2433 N2441 1.427 . S
C2434 H2425 0.930 1_556 S
C2434 C2432 1.378 . S
C2434 C2435 1.367 . S
C2435 C2434 1.367 . S
C2435 C2437 1.433 . S
C2436 C2432 1.350 . S
C2436 C2433 1.463 . S
C2436 N2440 1.427 . S
C2437 H2427 0.929 . S
C2437 C2435 1.433 . S
C2437 N2440 1.384 . S
C2438 H2429 0.929 . S
C2438 C2430 1.378 . S
C2438 C2433 1.350 . S
C2439 H2426 0.929 . S
C2439 C2431 1.433 . S
C2439 N2441 1.384 . S
N2440 C2436 1.427 . S
N2440 C2437 1.384 . S
N2441 C2433 1.427 . S
N2441 C2439 1.384 . S
H2442 C2448 0.930 . S
H2443 C2452 0.930 . S
H2444 C2457 0.929 . S
H2445 C2455 0.929 . S
H2446 C2450 0.929 . S
H2447 C2456 0.929 . S
C2448 H2442 0.930 . S
C2448 C2449 1.367 . S
C2448 C2456 1.378 . S
C2449 C2448 1.367 . S
C2449 C2457 1.433 . S
C2450 H2446 0.929 . S
C2450 C2452 1.378 . S
C2450 C2454 1.350 . S
C2451 C2454 1.463 . S
C2451 C2456 1.350 . S
C2451 N2459 1.427 . S
C2452 H2443 0.930 . S
C2452 C2450 1.378 . S
C2452 C2453 1.367 . S
C2453 C2452 1.367 . S
C2453 C2455 1.433 . S
C2454 C2450 1.350 . S
C2454 C2451 1.463 . S
C2454 N2458 1.427 . S
C2455 H2445 0.929 . S
C2455 C2453 1.433 . S
C2455 N2458 1.384 . S
C2456 H2447 0.929 . S
C2456 C2448 1.378 . S
C2456 C2451 1.350 . S
C2457 H2444 0.929 . S
C2457 C2449 1.433 . S
C2457 N2459 1.384 . S
N2458 C2454 1.427 . S
N2458 C2455 1.384 . S
N2459 C2451 1.427 . S
N2459 C2457 1.384 . S
H2460 C2466 0.930 . S
H2461 C2470 0.930 . S
H2462 C2475 0.929 1_556 S
H2463 C2473 0.929 . S
H2464 C2468 0.980 . S
H2465 C2474 0.929 . S
C2466 H2460 0.930 . S
C2466 C2467 1.367 . S
C2466 C2474 1.378 . S
C2467 C2466 1.367 . S
C2467 C2475 1.433 . S
C2468 H2464 0.980 . S
C2468 C2470 1.385 . S
C2468 C2472 1.293 1_556 S
C2469 C2472 1.463 . S
C2469 C2474 1.350 . S
C2469 N2477 1.427 . S
C2470 H2461 0.930 . S
C2470 C2468 1.385 . S
C2470 C2471 1.367 1_556 S
C2471 C2470 1.367 1_554 S
C2471 C2473 1.433 . S
C2472 C2468 1.293 1_554 S
C2472 C2469 1.463 . S
C2472 N2476 1.427 . S
C2473 H2463 0.929 . S
C2473 C2471 1.433 . S
C2473 N2476 1.384 . S
C2474 H2465 0.929 . S
C2474 C2466 1.378 . S
C2474 C2469 1.350 . S
C2475 H2462 0.929 1_554 S
C2475 C2467 1.433 . S
C2475 N2477 1.384 . S
N2476 C2472 1.427 . S
N2476 C2473 1.384 . S
N2477 C2469 1.427 . S
N2477 C2475 1.384 . S
H2478 C2484 0.930 . S
H2479 C2488 0.930 1_556 S
H2480 C2493 0.929 . S
H2481 C2491 0.929 . S
H2482 C2486 0.929 1_556 S
H2483 C2492 0.929 . S
C2484 H2478 0.930 . S
C2484 C2485 1.367 . S
C2484 C2492 1.378 . S
C2485 C2484 1.367 . S
C2485 C2493 1.433 . S
C2486 H2482 0.929 1_554 S
C2486 C2488 1.378 . S
C2486 C2490 1.350 . S
C2487 C2490 1.463 . S
C2487 C2492 1.350 . S
C2487 N2495 1.427 . S
C2488 H2479 0.930 1_554 S
C2488 C2486 1.378 . S
C2488 C2489 1.367 . S
C2489 C2488 1.367 . S
C2489 C2491 1.433 . S
C2490 C2486 1.350 . S
C2490 C2487 1.463 . S
C2490 N2494 1.427 . S
C2491 H2481 0.929 . S
C2491 C2489 1.433 . S
C2491 N2494 1.384 . S
C2492 H2483 0.929 . S
C2492 C2484 1.378 . S
C2492 C2487 1.350 . S
C2493 H2480 0.929 . S
C2493 C2485 1.433 . S
C2493 N2495 1.384 . S
N2494 C2490 1.427 . S
N2494 C2491 1.384 . S
N2495 C2487 1.427 . S
N2495 C2493 1.384 . S
C1643 C625 1.498 . S
C1639 C181 1.490 . S
C1661 C684 1.518 . S
C1657 C247 1.520 . S
C1675 C283 1.504 . S
C1679 C801 1.521 . S
C1697 C869 1.519 . S
C1693 C169 1.505 . S
C1715 C948 1.512 . S
C1711 C361 1.504 . S
C1733 C1073 1.519 . S
C1729 C433 1.508 . S
C1747 C421 1.496 . S
C1751 C1133 1.507 . S
C1769 C1241 1.532 . S
C1765 C355 1.534 . S
C1783 C427 1.515 . S
C1787 C1337 1.524 . S
C1805 C1397 1.521 . S
C1801 C325 1.523 . S
C1819 C385 1.495 . S
C1823 C1300 1.508 . S
C1841 C1417 1.524 . S
C1837 C463 1.510 . S
C1855 C253 1.513 . S
C1859 C1485 1.522 . S
C1873 C145 1.511 . S
C1877 C1476 1.523 . S
C1891 C205 1.483 . S
C1895 C1505 1.491 . S
C1909 C217 1.512 . S
C1913 C1513 1.510 . S
C1927 C139 1.506 . S
C1931 C897 1.518 . S
C1945 C535 1.496 . S
C1949 C860 1.508 . S
C1967 C596 1.500 . S
C1963 C565 1.501 . S
C1985 C693 1.508 . S
C1981 C313 1.496 . S
C1999 C175 1.526 . S
C2003 C957 1.536 . S
C2021 C1249 1.505 . S
C2017 C397 1.489 . S
C2039 C977 1.520 . S
C2035 C349 1.518 . S
C2057 C1161 1.529 . S
C2053 C457 1.517 . S
C2075 C1153 1.498 . S
C2071 C505 1.490 . S
C2089 C571 1.519 . S
C2093 C1221 1.519 . S
C2107 C319 1.505 . S
C2111 C985 1.516 . S
C2129 C1036 1.519 . S
C2125 C493 1.505 . S
C2143 C109 1.505 . S
C2147 C781 1.507 . S
C2165 C889 1.521 . S
C2161 C1 1.514 . S
C2183 C605 1.507 . S
C2179 C61 1.496 . S
C2201 C721 1.532 . S
C2197 C103 1.533 . S
C2215 C67 1.516 . S
C2219 C1425 1.524 . S
C2233 C73 1.522 . S
C2237 C1309 1.522 . S
C2251 C133 1.496 . S
C2255 C1388 1.509 . S
C2269 C31 1.516 . S
C2273 C1329 1.526 . S
C2291 C1573 1.520 . S
C2287 C289 1.510 . S
C2309 C1564 1.523 . S
C2305 C469 1.511 . S
C2327 C1593 1.491 . S
C2323 C529 1.482 . S
C2341 C541 1.510 . S
C2345 C1601 1.510 . S
C2359 C391 1.513 . S
C2363 C1065 1.520 . S
C2381 C1045 1.510 . S
C2377 C211 1.502 . S
C2399 C1124 1.499 . S
C2395 C241 1.501 . S
C2417 C1212 1.510 . S
C2413 C277 1.507 . S
C2431 C499 1.525 . S
C2435 C772 1.536 . S
C2453 C713 1.505 . S
C2449 C37 1.494 . S
C2467 C97 1.519 . S
C2471 C809 1.519 . S
C2489 C633 1.530 . S
C2485 C25 1.518 . S
