# Generated by pormake.
# Topology hwx, (6,3)-cn, num edge types: 1
# Building blocks:
#     Node 0, Type 0, BuildingBlock: IZENUY_clean_sbu_0, # of connection points: 6
#     Node 1, Type 0, BuildingBlock: IZENUY_clean_sbu_0, # of connection points: 6
#     Node 2, Type 0, BuildingBlock: IZENUY_clean_sbu_0, # of connection points: 6
#     Node 3, Type 0, BuildingBlock: IZENUY_clean_sbu_0, # of connection points: 6
#     Node 4, Type 1, BuildingBlock: INOVEN_clean_linker_0, # of connection points: 3
#     Node 5, Type 1, BuildingBlock: INOVEN_clean_linker_0, # of connection points: 3
#     Node 6, Type 1, BuildingBlock: INOVEN_clean_linker_0, # of connection points: 3
#     Node 7, Type 1, BuildingBlock: INOVEN_clean_linker_0, # of connection points: 3
#     Node 8, Type 1, BuildingBlock: INOVEN_clean_linker_0, # of connection points: 3
#     Node 9, Type 1, BuildingBlock: INOVEN_clean_linker_0, # of connection points: 3
#     Node 10, Type 1, BuildingBlock: INOVEN_clean_linker_0, # of connection points: 3
#     Node 11, Type 1, BuildingBlock: INOVEN_clean_linker_0, # of connection points: 3
#     Edge 12, Type (0, 1), BuildingBlock: AJUNOK_clean_linker_0, # of connection points: 2
#     Edge 13, Type (0, 1), BuildingBlock: AJUNOK_clean_linker_0, # of connection points: 2
#     Edge 14, Type (0, 1), BuildingBlock: AJUNOK_clean_linker_0, # of connection points: 2
#     Edge 15, Type (0, 1), BuildingBlock: AJUNOK_clean_linker_0, # of connection points: 2
#     Edge 16, Type (0, 1), BuildingBlock: AJUNOK_clean_linker_0, # of connection points: 2
#     Edge 17, Type (0, 1), BuildingBlock: AJUNOK_clean_linker_0, # of connection points: 2
#     Edge 18, Type (0, 1), BuildingBlock: AJUNOK_clean_linker_0, # of connection points: 2
#     Edge 19, Type (0, 1), BuildingBlock: AJUNOK_clean_linker_0, # of connection points: 2
#     Edge 20, Type (0, 1), BuildingBlock: AJUNOK_clean_linker_0, # of connection points: 2
#     Edge 21, Type (0, 1), BuildingBlock: AJUNOK_clean_linker_0, # of connection points: 2
#     Edge 22, Type (0, 1), BuildingBlock: AJUNOK_clean_linker_0, # of connection points: 2
#     Edge 23, Type (0, 1), BuildingBlock: AJUNOK_clean_linker_0, # of connection points: 2
#     Edge 24, Type (0, 1), BuildingBlock: AJUNOK_clean_linker_0, # of connection points: 2
#     Edge 25, Type (0, 1), BuildingBlock: AJUNOK_clean_linker_0, # of connection points: 2
#     Edge 26, Type (0, 1), BuildingBlock: AJUNOK_clean_linker_0, # of connection points: 2
#     Edge 27, Type (0, 1), BuildingBlock: AJUNOK_clean_linker_0, # of connection points: 2
#     Edge 28, Type (0, 1), BuildingBlock: AJUNOK_clean_linker_0, # of connection points: 2
#     Edge 29, Type (0, 1), BuildingBlock: AJUNOK_clean_linker_0, # of connection points: 2
#     Edge 30, Type (0, 1), BuildingBlock: AJUNOK_clean_linker_0, # of connection points: 2
#     Edge 31, Type (0, 1), BuildingBlock: AJUNOK_clean_linker_0, # of connection points: 2
#     Edge 32, Type (0, 1), BuildingBlock: AJUNOK_clean_linker_0, # of connection points: 2
#     Edge 33, Type (0, 1), BuildingBlock: AJUNOK_clean_linker_0, # of connection points: 2
#     Edge 34, Type (0, 1), BuildingBlock: AJUNOK_clean_linker_0, # of connection points: 2
#     Edge 35, Type (0, 1), BuildingBlock: AJUNOK_clean_linker_0, # of connection points: 2
# Relax obj value: 0.005
# Max RMSD: 0.053
# Mean RMSD: 0.045
data_MOF--net-hwx--node1-IZENUY_clean_sbu_0--node2-INOVEN_clean_linker_0--edge1-AJUNOK_clean_linker_0
_symmetry_space_group_name_H-M    P1
_symmetry_Int_Tables_number       1
_symmetry_cell_setting            triclinic
loop_
_symmetry_equiv_pos_as_xyz
'x, y, z'
_cell_length_a     37.511291
_cell_length_b     37.506716
_cell_length_c     15.282224
_cell_angle_alpha  92.637191
_cell_angle_beta   92.651786
_cell_angle_gamma 90.152668
loop_
_atom_site_label
_atom_site_type_symbol
_atom_site_fract_x
_atom_site_fract_y
_atom_site_fract_z
_atom_type_partial_charge
Fe0 Fe 0.25509 0.2593 0.10375 0.0
Fe1 Fe 0.2573 0.26004 0.90401 0.0
O2 O 0.23934 0.24286 0.99851 0.0
Fe3 Fe 0.20576 0.20932 0.9881 0.0
O4 O 0.18297 0.22513 0.08639 0.0
O5 O 0.21092 0.27482 0.13008 0.0
O6 O 0.26453 0.30455 0.07017 0.0
C7 C 0.25164 0.32139 0.00631 0.0
C8 C 0.24534 0.18546 0.12697 0.0
O9 O 0.24324 0.30508 0.93428 0.0
C10 C 0.25289 0.18887 0.85484 0.0
O11 O 0.30026 0.2446 0.08389 0.0
O12 O 0.30216 0.26755 0.95458 0.0
O13 O 0.23317 0.17845 0.04989 0.0
O14 O 0.24821 0.21733 0.15716 0.0
C15 C 0.18364 0.25291 0.85762 0.0
O16 O 0.27247 0.21621 0.86722 0.0
O17 O 0.22259 0.18771 0.88803 0.0
C18 C 0.31776 0.25357 0.0197 0.0
O19 O 0.21575 0.25559 0.83668 0.0
O20 O 0.17576 0.23756 0.92582 0.0
C21 C 0.18366 0.25493 0.12911 0.0
Fe22 Fe 0.26599 0.76036 0.61082 0.0
Fe23 Fe 0.31511 0.70846 0.51167 0.0
O24 O 0.28204 0.7424 0.51096 0.0
Fe25 Fe 0.26498 0.75832 0.41021 0.0
O26 O 0.27961 0.80349 0.44006 0.0
O27 O 0.25895 0.80561 0.57229 0.0
O28 O 0.31041 0.77488 0.64915 0.0
C29 C 0.33714 0.75474 0.65692 0.0
C30 C 0.20357 0.75501 0.51017 0.0
O31 O 0.33752 0.72464 0.61567 0.0
C32 C 0.26866 0.68695 0.36636 0.0
O33 O 0.27009 0.71852 0.6673 0.0
O34 O 0.28658 0.67853 0.56746 0.0
O35 O 0.21997 0.76713 0.4474 0.0
O36 O 0.22039 0.74694 0.57977 0.0
C37 C 0.3387 0.75045 0.38441 0.0
O38 O 0.2987 0.68604 0.40778 0.0
O39 O 0.2492 0.7142 0.37332 0.0
C40 C 0.27183 0.68646 0.63826 0.0
O41 O 0.34605 0.73597 0.45589 0.0
O42 O 0.3068 0.75256 0.35457 0.0
C43 C 0.27118 0.82114 0.50812 0.0
Fe44 Fe 0.76648 0.77446 0.9219 0.0
Fe45 Fe 0.76569 0.77276 0.12202 0.0
O46 O 0.78249 0.79081 0.02696 0.0
Fe47 Fe 0.81534 0.82519 0.03658 0.0
O48 O 0.79972 0.84698 0.93674 0.0
O49 O 0.75052 0.81825 0.89363 0.0
O50 O 0.72126 0.76475 0.95463 0.0
C51 C 0.70412 0.77674 0.01881 0.0
C52 C 0.84038 0.78368 0.90144 0.0
O53 O 0.72018 0.78525 0.09112 0.0
C54 C 0.83664 0.77966 0.17248 0.0
O55 O 0.78147 0.7297 0.94294 0.0
O56 O 0.75952 0.72725 0.0732 0.0
O57 O 0.84696 0.79794 0.97685 0.0
O58 O 0.80871 0.78094 0.86966 0.0
C59 C 0.77091 0.84702 0.16546 0.0
O60 O 0.80998 0.7591 0.16016 0.0
O61 O 0.83688 0.80972 0.1381 0.0
C62 C 0.77266 0.71189 0.00652 0.0
O63 O 0.76882 0.81494 0.18745 0.0
O64 O 0.78618 0.8549 0.09703 0.0
C65 C 0.76996 0.84577 0.89399 0.0
Fe66 Fe 0.70686 0.32479 0.52065 0.0
Fe67 Fe 0.75774 0.27451 0.61847 0.0
O68 O 0.73988 0.29091 0.51899 0.0
Fe69 Fe 0.755 0.27339 0.41783 0.0
O70 O 0.7502 0.31548 0.3621 0.0
O71 O 0.73481 0.35497 0.46426 0.0
O72 O 0.72402 0.34677 0.62413 0.0
C73 C 0.75431 0.34572 0.6642 0.0
C74 C 0.68356 0.27888 0.3764 0.0
O75 O 0.77371 0.31848 0.65605 0.0
C76 C 0.75067 0.21211 0.51892 0.0
O77 O 0.67649 0.29704 0.57706 0.0
O78 O 0.71627 0.27988 0.67649 0.0
O79 O 0.71038 0.25875 0.38186 0.0
O80 O 0.68372 0.30898 0.41751 0.0
C81 C 0.81822 0.27819 0.51451 0.0
O82 O 0.74284 0.22948 0.58785 0.0
O83 O 0.7627 0.22801 0.45507 0.0
C84 C 0.68414 0.28282 0.64866 0.0
O85 O 0.80256 0.26605 0.57859 0.0
O86 O 0.80055 0.28697 0.44681 0.0
C87 C 0.74823 0.3475 0.39157 0.0
H88 H 0.24622 0.53687 0.83958 0.0
H89 H 0.24715 0.63553 0.99448 0.0
H90 H 0.24683 0.53595 0.12181 0.0
N91 N 0.24641 0.49397 0.97106 0.0
N92 N 0.24679 0.47506 0.03612 0.0
C93 C 0.24607 0.55113 0.90289 0.0
C94 C 0.24578 0.58856 0.90771 0.0
C95 C 0.24619 0.53186 0.97944 0.0
C96 C 0.2464 0.55042 0.06204 0.0
C97 C 0.24593 0.5879 0.06729 0.0
C98 C 0.24587 0.6066 0.99008 0.0
H99 H 0.99019 0.75533 0.69026 0.0
H100 H 0.89019 0.76129 0.54259 0.0
H101 H 0.98806 0.75388 0.40788 0.0
N102 N 0.03149 0.75304 0.55574 0.0
N103 N 0.04968 0.75302 0.48944 0.0
C104 C 0.97526 0.7559 0.62792 0.0
C105 C 0.93791 0.75808 0.62568 0.0
C106 C 0.9936 0.75444 0.54993 0.0
C107 C 0.97419 0.75507 0.46855 0.0
C108 C 0.93673 0.75714 0.46565 0.0
C109 C 0.919 0.75857 0.54443 0.0
H110 H 0.77423 0.49794 0.18672 0.0
H111 H 0.7741 0.39817 0.03589 0.0
H112 H 0.77765 0.49674 0.90501 0.0
N113 N 0.77591 0.53978 0.05308 0.0
N114 N 0.77963 0.55805 0.98786 0.0
C115 C 0.77487 0.48315 0.12421 0.0
C116 C 0.77437 0.44565 0.12098 0.0
C117 C 0.77626 0.50185 0.04691 0.0
C118 C 0.77713 0.48271 0.96536 0.0
C119 C 0.7771 0.44527 0.96167 0.0
C120 C 0.77564 0.4271 0.03941 0.0
H121 H 0.03415 0.28006 0.34042 0.0
H122 H 0.13287 0.27643 0.4936 0.0
H123 H 0.03343 0.28043 0.62251 0.0
N124 N 0.99145 0.2814 0.47195 0.0
N125 N 0.97229 0.27994 0.53628 0.0
C126 C 0.04847 0.27987 0.40365 0.0
C127 C 0.08587 0.27859 0.40816 0.0
C128 C 0.0293 0.28058 0.48034 0.0
C129 C 0.04789 0.2801 0.56274 0.0
C130 C 0.08539 0.27948 0.56777 0.0
C131 C 0.104 0.27853 0.49022 0.0
H132 H 0.74313 0.99539 0.68408 0.0
H133 H 0.74701 0.89714 0.52899 0.0
H134 H 0.74354 0.9971 0.40231 0.0
N135 N 0.74286 0.03855 0.55389 0.0
N136 N 0.74535 0.05806 0.49049 0.0
C137 C 0.74347 0.98124 0.62067 0.0
C138 C 0.74479 0.94383 0.61553 0.0
C139 C 0.74313 1.0007 0.54446 0.0
C140 C 0.74364 0.9824 0.46169 0.0
C141 C 0.74404 0.94488 0.45585 0.0
C142 C 0.74489 0.926 0.53303 0.0
H143 H 0.5339 0.2532 0.8497 0.0
H144 H 0.63219 0.25969 0.00608 0.0
H145 H 0.53251 0.25198 0.13133 0.0
N146 N 0.49096 0.25109 0.98022 0.0
N147 N 0.47163 0.24947 0.04425 0.0
C148 C 0.54813 0.25387 0.9131 0.0
C149 C 0.58552 0.25631 0.91848 0.0
C150 C 0.52878 0.25233 0.98929 0.0
C151 C 0.54714 0.25303 0.07201 0.0
C152 C 0.58457 0.25519 0.07797 0.0
C153 C 0.60337 0.25678 0.00115 0.0
H154 H 0.26411 0.03731 0.33797 0.0
H155 H 0.26797 0.13578 0.49335 0.0
H156 H 0.27794 0.03613 0.61967 0.0
N157 N 0.27269 0.99439 0.46827 0.0
N158 N 0.2752 0.97503 0.53247 0.0
C159 C 0.26734 0.05151 0.40125 0.0
C160 C 0.2651 0.08882 0.40685 0.0
C161 C 0.27216 0.03222 0.4774 0.0
C162 C 0.27506 0.05067 0.56014 0.0
C163 C 0.27411 0.08815 0.5657 0.0
C164 C 0.26946 0.10686 0.48891 0.0
H165 H 0.48859 0.77449 0.18247 0.0
H166 H 0.3898 0.77284 0.02819 0.0
H167 H 0.4892 0.77552 0.90029 0.0
N168 N 0.53133 0.77604 0.0512 0.0
N169 N 0.55033 0.77691 0.98648 0.0
C170 C 0.47428 0.77457 0.1192 0.0
C171 C 0.43688 0.77435 0.11454 0.0
C172 C 0.49345 0.77525 0.04263 0.0
C173 C 0.47479 0.77521 0.96007 0.0
C174 C 0.43728 0.77509 0.95505 0.0
C175 C 0.41872 0.77434 0.03233 0.0
C176 C 0.15932 0.29289 0.25154 0.0
C177 C 0.15517 0.26346 0.19117 0.0
C178 C 0.13565 0.29863 0.31896 0.0
C179 C 0.1067 0.27546 0.32818 0.0
H180 H 0.18183 0.31092 0.24916 0.0
H181 H 0.1407 0.32076 0.36607 0.0
S182 S 0.08192 0.19624 0.1842 0.0
N183 N 0.11805 0.21225 0.14203 0.0
N184 N 0.0739 0.22317 0.26945 0.0
C185 C 0.10102 0.2471 0.26595 0.0
C186 C 0.12516 0.24108 0.1973 0.0
C187 C 0.28141 0.62702 0.70368 0.0
C188 C 0.26088 0.65812 0.69539 0.0
C189 C 0.27496 0.60313 0.76936 0.0
C190 C 0.24761 0.60953 0.82809 0.0
H191 H 0.30392 0.62225 0.66285 0.0
H192 H 0.29278 0.58073 0.77747 0.0
S193 S 0.18212 0.68337 0.82211 0.0
N194 N 0.2093 0.69148 0.74335 0.0
N195 N 0.19673 0.64628 0.86533 0.0
C196 C 0.22512 0.63893 0.81544 0.0
C197 C 0.23188 0.66332 0.74945 0.0
C198 C 0.8605 0.74319 0.29557 0.0
C199 C 0.8654 0.77106 0.23855 0.0
C200 C 0.88485 0.73761 0.36592 0.0
C201 C 0.91526 0.75943 0.38184 0.0
H202 H 0.8369 0.72641 0.2883 0.0
H203 H 0.87918 0.71678 0.41019 0.0
S204 S 0.94281 0.83344 0.24683 0.0
N205 N 0.905 0.81867 0.19845 0.0
N206 N 0.95038 0.80826 0.33146 0.0
C207 C 0.92171 0.78595 0.32254 0.0
C208 C 0.89686 0.79177 0.25085 0.0
C209 C 0.74117 0.40347 0.74557 0.0
C210 C 0.76424 0.37427 0.73189 0.0
C211 C 0.74693 0.42804 0.81685 0.0
C212 C 0.77589 0.42428 0.87714 0.0
H213 H 0.71757 0.40663 0.70311 0.0
H214 H 0.72745 0.44888 0.82766 0.0
S215 S 0.84713 0.35622 0.86504 0.0
N216 N 0.81967 0.34582 0.78009 0.0
N217 N 0.82999 0.39189 0.91424 0.0
C218 C 0.80046 0.39683 0.86129 0.0
C219 C 0.7948 0.37189 0.78856 0.0
C220 C 0.65842 0.2408 0.24925 0.0
C221 C 0.65443 0.26989 0.30961 0.0
C222 C 0.63426 0.23489 0.17743 0.0
C223 C 0.60497 0.25756 0.16345 0.0
H224 H 0.68127 0.22333 0.25489 0.0
H225 H 0.63937 0.21324 0.13029 0.0
S226 S 0.57966 0.33475 0.30714 0.0
N227 N 0.6166 0.31953 0.35487 0.0
N228 N 0.57147 0.30834 0.21903 0.0
C229 C 0.59917 0.28521 0.22611 0.0
C230 C 0.62385 0.29141 0.29933 0.0
C231 C 0.24023 0.12995 0.77483 0.0
C232 C 0.26286 0.15991 0.79075 0.0
C233 C 0.24586 0.10481 0.7061 0.0
C234 C 0.2743 0.10869 0.65076 0.0
H235 H 0.21696 0.12664 0.81315 0.0
H236 H 0.22651 0.08353 0.69268 0.0
S237 S 0.34443 0.1787 0.67131 0.0
N238 N 0.31748 0.18924 0.75081 0.0
N239 N 0.32755 0.14207 0.62133 0.0
C240 C 0.29859 0.13685 0.66954 0.0
C241 C 0.29305 0.1624 0.73967 0.0
C242 C 0.39803 0.73959 0.3192 0.0
C243 C 0.36737 0.76077 0.32754 0.0
C244 C 0.42197 0.74547 0.2532 0.0
C245 C 0.41602 0.77284 0.19431 0.0
H246 H 0.40236 0.71704 0.36016 0.0
H247 H 0.44404 0.72722 0.24501 0.0
S248 S 0.34351 0.83972 0.2 0.0
N249 N 0.33497 0.81289 0.27918 0.0
N250 N 0.38027 0.82433 0.15679 0.0
C251 C 0.38713 0.79593 0.20702 0.0
C252 C 0.3627 0.78978 0.27324 0.0
C253 C 0.73216 0.86898 0.76968 0.0
C254 C 0.76085 0.87411 0.83187 0.0
C255 C 0.72603 0.89272 0.70253 0.0
C256 C 0.74809 0.92272 0.69526 0.0
H257 H 0.71508 0.84567 0.77045 0.0
H258 H 0.70452 0.88694 0.65414 0.0
S259 S 0.82454 0.9505 0.84562 0.0
N260 N 0.80974 0.91339 0.88563 0.0
N261 N 0.79827 0.95763 0.75859 0.0
C262 C 0.77555 0.92938 0.75957 0.0
C263 C 0.78191 0.90517 0.82801 0.0
C264 C 0.86369 0.7457 0.78018 0.0
C265 C 0.8695 0.77379 0.84341 0.0
C266 C 0.88743 0.73927 0.71354 0.0
C267 C 0.91778 0.76089 0.70698 0.0
H268 H 0.83982 0.72935 0.78021 0.0
H269 H 0.88114 0.71818 0.66435 0.0
S270 S 0.94656 0.83619 0.8601 0.0
N271 N 0.90915 0.82175 0.8995 0.0
N272 N 0.95364 0.81011 0.77259 0.0
C273 C 0.92514 0.7877 0.77284 0.0
C274 C 0.90099 0.79407 0.84151 0.0
C275 C 0.78585 0.37056 0.27689 0.0
C276 C 0.75785 0.37621 0.33386 0.0
C277 C 0.79252 0.39458 0.21218 0.0
C278 C 0.7711 0.42494 0.2009 0.0
H279 H 0.80213 0.3468 0.28072 0.0
H280 H 0.81377 0.38857 0.16822 0.0
S281 S 0.6954 0.45268 0.33604 0.0
N282 N 0.70981 0.41538 0.3786 0.0
N283 N 0.72164 0.46012 0.25488 0.0
C284 C 0.74408 0.43185 0.26024 0.0
C285 C 0.7376 0.40754 0.32717 0.0
C286 C 0.12396 0.2432 0.77915 0.0
C287 C 0.1552 0.26388 0.79452 0.0
C288 C 0.09979 0.24993 0.70887 0.0
C289 C 0.10602 0.27771 0.65258 0.0
H290 H 0.11929 0.2204 0.81817 0.0
H291 H 0.07733 0.23198 0.69534 0.0
S292 S 0.18007 0.34366 0.67595 0.0
N293 N 0.18844 0.31605 0.75538 0.0
N294 N 0.14277 0.32904 0.62467 0.0
C295 C 0.13552 0.30033 0.67213 0.0
C296 C 0.16019 0.2933 0.74274 0.0
C297 C 0.28295 0.62995 0.28249 0.0
C298 C 0.25909 0.65832 0.2984 0.0
C299 C 0.27723 0.60548 0.21086 0.0
C300 C 0.2475 0.6085 0.15248 0.0
H301 H 0.3071 0.62744 0.32335 0.0
H302 H 0.29724 0.58534 0.19826 0.0
S303 S 0.17426 0.67414 0.17076 0.0
N304 N 0.20225 0.68508 0.25428 0.0
N305 N 0.19203 0.63927 0.11961 0.0
C306 C 0.22226 0.63508 0.1706 0.0
C307 C 0.22788 0.6599 0.2436 0.0
C308 C 0.39442 0.73979 0.73902 0.0
C309 C 0.36595 0.76375 0.72496 0.0
C310 C 0.41921 0.74497 0.81023 0.0
C311 C 0.41644 0.77424 0.87011 0.0
H312 H 0.39681 0.71599 0.69687 0.0
H313 H 0.43942 0.72488 0.82132 0.0
S314 S 0.35047 0.84744 0.85746 0.0
N315 N 0.33923 0.82012 0.77283 0.0
N316 N 0.38564 0.82935 0.90663 0.0
C317 C 0.3897 0.79957 0.85396 0.0
C318 C 0.36456 0.79449 0.78139 0.0
C319 C 0.78032 0.90677 0.24387 0.0
C320 C 0.75968 0.87553 0.22813 0.0
C321 C 0.77356 0.93084 0.3144 0.0
C322 C 0.74578 0.92448 0.37061 0.0
H323 H 0.80317 0.9115 0.20507 0.0
H324 H 0.79152 0.95326 0.32824 0.0
S325 S 0.67989 0.85038 0.34621 0.0
N326 N 0.70753 0.84218 0.26679 0.0
N327 N 0.69444 0.88762 0.39788 0.0
C328 C 0.72317 0.895 0.35059 0.0
C329 C 0.73023 0.87044 0.27973 0.0
C330 C 0.66202 0.24611 0.7664 0.0
C331 C 0.65561 0.27314 0.70698 0.0
C332 C 0.63797 0.23937 0.83097 0.0
C333 C 0.60672 0.25966 0.83946 0.0
H334 H 0.68634 0.23062 0.76455 0.0
H335 H 0.64456 0.21891 0.87678 0.0
S336 S 0.57655 0.33228 0.69705 0.0
N337 N 0.61467 0.31892 0.65698 0.0
N338 N 0.56981 0.30687 0.78023 0.0
C339 C 0.59905 0.28561 0.77774 0.0
C340 C 0.62344 0.29223 0.71108 0.0
C341 C 0.27344 0.13072 0.18693 0.0
C342 C 0.247 0.15713 0.19002 0.0
C343 C 0.27822 0.10718 0.25553 0.0
C344 C 0.25661 0.10956 0.3285 0.0
H345 H 0.29151 0.12939 0.13359 0.0
H346 H 0.29995 0.08824 0.25356 0.0
S347 S 0.18028 0.17088 0.35952 0.0
N348 N 0.19685 0.18211 0.26639 0.0
N349 N 0.20521 0.13763 0.39401 0.0
C350 C 0.22863 0.13441 0.32881 0.0
C351 C 0.22401 0.15833 0.25982 0.0
C352 C 0.24694 0.38114 0.93873 0.0
C353 C 0.2495 0.36094 0.01429 0.0
C354 C 0.24596 0.4186 0.94516 0.0
C355 C 0.24717 0.43715 0.0276 0.0
H356 H 0.24621 0.36799 0.87404 0.0
H357 H 0.24438 0.433 0.88533 0.0
S358 S 0.2514 0.39745 0.24475 0.0
N359 N 0.25155 0.36279 0.17412 0.0
N360 N 0.24958 0.43308 0.18509 0.0
C361 C 0.24895 0.41745 0.10306 0.0
C362 C 0.25015 0.37941 0.09685 0.0
C363 C 0.1445 0.75047 0.58038 0.0
C364 C 0.16392 0.75327 0.50415 0.0
C365 C 0.107 0.75012 0.57623 0.0
C366 C 0.08762 0.75223 0.4954 0.0
H367 H 0.15829 0.74912 0.64399 0.0
H368 H 0.09323 0.74842 0.63663 0.0
S369 S 0.12493 0.75754 0.27673 0.0
N370 N 0.16032 0.75658 0.34499 0.0
N371 N 0.09 0.75573 0.33833 0.0
C372 C 0.1065 0.75416 0.41909 0.0
C373 C 0.14457 0.75474 0.42301 0.0
C374 C 0.76831 0.65249 0.07463 0.0
C375 C 0.77525 0.67225 0.00087 0.0
C376 C 0.77 0.61508 0.07122 0.0
C377 C 0.7786 0.59598 0.99361 0.0
H378 H 0.76147 0.66596 0.13576 0.0
H379 H 0.76428 0.60114 0.12947 0.0
S380 S 0.79947 0.63401 0.78286 0.0
N381 N 0.79153 0.66917 0.84799 0.0
N382 N 0.79432 0.5989 0.84251 0.0
C383 C 0.78573 0.61513 0.91997 0.0
C384 C 0.78422 0.6532 0.92323 0.0
C385 C 0.87742 0.27342 0.59621 0.0
C386 C 0.85793 0.27966 0.51734 0.0
C387 C 0.91483 0.27404 0.601 0.0
C388 C 0.93433 0.28065 0.52741 0.0
H389 H 0.86374 0.26798 0.65508 0.0
H390 H 0.92878 0.26894 0.66279 0.0
S391 S 0.89656 0.30008 0.30553 0.0
N392 N 0.86135 0.29382 0.36393 0.0
N393 N 0.93156 0.29476 0.3731 0.0
C394 C 0.9154 0.28744 0.44806 0.0
C395 C 0.87723 0.28702 0.44316 0.0
C396 C 0.75489 0.15325 0.43518 0.0
C397 C 0.74824 0.17241 0.51428 0.0
C398 C 0.75335 0.11586 0.42873 0.0
C399 C 0.74539 0.09601 0.50082 0.0
H400 H 0.76141 0.16718 0.37743 0.0
H401 H 0.75884 0.10219 0.36685 0.0
S402 S 0.72433 0.13282 0.72246 0.0
N403 N 0.73219 0.16829 0.66617 0.0
N404 N 0.72955 0.09813 0.65391 0.0
C405 C 0.73817 0.11461 0.58034 0.0
C406 C 0.73953 0.15277 0.58693 0.0
C407 C 0.37635 0.24762 0.10438 0.0
C408 C 0.35733 0.25109 0.02361 0.0
C409 C 0.41381 0.24682 0.10949 0.0
C410 C 0.43367 0.24911 0.03436 0.0
H411 H 0.36228 0.2462 0.16446 0.0
H412 H 0.42751 0.24472 0.17299 0.0
S413 S 0.39675 0.25605 0.80577 0.0
N414 N 0.36135 0.25515 0.8658 0.0
N415 N 0.43147 0.25351 0.87548 0.0
C416 C 0.41504 0.25173 0.95263 0.0
C417 C 0.37695 0.25273 0.94741 0.0
C418 C 0.27434 0.87988 0.59288 0.0
C419 C 0.27315 0.86073 0.51131 0.0
C420 C 0.27549 0.9173 0.59819 0.0
C421 C 0.2752 0.93707 0.52254 0.0
H422 H 0.27449 0.86588 0.65335 0.0
H423 H 0.27627 0.93104 0.66217 0.0
S424 S 0.27193 0.89995 0.29243 0.0
N425 N 0.27165 0.86455 0.35265 0.0
N426 N 0.27376 0.93475 0.36264 0.0
C427 C 0.27421 0.91837 0.44018 0.0
C428 C 0.27324 0.88022 0.43473 0.0
C429 C 0.64408 0.77921 0.08552 0.0
C430 C 0.66451 0.77785 0.01034 0.0
C431 C 0.60659 0.77897 0.07842 0.0
C432 C 0.58824 0.7777 0.99567 0.0
H433 H 0.65707 0.7799 0.15038 0.0
H434 H 0.59202 0.77965 0.13798 0.0
S435 S 0.62852 0.7764 0.77938 0.0
N436 N 0.66303 0.77691 0.85056 0.0
N437 N 0.59273 0.77659 0.83838 0.0
C438 C 0.60816 0.77716 0.92063 0.0
C439 C 0.64622 0.7772 0.9275 0.0
loop_
_geom_bond_atom_site_label_1
_geom_bond_atom_site_label_2
_geom_bond_distance
_geom_bond_site_symmetry_2
_ccdc_geom_bond_type
Fe0 O2 1.918 . S
Fe0 O5 1.997 . S
Fe0 O6 2.002 . S
Fe0 O11 1.976 . S
Fe0 O14 1.996 . S
Fe1 O2 1.918 1_556 S
Fe1 O9 1.997 . S
Fe1 O12 1.996 . S
Fe1 O16 1.976 . S
Fe1 O19 2.002 . S
O2 Fe0 1.918 . S
O2 Fe1 1.918 1_554 S
O2 Fe3 1.918 1_554 S
Fe3 O2 1.918 1_556 S
Fe3 O4 1.999 1_556 S
Fe3 O13 1.972 1_556 S
Fe3 O17 2.000 . S
Fe3 O20 2.000 . S
O4 Fe3 1.999 1_554 S
O4 C21 1.295 . S
O5 Fe0 1.997 . S
O5 C21 1.235 . S
O6 Fe0 2.002 . S
O6 C7 1.295 . S
C7 O6 1.295 . S
C7 O9 1.235 1_554 S
C8 O13 1.287 . S
C8 O14 1.255 . S
O9 Fe1 1.997 . S
O9 C7 1.235 1_556 S
C10 O16 1.287 . S
C10 O17 1.255 . S
O11 Fe0 1.976 . S
O11 C18 1.287 . S
O12 Fe1 1.996 . S
O12 C18 1.255 1_556 S
O13 Fe3 1.972 1_554 S
O13 C8 1.287 . S
O14 Fe0 1.996 . S
O14 C8 1.255 . S
C15 O19 1.295 . S
C15 O20 1.235 . S
O16 Fe1 1.976 . S
O16 C10 1.287 . S
O17 Fe3 2.000 . S
O17 C10 1.255 . S
C18 O11 1.287 . S
C18 O12 1.255 1_554 S
O19 Fe1 2.002 . S
O19 C15 1.295 . S
O20 Fe3 2.000 . S
O20 C15 1.235 . S
C21 O4 1.295 . S
C21 O5 1.235 . S
Fe22 O24 1.918 . S
Fe22 O27 1.997 . S
Fe22 O28 2.002 . S
Fe22 O33 1.976 . S
Fe22 O36 1.996 . S
Fe23 O24 1.918 . S
Fe23 O31 1.997 . S
Fe23 O34 1.996 . S
Fe23 O38 1.976 . S
Fe23 O41 2.002 . S
O24 Fe22 1.918 . S
O24 Fe23 1.918 . S
O24 Fe25 1.918 . S
Fe25 O24 1.918 . S
Fe25 O26 2.002 . S
Fe25 O35 1.976 . S
Fe25 O39 1.996 . S
Fe25 O42 1.997 . S
O26 Fe25 2.002 . S
O26 C43 1.295 . S
O27 Fe22 1.997 . S
O27 C43 1.235 . S
O28 Fe22 2.002 . S
O28 C29 1.295 . S
C29 O28 1.295 . S
C29 O31 1.235 . S
C30 O35 1.287 . S
C30 O36 1.255 . S
O31 Fe23 1.997 . S
O31 C29 1.235 . S
C32 O38 1.287 . S
C32 O39 1.255 . S
O33 Fe22 1.976 . S
O33 C40 1.287 . S
O34 Fe23 1.996 . S
O34 C40 1.255 . S
O35 Fe25 1.976 . S
O35 C30 1.287 . S
O36 Fe22 1.996 . S
O36 C30 1.255 . S
C37 O41 1.295 . S
C37 O42 1.235 . S
O38 Fe23 1.976 . S
O38 C32 1.287 . S
O39 Fe25 1.996 . S
O39 C32 1.255 . S
C40 O33 1.287 . S
C40 O34 1.255 . S
O41 Fe23 2.002 . S
O41 C37 1.295 . S
O42 Fe25 1.997 . S
O42 C37 1.235 . S
C43 O26 1.295 . S
C43 O27 1.235 . S
Fe44 O46 1.918 1_556 S
Fe44 O49 1.997 . S
Fe44 O50 2.002 . S
Fe44 O55 1.976 . S
Fe44 O58 1.996 . S
Fe45 O46 1.918 . S
Fe45 O53 1.997 . S
Fe45 O56 1.996 . S
Fe45 O60 1.976 . S
Fe45 O63 2.002 . S
O46 Fe44 1.918 1_554 S
O46 Fe45 1.918 . S
O46 Fe47 1.918 . S
Fe47 O46 1.918 . S
Fe47 O48 2.002 1_554 S
Fe47 O57 1.976 1_554 S
Fe47 O61 1.996 . S
Fe47 O64 1.997 . S
O48 Fe47 2.002 1_556 S
O48 C65 1.295 . S
O49 Fe44 1.997 . S
O49 C65 1.235 . S
O50 Fe44 2.002 . S
O50 C51 1.295 1_556 S
C51 O50 1.295 1_554 S
C51 O53 1.235 . S
C52 O57 1.287 . S
C52 O58 1.255 . S
O53 Fe45 1.997 . S
O53 C51 1.235 . S
C54 O60 1.287 . S
C54 O61 1.255 . S
O55 Fe44 1.976 . S
O55 C62 1.287 1_556 S
O56 Fe45 1.996 . S
O56 C62 1.255 . S
O57 Fe47 1.976 1_556 S
O57 C52 1.287 . S
O58 Fe44 1.996 . S
O58 C52 1.255 . S
C59 O63 1.295 . S
C59 O64 1.235 . S
O60 Fe45 1.976 . S
O60 C54 1.287 . S
O61 Fe47 1.996 . S
O61 C54 1.255 . S
C62 O55 1.287 1_554 S
C62 O56 1.255 . S
O63 Fe45 2.002 . S
O63 C59 1.295 . S
O64 Fe47 1.997 . S
O64 C59 1.235 . S
C65 O48 1.295 . S
C65 O49 1.235 . S
Fe66 O68 1.918 . S
Fe66 O71 1.997 . S
Fe66 O72 2.002 . S
Fe66 O77 1.976 . S
Fe66 O80 1.996 . S
Fe67 O68 1.918 . S
Fe67 O75 1.997 . S
Fe67 O78 1.996 . S
Fe67 O82 1.976 . S
Fe67 O85 2.002 . S
O68 Fe66 1.918 . S
O68 Fe67 1.918 . S
O68 Fe69 1.918 . S
Fe69 O68 1.918 . S
Fe69 O70 2.002 . S
Fe69 O79 1.976 . S
Fe69 O83 1.996 . S
Fe69 O86 1.997 . S
O70 Fe69 2.002 . S
O70 C87 1.295 . S
O71 Fe66 1.997 . S
O71 C87 1.235 . S
O72 Fe66 2.002 . S
O72 C73 1.295 . S
C73 O72 1.295 . S
C73 O75 1.235 . S
C74 O79 1.287 . S
C74 O80 1.255 . S
O75 Fe67 1.997 . S
O75 C73 1.235 . S
C76 O82 1.287 . S
C76 O83 1.255 . S
O77 Fe66 1.976 . S
O77 C84 1.287 . S
O78 Fe67 1.996 . S
O78 C84 1.255 . S
O79 Fe69 1.976 . S
O79 C74 1.287 . S
O80 Fe66 1.996 . S
O80 C74 1.255 . S
C81 O85 1.295 . S
C81 O86 1.235 . S
O82 Fe67 1.976 . S
O82 C76 1.287 . S
O83 Fe69 1.996 . S
O83 C76 1.255 . S
C84 O77 1.287 . S
C84 O78 1.255 . S
O85 Fe67 2.002 . S
O85 C81 1.295 . S
O86 Fe69 1.997 . S
O86 C81 1.235 . S
C87 O70 1.295 . S
C87 O71 1.235 . S
H88 C93 0.929 . S
H89 C98 0.931 . S
H90 C96 0.930 . S
N91 N92 1.234 1_556 S
N91 C95 1.453 . S
N92 N91 1.234 1_554 S
C93 H88 0.929 . S
C93 C94 1.373 . S
C93 C95 1.368 . S
C94 C93 1.373 . S
C94 C98 1.397 1_556 S
C95 N91 1.453 . S
C95 C93 1.368 . S
C95 C96 1.373 1_556 S
C96 H90 0.930 . S
C96 C95 1.373 1_554 S
C96 C97 1.371 . S
C97 C96 1.371 . S
C97 C98 1.383 . S
C98 H89 0.931 . S
C98 C94 1.397 1_554 S
C98 C97 1.383 . S
H99 C104 0.929 . S
H100 C109 0.931 . S
H101 C107 0.922 1_455 S
N102 N103 1.234 . S
N102 C106 1.453 . S
N103 N102 1.234 . S
C104 H99 0.929 . S
C104 C105 1.373 . S
C104 C106 1.368 1_655 S
C105 C104 1.373 . S
C105 C109 1.397 . S
C106 N102 1.453 . S
C106 C104 1.368 1_455 S
C106 C107 1.373 1_455 S
C107 H101 0.922 1_655 S
C107 C106 1.373 1_655 S
C107 C108 1.371 . S
C108 C107 1.371 . S
C108 C109 1.383 . S
C109 H100 0.931 . S
C109 C105 1.397 . S
C109 C108 1.383 . S
H110 C115 0.929 . S
H111 C120 0.931 . S
H112 C118 0.930 . S
N113 N114 1.234 . S
N113 C117 1.453 . S
N114 N113 1.234 . S
C115 H110 0.929 . S
C115 C116 1.373 . S
C115 C117 1.368 . S
C116 C115 1.373 . S
C116 C120 1.397 . S
C117 N113 1.453 . S
C117 C115 1.368 . S
C117 C118 1.373 1_554 S
C118 H112 0.930 . S
C118 C117 1.373 1_556 S
C118 C119 1.371 . S
C119 C118 1.371 . S
C119 C120 1.383 1_556 S
C120 H111 0.931 . S
C120 C116 1.397 . S
C120 C119 1.383 1_554 S
H121 C126 0.929 . S
H122 C131 0.931 . S
H123 C129 0.912 1_655 S
N124 N125 1.234 . S
N124 C128 1.453 . S
N125 N124 1.234 . S
C126 H121 0.929 . S
C126 C127 1.373 . S
C126 C128 1.368 1_455 S
C127 C126 1.373 . S
C127 C131 1.397 . S
C128 N124 1.453 . S
C128 C126 1.368 1_655 S
C128 C129 1.373 1_655 S
C129 H123 0.912 1_455 S
C129 C128 1.373 1_455 S
C129 C130 1.371 . S
C130 C129 1.371 . S
C130 C131 1.383 . S
C131 H122 0.931 . S
C131 C127 1.397 . S
C131 C130 1.383 . S
H132 C137 0.929 . S
H133 C142 0.931 . S
H134 C140 0.930 1_545 S
N135 N136 1.234 . S
N135 C139 1.453 . S
N136 N135 1.234 . S
C137 H132 0.929 . S
C137 C138 1.373 . S
C137 C139 1.368 1_565 S
C138 C137 1.373 . S
C138 C142 1.397 . S
C139 N135 1.453 . S
C139 C137 1.368 1_545 S
C139 C140 1.373 1_545 S
C140 H134 0.930 1_565 S
C140 C139 1.373 1_565 S
C140 C141 1.371 . S
C141 C140 1.371 . S
C141 C142 1.383 . S
C142 H133 0.931 . S
C142 C138 1.397 . S
C142 C141 1.383 . S
H143 C148 0.929 . S
H144 C153 0.931 . S
H145 C151 0.930 . S
N146 N147 1.234 1_556 S
N146 C150 1.453 . S
N147 N146 1.234 1_554 S
C148 H143 0.929 . S
C148 C149 1.373 . S
C148 C150 1.368 . S
C149 C148 1.373 . S
C149 C153 1.397 1_556 S
C150 N146 1.453 . S
C150 C148 1.368 . S
C150 C151 1.373 1_556 S
C151 H145 0.930 . S
C151 C150 1.373 1_554 S
C151 C152 1.371 . S
C152 C151 1.371 . S
C152 C153 1.383 . S
C153 H144 0.931 . S
C153 C149 1.397 1_554 S
C153 C152 1.383 . S
H154 C159 0.929 . S
H155 C164 0.931 . S
H156 C162 0.930 1_565 S
N157 N158 1.234 . S
N157 C161 1.453 . S
N158 N157 1.234 . S
C159 H154 0.929 . S
C159 C160 1.373 . S
C159 C161 1.368 1_545 S
C160 C159 1.373 . S
C160 C164 1.397 . S
C161 N157 1.453 . S
C161 C159 1.368 1_565 S
C161 C162 1.373 1_565 S
C162 H156 0.930 1_545 S
C162 C161 1.373 1_545 S
C162 C163 1.371 . S
C163 C162 1.371 . S
C163 C164 1.383 . S
C164 H155 0.931 . S
C164 C160 1.397 . S
C164 C163 1.383 . S
H165 C170 0.929 . S
H166 C175 0.931 . S
H167 C173 0.930 . S
N168 N169 1.234 1_554 S
N168 C172 1.453 . S
N169 N168 1.234 1_556 S
C170 H165 0.929 . S
C170 C171 1.373 . S
C170 C172 1.368 . S
C171 C170 1.373 . S
C171 C175 1.397 . S
C172 N168 1.453 . S
C172 C170 1.368 . S
C172 C173 1.373 1_554 S
C173 H167 0.930 . S
C173 C172 1.373 1_556 S
C173 C174 1.371 . S
C174 C173 1.371 . S
C174 C175 1.383 1_556 S
C175 H166 0.931 . S
C175 C171 1.397 . S
C175 C174 1.383 1_554 S
C176 C177 1.369 . S
C176 C178 1.419 . S
C176 H180 0.930 . S
C177 C176 1.369 . S
C177 C186 1.429 . S
C178 C176 1.419 . S
C178 C179 1.363 . S
C178 H181 0.929 . S
C179 C178 1.363 . S
C179 C185 1.428 . S
H180 C176 0.930 . S
H181 C178 0.929 . S
S182 N183 1.613 . S
S182 N184 1.610 . S
N183 S182 1.613 . S
N183 C186 1.350 . S
N184 S182 1.610 . S
N184 C185 1.351 . S
C185 C179 1.428 . S
C185 N184 1.351 . S
C185 C186 1.434 . S
C186 C177 1.429 . S
C186 N183 1.350 . S
C186 C185 1.434 . S
C187 C188 1.369 . S
C187 C189 1.419 . S
C187 H191 0.930 . S
C188 C187 1.369 . S
C188 C197 1.429 . S
C189 C187 1.419 . S
C189 C190 1.363 . S
C189 H192 0.929 . S
C190 C189 1.363 . S
C190 C196 1.428 . S
H191 C187 0.930 . S
H192 C189 0.929 . S
S193 N194 1.613 . S
S193 N195 1.610 . S
N194 S193 1.613 . S
N194 C197 1.350 . S
N195 S193 1.610 . S
N195 C196 1.351 . S
C196 C190 1.428 . S
C196 N195 1.351 . S
C196 C197 1.434 . S
C197 C188 1.429 . S
C197 N194 1.350 . S
C197 C196 1.434 . S
C198 C199 1.369 . S
C198 C200 1.419 . S
C198 H202 0.930 . S
C199 C198 1.369 . S
C199 C208 1.429 . S
C200 C198 1.419 . S
C200 C201 1.363 . S
C200 H203 0.929 . S
C201 C200 1.363 . S
C201 C207 1.428 . S
H202 C198 0.930 . S
H203 C200 0.929 . S
S204 N205 1.613 . S
S204 N206 1.610 . S
N205 S204 1.613 . S
N205 C208 1.350 . S
N206 S204 1.610 . S
N206 C207 1.351 . S
C207 C201 1.428 . S
C207 N206 1.351 . S
C207 C208 1.434 . S
C208 C199 1.429 . S
C208 N205 1.350 . S
C208 C207 1.434 . S
C209 C210 1.369 . S
C209 C211 1.419 . S
C209 H213 0.930 . S
C210 C209 1.369 . S
C210 C219 1.429 . S
C211 C209 1.419 . S
C211 C212 1.363 . S
C211 H214 0.929 . S
C212 C211 1.363 . S
C212 C218 1.428 . S
H213 C209 0.930 . S
H214 C211 0.929 . S
S215 N216 1.613 . S
S215 N217 1.610 . S
N216 S215 1.613 . S
N216 C219 1.350 . S
N217 S215 1.610 . S
N217 C218 1.351 . S
C218 C212 1.428 . S
C218 N217 1.351 . S
C218 C219 1.434 . S
C219 C210 1.429 . S
C219 N216 1.350 . S
C219 C218 1.434 . S
C220 C221 1.369 . S
C220 C222 1.419 . S
C220 H224 0.930 . S
C221 C220 1.369 . S
C221 C230 1.429 . S
C222 C220 1.419 . S
C222 C223 1.363 . S
C222 H225 0.929 . S
C223 C222 1.363 . S
C223 C229 1.428 . S
H224 C220 0.930 . S
H225 C222 0.929 . S
S226 N227 1.613 . S
S226 N228 1.610 . S
N227 S226 1.613 . S
N227 C230 1.350 . S
N228 S226 1.610 . S
N228 C229 1.351 . S
C229 C223 1.428 . S
C229 N228 1.351 . S
C229 C230 1.434 . S
C230 C221 1.429 . S
C230 N227 1.350 . S
C230 C229 1.434 . S
C231 C232 1.369 . S
C231 C233 1.419 . S
C231 H235 0.930 . S
C232 C231 1.369 . S
C232 C241 1.429 . S
C233 C231 1.419 . S
C233 C234 1.363 . S
C233 H236 0.929 . S
C234 C233 1.363 . S
C234 C240 1.428 . S
H235 C231 0.930 . S
H236 C233 0.929 . S
S237 N238 1.613 . S
S237 N239 1.610 . S
N238 S237 1.613 . S
N238 C241 1.350 . S
N239 S237 1.610 . S
N239 C240 1.351 . S
C240 C234 1.428 . S
C240 N239 1.351 . S
C240 C241 1.434 . S
C241 C232 1.429 . S
C241 N238 1.350 . S
C241 C240 1.434 . S
C242 C243 1.369 . S
C242 C244 1.419 . S
C242 H246 0.930 . S
C243 C242 1.369 . S
C243 C252 1.429 . S
C244 C242 1.419 . S
C244 C245 1.363 . S
C244 H247 0.929 . S
C245 C244 1.363 . S
C245 C251 1.428 . S
H246 C242 0.930 . S
H247 C244 0.929 . S
S248 N249 1.613 . S
S248 N250 1.610 . S
N249 S248 1.613 . S
N249 C252 1.350 . S
N250 S248 1.610 . S
N250 C251 1.351 . S
C251 C245 1.428 . S
C251 N250 1.351 . S
C251 C252 1.434 . S
C252 C243 1.429 . S
C252 N249 1.350 . S
C252 C251 1.434 . S
C253 C254 1.369 . S
C253 C255 1.419 . S
C253 H257 0.930 . S
C254 C253 1.369 . S
C254 C263 1.429 . S
C255 C253 1.419 . S
C255 C256 1.363 . S
C255 H258 0.929 . S
C256 C255 1.363 . S
C256 C262 1.428 . S
H257 C253 0.930 . S
H258 C255 0.929 . S
S259 N260 1.613 . S
S259 N261 1.610 . S
N260 S259 1.613 . S
N260 C263 1.350 . S
N261 S259 1.610 . S
N261 C262 1.351 . S
C262 C256 1.428 . S
C262 N261 1.351 . S
C262 C263 1.434 . S
C263 C254 1.429 . S
C263 N260 1.350 . S
C263 C262 1.434 . S
C264 C265 1.369 . S
C264 C266 1.419 . S
C264 H268 0.930 . S
C265 C264 1.369 . S
C265 C274 1.429 . S
C266 C264 1.419 . S
C266 C267 1.363 . S
C266 H269 0.929 . S
C267 C266 1.363 . S
C267 C273 1.428 . S
H268 C264 0.930 . S
H269 C266 0.929 . S
S270 N271 1.613 . S
S270 N272 1.610 . S
N271 S270 1.613 . S
N271 C274 1.350 . S
N272 S270 1.610 . S
N272 C273 1.351 . S
C273 C267 1.428 . S
C273 N272 1.351 . S
C273 C274 1.434 . S
C274 C265 1.429 . S
C274 N271 1.350 . S
C274 C273 1.434 . S
C275 C276 1.369 . S
C275 C277 1.419 . S
C275 H279 0.930 . S
C276 C275 1.369 . S
C276 C285 1.429 . S
C277 C275 1.419 . S
C277 C278 1.363 . S
C277 H280 0.929 . S
C278 C277 1.363 . S
C278 C284 1.428 . S
H279 C275 0.930 . S
H280 C277 0.929 . S
S281 N282 1.613 . S
S281 N283 1.610 . S
N282 S281 1.613 . S
N282 C285 1.350 . S
N283 S281 1.610 . S
N283 C284 1.351 . S
C284 C278 1.428 . S
C284 N283 1.351 . S
C284 C285 1.434 . S
C285 C276 1.429 . S
C285 N282 1.350 . S
C285 C284 1.434 . S
C286 C287 1.369 . S
C286 C288 1.419 . S
C286 H290 0.930 . S
C287 C286 1.369 . S
C287 C296 1.429 . S
C288 C286 1.419 . S
C288 C289 1.363 . S
C288 H291 0.929 . S
C289 C288 1.363 . S
C289 C295 1.428 . S
H290 C286 0.930 . S
H291 C288 0.929 . S
S292 N293 1.613 . S
S292 N294 1.610 . S
N293 S292 1.613 . S
N293 C296 1.350 . S
N294 S292 1.610 . S
N294 C295 1.351 . S
C295 C289 1.428 . S
C295 N294 1.351 . S
C295 C296 1.434 . S
C296 C287 1.429 . S
C296 N293 1.350 . S
C296 C295 1.434 . S
C297 C298 1.369 . S
C297 C299 1.419 . S
C297 H301 0.930 . S
C298 C297 1.369 . S
C298 C307 1.429 . S
C299 C297 1.419 . S
C299 C300 1.363 . S
C299 H302 0.929 . S
C300 C299 1.363 . S
C300 C306 1.428 . S
H301 C297 0.930 . S
H302 C299 0.929 . S
S303 N304 1.613 . S
S303 N305 1.610 . S
N304 S303 1.613 . S
N304 C307 1.350 . S
N305 S303 1.610 . S
N305 C306 1.351 . S
C306 C300 1.428 . S
C306 N305 1.351 . S
C306 C307 1.434 . S
C307 C298 1.429 . S
C307 N304 1.350 . S
C307 C306 1.434 . S
C308 C309 1.369 . S
C308 C310 1.419 . S
C308 H312 0.930 . S
C309 C308 1.369 . S
C309 C318 1.429 . S
C310 C308 1.419 . S
C310 C311 1.363 . S
C310 H313 0.929 . S
C311 C310 1.363 . S
C311 C317 1.428 . S
H312 C308 0.930 . S
H313 C310 0.929 . S
S314 N315 1.613 . S
S314 N316 1.610 . S
N315 S314 1.613 . S
N315 C318 1.350 . S
N316 S314 1.610 . S
N316 C317 1.351 . S
C317 C311 1.428 . S
C317 N316 1.351 . S
C317 C318 1.434 . S
C318 C309 1.429 . S
C318 N315 1.350 . S
C318 C317 1.434 . S
C319 C320 1.369 . S
C319 C321 1.419 . S
C319 H323 0.930 . S
C320 C319 1.369 . S
C320 C329 1.429 . S
C321 C319 1.419 . S
C321 C322 1.363 . S
C321 H324 0.929 . S
C322 C321 1.363 . S
C322 C328 1.428 . S
H323 C319 0.930 . S
H324 C321 0.929 . S
S325 N326 1.613 . S
S325 N327 1.610 . S
N326 S325 1.613 . S
N326 C329 1.350 . S
N327 S325 1.610 . S
N327 C328 1.351 . S
C328 C322 1.428 . S
C328 N327 1.351 . S
C328 C329 1.434 . S
C329 C320 1.429 . S
C329 N326 1.350 . S
C329 C328 1.434 . S
C330 C331 1.369 . S
C330 C332 1.419 . S
C330 H334 0.930 . S
C331 C330 1.369 . S
C331 C340 1.429 . S
C332 C330 1.419 . S
C332 C333 1.363 . S
C332 H335 0.929 . S
C333 C332 1.363 . S
C333 C339 1.428 . S
H334 C330 0.930 . S
H335 C332 0.929 . S
S336 N337 1.613 . S
S336 N338 1.610 . S
N337 S336 1.613 . S
N337 C340 1.350 . S
N338 S336 1.610 . S
N338 C339 1.351 . S
C339 C333 1.428 . S
C339 N338 1.351 . S
C339 C340 1.434 . S
C340 C331 1.429 . S
C340 N337 1.350 . S
C340 C339 1.434 . S
C341 C342 1.369 . S
C341 C343 1.419 . S
C341 H345 0.930 . S
C342 C341 1.369 . S
C342 C351 1.429 . S
C343 C341 1.419 . S
C343 C344 1.363 . S
C343 H346 0.929 . S
C344 C343 1.363 . S
C344 C350 1.428 . S
H345 C341 0.930 . S
H346 C343 0.929 . S
S347 N348 1.613 . S
S347 N349 1.610 . S
N348 S347 1.613 . S
N348 C351 1.350 . S
N349 S347 1.610 . S
N349 C350 1.351 . S
C350 C344 1.428 . S
C350 N349 1.351 . S
C350 C351 1.434 . S
C351 C342 1.429 . S
C351 N348 1.350 . S
C351 C350 1.434 . S
C352 C353 1.369 1_556 S
C352 C354 1.419 . S
C352 H356 0.930 . S
C353 C352 1.369 1_554 S
C353 C362 1.429 . S
C354 C352 1.419 . S
C354 C355 1.363 1_556 S
C354 H357 0.929 . S
C355 C354 1.363 1_554 S
C355 C361 1.428 . S
H356 C352 0.930 . S
H357 C354 0.929 . S
S358 N359 1.613 . S
S358 N360 1.610 . S
N359 S358 1.613 . S
N359 C362 1.350 . S
N360 S358 1.610 . S
N360 C361 1.351 . S
C361 C355 1.428 . S
C361 N360 1.351 . S
C361 C362 1.434 . S
C362 C353 1.429 . S
C362 N359 1.350 . S
C362 C361 1.434 . S
C363 C364 1.369 . S
C363 C365 1.419 . S
C363 H367 0.930 . S
C364 C363 1.369 . S
C364 C373 1.429 . S
C365 C363 1.419 . S
C365 C366 1.363 . S
C365 H368 0.929 . S
C366 C365 1.363 . S
C366 C372 1.428 . S
H367 C363 0.930 . S
H368 C365 0.929 . S
S369 N370 1.613 . S
S369 N371 1.610 . S
N370 S369 1.613 . S
N370 C373 1.350 . S
N371 S369 1.610 . S
N371 C372 1.351 . S
C372 C366 1.428 . S
C372 N371 1.351 . S
C372 C373 1.434 . S
C373 C364 1.429 . S
C373 N370 1.350 . S
C373 C372 1.434 . S
C374 C375 1.369 . S
C374 C376 1.419 . S
C374 H378 0.930 . S
C375 C374 1.369 . S
C375 C384 1.429 1_554 S
C376 C374 1.419 . S
C376 C377 1.363 . S
C376 H379 0.929 . S
C377 C376 1.363 . S
C377 C383 1.428 1_554 S
H378 C374 0.930 . S
H379 C376 0.929 . S
S380 N381 1.613 . S
S380 N382 1.610 . S
N381 S380 1.613 . S
N381 C384 1.350 . S
N382 S380 1.610 . S
N382 C383 1.351 . S
C383 C377 1.428 1_556 S
C383 N382 1.351 . S
C383 C384 1.434 . S
C384 C375 1.429 1_556 S
C384 N381 1.350 . S
C384 C383 1.434 . S
C385 C386 1.369 . S
C385 C387 1.419 . S
C385 H389 0.930 . S
C386 C385 1.369 . S
C386 C395 1.429 . S
C387 C385 1.419 . S
C387 C388 1.363 . S
C387 H390 0.929 . S
C388 C387 1.363 . S
C388 C394 1.428 . S
H389 C385 0.930 . S
H390 C387 0.929 . S
S391 N392 1.613 . S
S391 N393 1.610 . S
N392 S391 1.613 . S
N392 C395 1.350 . S
N393 S391 1.610 . S
N393 C394 1.351 . S
C394 C388 1.428 . S
C394 N393 1.351 . S
C394 C395 1.434 . S
C395 C386 1.429 . S
C395 N392 1.350 . S
C395 C394 1.434 . S
C396 C397 1.369 . S
C396 C398 1.419 . S
C396 H400 0.930 . S
C397 C396 1.369 . S
C397 C406 1.429 . S
C398 C396 1.419 . S
C398 C399 1.363 . S
C398 H401 0.929 . S
C399 C398 1.363 . S
C399 C405 1.428 . S
H400 C396 0.930 . S
H401 C398 0.929 . S
S402 N403 1.613 . S
S402 N404 1.610 . S
N403 S402 1.613 . S
N403 C406 1.350 . S
N404 S402 1.610 . S
N404 C405 1.351 . S
C405 C399 1.428 . S
C405 N404 1.351 . S
C405 C406 1.434 . S
C406 C397 1.429 . S
C406 N403 1.350 . S
C406 C405 1.434 . S
C407 C408 1.369 . S
C407 C409 1.419 . S
C407 H411 0.930 . S
C408 C407 1.369 . S
C408 C417 1.429 1_554 S
C409 C407 1.419 . S
C409 C410 1.363 . S
C409 H412 0.929 . S
C410 C409 1.363 . S
C410 C416 1.428 1_554 S
H411 C407 0.930 . S
H412 C409 0.929 . S
S413 N414 1.613 . S
S413 N415 1.610 . S
N414 S413 1.613 . S
N414 C417 1.350 . S
N415 S413 1.610 . S
N415 C416 1.351 . S
C416 C410 1.428 1_556 S
C416 N415 1.351 . S
C416 C417 1.434 . S
C417 C408 1.429 1_556 S
C417 N414 1.350 . S
C417 C416 1.434 . S
C418 C419 1.369 . S
C418 C420 1.419 . S
C418 H422 0.930 . S
C419 C418 1.369 . S
C419 C428 1.429 . S
C420 C418 1.419 . S
C420 C421 1.363 . S
C420 H423 0.929 . S
C421 C420 1.363 . S
C421 C427 1.428 . S
H422 C418 0.930 . S
H423 C420 0.929 . S
S424 N425 1.613 . S
S424 N426 1.610 . S
N425 S424 1.613 . S
N425 C428 1.350 . S
N426 S424 1.610 . S
N426 C427 1.351 . S
C427 C421 1.428 . S
C427 N426 1.351 . S
C427 C428 1.434 . S
C428 C419 1.429 . S
C428 N425 1.350 . S
C428 C427 1.434 . S
C429 C430 1.369 . S
C429 C431 1.419 . S
C429 H433 0.930 . S
C430 C429 1.369 . S
C430 C439 1.429 1_554 S
C431 C429 1.419 . S
C431 C432 1.363 . S
C431 H434 0.929 . S
C432 C431 1.363 . S
C432 C438 1.428 1_554 S
H433 C429 0.930 . S
H434 C431 0.929 . S
S435 N436 1.613 . S
S435 N437 1.610 . S
N436 S435 1.613 . S
N436 C439 1.350 . S
N437 S435 1.610 . S
N437 C438 1.351 . S
C438 C432 1.428 1_556 S
C438 N437 1.351 . S
C438 C439 1.434 . S
C439 C430 1.429 1_556 S
C439 N436 1.350 . S
C439 C438 1.434 . S
C177 C21 1.479 . S
C179 C127 1.492 . S
C188 C40 1.505 . S
C190 C94 1.495 . S
C201 C108 1.459 . S
C199 C54 1.483 . S
C210 C73 1.532 . S
C212 C119 1.505 . S
C223 C152 1.451 . S
C221 C74 1.473 . S
C234 C163 1.483 . S
C232 C10 1.527 . S
C245 C171 1.499 . S
C243 C37 1.493 . S
C256 C138 1.514 . S
C254 C65 1.510 . S
C265 C52 1.449 . S
C267 C105 1.451 . S
C276 C87 1.521 . S
C278 C116 1.508 . S
C287 C15 1.518 . S
C289 C130 1.499 . S
C300 C97 1.477 . S
C298 C32 1.509 . S
C309 C29 1.506 . S
C311 C174 1.490 . S
C322 C141 1.520 . S
C320 C59 1.544 . S
C333 C149 1.458 . S
C331 C84 1.459 . S
C342 C8 1.486 . S
C344 C160 1.467 . S
C355 N92 1.528 . S
C353 C7 1.542 . S
C366 N103 1.490 . S
C364 C30 1.492 . S
C375 C62 1.547 . S
C377 N114 1.533 . S
C386 C81 1.506 . S
C388 N125 1.512 . S
C399 N136 1.527 . S
C397 C76 1.547 . S
C408 C18 1.493 . S
C410 N147 1.490 . S
C419 C43 1.542 . S
C421 N158 1.536 . S
C430 C51 1.501 . S
C432 N169 1.512 1_554 S
