# Generated by pormake.
# Topology tsx, (6,3)-cn, num edge types: 1
# Building blocks:
#     Node 0, Type 0, BuildingBlock: LEVNOQ01_clean_sbu_1, # of connection points: 6
#     Node 1, Type 0, BuildingBlock: LEVNOQ01_clean_sbu_1, # of connection points: 6
#     Node 2, Type 1, BuildingBlock: KAKCAD_clean_linker_0, # of connection points: 3
#     Node 3, Type 1, BuildingBlock: KAKCAD_clean_linker_0, # of connection points: 3
#     Node 4, Type 1, BuildingBlock: KAKCAD_clean_linker_0, # of connection points: 3
#     Node 5, Type 1, BuildingBlock: KAKCAD_clean_linker_0, # of connection points: 3
#     Edge 6, Type (0, 1), BuildingBlock: UVAHIK_clean_linker_0, # of connection points: 2
#     Edge 7, Type (0, 1), BuildingBlock: UVAHIK_clean_linker_0, # of connection points: 2
#     Edge 8, Type (0, 1), BuildingBlock: UVAHIK_clean_linker_0, # of connection points: 2
#     Edge 9, Type (0, 1), BuildingBlock: UVAHIK_clean_linker_0, # of connection points: 2
#     Edge 10, Type (0, 1), BuildingBlock: UVAHIK_clean_linker_0, # of connection points: 2
#     Edge 11, Type (0, 1), BuildingBlock: UVAHIK_clean_linker_0, # of connection points: 2
#     Edge 12, Type (0, 1), BuildingBlock: UVAHIK_clean_linker_0, # of connection points: 2
#     Edge 13, Type (0, 1), BuildingBlock: UVAHIK_clean_linker_0, # of connection points: 2
#     Edge 14, Type (0, 1), BuildingBlock: UVAHIK_clean_linker_0, # of connection points: 2
#     Edge 15, Type (0, 1), BuildingBlock: UVAHIK_clean_linker_0, # of connection points: 2
#     Edge 16, Type (0, 1), BuildingBlock: UVAHIK_clean_linker_0, # of connection points: 2
#     Edge 17, Type (0, 1), BuildingBlock: UVAHIK_clean_linker_0, # of connection points: 2
# Relax obj value: 0.130
# Max RMSD: 0.158
# Mean RMSD: 0.120
data_MOF--net-tsx--node1-LEVNOQ01_clean_sbu_1--node2-KAKCAD_clean_linker_0--edge1-UVAHIK_clean_linker_0
_symmetry_space_group_name_H-M    P1
_symmetry_Int_Tables_number       1
_symmetry_cell_setting            triclinic
loop_
_symmetry_equiv_pos_as_xyz
'x, y, z'
_cell_length_a     28.013183
_cell_length_b     33.801122
_cell_length_c     55.542443
_cell_angle_alpha  97.648536
_cell_angle_beta   90.006944
_cell_angle_gamma 91.150728
loop_
_atom_site_label
_atom_site_type_symbol
_atom_site_fract_x
_atom_site_fract_y
_atom_site_fract_z
_atom_type_partial_charge
O0 O 0.11543 0.00916 0.05327 0.0
Mg1 Mg 0.13808 0.0324 0.02147 0.0
O2 O 0.04014 0.01906 0.04499 0.0
Mg3 Mg 0.04838 0.02621 0.00395 0.0
O4 O 0.10402 0.08064 0.01139 0.0
O5 O 0.17594 0.08352 0.02969 0.0
O6 O 0.0574 0.03286 0.96257 0.0
O7 O 0.99333 0.07781 0.00965 0.0
Mg8 Mg 0.95154 0.00211 0.97255 0.0
O9 O 0.99051 0.9777 0.99732 0.0
O10 O 0.9939 0.00659 0.94172 0.0
O11 O 0.92533 0.05596 0.99119 0.0
O12 O 0.92551 0.94749 0.98031 0.0
C13 C 0.14234 0.96481 0.99068 0.0
C14 C 0.07195 0.00955 0.05948 0.0
C15 C 0.1421 0.10085 0.01963 0.0
C16 C 0.03533 0.02245 0.94251 0.0
C17 C 0.94956 0.08266 0.00443 0.0
C18 C 0.96007 0.94824 0.99569 0.0
O19 O 0.17095 -0.0058 0.99417 0.0
O20 O 0.09868 0.96986 0.99664 0.0
O21 O 0.61079 0.55097 0.56381 0.0
Mg22 Mg 0.64455 0.5485 0.5298 0.0
O23 O 0.54279 0.52749 0.54674 0.0
Mg24 Mg 0.54712 0.52619 0.5045 0.0
O25 O 0.60599 0.57602 0.50571 0.0
O26 O 0.67699 0.59886 0.52073 0.0
O27 O 0.55175 0.52446 0.46185 0.0
O28 O 0.49392 0.57948 0.50845 0.0
Mg29 Mg 0.44999 0.50107 0.47868 0.0
O30 O 0.4879 0.47717 0.50421 0.0
O31 O 0.48561 0.49557 0.44545 0.0
O32 O 0.42393 0.55724 0.493 0.0
O33 O 0.41853 0.45116 0.48886 0.0
C34 C 0.64371 0.46579 0.50403 0.0
C35 C 0.56826 0.53828 0.56564 0.0
C36 C 0.64034 0.60271 0.50724 0.0
C37 C 0.52707 0.51016 0.44323 0.0
C38 C 0.45003 0.58507 0.5039 0.0
C39 C 0.45409 0.45017 0.50352 0.0
O40 O 0.67089 0.49325 0.51442 0.0
O41 O 0.59974 0.47229 0.50023 0.0
C42 C 0.02789 0.94288 0.32447 0.0
C43 C 0.02373 0.97766 0.31333 0.0
C44 C 0.02885 0.94511 0.34982 0.0
C45 C 0.02597 0.98221 0.36455 0.0
C46 C 0.02254 0.01697 0.3533 0.0
C47 C 0.02119 0.0147 0.32804 0.0
C48 C 0.02615 0.98498 0.39155 0.0
C49 C 0.05636 0.96131 0.40363 0.0
C50 C 0.05805 0.9656 0.42919 0.0
C51 C 0.0287 -0.00638 0.44272 0.0
C52 C -0.00154 0.01737 0.43087 0.0
C53 C -0.00296 0.0126 0.40541 0.0
C54 C 0.97027 0.04921 0.44464 0.0
C55 C 0.93631 0.04072 0.46196 0.0
C56 C 0.97536 0.08833 0.4391 0.0
C57 C 0.94606 0.11827 0.45001 0.0
C58 C 0.91068 0.10977 0.4666 0.0
C59 C 0.09199 0.94194 0.44165 0.0
C60 C 0.09583 0.90072 0.43439 0.0
C61 C 0.12165 0.96057 0.46041 0.0
C62 C 0.15492 0.93845 0.4715 0.0
C63 C 0.15869 0.89721 0.46424 0.0
C64 C 0.12865 0.87855 0.44566 0.0
C65 C 0.90631 0.07078 0.47272 0.0
H66 H 0.02966 0.91388 0.31358 0.0
H67 H 0.03106 0.91773 0.35787 0.0
H68 H 0.02144 0.04615 0.36401 0.0
H69 H 0.01899 0.04209 0.31999 0.0
H70 H 0.08005 0.94066 0.39319 0.0
H71 H 0.973 0.03069 0.39641 0.0
H72 H 0.03004 -0.0025 0.4624 0.0
H73 H 0.93181 0.01064 0.46644 0.0
H74 H 0.00147 0.09557 0.42588 0.0
H75 H 0.94991 0.14785 0.44467 0.0
H76 H 0.0733 0.88559 0.42004 0.0
H77 H 0.11974 -0.00761 0.4662 0.0
H78 H 0.87941 0.0635 0.48553 0.0
H79 H 0.13109 0.84686 0.43955 0.0
H80 H 0.17746 0.95353 0.48586 0.0
C81 C 0.00169 0.09787 0.6853 0.0
C82 C 0.00295 0.06018 0.69323 0.0
C83 C 0.99327 0.10126 0.6609 0.0
C84 C 0.9866 0.06699 0.64374 0.0
C85 C 0.98636 0.02929 0.65185 0.0
C86 C 0.99423 0.02594 0.67638 0.0
C87 C 0.98309 0.07071 0.61738 0.0
C88 C 0.01216 0.09877 0.60756 0.0
C89 C 0.01092 0.10255 0.58268 0.0
C90 C 0.98 0.07738 0.56731 0.0
C91 C 0.9513 0.04853 0.57676 0.0
C92 C 0.95287 0.04546 0.60175 0.0
C93 C 0.9216 0.01972 0.56052 0.0
C94 C 0.88388 0.03254 0.54697 0.0
C95 C 0.92995 0.97873 0.55936 0.0
C96 C 0.90077 0.95089 0.54517 0.0
C97 C 0.86207 0.96346 0.53225 0.0
C98 C 0.04488 0.13104 0.57315 0.0
C99 C 0.05447 0.16849 0.58671 0.0
C100 C 0.07207 0.11941 0.55223 0.0
C101 C 0.11008 0.1436 0.546 0.0
C102 C 0.12188 0.1798 0.56064 0.0
C103 C 0.09265 0.19236 0.58069 0.0
C104 C 0.85384 0.0045 0.53316 0.0
H105 H 0.00742 0.12478 0.698 0.0
H106 H 0.99259 0.13081 0.65541 0.0
H107 H 0.98188 0.00225 0.63914 0.0
H108 H -0.00478 -0.00351 0.682 0.0
H109 H 0.03763 0.11667 0.61924 0.0
H110 H 0.93036 0.0234 0.60896 0.0
H111 H 0.97907 0.0795 0.54802 0.0
H112 H 0.87685 0.06406 0.54766 0.0
H113 H 0.95892 0.96825 0.56963 0.0
H114 H 0.90755 0.91938 0.54487 0.0
H115 H 0.03366 0.17865 0.6027 0.0
H116 H 0.06563 0.09072 0.54139 0.0
H117 H 0.82416 0.01478 0.52331 0.0
H118 H 0.10051 0.21976 0.59259 0.0
H119 H 0.13101 0.13335 0.53008 0.0
C120 C 0.51919 0.44857 0.82332 0.0
C121 C 0.51265 0.48415 0.81326 0.0
C122 C 0.52393 0.44934 0.8485 0.0
C123 C 0.52223 0.4857 0.86404 0.0
C124 C 0.51712 0.52126 0.85384 0.0
C125 C 0.51235 0.5205 0.82881 0.0
C126 C 0.52421 0.48699 0.89086 0.0
C127 C 0.5575 0.46472 0.90202 0.0
C128 C 0.56074 0.46825 0.9275 0.0
C129 C 0.53009 0.49402 0.94185 0.0
C130 C 0.49557 0.51529 0.9309 0.0
C131 C 0.493 0.51166 0.90548 0.0
C132 C 0.46273 0.54248 0.94561 0.0
C133 C 0.41397 0.54191 0.93966 0.0
C134 C 0.48051 0.57181 0.96386 0.0
C135 C 0.45076 0.60191 0.97458 0.0
C136 C 0.40272 0.60296 0.96732 0.0
C137 C 0.59526 0.44419 0.93918 0.0
C138 C 0.59648 0.40275 0.93234 0.0
C139 C 0.62621 0.46218 0.95756 0.0
C140 C 0.6578 0.43897 0.96897 0.0
C141 C 0.65809 0.39739 0.96249 0.0
C142 C 0.62733 0.37954 0.94402 0.0
C143 C 0.38424 0.57179 0.95043 0.0
H144 H 0.5195 0.42009 0.81179 0.0
H145 H 0.52762 0.42143 0.85585 0.0
H146 H 0.51683 0.54985 0.86526 0.0
H147 H 0.50869 0.54854 0.82161 0.0
H148 H 0.58182 0.44553 0.89093 0.0
H149 H 0.46678 0.52857 0.89702 0.0
H150 H 0.53213 0.49657 0.96149 0.0
H151 H 0.39928 0.51926 0.92586 0.0
H152 H 0.51798 0.57287 0.9688 0.0
H153 H 0.46581 0.62528 0.98781 0.0
H154 H 0.57279 0.3882 0.91831 0.0
H155 H 0.62601 0.49416 0.96304 0.0
H156 H 0.34751 0.57182 0.94434 0.0
H157 H 0.62724 0.34753 0.93859 0.0
H158 H 0.68122 0.45332 0.98317 0.0
C159 C 0.50784 0.60073 0.1863 0.0
C160 C 0.51415 0.56278 0.19341 0.0
C161 C 0.50033 0.60489 0.16191 0.0
C162 C 0.49879 0.57122 0.14408 0.0
C163 C 0.50453 0.53325 0.15118 0.0
C164 C 0.51225 0.52908 0.17556 0.0
C165 C 0.49342 0.5759 0.11804 0.0
C166 C 0.52042 0.60515 0.10824 0.0
C167 C 0.51763 0.60928 0.08342 0.0
C168 C 0.48663 0.58371 0.06829 0.0
C169 C 0.4597 0.55391 0.07785 0.0
C170 C 0.46327 0.55024 0.1027 0.0
C171 C 0.42909 0.52517 0.06203 0.0
C172 C 0.39186 0.53824 0.04828 0.0
C173 C 0.43512 0.48407 0.06205 0.0
C174 C 0.40359 0.45648 0.04927 0.0
C175 C 0.36492 0.46938 0.03642 0.0
C176 C 0.55064 0.63807 0.07355 0.0
C177 C 0.56111 0.67528 0.08723 0.0
C178 C 0.57658 0.6267 0.05218 0.0
C179 C 0.61448 0.65069 0.04568 0.0
C180 C 0.62749 0.68638 0.06051 0.0
C181 C 0.59927 0.69894 0.08094 0.0
C182 C 0.35966 0.51054 0.03576 0.0
H183 H 0.5082 0.62723 0.19962 0.0
H184 H 0.49552 0.63452 0.15698 0.0
H185 H 0.50428 0.50681 0.1378 0.0
H186 H 0.51764 0.49946 0.18034 0.0
H187 H 0.5456 0.62351 0.11986 0.0
H188 H 0.44226 0.52744 0.11011 0.0
H189 H 0.48433 0.58626 0.04908 0.0
H190 H 0.38653 0.56985 0.04807 0.0
H191 H 0.46371 0.47331 0.07244 0.0
H192 H 0.40827 0.42503 0.05036 0.0
H193 H 0.54118 0.68528 0.10355 0.0
H194 H 0.56945 0.59823 0.04122 0.0
H195 H 0.33021 0.52125 0.02595 0.0
H196 H 0.60802 0.72603 0.09294 0.0
H197 H 0.63453 0.64055 0.02943 0.0
C198 C 0.12786 0.1618 -0.00078 0.0
C199 C 0.1471 0.14412 0.01848 0.0
C200 C 0.13791 0.20214 0.9973 0.0
C201 C 0.17845 0.29688 0.03254 0.0
H202 H 0.24848 0.31753 0.97515 0.0
C203 C 0.34237 0.40341 0.01262 0.0
C204 C 0.3284 0.43975 0.02574 0.0
C205 C 0.30906 0.37236 0.00657 0.0
C206 C 0.22844 0.31238 0.99116 0.0
H207 H 0.18951 0.15498 0.05145 0.0
H208 H 0.20583 0.225 0.04845 0.0
H209 H 0.20759 0.2529 0.97578 0.0
H210 H 0.26809 0.473 0.04146 0.0
H211 H 0.20974 0.41862 0.03091 0.0
H212 H 0.20131 0.35519 0.04852 0.0
C213 C 0.18351 0.20794 0.03471 0.0
C214 C 0.20473 0.27556 0.99143 0.0
C215 C 0.17443 0.16775 0.03632 0.0
C216 C 0.27985 0.44537 0.03125 0.0
C217 C 0.24653 0.41416 0.02538 0.0
C218 C 0.20168 0.33373 0.0322 0.0
C219 C 0.16614 0.22542 0.015 0.0
C220 C 0.18114 0.26697 0.01249 0.0
C221 C 0.26109 0.37688 0.01368 0.0
C222 C 0.22848 0.34135 0.01185 0.0
H223 H 0.10678 0.14414 0.9852 0.0
H224 H 0.1242 0.21501 0.98191 0.0
H225 H 0.16038 0.29099 0.04898 0.0
H226 H 0.37953 0.39839 0.00799 0.0
H227 H 0.32156 0.34396 -0.00226 0.0
C228 C 0.20929 0.92024 0.97652 0.0
C229 C 0.16169 0.92439 0.98425 0.0
C230 C 0.23124 0.88338 0.97494 0.0
C231 C 0.21353 0.77519 0.97195 0.0
H232 H 0.33669 0.78207 0.00439 0.0
C233 C 0.32474 0.63496 0.98004 0.0
C234 C 0.37359 0.63869 0.97476 0.0
C235 C 0.29616 0.66871 0.9836 0.0
C236 C 0.30255 0.77959 0.9951 0.0
H237 H 0.09861 0.89242 0.99459 0.0
H238 H 0.13727 0.82753 0.99166 0.0
H239 H 0.29087 0.8422 0.00341 0.0
H240 H 0.43083 0.68078 0.96944 0.0
H241 H 0.38133 0.7393 0.97554 0.0
H242 H 0.22589 0.71261 0.96306 0.0
C243 C 0.15748 0.85307 0.98699 0.0
C244 C 0.27631 0.81405 0.99454 0.0
C245 C 0.13539 0.89017 0.98862 0.0
C246 C 0.39356 0.67693 0.97397 0.0
C247 C 0.36505 0.71055 0.97742 0.0
C248 C 0.24006 0.74059 0.97233 0.0
C249 C 0.20612 0.84975 0.981 0.0
C250 C 0.23198 0.81236 0.98258 0.0
C251 C 0.31585 0.70684 0.98189 0.0
C252 C 0.2853 0.74256 0.98355 0.0
H253 H 0.23035 0.94588 0.97267 0.0
H254 H 0.26845 0.88143 0.96968 0.0
H255 H 0.17943 0.77309 0.96262 0.0
H256 H 0.30846 0.60586 0.98095 0.0
H257 H 0.25855 0.66489 0.9874 0.0
C258 C 0.97019 0.87884 0.00368 0.0
C259 C 0.95943 0.91841 0.01249 0.0
C260 C 0.94983 0.84745 0.01446 0.0
C261 C 0.86188 0.82535 0.06276 0.0
H262 H 0.81271 0.74862 0.00998 0.0
C263 C 0.67493 0.75079 0.06173 0.0
C264 C 0.67209 0.70898 0.05588 0.0
C265 C 0.71796 0.77153 0.05941 0.0
C266 C 0.8266 0.76946 0.02497 0.0
H267 H 0.92321 0.95685 0.04056 0.0
H268 H 0.88635 0.90276 0.05892 0.0
H269 H 0.87936 0.7923 0.00266 0.0
H270 H 0.71291 0.65646 0.04276 0.0
H271 H 0.78723 0.69318 0.0375 0.0
H272 H 0.80589 0.80407 0.08439 0.0
C273 C 0.91124 0.89516 0.04421 0.0
C274 C 0.86529 0.79439 0.02092 0.0
C275 C 0.93254 0.92644 0.03375 0.0
C276 C 0.71325 0.68866 0.04701 0.0
C277 C 0.75606 0.70955 0.04426 0.0
C278 C 0.8225 0.80092 0.06664 0.0
C279 C 0.917 0.85525 0.03367 0.0
C280 C 0.88272 0.82352 0.03956 0.0
C281 C 0.7589 0.75108 0.05074 0.0
C282 C 0.80387 0.77348 0.0476 0.0
H283 H 0.99059 0.8721 0.98711 0.0
H284 H 0.95662 0.81715 0.00639 0.0
H285 H 0.87481 0.84666 0.07773 0.0
H286 H 0.64391 0.76765 0.06812 0.0
H287 H 0.71906 0.8037 0.06404 0.0
C288 C 0.87805 0.12012 0.01928 0.0
C289 C 0.92615 0.12074 0.01237 0.0
C290 C 0.8515 0.15476 0.02105 0.0
C291 C 0.85411 0.26412 0.01857 0.0
H292 H 0.73673 0.23791 0.9824 0.0
C293 C 0.73923 0.37929 0.97616 0.0
C294 C 0.68966 0.37214 0.97503 0.0
C295 C 0.76924 0.35229 0.98547 0.0
C296 C 0.7688 0.24591 0.99297 0.0
H297 H 0.98553 0.15833 0.00375 0.0
H298 H 0.93848 0.21918 0.0061 0.0
H299 H 0.7875 0.18491 0.99149 0.0
H300 H 0.63212 0.33337 0.9844 0.0
H301 H 0.68401 0.28698 0.00127 0.0
H302 H 0.83524 0.32559 0.01945 0.0
C303 C 0.92151 0.19203 0.01057 0.0
C304 C 0.79804 0.21539 -0.00179 0.0
C305 C 0.94844 0.15727 0.00922 0.0
C306 C 0.67033 0.33907 0.98469 0.0
C307 C 0.70011 0.3125 0.99426 0.0
C308 C 0.82453 0.29493 0.01335 0.0
C309 C 0.87219 0.19057 0.01535 0.0
C310 C 0.84095 0.22398 0.01112 0.0
C311 C 0.75002 0.31797 0.99399 0.0
C312 C 0.78144 0.28606 0.00052 0.0
H313 H 0.86029 0.09232 0.02207 0.0
H314 H 0.81391 0.15293 0.02546 0.0
H315 H 0.88704 0.27165 0.02849 0.0
H316 H 0.75487 0.40466 0.96879 0.0
H317 H 0.8075 0.3573 0.98488 0.0
C318 C 0.61605 0.67243 0.50633 0.0
C319 C 0.63881 0.63842 0.49489 0.0
C320 C 0.63061 0.71049 0.50152 0.0
C321 C 0.74403 0.75546 0.48694 0.0
H322 H 0.6745 0.85422 0.49281 0.0
C323 C 0.8474 0.90392 0.50124 0.0
C324 C 0.82942 0.93313 0.51903 0.0
C325 C 0.81875 0.8713 0.49162 0.0
C326 C 0.69448 0.82691 0.49124 0.0
H327 H 0.6909 0.6167 0.46788 0.0
H328 H 0.71504 0.68283 0.45866 0.0
H329 H 0.63074 0.79019 0.48666 0.0
H330 H 0.7671 0.95239 0.54004 0.0
H331 H 0.71735 0.89464 0.52404 0.0
H332 H 0.80735 0.79128 0.4929 0.0
C333 C 0.68669 0.68046 0.47168 0.0
C334 C 0.66936 0.79024 0.48759 0.0
C335 C 0.67243 0.64256 0.47667 0.0
C336 C 0.78156 0.9303 0.52618 0.0
C337 C 0.75307 0.89722 0.5169 0.0
C338 C 0.76897 0.79186 0.49077 0.0
C339 C 0.66825 0.71492 0.48522 0.0
C340 C 0.69389 0.75407 0.48571 0.0
C341 C 0.7718 0.8666 0.50005 0.0
C342 C 0.74466 0.82819 0.49333 0.0
H343 H 0.59074 0.66989 0.52083 0.0
H344 H 0.6157 0.73634 0.51232 0.0
H345 H 0.76417 0.72831 0.48625 0.0
H346 H 0.88416 0.9057 0.49535 0.0
H347 H 0.83409 0.84902 0.47819 0.0
C348 C 0.6347 0.39114 0.49303 0.0
C349 C 0.66389 0.42575 0.49715 0.0
C350 C 0.65523 0.35331 0.48864 0.0
C351 C 0.76879 0.30477 0.46938 0.0
H352 H 0.72858 0.22109 0.50692 0.0
C353 C 0.89411 0.18049 0.48303 0.0
C354 C 0.87687 0.14142 0.47581 0.0
C355 C 0.86277 0.21221 0.48649 0.0
C356 C 0.73978 0.24411 0.49617 0.0
H357 H 0.73729 0.44784 0.4992 0.0
H358 H 0.77259 0.38266 0.49161 0.0
H359 H 0.6821 0.28235 0.50879 0.0
H360 H 0.81302 0.10444 0.46855 0.0
H361 H 0.7578 0.16034 0.47501 0.0
H362 H 0.82714 0.2675 0.45739 0.0
C363 C 0.73402 0.3844 0.49162 0.0
C364 C 0.71313 0.27899 0.49712 0.0
C365 C 0.7137 0.42185 0.49615 0.0
C366 C 0.82725 0.13427 0.47417 0.0
C367 C 0.7957 0.16619 0.47776 0.0
C368 C 0.79542 0.2703 0.4686 0.0
C369 C 0.70518 0.34965 0.48797 0.0
C370 C 0.72824 0.31014 0.48424 0.0
C371 C 0.81348 0.20556 0.48294 0.0
C372 C 0.78199 0.24013 0.48249 0.0
H373 H 0.59618 0.39321 0.49382 0.0
H374 H 0.63215 0.32701 0.48581 0.0
H375 H 0.78072 0.3278 0.45881 0.0
H376 H 0.93212 0.18675 0.48485 0.0
H377 H 0.87728 0.24224 0.49101 0.0
C378 C 0.42194 0.4269 0.54027 0.0
C379 C 0.45215 0.42005 0.52014 0.0
C380 C 0.40025 0.39486 0.5498 0.0
C381 C 0.35991 0.29327 0.525 0.0
H382 H 0.29499 0.30024 0.58699 0.0
C383 C 0.20813 0.18368 0.5479 0.0
C384 C 0.16605 0.20317 0.55621 0.0
C385 C 0.25056 0.20544 0.54565 0.0
C386 C 0.31314 0.29783 0.56965 0.0
H387 H 0.488 0.37501 0.4958 0.0
H388 H 0.4526 0.31871 0.51334 0.0
H389 H 0.36315 0.34466 0.58221 0.0
H390 H 0.13574 0.26132 0.56765 0.0
H391 H 0.21012 0.29882 0.56453 0.0
H392 H 0.3095 0.24641 0.51258 0.0
C393 C 0.44405 0.34871 0.52133 0.0
C394 C 0.3521 0.3233 0.56685 0.0
C395 C 0.46519 0.3809 0.51157 0.0
C396 C 0.16749 0.24506 0.56178 0.0
C397 C 0.21008 0.26664 0.55998 0.0
C398 C 0.32156 0.2673 0.52798 0.0
C399 C 0.40865 0.35529 0.53937 0.0
C400 C 0.37488 0.32249 0.54419 0.0
C401 C 0.25204 0.24701 0.55208 0.0
C402 C 0.2968 0.27035 0.55005 0.0
H403 H 0.41074 0.45693 0.54682 0.0
H404 H 0.37324 0.4015 0.56359 0.0
H405 H 0.3757 0.29192 0.50713 0.0
H406 H 0.20881 0.15148 0.54381 0.0
H407 H 0.28252 0.18969 0.53946 0.0
C408 C 0.37912 0.62725 0.51338 0.0
C409 C 0.42873 0.62472 0.5102 0.0
C410 C 0.357 0.66407 0.51575 0.0
C411 C 0.3177 0.74648 0.52753 0.0
H412 H 0.34984 0.80813 0.47549 0.0
C413 C 0.24174 0.88694 0.47902 0.0
C414 C 0.19403 0.87354 0.47579 0.0
C415 C 0.27558 0.8632 0.48847 0.0
C416 C 0.34099 0.79181 0.49046 0.0
H417 H 0.49454 0.65893 0.50821 0.0
H418 H 0.45549 0.7239 0.5121 0.0
H419 H 0.40189 0.75461 0.48401 0.0
H420 H 0.14392 0.82569 0.48082 0.0
H421 H 0.20277 0.78431 0.49726 0.0
H422 H 0.25548 0.78228 0.53311 0.0
C423 C 0.43387 0.69714 0.51276 0.0
C424 C 0.3709 0.7612 0.49539 0.0
C425 C 0.45621 0.66007 0.51069 0.0
C426 C 0.18052 0.8366 0.48291 0.0
C427 C 0.21413 0.81313 0.49257 0.0
C428 C 0.28777 0.77693 0.52254 0.0
C429 C 0.38386 0.69937 0.5148 0.0
C430 C 0.35856 0.7372 0.51335 0.0
C431 C 0.26215 0.82591 0.49519 0.0
C432 C 0.29815 0.7989 0.50336 0.0
H433 H 0.35703 0.60053 0.51322 0.0
H434 H 0.31842 0.66456 0.51696 0.0
H435 H 0.30771 0.72898 0.54178 0.0
H436 H 0.25318 0.91522 0.47356 0.0
H437 H 0.3123 0.87384 0.49034 0.0
C438 C 0.01834 0.01477 0.09609 0.0
C439 C 0.05948 -0.00017 0.08392 0.0
C440 C 0.01039 0.00902 0.12033 0.0
C441 C 0.07854 0.98704 0.17414 0.0
H442 H 0.95345 0.97253 0.20188 0.0
C443 C 0.05588 0.9523 0.27212 0.0
C444 C 0.02295 0.9757 0.28647 0.0
C445 C 0.05729 0.95263 0.24699 0.0
C446 C 0.98857 0.97674 0.19436 0.0
H447 H 0.12257 0.96461 0.08688 0.0
H448 H 0.10795 0.95339 0.1285 0.0
H449 H 0.96076 0.97726 0.15843 0.0
H450 H 0.96438 0.01647 0.28563 0.0
H451 H 0.96689 0.01704 0.24168 0.0
H452 H 0.10638 0.98628 0.20992 0.0
C453 C 0.08274 0.97096 0.11989 0.0
C454 C 0.99277 0.97957 0.1695 0.0
C455 C 0.09098 0.97717 0.09593 0.0
C456 C 0.99048 -0.00155 0.27506 0.0
C457 C 0.99161 -0.0015 0.24989 0.0
C458 C 0.07436 0.98385 0.19884 0.0
C459 C 0.04317 0.98779 0.13269 0.0
C460 C 0.03789 0.98464 0.15907 0.0
C461 C 0.02553 0.97608 0.23564 0.0
C462 C 0.02941 0.97862 0.20923 0.0
H463 H 0.99344 0.03232 0.08725 0.0
H464 H 0.9796 0.02252 0.12963 0.0
H465 H 0.11376 -0.00797 0.16697 0.0
H466 H 0.08151 0.93465 0.2804 0.0
H467 H 0.08354 0.93476 0.23643 0.0
C468 C 0.04568 0.06726 0.91116 0.0
C469 C 0.05582 0.03099 0.91946 0.0
C470 C 0.05181 0.07161 0.88668 0.0
C471 C 0.05053 0.00776 0.82743 0.0
H472 H 0.07131 0.10882 0.80296 0.0
C473 C 0.98727 0.03181 0.73202 0.0
C474 C 0.01475 0.05666 0.71887 0.0
C475 C -0.00153 0.02868 0.75621 0.0
C476 C 0.06605 0.08017 0.80936 0.0
H477 H 0.08259 0.97155 0.90949 0.0
H478 H 0.09571 0.97955 0.86685 0.0
H479 H 0.08649 0.10407 0.8456 0.0
H480 H 0.07608 0.09702 0.72046 0.0
H481 H 0.09646 0.09084 0.76246 0.0
H482 H 0.03104 0.98362 0.79118 0.0
C483 C 0.08197 0.00445 0.87898 0.0
C484 C 0.07426 0.07757 0.83394 0.0
C485 C 0.07525 -0.0 0.90342 0.0
C486 C 0.05389 0.07805 0.7303 0.0
C487 C 0.06547 0.07456 0.7544 0.0
C488 C 0.04283 0.01025 0.80285 0.0
C489 C 0.06826 0.03967 0.87006 0.0
C490 C 0.0657 0.04151 0.84341 0.0
C491 C 0.03784 0.04991 0.76771 0.0
C492 C 0.04949 0.04668 0.79356 0.0
H493 H 0.02962 0.09118 0.92322 0.0
H494 H 0.04032 0.099 0.88056 0.0
H495 H 0.04281 0.97957 0.834 0.0
H496 H 0.9566 0.01533 0.72372 0.0
H497 H 0.97571 0.01007 0.76599 0.0
C498 C 0.51284 0.50635 0.59334 0.0
C499 C 0.5496 0.53408 0.59009 0.0
C500 C 0.49944 0.49952 0.61677 0.0
C501 C 0.50496 0.54397 0.68102 0.0
H502 H 0.50513 0.43489 0.69563 0.0
C503 C 0.47262 0.50894 0.77795 0.0
C504 C 0.50627 0.48396 0.78668 0.0
C505 C 0.46952 0.51199 0.7532 0.0
C506 C 0.50482 0.46547 0.69178 0.0
H507 H 0.59967 0.57751 0.60873 0.0
H508 H 0.57584 0.56609 0.64936 0.0
H509 H 0.51412 0.44806 0.65352 0.0
H510 H 0.5616 0.44122 0.7761 0.0
H511 H 0.55624 0.4466 0.73273 0.0
H512 H 0.49735 0.56167 0.71918 0.0
C513 C 0.55748 0.5495 0.63393 0.0
C514 C 0.50946 0.47297 0.66769 0.0
C515 C 0.57129 0.55589 0.61063 0.0
C516 C 0.53516 0.46058 0.76993 0.0
C517 C 0.53202 0.46362 0.74509 0.0
C518 C 0.49996 0.5365 0.70501 0.0
C519 C 0.52198 0.52084 0.63727 0.0
C520 C 0.51062 0.51237 0.66217 0.0
C521 C 0.49992 0.49008 0.73654 0.0
C522 C 0.50072 0.49723 0.71073 0.0
H523 H 0.49566 0.48895 0.57782 0.0
H524 H 0.4718 0.47737 0.61887 0.0
H525 H 0.50545 0.57462 0.67727 0.0
H526 H 0.44906 0.52664 0.79034 0.0
H527 H 0.44381 0.53207 0.74712 0.0
C528 C 0.52806 0.48324 0.39958 0.0
C529 C 0.54417 0.51243 0.41833 0.0
C530 C 0.53326 0.48913 0.37541 0.0
C531 C 0.58981 0.54669 0.33153 0.0
H532 H 0.46623 0.53054 0.29975 0.0
C533 C 0.55139 0.58565 0.23433 0.0
C534 C 0.52215 0.55827 0.21937 0.0
C535 C 0.55811 0.58156 0.25884 0.0
C536 C 0.50114 0.53475 0.3082 0.0
H537 H 0.58204 0.56914 0.42656 0.0
H538 H 0.5911 0.57964 0.38377 0.0
H539 H 0.47449 0.51947 0.34183 0.0
H540 H 0.47713 0.50513 0.21854 0.0
H541 H 0.48983 0.49738 0.26089 0.0
H542 H 0.61649 0.56146 0.29754 0.0
C543 C 0.57447 0.55219 0.38799 0.0
C544 C 0.50584 0.5285 0.33234 0.0
C545 C 0.56943 0.54615 0.4124 0.0
C546 C 0.50025 0.52653 0.22942 0.0
C547 C 0.50705 0.52239 0.25383 0.0
C548 C 0.58517 0.55274 0.30715 0.0
C549 C 0.55441 0.52448 0.3694 0.0
C550 C 0.5503 0.53366 0.34414 0.0
C551 C 0.53567 0.55004 0.26891 0.0
C552 C 0.54086 0.54613 0.29512 0.0
H553 H 0.50904 0.4567 0.40365 0.0
H554 H 0.51848 0.46687 0.3614 0.0
H555 H 0.62443 0.551 0.34028 0.0
H556 H 0.56929 0.61016 0.22707 0.0
H557 H 0.58015 0.60348 0.26998 0.0
loop_
_geom_bond_atom_site_label_1
_geom_bond_atom_site_label_2
_geom_bond_distance
_geom_bond_site_symmetry_2
_ccdc_geom_bond_type
O0 Mg1 1.990 . S
O0 C14 1.253 . S
Mg1 O0 1.990 . S
Mg1 O4 2.180 . S
Mg1 O5 2.117 . S
Mg1 O19 2.030 1_545 S
O2 Mg3 2.072 . S
O2 C14 1.260 . S
Mg3 O2 2.072 . S
Mg3 O4 2.099 . S
Mg3 O6 2.079 1_554 S
Mg3 O7 2.072 . S
Mg3 O9 2.099 1_444 S
Mg3 O20 2.079 1_544 S
O4 Mg1 2.180 . S
O4 Mg3 2.099 . S
O4 C15 1.279 . S
O5 Mg1 2.117 . S
O5 C15 1.250 . S
O6 Mg3 2.079 1_556 S
O6 C16 1.264 . S
O7 Mg3 2.072 . S
O7 C17 1.260 1_455 S
Mg8 O9 2.180 1_545 S
Mg8 O10 2.030 . S
Mg8 O11 1.990 . S
Mg8 O12 2.154 1_545 S
O9 Mg3 2.099 1_666 S
O9 Mg8 2.180 1_565 S
O9 C18 1.279 1_556 S
O10 Mg8 2.030 . S
O10 C16 1.248 1_655 S
O11 Mg8 1.990 . S
O11 C17 1.253 1_556 S
O12 Mg8 2.154 1_565 S
O12 C18 1.238 1_556 S
C13 O19 1.248 . S
C13 O20 1.242 1_554 S
C14 O0 1.253 . S
C14 O2 1.260 . S
C15 O4 1.279 . S
C15 O5 1.250 . S
C16 O6 1.264 . S
C16 O10 1.248 1_455 S
C17 O7 1.260 1_655 S
C17 O11 1.253 1_554 S
C18 O9 1.279 1_554 S
C18 O12 1.238 1_554 S
O19 Mg1 2.030 1_565 S
O19 C13 1.248 . S
O20 Mg3 2.079 1_566 S
O20 C13 1.242 1_556 S
O21 Mg22 1.990 . S
O21 C35 1.253 . S
Mg22 O21 1.990 . S
Mg22 O25 2.180 . S
Mg22 O26 2.117 . S
Mg22 O40 2.030 . S
O23 Mg24 2.072 . S
O23 C35 1.260 . S
Mg24 O23 2.072 . S
Mg24 O25 2.099 . S
Mg24 O27 2.079 . S
Mg24 O28 2.072 . S
Mg24 O30 2.099 . S
Mg24 O41 2.079 . S
O25 Mg22 2.180 . S
O25 Mg24 2.099 . S
O25 C36 1.279 . S
O26 Mg22 2.117 . S
O26 C36 1.250 . S
O27 Mg24 2.079 . S
O27 C37 1.264 . S
O28 Mg24 2.072 . S
O28 C38 1.260 . S
Mg29 O30 2.180 . S
Mg29 O31 2.030 . S
Mg29 O32 1.990 . S
Mg29 O33 2.117 . S
O30 Mg24 2.099 . S
O30 Mg29 2.180 . S
O30 C39 1.279 . S
O31 Mg29 2.030 . S
O31 C37 1.248 . S
O32 Mg29 1.990 . S
O32 C38 1.253 . S
O33 Mg29 2.117 . S
O33 C39 1.250 . S
C34 O40 1.248 . S
C34 O41 1.264 . S
C35 O21 1.253 . S
C35 O23 1.260 . S
C36 O25 1.279 . S
C36 O26 1.250 . S
C37 O27 1.264 . S
C37 O31 1.248 . S
C38 O28 1.260 . S
C38 O32 1.253 . S
C39 O30 1.279 . S
C39 O33 1.250 . S
O40 Mg22 2.030 . S
O40 C34 1.248 . S
O41 Mg24 2.079 . S
O41 C34 1.264 . S
C42 C43 1.386 . S
C42 C44 1.397 . S
C42 H66 0.931 . S
C43 C42 1.386 . S
C43 C47 1.397 1_565 S
C44 C42 1.397 . S
C44 C45 1.384 . S
C44 H67 0.930 . S
C45 C44 1.384 . S
C45 C46 1.377 1_565 S
C45 C48 1.482 1_565 S
C46 C45 1.377 1_545 S
C46 C47 1.389 . S
C46 H68 0.929 . S
C47 C43 1.397 1_545 S
C47 C46 1.389 . S
C47 H69 0.931 . S
C48 C45 1.482 1_545 S
C48 C49 1.381 1_545 S
C48 C53 1.396 . S
C49 C48 1.381 1_565 S
C49 C50 1.401 . S
C49 H70 0.930 . S
C50 C49 1.401 . S
C50 C51 1.376 1_565 S
C50 C59 1.511 . S
C51 C50 1.376 1_545 S
C51 C52 1.392 . S
C51 H72 0.931 . S
C52 C51 1.392 . S
C52 C53 1.361 . S
C52 C54 1.500 1_455 S
C53 C48 1.396 . S
C53 C52 1.361 . S
C53 H71 0.942 . S
C54 C52 1.500 1_655 S
C54 C55 1.371 . S
C54 C56 1.365 . S
C55 C54 1.371 . S
C55 C65 1.386 . S
C55 H73 0.931 . S
C56 C54 1.365 . S
C56 C57 1.409 . S
C56 H74 0.929 . S
C57 C56 1.409 . S
C57 C58 1.380 . S
C57 H75 0.930 . S
C58 C57 1.380 . S
C58 C65 1.357 . S
C59 C50 1.511 . S
C59 C60 1.341 . S
C59 C61 1.371 . S
C60 C59 1.341 . S
C60 C64 1.394 . S
C60 H76 0.930 . S
C61 C59 1.371 . S
C61 C62 1.392 . S
C61 H77 0.931 . S
C62 C61 1.392 . S
C62 C63 1.331 . S
C62 H80 0.932 . S
C63 C62 1.331 . S
C63 C64 1.336 . S
C64 C60 1.394 . S
C64 C63 1.336 . S
C64 H79 0.929 . S
C65 C55 1.386 . S
C65 C58 1.357 . S
C65 H78 0.928 . S
H66 C42 0.931 . S
H67 C44 0.930 . S
H68 C46 0.929 . S
H69 C47 0.931 . S
H70 C49 0.930 . S
H71 C53 0.942 . S
H72 C51 0.931 . S
H73 C55 0.931 . S
H74 C56 0.929 . S
H75 C57 0.930 . S
H76 C60 0.930 . S
H77 C61 0.931 . S
H78 C65 0.928 . S
H79 C64 0.929 . S
H80 C62 0.932 . S
C81 C82 1.386 . S
C81 C83 1.397 . S
C81 H105 0.931 . S
C82 C81 1.386 . S
C82 C86 1.397 . S
C83 C81 1.397 . S
C83 C84 1.384 . S
C83 H106 0.930 . S
C84 C83 1.384 . S
C84 C85 1.377 . S
C84 C87 1.481 . S
C85 C84 1.377 . S
C85 C86 1.389 . S
C85 H107 0.929 . S
C86 C82 1.397 . S
C86 C85 1.389 . S
C86 H108 0.931 . S
C87 C84 1.481 . S
C87 C88 1.387 . S
C87 C92 1.390 1_455 S
C88 C87 1.387 . S
C88 C89 1.401 . S
C88 H109 0.930 . S
C89 C88 1.401 . S
C89 C90 1.376 1_455 S
C89 C98 1.511 . S
C90 C89 1.376 1_655 S
C90 C91 1.392 . S
C90 H111 0.931 . S
C91 C90 1.392 . S
C91 C92 1.361 . S
C91 C93 1.500 . S
C92 C87 1.390 1_655 S
C92 C91 1.361 . S
C92 H110 0.931 . S
C93 C91 1.500 . S
C93 C94 1.371 . S
C93 C95 1.365 1_545 S
C94 C93 1.371 . S
C94 C104 1.386 1_545 S
C94 H112 0.931 . S
C95 C93 1.365 1_565 S
C95 C96 1.409 . S
C95 H113 0.929 . S
C96 C95 1.409 . S
C96 C97 1.380 . S
C96 H114 0.930 . S
C97 C96 1.380 . S
C97 C104 1.357 . S
C98 C89 1.511 . S
C98 C99 1.341 . S
C98 C100 1.371 . S
C99 C98 1.341 . S
C99 C103 1.394 . S
C99 H115 0.930 . S
C100 C98 1.371 . S
C100 C101 1.392 . S
C100 H116 0.931 . S
C101 C100 1.392 . S
C101 C102 1.331 . S
C101 H119 0.932 . S
C102 C101 1.331 . S
C102 C103 1.336 . S
C103 C99 1.394 . S
C103 C102 1.336 . S
C103 H118 0.929 . S
C104 C94 1.386 1_565 S
C104 C97 1.357 . S
C104 H117 0.928 1_565 S
H105 C81 0.931 . S
H106 C83 0.930 . S
H107 C85 0.929 . S
H108 C86 0.931 . S
H109 C88 0.930 . S
H110 C92 0.931 . S
H111 C90 0.931 . S
H112 C94 0.931 . S
H113 C95 0.929 . S
H114 C96 0.930 . S
H115 C99 0.930 . S
H116 C100 0.931 . S
H117 C104 0.928 1_545 S
H118 C103 0.929 . S
H119 C101 0.932 . S
C120 C121 1.386 . S
C120 C122 1.397 . S
C120 H144 0.931 . S
C121 C120 1.386 . S
C121 C125 1.397 . S
C122 C120 1.397 . S
C122 C123 1.384 . S
C122 H145 0.930 . S
C123 C122 1.384 . S
C123 C124 1.377 . S
C123 C126 1.481 . S
C124 C123 1.377 . S
C124 C125 1.389 . S
C124 H146 0.929 . S
C125 C121 1.397 . S
C125 C124 1.389 . S
C125 H147 0.931 . S
C126 C123 1.481 . S
C126 C127 1.387 . S
C126 C131 1.390 . S
C127 C126 1.387 . S
C127 C128 1.401 . S
C127 H148 0.930 . S
C128 C127 1.401 . S
C128 C129 1.376 . S
C128 C137 1.511 . S
C129 C128 1.376 . S
C129 C130 1.392 . S
C129 H150 0.931 . S
C130 C129 1.392 . S
C130 C131 1.361 . S
C130 C132 1.500 . S
C131 C126 1.390 . S
C131 C130 1.361 . S
C131 H149 0.931 . S
C132 C130 1.500 . S
C132 C133 1.371 . S
C132 C134 1.365 . S
C133 C132 1.371 . S
C133 C143 1.386 . S
C133 H151 0.931 . S
C134 C132 1.365 . S
C134 C135 1.409 . S
C134 H152 0.929 . S
C135 C134 1.409 . S
C135 C136 1.380 . S
C135 H153 0.930 . S
C136 C135 1.380 . S
C136 C143 1.357 . S
C137 C128 1.511 . S
C137 C138 1.341 . S
C137 C139 1.371 . S
C138 C137 1.341 . S
C138 C142 1.394 . S
C138 H154 0.930 . S
C139 C137 1.371 . S
C139 C140 1.392 . S
C139 H155 0.931 . S
C140 C139 1.392 . S
C140 C141 1.331 . S
C140 H158 0.932 . S
C141 C140 1.331 . S
C141 C142 1.336 . S
C142 C138 1.394 . S
C142 C141 1.336 . S
C142 H157 0.929 . S
C143 C133 1.386 . S
C143 C136 1.357 . S
C143 H156 0.928 . S
H144 C120 0.931 . S
H145 C122 0.930 . S
H146 C124 0.929 . S
H147 C125 0.931 . S
H148 C127 0.930 . S
H149 C131 0.931 . S
H150 C129 0.931 . S
H151 C133 0.931 . S
H152 C134 0.929 . S
H153 C135 0.930 . S
H154 C138 0.930 . S
H155 C139 0.931 . S
H156 C143 0.928 . S
H157 C142 0.929 . S
H158 C140 0.932 . S
C159 C160 1.386 . S
C159 C161 1.397 . S
C159 H183 0.931 . S
C160 C159 1.386 . S
C160 C164 1.397 . S
C161 C159 1.397 . S
C161 C162 1.384 . S
C161 H184 0.930 . S
C162 C161 1.384 . S
C162 C163 1.377 . S
C162 C165 1.481 . S
C163 C162 1.377 . S
C163 C164 1.389 . S
C163 H185 0.929 . S
C164 C160 1.397 . S
C164 C163 1.389 . S
C164 H186 0.931 . S
C165 C162 1.481 . S
C165 C166 1.387 . S
C165 C170 1.390 . S
C166 C165 1.387 . S
C166 C167 1.401 . S
C166 H187 0.930 . S
C167 C166 1.401 . S
C167 C168 1.376 . S
C167 C176 1.511 . S
C168 C167 1.376 . S
C168 C169 1.392 . S
C168 H189 0.931 . S
C169 C168 1.392 . S
C169 C170 1.361 . S
C169 C171 1.500 . S
C170 C165 1.390 . S
C170 C169 1.361 . S
C170 H188 0.931 . S
C171 C169 1.500 . S
C171 C172 1.371 . S
C171 C173 1.365 . S
C172 C171 1.371 . S
C172 C182 1.386 . S
C172 H190 0.931 . S
C173 C171 1.365 . S
C173 C174 1.409 . S
C173 H191 0.929 . S
C174 C173 1.409 . S
C174 C175 1.380 . S
C174 H192 0.930 . S
C175 C174 1.380 . S
C175 C182 1.357 . S
C176 C167 1.511 . S
C176 C177 1.341 . S
C176 C178 1.371 . S
C177 C176 1.341 . S
C177 C181 1.394 . S
C177 H193 0.930 . S
C178 C176 1.371 . S
C178 C179 1.392 . S
C178 H194 0.931 . S
C179 C178 1.392 . S
C179 C180 1.331 . S
C179 H197 0.932 . S
C180 C179 1.331 . S
C180 C181 1.336 . S
C181 C177 1.394 . S
C181 C180 1.336 . S
C181 H196 0.929 . S
C182 C172 1.386 . S
C182 C175 1.357 . S
C182 H195 0.928 . S
H183 C159 0.931 . S
H184 C161 0.930 . S
H185 C163 0.929 . S
H186 C164 0.931 . S
H187 C166 0.930 . S
H188 C170 0.931 . S
H189 C168 0.931 . S
H190 C172 0.931 . S
H191 C173 0.929 . S
H192 C174 0.930 . S
H193 C177 0.930 . S
H194 C178 0.931 . S
H195 C182 0.928 . S
H196 C181 0.929 . S
H197 C179 0.932 . S
C198 C199 1.349 1_556 S
C198 C200 1.327 . S
C198 H223 0.950 . S
C199 C198 1.349 1_554 S
C199 C215 1.349 . S
C200 C198 1.327 . S
C200 C219 1.419 1_556 S
C200 H224 0.959 . S
C201 C218 1.574 . S
C201 C220 1.368 . S
C201 H225 0.949 . S
H202 C206 0.941 1_556 S
C203 C204 1.349 . S
C203 C205 1.327 . S
C203 H226 0.950 . S
C204 C203 1.349 . S
C204 C216 1.349 . S
C205 C203 1.327 . S
C205 C221 1.429 . S
C205 H227 0.950 . S
C206 H202 0.941 1_554 S
C206 C214 1.574 . S
C206 C222 1.368 . S
H207 C215 0.950 . S
H208 C213 0.950 . S
H209 C214 0.949 1_556 S
H210 C216 0.950 . S
H211 C217 0.950 . S
H212 C218 0.949 . S
C213 H208 0.950 . S
C213 C215 1.327 . S
C213 C219 1.429 . S
C214 C206 1.574 . S
C214 H209 0.949 1_554 S
C214 C220 1.368 . S
C215 C199 1.349 . S
C215 H207 0.950 . S
C215 C213 1.327 . S
C216 C204 1.349 . S
C216 H210 0.950 . S
C216 C217 1.327 . S
C217 H211 0.950 . S
C217 C216 1.327 . S
C217 C221 1.429 . S
C218 C201 1.574 . S
C218 H212 0.949 . S
C218 C222 1.368 . S
C219 C200 1.419 1_554 S
C219 C213 1.429 . S
C219 C220 1.523 . S
C220 C201 1.368 . S
C220 C214 1.368 . S
C220 C219 1.523 . S
C221 C205 1.429 . S
C221 C217 1.429 . S
C221 C222 1.523 . S
C222 C206 1.368 . S
C222 C218 1.368 . S
C222 C221 1.523 . S
H223 C198 0.950 . S
H224 C200 0.959 . S
H225 C201 0.949 . S
H226 C203 0.950 . S
H227 C205 0.950 . S
C228 C229 1.349 1_556 S
C228 C230 1.327 . S
C228 H253 0.950 . S
C229 C228 1.349 1_554 S
C229 C245 1.349 . S
C230 C228 1.327 . S
C230 C249 1.448 . S
C230 H254 0.950 . S
C231 C248 1.574 . S
C231 C250 1.368 1_554 S
C231 H255 0.949 . S
H232 C236 0.949 . S
C233 C234 1.326 1_554 S
C233 C235 1.328 . S
C233 H256 0.972 . S
C234 C233 1.326 1_556 S
C234 C246 1.349 . S
C235 C233 1.328 . S
C235 C251 1.429 1_554 S
C235 H257 0.950 . S
C236 H232 0.949 . S
C236 C244 1.574 . S
C236 C252 1.368 . S
H237 C245 0.950 . S
H238 C243 0.950 . S
H239 C244 0.949 . S
H240 C246 0.950 . S
H241 C247 0.950 . S
H242 C248 0.949 . S
C243 H238 0.950 . S
C243 C245 1.327 . S
C243 C249 1.408 1_554 S
C244 C236 1.574 . S
C244 H239 0.949 . S
C244 C250 1.368 . S
C245 C229 1.349 . S
C245 H237 0.950 . S
C245 C243 1.327 . S
C246 C234 1.349 . S
C246 H240 0.950 . S
C246 C247 1.327 . S
C247 H241 0.950 . S
C247 C246 1.327 . S
C247 C251 1.429 . S
C248 C231 1.574 . S
C248 H242 0.949 . S
C248 C252 1.368 1_554 S
C249 C230 1.448 . S
C249 C243 1.408 1_556 S
C249 C250 1.524 . S
C250 C231 1.368 1_556 S
C250 C244 1.368 . S
C250 C249 1.524 . S
C251 C235 1.429 1_556 S
C251 C247 1.429 . S
C251 C252 1.523 . S
C252 C236 1.368 . S
C252 C248 1.368 1_556 S
C252 C251 1.523 . S
H253 C228 0.950 . S
H254 C230 0.950 . S
H255 C231 0.949 . S
H256 C233 0.972 . S
H257 C235 0.950 . S
C258 C259 1.349 . S
C258 C260 1.327 . S
C258 H283 0.950 1_554 S
C259 C258 1.349 . S
C259 C275 1.349 . S
C260 C258 1.327 . S
C260 C279 1.429 . S
C260 H284 0.950 1_554 S
C261 C278 1.574 . S
C261 C280 1.368 . S
C261 H285 0.949 . S
H262 C266 0.949 . S
C263 C264 1.349 . S
C263 C265 1.327 . S
C263 H286 0.950 . S
C264 C263 1.349 . S
C264 C276 1.349 . S
C265 C263 1.327 . S
C265 C281 1.429 . S
C265 H287 0.950 . S
C266 H262 0.949 . S
C266 C274 1.574 . S
C266 C282 1.368 . S
H267 C275 0.950 . S
H268 C273 0.950 . S
H269 C274 0.931 1_556 S
H270 C276 0.950 . S
H271 C277 0.950 . S
H272 C278 0.949 . S
C273 H268 0.950 . S
C273 C275 1.327 . S
C273 C279 1.429 . S
C274 C266 1.574 . S
C274 H269 0.931 1_554 S
C274 C280 1.368 . S
C275 C259 1.349 . S
C275 H267 0.950 . S
C275 C273 1.327 . S
C276 C264 1.349 . S
C276 H270 0.950 . S
C276 C277 1.327 . S
C277 H271 0.950 . S
C277 C276 1.327 . S
C277 C281 1.429 . S
C278 C261 1.574 . S
C278 H272 0.949 . S
C278 C282 1.368 . S
C279 C260 1.429 . S
C279 C273 1.429 . S
C279 C280 1.523 . S
C280 C261 1.368 . S
C280 C274 1.368 . S
C280 C279 1.523 . S
C281 C265 1.429 . S
C281 C277 1.429 . S
C281 C282 1.523 . S
C282 C266 1.368 . S
C282 C278 1.368 . S
C282 C281 1.523 . S
H283 C258 0.950 1_556 S
H284 C260 0.950 1_556 S
H285 C261 0.949 . S
H286 C263 0.950 . S
H287 C265 0.950 . S
C288 C289 1.349 . S
C288 C290 1.332 . S
C288 H313 0.950 . S
C289 C288 1.349 . S
C289 C305 1.349 1_554 S
C290 C288 1.332 . S
C290 C309 1.423 1_554 S
C290 H314 0.951 . S
C291 C308 1.574 . S
C291 C310 1.368 . S
C291 H315 0.949 . S
H292 C296 0.949 . S
C293 C294 1.349 . S
C293 C295 1.327 . S
C293 H316 0.950 . S
C294 C293 1.349 . S
C294 C306 1.349 . S
C295 C293 1.327 . S
C295 C311 1.429 . S
C295 H317 0.950 . S
C296 H292 0.949 . S
C296 C304 1.574 . S
C296 C312 1.368 . S
H297 C305 0.950 1_455 S
H298 C303 0.950 . S
H299 C304 0.949 . S
H300 C306 0.950 . S
H301 C307 0.950 . S
H302 C308 0.949 . S
C303 H298 0.950 . S
C303 C305 1.327 . S
C303 C309 1.429 . S
C304 C296 1.574 . S
C304 H299 0.949 . S
C304 C310 1.368 . S
C305 C289 1.349 1_556 S
C305 H297 0.950 1_655 S
C305 C303 1.327 . S
C306 C294 1.349 . S
C306 H300 0.950 . S
C306 C307 1.327 . S
C307 H301 0.950 . S
C307 C306 1.327 . S
C307 C311 1.429 . S
C308 C291 1.574 . S
C308 H302 0.949 . S
C308 C312 1.368 . S
C309 C290 1.423 1_556 S
C309 C303 1.429 . S
C309 C310 1.523 . S
C310 C291 1.368 . S
C310 C304 1.368 . S
C310 C309 1.523 . S
C311 C295 1.429 . S
C311 C307 1.429 . S
C311 C312 1.523 . S
C312 C296 1.368 . S
C312 C308 1.368 . S
C312 C311 1.523 . S
H313 C288 0.950 . S
H314 C290 0.951 . S
H315 C291 0.949 . S
H316 C293 0.950 . S
H317 C295 0.950 . S
C318 C319 1.349 . S
C318 C320 1.327 . S
C318 H343 0.950 . S
C319 C318 1.349 . S
C319 C335 1.349 . S
C320 C318 1.327 . S
C320 C339 1.429 . S
C320 H344 0.950 . S
C321 C338 1.574 . S
C321 C340 1.368 . S
C321 H345 0.949 . S
H322 C326 0.949 . S
C323 C324 1.349 . S
C323 C325 1.327 . S
C323 H346 0.950 . S
C324 C323 1.349 . S
C324 C336 1.349 . S
C325 C323 1.327 . S
C325 C341 1.429 . S
C325 H347 0.950 . S
C326 H322 0.949 . S
C326 C334 1.574 . S
C326 C342 1.368 . S
H327 C335 0.950 . S
H328 C333 0.950 . S
H329 C334 0.949 . S
H330 C336 0.950 . S
H331 C337 0.950 . S
H332 C338 0.949 . S
C333 H328 0.950 . S
C333 C335 1.327 . S
C333 C339 1.429 . S
C334 C326 1.574 . S
C334 H329 0.949 . S
C334 C340 1.368 . S
C335 C319 1.349 . S
C335 H327 0.950 . S
C335 C333 1.327 . S
C336 C324 1.349 . S
C336 H330 0.950 . S
C336 C337 1.327 . S
C337 H331 0.950 . S
C337 C336 1.327 . S
C337 C341 1.429 . S
C338 C321 1.574 . S
C338 H332 0.949 . S
C338 C342 1.368 . S
C339 C320 1.429 . S
C339 C333 1.429 . S
C339 C340 1.523 . S
C340 C321 1.368 . S
C340 C334 1.368 . S
C340 C339 1.523 . S
C341 C325 1.429 . S
C341 C337 1.429 . S
C341 C342 1.523 . S
C342 C326 1.368 . S
C342 C338 1.368 . S
C342 C341 1.523 . S
H343 C318 0.950 . S
H344 C320 0.950 . S
H345 C321 0.949 . S
H346 C323 0.950 . S
H347 C325 0.950 . S
C348 C349 1.349 . S
C348 C350 1.327 . S
C348 H373 0.950 . S
C349 C348 1.349 . S
C349 C365 1.349 . S
C350 C348 1.327 . S
C350 C369 1.429 . S
C350 H374 0.950 . S
C351 C368 1.574 . S
C351 C370 1.368 . S
C351 H375 0.949 . S
H352 C356 0.949 . S
C353 C354 1.349 . S
C353 C355 1.327 . S
C353 H376 0.950 . S
C354 C353 1.349 . S
C354 C366 1.349 . S
C355 C353 1.327 . S
C355 C371 1.429 . S
C355 H377 0.950 . S
C356 H352 0.949 . S
C356 C364 1.574 . S
C356 C372 1.368 . S
H357 C365 0.950 . S
H358 C363 0.950 . S
H359 C364 0.949 . S
H360 C366 0.950 . S
H361 C367 0.950 . S
H362 C368 0.949 . S
C363 H358 0.950 . S
C363 C365 1.327 . S
C363 C369 1.429 . S
C364 C356 1.574 . S
C364 H359 0.949 . S
C364 C370 1.368 . S
C365 C349 1.349 . S
C365 H357 0.950 . S
C365 C363 1.327 . S
C366 C354 1.349 . S
C366 H360 0.950 . S
C366 C367 1.327 . S
C367 H361 0.950 . S
C367 C366 1.327 . S
C367 C371 1.429 . S
C368 C351 1.574 . S
C368 H362 0.949 . S
C368 C372 1.368 . S
C369 C350 1.429 . S
C369 C363 1.429 . S
C369 C370 1.523 . S
C370 C351 1.368 . S
C370 C364 1.368 . S
C370 C369 1.523 . S
C371 C355 1.429 . S
C371 C367 1.429 . S
C371 C372 1.523 . S
C372 C356 1.368 . S
C372 C368 1.368 . S
C372 C371 1.523 . S
H373 C348 0.950 . S
H374 C350 0.950 . S
H375 C351 0.949 . S
H376 C353 0.950 . S
H377 C355 0.950 . S
C378 C379 1.349 . S
C378 C380 1.327 . S
C378 H403 0.950 . S
C379 C378 1.349 . S
C379 C395 1.349 . S
C380 C378 1.327 . S
C380 C399 1.429 . S
C380 H404 0.950 . S
C381 C398 1.574 . S
C381 C400 1.368 . S
C381 H405 0.949 . S
H382 C386 0.949 . S
C383 C384 1.349 . S
C383 C385 1.327 . S
C383 H406 0.950 . S
C384 C383 1.349 . S
C384 C396 1.349 . S
C385 C383 1.327 . S
C385 C401 1.429 . S
C385 H407 0.950 . S
C386 H382 0.949 . S
C386 C394 1.574 . S
C386 C402 1.368 . S
H387 C395 0.950 . S
H388 C393 0.950 . S
H389 C394 0.949 . S
H390 C396 0.950 . S
H391 C397 0.950 . S
H392 C398 0.949 . S
C393 H388 0.950 . S
C393 C395 1.327 . S
C393 C399 1.429 . S
C394 C386 1.574 . S
C394 H389 0.949 . S
C394 C400 1.368 . S
C395 C379 1.349 . S
C395 H387 0.950 . S
C395 C393 1.327 . S
C396 C384 1.349 . S
C396 H390 0.950 . S
C396 C397 1.327 . S
C397 H391 0.950 . S
C397 C396 1.327 . S
C397 C401 1.429 . S
C398 C381 1.574 . S
C398 H392 0.949 . S
C398 C402 1.368 . S
C399 C380 1.429 . S
C399 C393 1.429 . S
C399 C400 1.523 . S
C400 C381 1.368 . S
C400 C394 1.368 . S
C400 C399 1.523 . S
C401 C385 1.429 . S
C401 C397 1.429 . S
C401 C402 1.523 . S
C402 C386 1.368 . S
C402 C398 1.368 . S
C402 C401 1.523 . S
H403 C378 0.950 . S
H404 C380 0.950 . S
H405 C381 0.949 . S
H406 C383 0.950 . S
H407 C385 0.950 . S
C408 C409 1.349 . S
C408 C410 1.327 . S
C408 H433 0.950 . S
C409 C408 1.349 . S
C409 C425 1.349 . S
C410 C408 1.327 . S
C410 C429 1.429 . S
C410 H434 0.950 . S
C411 C428 1.574 . S
C411 C430 1.368 . S
C411 H435 0.949 . S
H412 C416 0.949 . S
C413 C414 1.349 . S
C413 C415 1.327 . S
C413 H436 0.950 . S
C414 C413 1.349 . S
C414 C426 1.349 . S
C415 C413 1.327 . S
C415 C431 1.429 . S
C415 H437 0.950 . S
C416 H412 0.949 . S
C416 C424 1.574 . S
C416 C432 1.368 . S
H417 C425 0.950 . S
H418 C423 0.950 . S
H419 C424 0.949 . S
H420 C426 0.950 . S
H421 C427 0.950 . S
H422 C428 0.949 . S
C423 H418 0.950 . S
C423 C425 1.327 . S
C423 C429 1.429 . S
C424 C416 1.574 . S
C424 H419 0.949 . S
C424 C430 1.368 . S
C425 C409 1.349 . S
C425 H417 0.950 . S
C425 C423 1.327 . S
C426 C414 1.349 . S
C426 H420 0.950 . S
C426 C427 1.327 . S
C427 H421 0.950 . S
C427 C426 1.327 . S
C427 C431 1.429 . S
C428 C411 1.574 . S
C428 H422 0.949 . S
C428 C432 1.368 . S
C429 C410 1.429 . S
C429 C423 1.429 . S
C429 C430 1.523 . S
C430 C411 1.368 . S
C430 C424 1.368 . S
C430 C429 1.523 . S
C431 C415 1.429 . S
C431 C427 1.429 . S
C431 C432 1.523 . S
C432 C416 1.368 . S
C432 C428 1.368 . S
C432 C431 1.523 . S
H433 C408 0.950 . S
H434 C410 0.950 . S
H435 C411 0.949 . S
H436 C413 0.950 . S
H437 C415 0.950 . S
C438 C439 1.349 . S
C438 C440 1.327 . S
C438 H463 0.950 . S
C439 C438 1.349 . S
C439 C455 1.349 1_545 S
C440 C438 1.327 . S
C440 C459 1.429 . S
C440 H464 0.949 . S
C441 C458 1.574 . S
C441 C460 1.368 1_565 S
C441 H465 0.949 . S
H442 C446 0.939 1_655 S
C443 C444 1.349 . S
C443 C445 1.327 . S
C443 H466 0.950 . S
C444 C443 1.349 . S
C444 C456 1.349 1_565 S
C445 C443 1.327 . S
C445 C461 1.429 1_565 S
C445 H467 0.950 . S
C446 H442 0.939 1_455 S
C446 C454 1.574 . S
C446 C462 1.368 . S
H447 C455 0.950 . S
H448 C453 0.950 . S
H449 C454 0.943 1_655 S
H450 C456 0.959 . S
H451 C457 0.942 1_655 S
H452 C458 0.949 . S
C453 H448 0.950 . S
C453 C455 1.327 . S
C453 C459 1.429 1_565 S
C454 C446 1.574 . S
C454 H449 0.943 1_455 S
C454 C460 1.368 . S
C455 C439 1.349 1_565 S
C455 H447 0.950 . S
C455 C453 1.327 . S
C456 C444 1.349 1_545 S
C456 H450 0.959 . S
C456 C457 1.327 . S
C457 H451 0.942 1_455 S
C457 C456 1.327 . S
C457 C461 1.429 . S
C458 C441 1.574 . S
C458 H452 0.949 . S
C458 C462 1.368 1_565 S
C459 C440 1.429 . S
C459 C453 1.429 1_545 S
C459 C460 1.523 . S
C460 C441 1.368 1_545 S
C460 C454 1.368 . S
C460 C459 1.523 . S
C461 C445 1.429 1_545 S
C461 C457 1.429 . S
C461 C462 1.523 . S
C462 C446 1.368 . S
C462 C458 1.368 1_545 S
C462 C461 1.523 . S
H463 C438 0.950 . S
H464 C440 0.949 . S
H465 C441 0.949 . S
H466 C443 0.950 . S
H467 C445 0.950 . S
C468 C469 1.349 . S
C468 C470 1.327 . S
C468 H493 0.950 . S
C469 C468 1.349 . S
C469 C485 1.349 . S
C470 C468 1.327 . S
C470 C489 1.429 . S
C470 H494 0.950 . S
C471 C488 1.574 1_455 S
C471 C490 1.368 . S
C471 H495 0.949 1_455 S
H472 C476 0.949 . S
C473 C474 1.349 1_655 S
C473 C475 1.327 . S
C473 H496 0.950 . S
C474 C473 1.349 1_455 S
C474 C486 1.349 . S
C475 C473 1.327 . S
C475 C491 1.429 1_655 S
C475 H497 0.950 . S
C476 H472 0.949 . S
C476 C484 1.574 . S
C476 C492 1.368 . S
H477 C485 0.950 1_565 S
H478 C483 0.942 1_665 S
H479 C484 0.949 . S
H480 C486 0.950 . S
H481 C487 0.950 . S
H482 C488 0.949 . S
C483 H478 0.942 1_445 S
C483 C485 1.327 . S
C483 C489 1.429 . S
C484 C476 1.574 . S
C484 H479 0.949 . S
C484 C490 1.368 . S
C485 C469 1.349 . S
C485 H477 0.950 1_545 S
C485 C483 1.327 . S
C486 C474 1.349 . S
C486 H480 0.950 . S
C486 C487 1.327 . S
C487 H481 0.950 . S
C487 C486 1.327 . S
C487 C491 1.429 . S
C488 C471 1.574 1_655 S
C488 H482 0.949 . S
C488 C492 1.368 1_655 S
C489 C470 1.429 . S
C489 C483 1.429 . S
C489 C490 1.523 . S
C490 C471 1.368 . S
C490 C484 1.368 . S
C490 C489 1.523 . S
C491 C475 1.429 1_455 S
C491 C487 1.429 . S
C491 C492 1.523 . S
C492 C476 1.368 . S
C492 C488 1.368 1_455 S
C492 C491 1.523 . S
H493 C468 0.950 . S
H494 C470 0.950 . S
H495 C471 0.949 1_655 S
H496 C473 0.950 . S
H497 C475 0.950 . S
C498 C499 1.349 . S
C498 C500 1.327 . S
C498 H523 0.950 . S
C499 C498 1.349 . S
C499 C515 1.349 . S
C500 C498 1.327 . S
C500 C519 1.429 . S
C500 H524 0.950 . S
C501 C518 1.574 . S
C501 C520 1.368 . S
C501 H525 0.949 . S
H502 C506 0.949 . S
C503 C504 1.349 . S
C503 C505 1.327 . S
C503 H526 0.950 . S
C504 C503 1.349 . S
C504 C516 1.349 . S
C505 C503 1.327 . S
C505 C521 1.429 . S
C505 H527 0.950 . S
C506 H502 0.949 . S
C506 C514 1.574 . S
C506 C522 1.368 . S
H507 C515 0.950 . S
H508 C513 0.950 . S
H509 C514 0.949 . S
H510 C516 0.950 . S
H511 C517 0.950 . S
H512 C518 0.949 . S
C513 H508 0.950 . S
C513 C515 1.327 . S
C513 C519 1.429 . S
C514 C506 1.574 . S
C514 H509 0.949 . S
C514 C520 1.368 . S
C515 C499 1.349 . S
C515 H507 0.950 . S
C515 C513 1.327 . S
C516 C504 1.349 . S
C516 H510 0.950 . S
C516 C517 1.327 . S
C517 H511 0.950 . S
C517 C516 1.327 . S
C517 C521 1.429 . S
C518 C501 1.574 . S
C518 H512 0.949 . S
C518 C522 1.368 . S
C519 C500 1.429 . S
C519 C513 1.429 . S
C519 C520 1.523 . S
C520 C501 1.368 . S
C520 C514 1.368 . S
C520 C519 1.523 . S
C521 C505 1.429 . S
C521 C517 1.429 . S
C521 C522 1.523 . S
C522 C506 1.368 . S
C522 C518 1.368 . S
C522 C521 1.523 . S
H523 C498 0.950 . S
H524 C500 0.950 . S
H525 C501 0.949 . S
H526 C503 0.950 . S
H527 C505 0.950 . S
C528 C529 1.349 . S
C528 C530 1.327 . S
C528 H553 0.950 . S
C529 C528 1.349 . S
C529 C545 1.349 . S
C530 C528 1.327 . S
C530 C549 1.429 . S
C530 H554 0.950 . S
C531 C548 1.574 . S
C531 C550 1.368 . S
C531 H555 0.949 . S
H532 C536 0.949 . S
C533 C534 1.349 . S
C533 C535 1.327 . S
C533 H556 0.950 . S
C534 C533 1.349 . S
C534 C546 1.349 . S
C535 C533 1.327 . S
C535 C551 1.429 . S
C535 H557 0.950 . S
C536 H532 0.949 . S
C536 C544 1.574 . S
C536 C552 1.368 . S
H537 C545 0.950 . S
H538 C543 0.950 . S
H539 C544 0.949 . S
H540 C546 0.950 . S
H541 C547 0.950 . S
H542 C548 0.949 . S
C543 H538 0.950 . S
C543 C545 1.327 . S
C543 C549 1.429 . S
C544 C536 1.574 . S
C544 H539 0.949 . S
C544 C550 1.368 . S
C545 C529 1.349 . S
C545 H537 0.950 . S
C545 C543 1.327 . S
C546 C534 1.349 . S
C546 H540 0.950 . S
C546 C547 1.327 . S
C547 H541 0.950 . S
C547 C546 1.327 . S
C547 C551 1.429 . S
C548 C531 1.574 . S
C548 H542 0.949 . S
C548 C552 1.368 . S
C549 C530 1.429 . S
C549 C543 1.429 . S
C549 C550 1.523 . S
C550 C531 1.368 . S
C550 C544 1.368 . S
C550 C549 1.523 . S
C551 C535 1.429 . S
C551 C547 1.429 . S
C551 C552 1.523 . S
C552 C536 1.368 . S
C552 C548 1.368 . S
C552 C551 1.523 . S
H553 C528 0.950 . S
H554 C530 0.950 . S
H555 C531 0.949 . S
H556 C533 0.950 . S
H557 C535 0.950 . S
C204 C175 1.398 . S
C199 C15 1.251 . S
C229 C13 1.467 . S
C234 C136 1.457 . S
C259 C18 1.270 . S
C264 C180 1.448 . S
C289 C17 1.278 . S
C294 C141 1.326 . S
C319 C36 1.251 . S
C324 C97 1.399 . S
C349 C34 1.467 . S
C354 C58 1.457 . S
C384 C102 1.448 . S
C379 C39 1.270 . S
C414 C63 1.326 . S
C409 C38 1.278 . S
C439 C14 1.514 . S
C444 C43 1.566 . S
C469 C16 1.364 . S
C474 C82 1.415 . S
C504 C121 1.566 . S
C499 C35 1.514 . S
C529 C37 1.364 . S
C534 C160 1.415 . S
