# Generated by pormake.
# Topology zzz, (3,6)-cn, num edge types: 1
# Building blocks:
#     Node 0, Type 0, BuildingBlock: KAKCAD_clean_linker_0, # of connection points: 3
#     Node 1, Type 0, BuildingBlock: KAKCAD_clean_linker_0, # of connection points: 3
#     Node 2, Type 0, BuildingBlock: KAKCAD_clean_linker_0, # of connection points: 3
#     Node 3, Type 0, BuildingBlock: KAKCAD_clean_linker_0, # of connection points: 3
#     Node 4, Type 0, BuildingBlock: KAKCAD_clean_linker_0, # of connection points: 3
#     Node 5, Type 0, BuildingBlock: KAKCAD_clean_linker_0, # of connection points: 3
#     Node 6, Type 0, BuildingBlock: KAKCAD_clean_linker_0, # of connection points: 3
#     Node 7, Type 0, BuildingBlock: KAKCAD_clean_linker_0, # of connection points: 3
#     Node 8, Type 1, BuildingBlock: BETFAJ_clean_sbu_0, # of connection points: 6
#     Node 9, Type 1, BuildingBlock: BETFAJ_clean_sbu_0, # of connection points: 6
#     Node 10, Type 1, BuildingBlock: BETFAJ_clean_sbu_0, # of connection points: 6
#     Node 11, Type 1, BuildingBlock: BETFAJ_clean_sbu_0, # of connection points: 6
#     Edge 12, Type (0, 1), BuildingBlock: ZUJKAS_clean_linker_0, # of connection points: 2
#     Edge 13, Type (0, 1), BuildingBlock: ZUJKAS_clean_linker_0, # of connection points: 2
#     Edge 14, Type (0, 1), BuildingBlock: ZUJKAS_clean_linker_0, # of connection points: 2
#     Edge 15, Type (0, 1), BuildingBlock: ZUJKAS_clean_linker_0, # of connection points: 2
#     Edge 16, Type (0, 1), BuildingBlock: ZUJKAS_clean_linker_0, # of connection points: 2
#     Edge 17, Type (0, 1), BuildingBlock: ZUJKAS_clean_linker_0, # of connection points: 2
#     Edge 18, Type (0, 1), BuildingBlock: ZUJKAS_clean_linker_0, # of connection points: 2
#     Edge 19, Type (0, 1), BuildingBlock: ZUJKAS_clean_linker_0, # of connection points: 2
#     Edge 20, Type (0, 1), BuildingBlock: ZUJKAS_clean_linker_0, # of connection points: 2
#     Edge 21, Type (0, 1), BuildingBlock: ZUJKAS_clean_linker_0, # of connection points: 2
#     Edge 22, Type (0, 1), BuildingBlock: ZUJKAS_clean_linker_0, # of connection points: 2
#     Edge 23, Type (0, 1), BuildingBlock: ZUJKAS_clean_linker_0, # of connection points: 2
#     Edge 24, Type (0, 1), BuildingBlock: ZUJKAS_clean_linker_0, # of connection points: 2
#     Edge 25, Type (0, 1), BuildingBlock: ZUJKAS_clean_linker_0, # of connection points: 2
#     Edge 26, Type (0, 1), BuildingBlock: ZUJKAS_clean_linker_0, # of connection points: 2
#     Edge 27, Type (0, 1), BuildingBlock: ZUJKAS_clean_linker_0, # of connection points: 2
#     Edge 28, Type (0, 1), BuildingBlock: ZUJKAS_clean_linker_0, # of connection points: 2
#     Edge 29, Type (0, 1), BuildingBlock: ZUJKAS_clean_linker_0, # of connection points: 2
#     Edge 30, Type (0, 1), BuildingBlock: ZUJKAS_clean_linker_0, # of connection points: 2
#     Edge 31, Type (0, 1), BuildingBlock: ZUJKAS_clean_linker_0, # of connection points: 2
#     Edge 32, Type (0, 1), BuildingBlock: ZUJKAS_clean_linker_0, # of connection points: 2
#     Edge 33, Type (0, 1), BuildingBlock: ZUJKAS_clean_linker_0, # of connection points: 2
#     Edge 34, Type (0, 1), BuildingBlock: ZUJKAS_clean_linker_0, # of connection points: 2
#     Edge 35, Type (0, 1), BuildingBlock: ZUJKAS_clean_linker_0, # of connection points: 2
# Relax obj value: 0.413
# Max RMSD: 0.274
# Mean RMSD: 0.252
data_MOF--net-zzz--node1-BETFAJ_clean_sbu_0--node2-KAKCAD_clean_linker_0--edge1-ZUJKAS_clean_linker_0
_symmetry_space_group_name_H-M    P1
_symmetry_Int_Tables_number       1
_symmetry_cell_setting            triclinic
loop_
_symmetry_equiv_pos_as_xyz
'x, y, z'
_cell_length_a     74.328315
_cell_length_b     74.285826
_cell_length_c     22.691777
_cell_angle_alpha  89.875915
_cell_angle_beta   89.996281
_cell_angle_gamma 90.187587
loop_
_atom_site_label
_atom_site_type_symbol
_atom_site_fract_x
_atom_site_fract_y
_atom_site_fract_z
_atom_type_partial_charge
C0 C 0.75173 0.4889 0.08008 0.0
C1 C 0.76588 0.47674 0.0897 0.0
C2 C 0.74101 0.49454 0.12694 0.0
C3 C 0.74406 0.48793 0.1842 0.0
C4 C 0.7567 0.47411 0.19221 0.0
C5 C 0.76757 0.46863 0.14549 0.0
C6 C 0.73624 0.49736 0.23577 0.0
C7 C 0.71886 0.50447 0.23332 0.0
C8 C 0.71263 0.51623 0.277 0.0
C9 C 0.72386 0.52067 0.32505 0.0
C10 C 0.74118 0.513 0.32908 0.0
C11 C 0.74712 0.50142 0.28442 0.0
C12 C 0.75436 0.51778 0.37569 0.0
C13 C 0.76268 0.53477 0.37532 0.0
C14 C 0.76188 0.504 0.41021 0.0
C15 C 0.77807 0.50674 0.44042 0.0
C16 C 0.78725 0.5233 0.43637 0.0
C17 C 0.69473 0.52436 0.26733 0.0
C18 C 0.69271 0.53672 0.22097 0.0
C19 C 0.67935 0.51618 0.29132 0.0
C20 C 0.66238 0.51924 0.2662 0.0
C21 C 0.66053 0.53034 0.21604 0.0
C22 C 0.67584 0.53969 0.1956 0.0
C23 C 0.77899 0.5375 0.4053 0.0
H24 H 0.74983 0.49508 0.03727 0.0
H25 H 0.73138 0.50518 0.11896 0.0
H26 H 0.75905 0.46842 0.2355 0.0
H27 H 0.77831 0.45921 0.15462 0.0
H28 H 0.71027 0.50133 0.19608 0.0
H29 H 0.76084 0.49651 0.28592 0.0
H30 H 0.71931 0.53009 0.35819 0.0
H31 H 0.75734 0.54551 0.34817 0.0
H32 H 0.7559 0.49068 0.4103 0.0
H33 H 0.78403 0.49543 0.46334 0.0
H34 H 0.70446 0.54286 0.20088 0.0
H35 H 0.68063 0.50634 0.32636 0.0
H36 H 0.78554 0.55051 0.40191 0.0
H37 H 0.67516 0.54817 0.15684 0.0
H38 H 0.65088 0.51209 0.28404 0.0
C39 C 0.05359 0.76232 0.03385 0.0
C40 C 0.06764 0.77399 0.05005 0.0
C41 C 0.04471 0.75201 0.07641 0.0
C42 C 0.04966 0.75325 0.13603 0.0
C43 C 0.06453 0.76397 0.15159 0.0
C44 C 0.07349 0.77421 0.10892 0.0
C45 C 0.0381 0.74502 0.18206 0.0
C46 C 0.0312 0.72761 0.17509 0.0
C47 C 0.01849 0.72059 0.21479 0.0
C48 C 0.01249 0.73127 0.26221 0.0
C49 C 0.01988 0.7486 0.27084 0.0
C50 C 0.03264 0.75525 0.23061 0.0
C51 C 0.01423 0.76059 0.31966 0.0
C52 C 0.99653 0.76703 0.32294 0.0
C53 C 0.02739 0.76821 0.35648 0.0
C54 C 0.02323 0.78266 0.39333 0.0
C55 C 1.0058 0.78998 0.39395 0.0
C56 C 0.0116 0.7022 0.20364 0.0
C57 C 0.99436 0.69963 0.17989 0.0
C58 C 0.02367 0.6877 0.20442 0.0
C59 C 0.01903 0.67127 0.17855 0.0
C60 C 1.00227 0.66902 0.15066 0.0
C61 C 0.98973 0.68319 0.15351 0.0
C62 C 0.99235 0.78165 0.35958 0.0
H63 H 0.04889 0.76184 0.98868 0.0
H64 H 0.03325 0.74394 0.0631 0.0
H65 H 0.06875 0.76501 0.19716 0.0
H66 H 0.08419 0.78318 0.12273 0.0
H67 H 0.03547 0.71956 0.13781 0.0
H68 H 0.03767 0.76888 0.23567 0.0
H69 H 1.00248 0.72605 0.29252 0.0
H70 H 0.98619 0.76152 0.29447 0.0
H71 H 0.04119 0.76359 0.35437 0.0
H72 H 0.03397 0.78879 0.4186 0.0
H73 H 0.98494 0.71072 0.178 0.0
H74 H 0.03715 0.68948 0.22169 0.0
H75 H 0.97875 0.78681 0.35951 0.0
H76 H 0.97664 0.68184 0.13301 0.0
H77 H 0.02911 0.66079 0.17672 0.0
C78 C 0.7595 0.99267 0.03256 0.0
C79 C 0.74532 1.00443 0.01901 0.0
C80 C 0.76739 0.99289 0.08848 0.0
C81 C 0.76127 1.00489 0.13193 0.0
C82 C 0.74746 0.01698 0.11778 0.0
C83 C 0.73954 0.01672 0.06215 0.0
C84 C 0.76914 1.00478 0.192 0.0
C85 C 0.78768 1.0031 0.19958 0.0
C86 C 0.7954 1.0032 0.25588 0.0
C87 C 0.78431 1.00501 0.30606 0.0
C88 C 0.76549 1.00697 0.29898 0.0
C89 C 0.75816 1.00662 0.24182 0.0
C90 C 0.7529 1.00955 0.34944 0.0
C91 C 0.75212 0.99728 0.39658 0.0
C92 C 0.73972 0.02304 0.34587 0.0
C93 C 0.72543 0.02354 0.38576 0.0
C94 C 0.72389 1.01065 0.43106 0.0
C95 C 0.81522 1.0018 0.25826 0.0
C96 C 0.82311 0.98478 0.25207 0.0
C97 C 0.82552 0.01716 0.24499 0.0
C98 C 0.8427 0.01548 0.22021 0.0
C99 C 0.84986 0.99837 0.20794 0.0
C100 C 0.8403 0.98307 0.22742 0.0
C101 C 0.73775 0.99781 0.43695 0.0
H102 H 0.7643 0.9831 1.00031 0.0
H103 H 0.77797 0.98334 0.09815 0.0
H104 H 0.74265 0.02659 0.14992 0.0
H105 H 0.72841 0.02574 0.05383 0.0
H106 H 0.79633 1.00205 0.16121 0.0
H107 H 0.74371 1.00753 0.23615 0.0
H108 H 0.79024 1.00528 0.34965 0.0
H109 H 0.76204 0.98669 0.40035 0.0
H110 H 0.73999 0.03275 0.31018 0.0
H111 H 0.71506 0.03353 0.3788 0.0
H112 H 0.81529 0.97273 0.26077 0.0
H113 H 0.81954 0.03042 0.24788 0.0
H114 H 0.73726 0.98784 0.47178 0.0
H115 H 0.84554 0.96969 0.21973 0.0
H116 H 0.84956 0.02757 0.2056 0.0
C117 C 0.50528 0.7469 0.44849 0.0
C118 C 0.51868 0.7335 0.44942 0.0
C119 C 0.50611 0.76113 0.40774 0.0
C120 C 0.52036 0.76225 0.36732 0.0
C121 C 0.53433 0.74962 0.37088 0.0
C122 C 0.53355 0.73547 0.41152 0.0
C123 C 0.51859 0.77324 0.31309 0.0
C124 C 0.52081 0.7921 0.31215 0.0
C125 C 0.51947 0.80147 0.25819 0.0
C126 C 0.5158 0.792 0.20612 0.0
C127 C 0.51313 0.77334 0.20683 0.0
C128 C 0.51455 0.76413 0.26067 0.0
C129 C 0.50843 0.76343 0.15198 0.0
C130 C 0.49698 0.77109 0.10941 0.0
C131 C 0.51471 0.74584 0.14313 0.0
C132 C 0.50885 0.73576 0.09512 0.0
C133 C 0.49688 0.74312 0.05346 0.0
C134 C 0.52143 0.82121 0.25327 0.0
C135 C 0.50594 0.83194 0.25358 0.0
C136 C 0.53758 0.82849 0.23158 0.0
C137 C 0.53793 0.84576 0.20665 0.0
C138 C 0.52205 0.85594 0.20224 0.0
C139 C 0.50624 0.84916 0.22842 0.0
C140 C 0.4914 0.7611 0.06048 0.0
H141 H 0.49375 0.74597 0.47752 0.0
H142 H 0.49502 0.77052 0.40508 0.0
H143 H 0.54527 0.75 0.33932 0.0
H144 H 0.54402 0.72538 0.41018 0.0
H145 H 0.52371 0.79933 0.35249 0.0
H146 H 0.51216 0.74973 0.26242 0.0
H147 H 0.51505 0.79932 0.1648 0.0
H148 H 0.49178 0.78458 0.11478 0.0
H149 H 0.52389 0.73963 0.17407 0.0
H150 H 0.51321 0.72191 0.09237 0.0
H151 H 0.49325 0.82644 0.26891 0.0
H152 H 0.54957 0.82026 0.22953 0.0
H153 H 0.48248 0.7674 0.02894 0.0
H154 H 0.49384 0.85675 0.22638 0.0
H155 H 0.55029 0.85049 0.18653 0.0
C156 C 0.25591 0.51545 0.28609 0.0
C157 C 0.24193 0.50336 0.30013 0.0
C158 C 0.26616 0.51307 0.23524 0.0
C159 C 0.26248 0.49873 0.19694 0.0
C160 C 0.24908 0.48622 0.21178 0.0
C161 C 0.23904 0.48838 0.2633 0.0
C162 C 0.272 0.49758 0.14006 0.0
C163 C 0.29075 0.49832 0.13846 0.0
C164 C 0.30001 0.49894 0.08471 0.0
C165 C 0.29023 0.49901 0.03131 0.0
C166 C 0.27122 0.49824 0.03273 0.0
C167 C 0.26232 0.49727 0.0872 0.0
C168 C 0.25989 0.49983 0.97926 0.0
C169 C 0.25328 0.5168 0.96296 0.0
C170 C 0.25211 0.48438 0.95422 0.0
C171 C 0.23742 0.48586 0.91564 0.0
C172 C 0.23002 0.50281 0.90228 0.0
C173 C 0.31986 0.50007 0.08799 0.0
C174 C 0.32777 0.51625 0.10686 0.0
C175 C 0.32993 0.48416 0.09102 0.0
C176 C 0.34705 0.48418 0.117 0.0
C177 C 0.35435 0.5001 0.14102 0.0
C178 C 0.34484 0.51628 0.13293 0.0
C179 C 0.23852 0.51829 0.92489 0.0
H180 H 0.25838 0.52731 0.31256 0.0
H181 H 0.27639 0.52296 0.22435 0.0
H182 H 0.2462 0.47493 0.18308 0.0
H183 H 0.22867 0.47857 0.27335 0.0
H184 H 0.29824 0.49859 0.17953 0.0
H185 H 0.24773 0.49714 0.08844 0.0
H186 H 0.29724 0.49997 0.98957 0.0
H187 H 0.25879 0.52888 0.98278 0.0
H188 H 0.25665 0.47113 0.96744 0.0
H189 H 0.23112 0.47367 0.89948 0.0
H190 H 0.32006 0.5286 0.10643 0.0
H191 H 0.32396 0.47146 0.07797 0.0
H192 H 0.23328 0.53155 0.91507 0.0
H193 H 0.34984 0.52879 0.1512 0.0
H194 H 0.3541 0.47151 0.12142 0.0
C195 C 0.02638 0.26135 0.27821 0.0
C196 C 0.03812 0.24666 0.28327 0.0
C197 C 0.02501 0.27079 0.22526 0.0
C198 C 0.03549 0.26588 0.17627 0.0
C199 C 0.04809 0.25194 0.18253 0.0
C200 C 0.04938 0.24241 0.2355 0.0
C201 C 0.03218 0.27439 0.11801 0.0
C202 C 0.02809 0.2927 0.11433 0.0
C203 C 0.02242 0.30051 0.06123 0.0
C204 C 0.02135 0.28983 0.00992 0.0
C205 C 0.02605 0.27142 0.01261 0.0
C206 C 0.03141 0.26392 0.06673 0.0
C207 C 0.02442 0.25908 0.9614 0.0
C208 C 1.00746 0.25475 0.93811 0.0
C209 C 0.03938 0.24886 0.94406 0.0
C210 C 0.03731 0.23399 0.90692 0.0
C211 C 0.02017 0.22881 0.88668 0.0
C212 C 0.01704 0.31968 0.06346 0.0
C213 C 1.00288 0.32451 0.10109 0.0
C214 C 0.02868 0.33316 0.04264 0.0
C215 C 0.02709 0.35091 0.06325 0.0
C216 C 0.01398 0.35542 0.10577 0.0
C217 C 1.0014 0.34209 0.12217 0.0
C218 C 1.00533 0.23971 0.90129 0.0
H219 H 0.01766 0.26505 0.31445 0.0
H220 H 0.01505 0.28135 0.22197 0.0
H221 H 0.05655 0.24802 0.14591 0.0
H222 H 0.05847 0.23107 0.2378 0.0
H223 H 0.02896 0.30098 0.15356 0.0
H224 H 0.03409 0.2496 0.06934 0.0
H225 H 0.01675 0.29569 0.96886 0.0
H226 H 0.99567 0.26224 0.95151 0.0
H227 H 0.05257 0.25179 0.96206 0.0
H228 H 0.04902 0.22588 0.89719 0.0
H229 H 0.99392 0.31427 0.11853 0.0
H230 H 0.03986 0.32971 0.01425 0.0
H231 H 0.99197 0.23623 0.88598 0.0
H232 H 0.99122 0.34471 0.15512 0.0
H233 H 0.03676 0.36083 0.04825 0.0
C234 C 0.24442 0.03038 0.29491 0.0
C235 C 0.25878 0.04264 0.29956 0.0
C236 C 0.23521 0.02845 0.24171 0.0
C237 C 0.24017 0.03878 0.19229 0.0
C238 C 0.25349 0.05207 0.19842 0.0
C239 C 0.26271 0.054 0.25156 0.0
C240 C 0.23266 0.0345 0.13351 0.0
C241 C 0.2144 0.03062 0.127 0.0
C242 C 0.2074 0.0249 0.07283 0.0
C243 C 0.219 0.023 0.0238 0.0
C244 C 0.23745 0.02748 0.02944 0.0
C245 C 0.24402 0.03307 0.08455 0.0
C246 C 0.25062 0.02627 0.98005 0.0
C247 C 0.25407 1.00986 0.95161 0.0
C248 C 0.26217 0.04092 0.96906 0.0
C249 C 0.27749 0.03894 0.93405 0.0
C250 C 0.28175 0.02225 0.90842 0.0
C251 C 0.18789 0.02084 0.0716 0.0
C252 C 0.182 1.00316 0.08221 0.0
C253 C 0.17579 0.03506 0.08028 0.0
C254 C 0.1588 0.03189 0.1048 0.0
C255 C 0.15348 0.01437 0.12121 0.0
C256 C 0.16492 0.99994 0.10646 0.0
C257 C 0.26948 1.00787 0.91615 0.0
H258 H 0.24102 0.02156 0.33134 0.0
H259 H 0.22499 0.01807 0.23832 0.0
H260 H 0.25736 0.06043 0.16131 0.0
H261 H 0.27381 0.06346 0.25349 0.0
H262 H 0.20551 0.03186 0.16471 0.0
H263 H 0.25829 0.03569 0.08981 0.0
H264 H 0.2137 0.01847 0.98189 0.0
H265 H 0.2455 0.9983 0.95965 0.0
H266 H 0.25989 0.05372 0.99057 0.0
H267 H 0.28654 0.05033 0.93018 0.0
H268 H 0.19121 0.992 0.07701 0.0
H269 H 0.18017 0.04885 0.07375 0.0
H270 H 0.27205 0.99488 0.89636 0.0
H271 H 0.16117 0.98622 0.1171 0.0
H272 H 0.15056 0.04341 0.11563 0.0
C273 C 0.49302 0.28248 0.94755 0.0
C274 C 0.50778 0.29054 0.91862 0.0
C275 C 0.49529 0.26664 0.98079 0.0
C276 C 0.51231 0.25857 0.98527 0.0
C277 C 0.52665 0.26586 0.9526 0.0
C278 C 0.52442 0.2816 0.91965 0.0
C279 C 0.51636 0.24557 0.03325 0.0
C280 C 0.50873 0.22816 0.0366 0.0
C281 C 0.5138 0.21646 0.08283 0.0
C282 C 0.52594 0.22246 0.12598 0.0
C283 C 0.53274 0.24004 0.12506 0.0
C284 C 0.52807 0.25135 0.07793 0.0
C285 C 0.54293 0.24737 0.17619 0.0
C286 C 0.53798 0.24268 0.2341 0.0
C287 C 0.55603 0.26083 0.16798 0.0
C288 C 0.56224 0.2709 0.2157 0.0
C289 C 0.55578 0.26747 0.27297 0.0
C290 C 0.506 0.19825 0.09103 0.0
C291 C 0.48837 0.19636 0.11239 0.0
C292 C 0.51757 0.18336 0.09328 0.0
C293 C 0.51218 0.16738 0.12084 0.0
C294 C 0.49509 0.16596 0.14721 0.0
C295 C 0.48296 0.18036 0.14024 0.0
C296 C 0.54453 0.25247 0.28198 0.0
H297 H 0.48003 0.28903 0.94773 0.0
H298 H 0.48409 0.26147 0.00637 0.0
H299 H 0.53994 0.25996 0.95561 0.0
H300 H 0.53598 0.28723 0.89699 0.0
H301 H 0.49926 0.2237 0.00338 0.0
H302 H 0.53289 0.26514 0.07702 0.0
H303 H 0.52958 0.21348 0.16175 0.0
H304 H 0.52799 0.23235 0.24253 0.0
H305 H 0.56064 0.2644 0.1242 0.0
H306 H 0.57095 0.28227 0.20659 0.0
H307 H 0.4793 0.20775 0.11206 0.0
H308 H 0.53134 0.18461 0.07802 0.0
H309 H 0.53971 0.24906 0.32565 0.0
H310 H 0.4696 0.17963 0.15917 0.0
H311 H 0.52196 0.1567 0.12561 0.0
Sm312 Sm 0.01545 1.00167 0.71969 0.0
Sm313 Sm 0.98854 0.01171 0.61613 0.0
C314 C 0.02832 0.98926 0.81987 0.0
C315 C 0.04052 0.97452 0.8365 0.0
C316 C 0.03476 0.9618 0.87809 0.0
C317 C 0.04514 0.94662 0.88999 0.0
C318 C 0.06166 0.94391 0.86095 0.0
C319 C 0.06768 0.95702 0.8206 0.0
C320 C 0.05717 0.97213 0.80823 0.0
C321 C 0.03446 1.00563 0.61508 0.0
C322 C 0.99997 0.96997 0.62821 0.0
C323 C 0.97285 0.02862 0.52863 0.0
C324 C 0.97741 0.04679 0.50656 0.0
C325 C 0.99465 0.05037 0.48369 0.0
C326 C 1.00075 0.06803 0.47783 0.0
C327 C 0.9898 0.08249 0.49479 0.0
C328 C 0.9721 0.079 0.51344 0.0
C329 C 0.96595 0.06129 0.51912 0.0
C330 C 0.97311 1.00122 0.72109 0.0
C331 C 1.0077 0.04397 0.6957 0.0
O332 O 0.01271 0.98419 0.79837 0.0
O333 O 0.03542 1.00307 0.79202 0.0
O334 O 0.01786 1.00731 0.62353 0.0
O335 O 0.04209 1.00182 0.66502 0.0
O336 O 1.0067 0.97403 0.68081 0.0
O337 O 0.99374 0.98239 0.59171 0.0
O338 O 0.98488 0.01601 0.52002 0.0
O339 O 0.96608 0.02827 0.58192 0.0
O340 O 0.98672 0.01127 0.71542 0.0
O341 O 0.96667 0.99683 0.66976 0.0
O342 O 1.00092 0.03909 0.64417 0.0
O343 O 0.01232 0.03199 0.7361 0.0
H344 H 0.02189 0.96331 0.89998 0.0
H345 H 0.03984 0.93668 0.92039 0.0
H346 H 0.08041 0.95549 0.79797 0.0
H347 H 0.06189 0.9817 0.77559 0.0
H348 H 1.00386 0.03956 0.47341 0.0
H349 H 0.0143 0.07035 0.46182 0.0
H350 H 0.96335 0.08988 0.52675 0.0
H351 H 0.95264 0.05891 0.53705 0.0
Sm352 Sm 0.50905 0.02685 0.73695 0.0
Sm353 Sm 0.49966 0.99939 0.62358 0.0
C354 C 0.5243 0.03948 0.83254 0.0
C355 C 0.54274 0.03566 0.85318 0.0
C356 C 0.54776 0.01807 0.86902 0.0
C357 C 0.56586 0.01319 0.87019 0.0
C358 C 0.5793 0.02578 0.8554 0.0
C359 C 0.57434 0.04375 0.84493 0.0
C360 C 0.55624 0.04866 0.84434 0.0
C361 C 0.49899 0.04504 0.6349 0.0
C362 C 0.54129 0.01141 0.64579 0.0
C363 C 0.4852 0.98854 0.52449 0.0
C364 C 0.4682 0.99496 0.49955 0.0
C365 C 0.46253 0.01253 0.51233 0.0
C366 C 0.44487 0.01771 0.50163 0.0
C367 C 0.4324 1.00531 0.47888 0.0
C368 C 0.43828 0.98795 0.46345 0.0
C369 C 0.45609 0.98281 0.47387 0.0
C370 C 0.51001 0.98072 0.72386 0.0
C371 C 0.46742 0.01464 0.71618 0.0
O372 O 0.51264 0.02615 0.83427 0.0
O373 O 0.52362 0.04862 0.78312 0.0
O374 O 0.50098 0.0285 0.64347 0.0
O375 O 0.50189 0.05319 0.68463 0.0
O376 O 0.53663 0.01779 0.69841 0.0
O377 O 0.52951 1.00538 0.60647 0.0
O378 O 0.49847 1.00026 0.52586 0.0
O379 O 0.48322 0.97967 0.57406 0.0
O380 O 0.50829 0.99743 0.71692 0.0
O381 O 0.50674 0.97288 0.67372 0.0
O382 O 0.47212 1.00784 0.66411 0.0
O383 O 0.4792 0.02123 0.75459 0.0
H384 H 0.53773 1.00776 0.87691 0.0
H385 H 0.56928 0.99937 0.88038 0.0
H386 H 0.58431 0.05381 0.83342 0.0
H387 H 0.55277 0.06233 0.83216 0.0
H388 H 0.47146 0.02199 0.5338 0.0
H389 H 0.44084 0.03127 0.51298 0.0
H390 H 0.42894 0.97807 0.44622 0.0
H391 H 0.46012 0.96907 0.46505 0.0
Sm392 Sm 0.49142 0.51736 0.73896 0.0
Sm393 Sm 0.51813 0.50861 0.63253 0.0
C394 C 0.47371 0.52439 0.8366 0.0
C395 C 0.46392 0.54066 0.85497 0.0
C396 C 0.4706 0.55076 0.90226 0.0
C397 C 0.46463 0.56829 0.9116 0.0
C398 C 0.45158 0.57602 0.8744 0.0
C399 C 0.44376 0.56528 0.83027 0.0
C400 C 0.44996 0.54781 0.82031 0.0
C401 C 0.47625 0.51561 0.62871 0.0
C402 C 0.50751 0.55082 0.66075 0.0
C403 C 0.53091 0.49845 0.52951 0.0
C404 C 0.53126 0.48071 0.50163 0.0
C405 C 0.51896 0.46742 0.51964 0.0
C406 C 0.52158 0.44951 0.50377 0.0
C407 C 0.5366 0.44457 0.46993 0.0
C408 C 0.54836 0.45806 0.44933 0.0
C409 C 0.54573 0.47602 0.46531 0.0
C410 C 0.53752 0.51647 0.73406 0.0
C411 C 0.5044 0.47526 0.71726 0.0
O412 O 0.49115 0.52654 0.8316 0.0
O413 O 0.46671 0.51493 0.7935 0.0
O414 O 0.48825 0.50513 0.64817 0.0
O415 O 0.47136 0.52703 0.66883 0.0
O416 O 0.50087 0.54582 0.71251 0.0
O417 O 0.513 0.53904 0.62076 0.0
O418 O 0.51511 0.50605 0.53539 0.0
O419 O 0.54076 0.49948 0.57711 0.0
O420 O 0.52078 0.51613 0.72724 0.0
O421 O 0.54503 0.51286 0.6839 0.0
O422 O 0.51194 0.48001 0.66668 0.0
O423 O 0.49707 0.4871 0.75359 0.0
H424 H 0.4814 0.54556 0.92945 0.0
H425 H 0.47121 0.5761 0.9456 0.0
H426 H 0.43339 0.5706 0.8017 0.0
H427 H 0.44449 0.54033 0.7835 0.0
H428 H 0.50784 0.47074 0.54841 0.0
H429 H 0.51213 0.43945 0.51946 0.0
H430 H 0.56011 0.45463 0.42349 0.0
H431 H 0.55551 0.48608 0.45194 0.0
Sm432 Sm 1.00668 0.4978 0.68922 0.0
Sm433 Sm 0.01738 0.52454 0.57542 0.0
C434 C 0.9958 0.48612 0.79319 0.0
C435 C 0.97896 0.48809 0.82575 0.0
C436 C 0.96571 0.49987 0.8049 0.0
C437 C 0.94852 0.49959 0.82938 0.0
C438 C 0.94433 0.48751 0.8752 0.0
C439 C 0.95795 0.47635 0.89787 0.0
C440 C 0.97515 0.47659 0.87308 0.0
C441 C 0.0124 0.47879 0.58544 0.0
C442 C 0.975 0.51434 0.60098 0.0
C443 C 0.03084 0.53734 0.47694 0.0
C444 C 0.04727 0.54814 0.47017 0.0
C445 C 0.05894 0.54459 0.42324 0.0
C446 C 0.07689 0.55017 0.4261 0.0
C447 C 0.0834 0.55929 0.47617 0.0
C448 C 0.07122 0.56426 0.52048 0.0
C449 C 0.05331 0.55868 0.5176 0.0
C450 C 0.01173 0.54353 0.679 0.0
C451 C 0.04932 0.50892 0.66655 0.0
O452 O 1.00553 0.50073 0.78654 0.0
O453 O 0.99435 0.47665 0.74485 0.0
O454 O 0.01319 0.49547 0.59395 0.0
O455 O 1.00892 0.47107 0.63564 0.0
O456 O 0.97936 0.50825 0.65429 0.0
O457 O 0.98715 0.51906 0.56066 0.0
O458 O 0.0339 0.52089 0.49533 0.0
O459 O 0.01733 0.54509 0.50415 0.0
O460 O 1.01039 0.52691 0.67 0.0
O461 O 0.01654 0.55117 0.62989 0.0
O462 O 0.04502 0.51777 0.6175 0.0
O463 O 0.03729 0.5008 0.70089 0.0
H464 H 0.96842 0.50872 0.76795 0.0
H465 H 0.93831 0.5082 0.8104 0.0
H466 H 0.95519 0.46711 0.93374 0.0
H467 H 0.98525 0.46735 0.88937 0.0
H468 H 0.0546 0.53623 0.38682 0.0
H469 H 0.08596 0.54595 0.39148 0.0
H470 H 0.0758 0.57143 0.55922 0.0
H471 H 0.0446 0.56139 0.55477 0.0
H472 H 0.14978 0.99054 0.21314 0.0
H473 H 0.12563 0.98883 0.2855 0.0
H474 H 0.09707 0.03089 0.1944 0.0
H475 H 0.12097 0.03237 0.12024 0.0
H476 H 0.1027 0.03726 0.3171 0.0
H477 H 0.07334 0.9696 0.2783 0.0
H478 H 0.09745 0.96979 0.28384 0.0
H479 H 0.08671 0.98128 0.22367 0.0
C480 C 0.13813 0.99904 0.20698 0.0
C481 C 0.13744 0.01159 0.16032 0.0
C482 C 0.12432 0.99809 0.24883 0.0
C483 C 0.10945 1.00964 0.24528 0.0
C484 C 0.1084 0.02182 0.19801 0.0
H485 H 0.02018 1.00812 0.5036 0.0
H486 H 0.03677 1.0101 0.40979 0.0
C487 C 0.12215 0.02269 0.15575 0.0
C488 C 0.09592 1.00999 0.2937 0.0
H489 H 0.06631 0.98353 0.37055 0.0
C490 C 0.09456 0.0256 0.32825 0.0
C491 C 0.08521 0.99482 0.30814 0.0
C492 C 0.08558 0.97796 0.27127 0.0
C493 C 0.0834 0.02614 0.37828 0.0
C494 C 0.07336 1.01069 0.39428 0.0
C495 C 0.07409 0.99535 0.35835 0.0
C496 C 0.06309 1.00983 0.45046 0.0
C497 C 0.08267 0.04311 0.41454 0.0
C498 C 0.07238 1.00896 0.5042 0.0
C499 C 0.06298 1.00772 0.55743 0.0
C500 C 0.04407 1.00746 0.55815 0.0
C501 C 0.03474 1.00845 0.50435 0.0
C502 C 0.04419 1.0095 0.45083 0.0
H503 H 0.08818 0.05489 0.39017 0.0
H504 H 0.06861 0.04607 0.42792 0.0
H505 H 0.09074 0.04123 0.45522 0.0
H506 H 0.08696 1.00905 0.50488 0.0
H507 H 0.07055 1.00693 0.59814 0.0
H508 H 0.50359 0.13009 0.13412 0.0
H509 H 0.50084 0.10614 0.20803 0.0
H510 H 0.47526 0.14326 0.32712 0.0
H511 H 0.47803 0.16719 0.25402 0.0
H512 H 0.51669 0.10642 0.3163 0.0
H513 H 0.44307 0.09951 0.34429 0.0
H514 H 0.453 0.11103 0.28208 0.0
H515 H 0.45055 0.12238 0.35163 0.0
C516 C 0.49715 0.1331 0.17574 0.0
C517 C 0.49099 0.15061 0.18786 0.0
C518 C 0.49554 0.11937 0.21792 0.0
C519 C 0.48764 0.12279 0.273 0.0
C520 C 0.48099 0.1401 0.2845 0.0
H521 H 0.48366 0.0778 0.62022 0.0
H522 H 0.48006 0.0948 0.52839 0.0
C523 C 0.48257 0.15382 0.24242 0.0
C524 C 0.48787 0.10888 0.32046 0.0
H525 H 0.46138 0.08748 0.42221 0.0
C526 C 0.50457 0.10205 0.33881 0.0
C527 C 0.47206 0.10319 0.35003 0.0
C528 C 0.45365 0.10927 0.33064 0.0
C529 C 0.50597 0.09037 0.38745 0.0
C530 C 0.49021 0.08511 0.41812 0.0
C531 C 0.47346 0.09153 0.39878 0.0
C532 C 0.49101 0.07395 0.47263 0.0
C533 C 0.52442 0.08444 0.40726 0.0
C534 C 0.498 0.05638 0.47181 0.0
C535 C 0.5001 0.04666 0.52439 0.0
C536 C 0.49502 0.05423 0.57852 0.0
C537 C 0.48757 0.07158 0.57903 0.0
C538 C 0.48548 0.08129 0.52659 0.0
H539 H 0.53528 0.09265 0.38683 0.0
H540 H 0.52569 0.08534 0.45593 0.0
H541 H 0.52651 0.0702 0.39438 0.0
H542 H 0.50222 0.05036 0.43067 0.0
H543 H 0.50634 0.03356 0.52296 0.0
H544 H 0.36301 0.47412 0.22214 0.0
H545 H 0.38652 0.4751 0.29704 0.0
H546 H 0.40497 0.52612 0.22904 0.0
H547 H 0.3818 0.52499 0.15223 0.0
H548 H 0.43343 0.50238 0.26541 0.0
H549 H 0.38066 0.50987 0.43686 0.0
H550 H 0.37812 0.49038 0.39084 0.0
H551 H 0.37601 0.51249 0.35929 0.0
C552 C 0.37234 0.48534 0.22179 0.0
C553 C 0.37036 0.49954 0.181 0.0
C554 C 0.38567 0.48597 0.26528 0.0
C555 C 0.39729 0.50084 0.26943 0.0
C556 C 0.39606 0.51457 0.22697 0.0
H557 H 0.45165 0.53837 0.5818 0.0
H558 H 0.434 0.53455 0.49194 0.0
C559 C 0.38272 0.51395 0.18329 0.0
C560 C 0.40983 0.50264 0.32032 0.0
H561 H 0.41057 0.50693 0.4702 0.0
C562 C 0.42847 0.50335 0.31023 0.0
C563 C 0.40333 0.50413 0.37875 0.0
C564 C 0.38344 0.50435 0.39232 0.0
C565 C 0.44077 0.50536 0.35709 0.0
C566 C 0.43424 0.50655 0.41559 0.0
C567 C 0.4156 0.5059 0.42546 0.0
C568 C 0.4463 0.5093 0.46732 0.0
C569 C 0.46059 0.50667 0.34352 0.0
C570 C 0.45929 0.49646 0.4834 0.0
C571 C 0.46949 0.49865 0.53502 0.0
C572 C 0.46677 0.51366 0.57157 0.0
C573 C 0.45404 0.52663 0.55469 0.0
C574 C 0.44392 0.52446 0.50327 0.0
H575 H 0.46309 0.5097 0.29625 0.0
H576 H 0.46711 0.51725 0.37071 0.0
H577 H 0.46709 0.49363 0.35404 0.0
H578 H 0.46117 0.48448 0.45704 0.0
H579 H 0.4791 0.48838 0.54719 0.0
H580 H 0.98585 0.37495 0.15303 0.0
H581 H 0.98777 0.39947 0.22343 0.0
H582 H 0.04538 0.40134 0.20127 0.0
H583 H 0.04379 0.37566 0.13521 0.0
H584 H 0.0391 0.4012 0.30981 0.0
H585 H 0.99316 0.45197 0.21787 0.0
H586 H 0.98135 0.43109 0.22627 0.0
H587 H 1.00011 0.4326 0.17595 0.0
C588 C 0.99898 0.38052 0.16285 0.0
C589 C 0.01468 0.37295 0.13853 0.0
C590 C 1.00001 0.39491 0.20253 0.0
C591 C 0.01671 0.40256 0.21758 0.0
C592 C 0.03229 0.39576 0.19061 0.0
H593 H 0.01676 0.49249 0.47315 0.0
H594 H 0.02007 0.47542 0.38114 0.0
C595 C 0.03132 0.38112 0.15193 0.0
C596 C 0.01811 0.41612 0.26608 0.0
H597 H 0.99843 0.45378 0.32346 0.0
C598 C 0.03039 0.41286 0.312 0.0
C599 C 1.00708 0.43164 0.26916 0.0
C600 C 0.99486 0.43712 0.21924 0.0
C601 C 0.03136 0.42408 0.36166 0.0
C602 C 0.01918 0.4386 0.36724 0.0
C603 C 1.00754 0.44245 0.32008 0.0
C604 C 0.0177 0.44925 0.42279 0.0
C605 C 0.04556 0.42018 0.40749 0.0
C606 C 0.01498 0.44037 0.47679 0.0
C607 C 0.0136 0.45009 0.5292 0.0
C608 C 0.01449 0.46898 0.52901 0.0
C609 C 0.01663 0.47797 0.47492 0.0
C610 C 0.0183 0.46819 0.42226 0.0
H611 H 0.05751 0.41367 0.38737 0.0
H612 H 0.05003 0.43263 0.43026 0.0
H613 H 0.04 0.4107 0.44073 0.0
H614 H 0.01375 0.42585 0.47847 0.0
H615 H 0.01161 0.44274 0.56998 0.0
H616 H 0.88102 0.01873 0.20355 0.0
H617 H 0.90434 0.01816 0.12684 0.0
H618 H 0.87744 0.97359 0.04305 0.0
H619 H 0.85403 0.97421 0.11829 0.0
H620 H 0.92751 0.987 0.08064 0.0
H621 H 0.87965 0.01635 0.91881 0.0
H622 H 0.8763 0.01796 0.99746 0.0
H623 H 0.87158 0.99723 0.95994 0.0
C624 C 0.88017 1.00868 0.16914 0.0
C625 C 0.86559 0.99652 0.16731 0.0
C626 C 0.89355 1.00834 0.1255 0.0
C627 C 0.89252 0.99594 0.079 0.0
C628 C 0.87845 0.98332 0.07841 0.0
H629 H 0.94287 0.98117 0.7393 0.0
H630 H 0.92467 0.97922 0.82898 0.0
C631 C 0.86515 0.9836 0.12196 0.0
C632 C 0.90537 0.99681 0.02887 0.0
H633 H 0.90765 1.00661 0.88196 0.0
C634 C 0.92326 0.99138 0.03722 0.0
C635 C 0.89975 1.00251 0.97232 0.0
C636 C 0.88082 1.00899 0.96131 0.0
C637 C 0.93556 0.99099 0.98993 0.0
C638 C 0.92987 0.99656 0.93312 0.0
C639 C 0.91202 1.00224 0.92528 0.0
C640 C 0.94202 0.9965 0.88076 0.0
C641 C 0.95432 0.98408 1.00089 0.0
C642 C 0.95798 1.00671 0.87992 0.0
C643 C 0.96849 1.00772 0.82868 0.0
C644 C 0.96311 0.99874 0.77706 0.0
C645 C 0.94735 0.98825 0.77834 0.0
C646 C 0.93693 0.98715 0.82958 0.0
H647 H 0.95499 0.97573 0.04152 0.0
H648 H 0.95917 0.97593 0.96315 0.0
H649 H 0.9636 0.99568 0.00661 0.0
H650 H 0.96203 0.01437 0.91824 0.0
H651 H 0.98053 0.01599 0.82893 0.0
H652 H 0.49646 0.86453 0.121 0.0
H653 H 0.49676 0.88913 0.04982 0.0
H654 H 0.54648 0.90888 0.12387 0.0
H655 H 0.54644 0.8839 0.19486 0.0
H656 H 0.49617 0.92487 0.05748 0.0
H657 H 0.56039 0.90378 0.95364 0.0
H658 H 0.54878 0.88998 0.00699 0.0
H659 H 0.56209 0.90889 0.0307 0.0
C660 C 0.50733 0.87425 0.12292 0.0
C661 C 0.52144 0.87222 0.16372 0.0
C662 C 0.50753 0.8883 0.08188 0.0
C663 C 0.52181 0.90073 0.08056 0.0
C664 C 0.53555 0.89921 0.12286 0.0
H665 H 0.5095 0.99327 0.8375 0.0
H666 H 0.51456 0.97606 0.92831 0.0
C667 C 0.53547 0.88499 0.16368 0.0
C668 C 0.52229 0.91482 0.03365 0.0
H669 H 0.54648 0.9296 0.91472 0.0
C670 C 0.50724 0.92601 0.02651 0.0
C671 C 0.53666 0.91619 0.9928 0.0
C672 C 0.55283 0.90398 0.99588 0.0
C673 C 0.50589 0.9381 0.97894 0.0
C674 C 0.52025 0.93947 0.9381 0.0
C675 C 0.53553 0.92866 0.94622 0.0
C676 C 0.51899 0.9507 0.8837 0.0
C677 C 0.48867 0.94858 0.97135 0.0
C678 C 0.52066 0.9425 0.82828 0.0
C679 C 0.51831 0.95249 0.77659 0.0
C680 C 0.51426 0.97093 0.77904 0.0
C681 C 0.51304 0.97926 0.83432 0.0
C682 C 0.51559 0.9693 0.88624 0.0
H683 H 0.47749 0.94278 0.99784 0.0
H684 H 0.49085 0.96264 0.98625 0.0
H685 H 0.48447 0.94891 0.92441 0.0
H686 H 0.52329 0.9282 0.82494 0.0
H687 H 0.51928 0.94564 0.73461 0.0
H688 H 0.64544 0.55834 0.15297 0.0
H689 H 0.62121 0.5565 0.08067 0.0
H690 H 0.61242 0.50081 0.12655 0.0
H691 H 0.63732 0.50217 0.19607 0.0
H692 H 0.61574 0.50401 0.01284 0.0
H693 H 0.56747 0.55581 0.08575 0.0
H694 H 0.58965 0.56498 0.07691 0.0
H695 H 0.58557 0.54801 0.1322 0.0
C696 C 0.63829 0.54571 0.14814 0.0
C697 C 0.64355 0.53038 0.18046 0.0
C698 C 0.6242 0.54476 0.10722 0.0
C699 C 0.61478 0.52856 0.09833 0.0
C700 C 0.61939 0.5135 0.13263 0.0
H701 H 0.52474 0.51603 0.84786 0.0
H702 H 0.54244 0.51897 0.93899 0.0
C703 C 0.63359 0.51437 0.17305 0.0
C704 C 0.60158 0.52671 0.04909 0.0
H705 H 0.56459 0.54589 0.98508 0.0
C706 C 0.60444 0.51307 0.00735 0.0
C707 C 0.58665 0.53833 0.04188 0.0
C708 C 0.58203 0.55247 0.08694 0.0
C709 C 0.59324 0.51108 0.95797 0.0
C710 C 0.579 0.52339 0.94883 0.0
C711 C 0.57567 0.53663 0.99154 0.0
C712 C 0.56788 0.52293 0.89422 0.0
C713 C 0.59678 0.49572 0.91615 0.0
C714 C 0.57615 0.52472 0.83889 0.0
C715 C 0.56611 0.52297 0.78717 0.0
C716 C 0.54749 0.51972 0.78951 0.0
C717 C 0.53902 0.51868 0.84479 0.0
C718 C 0.54914 0.5203 0.89681 0.0
H719 H 0.60413 0.48459 0.93825 0.0
H720 H 0.58404 0.49026 0.89773 0.0
H721 H 0.60524 0.50061 0.87912 0.0
H722 H 0.59049 0.52719 0.83567 0.0
H723 H 0.57299 0.52398 0.7452 0.0
H724 H 0.01062 0.63363 0.17378 0.0
H725 H 1.00958 0.60828 0.10488 0.0
H726 H 0.98589 0.64263 0.97285 0.0
H727 H 0.98686 0.66795 0.04121 0.0
H728 H 0.97111 0.60783 0.97361 0.0
H729 H 0.04591 0.60623 0.96971 0.0
H730 H 0.03581 0.60336 0.04103 0.0
H731 H 0.03354 0.62444 1.00279 0.0
C732 C 1.00502 0.63574 0.13027 0.0
C733 C 0.99896 0.6529 0.11297 0.0
C734 C 1.00446 0.62124 0.0909 0.0
C735 C 0.99798 0.62363 0.03327 0.0
C736 C 0.99097 0.64045 0.01704 0.0
H737 H 0.02408 0.57676 0.70464 0.0
H738 H 0.01993 0.59401 0.79491 0.0
C739 C 0.99146 0.65493 0.05639 0.0
C740 C 0.99968 0.60916 0.98832 0.0
H741 H 0.03078 0.58569 0.90877 0.0
C742 C 0.98413 0.60281 0.95983 0.0
C743 C 0.01671 0.60276 0.96998 0.0
C744 C 0.03398 0.60961 0.99699 0.0
C745 C 0.98517 0.59057 0.91266 0.0
C746 C 1.00222 0.58436 0.89392 0.0
C747 C 0.01771 0.59034 0.92349 0.0
C748 C 1.00455 0.57334 0.83977 0.0
C749 C 0.96812 0.58502 0.88147 0.0
C750 C 0.99736 0.55586 0.83484 0.0
C751 C 0.99973 0.54592 0.7828 0.0
C752 C 1.00941 0.55327 0.73528 0.0
C753 C 0.0166 0.5707 0.7406 0.0
C754 C 0.01427 0.58057 0.79226 0.0
H755 H 0.95645 0.5934 0.8947 0.0
H756 H 0.96983 0.58601 0.83296 0.0
H757 H 0.96498 0.57078 0.89243 0.0
H758 H 0.98993 0.54993 0.87108 0.0
H759 H 0.99366 0.53273 0.77927 0.0
H760 H 1.00765 0.23479 0.33708 0.0
H761 H 1.00479 0.21015 0.40662 0.0
H762 H 0.06257 0.20523 0.41421 0.0
H763 H 0.06556 0.23008 0.34357 0.0
H764 H 0.0474 0.17501 0.38084 0.0
H765 H 0.01066 0.19802 0.57692 0.0
H766 H 0.9991 0.20553 0.5122 0.0
H767 H 0.02158 0.21358 0.52701 0.0
C768 C 0.01981 0.22901 0.35525 0.0
C769 C 0.03685 0.23434 0.33458 0.0
C770 C 0.01815 0.21492 0.39546 0.0
C771 C 0.03346 0.20597 0.4164 0.0
C772 C 0.05057 0.21205 0.39892 0.0
H773 H 0.02283 0.09339 0.53374 0.0
H774 H 0.0358 0.12369 0.52899 0.0
C775 C 0.05226 0.22614 0.35832 0.0
C776 C 0.03124 0.18837 0.44626 0.0
H777 H 1.00461 0.16667 0.54651 0.0
C778 C 0.03853 0.1732 0.41836 0.0
C779 C 0.01966 0.186 0.49519 0.0
C780 C 0.01249 0.20172 0.52982 0.0
C781 C 0.03326 0.15577 0.43451 0.0
C782 C 0.02051 0.1535 0.48011 0.0
C783 C 0.01424 0.16854 0.51107 0.0
C784 C 0.01208 0.13582 0.491 0.0
C785 C 0.04032 0.13998 0.39978 0.0
C786 C 0.9943 0.13284 0.47264 0.0
C787 C 0.98689 0.11556 0.47483 0.0
C788 C 0.99718 0.10103 0.4954 0.0
C789 C 0.01474 0.10426 0.51617 0.0
C790 C 0.02212 0.12154 0.5141 0.0
H791 H 0.04856 0.14427 0.36134 0.0
H792 H 0.04883 0.13148 0.42875 0.0
H793 H 0.029 0.13152 0.3837 0.0
H794 H 0.98641 0.14375 0.45441 0.0
H795 H 0.97335 0.11348 0.45848 0.0
H796 H 0.27532 0.07009 0.3601 0.0
H797 H 0.30292 0.06733 0.41859 0.0
H798 H 0.29944 1.0095 0.4063 0.0
H799 H 0.27203 0.01208 0.34873 0.0
H800 H 0.31558 0.02133 0.51139 0.0
H801 H 0.34493 0.05339 0.31068 0.0
H802 H 0.32869 0.06646 0.35046 0.0
H803 H 0.3218 0.04614 0.31392 0.0
C804 C 0.28017 0.0568 0.37156 0.0
C805 C 0.27173 0.04132 0.34891 0.0
C806 C 0.29589 0.05525 0.40491 0.0
C807 C 0.3034 0.03823 0.41524 0.0
C808 C 0.29387 0.02276 0.39855 0.0
H809 H 0.40904 0.99757 0.38934 0.0
H810 H 0.37743 1.00631 0.38146 0.0
C811 C 0.27814 0.02428 0.36568 0.0
C812 C 0.32238 0.03632 0.43317 0.0
H813 H 0.36497 0.04167 0.37975 0.0
C814 C 0.32645 0.02602 0.48331 0.0
C815 C 0.33644 0.0422 0.39556 0.0
C816 C 0.33284 0.05254 0.33939 0.0
C817 C 0.34421 0.02092 0.49583 0.0
C818 C 0.35816 0.02654 0.45754 0.0
C819 C 0.35416 0.03741 0.4088 0.0
C820 C 0.3769 0.02047 0.46473 0.0
C821 C 0.34779 1.00892 0.54822 0.0
C822 C 0.38695 0.02553 0.51416 0.0
C823 C 0.40491 0.02038 0.51914 0.0
C824 C 0.41319 1.01031 0.47417 0.0
C825 C 0.40301 1.00518 0.42484 0.0
C826 C 0.38501 1.01024 0.42016 0.0
H827 H 0.33529 1.00237 0.56465 0.0
H828 H 0.3577 0.9983 0.53712 0.0
H829 H 0.35346 0.01715 0.58447 0.0
H830 H 0.38098 0.03371 0.54835 0.0
H831 H 0.41232 0.02428 0.55822 0.0
H832 H 0.58497 0.28956 0.2951 0.0
H833 H 0.5841 0.31797 0.34891 0.0
H834 H 0.53085 0.30514 0.41196 0.0
H835 H 0.53103 0.27749 0.35575 0.0
H836 H 0.53174 0.33521 0.34506 0.0
H837 H 0.58516 0.33871 0.51523 0.0
H838 H 0.59308 0.33122 0.44469 0.0
H839 H 0.57719 0.31766 0.48497 0.0
C840 C 0.57321 0.29259 0.32138 0.0
C841 C 0.55792 0.28136 0.3197 0.0
C842 C 0.57285 0.30874 0.35289 0.0
C843 C 0.55737 0.31368 0.38419 0.0
C844 C 0.54293 0.30156 0.388 0.0
H845 H 0.53439 0.41679 0.54848 0.0
H846 H 0.54005 0.38485 0.53016 0.0
C847 C 0.54316 0.28559 0.35598 0.0
C848 C 0.5547 0.33257 0.4025 0.0
H849 H 0.57227 0.36683 0.48453 0.0
C850 C 0.5405 0.34204 0.37611 0.0
C851 C 0.56614 0.34144 0.44287 0.0
C852 C 0.58116 0.3317 0.47404 0.0
C853 C 0.53759 0.36024 0.38815 0.0
C854 C 0.54942 0.36931 0.4267 0.0
C855 C 0.56339 0.35981 0.45436 0.0
C856 C 0.54729 0.38868 0.43868 0.0
C857 C 0.52184 0.36963 0.35958 0.0
C858 C 0.5497 0.40132 0.39333 0.0
C859 C 0.54632 0.41952 0.4034 0.0
C860 C 0.54047 0.42533 0.45905 0.0
C861 C 0.53852 0.41265 0.50479 0.0
C862 C 0.54194 0.39446 0.49468 0.0
H863 H 0.51177 0.35989 0.34233 0.0
H864 H 0.51506 0.37872 0.39132 0.0
H865 H 0.52676 0.3779 0.32208 0.0
H866 H 0.55395 0.39704 0.3499 0.0
H867 H 0.54792 0.42898 0.36738 0.0
H868 H 0.24917 0.51918 0.40763 0.0
H869 H 0.22714 0.53093 0.47804 0.0
H870 H 0.1841 0.50869 0.37344 0.0
H871 H 0.20562 0.49771 0.30206 0.0
H872 H 0.20038 0.55605 0.44202 0.0
H873 H 0.16931 0.49607 0.54379 0.0
H874 H 0.19152 0.4957 0.51123 0.0
H875 H 0.17181 0.49315 0.46576 0.0
C876 C 0.23501 0.51664 0.39991 0.0
C877 C 0.22921 0.50756 0.34877 0.0
C878 C 0.2225 0.52322 0.4405 0.0
C879 C 0.20406 0.52046 0.43125 0.0
C880 C 0.19831 0.51058 0.38213 0.0
H881 H 0.1095 0.56896 0.397 0.0
H882 H 0.1417 0.56368 0.40693 0.0
C883 C 0.21072 0.50424 0.34128 0.0
C884 C 0.19043 0.52982 0.46703 0.0
H885 H 0.14928 0.52167 0.52703 0.0
C886 C 0.18944 0.54864 0.46258 0.0
C887 C 0.17641 0.52023 0.49504 0.0
C888 C 0.17741 0.50017 0.50483 0.0
C889 C 0.17376 0.55783 0.47881 0.0
C890 C 0.15876 0.54785 0.49902 0.0
C891 C 0.16065 0.52935 0.51045 0.0
C892 C 0.14032 0.55532 0.49841 0.0
C893 C 0.17307 0.57797 0.47094 0.0
C894 C 0.12885 0.55269 0.5467 0.0
C895 C 0.11037 0.55543 0.54078 0.0
C896 C 0.10305 0.56076 0.48624 0.0
C897 C 0.11474 0.56474 0.43935 0.0
C898 C 0.1332 0.56195 0.44531 0.0
H899 H 0.18647 0.5841 0.47953 0.0
H900 H 0.16941 0.58113 0.42466 0.0
H901 H 0.16302 0.58422 0.5007 0.0
H902 H 0.13405 0.54737 0.58772 0.0
H903 H 0.10172 0.55201 0.5776 0.0
H904 H 0.04739 0.79563 0.98101 0.0
H905 H 0.05706 0.82198 0.92633 0.0
H906 H 0.11241 0.81056 0.96999 0.0
H907 H 0.10254 0.78426 0.02741 0.0
H908 H 0.10638 0.84312 0.99429 0.0
H909 H 0.07842 0.83428 0.77349 0.0
H910 H 0.06037 0.83006 0.82376 0.0
H911 H 0.07992 0.81565 0.82446 0.0
C912 C 0.06168 0.79835 0.97739 0.0
C913 C 0.07422 0.78784 0.0082 0.0
C914 C 0.06725 0.81341 0.94561 0.0
C915 C 0.08554 0.81813 0.94263 0.0
C916 C 0.09824 0.80714 0.97115 0.0
H917 H 0.08032 0.92407 0.77922 0.0
H918 H 0.09361 0.89434 0.7926 0.0
C919 C 0.09261 0.79215 0.00394 0.0
C920 C 0.09069 0.83592 0.91774 0.0
H921 H 0.07686 0.86564 0.81283 0.0
C922 C 0.10042 0.8479 0.95357 0.0
C923 C 0.08365 0.84221 0.86355 0.0
C924 C 0.07522 0.82972 0.81899 0.0
C925 C 0.10131 0.86632 0.94023 0.0
C926 C 0.09159 0.87301 0.89127 0.0
C927 C 0.08384 0.86073 0.8516 0.0
C928 C 0.08694 0.89236 0.88528 0.0
C929 C 0.11212 0.87845 0.98013 0.0
C930 C 0.07914 0.90143 0.93312 0.0
C931 C 0.07195 0.9186 0.926 0.0
C932 C 0.07187 0.92695 0.87037 0.0
C933 C 0.0803 0.91817 0.82289 0.0
C934 C 0.0878 0.90107 0.83034 0.0
H935 H 0.12449 0.87149 0.99536 0.0
H936 H 0.11605 0.89118 0.95781 0.0
H937 H 0.10406 0.88166 0.0199 0.0
H938 H 0.07774 0.89489 0.97557 0.0
H939 H 0.06588 0.92505 0.9638 0.0
H940 H 0.7359 0.97364 0.96008 0.0
H941 H 0.71257 0.97082 0.88523 0.0
H942 H 0.70735 0.02866 0.88004 0.0
H943 H 0.73149 0.03159 0.95127 0.0
H944 H 0.68143 0.9793 0.91948 0.0
H945 H 0.69182 0.01843 0.71764 0.0
H946 H 0.71047 0.0121 0.76431 0.0
H947 H 0.69815 0.03262 0.77777 0.0
C948 C 0.73047 0.9858 0.94073 0.0
C949 C 0.73519 1.00285 0.96285 0.0
C950 C 0.71706 0.98416 0.89791 0.0
C951 C 0.70803 0.99949 0.87707 0.0
C952 C 0.71419 0.01658 0.89436 0.0
H953 H 0.61 0.044 0.88588 0.0
H954 H 0.64108 0.03437 0.87208 0.0
C955 C 0.72779 0.01824 0.93629 0.0
C956 C 0.68978 0.99781 0.85117 0.0
H957 H 0.6608 0.02054 0.76146 0.0
C958 C 0.67704 0.98775 0.88324 0.0
C959 C 0.68392 1.00869 0.80369 0.0
C960 C 0.69694 0.01838 0.76365 0.0
C961 C 0.65859 0.99 0.87395 0.0
C962 C 0.65277 1.00255 0.83133 0.0
C963 C 0.6654 0.01117 0.79492 0.0
C964 C 0.63405 1.00899 0.83146 0.0
C965 C 0.64543 0.98025 0.91358 0.0
C966 C 0.61992 0.99789 0.81275 0.0
C967 C 0.60213 1.00334 0.82067 0.0
C968 C 0.59822 0.01998 0.84736 0.0
C969 C 0.61251 0.0312 0.86474 0.0
C970 C 0.63027 0.02575 0.85671 0.0
H971 H 0.65227 0.97161 0.94667 0.0
H972 H 0.63687 0.99011 0.93718 0.0
H973 H 0.63646 0.97162 0.88656 0.0
H974 H 0.62266 0.98492 0.79305 0.0
H975 H 0.59145 0.99456 0.80547 0.0
H976 H 0.46296 0.7446 0.0039 0.0
H977 H 0.44876 0.72206 0.94148 0.0
H978 H 0.49813 0.69167 0.93919 0.0
H979 H 0.51305 0.71518 0.99475 0.0
H980 H 0.48163 0.68576 0.84357 0.0
H981 H 0.43083 0.67907 0.02287 0.0
H982 H 0.43046 0.70004 0.9838 0.0
H983 H 0.44961 0.69425 0.02863 0.0
C984 C 0.47106 0.7335 0.98837 0.0
C985 C 0.48908 0.73145 0.00652 0.0
C986 C 0.46274 0.72039 0.95347 0.0
C987 C 0.47205 0.70467 0.9382 0.0
C988 C 0.49046 0.70347 0.95138 0.0
H989 H 0.45027 0.59732 0.97292 0.0
H990 H 0.45137 0.62994 0.97603 0.0
C991 C 0.49895 0.71684 0.98427 0.0
C992 C 0.46262 0.68856 0.91443 0.0
H993 H 0.43137 0.65674 0.9518 0.0
C994 C 0.47051 0.67947 0.86682 0.0
C995 C 0.44798 0.68042 0.94458 0.0
C996 C 0.43929 0.68884 0.99803 0.0
C997 C 0.46554 0.66176 0.85253 0.0
C998 C 0.45144 0.65334 0.88456 0.0
C999 C 0.44225 0.66319 0.92774 0.0
C1000 C 0.44815 0.63362 0.88178 0.0
C1001 C 0.47654 0.65188 0.80697 0.0
C1002 C 0.44517 0.62471 0.8282 0.0
C1003 C 0.44531 0.6059 0.826 0.0
C1004 C 0.44785 0.59567 0.87773 0.0
C1005 C 0.44892 0.6047 0.93196 0.0
C1006 C 0.44931 0.62343 0.93386 0.0
H1007 H 0.48915 0.65919 0.7956 0.0
H1008 H 0.48023 0.63824 0.82288 0.0
H1009 H 0.46857 0.65043 0.76593 0.0
H1010 H 0.44353 0.63225 0.78771 0.0
H1011 H 0.44444 0.5995 0.78329 0.0
H1012 H 0.78051 0.50376 0.024 0.0
H1013 H 0.80934 0.50351 0.97365 0.0
H1014 H 0.81493 0.44686 0.0105 0.0
H1015 H 0.78561 0.44678 0.05993 0.0
H1016 H 0.8394 0.49215 0.04914 0.0
H1017 H 0.83511 0.45467 0.83724 0.0
H1018 H 0.81588 0.46579 0.86947 0.0
H1019 H 0.82395 0.44514 0.9006 0.0
C1020 C 0.78737 0.49101 0.01921 0.0
C1021 C 0.78077 0.47528 0.04646 0.0
C1022 C 0.80396 0.49096 0.99071 0.0
C1023 C 0.8142 0.4752 0.98862 0.0
C1024 C 0.80708 0.45912 0.01136 0.0
H1025 H 0.92604 0.4565 0.90051 0.0
H1026 H 0.89456 0.45336 0.9299 0.0
C1027 C 0.79042 0.45914 0.03994 0.0
C1028 C 0.83332 0.4764 0.97207 0.0
H1029 H 0.86402 0.46405 0.86834 0.0
C1030 C 0.84482 0.48606 0.00953 0.0
C1031 C 0.84023 0.46824 0.92085 0.0
C1032 C 0.82821 0.45792 0.8793 0.0
C1033 C 0.86318 0.48778 0.99717 0.0
C1034 C 0.87009 0.47995 0.94523 0.0
C1035 C 0.85861 0.47009 0.90802 0.0
C1036 C 0.88919 0.48196 0.92869 0.0
C1037 C 0.87504 0.49769 0.04038 0.0
C1038 C 0.89654 0.4991 0.91846 0.0
C1039 C 0.91459 0.50097 0.90263 0.0
C1040 C 0.92553 0.48571 0.8961 0.0
C1041 C 0.91808 0.46855 0.90634 0.0
C1042 C 0.90005 0.4667 0.92244 0.0
H1043 H 0.8688 0.49839 0.08481 0.0
H1044 H 0.88839 0.49112 0.04447 0.0
H1045 H 0.87717 0.51168 0.02458 0.0
H1046 H 0.88828 0.51102 0.92219 0.0
H1047 H 0.91995 0.51437 0.89528 0.0
H1048 H 0.99371 0.20355 0.90385 0.0
H1049 H 0.99175 0.17329 0.86214 0.0
H1050 H 0.03914 0.18372 0.75783 0.0
H1051 H 0.04127 0.21401 0.79976 0.0
H1052 H 0.98853 0.1596 0.75042 0.0
H1053 H 0.0537 0.139 0.84865 0.0
H1054 H 0.04264 0.1597 0.86834 0.0
H1055 H 0.05518 0.15821 0.80075 0.0
C1056 C 1.00355 0.19956 0.87126 0.0
C1057 C 0.01773 0.21124 0.85555 0.0
C1058 C 1.00246 0.18217 0.84762 0.0
C1059 C 0.01552 0.17602 0.80774 0.0
C1060 C 0.02918 0.18794 0.7897 0.0
H1061 H 1.00376 0.07268 0.62016 0.0
H1062 H 1.00602 0.10476 0.64327 0.0
C1063 C 0.03034 0.2053 0.81358 0.0
C1064 C 0.01511 0.15696 0.78692 0.0
H1065 H 0.03918 0.11779 0.78756 0.0
C1066 C 0.99962 0.15046 0.75838 0.0
C1067 C 0.02949 0.14493 0.79791 0.0
C1068 C 0.04613 0.15071 0.83105 0.0
C1069 C 0.99807 0.13233 0.74086 0.0
C1070 C 0.01257 0.12036 0.75116 0.0
C1071 C 0.0281 0.12692 0.77931 0.0
C1072 C 0.01163 0.10079 0.73597 0.0
C1073 C 0.98066 0.1261 0.71335 0.0
C1074 C 0.01467 0.08773 0.77973 0.0
C1075 C 0.01368 0.06934 0.76647 0.0
C1076 C 1.00957 0.06352 0.70905 0.0
C1077 C 1.00681 0.07662 0.66498 0.0
C1078 C 1.00796 0.09503 0.67822 0.0
H1079 H 0.9694 0.1354 0.72345 0.0
H1080 H 0.98225 0.12568 0.66475 0.0
H1081 H 0.97692 0.11241 0.72892 0.0
H1082 H 0.0176 0.09176 0.82458 0.0
H1083 H 0.01587 0.0597 0.80158 0.0
H1084 H 0.30352 0.9922 0.90814 0.0
H1085 H 0.3339 0.98938 0.8685 0.0
H1086 H 0.33158 0.04399 0.80443 0.0
H1087 H 0.30075 0.04653 0.8401 0.0
H1088 H 0.34887 0.02418 0.72794 0.0
H1089 H 0.37715 1.00951 0.94865 0.0
H1090 H 0.36073 0.99318 0.92615 0.0
H1091 H 0.35407 0.01617 0.9383 0.0
C1092 C 0.30924 1.00352 0.88446 0.0
C1093 C 0.29957 0.01972 0.87833 0.0
C1094 C 0.32684 1.00198 0.86266 0.0
C1095 C 0.3354 0.01667 0.83513 0.0
C1096 C 0.32548 0.03251 0.82624 0.0
H1097 H 0.45122 0.03186 0.809 0.0
H1098 H 0.41932 0.03235 0.83459 0.0
C1099 C 0.30781 0.034 0.84728 0.0
C1100 C 0.35474 0.01579 0.81677 0.0
H1101 H 0.39717 1.00716 0.86787 0.0
C1102 C 0.35942 0.02047 0.75865 0.0
C1103 C 0.36867 0.01129 0.85686 0.0
C1104 C 0.36496 1.00744 0.92109 0.0
C1105 C 0.37747 0.02074 0.73961 0.0
C1106 C 0.39132 0.0156 0.77912 0.0
C1107 C 0.38663 0.01094 0.83722 0.0
C1108 C 0.41078 0.01549 0.762 0.0
C1109 C 0.38149 0.02714 0.67785 0.0
C1110 C 0.41684 1.00579 0.7127 0.0
C1111 C 0.43513 1.00569 0.69741 0.0
C1112 C 0.44791 0.01499 0.73177 0.0
C1113 C 0.44185 0.02451 0.78149 0.0
C1114 C 0.42354 0.02478 0.79629 0.0
H1115 H 0.37056 0.03583 0.66052 0.0
H1116 H 0.39431 0.03482 0.6759 0.0
H1117 H 0.38264 0.01529 0.6484 0.0
H1118 H 0.40746 0.99809 0.68627 0.0
H1119 H 0.43926 0.9981 0.65904 0.0
H1120 H 0.48107 0.30449 0.84757 0.0
H1121 H 0.47947 0.33492 0.8051 0.0
H1122 H 0.52946 0.34874 0.89047 0.0
H1123 H 0.5313 0.31848 0.9316 0.0
H1124 H 0.47716 0.36728 0.85349 0.0
H1125 H 0.54051 0.36515 0.72681 0.0
H1126 H 0.53069 0.34527 0.75951 0.0
H1127 H 0.54445 0.3602 0.80302 0.0
C1128 C 0.49175 0.31401 0.85691 0.0
C1129 C 0.50647 0.30892 0.89213 0.0
C1130 C 0.49085 0.3314 0.83258 0.0
C1131 C 0.50459 0.34408 0.84319 0.0
C1132 C 0.51902 0.3391 0.87965 0.0
H1133 H 0.49714 0.46039 0.82536 0.0
H1134 H 0.49651 0.42857 0.8524 0.0
C1135 C 0.52002 0.32175 0.90336 0.0
C1136 C 0.50365 0.3627 0.81826 0.0
H1137 H 0.52844 0.39457 0.74523 0.0
C1138 C 0.48831 0.37317 0.82926 0.0
C1139 C 0.51799 0.3704 0.78546 0.0
C1140 C 0.53423 0.35959 0.76744 0.0
C1141 C 0.4872 0.39122 0.81049 0.0
C1142 C 0.50208 0.39929 0.7814 0.0
C1143 C 0.51712 0.3886 0.76838 0.0
C1144 C 0.50245 0.41879 0.76472 0.0
C1145 C 0.46994 0.40132 0.82145 0.0
C1146 C 0.50675 0.42412 0.70687 0.0
C1147 C 0.50751 0.44241 0.69151 0.0
C1148 C 0.5039 0.45582 0.73361 0.0
C1149 C 0.49976 0.45046 0.79157 0.0
C1150 C 0.49924 0.4322 0.80704 0.0
H1151 H 0.45828 0.39198 0.8248 0.0
H1152 H 0.471 0.40864 0.86389 0.0
H1153 H 0.46721 0.41122 0.78586 0.0
H1154 H 0.50943 0.41412 0.67336 0.0
H1155 H 0.51075 0.446 0.64645 0.0
H1156 H 0.20104 0.52362 0.93043 0.0
H1157 H 0.17163 0.52458 0.88263 0.0
H1158 H 0.1899 0.48651 0.75266 0.0
H1159 H 0.2193 0.48511 0.80159 0.0
H1160 H 0.16002 0.53438 0.77795 0.0
H1161 H 0.14513 0.46172 0.80697 0.0
H1162 H 0.1642 0.47245 0.84136 0.0
H1163 H 0.16518 0.4659 0.76509 0.0
C1164 C 0.19888 0.51556 0.89133 0.0
C1165 C 0.21255 0.50425 0.86996 0.0
C1166 C 0.18199 0.51608 0.86407 0.0
C1167 C 0.1783 0.50537 0.81452 0.0
C1168 C 0.19214 0.49451 0.79178 0.0
H1169 H 0.07904 0.52197 0.60717 0.0
H1170 H 0.11055 0.52107 0.63861 0.0
C1171 C 0.20901 0.4938 0.81958 0.0
C1172 C 0.15991 0.50553 0.78763 0.0
H1173 H 0.12412 0.4786 0.75176 0.0
C1174 C 0.15221 0.52216 0.77208 0.0
C1175 C 0.1495 0.48964 0.78067 0.0
C1176 C 0.15632 0.47144 0.79991 0.0
C1177 C 0.13448 0.52335 0.75047 0.0
C1178 C 0.12425 0.50743 0.7423 0.0
C1179 C 0.13199 0.4908 0.75731 0.0
C1180 C 0.10514 0.50776 0.72176 0.0
C1181 C 0.12661 0.54174 0.73918 0.0
C1182 C 0.09157 0.5001 0.75695 0.0
C1183 C 0.07357 0.50038 0.73879 0.0
C1184 C 0.06861 0.50832 0.68479 0.0
C1185 C 0.08227 0.51582 0.64917 0.0
C1186 C 0.10033 0.51544 0.66731 0.0
H1187 H 0.13451 0.55254 0.76105 0.0
H1188 H 0.12663 0.54448 0.69116 0.0
H1189 H 0.11249 0.54243 0.75499 0.0
H1190 H 0.09488 0.49405 0.79904 0.0
H1191 H 0.06353 0.49446 0.76755 0.0
H1192 H 0.01782 0.80011 0.50364 0.0
H1193 H 0.01504 0.82964 0.55044 0.0
H1194 H 0.98368 0.8485 0.40302 0.0
H1195 H 0.98637 0.81907 0.35609 0.0
H1196 H 0.02756 0.86152 0.50793 0.0
H1197 H 0.95388 0.86629 0.53987 0.0
H1198 H 0.96492 0.84533 0.5228 0.0
H1199 H 0.95996 0.86126 0.46521 0.0
C1200 C 1.01016 0.81048 0.48145 0.0
C1201 C 1.00227 0.80715 0.42609 0.0
C1202 C 1.00855 0.82737 0.50834 0.0
C1203 C 0.99896 0.84129 0.4807 0.0
C1204 C 0.99076 0.83789 0.42604 0.0
H1205 H 0.98572 0.95598 0.52657 0.0
H1206 H 0.98558 0.92462 0.49431 0.0
C1207 C 0.99231 0.821 0.39921 0.0
C1208 C 0.99864 0.85969 0.50686 0.0
H1209 H 0.9706 0.89368 0.54948 0.0
C1210 C 0.01509 0.86846 0.51764 0.0
C1211 C 0.98239 0.86882 0.51944 0.0
C1212 C 0.96429 0.85989 0.5118 0.0
C1213 C 0.01575 0.88623 0.53887 0.0
C1214 C 0.9995 0.89546 0.55047 0.0
C1215 C 0.98305 0.88663 0.54044 0.0
C1216 C 0.99932 0.91444 0.57143 0.0
C1217 C 0.03383 0.8952 0.54687 0.0
C1218 C 1.00687 0.91917 0.62601 0.0
C1219 C 1.00698 0.93715 0.64474 0.0
C1220 C 0.99948 0.95078 0.6093 0.0
C1221 C 0.99168 0.94591 0.55504 0.0
C1222 C 0.99155 0.92795 0.53648 0.0
H1223 H 0.0447 0.88785 0.52357 0.0
H1224 H 0.03354 0.90929 0.53047 0.0
H1225 H 0.03722 0.89551 0.59448 0.0
H1226 H 0.01268 0.90895 0.65421 0.0
H1227 H 0.01304 0.94034 0.68686 0.0
H1228 H 0.70619 0.98079 0.47515 0.0
H1229 H 0.677 0.97964 0.52434 0.0
H1230 H 0.67365 0.03752 0.51698 0.0
H1231 H 0.70338 0.03891 0.47183 0.0
H1232 H 0.65926 0.02591 0.61622 0.0
H1233 H 0.63144 0.98493 0.43355 0.0
H1234 H 0.64963 0.97414 0.47143 0.0
H1235 H 0.65367 0.9946 0.43072 0.0
C1236 C 0.69952 0.99334 0.48523 0.0
C1237 C 0.70717 1.00995 0.4682 0.0
C1238 C 0.6826 0.99263 0.51259 0.0
C1239 C 0.67272 1.00845 0.5226 0.0
C1240 C 0.68079 0.02507 0.50902 0.0
H1241 H 0.55659 0.01516 0.53712 0.0
H1242 H 0.58855 0.01478 0.51183 0.0
C1243 C 0.6978 0.02582 0.48249 0.0
C1244 C 0.65373 1.00779 0.54454 0.0
H1245 H 0.61206 0.99069 0.51337 0.0
C1246 C 0.64892 0.01823 0.59368 0.0
C1247 C 0.64011 0.99796 0.51486 0.0
C1248 C 0.64389 0.98742 0.45941 0.0
C1249 C 0.63096 0.01933 0.61335 0.0
C1250 C 0.61737 1.00919 0.58428 0.0
C1251 C 0.62232 0.9985 0.53586 0.0
C1252 C 0.59786 1.00999 0.60103 0.0
C1253 C 0.62676 0.03195 0.66353 0.0
C1254 C 0.59215 1.00739 0.65958 0.0
C1255 C 0.57384 1.00819 0.67439 0.0
C1256 C 0.56072 1.01087 0.63056 0.0
C1257 C 0.56635 0.01299 0.57185 0.0
C1258 C 0.58467 0.01275 0.55739 0.0
H1259 H 0.63719 0.04261 0.66798 0.0
H1260 H 0.61351 0.03854 0.65746 0.0
H1261 H 0.62652 0.02425 0.70545 0.0
H1262 H 0.60183 1.00452 0.69381 0.0
H1263 H 0.56991 1.00629 0.71996 0.0
H1264 H 0.54448 0.71402 0.50878 0.0
H1265 H 0.5413 0.68404 0.55255 0.0
H1266 H 0.48448 0.68463 0.51476 0.0
H1267 H 0.48762 0.71425 0.4689 0.0
H1268 H 0.52052 0.66938 0.644 0.0
H1269 H 0.50175 0.63978 0.42803 0.0
H1270 H 0.51075 0.66226 0.43486 0.0
H1271 H 0.4875 0.65785 0.45163 0.0
C1272 C 0.53128 0.70782 0.50986 0.0
C1273 C 0.51636 0.71657 0.48455 0.0
C1274 C 0.52947 0.6907 0.53529 0.0
C1275 C 0.51272 0.6819 0.53592 0.0
C1276 C 0.49762 0.69099 0.5138 0.0
H1277 H 0.49122 0.57906 0.71766 0.0
H1278 H 0.492 0.61097 0.69054 0.0
C1279 C 0.49941 0.70808 0.48822 0.0
C1280 C 0.51129 0.66289 0.5567 0.0
H1281 H 0.50085 0.62038 0.51038 0.0
C1282 C 0.51619 0.65865 0.61489 0.0
C1283 C 0.50586 0.64884 0.51848 0.0
C1284 C 0.50131 0.65231 0.45462 0.0
C1285 C 0.5158 0.64078 0.63586 0.0
C1286 C 0.5101 0.62676 0.59781 0.0
C1287 C 0.50515 0.63107 0.53971 0.0
C1288 C 0.50985 0.60742 0.61603 0.0
C1289 C 0.52202 0.63706 0.69799 0.0
C1290 C 0.51923 0.59462 0.58256 0.0
C1291 C 0.51857 0.57633 0.59736 0.0
C1292 C 0.50855 0.57035 0.64626 0.0
C1293 C 0.49924 0.58319 0.68008 0.0
C1294 C 0.49976 0.6015 0.66482 0.0
H1295 H 0.53045 0.64823 0.71542 0.0
H1296 H 0.5101 0.63565 0.72711 0.0
H1297 H 0.52987 0.62439 0.70035 0.0
H1298 H 0.52709 0.59878 0.54465 0.0
H1299 H 0.52594 0.56689 0.57034 0.0
H1300 H 0.81599 0.53992 0.38318 0.0
H1301 H 0.84747 0.53979 0.41423 0.0
H1302 H 0.83317 0.50967 0.56993 0.0
H1303 H 0.80148 0.51008 0.53989 0.0
H1304 H 0.8587 0.53828 0.58968 0.0
H1305 H 0.87888 0.4941 0.40411 0.0
H1306 H 0.86701 0.51412 0.38287 0.0
H1307 H 0.85569 0.49712 0.42552 0.0
C1308 C 0.81942 0.53357 0.42467 0.0
C1309 C 0.80611 0.52496 0.45891 0.0
C1310 C 0.83751 0.53332 0.44199 0.0
C1311 C 0.84276 0.52443 0.49385 0.0
C1312 C 0.82946 0.51648 0.52946 0.0
H1313 H 0.94581 0.50415 0.6677 0.0
H1314 H 0.91396 0.50682 0.64302 0.0
C1315 C 0.81135 0.51667 0.51209 0.0
C1316 C 0.86215 0.52303 0.51002 0.0
H1317 H 0.90229 0.50579 0.4634 0.0
C1318 C 0.86824 0.53113 0.56222 0.0
C1319 C 0.8746 0.51371 0.47416 0.0
C1320 C 0.86876 0.50412 0.41877 0.0
C1321 C 0.88649 0.53051 0.57884 0.0
C1322 C 0.89896 0.52115 0.54298 0.0
C1323 C 0.89281 0.513 0.49088 0.0
C1324 C 0.91843 0.51962 0.55846 0.0
C1325 C 0.8923 0.5403 0.63387 0.0
C1326 C 0.93172 0.5254 0.51854 0.0
C1327 C 0.95003 0.52368 0.5322 0.0
C1328 C 0.95552 0.51609 0.58615 0.0
C1329 C 0.94217 0.51018 0.6259 0.0
C1330 C 0.92387 0.51183 0.61205 0.0
H1331 H 0.88254 0.55093 0.64634 0.0
H1332 H 0.89308 0.53057 0.67094 0.0
H1333 H 0.90575 0.5466 0.62808 0.0
H1334 H 0.92791 0.53134 0.47674 0.0
H1335 H 0.95985 0.52837 0.50041 0.0
loop_
_geom_bond_atom_site_label_1
_geom_bond_atom_site_label_2
_geom_bond_distance
_geom_bond_site_symmetry_2
_ccdc_geom_bond_type
C0 C1 1.386 . S
C0 C2 1.397 . S
C0 H24 0.931 . S
C1 C0 1.386 . S
C1 C5 1.397 . S
C2 C0 1.397 . S
C2 C3 1.384 . S
C2 H25 0.930 . S
C3 C2 1.384 . S
C3 C4 1.377 . S
C3 C6 1.481 . S
C4 C3 1.377 . S
C4 C5 1.389 . S
C4 H26 0.929 . S
C5 C1 1.397 . S
C5 C4 1.389 . S
C5 H27 0.931 . S
C6 C3 1.481 . S
C6 C7 1.387 . S
C6 C11 1.390 . S
C7 C6 1.387 . S
C7 C8 1.401 . S
C7 H28 0.930 . S
C8 C7 1.401 . S
C8 C9 1.376 . S
C8 C17 1.511 . S
C9 C8 1.376 . S
C9 C10 1.392 . S
C9 H30 0.931 . S
C10 C9 1.392 . S
C10 C11 1.361 . S
C10 C12 1.500 . S
C11 C6 1.390 . S
C11 C10 1.361 . S
C11 H29 0.931 . S
C12 C10 1.500 . S
C12 C13 1.371 . S
C12 C14 1.365 . S
C13 C12 1.371 . S
C13 C23 1.386 . S
C13 H31 0.931 . S
C14 C12 1.365 . S
C14 C15 1.409 . S
C14 H32 0.929 . S
C15 C14 1.409 . S
C15 C16 1.380 . S
C15 H33 0.930 . S
C16 C15 1.380 . S
C16 C23 1.357 . S
C17 C8 1.511 . S
C17 C18 1.341 . S
C17 C19 1.371 . S
C18 C17 1.341 . S
C18 C22 1.394 . S
C18 H34 0.930 . S
C19 C17 1.371 . S
C19 C20 1.392 . S
C19 H35 0.931 . S
C20 C19 1.392 . S
C20 C21 1.331 . S
C20 H38 0.932 . S
C21 C20 1.331 . S
C21 C22 1.336 . S
C22 C18 1.394 . S
C22 C21 1.336 . S
C22 H37 0.929 . S
C23 C13 1.386 . S
C23 C16 1.357 . S
C23 H36 0.928 . S
H24 C0 0.931 . S
H25 C2 0.930 . S
H26 C4 0.929 . S
H27 C5 0.931 . S
H28 C7 0.930 . S
H29 C11 0.931 . S
H30 C9 0.931 . S
H31 C13 0.931 . S
H32 C14 0.929 . S
H33 C15 0.930 . S
H34 C18 0.930 . S
H35 C19 0.931 . S
H36 C23 0.928 . S
H37 C22 0.929 . S
H38 C20 0.932 . S
C39 C40 1.394 . S
C39 C41 1.397 . S
C39 H63 0.931 . S
C40 C39 1.394 . S
C40 C44 1.389 1_655 S
C41 C39 1.397 . S
C41 C42 1.389 . S
C41 H64 0.930 . S
C42 C41 1.389 . S
C42 C43 1.373 1_655 S
C42 C45 1.480 . S
C43 C42 1.373 1_455 S
C43 C44 1.389 . S
C43 H65 0.929 . S
C44 C40 1.389 1_455 S
C44 C43 1.389 . S
C44 H66 0.931 . S
C45 C42 1.480 . S
C45 C46 1.388 . S
C45 C50 1.390 . S
C46 C45 1.388 . S
C46 C47 1.402 . S
C46 H67 0.930 . S
C47 C46 1.402 . S
C47 C48 1.376 . S
C47 C56 1.513 . S
C48 C47 1.376 . S
C48 C49 1.392 . S
C48 H69 0.934 . S
C49 C48 1.392 . S
C49 C50 1.361 . S
C49 C51 1.499 1_655 S
C50 C45 1.390 . S
C50 C49 1.361 . S
C50 H68 0.931 . S
C51 C49 1.499 1_455 S
C51 C52 1.364 1_455 S
C51 C53 1.373 . S
C52 C51 1.364 1_655 S
C52 C62 1.386 . S
C52 H70 0.931 . S
C53 C51 1.373 . S
C53 C54 1.409 . S
C53 H71 0.929 . S
C54 C53 1.409 . S
C54 C55 1.377 . S
C54 H72 0.930 . S
C55 C54 1.377 . S
C55 C62 1.360 1_455 S
C56 C47 1.513 . S
C56 C57 1.341 . S
C56 C58 1.371 1_655 S
C57 C56 1.341 . S
C57 C61 1.394 . S
C57 H73 0.930 . S
C58 C56 1.371 1_455 S
C58 C59 1.392 . S
C58 H74 0.931 . S
C59 C58 1.392 . S
C59 C60 1.322 1_455 S
C59 H77 0.932 . S
C60 C59 1.322 1_655 S
C60 C61 1.345 . S
C61 C57 1.394 . S
C61 C60 1.345 . S
C61 H76 0.929 . S
C62 C52 1.386 . S
C62 C55 1.360 1_655 S
C62 H75 0.928 . S
H63 C39 0.931 . S
H64 C41 0.930 . S
H65 C43 0.929 . S
H66 C44 0.931 . S
H67 C46 0.930 . S
H68 C50 0.931 . S
H69 C48 0.934 . S
H70 C52 0.931 . S
H71 C53 0.929 . S
H72 C54 0.930 . S
H73 C57 0.930 . S
H74 C58 0.931 . S
H75 C62 0.928 . S
H76 C61 0.929 . S
H77 C59 0.932 . S
C78 C79 1.386 . S
C78 C80 1.397 . S
C78 H102 0.931 . S
C79 C78 1.386 . S
C79 C83 1.397 1_565 S
C80 C78 1.397 . S
C80 C81 1.384 . S
C80 H103 0.930 . S
C81 C80 1.384 . S
C81 C82 1.377 1_565 S
C81 C84 1.481 . S
C82 C81 1.377 1_545 S
C82 C83 1.389 . S
C82 H104 0.929 . S
C83 C79 1.397 1_545 S
C83 C82 1.389 . S
C83 H105 0.931 . S
C84 C81 1.481 . S
C84 C85 1.387 . S
C84 C89 1.390 . S
C85 C84 1.387 . S
C85 C86 1.401 . S
C85 H106 0.930 . S
C86 C85 1.401 . S
C86 C87 1.376 . S
C86 C95 1.511 . S
C87 C86 1.376 . S
C87 C88 1.392 . S
C87 H108 0.931 . S
C88 C87 1.392 . S
C88 C89 1.361 . S
C88 C90 1.500 . S
C89 C84 1.390 . S
C89 C88 1.361 . S
C89 H107 0.931 . S
C90 C88 1.500 . S
C90 C91 1.371 . S
C90 C92 1.365 1_565 S
C91 C90 1.371 . S
C91 C101 1.386 . S
C91 H109 0.931 . S
C92 C90 1.365 1_545 S
C92 C93 1.409 . S
C92 H110 0.929 . S
C93 C92 1.409 . S
C93 C94 1.380 1_545 S
C93 H111 0.930 . S
C94 C93 1.380 1_565 S
C94 C101 1.357 . S
C95 C86 1.511 . S
C95 C96 1.341 . S
C95 C97 1.367 1_565 S
C96 C95 1.341 . S
C96 C100 1.394 . S
C96 H112 0.930 . S
C97 C95 1.367 1_545 S
C97 C98 1.392 . S
C97 H113 0.935 . S
C98 C97 1.392 . S
C98 C99 1.315 1_545 S
C98 H116 0.952 . S
C99 C98 1.315 1_565 S
C99 C100 1.336 . S
C100 C96 1.394 . S
C100 C99 1.336 . S
C100 H115 0.929 . S
C101 C91 1.386 . S
C101 C94 1.357 . S
C101 H114 0.928 . S
H102 C78 0.931 . S
H103 C80 0.930 . S
H104 C82 0.929 . S
H105 C83 0.931 . S
H106 C85 0.930 . S
H107 C89 0.931 . S
H108 C87 0.931 . S
H109 C91 0.931 . S
H110 C92 0.929 . S
H111 C93 0.930 . S
H112 C96 0.930 . S
H113 C97 0.935 . S
H114 C101 0.928 . S
H115 C100 0.929 . S
H116 C98 0.952 . S
C117 C118 1.386 . S
C117 C119 1.397 . S
C117 H141 0.931 . S
C118 C117 1.386 . S
C118 C122 1.397 . S
C119 C117 1.397 . S
C119 C120 1.384 . S
C119 H142 0.930 . S
C120 C119 1.384 . S
C120 C121 1.377 . S
C120 C123 1.481 . S
C121 C120 1.377 . S
C121 C122 1.389 . S
C121 H143 0.929 . S
C122 C118 1.397 . S
C122 C121 1.389 . S
C122 H144 0.931 . S
C123 C120 1.481 . S
C123 C124 1.387 . S
C123 C128 1.390 . S
C124 C123 1.387 . S
C124 C125 1.401 . S
C124 H145 0.930 . S
C125 C124 1.401 . S
C125 C126 1.376 . S
C125 C134 1.511 . S
C126 C125 1.376 . S
C126 C127 1.392 . S
C126 H147 0.931 . S
C127 C126 1.392 . S
C127 C128 1.361 . S
C127 C129 1.500 . S
C128 C123 1.390 . S
C128 C127 1.361 . S
C128 H146 0.931 . S
C129 C127 1.500 . S
C129 C130 1.371 . S
C129 C131 1.365 . S
C130 C129 1.371 . S
C130 C140 1.386 . S
C130 H148 0.931 . S
C131 C129 1.365 . S
C131 C132 1.409 . S
C131 H149 0.929 . S
C132 C131 1.409 . S
C132 C133 1.380 . S
C132 H150 0.930 . S
C133 C132 1.380 . S
C133 C140 1.357 . S
C134 C125 1.511 . S
C134 C135 1.341 . S
C134 C136 1.371 . S
C135 C134 1.341 . S
C135 C139 1.394 . S
C135 H151 0.930 . S
C136 C134 1.371 . S
C136 C137 1.392 . S
C136 H152 0.931 . S
C137 C136 1.392 . S
C137 C138 1.331 . S
C137 H155 0.932 . S
C138 C137 1.331 . S
C138 C139 1.336 . S
C139 C135 1.394 . S
C139 C138 1.336 . S
C139 H154 0.929 . S
C140 C130 1.386 . S
C140 C133 1.357 . S
C140 H153 0.928 . S
H141 C117 0.931 . S
H142 C119 0.930 . S
H143 C121 0.929 . S
H144 C122 0.931 . S
H145 C124 0.930 . S
H146 C128 0.931 . S
H147 C126 0.931 . S
H148 C130 0.931 . S
H149 C131 0.929 . S
H150 C132 0.930 . S
H151 C135 0.930 . S
H152 C136 0.931 . S
H153 C140 0.928 . S
H154 C139 0.929 . S
H155 C137 0.932 . S
C156 C157 1.386 . S
C156 C158 1.397 . S
C156 H180 0.931 . S
C157 C156 1.386 . S
C157 C161 1.397 . S
C158 C156 1.397 . S
C158 C159 1.384 . S
C158 H181 0.930 . S
C159 C158 1.384 . S
C159 C160 1.377 . S
C159 C162 1.481 . S
C160 C159 1.377 . S
C160 C161 1.389 . S
C160 H182 0.929 . S
C161 C157 1.397 . S
C161 C160 1.389 . S
C161 H183 0.931 . S
C162 C159 1.481 . S
C162 C163 1.387 . S
C162 C167 1.390 . S
C163 C162 1.387 . S
C163 C164 1.401 . S
C163 H184 0.930 . S
C164 C163 1.401 . S
C164 C165 1.376 1_554 S
C164 C173 1.511 . S
C165 C164 1.376 1_556 S
C165 C166 1.392 . S
C165 H186 0.931 . S
C166 C165 1.392 . S
C166 C167 1.361 1_556 S
C166 C168 1.500 . S
C167 C162 1.390 . S
C167 C166 1.361 1_554 S
C167 H185 0.931 . S
C168 C166 1.500 . S
C168 C169 1.371 . S
C168 C170 1.365 . S
C169 C168 1.371 . S
C169 C179 1.386 . S
C169 H187 0.931 . S
C170 C168 1.365 . S
C170 C171 1.409 . S
C170 H188 0.929 . S
C171 C170 1.409 . S
C171 C172 1.380 . S
C171 H189 0.930 . S
C172 C171 1.380 . S
C172 C179 1.357 . S
C173 C164 1.511 . S
C173 C174 1.341 . S
C173 C175 1.371 . S
C174 C173 1.341 . S
C174 C178 1.394 . S
C174 H190 0.930 . S
C175 C173 1.371 . S
C175 C176 1.392 . S
C175 H191 0.931 1_554 S
C176 C175 1.392 . S
C176 C177 1.331 . S
C176 H194 0.932 . S
C177 C176 1.331 . S
C177 C178 1.336 . S
C178 C174 1.394 . S
C178 C177 1.336 . S
C178 H193 0.929 . S
C179 C169 1.386 . S
C179 C172 1.357 . S
C179 H192 0.928 . S
H180 C156 0.931 . S
H181 C158 0.930 . S
H182 C160 0.929 . S
H183 C161 0.931 . S
H184 C163 0.930 . S
H185 C167 0.931 . S
H186 C165 0.931 . S
H187 C169 0.931 . S
H188 C170 0.929 . S
H189 C171 0.930 . S
H190 C174 0.930 . S
H191 C175 0.931 1_556 S
H192 C179 0.928 . S
H193 C178 0.929 . S
H194 C176 0.932 . S
C195 C196 1.386 . S
C195 C197 1.397 . S
C195 H219 0.931 . S
C196 C195 1.386 . S
C196 C200 1.398 1_655 S
C197 C195 1.397 . S
C197 C198 1.389 1_655 S
C197 H220 0.930 . S
C198 C197 1.389 1_455 S
C198 C199 1.373 . S
C198 C201 1.480 1_455 S
C199 C198 1.373 . S
C199 C200 1.389 . S
C199 H221 0.929 . S
C200 C196 1.398 1_455 S
C200 C199 1.389 . S
C200 H222 0.931 . S
C201 C198 1.480 1_655 S
C201 C202 1.386 . S
C201 C206 1.390 . S
C202 C201 1.386 . S
C202 C203 1.400 . S
C202 H223 0.935 . S
C203 C202 1.400 . S
C203 C204 1.376 1_554 S
C203 C212 1.512 . S
C204 C203 1.376 1_556 S
C204 C205 1.392 1_655 S
C204 H225 0.933 . S
C205 C204 1.392 1_455 S
C205 C206 1.361 1_456 S
C205 C207 1.499 . S
C206 C201 1.390 . S
C206 C205 1.361 1_654 S
C206 H224 0.931 1_655 S
C207 C205 1.499 . S
C207 C208 1.357 1_455 S
C207 C209 1.380 . S
C208 C207 1.357 1_655 S
C208 C218 1.386 . S
C208 H226 0.931 . S
C209 C207 1.380 . S
C209 C210 1.409 . S
C209 H227 0.929 . S
C210 C209 1.409 . S
C210 C211 1.384 . S
C210 H228 0.930 . S
C211 C210 1.384 . S
C211 C218 1.353 1_455 S
C212 C203 1.512 . S
C212 C213 1.341 . S
C212 C214 1.371 1_655 S
C213 C212 1.341 . S
C213 C217 1.394 . S
C213 H229 0.930 . S
C214 C212 1.371 1_455 S
C214 C215 1.392 . S
C214 H230 0.931 1_554 S
C215 C214 1.392 . S
C215 C216 1.327 1_455 S
C215 H233 0.932 . S
C216 C215 1.327 1_655 S
C216 C217 1.340 . S
C217 C213 1.394 . S
C217 C216 1.340 . S
C217 H232 0.929 . S
C218 C208 1.386 . S
C218 C211 1.353 1_655 S
C218 H231 0.928 . S
H219 C195 0.931 . S
H220 C197 0.930 . S
H221 C199 0.929 . S
H222 C200 0.931 . S
H223 C202 0.935 . S
H224 C206 0.931 1_455 S
H225 C204 0.933 . S
H226 C208 0.931 . S
H227 C209 0.929 . S
H228 C210 0.930 . S
H229 C213 0.930 . S
H230 C214 0.931 1_556 S
H231 C218 0.928 . S
H232 C217 0.929 . S
H233 C215 0.932 . S
C234 C235 1.386 1_565 S
C234 C236 1.397 . S
C234 H258 0.931 . S
C235 C234 1.386 1_545 S
C235 C239 1.397 . S
C236 C234 1.397 . S
C236 C237 1.384 1_565 S
C236 H259 0.930 . S
C237 C236 1.384 1_545 S
C237 C238 1.377 . S
C237 C240 1.481 . S
C238 C237 1.377 . S
C238 C239 1.389 . S
C238 H260 0.929 . S
C239 C235 1.397 . S
C239 C238 1.389 . S
C239 H261 0.931 . S
C240 C237 1.481 . S
C240 C241 1.387 . S
C240 C245 1.390 . S
C241 C240 1.387 . S
C241 C242 1.401 . S
C241 H262 0.930 . S
C242 C241 1.401 . S
C242 C243 1.376 1_554 S
C242 C251 1.511 . S
C243 C242 1.376 1_556 S
C243 C244 1.392 . S
C243 H264 0.931 . S
C244 C243 1.392 . S
C244 C245 1.361 1_556 S
C244 C246 1.500 . S
C245 C240 1.390 . S
C245 C244 1.361 1_554 S
C245 H263 0.931 . S
C246 C244 1.500 . S
C246 C247 1.371 1_545 S
C246 C248 1.365 . S
C247 C246 1.371 1_565 S
C247 C257 1.386 . S
C247 H265 0.931 . S
C248 C246 1.365 . S
C248 C249 1.409 . S
C248 H266 0.929 . S
C249 C248 1.409 . S
C249 C250 1.380 . S
C249 H267 0.930 . S
C250 C249 1.380 . S
C250 C257 1.357 1_545 S
C251 C242 1.511 . S
C251 C252 1.341 1_545 S
C251 C253 1.371 . S
C252 C251 1.341 1_565 S
C252 C256 1.397 . S
C252 H268 0.930 . S
C253 C251 1.371 . S
C253 C254 1.392 . S
C253 H269 0.931 1_554 S
C254 C253 1.392 . S
C254 C255 1.331 . S
C254 H272 0.932 . S
C255 C254 1.331 . S
C255 C256 1.319 1_545 S
C256 C252 1.397 . S
C256 C255 1.319 1_565 S
C256 H271 0.948 . S
C257 C247 1.386 . S
C257 C250 1.357 1_565 S
C257 H270 0.928 . S
H258 C234 0.931 . S
H259 C236 0.930 . S
H260 C238 0.929 . S
H261 C239 0.931 . S
H262 C241 0.930 . S
H263 C245 0.931 . S
H264 C243 0.931 . S
H265 C247 0.931 . S
H266 C248 0.929 . S
H267 C249 0.930 . S
H268 C252 0.930 . S
H269 C253 0.931 1_556 S
H270 C257 0.928 . S
H271 C256 0.948 . S
H272 C254 0.932 . S
C273 C274 1.386 . S
C273 C275 1.397 . S
C273 H297 0.931 . S
C274 C273 1.386 . S
C274 C278 1.397 . S
C275 C273 1.397 . S
C275 C276 1.384 . S
C275 H298 0.930 . S
C276 C275 1.384 . S
C276 C277 1.377 . S
C276 C279 1.481 . S
C277 C276 1.377 . S
C277 C278 1.389 . S
C277 H299 0.929 . S
C278 C274 1.397 . S
C278 C277 1.389 . S
C278 H300 0.931 . S
C279 C276 1.481 . S
C279 C280 1.387 . S
C279 C284 1.390 1_556 S
C280 C279 1.387 . S
C280 C281 1.401 1_556 S
C280 H301 0.930 . S
C281 C280 1.401 1_554 S
C281 C282 1.376 . S
C281 C290 1.511 . S
C282 C281 1.376 . S
C282 C283 1.392 . S
C282 H303 0.931 . S
C283 C282 1.392 . S
C283 C284 1.361 . S
C283 C285 1.500 . S
C284 C279 1.390 1_554 S
C284 C283 1.361 . S
C284 H302 0.931 . S
C285 C283 1.500 . S
C285 C286 1.371 . S
C285 C287 1.365 . S
C286 C285 1.371 . S
C286 C296 1.386 . S
C286 H304 0.931 . S
C287 C285 1.365 . S
C287 C288 1.409 . S
C287 H305 0.929 . S
C288 C287 1.409 . S
C288 C289 1.380 . S
C288 H306 0.930 . S
C289 C288 1.380 . S
C289 C296 1.357 . S
C290 C281 1.511 . S
C290 C291 1.341 . S
C290 C292 1.371 . S
C291 C290 1.341 . S
C291 C295 1.394 . S
C291 H307 0.930 1_554 S
C292 C290 1.371 . S
C292 C293 1.392 . S
C292 H308 0.931 . S
C293 C292 1.392 . S
C293 C294 1.331 . S
C293 H311 0.932 . S
C294 C293 1.331 . S
C294 C295 1.336 . S
C295 C291 1.394 . S
C295 C294 1.336 . S
C295 H310 0.929 . S
C296 C286 1.386 . S
C296 C289 1.357 . S
C296 H309 0.928 . S
H297 C273 0.931 . S
H298 C275 0.930 . S
H299 C277 0.929 . S
H300 C278 0.931 . S
H301 C280 0.930 . S
H302 C284 0.931 . S
H303 C282 0.931 . S
H304 C286 0.931 . S
H305 C287 0.929 . S
H306 C288 0.930 . S
H307 C291 0.930 1_556 S
H308 C292 0.931 . S
H309 C296 0.928 . S
H310 C295 0.929 . S
H311 C293 0.932 . S
Sm312 C314 2.846 . S
Sm312 O332 2.543 . S
Sm312 O333 2.450 . S
Sm312 O334 2.681 1_565 S
Sm312 O335 2.464 . S
Sm312 O336 2.396 . S
Sm312 O340 2.386 1_455 S
Sm312 O343 2.408 1_565 S
Sm313 C323 2.846 . S
Sm313 O334 2.386 1_655 S
Sm313 O337 2.408 1_545 S
Sm313 O338 2.543 . S
Sm313 O339 2.450 . S
Sm313 O340 2.681 1_545 S
Sm313 O341 2.464 . S
Sm313 O342 2.396 . S
C314 Sm312 2.846 . S
C314 C315 1.506 . S
C314 O332 1.261 . S
C314 O333 1.242 . S
C315 C314 1.506 . S
C315 C316 1.358 . S
C315 C320 1.382 . S
C316 C315 1.358 . S
C316 C317 1.385 . S
C316 H344 0.930 1_455 S
C317 C316 1.385 . S
C317 C318 1.395 . S
C317 H345 0.929 1_455 S
C318 C317 1.395 . S
C318 C319 1.335 . S
C319 C318 1.335 . S
C319 C320 1.398 . S
C319 H346 0.930 . S
C320 C315 1.382 . S
C320 C319 1.398 . S
C320 H347 0.929 . S
C321 O334 1.270 1_565 S
C321 O335 1.254 . S
C322 O336 1.252 1_655 S
C322 O337 1.272 . S
C323 Sm313 2.846 . S
C323 C324 1.506 . S
C323 O338 1.261 . S
C323 O339 1.242 . S
C324 C323 1.506 . S
C324 C325 1.358 . S
C324 C329 1.382 . S
C325 C324 1.358 . S
C325 C326 1.385 . S
C325 H348 0.930 1_655 S
C326 C325 1.385 . S
C326 C327 1.395 . S
C326 H349 0.929 1_655 S
C327 C326 1.395 . S
C327 C328 1.335 . S
C328 C327 1.335 . S
C328 C329 1.398 . S
C328 H350 0.930 . S
C329 C324 1.382 . S
C329 C328 1.398 . S
C329 H351 0.929 . S
C330 O340 1.253 1_545 S
C330 O341 1.284 . S
C331 O342 1.252 1_455 S
C331 O343 1.272 . S
O332 Sm312 2.543 . S
O332 C314 1.261 . S
O333 Sm312 2.450 . S
O333 C314 1.242 . S
O334 Sm312 2.681 1_545 S
O334 Sm313 2.386 1_455 S
O334 C321 1.270 1_545 S
O335 Sm312 2.464 . S
O335 C321 1.254 . S
O336 Sm312 2.396 . S
O336 C322 1.252 1_455 S
O337 Sm313 2.408 1_565 S
O337 C322 1.272 . S
O338 Sm313 2.543 . S
O338 C323 1.261 . S
O339 Sm313 2.450 . S
O339 C323 1.242 . S
O340 Sm312 2.386 1_655 S
O340 Sm313 2.681 1_565 S
O340 C330 1.253 1_565 S
O341 Sm313 2.464 . S
O341 C330 1.284 . S
O342 Sm313 2.396 . S
O342 C331 1.252 1_655 S
O343 Sm312 2.408 1_545 S
O343 C331 1.272 . S
H344 C316 0.930 1_655 S
H345 C317 0.929 1_655 S
H346 C319 0.930 . S
H347 C320 0.929 . S
H348 C325 0.930 1_455 S
H349 C326 0.929 1_455 S
H350 C328 0.930 . S
H351 C329 0.929 . S
Sm352 C354 2.846 . S
Sm352 O372 2.569 . S
Sm352 O373 2.450 . S
Sm352 O374 2.681 . S
Sm352 O375 2.464 . S
Sm352 O376 2.396 . S
Sm352 O380 2.386 1_545 S
Sm352 O383 2.408 . S
Sm353 C363 2.846 . S
Sm353 O374 2.386 1_565 S
Sm353 O377 2.408 . S
Sm353 O378 2.545 . S
Sm353 O379 2.450 . S
Sm353 O380 2.681 . S
Sm353 O381 2.464 . S
Sm353 O382 2.396 . S
C354 Sm352 2.846 . S
C354 C355 1.506 . S
C354 O372 1.322 . S
C354 O373 1.242 . S
C355 C354 1.506 . S
C355 C356 1.358 . S
C355 C360 1.382 . S
C356 C355 1.358 . S
C356 C357 1.385 . S
C356 H384 0.930 1_545 S
C357 C356 1.385 . S
C357 C358 1.395 . S
C357 H385 0.929 1_545 S
C358 C357 1.395 . S
C358 C359 1.335 . S
C359 C358 1.335 . S
C359 C360 1.398 . S
C359 H386 0.930 . S
C360 C355 1.382 . S
C360 C359 1.398 . S
C360 H387 0.929 . S
C361 O374 1.271 . S
C361 O375 1.251 . S
C362 O376 1.252 1_565 S
C362 O377 1.272 . S
C363 Sm353 2.846 . S
C363 C364 1.506 . S
C363 O378 1.267 . S
C363 O379 1.242 . S
C364 C363 1.506 . S
C364 C365 1.358 . S
C364 C369 1.382 . S
C365 C364 1.358 . S
C365 C366 1.385 . S
C365 H388 0.930 1_565 S
C366 C365 1.385 . S
C366 C367 1.395 . S
C366 H389 0.929 1_565 S
C367 C366 1.395 . S
C367 C368 1.335 . S
C368 C367 1.335 . S
C368 C369 1.398 . S
C368 H390 0.930 . S
C369 C364 1.382 . S
C369 C368 1.398 . S
C369 H391 0.929 . S
C370 O380 1.271 . S
C370 O381 1.251 . S
C371 O382 1.252 1_545 S
C371 O383 1.272 . S
O372 Sm352 2.569 . S
O372 C354 1.322 . S
O373 Sm352 2.450 . S
O373 C354 1.242 . S
O374 Sm352 2.681 . S
O374 Sm353 2.386 1_545 S
O374 C361 1.271 . S
O375 Sm352 2.464 . S
O375 C361 1.251 . S
O376 Sm352 2.396 . S
O376 C362 1.252 1_545 S
O377 Sm353 2.408 . S
O377 C362 1.272 . S
O378 Sm353 2.545 . S
O378 C363 1.267 . S
O379 Sm353 2.450 . S
O379 C363 1.242 . S
O380 Sm352 2.386 1_565 S
O380 Sm353 2.681 . S
O380 C370 1.271 . S
O381 Sm353 2.464 . S
O381 C370 1.251 . S
O382 Sm353 2.396 . S
O382 C371 1.252 1_565 S
O383 Sm352 2.408 . S
O383 C371 1.272 . S
H384 C356 0.930 1_565 S
H385 C357 0.929 1_565 S
H386 C359 0.930 . S
H387 C360 0.929 . S
H388 C365 0.930 1_545 S
H389 C366 0.929 1_545 S
H390 C368 0.930 . S
H391 C369 0.929 . S
Sm392 C394 2.846 . S
Sm392 O412 2.543 . S
Sm392 O413 2.450 . S
Sm392 O414 2.681 . S
Sm392 O415 2.464 . S
Sm392 O416 2.396 . S
Sm392 O420 2.386 . S
Sm392 O423 2.408 . S
Sm393 C403 2.846 . S
Sm393 O414 2.386 . S
Sm393 O417 2.408 . S
Sm393 O418 2.543 . S
Sm393 O419 2.450 . S
Sm393 O420 2.681 . S
Sm393 O421 2.464 . S
Sm393 O422 2.396 . S
C394 Sm392 2.846 . S
C394 C395 1.506 . S
C394 O412 1.261 . S
C394 O413 1.242 . S
C395 C394 1.506 . S
C395 C396 1.358 . S
C395 C400 1.382 . S
C396 C395 1.358 . S
C396 C397 1.385 . S
C396 H424 0.930 . S
C397 C396 1.385 . S
C397 C398 1.395 . S
C397 H425 0.929 . S
C398 C397 1.395 . S
C398 C399 1.335 . S
C399 C398 1.335 . S
C399 C400 1.398 . S
C399 H426 0.930 . S
C400 C395 1.382 . S
C400 C399 1.398 . S
C400 H427 0.929 . S
C401 O414 1.271 . S
C401 O415 1.251 . S
C402 O416 1.252 . S
C402 O417 1.272 . S
C403 Sm393 2.846 . S
C403 C404 1.506 . S
C403 O418 1.261 . S
C403 O419 1.242 . S
C404 C403 1.506 . S
C404 C405 1.358 . S
C404 C409 1.382 . S
C405 C404 1.358 . S
C405 C406 1.385 . S
C405 H428 0.930 . S
C406 C405 1.385 . S
C406 C407 1.395 . S
C406 H429 0.929 . S
C407 C406 1.395 . S
C407 C408 1.335 . S
C408 C407 1.335 . S
C408 C409 1.398 . S
C408 H430 0.930 . S
C409 C404 1.382 . S
C409 C408 1.398 . S
C409 H431 0.929 . S
C410 O420 1.271 . S
C410 O421 1.251 . S
C411 O422 1.252 . S
C411 O423 1.272 . S
O412 Sm392 2.543 . S
O412 C394 1.261 . S
O413 Sm392 2.450 . S
O413 C394 1.242 . S
O414 Sm392 2.681 . S
O414 Sm393 2.386 . S
O414 C401 1.271 . S
O415 Sm392 2.464 . S
O415 C401 1.251 . S
O416 Sm392 2.396 . S
O416 C402 1.252 . S
O417 Sm393 2.408 . S
O417 C402 1.272 . S
O418 Sm393 2.543 . S
O418 C403 1.261 . S
O419 Sm393 2.450 . S
O419 C403 1.242 . S
O420 Sm392 2.386 . S
O420 Sm393 2.681 . S
O420 C410 1.271 . S
O421 Sm393 2.464 . S
O421 C410 1.251 . S
O422 Sm393 2.396 . S
O422 C411 1.252 . S
O423 Sm392 2.408 . S
O423 C411 1.272 . S
H424 C396 0.930 . S
H425 C397 0.929 . S
H426 C399 0.930 . S
H427 C400 0.929 . S
H428 C405 0.930 . S
H429 C406 0.929 . S
H430 C408 0.930 . S
H431 C409 0.929 . S
Sm432 C434 2.846 . S
Sm432 O452 2.543 . S
Sm432 O453 2.450 . S
Sm432 O454 2.681 1_655 S
Sm432 O455 2.464 . S
Sm432 O456 2.396 . S
Sm432 O460 2.386 . S
Sm432 O463 2.408 1_655 S
Sm433 C443 2.846 . S
Sm433 O454 2.386 . S
Sm433 O457 2.408 1_455 S
Sm433 O458 2.543 . S
Sm433 O459 2.450 . S
Sm433 O460 2.681 1_455 S
Sm433 O461 2.464 . S
Sm433 O462 2.396 . S
C434 Sm432 2.846 . S
C434 C435 1.506 . S
C434 O452 1.261 . S
C434 O453 1.242 . S
C435 C434 1.506 . S
C435 C436 1.358 . S
C435 C440 1.382 . S
C436 C435 1.358 . S
C436 C437 1.385 . S
C436 H464 0.930 . S
C437 C436 1.385 . S
C437 C438 1.395 . S
C437 H465 0.929 . S
C438 C437 1.395 . S
C438 C439 1.335 . S
C439 C438 1.335 . S
C439 C440 1.398 . S
C439 H466 0.930 . S
C440 C435 1.382 . S
C440 C439 1.398 . S
C440 H467 0.929 . S
C441 O454 1.271 1_655 S
C441 O455 1.251 . S
C442 O456 1.252 . S
C442 O457 1.272 . S
C443 Sm433 2.846 . S
C443 C444 1.506 . S
C443 O458 1.261 . S
C443 O459 1.242 . S
C444 C443 1.506 . S
C444 C445 1.358 . S
C444 C449 1.382 . S
C445 C444 1.358 . S
C445 C446 1.385 . S
C445 H468 0.930 . S
C446 C445 1.385 . S
C446 C447 1.395 . S
C446 H469 0.929 . S
C447 C446 1.395 . S
C447 C448 1.335 . S
C448 C447 1.335 . S
C448 C449 1.398 . S
C448 H470 0.930 . S
C449 C444 1.382 . S
C449 C448 1.398 . S
C449 H471 0.929 . S
C450 O460 1.271 1_455 S
C450 O461 1.251 . S
C451 O462 1.252 . S
C451 O463 1.272 . S
O452 Sm432 2.543 . S
O452 C434 1.261 . S
O453 Sm432 2.450 . S
O453 C434 1.242 . S
O454 Sm432 2.681 1_455 S
O454 Sm433 2.386 . S
O454 C441 1.271 1_455 S
O455 Sm432 2.464 . S
O455 C441 1.251 . S
O456 Sm432 2.396 . S
O456 C442 1.252 . S
O457 Sm433 2.408 1_655 S
O457 C442 1.272 . S
O458 Sm433 2.543 . S
O458 C443 1.261 . S
O459 Sm433 2.450 . S
O459 C443 1.242 . S
O460 Sm432 2.386 . S
O460 Sm433 2.681 1_655 S
O460 C450 1.271 1_655 S
O461 Sm433 2.464 . S
O461 C450 1.251 . S
O462 Sm433 2.396 . S
O462 C451 1.252 . S
O463 Sm432 2.408 1_455 S
O463 C451 1.272 . S
H464 C436 0.930 . S
H465 C437 0.929 . S
H466 C439 0.930 . S
H467 C440 0.929 . S
H468 C445 0.930 . S
H469 C446 0.929 . S
H470 C448 0.930 . S
H471 C449 0.929 . S
H472 C480 0.929 . S
H473 C482 0.930 . S
H474 C484 0.930 . S
H475 C487 0.929 . S
H476 C490 0.930 . S
H477 C492 0.960 . S
H478 C492 0.960 . S
H479 C492 0.960 . S
C480 H472 0.929 . S
C480 C481 1.377 . S
C480 C482 1.384 . S
C481 C480 1.377 . S
C481 C487 1.390 . S
C482 H473 0.930 . S
C482 C480 1.384 . S
C482 C483 1.372 . S
C483 C482 1.372 . S
C483 C484 1.400 . S
C483 C488 1.490 . S
C484 H474 0.930 . S
C484 C483 1.400 . S
C484 C487 1.386 . S
H485 C501 0.930 . S
H486 C502 0.931 . S
C487 H475 0.929 . S
C487 C481 1.390 . S
C487 C484 1.386 . S
C488 C483 1.490 . S
C488 C490 1.395 . S
C488 C491 1.403 1_545 S
H489 C495 0.930 . S
C490 H476 0.930 . S
C490 C488 1.395 . S
C490 C493 1.403 . S
C491 C488 1.403 1_565 S
C491 C492 1.524 . S
C491 C495 1.400 . S
C492 H477 0.960 . S
C492 H478 0.960 . S
C492 H479 0.960 . S
C492 C491 1.524 . S
C493 C490 1.403 . S
C493 C494 1.392 . S
C493 C497 1.495 . S
C494 C493 1.392 . S
C494 C495 1.385 1_545 S
C494 C496 1.478 . S
C495 H489 0.930 . S
C495 C491 1.400 . S
C495 C494 1.385 1_565 S
C496 C494 1.478 . S
C496 C498 1.381 . S
C496 C502 1.383 . S
C497 C493 1.495 . S
C497 H503 0.959 . S
C497 H504 0.961 . S
C497 H505 0.960 . S
C498 C496 1.381 . S
C498 C499 1.397 . S
C498 H506 0.931 . S
C499 C498 1.397 . S
C499 C500 1.389 . S
C499 H507 0.922 1_545 S
C500 C499 1.389 . S
C500 C501 1.377 . S
C501 H485 0.930 . S
C501 C500 1.377 . S
C501 C502 1.379 . S
C502 H486 0.931 . S
C502 C496 1.383 . S
C502 C501 1.379 . S
H503 C497 0.959 . S
H504 C497 0.961 . S
H505 C497 0.960 . S
H506 C498 0.931 . S
H507 C499 0.922 1_565 S
H508 C516 0.929 . S
H509 C518 0.930 . S
H510 C520 0.930 . S
H511 C523 0.929 . S
H512 C526 0.930 . S
H513 C528 0.960 . S
H514 C528 0.960 . S
H515 C528 0.960 . S
C516 H508 0.929 . S
C516 C517 1.377 . S
C516 C518 1.384 . S
C517 C516 1.377 . S
C517 C523 1.390 . S
C518 H509 0.930 . S
C518 C516 1.384 . S
C518 C519 1.372 . S
C519 C518 1.372 . S
C519 C520 1.400 . S
C519 C524 1.490 . S
C520 H510 0.930 . S
C520 C519 1.400 . S
C520 C523 1.386 . S
H521 C537 0.930 . S
H522 C538 0.931 . S
C523 H511 0.929 . S
C523 C517 1.390 . S
C523 C520 1.386 . S
C524 C519 1.490 . S
C524 C526 1.395 . S
C524 C527 1.403 . S
H525 C531 0.930 . S
C526 H512 0.930 . S
C526 C524 1.395 . S
C526 C529 1.403 . S
C527 C524 1.403 . S
C527 C528 1.524 . S
C527 C531 1.400 . S
C528 H513 0.960 . S
C528 H514 0.960 . S
C528 H515 0.960 . S
C528 C527 1.524 . S
C529 C526 1.403 . S
C529 C530 1.392 . S
C529 C533 1.495 . S
C530 C529 1.392 . S
C530 C531 1.385 . S
C530 C532 1.478 . S
C531 H525 0.930 . S
C531 C527 1.400 . S
C531 C530 1.385 . S
C532 C530 1.478 . S
C532 C534 1.381 . S
C532 C538 1.383 . S
C533 C529 1.495 . S
C533 H539 0.959 . S
C533 H540 0.961 . S
C533 H541 0.960 . S
C534 C532 1.381 . S
C534 C535 1.394 . S
C534 H542 0.930 . S
C535 C534 1.394 . S
C535 C536 1.383 . S
C535 H543 0.929 . S
C536 C535 1.383 . S
C536 C537 1.377 . S
C537 H521 0.930 . S
C537 C536 1.377 . S
C537 C538 1.379 . S
C538 H522 0.931 . S
C538 C532 1.383 . S
C538 C537 1.379 . S
H539 C533 0.959 . S
H540 C533 0.961 . S
H541 C533 0.960 . S
H542 C534 0.930 . S
H543 C535 0.929 . S
H544 C552 0.929 . S
H545 C554 0.930 . S
H546 C556 0.930 . S
H547 C559 0.929 . S
H548 C562 0.930 . S
H549 C564 0.960 . S
H550 C564 0.960 . S
H551 C564 0.960 . S
C552 H544 0.929 . S
C552 C553 1.377 . S
C552 C554 1.384 . S
C553 C552 1.377 . S
C553 C559 1.390 . S
C554 H545 0.930 . S
C554 C552 1.384 . S
C554 C555 1.372 . S
C555 C554 1.372 . S
C555 C556 1.400 . S
C555 C560 1.490 . S
C556 H546 0.930 . S
C556 C555 1.400 . S
C556 C559 1.386 . S
H557 C573 0.930 . S
H558 C574 0.931 . S
C559 H547 0.929 . S
C559 C553 1.390 . S
C559 C556 1.386 . S
C560 C555 1.490 . S
C560 C562 1.395 . S
C560 C563 1.403 . S
H561 C567 0.930 . S
C562 H548 0.930 . S
C562 C560 1.395 . S
C562 C565 1.403 . S
C563 C560 1.403 . S
C563 C564 1.524 . S
C563 C567 1.400 . S
C564 H549 0.960 . S
C564 H550 0.960 . S
C564 H551 0.960 . S
C564 C563 1.524 . S
C565 C562 1.403 . S
C565 C566 1.392 . S
C565 C569 1.495 . S
C566 C565 1.392 . S
C566 C567 1.385 . S
C566 C568 1.478 . S
C567 H561 0.930 . S
C567 C563 1.400 . S
C567 C566 1.385 . S
C568 C566 1.478 . S
C568 C570 1.381 . S
C568 C574 1.383 . S
C569 C565 1.495 . S
C569 H575 0.959 . S
C569 H576 0.961 . S
C569 H577 0.960 . S
C570 C568 1.381 . S
C570 C571 1.394 . S
C570 H578 0.930 . S
C571 C570 1.394 . S
C571 C572 1.383 . S
C571 H579 0.929 . S
C572 C571 1.383 . S
C572 C573 1.377 . S
C573 H557 0.930 . S
C573 C572 1.377 . S
C573 C574 1.379 . S
C574 H558 0.931 . S
C574 C568 1.383 . S
C574 C573 1.379 . S
H575 C569 0.959 . S
H576 C569 0.961 . S
H577 C569 0.960 . S
H578 C570 0.930 . S
H579 C571 0.929 . S
H580 C588 0.929 . S
H581 C590 0.930 . S
H582 C592 0.930 . S
H583 C595 0.929 . S
H584 C598 0.930 . S
H585 C600 0.960 . S
H586 C600 0.960 . S
H587 C600 0.960 . S
C588 H580 0.929 . S
C588 C589 1.378 . S
C588 C590 1.384 . S
C589 C588 1.378 . S
C589 C595 1.390 1_655 S
C590 H581 0.930 . S
C590 C588 1.384 . S
C590 C591 1.388 . S
C591 C590 1.388 . S
C591 C592 1.384 1_655 S
C591 C596 1.490 . S
C592 H582 0.930 . S
C592 C591 1.384 1_455 S
C592 C595 1.386 . S
H593 C609 0.930 . S
H594 C610 0.931 . S
C595 H583 0.929 . S
C595 C589 1.390 1_455 S
C595 C592 1.386 . S
C596 C591 1.490 . S
C596 C598 1.393 1_655 S
C596 C599 1.404 . S
H597 C603 0.930 . S
C598 H584 0.930 . S
C598 C596 1.393 1_455 S
C598 C601 1.403 . S
C599 C596 1.404 . S
C599 C600 1.524 . S
C599 C603 1.400 . S
C600 H585 0.960 . S
C600 H586 0.960 . S
C600 H587 0.960 . S
C600 C599 1.524 . S
C601 C598 1.403 . S
C601 C602 1.392 . S
C601 C605 1.495 . S
C602 C601 1.392 . S
C602 C603 1.385 1_455 S
C602 C604 1.478 . S
C603 H597 0.930 . S
C603 C599 1.400 . S
C603 C602 1.385 1_655 S
C604 C602 1.478 . S
C604 C606 1.381 1_455 S
C604 C610 1.383 . S
C605 C601 1.495 . S
C605 H611 0.959 . S
C605 H612 0.961 . S
C605 H613 0.960 . S
C606 C604 1.381 1_655 S
C606 C607 1.394 . S
C606 H614 0.930 . S
C607 C606 1.394 . S
C607 C608 1.383 1_655 S
C607 H615 0.929 . S
C608 C607 1.383 1_455 S
C608 C609 1.377 . S
C609 H593 0.930 . S
C609 C608 1.377 . S
C609 C610 1.379 . S
C610 H594 0.931 . S
C610 C604 1.383 . S
C610 C609 1.379 . S
H611 C605 0.959 . S
H612 C605 0.961 . S
H613 C605 0.960 . S
H614 C606 0.930 . S
H615 C607 0.929 . S
H616 C624 0.928 1_545 S
H617 C626 0.931 1_545 S
H618 C628 0.930 . S
H619 C631 0.929 . S
H620 C634 0.930 . S
H621 C636 0.960 . S
H622 C636 0.960 1_554 S
H623 C636 0.960 . S
C624 H616 0.928 1_565 S
C624 C625 1.379 . S
C624 C626 1.384 . S
C625 C624 1.379 . S
C625 C631 1.390 . S
C626 H617 0.931 1_565 S
C626 C624 1.384 . S
C626 C627 1.371 . S
C627 C626 1.371 . S
C627 C628 1.400 . S
C627 C632 1.490 . S
C628 H618 0.930 . S
C628 C627 1.400 . S
C628 C631 1.386 . S
H629 C645 0.930 . S
H630 C646 0.931 . S
C631 H619 0.929 . S
C631 C625 1.390 . S
C631 C628 1.386 . S
C632 C627 1.490 . S
C632 C634 1.395 . S
C632 C635 1.403 1_564 S
H633 C639 0.930 . S
C634 H620 0.930 . S
C634 C632 1.395 . S
C634 C637 1.403 1_554 S
C635 C632 1.403 1_546 S
C635 C636 1.524 . S
C635 C639 1.400 . S
C636 H621 0.960 . S
C636 H622 0.960 1_556 S
C636 H623 0.960 . S
C636 C635 1.524 . S
C637 C634 1.403 1_556 S
C637 C638 1.392 . S
C637 C641 1.495 . S
C638 C637 1.392 . S
C638 C639 1.385 1_565 S
C638 C640 1.478 . S
C639 H633 0.930 . S
C639 C635 1.400 . S
C639 C638 1.385 1_545 S
C640 C638 1.478 . S
C640 C642 1.376 1_565 S
C640 C646 1.383 . S
C641 C637 1.495 . S
C641 H647 0.959 1_556 S
C641 H648 0.961 . S
C641 H649 0.960 . S
C642 C640 1.376 1_545 S
C642 C643 1.396 . S
C642 H650 0.934 . S
C643 C642 1.396 . S
C643 C644 1.383 1_545 S
C643 H651 0.929 . S
C644 C643 1.383 1_565 S
C644 C645 1.377 . S
C645 H629 0.930 . S
C645 C644 1.377 . S
C645 C646 1.379 . S
C646 H630 0.931 . S
C646 C640 1.383 . S
C646 C645 1.379 . S
H647 C641 0.959 1_554 S
H648 C641 0.961 . S
H649 C641 0.960 . S
H650 C642 0.934 . S
H651 C643 0.929 . S
H652 C660 0.929 . S
H653 C662 0.930 . S
H654 C664 0.930 . S
H655 C667 0.929 . S
H656 C670 0.930 . S
H657 C672 0.960 . S
H658 C672 0.960 . S
H659 C672 0.960 . S
C660 H652 0.929 . S
C660 C661 1.377 . S
C660 C662 1.384 . S
C661 C660 1.377 . S
C661 C667 1.390 . S
C662 H653 0.930 . S
C662 C660 1.384 . S
C662 C663 1.372 . S
C663 C662 1.372 . S
C663 C664 1.400 . S
C663 C668 1.490 . S
C664 H654 0.930 . S
C664 C663 1.400 . S
C664 C667 1.386 . S
H665 C681 0.930 . S
H666 C682 0.931 . S
C667 H655 0.929 . S
C667 C661 1.390 . S
C667 C664 1.386 . S
C668 C663 1.490 . S
C668 C670 1.395 . S
C668 C671 1.403 1_554 S
H669 C675 0.930 . S
C670 H656 0.930 . S
C670 C668 1.395 . S
C670 C673 1.403 1_554 S
C671 C668 1.403 1_556 S
C671 C672 1.524 . S
C671 C675 1.400 . S
C672 H657 0.960 . S
C672 H658 0.960 . S
C672 H659 0.960 . S
C672 C671 1.524 . S
C673 C670 1.403 1_556 S
C673 C674 1.392 . S
C673 C677 1.494 1_556 S
C674 C673 1.392 . S
C674 C675 1.385 . S
C674 C676 1.478 . S
C675 H669 0.930 . S
C675 C671 1.400 . S
C675 C674 1.385 . S
C676 C674 1.478 . S
C676 C678 1.381 . S
C676 C682 1.383 . S
C677 C673 1.494 1_554 S
C677 H683 0.966 . S
C677 H684 0.960 1_554 S
C677 H685 0.955 1_554 S
C678 C676 1.381 . S
C678 C679 1.394 . S
C678 H686 0.930 . S
C679 C678 1.394 . S
C679 C680 1.383 . S
C679 H687 0.929 . S
C680 C679 1.383 . S
C680 C681 1.377 . S
C681 H665 0.930 . S
C681 C680 1.377 . S
C681 C682 1.379 . S
C682 H666 0.931 . S
C682 C676 1.383 . S
C682 C681 1.379 . S
H683 C677 0.966 . S
H684 C677 0.960 1_556 S
H685 C677 0.955 1_556 S
H686 C678 0.930 . S
H687 C679 0.929 . S
H688 C696 0.929 . S
H689 C698 0.930 . S
H690 C700 0.930 . S
H691 C703 0.929 . S
H692 C706 0.930 . S
H693 C708 0.960 . S
H694 C708 0.960 . S
H695 C708 0.960 . S
C696 H688 0.929 . S
C696 C697 1.377 . S
C696 C698 1.384 . S
C697 C696 1.377 . S
C697 C703 1.390 . S
C698 H689 0.930 . S
C698 C696 1.384 . S
C698 C699 1.372 . S
C699 C698 1.372 . S
C699 C700 1.400 . S
C699 C704 1.490 . S
C700 H690 0.930 . S
C700 C699 1.400 . S
C700 C703 1.386 . S
H701 C717 0.930 . S
H702 C718 0.931 . S
C703 H691 0.929 . S
C703 C697 1.390 . S
C703 C700 1.386 . S
C704 C699 1.490 . S
C704 C706 1.395 1_554 S
C704 C707 1.403 . S
H705 C711 0.930 . S
C706 H692 0.930 . S
C706 C704 1.395 1_556 S
C706 C709 1.403 . S
C707 C704 1.403 . S
C707 C708 1.524 . S
C707 C711 1.400 1_554 S
C708 H693 0.960 . S
C708 H694 0.960 . S
C708 H695 0.960 . S
C708 C707 1.524 . S
C709 C706 1.403 . S
C709 C710 1.392 . S
C709 C713 1.495 . S
C710 C709 1.392 . S
C710 C711 1.385 . S
C710 C712 1.478 . S
C711 H705 0.930 . S
C711 C707 1.400 1_556 S
C711 C710 1.385 . S
C712 C710 1.478 . S
C712 C714 1.381 . S
C712 C718 1.383 . S
C713 C709 1.495 . S
C713 H719 0.959 . S
C713 H720 0.961 . S
C713 H721 0.960 . S
C714 C712 1.381 . S
C714 C715 1.394 . S
C714 H722 0.930 . S
C715 C714 1.394 . S
C715 C716 1.383 . S
C715 H723 0.929 . S
C716 C715 1.383 . S
C716 C717 1.377 . S
C717 H701 0.930 . S
C717 C716 1.377 . S
C717 C718 1.379 . S
C718 H702 0.931 . S
C718 C712 1.383 . S
C718 C717 1.379 . S
H719 C713 0.959 . S
H720 C713 0.961 . S
H721 C713 0.960 . S
H722 C714 0.930 . S
H723 C715 0.929 . S
H724 C732 0.929 . S
H725 C734 0.930 . S
H726 C736 0.930 . S
H727 C739 0.929 . S
H728 C742 0.930 . S
H729 C744 0.960 1_556 S
H730 C744 0.960 . S
H731 C744 0.960 . S
C732 H724 0.929 . S
C732 C733 1.378 1_655 S
C732 C734 1.384 . S
C733 C732 1.378 1_455 S
C733 C739 1.389 . S
C734 H725 0.930 . S
C734 C732 1.384 . S
C734 C735 1.373 . S
C735 C734 1.373 . S
C735 C736 1.398 1_655 S
C735 C740 1.489 . S
C736 H726 0.930 . S
C736 C735 1.398 1_455 S
C736 C739 1.386 . S
H737 C753 0.930 . S
H738 C754 0.931 . S
C739 H727 0.929 . S
C739 C733 1.389 . S
C739 C736 1.386 . S
C740 C735 1.489 . S
C740 C742 1.450 . S
C740 C743 1.352 1_654 S
H741 C747 0.930 . S
C742 H728 0.930 . S
C742 C740 1.450 . S
C742 C745 1.403 1_554 S
C743 C740 1.352 1_456 S
C743 C744 1.524 1_556 S
C743 C747 1.400 . S
C744 H729 0.960 1_554 S
C744 H730 0.960 . S
C744 H731 0.960 . S
C744 C743 1.524 1_554 S
C745 C742 1.403 1_556 S
C745 C746 1.392 . S
C745 C749 1.495 . S
C746 C745 1.392 . S
C746 C747 1.385 1_655 S
C746 C748 1.478 . S
C747 H741 0.930 . S
C747 C743 1.400 . S
C747 C746 1.385 1_455 S
C748 C746 1.478 . S
C748 C750 1.381 . S
C748 C754 1.383 . S
C749 C745 1.495 . S
C749 H755 0.959 . S
C749 H756 0.961 . S
C749 H757 0.960 . S
C750 C748 1.381 . S
C750 C751 1.394 . S
C750 H758 0.930 . S
C751 C750 1.394 . S
C751 C752 1.383 . S
C751 H759 0.929 . S
C752 C751 1.383 . S
C752 C753 1.377 . S
C753 H737 0.930 . S
C753 C752 1.377 . S
C753 C754 1.379 . S
C754 H738 0.931 . S
C754 C748 1.383 . S
C754 C753 1.379 . S
H755 C749 0.959 . S
H756 C749 0.961 . S
H757 C749 0.960 . S
H758 C750 0.930 . S
H759 C751 0.929 . S
H760 C768 0.929 . S
H761 C770 0.930 . S
H762 C772 0.930 . S
H763 C775 0.929 . S
H764 C778 0.930 1_455 S
H765 C780 0.960 . S
H766 C780 0.960 . S
H767 C780 0.960 . S
C768 H760 0.929 . S
C768 C769 1.377 1_655 S
C768 C770 1.384 . S
C769 C768 1.377 1_455 S
C769 C775 1.390 . S
C770 H761 0.930 . S
C770 C768 1.384 . S
C770 C771 1.372 . S
C771 C770 1.372 . S
C771 C772 1.400 1_655 S
C771 C776 1.490 . S
C772 H762 0.930 . S
C772 C771 1.400 1_455 S
C772 C775 1.386 . S
H773 C789 0.930 . S
H774 C790 0.931 . S
C775 H763 0.929 . S
C775 C769 1.390 . S
C775 C772 1.386 . S
C776 C771 1.490 . S
C776 C778 1.395 . S
C776 C779 1.403 . S
H777 C783 0.930 . S
C778 H764 0.930 1_655 S
C778 C776 1.395 . S
C778 C781 1.403 . S
C779 C776 1.403 . S
C779 C780 1.524 . S
C779 C783 1.400 . S
C780 H765 0.960 . S
C780 H766 0.960 . S
C780 H767 0.960 . S
C780 C779 1.524 . S
C781 C778 1.403 . S
C781 C782 1.392 . S
C781 C785 1.493 1_655 S
C782 C781 1.392 . S
C782 C783 1.385 . S
C782 C784 1.478 . S
C783 H777 0.930 . S
C783 C779 1.400 . S
C783 C782 1.385 . S
C784 C782 1.478 . S
C784 C786 1.381 . S
C784 C790 1.383 . S
C785 C781 1.493 1_455 S
C785 H791 0.962 . S
C785 H792 0.966 . S
C785 H793 0.954 1_455 S
C786 C784 1.381 . S
C786 C787 1.394 . S
C786 H794 0.930 . S
C787 C786 1.394 . S
C787 C788 1.383 . S
C787 H795 0.929 . S
C788 C787 1.383 . S
C788 C789 1.377 . S
C789 H773 0.930 . S
C789 C788 1.377 . S
C789 C790 1.379 . S
C790 H774 0.931 . S
C790 C784 1.383 . S
C790 C789 1.379 . S
H791 C785 0.962 . S
H792 C785 0.966 . S
H793 C785 0.954 1_655 S
H794 C786 0.930 . S
H795 C787 0.929 . S
H796 C804 0.929 . S
H797 C806 0.930 . S
H798 C808 0.930 . S
H799 C811 0.929 . S
H800 C814 0.930 . S
H801 C816 0.960 . S
H802 C816 0.960 1_545 S
H803 C816 0.960 . S
C804 H796 0.929 . S
C804 C805 1.377 . S
C804 C806 1.384 . S
C805 C804 1.377 . S
C805 C811 1.390 1_545 S
C806 H797 0.930 . S
C806 C804 1.384 . S
C806 C807 1.352 1_545 S
C807 C806 1.352 1_565 S
C807 C808 1.415 . S
C807 C812 1.495 . S
C808 H798 0.930 . S
C808 C807 1.415 . S
C808 C811 1.386 . S
H809 C825 0.930 . S
H810 C826 0.931 . S
C811 H799 0.929 . S
C811 C805 1.390 1_565 S
C811 C808 1.386 . S
C812 C807 1.495 . S
C812 C814 1.395 . S
C812 C815 1.403 . S
H813 C819 0.930 . S
C814 H800 0.930 . S
C814 C812 1.395 . S
C814 C817 1.403 . S
C815 C812 1.403 . S
C815 C816 1.524 . S
C815 C819 1.400 . S
C816 H801 0.960 . S
C816 H802 0.960 1_565 S
C816 H803 0.960 . S
C816 C815 1.524 . S
C817 C814 1.403 . S
C817 C818 1.392 . S
C817 C821 1.495 . S
C818 C817 1.392 . S
C818 C819 1.385 . S
C818 C820 1.478 . S
C819 H813 0.930 . S
C819 C815 1.400 . S
C819 C818 1.385 . S
C820 C818 1.478 . S
C820 C822 1.381 . S
C820 C826 1.383 . S
C821 C817 1.495 . S
C821 H827 0.959 . S
C821 H828 0.961 . S
C821 H829 0.960 . S
C822 C820 1.381 . S
C822 C823 1.394 . S
C822 H830 0.930 1_565 S
C823 C822 1.394 . S
C823 C824 1.383 . S
C823 H831 0.939 . S
C824 C823 1.383 . S
C824 C825 1.377 . S
C825 H809 0.930 . S
C825 C824 1.377 . S
C825 C826 1.379 . S
C826 H810 0.931 . S
C826 C820 1.383 . S
C826 C825 1.379 . S
H827 C821 0.959 . S
H828 C821 0.961 . S
H829 C821 0.960 . S
H830 C822 0.930 1_545 S
H831 C823 0.939 . S
H832 C840 0.929 . S
H833 C842 0.930 . S
H834 C844 0.930 . S
H835 C847 0.929 . S
H836 C850 0.930 . S
H837 C852 0.960 . S
H838 C852 0.960 . S
H839 C852 0.960 . S
C840 H832 0.929 . S
C840 C841 1.377 . S
C840 C842 1.384 . S
C841 C840 1.377 . S
C841 C847 1.390 . S
C842 H833 0.930 . S
C842 C840 1.384 . S
C842 C843 1.372 . S
C843 C842 1.372 . S
C843 C844 1.400 . S
C843 C848 1.490 . S
C844 H834 0.930 . S
C844 C843 1.400 . S
C844 C847 1.386 . S
H845 C861 0.930 . S
H846 C862 0.931 . S
C847 H835 0.929 . S
C847 C841 1.390 . S
C847 C844 1.386 . S
C848 C843 1.490 . S
C848 C850 1.395 . S
C848 C851 1.403 . S
H849 C855 0.930 . S
C850 H836 0.930 . S
C850 C848 1.395 . S
C850 C853 1.403 . S
C851 C848 1.403 . S
C851 C852 1.524 . S
C851 C855 1.400 . S
C852 H837 0.960 . S
C852 H838 0.960 . S
C852 H839 0.960 . S
C852 C851 1.524 . S
C853 C850 1.403 . S
C853 C854 1.392 . S
C853 C857 1.495 . S
C854 C853 1.392 . S
C854 C855 1.385 . S
C854 C856 1.478 . S
C855 H849 0.930 . S
C855 C851 1.400 . S
C855 C854 1.385 . S
C856 C854 1.478 . S
C856 C858 1.381 . S
C856 C862 1.383 . S
C857 C853 1.495 . S
C857 H863 0.959 . S
C857 H864 0.961 . S
C857 H865 0.960 . S
C858 C856 1.381 . S
C858 C859 1.394 . S
C858 H866 0.930 . S
C859 C858 1.394 . S
C859 C860 1.383 . S
C859 H867 0.929 . S
C860 C859 1.383 . S
C860 C861 1.377 . S
C861 H845 0.930 . S
C861 C860 1.377 . S
C861 C862 1.379 . S
C862 H846 0.931 . S
C862 C856 1.383 . S
C862 C861 1.379 . S
H863 C857 0.959 . S
H864 C857 0.961 . S
H865 C857 0.960 . S
H866 C858 0.930 . S
H867 C859 0.929 . S
H868 C876 0.929 . S
H869 C878 0.930 . S
H870 C880 0.930 . S
H871 C883 0.929 . S
H872 C886 0.930 . S
H873 C888 0.960 . S
H874 C888 0.960 . S
H875 C888 0.960 . S
C876 H868 0.929 . S
C876 C877 1.377 . S
C876 C878 1.384 . S
C877 C876 1.377 . S
C877 C883 1.390 . S
C878 H869 0.930 . S
C878 C876 1.384 . S
C878 C879 1.372 . S
C879 C878 1.372 . S
C879 C880 1.400 . S
C879 C884 1.490 . S
C880 H870 0.930 . S
C880 C879 1.400 . S
C880 C883 1.386 . S
H881 C897 0.930 . S
H882 C898 0.931 . S
C883 H871 0.929 . S
C883 C877 1.390 . S
C883 C880 1.386 . S
C884 C879 1.490 . S
C884 C886 1.395 . S
C884 C887 1.403 . S
H885 C891 0.930 . S
C886 H872 0.930 . S
C886 C884 1.395 . S
C886 C889 1.403 . S
C887 C884 1.403 . S
C887 C888 1.524 . S
C887 C891 1.400 . S
C888 H873 0.960 . S
C888 H874 0.960 . S
C888 H875 0.960 . S
C888 C887 1.524 . S
C889 C886 1.403 . S
C889 C890 1.392 . S
C889 C893 1.495 . S
C890 C889 1.392 . S
C890 C891 1.385 . S
C890 C892 1.478 . S
C891 H885 0.930 . S
C891 C887 1.400 . S
C891 C890 1.385 . S
C892 C890 1.478 . S
C892 C894 1.381 . S
C892 C898 1.383 . S
C893 C889 1.495 . S
C893 H899 0.959 . S
C893 H900 0.961 . S
C893 H901 0.960 . S
C894 C892 1.381 . S
C894 C895 1.394 . S
C894 H902 0.930 . S
C895 C894 1.394 . S
C895 C896 1.383 . S
C895 H903 0.929 . S
C896 C895 1.383 . S
C896 C897 1.377 . S
C897 H881 0.930 . S
C897 C896 1.377 . S
C897 C898 1.379 . S
C898 H882 0.931 . S
C898 C892 1.383 . S
C898 C897 1.379 . S
H899 C893 0.959 . S
H900 C893 0.961 . S
H901 C893 0.960 . S
H902 C894 0.930 . S
H903 C895 0.929 . S
H904 C912 0.929 . S
H905 C914 0.929 . S
H906 C916 0.930 1_556 S
H907 C919 0.929 . S
H908 C922 0.930 . S
H909 C924 0.960 . S
H910 C924 0.960 . S
H911 C924 0.960 . S
C912 H904 0.929 . S
C912 C913 1.377 . S
C912 C914 1.376 1_655 S
C913 C912 1.377 . S
C913 C919 1.390 1_655 S
C914 H905 0.929 . S
C914 C912 1.376 1_455 S
C914 C915 1.382 . S
C915 C914 1.382 . S
C915 C916 1.400 . S
C915 C920 1.490 . S
C916 H906 0.930 1_554 S
C916 C915 1.400 . S
C916 C919 1.386 . S
H917 C933 0.930 . S
H918 C934 0.931 . S
C919 H907 0.929 . S
C919 C913 1.390 1_455 S
C919 C916 1.386 . S
C920 C915 1.490 . S
C920 C922 1.395 . S
C920 C923 1.378 1_454 S
H921 C927 0.930 1_655 S
C922 H908 0.930 . S
C922 C920 1.395 . S
C922 C925 1.403 . S
C923 C920 1.378 1_656 S
C923 C924 1.561 . S
C923 C927 1.388 1_655 S
C924 H909 0.960 . S
C924 H910 0.960 . S
C924 H911 0.960 . S
C924 C923 1.561 . S
C925 C922 1.403 . S
C925 C926 1.392 1_554 S
C925 C929 1.495 . S
C926 C925 1.392 1_556 S
C926 C927 1.385 . S
C926 C928 1.478 . S
C927 H921 0.930 1_455 S
C927 C923 1.388 1_455 S
C927 C926 1.385 . S
C928 C926 1.478 . S
C928 C930 1.381 . S
C928 C934 1.383 . S
C929 C925 1.495 . S
C929 H935 0.959 . S
C929 H936 0.961 1_554 S
C929 H937 0.960 . S
C930 C928 1.381 . S
C930 C931 1.394 . S
C930 H938 0.930 . S
C931 C930 1.394 . S
C931 C932 1.383 . S
C931 H939 0.929 . S
C932 C931 1.383 . S
C932 C933 1.377 . S
C933 H917 0.930 . S
C933 C932 1.377 . S
C933 C934 1.379 . S
C934 H918 0.931 . S
C934 C928 1.383 . S
C934 C933 1.379 . S
H935 C929 0.959 . S
H936 C929 0.961 1_556 S
H937 C929 0.960 . S
H938 C930 0.930 . S
H939 C931 0.929 . S
H940 C948 0.929 . S
H941 C950 0.930 . S
H942 C952 0.930 . S
H943 C955 0.929 . S
H944 C958 0.962 . S
H945 C960 0.960 . S
H946 C960 0.960 . S
H947 C960 0.960 . S
C948 H940 0.929 . S
C948 C949 1.377 . S
C948 C950 1.384 . S
C949 C948 1.377 . S
C949 C955 1.390 1_565 S
C950 H941 0.930 . S
C950 C948 1.384 . S
C950 C951 1.372 1_565 S
C951 C950 1.372 1_545 S
C951 C952 1.400 . S
C951 C956 1.490 . S
C952 H942 0.930 . S
C952 C951 1.400 . S
C952 C955 1.386 . S
H953 C969 0.930 . S
H954 C970 0.931 . S
C955 H943 0.929 . S
C955 C949 1.390 1_545 S
C955 C952 1.386 . S
C956 C951 1.490 . S
C956 C958 1.377 1_545 S
C956 C959 1.403 1_554 S
H957 C963 0.930 . S
C958 H944 0.962 . S
C958 C956 1.377 1_565 S
C958 C961 1.394 1_565 S
C959 C956 1.403 1_556 S
C959 C960 1.524 . S
C959 C963 1.400 . S
C960 H945 0.960 . S
C960 H946 0.960 . S
C960 H947 0.960 . S
C960 C959 1.524 . S
C961 C958 1.394 1_545 S
C961 C962 1.392 1_554 S
C961 C965 1.495 1_545 S
C962 C961 1.392 1_556 S
C962 C963 1.385 . S
C962 C964 1.478 . S
C963 H957 0.930 . S
C963 C959 1.400 . S
C963 C962 1.385 . S
C964 C962 1.478 . S
C964 C966 1.381 . S
C964 C970 1.383 . S
C965 C961 1.495 1_565 S
C965 H971 0.959 . S
C965 H972 0.961 1_565 S
C965 H973 0.960 . S
C966 C964 1.381 . S
C966 C967 1.394 . S
C966 H974 0.930 1_545 S
C967 C966 1.394 . S
C967 C968 1.383 . S
C967 H975 0.884 1_545 S
C968 C967 1.383 . S
C968 C969 1.377 . S
C969 H953 0.930 . S
C969 C968 1.377 . S
C969 C970 1.379 . S
C970 H954 0.931 . S
C970 C964 1.383 . S
C970 C969 1.379 . S
H971 C965 0.959 . S
H972 C965 0.961 1_545 S
H973 C965 0.960 . S
H974 C966 0.930 1_565 S
H975 C967 0.884 1_565 S
H976 C984 0.929 . S
H977 C986 0.930 1_556 S
H978 C988 0.930 . S
H979 C991 0.929 . S
H980 C994 0.930 . S
H981 C996 0.960 . S
H982 C996 0.960 . S
H983 C996 0.960 . S
C984 H976 0.929 . S
C984 C985 1.377 . S
C984 C986 1.384 . S
C985 C984 1.377 . S
C985 C991 1.390 . S
C986 H977 0.930 1_554 S
C986 C984 1.384 . S
C986 C987 1.372 . S
C987 C986 1.372 . S
C987 C988 1.400 . S
C987 C992 1.490 . S
C988 H978 0.930 . S
C988 C987 1.400 . S
C988 C991 1.386 . S
H989 C1005 0.930 . S
H990 C1006 0.931 . S
C991 H979 0.929 . S
C991 C985 1.390 . S
C991 C988 1.386 . S
C992 C987 1.490 . S
C992 C994 1.395 1_554 S
C992 C995 1.403 . S
H993 C999 0.930 1_554 S
C994 H980 0.930 . S
C994 C992 1.395 1_556 S
C994 C997 1.403 . S
C995 C992 1.403 . S
C995 C996 1.524 . S
C995 C999 1.400 1_554 S
C996 H981 0.960 . S
C996 H982 0.960 . S
C996 H983 0.960 . S
C996 C995 1.524 . S
C997 C994 1.403 . S
C997 C998 1.392 . S
C997 C1001 1.495 . S
C998 C997 1.392 . S
C998 C999 1.385 . S
C998 C1000 1.478 . S
C999 H993 0.930 1_556 S
C999 C995 1.400 1_556 S
C999 C998 1.385 . S
C1000 C998 1.478 . S
C1000 C1002 1.381 . S
C1000 C1006 1.383 . S
C1001 C997 1.495 . S
C1001 H1007 0.959 . S
C1001 H1008 0.961 . S
C1001 H1009 0.960 . S
C1002 C1000 1.381 . S
C1002 C1003 1.394 . S
C1002 H1010 0.930 . S
C1003 C1002 1.394 . S
C1003 C1004 1.383 . S
C1003 H1011 0.929 . S
C1004 C1003 1.383 . S
C1004 C1005 1.377 . S
C1005 H989 0.930 . S
C1005 C1004 1.377 . S
C1005 C1006 1.379 . S
C1006 H990 0.931 . S
C1006 C1000 1.383 . S
C1006 C1005 1.379 . S
H1007 C1001 0.959 . S
H1008 C1001 0.961 . S
H1009 C1001 0.960 . S
H1010 C1002 0.930 . S
H1011 C1003 0.929 . S
H1012 C1020 0.929 . S
H1013 C1022 0.930 . S
H1014 C1024 0.930 . S
H1015 C1027 0.929 . S
H1016 C1030 0.930 . S
H1017 C1032 0.960 . S
H1018 C1032 0.960 . S
H1019 C1032 0.960 . S
C1020 H1012 0.929 . S
C1020 C1021 1.377 . S
C1020 C1022 1.384 . S
C1021 C1020 1.377 . S
C1021 C1027 1.390 . S
C1022 H1013 0.930 . S
C1022 C1020 1.384 . S
C1022 C1023 1.372 . S
C1023 C1022 1.372 . S
C1023 C1024 1.400 . S
C1023 C1028 1.490 . S
C1024 H1014 0.930 . S
C1024 C1023 1.400 . S
C1024 C1027 1.386 . S
H1025 C1041 0.930 . S
H1026 C1042 0.931 . S
C1027 H1015 0.929 . S
C1027 C1021 1.390 . S
C1027 C1024 1.386 . S
C1028 C1023 1.490 . S
C1028 C1030 1.395 . S
C1028 C1031 1.403 1_554 S
H1029 C1035 0.930 . S
C1030 H1016 0.930 . S
C1030 C1028 1.395 . S
C1030 C1033 1.403 . S
C1031 C1028 1.403 1_556 S
C1031 C1032 1.524 . S
C1031 C1035 1.400 . S
C1032 H1017 0.960 . S
C1032 H1018 0.960 . S
C1032 H1019 0.960 . S
C1032 C1031 1.524 . S
C1033 C1030 1.403 . S
C1033 C1034 1.392 1_554 S
C1033 C1037 1.495 . S
C1034 C1033 1.392 1_556 S
C1034 C1035 1.385 . S
C1034 C1036 1.478 . S
C1035 H1029 0.930 . S
C1035 C1031 1.400 . S
C1035 C1034 1.385 . S
C1036 C1034 1.478 . S
C1036 C1038 1.381 . S
C1036 C1042 1.383 . S
C1037 C1033 1.495 . S
C1037 H1043 0.959 . S
C1037 H1044 0.961 . S
C1037 H1045 0.960 . S
C1038 C1036 1.381 . S
C1038 C1039 1.394 . S
C1038 H1046 0.930 . S
C1039 C1038 1.394 . S
C1039 C1040 1.383 . S
C1039 H1047 0.929 . S
C1040 C1039 1.383 . S
C1040 C1041 1.377 . S
C1041 H1025 0.930 . S
C1041 C1040 1.377 . S
C1041 C1042 1.379 . S
C1042 H1026 0.931 . S
C1042 C1036 1.383 . S
C1042 C1041 1.379 . S
H1043 C1037 0.959 . S
H1044 C1037 0.961 . S
H1045 C1037 0.960 . S
H1046 C1038 0.930 . S
H1047 C1039 0.929 . S
H1048 C1056 0.929 . S
H1049 C1058 0.930 . S
H1050 C1060 0.930 . S
H1051 C1063 0.929 . S
H1052 C1066 0.930 . S
H1053 C1068 0.960 . S
H1054 C1068 0.960 . S
H1055 C1068 0.960 . S
C1056 H1048 0.929 . S
C1056 C1057 1.377 1_655 S
C1056 C1058 1.384 . S
C1057 C1056 1.377 1_455 S
C1057 C1063 1.390 . S
C1058 H1049 0.930 . S
C1058 C1056 1.384 . S
C1058 C1059 1.372 1_655 S
C1059 C1058 1.372 1_455 S
C1059 C1060 1.400 . S
C1059 C1064 1.490 . S
C1060 H1050 0.930 . S
C1060 C1059 1.400 . S
C1060 C1063 1.386 . S
H1061 C1077 0.930 . S
H1062 C1078 0.931 . S
C1063 H1051 0.929 . S
C1063 C1057 1.390 . S
C1063 C1060 1.386 . S
C1064 C1059 1.490 . S
C1064 C1066 1.395 1_455 S
C1064 C1067 1.403 . S
H1065 C1071 0.930 . S
C1066 H1052 0.930 . S
C1066 C1064 1.395 1_655 S
C1066 C1069 1.403 . S
C1067 C1064 1.403 . S
C1067 C1068 1.524 . S
C1067 C1071 1.400 . S
C1068 H1053 0.960 . S
C1068 H1054 0.960 . S
C1068 H1055 0.960 . S
C1068 C1067 1.524 . S
C1069 C1066 1.403 . S
C1069 C1070 1.392 1_655 S
C1069 C1073 1.495 . S
C1070 C1069 1.392 1_455 S
C1070 C1071 1.385 . S
C1070 C1072 1.478 . S
C1071 H1065 0.930 . S
C1071 C1067 1.400 . S
C1071 C1070 1.385 . S
C1072 C1070 1.478 . S
C1072 C1074 1.372 1_455 S
C1072 C1078 1.383 . S
C1073 C1069 1.495 . S
C1073 H1079 0.959 . S
C1073 H1080 0.961 . S
C1073 H1081 0.960 . S
C1074 C1072 1.372 1_655 S
C1074 C1075 1.389 1_655 S
C1074 H1082 0.948 . S
C1075 C1074 1.389 1_455 S
C1075 C1076 1.383 . S
C1075 H1083 0.929 1_455 S
C1076 C1075 1.383 . S
C1076 C1077 1.377 . S
C1077 H1061 0.930 . S
C1077 C1076 1.377 . S
C1077 C1078 1.379 . S
C1078 H1062 0.931 . S
C1078 C1072 1.383 . S
C1078 C1077 1.379 . S
H1079 C1073 0.959 . S
H1080 C1073 0.961 . S
H1081 C1073 0.960 . S
H1082 C1074 0.948 . S
H1083 C1075 0.929 1_655 S
H1084 C1092 0.929 . S
H1085 C1094 0.930 . S
H1086 C1096 0.930 . S
H1087 C1099 0.929 . S
H1088 C1102 0.930 . S
H1089 C1104 0.960 . S
H1090 C1104 0.960 1_565 S
H1091 C1104 0.960 . S
C1092 H1084 0.929 . S
C1092 C1093 1.377 1_565 S
C1092 C1094 1.384 . S
C1093 C1092 1.377 1_545 S
C1093 C1099 1.390 . S
C1094 H1085 0.930 . S
C1094 C1092 1.384 . S
C1094 C1095 1.372 1_565 S
C1095 C1094 1.372 1_545 S
C1095 C1096 1.400 . S
C1095 C1100 1.490 . S
C1096 H1086 0.930 . S
C1096 C1095 1.400 . S
C1096 C1099 1.386 . S
H1097 C1113 0.930 . S
H1098 C1114 0.931 . S
C1099 H1087 0.929 . S
C1099 C1093 1.390 . S
C1099 C1096 1.386 . S
C1100 C1095 1.490 . S
C1100 C1102 1.395 . S
C1100 C1103 1.403 . S
H1101 C1107 0.930 . S
C1102 H1088 0.930 . S
C1102 C1100 1.395 . S
C1102 C1105 1.403 . S
C1103 C1100 1.403 . S
C1103 C1104 1.524 . S
C1103 C1107 1.400 . S
C1104 H1089 0.960 . S
C1104 H1090 0.960 1_545 S
C1104 H1091 0.960 . S
C1104 C1103 1.524 . S
C1105 C1102 1.403 . S
C1105 C1106 1.392 . S
C1105 C1109 1.495 . S
C1106 C1105 1.392 . S
C1106 C1107 1.385 . S
C1106 C1108 1.478 . S
C1107 H1101 0.930 . S
C1107 C1103 1.400 . S
C1107 C1106 1.385 . S
C1108 C1106 1.478 . S
C1108 C1110 1.381 1_545 S
C1108 C1114 1.383 . S
C1109 C1105 1.495 . S
C1109 H1115 0.959 . S
C1109 H1116 0.961 . S
C1109 H1117 0.960 . S
C1110 C1108 1.381 1_565 S
C1110 C1111 1.394 . S
C1110 H1118 0.930 . S
C1111 C1110 1.394 . S
C1111 C1112 1.383 1_565 S
C1111 H1119 0.929 . S
C1112 C1111 1.383 1_545 S
C1112 C1113 1.377 . S
C1113 H1097 0.930 . S
C1113 C1112 1.377 . S
C1113 C1114 1.379 . S
C1114 H1098 0.931 . S
C1114 C1108 1.383 . S
C1114 C1113 1.379 . S
H1115 C1109 0.959 . S
H1116 C1109 0.961 . S
H1117 C1109 0.960 . S
H1118 C1110 0.930 . S
H1119 C1111 0.929 . S
H1120 C1128 0.929 . S
H1121 C1130 0.930 . S
H1122 C1132 0.930 . S
H1123 C1135 0.929 . S
H1124 C1138 0.930 . S
H1125 C1140 0.960 . S
H1126 C1140 0.960 . S
H1127 C1140 0.960 . S
C1128 H1120 0.929 . S
C1128 C1129 1.377 . S
C1128 C1130 1.384 . S
C1129 C1128 1.377 . S
C1129 C1135 1.390 . S
C1130 H1121 0.930 . S
C1130 C1128 1.384 . S
C1130 C1131 1.372 . S
C1131 C1130 1.372 . S
C1131 C1132 1.400 . S
C1131 C1136 1.490 . S
C1132 H1122 0.930 . S
C1132 C1131 1.400 . S
C1132 C1135 1.386 . S
H1133 C1149 0.930 . S
H1134 C1150 0.931 . S
C1135 H1123 0.929 . S
C1135 C1129 1.390 . S
C1135 C1132 1.386 . S
C1136 C1131 1.490 . S
C1136 C1138 1.395 . S
C1136 C1139 1.403 . S
H1137 C1143 0.930 . S
C1138 H1124 0.930 . S
C1138 C1136 1.395 . S
C1138 C1141 1.403 . S
C1139 C1136 1.403 . S
C1139 C1140 1.524 . S
C1139 C1143 1.400 . S
C1140 H1125 0.960 . S
C1140 H1126 0.960 . S
C1140 H1127 0.960 . S
C1140 C1139 1.524 . S
C1141 C1138 1.403 . S
C1141 C1142 1.392 . S
C1141 C1145 1.495 . S
C1142 C1141 1.392 . S
C1142 C1143 1.385 . S
C1142 C1144 1.478 . S
C1143 H1137 0.930 . S
C1143 C1139 1.400 . S
C1143 C1142 1.385 . S
C1144 C1142 1.478 . S
C1144 C1146 1.381 . S
C1144 C1150 1.383 . S
C1145 C1141 1.495 . S
C1145 H1151 0.959 . S
C1145 H1152 0.961 . S
C1145 H1153 0.960 . S
C1146 C1144 1.381 . S
C1146 C1147 1.394 . S
C1146 H1154 0.930 . S
C1147 C1146 1.394 . S
C1147 C1148 1.383 . S
C1147 H1155 0.929 . S
C1148 C1147 1.383 . S
C1148 C1149 1.377 . S
C1149 H1133 0.930 . S
C1149 C1148 1.377 . S
C1149 C1150 1.379 . S
C1150 H1134 0.931 . S
C1150 C1144 1.383 . S
C1150 C1149 1.379 . S
H1151 C1145 0.959 . S
H1152 C1145 0.961 . S
H1153 C1145 0.960 . S
H1154 C1146 0.930 . S
H1155 C1147 0.929 . S
H1156 C1164 0.929 . S
H1157 C1166 0.930 . S
H1158 C1168 0.930 . S
H1159 C1171 0.929 . S
H1160 C1174 0.930 . S
H1161 C1176 0.960 . S
H1162 C1176 0.960 . S
H1163 C1176 0.960 . S
C1164 H1156 0.929 . S
C1164 C1165 1.377 . S
C1164 C1166 1.384 . S
C1165 C1164 1.377 . S
C1165 C1171 1.390 . S
C1166 H1157 0.930 . S
C1166 C1164 1.384 . S
C1166 C1167 1.372 . S
C1167 C1166 1.372 . S
C1167 C1168 1.400 . S
C1167 C1172 1.490 . S
C1168 H1158 0.930 . S
C1168 C1167 1.400 . S
C1168 C1171 1.386 . S
H1169 C1185 0.930 . S
H1170 C1186 0.931 . S
C1171 H1159 0.929 . S
C1171 C1165 1.390 . S
C1171 C1168 1.386 . S
C1172 C1167 1.490 . S
C1172 C1174 1.395 . S
C1172 C1175 1.403 . S
H1173 C1179 0.930 . S
C1174 H1160 0.930 . S
C1174 C1172 1.395 . S
C1174 C1177 1.403 . S
C1175 C1172 1.403 . S
C1175 C1176 1.524 . S
C1175 C1179 1.400 . S
C1176 H1161 0.960 . S
C1176 H1162 0.960 . S
C1176 H1163 0.960 . S
C1176 C1175 1.524 . S
C1177 C1174 1.403 . S
C1177 C1178 1.392 . S
C1177 C1181 1.495 . S
C1178 C1177 1.392 . S
C1178 C1179 1.385 . S
C1178 C1180 1.478 . S
C1179 H1173 0.930 . S
C1179 C1175 1.400 . S
C1179 C1178 1.385 . S
C1180 C1178 1.478 . S
C1180 C1182 1.381 . S
C1180 C1186 1.383 . S
C1181 C1177 1.495 . S
C1181 H1187 0.959 . S
C1181 H1188 0.961 . S
C1181 H1189 0.960 . S
C1182 C1180 1.381 . S
C1182 C1183 1.394 . S
C1182 H1190 0.930 . S
C1183 C1182 1.394 . S
C1183 C1184 1.383 . S
C1183 H1191 0.929 . S
C1184 C1183 1.383 . S
C1184 C1185 1.377 . S
C1185 H1169 0.930 . S
C1185 C1184 1.377 . S
C1185 C1186 1.379 . S
C1186 H1170 0.931 . S
C1186 C1180 1.383 . S
C1186 C1185 1.379 . S
H1187 C1181 0.959 . S
H1188 C1181 0.961 . S
H1189 C1181 0.960 . S
H1190 C1182 0.930 . S
H1191 C1183 0.929 . S
H1192 C1200 0.932 . S
H1193 C1202 0.928 1_455 S
H1194 C1204 0.930 . S
H1195 C1207 0.929 . S
H1196 C1210 0.930 . S
H1197 C1212 0.960 . S
H1198 C1212 0.960 . S
H1199 C1212 0.960 . S
C1200 H1192 0.932 . S
C1200 C1201 1.376 1_455 S
C1200 C1202 1.383 1_455 S
C1201 C1200 1.376 1_655 S
C1201 C1207 1.390 . S
C1202 H1193 0.928 1_655 S
C1202 C1200 1.383 1_655 S
C1202 C1203 1.374 . S
C1203 C1202 1.374 . S
C1203 C1204 1.400 . S
C1203 C1208 1.490 . S
C1204 H1194 0.930 . S
C1204 C1203 1.400 . S
C1204 C1207 1.386 . S
H1205 C1221 0.930 . S
H1206 C1222 0.931 . S
C1207 H1195 0.929 . S
C1207 C1201 1.390 . S
C1207 C1204 1.386 . S
C1208 C1203 1.490 . S
C1208 C1210 1.395 1_655 S
C1208 C1211 1.403 . S
H1209 C1215 0.930 . S
C1210 H1196 0.930 . S
C1210 C1208 1.395 1_455 S
C1210 C1213 1.403 . S
C1211 C1208 1.403 . S
C1211 C1212 1.524 . S
C1211 C1215 1.400 . S
C1212 H1197 0.960 . S
C1212 H1198 0.960 . S
C1212 H1199 0.960 . S
C1212 C1211 1.524 . S
C1213 C1210 1.403 . S
C1213 C1214 1.392 1_455 S
C1213 C1217 1.495 . S
C1214 C1213 1.392 1_655 S
C1214 C1215 1.385 . S
C1214 C1216 1.478 . S
C1215 H1209 0.930 . S
C1215 C1211 1.400 . S
C1215 C1214 1.385 . S
C1216 C1214 1.478 . S
C1216 C1218 1.381 . S
C1216 C1222 1.383 . S
C1217 C1213 1.495 . S
C1217 H1223 0.959 . S
C1217 H1224 0.961 . S
C1217 H1225 0.960 . S
C1218 C1216 1.381 . S
C1218 C1219 1.394 . S
C1218 H1226 0.930 . S
C1219 C1218 1.394 . S
C1219 C1220 1.383 . S
C1219 H1227 0.929 . S
C1220 C1219 1.383 . S
C1220 C1221 1.377 . S
C1221 H1205 0.930 . S
C1221 C1220 1.377 . S
C1221 C1222 1.379 . S
C1222 H1206 0.931 . S
C1222 C1216 1.383 . S
C1222 C1221 1.379 . S
H1223 C1217 0.959 . S
H1224 C1217 0.961 . S
H1225 C1217 0.960 . S
H1226 C1218 0.930 . S
H1227 C1219 0.929 . S
H1228 C1236 0.929 . S
H1229 C1238 0.930 . S
H1230 C1240 0.930 . S
H1231 C1243 0.929 . S
H1232 C1246 0.930 . S
H1233 C1248 0.960 . S
H1234 C1248 0.960 . S
H1235 C1248 0.960 . S
C1236 H1228 0.929 . S
C1236 C1237 1.377 . S
C1236 C1238 1.384 . S
C1237 C1236 1.377 . S
C1237 C1243 1.390 1_565 S
C1238 H1229 0.930 . S
C1238 C1236 1.384 . S
C1238 C1239 1.372 . S
C1239 C1238 1.372 . S
C1239 C1240 1.400 1_565 S
C1239 C1244 1.490 . S
C1240 H1230 0.930 . S
C1240 C1239 1.400 1_545 S
C1240 C1243 1.386 . S
H1241 C1257 0.930 . S
H1242 C1258 0.931 . S
C1243 H1231 0.929 . S
C1243 C1237 1.390 1_545 S
C1243 C1240 1.386 . S
C1244 C1239 1.490 . S
C1244 C1246 1.395 . S
C1244 C1247 1.403 . S
H1245 C1251 0.930 . S
C1246 H1232 0.930 . S
C1246 C1244 1.395 . S
C1246 C1249 1.403 . S
C1247 C1244 1.403 . S
C1247 C1248 1.524 . S
C1247 C1251 1.400 . S
C1248 H1233 0.960 . S
C1248 H1234 0.960 . S
C1248 H1235 0.960 . S
C1248 C1247 1.524 . S
C1249 C1246 1.403 . S
C1249 C1250 1.392 . S
C1249 C1253 1.495 . S
C1250 C1249 1.392 . S
C1250 C1251 1.385 . S
C1250 C1252 1.478 . S
C1251 H1245 0.930 . S
C1251 C1247 1.400 . S
C1251 C1250 1.385 . S
C1252 C1250 1.478 . S
C1252 C1254 1.381 . S
C1252 C1258 1.383 1_565 S
C1253 C1249 1.495 . S
C1253 H1259 0.959 . S
C1253 H1260 0.961 1_565 S
C1253 H1261 0.960 . S
C1254 C1252 1.381 . S
C1254 C1255 1.394 . S
C1254 H1262 0.930 . S
C1255 C1254 1.394 . S
C1255 C1256 1.383 . S
C1255 H1263 0.929 . S
C1256 C1255 1.383 . S
C1256 C1257 1.377 1_565 S
C1257 H1241 0.930 . S
C1257 C1256 1.377 1_545 S
C1257 C1258 1.379 . S
C1258 H1242 0.931 . S
C1258 C1252 1.383 1_545 S
C1258 C1257 1.379 . S
H1259 C1253 0.959 . S
H1260 C1253 0.961 1_545 S
H1261 C1253 0.960 . S
H1262 C1254 0.930 . S
H1263 C1255 0.929 . S
H1264 C1272 0.929 . S
H1265 C1274 0.930 . S
H1266 C1276 0.930 . S
H1267 C1279 0.929 . S
H1268 C1282 0.930 . S
H1269 C1284 0.960 . S
H1270 C1284 0.960 . S
H1271 C1284 0.960 . S
C1272 H1264 0.929 . S
C1272 C1273 1.377 . S
C1272 C1274 1.384 . S
C1273 C1272 1.377 . S
C1273 C1279 1.390 . S
C1274 H1265 0.930 . S
C1274 C1272 1.384 . S
C1274 C1275 1.372 . S
C1275 C1274 1.372 . S
C1275 C1276 1.400 . S
C1275 C1280 1.490 . S
C1276 H1266 0.930 . S
C1276 C1275 1.400 . S
C1276 C1279 1.386 . S
H1277 C1293 0.930 . S
H1278 C1294 0.931 . S
C1279 H1267 0.929 . S
C1279 C1273 1.390 . S
C1279 C1276 1.386 . S
C1280 C1275 1.490 . S
C1280 C1282 1.395 . S
C1280 C1283 1.403 . S
H1281 C1287 0.930 . S
C1282 H1268 0.930 . S
C1282 C1280 1.395 . S
C1282 C1285 1.403 . S
C1283 C1280 1.403 . S
C1283 C1284 1.524 . S
C1283 C1287 1.400 . S
C1284 H1269 0.960 . S
C1284 H1270 0.960 . S
C1284 H1271 0.960 . S
C1284 C1283 1.524 . S
C1285 C1282 1.403 . S
C1285 C1286 1.392 . S
C1285 C1289 1.495 . S
C1286 C1285 1.392 . S
C1286 C1287 1.385 . S
C1286 C1288 1.478 . S
C1287 H1281 0.930 . S
C1287 C1283 1.400 . S
C1287 C1286 1.385 . S
C1288 C1286 1.478 . S
C1288 C1290 1.381 . S
C1288 C1294 1.383 . S
C1289 C1285 1.495 . S
C1289 H1295 0.959 . S
C1289 H1296 0.961 . S
C1289 H1297 0.960 . S
C1290 C1288 1.381 . S
C1290 C1291 1.394 . S
C1290 H1298 0.930 . S
C1291 C1290 1.394 . S
C1291 C1292 1.383 . S
C1291 H1299 0.929 . S
C1292 C1291 1.383 . S
C1292 C1293 1.377 . S
C1293 H1277 0.930 . S
C1293 C1292 1.377 . S
C1293 C1294 1.379 . S
C1294 H1278 0.931 . S
C1294 C1288 1.383 . S
C1294 C1293 1.379 . S
H1295 C1289 0.959 . S
H1296 C1289 0.961 . S
H1297 C1289 0.960 . S
H1298 C1290 0.930 . S
H1299 C1291 0.929 . S
H1300 C1308 0.929 . S
H1301 C1310 0.930 . S
H1302 C1312 0.930 . S
H1303 C1315 0.929 . S
H1304 C1318 0.930 . S
H1305 C1320 0.960 . S
H1306 C1320 0.960 . S
H1307 C1320 0.960 . S
C1308 H1300 0.929 . S
C1308 C1309 1.377 . S
C1308 C1310 1.384 . S
C1309 C1308 1.377 . S
C1309 C1315 1.390 . S
C1310 H1301 0.930 . S
C1310 C1308 1.384 . S
C1310 C1311 1.372 . S
C1311 C1310 1.372 . S
C1311 C1312 1.400 . S
C1311 C1316 1.490 . S
C1312 H1302 0.930 . S
C1312 C1311 1.400 . S
C1312 C1315 1.386 . S
H1313 C1329 0.930 . S
H1314 C1330 0.931 . S
C1315 H1303 0.929 . S
C1315 C1309 1.390 . S
C1315 C1312 1.386 . S
C1316 C1311 1.490 . S
C1316 C1318 1.395 . S
C1316 C1319 1.403 . S
H1317 C1323 0.930 . S
C1318 H1304 0.930 . S
C1318 C1316 1.395 . S
C1318 C1321 1.403 . S
C1319 C1316 1.403 . S
C1319 C1320 1.524 . S
C1319 C1323 1.400 . S
C1320 H1305 0.960 . S
C1320 H1306 0.960 . S
C1320 H1307 0.960 . S
C1320 C1319 1.524 . S
C1321 C1318 1.403 . S
C1321 C1322 1.392 . S
C1321 C1325 1.495 . S
C1322 C1321 1.392 . S
C1322 C1323 1.385 . S
C1322 C1324 1.478 . S
C1323 H1317 0.930 . S
C1323 C1319 1.400 . S
C1323 C1322 1.385 . S
C1324 C1322 1.478 . S
C1324 C1326 1.381 . S
C1324 C1330 1.383 . S
C1325 C1321 1.495 . S
C1325 H1331 0.959 . S
C1325 H1332 0.961 . S
C1325 H1333 0.960 . S
C1326 C1324 1.381 . S
C1326 C1327 1.394 . S
C1326 H1334 0.930 . S
C1327 C1326 1.394 . S
C1327 C1328 1.383 . S
C1327 H1335 0.929 . S
C1328 C1327 1.383 . S
C1328 C1329 1.377 . S
C1329 H1313 0.930 . S
C1329 C1328 1.377 . S
C1329 C1330 1.379 . S
C1330 H1314 0.931 . S
C1330 C1324 1.383 . S
C1330 C1329 1.379 . S
H1331 C1325 0.959 . S
H1332 C1325 0.961 . S
H1333 C1325 0.960 . S
H1334 C1326 0.930 . S
H1335 C1327 0.929 . S
C481 C255 1.903 . S
C500 C321 2.015 1_545 S
C536 C361 2.014 . S
C517 C294 1.900 . S
C572 C401 2.015 . S
C553 C177 1.905 . S
C608 C441 2.022 1_455 S
C589 C216 1.914 . S
C644 C330 2.014 1_565 S
C625 C99 1.916 . S
C661 C138 1.890 . S
C680 C370 2.019 . S
C697 C21 1.910 . S
C716 C410 2.014 . S
C733 C60 1.915 1_455 S
C752 C450 2.027 1_655 S
C788 C327 0.215 . S
C769 C196 0.254 1_455 S
C824 C367 0.287 . S
C805 C235 0.280 . S
C860 C407 0.204 . S
C841 C289 0.253 . S
C877 C157 0.295 . S
C896 C447 0.358 . S
C913 C40 0.262 . S
C932 C318 0.327 . S
C968 C358 0.235 . S
C949 C79 0.281 . S
C1004 C398 0.227 . S
C985 C133 0.249 . S
C1021 C1 0.280 . S
C1040 C438 0.253 . S
C1057 C211 2.515 . S
C1076 C331 2.810 . S
C1093 C250 2.507 . S
C1112 C371 2.811 . S
C1148 C411 2.828 . S
C1129 C274 2.527 . S
C1184 C451 2.804 . S
C1165 C172 2.503 . S
C1201 C55 2.524 1_655 S
C1220 C322 2.810 . S
C1256 C362 2.807 . S
C1237 C94 2.508 . S
C1292 C402 2.825 . S
C1273 C118 2.518 . S
C1309 C16 2.510 . S
C1328 C442 2.822 . S
