# Generated by pormake.
# Topology nom, (4,4)-cn, num edge types: 1
# Building blocks:
#     Node 0, Type 0, BuildingBlock: KUFVIS_clean_linker_0, # of connection points: 4
#     Node 1, Type 0, BuildingBlock: KUFVIS_clean_linker_0, # of connection points: 4
#     Node 2, Type 0, BuildingBlock: KUFVIS_clean_linker_0, # of connection points: 4
#     Node 3, Type 0, BuildingBlock: KUFVIS_clean_linker_0, # of connection points: 4
#     Node 4, Type 0, BuildingBlock: KUFVIS_clean_linker_0, # of connection points: 4
#     Node 5, Type 0, BuildingBlock: KUFVIS_clean_linker_0, # of connection points: 4
#     Node 6, Type 1, BuildingBlock: KUFVIS_clean_sbu_0, # of connection points: 4
#     Node 7, Type 1, BuildingBlock: KUFVIS_clean_sbu_0, # of connection points: 4
#     Node 8, Type 1, BuildingBlock: KUFVIS_clean_sbu_0, # of connection points: 4
#     Node 9, Type 1, BuildingBlock: KUFVIS_clean_sbu_0, # of connection points: 4
#     Node 10, Type 1, BuildingBlock: KUFVIS_clean_sbu_0, # of connection points: 4
#     Node 11, Type 1, BuildingBlock: KUFVIS_clean_sbu_0, # of connection points: 4
#     Edge 12, Type (0, 1), BuildingBlock: AJUNOK_clean_linker_0, # of connection points: 2
#     Edge 13, Type (0, 1), BuildingBlock: AJUNOK_clean_linker_0, # of connection points: 2
#     Edge 14, Type (0, 1), BuildingBlock: AJUNOK_clean_linker_0, # of connection points: 2
#     Edge 15, Type (0, 1), BuildingBlock: AJUNOK_clean_linker_0, # of connection points: 2
#     Edge 16, Type (0, 1), BuildingBlock: AJUNOK_clean_linker_0, # of connection points: 2
#     Edge 17, Type (0, 1), BuildingBlock: AJUNOK_clean_linker_0, # of connection points: 2
#     Edge 18, Type (0, 1), BuildingBlock: AJUNOK_clean_linker_0, # of connection points: 2
#     Edge 19, Type (0, 1), BuildingBlock: AJUNOK_clean_linker_0, # of connection points: 2
#     Edge 20, Type (0, 1), BuildingBlock: AJUNOK_clean_linker_0, # of connection points: 2
#     Edge 21, Type (0, 1), BuildingBlock: AJUNOK_clean_linker_0, # of connection points: 2
#     Edge 22, Type (0, 1), BuildingBlock: AJUNOK_clean_linker_0, # of connection points: 2
#     Edge 23, Type (0, 1), BuildingBlock: AJUNOK_clean_linker_0, # of connection points: 2
#     Edge 24, Type (0, 1), BuildingBlock: AJUNOK_clean_linker_0, # of connection points: 2
#     Edge 25, Type (0, 1), BuildingBlock: AJUNOK_clean_linker_0, # of connection points: 2
#     Edge 26, Type (0, 1), BuildingBlock: AJUNOK_clean_linker_0, # of connection points: 2
#     Edge 27, Type (0, 1), BuildingBlock: AJUNOK_clean_linker_0, # of connection points: 2
#     Edge 28, Type (0, 1), BuildingBlock: AJUNOK_clean_linker_0, # of connection points: 2
#     Edge 29, Type (0, 1), BuildingBlock: AJUNOK_clean_linker_0, # of connection points: 2
#     Edge 30, Type (0, 1), BuildingBlock: AJUNOK_clean_linker_0, # of connection points: 2
#     Edge 31, Type (0, 1), BuildingBlock: AJUNOK_clean_linker_0, # of connection points: 2
#     Edge 32, Type (0, 1), BuildingBlock: AJUNOK_clean_linker_0, # of connection points: 2
#     Edge 33, Type (0, 1), BuildingBlock: AJUNOK_clean_linker_0, # of connection points: 2
#     Edge 34, Type (0, 1), BuildingBlock: AJUNOK_clean_linker_0, # of connection points: 2
#     Edge 35, Type (0, 1), BuildingBlock: AJUNOK_clean_linker_0, # of connection points: 2
# Relax obj value: 0.004
# Max RMSD: 0.054
# Mean RMSD: 0.039
data_MOF--net-nom--node1-KUFVIS_clean_sbu_0--node2-KUFVIS_clean_linker_0--edge1-AJUNOK_clean_linker_0
_symmetry_space_group_name_H-M    P1
_symmetry_Int_Tables_number       1
_symmetry_cell_setting            triclinic
loop_
_symmetry_equiv_pos_as_xyz
'x, y, z'
_cell_length_a     32.220552
_cell_length_b     32.763229
_cell_length_c     35.779209
_cell_angle_alpha  90.167472
_cell_angle_beta   90.122232
_cell_angle_gamma 120.16234
loop_
_atom_site_label
_atom_site_type_symbol
_atom_site_fract_x
_atom_site_fract_y
_atom_site_fract_z
_atom_type_partial_charge
H0 H 0.22381 0.67515 0.32972 0.0
H1 H 0.1148 0.60856 0.24703 0.0
H2 H 0.08189 0.5718 0.36406 0.0
H3 H 1.01163 0.567 0.35077 0.0
H4 H 0.90141 0.49915 0.26885 0.0
H5 H 1.04623 0.54299 0.23843 0.0
C6 C 0.18686 0.64938 0.32296 0.0
C7 C 0.15519 0.62246 0.35122 0.0
C8 C 0.17351 0.6408 0.28555 0.0
C9 C 0.12477 0.61213 0.27623 0.0
C10 C 0.08988 0.58884 0.30471 0.0
C11 C 0.1064 0.59267 0.34212 0.0
C12 C 1.03693 0.56042 0.29555 0.0
C13 C 1.00156 0.55323 0.32265 0.0
C14 C 0.95245 0.52849 0.31323 0.0
C15 C 0.93889 0.51402 0.27648 0.0
C16 C 0.97206 0.51786 0.24971 0.0
C17 C 1.02104 0.54091 0.25931 0.0
H18 H 0.6014 0.20822 0.49145 0.0
H19 H 0.53884 0.09984 0.40927 0.0
H20 H 0.55056 0.06586 0.52496 0.0
H21 H 0.49448 0.99553 0.51415 0.0
H22 H 0.43476 0.88849 0.43062 0.0
H23 H 0.52638 1.03102 0.39664 0.0
C24 C 0.58481 0.17097 0.48452 0.0
C25 C 0.57614 0.13822 0.51254 0.0
C26 C 0.57408 0.15728 0.44736 0.0
C27 C 0.54928 0.10909 0.43812 0.0
C28 C 0.53869 0.0742 0.46603 0.0
C29 C 0.55418 0.0901 0.50316 0.0
C30 C 0.51191 1.02199 0.45657 0.0
C31 C 0.49117 0.98667 0.48482 0.0
C32 C 0.46587 0.93852 0.47517 0.0
C33 C 0.45713 0.92559 0.43773 0.0
C34 C 0.47922 0.95859 0.40943 0.0
C35 C 0.50725 1.00655 0.41887 0.0
H36 H 0.63465 0.45843 0.59489 0.0
H37 H 0.57745 0.49994 0.68357 0.0
H38 H 0.52197 0.48772 0.57077 0.0
H39 H 0.50153 0.5389 0.58515 0.0
H40 H 0.45258 0.58958 0.67527 0.0
H41 H 0.5261 0.516 0.70096 0.0
C42 C 0.60892 0.46829 0.6041 0.0
C43 C 0.57684 0.46978 0.57847 0.0
C44 C 0.60604 0.47537 0.64209 0.0
C45 C 0.57657 0.49287 0.65409 0.0
C46 C 0.54773 0.50112 0.62839 0.0
C47 C 0.54666 0.48678 0.59068 0.0
C48 C 0.51909 0.52406 0.64093 0.0
C49 C 0.4986 0.54202 0.61494 0.0
C50 C 0.47461 0.56562 0.62739 0.0
C51 C 0.47165 0.57212 0.66555 0.0
C52 C 0.49098 0.55484 0.69159 0.0
C53 C 0.51332 0.52999 0.6795 0.0
H54 H 0.21605 0.59175 0.75236 0.0
H55 H 0.11969 0.53165 0.84436 0.0
H56 H 0.06546 0.53346 0.73379 0.0
H57 H 1.00095 0.46893 0.75436 0.0
H58 H 0.90558 0.43706 0.84681 0.0
H59 H 0.05547 0.53307 0.86291 0.0
C60 C 0.17988 0.57539 0.76344 0.0
C61 C 0.14145 0.56334 0.73911 0.0
C62 C 0.17222 0.56445 0.80136 0.0
C63 C 0.12509 0.54114 0.81513 0.0
C64 C 0.08551 0.52953 0.79132 0.0
C65 C 0.09447 0.54109 0.75301 0.0
C66 C 1.0353 0.50478 0.80637 0.0
C67 C 0.99571 0.47481 0.7833 0.0
C68 C 0.94881 0.45144 0.7976 0.0
C69 C 0.94149 0.45683 0.8353 0.0
C70 C 0.97998 0.48518 0.85889 0.0
C71 C 1.02653 0.50992 0.84433 0.0
H72 H 0.51313 0.89688 0.01434 0.0
H73 H 0.58051 0.98236 0.91784 0.0
H74 H 0.57738 0.04603 0.02366 0.0
H75 H 0.64316 0.1069 0.00233 0.0
H76 H 0.66636 0.19591 0.90834 0.0
H77 H 0.57921 0.04607 0.8948 0.0
C78 C 0.53232 0.93122 0.00108 0.0
C79 C 0.54552 0.97132 0.02267 0.0
C80 C 0.54481 0.93456 0.96335 0.0
C81 C 0.56968 0.97969 0.94675 0.0
C82 C 0.58193 1.02106 0.96806 0.0
C83 C 0.56945 1.01587 0.0063 0.0
C84 C 0.60709 0.06954 0.95104 0.0
C85 C 0.63593 0.11021 0.9733 0.0
C86 C 0.65564 0.15587 0.95836 0.0
C87 C 0.64911 0.16088 0.92049 0.0
C88 C 0.62255 0.12149 0.89756 0.0
C89 C 0.60111 0.07597 0.91279 0.0
H90 H 0.54479 0.68353 0.08966 0.0
H91 H 0.60678 0.64919 0.18044 0.0
H92 H 0.57792 0.57339 0.07477 0.0
H93 H 0.639 0.56391 0.08969 0.0
H94 H 0.67674 0.50927 0.18448 0.0
H95 H 0.60618 0.58786 0.20252 0.0
C96 C 0.55862 0.66187 0.10077 0.0
C97 C 0.55888 0.62709 0.07841 0.0
C98 C 0.57199 0.66694 0.13809 0.0
C99 C 0.594 0.64234 0.15191 0.0
C100 C 0.59837 0.60898 0.12901 0.0
C101 C 0.57907 0.6009 0.09229 0.0
C102 C 0.62038 0.58105 0.14387 0.0
C103 C 0.63924 0.55978 0.11963 0.0
C104 C 0.65836 0.53253 0.13405 0.0
C105 C 0.6606 0.5286 0.17278 0.0
C106 C 0.64264 0.54927 0.197 0.0
C107 C 0.62196 0.5746 0.1828 0.0
Mn108 Mn 0.66573 0.4192 0.38804 0.0
Mn109 Mn 0.72269 0.53116 0.4212 0.0
C110 C 0.62717 0.44277 0.43041 0.0
C111 C 0.64722 0.34079 0.39032 0.0
C112 C 0.67576 0.50416 0.34493 0.0
O113 O 0.73597 0.44307 0.37457 0.0
O114 O 0.77007 0.51589 0.39963 0.0
C115 C 0.77429 0.51557 0.483 0.0
N116 N 0.74333 0.52969 0.47102 0.0
C117 C 0.73262 0.54951 0.53367 0.0
C118 C 0.76501 0.53597 0.54655 0.0
C119 C 0.78562 0.51853 0.52118 0.0
C120 C 0.72239 0.54538 0.49535 0.0
H121 H 0.79041 0.50238 0.46356 0.0
C122 C 0.77281 0.48295 0.38258 0.0
O123 O 0.64295 0.35907 0.3595 0.0
O124 O 0.66373 0.36823 0.41938 0.0
N125 N 0.68294 0.55249 0.44339 0.0
C126 C 0.65704 0.56935 0.42582 0.0
C127 C 0.63577 0.59007 0.44706 0.0
C128 C 0.64227 0.59427 0.486 0.0
C129 C 0.67072 0.57849 0.50329 0.0
C130 C 0.69125 0.55841 0.48063 0.0
H131 H 0.65266 0.5671 0.39583 0.0
O132 O 0.60293 0.40611 0.40916 0.0
O133 O 0.67363 0.46406 0.42664 0.0
O134 O 0.66091 0.46025 0.34805 0.0
O135 O 0.70057 0.53465 0.37009 0.0
C136 C 0.67999 0.58242 0.54203 0.0
C137 C 0.71071 0.56767 0.55724 0.0
H138 H 0.77481 0.53939 0.57575 0.0
H139 H 0.81052 0.50784 0.53098 0.0
H140 H 0.61456 0.60292 0.43342 0.0
H141 H 0.62569 0.61013 0.50229 0.0
H142 H 0.66397 0.59705 0.56033 0.0
H143 H 0.71778 0.5711 0.58703 0.0
Mn144 Mn 0.30184 0.67732 0.54384 0.0
Mn145 Mn 0.24101 0.56125 0.5207 0.0
C146 C 0.24304 0.64947 0.49792 0.0
C147 C 0.36434 0.75514 0.53797 0.0
C148 C 0.2221 0.60066 0.5912 0.0
O149 O 0.34518 0.65319 0.56398 0.0
O150 O 0.30322 0.57725 0.54469 0.0
C151 C 0.30491 0.55606 0.46383 0.0
N152 N 0.26151 0.55067 0.47334 0.0
C153 C 0.22883 0.51899 0.41254 0.0
C154 C 0.27311 0.52401 0.40218 0.0
C155 C 0.31133 0.54274 0.42792 0.0
C156 C 0.22439 0.53238 0.44885 0.0
H157 H 0.33436 0.57019 0.48353 0.0
C158 C 0.3403 0.61208 0.5599 0.0
O159 O 0.33975 0.74023 0.56849 0.0
O160 O 0.35445 0.72427 0.51149 0.0
N161 N 0.18096 0.5423 0.49635 0.0
C162 C 0.14059 0.53984 0.51064 0.0
C163 C 0.09955 0.52334 0.48798 0.0
C164 C 0.10032 0.50927 0.45099 0.0
C165 C 0.14209 0.51163 0.43703 0.0
C166 C 0.18188 0.5283 0.46093 0.0
H167 H 0.13979 0.55073 0.539 0.0
O168 O 0.25468 0.68846 0.51558 0.0
O169 O 0.2658 0.62785 0.50785 0.0
O170 O 0.253 0.64348 0.58472 0.0
O171 O 0.21556 0.5669 0.56959 0.0
C172 C 0.14593 0.49848 0.40023 0.0
C173 C 0.1892 0.50194 0.38805 0.0
H174 H 0.27834 0.51415 0.37441 0.0
H175 H 0.34568 0.54693 0.42008 0.0
H176 H 0.06745 0.52163 0.49896 0.0
H177 H 0.0687 0.49686 0.43352 0.0
H178 H 0.11586 0.48575 0.38105 0.0
H179 H 0.19175 0.4918 0.35968 0.0
Mn180 Mn 0.66893 0.28231 0.70503 0.0
Mn181 Mn 0.72207 0.21934 0.68125 0.0
C182 C 0.63733 0.22704 0.65759 0.0
C183 C 0.6625 0.34996 0.70026 0.0
C184 C 0.66024 0.19949 0.75019 0.0
O185 O 0.73524 0.31924 0.72879 0.0
O186 O 0.76955 0.27871 0.7068 0.0
C187 C 0.79137 0.28366 0.62519 0.0
N188 N 0.75427 0.24029 0.63443 0.0
C189 C 0.75305 0.20997 0.57284 0.0
C190 C 0.79143 0.25424 0.56273 0.0
C191 C 0.8106 0.29125 0.58901 0.0
C192 C 0.73562 0.20438 0.6094 0.0
H193 H 0.8061 0.31226 0.64526 0.0
C194 C 0.7715 0.31371 0.7245 0.0
O195 O 0.647 0.32307 0.72946 0.0
O196 O 0.68221 0.33794 0.6741 0.0
N197 N 0.68026 0.16137 0.65575 0.0
C198 C 0.64113 0.12191 0.66909 0.0
C199 C 0.61648 0.0822 0.64577 0.0
C200 C 0.63246 0.08335 0.60909 0.0
C201 C 0.67313 0.12415 0.59611 0.0
C202 C 0.69648 0.16252 0.62072 0.0
H203 H 0.62853 0.12085 0.6972 0.0
O204 O 0.61081 0.24107 0.67412 0.0
O205 O 0.68165 0.24651 0.66874 0.0
O206 O 0.64829 0.23049 0.74397 0.0
O207 O 0.68918 0.19395 0.72936 0.0
C208 C 0.69069 0.12867 0.55941 0.0
C209 C 0.73061 0.17155 0.54779 0.0
H210 H 0.8061 0.26037 0.53475 0.0
H211 H 0.84006 0.32559 0.58135 0.0
H212 H 0.58504 0.05088 0.65596 0.0
H213 H 0.61298 0.05287 0.59103 0.0
H214 H 0.67322 0.09968 0.53971 0.0
H215 H 0.74324 0.17487 0.51931 0.0
Mn216 Mn 0.45275 0.66722 0.89332 0.0
Mn217 Mn 0.39541 0.55021 0.91237 0.0
C218 C 0.48466 0.63664 0.9351 0.0
C219 C 0.47139 0.74483 0.90541 0.0
C220 C 0.45165 0.59187 0.84165 0.0
O221 O 0.38439 0.64505 0.87563 0.0
O222 O 0.35038 0.56755 0.8892 0.0
C223 C 0.32661 0.54426 0.96989 0.0
N224 N 0.36394 0.53831 0.95966 0.0
C225 C 0.36365 0.50442 0.01934 0.0
C226 C 0.32495 0.50985 0.03038 0.0
C227 C 0.30646 0.52999 0.00557 0.0
C228 C 0.38186 0.51876 -0.01674 0.0
H229 H 0.3122 0.55965 0.95095 0.0
C230 C 0.3482 0.60306 0.87667 0.0
O231 O 0.47802 0.73229 0.87256 0.0
O232 O 0.4513 0.71189 0.93031 0.0
N233 N 0.43544 0.5298 0.93555 0.0
C234 C 0.47321 0.52758 0.92077 0.0
C235 C 0.49716 0.51022 0.94263 0.0
C236 C 0.48181 0.49499 0.9793 0.0
C237 C 0.44249 0.49707 -0.00627 0.0
C238 C 0.42001 0.51469 0.97063 0.0
H239 H 0.48526 0.53941 0.89265 0.0
O240 O 0.51244 0.67607 0.91811 0.0
O241 O 0.43941 0.61596 0.9266 0.0
O242 O 0.46329 0.63445 0.84881 0.0
O243 O 0.42667 0.55778 0.8637 0.0
C244 C 0.42496 0.48273 0.03023 0.0
C245 C 0.38542 0.48618 0.04296 0.0
H246 H 0.30958 0.49927 0.058 0.0
H247 H 0.2768 0.53457 0.01397 0.0
H248 H 0.52747 0.50871 0.93129 0.0
H249 H 0.50053 0.48184 -0.00386 0.0
H250 H 0.44171 0.46909 0.04877 0.0
H251 H 0.37235 0.47515 0.0711 0.0
Mn252 Mn 0.82408 0.4329 0.05841 0.0
Mn253 Mn 0.8869 0.377 0.07393 0.0
C254 C 0.88288 0.45943 0.10423 0.0
C255 C 0.76116 0.44778 0.06871 0.0
C256 C 0.905 0.44173 0.00823 0.0
O257 O 0.78174 0.36816 0.03397 0.0
O258 O 0.82579 0.33396 0.04748 0.0
C259 C 0.82223 0.30184 0.12605 0.0
N260 N 0.86573 0.34042 0.11864 0.0
C261 C 0.8975 0.33389 0.17785 0.0
C262 C 0.85311 0.29393 0.18601 0.0
C263 C 0.81529 0.27796 0.16004 0.0
C264 C 0.90243 0.35601 0.14339 0.0
H265 H 0.79312 0.28923 0.10611 0.0
C266 C 0.78844 0.33273 0.03351 0.0
O267 O 0.78539 0.45978 0.03789 0.0
O268 O 0.77128 0.42421 0.09263 0.0
N269 N 0.94621 0.41491 0.10001 0.0
C270 C 0.98655 0.45431 0.0881 0.0
C271 C 1.02713 0.47588 0.11149 0.0
C272 C 1.02593 0.45653 0.14673 0.0
C273 C 0.98421 0.41563 0.15818 0.0
C274 C 0.94491 0.39565 0.13366 0.0
H275 H 0.98761 0.46947 0.06112 0.0
O276 O 0.87066 0.48799 0.08942 0.0
O277 O 0.86073 0.41635 0.09165 0.0
O278 O 0.87297 0.45193 0.01661 0.0
O279 O 0.91283 0.41365 0.02755 0.0
C280 C 0.97996 0.39413 0.1931 0.0
C281 C 0.93671 0.35317 0.20286 0.0
H282 H 0.8475 0.27561 0.21231 0.0
H283 H 0.78086 0.24729 0.16622 0.0
H284 H 0.05918 0.50744 0.10244 0.0
H285 H 0.05719 0.47344 0.16479 0.0
H286 H 1.00969 0.40889 0.21271 0.0
H287 H 0.93382 0.33704 0.22984 0.0
Mn288 Mn 0.4358 0.81679 0.21799 0.0
Mn289 Mn 0.55206 0.88819 0.24355 0.0
C290 C 0.45654 0.87454 0.26306 0.0
C291 C 0.35953 0.75005 0.22339 0.0
C292 C 0.50958 0.90011 0.17178 0.0
O293 O 0.46851 0.78049 0.19955 0.0
O294 O 0.54415 0.82996 0.21966 0.0
C295 C 0.55965 0.82826 0.30188 0.0
N296 N 0.5635 0.86999 0.29148 0.0
C297 C 0.58938 0.90247 0.35322 0.0
C298 C 0.58591 0.85992 0.36452 0.0
C299 C 0.57091 0.82265 0.33875 0.0
C300 C 0.57803 0.90614 0.31604 0.0
H301 H 0.54798 0.79944 0.28222 0.0
C302 C 0.51251 0.79145 0.20411 0.0
O303 O 0.37344 0.77385 0.19261 0.0
O304 O 0.39085 0.76308 0.25032 0.0
N305 N 0.56421 0.9454 0.26779 0.0
C306 C 0.56254 0.9829 0.25315 0.0
C307 C 0.57471 1.0225 0.27576 0.0
C308 C 0.5887 1.02325 0.31308 0.0
C309 C 0.59064 0.98446 0.32741 0.0
C310 C 0.5785 0.94613 0.30347 0.0
H311 H 0.5516 0.98246 0.22454 0.0
O312 O 0.4166 0.8586 0.24461 0.0
O313 O 0.4831 0.85654 0.25447 0.0
O314 O 0.46758 0.86555 0.17716 0.0
O315 O 0.54444 0.91111 0.19432 0.0
C316 C 0.60307 0.98187 0.36476 0.0
C317 C 0.60244 0.94091 0.37765 0.0
H318 H 0.59418 0.8553 0.39302 0.0
H319 H 0.56791 0.78963 0.34731 0.0
H320 H 0.57299 0.05225 0.26453 0.0
H321 H 0.59746 0.0536 0.33057 0.0
H322 H 0.61236 1.01086 0.38397 0.0
H323 H 0.61127 0.93903 0.40659 0.0
C324 C 0.22635 0.70032 0.23801 0.0
C325 C 0.21334 0.65888 0.25814 0.0
C326 C 0.27308 0.72769 0.22361 0.0
C327 C 0.30842 0.71508 0.22991 0.0
H328 H 0.20171 0.71364 0.23609 0.0
H329 H 0.28273 0.76097 0.21035 0.0
S330 S 0.29019 0.60647 0.2762 0.0
N331 N 0.23746 0.60327 0.27896 0.0
N332 N 0.3257 0.65608 0.25392 0.0
C333 C 0.29475 0.67207 0.24749 0.0
C334 C 0.247 0.64354 0.26095 0.0
C335 C 0.56133 0.21117 0.40594 0.0
C336 C 0.59208 0.19576 0.41955 0.0
C337 C 0.57994 0.2576 0.39288 0.0
C338 C 0.62963 0.28992 0.39376 0.0
H339 H 0.52281 0.1888 0.40864 0.0
H340 H 0.55515 0.26943 0.38519 0.0
S341 S 0.72507 0.26496 0.42214 0.0
N342 N 0.67457 0.21465 0.4288 0.0
N343 N 0.70918 0.30214 0.4055 0.0
C344 C 0.66069 0.27381 0.40443 0.0
C345 C 0.64195 0.2265 0.41686 0.0
C346 C 0.40741 0.54682 0.58317 0.0
C347 C 0.44849 0.58098 0.60208 0.0
C348 C 0.37355 0.55769 0.5688 0.0
C349 C 0.37925 0.60322 0.57286 0.0
H350 H 0.39973 0.51063 0.58169 0.0
H351 H 0.3417 0.52943 0.55563 0.0
S352 S 0.48478 0.70684 0.61591 0.0
N353 N 0.49594 0.66317 0.6209 0.0
N354 N 0.43266 0.68396 0.59393 0.0
C355 C 0.42207 0.63851 0.58954 0.0
C356 C 0.45655 0.62732 0.60407 0.0
C357 C 0.86552 0.42392 0.77515 0.0
C358 C 0.90658 0.41927 0.77446 0.0
C359 C 0.82245 0.3901 0.75847 0.0
C360 C 0.81853 0.35002 0.74044 0.0
H361 H 0.8664 0.45349 0.78956 0.0
H362 H 0.79181 0.3952 0.76038 0.0
S363 S 0.917 0.32279 0.72956 0.0
N364 N 0.94159 0.37274 0.75348 0.0
N365 N 0.86098 0.30913 0.72153 0.0
C366 C 0.86009 0.34589 0.73844 0.0
C367 C 0.90401 0.38053 0.75551 0.0
C368 C 0.54107 0.85662 0.96194 0.0
C369 C 0.53269 0.88976 0.94341 0.0
C370 C 0.52107 0.81016 0.94908 0.0
C371 C 0.49315 0.79503 0.9164 0.0
H372 H 0.56168 0.86615 -0.01232 0.0
H373 H 0.52729 0.78569 0.96511 0.0
S374 S 0.46446 0.8684 0.85492 0.0
N375 N 0.49653 0.90455 0.88923 0.0
N376 N 0.4612 0.81737 0.86378 0.0
C377 C 0.48718 0.8283 0.89592 0.0
C378 C 0.50658 0.87569 0.90964 0.0
C379 C 0.66611 0.46173 0.11968 0.0
C380 C 0.67712 0.50791 0.11017 0.0
C381 C 0.69172 0.44141 0.10464 0.0
C382 C 0.72849 0.4658 0.07858 0.0
H383 H 0.63919 0.44208 0.14064 0.0
H384 H 0.68383 0.40703 0.11455 0.0
S385 S 0.7678 0.58521 0.04079 0.0
N386 N 0.72515 0.57591 0.07088 0.0
N387 N 0.77182 0.53691 0.04119 0.0
C388 C 0.73718 0.5103 0.06634 0.0
C389 C 0.71173 0.53149 0.08235 0.0
C390 C 0.46519 0.86621 0.49621 0.0
C391 C 0.45014 0.89936 0.50233 0.0
C392 C 0.43891 0.82013 0.50996 0.0
C393 C 0.3976 0.80597 0.53146 0.0
H394 H 0.49489 0.87466 0.47756 0.0
H395 H 0.44951 0.79473 0.502 0.0
S396 S 0.34752 0.88133 0.56049 0.0
N397 N 0.39426 0.91632 0.5344 0.0
N398 N 0.34605 0.83021 0.56214 0.0
C399 C 0.38517 0.84017 0.54125 0.0
C400 C 0.41132 0.88691 0.52635 0.0
C401 C 0.59555 0.4166 0.69056 0.0
C402 C 0.62694 0.45523 0.66827 0.0
C403 C 0.60889 0.38448 0.70388 0.0
C404 C 0.65382 0.38977 0.69493 0.0
H405 H 0.55888 0.40851 0.69465 0.0
H406 H 0.58237 0.35322 0.71837 0.0
S407 S 0.75307 0.49113 0.64619 0.0
N408 N 0.70818 0.50187 0.64454 0.0
N409 N 0.73265 0.44078 0.66874 0.0
C410 C 0.68724 0.43085 0.67636 0.0
C411 C 0.67401 0.4639 0.66337 0.0
C412 C 0.25565 0.62021 0.82379 0.0
C413 C 0.21411 0.57531 0.82542 0.0
C414 C 0.29833 0.62943 0.84153 0.0
C415 C 0.30123 0.59399 0.86151 0.0
H416 H 0.25554 0.64813 0.8077 0.0
H417 H 0.32962 0.66419 0.83845 0.0
S418 S 0.20087 0.4712 0.8765 0.0
N419 N 0.17751 0.49574 0.85 0.0
N420 N 0.25702 0.51278 0.8841 0.0
C421 C 0.25901 0.54944 0.86484 0.0
C422 C 0.21564 0.5402 0.84668 0.0
C423 C 0.72549 0.20436 0.0008 0.0
C424 C 0.68535 0.19907 0.98118 0.0
C425 C 0.75792 0.24737 0.01795 0.0
C426 C 0.75159 0.28705 0.01631 0.0
H427 H 0.73297 0.17562 0.00169 0.0
H428 H 0.78874 0.24955 0.03207 0.0
S429 S 0.6488 0.28941 0.97132 0.0
N430 N 0.63857 0.23546 0.96337 0.0
N431 N 0.69946 0.31642 -0.00463 0.0
C432 C 0.71027 0.28142 -0.00199 0.0
C433 C 0.67726 0.23751 0.98053 0.0
C434 C 0.50911 0.68307 0.16179 0.0
C435 C 0.55768 0.695 0.16182 0.0
C436 C 0.49477 0.71387 0.17611 0.0
C437 C 0.5284 0.75804 0.19121 0.0
H438 H 0.48213 0.65033 0.14897 0.0
H439 H 0.45711 0.70332 0.17439 0.0
S440 S 0.65984 0.80387 0.20087 0.0
N441 N 0.63899 0.7521 0.1801 0.0
N442 N 0.61279 0.81029 0.20786 0.0
C443 C 0.577 0.76921 0.19326 0.0
C444 C 0.59143 0.73761 0.17846 0.0
C445 C 0.9045 0.552 0.35358 0.0
C446 C 0.913 0.51661 0.34016 0.0
C447 C 0.8597 0.54053 0.36874 0.0
C448 C 0.82149 0.49326 0.37058 0.0
H449 H 0.93138 0.58882 0.34997 0.0
H450 H 0.85431 0.56929 0.37721 0.0
S451 S 0.82843 0.38741 0.34348 0.0
N452 N 0.88184 0.43239 0.33317 0.0
N453 N 0.79774 0.41074 0.36127 0.0
C454 C 0.8309 0.45748 0.3595 0.0
C455 C 0.8766 0.46919 0.34448 0.0
C456 C 0.1521 0.62867 0.4215 0.0
C457 C 0.17512 0.62477 0.38937 0.0
C458 C 0.17391 0.63654 0.45699 0.0
C459 C 0.21901 0.64015 0.46132 0.0
H460 H 0.11781 0.62708 0.4191 0.0
H461 H 0.15547 0.63977 0.4811 0.0
S462 S 0.29582 0.63576 0.38642 0.0
N463 N 0.24569 0.6243 0.3651 0.0
N464 N 0.28782 0.64375 0.43075 0.0
C465 C 0.24265 0.63719 0.42958 0.0
C466 C 0.22022 0.62787 0.39392 0.0
C467 C 0.63674 0.19799 0.55605 0.0
C468 C 0.59218 0.15629 0.55107 0.0
C469 C 0.6505 0.22052 0.59066 0.0
C470 C 0.6215 0.20111 0.62214 0.0
H471 H 0.66098 0.21405 0.53275 0.0
H472 H 0.68423 0.25353 0.59278 0.0
S473 S 0.50184 0.09303 0.62497 0.0
N474 N 0.51855 0.09707 0.58086 0.0
N475 N 0.54618 0.13867 0.64685 0.0
C476 C 0.57715 0.15941 0.61808 0.0
C477 C 0.56244 0.13673 0.58244 0.0
C478 C 0.50248 0.60959 0.74387 0.0
C479 C 0.48698 0.56336 0.73162 0.0
C480 C 0.49246 0.6185 0.77993 0.0
C481 C 0.46631 0.58143 0.8052 0.0
H482 H 0.52119 0.63904 0.72492 0.0
H483 H 0.50411 0.65473 0.78749 0.0
S484 S 0.42128 0.454 0.78719 0.0
N485 N 0.44698 0.48028 0.74764 0.0
N486 N 0.42832 0.49657 0.81592 0.0
C487 C 0.45279 0.53505 0.79379 0.0
C488 C 0.46313 0.52612 0.75689 0.0
C489 C 0.93483 0.49459 0.91122 0.0
C490 C 0.97045 0.48489 0.89928 0.0
C491 C 0.91599 0.48306 0.9473 0.0
C492 C 0.93167 0.4608 0.97276 0.0
H493 H 0.91955 0.50886 0.8918 0.0
H494 H 0.88704 0.48939 0.95442 0.0
S495 S 1.02926 0.43383 0.95619 0.0
N496 N 1.02438 0.45642 0.91634 0.0
N497 N 0.98926 0.43466 -0.01552 0.0
C498 C 0.96996 0.45417 0.96193 0.0
C499 C 0.98932 0.46629 0.92512 0.0
C500 C 0.57486 0.97377 0.08719 0.0
C501 C 0.53681 0.96515 0.06314 0.0
C502 C 0.56597 0.95503 0.12338 0.0
C503 C 0.51866 0.92683 0.13646 0.0
H504 H 0.61145 0.99211 0.07703 0.0
H505 H 0.59625 0.96026 0.14022 0.0
S506 S 0.40735 0.90142 0.08558 0.0
N507 N 0.45107 0.93204 0.05571 0.0
N508 N 0.43373 0.89737 0.12387 0.0
C509 C 0.48061 0.92166 0.11351 0.0
C510 C 0.48985 0.94065 0.07675 0.0
C511 C 0.61752 0.49611 0.25137 0.0
C512 C 0.64459 0.54197 0.23733 0.0
C513 C 0.62647 0.48508 0.287 0.0
C514 C 0.66325 0.51944 0.30983 0.0
H515 H 0.59083 0.46805 0.2339 0.0
H516 H 0.60543 0.44874 0.29604 0.0
S517 S 0.74121 0.6461 0.28651 0.0
N518 N 0.7069 0.62291 0.24915 0.0
N519 N 0.7242 0.60245 0.31663 0.0
C520 C 0.68857 0.5663 0.29688 0.0
C521 C 0.67918 0.57748 0.26042 0.0
C522 C 0.47938 0.90002 0.36536 0.0
C523 C 0.47566 0.94065 0.37077 0.0
C524 C 0.47194 0.87874 0.33046 0.0
C525 C 0.46282 0.89838 0.29904 0.0
H526 H 0.48799 0.88416 0.38843 0.0
H527 H 0.474 0.84683 0.328 0.0
S528 S 0.44824 1.00343 0.29737 0.0
N529 N 0.46014 0.99874 0.3416 0.0
N530 N 0.44849 0.95939 0.2749 0.0
C531 C 0.45859 0.93866 0.30356 0.0
C532 C 0.46526 0.96011 0.33959 0.0
C533 C 0.57147 0.47786 0.50845 0.0
C534 C 0.57688 0.45403 0.53915 0.0
C535 C 0.58425 0.47154 0.47219 0.0
C536 C 0.60579 0.44401 0.46632 0.0
H537 H 0.56013 0.50353 0.51255 0.0
H538 H 0.5796 0.49009 0.44913 0.0
S539 S 0.60744 0.35873 0.53294 0.0
N540 N 0.58689 0.38761 0.55736 0.0
N541 N 0.61836 0.38221 0.49083 0.0
C542 C 0.60485 0.41512 0.49534 0.0
C543 C 0.58862 0.4187 0.53141 0.0
C544 C 0.18438 0.61861 0.68729 0.0
C545 C 0.152 0.57249 0.69891 0.0
C546 C 0.20491 0.62736 0.65177 0.0
C547 C 0.19432 0.59019 0.6265 0.0
H548 H 0.19582 0.64794 0.70659 0.0
H549 H 0.231 0.66352 0.64488 0.0
S550 S 0.10706 0.46319 0.64262 0.0
N551 N 0.10677 0.48955 0.68195 0.0
N552 N 0.14516 0.50556 0.61476 0.0
C553 C 0.15939 0.54404 0.63704 0.0
C554 C 0.13826 0.5353 0.67334 0.0
C555 C 0.60478 0.16093 0.84603 0.0
C556 C 0.62031 0.12977 0.85729 0.0
C557 C 0.61526 0.18097 0.81042 0.0
C558 C 0.6421 0.17091 0.78477 0.0
H559 H 0.58713 0.17228 0.8658 0.0
H560 H 0.60451 0.20661 0.80392 0.0
S561 S 0.68426 0.08525 0.79928 0.0
N562 N 0.65862 0.08523 0.83919 0.0
N563 N 0.67824 0.12237 0.77181 0.0
C564 C 0.65412 0.13643 0.79471 0.0
C565 C 0.64319 0.11593 0.83109 0.0
C566 C 0.56059 0.62133 0.00859 0.0
C567 C 0.53516 0.61801 0.04142 0.0
C568 C 0.54339 0.62574 0.97357 0.0
C569 C 0.50035 0.62664 0.97068 0.0
H570 H 0.59523 0.62352 0.01021 0.0
H571 H 0.56443 0.62983 0.94882 0.0
S572 S 0.42161 0.62044 0.04847 0.0
N573 N 0.46352 0.61306 0.06844 0.0
N574 N 0.4345 0.62672 0.00352 0.0
C575 C 0.47443 0.62255 0.00321 0.0
C576 C 0.49073 0.61625 0.03834 0.0
C577 C 0.97518 0.52715 0.1799 0.0
C578 C 0.95405 0.49885 0.21159 0.0
C579 C 0.95258 0.51387 0.14474 0.0
C580 C 0.9086 0.47168 0.1402 0.0
H581 H 1.008 0.56086 0.18262 0.0
H582 H 0.96916 0.537 0.12111 0.0
S583 S 0.83754 0.38626 0.21427 0.0
N584 N 0.88725 0.42571 0.23546 0.0
N585 N 0.84325 0.40348 0.17036 0.0
C586 C 0.88731 0.4431 0.17146 0.0
C587 C 0.91069 0.45577 0.20683 0.0
loop_
_geom_bond_atom_site_label_1
_geom_bond_atom_site_label_2
_geom_bond_distance
_geom_bond_site_symmetry_2
_ccdc_geom_bond_type
H0 C6 0.930 . S
H1 C9 0.931 . S
H2 C11 0.931 . S
H3 C13 0.930 . S
H4 C15 0.930 . S
H5 C17 0.931 . S
C6 H0 0.930 . S
C6 C7 1.380 . S
C6 C8 1.394 . S
C7 C6 1.380 . S
C7 C11 1.382 . S
C8 C6 1.394 . S
C8 C9 1.400 . S
C9 H1 0.931 . S
C9 C8 1.400 . S
C9 C10 1.375 . S
C10 C9 1.375 . S
C10 C11 1.415 . S
C10 C12 1.501 1_455 S
C11 H2 0.931 . S
C11 C7 1.382 . S
C11 C10 1.415 . S
C12 C10 1.501 1_655 S
C12 C13 1.384 . S
C12 C17 1.408 . S
C13 H3 0.930 . S
C13 C12 1.384 . S
C13 C14 1.389 . S
C14 C13 1.389 . S
C14 C15 1.405 . S
C15 H4 0.930 . S
C15 C14 1.405 . S
C15 C16 1.364 . S
C16 C15 1.364 . S
C16 C17 1.400 . S
C17 H5 0.931 . S
C17 C12 1.408 . S
C17 C16 1.400 . S
H18 C24 0.930 . S
H19 C27 0.931 . S
H20 C29 0.931 . S
H21 C31 0.930 . S
H22 C33 0.930 . S
H23 C35 0.931 . S
C24 H18 0.930 . S
C24 C25 1.380 . S
C24 C26 1.394 . S
C25 C24 1.380 . S
C25 C29 1.382 . S
C26 C24 1.394 . S
C26 C27 1.400 . S
C27 H19 0.931 . S
C27 C26 1.400 . S
C27 C28 1.375 . S
C28 C27 1.375 . S
C28 C29 1.415 . S
C28 C30 1.501 1_545 S
C29 H20 0.931 . S
C29 C25 1.382 . S
C29 C28 1.415 . S
C30 C28 1.501 1_565 S
C30 C31 1.384 . S
C30 C35 1.408 . S
C31 H21 0.930 . S
C31 C30 1.384 . S
C31 C32 1.389 . S
C32 C31 1.389 . S
C32 C33 1.405 . S
C33 H22 0.930 . S
C33 C32 1.405 . S
C33 C34 1.364 . S
C34 C33 1.364 . S
C34 C35 1.400 . S
C35 H23 0.931 . S
C35 C30 1.408 . S
C35 C34 1.400 . S
H36 C42 0.930 . S
H37 C45 0.931 . S
H38 C47 0.931 . S
H39 C49 0.930 . S
H40 C51 0.930 . S
H41 C53 0.931 . S
C42 H36 0.930 . S
C42 C43 1.380 . S
C42 C44 1.394 . S
C43 C42 1.380 . S
C43 C47 1.382 . S
C44 C42 1.394 . S
C44 C45 1.400 . S
C45 H37 0.931 . S
C45 C44 1.400 . S
C45 C46 1.375 . S
C46 C45 1.375 . S
C46 C47 1.415 . S
C46 C48 1.501 . S
C47 H38 0.931 . S
C47 C43 1.382 . S
C47 C46 1.415 . S
C48 C46 1.501 . S
C48 C49 1.384 . S
C48 C53 1.408 . S
C49 H39 0.930 . S
C49 C48 1.384 . S
C49 C50 1.389 . S
C50 C49 1.389 . S
C50 C51 1.405 . S
C51 H40 0.930 . S
C51 C50 1.405 . S
C51 C52 1.364 . S
C52 C51 1.364 . S
C52 C53 1.400 . S
C53 H41 0.931 . S
C53 C48 1.408 . S
C53 C52 1.400 . S
H54 C60 0.930 . S
H55 C63 0.931 . S
H56 C65 0.931 . S
H57 C67 0.930 . S
H58 C69 0.930 . S
H59 C71 0.931 . S
C60 H54 0.930 . S
C60 C61 1.380 . S
C60 C62 1.394 . S
C61 C60 1.380 . S
C61 C65 1.382 . S
C62 C60 1.394 . S
C62 C63 1.400 . S
C63 H55 0.931 . S
C63 C62 1.400 . S
C63 C64 1.375 . S
C64 C63 1.375 . S
C64 C65 1.415 . S
C64 C66 1.501 1_455 S
C65 H56 0.931 . S
C65 C61 1.382 . S
C65 C64 1.415 . S
C66 C64 1.501 1_655 S
C66 C67 1.384 . S
C66 C71 1.408 . S
C67 H57 0.930 . S
C67 C66 1.384 . S
C67 C68 1.389 . S
C68 C67 1.389 . S
C68 C69 1.405 . S
C69 H58 0.930 . S
C69 C68 1.405 . S
C69 C70 1.364 . S
C70 C69 1.364 . S
C70 C71 1.400 . S
C71 H59 0.931 . S
C71 C66 1.408 . S
C71 C70 1.400 . S
H72 C78 0.930 . S
H73 C81 0.931 . S
H74 C83 0.931 1_545 S
H75 C85 0.930 . S
H76 C87 0.930 . S
H77 C89 0.931 . S
C78 H72 0.930 . S
C78 C79 1.380 . S
C78 C80 1.394 1_554 S
C79 C78 1.380 . S
C79 C83 1.382 . S
C80 C78 1.394 1_556 S
C80 C81 1.400 . S
C81 H73 0.931 . S
C81 C80 1.400 . S
C81 C82 1.375 . S
C82 C81 1.375 . S
C82 C83 1.415 1_556 S
C82 C84 1.501 1_565 S
C83 H74 0.931 1_565 S
C83 C79 1.382 . S
C83 C82 1.415 1_554 S
C84 C82 1.501 1_545 S
C84 C85 1.384 1_556 S
C84 C89 1.408 . S
C85 H75 0.930 . S
C85 C84 1.384 1_554 S
C85 C86 1.389 . S
C86 C85 1.389 . S
C86 C87 1.405 1_554 S
C87 H76 0.930 . S
C87 C86 1.405 1_556 S
C87 C88 1.364 . S
C88 C87 1.364 . S
C88 C89 1.400 . S
C89 H77 0.931 . S
C89 C84 1.408 . S
C89 C88 1.400 . S
H90 C96 0.930 . S
H91 C99 0.931 . S
H92 C101 0.931 . S
H93 C103 0.930 . S
H94 C105 0.930 . S
H95 C107 0.931 . S
C96 H90 0.930 . S
C96 C97 1.380 . S
C96 C98 1.394 . S
C97 C96 1.380 . S
C97 C101 1.382 . S
C98 C96 1.394 . S
C98 C99 1.400 . S
C99 H91 0.931 . S
C99 C98 1.400 . S
C99 C100 1.375 . S
C100 C99 1.375 . S
C100 C101 1.415 . S
C100 C102 1.501 . S
C101 H92 0.931 . S
C101 C97 1.382 . S
C101 C100 1.415 . S
C102 C100 1.501 . S
C102 C103 1.384 . S
C102 C107 1.408 . S
C103 H93 0.930 . S
C103 C102 1.384 . S
C103 C104 1.389 . S
C104 C103 1.389 . S
C104 C105 1.405 . S
C105 H94 0.930 . S
C105 C104 1.405 . S
C105 C106 1.364 . S
C106 C105 1.364 . S
C106 C107 1.400 . S
C107 H95 0.931 . S
C107 C102 1.408 . S
C107 C106 1.400 . S
Mn108 O113 2.095 . S
Mn108 O123 2.162 . S
Mn108 O124 2.297 . S
Mn108 O132 2.385 . S
Mn108 O133 2.209 . S
Mn108 O134 2.094 . S
Mn109 O114 2.121 . S
Mn109 N116 2.257 . S
Mn109 N125 2.282 . S
Mn109 O133 2.215 . S
Mn109 O135 2.117 . S
C110 O132 1.234 . S
C110 O133 1.283 . S
C111 O123 1.281 . S
C111 O124 1.236 . S
C112 O134 1.240 . S
C112 O135 1.264 . S
O113 Mn108 2.095 . S
O113 C122 1.250 . S
O114 Mn109 2.121 . S
O114 C122 1.258 . S
C115 N116 1.326 . S
C115 C119 1.460 . S
C115 H121 0.929 . S
N116 Mn109 2.257 . S
N116 C115 1.326 . S
N116 C120 1.362 . S
C117 C118 1.258 . S
C117 C120 1.431 . S
C117 C137 1.449 . S
C118 C117 1.258 . S
C118 C119 1.477 . S
C118 H138 0.931 . S
C119 C115 1.460 . S
C119 C118 1.477 . S
C119 H139 0.930 . S
C120 N116 1.362 . S
C120 C117 1.431 . S
C120 C130 1.476 . S
H121 C115 0.929 . S
C122 O113 1.250 . S
C122 O114 1.258 . S
O123 Mn108 2.162 . S
O123 C111 1.281 . S
O124 Mn108 2.297 . S
O124 C111 1.236 . S
N125 Mn109 2.282 . S
N125 C126 1.328 . S
N125 C130 1.318 . S
C126 N125 1.328 . S
C126 C127 1.457 . S
C126 H131 0.929 . S
C127 C126 1.457 . S
C127 C128 1.291 . S
C127 H140 0.931 . S
C128 C127 1.291 . S
C128 C129 1.373 . S
C128 H141 0.929 . S
C129 C128 1.373 . S
C129 C130 1.396 . S
C129 C136 1.403 . S
C130 C120 1.476 . S
C130 N125 1.318 . S
C130 C129 1.396 . S
H131 C126 0.929 . S
O132 Mn108 2.385 . S
O132 C110 1.234 . S
O133 Mn108 2.209 . S
O133 Mn109 2.215 . S
O133 C110 1.283 . S
O134 Mn108 2.094 . S
O134 C112 1.240 . S
O135 Mn109 2.117 . S
O135 C112 1.264 . S
C136 C129 1.403 . S
C136 C137 1.399 . S
C136 H142 0.929 . S
C137 C117 1.449 . S
C137 C136 1.399 . S
C137 H143 0.930 . S
H138 C118 0.931 . S
H139 C119 0.930 . S
H140 C127 0.931 . S
H141 C128 0.929 . S
H142 C136 0.929 . S
H143 C137 0.930 . S
Mn144 O149 2.095 . S
Mn144 O159 2.162 . S
Mn144 O160 2.297 . S
Mn144 O168 2.385 . S
Mn144 O169 2.209 . S
Mn144 O170 2.094 . S
Mn145 O150 2.121 . S
Mn145 N152 2.257 . S
Mn145 N161 2.282 . S
Mn145 O169 2.215 . S
Mn145 O171 2.117 . S
C146 O168 1.234 . S
C146 O169 1.283 . S
C147 O159 1.281 . S
C147 O160 1.236 . S
C148 O170 1.240 . S
C148 O171 1.264 . S
O149 Mn144 2.095 . S
O149 C158 1.250 . S
O150 Mn145 2.121 . S
O150 C158 1.258 . S
C151 N152 1.326 . S
C151 C155 1.460 . S
C151 H157 0.929 . S
N152 Mn145 2.257 . S
N152 C151 1.326 . S
N152 C156 1.362 . S
C153 C154 1.258 . S
C153 C156 1.431 . S
C153 C173 1.449 . S
C154 C153 1.258 . S
C154 C155 1.477 . S
C154 H174 0.931 . S
C155 C151 1.460 . S
C155 C154 1.477 . S
C155 H175 0.930 . S
C156 N152 1.362 . S
C156 C153 1.431 . S
C156 C166 1.476 . S
H157 C151 0.929 . S
C158 O149 1.250 . S
C158 O150 1.258 . S
O159 Mn144 2.162 . S
O159 C147 1.281 . S
O160 Mn144 2.297 . S
O160 C147 1.236 . S
N161 Mn145 2.282 . S
N161 C162 1.328 . S
N161 C166 1.318 . S
C162 N161 1.328 . S
C162 C163 1.457 . S
C162 H167 0.929 . S
C163 C162 1.457 . S
C163 C164 1.291 . S
C163 H176 0.931 . S
C164 C163 1.291 . S
C164 C165 1.373 . S
C164 H177 0.929 . S
C165 C164 1.373 . S
C165 C166 1.396 . S
C165 C172 1.403 . S
C166 C156 1.476 . S
C166 N161 1.318 . S
C166 C165 1.396 . S
H167 C162 0.929 . S
O168 Mn144 2.385 . S
O168 C146 1.234 . S
O169 Mn144 2.209 . S
O169 Mn145 2.215 . S
O169 C146 1.283 . S
O170 Mn144 2.094 . S
O170 C148 1.240 . S
O171 Mn145 2.117 . S
O171 C148 1.264 . S
C172 C165 1.403 . S
C172 C173 1.399 . S
C172 H178 0.929 . S
C173 C153 1.449 . S
C173 C172 1.399 . S
C173 H179 0.930 . S
H174 C154 0.931 . S
H175 C155 0.930 . S
H176 C163 0.931 . S
H177 C164 0.929 . S
H178 C172 0.929 . S
H179 C173 0.930 . S
Mn180 O185 2.095 . S
Mn180 O195 2.162 . S
Mn180 O196 2.297 . S
Mn180 O204 2.385 . S
Mn180 O205 2.209 . S
Mn180 O206 2.094 . S
Mn181 O186 2.121 . S
Mn181 N188 2.257 . S
Mn181 N197 2.282 . S
Mn181 O205 2.215 . S
Mn181 O207 2.117 . S
C182 O204 1.234 . S
C182 O205 1.283 . S
C183 O195 1.281 . S
C183 O196 1.236 . S
C184 O206 1.240 . S
C184 O207 1.264 . S
O185 Mn180 2.095 . S
O185 C194 1.250 . S
O186 Mn181 2.121 . S
O186 C194 1.258 . S
C187 N188 1.326 . S
C187 C191 1.460 . S
C187 H193 0.929 . S
N188 Mn181 2.257 . S
N188 C187 1.326 . S
N188 C192 1.362 . S
C189 C190 1.258 . S
C189 C192 1.431 . S
C189 C209 1.449 . S
C190 C189 1.258 . S
C190 C191 1.477 . S
C190 H210 0.931 . S
C191 C187 1.460 . S
C191 C190 1.477 . S
C191 H211 0.930 . S
C192 N188 1.362 . S
C192 C189 1.431 . S
C192 C202 1.476 . S
H193 C187 0.929 . S
C194 O185 1.250 . S
C194 O186 1.258 . S
O195 Mn180 2.162 . S
O195 C183 1.281 . S
O196 Mn180 2.297 . S
O196 C183 1.236 . S
N197 Mn181 2.282 . S
N197 C198 1.328 . S
N197 C202 1.318 . S
C198 N197 1.328 . S
C198 C199 1.457 . S
C198 H203 0.929 . S
C199 C198 1.457 . S
C199 C200 1.291 . S
C199 H212 0.931 . S
C200 C199 1.291 . S
C200 C201 1.373 . S
C200 H213 0.929 . S
C201 C200 1.373 . S
C201 C202 1.396 . S
C201 C208 1.403 . S
C202 C192 1.476 . S
C202 N197 1.318 . S
C202 C201 1.396 . S
H203 C198 0.929 . S
O204 Mn180 2.385 . S
O204 C182 1.234 . S
O205 Mn180 2.209 . S
O205 Mn181 2.215 . S
O205 C182 1.283 . S
O206 Mn180 2.094 . S
O206 C184 1.240 . S
O207 Mn181 2.117 . S
O207 C184 1.264 . S
C208 C201 1.403 . S
C208 C209 1.399 . S
C208 H214 0.929 . S
C209 C189 1.449 . S
C209 C208 1.399 . S
C209 H215 0.930 . S
H210 C190 0.931 . S
H211 C191 0.930 . S
H212 C199 0.931 . S
H213 C200 0.929 . S
H214 C208 0.929 . S
H215 C209 0.930 . S
Mn216 O221 2.095 . S
Mn216 O231 2.162 . S
Mn216 O232 2.297 . S
Mn216 O240 2.385 . S
Mn216 O241 2.209 . S
Mn216 O242 2.094 . S
Mn217 O222 2.121 . S
Mn217 N224 2.257 . S
Mn217 N233 2.282 . S
Mn217 O241 2.215 . S
Mn217 O243 2.117 . S
C218 O240 1.234 . S
C218 O241 1.283 . S
C219 O231 1.281 . S
C219 O232 1.236 . S
C220 O242 1.240 . S
C220 O243 1.264 . S
O221 Mn216 2.095 . S
O221 C230 1.250 . S
O222 Mn217 2.121 . S
O222 C230 1.258 . S
C223 N224 1.326 . S
C223 C227 1.459 1_556 S
C223 H229 0.929 . S
N224 Mn217 2.257 . S
N224 C223 1.326 . S
N224 C228 1.362 . S
C225 C226 1.258 . S
C225 C228 1.431 1_554 S
C225 C245 1.449 . S
C226 C225 1.258 . S
C226 C227 1.478 . S
C226 H246 0.931 . S
C227 C223 1.459 1_554 S
C227 C226 1.478 . S
C227 H247 0.931 . S
C228 N224 1.362 . S
C228 C225 1.431 1_556 S
C228 C238 1.476 . S
H229 C223 0.929 . S
C230 O221 1.250 . S
C230 O222 1.258 . S
O231 Mn216 2.162 . S
O231 C219 1.281 . S
O232 Mn216 2.297 . S
O232 C219 1.236 . S
N233 Mn217 2.282 . S
N233 C234 1.328 . S
N233 C238 1.318 . S
C234 N233 1.328 . S
C234 C235 1.457 . S
C234 H239 0.929 . S
C235 C234 1.457 . S
C235 C236 1.291 . S
C235 H248 0.931 . S
C236 C235 1.291 . S
C236 C237 1.373 . S
C236 H249 0.929 . S
C237 C236 1.373 . S
C237 C238 1.396 . S
C237 C244 1.403 1_556 S
C238 C228 1.476 . S
C238 N233 1.318 . S
C238 C237 1.396 . S
H239 C234 0.929 . S
O240 Mn216 2.385 . S
O240 C218 1.234 . S
O241 Mn216 2.209 . S
O241 Mn217 2.215 . S
O241 C218 1.283 . S
O242 Mn216 2.094 . S
O242 C220 1.240 . S
O243 Mn217 2.117 . S
O243 C220 1.264 . S
C244 C237 1.403 1_554 S
C244 C245 1.399 . S
C244 H250 0.929 . S
C245 C225 1.449 . S
C245 C244 1.399 . S
C245 H251 0.930 . S
H246 C226 0.931 . S
H247 C227 0.931 . S
H248 C235 0.931 . S
H249 C236 0.929 . S
H250 C244 0.929 . S
H251 C245 0.930 . S
Mn252 O257 2.095 . S
Mn252 O267 2.162 . S
Mn252 O268 2.297 . S
Mn252 O276 2.385 . S
Mn252 O277 2.209 . S
Mn252 O278 2.094 . S
Mn253 O258 2.121 . S
Mn253 N260 2.257 . S
Mn253 N269 2.282 . S
Mn253 O277 2.215 . S
Mn253 O279 2.117 . S
C254 O276 1.234 . S
C254 O277 1.283 . S
C255 O267 1.281 . S
C255 O268 1.236 . S
C256 O278 1.240 . S
C256 O279 1.264 . S
O257 Mn252 2.095 . S
O257 C266 1.250 . S
O258 Mn253 2.121 . S
O258 C266 1.258 . S
C259 N260 1.326 . S
C259 C263 1.460 . S
C259 H265 0.929 . S
N260 Mn253 2.257 . S
N260 C259 1.326 . S
N260 C264 1.362 . S
C261 C262 1.258 . S
C261 C264 1.431 . S
C261 C281 1.449 . S
C262 C261 1.258 . S
C262 C263 1.477 . S
C262 H282 0.931 . S
C263 C259 1.460 . S
C263 C262 1.477 . S
C263 H283 0.930 . S
C264 N260 1.362 . S
C264 C261 1.431 . S
C264 C274 1.476 . S
H265 C259 0.929 . S
C266 O257 1.250 . S
C266 O258 1.258 . S
O267 Mn252 2.162 . S
O267 C255 1.281 . S
O268 Mn252 2.297 . S
O268 C255 1.236 . S
N269 Mn253 2.282 . S
N269 C270 1.328 . S
N269 C274 1.318 . S
C270 N269 1.328 . S
C270 C271 1.457 . S
C270 H275 0.929 . S
C271 C270 1.457 . S
C271 C272 1.291 . S
C271 H284 0.931 . S
C272 C271 1.291 . S
C272 C273 1.373 . S
C272 H285 0.929 . S
C273 C272 1.373 . S
C273 C274 1.396 . S
C273 C280 1.403 . S
C274 C264 1.476 . S
C274 N269 1.318 . S
C274 C273 1.396 . S
H275 C270 0.929 . S
O276 Mn252 2.385 . S
O276 C254 1.234 . S
O277 Mn252 2.209 . S
O277 Mn253 2.215 . S
O277 C254 1.283 . S
O278 Mn252 2.094 . S
O278 C256 1.240 . S
O279 Mn253 2.117 . S
O279 C256 1.264 . S
C280 C273 1.403 . S
C280 C281 1.399 . S
C280 H286 0.929 . S
C281 C261 1.449 . S
C281 C280 1.399 . S
C281 H287 0.930 . S
H282 C262 0.931 . S
H283 C263 0.930 . S
H284 C271 0.931 . S
H285 C272 0.929 . S
H286 C280 0.929 . S
H287 C281 0.930 . S
Mn288 O293 2.095 . S
Mn288 O303 2.162 . S
Mn288 O304 2.297 . S
Mn288 O312 2.385 . S
Mn288 O313 2.209 . S
Mn288 O314 2.094 . S
Mn289 O294 2.121 . S
Mn289 N296 2.257 . S
Mn289 N305 2.282 . S
Mn289 O313 2.215 . S
Mn289 O315 2.117 . S
C290 O312 1.234 . S
C290 O313 1.283 . S
C291 O303 1.281 . S
C291 O304 1.236 . S
C292 O314 1.240 . S
C292 O315 1.264 . S
O293 Mn288 2.095 . S
O293 C302 1.250 . S
O294 Mn289 2.121 . S
O294 C302 1.258 . S
C295 N296 1.326 . S
C295 C299 1.460 . S
C295 H301 0.929 . S
N296 Mn289 2.257 . S
N296 C295 1.326 . S
N296 C300 1.362 . S
C297 C298 1.258 . S
C297 C300 1.431 . S
C297 C317 1.449 . S
C298 C297 1.258 . S
C298 C299 1.477 . S
C298 H318 0.931 . S
C299 C295 1.460 . S
C299 C298 1.477 . S
C299 H319 0.930 . S
C300 N296 1.362 . S
C300 C297 1.431 . S
C300 C310 1.476 . S
H301 C295 0.929 . S
C302 O293 1.250 . S
C302 O294 1.258 . S
O303 Mn288 2.162 . S
O303 C291 1.281 . S
O304 Mn288 2.297 . S
O304 C291 1.236 . S
N305 Mn289 2.282 . S
N305 C306 1.328 . S
N305 C310 1.318 . S
C306 N305 1.328 . S
C306 C307 1.457 . S
C306 H311 0.929 . S
C307 C306 1.457 . S
C307 C308 1.291 . S
C307 H320 0.931 . S
C308 C307 1.291 . S
C308 C309 1.373 . S
C308 H321 0.929 . S
C309 C308 1.373 . S
C309 C310 1.396 . S
C309 C316 1.403 . S
C310 C300 1.476 . S
C310 N305 1.318 . S
C310 C309 1.396 . S
H311 C306 0.929 . S
O312 Mn288 2.385 . S
O312 C290 1.234 . S
O313 Mn288 2.209 . S
O313 Mn289 2.215 . S
O313 C290 1.283 . S
O314 Mn288 2.094 . S
O314 C292 1.240 . S
O315 Mn289 2.117 . S
O315 C292 1.264 . S
C316 C309 1.403 . S
C316 C317 1.399 . S
C316 H322 0.929 . S
C317 C297 1.449 . S
C317 C316 1.399 . S
C317 H323 0.930 . S
H318 C298 0.931 . S
H319 C299 0.930 . S
H320 C307 0.931 . S
H321 C308 0.929 . S
H322 C316 0.929 . S
H323 C317 0.930 . S
C324 C325 1.369 . S
C324 C326 1.419 . S
C324 H328 0.930 . S
C325 C324 1.369 . S
C325 C334 1.429 . S
C326 C324 1.419 . S
C326 C327 1.363 . S
C326 H329 0.929 . S
C327 C326 1.363 . S
C327 C333 1.428 . S
H328 C324 0.930 . S
H329 C326 0.929 . S
S330 N331 1.613 . S
S330 N332 1.610 . S
N331 S330 1.613 . S
N331 C334 1.350 . S
N332 S330 1.610 . S
N332 C333 1.351 . S
C333 C327 1.428 . S
C333 N332 1.351 . S
C333 C334 1.434 . S
C334 C325 1.429 . S
C334 N331 1.350 . S
C334 C333 1.434 . S
C335 C336 1.369 . S
C335 C337 1.419 . S
C335 H339 0.930 . S
C336 C335 1.369 . S
C336 C345 1.429 . S
C337 C335 1.419 . S
C337 C338 1.363 . S
C337 H340 0.929 . S
C338 C337 1.363 . S
C338 C344 1.428 . S
H339 C335 0.930 . S
H340 C337 0.929 . S
S341 N342 1.613 . S
S341 N343 1.610 . S
N342 S341 1.613 . S
N342 C345 1.350 . S
N343 S341 1.610 . S
N343 C344 1.351 . S
C344 C338 1.428 . S
C344 N343 1.351 . S
C344 C345 1.434 . S
C345 C336 1.429 . S
C345 N342 1.350 . S
C345 C344 1.434 . S
C346 C347 1.369 . S
C346 C348 1.419 . S
C346 H350 0.930 . S
C347 C346 1.369 . S
C347 C356 1.429 . S
C348 C346 1.419 . S
C348 C349 1.363 . S
C348 H351 0.929 . S
C349 C348 1.363 . S
C349 C355 1.428 . S
H350 C346 0.930 . S
H351 C348 0.929 . S
S352 N353 1.613 . S
S352 N354 1.610 . S
N353 S352 1.613 . S
N353 C356 1.350 . S
N354 S352 1.610 . S
N354 C355 1.351 . S
C355 C349 1.428 . S
C355 N354 1.351 . S
C355 C356 1.434 . S
C356 C347 1.429 . S
C356 N353 1.350 . S
C356 C355 1.434 . S
C357 C358 1.369 . S
C357 C359 1.419 . S
C357 H361 0.930 . S
C358 C357 1.369 . S
C358 C367 1.429 . S
C359 C357 1.419 . S
C359 C360 1.363 . S
C359 H362 0.929 . S
C360 C359 1.363 . S
C360 C366 1.428 . S
H361 C357 0.930 . S
H362 C359 0.929 . S
S363 N364 1.613 . S
S363 N365 1.610 . S
N364 S363 1.613 . S
N364 C367 1.350 . S
N365 S363 1.610 . S
N365 C366 1.351 . S
C366 C360 1.428 . S
C366 N365 1.351 . S
C366 C367 1.434 . S
C367 C358 1.429 . S
C367 N364 1.350 . S
C367 C366 1.434 . S
C368 C369 1.369 . S
C368 C370 1.419 . S
C368 H372 0.930 1_556 S
C369 C368 1.369 . S
C369 C378 1.429 . S
C370 C368 1.419 . S
C370 C371 1.363 . S
C370 H373 0.929 . S
C371 C370 1.363 . S
C371 C377 1.428 . S
H372 C368 0.930 1_554 S
H373 C370 0.929 . S
S374 N375 1.613 . S
S374 N376 1.610 . S
N375 S374 1.613 . S
N375 C378 1.350 . S
N376 S374 1.610 . S
N376 C377 1.351 . S
C377 C371 1.428 . S
C377 N376 1.351 . S
C377 C378 1.434 . S
C378 C369 1.429 . S
C378 N375 1.350 . S
C378 C377 1.434 . S
C379 C380 1.369 . S
C379 C381 1.419 . S
C379 H383 0.930 . S
C380 C379 1.369 . S
C380 C389 1.429 . S
C381 C379 1.419 . S
C381 C382 1.363 . S
C381 H384 0.929 . S
C382 C381 1.363 . S
C382 C388 1.428 . S
H383 C379 0.930 . S
H384 C381 0.929 . S
S385 N386 1.613 . S
S385 N387 1.610 . S
N386 S385 1.613 . S
N386 C389 1.350 . S
N387 S385 1.610 . S
N387 C388 1.351 . S
C388 C382 1.428 . S
C388 N387 1.351 . S
C388 C389 1.434 . S
C389 C380 1.429 . S
C389 N386 1.350 . S
C389 C388 1.434 . S
C390 C391 1.369 . S
C390 C392 1.419 . S
C390 H394 0.930 . S
C391 C390 1.369 . S
C391 C400 1.429 . S
C392 C390 1.419 . S
C392 C393 1.363 . S
C392 H395 0.929 . S
C393 C392 1.363 . S
C393 C399 1.428 . S
H394 C390 0.930 . S
H395 C392 0.929 . S
S396 N397 1.613 . S
S396 N398 1.610 . S
N397 S396 1.613 . S
N397 C400 1.350 . S
N398 S396 1.610 . S
N398 C399 1.351 . S
C399 C393 1.428 . S
C399 N398 1.351 . S
C399 C400 1.434 . S
C400 C391 1.429 . S
C400 N397 1.350 . S
C400 C399 1.434 . S
C401 C402 1.369 . S
C401 C403 1.419 . S
C401 H405 0.930 . S
C402 C401 1.369 . S
C402 C411 1.429 . S
C403 C401 1.419 . S
C403 C404 1.363 . S
C403 H406 0.929 . S
C404 C403 1.363 . S
C404 C410 1.428 . S
H405 C401 0.930 . S
H406 C403 0.929 . S
S407 N408 1.613 . S
S407 N409 1.610 . S
N408 S407 1.613 . S
N408 C411 1.350 . S
N409 S407 1.610 . S
N409 C410 1.351 . S
C410 C404 1.428 . S
C410 N409 1.351 . S
C410 C411 1.434 . S
C411 C402 1.429 . S
C411 N408 1.350 . S
C411 C410 1.434 . S
C412 C413 1.369 . S
C412 C414 1.419 . S
C412 H416 0.930 . S
C413 C412 1.369 . S
C413 C422 1.429 . S
C414 C412 1.419 . S
C414 C415 1.363 . S
C414 H417 0.929 . S
C415 C414 1.363 . S
C415 C421 1.428 . S
H416 C412 0.930 . S
H417 C414 0.929 . S
S418 N419 1.613 . S
S418 N420 1.610 . S
N419 S418 1.613 . S
N419 C422 1.350 . S
N420 S418 1.610 . S
N420 C421 1.351 . S
C421 C415 1.428 . S
C421 N420 1.351 . S
C421 C422 1.434 . S
C422 C413 1.429 . S
C422 N419 1.350 . S
C422 C421 1.434 . S
C423 C424 1.369 1_556 S
C423 C425 1.419 1_556 S
C423 H427 0.930 . S
C424 C423 1.369 1_554 S
C424 C433 1.429 . S
C425 C423 1.419 1_554 S
C425 C426 1.363 . S
C425 H428 0.929 1_554 S
C426 C425 1.363 . S
C426 C432 1.428 . S
H427 C423 0.930 . S
H428 C425 0.929 1_556 S
S429 N430 1.613 . S
S429 N431 1.610 . S
N430 S429 1.613 . S
N430 C433 1.350 . S
N431 S429 1.610 . S
N431 C432 1.351 . S
C432 C426 1.428 . S
C432 N431 1.351 . S
C432 C433 1.434 . S
C433 C424 1.429 . S
C433 N430 1.350 . S
C433 C432 1.434 . S
C434 C435 1.369 . S
C434 C436 1.419 . S
C434 H438 0.930 . S
C435 C434 1.369 . S
C435 C444 1.429 . S
C436 C434 1.419 . S
C436 C437 1.363 . S
C436 H439 0.929 . S
C437 C436 1.363 . S
C437 C443 1.428 . S
H438 C434 0.930 . S
H439 C436 0.929 . S
S440 N441 1.613 . S
S440 N442 1.610 . S
N441 S440 1.613 . S
N441 C444 1.350 . S
N442 S440 1.610 . S
N442 C443 1.351 . S
C443 C437 1.428 . S
C443 N442 1.351 . S
C443 C444 1.434 . S
C444 C435 1.429 . S
C444 N441 1.350 . S
C444 C443 1.434 . S
C445 C446 1.369 . S
C445 C447 1.419 . S
C445 H449 0.930 . S
C446 C445 1.369 . S
C446 C455 1.429 . S
C447 C445 1.419 . S
C447 C448 1.363 . S
C447 H450 0.929 . S
C448 C447 1.363 . S
C448 C454 1.428 . S
H449 C445 0.930 . S
H450 C447 0.929 . S
S451 N452 1.613 . S
S451 N453 1.610 . S
N452 S451 1.613 . S
N452 C455 1.350 . S
N453 S451 1.610 . S
N453 C454 1.351 . S
C454 C448 1.428 . S
C454 N453 1.351 . S
C454 C455 1.434 . S
C455 C446 1.429 . S
C455 N452 1.350 . S
C455 C454 1.434 . S
C456 C457 1.369 . S
C456 C458 1.419 . S
C456 H460 0.930 . S
C457 C456 1.369 . S
C457 C466 1.429 . S
C458 C456 1.419 . S
C458 C459 1.363 . S
C458 H461 0.929 . S
C459 C458 1.363 . S
C459 C465 1.428 . S
H460 C456 0.930 . S
H461 C458 0.929 . S
S462 N463 1.613 . S
S462 N464 1.610 . S
N463 S462 1.613 . S
N463 C466 1.350 . S
N464 S462 1.610 . S
N464 C465 1.351 . S
C465 C459 1.428 . S
C465 N464 1.351 . S
C465 C466 1.434 . S
C466 C457 1.429 . S
C466 N463 1.350 . S
C466 C465 1.434 . S
C467 C468 1.369 . S
C467 C469 1.419 . S
C467 H471 0.930 . S
C468 C467 1.369 . S
C468 C477 1.429 . S
C469 C467 1.419 . S
C469 C470 1.363 . S
C469 H472 0.929 . S
C470 C469 1.363 . S
C470 C476 1.428 . S
H471 C467 0.930 . S
H472 C469 0.929 . S
S473 N474 1.613 . S
S473 N475 1.610 . S
N474 S473 1.613 . S
N474 C477 1.350 . S
N475 S473 1.610 . S
N475 C476 1.351 . S
C476 C470 1.428 . S
C476 N475 1.351 . S
C476 C477 1.434 . S
C477 C468 1.429 . S
C477 N474 1.350 . S
C477 C476 1.434 . S
C478 C479 1.369 . S
C478 C480 1.419 . S
C478 H482 0.930 . S
C479 C478 1.369 . S
C479 C488 1.429 . S
C480 C478 1.419 . S
C480 C481 1.363 . S
C480 H483 0.929 . S
C481 C480 1.363 . S
C481 C487 1.428 . S
H482 C478 0.930 . S
H483 C480 0.929 . S
S484 N485 1.613 . S
S484 N486 1.610 . S
N485 S484 1.613 . S
N485 C488 1.350 . S
N486 S484 1.610 . S
N486 C487 1.351 . S
C487 C481 1.428 . S
C487 N486 1.351 . S
C487 C488 1.434 . S
C488 C479 1.429 . S
C488 N485 1.350 . S
C488 C487 1.434 . S
C489 C490 1.369 . S
C489 C491 1.419 . S
C489 H493 0.930 . S
C490 C489 1.369 . S
C490 C499 1.429 . S
C491 C489 1.419 . S
C491 C492 1.363 . S
C491 H494 0.929 . S
C492 C491 1.363 . S
C492 C498 1.428 . S
H493 C489 0.930 . S
H494 C491 0.929 . S
S495 N496 1.613 . S
S495 N497 1.610 . S
N496 S495 1.613 . S
N496 C499 1.350 . S
N497 S495 1.610 . S
N497 C498 1.351 . S
C498 C492 1.428 . S
C498 N497 1.351 . S
C498 C499 1.434 . S
C499 C490 1.429 . S
C499 N496 1.350 . S
C499 C498 1.434 . S
C500 C501 1.369 . S
C500 C502 1.419 . S
C500 H504 0.930 . S
C501 C500 1.369 . S
C501 C510 1.429 . S
C502 C500 1.419 . S
C502 C503 1.363 . S
C502 H505 0.929 . S
C503 C502 1.363 . S
C503 C509 1.428 . S
H504 C500 0.930 . S
H505 C502 0.929 . S
S506 N507 1.613 . S
S506 N508 1.610 . S
N507 S506 1.613 . S
N507 C510 1.350 . S
N508 S506 1.610 . S
N508 C509 1.351 . S
C509 C503 1.428 . S
C509 N508 1.351 . S
C509 C510 1.434 . S
C510 C501 1.429 . S
C510 N507 1.350 . S
C510 C509 1.434 . S
C511 C512 1.369 . S
C511 C513 1.419 . S
C511 H515 0.930 . S
C512 C511 1.369 . S
C512 C521 1.429 . S
C513 C511 1.419 . S
C513 C514 1.363 . S
C513 H516 0.929 . S
C514 C513 1.363 . S
C514 C520 1.428 . S
H515 C511 0.930 . S
H516 C513 0.929 . S
S517 N518 1.613 . S
S517 N519 1.610 . S
N518 S517 1.613 . S
N518 C521 1.350 . S
N519 S517 1.610 . S
N519 C520 1.351 . S
C520 C514 1.428 . S
C520 N519 1.351 . S
C520 C521 1.434 . S
C521 C512 1.429 . S
C521 N518 1.350 . S
C521 C520 1.434 . S
C522 C523 1.369 . S
C522 C524 1.419 . S
C522 H526 0.930 . S
C523 C522 1.369 . S
C523 C532 1.429 . S
C524 C522 1.419 . S
C524 C525 1.363 . S
C524 H527 0.929 . S
C525 C524 1.363 . S
C525 C531 1.428 . S
H526 C522 0.930 . S
H527 C524 0.929 . S
S528 N529 1.613 . S
S528 N530 1.610 . S
N529 S528 1.613 . S
N529 C532 1.350 . S
N530 S528 1.610 . S
N530 C531 1.351 . S
C531 C525 1.428 . S
C531 N530 1.351 . S
C531 C532 1.434 . S
C532 C523 1.429 . S
C532 N529 1.350 . S
C532 C531 1.434 . S
C533 C534 1.369 . S
C533 C535 1.419 . S
C533 H537 0.930 . S
C534 C533 1.369 . S
C534 C543 1.429 . S
C535 C533 1.419 . S
C535 C536 1.363 . S
C535 H538 0.929 . S
C536 C535 1.363 . S
C536 C542 1.428 . S
H537 C533 0.930 . S
H538 C535 0.929 . S
S539 N540 1.613 . S
S539 N541 1.610 . S
N540 S539 1.613 . S
N540 C543 1.350 . S
N541 S539 1.610 . S
N541 C542 1.351 . S
C542 C536 1.428 . S
C542 N541 1.351 . S
C542 C543 1.434 . S
C543 C534 1.429 . S
C543 N540 1.350 . S
C543 C542 1.434 . S
C544 C545 1.369 . S
C544 C546 1.419 . S
C544 H548 0.930 . S
C545 C544 1.369 . S
C545 C554 1.429 . S
C546 C544 1.419 . S
C546 C547 1.363 . S
C546 H549 0.929 . S
C547 C546 1.363 . S
C547 C553 1.428 . S
H548 C544 0.930 . S
H549 C546 0.929 . S
S550 N551 1.613 . S
S550 N552 1.610 . S
N551 S550 1.613 . S
N551 C554 1.350 . S
N552 S550 1.610 . S
N552 C553 1.351 . S
C553 C547 1.428 . S
C553 N552 1.351 . S
C553 C554 1.434 . S
C554 C545 1.429 . S
C554 N551 1.350 . S
C554 C553 1.434 . S
C555 C556 1.369 . S
C555 C557 1.419 . S
C555 H559 0.930 . S
C556 C555 1.369 . S
C556 C565 1.429 . S
C557 C555 1.419 . S
C557 C558 1.363 . S
C557 H560 0.929 . S
C558 C557 1.363 . S
C558 C564 1.428 . S
H559 C555 0.930 . S
H560 C557 0.929 . S
S561 N562 1.613 . S
S561 N563 1.610 . S
N562 S561 1.613 . S
N562 C565 1.350 . S
N563 S561 1.610 . S
N563 C564 1.351 . S
C564 C558 1.428 . S
C564 N563 1.351 . S
C564 C565 1.434 . S
C565 C556 1.429 . S
C565 N562 1.350 . S
C565 C564 1.434 . S
C566 C567 1.369 . S
C566 C568 1.419 . S
C566 H570 0.930 . S
C567 C566 1.369 . S
C567 C576 1.429 . S
C568 C566 1.419 . S
C568 C569 1.363 1_554 S
C568 H571 0.929 1_554 S
C569 C568 1.363 1_556 S
C569 C575 1.428 1_556 S
H570 C566 0.930 . S
H571 C568 0.929 1_556 S
S572 N573 1.613 . S
S572 N574 1.610 . S
N573 S572 1.613 . S
N573 C576 1.350 . S
N574 S572 1.610 . S
N574 C575 1.351 . S
C575 C569 1.428 1_554 S
C575 N574 1.351 . S
C575 C576 1.434 . S
C576 C567 1.429 . S
C576 N573 1.350 . S
C576 C575 1.434 . S
C577 C578 1.369 . S
C577 C579 1.419 . S
C577 H581 0.930 . S
C578 C577 1.369 . S
C578 C587 1.429 . S
C579 C577 1.419 . S
C579 C580 1.363 . S
C579 H582 0.929 . S
C580 C579 1.363 . S
C580 C586 1.428 . S
H581 C577 0.930 . S
H582 C579 0.929 . S
S583 N584 1.613 . S
S583 N585 1.610 . S
N584 S583 1.613 . S
N584 C587 1.350 . S
N585 S583 1.610 . S
N585 C586 1.351 . S
C586 C580 1.428 . S
C586 N585 1.351 . S
C586 C587 1.434 . S
C587 C578 1.429 . S
C587 N584 1.350 . S
C587 C586 1.434 . S
C327 C291 1.560 . S
C325 C8 1.514 . S
C336 C26 1.546 . S
C338 C111 1.588 . S
C347 C50 1.521 . S
C349 C158 1.541 . S
C358 C68 1.490 . S
C360 C194 1.493 . S
C371 C219 1.542 . S
C369 C80 1.498 . S
C380 C104 1.496 . S
C382 C255 1.556 . S
C391 C32 1.527 . S
C393 C147 1.587 . S
C402 C44 1.503 . S
C404 C183 1.543 . S
C413 C62 1.477 . S
C415 C230 1.476 . S
C426 C266 1.516 . S
C424 C86 1.505 . S
C437 C302 1.522 . S
C435 C98 1.520 . S
C448 C122 1.538 . S
C446 C14 1.523 . S
C457 C7 1.455 . S
C459 C146 1.503 . S
C468 C25 1.472 . S
C470 C182 1.509 . S
C481 C220 1.505 . S
C479 C52 1.465 . S
C490 C70 1.460 . S
C492 C256 1.509 1_556 S
C503 C292 1.482 . S
C501 C79 1.436 . S
C514 C112 1.473 . S
C512 C106 1.419 . S
C525 C290 1.492 . S
C523 C34 1.449 . S
C534 C43 1.447 . S
C536 C110 1.496 . S
C547 C148 1.496 . S
C545 C61 1.446 . S
C556 C88 1.456 . S
C558 C184 1.504 . S
C567 C97 1.494 . S
C569 C218 1.532 . S
C578 C16 1.489 . S
C580 C254 1.521 . S
