# Generated by pormake.
# Topology eea, (3,6)-cn, num edge types: 1
# Building blocks:
#     Node 0, Type 0, BuildingBlock: CUQRIR_clean_linker_1, # of connection points: 3
#     Node 1, Type 0, BuildingBlock: CUQRIR_clean_linker_1, # of connection points: 3
#     Node 2, Type 0, BuildingBlock: CUQRIR_clean_linker_1, # of connection points: 3
#     Node 3, Type 0, BuildingBlock: CUQRIR_clean_linker_1, # of connection points: 3
#     Node 4, Type 0, BuildingBlock: CUQRIR_clean_linker_1, # of connection points: 3
#     Node 5, Type 0, BuildingBlock: CUQRIR_clean_linker_1, # of connection points: 3
#     Node 6, Type 0, BuildingBlock: CUQRIR_clean_linker_1, # of connection points: 3
#     Node 7, Type 0, BuildingBlock: CUQRIR_clean_linker_1, # of connection points: 3
#     Node 8, Type 0, BuildingBlock: CUQRIR_clean_linker_1, # of connection points: 3
#     Node 9, Type 0, BuildingBlock: CUQRIR_clean_linker_1, # of connection points: 3
#     Node 10, Type 0, BuildingBlock: CUQRIR_clean_linker_1, # of connection points: 3
#     Node 11, Type 0, BuildingBlock: CUQRIR_clean_linker_1, # of connection points: 3
#     Node 12, Type 0, BuildingBlock: CUQRIR_clean_linker_1, # of connection points: 3
#     Node 13, Type 0, BuildingBlock: CUQRIR_clean_linker_1, # of connection points: 3
#     Node 14, Type 0, BuildingBlock: CUQRIR_clean_linker_1, # of connection points: 3
#     Node 15, Type 0, BuildingBlock: CUQRIR_clean_linker_1, # of connection points: 3
#     Node 16, Type 0, BuildingBlock: CUQRIR_clean_linker_1, # of connection points: 3
#     Node 17, Type 0, BuildingBlock: CUQRIR_clean_linker_1, # of connection points: 3
#     Node 18, Type 1, BuildingBlock: KUMBUR_clean_sbu_0, # of connection points: 6
#     Node 19, Type 1, BuildingBlock: KUMBUR_clean_sbu_0, # of connection points: 6
#     Node 20, Type 1, BuildingBlock: KUMBUR_clean_sbu_0, # of connection points: 6
#     Node 21, Type 1, BuildingBlock: KUMBUR_clean_sbu_0, # of connection points: 6
#     Node 22, Type 1, BuildingBlock: KUMBUR_clean_sbu_0, # of connection points: 6
#     Node 23, Type 1, BuildingBlock: KUMBUR_clean_sbu_0, # of connection points: 6
#     Node 24, Type 1, BuildingBlock: KUMBUR_clean_sbu_0, # of connection points: 6
#     Node 25, Type 1, BuildingBlock: KUMBUR_clean_sbu_0, # of connection points: 6
#     Node 26, Type 1, BuildingBlock: KUMBUR_clean_sbu_0, # of connection points: 6
#     Edge 27, Type (0, 1), BuildingBlock: KIFKEQ_clean_linker_1, # of connection points: 2
#     Edge 28, Type (0, 1), BuildingBlock: KIFKEQ_clean_linker_1, # of connection points: 2
#     Edge 29, Type (0, 1), BuildingBlock: KIFKEQ_clean_linker_1, # of connection points: 2
#     Edge 30, Type (0, 1), BuildingBlock: KIFKEQ_clean_linker_1, # of connection points: 2
#     Edge 31, Type (0, 1), BuildingBlock: KIFKEQ_clean_linker_1, # of connection points: 2
#     Edge 32, Type (0, 1), BuildingBlock: KIFKEQ_clean_linker_1, # of connection points: 2
#     Edge 33, Type (0, 1), BuildingBlock: KIFKEQ_clean_linker_1, # of connection points: 2
#     Edge 34, Type (0, 1), BuildingBlock: KIFKEQ_clean_linker_1, # of connection points: 2
#     Edge 35, Type (0, 1), BuildingBlock: KIFKEQ_clean_linker_1, # of connection points: 2
#     Edge 36, Type (0, 1), BuildingBlock: KIFKEQ_clean_linker_1, # of connection points: 2
#     Edge 37, Type (0, 1), BuildingBlock: KIFKEQ_clean_linker_1, # of connection points: 2
#     Edge 38, Type (0, 1), BuildingBlock: KIFKEQ_clean_linker_1, # of connection points: 2
#     Edge 39, Type (0, 1), BuildingBlock: KIFKEQ_clean_linker_1, # of connection points: 2
#     Edge 40, Type (0, 1), BuildingBlock: KIFKEQ_clean_linker_1, # of connection points: 2
#     Edge 41, Type (0, 1), BuildingBlock: KIFKEQ_clean_linker_1, # of connection points: 2
#     Edge 42, Type (0, 1), BuildingBlock: KIFKEQ_clean_linker_1, # of connection points: 2
#     Edge 43, Type (0, 1), BuildingBlock: KIFKEQ_clean_linker_1, # of connection points: 2
#     Edge 44, Type (0, 1), BuildingBlock: KIFKEQ_clean_linker_1, # of connection points: 2
#     Edge 45, Type (0, 1), BuildingBlock: KIFKEQ_clean_linker_1, # of connection points: 2
#     Edge 46, Type (0, 1), BuildingBlock: KIFKEQ_clean_linker_1, # of connection points: 2
#     Edge 47, Type (0, 1), BuildingBlock: KIFKEQ_clean_linker_1, # of connection points: 2
#     Edge 48, Type (0, 1), BuildingBlock: KIFKEQ_clean_linker_1, # of connection points: 2
#     Edge 49, Type (0, 1), BuildingBlock: KIFKEQ_clean_linker_1, # of connection points: 2
#     Edge 50, Type (0, 1), BuildingBlock: KIFKEQ_clean_linker_1, # of connection points: 2
#     Edge 51, Type (0, 1), BuildingBlock: KIFKEQ_clean_linker_1, # of connection points: 2
#     Edge 52, Type (0, 1), BuildingBlock: KIFKEQ_clean_linker_1, # of connection points: 2
#     Edge 53, Type (0, 1), BuildingBlock: KIFKEQ_clean_linker_1, # of connection points: 2
#     Edge 54, Type (0, 1), BuildingBlock: KIFKEQ_clean_linker_1, # of connection points: 2
#     Edge 55, Type (0, 1), BuildingBlock: KIFKEQ_clean_linker_1, # of connection points: 2
#     Edge 56, Type (0, 1), BuildingBlock: KIFKEQ_clean_linker_1, # of connection points: 2
#     Edge 57, Type (0, 1), BuildingBlock: KIFKEQ_clean_linker_1, # of connection points: 2
#     Edge 58, Type (0, 1), BuildingBlock: KIFKEQ_clean_linker_1, # of connection points: 2
#     Edge 59, Type (0, 1), BuildingBlock: KIFKEQ_clean_linker_1, # of connection points: 2
#     Edge 60, Type (0, 1), BuildingBlock: KIFKEQ_clean_linker_1, # of connection points: 2
#     Edge 61, Type (0, 1), BuildingBlock: KIFKEQ_clean_linker_1, # of connection points: 2
#     Edge 62, Type (0, 1), BuildingBlock: KIFKEQ_clean_linker_1, # of connection points: 2
#     Edge 63, Type (0, 1), BuildingBlock: KIFKEQ_clean_linker_1, # of connection points: 2
#     Edge 64, Type (0, 1), BuildingBlock: KIFKEQ_clean_linker_1, # of connection points: 2
#     Edge 65, Type (0, 1), BuildingBlock: KIFKEQ_clean_linker_1, # of connection points: 2
#     Edge 66, Type (0, 1), BuildingBlock: KIFKEQ_clean_linker_1, # of connection points: 2
#     Edge 67, Type (0, 1), BuildingBlock: KIFKEQ_clean_linker_1, # of connection points: 2
#     Edge 68, Type (0, 1), BuildingBlock: KIFKEQ_clean_linker_1, # of connection points: 2
#     Edge 69, Type (0, 1), BuildingBlock: KIFKEQ_clean_linker_1, # of connection points: 2
#     Edge 70, Type (0, 1), BuildingBlock: KIFKEQ_clean_linker_1, # of connection points: 2
#     Edge 71, Type (0, 1), BuildingBlock: KIFKEQ_clean_linker_1, # of connection points: 2
#     Edge 72, Type (0, 1), BuildingBlock: KIFKEQ_clean_linker_1, # of connection points: 2
#     Edge 73, Type (0, 1), BuildingBlock: KIFKEQ_clean_linker_1, # of connection points: 2
#     Edge 74, Type (0, 1), BuildingBlock: KIFKEQ_clean_linker_1, # of connection points: 2
#     Edge 75, Type (0, 1), BuildingBlock: KIFKEQ_clean_linker_1, # of connection points: 2
#     Edge 76, Type (0, 1), BuildingBlock: KIFKEQ_clean_linker_1, # of connection points: 2
#     Edge 77, Type (0, 1), BuildingBlock: KIFKEQ_clean_linker_1, # of connection points: 2
#     Edge 78, Type (0, 1), BuildingBlock: KIFKEQ_clean_linker_1, # of connection points: 2
#     Edge 79, Type (0, 1), BuildingBlock: KIFKEQ_clean_linker_1, # of connection points: 2
#     Edge 80, Type (0, 1), BuildingBlock: KIFKEQ_clean_linker_1, # of connection points: 2
# Relax obj value: 0.040
# Max RMSD: 0.205
# Mean RMSD: 0.146
data_MOF--net-eea--node1-KUMBUR_clean_sbu_0--node2-CUQRIR_clean_linker_1--edge1-KIFKEQ_clean_linker_1
_symmetry_space_group_name_H-M    P1
_symmetry_Int_Tables_number       1
_symmetry_cell_setting            triclinic
loop_
_symmetry_equiv_pos_as_xyz
'x, y, z'
_cell_length_a     48.856345
_cell_length_b     51.763723
_cell_length_c     63.830221
_cell_angle_alpha  83.424371
_cell_angle_beta   89.899545
_cell_angle_gamma 119.24841
loop_
_atom_site_label
_atom_site_type_symbol
_atom_site_fract_x
_atom_site_fract_y
_atom_site_fract_z
_atom_type_partial_charge
C0 C 0.21131 0.10863 0.41877 0.0
N1 N 0.22214 0.13176 0.4304 0.0
N2 N 0.21554 0.08615 0.4284 0.0
C3 C 0.19373 0.10664 0.39914 0.0
C4 C 0.2291 0.09638 0.4464 0.0
N5 N 0.23275 0.12379 0.44772 0.0
C6 C 0.24102 0.08067 0.46197 0.0
H7 H 0.18115 0.11958 0.39937 0.0
H8 H 0.17647 0.08307 0.39763 0.0
H9 H 0.21067 0.11599 0.38509 0.0
H10 H 0.24791 0.06647 0.45411 0.0
H11 H 0.2221 0.06627 0.47443 0.0
H12 H 0.26155 0.09695 0.46971 0.0
C13 C 0.91149 0.12498 0.41779 0.0
N14 N 0.92469 0.14649 0.4307 0.0
N15 N 0.88401 0.10163 0.42687 0.0
C16 C 0.92632 0.12626 0.39675 0.0
C17 C 0.88115 0.10989 0.44584 0.0
N18 N 0.90597 0.13686 0.4483 0.0
C19 C 0.85272 0.09293 0.46122 0.0
H20 H 0.91869 0.13771 0.3843 0.0
H21 H 0.91909 0.10349 0.39298 0.0
H22 H 0.95234 0.13917 0.39662 0.0
H23 H 0.8566 0.07765 0.47292 0.0
H24 H 0.83127 0.07951 0.453 0.0
H25 H 0.84879 0.10831 0.46994 0.0
C26 C 0.91913 0.8423 0.41524 0.0
N27 N 0.93346 0.83227 0.42934 0.0
N28 N 0.8968 0.84553 0.42522 0.0
C29 C 0.92457 0.8459 0.39159 0.0
C30 C 0.89878 0.83779 0.44595 0.0
N31 N 0.92115 0.82971 0.44849 0.0
C32 C 0.87618 0.8345 0.46346 0.0
H33 H 0.92236 0.86502 0.38392 0.0
H34 H 0.90656 0.82539 0.38556 0.0
H35 H 0.94825 0.84959 0.38702 0.0
H36 H 0.85982 0.81041 0.46858 0.0
H37 H 0.86246 0.84571 0.45831 0.0
H38 H 0.88922 0.84428 0.47728 0.0
C39 C 0.10003 0.20427 0.65385 0.0
N40 N 0.12529 0.21428 0.64007 0.0
N41 N 0.07801 0.20956 0.64478 0.0
C42 C 0.09767 0.19122 0.67656 0.0
C43 C 0.0907 0.22339 0.62518 0.0
N44 N 0.11951 0.22637 0.62232 0.0
C45 C 0.07622 0.23643 0.60958 0.0
H46 H 0.07968 0.19255 0.68626 0.0
H47 H 0.12072 0.20284 0.68357 0.0
H48 H 0.09081 0.1673 0.6772 0.0
H49 H 0.08358 0.25957 0.61256 0.0
H50 H 0.05019 0.22331 0.61139 0.0
H51 H 0.08429 0.23727 0.59313 0.0
C52 C 0.80054 0.91609 0.64393 0.0
N53 N 0.79135 0.89388 0.63163 0.0
N54 N 0.78947 0.93485 0.63717 0.0
C55 C 0.81807 0.91808 0.66359 0.0
C56 C 0.7731 0.92316 0.62036 0.0
N57 N 0.77396 0.89816 0.61712 0.0
C58 C 0.75773 0.93708 0.60636 0.0
H59 H 0.81194 0.8955 0.67145 0.0
H60 H 0.81277 0.93002 0.67492 0.0
H61 H 0.84369 0.93056 0.65915 0.0
H62 H 0.75841 0.93269 0.58981 0.0
H63 H 0.76942 0.96156 0.60667 0.0
H64 H 0.73273 0.92708 0.6121 0.0
C65 C 0.11468 0.92082 0.64871 0.0
N66 N 0.10176 0.89762 0.63715 0.0
N67 N 0.14357 0.94217 0.64007 0.0
C68 C 0.0998 0.92191 0.66896 0.0
C69 C 0.14756 0.93107 0.62279 0.0
N70 N 0.12235 0.90409 0.62107 0.0
C71 C 0.17587 0.94684 0.60729 0.0
H72 H 0.0851 0.93252 0.66521 0.0
H73 H 0.11798 0.93535 0.6795 0.0
H74 H 0.08442 0.89908 0.67731 0.0
H75 H 0.19324 0.9398 0.61227 0.0
H76 H 0.18704 0.97143 0.60682 0.0
H77 H 0.16942 0.9409 0.59118 0.0
C78 C 0.88026 0.44382 0.75135 0.0
N79 N 0.89156 0.46709 0.76285 0.0
N80 N 0.88471 0.42142 0.76084 0.0
C81 C 0.86204 0.44163 0.73201 0.0
C82 C 0.89888 0.43182 0.77863 0.0
N83 N 0.90271 0.45929 0.77996 0.0
C84 C 0.911 0.41612 0.79404 0.0
H85 H 0.84467 0.41802 0.7307 0.0
H86 H 0.87855 0.45084 0.71774 0.0
H87 H 0.84951 0.45459 0.73247 0.0
H88 H 0.91756 0.40178 0.78608 0.0
H89 H 0.8923 0.40187 0.80666 0.0
H90 H 0.93177 0.43241 0.80158 0.0
C91 C 0.57859 0.45876 0.75129 0.0
N92 N 0.59231 0.48008 0.7643 0.0
N93 N 0.55144 0.43525 0.76065 0.0
C94 C 0.59263 0.46031 0.72989 0.0
C95 C 0.54931 0.4432 0.77988 0.0
N96 N 0.57427 0.47014 0.78223 0.0
C97 C 0.52135 0.42604 0.79563 0.0
H98 H 0.58455 0.47186 0.71785 0.0
H99 H 0.5852 0.43762 0.72586 0.0
H100 H 0.61869 0.47323 0.72934 0.0
H101 H 0.52571 0.41081 0.80706 0.0
H102 H 0.49962 0.41255 0.78769 0.0
H103 H 0.51762 0.4413 0.80462 0.0
C104 C 0.5921 0.18228 0.7508 0.0
N105 N 0.60381 0.16969 0.7651 0.0
N106 N 0.56717 0.1827 0.75952 0.0
C107 C 0.60337 0.19198 0.72783 0.0
C108 C 0.56439 0.17014 0.77978 0.0
N109 N 0.58686 0.16235 0.7832 0.0
C110 C 0.53637 0.16046 0.79486 0.0
H111 H 0.59677 0.20862 0.72079 0.0
H112 H 0.59236 0.17225 0.71917 0.0
H113 H 0.62926 0.20163 0.72599 0.0
H114 H 0.5292 0.17783 0.7938 0.0
H115 H 0.54139 0.15601 0.81141 0.0
H116 H 0.5164 0.13971 0.79044 0.0
C117 C 0.76949 0.54064 0.99011 0.0
N118 N 0.79334 0.55121 0.9752 0.0
N119 N 0.74372 0.53925 0.98146 0.0
C120 C 0.77105 0.53094 1.01301 0.0
C121 C 0.75269 0.54925 0.96071 0.0
N122 N 0.78289 0.55614 0.95684 0.0
C123 C 0.73325 0.55563 0.94484 0.0
H124 H 0.7866 0.5209 0.01467 0.0
H125 H 0.74728 0.51454 0.02035 0.0
H126 H 0.78095 0.55074 0.02161 0.0
H127 H 0.7159 0.56001 0.95264 0.0
H128 H 0.7203 0.5359 0.93639 0.0
H129 H 0.74834 0.57517 0.93302 0.0
C130 C 0.47008 0.24928 0.97734 0.0
N131 N 0.46073 0.22704 0.96506 0.0
N132 N 0.46112 0.26937 0.96963 0.0
C133 C 0.48751 0.25118 0.99704 0.0
C134 C 0.44599 0.25846 0.95223 0.0
N135 N 0.44573 0.23281 0.94947 0.0
C136 C 0.43022 0.27212 0.93839 0.0
H137 H 0.47018 0.23835 1.01067 0.0
H138 H 0.5018 0.27469 1.00008 0.0
H139 H 0.50313 0.24144 0.99593 0.0
H140 H 0.44741 0.28824 0.92553 0.0
H141 H 0.42191 0.28421 0.94756 0.0
H142 H 0.40998 0.25486 0.93104 0.0
C143 C 0.77906 0.25324 0.98151 0.0
N144 N 0.76669 0.23008 0.96989 0.0
N145 N 0.80796 0.27486 0.97309 0.0
C146 C 0.76368 0.25398 1.00166 0.0
C147 C 0.81253 0.26396 0.95587 0.0
N148 N 0.78766 0.23684 0.95399 0.0
C149 C 0.84102 0.28011 0.94054 0.0
H150 H 0.74872 0.26429 0.99778 0.0
H151 H 0.78155 0.26752 1.01233 0.0
H152 H 0.74846 0.23107 1.00992 0.0
H153 H 0.85855 0.27334 0.94562 0.0
H154 H 0.85185 0.30466 0.94012 0.0
H155 H 0.83487 0.27422 0.92438 0.0
C156 C 0.5441 0.77413 0.08635 0.0
N157 N 0.55557 0.79766 0.0976 0.0
N158 N 0.54851 0.75182 0.09607 0.0
C159 C 0.5258 0.77163 0.06702 0.0
C160 C 0.56276 0.76252 0.11377 0.0
N161 N 0.56666 0.79009 0.11484 0.0
C162 C 0.5753 0.74718 0.12915 0.0
H163 H 0.50838 0.74797 0.0659 0.0
H164 H 0.54224 0.78059 0.05271 0.0
H165 H 0.51331 0.78464 0.06733 0.0
H166 H 0.58182 0.73278 0.12124 0.0
H167 H 0.55685 0.73303 0.14194 0.0
H168 H 0.59621 0.76369 0.13646 0.0
C169 C 0.24519 0.78963 0.08559 0.0
N170 N 0.2577 0.81165 0.09817 0.0
N171 N 0.21546 0.76862 0.09287 0.0
C172 C 0.26127 0.78962 0.06549 0.0
C173 C 0.21045 0.77868 0.11039 0.0
N174 N 0.23591 0.80479 0.11356 0.0
C175 C 0.18084 0.7627 0.12471 0.0
H176 H 0.24385 0.77724 0.05419 0.0
H177 H 0.27546 0.77849 0.06931 0.0
H178 H 0.27733 0.81277 0.05794 0.0
H179 H 0.18601 0.76678 0.1413 0.0
H180 H 0.1687 0.73829 0.124 0.0
H181 H 0.16481 0.77135 0.11958 0.0
C182 C 0.25059 0.50707 0.08094 0.0
N183 N 0.2655 0.49732 0.09473 0.0
N184 N 0.22829 0.50993 0.0913 0.0
C185 C 0.25552 0.51083 0.05724 0.0
C186 C 0.23085 0.50223 0.11192 0.0
N187 N 0.25359 0.49459 0.11405 0.0
C188 C 0.20853 0.4986 0.12976 0.0
H189 H 0.27925 0.51493 0.05234 0.0
H190 H 0.25278 0.52976 0.04979 0.0
H191 H 0.23758 0.49022 0.05128 0.0
H192 H 0.19443 0.50953 0.12492 0.0
H193 H 0.22184 0.50849 0.14346 0.0
H194 H 0.19251 0.47446 0.13491 0.0
C195 C 0.43558 0.87342 0.32252 0.0
N196 N 0.45986 0.88344 0.30803 0.0
N197 N 0.41039 0.87253 0.31328 0.0
C198 C 0.43615 0.86378 0.34559 0.0
C199 C 0.42015 0.88228 0.29261 0.0
N200 N 0.45026 0.88854 0.28936 0.0
C201 C 0.40163 0.88908 0.2762 0.0
H202 H 0.45134 0.85339 0.3478 0.0
H203 H 0.41209 0.84769 0.35259 0.0
H204 H 0.44597 0.88366 0.3541 0.0
H205 H 0.38417 0.89374 0.28351 0.0
H206 H 0.38887 0.86943 0.26763 0.0
H207 H 0.41735 0.90857 0.26454 0.0
C208 C 0.13216 0.58121 0.31107 0.0
N209 N 0.1227 0.55869 0.299 0.0
N210 N 0.12578 0.60263 0.30219 0.0
C211 C 0.15038 0.58376 0.33046 0.0
C212 C 0.11238 0.59245 0.28415 0.0
N213 N 0.1108 0.56601 0.2821 0.0
C214 C 0.09917 0.60745 0.26905 0.0
H215 H 0.13371 0.57307 0.34463 0.0
H216 H 0.16634 0.60753 0.3323 0.0
H217 H 0.16448 0.57236 0.32959 0.0
H218 H 0.11792 0.62322 0.25687 0.0
H219 H 0.09076 0.62014 0.27743 0.0
H220 H 0.07945 0.59093 0.26088 0.0
C221 C 0.44703 0.58693 0.31648 0.0
N222 N 0.43285 0.5644 0.30444 0.0
N223 N 0.47329 0.61036 0.30599 0.0
C224 C 0.43398 0.5868 0.33786 0.0
C225 C 0.4744 0.60103 0.28712 0.0
N226 N 0.44971 0.57344 0.28607 0.0
C227 C 0.50119 0.61757 0.27044 0.0
H228 H 0.40797 0.57299 0.33924 0.0
H229 H 0.44078 0.60982 0.34082 0.0
H230 H 0.44351 0.57699 0.35015 0.0
H231 H 0.52342 0.63218 0.27748 0.0
H232 H 0.49557 0.63161 0.25875 0.0
H233 H 0.50471 0.60179 0.26193 0.0
Tb234 Tb 0.50062 1.00034 1.00976 0.0
C235 C 0.56851 0.10227 0.06279 0.0
C236 C 0.62344 0.1168 0.05769 0.0
C237 C 0.6086 0.15357 0.0649 0.0
C238 C 0.59137 0.09507 0.05843 0.0
C239 C 0.57676 0.13143 0.06652 0.0
C240 C 0.63193 0.14626 0.06049 0.0
C241 C 0.52173 0.11392 0.07485 0.0
N242 N 0.53815 0.08017 0.0644 0.0
C243 C 0.5148 0.08529 0.07115 0.0
C244 C 0.55282 0.1372 0.07229 0.0
Tb245 Tb 0.52889 0.03428 0.0572 0.0
N246 N 0.58212 0.06636 0.0559 0.0
C247 C 0.60407 0.05743 0.05408 0.0
C248 C 0.64596 0.10809 0.05463 0.0
C249 C 0.6362 0.07818 0.05312 0.0
H250 H 0.49067 0.0675 0.07303 0.0
H251 H 0.65341 0.07108 0.05111 0.0
H252 H 0.65643 0.16336 0.05974 0.0
H253 H 0.50309 0.11801 0.07968 0.0
H254 H 0.5971 0.03449 0.05274 0.0
H255 H 0.37505 0.95874 0.0161 0.0
H256 H 0.67085 0.12411 0.05387 0.0
H257 H 0.54167 0.97084 0.99199 0.0
H258 H 0.43075 0.99681 0.01517 0.0
H259 H 0.53148 0.92219 0.98268 0.0
H260 H 0.61545 0.1762 0.06752 0.0
H261 H 0.36001 0.90682 1.01129 0.0
H262 H 0.37683 0.86999 1.00327 0.0
H263 H 0.55815 0.15932 0.07527 0.0
H264 H 0.41946 0.86003 0.99403 0.0
N265 N 0.4478 0.96682 1.01061 0.0
C266 C 0.42485 0.97436 1.01304 0.0
C267 C 0.38465 0.92348 1.01092 0.0
C268 C 0.40817 0.91628 1.00717 0.0
C269 C 0.39305 0.95276 1.01358 0.0
C270 C 0.43987 0.93877 1.00698 0.0
H271 H 0.47721 0.87952 0.98592 0.0
N272 N 0.49369 0.9559 1.001 0.0
C273 C 0.51219 0.92491 0.98819 0.0
C274 C 0.46368 0.93313 1.00191 0.0
C275 C 0.51786 0.95252 0.99348 0.0
C276 C 0.48154 0.90086 0.99008 0.0
C277 C 0.45674 0.9049 0.99673 0.0
O278 O 0.5248 0.01621 0.97982 0.0
O279 O 0.53789 0.036 0.02407 0.0
O280 O 0.52207 0.06603 0.03506 0.0
O281 O 0.48536 0.03328 0.01416 0.0
O282 O 0.55127 0.01814 1.00233 0.0
O283 O 0.47943 1.01279 0.98488 0.0
O284 O 0.50913 0.02515 0.0883 0.0
O285 O 0.49123 0.99897 0.04302 0.0
O286 O 0.5065 0.96773 0.03124 0.0
O287 O 0.54193 0.99937 0.05344 0.0
O288 O 0.47863 0.01681 0.06535 0.0
O289 O 0.54714 0.01688 0.08104 0.0
C290 C 0.56186 0.03873 0.01441 0.0
C291 C 0.49382 1.00755 0.95079 0.0
C292 C 0.50418 0.01678 0.91253 0.0
C293 C 0.51033 0.02674 0.93245 0.0
C294 C 0.48142 0.98696 0.91126 0.0
C295 C 0.47096 0.97794 0.94933 0.0
C296 C 0.46489 0.96771 0.9296 0.0
C297 C 0.50035 0.0597 0.02108 0.0
C298 C 0.50223 0.01903 0.97112 0.0
C299 C 0.42529 0.88197 0.99775 0.0
C300 C 0.40103 0.88765 1.00301 0.0
C301 C 0.46759 0.99647 0.05308 0.0
C302 C 0.5432 0.02806 0.11523 0.0
C303 C 0.53365 1.00832 0.13405 0.0
C304 C 0.54696 0.01813 0.15308 0.0
C305 C 0.57046 0.04809 0.15287 0.0
C306 C 0.56655 0.05787 0.11526 0.0
C307 C 0.58016 0.06779 0.13403 0.0
C308 C 0.52713 0.97326 0.04591 0.0
C309 C 0.5286 0.0166 0.09585 0.0
H310 H 0.52834 0.04947 0.93376 0.0
H311 H 0.476 0.97871 0.89611 0.0
H312 H 0.45794 0.9628 0.96332 0.0
H313 H 0.44725 0.94484 0.9285 0.0
H314 H 0.51593 0.98517 0.1338 0.0
H315 H 0.58092 0.05644 0.1673 0.0
H316 H 0.5743 0.07339 0.1009 0.0
H317 H 0.59814 0.09085 0.13401 0.0
Tb318 Tb 0.03124 0.53728 1.00227 0.0
C319 C 0.91683 0.48156 0.06632 0.0
C320 C 0.90005 0.51858 0.0642 0.0
C321 C 0.86168 0.46599 0.07335 0.0
C322 C 0.92386 0.5109 0.06234 0.0
C323 C 0.88584 0.45876 0.07246 0.0
C324 C 0.86877 0.49589 0.06918 0.0
C325 C 0.90561 0.42406 0.07829 0.0
N326 N 0.9409 0.47565 0.06541 0.0
C327 C 0.93597 0.44754 0.07216 0.0
C328 C 0.88033 0.42961 0.07815 0.0
Tb329 Tb 0.98963 0.51525 0.05448 0.0
N330 N 0.95441 0.53205 0.05791 0.0
C331 C 0.96307 0.56163 0.0569 0.0
C332 C 0.90859 0.54883 0.06171 0.0
C333 C 0.94031 0.57045 0.05842 0.0
H334 H 0.95533 0.44301 0.07221 0.0
H335 H 0.94727 0.59392 0.05696 0.0
H336 H 0.85008 0.5013 0.07046 0.0
H337 H 0.90171 0.40172 0.08309 0.0
H338 H 0.98741 0.57869 0.05423 0.0
H339 H 0.07096 0.45689 0.9981 0.0
H340 H 0.89102 0.55571 0.06292 0.0
H341 H 0.06746 0.60986 0.98514 0.0
H342 H 0.03181 0.4732 1.00138 0.0
H343 H 0.12172 0.65051 0.97529 0.0
H344 H 0.83762 0.44877 0.0778 0.0
H345 H 0.12761 0.49415 0.99329 0.0
H346 H 0.16972 0.54826 0.98741 0.0
H347 H 0.85686 0.41142 0.08297 0.0
H348 H 0.18363 0.60125 0.98102 0.0
N349 N 0.06568 0.51955 0.99871 0.0
C350 C 0.05631 0.48989 0.99909 0.0
C351 C 0.11047 0.50152 0.99463 0.0
C352 C 0.11979 0.53191 0.99296 0.0
C353 C 0.07852 0.48045 0.99726 0.0
C354 C 0.09649 0.54024 0.99483 0.0
H355 H 0.16574 0.63961 0.97598 0.0
N356 N 0.08066 0.57631 0.99196 0.0
C357 C 0.11718 0.62791 0.97989 0.0
C358 C 0.1043 0.56979 0.99129 0.0
C359 C 0.08643 0.60478 0.98543 0.0
C360 C 0.14198 0.62169 0.98036 0.0
C361 C 0.13563 0.59222 0.98573 0.0
O362 O 0.02025 0.555 0.97429 0.0
O363 O 0.99286 0.53261 0.02175 0.0
O364 O 0.9585 0.48257 0.03449 0.0
O365 O 0.99417 0.48925 1.00699 0.0
O366 O 0.01429 0.56946 0.99967 0.0
O367 O 0.01865 0.51254 0.9765 0.0
O368 O 1.00206 0.49861 0.08233 0.0
O369 O 0.02755 0.51994 0.03476 0.0
O370 O 0.06213 0.56962 0.02263 0.0
O371 O 0.02615 0.5633 0.04977 0.0
O372 O 0.00831 0.4841 0.05741 0.0
O373 O 1.00111 0.53988 0.08032 0.0
C374 C 0.9916 0.55542 0.01399 0.0
C375 C 0.03027 0.54083 0.94265 0.0
C376 C 0.02426 0.54088 0.9046 0.0
C377 C 0.011 0.5325 0.92556 0.0
C378 C 0.05715 0.5577 0.90105 0.0
C379 C 0.06301 0.55731 0.93875 0.0
C380 C 0.07633 0.56572 0.91804 0.0
C381 C 0.96628 0.4737 0.01786 0.0
C382 C 0.01569 0.53285 0.96429 0.0
C383 C 0.15932 0.58433 0.98501 0.0
C384 C 0.1514 0.55417 0.98865 0.0
C385 C 0.03029 0.49806 0.0426 0.0
C386 C 0.99086 0.51152 0.11415 0.0
C387 C 0.00985 0.51565 0.13142 0.0
C388 C 0.99627 0.5062 0.15234 0.0
C389 C 0.96339 0.49262 0.15562 0.0
C390 C 0.9582 0.49818 0.11787 0.0
C391 C 0.94459 0.48876 0.1385 0.0
C392 C 0.05423 0.57859 0.03918 0.0
C393 C 0.00542 0.52031 0.09243 0.0
H394 H 0.98567 0.51988 0.92859 0.0
H395 H 0.06809 0.5642 0.88515 0.0
H396 H 0.07826 0.56378 0.95164 0.0
H397 H 0.10163 0.57848 0.91514 0.0
H398 H 0.0351 0.52582 0.12854 0.0
H399 H 0.95221 0.48547 0.17147 0.0
H400 H 0.94323 0.49498 0.10488 0.0
H401 H 0.91934 0.47847 0.14125 0.0
Tb402 Tb 0.50228 0.49348 0.06315 0.0
C403 C 0.45778 0.55486 0.99458 0.0
C404 C 0.40248 0.51937 0.9941 0.0
C405 C 0.42111 0.57246 0.98477 0.0
C406 C 0.43351 0.52585 0.99771 0.0
C407 C 0.45214 0.57849 0.9874 0.0
C408 C 0.39627 0.54291 0.98819 0.0
C409 C 0.50837 0.61148 0.98374 0.0
N410 N 0.48735 0.55959 0.99711 0.0
C411 C 0.51272 0.58724 0.99095 0.0
C412 C 0.47793 0.60719 0.98229 0.0
Tb413 Tb 0.49222 0.51867 1.00914 0.0
N414 N 0.4407 0.50385 1.00298 0.0
C415 C 0.41812 0.4746 1.00321 0.0
C416 C 0.3789 0.48945 0.99581 0.0
C417 C 0.38686 0.46697 1.00004 0.0
H418 H 0.53632 0.59078 0.99209 0.0
H419 H 0.36895 0.44374 1.00088 0.0
H420 H 0.37254 0.53844 0.98554 0.0
H421 H 0.52849 0.63344 0.97936 0.0
H422 H 0.42381 0.45693 1.00651 0.0
H423 H 0.62417 0.57032 0.07424 0.0
H424 H 0.35471 0.48348 0.99324 0.0
H425 H 0.45938 0.42081 0.07889 0.0
H426 H 0.56961 0.55611 0.06702 0.0
H427 H 0.46818 0.3788 0.0916 0.0
H428 H 0.41618 0.59033 0.9795 0.0
H429 H 0.63948 0.53145 0.08254 0.0
H430 H 0.62296 0.47678 0.08986 0.0
H431 H 0.47462 0.62596 0.97666 0.0
H432 H 0.58033 0.42441 0.09469 0.0
N433 N 0.55368 0.50931 0.07052 0.0
C434 C 0.57561 0.53871 0.07068 0.0
C435 C 0.61536 0.52499 0.07936 0.0
C436 C 0.59242 0.4949 0.08055 0.0
C437 C 0.60677 0.54697 0.07475 0.0
C438 C 0.56142 0.48777 0.07616 0.0
H439 H 0.52232 0.38764 0.09581 0.0
N440 N 0.50813 0.45314 0.07534 0.0
C441 C 0.488 0.4011 0.08788 0.0
C442 C 0.53773 0.45854 0.07866 0.0
C443 C 0.48311 0.42501 0.08069 0.0
C444 C 0.51859 0.40617 0.09018 0.0
C445 C 0.54392 0.43527 0.08591 0.0
O446 O 0.46932 0.47587 0.08945 0.0
O447 O 0.47251 0.5003 0.04109 0.0
O448 O 0.49389 0.55146 0.02864 0.0
O449 O 0.51681 0.54169 0.05856 0.0
O450 O 0.45204 0.46261 0.06236 0.0
O451 O 0.51182 0.51773 0.08913 0.0
O452 O 0.52502 0.5348 0.9828 0.0
O453 O 0.52161 0.51171 0.03131 0.0
O454 O 0.50174 0.46148 0.04329 0.0
O455 O 0.47768 0.4705 0.01375 0.0
O456 O 0.54305 0.54849 1.0093 0.0
O457 O 0.48041 0.49525 0.98261 0.0
C458 C 0.44639 0.47786 0.04741 0.0
C459 C 0.48972 0.48912 0.1225 0.0
C460 C 0.48073 0.48966 0.16024 0.0
C461 C 0.47865 0.49861 0.13881 0.0
C462 C 0.49429 0.47134 0.165 0.0
C463 C 0.50336 0.47109 0.12775 0.0
C464 C 0.50558 0.46226 0.14886 0.0
C465 C 0.50762 0.55853 0.04663 0.0
C466 C 0.48632 0.49764 0.10017 0.0
C467 C 0.57497 0.44198 0.08935 0.0
C468 C 0.59923 0.47179 0.08663 0.0
C469 C 0.54798 0.53349 0.02483 0.0
C470 C 0.50397 0.52462 0.94954 0.0
C471 C 0.5172 0.51824 0.93248 0.0
C472 C 0.51545 0.52892 0.91132 0.0
C473 C 0.50086 0.54661 0.90783 0.0
C474 C 0.48886 0.54152 0.94532 0.0
C475 C 0.48755 0.55261 0.92465 0.0
C476 C 0.48771 0.45415 0.0254 0.0
C477 C 0.50654 0.51422 0.97167 0.0
H478 H 0.46805 0.51252 0.13481 0.0
H479 H 0.49668 0.46442 0.18124 0.0
H480 H 0.51221 0.46373 0.11559 0.0
H481 H 0.51616 0.44833 0.15275 0.0
H482 H 0.52838 0.50469 0.9357 0.0
H483 H 0.49983 0.55609 0.89202 0.0
H484 H 0.47817 0.54634 0.95798 0.0
H485 H 0.47619 0.56601 0.92163 0.0
Tb486 Tb 0.16917 0.33437 0.34202 0.0
C487 C 0.23176 0.43649 0.39518 0.0
C488 C 0.28699 0.45173 0.39128 0.0
C489 C 0.27096 0.48805 0.39742 0.0
C490 C 0.25511 0.42968 0.39154 0.0
C491 C 0.2393 0.46551 0.39881 0.0
C492 C 0.2948 0.48117 0.39362 0.0
C493 C 0.18403 0.44692 0.4071 0.0
N494 N 0.2016 0.41396 0.39669 0.0
C495 C 0.17779 0.41848 0.40337 0.0
C496 C 0.21487 0.47066 0.40449 0.0
Tb497 Tb 0.19349 0.36828 0.38984 0.0
N498 N 0.24648 0.40091 0.38967 0.0
C499 C 0.26878 0.39222 0.38927 0.0
C500 C 0.30996 0.44328 0.38946 0.0
C501 C 0.30077 0.41327 0.38887 0.0
H502 H 0.15384 0.40035 0.40526 0.0
H503 H 0.31831 0.40634 0.38795 0.0
H504 H 0.31917 0.49852 0.39322 0.0
H505 H 0.16503 0.45051 0.41191 0.0
H506 H 0.26223 0.3692 0.3886 0.0
H507 H 0.04356 0.29255 0.34433 0.0
H508 H 0.33474 0.45953 0.38912 0.0
H509 H 0.2114 0.30487 0.32627 0.0
H510 H 0.09908 0.33091 0.34412 0.0
H511 H 0.20211 0.25595 0.31815 0.0
H512 H 0.27727 0.5106 0.39991 0.0
H513 H 0.02915 0.24028 0.34125 0.0
H514 H 0.04672 0.20324 0.3353 0.0
H515 H 0.21966 0.49264 0.40746 0.0
H516 H 0.08996 0.1933 0.32787 0.0
N517 N 0.11656 0.30071 0.34173 0.0
C518 C 0.09343 0.30829 0.34275 0.0
C519 C 0.0537 0.25706 0.34121 0.0
C520 C 0.07749 0.24982 0.33871 0.0
C521 C 0.06175 0.28654 0.34288 0.0
C522 C 0.10905 0.27249 0.33891 0.0
H523 H 0.14802 0.21301 0.32099 0.0
N524 N 0.16306 0.28981 0.33418 0.0
C525 C 0.18251 0.25866 0.32295 0.0
C526 C 0.13318 0.26686 0.33483 0.0
C527 C 0.18766 0.28642 0.32756 0.0
C528 C 0.15195 0.23446 0.32461 0.0
C529 C 0.12675 0.23847 0.33033 0.0
O530 O 0.19552 0.35014 0.31285 0.0
O531 O 0.20492 0.3701 0.35712 0.0
O532 O 0.18721 0.39991 0.36711 0.0
O533 O 0.15358 0.3675 0.34461 0.0
O534 O 0.22021 0.35209 0.33664 0.0
O535 O 0.1497 0.3464 0.31584 0.0
O536 O 0.1713 0.35818 0.42025 0.0
O537 O 0.15727 0.33299 0.37482 0.0
O538 O 0.17362 0.30184 0.36447 0.0
O539 O 0.20716 0.33339 0.38746 0.0
O540 O 0.14284 0.35086 0.39608 0.0
O541 O 0.21093 0.35159 0.41476 0.0
C542 C 0.22961 0.37276 0.34863 0.0
C543 C 0.16707 0.34152 0.2826 0.0
C544 C 0.17927 0.35159 0.24452 0.0
C545 C 0.18352 0.36137 0.26449 0.0
C546 C 0.15845 0.32133 0.24295 0.0
C547 C 0.14613 0.31146 0.28085 0.0
C548 C 0.14194 0.30144 0.26105 0.0
C549 C 0.16711 0.39365 0.35199 0.0
C550 C 0.17362 0.35286 0.30304 0.0
C551 C 0.09542 0.21537 0.33107 0.0
C552 C 0.07081 0.22103 0.33531 0.0
C553 C 0.1329 0.33063 0.38373 0.0
C554 C 0.20397 0.36274 0.44838 0.0
C555 C 0.19884 0.34279 0.46665 0.0
C556 C 0.20956 0.35331 0.48605 0.0
C557 C 0.22637 0.38439 0.4866 0.0
C558 C 0.22085 0.39356 0.44922 0.0
C559 C 0.23212 0.40429 0.46825 0.0
C560 C 0.19319 0.30734 0.3798 0.0
C561 C 0.19101 0.35064 0.4288 0.0
H562 H 0.20004 0.3845 0.26604 0.0
H563 H 0.15451 0.3132 0.22774 0.0
H564 H 0.1332 0.29582 0.29466 0.0
H565 H 0.12579 0.27821 0.25972 0.0
H566 H 0.18632 0.31902 0.46567 0.0
H567 H 0.23444 0.39342 0.50127 0.0
H568 H 0.22513 0.40928 0.43531 0.0
H569 H 0.24494 0.42813 0.46886 0.0
Tb570 Tb 0.69864 0.87182 0.33489 0.0
C571 C 0.5863 0.81538 0.40092 0.0
C572 C 0.5689 0.85194 0.3987 0.0
C573 C 0.53131 0.79942 0.40916 0.0
C574 C 0.59284 0.84452 0.39646 0.0
C575 C 0.55572 0.79253 0.40802 0.0
C576 C 0.53789 0.82911 0.40443 0.0
C577 C 0.57655 0.75877 0.41459 0.0
N578 N 0.61062 0.80986 0.39985 0.0
C579 C 0.60647 0.78225 0.40736 0.0
C580 C 0.55093 0.7638 0.41457 0.0
Tb581 Tb 0.65872 0.84945 0.38768 0.0
N582 N 0.6232 0.86583 0.39152 0.0
C583 C 0.63162 0.89536 0.39046 0.0
C584 C 0.57711 0.88211 0.39599 0.0
C585 C 0.6087 0.90392 0.39226 0.0
H586 H 0.62608 0.77809 0.40729 0.0
H587 H 0.61544 0.92735 0.3907 0.0
H588 H 0.51908 0.8343 0.406 0.0
H589 H 0.57326 0.7368 0.42007 0.0
H590 H 0.65588 0.91257 0.38749 0.0
H591 H 0.73901 0.79207 0.33015 0.0
H592 H 0.55943 0.88879 0.39748 0.0
H593 H 0.73356 0.9439 0.31663 0.0
H594 H 0.6996 0.80801 0.33391 0.0
H595 H 0.78725 0.98464 0.30521 0.0
H596 H 0.50753 0.78214 0.41432 0.0
H597 H 0.79551 0.82966 0.32462 0.0
H598 H 0.83719 0.88389 0.31799 0.0
H599 H 0.52781 0.74561 0.42021 0.0
H600 H 0.85042 0.93666 0.311 0.0
N601 N 0.73327 0.85444 0.33097 0.0
C602 C 0.72407 0.82481 0.33137 0.0
C603 C 0.77827 0.83686 0.32623 0.0
C604 C 0.78736 0.86721 0.32443 0.0
C605 C 0.7464 0.8156 0.32926 0.0
C606 C 0.76394 0.87531 0.3267 0.0
H607 H 0.83175 0.97442 0.30556 0.0
N608 N 0.7476 0.91104 0.32392 0.0
C609 C 0.78317 0.96231 0.31033 0.0
C610 C 0.77142 0.90477 0.32297 0.0
C611 C 0.75276 0.93915 0.3168 0.0
C612 C 0.80825 0.95648 0.31062 0.0
C613 C 0.80246 0.92729 0.31661 0.0
O614 O 0.68645 0.889 0.30716 0.0
O615 O 0.66047 0.86645 0.355 0.0
O616 O 0.62717 0.8158 0.36842 0.0
O617 O 0.66144 0.82383 0.33952 0.0
O618 O 0.68114 0.90352 0.33299 0.0
O619 O 0.68645 0.84734 0.30896 0.0
O620 O 0.67178 0.83323 0.4155 0.0
O621 O 0.69627 0.85459 0.3673 0.0
O622 O 0.72995 0.90495 0.35474 0.0
O623 O 0.69487 0.89749 0.38288 0.0
O624 O 0.67781 0.81868 0.38991 0.0
O625 O 0.67169 0.87491 0.41303 0.0
C626 C 0.65874 0.88911 0.34748 0.0
C627 C 0.69753 0.87599 0.27527 0.0
C628 C 0.69231 0.87603 0.23705 0.0
C629 C 0.67866 0.86708 0.25799 0.0
C630 C 0.72518 0.89431 0.23386 0.0
C631 C 0.73021 0.89359 0.27158 0.0
C632 C 0.74389 0.90279 0.251 0.0
C633 C 0.63421 0.80762 0.35111 0.0
C634 C 0.68271 0.86729 0.29693 0.0
C635 C 0.82631 0.91966 0.31557 0.0
C636 C 0.81877 0.88962 0.31953 0.0
C637 C 0.69941 0.83284 0.37488 0.0
C638 C 0.66112 0.84724 0.44706 0.0
C639 C 0.67949 0.84942 0.46448 0.0
C640 C 0.66572 0.84141 0.48535 0.0
C641 C 0.6333 0.83122 0.48836 0.0
C642 C 0.62896 0.83719 0.45057 0.0
C643 C 0.61516 0.82916 0.4711 0.0
C644 C 0.72255 0.91327 0.37186 0.0
C645 C 0.6757 0.85532 0.42535 0.0
H646 H 0.65347 0.85292 0.26095 0.0
H647 H 0.73655 0.90232 0.21809 0.0
H648 H 0.74519 0.90039 0.28453 0.0
H649 H 0.76913 0.91669 0.24831 0.0
H650 H 0.70435 0.85711 0.46175 0.0
H651 H 0.622 0.82542 0.50411 0.0
H652 H 0.61453 0.83569 0.43748 0.0
H653 H 0.59031 0.8215 0.47366 0.0
Tb654 Tb 0.17063 0.82801 0.39565 0.0
C655 C 0.12147 0.88708 0.32845 0.0
C656 C 0.06607 0.85122 0.32964 0.0
C657 C 0.084 0.90406 0.31966 0.0
C658 C 0.09742 0.85805 0.33236 0.0
C659 C 0.11529 0.9104 0.32138 0.0
C660 C 0.05939 0.87448 0.32385 0.0
C661 C 0.17137 0.94362 0.31604 0.0
N662 N 0.15126 0.89209 0.3301 0.0
C663 C 0.17624 0.91968 0.32318 0.0
C664 C 0.14075 0.93907 0.31547 0.0
Tb665 Tb 0.1571 0.85173 0.34218 0.0
N666 N 0.10505 0.83632 0.33744 0.0
C667 C 0.08252 0.80695 0.33832 0.0
C668 C 0.04262 0.8212 0.33203 0.0
C669 C 0.05098 0.79896 0.33604 0.0
H670 H 0.19999 0.92344 0.32366 0.0
H671 H 0.03314 0.77565 0.3374 0.0
H672 H 0.03542 0.86974 0.32189 0.0
H673 H 0.19122 0.96555 0.31104 0.0
H674 H 0.08848 0.78944 0.34146 0.0
H675 H 0.29309 0.90647 0.40363 0.0
H676 H 0.01821 0.81496 0.33016 0.0
H677 H 0.12935 0.75546 0.41212 0.0
H678 H 0.23783 0.89131 0.39809 0.0
H679 H 0.13957 0.71407 0.42404 0.0
H680 H 0.07867 0.9217 0.31449 0.0
H681 H 0.30963 0.86829 0.41073 0.0
H682 H 0.29421 0.81386 0.41775 0.0
H683 H 0.13703 0.95762 0.30988 0.0
H684 H 0.25224 0.76122 0.42337 0.0
N685 N 0.22269 0.84469 0.4014 0.0
C686 C 0.24437 0.87422 0.40126 0.0
C687 C 0.28519 0.86143 0.4083 0.0
C688 C 0.26258 0.83119 0.40981 0.0
C689 C 0.27592 0.88302 0.40437 0.0
C690 C 0.23116 0.82352 0.40639 0.0
H691 H 0.19431 0.72378 0.42624 0.0
N692 N 0.17785 0.78823 0.40704 0.0
C693 C 0.15902 0.73647 0.4198 0.0
C694 C 0.20784 0.79413 0.4093 0.0
C695 C 0.15333 0.76 0.41306 0.0
C696 C 0.18995 0.74202 0.42096 0.0
C697 C 0.21484 0.77125 0.41604 0.0
O698 O 0.13981 0.81008 0.42311 0.0
O699 O 0.13939 0.83409 0.3746 0.0
O700 O 0.15997 0.8851 0.36154 0.0
O701 O 0.18432 0.87607 0.39094 0.0
O702 O 0.12021 0.79692 0.39637 0.0
O703 O 0.18138 0.85293 0.42131 0.0
O704 O 0.18823 0.86766 0.31491 0.0
O705 O 0.18801 0.84572 0.36343 0.0
O706 O 0.1691 0.79575 0.37559 0.0
O707 O 0.14276 0.80365 0.34707 0.0
O708 O 0.20802 0.88195 0.34091 0.0
O709 O 0.14424 0.82701 0.31636 0.0
C710 C 0.11362 0.81173 0.38166 0.0
C711 C 0.16335 0.82474 0.45517 0.0
C712 C 0.16039 0.82748 0.49319 0.0
C713 C 0.15413 0.83445 0.47229 0.0
C714 C 0.17542 0.81022 0.49657 0.0
C715 C 0.17859 0.80789 0.45911 0.0
C716 C 0.18443 0.80058 0.47966 0.0
C717 C 0.17457 0.89263 0.3792 0.0
C718 C 0.15722 0.83238 0.43329 0.0
C719 C 0.24628 0.7785 0.41845 0.0
C720 C 0.27016 0.80846 0.41528 0.0
C721 C 0.21399 0.86749 0.35625 0.0
C722 C 0.1648 0.85513 0.28259 0.0
C723 C 0.17842 0.8496 0.26527 0.0
C724 C 0.17387 0.85816 0.24425 0.0
C725 C 0.15618 0.87295 0.24105 0.0
C726 C 0.14684 0.86935 0.27875 0.0
C727 C 0.14278 0.87837 0.25813 0.0
C728 C 0.15391 0.78786 0.35817 0.0
C729 C 0.16942 0.84616 0.30457 0.0
H730 H 0.14269 0.84781 0.46931 0.0
H731 H 0.18008 0.80395 0.51238 0.0
H732 H 0.18598 0.80031 0.44635 0.0
H733 H 0.19605 0.78739 0.48251 0.0
H734 H 0.19193 0.8382 0.26817 0.0
H735 H 0.15276 0.88049 0.22524 0.0
H736 H 0.1359 0.87348 0.29165 0.0
H737 H 0.12909 0.88959 0.25537 0.0
Tb738 Tb 0.83524 0.66884 0.67627 0.0
C739 C 0.90081 0.77057 0.72982 0.0
C740 C 0.95586 0.78525 0.72546 0.0
C741 C 0.94059 0.82185 0.73234 0.0
C742 C 0.92385 0.76348 0.72582 0.0
C743 C 0.90879 0.79965 0.7336 0.0
C744 C 0.96411 0.81466 0.72826 0.0
C745 C 0.85358 0.78191 0.74136 0.0
N746 N 0.8705 0.7484 0.73112 0.0
C747 C 0.84691 0.75337 0.73759 0.0
C748 C 0.88463 0.80526 0.73911 0.0
Tb749 Tb 0.86167 0.70263 0.72395 0.0
N750 N 0.91482 0.7348 0.72334 0.0
C751 C 0.93689 0.72593 0.72198 0.0
C752 C 0.97854 0.77662 0.72284 0.0
C753 C 0.96897 0.74672 0.72139 0.0
H754 H 0.82281 0.73552 0.73922 0.0
H755 H 0.9863 0.73967 0.71974 0.0
H756 H 0.98857 0.83179 0.72781 0.0
H757 H 0.83476 0.78587 0.74597 0.0
H758 H 0.93008 0.70301 0.72071 0.0
H759 H 0.70956 0.62688 0.68065 0.0
H760 H 1.00339 0.79267 0.72237 0.0
H761 H 0.87684 0.63952 0.65905 0.0
H762 H 0.76517 0.66525 0.67981 0.0
H763 H 0.86717 0.5907 0.65045 0.0
H764 H 0.94724 0.84442 0.73499 0.0
H765 H 0.69494 0.57466 0.67721 0.0
H766 H 0.71224 0.53771 0.67041 0.0
H767 H 0.88976 0.82731 0.74212 0.0
H768 H 0.75522 0.52788 0.66189 0.0
N769 N 0.78252 0.63513 0.67667 0.0
C770 C 0.75943 0.64266 0.67826 0.0
C771 C 0.71953 0.59144 0.67687 0.0
C772 C 0.74324 0.58426 0.67379 0.0
C773 C 0.7277 0.6209 0.67875 0.0
C774 C 0.77485 0.60694 0.67362 0.0
H775 H 0.81309 0.5477 0.65395 0.0
N776 N 0.82876 0.62436 0.66791 0.0
C777 C 0.84774 0.59335 0.65575 0.0
C778 C 0.79885 0.60138 0.66892 0.0
C779 C 0.85311 0.62105 0.66065 0.0
C780 C 0.81719 0.56911 0.65779 0.0
C781 C 0.7922 0.57304 0.66416 0.0
O782 O 0.86058 0.68509 0.64673 0.0
O783 O 0.87187 0.70455 0.69096 0.0
O784 O 0.85526 0.7344 0.70152 0.0
O785 O 0.81977 0.70183 0.67993 0.0
O786 O 0.88603 0.68645 0.66983 0.0
O787 O 0.81466 0.68082 0.65073 0.0
O788 O 0.84095 0.69336 0.75479 0.0
O789 O 0.8247 0.66747 0.70929 0.0
O790 O 0.84056 0.63626 0.69813 0.0
O791 O 0.87507 0.66781 0.72075 0.0
O792 O 0.81114 0.68512 0.73122 0.0
O793 O 0.87904 0.68492 0.74821 0.0
C794 C 0.89614 0.70715 0.68182 0.0
C795 C 0.83102 0.6763 0.61703 0.0
C796 C 0.84284 0.68625 0.57891 0.0
C797 C 0.84748 0.69604 0.59888 0.0
C798 C 0.82157 0.65608 0.57737 0.0
C799 C 0.80964 0.64633 0.61531 0.0
C800 C 0.80501 0.6363 0.59551 0.0
C801 C 0.83421 0.72815 0.68705 0.0
C802 C 0.83818 0.68758 0.63747 0.0
C803 C 0.76084 0.54992 0.66528 0.0
C804 C 0.73637 0.55551 0.67014 0.0
C805 C 0.80068 0.66497 0.7188 0.0
C806 C 0.87422 0.69609 0.78224 0.0
C807 C 0.86461 0.67626 0.80102 0.0
C808 C 0.87763 0.68604 0.82013 0.0
C809 C 0.90085 0.71608 0.82005 0.0
C810 C 0.89729 0.72598 0.78241 0.0
C811 C 0.91057 0.73588 0.80126 0.0
C812 C 0.86073 0.64177 0.71309 0.0
C813 C 0.86013 0.68468 0.76272 0.0
H814 H 0.86436 0.71908 0.6004 0.0
H815 H 0.81735 0.64794 0.56215 0.0
H816 H 0.79672 0.63076 0.62916 0.0
H817 H 0.78853 0.61315 0.5942 0.0
H818 H 0.84711 0.65306 0.80068 0.0
H819 H 0.91107 0.7244 0.83454 0.0
H820 H 0.90509 0.74157 0.76809 0.0
H821 H 0.92834 0.759 0.80134 0.0
Tb822 Tb 0.36592 0.20501 0.66915 0.0
C823 C 0.25364 0.1455 0.73353 0.0
C824 C 0.23579 0.18163 0.73309 0.0
C825 C 0.19819 0.12858 0.7407 0.0
C826 C 0.26006 0.17474 0.7305 0.0
C827 C 0.22283 0.12207 0.73929 0.0
C828 C 0.20466 0.15835 0.73756 0.0
C829 C 0.24373 0.08817 0.74407 0.0
N830 N 0.27818 0.14029 0.73228 0.0
C831 C 0.27391 0.11225 0.73837 0.0
C832 C 0.21799 0.09302 0.74422 0.0
Tb833 Tb 0.32653 0.18095 0.72212 0.0
N834 N 0.29049 0.19647 0.7266 0.0
C835 C 0.29856 0.22573 0.72683 0.0
C836 C 0.24374 0.21165 0.73201 0.0
C837 C 0.27533 0.23375 0.72932 0.0
H838 H 0.29369 0.10833 0.73816 0.0
H839 H 0.28182 0.257 0.72897 0.0
H840 H 0.18562 0.16317 0.73937 0.0
H841 H 0.24034 0.0659 0.74832 0.0
H842 H 0.3228 0.24314 0.72455 0.0
H843 H 0.4136 0.13062 0.66534 0.0
H844 H 0.22582 0.21792 0.73391 0.0
H845 H 0.396 0.27631 0.64983 0.0
H846 H 0.37179 0.14339 0.66933 0.0
H847 H 0.44791 0.31888 0.63687 0.0
H848 H 0.17425 0.11087 0.74485 0.0
H849 H 0.46888 0.17063 0.65764 0.0
H850 H 0.50748 0.22556 0.64886 0.0
H851 H 0.19467 0.07436 0.74873 0.0
H852 H 0.5169 0.27709 0.64099 0.0
N853 N 0.40288 0.19048 0.66467 0.0
C854 C 0.39567 0.16124 0.66592 0.0
C855 C 0.45057 0.17644 0.65941 0.0
C856 C 0.45753 0.20626 0.65669 0.0
C857 C 0.41939 0.15381 0.66369 0.0
C858 C 0.43281 0.21254 0.65931 0.0
H859 H 0.49462 0.31207 0.63596 0.0
N860 N 0.41318 0.24576 0.65676 0.0
C861 C 0.44556 0.29722 0.64213 0.0
C862 C 0.43819 0.24133 0.65519 0.0
C863 C 0.41615 0.27301 0.64949 0.0
C864 C 0.47189 0.29331 0.64171 0.0
C865 C 0.46831 0.26496 0.64792 0.0
O866 O 0.35054 0.2198 0.64189 0.0
O867 O 0.32792 0.19846 0.68985 0.0
O868 O 0.29557 0.14887 0.70172 0.0
O869 O 0.33137 0.15624 0.67426 0.0
O870 O 0.34606 0.23497 0.66768 0.0
O871 O 0.35391 0.1798 0.64363 0.0
O872 O 0.33829 0.16307 0.7497 0.0
O873 O 0.3651 0.18836 0.70164 0.0
O874 O 0.39628 0.23957 0.68829 0.0
O875 O 0.36248 0.22921 0.71813 0.0
O876 O 0.3474 0.1517 0.72375 0.0
O877 O 0.33748 0.20434 0.74859 0.0
C878 C 0.32454 0.22028 0.68269 0.0
C879 C 0.36136 0.20714 0.6098 0.0
C880 C 0.35367 0.2076 0.57192 0.0
C881 C 0.34131 0.19863 0.59312 0.0
C882 C 0.38639 0.22526 0.56774 0.0
C883 C 0.39394 0.22439 0.60523 0.0
C884 C 0.40633 0.23347 0.5843 0.0
C885 C 0.30354 0.14022 0.68509 0.0
C886 C 0.34784 0.19834 0.63179 0.0
C887 C 0.49346 0.2592 0.64629 0.0
C888 C 0.48809 0.22986 0.65074 0.0
C889 C 0.36934 0.16719 0.70909 0.0
C890 C 0.32583 0.17443 0.78186 0.0
C891 C 0.34405 0.18023 0.79962 0.0
C892 C 0.32949 0.17025 0.82032 0.0
C893 C 0.2964 0.154 0.82276 0.0
C894 C 0.29298 0.15878 0.78486 0.0
C895 C 0.2784 0.14851 0.80518 0.0
C896 C 0.38919 0.24654 0.7062 0.0
C897 C 0.34131 0.1842 0.76035 0.0
H898 H 0.31611 0.1853 0.59663 0.0
H899 H 0.39664 0.23221 0.55164 0.0
H900 H 0.4098 0.23086 0.61775 0.0
H901 H 0.43151 0.24682 0.58091 0.0
H902 H 0.36946 0.19282 0.79726 0.0
H903 H 0.28428 0.14527 0.8383 0.0
H904 H 0.27855 0.15436 0.77155 0.0
H905 H 0.25299 0.13614 0.80731 0.0
Tb906 Tb 0.83813 0.16277 0.72839 0.0
C907 C 0.78828 0.22141 0.66121 0.0
C908 C 0.73273 0.18582 0.66312 0.0
C909 C 0.75094 0.2386 0.65256 0.0
C910 C 0.76409 0.1925 0.66555 0.0
C911 C 0.7822 0.24476 0.65401 0.0
C912 C 0.7262 0.20915 0.65719 0.0
C913 C 0.83828 0.27761 0.64806 0.0
N914 N 0.81804 0.22625 0.66265 0.0
C915 C 0.84305 0.25366 0.65535 0.0
C916 C 0.80773 0.27327 0.64772 0.0
Tb917 Tb 0.82369 0.18587 0.67503 0.0
N918 N 0.77157 0.17069 0.67078 0.0
C919 C 0.7488 0.14133 0.67209 0.0
C920 C 0.70909 0.15587 0.66597 0.0
C921 C 0.71724 0.13351 0.67012 0.0
H922 H 0.86675 0.25729 0.65559 0.0
H923 H 0.69924 0.11024 0.67183 0.0
H924 H 0.70223 0.20453 0.65544 0.0
H925 H 0.85816 0.2994 0.64276 0.0
H926 H 0.7546 0.12373 0.67534 0.0
H927 H 0.96015 0.24243 0.73653 0.0
H928 H 0.68467 0.14976 0.66434 0.0
H929 H 0.79787 0.08979 0.74367 0.0
H930 H 0.90474 0.22659 0.73102 0.0
H931 H 0.80907 0.04873 0.75453 0.0
H932 H 0.7457 0.25628 0.6473 0.0
H933 H 0.97749 0.20481 0.74337 0.0
H934 H 0.963 0.15059 0.74985 0.0
H935 H 0.80409 0.29183 0.64202 0.0
H936 H 0.92175 0.09766 0.75474 0.0
N937 N 0.89028 0.18012 0.73416 0.0
C938 C 0.91162 0.20973 0.73408 0.0
C939 C 0.95298 0.19764 0.74098 0.0
C940 C 0.93075 0.16731 0.74231 0.0
C941 C 0.94326 0.21891 0.73718 0.0
C942 C 0.8992 0.15923 0.73895 0.0
H943 H 0.86412 0.05942 0.75687 0.0
N944 N 0.84614 0.12331 0.73923 0.0
C945 C 0.82823 0.0714 0.7508 0.0
C946 C 0.87627 0.12968 0.74153 0.0
C947 C 0.82197 0.09473 0.74469 0.0
C948 C 0.85933 0.0775 0.75204 0.0
C949 C 0.88382 0.10703 0.74776 0.0
O950 O 0.80769 0.14403 0.756 0.0
O951 O 0.8065 0.16858 0.70759 0.0
O952 O 0.82714 0.21975 0.69409 0.0
O953 O 0.85125 0.21068 0.72368 0.0
O954 O 0.78771 0.1315 0.72941 0.0
O955 O 0.84842 0.18754 0.7541 0.0
O956 O 0.85512 0.20029 0.64806 0.0
O957 O 0.85512 0.18038 0.69611 0.0
O958 O 0.83729 0.13116 0.70804 0.0
O959 O 0.80894 0.13767 0.6804 0.0
O960 O 0.87448 0.2166 0.67352 0.0
O961 O 0.80973 0.16144 0.64901 0.0
C962 C 0.78081 0.14629 0.71487 0.0
C963 C 0.83123 0.15919 0.78797 0.0
C964 C 0.82837 0.1619 0.826 0.0
C965 C 0.82178 0.16863 0.80514 0.0
C966 C 0.84402 0.14519 0.82928 0.0
C967 C 0.84703 0.14283 0.7918 0.0
C968 C 0.85325 0.1358 0.81232 0.0
C969 C 0.8417 0.22729 0.71178 0.0
C970 C 0.82465 0.16652 0.76616 0.0
C971 C 0.91537 0.11473 0.75019 0.0
C972 C 0.93884 0.14486 0.74743 0.0
C973 C 0.88086 0.20247 0.68886 0.0
C974 C 0.83242 0.18944 0.61539 0.0
C975 C 0.8461 0.18353 0.5983 0.0
C976 C 0.84391 0.19387 0.57714 0.0
C977 C 0.82839 0.21073 0.57368 0.0
C978 C 0.81642 0.20552 0.61122 0.0
C979 C 0.81464 0.21625 0.59053 0.0
C980 C 0.82087 0.1224 0.69123 0.0
C981 C 0.8356 0.17951 0.6375 0.0
H982 H 0.80988 0.18157 0.80223 0.0
H983 H 0.84896 0.13913 0.84506 0.0
H984 H 0.85452 0.1354 0.77898 0.0
H985 H 0.8653 0.123 0.81509 0.0
H986 H 0.85798 0.17063 0.60151 0.0
H987 H 0.82697 0.21995 0.55788 0.0
H988 H 0.8054 0.20995 0.62392 0.0
H989 H 0.8026 0.22903 0.58753 0.0
H990 H 0.26775 0.8669 0.08456 0.0
H991 H 0.31501 0.81681 0.10166 0.0
H992 H 0.31809 0.91121 0.07255 0.0
H993 H 0.36592 0.8613 0.09098 0.0
H994 H 0.45117 0.93725 0.05231 0.0
H995 H 0.4004 0.89309 0.06325 0.0
H996 H 0.36451 0.94983 0.08068 0.0
H997 H 0.41446 0.99366 0.06817 0.0
C998 C 0.28921 0.8658 0.0863 0.0
C999 C 0.28771 0.83875 0.0943 0.0
C1000 C 0.31822 0.89118 0.07943 0.0
C1001 C 0.34664 0.89029 0.08066 0.0
C1002 C 0.34486 0.86309 0.08926 0.0
C1003 C 0.31576 0.83763 0.09576 0.0
C1004 C 0.43214 0.94022 0.05796 0.0
C1005 C 0.43655 0.96904 0.05867 0.0
C1006 C 0.40302 0.9148 0.06469 0.0
C1007 C 0.37777 0.91744 0.07297 0.0
C1008 C 0.3827 0.94646 0.07399 0.0
C1009 C 0.41156 0.97176 0.06693 0.0
H1010 H 0.22545 0.552 0.06394 0.0
H1011 H 0.16989 0.46362 0.09779 0.0
H1012 H 0.17888 0.54768 0.04693 0.0
H1013 H 0.12268 0.46016 0.08291 0.0
H1014 H 0.04269 0.45216 0.04627 0.0
H1015 H 0.0928 0.45452 0.05409 0.0
H1016 H 0.13452 0.54966 0.05609 0.0
H1017 H 0.08562 0.54714 0.04736 0.0
C1018 C 0.20307 0.53181 0.0678 0.0
C1019 C 0.20084 0.5083 0.08223 0.0
C1020 C 0.17638 0.52932 0.05829 0.0
C1021 C 0.14687 0.50362 0.06364 0.0
C1022 C 0.14495 0.48004 0.07805 0.0
C1023 C 0.17178 0.48223 0.087 0.0
C1024 C 0.06298 0.47354 0.04794 0.0
C1025 C 0.06073 0.49963 0.04543 0.0
C1026 C 0.09155 0.47496 0.05257 0.0
C1027 C 0.11785 0.50234 0.0557 0.0
C1028 C 0.11528 0.52835 0.05312 0.0
C1029 C 0.08707 0.52696 0.04804 0.0
H1030 H 0.562 0.74364 0.05708 0.0
H1031 H 0.51874 0.6967 0.11864 0.0
H1032 H 0.55083 0.6964 0.04493 0.0
H1033 H 0.50896 0.64961 0.10687 0.0
H1034 H 0.53654 0.58258 0.08192 0.0
H1035 H 0.54511 0.62896 0.09393 0.0
H1036 H 0.50003 0.64547 0.04006 0.0
H1037 H 0.49011 0.59855 0.02848 0.0
C1038 C 0.54988 0.72317 0.06794 0.0
C1039 C 0.54121 0.72382 0.08879 0.0
C1040 C 0.54364 0.6962 0.06104 0.0
C1041 C 0.52917 0.66938 0.075 0.0
C1042 C 0.52046 0.67 0.09585 0.0
C1043 C 0.52611 0.69689 0.1026 0.0
C1044 C 0.52836 0.59598 0.0726 0.0
C1045 C 0.51313 0.58693 0.05392 0.0
C1046 C 0.53322 0.62253 0.07955 0.0
C1047 C 0.52344 0.6409 0.06785 0.0
C1048 C 0.50821 0.63194 0.04924 0.0
C1049 C 0.50275 0.6051 0.04252 0.0
H1050 H 0.79678 0.31899 0.98185 0.0
H1051 H 0.86833 0.29333 0.98175 0.0
H1052 H 0.83465 0.36721 0.9927 0.0
H1053 H 0.90631 0.34122 0.99267 0.0
H1054 H 0.97483 0.44136 0.98971 0.0
H1055 H 0.9362 0.39343 0.97945 0.0
H1056 H 0.86524 0.39149 0.02106 0.0
H1057 H 0.90357 0.43981 0.03076 0.0
C1058 C 0.82056 0.32361 0.98441 0.0
C1059 C 0.82967 0.30252 0.98086 0.0
C1060 C 0.84233 0.35122 0.99063 0.0
C1061 C 0.87381 0.35843 0.99344 0.0
C1062 C 0.88258 0.3369 0.99026 0.0
C1063 C 0.86082 0.30936 0.98409 0.0
C1064 C 0.951 0.43079 0.99667 0.0
C1065 C 0.94259 0.44449 1.01131 0.0
C1066 C 0.9288 0.40307 0.99089 0.0
C1067 C 0.89745 0.38823 0.9995 0.0
C1068 C 0.88898 0.40216 0.01394 0.0
C1069 C 0.91118 0.42985 0.01972 0.0
H1070 H 0.74098 0.56904 1.01234 0.0
H1071 H 0.68444 0.49983 0.97472 0.0
H1072 H 0.69346 0.56509 0.02863 0.0
H1073 H 0.63676 0.49625 0.99037 0.0
H1074 H 0.55538 0.48423 0.02823 0.0
H1075 H 0.60381 0.483 0.0232 0.0
H1076 H 0.65548 0.57953 1.01344 0.0
H1077 H 0.60667 0.58061 0.01953 0.0
C1078 C 0.7182 0.55259 1.00795 0.0
C1079 C 0.71589 0.53464 0.99244 0.0
C1080 C 0.69117 0.55048 0.01708 0.0
C1081 C 0.66155 0.53044 1.01071 0.0
C1082 C 0.6593 0.5116 0.99579 0.0
C1083 C 0.68637 0.51373 0.98671 0.0
C1084 C 0.57707 0.50515 0.02584 0.0
C1085 C 0.57742 0.53254 0.02475 0.0
C1086 C 0.60481 0.50444 0.02269 0.0
C1087 C 0.6333 0.53113 0.01786 0.0
C1088 C 0.63386 0.55859 0.01746 0.0
C1089 C 0.60603 0.55926 0.02076 0.0
H1090 H 0.51479 0.22592 0.96059 0.0
H1091 H 0.41627 0.17067 0.97906 0.0
H1092 H 0.52398 0.1844 0.97323 0.0
H1093 H 0.42499 0.12881 0.99176 0.0
H1094 H 0.45156 0.05386 0.99712 0.0
H1095 H 0.44131 0.09324 0.98118 0.0
H1096 H 0.52291 0.15873 1.00866 0.0
H1097 H 0.5334 0.11953 0.02441 0.0
C1098 C 0.49506 0.20456 0.96699 0.0
C1099 C 0.46488 0.20125 0.96887 0.0
C1100 C 0.50027 0.18092 0.97443 0.0
C1101 C 0.47528 0.15337 0.98379 0.0
C1102 C 0.44473 0.14965 0.98457 0.0
C1103 C 0.43963 0.17345 0.97725 0.0
C1104 C 0.4673 0.07664 0.99983 0.0
C1105 C 0.49326 0.08344 1.01215 0.0
C1106 C 0.46134 0.09921 0.99072 0.0
C1107 C 0.48138 0.12918 0.99351 0.0
C1108 C 0.50724 0.13594 1.00592 0.0
C1109 C 0.51307 0.11338 0.01516 0.0
H1110 H 0.70812 0.22189 0.96654 0.0
H1111 H 0.75963 0.17626 0.98479 0.0
H1112 H 0.65846 0.17573 0.97662 0.0
H1113 H 0.71044 0.13026 0.99625 0.0
H1114 H 0.6168 0.04452 0.99944 0.0
H1115 H 0.66574 0.09006 0.98737 0.0
H1116 H 0.624 0.14264 1.00367 0.0
H1117 H 0.57463 0.09702 0.01407 0.0
C1118 C 0.70859 0.20176 0.97273 0.0
C1119 C 0.73746 0.20235 0.97467 0.0
C1120 C 0.68018 0.17529 0.97882 0.0
C1121 C 0.67992 0.14879 0.98747 0.0
C1122 C 0.70919 0.1497 0.98932 0.0
C1123 C 0.73753 0.17608 0.98285 0.0
C1124 C 0.61822 0.06588 1.00045 0.0
C1125 C 0.59204 0.06703 1.00837 0.0
C1126 C 0.64646 0.09216 0.99368 0.0
C1127 C 0.64947 0.12054 0.99461 0.0
C1128 C 0.62294 0.12152 1.00233 0.0
C1129 C 0.59455 0.09519 1.00876 0.0
H1130 H 0.83373 0.58825 1.00036 0.0
H1131 H 0.82172 0.52498 0.95798 0.0
H1132 H 0.88329 0.59091 1.01074 0.0
H1133 H 0.8714 0.52758 0.9681 0.0
H1134 H 0.93247 0.5082 0.014 0.0
H1135 H 0.88552 0.50999 1.00364 0.0
H1136 H 0.93842 0.60643 0.99454 0.0
H1137 H 0.98567 0.60457 1.00526 0.0
C1138 C 0.8422 0.57535 0.9931 0.0
C1139 C 0.82435 0.55625 0.97861 0.0
C1140 C 0.87035 0.57688 0.99893 0.0
C1141 C 0.88072 0.55914 0.99039 0.0
C1142 C 0.8635 0.54111 0.9751 0.0
C1143 C 0.83547 0.53981 0.96916 0.0
C1144 C 0.93394 0.52974 1.01033 0.0
C1145 C 0.96241 0.55628 1.01082 0.0
C1146 C 0.90722 0.53077 1.00408 0.0
C1147 C 0.90864 0.55834 0.99808 0.0
C1148 C 0.93687 0.58493 0.99914 0.0
C1149 C 0.96372 0.58388 1.00527 0.0
H1150 H 0.44674 0.27341 1.00964 0.0
H1151 H 0.4859 0.32507 0.94862 0.0
H1152 H 0.45375 0.31828 0.02372 0.0
H1153 H 0.49175 0.36971 0.96236 0.0
H1154 H 0.45911 0.43036 0.99007 0.0
H1155 H 0.45342 0.38572 0.97684 0.0
H1156 H 0.50057 0.37019 0.02983 0.0
H1157 H 0.50739 0.41539 0.04275 0.0
C1158 C 0.45707 0.29444 0.99933 0.0
C1159 C 0.46585 0.29586 0.97808 0.0
C1160 C 0.46096 0.32004 1.00732 0.0
C1161 C 0.47316 0.34743 0.99409 0.0
C1162 C 0.48196 0.34882 0.97284 0.0
C1163 C 0.47858 0.32335 0.96498 0.0
C1164 C 0.46829 0.4175 0.99898 0.0
C1165 C 0.48333 0.42638 0.01772 0.0
C1166 C 0.46508 0.39196 0.99132 0.0
C1167 C 0.47645 0.37444 1.00234 0.0
C1168 C 0.49124 0.38308 0.02114 0.0
C1169 C 0.49497 0.40893 0.02861 0.0
H1170 H 0.22418 0.72357 0.08295 0.0
H1171 H 0.15683 0.75451 0.08217 0.0
H1172 H 0.18554 0.67775 0.06952 0.0
H1173 H 0.11811 0.70904 0.06866 0.0
H1174 H 0.04581 0.61046 0.06769 0.0
H1175 H 0.08522 0.65646 0.07994 0.0
H1176 H 0.15668 0.65756 0.03932 0.0
H1177 H 0.11746 0.61106 0.02759 0.0
C1178 C 0.20117 0.72062 0.07966 0.0
C1179 C 0.19339 0.74243 0.08371 0.0
C1180 C 0.17899 0.69442 0.07195 0.0
C1181 C 0.14845 0.68941 0.06811 0.0
C1182 C 0.14106 0.71169 0.0718 0.0
C1183 C 0.16324 0.73783 0.07946 0.0
C1184 C 0.0699 0.62047 0.06133 0.0
C1185 C 0.07824 0.60705 0.04643 0.0
C1186 C 0.09256 0.64707 0.06827 0.0
C1187 C 0.12428 0.66102 0.06058 0.0
C1188 C 0.13262 0.64748 0.04575 0.0
C1189 C 0.10996 0.6209 0.0388 0.0
H1190 H 0.25886 0.45524 0.0709 0.0
H1191 H 0.32417 0.52242 0.10681 0.0
H1192 H 0.30154 0.44872 0.05674 0.0
H1193 H 0.36695 0.51583 0.0931 0.0
H1194 H 0.43927 0.52721 0.04494 0.0
H1195 H 0.39287 0.52884 0.05633 0.0
H1196 H 0.34124 0.43246 0.0683 0.0
H1197 H 0.38796 0.43084 0.05626 0.0
C1198 C 0.28239 0.46817 0.07594 0.0
C1199 C 0.28884 0.48964 0.08953 0.0
C1200 C 0.30664 0.46448 0.06794 0.0
C1201 C 0.3375 0.48228 0.0735 0.0
C1202 C 0.34341 0.50238 0.0882 0.0
C1203 C 0.31912 0.50593 0.09623 0.0
C1204 C 0.41787 0.50635 0.04929 0.0
C1205 C 0.41707 0.47888 0.04955 0.0
C1206 C 0.3914 0.5073 0.05613 0.0
C1207 C 0.36382 0.48079 0.06361 0.0
C1208 C 0.36233 0.45319 0.06264 0.0
C1209 C 0.38891 0.45227 0.05576 0.0
H1210 H 0.53645 0.82635 0.12201 0.0
H1211 H 0.57608 0.83262 0.06001 0.0
H1212 H 0.53266 0.87149 0.11058 0.0
H1213 H 0.57067 0.87654 0.04828 0.0
H1214 H 0.50253 0.91723 0.03427 0.0
H1215 H 0.51341 0.87747 0.04759 0.0
H1216 H 0.57489 0.9324 0.09176 0.0
H1217 H 0.56544 0.97328 0.07764 0.0
C1218 C 0.54478 0.83763 0.10608 0.0
C1219 C 0.55621 0.82581 0.0918 0.0
C1220 C 0.54249 0.86331 0.09953 0.0
C1221 C 0.55114 0.87725 0.07851 0.0
C1222 C 0.5636 0.86604 0.0645 0.0
C1223 C 0.5665 0.84086 0.07116 0.0
C1224 C 0.51892 0.92132 0.04646 0.0
C1225 C 0.53365 0.94891 0.05444 0.0
C1226 C 0.52493 0.89834 0.05422 0.0
C1227 C 0.54508 0.90197 0.0706 0.0
C1228 C 0.55927 0.92912 0.07908 0.0
C1229 C 0.55387 0.9525 0.07093 0.0
H1230 H 0.9339 0.19377 0.40319 0.0
H1231 H 0.98096 0.16109 0.44633 0.0
H1232 H 0.98439 0.23822 0.39082 0.0
H1233 H 0.03185 0.20538 0.43393 0.0
H1234 H 0.11861 0.27151 0.38777 0.0
H1235 H 0.06781 0.22731 0.3999 0.0
H1236 H 0.0268 0.28393 0.4045 0.0
H1237 H 0.07746 0.32789 0.39251 0.0
C1238 C 0.95513 0.19657 0.4103 0.0
C1239 C 0.95364 0.17449 0.42597 0.0
C1240 C 0.98403 0.22184 0.40318 0.0
C1241 C 0.01227 0.22536 0.41129 0.0
C1242 C 0.01063 0.20328 0.42719 0.0
C1243 C 0.98158 0.17819 0.43453 0.0
C1244 C 0.09861 0.27441 0.39105 0.0
C1245 C 0.10185 0.30314 0.38877 0.0
C1246 C 0.06959 0.24914 0.39825 0.0
C1247 C 0.04316 0.25203 0.40324 0.0
C1248 C 0.04649 0.2808 0.40065 0.0
C1249 C 0.07551 0.30599 0.39378 0.0
H1250 H 0.83827 0.79943 0.4314 0.0
H1251 H 0.89465 0.88749 0.39727 0.0
H1252 H 0.79151 0.79596 0.41583 0.0
H1253 H 0.84853 0.88312 0.37956 0.0
H1254 H 0.755 0.88247 0.37842 0.0
H1255 H 0.80396 0.88529 0.38747 0.0
H1256 H 0.76232 0.78989 0.38677 0.0
H1257 H 0.71216 0.78721 0.37881 0.0
C1258 C 0.84045 0.81798 0.42039 0.0
C1259 C 0.8696 0.84396 0.41575 0.0
C1260 C 0.81388 0.81577 0.41104 0.0
C1261 C 0.81613 0.83921 0.39631 0.0
C1262 C 0.84575 0.86486 0.39112 0.0
C1263 C 0.87219 0.86737 0.40105 0.0
C1264 C 0.75645 0.86226 0.37954 0.0
C1265 C 0.73007 0.83473 0.37738 0.0
C1266 C 0.78473 0.86383 0.38475 0.0
C1267 C 0.7873 0.83783 0.38788 0.0
C1268 C 0.76106 0.81032 0.38492 0.0
C1269 C 0.73244 0.80871 0.3802 0.0
H1270 H 0.18506 0.03085 0.45069 0.0
H1271 H 0.22965 0.07819 0.38947 0.0
H1272 H 0.17558 0.98387 0.43891 0.0
H1273 H 0.21866 0.03098 0.37728 0.0
H1274 H 0.15698 0.93259 0.36103 0.0
H1275 H 0.1671 0.97966 0.37241 0.0
H1276 H 0.2128 0.96366 0.42609 0.0
H1277 H 0.2041 0.91714 0.41423 0.0
C1278 C 0.19281 0.03117 0.43472 0.0
C1279 C 0.20825 0.0582 0.42103 0.0
C1280 C 0.1873 1.00432 0.42797 0.0
C1281 C 0.19646 1.00382 0.40721 0.0
C1282 C 0.21119 0.03071 0.39333 0.0
C1283 C 0.2173 0.05766 0.40024 0.0
C1284 C 0.16982 0.93928 0.37497 0.0
C1285 C 0.18031 0.92119 0.38636 0.0
C1286 C 0.1754 0.96622 0.38157 0.0
C1287 C 0.19083 0.97536 0.40008 0.0
C1288 C 0.20077 0.95709 0.41177 0.0
C1289 C 0.19582 0.93046 0.40491 0.0
H1290 H 0.50002 0.61949 0.34374 0.0
H1291 H 0.49653 0.66568 0.28403 0.0
H1292 H 0.53839 0.66741 0.35487 0.0
H1293 H 0.5364 0.71326 0.29459 0.0
H1294 H 0.63765 0.78184 0.31638 0.0
H1295 H 0.59809 0.73433 0.30558 0.0
H1296 H 0.5371 0.71959 0.35978 0.0
H1297 H 0.57549 0.76764 0.36992 0.0
C1298 C 0.50728 0.63984 0.33305 0.0
C1299 C 0.49521 0.6387 0.31297 0.0
C1300 C 0.52943 0.66723 0.33935 0.0
C1301 C 0.54061 0.69404 0.32551 0.0
C1302 C 0.52853 0.69294 0.30548 0.0
C1303 C 0.5058 0.66569 0.29941 0.0
C1304 C 0.61583 0.76859 0.32603 0.0
C1305 C 0.61027 0.77856 0.34438 0.0
C1306 C 0.59316 0.74135 0.31979 0.0
C1307 C 0.56465 0.72309 0.33197 0.0
C1308 C 0.55904 0.73295 0.35026 0.0
C1309 C 0.58128 0.76049 0.35616 0.0
H1310 H 0.3513 0.83375 0.30565 0.0
H1311 H 0.40702 0.90282 0.34361 0.0
H1312 H 0.3034 0.83078 0.32036 0.0
H1313 H 0.35924 0.89946 0.35897 0.0
H1314 H 0.27256 0.91481 0.35006 0.0
H1315 H 0.32141 0.91393 0.3434 0.0
H1316 H 0.27 0.8174 0.35294 0.0
H1317 H 0.22158 0.81843 0.35853 0.0
C1318 C 0.35298 0.84779 0.31749 0.0
C1319 C 0.38235 0.86843 0.32363 0.0
C1320 C 0.3258 0.84602 0.32602 0.0
C1321 C 0.32775 0.86494 0.3408 0.0
C1322 C 0.35719 0.88482 0.3475 0.0
C1323 C 0.38435 0.88656 0.33892 0.0
C1324 C 0.272 0.89351 0.35106 0.0
C1325 C 0.24351 0.86672 0.35532 0.0
C1326 C 0.29983 0.89296 0.34744 0.0
C1327 C 0.29936 0.86555 0.34772 0.0
C1328 C 0.27095 0.8388 0.35255 0.0
C1329 C 0.24321 0.8394 0.35604 0.0
H1330 H 0.10116 0.52133 0.33543 0.0
H1331 H 0.14781 0.53479 0.27457 0.0
H1332 H 0.11163 0.48043 0.34716 0.0
H1333 H 0.1569 0.49261 0.28597 0.0
H1334 H 0.12738 0.38998 0.32056 0.0
H1335 H 0.11458 0.42826 0.30563 0.0
H1336 H 0.17593 0.48802 0.34753 0.0
H1337 H 0.19018 0.45068 0.3617 0.0
C1338 C 0.1132 0.51515 0.32447 0.0
C1339 C 0.124 0.5314 0.3042 0.0
C1340 C 0.11911 0.49178 0.33115 0.0
C1341 C 0.13524 0.48362 0.3175 0.0
C1342 C 0.14436 0.49854 0.29675 0.0
C1343 C 0.13896 0.52244 0.29017 0.0
C1344 C 0.1383 0.41129 0.32658 0.0
C1345 C 0.15934 0.41689 0.34277 0.0
C1346 C 0.13099 0.43318 0.31795 0.0
C1347 C 0.14413 0.46089 0.32556 0.0
C1348 C 0.1653 0.46667 0.34154 0.0
C1349 C 0.17318 0.44511 0.34981 0.0
H1350 H 0.42339 0.52097 0.336 0.0
H1351 H 0.37774 0.54482 0.28596 0.0
H1352 H 0.37402 0.4743 0.34702 0.0
H1353 H 0.32801 0.49851 0.29717 0.0
H1354 H 0.23964 0.43039 0.34313 0.0
H1355 H 0.28906 0.47655 0.33203 0.0
H1356 H 0.3369 0.42549 0.32952 0.0
H1357 H 0.28727 0.37924 0.34024 0.0
C1358 C 0.40271 0.51603 0.32735 0.0
C1359 C 0.40425 0.53625 0.3101 0.0
C1360 C 0.37453 0.48942 0.3336 0.0
C1361 C 0.34707 0.48276 0.32301 0.0
C1362 C 0.34869 0.5031 0.30573 0.0
C1363 C 0.37709 0.52941 0.2992 0.0
C1364 C 0.26073 0.42902 0.34043 0.0
C1365 C 0.2597 0.4012 0.34306 0.0
C1366 C 0.28899 0.45545 0.33387 0.0
C1367 C 0.31693 0.45469 0.32995 0.0
C1368 C 0.31585 0.42685 0.33258 0.0
C1369 C 0.28747 0.4004 0.33868 0.0
H1370 H 0.49962 0.92023 0.33359 0.0
H1371 H 0.48817 0.85647 0.29179 0.0
H1372 H 0.5489 0.92279 0.34458 0.0
H1373 H 0.53757 0.85895 0.30252 0.0
H1374 H 0.59983 0.84124 0.34826 0.0
H1375 H 0.55228 0.84215 0.33816 0.0
H1376 H 0.60399 0.93862 0.3283 0.0
H1377 H 0.65179 0.93766 0.33869 0.0
C1378 C 0.50811 0.90712 0.32663 0.0
C1379 C 0.49054 0.88801 0.31208 0.0
C1380 C 0.53609 0.9086 0.33281 0.0
C1381 C 0.54659 0.89077 0.32456 0.0
C1382 C 0.52956 0.87255 0.30931 0.0
C1383 C 0.50171 0.87131 0.30302 0.0
C1384 C 0.6009 0.86261 0.34445 0.0
C1385 C 0.62921 0.88942 0.34458 0.0
C1386 C 0.57383 0.86312 0.33839 0.0
C1387 C 0.57476 0.89045 0.33226 0.0
C1388 C 0.60282 0.9173 0.33303 0.0
C1389 C 0.62999 0.91677 0.33895 0.0
H1390 H 0.10998 0.60683 0.34177 0.0
H1391 H 0.15279 0.65882 0.28135 0.0
H1392 H 0.11776 0.65196 0.35577 0.0
H1393 H 0.15904 0.7037 0.29498 0.0
H1394 H 0.12432 0.7638 0.32313 0.0
H1395 H 0.11862 0.7193 0.30962 0.0
H1396 H 0.16757 0.70438 0.36166 0.0
H1397 H 0.1747 0.74962 0.37473 0.0
C1398 C 0.12123 0.62796 0.33155 0.0
C1399 C 0.13079 0.62935 0.31048 0.0
C1400 C 0.12552 0.6537 0.33951 0.0
C1401 C 0.13886 0.68124 0.32642 0.0
C1402 C 0.1484 0.68267 0.30534 0.0
C1403 C 0.14473 0.65704 0.29752 0.0
C1404 C 0.13392 0.75113 0.33177 0.0
C1405 C 0.14952 0.76017 0.35032 0.0
C1406 C 0.1307 0.72568 0.32395 0.0
C1407 C 0.14252 0.70836 0.33466 0.0
C1408 C 0.15792 0.71716 0.35324 0.0
C1409 C 0.16176 0.74299 0.36081 0.0
H1410 H 0.86149 0.09715 0.38776 0.0
H1411 H 0.85689 0.0448 0.44664 0.0
H1412 H 0.82332 0.05147 0.37386 0.0
H1413 H 0.81725 0.99945 0.43325 0.0
H1414 H 0.71776 0.93783 0.40677 0.0
H1415 H 0.75776 0.98311 0.41978 0.0
H1416 H 0.822 0.99838 0.36744 0.0
H1417 H 0.78286 0.95226 0.35502 0.0
C1418 C 0.85253 0.07589 0.39766 0.0
C1419 C 0.86224 0.07463 0.41832 0.0
C1420 C 0.83053 0.0498 0.38977 0.0
C1421 C 0.81717 0.02196 0.40254 0.0
C1422 C 0.82691 0.02064 0.42314 0.0
C1423 C 0.84949 0.04659 0.43082 0.0
C1424 C 0.74035 0.95072 0.39795 0.0
C1425 C 0.74666 0.94145 0.37948 0.0
C1426 C 0.76328 0.97667 0.40548 0.0
C1427 C 0.79288 0.99438 0.39453 0.0
C1428 C 0.79923 0.98537 0.37604 0.0
C1429 C 0.77661 0.959 0.36882 0.0
H1430 H 0.92656 0.78959 0.40604 0.0
H1431 H 0.99192 0.85698 0.44179 0.0
H1432 H 0.96908 0.78246 0.39236 0.0
H1433 H 0.03455 0.84982 0.42852 0.0
H1434 H 0.1063 0.86093 0.37949 0.0
H1435 H 0.06012 0.86254 0.39145 0.0
H1436 H 0.009 0.76622 0.40433 0.0
H1437 H 0.05553 0.76461 0.39179 0.0
C1438 C 0.95006 0.80239 0.41118 0.0
C1439 C 0.95658 0.82412 0.42456 0.0
C1440 C 0.97421 0.79836 0.40345 0.0
C1441 C 0.00506 0.81609 0.40906 0.0
C1442 C 0.01102 0.83639 0.42361 0.0
C1443 C 0.98682 0.84028 0.43137 0.0
C1444 C 0.08506 0.84007 0.38421 0.0
C1445 C 0.08434 0.81262 0.38452 0.0
C1446 C 0.05873 0.84101 0.39138 0.0
C1447 C 0.03135 0.81452 0.3992 0.0
C1448 C 0.02995 0.78693 0.39841 0.0
C1449 C 0.05641 0.78601 0.39123 0.0
H1450 H 0.24361 0.16804 0.39336 0.0
H1451 H 0.20144 0.15903 0.45505 0.0
H1452 H 0.23831 0.21219 0.38224 0.0
H1453 H 0.19774 0.20435 0.44427 0.0
H1454 H 0.23163 0.30764 0.41163 0.0
H1455 H 0.24138 0.26683 0.42572 0.0
H1456 H 0.17927 0.21149 0.38199 0.0
H1457 H 0.1681 0.25102 0.36878 0.0
C1458 C 0.23353 0.17573 0.40459 0.0
C1459 C 0.22255 0.15988 0.42496 0.0
C1460 C 0.23073 0.20107 0.3983 0.0
C1461 C 0.21762 0.21159 0.41242 0.0
C1462 C 0.20816 0.19677 0.43317 0.0
C1463 C 0.21039 0.17097 0.43934 0.0
C1464 C 0.21998 0.28676 0.40505 0.0
C1465 C 0.19958 0.28301 0.38866 0.0
C1466 C 0.22555 0.26344 0.41316 0.0
C1467 C 0.21132 0.23622 0.40474 0.0
C1468 C 0.19085 0.23241 0.38855 0.0
C1469 C 0.18471 0.25529 0.38085 0.0
H1470 H 0.6021 0.52707 0.73616 0.0
H1471 H 0.64818 0.49505 0.78072 0.0
H1472 H 0.6527 0.57184 0.72442 0.0
H1473 H 0.69917 0.53958 0.76885 0.0
H1474 H 0.78648 0.60596 0.72239 0.0
H1475 H 0.73568 0.56154 0.7342 0.0
H1476 H 0.6945 0.61781 0.73979 0.0
H1477 H 0.74525 0.66205 0.72825 0.0
C1478 C 0.62313 0.53001 0.74365 0.0
C1479 C 0.62134 0.50803 0.75955 0.0
C1480 C 0.65207 0.55548 0.7369 0.0
C1481 C 0.68005 0.55925 0.74561 0.0
C1482 C 0.67814 0.53725 0.76169 0.0
C1483 C 0.64902 0.51201 0.76869 0.0
C1484 C 0.76647 0.60877 0.72586 0.0
C1485 C 0.76967 0.63747 0.72396 0.0
C1486 C 0.73745 0.58336 0.73286 0.0
C1487 C 0.71098 0.5861 0.73797 0.0
C1488 C 0.71428 0.61484 0.73585 0.0
C1489 C 0.74333 0.64018 0.72924 0.0
H1490 H 0.54459 0.2201 0.76262 0.0
H1491 H 0.53345 0.14596 0.73194 0.0
H1492 H 0.49766 0.21703 0.74676 0.0
H1493 H 0.48721 0.14329 0.7153 0.0
H1494 H 0.38271 0.12265 0.71974 0.0
H1495 H 0.43365 0.12787 0.72885 0.0
H1496 H 0.47668 0.22371 0.71339 0.0
H1497 H 0.4261 0.21849 0.70552 0.0
C1498 C 0.53231 0.20364 0.75207 0.0
C1499 C 0.54226 0.18339 0.74827 0.0
C1500 C 0.50571 0.2019 0.74291 0.0
C1501 C 0.48885 0.17987 0.7298 0.0
C1502 C 0.49961 0.16027 0.72548 0.0
C1503 C 0.5261 0.16198 0.73473 0.0
C1504 C 0.40324 0.14471 0.71804 0.0
C1505 C 0.40054 0.1701 0.71157 0.0
C1506 C 0.43235 0.14773 0.72308 0.0
C1507 C 0.45905 0.17625 0.72186 0.0
C1508 C 0.45643 0.2015 0.7147 0.0
C1509 C 0.42739 0.19846 0.7099 0.0
H1510 H 0.89786 0.41315 0.72177 0.0
H1511 H 0.85435 0.36626 0.7833 0.0
H1512 H 0.88624 0.36579 0.70958 0.0
H1513 H 0.84411 0.31908 0.77149 0.0
H1514 H 0.87086 0.25153 0.74694 0.0
H1515 H 0.87996 0.29817 0.75872 0.0
H1516 H 0.83538 0.31494 0.70464 0.0
H1517 H 0.825 0.26777 0.69326 0.0
C1518 C 0.8856 0.39267 0.73262 0.0
C1519 C 0.87705 0.39338 0.75349 0.0
C1520 C 0.87911 0.36563 0.7257 0.0
C1521 C 0.86445 0.3388 0.73964 0.0
C1522 C 0.85577 0.33948 0.76048 0.0
C1523 C 0.8617 0.36643 0.76726 0.0
C1524 C 0.86291 0.26503 0.73751 0.0
C1525 C 0.84762 0.25593 0.71886 0.0
C1526 C 0.86808 0.29174 0.74433 0.0
C1527 C 0.85855 0.31025 0.73253 0.0
C1528 C 0.84334 0.30129 0.71391 0.0
C1529 C 0.83758 0.27429 0.70732 0.0
H1530 H 0.13343 0.98696 0.6486 0.0
H1531 H 0.20389 0.95992 0.64852 0.0
H1532 H 0.17193 0.03507 0.6592 0.0
H1533 H 0.24251 1.00768 0.65932 0.0
H1534 H 0.3124 0.10754 0.65729 0.0
H1535 H 0.27349 0.05982 0.64672 0.0
H1536 H 0.2022 0.05902 0.68735 0.0
H1537 H 0.24067 0.10708 0.69717 0.0
C1538 C 0.15711 0.99126 0.65112 0.0
C1539 C 0.16572 0.9698 0.64767 0.0
C1540 C 0.17926 0.01881 0.65721 0.0
C1541 C 0.21061 0.02558 0.66005 0.0
C1542 C 0.21891 1.00371 0.65691 0.0
C1543 C 0.19676 0.97624 0.65082 0.0
C1544 C 0.28841 0.09723 0.66393 0.0
C1545 C 0.27993 0.11113 0.67835 0.0
C1546 C 0.26606 0.06965 0.65799 0.0
C1547 C 0.23452 0.0552 0.66623 0.0
C1548 C 0.22606 0.06937 0.68047 0.0
C1549 C 0.24836 0.09689 0.68637 0.0
H1550 H 0.07567 0.24269 0.67319 0.0
H1551 H 0.01895 0.17013 0.63828 0.0
H1552 H 0.02807 0.23961 0.68888 0.0
H1553 H 0.97124 0.16728 0.6532 0.0
H1554 H 0.93866 0.25078 0.68224 0.0
H1555 H 0.98811 0.25136 0.67495 0.0
H1556 H 0.93934 0.15482 0.68574 0.0
H1557 H 0.89024 0.15442 0.6917 0.0
C1558 C 0.05279 0.22596 0.66913 0.0
C1559 C 0.05033 0.20653 0.65478 0.0
C1560 C 0.02575 0.22425 0.67793 0.0
C1561 C 0.99604 0.20318 0.67228 0.0
C1562 C 0.99381 0.18337 0.65815 0.0
C1563 C 0.02086 0.18505 0.64948 0.0
C1564 C 0.93882 0.22981 0.68338 0.0
C1565 C 0.91085 0.2026 0.688 0.0
C1566 C 0.96703 0.23009 0.67939 0.0
C1567 C 0.96746 0.2031 0.67975 0.0
C1568 C 0.9396 0.17594 0.68516 0.0
C1569 C 0.91147 0.17571 0.68891 0.0
H1570 H 0.84764 0.89652 0.63237 0.0
H1571 H 0.74805 0.83541 0.63931 0.0
H1572 H 0.85794 0.85568 0.64444 0.0
H1573 H 0.75789 0.79425 0.65179 0.0
H1574 H 0.7888 0.72303 0.65989 0.0
H1575 H 0.77858 0.76228 0.64379 0.0
H1576 H 0.85299 0.82608 0.67745 0.0
H1577 H 0.86391 0.78719 0.69295 0.0
C1578 C 0.828 0.87411 0.6362 0.0
C1579 C 0.79712 0.86897 0.63495 0.0
C1580 C 0.83379 0.85077 0.64334 0.0
C1581 C 0.80876 0.82165 0.64949 0.0
C1582 C 0.77779 0.81628 0.64712 0.0
C1583 C 0.77206 0.83974 0.6399 0.0
C1584 C 0.803 0.74543 0.66389 0.0
C1585 C 0.82708 0.75181 0.67789 0.0
C1586 C 0.79701 0.76795 0.65469 0.0
C1587 C 0.815 0.79748 0.65919 0.0
C1588 C 0.83896 0.80376 0.67329 0.0
C1589 C 0.84497 0.78129 0.68245 0.0
H1590 H 0.09432 0.84398 0.65298 0.0
H1591 H 0.04333 0.88968 0.63337 0.0
H1592 H 0.04495 0.79829 0.66466 0.0
H1593 H 0.99347 0.84377 0.6437 0.0
H1594 H 0.90902 0.76554 0.68115 0.0
H1595 H 0.95862 0.81106 0.67084 0.0
H1596 H 1.0004 0.75804 0.65569 0.0
H1597 H 0.95128 0.71268 0.66763 0.0
C1598 C 0.07229 0.84387 0.6508 0.0
C1599 C 0.07242 0.87006 0.64216 0.0
C1600 C 0.04386 0.81767 0.6574 0.0
C1601 C 0.01467 0.81685 0.65521 0.0
C1602 C 0.01513 0.84329 0.64614 0.0
C1603 C 0.04365 0.86959 0.63991 0.0
C1604 C 0.929 0.76362 0.67612 0.0
C1605 C 0.92645 0.7354 0.67597 0.0
C1606 C 0.95751 0.78988 0.66974 0.0
C1607 C 0.98411 0.78872 0.66236 0.0
C1608 C 0.98106 0.76028 0.66173 0.0
C1609 C 0.95271 0.7341 0.66843 0.0
H1610 H 0.18397 0.26177 0.6356 0.0
H1611 H 0.13108 0.16701 0.6557 0.0
H1612 H 0.23186 0.26234 0.64594 0.0
H1613 H 0.17766 0.16793 0.66948 0.0
H1614 H 0.27107 0.17162 0.67464 0.0
H1615 H 0.22333 0.1698 0.66323 0.0
H1616 H 0.26084 0.26237 0.673 0.0
H1617 H 0.31018 0.26453 0.68218 0.0
C1618 C 0.18273 0.24098 0.64203 0.0
C1619 C 0.15402 0.21427 0.64458 0.0
C1620 C 0.21004 0.24138 0.64871 0.0
C1621 C 0.20894 0.21528 0.65899 0.0
C1622 C 0.17997 0.18848 0.66135 0.0
C1623 C 0.15303 0.18791 0.65375 0.0
C1624 C 0.26877 0.19131 0.67482 0.0
C1625 C 0.29381 0.21799 0.67986 0.0
C1626 C 0.24123 0.19037 0.66824 0.0
C1627 C 0.23781 0.21595 0.66706 0.0
C1628 C 0.26269 0.24238 0.673 0.0
C1629 C 0.29078 0.2436 0.67868 0.0
H1630 H 0.74417 0.94669 0.64901 0.0
H1631 H 0.84443 0.98192 0.64494 0.0
H1632 H 0.75131 0.99171 0.66276 0.0
H1633 H 0.85191 0.02704 0.65877 0.0
H1634 H 0.85076 0.09043 0.70297 0.0
H1635 H 0.84262 0.04434 0.69086 0.0
H1636 H 0.77206 0.04486 0.65042 0.0
H1637 H 0.77962 0.09054 0.66288 0.0
C1638 C 0.76774 0.96422 0.65102 0.0
C1639 C 0.79377 0.96101 0.64588 0.0
C1640 C 0.77189 0.98998 0.65885 0.0
C1641 C 0.80221 1.01307 0.66182 0.0
C1642 C 0.82823 1.00958 0.65693 0.0
C1643 C 0.82403 0.98383 0.649 0.0
C1644 C 0.83323 0.08056 0.69169 0.0
C1645 C 0.81564 0.09412 0.68407 0.0
C1646 C 0.82881 0.05427 0.68457 0.0
C1647 C 0.80666 0.04084 0.66967 0.0
C1648 C 0.78902 0.05436 0.66211 0.0
C1649 C 0.79351 0.0807 0.66916 0.0
H1650 H 0.52697 0.43107 0.72219 0.0
H1651 H 0.52549 0.37829 0.77998 0.0
H1652 H 0.48814 0.38552 0.7085 0.0
H1653 H 0.4854 0.33298 0.76683 0.0
H1654 H 0.38653 0.26811 0.7432 0.0
H1655 H 0.4264 0.31361 0.75607 0.0
H1656 H 0.48568 0.33516 0.69944 0.0
H1657 H 0.44672 0.28915 0.68697 0.0
C1658 C 0.51855 0.40973 0.73189 0.0
C1659 C 0.52933 0.40831 0.75218 0.0
C1660 C 0.49617 0.38369 0.72413 0.0
C1661 C 0.48353 0.3557 0.73666 0.0
C1662 C 0.49439 0.35426 0.75691 0.0
C1663 C 0.51728 0.38018 0.76445 0.0
C1664 C 0.40798 0.28249 0.7334 0.0
C1665 C 0.41295 0.27495 0.71376 0.0
C1666 C 0.43088 0.30855 0.74085 0.0
C1667 C 0.4591 0.32807 0.72871 0.0
C1668 C 0.46401 0.32078 0.70903 0.0
C1669 C 0.44147 0.29439 0.70182 0.0
H1670 H 0.59565 0.12698 0.74178 0.0
H1671 H 0.66243 0.19357 0.77738 0.0
H1672 H 0.63732 0.11893 0.72769 0.0
H1673 H 0.70435 0.1857 0.76354 0.0
H1674 H 0.77397 0.19578 0.71274 0.0
H1675 H 0.72864 0.19803 0.72575 0.0
H1676 H 0.67706 0.10182 0.73955 0.0
H1677 H 0.72278 0.09956 0.7261 0.0
C1678 C 0.61926 0.13927 0.74689 0.0
C1679 C 0.62638 0.16087 0.76046 0.0
C1680 C 0.64294 0.13478 0.73888 0.0
C1681 C 0.67397 0.1521 0.74429 0.0
C1682 C 0.68061 0.17249 0.75888 0.0
C1683 C 0.65684 0.17677 0.76697 0.0
C1684 C 0.75281 0.17507 0.71793 0.0
C1685 C 0.75176 0.14746 0.71827 0.0
C1686 C 0.72698 0.17638 0.72568 0.0
C1687 C 0.69975 0.15013 0.73403 0.0
C1688 C 0.69793 0.12236 0.73324 0.0
C1689 C 0.72392 0.12107 0.72553 0.0
H1690 H 0.87149 0.49457 0.78776 0.0
H1691 H 0.91211 0.50299 0.72564 0.0
H1692 H 0.8672 0.53959 0.77699 0.0
H1693 H 0.90621 0.54681 0.71456 0.0
H1694 H 0.83591 0.5856 0.70174 0.0
H1695 H 0.84749 0.5462 0.71466 0.0
H1696 H 0.90984 0.60157 0.75828 0.0
H1697 H 0.89968 0.64217 0.74452 0.0
C1698 C 0.87999 0.50633 0.77196 0.0
C1699 C 0.89188 0.49517 0.75745 0.0
C1700 C 0.87741 0.53194 0.76579 0.0
C1701 C 0.88621 0.54645 0.74492 0.0
C1702 C 0.89909 0.53588 0.73069 0.0
C1703 C 0.90227 0.51076 0.73697 0.0
C1704 C 0.85264 0.58988 0.71372 0.0
C1705 C 0.86743 0.61754 0.72162 0.0
C1706 C 0.85903 0.5671 0.72125 0.0
C1707 C 0.87967 0.57096 0.73735 0.0
C1708 C 0.89386 0.59813 0.74581 0.0
C1709 C 0.88805 0.62134 0.73787 0.0
H1710 H 0.4411 0.86894 0.25148 0.0
H1711 H 0.5027 0.94218 0.28437 0.0
H1712 H 0.46822 0.89845 0.21766 0.0
H1713 H 0.52992 0.97201 0.25071 0.0
H1714 H 0.58169 1.01256 0.18532 0.0
H1715 H 0.56228 0.97831 0.21839 0.0
H1716 H 0.46731 0.94224 0.19885 0.0
H1717 H 0.48646 0.97645 0.16616 0.0
C1718 C 0.46097 0.89117 0.25136 0.0
C1719 C 0.46993 0.9035 0.27027 0.0
C1720 C 0.47634 0.9081 0.23213 0.0
C1721 C 0.5009 0.93769 0.23153 0.0
C1722 C 0.51124 0.94923 0.25067 0.0
C1723 C 0.49579 0.93223 0.2699 0.0
C1724 C 0.55667 0.99737 0.18816 0.0
C1725 C 0.53563 0.99718 0.17308 0.0
C1726 C 0.5456 0.97769 0.20702 0.0
C1727 C 0.51333 0.95738 0.2111 0.0
C1728 C 0.4924 0.95711 0.19596 0.0
C1729 C 0.50339 0.97679 0.17722 0.0
H1730 H 0.05183 0.52119 0.28071 0.0
H1731 H 0.13982 0.57525 0.24418 0.0
H1732 H 0.02556 0.50328 0.24859 0.0
H1733 H 0.11439 0.55672 0.21195 0.0
H1734 H 0.05086 0.5564 0.15858 0.0
H1735 H 0.08054 0.566 0.19007 0.0
H1736 H 0.01645 0.47622 0.21946 0.0
H1737 H 0.98636 0.46699 0.18804 0.0
C1738 C 0.0657 0.52809 0.26583 0.0
C1739 C 0.09778 0.54913 0.26479 0.0
C1740 C 0.05076 0.51801 0.24737 0.0
C1741 C 0.0677 0.52882 0.22747 0.0
C1742 C 0.10037 0.54836 0.22683 0.0
C1743 C 0.11513 0.55859 0.24527 0.0
C1744 C 0.0434 0.53857 0.17163 0.0
C1745 C 0.01611 0.51102 0.17082 0.0
C1746 C 0.06051 0.544 0.18974 0.0
C1747 C 0.05098 0.52192 0.20749 0.0
C1748 C 0.02426 0.49397 0.20633 0.0
C1749 C 0.00701 0.48864 0.18828 0.0
H1750 H 0.4374 0.58715 0.24666 0.0
H1751 H 0.4521 0.52254 0.28618 0.0
H1752 H 0.43915 0.5645 0.21543 0.0
H1753 H 0.45516 0.50021 0.25507 0.0
H1754 H 0.44561 0.45606 0.1966 0.0
H1755 H 0.43157 0.47306 0.22684 0.0
H1756 H 0.47774 0.56324 0.19419 0.0
H1757 H 0.49091 0.54592 0.16379 0.0
C1758 C 0.44039 0.56763 0.24858 0.0
C1759 C 0.44443 0.55638 0.26869 0.0
C1760 C 0.44186 0.55487 0.23072 0.0
C1761 C 0.44783 0.53072 0.23252 0.0
C1762 C 0.45022 0.51854 0.25294 0.0
C1763 C 0.44843 0.53121 0.27083 0.0
C1764 C 0.45255 0.4795 0.19585 0.0
C1765 C 0.46955 0.49967 0.1778 0.0
C1766 C 0.4446 0.4893 0.21326 0.0
C1767 C 0.45365 0.51964 0.2132 0.0
C1768 C 0.46985 0.53963 0.19483 0.0
C1769 C 0.47754 0.52975 0.17734 0.0
H1770 H 0.87751 0.44911 0.81928 0.0
H1771 H 0.96045 0.50724 0.7786 0.0
H1772 H 0.90478 0.47201 0.84985 0.0
H1773 H 0.98878 0.5296 0.80912 0.0
H1774 H 0.02847 0.57482 0.86719 0.0
H1775 H 0.99675 0.55889 0.83683 0.0
H1776 H 0.94336 0.46967 0.87055 0.0
H1777 H 0.97448 0.48592 0.90094 0.0
C1778 C 0.90152 0.46731 0.81698 0.0
C1779 C 0.91696 0.47676 0.79679 0.0
C1780 C 0.91735 0.48016 0.83444 0.0
C1781 C 0.94927 0.50237 0.83212 0.0
C1782 C 0.96419 0.51279 0.81158 0.0
C1783 C 0.9481 0.50011 0.79407 0.0
C1784 C 0.00985 0.55184 0.86809 0.0
C1785 C 1.004 0.53162 0.88647 0.0
C1786 C 0.99169 0.54266 0.85066 0.0
C1787 C 0.96738 0.51295 0.85112 0.0
C1788 C 0.96136 0.49289 0.86967 0.0
C1789 C 0.9793 0.50214 0.88713 0.0
H1790 H 0.58524 0.45518 0.82175 0.0
H1791 H 0.56836 0.51902 0.78311 0.0
H1792 H 0.57533 0.47224 0.85377 0.0
H1793 H 0.55831 0.53633 0.815 0.0
H1794 H 0.49072 0.5176 0.87273 0.0
H1795 H 0.51239 0.50927 0.84164 0.0
H1796 H 0.59026 0.51416 0.87617 0.0
H1797 H 0.56905 0.52366 0.90746 0.0
C1798 C 0.58067 0.47376 0.8202 0.0
C1799 C 0.57789 0.48608 0.80007 0.0
C1800 C 0.57481 0.48343 0.83849 0.0
C1801 C 0.56557 0.50537 0.83699 0.0
C1802 C 0.56498 0.51912 0.81673 0.0
C1803 C 0.57118 0.50961 0.79846 0.0
C1804 C 0.5128 0.51752 0.87375 0.0
C1805 C 0.52828 0.52184 0.89272 0.0
C1806 C 0.52525 0.51271 0.85581 0.0
C1807 C 0.55339 0.51158 0.85622 0.0
C1808 C 0.56858 0.51503 0.87528 0.0
C1809 C 0.55627 0.52026 0.89328 0.0
H1810 H 0.60938 0.17504 0.82111 0.0
H1811 H 0.55978 0.10316 0.78419 0.0
H1812 H 0.59522 0.13896 0.85318 0.0
H1813 H 0.54461 0.06677 0.81608 0.0
H1814 H 0.52987 1.00706 0.87802 0.0
H1815 H 0.5578 0.04252 0.84639 0.0
H1816 H 0.54424 0.10941 0.87217 0.0
H1817 H 0.51665 0.07429 0.9035 0.0
C1818 C 0.59629 0.15136 0.81993 0.0
C1819 C 0.58565 0.14153 0.8005 0.0
C1820 C 0.58784 0.13075 0.83818 0.0
C1821 C 0.5683 0.10002 0.83722 0.0
C1822 C 0.55983 0.0902 0.81737 0.0
C1823 C 0.56846 0.11088 0.79914 0.0
C1824 C 0.53289 0.02936 0.87684 0.0
C1825 C 0.52116 0.03793 0.89326 0.0
C1826 C 0.54898 0.04967 0.85881 0.0
C1827 C 0.5536 0.0789 0.85689 0.0
C1828 C 0.5419 0.08737 0.87337 0.0
C1829 C 0.5259 0.06716 0.89131 0.0
H1830 H 0.15441 0.28567 0.61461 0.0
H1831 H 0.1306 0.20426 0.58929 0.0
H1832 H 0.18288 0.31495 0.58107 0.0
H1833 H 0.15834 0.23335 0.55524 0.0
H1834 H 0.15566 0.29969 0.49692 0.0
H1835 H 0.14108 0.26671 0.53013 0.0
H1836 H 0.22978 0.32593 0.55396 0.0
H1837 H 0.24549 0.35848 0.52019 0.0
C1838 C 0.15631 0.27428 0.60194 0.0
C1839 C 0.14111 0.24302 0.60436 0.0
C1840 C 0.17248 0.29087 0.58284 0.0
C1841 C 0.17284 0.27634 0.56567 0.0
C1842 C 0.15849 0.24499 0.56834 0.0
C1843 C 0.14287 0.22843 0.58768 0.0
C1844 C 0.17265 0.30535 0.50886 0.0
C1845 C 0.20178 0.33197 0.50578 0.0
C1846 C 0.16418 0.28638 0.52793 0.0
C1847 C 0.18437 0.2938 0.5445 0.0
C1848 C 0.21383 0.31982 0.54136 0.0
C1849 C 0.2226 0.33857 0.52211 0.0
H1850 H 0.71257 0.86323 0.61293 0.0
H1851 H 0.80428 0.89664 0.58244 0.0
H1852 H 0.68819 0.84489 0.58044 0.0
H1853 H 0.78022 0.87826 0.5496 0.0
H1854 H 0.7247 0.88687 0.49118 0.0
H1855 H 0.75271 0.89467 0.52353 0.0
H1856 H 0.67792 0.81066 0.55447 0.0
H1857 H 0.65001 0.8028 0.52214 0.0
C1858 C 0.72734 0.86555 0.59937 0.0
C1859 C 0.76011 0.88088 0.6001 0.0
C1860 C 0.71351 0.85519 0.58073 0.0
C1861 C 0.73224 0.86026 0.56229 0.0
C1862 C 0.76512 0.87423 0.56343 0.0
C1863 C 0.77891 0.88437 0.58223 0.0
C1864 C 0.71455 0.86974 0.50472 0.0
C1865 C 0.68485 0.84441 0.5041 0.0
C1866 C 0.73065 0.87419 0.5233 0.0
C1867 C 0.71745 0.85342 0.54172 0.0
C1868 C 0.68853 0.82737 0.54073 0.0
C1869 C 0.67249 0.82291 0.52218 0.0
H1870 H 0.09647 0.9054 0.58414 0.0
H1871 H 0.14279 0.86468 0.62034 0.0
H1872 H 0.10288 0.88522 0.55264 0.0
H1873 H 0.14863 0.84358 0.58929 0.0
H1874 H 0.19617 0.85088 0.52602 0.0
H1875 H 0.18196 0.86515 0.55746 0.0
H1876 H 0.09115 0.84274 0.53402 0.0
H1877 H 0.10564 0.82848 0.5022 0.0
C1878 C 0.10693 0.89109 0.58544 0.0
C1879 C 0.11881 0.88615 0.60456 0.0
C1880 C 0.11077 0.87963 0.56744 0.0
C1881 C 0.12675 0.86312 0.56826 0.0
C1882 C 0.13682 0.85672 0.5879 0.0
C1883 C 0.13308 0.8683 0.60578 0.0
C1884 C 0.17306 0.84877 0.52757 0.0
C1885 C 0.15194 0.83818 0.51164 0.0
C1886 C 0.16481 0.85683 0.54572 0.0
C1887 C 0.13512 0.85457 0.54859 0.0
C1888 C 0.11422 0.84478 0.53238 0.0
C1889 C 0.12254 0.8367 0.5141 0.0
H1890 H 0.62272 0.84054 0.11136 0.0
H1891 H 0.54504 0.77909 0.15528 0.0
H1892 H 0.65295 0.86514 0.14079 0.0
H1893 H 0.57477 0.80346 0.18479 0.0
H1894 H 0.63278 0.86819 0.23163 0.0
H1895 H 0.60093 0.85149 0.20135 0.0
H1896 H 0.67579 0.84583 0.17002 0.0
H1897 H 0.70712 0.86134 0.20035 0.0
C1898 C 0.61192 0.83298 0.12731 0.0
C1899 C 0.58171 0.8082 0.13124 0.0
C1900 C 0.62918 0.84675 0.14413 0.0
C1901 C 0.6163 0.83608 0.16513 0.0
C1902 C 0.58526 0.81236 0.16882 0.0
C1903 C 0.56824 0.79843 0.15203 0.0
C1904 C 0.64239 0.86314 0.21839 0.0
C1905 C 0.67269 0.86624 0.21854 0.0
C1906 C 0.62419 0.85379 0.20097 0.0
C1907 C 0.63599 0.84768 0.1832 0.0
C1908 C 0.66629 0.85101 0.18326 0.0
C1909 C 0.68428 0.85996 0.20072 0.0
H1910 H 0.21441 0.84326 0.11505 0.0
H1911 H 0.25933 0.80103 0.15118 0.0
H1912 H 0.20321 0.85924 0.1471 0.0
H1913 H 0.24766 0.81621 0.18361 0.0
H1914 H 0.23213 0.86267 0.23739 0.0
H1915 H 0.25342 0.85504 0.20522 0.0
H1916 H 0.16554 0.83099 0.17662 0.0
H1917 H 0.14449 0.83839 0.20841 0.0
C1918 C 0.22289 0.83843 0.12983 0.0
C1919 C 0.23818 0.82147 0.13069 0.0
C1920 C 0.21602 0.84703 0.14827 0.0
C1921 C 0.22393 0.83851 0.16811 0.0
C1922 C 0.2413 0.82332 0.16868 0.0
C1923 C 0.24824 0.8148 0.15014 0.0
C1924 C 0.21733 0.85551 0.22427 0.0
C1925 C 0.1867 0.85158 0.22546 0.0
C1926 C 0.22958 0.85126 0.20579 0.0
C1927 C 0.2115 0.84303 0.18806 0.0
C1928 C 0.18061 0.83828 0.1896 0.0
C1929 C 0.16844 0.84243 0.20795 0.0
H1930 H 0.23303 0.43609 0.11636 0.0
H1931 H 0.27486 0.51052 0.15194 0.0
H1932 H 0.22105 0.40141 0.14874 0.0
H1933 H 0.2637 0.47611 0.18461 0.0
H1934 H 0.18716 0.40751 0.23506 0.0
H1935 H 0.21375 0.4432 0.20379 0.0
H1936 H 0.23634 0.3808 0.17949 0.0
H1937 H 0.20929 0.34475 0.21098 0.0
C1938 C 0.24082 0.44492 0.13113 0.0
C1939 C 0.25471 0.47569 0.13191 0.0
C1940 C 0.23395 0.42517 0.14968 0.0
C1941 C 0.24094 0.43597 0.16933 0.0
C1942 C 0.25743 0.46707 0.16977 0.0
C1943 C 0.26413 0.48677 0.15117 0.0
C1944 C 0.1982 0.40154 0.22321 0.0
C1945 C 0.19611 0.37331 0.22547 0.0
C1946 C 0.21366 0.42211 0.20532 0.0
C1947 C 0.22748 0.415 0.18921 0.0
C1948 C 0.22578 0.38688 0.19157 0.0
C1949 C 0.21019 0.36621 0.20953 0.0
H1950 H 0.83488 0.6101 0.95143 0.0
H1951 H 0.77259 0.53676 0.91886 0.0
H1952 H 0.86131 0.63998 0.91763 0.0
H1953 H 0.79895 0.56631 0.88488 0.0
H1954 H 0.81721 0.64401 0.83311 0.0
H1955 H 0.79818 0.60984 0.86584 0.0
H1956 H 0.89322 0.64634 0.88534 0.0
H1957 H 0.91246 0.68059 0.85229 0.0
C1958 C 0.82761 0.60016 0.93698 0.0
C1959 C 0.80183 0.57136 0.93751 0.0
C1960 C 0.84262 0.61718 0.91766 0.0
C1961 C 0.83194 0.60561 0.89859 0.0
C1962 C 0.80734 0.576 0.89931 0.0
C1963 C 0.7924 0.55905 0.91863 0.0
C1964 C 0.83417 0.64445 0.84419 0.0
C1965 C 0.86637 0.66499 0.84006 0.0
C1966 C 0.82325 0.6248 0.86295 0.0
C1967 C 0.84423 0.62523 0.8781 0.0
C1968 C 0.87648 0.64563 0.87399 0.0
C1969 C 0.88746 0.66529 0.85513 0.0
H1970 H 0.47294 0.24351 0.91063 0.0
H1971 H 0.38762 0.18625 0.94933 0.0
H1972 H 0.44558 0.2249 0.87887 0.0
H1973 H 0.35991 0.1672 0.91779 0.0
H1974 H 0.31569 0.18424 0.85758 0.0
H1975 H 0.34475 0.19342 0.8892 0.0
H1976 H 0.41583 0.18168 0.85832 0.0
H1977 H 0.38616 0.17161 0.82654 0.0
C1978 C 0.44861 0.22594 0.9123 0.0
C1979 C 0.43238 0.21582 0.93228 0.0
C1980 C 0.43287 0.21539 0.89419 0.0
C1981 C 0.40045 0.19482 0.89576 0.0
C1982 C 0.38479 0.18331 0.91601 0.0
C1983 C 0.40063 0.19377 0.93408 0.0
C1984 C 0.33719 0.18303 0.85752 0.0
C1985 C 0.34828 0.17683 0.83943 0.0
C1986 C 0.35389 0.1883 0.87574 0.0
C1987 C 0.3824 0.18786 0.87643 0.0
C1988 C 0.39391 0.18217 0.8583 0.0
C1989 C 0.37698 0.17658 0.84004 0.0
H1990 H 0.80979 0.19873 0.95318 0.0
H1991 H 0.76138 0.23731 0.9171 0.0
H1992 H 0.81637 0.17802 0.92214 0.0
H1993 H 0.76856 0.21757 0.8856 0.0
H1994 H 0.77298 0.16166 0.83515 0.0
H1995 H 0.758 0.17549 0.86698 0.0
H1996 H 0.8493 0.19971 0.89024 0.0
H1997 H 0.86397 0.1858 0.8588 0.0
C1998 C 0.79981 0.20197 0.93864 0.0
C1999 C 0.78471 0.21909 0.93746 0.0
C2000 C 0.80397 0.19061 0.92076 0.0
C2001 C 0.79351 0.19654 0.90115 0.0
C2002 C 0.77676 0.21234 0.90037 0.0
C2003 C 0.77249 0.22355 0.91837 0.0
C2004 C 0.78988 0.17017 0.84702 0.0
C2005 C 0.81956 0.17228 0.84449 0.0
C2006 C 0.78127 0.17802 0.86531 0.0
C2007 C 0.80218 0.18822 0.88147 0.0
C2008 C 0.83214 0.19108 0.87855 0.0
C2009 C 0.84066 0.18323 0.86039 0.0
H2010 H 0.20748 0.11205 0.4872 0.0
H2011 H 0.28934 0.17322 0.44648 0.0
H2012 H 0.23405 0.13535 0.51784 0.0
H2013 H 0.317 0.19606 0.47706 0.0
H2014 H 0.35525 0.24137 0.53512 0.0
H2015 H 0.32326 0.22464 0.50498 0.0
H2016 H 0.27378 0.13487 0.53828 0.0
H2017 H 0.30515 0.15188 0.56846 0.0
C2018 C 0.23109 0.13095 0.48492 0.0
C2019 C 0.24647 0.14112 0.4647 0.0
C2020 C 0.24652 0.14406 0.50241 0.0
C2021 C 0.27796 0.16733 0.50008 0.0
C2022 C 0.29275 0.17843 0.47953 0.0
C2023 C 0.27705 0.16546 0.46199 0.0
C2024 C 0.33737 0.21809 0.53599 0.0
C2025 C 0.33276 0.19792 0.55416 0.0
C2026 C 0.31908 0.20846 0.51869 0.0
C2027 C 0.29587 0.17835 0.51906 0.0
C2028 C 0.29092 0.15835 0.53747 0.0
C2029 C 0.309 0.16805 0.55482 0.0
H2030 H 0.89846 0.1849 0.44895 0.0
H2031 H 0.91736 0.12268 0.48788 0.0
H2032 H 0.88749 0.20184 0.48073 0.0
H2033 H 0.90658 0.1394 0.51978 0.0
H2034 H 0.89843 0.1901 0.57328 0.0
H2035 H 0.92029 0.18115 0.54205 0.0
H2036 H 0.84179 0.17436 0.50743 0.0
H2037 H 0.81946 0.18213 0.53846 0.0
C2038 C 0.90153 0.1758 0.46434 0.0
C2039 C 0.90914 0.15285 0.46605 0.0
C2040 C 0.8948 0.18509 0.48255 0.0
C2041 C 0.89574 0.17169 0.50287 0.0
C2042 C 0.90579 0.15033 0.50446 0.0
C2043 C 0.91217 0.14087 0.48624 0.0
C2044 C 0.88564 0.1864 0.5591 0.0
C2045 C 0.85725 0.18727 0.55851 0.0
C2046 C 0.89833 0.18148 0.54112 0.0
C2047 C 0.88314 0.17764 0.52206 0.0
C2048 C 0.85464 0.1781 0.52161 0.0
C2049 C 0.84181 0.1826 0.53953 0.0
H2050 H 0.89949 0.77104 0.45079 0.0
H2051 H 0.94155 0.84517 0.48665 0.0
H2052 H 0.88619 0.73609 0.48317 0.0
H2053 H 0.92909 0.81047 0.51932 0.0
H2054 H 0.87249 0.67881 0.54548 0.0
H2055 H 0.90026 0.7148 0.51409 0.0
H2056 H 0.87886 0.77809 0.53817 0.0
H2057 H 0.85162 0.74247 0.56937 0.0
C2058 C 0.90703 0.77972 0.46564 0.0
C2059 C 0.9214 0.81051 0.46648 0.0
C2060 C 0.8994 0.75981 0.48419 0.0
C2061 C 0.9061 0.77047 0.50389 0.0
C2062 C 0.92301 0.80154 0.50443 0.0
C2063 C 0.93047 0.82141 0.48583 0.0
C2064 C 0.8738 0.70045 0.54398 0.0
C2065 C 0.8599 0.70784 0.55986 0.0
C2066 C 0.88979 0.72108 0.52609 0.0
C2067 C 0.89206 0.74944 0.5237 0.0
C2068 C 0.87834 0.7568 0.53972 0.0
C2069 C 0.8625 0.73628 0.55757 0.0
loop_
_geom_bond_atom_site_label_1
_geom_bond_atom_site_label_2
_geom_bond_distance
_geom_bond_site_symmetry_2
_ccdc_geom_bond_type
C0 N1 1.317 . S
C0 N2 1.348 . S
C0 C3 1.485 . S
N1 C0 1.317 . S
N1 N5 1.370 . S
N2 C0 1.348 . S
N2 C4 1.346 . S
C3 C0 1.485 . S
C3 H7 0.960 . S
C3 H8 0.961 . S
C3 H9 0.960 . S
C4 N2 1.346 . S
C4 N5 1.307 . S
C4 C6 1.486 . S
N5 N1 1.370 . S
N5 C4 1.307 . S
C6 C4 1.486 . S
C6 H10 0.960 . S
C6 H11 0.960 . S
C6 H12 0.959 . S
H7 C3 0.960 . S
H8 C3 0.961 . S
H9 C3 0.960 . S
H10 C6 0.960 . S
H11 C6 0.960 . S
H12 C6 0.959 . S
C13 N14 1.317 . S
C13 N15 1.348 . S
C13 C16 1.485 . S
N14 C13 1.317 . S
N14 N18 1.370 . S
N15 C13 1.348 . S
N15 C17 1.346 . S
C16 C13 1.485 . S
C16 H20 0.960 . S
C16 H21 0.961 . S
C16 H22 0.960 . S
C17 N15 1.346 . S
C17 N18 1.307 . S
C17 C19 1.486 . S
N18 N14 1.370 . S
N18 C17 1.307 . S
C19 C17 1.486 . S
C19 H23 0.960 . S
C19 H24 0.960 . S
C19 H25 0.959 . S
H20 C16 0.960 . S
H21 C16 0.961 . S
H22 C16 0.960 . S
H23 C19 0.960 . S
H24 C19 0.960 . S
H25 C19 0.959 . S
C26 N27 1.317 . S
C26 N28 1.348 . S
C26 C29 1.485 . S
N27 C26 1.317 . S
N27 N31 1.370 . S
N28 C26 1.348 . S
N28 C30 1.346 . S
C29 C26 1.485 . S
C29 H33 0.960 . S
C29 H34 0.961 . S
C29 H35 0.960 . S
C30 N28 1.346 . S
C30 N31 1.307 . S
C30 C32 1.486 . S
N31 N27 1.370 . S
N31 C30 1.307 . S
C32 C30 1.486 . S
C32 H36 0.960 . S
C32 H37 0.960 . S
C32 H38 0.959 . S
H33 C29 0.960 . S
H34 C29 0.961 . S
H35 C29 0.960 . S
H36 C32 0.960 . S
H37 C32 0.960 . S
H38 C32 0.959 . S
C39 N40 1.317 . S
C39 N41 1.348 . S
C39 C42 1.485 . S
N40 C39 1.317 . S
N40 N44 1.370 . S
N41 C39 1.348 . S
N41 C43 1.346 . S
C42 C39 1.485 . S
C42 H46 0.960 . S
C42 H47 0.961 . S
C42 H48 0.960 . S
C43 N41 1.346 . S
C43 N44 1.307 . S
C43 C45 1.486 . S
N44 N40 1.370 . S
N44 C43 1.307 . S
C45 C43 1.486 . S
C45 H49 0.960 . S
C45 H50 0.960 . S
C45 H51 0.959 . S
H46 C42 0.960 . S
H47 C42 0.961 . S
H48 C42 0.960 . S
H49 C45 0.960 . S
H50 C45 0.960 . S
H51 C45 0.959 . S
C52 N53 1.317 . S
C52 N54 1.348 . S
C52 C55 1.485 . S
N53 C52 1.317 . S
N53 N57 1.370 . S
N54 C52 1.348 . S
N54 C56 1.346 . S
C55 C52 1.485 . S
C55 H59 0.960 . S
C55 H60 0.961 . S
C55 H61 0.960 . S
C56 N54 1.346 . S
C56 N57 1.307 . S
C56 C58 1.486 . S
N57 N53 1.370 . S
N57 C56 1.307 . S
C58 C56 1.486 . S
C58 H62 0.960 . S
C58 H63 0.960 . S
C58 H64 0.959 . S
H59 C55 0.960 . S
H60 C55 0.961 . S
H61 C55 0.960 . S
H62 C58 0.960 . S
H63 C58 0.960 . S
H64 C58 0.959 . S
C65 N66 1.317 . S
C65 N67 1.348 . S
C65 C68 1.485 . S
N66 C65 1.317 . S
N66 N70 1.370 . S
N67 C65 1.348 . S
N67 C69 1.346 . S
C68 C65 1.485 . S
C68 H72 0.960 . S
C68 H73 0.961 . S
C68 H74 0.960 . S
C69 N67 1.346 . S
C69 N70 1.307 . S
C69 C71 1.486 . S
N70 N66 1.370 . S
N70 C69 1.307 . S
C71 C69 1.486 . S
C71 H75 0.960 . S
C71 H76 0.960 . S
C71 H77 0.959 . S
H72 C68 0.960 . S
H73 C68 0.961 . S
H74 C68 0.960 . S
H75 C71 0.960 . S
H76 C71 0.960 . S
H77 C71 0.959 . S
C78 N79 1.317 . S
C78 N80 1.348 . S
C78 C81 1.485 . S
N79 C78 1.317 . S
N79 N83 1.370 . S
N80 C78 1.348 . S
N80 C82 1.346 . S
C81 C78 1.485 . S
C81 H85 0.960 . S
C81 H86 0.961 . S
C81 H87 0.960 . S
C82 N80 1.346 . S
C82 N83 1.307 . S
C82 C84 1.486 . S
N83 N79 1.370 . S
N83 C82 1.307 . S
C84 C82 1.486 . S
C84 H88 0.960 . S
C84 H89 0.960 . S
C84 H90 0.959 . S
H85 C81 0.960 . S
H86 C81 0.961 . S
H87 C81 0.960 . S
H88 C84 0.960 . S
H89 C84 0.960 . S
H90 C84 0.959 . S
C91 N92 1.317 . S
C91 N93 1.348 . S
C91 C94 1.485 . S
N92 C91 1.317 . S
N92 N96 1.370 . S
N93 C91 1.348 . S
N93 C95 1.346 . S
C94 C91 1.485 . S
C94 H98 0.960 . S
C94 H99 0.961 . S
C94 H100 0.960 . S
C95 N93 1.346 . S
C95 N96 1.307 . S
C95 C97 1.486 . S
N96 N92 1.370 . S
N96 C95 1.307 . S
C97 C95 1.486 . S
C97 H101 0.960 . S
C97 H102 0.960 . S
C97 H103 0.959 . S
H98 C94 0.960 . S
H99 C94 0.961 . S
H100 C94 0.960 . S
H101 C97 0.960 . S
H102 C97 0.960 . S
H103 C97 0.959 . S
C104 N105 1.317 . S
C104 N106 1.348 . S
C104 C107 1.485 . S
N105 C104 1.317 . S
N105 N109 1.370 . S
N106 C104 1.348 . S
N106 C108 1.346 . S
C107 C104 1.485 . S
C107 H111 0.960 . S
C107 H112 0.961 . S
C107 H113 0.960 . S
C108 N106 1.346 . S
C108 N109 1.307 . S
C108 C110 1.486 . S
N109 N105 1.370 . S
N109 C108 1.307 . S
C110 C108 1.486 . S
C110 H114 0.960 . S
C110 H115 0.960 . S
C110 H116 0.959 . S
H111 C107 0.960 . S
H112 C107 0.961 . S
H113 C107 0.960 . S
H114 C110 0.960 . S
H115 C110 0.960 . S
H116 C110 0.959 . S
C117 N118 1.317 . S
C117 N119 1.348 . S
C117 C120 1.485 . S
N118 C117 1.317 . S
N118 N122 1.370 . S
N119 C117 1.348 . S
N119 C121 1.346 . S
C120 C117 1.485 . S
C120 H124 0.960 . S
C120 H125 0.935 1_556 S
C120 H126 0.960 . S
C121 N119 1.346 . S
C121 N122 1.307 . S
C121 C123 1.486 . S
N122 N118 1.370 . S
N122 C121 1.307 . S
C123 C121 1.486 . S
C123 H127 0.960 . S
C123 H128 0.960 . S
C123 H129 0.959 . S
H124 C120 0.960 . S
H125 C120 0.935 1_554 S
H126 C120 0.960 . S
H127 C123 0.960 . S
H128 C123 0.960 . S
H129 C123 0.959 . S
C130 N131 1.317 . S
C130 N132 1.348 . S
C130 C133 1.472 1_556 S
N131 C130 1.317 . S
N131 N135 1.370 . S
N132 C130 1.348 . S
N132 C134 1.346 . S
C133 C130 1.472 1_554 S
C133 H137 0.970 . S
C133 H138 0.967 . S
C133 H139 0.957 1_554 S
C134 N132 1.346 . S
C134 N135 1.307 . S
C134 C136 1.486 . S
N135 N131 1.370 . S
N135 C134 1.307 . S
C136 C134 1.486 . S
C136 H140 0.960 . S
C136 H141 0.960 . S
C136 H142 0.959 . S
H137 C133 0.970 . S
H138 C133 0.967 . S
H139 C133 0.957 1_556 S
H140 C136 0.960 . S
H141 C136 0.960 . S
H142 C136 0.959 . S
C143 N144 1.317 . S
C143 N145 1.348 . S
C143 C146 1.485 1_556 S
N144 C143 1.317 . S
N144 N148 1.370 . S
N145 C143 1.348 . S
N145 C147 1.346 . S
C146 C143 1.485 1_554 S
C146 H150 0.960 . S
C146 H151 0.961 . S
C146 H152 0.960 . S
C147 N145 1.346 . S
C147 N148 1.307 . S
C147 C149 1.486 . S
N148 N144 1.370 . S
N148 C147 1.307 . S
C149 C147 1.486 . S
C149 H153 0.960 . S
C149 H154 0.960 . S
C149 H155 0.959 . S
H150 C146 0.960 . S
H151 C146 0.961 . S
H152 C146 0.960 . S
H153 C149 0.960 . S
H154 C149 0.960 . S
H155 C149 0.959 . S
C156 N157 1.317 . S
C156 N158 1.348 . S
C156 C159 1.485 . S
N157 C156 1.317 . S
N157 N161 1.370 . S
N158 C156 1.348 . S
N158 C160 1.346 . S
C159 C156 1.485 . S
C159 H163 0.960 . S
C159 H164 0.961 . S
C159 H165 0.960 . S
C160 N158 1.346 . S
C160 N161 1.307 . S
C160 C162 1.486 . S
N161 N157 1.370 . S
N161 C160 1.307 . S
C162 C160 1.486 . S
C162 H166 0.960 . S
C162 H167 0.960 . S
C162 H168 0.959 . S
H163 C159 0.960 . S
H164 C159 0.961 . S
H165 C159 0.960 . S
H166 C162 0.960 . S
H167 C162 0.960 . S
H168 C162 0.959 . S
C169 N170 1.317 . S
C169 N171 1.348 . S
C169 C172 1.485 . S
N170 C169 1.317 . S
N170 N174 1.370 . S
N171 C169 1.348 . S
N171 C173 1.346 . S
C172 C169 1.485 . S
C172 H176 0.960 . S
C172 H177 0.961 . S
C172 H178 0.960 . S
C173 N171 1.346 . S
C173 N174 1.307 . S
C173 C175 1.486 . S
N174 N170 1.370 . S
N174 C173 1.307 . S
C175 C173 1.486 . S
C175 H179 0.960 . S
C175 H180 0.960 . S
C175 H181 0.959 . S
H176 C172 0.960 . S
H177 C172 0.961 . S
H178 C172 0.960 . S
H179 C175 0.960 . S
H180 C175 0.960 . S
H181 C175 0.959 . S
C182 N183 1.317 . S
C182 N184 1.348 . S
C182 C185 1.485 . S
N183 C182 1.317 . S
N183 N187 1.370 . S
N184 C182 1.348 . S
N184 C186 1.346 . S
C185 C182 1.485 . S
C185 H189 0.960 . S
C185 H190 0.961 . S
C185 H191 0.960 . S
C186 N184 1.346 . S
C186 N187 1.307 . S
C186 C188 1.486 . S
N187 N183 1.370 . S
N187 C186 1.307 . S
C188 C186 1.486 . S
C188 H192 0.960 . S
C188 H193 0.960 . S
C188 H194 0.959 . S
H189 C185 0.960 . S
H190 C185 0.961 . S
H191 C185 0.960 . S
H192 C188 0.960 . S
H193 C188 0.960 . S
H194 C188 0.959 . S
C195 N196 1.317 . S
C195 N197 1.348 . S
C195 C198 1.485 . S
N196 C195 1.317 . S
N196 N200 1.370 . S
N197 C195 1.348 . S
N197 C199 1.346 . S
C198 C195 1.485 . S
C198 H202 0.960 . S
C198 H203 0.961 . S
C198 H204 0.960 . S
C199 N197 1.346 . S
C199 N200 1.307 . S
C199 C201 1.486 . S
N200 N196 1.370 . S
N200 C199 1.307 . S
C201 C199 1.486 . S
C201 H205 0.960 . S
C201 H206 0.960 . S
C201 H207 0.959 . S
H202 C198 0.960 . S
H203 C198 0.961 . S
H204 C198 0.960 . S
H205 C201 0.960 . S
H206 C201 0.960 . S
H207 C201 0.959 . S
C208 N209 1.317 . S
C208 N210 1.348 . S
C208 C211 1.485 . S
N209 C208 1.317 . S
N209 N213 1.370 . S
N210 C208 1.348 . S
N210 C212 1.346 . S
C211 C208 1.485 . S
C211 H215 0.960 . S
C211 H216 0.961 . S
C211 H217 0.960 . S
C212 N210 1.346 . S
C212 N213 1.307 . S
C212 C214 1.486 . S
N213 N209 1.370 . S
N213 C212 1.307 . S
C214 C212 1.486 . S
C214 H218 0.960 . S
C214 H219 0.960 . S
C214 H220 0.959 . S
H215 C211 0.960 . S
H216 C211 0.961 . S
H217 C211 0.960 . S
H218 C214 0.960 . S
H219 C214 0.960 . S
H220 C214 0.959 . S
C221 N222 1.317 . S
C221 N223 1.348 . S
C221 C224 1.485 . S
N222 C221 1.317 . S
N222 N226 1.370 . S
N223 C221 1.348 . S
N223 C225 1.346 . S
C224 C221 1.485 . S
C224 H228 0.960 . S
C224 H229 0.961 . S
C224 H230 0.960 . S
C225 N223 1.346 . S
C225 N226 1.307 . S
C225 C227 1.486 . S
N226 N222 1.370 . S
N226 C225 1.307 . S
C227 C225 1.486 . S
C227 H231 0.960 . S
C227 H232 0.960 . S
C227 H233 0.959 . S
H228 C224 0.960 . S
H229 C224 0.961 . S
H230 C224 0.960 . S
H231 C227 0.960 . S
H232 C227 0.960 . S
H233 C227 0.959 . S
Tb234 N265 2.660 . S
Tb234 N272 2.600 . S
Tb234 O278 2.546 . S
Tb234 O279 2.610 1_566 S
Tb234 O281 2.320 1_565 S
Tb234 O282 2.552 1_565 S
Tb234 O283 2.413 1_565 S
Tb234 O285 2.362 1_556 S
Tb234 O286 2.421 1_556 S
Tb234 C298 2.833 1_565 S
C235 C238 1.432 . S
C235 C239 1.414 . S
C235 N242 1.359 . S
C236 C238 1.417 . S
C236 C240 1.432 . S
C236 C248 1.410 . S
C237 C239 1.444 . S
C237 C240 1.317 . S
C237 H260 0.929 . S
C238 C235 1.432 . S
C238 C236 1.417 . S
C238 N246 1.360 . S
C239 C235 1.414 . S
C239 C237 1.444 . S
C239 C244 1.385 . S
C240 C236 1.432 . S
C240 C237 1.317 . S
C240 H252 0.930 . S
C241 C243 1.392 . S
C241 C244 1.370 . S
C241 H253 0.931 . S
N242 C235 1.359 . S
N242 C243 1.327 . S
N242 Tb245 2.600 . S
C243 C241 1.392 . S
C243 N242 1.327 . S
C243 H250 0.930 . S
C244 C239 1.385 . S
C244 C241 1.370 . S
C244 H263 0.930 . S
Tb245 N242 2.600 . S
Tb245 N246 2.660 . S
Tb245 O279 2.362 . S
Tb245 O280 2.421 . S
Tb245 O284 2.546 . S
Tb245 O285 2.610 1_545 S
Tb245 O287 2.320 1_545 S
Tb245 O288 2.552 1_545 S
Tb245 O289 2.413 1_545 S
Tb245 C309 2.833 1_545 S
N246 C238 1.360 . S
N246 Tb245 2.660 . S
N246 C247 1.305 . S
C247 N246 1.305 . S
C247 C249 1.407 . S
C247 H254 0.930 . S
C248 C236 1.410 . S
C248 C249 1.345 . S
C248 H256 0.930 . S
C249 C247 1.407 . S
C249 C248 1.345 . S
C249 H251 0.930 . S
H250 C243 0.930 . S
H251 C249 0.930 . S
H252 C240 0.930 . S
H253 C241 0.931 . S
H254 C247 0.930 . S
H255 C269 0.930 . S
H256 C248 0.930 . S
H257 C275 0.930 . S
H258 C266 0.930 1_545 S
H259 C273 0.931 . S
H260 C237 0.929 . S
H261 C267 0.930 . S
H262 C300 0.930 . S
H263 C244 0.930 . S
H264 C299 0.929 . S
N265 Tb234 2.660 . S
N265 C266 1.305 . S
N265 C270 1.360 . S
C266 H258 0.930 1_565 S
C266 N265 1.305 . S
C266 C269 1.407 . S
C267 H261 0.930 . S
C267 C268 1.410 . S
C267 C269 1.345 . S
C268 C267 1.410 . S
C268 C270 1.417 . S
C268 C300 1.432 . S
C269 H255 0.930 . S
C269 C266 1.407 . S
C269 C267 1.345 . S
C270 N265 1.360 . S
C270 C268 1.417 . S
C270 C274 1.432 . S
H271 C276 0.930 . S
N272 Tb234 2.600 . S
N272 C274 1.359 . S
N272 C275 1.327 . S
C273 H259 0.931 . S
C273 C275 1.392 . S
C273 C276 1.370 . S
C274 C270 1.432 . S
C274 N272 1.359 . S
C274 C277 1.414 . S
C275 H257 0.930 . S
C275 N272 1.327 . S
C275 C273 1.392 . S
C276 H271 0.930 . S
C276 C273 1.370 . S
C276 C277 1.385 . S
C277 C274 1.414 . S
C277 C276 1.385 . S
C277 C299 1.444 . S
O278 Tb234 2.546 . S
O278 C298 1.251 1_565 S
O279 Tb234 2.610 1_544 S
O279 Tb245 2.362 . S
O279 C290 1.283 . S
O280 Tb245 2.421 . S
O280 C297 1.262 . S
O281 Tb234 2.320 1_545 S
O281 C297 1.260 1_556 S
O282 Tb234 2.552 1_545 S
O282 C290 1.243 1_556 S
O283 Tb234 2.413 1_545 S
O283 C298 1.256 . S
O284 Tb245 2.546 . S
O284 C309 1.251 1_545 S
O285 Tb234 2.362 1_554 S
O285 Tb245 2.610 1_565 S
O285 C301 1.283 . S
O286 Tb234 2.421 1_554 S
O286 C308 1.262 . S
O287 Tb245 2.320 1_565 S
O287 C308 1.260 . S
O288 Tb245 2.552 1_565 S
O288 C301 1.243 . S
O289 Tb245 2.413 1_565 S
O289 C309 1.256 . S
C290 O279 1.283 . S
C290 O282 1.243 1_554 S
C291 C293 1.382 . S
C291 C295 1.393 . S
C291 C298 1.500 . S
C292 C293 1.400 . S
C292 C294 1.384 . S
C293 C291 1.382 . S
C293 C292 1.400 . S
C293 H310 0.930 . S
C294 C292 1.384 . S
C294 C296 1.392 . S
C294 H311 0.931 . S
C295 C291 1.393 . S
C295 C296 1.401 . S
C295 H312 0.930 1_545 S
C296 C294 1.392 . S
C296 C295 1.401 . S
C296 H313 0.930 . S
C297 O280 1.262 . S
C297 O281 1.260 1_554 S
C298 Tb234 2.833 1_545 S
C298 O278 1.251 1_545 S
C298 O283 1.256 . S
C298 C291 1.500 . S
C299 H264 0.929 . S
C299 C277 1.444 . S
C299 C300 1.317 . S
C300 H262 0.930 . S
C300 C268 1.432 . S
C300 C299 1.317 . S
C301 O285 1.283 . S
C301 O288 1.243 . S
C302 C303 1.382 . S
C302 C306 1.393 . S
C302 C309 1.500 . S
C303 C302 1.382 . S
C303 C304 1.400 . S
C303 H314 0.930 . S
C304 C303 1.400 . S
C304 C305 1.384 . S
C305 C304 1.384 . S
C305 C307 1.392 . S
C305 H315 0.931 . S
C306 C302 1.393 . S
C306 C307 1.401 . S
C306 H316 0.930 1_565 S
C307 C305 1.392 . S
C307 C306 1.401 . S
C307 H317 0.930 . S
C308 O286 1.262 . S
C308 O287 1.260 . S
C309 Tb245 2.833 1_565 S
C309 O284 1.251 1_565 S
C309 O289 1.256 . S
C309 C302 1.500 . S
H310 C293 0.930 . S
H311 C294 0.931 . S
H312 C295 0.930 1_565 S
H313 C296 0.930 . S
H314 C303 0.930 . S
H315 C305 0.931 . S
H316 C306 0.930 1_545 S
H317 C307 0.930 . S
Tb318 N349 2.660 . S
Tb318 N356 2.600 . S
Tb318 O362 2.546 . S
Tb318 O363 2.610 1_456 S
Tb318 O365 2.320 1_455 S
Tb318 O366 2.552 1_455 S
Tb318 O367 2.413 . S
Tb318 O369 2.362 1_556 S
Tb318 O370 2.421 . S
Tb318 C382 2.833 . S
C319 C322 1.432 . S
C319 C323 1.414 . S
C319 N326 1.359 . S
C320 C322 1.417 . S
C320 C324 1.432 . S
C320 C332 1.410 . S
C321 C323 1.444 . S
C321 C324 1.317 . S
C321 H344 0.929 . S
C322 C319 1.432 . S
C322 C320 1.417 . S
C322 N330 1.360 . S
C323 C319 1.414 . S
C323 C321 1.444 . S
C323 C328 1.385 . S
C324 C320 1.432 . S
C324 C321 1.317 . S
C324 H336 0.930 . S
C325 C327 1.392 . S
C325 C328 1.370 . S
C325 H337 0.931 . S
N326 C319 1.359 . S
N326 C327 1.327 . S
N326 Tb329 2.600 . S
C327 C325 1.392 . S
C327 N326 1.327 . S
C327 H334 0.930 . S
C328 C323 1.385 . S
C328 C325 1.370 . S
C328 H347 0.930 . S
Tb329 N326 2.600 . S
Tb329 N330 2.660 . S
Tb329 O363 2.362 . S
Tb329 O364 2.421 . S
Tb329 O368 2.546 . S
Tb329 O369 2.610 1_655 S
Tb329 O371 2.320 1_655 S
Tb329 O372 2.552 1_655 S
Tb329 O373 2.412 1_655 S
Tb329 C393 2.833 . S
N330 C322 1.360 . S
N330 Tb329 2.660 . S
N330 C331 1.305 . S
C331 N330 1.305 . S
C331 C333 1.407 . S
C331 H338 0.930 . S
C332 C320 1.410 . S
C332 C333 1.345 . S
C332 H340 0.930 . S
C333 C331 1.407 . S
C333 C332 1.345 . S
C333 H335 0.930 . S
H334 C327 0.930 . S
H335 C333 0.930 . S
H336 C324 0.930 . S
H337 C325 0.931 . S
H338 C331 0.930 . S
H339 C353 0.930 . S
H340 C332 0.930 . S
H341 C359 0.930 . S
H342 C350 0.930 . S
H343 C357 0.931 . S
H344 C321 0.929 . S
H345 C351 0.930 . S
H346 C384 0.930 . S
H347 C328 0.930 . S
H348 C383 0.929 . S
N349 Tb318 2.660 . S
N349 C350 1.305 . S
N349 C354 1.360 . S
C350 H342 0.930 . S
C350 N349 1.305 . S
C350 C353 1.407 . S
C351 H345 0.930 . S
C351 C352 1.410 . S
C351 C353 1.345 . S
C352 C351 1.410 . S
C352 C354 1.417 . S
C352 C384 1.432 . S
C353 H339 0.930 . S
C353 C350 1.407 . S
C353 C351 1.345 . S
C354 N349 1.360 . S
C354 C352 1.417 . S
C354 C358 1.432 . S
H355 C360 0.930 . S
N356 Tb318 2.600 . S
N356 C358 1.359 . S
N356 C359 1.327 . S
C357 H343 0.931 . S
C357 C359 1.392 . S
C357 C360 1.370 . S
C358 C354 1.432 . S
C358 N356 1.359 . S
C358 C361 1.414 . S
C359 H341 0.930 . S
C359 N356 1.327 . S
C359 C357 1.392 . S
C360 H355 0.930 . S
C360 C357 1.370 . S
C360 C361 1.385 . S
C361 C358 1.414 . S
C361 C360 1.385 . S
C361 C383 1.444 . S
O362 Tb318 2.546 . S
O362 C382 1.251 . S
O363 Tb318 2.610 1_654 S
O363 Tb329 2.362 . S
O363 C374 1.283 1_554 S
O364 Tb329 2.421 . S
O364 C381 1.262 . S
O365 Tb318 2.320 1_655 S
O365 C381 1.260 1_556 S
O366 Tb318 2.552 1_655 S
O366 C374 1.243 . S
O367 Tb318 2.413 . S
O367 C382 1.256 . S
O368 Tb329 2.546 . S
O368 C393 1.251 . S
O369 Tb318 2.362 1_554 S
O369 Tb329 2.610 1_455 S
O369 C385 1.283 . S
O370 Tb318 2.421 . S
O370 C392 1.262 1_556 S
O371 Tb329 2.320 1_455 S
O371 C392 1.260 . S
O372 Tb329 2.552 1_455 S
O372 C385 1.243 . S
O373 Tb329 2.412 1_455 S
O373 C393 1.263 1_455 S
C374 O363 1.283 1_556 S
C374 O366 1.243 . S
C375 C377 1.382 1_455 S
C375 C379 1.393 . S
C375 C382 1.500 . S
C376 C377 1.400 . S
C376 C378 1.384 1_655 S
C377 C375 1.382 1_655 S
C377 C376 1.400 . S
C377 H394 0.930 . S
C378 C376 1.384 1_455 S
C378 C380 1.392 . S
C378 H395 0.931 . S
C379 C375 1.393 . S
C379 C380 1.401 . S
C379 H396 0.930 . S
C380 C378 1.392 . S
C380 C379 1.401 . S
C380 H397 0.930 . S
C381 O364 1.262 . S
C381 O365 1.260 1_554 S
C382 Tb318 2.833 . S
C382 O362 1.251 . S
C382 O367 1.256 . S
C382 C375 1.500 . S
C383 H348 0.929 . S
C383 C361 1.444 . S
C383 C384 1.317 . S
C384 H346 0.930 . S
C384 C352 1.432 . S
C384 C383 1.317 . S
C385 O369 1.283 . S
C385 O372 1.243 . S
C386 C387 1.382 1_655 S
C386 C390 1.393 . S
C386 C393 1.500 . S
C387 C386 1.382 1_455 S
C387 C388 1.400 . S
C387 H398 0.930 . S
C388 C387 1.400 . S
C388 C389 1.384 . S
C389 C388 1.384 . S
C389 C391 1.392 1_455 S
C389 H399 0.931 . S
C390 C386 1.393 . S
C390 C391 1.401 . S
C390 H400 0.930 . S
C391 C389 1.392 1_655 S
C391 C390 1.401 . S
C391 H401 0.930 . S
C392 O370 1.262 1_554 S
C392 O371 1.260 . S
C393 Tb329 2.833 . S
C393 O368 1.251 . S
C393 O373 1.263 1_655 S
C393 C386 1.500 . S
H394 C377 0.930 . S
H395 C378 0.931 . S
H396 C379 0.930 . S
H397 C380 0.930 . S
H398 C387 0.930 . S
H399 C389 0.931 . S
H400 C390 0.930 . S
H401 C391 0.930 . S
Tb402 N433 2.660 . S
Tb402 N440 2.600 . S
Tb402 O446 2.546 . S
Tb402 O447 2.610 . S
Tb402 O449 2.320 . S
Tb402 O450 2.552 . S
Tb402 O451 2.413 . S
Tb402 O453 2.362 . S
Tb402 O454 2.421 . S
Tb402 C466 2.833 . S
C403 C406 1.432 . S
C403 C407 1.414 . S
C403 N410 1.359 . S
C404 C406 1.417 . S
C404 C408 1.432 . S
C404 C416 1.410 . S
C405 C407 1.444 . S
C405 C408 1.317 . S
C405 H428 0.929 . S
C406 C403 1.432 . S
C406 C404 1.417 . S
C406 N414 1.360 . S
C407 C403 1.414 . S
C407 C405 1.444 . S
C407 C412 1.385 . S
C408 C404 1.432 . S
C408 C405 1.317 . S
C408 H420 0.930 . S
C409 C411 1.392 . S
C409 C412 1.370 . S
C409 H421 0.931 . S
N410 C403 1.359 . S
N410 C411 1.327 . S
N410 Tb413 2.604 . S
C411 C409 1.392 . S
C411 N410 1.327 . S
C411 H418 0.930 . S
C412 C407 1.385 . S
C412 C409 1.370 . S
C412 H431 0.930 . S
Tb413 N410 2.604 . S
Tb413 N414 2.662 . S
Tb413 O447 2.345 1_556 S
Tb413 O448 2.410 1_556 S
Tb413 O452 2.561 . S
Tb413 O453 2.599 1_556 S
Tb413 O455 2.318 1_556 S
Tb413 O456 2.556 . S
Tb413 O457 2.431 . S
Tb413 C477 2.851 . S
N414 C406 1.360 . S
N414 Tb413 2.662 . S
N414 C415 1.305 1_556 S
C415 N414 1.305 1_554 S
C415 C417 1.411 . S
C415 H422 0.930 . S
C416 C404 1.410 . S
C416 C417 1.337 1_556 S
C416 H424 0.930 . S
C417 C415 1.411 . S
C417 C416 1.337 1_554 S
C417 H419 0.935 . S
H418 C411 0.930 . S
H419 C417 0.935 . S
H420 C408 0.930 . S
H421 C409 0.931 . S
H422 C415 0.930 . S
H423 C437 0.930 . S
H424 C416 0.930 . S
H425 C443 0.930 . S
H426 C434 0.930 . S
H427 C441 0.931 . S
H428 C405 0.929 . S
H429 C435 0.930 . S
H430 C468 0.930 . S
H431 C412 0.930 . S
H432 C467 0.929 . S
N433 Tb402 2.660 . S
N433 C434 1.305 . S
N433 C438 1.360 . S
C434 H426 0.930 . S
C434 N433 1.305 . S
C434 C437 1.407 . S
C435 H429 0.930 . S
C435 C436 1.410 . S
C435 C437 1.345 . S
C436 C435 1.410 . S
C436 C438 1.417 . S
C436 C468 1.432 . S
C437 H423 0.930 . S
C437 C434 1.407 . S
C437 C435 1.345 . S
C438 N433 1.360 . S
C438 C436 1.417 . S
C438 C442 1.432 . S
H439 C444 0.930 . S
N440 Tb402 2.600 . S
N440 C442 1.359 . S
N440 C443 1.327 . S
C441 H427 0.931 . S
C441 C443 1.392 . S
C441 C444 1.370 . S
C442 C438 1.432 . S
C442 N440 1.359 . S
C442 C445 1.414 . S
C443 H425 0.930 . S
C443 N440 1.327 . S
C443 C441 1.392 . S
C444 H439 0.930 . S
C444 C441 1.370 . S
C444 C445 1.385 . S
C445 C442 1.414 . S
C445 C444 1.385 . S
C445 C467 1.444 . S
O446 Tb402 2.546 . S
O446 C466 1.251 . S
O447 Tb402 2.610 . S
O447 Tb413 2.345 1_554 S
O447 C458 1.283 . S
O448 Tb413 2.410 1_554 S
O448 C465 1.262 . S
O449 Tb402 2.320 . S
O449 C465 1.260 . S
O450 Tb402 2.552 . S
O450 C458 1.243 . S
O451 Tb402 2.413 . S
O451 C466 1.256 . S
O452 Tb413 2.561 . S
O452 C477 1.251 . S
O453 Tb402 2.362 . S
O453 Tb413 2.599 1_554 S
O453 C469 1.283 . S
O454 Tb402 2.421 . S
O454 C476 1.262 . S
O455 Tb413 2.318 1_554 S
O455 C476 1.260 . S
O456 Tb413 2.556 . S
O456 C469 1.243 1_556 S
O457 Tb413 2.431 . S
O457 C477 1.256 . S
C458 O447 1.283 . S
C458 O450 1.243 . S
C459 C461 1.382 . S
C459 C463 1.393 . S
C459 C466 1.500 . S
C460 C461 1.400 . S
C460 C462 1.384 . S
C461 C459 1.382 . S
C461 C460 1.400 . S
C461 H478 0.930 . S
C462 C460 1.384 . S
C462 C464 1.392 . S
C462 H479 0.931 . S
C463 C459 1.393 . S
C463 C464 1.401 . S
C463 H480 0.930 . S
C464 C462 1.392 . S
C464 C463 1.401 . S
C464 H481 0.930 . S
C465 O448 1.262 . S
C465 O449 1.260 . S
C466 Tb402 2.833 . S
C466 O446 1.251 . S
C466 O451 1.256 . S
C466 C459 1.500 . S
C467 H432 0.929 . S
C467 C445 1.444 . S
C467 C468 1.317 . S
C468 H430 0.930 . S
C468 C436 1.432 . S
C468 C467 1.317 . S
C469 O453 1.283 . S
C469 O456 1.243 1_554 S
C470 C471 1.382 . S
C470 C474 1.393 . S
C470 C477 1.500 . S
C471 C470 1.382 . S
C471 C472 1.400 . S
C471 H482 0.930 . S
C472 C471 1.400 . S
C472 C473 1.384 . S
C473 C472 1.384 . S
C473 C475 1.392 . S
C473 H483 0.931 . S
C474 C470 1.393 . S
C474 C475 1.401 . S
C474 H484 0.930 . S
C475 C473 1.392 . S
C475 C474 1.401 . S
C475 H485 0.930 . S
C476 O454 1.262 . S
C476 O455 1.260 . S
C477 Tb413 2.851 . S
C477 O452 1.251 . S
C477 O457 1.256 . S
C477 C470 1.500 . S
H478 C461 0.930 . S
H479 C462 0.931 . S
H480 C463 0.930 . S
H481 C464 0.930 . S
H482 C471 0.930 . S
H483 C473 0.931 . S
H484 C474 0.930 . S
H485 C475 0.930 . S
Tb486 N517 2.660 . S
Tb486 N524 2.600 . S
Tb486 O530 2.546 . S
Tb486 O531 2.610 . S
Tb486 O533 2.320 . S
Tb486 O534 2.552 . S
Tb486 O535 2.413 . S
Tb486 O537 2.362 . S
Tb486 O538 2.421 . S
Tb486 C550 2.833 . S
C487 C490 1.432 . S
C487 C491 1.414 . S
C487 N494 1.359 . S
C488 C490 1.417 . S
C488 C492 1.432 . S
C488 C500 1.410 . S
C489 C491 1.444 . S
C489 C492 1.317 . S
C489 H512 0.929 . S
C490 C487 1.432 . S
C490 C488 1.417 . S
C490 N498 1.360 . S
C491 C487 1.414 . S
C491 C489 1.444 . S
C491 C496 1.385 . S
C492 C488 1.432 . S
C492 C489 1.317 . S
C492 H504 0.930 . S
C493 C495 1.392 . S
C493 C496 1.370 . S
C493 H505 0.931 . S
N494 C487 1.359 . S
N494 C495 1.327 . S
N494 Tb497 2.600 . S
C495 C493 1.392 . S
C495 N494 1.327 . S
C495 H502 0.930 . S
C496 C491 1.385 . S
C496 C493 1.370 . S
C496 H515 0.930 . S
Tb497 N494 2.600 . S
Tb497 N498 2.660 . S
Tb497 O531 2.362 . S
Tb497 O532 2.421 . S
Tb497 O536 2.546 . S
Tb497 O537 2.610 . S
Tb497 O539 2.320 . S
Tb497 O540 2.552 . S
Tb497 O541 2.413 . S
Tb497 C561 2.833 . S
N498 C490 1.360 . S
N498 Tb497 2.660 . S
N498 C499 1.305 . S
C499 N498 1.305 . S
C499 C501 1.407 . S
C499 H506 0.930 . S
C500 C488 1.410 . S
C500 C501 1.345 . S
C500 H508 0.930 . S
C501 C499 1.407 . S
C501 C500 1.345 . S
C501 H503 0.930 . S
H502 C495 0.930 . S
H503 C501 0.930 . S
H504 C492 0.930 . S
H505 C493 0.931 . S
H506 C499 0.930 . S
H507 C521 0.930 . S
H508 C500 0.930 . S
H509 C527 0.930 . S
H510 C518 0.930 . S
H511 C525 0.931 . S
H512 C489 0.929 . S
H513 C519 0.930 . S
H514 C552 0.930 . S
H515 C496 0.930 . S
H516 C551 0.929 . S
N517 Tb486 2.660 . S
N517 C518 1.305 . S
N517 C522 1.360 . S
C518 H510 0.930 . S
C518 N517 1.305 . S
C518 C521 1.407 . S
C519 H513 0.930 . S
C519 C520 1.410 . S
C519 C521 1.345 . S
C520 C519 1.410 . S
C520 C522 1.417 . S
C520 C552 1.432 . S
C521 H507 0.930 . S
C521 C518 1.407 . S
C521 C519 1.345 . S
C522 N517 1.360 . S
C522 C520 1.417 . S
C522 C526 1.432 . S
H523 C528 0.930 . S
N524 Tb486 2.600 . S
N524 C526 1.359 . S
N524 C527 1.327 . S
C525 H511 0.931 . S
C525 C527 1.392 . S
C525 C528 1.370 . S
C526 C522 1.432 . S
C526 N524 1.359 . S
C526 C529 1.414 . S
C527 H509 0.930 . S
C527 N524 1.327 . S
C527 C525 1.392 . S
C528 H523 0.930 . S
C528 C525 1.370 . S
C528 C529 1.385 . S
C529 C526 1.414 . S
C529 C528 1.385 . S
C529 C551 1.444 . S
O530 Tb486 2.546 . S
O530 C550 1.251 . S
O531 Tb486 2.610 . S
O531 Tb497 2.362 . S
O531 C542 1.283 . S
O532 Tb497 2.421 . S
O532 C549 1.262 . S
O533 Tb486 2.320 . S
O533 C549 1.260 . S
O534 Tb486 2.552 . S
O534 C542 1.243 . S
O535 Tb486 2.413 . S
O535 C550 1.256 . S
O536 Tb497 2.546 . S
O536 C561 1.251 . S
O537 Tb486 2.362 . S
O537 Tb497 2.610 . S
O537 C553 1.283 . S
O538 Tb486 2.421 . S
O538 C560 1.262 . S
O539 Tb497 2.320 . S
O539 C560 1.260 . S
O540 Tb497 2.552 . S
O540 C553 1.243 . S
O541 Tb497 2.413 . S
O541 C561 1.256 . S
C542 O531 1.283 . S
C542 O534 1.243 . S
C543 C545 1.382 . S
C543 C547 1.393 . S
C543 C550 1.500 . S
C544 C545 1.400 . S
C544 C546 1.384 . S
C545 C543 1.382 . S
C545 C544 1.400 . S
C545 H562 0.930 . S
C546 C544 1.384 . S
C546 C548 1.392 . S
C546 H563 0.931 . S
C547 C543 1.393 . S
C547 C548 1.401 . S
C547 H564 0.930 . S
C548 C546 1.392 . S
C548 C547 1.401 . S
C548 H565 0.930 . S
C549 O532 1.262 . S
C549 O533 1.260 . S
C550 Tb486 2.833 . S
C550 O530 1.251 . S
C550 O535 1.256 . S
C550 C543 1.500 . S
C551 H516 0.929 . S
C551 C529 1.444 . S
C551 C552 1.317 . S
C552 H514 0.930 . S
C552 C520 1.432 . S
C552 C551 1.317 . S
C553 O537 1.283 . S
C553 O540 1.243 . S
C554 C555 1.382 . S
C554 C558 1.393 . S
C554 C561 1.500 . S
C555 C554 1.382 . S
C555 C556 1.400 . S
C555 H566 0.930 . S
C556 C555 1.400 . S
C556 C557 1.384 . S
C557 C556 1.384 . S
C557 C559 1.392 . S
C557 H567 0.931 . S
C558 C554 1.393 . S
C558 C559 1.401 . S
C558 H568 0.930 . S
C559 C557 1.392 . S
C559 C558 1.401 . S
C559 H569 0.930 . S
C560 O538 1.262 . S
C560 O539 1.260 . S
C561 Tb497 2.833 . S
C561 O536 1.251 . S
C561 O541 1.256 . S
C561 C554 1.500 . S
H562 C545 0.930 . S
H563 C546 0.931 . S
H564 C547 0.930 . S
H565 C548 0.930 . S
H566 C555 0.930 . S
H567 C557 0.931 . S
H568 C558 0.930 . S
H569 C559 0.930 . S
Tb570 N601 2.660 . S
Tb570 N608 2.600 . S
Tb570 O614 2.546 . S
Tb570 O615 2.610 . S
Tb570 O617 2.320 . S
Tb570 O618 2.552 . S
Tb570 O619 2.413 . S
Tb570 O621 2.362 . S
Tb570 O622 2.421 . S
Tb570 C634 2.833 . S
C571 C574 1.432 . S
C571 C575 1.414 . S
C571 N578 1.359 . S
C572 C574 1.417 . S
C572 C576 1.432 . S
C572 C584 1.410 . S
C573 C575 1.444 . S
C573 C576 1.317 . S
C573 H596 0.929 . S
C574 C571 1.432 . S
C574 C572 1.417 . S
C574 N582 1.360 . S
C575 C571 1.414 . S
C575 C573 1.444 . S
C575 C580 1.385 . S
C576 C572 1.432 . S
C576 C573 1.317 . S
C576 H588 0.930 . S
C577 C579 1.392 . S
C577 C580 1.370 . S
C577 H589 0.931 . S
N578 C571 1.359 . S
N578 C579 1.327 . S
N578 Tb581 2.600 . S
C579 C577 1.392 . S
C579 N578 1.327 . S
C579 H586 0.930 . S
C580 C575 1.385 . S
C580 C577 1.370 . S
C580 H599 0.930 . S
Tb581 N578 2.600 . S
Tb581 N582 2.660 . S
Tb581 O615 2.362 . S
Tb581 O616 2.421 . S
Tb581 O620 2.546 . S
Tb581 O621 2.610 . S
Tb581 O623 2.320 . S
Tb581 O624 2.552 . S
Tb581 O625 2.413 . S
Tb581 C645 2.833 . S
N582 C574 1.360 . S
N582 Tb581 2.660 . S
N582 C583 1.305 . S
C583 N582 1.305 . S
C583 C585 1.407 . S
C583 H590 0.930 . S
C584 C572 1.410 . S
C584 C585 1.345 . S
C584 H592 0.930 . S
C585 C583 1.407 . S
C585 C584 1.345 . S
C585 H587 0.930 . S
H586 C579 0.930 . S
H587 C585 0.930 . S
H588 C576 0.930 . S
H589 C577 0.931 . S
H590 C583 0.930 . S
H591 C605 0.930 . S
H592 C584 0.930 . S
H593 C611 0.930 . S
H594 C602 0.930 . S
H595 C609 0.931 . S
H596 C573 0.929 . S
H597 C603 0.930 . S
H598 C636 0.930 . S
H599 C580 0.930 . S
H600 C635 0.929 . S
N601 Tb570 2.660 . S
N601 C602 1.305 . S
N601 C606 1.360 . S
C602 H594 0.930 . S
C602 N601 1.305 . S
C602 C605 1.407 . S
C603 H597 0.930 . S
C603 C604 1.410 . S
C603 C605 1.345 . S
C604 C603 1.410 . S
C604 C606 1.417 . S
C604 C636 1.432 . S
C605 H591 0.930 . S
C605 C602 1.407 . S
C605 C603 1.345 . S
C606 N601 1.360 . S
C606 C604 1.417 . S
C606 C610 1.432 . S
H607 C612 0.930 . S
N608 Tb570 2.600 . S
N608 C610 1.359 . S
N608 C611 1.327 . S
C609 H595 0.931 . S
C609 C611 1.392 . S
C609 C612 1.370 . S
C610 C606 1.432 . S
C610 N608 1.359 . S
C610 C613 1.414 . S
C611 H593 0.930 . S
C611 N608 1.327 . S
C611 C609 1.392 . S
C612 H607 0.930 . S
C612 C609 1.370 . S
C612 C613 1.385 . S
C613 C610 1.414 . S
C613 C612 1.385 . S
C613 C635 1.444 . S
O614 Tb570 2.546 . S
O614 C634 1.251 . S
O615 Tb570 2.610 . S
O615 Tb581 2.362 . S
O615 C626 1.283 . S
O616 Tb581 2.421 . S
O616 C633 1.262 . S
O617 Tb570 2.320 . S
O617 C633 1.260 . S
O618 Tb570 2.552 . S
O618 C626 1.243 . S
O619 Tb570 2.413 . S
O619 C634 1.256 . S
O620 Tb581 2.546 . S
O620 C645 1.251 . S
O621 Tb570 2.362 . S
O621 Tb581 2.610 . S
O621 C637 1.283 . S
O622 Tb570 2.421 . S
O622 C644 1.262 . S
O623 Tb581 2.320 . S
O623 C644 1.260 . S
O624 Tb581 2.552 . S
O624 C637 1.243 . S
O625 Tb581 2.413 . S
O625 C645 1.256 . S
C626 O615 1.283 . S
C626 O618 1.243 . S
C627 C629 1.382 . S
C627 C631 1.393 . S
C627 C634 1.500 . S
C628 C629 1.400 . S
C628 C630 1.384 . S
C629 C627 1.382 . S
C629 C628 1.400 . S
C629 H646 0.930 . S
C630 C628 1.384 . S
C630 C632 1.392 . S
C630 H647 0.931 . S
C631 C627 1.393 . S
C631 C632 1.401 . S
C631 H648 0.930 . S
C632 C630 1.392 . S
C632 C631 1.401 . S
C632 H649 0.930 . S
C633 O616 1.262 . S
C633 O617 1.260 . S
C634 Tb570 2.833 . S
C634 O614 1.251 . S
C634 O619 1.256 . S
C634 C627 1.500 . S
C635 H600 0.929 . S
C635 C613 1.444 . S
C635 C636 1.317 . S
C636 H598 0.930 . S
C636 C604 1.432 . S
C636 C635 1.317 . S
C637 O621 1.283 . S
C637 O624 1.243 . S
C638 C639 1.382 . S
C638 C642 1.393 . S
C638 C645 1.500 . S
C639 C638 1.382 . S
C639 C640 1.400 . S
C639 H650 0.930 . S
C640 C639 1.400 . S
C640 C641 1.384 . S
C641 C640 1.384 . S
C641 C643 1.392 . S
C641 H651 0.931 . S
C642 C638 1.393 . S
C642 C643 1.401 . S
C642 H652 0.930 . S
C643 C641 1.392 . S
C643 C642 1.401 . S
C643 H653 0.930 . S
C644 O622 1.262 . S
C644 O623 1.260 . S
C645 Tb581 2.833 . S
C645 O620 1.251 . S
C645 O625 1.256 . S
C645 C638 1.500 . S
H646 C629 0.930 . S
H647 C630 0.931 . S
H648 C631 0.930 . S
H649 C632 0.930 . S
H650 C639 0.930 . S
H651 C641 0.931 . S
H652 C642 0.930 . S
H653 C643 0.930 . S
Tb654 N685 2.660 . S
Tb654 N692 2.600 . S
Tb654 O698 2.546 . S
Tb654 O699 2.610 . S
Tb654 O701 2.320 . S
Tb654 O702 2.552 . S
Tb654 O703 2.413 . S
Tb654 O705 2.362 . S
Tb654 O706 2.421 . S
Tb654 C718 2.833 . S
C655 C658 1.432 . S
C655 C659 1.414 . S
C655 N662 1.359 . S
C656 C658 1.417 . S
C656 C660 1.432 . S
C656 C668 1.410 . S
C657 C659 1.444 . S
C657 C660 1.317 . S
C657 H680 0.929 . S
C658 C655 1.432 . S
C658 C656 1.417 . S
C658 N666 1.360 . S
C659 C655 1.414 . S
C659 C657 1.444 . S
C659 C664 1.385 . S
C660 C656 1.432 . S
C660 C657 1.317 . S
C660 H672 0.930 . S
C661 C663 1.392 . S
C661 C664 1.370 . S
C661 H673 0.931 . S
N662 C655 1.359 . S
N662 C663 1.327 . S
N662 Tb665 2.600 . S
C663 C661 1.392 . S
C663 N662 1.327 . S
C663 H670 0.930 . S
C664 C659 1.385 . S
C664 C661 1.370 . S
C664 H683 0.930 . S
Tb665 N662 2.600 . S
Tb665 N666 2.660 . S
Tb665 O699 2.362 . S
Tb665 O700 2.421 . S
Tb665 O704 2.546 . S
Tb665 O705 2.610 . S
Tb665 O707 2.320 . S
Tb665 O708 2.552 . S
Tb665 O709 2.413 . S
Tb665 C729 2.833 . S
N666 C658 1.360 . S
N666 Tb665 2.660 . S
N666 C667 1.305 . S
C667 N666 1.305 . S
C667 C669 1.407 . S
C667 H674 0.930 . S
C668 C656 1.410 . S
C668 C669 1.345 . S
C668 H676 0.930 . S
C669 C667 1.407 . S
C669 C668 1.345 . S
C669 H671 0.930 . S
H670 C663 0.930 . S
H671 C669 0.930 . S
H672 C660 0.930 . S
H673 C661 0.931 . S
H674 C667 0.930 . S
H675 C689 0.930 . S
H676 C668 0.930 . S
H677 C695 0.930 . S
H678 C686 0.930 . S
H679 C693 0.931 . S
H680 C657 0.929 . S
H681 C687 0.930 . S
H682 C720 0.930 . S
H683 C664 0.930 . S
H684 C719 0.929 . S
N685 Tb654 2.660 . S
N685 C686 1.305 . S
N685 C690 1.360 . S
C686 H678 0.930 . S
C686 N685 1.305 . S
C686 C689 1.407 . S
C687 H681 0.930 . S
C687 C688 1.410 . S
C687 C689 1.345 . S
C688 C687 1.410 . S
C688 C690 1.417 . S
C688 C720 1.432 . S
C689 H675 0.930 . S
C689 C686 1.407 . S
C689 C687 1.345 . S
C690 N685 1.360 . S
C690 C688 1.417 . S
C690 C694 1.432 . S
H691 C696 0.930 . S
N692 Tb654 2.600 . S
N692 C694 1.359 . S
N692 C695 1.327 . S
C693 H679 0.931 . S
C693 C695 1.392 . S
C693 C696 1.370 . S
C694 C690 1.432 . S
C694 N692 1.359 . S
C694 C697 1.414 . S
C695 H677 0.930 . S
C695 N692 1.327 . S
C695 C693 1.392 . S
C696 H691 0.930 . S
C696 C693 1.370 . S
C696 C697 1.385 . S
C697 C694 1.414 . S
C697 C696 1.385 . S
C697 C719 1.444 . S
O698 Tb654 2.546 . S
O698 C718 1.251 . S
O699 Tb654 2.610 . S
O699 Tb665 2.362 . S
O699 C710 1.283 . S
O700 Tb665 2.421 . S
O700 C717 1.262 . S
O701 Tb654 2.320 . S
O701 C717 1.260 . S
O702 Tb654 2.552 . S
O702 C710 1.243 . S
O703 Tb654 2.413 . S
O703 C718 1.256 . S
O704 Tb665 2.546 . S
O704 C729 1.251 . S
O705 Tb654 2.362 . S
O705 Tb665 2.610 . S
O705 C721 1.283 . S
O706 Tb654 2.421 . S
O706 C728 1.262 . S
O707 Tb665 2.320 . S
O707 C728 1.260 . S
O708 Tb665 2.552 . S
O708 C721 1.243 . S
O709 Tb665 2.413 . S
O709 C729 1.256 . S
C710 O699 1.283 . S
C710 O702 1.243 . S
C711 C713 1.382 . S
C711 C715 1.393 . S
C711 C718 1.500 . S
C712 C713 1.400 . S
C712 C714 1.384 . S
C713 C711 1.382 . S
C713 C712 1.400 . S
C713 H730 0.930 . S
C714 C712 1.384 . S
C714 C716 1.392 . S
C714 H731 0.931 . S
C715 C711 1.393 . S
C715 C716 1.401 . S
C715 H732 0.930 . S
C716 C714 1.392 . S
C716 C715 1.401 . S
C716 H733 0.930 . S
C717 O700 1.262 . S
C717 O701 1.260 . S
C718 Tb654 2.833 . S
C718 O698 1.251 . S
C718 O703 1.256 . S
C718 C711 1.500 . S
C719 H684 0.929 . S
C719 C697 1.444 . S
C719 C720 1.317 . S
C720 H682 0.930 . S
C720 C688 1.432 . S
C720 C719 1.317 . S
C721 O705 1.283 . S
C721 O708 1.243 . S
C722 C723 1.382 . S
C722 C726 1.393 . S
C722 C729 1.500 . S
C723 C722 1.382 . S
C723 C724 1.400 . S
C723 H734 0.930 . S
C724 C723 1.400 . S
C724 C725 1.384 . S
C725 C724 1.384 . S
C725 C727 1.392 . S
C725 H735 0.931 . S
C726 C722 1.393 . S
C726 C727 1.401 . S
C726 H736 0.930 . S
C727 C725 1.392 . S
C727 C726 1.401 . S
C727 H737 0.930 . S
C728 O706 1.262 . S
C728 O707 1.260 . S
C729 Tb665 2.833 . S
C729 O704 1.251 . S
C729 O709 1.256 . S
C729 C722 1.500 . S
H730 C713 0.930 . S
H731 C714 0.931 . S
H732 C715 0.930 . S
H733 C716 0.930 . S
H734 C723 0.930 . S
H735 C725 0.931 . S
H736 C726 0.930 . S
H737 C727 0.930 . S
Tb738 N769 2.660 . S
Tb738 N776 2.600 . S
Tb738 O782 2.546 . S
Tb738 O783 2.610 . S
Tb738 O785 2.320 . S
Tb738 O786 2.552 . S
Tb738 O787 2.413 . S
Tb738 O789 2.362 . S
Tb738 O790 2.421 . S
Tb738 C802 2.833 . S
C739 C742 1.432 . S
C739 C743 1.414 . S
C739 N746 1.359 . S
C740 C742 1.417 . S
C740 C744 1.432 . S
C740 C752 1.410 . S
C741 C743 1.444 . S
C741 C744 1.317 . S
C741 H764 0.929 . S
C742 C739 1.432 . S
C742 C740 1.417 . S
C742 N750 1.360 . S
C743 C739 1.414 . S
C743 C741 1.444 . S
C743 C748 1.385 . S
C744 C740 1.432 . S
C744 C741 1.317 . S
C744 H756 0.930 . S
C745 C747 1.392 . S
C745 C748 1.370 . S
C745 H757 0.931 . S
N746 C739 1.359 . S
N746 C747 1.327 . S
N746 Tb749 2.600 . S
C747 C745 1.392 . S
C747 N746 1.327 . S
C747 H754 0.930 . S
C748 C743 1.385 . S
C748 C745 1.370 . S
C748 H767 0.930 . S
Tb749 N746 2.600 . S
Tb749 N750 2.660 . S
Tb749 O783 2.362 . S
Tb749 O784 2.421 . S
Tb749 O788 2.546 . S
Tb749 O789 2.610 . S
Tb749 O791 2.320 . S
Tb749 O792 2.552 . S
Tb749 O793 2.413 . S
Tb749 C813 2.833 . S
N750 C742 1.360 . S
N750 Tb749 2.660 . S
N750 C751 1.305 . S
C751 N750 1.305 . S
C751 C753 1.407 . S
C751 H758 0.930 . S
C752 C740 1.410 . S
C752 C753 1.345 . S
C752 H760 0.930 1_655 S
C753 C751 1.407 . S
C753 C752 1.345 . S
C753 H755 0.930 . S
H754 C747 0.930 . S
H755 C753 0.930 . S
H756 C744 0.930 . S
H757 C745 0.931 . S
H758 C751 0.930 . S
H759 C773 0.930 . S
H760 C752 0.930 1_455 S
H761 C779 0.930 . S
H762 C770 0.930 . S
H763 C777 0.931 . S
H764 C741 0.929 . S
H765 C771 0.930 . S
H766 C804 0.930 . S
H767 C748 0.930 . S
H768 C803 0.929 . S
N769 Tb738 2.660 . S
N769 C770 1.305 . S
N769 C774 1.360 . S
C770 H762 0.930 . S
C770 N769 1.305 . S
C770 C773 1.407 . S
C771 H765 0.930 . S
C771 C772 1.410 . S
C771 C773 1.345 . S
C772 C771 1.410 . S
C772 C774 1.417 . S
C772 C804 1.432 . S
C773 H759 0.930 . S
C773 C770 1.407 . S
C773 C771 1.345 . S
C774 N769 1.360 . S
C774 C772 1.417 . S
C774 C778 1.432 . S
H775 C780 0.930 . S
N776 Tb738 2.600 . S
N776 C778 1.359 . S
N776 C779 1.327 . S
C777 H763 0.931 . S
C777 C779 1.392 . S
C777 C780 1.370 . S
C778 C774 1.432 . S
C778 N776 1.359 . S
C778 C781 1.414 . S
C779 H761 0.930 . S
C779 N776 1.327 . S
C779 C777 1.392 . S
C780 H775 0.930 . S
C780 C777 1.370 . S
C780 C781 1.385 . S
C781 C778 1.414 . S
C781 C780 1.385 . S
C781 C803 1.444 . S
O782 Tb738 2.546 . S
O782 C802 1.251 . S
O783 Tb738 2.610 . S
O783 Tb749 2.362 . S
O783 C794 1.283 . S
O784 Tb749 2.421 . S
O784 C801 1.262 . S
O785 Tb738 2.320 . S
O785 C801 1.260 . S
O786 Tb738 2.552 . S
O786 C794 1.243 . S
O787 Tb738 2.413 . S
O787 C802 1.256 . S
O788 Tb749 2.546 . S
O788 C813 1.251 . S
O789 Tb738 2.362 . S
O789 Tb749 2.610 . S
O789 C805 1.283 . S
O790 Tb738 2.421 . S
O790 C812 1.262 . S
O791 Tb749 2.320 . S
O791 C812 1.260 . S
O792 Tb749 2.552 . S
O792 C805 1.243 . S
O793 Tb749 2.413 . S
O793 C813 1.256 . S
C794 O783 1.283 . S
C794 O786 1.243 . S
C795 C797 1.382 . S
C795 C799 1.393 . S
C795 C802 1.500 . S
C796 C797 1.400 . S
C796 C798 1.384 . S
C797 C795 1.382 . S
C797 C796 1.400 . S
C797 H814 0.930 . S
C798 C796 1.384 . S
C798 C800 1.392 . S
C798 H815 0.931 . S
C799 C795 1.393 . S
C799 C800 1.401 . S
C799 H816 0.930 . S
C800 C798 1.392 . S
C800 C799 1.401 . S
C800 H817 0.930 . S
C801 O784 1.262 . S
C801 O785 1.260 . S
C802 Tb738 2.833 . S
C802 O782 1.251 . S
C802 O787 1.256 . S
C802 C795 1.500 . S
C803 H768 0.929 . S
C803 C781 1.444 . S
C803 C804 1.317 . S
C804 H766 0.930 . S
C804 C772 1.432 . S
C804 C803 1.317 . S
C805 O789 1.283 . S
C805 O792 1.243 . S
C806 C807 1.382 . S
C806 C810 1.393 . S
C806 C813 1.500 . S
C807 C806 1.382 . S
C807 C808 1.400 . S
C807 H818 0.930 . S
C808 C807 1.400 . S
C808 C809 1.384 . S
C809 C808 1.384 . S
C809 C811 1.392 . S
C809 H819 0.931 . S
C810 C806 1.393 . S
C810 C811 1.401 . S
C810 H820 0.930 . S
C811 C809 1.392 . S
C811 C810 1.401 . S
C811 H821 0.930 . S
C812 O790 1.262 . S
C812 O791 1.260 . S
C813 Tb749 2.833 . S
C813 O788 1.251 . S
C813 O793 1.256 . S
C813 C806 1.500 . S
H814 C797 0.930 . S
H815 C798 0.931 . S
H816 C799 0.930 . S
H817 C800 0.930 . S
H818 C807 0.930 . S
H819 C809 0.931 . S
H820 C810 0.930 . S
H821 C811 0.930 . S
Tb822 N853 2.660 . S
Tb822 N860 2.600 . S
Tb822 O866 2.546 . S
Tb822 O867 2.610 . S
Tb822 O869 2.320 . S
Tb822 O870 2.552 . S
Tb822 O871 2.413 . S
Tb822 O873 2.362 . S
Tb822 O874 2.421 . S
Tb822 C886 2.833 . S
C823 C826 1.432 . S
C823 C827 1.414 . S
C823 N830 1.359 . S
C824 C826 1.417 . S
C824 C828 1.432 . S
C824 C836 1.410 . S
C825 C827 1.444 . S
C825 C828 1.317 . S
C825 H848 0.929 . S
C826 C823 1.432 . S
C826 C824 1.417 . S
C826 N834 1.360 . S
C827 C823 1.414 . S
C827 C825 1.444 . S
C827 C832 1.385 . S
C828 C824 1.432 . S
C828 C825 1.317 . S
C828 H840 0.930 . S
C829 C831 1.392 . S
C829 C832 1.370 . S
C829 H841 0.931 . S
N830 C823 1.359 . S
N830 C831 1.327 . S
N830 Tb833 2.600 . S
C831 C829 1.392 . S
C831 N830 1.327 . S
C831 H838 0.930 . S
C832 C827 1.385 . S
C832 C829 1.370 . S
C832 H851 0.930 . S
Tb833 N830 2.600 . S
Tb833 N834 2.660 . S
Tb833 O867 2.362 . S
Tb833 O868 2.421 . S
Tb833 O872 2.546 . S
Tb833 O873 2.610 . S
Tb833 O875 2.320 . S
Tb833 O876 2.552 . S
Tb833 O877 2.413 . S
Tb833 C897 2.833 . S
N834 C826 1.360 . S
N834 Tb833 2.660 . S
N834 C835 1.305 . S
C835 N834 1.305 . S
C835 C837 1.407 . S
C835 H842 0.930 . S
C836 C824 1.410 . S
C836 C837 1.345 . S
C836 H844 0.930 . S
C837 C835 1.407 . S
C837 C836 1.345 . S
C837 H839 0.930 . S
H838 C831 0.930 . S
H839 C837 0.930 . S
H840 C828 0.930 . S
H841 C829 0.931 . S
H842 C835 0.930 . S
H843 C857 0.930 . S
H844 C836 0.930 . S
H845 C863 0.930 . S
H846 C854 0.930 . S
H847 C861 0.931 . S
H848 C825 0.929 . S
H849 C855 0.930 . S
H850 C888 0.930 . S
H851 C832 0.930 . S
H852 C887 0.929 . S
N853 Tb822 2.660 . S
N853 C854 1.305 . S
N853 C858 1.360 . S
C854 H846 0.930 . S
C854 N853 1.305 . S
C854 C857 1.407 . S
C855 H849 0.930 . S
C855 C856 1.410 . S
C855 C857 1.345 . S
C856 C855 1.410 . S
C856 C858 1.417 . S
C856 C888 1.432 . S
C857 H843 0.930 . S
C857 C854 1.407 . S
C857 C855 1.345 . S
C858 N853 1.360 . S
C858 C856 1.417 . S
C858 C862 1.432 . S
H859 C864 0.930 . S
N860 Tb822 2.600 . S
N860 C862 1.359 . S
N860 C863 1.327 . S
C861 H847 0.931 . S
C861 C863 1.392 . S
C861 C864 1.370 . S
C862 C858 1.432 . S
C862 N860 1.359 . S
C862 C865 1.414 . S
C863 H845 0.930 . S
C863 N860 1.327 . S
C863 C861 1.392 . S
C864 H859 0.930 . S
C864 C861 1.370 . S
C864 C865 1.385 . S
C865 C862 1.414 . S
C865 C864 1.385 . S
C865 C887 1.444 . S
O866 Tb822 2.546 . S
O866 C886 1.251 . S
O867 Tb822 2.610 . S
O867 Tb833 2.362 . S
O867 C878 1.283 . S
O868 Tb833 2.421 . S
O868 C885 1.262 . S
O869 Tb822 2.320 . S
O869 C885 1.260 . S
O870 Tb822 2.552 . S
O870 C878 1.243 . S
O871 Tb822 2.413 . S
O871 C886 1.256 . S
O872 Tb833 2.546 . S
O872 C897 1.251 . S
O873 Tb822 2.362 . S
O873 Tb833 2.610 . S
O873 C889 1.283 . S
O874 Tb822 2.421 . S
O874 C896 1.262 . S
O875 Tb833 2.320 . S
O875 C896 1.260 . S
O876 Tb833 2.552 . S
O876 C889 1.243 . S
O877 Tb833 2.413 . S
O877 C897 1.256 . S
C878 O867 1.283 . S
C878 O870 1.243 . S
C879 C881 1.382 . S
C879 C883 1.393 . S
C879 C886 1.500 . S
C880 C881 1.400 . S
C880 C882 1.384 . S
C881 C879 1.382 . S
C881 C880 1.400 . S
C881 H898 0.930 . S
C882 C880 1.384 . S
C882 C884 1.392 . S
C882 H899 0.931 . S
C883 C879 1.393 . S
C883 C884 1.401 . S
C883 H900 0.930 . S
C884 C882 1.392 . S
C884 C883 1.401 . S
C884 H901 0.930 . S
C885 O868 1.262 . S
C885 O869 1.260 . S
C886 Tb822 2.833 . S
C886 O866 1.251 . S
C886 O871 1.256 . S
C886 C879 1.500 . S
C887 H852 0.929 . S
C887 C865 1.444 . S
C887 C888 1.317 . S
C888 H850 0.930 . S
C888 C856 1.432 . S
C888 C887 1.317 . S
C889 O873 1.283 . S
C889 O876 1.243 . S
C890 C891 1.382 . S
C890 C894 1.393 . S
C890 C897 1.500 . S
C891 C890 1.382 . S
C891 C892 1.400 . S
C891 H902 0.930 . S
C892 C891 1.400 . S
C892 C893 1.384 . S
C893 C892 1.384 . S
C893 C895 1.392 . S
C893 H903 0.931 . S
C894 C890 1.393 . S
C894 C895 1.401 . S
C894 H904 0.930 . S
C895 C893 1.392 . S
C895 C894 1.401 . S
C895 H905 0.930 . S
C896 O874 1.262 . S
C896 O875 1.260 . S
C897 Tb833 2.833 . S
C897 O872 1.251 . S
C897 O877 1.256 . S
C897 C890 1.500 . S
H898 C881 0.930 . S
H899 C882 0.931 . S
H900 C883 0.930 . S
H901 C884 0.930 . S
H902 C891 0.930 . S
H903 C893 0.931 . S
H904 C894 0.930 . S
H905 C895 0.930 . S
Tb906 N937 2.660 . S
Tb906 N944 2.600 . S
Tb906 O950 2.546 . S
Tb906 O951 2.610 . S
Tb906 O953 2.320 . S
Tb906 O954 2.552 . S
Tb906 O955 2.413 . S
Tb906 O957 2.362 . S
Tb906 O958 2.421 . S
Tb906 C970 2.833 . S
C907 C910 1.432 . S
C907 C911 1.414 . S
C907 N914 1.359 . S
C908 C910 1.417 . S
C908 C912 1.432 . S
C908 C920 1.410 . S
C909 C911 1.444 . S
C909 C912 1.317 . S
C909 H932 0.929 . S
C910 C907 1.432 . S
C910 C908 1.417 . S
C910 N918 1.360 . S
C911 C907 1.414 . S
C911 C909 1.444 . S
C911 C916 1.385 . S
C912 C908 1.432 . S
C912 C909 1.317 . S
C912 H924 0.930 . S
C913 C915 1.392 . S
C913 C916 1.370 . S
C913 H925 0.931 . S
N914 C907 1.359 . S
N914 C915 1.327 . S
N914 Tb917 2.600 . S
C915 C913 1.392 . S
C915 N914 1.327 . S
C915 H922 0.930 . S
C916 C911 1.385 . S
C916 C913 1.370 . S
C916 H935 0.930 . S
Tb917 N914 2.600 . S
Tb917 N918 2.660 . S
Tb917 O951 2.362 . S
Tb917 O952 2.421 . S
Tb917 O956 2.546 . S
Tb917 O957 2.610 . S
Tb917 O959 2.320 . S
Tb917 O960 2.552 . S
Tb917 O961 2.413 . S
Tb917 C981 2.833 . S
N918 C910 1.360 . S
N918 Tb917 2.660 . S
N918 C919 1.305 . S
C919 N918 1.305 . S
C919 C921 1.407 . S
C919 H926 0.930 . S
C920 C908 1.410 . S
C920 C921 1.345 . S
C920 H928 0.930 . S
C921 C919 1.407 . S
C921 C920 1.345 . S
C921 H923 0.930 . S
H922 C915 0.930 . S
H923 C921 0.930 . S
H924 C912 0.930 . S
H925 C913 0.931 . S
H926 C919 0.930 . S
H927 C941 0.930 . S
H928 C920 0.930 . S
H929 C947 0.930 . S
H930 C938 0.930 . S
H931 C945 0.931 . S
H932 C909 0.929 . S
H933 C939 0.930 . S
H934 C972 0.930 . S
H935 C916 0.930 . S
H936 C971 0.929 . S
N937 Tb906 2.660 . S
N937 C938 1.305 . S
N937 C942 1.360 . S
C938 H930 0.930 . S
C938 N937 1.305 . S
C938 C941 1.407 . S
C939 H933 0.930 . S
C939 C940 1.410 . S
C939 C941 1.345 . S
C940 C939 1.410 . S
C940 C942 1.417 . S
C940 C972 1.432 . S
C941 H927 0.930 . S
C941 C938 1.407 . S
C941 C939 1.345 . S
C942 N937 1.360 . S
C942 C940 1.417 . S
C942 C946 1.432 . S
H943 C948 0.930 . S
N944 Tb906 2.600 . S
N944 C946 1.359 . S
N944 C947 1.327 . S
C945 H931 0.931 . S
C945 C947 1.392 . S
C945 C948 1.370 . S
C946 C942 1.432 . S
C946 N944 1.359 . S
C946 C949 1.414 . S
C947 H929 0.930 . S
C947 N944 1.327 . S
C947 C945 1.392 . S
C948 H943 0.930 . S
C948 C945 1.370 . S
C948 C949 1.385 . S
C949 C946 1.414 . S
C949 C948 1.385 . S
C949 C971 1.444 . S
O950 Tb906 2.546 . S
O950 C970 1.251 . S
O951 Tb906 2.610 . S
O951 Tb917 2.362 . S
O951 C962 1.283 . S
O952 Tb917 2.421 . S
O952 C969 1.262 . S
O953 Tb906 2.320 . S
O953 C969 1.260 . S
O954 Tb906 2.552 . S
O954 C962 1.243 . S
O955 Tb906 2.413 . S
O955 C970 1.256 . S
O956 Tb917 2.546 . S
O956 C981 1.251 . S
O957 Tb906 2.362 . S
O957 Tb917 2.610 . S
O957 C973 1.283 . S
O958 Tb906 2.421 . S
O958 C980 1.262 . S
O959 Tb917 2.320 . S
O959 C980 1.260 . S
O960 Tb917 2.552 . S
O960 C973 1.243 . S
O961 Tb917 2.413 . S
O961 C981 1.256 . S
C962 O951 1.283 . S
C962 O954 1.243 . S
C963 C965 1.382 . S
C963 C967 1.393 . S
C963 C970 1.500 . S
C964 C965 1.400 . S
C964 C966 1.384 . S
C965 C963 1.382 . S
C965 C964 1.400 . S
C965 H982 0.930 . S
C966 C964 1.384 . S
C966 C968 1.392 . S
C966 H983 0.931 . S
C967 C963 1.393 . S
C967 C968 1.401 . S
C967 H984 0.930 . S
C968 C966 1.392 . S
C968 C967 1.401 . S
C968 H985 0.930 . S
C969 O952 1.262 . S
C969 O953 1.260 . S
C970 Tb906 2.833 . S
C970 O950 1.251 . S
C970 O955 1.256 . S
C970 C963 1.500 . S
C971 H936 0.929 . S
C971 C949 1.444 . S
C971 C972 1.317 . S
C972 H934 0.930 . S
C972 C940 1.432 . S
C972 C971 1.317 . S
C973 O957 1.283 . S
C973 O960 1.243 . S
C974 C975 1.382 . S
C974 C978 1.393 . S
C974 C981 1.500 . S
C975 C974 1.382 . S
C975 C976 1.400 . S
C975 H986 0.930 . S
C976 C975 1.400 . S
C976 C977 1.384 . S
C977 C976 1.384 . S
C977 C979 1.392 . S
C977 H987 0.931 . S
C978 C974 1.393 . S
C978 C979 1.401 . S
C978 H988 0.930 . S
C979 C977 1.392 . S
C979 C978 1.401 . S
C979 H989 0.930 . S
C980 O958 1.262 . S
C980 O959 1.260 . S
C981 Tb917 2.833 . S
C981 O956 1.251 . S
C981 O961 1.256 . S
C981 C974 1.500 . S
H982 C965 0.930 . S
H983 C966 0.931 . S
H984 C967 0.930 . S
H985 C968 0.930 . S
H986 C975 0.930 . S
H987 C977 0.931 . S
H988 C978 0.930 . S
H989 C979 0.930 . S
H990 C998 0.950 . S
H991 C1003 0.950 . S
H992 C1000 0.950 . S
H993 C1002 0.950 . S
H994 C1004 0.950 . S
H995 C1006 0.950 . S
H996 C1008 0.950 . S
H997 C1009 0.950 . S
C998 H990 0.950 . S
C998 C999 1.386 . S
C998 C1000 1.391 . S
C999 C998 1.386 . S
C999 C1003 1.393 . S
C1000 H992 0.950 . S
C1000 C998 1.391 . S
C1000 C1001 1.400 . S
C1001 C1000 1.400 . S
C1001 C1002 1.398 . S
C1001 C1007 1.491 . S
C1002 H993 0.950 . S
C1002 C1001 1.398 . S
C1002 C1003 1.391 . S
C1003 H991 0.950 . S
C1003 C999 1.393 . S
C1003 C1002 1.391 . S
C1004 H994 0.950 . S
C1004 C1005 1.386 . S
C1004 C1006 1.391 . S
C1005 C1004 1.386 . S
C1005 C1009 1.393 . S
C1006 H995 0.950 . S
C1006 C1004 1.391 . S
C1006 C1007 1.400 . S
C1007 C1001 1.491 . S
C1007 C1006 1.400 . S
C1007 C1008 1.398 . S
C1008 H996 0.950 . S
C1008 C1007 1.398 . S
C1008 C1009 1.391 . S
C1009 H997 0.950 . S
C1009 C1005 1.393 . S
C1009 C1008 1.391 . S
H1010 C1018 0.950 . S
H1011 C1023 0.950 . S
H1012 C1020 0.950 . S
H1013 C1022 0.950 . S
H1014 C1024 0.950 . S
H1015 C1026 0.950 . S
H1016 C1028 0.950 . S
H1017 C1029 0.950 . S
C1018 H1010 0.950 . S
C1018 C1019 1.386 . S
C1018 C1020 1.391 . S
C1019 C1018 1.386 . S
C1019 C1023 1.393 . S
C1020 H1012 0.950 . S
C1020 C1018 1.391 . S
C1020 C1021 1.400 . S
C1021 C1020 1.400 . S
C1021 C1022 1.398 . S
C1021 C1027 1.491 . S
C1022 H1013 0.950 . S
C1022 C1021 1.398 . S
C1022 C1023 1.391 . S
C1023 H1011 0.950 . S
C1023 C1019 1.393 . S
C1023 C1022 1.391 . S
C1024 H1014 0.950 . S
C1024 C1025 1.386 . S
C1024 C1026 1.391 . S
C1025 C1024 1.386 . S
C1025 C1029 1.393 . S
C1026 H1015 0.950 . S
C1026 C1024 1.391 . S
C1026 C1027 1.400 . S
C1027 C1021 1.491 . S
C1027 C1026 1.400 . S
C1027 C1028 1.398 . S
C1028 H1016 0.950 . S
C1028 C1027 1.398 . S
C1028 C1029 1.391 . S
C1029 H1017 0.950 . S
C1029 C1025 1.393 . S
C1029 C1028 1.391 . S
H1030 C1038 0.950 . S
H1031 C1043 0.950 . S
H1032 C1040 0.950 . S
H1033 C1042 0.950 . S
H1034 C1044 0.950 . S
H1035 C1046 0.950 . S
H1036 C1048 0.950 . S
H1037 C1049 0.950 . S
C1038 H1030 0.950 . S
C1038 C1039 1.386 . S
C1038 C1040 1.391 . S
C1039 C1038 1.386 . S
C1039 C1043 1.393 . S
C1040 H1032 0.950 . S
C1040 C1038 1.391 . S
C1040 C1041 1.400 . S
C1041 C1040 1.400 . S
C1041 C1042 1.398 . S
C1041 C1047 1.491 . S
C1042 H1033 0.950 . S
C1042 C1041 1.398 . S
C1042 C1043 1.391 . S
C1043 H1031 0.950 . S
C1043 C1039 1.393 . S
C1043 C1042 1.391 . S
C1044 H1034 0.950 . S
C1044 C1045 1.386 . S
C1044 C1046 1.391 . S
C1045 C1044 1.386 . S
C1045 C1049 1.393 . S
C1046 H1035 0.950 . S
C1046 C1044 1.391 . S
C1046 C1047 1.400 . S
C1047 C1041 1.491 . S
C1047 C1046 1.400 . S
C1047 C1048 1.398 . S
C1048 H1036 0.950 . S
C1048 C1047 1.398 . S
C1048 C1049 1.391 . S
C1049 H1037 0.950 . S
C1049 C1045 1.393 . S
C1049 C1048 1.391 . S
H1050 C1058 0.950 . S
H1051 C1063 0.950 . S
H1052 C1060 0.950 . S
H1053 C1062 0.950 . S
H1054 C1064 0.950 . S
H1055 C1066 0.950 . S
H1056 C1068 0.953 . S
H1057 C1069 0.972 . S
C1058 H1050 0.950 . S
C1058 C1059 1.386 . S
C1058 C1060 1.391 . S
C1059 C1058 1.386 . S
C1059 C1063 1.393 . S
C1060 H1052 0.950 . S
C1060 C1058 1.391 . S
C1060 C1061 1.400 . S
C1061 C1060 1.400 . S
C1061 C1062 1.398 . S
C1061 C1067 1.491 . S
C1062 H1053 0.950 . S
C1062 C1061 1.398 . S
C1062 C1063 1.391 . S
C1063 H1051 0.950 . S
C1063 C1059 1.393 . S
C1063 C1062 1.391 . S
C1064 H1054 0.950 . S
C1064 C1065 1.386 . S
C1064 C1066 1.391 . S
C1065 C1064 1.386 . S
C1065 C1069 1.386 1_556 S
C1066 H1055 0.950 . S
C1066 C1064 1.391 . S
C1066 C1067 1.400 . S
C1067 C1061 1.491 . S
C1067 C1066 1.400 . S
C1067 C1068 1.398 . S
C1068 H1056 0.953 . S
C1068 C1067 1.398 . S
C1068 C1069 1.377 1_556 S
C1069 H1057 0.972 . S
C1069 C1065 1.386 1_554 S
C1069 C1068 1.377 1_554 S
H1070 C1078 0.950 . S
H1071 C1083 0.950 . S
H1072 C1080 0.950 . S
H1073 C1082 0.950 . S
H1074 C1084 0.950 . S
H1075 C1086 0.950 . S
H1076 C1088 0.950 . S
H1077 C1089 0.950 . S
C1078 H1070 0.950 . S
C1078 C1079 1.386 . S
C1078 C1080 1.391 . S
C1079 C1078 1.386 . S
C1079 C1083 1.393 . S
C1080 H1072 0.950 . S
C1080 C1078 1.391 . S
C1080 C1081 1.400 . S
C1081 C1080 1.400 . S
C1081 C1082 1.398 . S
C1081 C1087 1.491 . S
C1082 H1073 0.950 . S
C1082 C1081 1.398 . S
C1082 C1083 1.391 . S
C1083 H1071 0.950 . S
C1083 C1079 1.393 . S
C1083 C1082 1.391 . S
C1084 H1074 0.950 . S
C1084 C1085 1.386 . S
C1084 C1086 1.391 1_554 S
C1085 C1084 1.386 . S
C1085 C1089 1.393 . S
C1086 H1075 0.950 . S
C1086 C1084 1.391 1_556 S
C1086 C1087 1.400 . S
C1087 C1081 1.491 . S
C1087 C1086 1.400 . S
C1087 C1088 1.398 1_556 S
C1088 H1076 0.950 . S
C1088 C1087 1.398 1_554 S
C1088 C1089 1.391 . S
C1089 H1077 0.950 . S
C1089 C1085 1.393 . S
C1089 C1088 1.391 . S
H1090 C1098 0.950 . S
H1091 C1103 0.950 . S
H1092 C1100 0.950 1_554 S
H1093 C1102 0.950 . S
H1094 C1104 0.950 . S
H1095 C1106 0.950 . S
H1096 C1108 0.950 . S
H1097 C1109 0.950 . S
C1098 H1090 0.950 . S
C1098 C1099 1.386 . S
C1098 C1100 1.391 . S
C1099 C1098 1.386 . S
C1099 C1103 1.393 . S
C1100 H1092 0.950 1_556 S
C1100 C1098 1.391 . S
C1100 C1101 1.400 . S
C1101 C1100 1.400 . S
C1101 C1102 1.398 . S
C1101 C1107 1.491 . S
C1102 H1093 0.950 . S
C1102 C1101 1.398 . S
C1102 C1103 1.391 . S
C1103 H1091 0.950 . S
C1103 C1099 1.393 . S
C1103 C1102 1.391 . S
C1104 H1094 0.950 . S
C1104 C1105 1.386 1_556 S
C1104 C1106 1.391 . S
C1105 C1104 1.386 1_554 S
C1105 C1109 1.393 . S
C1106 H1095 0.950 . S
C1106 C1104 1.391 . S
C1106 C1107 1.400 . S
C1107 C1101 1.491 . S
C1107 C1106 1.400 . S
C1107 C1108 1.398 1_556 S
C1108 H1096 0.950 . S
C1108 C1107 1.398 1_554 S
C1108 C1109 1.391 . S
C1109 H1097 0.950 . S
C1109 C1105 1.393 . S
C1109 C1108 1.391 . S
H1110 C1118 0.950 . S
H1111 C1123 0.950 . S
H1112 C1120 0.950 . S
H1113 C1122 0.950 . S
H1114 C1124 0.950 . S
H1115 C1126 0.950 . S
H1116 C1128 0.950 . S
H1117 C1129 0.950 . S
C1118 H1110 0.950 . S
C1118 C1119 1.386 . S
C1118 C1120 1.391 . S
C1119 C1118 1.386 . S
C1119 C1123 1.393 . S
C1120 H1112 0.950 . S
C1120 C1118 1.391 . S
C1120 C1121 1.400 . S
C1121 C1120 1.400 . S
C1121 C1122 1.398 . S
C1121 C1127 1.491 . S
C1122 H1113 0.950 . S
C1122 C1121 1.398 . S
C1122 C1123 1.391 . S
C1123 H1111 0.950 . S
C1123 C1119 1.393 . S
C1123 C1122 1.391 . S
C1124 H1114 0.950 . S
C1124 C1125 1.386 . S
C1124 C1126 1.391 . S
C1125 C1124 1.386 . S
C1125 C1129 1.393 1_554 S
C1126 H1115 0.950 . S
C1126 C1124 1.391 . S
C1126 C1127 1.400 1_554 S
C1127 C1121 1.491 . S
C1127 C1126 1.400 1_556 S
C1127 C1128 1.398 . S
C1128 H1116 0.950 . S
C1128 C1127 1.398 . S
C1128 C1129 1.391 . S
C1129 H1117 0.950 . S
C1129 C1125 1.393 1_556 S
C1129 C1128 1.391 . S
H1130 C1138 0.950 . S
H1131 C1143 0.950 . S
H1132 C1140 0.950 . S
H1133 C1142 0.950 . S
H1134 C1144 0.950 . S
H1135 C1146 0.950 . S
H1136 C1148 0.950 . S
H1137 C1149 0.950 . S
C1138 H1130 0.950 . S
C1138 C1139 1.386 . S
C1138 C1140 1.391 . S
C1139 C1138 1.386 . S
C1139 C1143 1.393 . S
C1140 H1132 0.950 . S
C1140 C1138 1.391 . S
C1140 C1141 1.400 . S
C1141 C1140 1.400 . S
C1141 C1142 1.398 . S
C1141 C1147 1.491 . S
C1142 H1133 0.950 . S
C1142 C1141 1.398 . S
C1142 C1143 1.391 . S
C1143 H1131 0.950 . S
C1143 C1139 1.393 . S
C1143 C1142 1.391 . S
C1144 H1134 0.950 . S
C1144 C1145 1.386 . S
C1144 C1146 1.391 . S
C1145 C1144 1.386 . S
C1145 C1149 1.393 . S
C1146 H1135 0.950 . S
C1146 C1144 1.391 . S
C1146 C1147 1.400 . S
C1147 C1141 1.491 . S
C1147 C1146 1.400 . S
C1147 C1148 1.398 . S
C1148 H1136 0.950 . S
C1148 C1147 1.398 . S
C1148 C1149 1.391 . S
C1149 H1137 0.950 . S
C1149 C1145 1.393 . S
C1149 C1148 1.391 . S
H1150 C1158 0.950 . S
H1151 C1163 0.950 . S
H1152 C1160 0.935 1_554 S
H1153 C1162 0.950 . S
H1154 C1164 0.951 . S
H1155 C1166 0.950 . S
H1156 C1168 0.950 . S
H1157 C1169 0.950 . S
C1158 H1150 0.950 . S
C1158 C1159 1.386 . S
C1158 C1160 1.404 . S
C1159 C1158 1.386 . S
C1159 C1163 1.393 . S
C1160 H1152 0.935 1_556 S
C1160 C1158 1.404 . S
C1160 C1161 1.403 . S
C1161 C1160 1.403 . S
C1161 C1162 1.398 . S
C1161 C1167 1.491 1_556 S
C1162 H1153 0.950 . S
C1162 C1161 1.398 . S
C1162 C1163 1.391 . S
C1163 H1151 0.950 . S
C1163 C1159 1.393 . S
C1163 C1162 1.391 . S
C1164 H1154 0.951 . S
C1164 C1165 1.386 . S
C1164 C1166 1.391 1_554 S
C1165 C1164 1.386 . S
C1165 C1169 1.393 . S
C1166 H1155 0.950 . S
C1166 C1164 1.391 1_556 S
C1166 C1167 1.400 1_556 S
C1167 C1161 1.491 1_554 S
C1167 C1166 1.400 1_554 S
C1167 C1168 1.398 . S
C1168 H1156 0.950 . S
C1168 C1167 1.398 . S
C1168 C1169 1.391 . S
C1169 H1157 0.950 . S
C1169 C1165 1.393 . S
C1169 C1168 1.391 . S
H1170 C1178 0.950 . S
H1171 C1183 0.950 . S
H1172 C1180 0.950 . S
H1173 C1182 0.950 . S
H1174 C1184 0.950 . S
H1175 C1186 0.950 . S
H1176 C1188 0.950 . S
H1177 C1189 0.950 . S
C1178 H1170 0.950 . S
C1178 C1179 1.386 . S
C1178 C1180 1.391 . S
C1179 C1178 1.386 . S
C1179 C1183 1.393 . S
C1180 H1172 0.950 . S
C1180 C1178 1.391 . S
C1180 C1181 1.400 . S
C1181 C1180 1.400 . S
C1181 C1182 1.398 . S
C1181 C1187 1.491 . S
C1182 H1173 0.950 . S
C1182 C1181 1.398 . S
C1182 C1183 1.391 . S
C1183 H1171 0.950 . S
C1183 C1179 1.393 . S
C1183 C1182 1.391 . S
C1184 H1174 0.950 . S
C1184 C1185 1.386 . S
C1184 C1186 1.391 . S
C1185 C1184 1.386 . S
C1185 C1189 1.393 . S
C1186 H1175 0.950 . S
C1186 C1184 1.391 . S
C1186 C1187 1.400 . S
C1187 C1181 1.491 . S
C1187 C1186 1.400 . S
C1187 C1188 1.398 . S
C1188 H1176 0.950 . S
C1188 C1187 1.398 . S
C1188 C1189 1.391 . S
C1189 H1177 0.950 . S
C1189 C1185 1.393 . S
C1189 C1188 1.391 . S
H1190 C1198 0.950 . S
H1191 C1203 0.950 . S
H1192 C1200 0.950 . S
H1193 C1202 0.950 . S
H1194 C1204 0.950 . S
H1195 C1206 0.950 . S
H1196 C1208 0.950 . S
H1197 C1209 0.950 . S
C1198 H1190 0.950 . S
C1198 C1199 1.386 . S
C1198 C1200 1.391 . S
C1199 C1198 1.386 . S
C1199 C1203 1.393 . S
C1200 H1192 0.950 . S
C1200 C1198 1.391 . S
C1200 C1201 1.400 . S
C1201 C1200 1.400 . S
C1201 C1202 1.398 . S
C1201 C1207 1.491 . S
C1202 H1193 0.950 . S
C1202 C1201 1.398 . S
C1202 C1203 1.391 . S
C1203 H1191 0.950 . S
C1203 C1199 1.393 . S
C1203 C1202 1.391 . S
C1204 H1194 0.950 . S
C1204 C1205 1.386 . S
C1204 C1206 1.391 . S
C1205 C1204 1.386 . S
C1205 C1209 1.393 . S
C1206 H1195 0.950 . S
C1206 C1204 1.391 . S
C1206 C1207 1.400 . S
C1207 C1201 1.491 . S
C1207 C1206 1.400 . S
C1207 C1208 1.398 . S
C1208 H1196 0.950 . S
C1208 C1207 1.398 . S
C1208 C1209 1.391 . S
C1209 H1197 0.950 . S
C1209 C1205 1.393 . S
C1209 C1208 1.391 . S
H1210 C1218 0.950 . S
H1211 C1223 0.950 . S
H1212 C1220 0.950 . S
H1213 C1222 0.950 . S
H1214 C1224 0.950 . S
H1215 C1226 0.950 . S
H1216 C1228 0.950 . S
H1217 C1229 0.950 . S
C1218 H1210 0.950 . S
C1218 C1219 1.386 . S
C1218 C1220 1.391 . S
C1219 C1218 1.386 . S
C1219 C1223 1.393 . S
C1220 H1212 0.950 . S
C1220 C1218 1.391 . S
C1220 C1221 1.400 . S
C1221 C1220 1.400 . S
C1221 C1222 1.398 . S
C1221 C1227 1.491 . S
C1222 H1213 0.950 . S
C1222 C1221 1.398 . S
C1222 C1223 1.391 . S
C1223 H1211 0.950 . S
C1223 C1219 1.393 . S
C1223 C1222 1.391 . S
C1224 H1214 0.950 . S
C1224 C1225 1.386 . S
C1224 C1226 1.391 . S
C1225 C1224 1.386 . S
C1225 C1229 1.393 . S
C1226 H1215 0.950 . S
C1226 C1224 1.391 . S
C1226 C1227 1.400 . S
C1227 C1221 1.491 . S
C1227 C1226 1.400 . S
C1227 C1228 1.398 . S
C1228 H1216 0.950 . S
C1228 C1227 1.398 . S
C1228 C1229 1.391 . S
C1229 H1217 0.950 . S
C1229 C1225 1.393 . S
C1229 C1228 1.391 . S
H1230 C1238 0.950 . S
H1231 C1243 0.950 . S
H1232 C1240 0.950 . S
H1233 C1242 0.950 1_455 S
H1234 C1244 0.950 . S
H1235 C1246 0.950 . S
H1236 C1248 0.950 . S
H1237 C1249 0.950 . S
C1238 H1230 0.950 . S
C1238 C1239 1.386 . S
C1238 C1240 1.391 . S
C1239 C1238 1.386 . S
C1239 C1243 1.393 . S
C1240 H1232 0.950 . S
C1240 C1238 1.391 . S
C1240 C1241 1.400 . S
C1241 C1240 1.400 . S
C1241 C1242 1.398 . S
C1241 C1247 1.491 1_655 S
C1242 H1233 0.950 1_655 S
C1242 C1241 1.398 . S
C1242 C1243 1.391 . S
C1243 H1231 0.950 . S
C1243 C1239 1.393 . S
C1243 C1242 1.391 . S
C1244 H1234 0.950 . S
C1244 C1245 1.386 . S
C1244 C1246 1.391 . S
C1245 C1244 1.386 . S
C1245 C1249 1.393 . S
C1246 H1235 0.950 . S
C1246 C1244 1.391 . S
C1246 C1247 1.400 . S
C1247 C1241 1.491 1_455 S
C1247 C1246 1.400 . S
C1247 C1248 1.398 . S
C1248 H1236 0.950 . S
C1248 C1247 1.398 . S
C1248 C1249 1.391 . S
C1249 H1237 0.950 . S
C1249 C1245 1.393 . S
C1249 C1248 1.391 . S
H1250 C1258 0.950 . S
H1251 C1263 0.950 . S
H1252 C1260 0.950 . S
H1253 C1262 0.950 . S
H1254 C1264 0.950 . S
H1255 C1266 0.950 . S
H1256 C1268 0.950 . S
H1257 C1269 0.950 . S
C1258 H1250 0.950 . S
C1258 C1259 1.386 . S
C1258 C1260 1.391 . S
C1259 C1258 1.386 . S
C1259 C1263 1.393 . S
C1260 H1252 0.950 . S
C1260 C1258 1.391 . S
C1260 C1261 1.400 . S
C1261 C1260 1.400 . S
C1261 C1262 1.398 . S
C1261 C1267 1.491 . S
C1262 H1253 0.950 . S
C1262 C1261 1.398 . S
C1262 C1263 1.391 . S
C1263 H1251 0.950 . S
C1263 C1259 1.393 . S
C1263 C1262 1.391 . S
C1264 H1254 0.950 . S
C1264 C1265 1.386 . S
C1264 C1266 1.391 . S
C1265 C1264 1.386 . S
C1265 C1269 1.393 . S
C1266 H1255 0.950 . S
C1266 C1264 1.391 . S
C1266 C1267 1.400 . S
C1267 C1261 1.491 . S
C1267 C1266 1.400 . S
C1267 C1268 1.398 . S
C1268 H1256 0.950 . S
C1268 C1267 1.398 . S
C1268 C1269 1.391 . S
C1269 H1257 0.950 . S
C1269 C1265 1.393 . S
C1269 C1268 1.391 . S
H1270 C1278 0.950 . S
H1271 C1283 0.950 . S
H1272 C1280 0.950 . S
H1273 C1282 0.950 . S
H1274 C1284 0.950 . S
H1275 C1286 0.950 . S
H1276 C1288 0.950 . S
H1277 C1289 0.950 . S
C1278 H1270 0.950 . S
C1278 C1279 1.386 . S
C1278 C1280 1.391 1_545 S
C1279 C1278 1.386 . S
C1279 C1283 1.393 . S
C1280 H1272 0.950 . S
C1280 C1278 1.391 1_565 S
C1280 C1281 1.400 . S
C1281 C1280 1.400 . S
C1281 C1282 1.398 1_565 S
C1281 C1287 1.491 . S
C1282 H1273 0.950 . S
C1282 C1281 1.398 1_545 S
C1282 C1283 1.391 . S
C1283 H1271 0.950 . S
C1283 C1279 1.393 . S
C1283 C1282 1.391 . S
C1284 H1274 0.950 . S
C1284 C1285 1.386 . S
C1284 C1286 1.391 . S
C1285 C1284 1.386 . S
C1285 C1289 1.393 . S
C1286 H1275 0.950 . S
C1286 C1284 1.391 . S
C1286 C1287 1.400 . S
C1287 C1281 1.491 . S
C1287 C1286 1.400 . S
C1287 C1288 1.398 . S
C1288 H1276 0.950 . S
C1288 C1287 1.398 . S
C1288 C1289 1.391 . S
C1289 H1277 0.950 . S
C1289 C1285 1.393 . S
C1289 C1288 1.391 . S
H1290 C1298 0.950 . S
H1291 C1303 0.950 . S
H1292 C1300 0.950 . S
H1293 C1302 0.950 . S
H1294 C1304 0.950 . S
H1295 C1306 0.950 . S
H1296 C1308 0.950 . S
H1297 C1309 0.950 . S
C1298 H1290 0.950 . S
C1298 C1299 1.386 . S
C1298 C1300 1.391 . S
C1299 C1298 1.386 . S
C1299 C1303 1.393 . S
C1300 H1292 0.950 . S
C1300 C1298 1.391 . S
C1300 C1301 1.400 . S
C1301 C1300 1.400 . S
C1301 C1302 1.398 . S
C1301 C1307 1.491 . S
C1302 H1293 0.950 . S
C1302 C1301 1.398 . S
C1302 C1303 1.391 . S
C1303 H1291 0.950 . S
C1303 C1299 1.393 . S
C1303 C1302 1.391 . S
C1304 H1294 0.950 . S
C1304 C1305 1.386 . S
C1304 C1306 1.391 . S
C1305 C1304 1.386 . S
C1305 C1309 1.393 . S
C1306 H1295 0.950 . S
C1306 C1304 1.391 . S
C1306 C1307 1.400 . S
C1307 C1301 1.491 . S
C1307 C1306 1.400 . S
C1307 C1308 1.398 . S
C1308 H1296 0.950 . S
C1308 C1307 1.398 . S
C1308 C1309 1.391 . S
C1309 H1297 0.950 . S
C1309 C1305 1.393 . S
C1309 C1308 1.391 . S
H1310 C1318 0.950 . S
H1311 C1323 0.950 . S
H1312 C1320 0.950 . S
H1313 C1322 0.950 . S
H1314 C1324 0.950 . S
H1315 C1326 0.950 . S
H1316 C1328 0.950 . S
H1317 C1329 0.950 . S
C1318 H1310 0.950 . S
C1318 C1319 1.386 . S
C1318 C1320 1.391 . S
C1319 C1318 1.386 . S
C1319 C1323 1.393 . S
C1320 H1312 0.950 . S
C1320 C1318 1.391 . S
C1320 C1321 1.400 . S
C1321 C1320 1.400 . S
C1321 C1322 1.398 . S
C1321 C1327 1.491 . S
C1322 H1313 0.950 . S
C1322 C1321 1.398 . S
C1322 C1323 1.391 . S
C1323 H1311 0.950 . S
C1323 C1319 1.393 . S
C1323 C1322 1.391 . S
C1324 H1314 0.950 . S
C1324 C1325 1.386 . S
C1324 C1326 1.391 . S
C1325 C1324 1.386 . S
C1325 C1329 1.393 . S
C1326 H1315 0.950 . S
C1326 C1324 1.391 . S
C1326 C1327 1.400 . S
C1327 C1321 1.491 . S
C1327 C1326 1.400 . S
C1327 C1328 1.398 . S
C1328 H1316 0.950 . S
C1328 C1327 1.398 . S
C1328 C1329 1.391 . S
C1329 H1317 0.950 . S
C1329 C1325 1.393 . S
C1329 C1328 1.391 . S
H1330 C1338 0.950 . S
H1331 C1343 0.950 . S
H1332 C1340 0.950 . S
H1333 C1342 0.950 . S
H1334 C1344 0.950 . S
H1335 C1346 0.950 . S
H1336 C1348 0.950 . S
H1337 C1349 0.950 . S
C1338 H1330 0.950 . S
C1338 C1339 1.386 . S
C1338 C1340 1.391 . S
C1339 C1338 1.386 . S
C1339 C1343 1.393 . S
C1340 H1332 0.950 . S
C1340 C1338 1.391 . S
C1340 C1341 1.400 . S
C1341 C1340 1.400 . S
C1341 C1342 1.398 . S
C1341 C1347 1.491 . S
C1342 H1333 0.950 . S
C1342 C1341 1.398 . S
C1342 C1343 1.391 . S
C1343 H1331 0.950 . S
C1343 C1339 1.393 . S
C1343 C1342 1.391 . S
C1344 H1334 0.950 . S
C1344 C1345 1.386 . S
C1344 C1346 1.391 . S
C1345 C1344 1.386 . S
C1345 C1349 1.393 . S
C1346 H1335 0.950 . S
C1346 C1344 1.391 . S
C1346 C1347 1.400 . S
C1347 C1341 1.491 . S
C1347 C1346 1.400 . S
C1347 C1348 1.398 . S
C1348 H1336 0.950 . S
C1348 C1347 1.398 . S
C1348 C1349 1.391 . S
C1349 H1337 0.950 . S
C1349 C1345 1.393 . S
C1349 C1348 1.391 . S
H1350 C1358 0.950 . S
H1351 C1363 0.950 . S
H1352 C1360 0.950 . S
H1353 C1362 0.950 . S
H1354 C1364 0.950 . S
H1355 C1366 0.950 . S
H1356 C1368 0.950 . S
H1357 C1369 0.950 . S
C1358 H1350 0.950 . S
C1358 C1359 1.386 . S
C1358 C1360 1.391 . S
C1359 C1358 1.386 . S
C1359 C1363 1.393 . S
C1360 H1352 0.950 . S
C1360 C1358 1.391 . S
C1360 C1361 1.400 . S
C1361 C1360 1.400 . S
C1361 C1362 1.398 . S
C1361 C1367 1.491 . S
C1362 H1353 0.950 . S
C1362 C1361 1.398 . S
C1362 C1363 1.391 . S
C1363 H1351 0.950 . S
C1363 C1359 1.393 . S
C1363 C1362 1.391 . S
C1364 H1354 0.950 . S
C1364 C1365 1.386 . S
C1364 C1366 1.391 . S
C1365 C1364 1.386 . S
C1365 C1369 1.393 . S
C1366 H1355 0.950 . S
C1366 C1364 1.391 . S
C1366 C1367 1.400 . S
C1367 C1361 1.491 . S
C1367 C1366 1.400 . S
C1367 C1368 1.398 . S
C1368 H1356 0.950 . S
C1368 C1367 1.398 . S
C1368 C1369 1.391 . S
C1369 H1357 0.950 . S
C1369 C1365 1.393 . S
C1369 C1368 1.391 . S
H1370 C1378 0.950 . S
H1371 C1383 0.950 . S
H1372 C1380 0.950 . S
H1373 C1382 0.950 . S
H1374 C1384 0.950 . S
H1375 C1386 0.950 . S
H1376 C1388 0.950 . S
H1377 C1389 0.950 . S
C1378 H1370 0.950 . S
C1378 C1379 1.386 . S
C1378 C1380 1.391 . S
C1379 C1378 1.386 . S
C1379 C1383 1.393 . S
C1380 H1372 0.950 . S
C1380 C1378 1.391 . S
C1380 C1381 1.400 . S
C1381 C1380 1.400 . S
C1381 C1382 1.398 . S
C1381 C1387 1.491 . S
C1382 H1373 0.950 . S
C1382 C1381 1.398 . S
C1382 C1383 1.391 . S
C1383 H1371 0.950 . S
C1383 C1379 1.393 . S
C1383 C1382 1.391 . S
C1384 H1374 0.950 . S
C1384 C1385 1.386 . S
C1384 C1386 1.391 . S
C1385 C1384 1.386 . S
C1385 C1389 1.393 . S
C1386 H1375 0.950 . S
C1386 C1384 1.391 . S
C1386 C1387 1.400 . S
C1387 C1381 1.491 . S
C1387 C1386 1.400 . S
C1387 C1388 1.398 . S
C1388 H1376 0.950 . S
C1388 C1387 1.398 . S
C1388 C1389 1.391 . S
C1389 H1377 0.950 . S
C1389 C1385 1.393 . S
C1389 C1388 1.391 . S
H1390 C1398 0.950 . S
H1391 C1403 0.950 . S
H1392 C1400 0.950 . S
H1393 C1402 0.950 . S
H1394 C1404 0.950 . S
H1395 C1406 0.950 . S
H1396 C1408 0.950 . S
H1397 C1409 0.950 . S
C1398 H1390 0.950 . S
C1398 C1399 1.386 . S
C1398 C1400 1.391 . S
C1399 C1398 1.386 . S
C1399 C1403 1.393 . S
C1400 H1392 0.950 . S
C1400 C1398 1.391 . S
C1400 C1401 1.400 . S
C1401 C1400 1.400 . S
C1401 C1402 1.398 . S
C1401 C1407 1.491 . S
C1402 H1393 0.950 . S
C1402 C1401 1.398 . S
C1402 C1403 1.391 . S
C1403 H1391 0.950 . S
C1403 C1399 1.393 . S
C1403 C1402 1.391 . S
C1404 H1394 0.950 . S
C1404 C1405 1.386 . S
C1404 C1406 1.391 . S
C1405 C1404 1.386 . S
C1405 C1409 1.393 . S
C1406 H1395 0.950 . S
C1406 C1404 1.391 . S
C1406 C1407 1.400 . S
C1407 C1401 1.491 . S
C1407 C1406 1.400 . S
C1407 C1408 1.398 . S
C1408 H1396 0.950 . S
C1408 C1407 1.398 . S
C1408 C1409 1.391 . S
C1409 H1397 0.950 . S
C1409 C1405 1.393 . S
C1409 C1408 1.391 . S
H1410 C1418 0.950 . S
H1411 C1423 0.950 . S
H1412 C1420 0.950 . S
H1413 C1422 0.950 1_565 S
H1414 C1424 0.950 . S
H1415 C1426 0.950 . S
H1416 C1428 0.950 . S
H1417 C1429 0.950 . S
C1418 H1410 0.950 . S
C1418 C1419 1.386 . S
C1418 C1420 1.391 . S
C1419 C1418 1.386 . S
C1419 C1423 1.393 . S
C1420 H1412 0.950 . S
C1420 C1418 1.391 . S
C1420 C1421 1.400 . S
C1421 C1420 1.400 . S
C1421 C1422 1.398 . S
C1421 C1427 1.491 1_545 S
C1422 H1413 0.950 1_545 S
C1422 C1421 1.398 . S
C1422 C1423 1.391 . S
C1423 H1411 0.950 . S
C1423 C1419 1.393 . S
C1423 C1422 1.391 . S
C1424 H1414 0.950 . S
C1424 C1425 1.386 . S
C1424 C1426 1.391 . S
C1425 C1424 1.386 . S
C1425 C1429 1.393 . S
C1426 H1415 0.950 . S
C1426 C1424 1.391 . S
C1426 C1427 1.400 . S
C1427 C1421 1.491 1_565 S
C1427 C1426 1.400 . S
C1427 C1428 1.398 . S
C1428 H1416 0.950 . S
C1428 C1427 1.398 . S
C1428 C1429 1.391 . S
C1429 H1417 0.950 . S
C1429 C1425 1.393 . S
C1429 C1428 1.391 . S
H1430 C1438 0.950 . S
H1431 C1443 0.950 . S
H1432 C1440 0.950 . S
H1433 C1442 0.950 . S
H1434 C1444 0.950 . S
H1435 C1446 0.950 . S
H1436 C1448 0.950 . S
H1437 C1449 0.950 . S
C1438 H1430 0.950 . S
C1438 C1439 1.386 . S
C1438 C1440 1.391 . S
C1439 C1438 1.386 . S
C1439 C1443 1.393 . S
C1440 H1432 0.950 . S
C1440 C1438 1.391 . S
C1440 C1441 1.400 1_655 S
C1441 C1440 1.400 1_455 S
C1441 C1442 1.398 . S
C1441 C1447 1.491 . S
C1442 H1433 0.950 . S
C1442 C1441 1.398 . S
C1442 C1443 1.391 1_455 S
C1443 H1431 0.950 . S
C1443 C1439 1.393 . S
C1443 C1442 1.391 1_655 S
C1444 H1434 0.950 . S
C1444 C1445 1.386 . S
C1444 C1446 1.391 . S
C1445 C1444 1.386 . S
C1445 C1449 1.393 . S
C1446 H1435 0.950 . S
C1446 C1444 1.391 . S
C1446 C1447 1.400 . S
C1447 C1441 1.491 . S
C1447 C1446 1.400 . S
C1447 C1448 1.398 . S
C1448 H1436 0.950 . S
C1448 C1447 1.398 . S
C1448 C1449 1.391 . S
C1449 H1437 0.950 . S
C1449 C1445 1.393 . S
C1449 C1448 1.391 . S
H1450 C1458 0.950 . S
H1451 C1463 0.950 . S
H1452 C1460 0.950 . S
H1453 C1462 0.950 . S
H1454 C1464 0.950 . S
H1455 C1466 0.950 . S
H1456 C1468 0.950 . S
H1457 C1469 0.950 . S
C1458 H1450 0.950 . S
C1458 C1459 1.386 . S
C1458 C1460 1.391 . S
C1459 C1458 1.386 . S
C1459 C1463 1.393 . S
C1460 H1452 0.950 . S
C1460 C1458 1.391 . S
C1460 C1461 1.400 . S
C1461 C1460 1.400 . S
C1461 C1462 1.398 . S
C1461 C1467 1.491 . S
C1462 H1453 0.950 . S
C1462 C1461 1.398 . S
C1462 C1463 1.391 . S
C1463 H1451 0.950 . S
C1463 C1459 1.393 . S
C1463 C1462 1.391 . S
C1464 H1454 0.950 . S
C1464 C1465 1.386 . S
C1464 C1466 1.391 . S
C1465 C1464 1.386 . S
C1465 C1469 1.393 . S
C1466 H1455 0.950 . S
C1466 C1464 1.391 . S
C1466 C1467 1.400 . S
C1467 C1461 1.491 . S
C1467 C1466 1.400 . S
C1467 C1468 1.398 . S
C1468 H1456 0.950 . S
C1468 C1467 1.398 . S
C1468 C1469 1.391 . S
C1469 H1457 0.950 . S
C1469 C1465 1.393 . S
C1469 C1468 1.391 . S
H1470 C1478 0.950 . S
H1471 C1483 0.950 . S
H1472 C1480 0.950 . S
H1473 C1482 0.950 . S
H1474 C1484 0.950 . S
H1475 C1486 0.950 . S
H1476 C1488 0.950 . S
H1477 C1489 0.950 . S
C1478 H1470 0.950 . S
C1478 C1479 1.386 . S
C1478 C1480 1.391 . S
C1479 C1478 1.386 . S
C1479 C1483 1.393 . S
C1480 H1472 0.950 . S
C1480 C1478 1.391 . S
C1480 C1481 1.400 . S
C1481 C1480 1.400 . S
C1481 C1482 1.398 . S
C1481 C1487 1.491 . S
C1482 H1473 0.950 . S
C1482 C1481 1.398 . S
C1482 C1483 1.391 . S
C1483 H1471 0.950 . S
C1483 C1479 1.393 . S
C1483 C1482 1.391 . S
C1484 H1474 0.950 . S
C1484 C1485 1.386 . S
C1484 C1486 1.391 . S
C1485 C1484 1.386 . S
C1485 C1489 1.393 . S
C1486 H1475 0.950 . S
C1486 C1484 1.391 . S
C1486 C1487 1.400 . S
C1487 C1481 1.491 . S
C1487 C1486 1.400 . S
C1487 C1488 1.398 . S
C1488 H1476 0.950 . S
C1488 C1487 1.398 . S
C1488 C1489 1.391 . S
C1489 H1477 0.950 . S
C1489 C1485 1.393 . S
C1489 C1488 1.391 . S
H1490 C1498 0.950 . S
H1491 C1503 0.950 . S
H1492 C1500 0.950 . S
H1493 C1502 0.950 . S
H1494 C1504 0.950 . S
H1495 C1506 0.950 . S
H1496 C1508 0.950 . S
H1497 C1509 0.950 . S
C1498 H1490 0.950 . S
C1498 C1499 1.386 . S
C1498 C1500 1.391 . S
C1499 C1498 1.386 . S
C1499 C1503 1.393 . S
C1500 H1492 0.950 . S
C1500 C1498 1.391 . S
C1500 C1501 1.400 . S
C1501 C1500 1.400 . S
C1501 C1502 1.398 . S
C1501 C1507 1.491 . S
C1502 H1493 0.950 . S
C1502 C1501 1.398 . S
C1502 C1503 1.391 . S
C1503 H1491 0.950 . S
C1503 C1499 1.393 . S
C1503 C1502 1.391 . S
C1504 H1494 0.950 . S
C1504 C1505 1.386 . S
C1504 C1506 1.391 . S
C1505 C1504 1.386 . S
C1505 C1509 1.393 . S
C1506 H1495 0.950 . S
C1506 C1504 1.391 . S
C1506 C1507 1.400 . S
C1507 C1501 1.491 . S
C1507 C1506 1.400 . S
C1507 C1508 1.398 . S
C1508 H1496 0.950 . S
C1508 C1507 1.398 . S
C1508 C1509 1.391 . S
C1509 H1497 0.950 . S
C1509 C1505 1.393 . S
C1509 C1508 1.391 . S
H1510 C1518 0.950 . S
H1511 C1523 0.950 . S
H1512 C1520 0.950 . S
H1513 C1522 0.950 . S
H1514 C1524 0.950 . S
H1515 C1526 0.950 . S
H1516 C1528 0.950 . S
H1517 C1529 0.950 . S
C1518 H1510 0.950 . S
C1518 C1519 1.386 . S
C1518 C1520 1.391 . S
C1519 C1518 1.386 . S
C1519 C1523 1.393 . S
C1520 H1512 0.950 . S
C1520 C1518 1.391 . S
C1520 C1521 1.400 . S
C1521 C1520 1.400 . S
C1521 C1522 1.398 . S
C1521 C1527 1.491 . S
C1522 H1513 0.950 . S
C1522 C1521 1.398 . S
C1522 C1523 1.391 . S
C1523 H1511 0.950 . S
C1523 C1519 1.393 . S
C1523 C1522 1.391 . S
C1524 H1514 0.950 . S
C1524 C1525 1.386 . S
C1524 C1526 1.391 . S
C1525 C1524 1.386 . S
C1525 C1529 1.393 . S
C1526 H1515 0.950 . S
C1526 C1524 1.391 . S
C1526 C1527 1.400 . S
C1527 C1521 1.491 . S
C1527 C1526 1.400 . S
C1527 C1528 1.398 . S
C1528 H1516 0.950 . S
C1528 C1527 1.398 . S
C1528 C1529 1.391 . S
C1529 H1517 0.950 . S
C1529 C1525 1.393 . S
C1529 C1528 1.391 . S
H1530 C1538 0.950 . S
H1531 C1543 0.950 . S
H1532 C1540 0.950 1_545 S
H1533 C1542 0.951 1_545 S
H1534 C1544 0.950 . S
H1535 C1546 0.950 . S
H1536 C1548 0.950 . S
H1537 C1549 0.950 . S
C1538 H1530 0.950 . S
C1538 C1539 1.386 . S
C1538 C1540 1.391 . S
C1539 C1538 1.386 . S
C1539 C1543 1.393 . S
C1540 H1532 0.950 1_565 S
C1540 C1538 1.391 . S
C1540 C1541 1.400 1_565 S
C1541 C1540 1.400 1_545 S
C1541 C1542 1.369 1_545 S
C1541 C1547 1.491 . S
C1542 H1533 0.951 1_565 S
C1542 C1541 1.369 1_565 S
C1542 C1543 1.420 . S
C1543 H1531 0.950 . S
C1543 C1539 1.393 . S
C1543 C1542 1.420 . S
C1544 H1534 0.950 . S
C1544 C1545 1.386 . S
C1544 C1546 1.391 . S
C1545 C1544 1.386 . S
C1545 C1549 1.393 . S
C1546 H1535 0.950 . S
C1546 C1544 1.391 . S
C1546 C1547 1.400 . S
C1547 C1541 1.491 . S
C1547 C1546 1.400 . S
C1547 C1548 1.398 . S
C1548 H1536 0.950 . S
C1548 C1547 1.398 . S
C1548 C1549 1.391 . S
C1549 H1537 0.950 . S
C1549 C1545 1.393 . S
C1549 C1548 1.391 . S
H1550 C1558 0.950 . S
H1551 C1563 0.950 . S
H1552 C1560 0.950 . S
H1553 C1562 0.950 . S
H1554 C1564 0.950 . S
H1555 C1566 0.950 . S
H1556 C1568 0.950 . S
H1557 C1569 0.950 . S
C1558 H1550 0.950 . S
C1558 C1559 1.386 . S
C1558 C1560 1.391 1_455 S
C1559 C1558 1.386 . S
C1559 C1563 1.393 . S
C1560 H1552 0.950 . S
C1560 C1558 1.391 1_655 S
C1560 C1561 1.400 . S
C1561 C1560 1.400 . S
C1561 C1562 1.398 . S
C1561 C1567 1.491 . S
C1562 H1553 0.950 . S
C1562 C1561 1.398 . S
C1562 C1563 1.391 1_655 S
C1563 H1551 0.950 . S
C1563 C1559 1.393 . S
C1563 C1562 1.391 1_455 S
C1564 H1554 0.950 . S
C1564 C1565 1.386 . S
C1564 C1566 1.391 . S
C1565 C1564 1.386 . S
C1565 C1569 1.393 . S
C1566 H1555 0.950 . S
C1566 C1564 1.391 . S
C1566 C1567 1.400 . S
C1567 C1561 1.491 . S
C1567 C1566 1.400 . S
C1567 C1568 1.398 . S
C1568 H1556 0.950 . S
C1568 C1567 1.398 . S
C1568 C1569 1.391 . S
C1569 H1557 0.950 . S
C1569 C1565 1.393 . S
C1569 C1568 1.391 . S
H1570 C1578 0.950 . S
H1571 C1583 0.950 . S
H1572 C1580 0.950 . S
H1573 C1582 0.950 . S
H1574 C1584 0.950 . S
H1575 C1586 0.950 . S
H1576 C1588 0.950 . S
H1577 C1589 0.950 . S
C1578 H1570 0.950 . S
C1578 C1579 1.386 . S
C1578 C1580 1.391 . S
C1579 C1578 1.386 . S
C1579 C1583 1.393 . S
C1580 H1572 0.950 . S
C1580 C1578 1.391 . S
C1580 C1581 1.400 . S
C1581 C1580 1.400 . S
C1581 C1582 1.398 . S
C1581 C1587 1.491 . S
C1582 H1573 0.950 . S
C1582 C1581 1.398 . S
C1582 C1583 1.391 . S
C1583 H1571 0.950 . S
C1583 C1579 1.393 . S
C1583 C1582 1.391 . S
C1584 H1574 0.950 . S
C1584 C1585 1.386 . S
C1584 C1586 1.391 . S
C1585 C1584 1.386 . S
C1585 C1589 1.393 . S
C1586 H1575 0.950 . S
C1586 C1584 1.391 . S
C1586 C1587 1.400 . S
C1587 C1581 1.491 . S
C1587 C1586 1.400 . S
C1587 C1588 1.398 . S
C1588 H1576 0.950 . S
C1588 C1587 1.398 . S
C1588 C1589 1.391 . S
C1589 H1577 0.950 . S
C1589 C1585 1.393 . S
C1589 C1588 1.391 . S
H1590 C1598 0.950 . S
H1591 C1603 0.950 . S
H1592 C1600 0.950 . S
H1593 C1602 0.950 . S
H1594 C1604 0.950 . S
H1595 C1606 0.950 . S
H1596 C1608 0.950 1_455 S
H1597 C1609 0.950 . S
C1598 H1590 0.950 . S
C1598 C1599 1.386 . S
C1598 C1600 1.391 . S
C1599 C1598 1.386 . S
C1599 C1603 1.393 . S
C1600 H1592 0.950 . S
C1600 C1598 1.391 . S
C1600 C1601 1.400 . S
C1601 C1600 1.400 . S
C1601 C1602 1.398 . S
C1601 C1607 1.496 . S
C1602 H1593 0.950 . S
C1602 C1601 1.398 . S
C1602 C1603 1.391 . S
C1603 H1591 0.950 . S
C1603 C1599 1.393 . S
C1603 C1602 1.391 . S
C1604 H1594 0.950 . S
C1604 C1605 1.386 . S
C1604 C1606 1.391 . S
C1605 C1604 1.386 . S
C1605 C1609 1.393 . S
C1606 H1595 0.950 . S
C1606 C1604 1.391 . S
C1606 C1607 1.394 1_655 S
C1607 C1601 1.496 . S
C1607 C1606 1.394 1_455 S
C1607 C1608 1.399 1_455 S
C1608 H1596 0.950 1_655 S
C1608 C1607 1.399 1_655 S
C1608 C1609 1.391 . S
C1609 H1597 0.950 . S
C1609 C1605 1.393 . S
C1609 C1608 1.391 . S
H1610 C1618 0.950 . S
H1611 C1623 0.950 . S
H1612 C1620 0.950 . S
H1613 C1622 0.950 . S
H1614 C1624 0.950 . S
H1615 C1626 0.950 . S
H1616 C1628 0.950 . S
H1617 C1629 0.950 . S
C1618 H1610 0.950 . S
C1618 C1619 1.386 . S
C1618 C1620 1.391 . S
C1619 C1618 1.386 . S
C1619 C1623 1.393 . S
C1620 H1612 0.950 . S
C1620 C1618 1.391 . S
C1620 C1621 1.400 . S
C1621 C1620 1.400 . S
C1621 C1622 1.398 . S
C1621 C1627 1.491 . S
C1622 H1613 0.950 . S
C1622 C1621 1.398 . S
C1622 C1623 1.391 . S
C1623 H1611 0.950 . S
C1623 C1619 1.393 . S
C1623 C1622 1.391 . S
C1624 H1614 0.950 . S
C1624 C1625 1.386 . S
C1624 C1626 1.391 . S
C1625 C1624 1.386 . S
C1625 C1629 1.393 . S
C1626 H1615 0.950 . S
C1626 C1624 1.391 . S
C1626 C1627 1.400 . S
C1627 C1621 1.491 . S
C1627 C1626 1.400 . S
C1627 C1628 1.398 . S
C1628 H1616 0.950 . S
C1628 C1627 1.398 . S
C1628 C1629 1.391 . S
C1629 H1617 0.950 . S
C1629 C1625 1.393 . S
C1629 C1628 1.391 . S
H1630 C1638 0.950 . S
H1631 C1643 0.950 . S
H1632 C1640 0.950 . S
H1633 C1642 0.950 . S
H1634 C1644 0.950 . S
H1635 C1646 0.950 . S
H1636 C1648 0.950 . S
H1637 C1649 0.950 . S
C1638 H1630 0.950 . S
C1638 C1639 1.386 . S
C1638 C1640 1.391 . S
C1639 C1638 1.386 . S
C1639 C1643 1.393 . S
C1640 H1632 0.950 . S
C1640 C1638 1.391 . S
C1640 C1641 1.400 . S
C1641 C1640 1.400 . S
C1641 C1642 1.398 . S
C1641 C1647 1.491 1_565 S
C1642 H1633 0.950 . S
C1642 C1641 1.398 . S
C1642 C1643 1.391 . S
C1643 H1631 0.950 . S
C1643 C1639 1.393 . S
C1643 C1642 1.391 . S
C1644 H1634 0.950 . S
C1644 C1645 1.386 . S
C1644 C1646 1.391 . S
C1645 C1644 1.386 . S
C1645 C1649 1.393 . S
C1646 H1635 0.950 . S
C1646 C1644 1.391 . S
C1646 C1647 1.400 . S
C1647 C1641 1.491 1_545 S
C1647 C1646 1.400 . S
C1647 C1648 1.398 . S
C1648 H1636 0.950 . S
C1648 C1647 1.398 . S
C1648 C1649 1.391 . S
C1649 H1637 0.950 . S
C1649 C1645 1.393 . S
C1649 C1648 1.391 . S
H1650 C1658 0.950 . S
H1651 C1663 0.950 . S
H1652 C1660 0.950 . S
H1653 C1662 0.950 . S
H1654 C1664 0.950 . S
H1655 C1666 0.950 . S
H1656 C1668 0.950 . S
H1657 C1669 0.950 . S
C1658 H1650 0.950 . S
C1658 C1659 1.386 . S
C1658 C1660 1.391 . S
C1659 C1658 1.386 . S
C1659 C1663 1.393 . S
C1660 H1652 0.950 . S
C1660 C1658 1.391 . S
C1660 C1661 1.400 . S
C1661 C1660 1.400 . S
C1661 C1662 1.398 . S
C1661 C1667 1.491 . S
C1662 H1653 0.950 . S
C1662 C1661 1.398 . S
C1662 C1663 1.391 . S
C1663 H1651 0.950 . S
C1663 C1659 1.393 . S
C1663 C1662 1.391 . S
C1664 H1654 0.950 . S
C1664 C1665 1.386 . S
C1664 C1666 1.391 . S
C1665 C1664 1.386 . S
C1665 C1669 1.393 . S
C1666 H1655 0.950 . S
C1666 C1664 1.391 . S
C1666 C1667 1.400 . S
C1667 C1661 1.491 . S
C1667 C1666 1.400 . S
C1667 C1668 1.398 . S
C1668 H1656 0.950 . S
C1668 C1667 1.398 . S
C1668 C1669 1.391 . S
C1669 H1657 0.950 . S
C1669 C1665 1.393 . S
C1669 C1668 1.391 . S
H1670 C1678 0.950 . S
H1671 C1683 0.950 . S
H1672 C1680 0.950 . S
H1673 C1682 0.950 . S
H1674 C1684 0.950 . S
H1675 C1686 0.950 . S
H1676 C1688 0.950 . S
H1677 C1689 0.950 . S
C1678 H1670 0.950 . S
C1678 C1679 1.386 . S
C1678 C1680 1.391 . S
C1679 C1678 1.386 . S
C1679 C1683 1.393 . S
C1680 H1672 0.950 . S
C1680 C1678 1.391 . S
C1680 C1681 1.400 . S
C1681 C1680 1.400 . S
C1681 C1682 1.398 . S
C1681 C1687 1.491 . S
C1682 H1673 0.950 . S
C1682 C1681 1.398 . S
C1682 C1683 1.391 . S
C1683 H1671 0.950 . S
C1683 C1679 1.393 . S
C1683 C1682 1.391 . S
C1684 H1674 0.950 . S
C1684 C1685 1.386 . S
C1684 C1686 1.391 . S
C1685 C1684 1.386 . S
C1685 C1689 1.393 . S
C1686 H1675 0.950 . S
C1686 C1684 1.391 . S
C1686 C1687 1.400 . S
C1687 C1681 1.491 . S
C1687 C1686 1.400 . S
C1687 C1688 1.398 . S
C1688 H1676 0.950 . S
C1688 C1687 1.398 . S
C1688 C1689 1.391 . S
C1689 H1677 0.950 . S
C1689 C1685 1.393 . S
C1689 C1688 1.391 . S
H1690 C1698 0.950 . S
H1691 C1703 0.950 . S
H1692 C1700 0.950 . S
H1693 C1702 0.950 . S
H1694 C1704 0.950 . S
H1695 C1706 0.950 . S
H1696 C1708 0.950 . S
H1697 C1709 0.950 . S
C1698 H1690 0.950 . S
C1698 C1699 1.386 . S
C1698 C1700 1.391 . S
C1699 C1698 1.386 . S
C1699 C1703 1.393 . S
C1700 H1692 0.950 . S
C1700 C1698 1.391 . S
C1700 C1701 1.400 . S
C1701 C1700 1.400 . S
C1701 C1702 1.398 . S
C1701 C1707 1.491 . S
C1702 H1693 0.950 . S
C1702 C1701 1.398 . S
C1702 C1703 1.391 . S
C1703 H1691 0.950 . S
C1703 C1699 1.393 . S
C1703 C1702 1.391 . S
C1704 H1694 0.950 . S
C1704 C1705 1.386 . S
C1704 C1706 1.391 . S
C1705 C1704 1.386 . S
C1705 C1709 1.393 . S
C1706 H1695 0.950 . S
C1706 C1704 1.391 . S
C1706 C1707 1.400 . S
C1707 C1701 1.491 . S
C1707 C1706 1.400 . S
C1707 C1708 1.398 . S
C1708 H1696 0.950 . S
C1708 C1707 1.398 . S
C1708 C1709 1.391 . S
C1709 H1697 0.950 . S
C1709 C1705 1.393 . S
C1709 C1708 1.391 . S
H1710 C1718 0.950 . S
H1711 C1723 0.950 . S
H1712 C1720 0.950 . S
H1713 C1722 0.950 . S
H1714 C1724 0.950 . S
H1715 C1726 0.950 . S
H1716 C1728 0.950 . S
H1717 C1729 0.950 . S
C1718 H1710 0.950 . S
C1718 C1719 1.386 . S
C1718 C1720 1.391 . S
C1719 C1718 1.386 . S
C1719 C1723 1.393 . S
C1720 H1712 0.950 . S
C1720 C1718 1.391 . S
C1720 C1721 1.400 . S
C1721 C1720 1.400 . S
C1721 C1722 1.398 . S
C1721 C1727 1.491 . S
C1722 H1713 0.950 . S
C1722 C1721 1.398 . S
C1722 C1723 1.391 . S
C1723 H1711 0.950 . S
C1723 C1719 1.393 . S
C1723 C1722 1.391 . S
C1724 H1714 0.950 . S
C1724 C1725 1.386 . S
C1724 C1726 1.391 . S
C1725 C1724 1.386 . S
C1725 C1729 1.393 . S
C1726 H1715 0.950 . S
C1726 C1724 1.391 . S
C1726 C1727 1.400 . S
C1727 C1721 1.491 . S
C1727 C1726 1.400 . S
C1727 C1728 1.398 . S
C1728 H1716 0.950 . S
C1728 C1727 1.398 . S
C1728 C1729 1.391 . S
C1729 H1717 0.950 . S
C1729 C1725 1.393 . S
C1729 C1728 1.391 . S
H1730 C1738 0.950 . S
H1731 C1743 0.950 . S
H1732 C1740 0.950 . S
H1733 C1742 0.950 . S
H1734 C1744 0.950 . S
H1735 C1746 0.950 . S
H1736 C1748 0.950 . S
H1737 C1749 0.950 . S
C1738 H1730 0.950 . S
C1738 C1739 1.386 . S
C1738 C1740 1.391 . S
C1739 C1738 1.386 . S
C1739 C1743 1.393 . S
C1740 H1732 0.950 . S
C1740 C1738 1.391 . S
C1740 C1741 1.400 . S
C1741 C1740 1.400 . S
C1741 C1742 1.398 . S
C1741 C1747 1.491 . S
C1742 H1733 0.950 . S
C1742 C1741 1.398 . S
C1742 C1743 1.391 . S
C1743 H1731 0.950 . S
C1743 C1739 1.393 . S
C1743 C1742 1.391 . S
C1744 H1734 0.950 . S
C1744 C1745 1.386 . S
C1744 C1746 1.391 . S
C1745 C1744 1.386 . S
C1745 C1749 1.393 . S
C1746 H1735 0.950 . S
C1746 C1744 1.391 . S
C1746 C1747 1.400 . S
C1747 C1741 1.491 . S
C1747 C1746 1.400 . S
C1747 C1748 1.398 . S
C1748 H1736 0.950 . S
C1748 C1747 1.398 . S
C1748 C1749 1.391 . S
C1749 H1737 0.950 . S
C1749 C1745 1.393 . S
C1749 C1748 1.391 . S
H1750 C1758 0.950 . S
H1751 C1763 0.950 . S
H1752 C1760 0.950 . S
H1753 C1762 0.950 . S
H1754 C1764 0.950 . S
H1755 C1766 0.950 . S
H1756 C1768 0.950 . S
H1757 C1769 0.950 . S
C1758 H1750 0.950 . S
C1758 C1759 1.386 . S
C1758 C1760 1.391 . S
C1759 C1758 1.386 . S
C1759 C1763 1.393 . S
C1760 H1752 0.950 . S
C1760 C1758 1.391 . S
C1760 C1761 1.400 . S
C1761 C1760 1.400 . S
C1761 C1762 1.398 . S
C1761 C1767 1.491 . S
C1762 H1753 0.950 . S
C1762 C1761 1.398 . S
C1762 C1763 1.391 . S
C1763 H1751 0.950 . S
C1763 C1759 1.393 . S
C1763 C1762 1.391 . S
C1764 H1754 0.950 . S
C1764 C1765 1.386 . S
C1764 C1766 1.391 . S
C1765 C1764 1.386 . S
C1765 C1769 1.393 . S
C1766 H1755 0.950 . S
C1766 C1764 1.391 . S
C1766 C1767 1.400 . S
C1767 C1761 1.491 . S
C1767 C1766 1.400 . S
C1767 C1768 1.398 . S
C1768 H1756 0.950 . S
C1768 C1767 1.398 . S
C1768 C1769 1.391 . S
C1769 H1757 0.950 . S
C1769 C1765 1.393 . S
C1769 C1768 1.391 . S
H1770 C1778 0.950 . S
H1771 C1783 0.950 . S
H1772 C1780 0.950 . S
H1773 C1782 0.950 . S
H1774 C1784 0.950 . S
H1775 C1786 0.950 . S
H1776 C1788 0.950 . S
H1777 C1789 0.950 . S
C1778 H1770 0.950 . S
C1778 C1779 1.386 . S
C1778 C1780 1.391 . S
C1779 C1778 1.386 . S
C1779 C1783 1.393 . S
C1780 H1772 0.950 . S
C1780 C1778 1.391 . S
C1780 C1781 1.400 . S
C1781 C1780 1.400 . S
C1781 C1782 1.398 . S
C1781 C1787 1.491 . S
C1782 H1773 0.950 . S
C1782 C1781 1.398 . S
C1782 C1783 1.391 . S
C1783 H1771 0.950 . S
C1783 C1779 1.393 . S
C1783 C1782 1.391 . S
C1784 H1774 0.950 . S
C1784 C1785 1.386 . S
C1784 C1786 1.391 . S
C1785 C1784 1.386 . S
C1785 C1789 1.393 . S
C1786 H1775 0.950 . S
C1786 C1784 1.391 . S
C1786 C1787 1.400 . S
C1787 C1781 1.491 . S
C1787 C1786 1.400 . S
C1787 C1788 1.398 . S
C1788 H1776 0.950 . S
C1788 C1787 1.398 . S
C1788 C1789 1.391 . S
C1789 H1777 0.950 . S
C1789 C1785 1.393 . S
C1789 C1788 1.391 . S
H1790 C1798 0.950 . S
H1791 C1803 0.950 . S
H1792 C1800 0.950 . S
H1793 C1802 0.950 . S
H1794 C1804 0.950 . S
H1795 C1806 0.950 . S
H1796 C1808 0.950 . S
H1797 C1809 0.950 . S
C1798 H1790 0.950 . S
C1798 C1799 1.386 . S
C1798 C1800 1.391 . S
C1799 C1798 1.386 . S
C1799 C1803 1.393 . S
C1800 H1792 0.950 . S
C1800 C1798 1.391 . S
C1800 C1801 1.400 . S
C1801 C1800 1.400 . S
C1801 C1802 1.398 . S
C1801 C1807 1.491 . S
C1802 H1793 0.950 . S
C1802 C1801 1.398 . S
C1802 C1803 1.391 . S
C1803 H1791 0.950 . S
C1803 C1799 1.393 . S
C1803 C1802 1.391 . S
C1804 H1794 0.950 . S
C1804 C1805 1.386 . S
C1804 C1806 1.391 . S
C1805 C1804 1.386 . S
C1805 C1809 1.393 . S
C1806 H1795 0.950 . S
C1806 C1804 1.391 . S
C1806 C1807 1.400 . S
C1807 C1801 1.491 . S
C1807 C1806 1.400 . S
C1807 C1808 1.398 . S
C1808 H1796 0.950 . S
C1808 C1807 1.398 . S
C1808 C1809 1.391 . S
C1809 H1797 0.950 . S
C1809 C1805 1.393 . S
C1809 C1808 1.391 . S
H1810 C1818 0.950 . S
H1811 C1823 0.950 . S
H1812 C1820 0.950 . S
H1813 C1822 0.950 . S
H1814 C1824 0.950 . S
H1815 C1826 0.950 . S
H1816 C1828 0.950 . S
H1817 C1829 0.950 . S
C1818 H1810 0.950 . S
C1818 C1819 1.386 . S
C1818 C1820 1.391 . S
C1819 C1818 1.386 . S
C1819 C1823 1.393 . S
C1820 H1812 0.950 . S
C1820 C1818 1.391 . S
C1820 C1821 1.400 . S
C1821 C1820 1.400 . S
C1821 C1822 1.398 . S
C1821 C1827 1.491 . S
C1822 H1813 0.950 . S
C1822 C1821 1.398 . S
C1822 C1823 1.391 . S
C1823 H1811 0.950 . S
C1823 C1819 1.393 . S
C1823 C1822 1.391 . S
C1824 H1814 0.950 . S
C1824 C1825 1.386 . S
C1824 C1826 1.391 . S
C1825 C1824 1.386 . S
C1825 C1829 1.393 . S
C1826 H1815 0.950 . S
C1826 C1824 1.391 . S
C1826 C1827 1.400 . S
C1827 C1821 1.491 . S
C1827 C1826 1.400 . S
C1827 C1828 1.398 . S
C1828 H1816 0.950 . S
C1828 C1827 1.398 . S
C1828 C1829 1.391 . S
C1829 H1817 0.950 . S
C1829 C1825 1.393 . S
C1829 C1828 1.391 . S
H1830 C1838 0.950 . S
H1831 C1843 0.950 . S
H1832 C1840 0.950 . S
H1833 C1842 0.950 . S
H1834 C1844 0.950 . S
H1835 C1846 0.950 . S
H1836 C1848 0.950 . S
H1837 C1849 0.950 . S
C1838 H1830 0.950 . S
C1838 C1839 1.386 . S
C1838 C1840 1.391 . S
C1839 C1838 1.386 . S
C1839 C1843 1.393 . S
C1840 H1832 0.950 . S
C1840 C1838 1.391 . S
C1840 C1841 1.400 . S
C1841 C1840 1.400 . S
C1841 C1842 1.398 . S
C1841 C1847 1.491 . S
C1842 H1833 0.950 . S
C1842 C1841 1.398 . S
C1842 C1843 1.391 . S
C1843 H1831 0.950 . S
C1843 C1839 1.393 . S
C1843 C1842 1.391 . S
C1844 H1834 0.950 . S
C1844 C1845 1.386 . S
C1844 C1846 1.391 . S
C1845 C1844 1.386 . S
C1845 C1849 1.393 . S
C1846 H1835 0.950 . S
C1846 C1844 1.391 . S
C1846 C1847 1.400 . S
C1847 C1841 1.491 . S
C1847 C1846 1.400 . S
C1847 C1848 1.398 . S
C1848 H1836 0.950 . S
C1848 C1847 1.398 . S
C1848 C1849 1.391 . S
C1849 H1837 0.950 . S
C1849 C1845 1.393 . S
C1849 C1848 1.391 . S
H1850 C1858 0.950 . S
H1851 C1863 0.950 . S
H1852 C1860 0.950 . S
H1853 C1862 0.950 . S
H1854 C1864 0.950 . S
H1855 C1866 0.950 . S
H1856 C1868 0.950 . S
H1857 C1869 0.950 . S
C1858 H1850 0.950 . S
C1858 C1859 1.386 . S
C1858 C1860 1.391 . S
C1859 C1858 1.386 . S
C1859 C1863 1.393 . S
C1860 H1852 0.950 . S
C1860 C1858 1.391 . S
C1860 C1861 1.400 . S
C1861 C1860 1.400 . S
C1861 C1862 1.398 . S
C1861 C1867 1.491 . S
C1862 H1853 0.950 . S
C1862 C1861 1.398 . S
C1862 C1863 1.391 . S
C1863 H1851 0.950 . S
C1863 C1859 1.393 . S
C1863 C1862 1.391 . S
C1864 H1854 0.950 . S
C1864 C1865 1.386 . S
C1864 C1866 1.391 . S
C1865 C1864 1.386 . S
C1865 C1869 1.393 . S
C1866 H1855 0.950 . S
C1866 C1864 1.391 . S
C1866 C1867 1.400 . S
C1867 C1861 1.491 . S
C1867 C1866 1.400 . S
C1867 C1868 1.398 . S
C1868 H1856 0.950 . S
C1868 C1867 1.398 . S
C1868 C1869 1.391 . S
C1869 H1857 0.950 . S
C1869 C1865 1.393 . S
C1869 C1868 1.391 . S
H1870 C1878 0.950 . S
H1871 C1883 0.950 . S
H1872 C1880 0.950 . S
H1873 C1882 0.950 . S
H1874 C1884 0.950 . S
H1875 C1886 0.950 . S
H1876 C1888 0.950 . S
H1877 C1889 0.950 . S
C1878 H1870 0.950 . S
C1878 C1879 1.386 . S
C1878 C1880 1.391 . S
C1879 C1878 1.386 . S
C1879 C1883 1.393 . S
C1880 H1872 0.950 . S
C1880 C1878 1.391 . S
C1880 C1881 1.400 . S
C1881 C1880 1.400 . S
C1881 C1882 1.398 . S
C1881 C1887 1.491 . S
C1882 H1873 0.950 . S
C1882 C1881 1.398 . S
C1882 C1883 1.391 . S
C1883 H1871 0.950 . S
C1883 C1879 1.393 . S
C1883 C1882 1.391 . S
C1884 H1874 0.950 . S
C1884 C1885 1.386 . S
C1884 C1886 1.391 . S
C1885 C1884 1.386 . S
C1885 C1889 1.393 . S
C1886 H1875 0.950 . S
C1886 C1884 1.391 . S
C1886 C1887 1.400 . S
C1887 C1881 1.491 . S
C1887 C1886 1.400 . S
C1887 C1888 1.398 . S
C1888 H1876 0.950 . S
C1888 C1887 1.398 . S
C1888 C1889 1.391 . S
C1889 H1877 0.950 . S
C1889 C1885 1.393 . S
C1889 C1888 1.391 . S
H1890 C1898 0.950 . S
H1891 C1903 0.950 . S
H1892 C1900 0.950 . S
H1893 C1902 0.950 . S
H1894 C1904 0.950 . S
H1895 C1906 0.950 . S
H1896 C1908 0.950 . S
H1897 C1909 0.950 . S
C1898 H1890 0.950 . S
C1898 C1899 1.386 . S
C1898 C1900 1.391 . S
C1899 C1898 1.386 . S
C1899 C1903 1.393 . S
C1900 H1892 0.950 . S
C1900 C1898 1.391 . S
C1900 C1901 1.400 . S
C1901 C1900 1.400 . S
C1901 C1902 1.398 . S
C1901 C1907 1.491 . S
C1902 H1893 0.950 . S
C1902 C1901 1.398 . S
C1902 C1903 1.391 . S
C1903 H1891 0.950 . S
C1903 C1899 1.393 . S
C1903 C1902 1.391 . S
C1904 H1894 0.950 . S
C1904 C1905 1.386 . S
C1904 C1906 1.391 . S
C1905 C1904 1.386 . S
C1905 C1909 1.393 . S
C1906 H1895 0.950 . S
C1906 C1904 1.391 . S
C1906 C1907 1.400 . S
C1907 C1901 1.491 . S
C1907 C1906 1.400 . S
C1907 C1908 1.398 . S
C1908 H1896 0.950 . S
C1908 C1907 1.398 . S
C1908 C1909 1.391 . S
C1909 H1897 0.950 . S
C1909 C1905 1.393 . S
C1909 C1908 1.391 . S
H1910 C1918 0.950 . S
H1911 C1923 0.950 . S
H1912 C1920 0.950 . S
H1913 C1922 0.950 . S
H1914 C1924 0.950 . S
H1915 C1926 0.950 . S
H1916 C1928 0.950 . S
H1917 C1929 0.950 . S
C1918 H1910 0.950 . S
C1918 C1919 1.386 . S
C1918 C1920 1.391 . S
C1919 C1918 1.386 . S
C1919 C1923 1.393 . S
C1920 H1912 0.950 . S
C1920 C1918 1.391 . S
C1920 C1921 1.400 . S
C1921 C1920 1.400 . S
C1921 C1922 1.398 . S
C1921 C1927 1.491 . S
C1922 H1913 0.950 . S
C1922 C1921 1.398 . S
C1922 C1923 1.391 . S
C1923 H1911 0.950 . S
C1923 C1919 1.393 . S
C1923 C1922 1.391 . S
C1924 H1914 0.950 . S
C1924 C1925 1.386 . S
C1924 C1926 1.391 . S
C1925 C1924 1.386 . S
C1925 C1929 1.393 . S
C1926 H1915 0.950 . S
C1926 C1924 1.391 . S
C1926 C1927 1.400 . S
C1927 C1921 1.491 . S
C1927 C1926 1.400 . S
C1927 C1928 1.398 . S
C1928 H1916 0.950 . S
C1928 C1927 1.398 . S
C1928 C1929 1.391 . S
C1929 H1917 0.950 . S
C1929 C1925 1.393 . S
C1929 C1928 1.391 . S
H1930 C1938 0.950 . S
H1931 C1943 0.950 . S
H1932 C1940 0.950 . S
H1933 C1942 0.950 . S
H1934 C1944 0.950 . S
H1935 C1946 0.950 . S
H1936 C1948 0.950 . S
H1937 C1949 0.950 . S
C1938 H1930 0.950 . S
C1938 C1939 1.386 . S
C1938 C1940 1.391 . S
C1939 C1938 1.386 . S
C1939 C1943 1.393 . S
C1940 H1932 0.950 . S
C1940 C1938 1.391 . S
C1940 C1941 1.400 . S
C1941 C1940 1.400 . S
C1941 C1942 1.398 . S
C1941 C1947 1.491 . S
C1942 H1933 0.950 . S
C1942 C1941 1.398 . S
C1942 C1943 1.391 . S
C1943 H1931 0.950 . S
C1943 C1939 1.393 . S
C1943 C1942 1.391 . S
C1944 H1934 0.950 . S
C1944 C1945 1.386 . S
C1944 C1946 1.391 . S
C1945 C1944 1.386 . S
C1945 C1949 1.393 . S
C1946 H1935 0.950 . S
C1946 C1944 1.391 . S
C1946 C1947 1.400 . S
C1947 C1941 1.491 . S
C1947 C1946 1.400 . S
C1947 C1948 1.398 . S
C1948 H1936 0.950 . S
C1948 C1947 1.398 . S
C1948 C1949 1.391 . S
C1949 H1937 0.950 . S
C1949 C1945 1.393 . S
C1949 C1948 1.391 . S
H1950 C1958 0.950 . S
H1951 C1963 0.950 . S
H1952 C1960 0.950 . S
H1953 C1962 0.950 . S
H1954 C1964 0.950 . S
H1955 C1966 0.950 . S
H1956 C1968 0.950 . S
H1957 C1969 0.950 . S
C1958 H1950 0.950 . S
C1958 C1959 1.386 . S
C1958 C1960 1.391 . S
C1959 C1958 1.386 . S
C1959 C1963 1.393 . S
C1960 H1952 0.950 . S
C1960 C1958 1.391 . S
C1960 C1961 1.400 . S
C1961 C1960 1.400 . S
C1961 C1962 1.398 . S
C1961 C1967 1.491 . S
C1962 H1953 0.950 . S
C1962 C1961 1.398 . S
C1962 C1963 1.391 . S
C1963 H1951 0.950 . S
C1963 C1959 1.393 . S
C1963 C1962 1.391 . S
C1964 H1954 0.950 . S
C1964 C1965 1.386 . S
C1964 C1966 1.391 . S
C1965 C1964 1.386 . S
C1965 C1969 1.393 . S
C1966 H1955 0.950 . S
C1966 C1964 1.391 . S
C1966 C1967 1.400 . S
C1967 C1961 1.491 . S
C1967 C1966 1.400 . S
C1967 C1968 1.398 . S
C1968 H1956 0.950 . S
C1968 C1967 1.398 . S
C1968 C1969 1.391 . S
C1969 H1957 0.950 . S
C1969 C1965 1.393 . S
C1969 C1968 1.391 . S
H1970 C1978 0.950 . S
H1971 C1983 0.950 . S
H1972 C1980 0.950 . S
H1973 C1982 0.950 . S
H1974 C1984 0.950 . S
H1975 C1986 0.950 . S
H1976 C1988 0.950 . S
H1977 C1989 0.950 . S
C1978 H1970 0.950 . S
C1978 C1979 1.386 . S
C1978 C1980 1.391 . S
C1979 C1978 1.386 . S
C1979 C1983 1.393 . S
C1980 H1972 0.950 . S
C1980 C1978 1.391 . S
C1980 C1981 1.400 . S
C1981 C1980 1.400 . S
C1981 C1982 1.398 . S
C1981 C1987 1.491 . S
C1982 H1973 0.950 . S
C1982 C1981 1.398 . S
C1982 C1983 1.391 . S
C1983 H1971 0.950 . S
C1983 C1979 1.393 . S
C1983 C1982 1.391 . S
C1984 H1974 0.950 . S
C1984 C1985 1.386 . S
C1984 C1986 1.391 . S
C1985 C1984 1.386 . S
C1985 C1989 1.393 . S
C1986 H1975 0.950 . S
C1986 C1984 1.391 . S
C1986 C1987 1.400 . S
C1987 C1981 1.491 . S
C1987 C1986 1.400 . S
C1987 C1988 1.398 . S
C1988 H1976 0.950 . S
C1988 C1987 1.398 . S
C1988 C1989 1.391 . S
C1989 H1977 0.950 . S
C1989 C1985 1.393 . S
C1989 C1988 1.391 . S
H1990 C1998 0.950 . S
H1991 C2003 0.950 . S
H1992 C2000 0.950 . S
H1993 C2002 0.950 . S
H1994 C2004 0.950 . S
H1995 C2006 0.950 . S
H1996 C2008 0.950 . S
H1997 C2009 0.950 . S
C1998 H1990 0.950 . S
C1998 C1999 1.386 . S
C1998 C2000 1.391 . S
C1999 C1998 1.386 . S
C1999 C2003 1.393 . S
C2000 H1992 0.950 . S
C2000 C1998 1.391 . S
C2000 C2001 1.400 . S
C2001 C2000 1.400 . S
C2001 C2002 1.398 . S
C2001 C2007 1.491 . S
C2002 H1993 0.950 . S
C2002 C2001 1.398 . S
C2002 C2003 1.391 . S
C2003 H1991 0.950 . S
C2003 C1999 1.393 . S
C2003 C2002 1.391 . S
C2004 H1994 0.950 . S
C2004 C2005 1.386 . S
C2004 C2006 1.391 . S
C2005 C2004 1.386 . S
C2005 C2009 1.393 . S
C2006 H1995 0.950 . S
C2006 C2004 1.391 . S
C2006 C2007 1.400 . S
C2007 C2001 1.491 . S
C2007 C2006 1.400 . S
C2007 C2008 1.398 . S
C2008 H1996 0.950 . S
C2008 C2007 1.398 . S
C2008 C2009 1.391 . S
C2009 H1997 0.950 . S
C2009 C2005 1.393 . S
C2009 C2008 1.391 . S
H2010 C2018 0.950 . S
H2011 C2023 0.950 . S
H2012 C2020 0.950 . S
H2013 C2022 0.950 . S
H2014 C2024 0.950 . S
H2015 C2026 0.950 . S
H2016 C2028 0.950 . S
H2017 C2029 0.950 . S
C2018 H2010 0.950 . S
C2018 C2019 1.386 . S
C2018 C2020 1.391 . S
C2019 C2018 1.386 . S
C2019 C2023 1.393 . S
C2020 H2012 0.950 . S
C2020 C2018 1.391 . S
C2020 C2021 1.400 . S
C2021 C2020 1.400 . S
C2021 C2022 1.398 . S
C2021 C2027 1.491 . S
C2022 H2013 0.950 . S
C2022 C2021 1.398 . S
C2022 C2023 1.391 . S
C2023 H2011 0.950 . S
C2023 C2019 1.393 . S
C2023 C2022 1.391 . S
C2024 H2014 0.950 . S
C2024 C2025 1.386 . S
C2024 C2026 1.391 . S
C2025 C2024 1.386 . S
C2025 C2029 1.393 . S
C2026 H2015 0.950 . S
C2026 C2024 1.391 . S
C2026 C2027 1.400 . S
C2027 C2021 1.491 . S
C2027 C2026 1.400 . S
C2027 C2028 1.398 . S
C2028 H2016 0.950 . S
C2028 C2027 1.398 . S
C2028 C2029 1.391 . S
C2029 H2017 0.950 . S
C2029 C2025 1.393 . S
C2029 C2028 1.391 . S
H2030 C2038 0.950 . S
H2031 C2043 0.950 . S
H2032 C2040 0.950 . S
H2033 C2042 0.950 . S
H2034 C2044 0.950 . S
H2035 C2046 0.950 . S
H2036 C2048 0.950 . S
H2037 C2049 0.950 . S
C2038 H2030 0.950 . S
C2038 C2039 1.386 . S
C2038 C2040 1.391 . S
C2039 C2038 1.386 . S
C2039 C2043 1.393 . S
C2040 H2032 0.950 . S
C2040 C2038 1.391 . S
C2040 C2041 1.400 . S
C2041 C2040 1.400 . S
C2041 C2042 1.398 . S
C2041 C2047 1.491 . S
C2042 H2033 0.950 . S
C2042 C2041 1.398 . S
C2042 C2043 1.391 . S
C2043 H2031 0.950 . S
C2043 C2039 1.393 . S
C2043 C2042 1.391 . S
C2044 H2034 0.950 . S
C2044 C2045 1.386 . S
C2044 C2046 1.391 . S
C2045 C2044 1.386 . S
C2045 C2049 1.393 . S
C2046 H2035 0.950 . S
C2046 C2044 1.391 . S
C2046 C2047 1.400 . S
C2047 C2041 1.491 . S
C2047 C2046 1.400 . S
C2047 C2048 1.398 . S
C2048 H2036 0.950 . S
C2048 C2047 1.398 . S
C2048 C2049 1.391 . S
C2049 H2037 0.950 . S
C2049 C2045 1.393 . S
C2049 C2048 1.391 . S
H2050 C2058 0.950 . S
H2051 C2063 0.950 . S
H2052 C2060 0.950 . S
H2053 C2062 0.950 . S
H2054 C2064 0.950 . S
H2055 C2066 0.950 . S
H2056 C2068 0.950 . S
H2057 C2069 0.950 . S
C2058 H2050 0.950 . S
C2058 C2059 1.386 . S
C2058 C2060 1.391 . S
C2059 C2058 1.386 . S
C2059 C2063 1.393 . S
C2060 H2052 0.950 . S
C2060 C2058 1.391 . S
C2060 C2061 1.400 . S
C2061 C2060 1.400 . S
C2061 C2062 1.398 . S
C2061 C2067 1.491 . S
C2062 H2053 0.950 . S
C2062 C2061 1.398 . S
C2062 C2063 1.391 . S
C2063 H2051 0.950 . S
C2063 C2059 1.393 . S
C2063 C2062 1.391 . S
C2064 H2054 0.950 . S
C2064 C2065 1.386 . S
C2064 C2066 1.391 . S
C2065 C2064 1.386 . S
C2065 C2069 1.393 . S
C2066 H2055 0.950 . S
C2066 C2064 1.391 . S
C2066 C2067 1.400 . S
C2067 C2061 1.491 . S
C2067 C2066 1.400 . S
C2067 C2068 1.398 . S
C2068 H2056 0.950 . S
C2068 C2067 1.398 . S
C2068 C2069 1.391 . S
C2069 H2057 0.950 . S
C2069 C2065 1.393 . S
C2069 C2068 1.391 . S
C999 N170 1.984 . S
C1005 C301 1.917 . S
C1019 N184 0.964 . S
C1025 C385 0.912 . S
C1039 N158 1.559 . S
C1045 C465 1.539 . S
C1059 N145 1.536 . S
C1065 C381 1.515 1_556 S
C1085 C469 0.908 . S
C1079 N119 0.898 . S
C1099 N131 1.943 . S
C1105 C297 1.909 . S
C1125 C290 1.591 . S
C1119 N144 1.649 . S
C1145 C374 1.332 . S
C1139 N118 1.359 . S
C1159 N132 1.436 . S
C1165 C476 1.425 . S
C1179 N171 1.418 . S
C1185 C392 1.414 . S
C1199 N183 1.306 . S
C1205 C458 1.287 . S
C1225 C308 1.575 . S
C1219 N157 1.604 . S
C1245 C553 1.918 . S
C1239 N14 1.985 . S
C1259 N28 0.963 . S
C1265 C637 0.937 . S
C1279 N2 1.559 . S
C1285 C717 1.527 . S
C1299 N223 1.529 . S
C1305 C633 1.502 . S
C1319 N197 0.911 . S
C1325 C721 0.860 . S
C1339 N209 1.941 . S
C1345 C549 1.900 . S
C1359 N222 1.643 . S
C1365 C542 1.565 . S
C1379 N196 1.360 . S
C1385 C626 1.332 . S
C1405 C728 1.422 . S
C1399 N210 1.430 . S
C1419 N15 1.413 . S
C1425 C644 1.404 . S
C1445 C710 1.286 . S
C1439 N27 1.306 . S
C1459 N1 1.599 . S
C1465 C560 1.557 . S
C1485 C805 1.916 . S
C1479 N92 1.983 . S
C1499 N106 0.965 . S
C1505 C889 0.914 . S
C1525 C969 1.540 . S
C1519 N80 1.560 . S
C1545 C885 1.516 . S
C1539 N67 1.536 . S
C1565 C973 0.889 . S
C1559 N41 0.892 . S
C1579 N53 1.943 . S
C1585 C801 1.909 . S
C1599 N66 1.643 . S
C1605 C794 1.570 . S
C1619 N40 1.356 . S
C1625 C878 1.338 . S
C1645 C980 1.430 . S
C1639 N54 1.439 . S
C1659 N93 1.415 . S
C1665 C896 1.404 . S
C1679 N105 1.317 . S
C1685 C962 1.283 . S
C1699 N79 1.604 . S
C1705 C812 1.575 . S
C1719 N200 1.234 . S
C1725 C304 1.150 . S
C1745 C388 1.618 . S
C1739 N213 1.788 . S
C1759 N226 1.498 . S
C1765 C460 1.388 . S
C1779 N83 1.533 . S
C1785 C376 1.416 . S
C1799 N96 1.768 . S
C1805 C472 1.604 . S
C1825 C292 1.187 . S
C1819 N109 1.258 . S
C1839 N44 1.252 . S
C1845 C556 1.108 . S
C1859 N57 1.784 . S
C1865 C640 1.610 . S
C1879 N70 1.493 . S
C1885 C712 1.362 . S
C1899 N161 1.537 . S
C1905 C628 1.416 . S
C1925 C724 1.574 . S
C1919 N174 1.755 . S
C1939 N187 1.272 . S
C1945 C544 1.148 . S
C1959 N122 1.254 . S
C1965 C808 1.110 . S
C1979 N135 1.793 . S
C1985 C892 1.612 . S
C2005 C964 1.382 . S
C1999 N148 1.504 . S
C2019 N5 1.533 . S
C2025 C880 1.416 . S
C2039 N18 1.758 . S
C2045 C976 1.566 . S
C2059 N31 1.262 . S
C2065 C796 1.192 . S
