# Generated by pormake.
# Topology hwx, (6,3)-cn, num edge types: 1
# Building blocks:
#     Node 0, Type 0, BuildingBlock: OJICUG_clean_sbu_0, # of connection points: 6
#     Node 1, Type 0, BuildingBlock: OJICUG_clean_sbu_0, # of connection points: 6
#     Node 2, Type 0, BuildingBlock: OJICUG_clean_sbu_0, # of connection points: 6
#     Node 3, Type 0, BuildingBlock: OJICUG_clean_sbu_0, # of connection points: 6
#     Node 4, Type 1, BuildingBlock: MIDCAF_clean_linker_0, # of connection points: 3
#     Node 5, Type 1, BuildingBlock: MIDCAF_clean_linker_0, # of connection points: 3
#     Node 6, Type 1, BuildingBlock: MIDCAF_clean_linker_0, # of connection points: 3
#     Node 7, Type 1, BuildingBlock: MIDCAF_clean_linker_0, # of connection points: 3
#     Node 8, Type 1, BuildingBlock: MIDCAF_clean_linker_0, # of connection points: 3
#     Node 9, Type 1, BuildingBlock: MIDCAF_clean_linker_0, # of connection points: 3
#     Node 10, Type 1, BuildingBlock: MIDCAF_clean_linker_0, # of connection points: 3
#     Node 11, Type 1, BuildingBlock: MIDCAF_clean_linker_0, # of connection points: 3
#     Edge 12, Type (0, 1), BuildingBlock: EZIPEK_clean_linker_0, # of connection points: 2
#     Edge 13, Type (0, 1), BuildingBlock: EZIPEK_clean_linker_0, # of connection points: 2
#     Edge 14, Type (0, 1), BuildingBlock: EZIPEK_clean_linker_0, # of connection points: 2
#     Edge 15, Type (0, 1), BuildingBlock: EZIPEK_clean_linker_0, # of connection points: 2
#     Edge 16, Type (0, 1), BuildingBlock: EZIPEK_clean_linker_0, # of connection points: 2
#     Edge 17, Type (0, 1), BuildingBlock: EZIPEK_clean_linker_0, # of connection points: 2
#     Edge 18, Type (0, 1), BuildingBlock: EZIPEK_clean_linker_0, # of connection points: 2
#     Edge 19, Type (0, 1), BuildingBlock: EZIPEK_clean_linker_0, # of connection points: 2
#     Edge 20, Type (0, 1), BuildingBlock: EZIPEK_clean_linker_0, # of connection points: 2
#     Edge 21, Type (0, 1), BuildingBlock: EZIPEK_clean_linker_0, # of connection points: 2
#     Edge 22, Type (0, 1), BuildingBlock: EZIPEK_clean_linker_0, # of connection points: 2
#     Edge 23, Type (0, 1), BuildingBlock: EZIPEK_clean_linker_0, # of connection points: 2
#     Edge 24, Type (0, 1), BuildingBlock: EZIPEK_clean_linker_0, # of connection points: 2
#     Edge 25, Type (0, 1), BuildingBlock: EZIPEK_clean_linker_0, # of connection points: 2
#     Edge 26, Type (0, 1), BuildingBlock: EZIPEK_clean_linker_0, # of connection points: 2
#     Edge 27, Type (0, 1), BuildingBlock: EZIPEK_clean_linker_0, # of connection points: 2
#     Edge 28, Type (0, 1), BuildingBlock: EZIPEK_clean_linker_0, # of connection points: 2
#     Edge 29, Type (0, 1), BuildingBlock: EZIPEK_clean_linker_0, # of connection points: 2
#     Edge 30, Type (0, 1), BuildingBlock: EZIPEK_clean_linker_0, # of connection points: 2
#     Edge 31, Type (0, 1), BuildingBlock: EZIPEK_clean_linker_0, # of connection points: 2
#     Edge 32, Type (0, 1), BuildingBlock: EZIPEK_clean_linker_0, # of connection points: 2
#     Edge 33, Type (0, 1), BuildingBlock: EZIPEK_clean_linker_0, # of connection points: 2
#     Edge 34, Type (0, 1), BuildingBlock: EZIPEK_clean_linker_0, # of connection points: 2
#     Edge 35, Type (0, 1), BuildingBlock: EZIPEK_clean_linker_0, # of connection points: 2
# Relax obj value: 0.078
# Max RMSD: 0.103
# Mean RMSD: 0.095
data_MOF--net-hwx--node1-OJICUG_clean_sbu_0--node2-MIDCAF_clean_linker_0--edge1-EZIPEK_clean_linker_0
_symmetry_space_group_name_H-M    P1
_symmetry_Int_Tables_number       1
_symmetry_cell_setting            triclinic
loop_
_symmetry_equiv_pos_as_xyz
'x, y, z'
_cell_length_a     47.601208
_cell_length_b     47.571132
_cell_length_c     21.668322
_cell_angle_alpha  89.967998
_cell_angle_beta   90.053423
_cell_angle_gamma 90.024822
loop_
_atom_site_label
_atom_site_type_symbol
_atom_site_fract_x
_atom_site_fract_y
_atom_site_fract_z
_atom_type_partial_charge
Sc0 Sc 0.21698 0.22744 0.07444 0.0
Sc1 Sc 0.17227 0.17687 0.00577 0.0
Sc2 Sc 0.21591 0.21966 0.91311 0.0
O3 O 0.20162 0.20804 -0.00224 0.0
C4 C 0.21218 0.27904 0.98109 0.0
C5 C 0.15163 0.22115 0.10604 0.0
C6 C 0.1507 0.21025 0.88721 0.0
C7 C 0.2128 0.16386 0.11931 0.0
C8 C 0.27208 0.22025 0.99356 0.0
C9 C 0.21171 0.15283 0.89994 0.0
O10 O 0.21382 0.26882 0.03514 0.0
O11 O 0.1471 0.20084 0.06929 0.0
O12 O 0.17425 0.22155 0.87526 0.0
O13 O 0.22301 0.18845 0.12206 0.0
O14 O 0.25925 0.21873 0.9422 0.0
O15 O 0.19435 0.14934 0.94376 0.0
O16 O 0.25982 0.2237 0.04493 0.0
O17 O 0.1941 0.15662 0.08061 0.0
O18 O 0.22108 0.17673 0.88364 0.0
O19 O 0.17549 0.23282 0.11285 0.0
O20 O 0.21203 0.264 0.93264 0.0
O21 O 0.14681 0.19322 0.93159 0.0
Sc22 Sc 0.27972 0.71927 0.40983 0.0
Sc23 Sc 0.32156 0.67472 0.50337 0.0
Sc24 Sc 0.27543 0.72373 0.57129 0.0
O25 O 0.29226 0.7059 0.49477 0.0
C26 C 0.28155 0.77706 0.48378 0.0
C27 C 0.34602 0.71224 0.39389 0.0
C28 C 0.3391 0.71657 0.61217 0.0
C29 C 0.28523 0.6531 0.38919 0.0
C30 C 0.22198 0.71778 0.484 0.0
C31 C 0.27852 0.65863 0.60854 0.0
O32 O 0.28191 0.7632 0.43372 0.0
O33 O 0.34921 0.69471 0.43769 0.0
O34 O 0.31587 0.72964 0.61253 0.0
O35 O 0.27555 0.67716 0.37543 0.0
O36 O 0.23326 0.72013 0.53689 0.0
O37 O 0.297 0.65179 0.56923 0.0
O38 O 0.23582 0.71712 0.43387 0.0
O39 O 0.3022 0.64894 0.43346 0.0
O40 O 0.26959 0.68358 0.61581 0.0
O41 O 0.32242 0.72247 0.37801 0.0
O42 O 0.27927 0.76574 0.53651 0.0
O43 O 0.34393 0.69577 0.5769 0.0
Sc44 Sc 0.78362 0.77823 0.91438 0.0
Sc45 Sc 0.82791 0.8191 0.01041 0.0
Sc46 Sc 0.77768 0.77337 0.07561 0.0
O47 O 0.79641 0.79025 0.0001 0.0
C48 C 0.72524 0.77991 0.98589 0.0
C49 C 0.79169 0.84439 0.89942 0.0
C50 C 0.7851 0.83717 0.11671 0.0
C51 C 0.85004 0.78304 0.89682 0.0
C52 C 0.78396 0.72016 0.98738 0.0
C53 C 0.84225 0.7757 0.11654 0.0
O54 O 0.73955 0.77994 0.93649 0.0
O55 O 0.80944 0.84698 0.94297 0.0
O56 O 0.77211 0.81385 0.1174 0.0
O57 O 0.82587 0.77441 0.8809 0.0
O58 O 0.78087 0.73121 0.04034 0.0
O59 O 0.84959 0.79447 0.07826 0.0
O60 O 0.78559 0.73424 0.93762 0.0
O61 O 0.85424 0.79906 0.94269 0.0
O62 O 0.81725 0.76665 0.12182 0.0
O63 O 0.78059 0.82114 0.8838 0.0
O64 O 0.73607 0.778 0.03918 0.0
O65 O 0.80604 0.84194 0.08179 0.0
Sc66 Sc 0.71426 0.28227 0.56614 0.0
Sc67 Sc 0.66856 0.32447 0.47706 0.0
Sc68 Sc 0.71658 0.27837 0.40426 0.0
O69 O 0.69972 0.29497 0.48249 0.0
C70 C 0.77096 0.28481 0.48797 0.0
C71 C 0.70643 0.34828 0.58619 0.0
C72 C 0.70961 0.34315 0.36868 0.0
C73 C 0.64819 0.28741 0.59081 0.0
C74 C 0.71349 0.22463 0.49228 0.0
C75 C 0.65166 0.28147 0.3698 0.0
O76 O 0.75772 0.28409 0.5388 0.0
O77 O 0.68766 0.35133 0.5451 0.0
O78 O 0.72007 0.31885 0.36078 0.0
O79 O 0.67262 0.27831 0.60327 0.0
O80 O 0.71561 0.236 0.43939 0.0
O81 O 0.6458 0.30116 0.40735 0.0
O82 O 0.71194 0.23847 0.54227 0.0
O83 O 0.64307 0.30417 0.54647 0.0
O84 O 0.67601 0.27095 0.36403 0.0
O85 O 0.71822 0.32494 0.59826 0.0
O86 O 0.75905 0.2838 0.43561 0.0
O87 O 0.69106 0.34856 0.40903 0.0
C88 C 0.23496 0.58959 0.16257 0.0
C89 C 0.23941 0.57454 0.21716 0.0
C90 C 0.23333 0.54569 0.21917 0.0
C91 C 0.22398 0.53182 0.16594 0.0
H92 H 0.21354 0.45239 0.08897 0.0
H93 H 0.21376 0.40105 0.08139 0.0
H94 H 0.1973 0.40659 0.88617 0.0
H95 H 0.19706 0.45782 0.89273 0.0
H96 H 0.22455 0.5148 0.82946 0.0
H97 H 0.23944 0.54341 0.74142 0.0
H98 H 0.21608 0.61869 0.8394 0.0
H99 H 0.20152 0.59042 0.92801 0.0
H100 H 0.22282 0.58822 0.06811 0.0
H101 H 0.23935 0.61193 0.16058 0.0
H102 H 0.23653 0.53387 0.26134 0.0
H103 H 0.22022 0.50939 0.16808 0.0
N104 N 0.21068 0.50368 0.04965 0.0
N105 N 0.20644 0.50571 0.94173 0.0
N106 N 0.21265 0.54701 -0.0015 0.0
C107 C 0.20688 0.49036 0.99464 0.0
C108 C 0.20912 0.53406 0.9434 0.0
C109 C 0.21348 0.53211 0.05184 0.0
C110 C 0.2054 0.4593 0.99143 0.0
C111 C 0.20981 0.44277 0.04443 0.0
C112 C 0.21002 0.41346 0.04026 0.0
C113 C 0.20576 0.40027 0.98318 0.0
C114 C 0.20079 0.41656 0.93047 0.0
C115 C 0.20064 0.44582 0.93449 0.0
C116 C 0.21225 0.55042 0.88596 0.0
C117 C 0.22186 0.53739 0.83169 0.0
C118 C 0.23041 0.55364 0.78139 0.0
C119 C 0.22899 0.58304 0.78446 0.0
C120 C 0.21732 0.59598 0.83654 0.0
C121 C 0.20912 0.5798 0.88707 0.0
C122 C 0.22041 0.54674 0.1103 0.0
C123 C 0.22546 0.57591 0.10977 0.0
C124 C 0.91249 0.7239 0.67678 0.0
C125 C 0.92782 0.7348 0.72645 0.0
C126 C 0.95726 0.73469 0.72453 0.0
C127 C 0.97121 0.72502 0.67185 0.0
H128 H 0.04951 0.70997 0.59613 0.0
H129 H 0.10068 0.71223 0.58779 0.0
H130 H 0.09483 0.70224 0.39056 0.0
H131 H 0.04365 0.69998 0.39787 0.0
H132 H 0.98552 0.72183 0.33765 0.0
H133 H 0.9564 0.73656 0.25039 0.0
H134 H 0.88175 0.71387 0.35132 0.0
H135 H 0.91055 0.69943 0.43925 0.0
H136 H 0.91381 0.7069 0.58577 0.0
H137 H 0.88973 0.72376 0.67788 0.0
H138 H 0.96933 0.74301 0.7628 0.0
H139 H 0.99392 0.7262 0.67048 0.0
N140 N -0.00161 0.70782 0.55747 0.0
N141 N 0.99558 0.7048 0.44955 0.0
N142 N 0.95457 0.70883 0.5083 0.0
C143 C 0.01134 0.70515 0.50184 0.0
C144 C 0.96717 0.70647 0.45246 0.0
C145 C 0.96995 0.7095 0.56102 0.0
C146 C 0.04238 0.7049 0.49765 0.0
C147 C 0.05901 0.70809 0.55093 0.0
C148 C 0.08823 0.70945 0.54636 0.0
C149 C 0.10127 0.70757 0.48857 0.0
C150 C 0.08494 0.70385 0.43544 0.0
C151 C 0.05573 0.70253 0.43988 0.0
C152 C 0.9503 0.70983 0.3957 0.0
C153 C 0.96296 0.7193 0.34082 0.0
C154 C 0.9464 0.72775 0.29092 0.0
C155 C 0.91705 0.72643 0.29493 0.0
C156 C 0.90443 0.71503 0.34773 0.0
C157 C 0.92091 0.70689 0.39787 0.0
C158 C 0.95582 0.7155 0.62039 0.0
C159 C 0.92633 0.71434 0.6242 0.0
C160 C 0.76255 0.40926 0.81045 0.0
C161 C 0.7541 0.42473 0.75869 0.0
C162 C 0.75709 0.45404 0.75841 0.0
C163 C 0.76723 0.46788 0.81082 0.0
H164 H 0.79465 0.54434 0.88103 0.0
H165 H 0.79532 0.5957 0.88209 0.0
H166 H 0.7869 0.59529 0.08007 0.0
H167 H 0.78626 0.54389 0.08002 0.0
H168 H 0.77604 0.48631 0.15056 0.0
H169 H 0.76061 0.46017 0.24221 0.0
H170 H 0.75705 0.38393 0.13523 0.0
H171 H 0.77265 0.40938 0.04402 0.0
H172 H 0.77802 0.41051 0.90281 0.0
H173 H 0.76037 0.38659 0.81113 0.0
H174 H 0.75056 0.4662 0.71863 0.0
H175 H 0.76825 0.49063 0.8104 0.0
N176 N 0.78471 0.49523 0.92466 0.0
N177 N 0.78506 0.49416 0.03303 0.0
N178 N 0.77836 0.45268 0.97689 0.0
C179 C 0.78735 0.50892 0.97943 0.0
C180 C 0.78071 0.46593 0.03203 0.0
C181 C 0.78035 0.46705 0.92308 0.0
C182 C 0.7902 0.53991 0.98045 0.0
C183 C 0.79315 0.55506 0.92497 0.0
C184 C 0.79356 0.5844 0.92534 0.0
C185 C 0.79098 0.59905 0.98107 0.0
C186 C 0.78884 0.58416 0.03668 0.0
C187 C 0.78852 0.55481 0.03644 0.0
C188 C 0.77527 0.45004 0.08962 0.0
C189 C 0.77245 0.4639 0.14672 0.0
C190 C 0.76362 0.44908 0.19908 0.0
C191 C 0.7575 0.42031 0.19484 0.0
C192 C 0.76157 0.4062 0.13895 0.0
C193 C 0.77047 0.42087 0.08688 0.0
C194 C 0.77424 0.45253 0.86424 0.0
C195 C 0.77256 0.42301 0.86277 0.0
C196 C 0.08685 0.27357 0.33776 0.0
C197 C 0.0734 0.26386 0.28441 0.0
C198 C 0.04398 0.26366 0.28136 0.0
C199 C 0.02813 0.27173 0.33268 0.0
H200 H 0.94796 0.29027 0.39717 0.0
H201 H 0.89662 0.29114 0.39529 0.0
H202 H 0.8947 0.28647 0.59383 0.0
H203 H 0.94603 0.28558 0.59675 0.0
H204 H 0.00374 0.25328 0.65687 0.0
H205 H 0.03116 0.23492 0.74402 0.0
H206 H 0.10624 0.27195 0.66801 0.0
H207 H 0.07926 0.28992 0.58053 0.0
H208 H 0.08213 0.28786 0.43048 0.0
H209 H 0.10957 0.27388 0.34057 0.0
H210 H 0.03337 0.25615 0.24029 0.0
H211 H 0.00545 0.27016 0.33024 0.0
N212 N 0.99711 0.28577 0.44482 0.0
N213 N 0.99603 0.2822 0.55293 0.0
N214 N 0.03891 0.28008 0.50035 0.0
C215 C 0.98225 0.28572 0.49842 0.0
C216 C 0.02441 0.27958 0.55409 0.0
C217 C 0.02551 0.2831 0.44557 0.0
C218 C 0.9512 0.28771 0.49715 0.0
C219 C 0.93673 0.28959 0.44059 0.0
C220 C 0.90741 0.29011 0.43928 0.0
C221 C 0.89213 0.28882 0.49439 0.0
C222 C 0.90633 0.28749 0.55094 0.0
C223 C 0.93565 0.28695 0.55237 0.0
C224 C 0.03943 0.27287 0.61179 0.0
C225 C 0.02596 0.25803 0.6595 0.0
C226 C 0.04155 0.24745 0.70906 0.0
C227 C 0.07064 0.25204 0.71194 0.0
C228 C 0.08379 0.2682 0.66627 0.0
C229 C 0.06836 0.27842 0.61643 0.0
C230 C 0.0416 0.27979 0.38775 0.0
C231 C 0.0711 0.28148 0.38903 0.0
C232 C 0.77342 0.92201 0.34716 0.0
C233 C 0.75566 0.92236 0.29553 0.0
C234 C 0.73274 0.94094 0.29397 0.0
C235 C 0.72724 0.95842 0.34455 0.0
H236 H 0.72246 0.04828 0.40499 0.0
H237 H 0.71794 0.0994 0.40365 0.0
H238 H 0.71094 0.10025 0.6019 0.0
H239 H 0.71555 0.04906 0.60428 0.0
H240 H 0.74607 0.9947 0.67723 0.0
H241 H 0.75972 0.9684 0.77038 0.0
H242 H 0.74658 0.89035 0.6736 0.0
H243 H 0.73309 0.91608 0.58104 0.0
H244 H 0.78101 0.93743 0.43821 0.0
H245 H 0.79119 0.90781 0.34907 0.0
H246 H 0.71875 0.94131 0.25452 0.0
H247 H 0.70907 0.97212 0.3435 0.0
N248 N 0.72967 -0.0004 0.45273 0.0
N249 N 0.72779 0.0002 0.56122 0.0
N250 N 0.7394 0.95875 0.50908 0.0
C251 C 0.72512 0.01387 0.50626 0.0
C252 C 0.73461 0.97249 0.56274 0.0
C253 C 0.73693 0.97206 0.45416 0.0
C254 C 0.71961 0.0445 0.50483 0.0
C255 C 0.71969 0.05919 0.44841 0.0
C256 C 0.71712 0.0884 0.44741 0.0
C257 C 0.7143 0.10337 0.50267 0.0
C258 C 0.71319 0.08886 0.55889 0.0
C259 C 0.71584 0.05964 0.56002 0.0
C260 C 0.73885 0.95744 0.62163 0.0
C261 C 0.74557 0.97194 0.67629 0.0
C262 C 0.75338 0.95703 0.72936 0.0
C263 C 0.75421 0.92756 0.72829 0.0
C264 C 0.74608 0.91312 0.67495 0.0
C265 C 0.73849 0.92789 0.62211 0.0
C266 C 0.74417 0.95679 0.39752 0.0
C267 C 0.76753 0.93882 0.39799 0.0
C268 C 0.58316 0.2242 0.80978 0.0
C269 C 0.56974 0.24031 0.76429 0.0
C270 C 0.54065 0.24469 0.76765 0.0
C271 C 0.52538 0.23423 0.81776 0.0
H272 H 0.44602 0.20816 0.88364 0.0
H273 H 0.39472 0.2093 0.8876 0.0
H274 H 0.39753 0.20732 0.08632 0.0
H275 H 0.44884 0.20616 0.0834 0.0
H276 H 0.50633 0.22801 0.14709 0.0
H277 H 0.53428 0.24383 0.23562 0.0
H278 H 0.61044 0.22483 0.13671 0.0
H279 H 0.58294 0.20911 0.04809 0.0
H280 H 0.57918 0.20294 0.89626 0.0
H281 H 0.60563 0.22064 0.80774 0.0
H282 H 0.53004 0.2572 0.73294 0.0
H283 H 0.50318 0.23901 0.82089 0.0
N284 N 0.49623 0.21121 0.92623 0.0
N285 N 0.49781 0.21004 0.03452 0.0
N286 N 0.53936 0.21463 0.97772 0.0
C287 C 0.4827 0.20885 0.98125 0.0
C288 C 0.52619 0.2128 0.03302 0.0
C289 C 0.5246 0.21387 0.92423 0.0
C290 C 0.45164 0.20728 0.98325 0.0
C291 C 0.43583 0.20771 0.9283 0.0
C292 C 0.40653 0.20832 0.93032 0.0
C293 C 0.39259 0.20846 0.9872 0.0
C294 C 0.40811 0.2072 0.04207 0.0
C295 C 0.43741 0.20658 0.04017 0.0
C296 C 0.54243 0.21757 0.09028 0.0
C297 C 0.52901 0.22659 0.14464 0.0
C298 C 0.54488 0.23571 0.19518 0.0
C299 C 0.5743 0.2356 0.19215 0.0
C300 C 0.58771 0.22508 0.13953 0.0
C301 C 0.57194 0.21616 0.08899 0.0
C302 C 0.53918 0.21977 0.86561 0.0
C303 C 0.56805 0.21416 0.86025 0.0
C304 C 0.25557 0.08653 0.6733 0.0
C305 C 0.25246 0.07164 0.7285 0.0
C306 C 0.25786 0.04264 0.72985 0.0
C307 C 0.26521 0.0285 0.67543 0.0
H308 H 0.28481 0.95015 0.59814 0.0
H309 H 0.28686 0.89885 0.59114 0.0
H310 H 0.29203 0.90431 0.39298 0.0
H311 H 0.29015 0.95551 0.39898 0.0
H312 H 0.3027 0.04065 0.35038 0.0
H313 H 0.29068 0.07217 0.26386 0.0
H314 H 0.20787 0.08396 0.3405 0.0
H315 H 0.22025 0.05373 0.42778 0.0
H316 H 0.26458 0.08478 0.57729 0.0
H317 H 0.2516 0.10895 0.67173 0.0
H318 H 0.25556 0.03092 0.77241 0.0
H319 H 0.26843 0.00598 0.67702 0.0
N320 N 0.27897 0.00094 0.55753 0.0
N321 N 0.27759 0.00241 0.44903 0.0
N322 N 0.26718 0.04269 0.50648 0.0
C323 C 0.28198 0.98773 0.50208 0.0
C324 C 0.27017 0.02985 0.45127 0.0
C325 C 0.27189 0.02862 0.55987 0.0
C326 C 0.287 0.95702 0.49909 0.0
C327 C 0.28684 0.94055 0.55307 0.0
C328 C 0.28799 0.91125 0.54926 0.0
C329 C 0.28942 0.89802 0.49155 0.0
C330 C 0.29088 0.9143 0.43783 0.0
C331 C 0.28975 0.94356 0.44152 0.0
C332 C 0.26235 0.04511 0.39523 0.0
C333 C 0.28186 0.04972 0.34783 0.0
C334 C 0.27503 0.06759 0.29872 0.0
C335 C 0.24841 0.0803 0.29608 0.0
C336 C 0.22849 0.07431 0.34187 0.0
C337 C 0.23555 0.05716 0.39153 0.0
C338 C 0.2672 0.04329 0.61927 0.0
C339 C 0.26292 0.07257 0.61932 0.0
C340 C 0.41537 0.76394 0.17599 0.0
C341 C 0.42964 0.75267 0.22676 0.0
C342 C 0.45908 0.751 0.22598 0.0
C343 C 0.47396 0.75918 0.17315 0.0
H344 H 0.55241 0.78485 0.0966 0.0
H345 H 0.60364 0.7866 0.08905 0.0
H346 H 0.59794 0.78616 0.89057 0.0
H347 H 0.54677 0.78452 0.89708 0.0
H348 H 0.47203 0.795 0.83945 0.0
H349 H 0.44152 0.78365 0.75086 0.0
H350 H 0.40648 0.71397 0.85256 0.0
H351 H 0.4357 0.72596 0.94137 0.0
H352 H 0.41835 0.77947 0.0839 0.0
H353 H 0.39265 0.76537 0.17606 0.0
H354 H 0.47032 0.7422 0.26494 0.0
H355 H 0.49655 0.75648 0.17218 0.0
N356 N 0.50171 0.77813 0.05739 0.0
N357 N 0.49948 0.77557 0.94907 0.0
N358 N 0.45916 0.76764 0.00823 0.0
C359 C 0.51464 0.78002 0.00144 0.0
C360 C 0.47177 0.76925 0.95245 0.0
C361 C 0.4738 0.77236 0.06083 0.0
C362 C 0.5454 0.78427 -0.00255 0.0
C363 C 0.56194 0.7855 0.05126 0.0
C364 C 0.59119 0.78651 0.04716 0.0
C365 C 0.60432 0.78638 0.98931 0.0
C366 C 0.58801 0.78626 0.93554 0.0
C367 C 0.55877 0.78527 0.93952 0.0
C368 C 0.45581 0.76151 0.89705 0.0
C369 C 0.45792 0.77717 0.84232 0.0
C370 C 0.44066 0.7707 0.79193 0.0
C371 C 0.42184 0.74799 0.79543 0.0
C372 C 0.42085 0.73158 0.84914 0.0
C373 C 0.43741 0.73851 0.89979 0.0
C374 C 0.45943 0.76873 0.12061 0.0
C375 C 0.4301 0.77187 0.12337 0.0
C376 C 0.12293 0.21445 0.2014 0.0
C377 C 0.1286 0.23012 0.14714 0.0
C378 C 0.09623 0.26711 0.1803 0.0
C379 C 0.09043 0.25141 0.23436 0.0
N380 N 0.09276 0.20762 0.29028 0.0
N381 N 0.11525 0.26685 0.07674 0.0
C382 C 0.10208 0.22423 0.24298 0.0
C383 C 0.11357 0.25512 0.13406 0.0
N384 N 0.13808 0.19071 0.21407 0.0
N385 N 0.08609 0.29384 0.17424 0.0
H386 H 0.12752 0.25812 0.04195 0.0
H387 H 0.10266 0.28346 0.06205 0.0
H388 H 0.07287 0.30312 0.20676 0.0
H389 H 0.09229 0.30749 0.13921 0.0
H390 H 0.13756 0.18039 0.25643 0.0
H391 H 0.15249 0.18208 0.18323 0.0
H392 H 0.09831 0.18658 0.29546 0.0
H393 H 0.07746 0.21413 0.32161 0.0
C394 C 0.24512 0.6196 0.63225 0.0
C395 C 0.26795 0.63677 0.65063 0.0
C396 C 0.26852 0.61424 0.75201 0.0
C397 C 0.24295 0.60045 0.73691 0.0
N398 N 0.2053 0.59157 0.6649 0.0
N399 N 0.30181 0.65109 0.72714 0.0
C400 C 0.23086 0.60337 0.67742 0.0
C401 C 0.27983 0.63423 0.71031 0.0
N402 N 0.23754 0.61835 0.57149 0.0
N403 N 0.28247 0.60743 0.80519 0.0
H404 H 0.31213 0.66428 0.69609 0.0
H405 H 0.309 0.65299 0.77234 0.0
H406 H 0.27511 0.59247 0.83646 0.0
H407 H 0.30254 0.61465 0.81583 0.0
H408 H 0.22273 0.60427 0.5543 0.0
H409 H 0.248 0.62967 0.53725 0.0
H410 H 0.19404 0.59558 0.62461 0.0
H411 H 0.19428 0.57947 0.69692 0.0
C412 C 0.8804 0.74165 0.14233 0.0
C413 C 0.86356 0.76487 0.15965 0.0
C414 C 0.8858 0.7658 0.26135 0.0
C415 C 0.89942 0.74003 0.24719 0.0
N416 N 0.90788 0.70173 0.17669 0.0
N417 N 0.84932 0.79924 0.23501 0.0
C418 C 0.89639 0.72753 0.18816 0.0
C419 C 0.86603 0.77704 0.21903 0.0
N420 N 0.88165 0.73362 0.08186 0.0
N421 N 0.89262 0.78003 0.31414 0.0
H422 H 0.83624 0.80945 0.20354 0.0
H423 H 0.84738 0.8067 0.27998 0.0
H424 H 0.90741 0.77273 0.34587 0.0
H425 H 0.88557 0.80024 0.32401 0.0
H426 H 0.89556 0.7185 0.06535 0.0
H427 H 0.87056 0.74399 0.0471 0.0
H428 H 0.90379 0.69023 0.13681 0.0
H429 H 0.91977 0.69078 0.20924 0.0
C430 C 0.74147 0.3858 0.60817 0.0
C431 C 0.71536 0.37309 0.62197 0.0
C432 C 0.71132 0.40172 0.71522 0.0
C433 C 0.73975 0.41004 0.70745 0.0
N434 N 0.78237 0.41031 0.64736 0.0
N435 N 0.67352 0.37051 0.68389 0.0
C436 C 0.75488 0.40254 0.65364 0.0
C437 C 0.6995 0.38183 0.67376 0.0
N438 N 0.75292 0.38239 0.55091 0.0
N439 N 0.69572 0.4131 0.76193 0.0
H440 H 0.66342 0.35785 0.65145 0.0
H441 H 0.66225 0.37299 0.72464 0.0
H442 H 0.70386 0.42777 0.79296 0.0
H443 H 0.67426 0.40983 0.76734 0.0
H444 H 0.77069 0.39314 0.53579 0.0
H445 H 0.74291 0.37077 0.51643 0.0
H446 H 0.79541 0.40269 0.61263 0.0
H447 H 0.79268 0.42312 0.67923 0.0
C448 C 0.61425 0.24657 0.34258 0.0
C449 C 0.62952 0.27125 0.32766 0.0
C450 C 0.60388 0.27532 0.2302 0.0
C451 C 0.59137 0.24874 0.24148 0.0
N452 N 0.58605 0.2076 0.30541 0.0
N453 N 0.64181 0.3074 0.25445 0.0
C454 C 0.59672 0.23402 0.29716 0.0
C455 C 0.62503 0.28528 0.27081 0.0
N456 N 0.61634 0.23534 0.40038 0.0
N457 N 0.59519 0.29119 0.18115 0.0
H458 H 0.65763 0.31518 0.28299 0.0
H459 H 0.64164 0.31653 0.21077 0.0
H460 H 0.57963 0.28457 0.15047 0.0
H461 H 0.60146 0.31192 0.17409 0.0
H462 H 0.60359 0.21915 0.41653 0.0
H463 H 0.62959 0.24374 0.43391 0.0
H464 H 0.5918 0.19448 0.34176 0.0
H465 H 0.57279 0.19793 0.27346 0.0
C466 C 0.2023 0.11259 0.82795 0.0
C467 C 0.22147 0.12792 0.86525 0.0
C468 C 0.26105 0.10177 0.82143 0.0
C469 C 0.24194 0.08691 0.78333 0.0
N470 N 0.19454 0.07268 0.76033 0.0
N471 N 0.26766 0.13255 0.90955 0.0
C472 C 0.21256 0.09043 0.7903 0.0
C473 C 0.25046 0.121 0.86583 0.0
N474 N 0.17466 0.12036 0.8254 0.0
N475 N 0.28931 0.09825 0.81334 0.0
H476 H 0.26028 0.14646 0.94299 0.0
H477 H 0.28847 0.12658 0.91626 0.0
H478 H 0.29765 0.08334 0.78318 0.0
H479 H 0.30444 0.11089 0.83417 0.0
H480 H 0.16044 0.11239 0.79333 0.0
H481 H 0.16614 0.13629 0.85255 0.0
H482 H 0.17296 0.07229 0.76812 0.0
H483 H 0.20146 0.05653 0.7316 0.0
C484 C 0.38647 0.7445 0.37321 0.0
C485 C 0.37078 0.72025 0.35698 0.0
C486 C 0.40029 0.71329 0.26599 0.0
C487 C 0.41294 0.7398 0.27695 0.0
N488 N 0.41814 0.78141 0.33916 0.0
N489 N 0.3609 0.68243 0.2862 0.0
C490 C 0.40636 0.75549 0.33059 0.0
C491 C 0.37738 0.70467 0.30321 0.0
N492 N 0.38229 0.75694 0.42926 0.0
N493 N 0.41029 0.69643 0.21988 0.0
H494 H 0.34397 0.67548 0.31257 0.0
H495 H 0.36262 0.67218 0.24394 0.0
H496 H 0.42706 0.70225 0.19164 0.0
H497 H 0.40379 0.67575 0.21324 0.0
H498 H 0.39492 0.77297 0.44663 0.0
H499 H 0.36723 0.74983 0.4605 0.0
H500 H 0.41178 0.79539 0.37332 0.0
H501 H 0.43344 0.78959 0.30974 0.0
C502 C 0.75876 0.8837 0.87451 0.0
C503 C 0.78434 0.86943 0.8627 0.0
C504 C 0.79348 0.90029 0.77472 0.0
C505 C 0.76591 0.91122 0.78041 0.0
N506 N 0.72163 0.91336 0.83391 0.0
N507 N 0.82565 0.8626 0.80024 0.0
C508 C 0.74846 0.90327 0.83039 0.0
C509 C 0.80183 0.87756 0.8129 0.0
N510 N 0.74452 0.87862 0.92807 0.0
N511 N 0.81158 0.91172 0.73265 0.0
H512 H 0.83247 0.84592 0.8276 0.0
H513 H 0.83759 0.86536 0.76047 0.0
H514 H 0.80598 0.92842 0.7039 0.0
H515 H 0.83279 0.9065 0.73008 0.0
H516 H 0.72725 0.89031 0.94248 0.0
H517 H 0.75137 0.86397 0.96058 0.0
H518 H 0.70671 0.90579 0.86486 0.0
H519 H 0.71375 0.92836 0.80333 0.0
C520 C 0.8799 0.7424 0.86462 0.0
C521 C 0.87443 0.77177 0.86262 0.0
C522 C 0.9077 0.77748 0.77755 0.0
C523 C 0.91254 0.74804 0.7783 0.0
N524 N 0.90877 0.70339 0.82971 0.0
N525 N 0.88838 0.81817 0.82977 0.0
C526 C 0.9004 0.73078 0.82439 0.0
C527 C 0.89019 0.78964 0.82336 0.0
N528 N 0.86505 0.72566 0.90427 0.0
N529 N 0.91865 0.79358 0.73108 0.0
H530 H 0.87571 0.8278 0.86268 0.0
H531 H 0.90134 0.83227 0.80656 0.0
H532 H 0.93217 0.78562 0.69751 0.0
H533 H 0.91301 0.81442 0.72328 0.0
H534 H 0.86537 0.7038 0.90317 0.0
H535 H 0.85141 0.73372 0.93749 0.0
H536 H 0.9027 0.69014 0.86553 0.0
H537 H 0.92374 0.69441 0.8006 0.0
C538 C 0.75043 0.372 0.3336 0.0
C539 C 0.72111 0.36649 0.33125 0.0
C540 C 0.71545 0.40274 0.2518 0.0
C541 C 0.7451 0.40478 0.24737 0.0
N542 N 0.79128 0.39131 0.28188 0.0
N543 N 0.67539 0.37585 0.2873 0.0
C544 C 0.76275 0.38959 0.28811 0.0
C545 C 0.70341 0.38199 0.29087 0.0
N546 N 0.76629 0.36101 0.38045 0.0
N547 N 0.69887 0.42069 0.21855 0.0
H548 H 0.66547 0.36149 0.31627 0.0
H549 H 0.66215 0.38369 0.25315 0.0
H550 H 0.70701 0.43574 0.18845 0.0
H551 H 0.67724 0.42236 0.22451 0.0
H552 H 0.78719 0.36639 0.38828 0.0
H553 H 0.75783 0.34846 0.41529 0.0
H554 H 0.80527 0.37815 0.30494 0.0
H555 H 0.801 0.40496 0.25082 0.0
C556 C 0.12767 0.20725 0.78372 0.0
C557 C 0.12699 0.21686 0.84564 0.0
C558 C 0.08752 0.24799 0.82159 0.0
C559 C 0.08804 0.23821 0.75983 0.0
N560 N 0.10321 0.20352 0.6859 0.0
N561 N 0.1019 0.24022 0.92747 0.0
C562 C 0.10646 0.21621 0.74208 0.0
C563 C 0.10537 0.23516 0.86593 0.0
N564 N 0.14889 0.18998 0.76449 0.0
N565 N 0.07107 0.27044 0.83717 0.0
H566 H 0.11444 0.23084 0.96102 0.0
H567 H 0.08496 0.25133 0.94556 0.0
H568 H 0.05765 0.28037 0.80597 0.0
H569 H 0.07226 0.28058 0.87966 0.0
H570 H 0.15254 0.18507 0.71838 0.0
H571 H 0.1639 0.18168 0.79449 0.0
H572 H 0.11418 0.18561 0.67257 0.0
H573 H 0.08758 0.20934 0.65461 0.0
C574 C 0.24479 0.62374 0.35434 0.0
C575 C 0.27422 0.62865 0.35445 0.0
C576 C 0.28071 0.59094 0.2787 0.0
C577 C 0.25114 0.58954 0.27122 0.0
N578 N 0.20459 0.60389 0.30103 0.0
N579 N 0.32069 0.61696 0.31813 0.0
C580 C 0.23302 0.60548 0.30941 0.0
C581 C 0.29242 0.61187 0.31793 0.0
N582 N 0.22827 0.63612 0.3982 0.0
N583 N 0.2975 0.57233 0.24793 0.0
H584 H 0.33024 0.63116 0.34807 0.0
H585 H 0.33466 0.60818 0.28667 0.0
H586 H 0.28958 0.55721 0.21773 0.0
H587 H 0.31897 0.57025 0.25584 0.0
H588 H 0.20711 0.63142 0.40453 0.0
H589 H 0.23636 0.64932 0.43228 0.0
H590 H 0.19033 0.61753 0.32171 0.0
H591 H 0.19524 0.58963 0.27074 0.0
C592 C 0.35257 0.73199 0.71903 0.0
C593 C 0.36082 0.72527 0.65768 0.0
C594 C 0.41011 0.73264 0.68689 0.0
C595 C 0.40126 0.74238 0.74555 0.0
N596 N 0.36349 0.75892 0.81028 0.0
N597 N 0.39742 0.72577 0.57998 0.0
C598 C 0.37228 0.74455 0.75921 0.0
C599 C 0.38961 0.72747 0.64051 0.0
N600 N 0.32653 0.7249 0.74066 0.0
N601 N 0.43787 0.72735 0.67599 0.0
H602 H 0.38314 0.72296 0.54414 0.0
H603 H 0.41774 0.73008 0.56483 0.0
H604 H 0.4535 0.73064 0.70894 0.0
H605 H 0.445 0.71737 0.63618 0.0
H606 H 0.32084 0.72709 0.78686 0.0
H607 H 0.3118 0.71372 0.71496 0.0
H608 H 0.34239 0.76322 0.81898 0.0
H609 H 0.37735 0.76915 0.84011 0.0
C610 C 0.76952 0.85187 0.22283 0.0
C611 C 0.77603 0.8593 0.16083 0.0
C612 C 0.76898 0.90906 0.18665 0.0
C613 C 0.76 0.90109 0.24647 0.0
N614 N 0.74381 0.86445 0.31474 0.0
N615 N 0.77489 0.89472 0.08047 0.0
C616 C 0.75764 0.87232 0.26223 0.0
C617 C 0.77371 0.88785 0.14164 0.0
N618 N 0.77629 0.82596 0.2458 0.0
N619 N 0.77401 0.93668 0.17331 0.0
H620 H 0.7773 0.87984 0.0457 0.0
H621 H 0.77052 0.91481 0.06387 0.0
H622 H 0.77083 0.95282 0.20507 0.0
H623 H 0.78354 0.94326 0.1325 0.0
H624 H 0.77439 0.82087 0.29241 0.0
H625 H 0.78683 0.81063 0.22059 0.0
H626 H 0.73927 0.84354 0.32521 0.0
H627 H 0.73423 0.87889 0.34422 0.0
C628 C 0.62626 0.28667 0.69583 0.0
C629 C 0.62508 0.27885 0.63261 0.0
C630 C 0.58618 0.24657 0.65465 0.0
C631 C 0.58693 0.25504 0.71731 0.0
N632 N 0.60197 0.28863 0.79385 0.0
N633 N 0.59952 0.2569 0.54925 0.0
C634 C 0.60521 0.27685 0.73673 0.0
C635 C 0.60349 0.2607 0.61108 0.0
N636 N 0.64779 0.30302 0.71722 0.0
N637 N 0.56999 0.22418 0.63728 0.0
H638 H 0.61166 0.26702 0.51613 0.0
H639 H 0.58251 0.246 0.53074 0.0
H640 H 0.55702 0.21335 0.66791 0.0
H641 H 0.57104 0.21496 0.59377 0.0
H642 H 0.65163 0.30644 0.76395 0.0
H643 H 0.66303 0.31176 0.68858 0.0
H644 H 0.61278 0.30651 0.80824 0.0
H645 H 0.5864 0.28229 0.82474 0.0
C646 C 0.23295 0.11618 0.14236 0.0
C647 C 0.22323 0.14268 0.16375 0.0
C648 C 0.23664 0.12989 0.26895 0.0
C649 C 0.24186 0.10199 0.24911 0.0
N650 N 0.2413 0.06733 0.16775 0.0
N651 N 0.21104 0.17274 0.24984 0.0
C652 C 0.23909 0.09474 0.18594 0.0
C653 C 0.22384 0.14908 0.22773 0.0
N654 N 0.23745 0.11184 0.0808 0.0
N655 N 0.24449 0.13827 0.3268 0.0
H656 H 0.2005 0.1871 0.22184 0.0
H657 H 0.20838 0.17664 0.2968 0.0
H658 H 0.2547 0.12499 0.35789 0.0
H659 H 0.24359 0.15913 0.34135 0.0
H660 H 0.24709 0.09382 0.06352 0.0
H661 H 0.23437 0.12739 0.04754 0.0
H662 H 0.23651 0.0606 0.12322 0.0
H663 H 0.24558 0.05097 0.19838 0.0
C664 C 0.18573 0.32357 0.00289 0.0
C665 C 0.20916 0.30999 0.97522 0.0
C666 C 0.2305 0.35583 0.95309 0.0
C667 C 0.20658 0.36924 0.97858 0.0
N668 N 0.15905 0.36656 0.01617 0.0
N669 N 0.251 0.31316 0.91232 0.0
C670 C 0.18347 0.35329 0.00014 0.0
C671 C 0.2306 0.32611 0.94634 0.0
N672 N 0.16568 0.30802 0.03229 0.0
N673 N 0.25365 0.37141 0.93788 0.0
H674 H 0.25227 0.29148 0.90693 0.0
H675 H 0.26531 0.324 0.88486 0.0
H676 H 0.25437 0.39324 0.9419 0.0
H677 H 0.27294 0.36262 0.92609 0.0
H678 H 0.15029 0.31666 0.06063 0.0
H679 H 0.16533 0.28617 0.03089 0.0
H680 H 0.14039 0.35601 0.02579 0.0
H681 H 0.15668 0.38835 0.01487 0.0
C682 C 0.17858 0.68958 0.50408 0.0
C683 C 0.19115 0.7146 0.48126 0.0
C684 C 0.14467 0.73528 0.46409 0.0
C685 C 0.1322 0.70971 0.48385 0.0
N686 N 0.13664 0.66086 0.51157 0.0
N687 N 0.18679 0.75966 0.43092 0.0
C688 C 0.14899 0.68635 0.50067 0.0
C689 C 0.17436 0.73692 0.45824 0.0
N690 N 0.19492 0.66908 0.52992 0.0
N691 N 0.12817 0.75833 0.45349 0.0
H692 H 0.2085 0.76221 0.42805 0.0
H693 H 0.17569 0.77511 0.40716 0.0
H694 H 0.10632 0.75789 0.45685 0.0
H695 H 0.1361 0.77842 0.4459 0.0
H696 H 0.18682 0.65206 0.55435 0.0
H697 H 0.21678 0.66995 0.53041 0.0
H698 H 0.14787 0.64226 0.51732 0.0
H699 H 0.11496 0.65775 0.50972 0.0
C700 C 0.76345 0.67345 0.95909 0.0
C701 C 0.78611 0.68924 0.98378 0.0
C702 C 0.81312 0.64601 0.00032 0.0
C703 C 0.78949 0.63014 0.98104 0.0
N704 N 0.74078 0.62797 0.95059 0.0
N705 N 0.83127 0.69097 0.0344 0.0
C706 C 0.76428 0.64364 0.96248 0.0
C707 C 0.81059 0.67562 0.00641 0.0
N708 N 0.74118 0.68692 0.93229 0.0
N709 N 0.83821 0.63284 0.01082 0.0
H710 H 0.83077 0.71282 0.03723 0.0
H711 H 0.84798 0.68202 0.0584 0.0
H712 H 0.84079 0.61114 0.00702 0.0
H713 H 0.85701 0.64351 0.01834 0.0
H714 H 0.7256 0.6766 0.90725 0.0
H715 H 0.73917 0.70873 0.93116 0.0
H716 H 0.72094 0.63661 0.94373 0.0
H717 H 0.74054 0.60606 0.95248 0.0
C718 C 0.81568 0.31103 0.50819 0.0
C719 C 0.80195 0.2859 0.48978 0.0
C720 C 0.84736 0.26214 0.47913 0.0
C721 C 0.86107 0.28788 0.49278 0.0
N722 N 0.85909 0.33771 0.51213 0.0
N723 N 0.80415 0.23832 0.45126 0.0
C724 C 0.84545 0.31259 0.50521 0.0
C725 C 0.81765 0.26169 0.47313 0.0
N726 N 0.80023 0.33327 0.52908 0.0
N727 N 0.86272 0.23794 0.47411 0.0
H728 H 0.78235 0.23653 0.44913 0.0
H729 H 0.81449 0.22128 0.43149 0.0
H730 H 0.88458 0.23748 0.47762 0.0
H731 H 0.85384 0.21799 0.47127 0.0
H732 H 0.80897 0.35095 0.54992 0.0
H733 H 0.77835 0.33325 0.52942 0.0
H734 H 0.84886 0.35702 0.51446 0.0
H735 H 0.88092 0.33958 0.5109 0.0
C736 C 0.73733 0.1795 0.52015 0.0
C737 C 0.71347 0.19362 0.49594 0.0
C738 C 0.68912 0.14864 0.48229 0.0
C739 C 0.71378 0.13447 0.50163 0.0
N740 N 0.76281 0.13561 0.52987 0.0
N741 N 0.66805 0.19204 0.44665 0.0
C742 C 0.73829 0.14968 0.51834 0.0
C743 C 0.68978 0.17828 0.4747 0.0
N744 N 0.75907 0.19458 0.54493 0.0
N745 N 0.66485 0.13381 0.4731 0.0
H746 H 0.66738 0.21382 0.44244 0.0
H747 H 0.6517 0.18188 0.42376 0.0
H748 H 0.66365 0.11203 0.47809 0.0
H749 H 0.6454 0.14317 0.46545 0.0
H750 H 0.77544 0.18552 0.56983 0.0
H751 H 0.75994 0.21647 0.54428 0.0
H752 H 0.78215 0.14551 0.53525 0.0
H753 H 0.76437 0.11374 0.52917 0.0
C754 C 0.31521 0.19107 0.00776 0.0
C755 C 0.30292 0.21748 0.99379 0.0
C756 C 0.34955 0.2385 0.98142 0.0
C757 C 0.36168 0.21149 0.98943 0.0
N758 N 0.35657 0.16142 0.00249 0.0
N759 N 0.30742 0.26612 0.96454 0.0
C760 C 0.34465 0.18757 0.00061 0.0
C761 C 0.31984 0.24115 0.97968 0.0
N762 N 0.29881 0.16958 0.02927 0.0
N763 N 0.36648 0.2617 0.97776 0.0
H764 H 0.28581 0.2693 0.96757 0.0
H765 H 0.31821 0.28323 0.94627 0.0
H766 H 0.38836 0.26058 0.97847 0.0
H767 H 0.35903 0.28226 0.97855 0.0
H768 H 0.30684 0.15078 0.04639 0.0
H769 H 0.2771 0.17132 0.03465 0.0
H770 H 0.34498 0.14286 0.00355 0.0
H771 H 0.37814 0.15812 -0.00188 0.0
C772 C 0.25907 0.82419 0.49616 0.0
C773 C 0.28316 0.80804 0.48108 0.0
C774 C 0.3117 0.85085 0.47478 0.0
C775 C 0.28733 0.86704 0.48701 0.0
N776 N 0.23698 0.87009 0.4975 0.0
N777 N 0.33121 0.80561 0.44622 0.0
C778 C 0.26074 0.85398 0.49436 0.0
C779 C 0.30911 0.82129 0.46707 0.0
N780 N 0.23466 0.81105 0.51289 0.0
N781 N 0.33742 0.86364 0.47291 0.0
H782 H 0.3303 0.78383 0.44181 0.0
H783 H 0.34968 0.81426 0.42889 0.0
H784 H 0.34005 0.88529 0.47795 0.0
H785 H 0.35635 0.85274 0.47102 0.0
H786 H 0.21749 0.8215 0.53174 0.0
H787 H 0.23204 0.78929 0.51145 0.0
H788 H 0.21672 0.86186 0.49594 0.0
H789 H 0.23733 0.89201 0.49651 0.0
C790 C 0.68083 0.80636 0.9637 0.0
C791 C 0.6943 0.78102 0.98163 0.0
C792 C 0.64856 0.75829 -0.00405 0.0
C793 C 0.63528 0.78451 0.98506 0.0
N794 N 0.63815 0.83423 0.96471 0.0
N795 N 0.69162 0.73318 0.01861 0.0
C796 C 0.65122 0.80875 0.9702 0.0
C797 C 0.67833 0.75705 -0.00113 0.0
N798 N 0.69631 0.82808 0.94029 0.0
N799 N 0.63269 0.73443 0.00149 0.0
H800 H 0.71338 0.73072 0.01779 0.0
H801 H 0.68125 0.71633 0.03913 0.0
H802 H 0.61079 0.73451 -0.0002 0.0
H803 H 0.64112 0.71425 0.00263 0.0
H804 H 0.68752 0.84591 0.92019 0.0
H805 H 0.7181 0.82735 0.93647 0.0
H806 H 0.64886 0.85323 0.96085 0.0
H807 H 0.61645 0.8367 0.96863 0.0
loop_
_geom_bond_atom_site_label_1
_geom_bond_atom_site_label_2
_geom_bond_distance
_geom_bond_site_symmetry_2
_ccdc_geom_bond_type
Sc0 O3 2.032 . S
Sc0 O10 2.105 . S
Sc0 O13 2.105 . S
Sc0 O16 2.105 . S
Sc0 O19 2.105 . S
Sc1 O3 2.025 . S
Sc1 O11 2.110 . S
Sc1 O15 2.100 1_554 S
Sc1 O17 2.110 . S
Sc1 O21 2.100 1_554 S
Sc2 O3 2.019 1_556 S
Sc2 O12 2.105 . S
Sc2 O14 2.105 . S
Sc2 O18 2.105 . S
Sc2 O20 2.105 . S
O3 Sc0 2.032 . S
O3 Sc1 2.025 . S
O3 Sc2 2.019 1_554 S
C4 O10 1.271 . S
C4 O20 1.266 1_554 S
C5 O11 1.268 . S
C5 O19 1.268 . S
C6 O12 1.268 . S
C6 O21 1.268 . S
C7 O13 1.268 . S
C7 O17 1.268 . S
C8 O14 1.257 1_554 S
C8 O16 1.279 . S
C9 O15 1.268 . S
C9 O18 1.268 . S
O10 Sc0 2.105 . S
O10 C4 1.271 . S
O11 Sc1 2.110 . S
O11 C5 1.268 . S
O12 Sc2 2.105 . S
O12 C6 1.268 . S
O13 Sc0 2.105 . S
O13 C7 1.268 . S
O14 Sc2 2.105 . S
O14 C8 1.257 1_556 S
O15 Sc1 2.100 1_556 S
O15 C9 1.268 . S
O16 Sc0 2.105 . S
O16 C8 1.279 . S
O17 Sc1 2.110 . S
O17 C7 1.268 . S
O18 Sc2 2.105 . S
O18 C9 1.268 . S
O19 Sc0 2.105 . S
O19 C5 1.268 . S
O20 Sc2 2.105 . S
O20 C4 1.266 1_556 S
O21 Sc1 2.100 1_556 S
O21 C6 1.268 . S
Sc22 O25 2.025 . S
Sc22 O32 2.105 . S
Sc22 O35 2.105 . S
Sc22 O38 2.105 . S
Sc22 O41 2.105 . S
Sc23 O25 2.025 . S
Sc23 O33 2.105 . S
Sc23 O37 2.105 . S
Sc23 O39 2.105 . S
Sc23 O43 2.105 . S
Sc24 O25 2.025 . S
Sc24 O34 2.105 . S
Sc24 O36 2.105 . S
Sc24 O40 2.105 . S
Sc24 O42 2.105 . S
O25 Sc22 2.025 . S
O25 Sc23 2.025 . S
O25 Sc24 2.025 . S
C26 O32 1.268 . S
C26 O42 1.268 . S
C27 O33 1.268 . S
C27 O41 1.268 . S
C28 O34 1.268 . S
C28 O43 1.268 . S
C29 O35 1.268 . S
C29 O39 1.268 . S
C30 O36 1.268 . S
C30 O38 1.268 . S
C31 O37 1.268 . S
C31 O40 1.268 . S
O32 Sc22 2.105 . S
O32 C26 1.268 . S
O33 Sc23 2.105 . S
O33 C27 1.268 . S
O34 Sc24 2.105 . S
O34 C28 1.268 . S
O35 Sc22 2.105 . S
O35 C29 1.268 . S
O36 Sc24 2.105 . S
O36 C30 1.268 . S
O37 Sc23 2.105 . S
O37 C31 1.268 . S
O38 Sc22 2.105 . S
O38 C30 1.268 . S
O39 Sc23 2.105 . S
O39 C29 1.268 . S
O40 Sc24 2.105 . S
O40 C31 1.268 . S
O41 Sc22 2.105 . S
O41 C27 1.268 . S
O42 Sc24 2.105 . S
O42 C26 1.268 . S
O43 Sc23 2.105 . S
O43 C28 1.268 . S
Sc44 O47 2.019 1_556 S
Sc44 O54 2.105 . S
Sc44 O57 2.105 . S
Sc44 O60 2.105 . S
Sc44 O63 2.105 . S
Sc45 O47 2.025 . S
Sc45 O55 2.100 1_554 S
Sc45 O59 2.110 . S
Sc45 O61 2.100 1_554 S
Sc45 O65 2.110 . S
Sc46 O47 2.032 . S
Sc46 O56 2.105 . S
Sc46 O58 2.105 . S
Sc46 O62 2.105 . S
Sc46 O64 2.105 . S
O47 Sc44 2.019 1_554 S
O47 Sc45 2.025 . S
O47 Sc46 2.032 . S
C48 O54 1.266 1_554 S
C48 O64 1.271 . S
C49 O55 1.268 . S
C49 O63 1.268 . S
C50 O56 1.268 . S
C50 O65 1.268 . S
C51 O57 1.268 . S
C51 O61 1.268 . S
C52 O58 1.279 . S
C52 O60 1.257 1_554 S
C53 O59 1.268 . S
C53 O62 1.268 . S
O54 Sc44 2.105 . S
O54 C48 1.266 1_556 S
O55 Sc45 2.100 1_556 S
O55 C49 1.268 . S
O56 Sc46 2.105 . S
O56 C50 1.268 . S
O57 Sc44 2.105 . S
O57 C51 1.268 . S
O58 Sc46 2.105 . S
O58 C52 1.279 . S
O59 Sc45 2.110 . S
O59 C53 1.268 . S
O60 Sc44 2.105 . S
O60 C52 1.257 1_556 S
O61 Sc45 2.100 1_556 S
O61 C51 1.268 . S
O62 Sc46 2.105 . S
O62 C53 1.268 . S
O63 Sc44 2.105 . S
O63 C49 1.268 . S
O64 Sc46 2.105 . S
O64 C48 1.271 . S
O65 Sc45 2.110 . S
O65 C50 1.268 . S
Sc66 O69 2.025 . S
Sc66 O76 2.105 . S
Sc66 O79 2.105 . S
Sc66 O82 2.105 . S
Sc66 O85 2.105 . S
Sc67 O69 2.025 . S
Sc67 O77 2.105 . S
Sc67 O81 2.105 . S
Sc67 O83 2.105 . S
Sc67 O87 2.105 . S
Sc68 O69 2.025 . S
Sc68 O78 2.105 . S
Sc68 O80 2.105 . S
Sc68 O84 2.105 . S
Sc68 O86 2.105 . S
O69 Sc66 2.025 . S
O69 Sc67 2.025 . S
O69 Sc68 2.025 . S
C70 O76 1.268 . S
C70 O86 1.268 . S
C71 O77 1.268 . S
C71 O85 1.268 . S
C72 O78 1.268 . S
C72 O87 1.268 . S
C73 O79 1.268 . S
C73 O83 1.268 . S
C74 O80 1.268 . S
C74 O82 1.268 . S
C75 O81 1.268 . S
C75 O84 1.268 . S
O76 Sc66 2.105 . S
O76 C70 1.268 . S
O77 Sc67 2.105 . S
O77 C71 1.268 . S
O78 Sc68 2.105 . S
O78 C72 1.268 . S
O79 Sc66 2.105 . S
O79 C73 1.268 . S
O80 Sc68 2.105 . S
O80 C74 1.268 . S
O81 Sc67 2.105 . S
O81 C75 1.268 . S
O82 Sc66 2.105 . S
O82 C74 1.268 . S
O83 Sc67 2.105 . S
O83 C73 1.268 . S
O84 Sc68 2.105 . S
O84 C75 1.268 . S
O85 Sc66 2.105 . S
O85 C71 1.268 . S
O86 Sc68 2.105 . S
O86 C70 1.268 . S
O87 Sc67 2.105 . S
O87 C72 1.268 . S
C88 C89 1.384 . S
C88 H101 0.947 . S
C88 C123 1.382 . S
C89 C88 1.384 . S
C89 C90 1.378 . S
C90 C89 1.378 . S
C90 C91 1.378 . S
C90 H102 0.952 . S
C91 C90 1.378 . S
C91 H103 0.950 . S
C91 C122 1.383 . S
H92 C111 0.947 . S
H93 C112 0.946 . S
H94 C114 0.953 . S
H95 C115 0.945 . S
H96 C117 0.952 . S
H97 C118 0.949 . S
H98 C120 0.950 . S
H99 C121 0.948 . S
H100 C123 0.951 . S
H101 C88 0.947 . S
H102 C90 0.952 . S
H103 C91 0.950 . S
N104 C107 1.382 1_554 S
N104 C109 1.363 . S
N105 C107 1.371 . S
N105 C108 1.372 . S
N106 C108 1.361 . S
N106 C109 1.377 1_556 S
C107 N104 1.382 1_556 S
C107 N105 1.371 . S
C107 C110 1.480 . S
C108 N105 1.372 . S
C108 N106 1.361 . S
C108 C116 1.457 . S
C109 N104 1.363 . S
C109 N106 1.377 1_554 S
C109 C122 1.479 . S
C110 C107 1.480 . S
C110 C111 1.383 1_556 S
C110 C115 1.385 . S
C111 H92 0.947 . S
C111 C110 1.383 1_554 S
C111 C112 1.388 . S
C112 H93 0.946 . S
C112 C111 1.388 . S
C112 C113 1.384 1_554 S
C113 C112 1.384 1_556 S
C113 C114 1.377 . S
C114 H94 0.953 . S
C114 C113 1.377 . S
C114 C115 1.369 . S
C115 H95 0.945 . S
C115 C110 1.385 . S
C115 C114 1.369 . S
C116 C108 1.457 . S
C116 C117 1.372 . S
C116 C121 1.364 . S
C117 H96 0.952 . S
C117 C116 1.372 . S
C117 C118 1.389 . S
C118 H97 0.949 . S
C118 C117 1.389 . S
C118 C119 1.387 . S
C119 C118 1.387 . S
C119 C120 1.372 . S
C120 H98 0.950 . S
C120 C119 1.372 . S
C120 C121 1.379 . S
C121 H99 0.948 . S
C121 C116 1.364 . S
C121 C120 1.379 . S
C122 C91 1.383 . S
C122 C109 1.479 . S
C122 C123 1.398 . S
C123 C88 1.382 . S
C123 H100 0.951 . S
C123 C122 1.398 . S
C124 C125 1.384 . S
C124 H137 0.947 . S
C124 C159 1.382 . S
C125 C124 1.384 . S
C125 C126 1.378 . S
C126 C125 1.378 . S
C126 C127 1.378 . S
C126 H138 0.952 . S
C127 C126 1.378 . S
C127 H139 0.950 . S
C127 C158 1.383 . S
H128 C147 0.947 . S
H129 C148 0.946 . S
H130 C150 0.953 . S
H131 C151 0.945 . S
H132 C153 0.952 . S
H133 C154 0.949 . S
H134 C156 0.950 . S
H135 C157 0.948 . S
H136 C159 0.951 . S
H137 C124 0.947 . S
H138 C126 0.952 . S
H139 C127 0.950 . S
N140 C143 1.382 1_655 S
N140 C145 1.363 . S
N141 C143 1.371 1_655 S
N141 C144 1.372 . S
N142 C144 1.361 . S
N142 C145 1.377 . S
C143 N140 1.382 1_455 S
C143 N141 1.371 1_455 S
C143 C146 1.480 . S
C144 N141 1.372 . S
C144 N142 1.361 . S
C144 C152 1.457 . S
C145 N140 1.363 . S
C145 N142 1.377 . S
C145 C158 1.479 . S
C146 C143 1.480 . S
C146 C147 1.383 . S
C146 C151 1.385 . S
C147 H128 0.947 . S
C147 C146 1.383 . S
C147 C148 1.388 . S
C148 H129 0.946 . S
C148 C147 1.388 . S
C148 C149 1.384 . S
C149 C148 1.384 . S
C149 C150 1.377 . S
C150 H130 0.953 . S
C150 C149 1.377 . S
C150 C151 1.369 . S
C151 H131 0.945 . S
C151 C146 1.385 . S
C151 C150 1.369 . S
C152 C144 1.457 . S
C152 C153 1.372 . S
C152 C157 1.364 . S
C153 H132 0.952 . S
C153 C152 1.372 . S
C153 C154 1.389 . S
C154 H133 0.949 . S
C154 C153 1.389 . S
C154 C155 1.387 . S
C155 C154 1.387 . S
C155 C156 1.372 . S
C156 H134 0.950 . S
C156 C155 1.372 . S
C156 C157 1.379 . S
C157 H135 0.948 . S
C157 C152 1.364 . S
C157 C156 1.379 . S
C158 C127 1.383 . S
C158 C145 1.479 . S
C158 C159 1.398 . S
C159 C124 1.382 . S
C159 H136 0.951 . S
C159 C158 1.398 . S
C160 C161 1.384 . S
C160 H173 0.947 . S
C160 C195 1.382 . S
C161 C160 1.384 . S
C161 C162 1.378 . S
C162 C161 1.378 . S
C162 C163 1.378 . S
C162 H174 0.952 . S
C163 C162 1.378 . S
C163 H175 0.950 . S
C163 C194 1.383 . S
H164 C183 0.947 . S
H165 C184 0.946 . S
H166 C186 0.953 . S
H167 C187 0.945 . S
H168 C189 0.952 . S
H169 C190 0.949 . S
H170 C192 0.950 . S
H171 C193 0.948 . S
H172 C195 0.951 . S
H173 C160 0.947 . S
H174 C162 0.952 . S
H175 C163 0.950 . S
N176 C179 1.382 1_556 S
N176 C181 1.363 . S
N177 C179 1.371 . S
N177 C180 1.372 . S
N178 C180 1.361 . S
N178 C181 1.377 1_554 S
C179 N176 1.382 1_554 S
C179 N177 1.371 . S
C179 C182 1.480 . S
C180 N177 1.372 . S
C180 N178 1.361 . S
C180 C188 1.457 . S
C181 N176 1.363 . S
C181 N178 1.377 1_556 S
C181 C194 1.479 . S
C182 C179 1.480 . S
C182 C183 1.383 1_554 S
C182 C187 1.385 . S
C183 H164 0.947 . S
C183 C182 1.383 1_556 S
C183 C184 1.388 . S
C184 H165 0.946 . S
C184 C183 1.388 . S
C184 C185 1.384 1_556 S
C185 C184 1.384 1_554 S
C185 C186 1.377 . S
C186 H166 0.953 . S
C186 C185 1.377 . S
C186 C187 1.369 . S
C187 H167 0.945 . S
C187 C182 1.385 . S
C187 C186 1.369 . S
C188 C180 1.457 . S
C188 C189 1.372 . S
C188 C193 1.364 . S
C189 H168 0.952 . S
C189 C188 1.372 . S
C189 C190 1.389 . S
C190 H169 0.949 . S
C190 C189 1.389 . S
C190 C191 1.387 . S
C191 C190 1.387 . S
C191 C192 1.372 . S
C192 H170 0.950 . S
C192 C191 1.372 . S
C192 C193 1.379 . S
C193 H171 0.948 . S
C193 C188 1.364 . S
C193 C192 1.379 . S
C194 C163 1.383 . S
C194 C181 1.479 . S
C194 C195 1.398 . S
C195 C160 1.382 . S
C195 H172 0.951 . S
C195 C194 1.398 . S
C196 C197 1.384 . S
C196 H209 0.947 . S
C196 C231 1.382 . S
C197 C196 1.384 . S
C197 C198 1.378 . S
C198 C197 1.378 . S
C198 C199 1.378 . S
C198 H210 0.952 . S
C199 C198 1.378 . S
C199 H211 0.950 . S
C199 C230 1.383 . S
H200 C219 0.947 . S
H201 C220 0.946 . S
H202 C222 0.953 . S
H203 C223 0.945 . S
H204 C225 0.952 . S
H205 C226 0.949 . S
H206 C228 0.950 . S
H207 C229 0.948 . S
H208 C231 0.951 . S
H209 C196 0.947 . S
H210 C198 0.952 . S
H211 C199 0.950 . S
N212 C215 1.382 1_455 S
N212 C217 1.363 . S
N213 C215 1.371 1_455 S
N213 C216 1.372 . S
N214 C216 1.361 . S
N214 C217 1.377 . S
C215 N212 1.382 1_655 S
C215 N213 1.371 1_655 S
C215 C218 1.480 . S
C216 N213 1.372 . S
C216 N214 1.361 . S
C216 C224 1.457 . S
C217 N212 1.363 . S
C217 N214 1.377 . S
C217 C230 1.479 . S
C218 C215 1.480 . S
C218 C219 1.383 . S
C218 C223 1.385 . S
C219 H200 0.947 . S
C219 C218 1.383 . S
C219 C220 1.388 . S
C220 H201 0.946 . S
C220 C219 1.388 . S
C220 C221 1.384 . S
C221 C220 1.384 . S
C221 C222 1.377 . S
C222 H202 0.953 . S
C222 C221 1.377 . S
C222 C223 1.369 . S
C223 H203 0.945 . S
C223 C218 1.385 . S
C223 C222 1.369 . S
C224 C216 1.457 . S
C224 C225 1.372 . S
C224 C229 1.364 . S
C225 H204 0.952 . S
C225 C224 1.372 . S
C225 C226 1.389 . S
C226 H205 0.949 . S
C226 C225 1.389 . S
C226 C227 1.387 . S
C227 C226 1.387 . S
C227 C228 1.372 . S
C228 H206 0.950 . S
C228 C227 1.372 . S
C228 C229 1.379 . S
C229 H207 0.948 . S
C229 C224 1.364 . S
C229 C228 1.379 . S
C230 C199 1.383 . S
C230 C217 1.479 . S
C230 C231 1.398 . S
C231 C196 1.382 . S
C231 H208 0.951 . S
C231 C230 1.398 . S
C232 C233 1.384 . S
C232 H245 0.947 . S
C232 C267 1.382 . S
C233 C232 1.384 . S
C233 C234 1.378 . S
C234 C233 1.378 . S
C234 C235 1.378 . S
C234 H246 0.952 . S
C235 C234 1.378 . S
C235 H247 0.950 . S
C235 C266 1.383 . S
H236 C255 0.947 . S
H237 C256 0.946 . S
H238 C258 0.953 . S
H239 C259 0.945 . S
H240 C261 0.952 . S
H241 C262 0.949 . S
H242 C264 0.950 . S
H243 C265 0.948 . S
H244 C267 0.951 . S
H245 C232 0.947 . S
H246 C234 0.952 . S
H247 C235 0.950 . S
N248 C251 1.382 1_565 S
N248 C253 1.363 . S
N249 C251 1.371 1_565 S
N249 C252 1.372 . S
N250 C252 1.361 . S
N250 C253 1.377 . S
C251 N248 1.382 1_545 S
C251 N249 1.371 1_545 S
C251 C254 1.480 . S
C252 N249 1.372 . S
C252 N250 1.361 . S
C252 C260 1.457 . S
C253 N248 1.363 . S
C253 N250 1.377 . S
C253 C266 1.479 . S
C254 C251 1.480 . S
C254 C255 1.383 . S
C254 C259 1.385 . S
C255 H236 0.947 . S
C255 C254 1.383 . S
C255 C256 1.388 . S
C256 H237 0.946 . S
C256 C255 1.388 . S
C256 C257 1.384 . S
C257 C256 1.384 . S
C257 C258 1.377 . S
C258 H238 0.953 . S
C258 C257 1.377 . S
C258 C259 1.369 . S
C259 H239 0.945 . S
C259 C254 1.385 . S
C259 C258 1.369 . S
C260 C252 1.457 . S
C260 C261 1.372 . S
C260 C265 1.364 . S
C261 H240 0.952 . S
C261 C260 1.372 . S
C261 C262 1.389 . S
C262 H241 0.949 . S
C262 C261 1.389 . S
C262 C263 1.387 . S
C263 C262 1.387 . S
C263 C264 1.372 . S
C264 H242 0.950 . S
C264 C263 1.372 . S
C264 C265 1.379 . S
C265 H243 0.948 . S
C265 C260 1.364 . S
C265 C264 1.379 . S
C266 C235 1.383 . S
C266 C253 1.479 . S
C266 C267 1.398 . S
C267 C232 1.382 . S
C267 H244 0.951 . S
C267 C266 1.398 . S
C268 C269 1.384 . S
C268 H281 0.947 . S
C268 C303 1.382 . S
C269 C268 1.384 . S
C269 C270 1.378 . S
C270 C269 1.378 . S
C270 C271 1.378 . S
C270 H282 0.952 . S
C271 C270 1.378 . S
C271 H283 0.950 . S
C271 C302 1.383 . S
H272 C291 0.947 . S
H273 C292 0.946 . S
H274 C294 0.953 . S
H275 C295 0.945 . S
H276 C297 0.952 . S
H277 C298 0.949 . S
H278 C300 0.950 . S
H279 C301 0.948 . S
H280 C303 0.951 . S
H281 C268 0.947 . S
H282 C270 0.952 . S
H283 C271 0.950 . S
N284 C287 1.382 1_556 S
N284 C289 1.363 . S
N285 C287 1.371 . S
N285 C288 1.372 . S
N286 C288 1.361 . S
N286 C289 1.377 1_554 S
C287 N284 1.382 1_554 S
C287 N285 1.371 . S
C287 C290 1.480 . S
C288 N285 1.372 . S
C288 N286 1.361 . S
C288 C296 1.457 . S
C289 N284 1.363 . S
C289 N286 1.377 1_556 S
C289 C302 1.479 . S
C290 C287 1.480 . S
C290 C291 1.383 1_554 S
C290 C295 1.385 . S
C291 H272 0.947 . S
C291 C290 1.383 1_556 S
C291 C292 1.388 . S
C292 H273 0.946 . S
C292 C291 1.388 . S
C292 C293 1.384 1_556 S
C293 C292 1.384 1_554 S
C293 C294 1.377 . S
C294 H274 0.953 . S
C294 C293 1.377 . S
C294 C295 1.369 . S
C295 H275 0.945 . S
C295 C290 1.385 . S
C295 C294 1.369 . S
C296 C288 1.457 . S
C296 C297 1.372 . S
C296 C301 1.364 . S
C297 H276 0.952 . S
C297 C296 1.372 . S
C297 C298 1.389 . S
C298 H277 0.949 . S
C298 C297 1.389 . S
C298 C299 1.387 . S
C299 C298 1.387 . S
C299 C300 1.372 . S
C300 H278 0.950 . S
C300 C299 1.372 . S
C300 C301 1.379 . S
C301 H279 0.948 . S
C301 C296 1.364 . S
C301 C300 1.379 . S
C302 C271 1.383 . S
C302 C289 1.479 . S
C302 C303 1.398 . S
C303 C268 1.382 . S
C303 H280 0.951 . S
C303 C302 1.398 . S
C304 C305 1.384 . S
C304 H317 0.947 . S
C304 C339 1.382 . S
C305 C304 1.384 . S
C305 C306 1.378 . S
C306 C305 1.378 . S
C306 C307 1.378 . S
C306 H318 0.952 . S
C307 C306 1.378 . S
C307 H319 0.950 . S
C307 C338 1.383 . S
H308 C327 0.947 . S
H309 C328 0.946 . S
H310 C330 0.953 . S
H311 C331 0.945 . S
H312 C333 0.952 . S
H313 C334 0.949 . S
H314 C336 0.950 . S
H315 C337 0.948 . S
H316 C339 0.951 . S
H317 C304 0.947 . S
H318 C306 0.952 . S
H319 C307 0.950 . S
N320 C323 1.382 1_545 S
N320 C325 1.363 . S
N321 C323 1.371 1_545 S
N321 C324 1.372 . S
N322 C324 1.361 . S
N322 C325 1.377 . S
C323 N320 1.382 1_565 S
C323 N321 1.371 1_565 S
C323 C326 1.480 . S
C324 N321 1.372 . S
C324 N322 1.361 . S
C324 C332 1.457 . S
C325 N320 1.363 . S
C325 N322 1.377 . S
C325 C338 1.479 . S
C326 C323 1.480 . S
C326 C327 1.383 . S
C326 C331 1.385 . S
C327 H308 0.947 . S
C327 C326 1.383 . S
C327 C328 1.388 . S
C328 H309 0.946 . S
C328 C327 1.388 . S
C328 C329 1.384 . S
C329 C328 1.384 . S
C329 C330 1.377 . S
C330 H310 0.953 . S
C330 C329 1.377 . S
C330 C331 1.369 . S
C331 H311 0.945 . S
C331 C326 1.385 . S
C331 C330 1.369 . S
C332 C324 1.457 . S
C332 C333 1.372 . S
C332 C337 1.364 . S
C333 H312 0.952 . S
C333 C332 1.372 . S
C333 C334 1.389 . S
C334 H313 0.949 . S
C334 C333 1.389 . S
C334 C335 1.387 . S
C335 C334 1.387 . S
C335 C336 1.372 . S
C336 H314 0.950 . S
C336 C335 1.372 . S
C336 C337 1.379 . S
C337 H315 0.948 . S
C337 C332 1.364 . S
C337 C336 1.379 . S
C338 C307 1.383 . S
C338 C325 1.479 . S
C338 C339 1.398 . S
C339 C304 1.382 . S
C339 H316 0.951 . S
C339 C338 1.398 . S
C340 C341 1.384 . S
C340 H353 0.947 . S
C340 C375 1.382 . S
C341 C340 1.384 . S
C341 C342 1.378 . S
C342 C341 1.378 . S
C342 C343 1.378 . S
C342 H354 0.952 . S
C343 C342 1.378 . S
C343 H355 0.950 . S
C343 C374 1.383 . S
H344 C363 0.947 . S
H345 C364 0.946 . S
H346 C366 0.953 . S
H347 C367 0.945 . S
H348 C369 0.952 . S
H349 C370 0.949 . S
H350 C372 0.950 . S
H351 C373 0.948 . S
H352 C375 0.951 . S
H353 C340 0.947 . S
H354 C342 0.952 . S
H355 C343 0.950 . S
N356 C359 1.382 1_554 S
N356 C361 1.363 . S
N357 C359 1.371 . S
N357 C360 1.372 . S
N358 C360 1.361 . S
N358 C361 1.377 1_556 S
C359 N356 1.382 1_556 S
C359 N357 1.371 . S
C359 C362 1.480 . S
C360 N357 1.372 . S
C360 N358 1.361 . S
C360 C368 1.457 . S
C361 N356 1.363 . S
C361 N358 1.377 1_554 S
C361 C374 1.479 . S
C362 C359 1.480 . S
C362 C363 1.383 1_556 S
C362 C367 1.385 . S
C363 H344 0.947 . S
C363 C362 1.383 1_554 S
C363 C364 1.388 . S
C364 H345 0.946 . S
C364 C363 1.388 . S
C364 C365 1.384 1_554 S
C365 C364 1.384 1_556 S
C365 C366 1.377 . S
C366 H346 0.953 . S
C366 C365 1.377 . S
C366 C367 1.369 . S
C367 H347 0.945 . S
C367 C362 1.385 . S
C367 C366 1.369 . S
C368 C360 1.457 . S
C368 C369 1.372 . S
C368 C373 1.364 . S
C369 H348 0.952 . S
C369 C368 1.372 . S
C369 C370 1.389 . S
C370 H349 0.949 . S
C370 C369 1.389 . S
C370 C371 1.387 . S
C371 C370 1.387 . S
C371 C372 1.372 . S
C372 H350 0.950 . S
C372 C371 1.372 . S
C372 C373 1.379 . S
C373 H351 0.948 . S
C373 C368 1.364 . S
C373 C372 1.379 . S
C374 C343 1.383 . S
C374 C361 1.479 . S
C374 C375 1.398 . S
C375 C340 1.382 . S
C375 H352 0.951 . S
C375 C374 1.398 . S
C376 C377 1.363 . S
C376 C382 1.379 . S
C376 N384 1.356 . S
C377 C376 1.363 . S
C377 C383 1.363 . S
C378 C379 1.363 . S
C378 C383 1.379 . S
C378 N385 1.356 . S
C379 C378 1.363 . S
C379 C382 1.363 . S
N380 C382 1.356 . S
N380 H392 0.984 . S
N380 H393 0.985 . S
N381 C383 1.356 . S
N381 H386 0.984 . S
N381 H387 0.985 . S
C382 C376 1.379 . S
C382 C379 1.363 . S
C382 N380 1.356 . S
C383 C377 1.363 . S
C383 C378 1.379 . S
C383 N381 1.356 . S
N384 C376 1.356 . S
N384 H390 0.984 . S
N384 H391 0.984 . S
N385 C378 1.356 . S
N385 H388 0.984 . S
N385 H389 0.985 . S
H386 N381 0.984 . S
H387 N381 0.985 . S
H388 N385 0.984 . S
H389 N385 0.985 . S
H390 N384 0.984 . S
H391 N384 0.984 . S
H392 N380 0.984 . S
H393 N380 0.985 . S
C394 C395 1.363 . S
C394 C400 1.379 . S
C394 N402 1.356 . S
C395 C394 1.363 . S
C395 C401 1.363 . S
C396 C397 1.363 . S
C396 C401 1.379 . S
C396 N403 1.356 . S
C397 C396 1.363 . S
C397 C400 1.363 . S
N398 C400 1.356 . S
N398 H410 0.984 . S
N398 H411 0.985 . S
N399 C401 1.356 . S
N399 H404 0.984 . S
N399 H405 0.985 . S
C400 C394 1.379 . S
C400 C397 1.363 . S
C400 N398 1.356 . S
C401 C395 1.363 . S
C401 C396 1.379 . S
C401 N399 1.356 . S
N402 C394 1.356 . S
N402 H408 0.984 . S
N402 H409 0.984 . S
N403 C396 1.356 . S
N403 H406 0.984 . S
N403 H407 0.985 . S
H404 N399 0.984 . S
H405 N399 0.985 . S
H406 N403 0.984 . S
H407 N403 0.985 . S
H408 N402 0.984 . S
H409 N402 0.984 . S
H410 N398 0.984 . S
H411 N398 0.985 . S
C412 C413 1.363 . S
C412 C418 1.379 . S
C412 N420 1.356 . S
C413 C412 1.363 . S
C413 C419 1.363 . S
C414 C415 1.363 . S
C414 C419 1.379 . S
C414 N421 1.356 . S
C415 C414 1.363 . S
C415 C418 1.363 . S
N416 C418 1.356 . S
N416 H428 0.984 . S
N416 H429 0.985 . S
N417 C419 1.356 . S
N417 H422 0.984 . S
N417 H423 0.985 . S
C418 C412 1.379 . S
C418 C415 1.363 . S
C418 N416 1.356 . S
C419 C413 1.363 . S
C419 C414 1.379 . S
C419 N417 1.356 . S
N420 C412 1.356 . S
N420 H426 0.984 . S
N420 H427 0.984 . S
N421 C414 1.356 . S
N421 H424 0.984 . S
N421 H425 0.985 . S
H422 N417 0.984 . S
H423 N417 0.985 . S
H424 N421 0.984 . S
H425 N421 0.985 . S
H426 N420 0.984 . S
H427 N420 0.984 . S
H428 N416 0.984 . S
H429 N416 0.985 . S
C430 C431 1.363 . S
C430 C436 1.379 . S
C430 N438 1.356 . S
C431 C430 1.363 . S
C431 C437 1.363 . S
C432 C433 1.363 . S
C432 C437 1.379 . S
C432 N439 1.356 . S
C433 C432 1.363 . S
C433 C436 1.363 . S
N434 C436 1.356 . S
N434 H446 0.984 . S
N434 H447 0.985 . S
N435 C437 1.356 . S
N435 H440 0.984 . S
N435 H441 0.985 . S
C436 C430 1.379 . S
C436 C433 1.363 . S
C436 N434 1.356 . S
C437 C431 1.363 . S
C437 C432 1.379 . S
C437 N435 1.356 . S
N438 C430 1.356 . S
N438 H444 0.984 . S
N438 H445 0.984 . S
N439 C432 1.356 . S
N439 H442 0.984 . S
N439 H443 0.985 . S
H440 N435 0.984 . S
H441 N435 0.985 . S
H442 N439 0.984 . S
H443 N439 0.985 . S
H444 N438 0.984 . S
H445 N438 0.984 . S
H446 N434 0.984 . S
H447 N434 0.985 . S
C448 C449 1.363 . S
C448 C454 1.379 . S
C448 N456 1.356 . S
C449 C448 1.363 . S
C449 C455 1.363 . S
C450 C451 1.363 . S
C450 C455 1.379 . S
C450 N457 1.356 . S
C451 C450 1.363 . S
C451 C454 1.363 . S
N452 C454 1.356 . S
N452 H464 0.984 . S
N452 H465 0.985 . S
N453 C455 1.356 . S
N453 H458 0.984 . S
N453 H459 0.985 . S
C454 C448 1.379 . S
C454 C451 1.363 . S
C454 N452 1.356 . S
C455 C449 1.363 . S
C455 C450 1.379 . S
C455 N453 1.356 . S
N456 C448 1.356 . S
N456 H462 0.984 . S
N456 H463 0.984 . S
N457 C450 1.356 . S
N457 H460 0.984 . S
N457 H461 0.985 . S
H458 N453 0.984 . S
H459 N453 0.985 . S
H460 N457 0.984 . S
H461 N457 0.985 . S
H462 N456 0.984 . S
H463 N456 0.984 . S
H464 N452 0.984 . S
H465 N452 0.985 . S
C466 C467 1.363 . S
C466 C472 1.379 . S
C466 N474 1.356 . S
C467 C466 1.363 . S
C467 C473 1.363 . S
C468 C469 1.363 . S
C468 C473 1.379 . S
C468 N475 1.356 . S
C469 C468 1.363 . S
C469 C472 1.363 . S
N470 C472 1.356 . S
N470 H482 0.984 . S
N470 H483 0.985 . S
N471 C473 1.356 . S
N471 H476 0.984 . S
N471 H477 0.985 . S
C472 C466 1.379 . S
C472 C469 1.363 . S
C472 N470 1.356 . S
C473 C467 1.363 . S
C473 C468 1.379 . S
C473 N471 1.356 . S
N474 C466 1.356 . S
N474 H480 0.984 . S
N474 H481 0.984 . S
N475 C468 1.356 . S
N475 H478 0.984 . S
N475 H479 0.985 . S
H476 N471 0.984 . S
H477 N471 0.985 . S
H478 N475 0.984 . S
H479 N475 0.985 . S
H480 N474 0.984 . S
H481 N474 0.984 . S
H482 N470 0.984 . S
H483 N470 0.985 . S
C484 C485 1.363 . S
C484 C490 1.379 . S
C484 N492 1.356 . S
C485 C484 1.363 . S
C485 C491 1.363 . S
C486 C487 1.363 . S
C486 C491 1.379 . S
C486 N493 1.356 . S
C487 C486 1.363 . S
C487 C490 1.363 . S
N488 C490 1.356 . S
N488 H500 0.984 . S
N488 H501 0.985 . S
N489 C491 1.356 . S
N489 H494 0.984 . S
N489 H495 0.985 . S
C490 C484 1.379 . S
C490 C487 1.363 . S
C490 N488 1.356 . S
C491 C485 1.363 . S
C491 C486 1.379 . S
C491 N489 1.356 . S
N492 C484 1.356 . S
N492 H498 0.984 . S
N492 H499 0.984 . S
N493 C486 1.356 . S
N493 H496 0.984 . S
N493 H497 0.985 . S
H494 N489 0.984 . S
H495 N489 0.985 . S
H496 N493 0.984 . S
H497 N493 0.985 . S
H498 N492 0.984 . S
H499 N492 0.984 . S
H500 N488 0.984 . S
H501 N488 0.985 . S
C502 C503 1.363 . S
C502 C508 1.379 . S
C502 N510 1.356 . S
C503 C502 1.363 . S
C503 C509 1.363 . S
C504 C505 1.363 . S
C504 C509 1.379 . S
C504 N511 1.356 . S
C505 C504 1.363 . S
C505 C508 1.363 . S
N506 C508 1.356 . S
N506 H518 0.984 . S
N506 H519 0.985 . S
N507 C509 1.356 . S
N507 H512 0.984 . S
N507 H513 0.985 . S
C508 C502 1.379 . S
C508 C505 1.363 . S
C508 N506 1.356 . S
C509 C503 1.363 . S
C509 C504 1.379 . S
C509 N507 1.356 . S
N510 C502 1.356 . S
N510 H516 0.984 . S
N510 H517 0.984 . S
N511 C504 1.356 . S
N511 H514 0.984 . S
N511 H515 0.985 . S
H512 N507 0.984 . S
H513 N507 0.985 . S
H514 N511 0.984 . S
H515 N511 0.985 . S
H516 N510 0.984 . S
H517 N510 0.984 . S
H518 N506 0.984 . S
H519 N506 0.985 . S
C520 C521 1.363 . S
C520 C526 1.379 . S
C520 N528 1.356 . S
C521 C520 1.363 . S
C521 C527 1.363 . S
C522 C523 1.363 . S
C522 C527 1.379 . S
C522 N529 1.356 . S
C523 C522 1.363 . S
C523 C526 1.363 . S
N524 C526 1.356 . S
N524 H536 0.984 . S
N524 H537 0.985 . S
N525 C527 1.356 . S
N525 H530 0.984 . S
N525 H531 0.985 . S
C526 C520 1.379 . S
C526 C523 1.363 . S
C526 N524 1.356 . S
C527 C521 1.363 . S
C527 C522 1.379 . S
C527 N525 1.356 . S
N528 C520 1.356 . S
N528 H534 0.984 . S
N528 H535 0.984 . S
N529 C522 1.356 . S
N529 H532 0.984 . S
N529 H533 0.985 . S
H530 N525 0.984 . S
H531 N525 0.985 . S
H532 N529 0.984 . S
H533 N529 0.985 . S
H534 N528 0.984 . S
H535 N528 0.984 . S
H536 N524 0.984 . S
H537 N524 0.985 . S
C538 C539 1.363 . S
C538 C544 1.379 . S
C538 N546 1.356 . S
C539 C538 1.363 . S
C539 C545 1.363 . S
C540 C541 1.363 . S
C540 C545 1.379 . S
C540 N547 1.356 . S
C541 C540 1.363 . S
C541 C544 1.363 . S
N542 C544 1.356 . S
N542 H554 0.984 . S
N542 H555 0.985 . S
N543 C545 1.356 . S
N543 H548 0.984 . S
N543 H549 0.985 . S
C544 C538 1.379 . S
C544 C541 1.363 . S
C544 N542 1.356 . S
C545 C539 1.363 . S
C545 C540 1.379 . S
C545 N543 1.356 . S
N546 C538 1.356 . S
N546 H552 0.984 . S
N546 H553 0.984 . S
N547 C540 1.356 . S
N547 H550 0.984 . S
N547 H551 0.985 . S
H548 N543 0.984 . S
H549 N543 0.985 . S
H550 N547 0.984 . S
H551 N547 0.985 . S
H552 N546 0.984 . S
H553 N546 0.984 . S
H554 N542 0.984 . S
H555 N542 0.985 . S
C556 C557 1.363 . S
C556 C562 1.379 . S
C556 N564 1.356 . S
C557 C556 1.363 . S
C557 C563 1.363 . S
C558 C559 1.363 . S
C558 C563 1.379 . S
C558 N565 1.356 . S
C559 C558 1.363 . S
C559 C562 1.363 . S
N560 C562 1.356 . S
N560 H572 0.984 . S
N560 H573 0.985 . S
N561 C563 1.356 . S
N561 H566 0.984 . S
N561 H567 0.985 . S
C562 C556 1.379 . S
C562 C559 1.363 . S
C562 N560 1.356 . S
C563 C557 1.363 . S
C563 C558 1.379 . S
C563 N561 1.356 . S
N564 C556 1.356 . S
N564 H570 0.984 . S
N564 H571 0.984 . S
N565 C558 1.356 . S
N565 H568 0.984 . S
N565 H569 0.985 . S
H566 N561 0.984 . S
H567 N561 0.985 . S
H568 N565 0.984 . S
H569 N565 0.985 . S
H570 N564 0.984 . S
H571 N564 0.984 . S
H572 N560 0.984 . S
H573 N560 0.985 . S
C574 C575 1.363 . S
C574 C580 1.379 . S
C574 N582 1.356 . S
C575 C574 1.363 . S
C575 C581 1.363 . S
C576 C577 1.363 . S
C576 C581 1.379 . S
C576 N583 1.356 . S
C577 C576 1.363 . S
C577 C580 1.363 . S
N578 C580 1.356 . S
N578 H590 0.984 . S
N578 H591 0.985 . S
N579 C581 1.356 . S
N579 H584 0.984 . S
N579 H585 0.985 . S
C580 C574 1.379 . S
C580 C577 1.363 . S
C580 N578 1.356 . S
C581 C575 1.363 . S
C581 C576 1.379 . S
C581 N579 1.356 . S
N582 C574 1.356 . S
N582 H588 0.984 . S
N582 H589 0.984 . S
N583 C576 1.356 . S
N583 H586 0.984 . S
N583 H587 0.985 . S
H584 N579 0.984 . S
H585 N579 0.985 . S
H586 N583 0.984 . S
H587 N583 0.985 . S
H588 N582 0.984 . S
H589 N582 0.984 . S
H590 N578 0.984 . S
H591 N578 0.985 . S
C592 C593 1.363 . S
C592 C598 1.379 . S
C592 N600 1.356 . S
C593 C592 1.363 . S
C593 C599 1.363 . S
C594 C595 1.363 . S
C594 C599 1.379 . S
C594 N601 1.356 . S
C595 C594 1.363 . S
C595 C598 1.363 . S
N596 C598 1.356 . S
N596 H608 0.984 . S
N596 H609 0.985 . S
N597 C599 1.356 . S
N597 H602 0.984 . S
N597 H603 0.985 . S
C598 C592 1.379 . S
C598 C595 1.363 . S
C598 N596 1.356 . S
C599 C593 1.363 . S
C599 C594 1.379 . S
C599 N597 1.356 . S
N600 C592 1.356 . S
N600 H606 0.984 . S
N600 H607 0.984 . S
N601 C594 1.356 . S
N601 H604 0.984 . S
N601 H605 0.985 . S
H602 N597 0.984 . S
H603 N597 0.985 . S
H604 N601 0.984 . S
H605 N601 0.985 . S
H606 N600 0.984 . S
H607 N600 0.984 . S
H608 N596 0.984 . S
H609 N596 0.985 . S
C610 C611 1.363 . S
C610 C616 1.379 . S
C610 N618 1.356 . S
C611 C610 1.363 . S
C611 C617 1.363 . S
C612 C613 1.363 . S
C612 C617 1.379 . S
C612 N619 1.356 . S
C613 C612 1.363 . S
C613 C616 1.363 . S
N614 C616 1.356 . S
N614 H626 0.984 . S
N614 H627 0.985 . S
N615 C617 1.356 . S
N615 H620 0.984 . S
N615 H621 0.985 . S
C616 C610 1.379 . S
C616 C613 1.363 . S
C616 N614 1.356 . S
C617 C611 1.363 . S
C617 C612 1.379 . S
C617 N615 1.356 . S
N618 C610 1.356 . S
N618 H624 0.984 . S
N618 H625 0.984 . S
N619 C612 1.356 . S
N619 H622 0.984 . S
N619 H623 0.985 . S
H620 N615 0.984 . S
H621 N615 0.985 . S
H622 N619 0.984 . S
H623 N619 0.985 . S
H624 N618 0.984 . S
H625 N618 0.984 . S
H626 N614 0.984 . S
H627 N614 0.985 . S
C628 C629 1.363 . S
C628 C634 1.379 . S
C628 N636 1.356 . S
C629 C628 1.363 . S
C629 C635 1.363 . S
C630 C631 1.363 . S
C630 C635 1.379 . S
C630 N637 1.356 . S
C631 C630 1.363 . S
C631 C634 1.363 . S
N632 C634 1.356 . S
N632 H644 0.984 . S
N632 H645 0.985 . S
N633 C635 1.356 . S
N633 H638 0.984 . S
N633 H639 0.985 . S
C634 C628 1.379 . S
C634 C631 1.363 . S
C634 N632 1.356 . S
C635 C629 1.363 . S
C635 C630 1.379 . S
C635 N633 1.356 . S
N636 C628 1.356 . S
N636 H642 0.984 . S
N636 H643 0.984 . S
N637 C630 1.356 . S
N637 H640 0.984 . S
N637 H641 0.985 . S
H638 N633 0.984 . S
H639 N633 0.985 . S
H640 N637 0.984 . S
H641 N637 0.985 . S
H642 N636 0.984 . S
H643 N636 0.984 . S
H644 N632 0.984 . S
H645 N632 0.985 . S
C646 C647 1.363 . S
C646 C652 1.379 . S
C646 N654 1.356 . S
C647 C646 1.363 . S
C647 C653 1.363 . S
C648 C649 1.363 . S
C648 C653 1.379 . S
C648 N655 1.356 . S
C649 C648 1.363 . S
C649 C652 1.363 . S
N650 C652 1.356 . S
N650 H662 0.984 . S
N650 H663 0.985 . S
N651 C653 1.356 . S
N651 H656 0.984 . S
N651 H657 0.985 . S
C652 C646 1.379 . S
C652 C649 1.363 . S
C652 N650 1.356 . S
C653 C647 1.363 . S
C653 C648 1.379 . S
C653 N651 1.356 . S
N654 C646 1.356 . S
N654 H660 0.984 . S
N654 H661 0.984 . S
N655 C648 1.356 . S
N655 H658 0.984 . S
N655 H659 0.985 . S
H656 N651 0.984 . S
H657 N651 0.985 . S
H658 N655 0.984 . S
H659 N655 0.985 . S
H660 N654 0.984 . S
H661 N654 0.984 . S
H662 N650 0.984 . S
H663 N650 0.985 . S
C664 C665 1.363 . S
C664 C670 1.379 . S
C664 N672 1.356 . S
C665 C664 1.363 . S
C665 C671 1.363 1_554 S
C666 C667 1.365 . S
C666 C671 1.379 . S
C666 N673 1.356 . S
C667 C666 1.365 . S
C667 C670 1.361 1_556 S
N668 C670 1.356 . S
N668 H680 0.984 . S
N668 H681 0.985 . S
N669 C671 1.356 . S
N669 H674 0.984 . S
N669 H675 0.985 . S
C670 C664 1.379 . S
C670 C667 1.361 1_554 S
C670 N668 1.356 . S
C671 C665 1.363 1_556 S
C671 C666 1.379 . S
C671 N669 1.356 . S
N672 C664 1.356 . S
N672 H678 0.984 . S
N672 H679 0.984 . S
N673 C666 1.356 . S
N673 H676 0.984 . S
N673 H677 0.985 . S
H674 N669 0.984 . S
H675 N669 0.985 . S
H676 N673 0.984 . S
H677 N673 0.985 . S
H678 N672 0.984 . S
H679 N672 0.984 . S
H680 N668 0.984 . S
H681 N668 0.985 . S
C682 C683 1.363 . S
C682 C688 1.379 . S
C682 N690 1.356 . S
C683 C682 1.363 . S
C683 C689 1.363 . S
C684 C685 1.363 . S
C684 C689 1.379 . S
C684 N691 1.356 . S
C685 C684 1.363 . S
C685 C688 1.363 . S
N686 C688 1.356 . S
N686 H698 0.984 . S
N686 H699 0.985 . S
N687 C689 1.356 . S
N687 H692 0.984 . S
N687 H693 0.985 . S
C688 C682 1.379 . S
C688 C685 1.363 . S
C688 N686 1.356 . S
C689 C683 1.363 . S
C689 C684 1.379 . S
C689 N687 1.356 . S
N690 C682 1.356 . S
N690 H696 0.984 . S
N690 H697 0.984 . S
N691 C684 1.356 . S
N691 H694 0.984 . S
N691 H695 0.985 . S
H692 N687 0.984 . S
H693 N687 0.985 . S
H694 N691 0.984 . S
H695 N691 0.985 . S
H696 N690 0.984 . S
H697 N690 0.984 . S
H698 N686 0.984 . S
H699 N686 0.985 . S
C700 C701 1.352 1_556 S
C700 C706 1.379 . S
C700 N708 1.356 . S
C701 C700 1.352 1_554 S
C701 C707 1.374 . S
C702 C703 1.363 . S
C702 C707 1.379 . S
C702 N709 1.356 . S
C703 C702 1.363 . S
C703 C706 1.363 1_554 S
N704 C706 1.356 . S
N704 H716 0.984 . S
N704 H717 0.985 . S
N705 C707 1.356 . S
N705 H710 0.984 . S
N705 H711 0.985 . S
C706 C700 1.379 . S
C706 C703 1.363 1_556 S
C706 N704 1.356 . S
C707 C701 1.374 . S
C707 C702 1.379 . S
C707 N705 1.356 . S
N708 C700 1.356 . S
N708 H714 0.984 . S
N708 H715 0.984 . S
N709 C702 1.356 . S
N709 H712 0.984 . S
N709 H713 0.985 . S
H710 N705 0.984 . S
H711 N705 0.985 . S
H712 N709 0.984 . S
H713 N709 0.985 . S
H714 N708 0.984 . S
H715 N708 0.984 . S
H716 N704 0.984 . S
H717 N704 0.985 . S
C718 C719 1.363 . S
C718 C724 1.379 . S
C718 N726 1.356 . S
C719 C718 1.363 . S
C719 C725 1.363 . S
C720 C721 1.363 . S
C720 C725 1.379 . S
C720 N727 1.356 . S
C721 C720 1.363 . S
C721 C724 1.363 . S
N722 C724 1.356 . S
N722 H734 0.984 . S
N722 H735 0.985 . S
N723 C725 1.356 . S
N723 H728 0.984 . S
N723 H729 0.985 . S
C724 C718 1.379 . S
C724 C721 1.363 . S
C724 N722 1.356 . S
C725 C719 1.363 . S
C725 C720 1.379 . S
C725 N723 1.356 . S
N726 C718 1.356 . S
N726 H732 0.984 . S
N726 H733 0.984 . S
N727 C720 1.356 . S
N727 H730 0.984 . S
N727 H731 0.985 . S
H728 N723 0.984 . S
H729 N723 0.985 . S
H730 N727 0.984 . S
H731 N727 0.985 . S
H732 N726 0.984 . S
H733 N726 0.984 . S
H734 N722 0.984 . S
H735 N722 0.985 . S
C736 C737 1.363 . S
C736 C742 1.379 . S
C736 N744 1.356 . S
C737 C736 1.363 . S
C737 C743 1.363 . S
C738 C739 1.363 . S
C738 C743 1.379 . S
C738 N745 1.356 . S
C739 C738 1.363 . S
C739 C742 1.363 . S
N740 C742 1.356 . S
N740 H752 0.984 . S
N740 H753 0.985 . S
N741 C743 1.356 . S
N741 H746 0.984 . S
N741 H747 0.985 . S
C742 C736 1.379 . S
C742 C739 1.363 . S
C742 N740 1.356 . S
C743 C737 1.363 . S
C743 C738 1.379 . S
C743 N741 1.356 . S
N744 C736 1.356 . S
N744 H750 0.984 . S
N744 H751 0.984 . S
N745 C738 1.356 . S
N745 H748 0.984 . S
N745 H749 0.985 . S
H746 N741 0.984 . S
H747 N741 0.985 . S
H748 N745 0.984 . S
H749 N745 0.985 . S
H750 N744 0.984 . S
H751 N744 0.984 . S
H752 N740 0.984 . S
H753 N740 0.985 . S
C754 C755 1.352 1_556 S
C754 C760 1.379 . S
C754 N762 1.356 . S
C755 C754 1.352 1_554 S
C755 C761 1.374 . S
C756 C757 1.363 . S
C756 C761 1.379 . S
C756 N763 1.356 . S
C757 C756 1.363 . S
C757 C760 1.363 1_554 S
N758 C760 1.356 . S
N758 H770 0.984 . S
N758 H771 0.985 . S
N759 C761 1.356 . S
N759 H764 0.984 . S
N759 H765 0.985 . S
C760 C754 1.379 . S
C760 C757 1.363 1_556 S
C760 N758 1.356 . S
C761 C755 1.374 . S
C761 C756 1.379 . S
C761 N759 1.356 . S
N762 C754 1.356 . S
N762 H768 0.984 . S
N762 H769 0.984 . S
N763 C756 1.356 . S
N763 H766 0.984 . S
N763 H767 0.985 . S
H764 N759 0.984 . S
H765 N759 0.985 . S
H766 N763 0.984 . S
H767 N763 0.985 . S
H768 N762 0.984 . S
H769 N762 0.984 . S
H770 N758 0.984 . S
H771 N758 0.985 . S
C772 C773 1.363 . S
C772 C778 1.379 . S
C772 N780 1.356 . S
C773 C772 1.363 . S
C773 C779 1.363 . S
C774 C775 1.363 . S
C774 C779 1.379 . S
C774 N781 1.356 . S
C775 C774 1.363 . S
C775 C778 1.363 . S
N776 C778 1.356 . S
N776 H788 0.984 . S
N776 H789 0.985 . S
N777 C779 1.356 . S
N777 H782 0.984 . S
N777 H783 0.985 . S
C778 C772 1.379 . S
C778 C775 1.363 . S
C778 N776 1.356 . S
C779 C773 1.363 . S
C779 C774 1.379 . S
C779 N777 1.356 . S
N780 C772 1.356 . S
N780 H786 0.984 . S
N780 H787 0.984 . S
N781 C774 1.356 . S
N781 H784 0.984 . S
N781 H785 0.985 . S
H782 N777 0.984 . S
H783 N777 0.985 . S
H784 N781 0.984 . S
H785 N781 0.985 . S
H786 N780 0.984 . S
H787 N780 0.984 . S
H788 N776 0.984 . S
H789 N776 0.985 . S
C790 C791 1.363 1_556 S
C790 C796 1.379 . S
C790 N798 1.356 . S
C791 C790 1.363 1_554 S
C791 C797 1.363 . S
C792 C793 1.361 1_554 S
C792 C797 1.379 . S
C792 N799 1.356 . S
C793 C792 1.361 1_556 S
C793 C796 1.365 . S
N794 C796 1.356 . S
N794 H806 0.984 . S
N794 H807 0.985 . S
N795 C797 1.356 . S
N795 H800 0.984 . S
N795 H801 0.985 . S
C796 C790 1.379 . S
C796 C793 1.365 . S
C796 N794 1.356 . S
C797 C791 1.363 . S
C797 C792 1.379 . S
C797 N795 1.356 . S
N798 C790 1.356 . S
N798 H804 0.984 . S
N798 H805 0.984 . S
N799 C792 1.356 . S
N799 H802 0.984 . S
N799 H803 0.985 . S
H800 N795 0.984 . S
H801 N795 0.985 . S
H802 N799 0.984 . S
H803 N799 0.985 . S
H804 N798 0.984 . S
H805 N798 0.984 . S
H806 N794 0.984 . S
H807 N794 0.985 . S
C377 C5 1.549 . S
C379 C197 1.535 . S
C395 C31 1.553 . S
C397 C119 1.493 . S
C415 C155 1.491 . S
C413 C53 1.551 . S
C431 C71 1.547 . S
C433 C161 1.533 . S
C451 C299 1.493 . S
C449 C75 1.553 . S
C469 C305 1.535 . S
C467 C9 1.549 . S
C487 C341 1.533 . S
C485 C27 1.547 . S
C505 C263 1.491 . S
C503 C49 1.551 . S
C521 C51 1.549 . S
C523 C125 1.509 . S
C539 C72 1.553 . S
C541 C191 1.526 . S
C557 C6 1.551 . S
C559 C227 1.525 . S
C577 C89 1.508 . S
C575 C29 1.547 . S
C593 C28 1.553 . S
C595 C371 1.526 . S
C613 C233 1.509 . S
C611 C50 1.549 . S
C631 C269 1.508 . S
C629 C73 1.546 . S
C647 C7 1.551 . S
C649 C335 1.525 . S
C667 C113 1.497 . S
C665 C4 1.535 . S
C685 C149 1.496 . S
C683 C30 1.535 . S
C701 C52 1.535 . S
C703 C185 1.530 . S
C719 C70 1.535 . S
C721 C221 1.530 . S
C739 C257 1.496 . S
C737 C74 1.535 . S
C755 C8 1.535 . S
C757 C293 1.496 . S
C773 C26 1.535 . S
C775 C329 1.530 . S
C791 C48 1.535 . S
C793 C365 1.530 . S
