# Generated by pormake.
# Topology ptr, (4,4)-cn, num edge types: 1
# Building blocks:
#     Node 0, Type 0, BuildingBlock: QUQFOY_clean_sbu_3, # of connection points: 4
#     Node 1, Type 0, BuildingBlock: QUQFOY_clean_sbu_3, # of connection points: 4
#     Node 2, Type 0, BuildingBlock: QUQFOY_clean_sbu_3, # of connection points: 4
#     Node 3, Type 0, BuildingBlock: QUQFOY_clean_sbu_3, # of connection points: 4
#     Node 4, Type 0, BuildingBlock: QUQFOY_clean_sbu_3, # of connection points: 4
#     Node 5, Type 0, BuildingBlock: QUQFOY_clean_sbu_3, # of connection points: 4
#     Node 6, Type 0, BuildingBlock: QUQFOY_clean_sbu_3, # of connection points: 4
#     Node 7, Type 0, BuildingBlock: QUQFOY_clean_sbu_3, # of connection points: 4
#     Node 8, Type 0, BuildingBlock: QUQFOY_clean_sbu_3, # of connection points: 4
#     Node 9, Type 0, BuildingBlock: QUQFOY_clean_sbu_3, # of connection points: 4
#     Node 10, Type 0, BuildingBlock: QUQFOY_clean_sbu_3, # of connection points: 4
#     Node 11, Type 0, BuildingBlock: QUQFOY_clean_sbu_3, # of connection points: 4
#     Node 12, Type 0, BuildingBlock: QUQFOY_clean_sbu_3, # of connection points: 4
#     Node 13, Type 0, BuildingBlock: QUQFOY_clean_sbu_3, # of connection points: 4
#     Node 14, Type 0, BuildingBlock: QUQFOY_clean_sbu_3, # of connection points: 4
#     Node 15, Type 0, BuildingBlock: QUQFOY_clean_sbu_3, # of connection points: 4
#     Node 16, Type 0, BuildingBlock: QUQFOY_clean_sbu_3, # of connection points: 4
#     Node 17, Type 0, BuildingBlock: QUQFOY_clean_sbu_3, # of connection points: 4
#     Node 18, Type 1, BuildingBlock: NAHDIM_clean_linker_0, # of connection points: 4
#     Node 19, Type 1, BuildingBlock: NAHDIM_clean_linker_0, # of connection points: 4
#     Node 20, Type 1, BuildingBlock: NAHDIM_clean_linker_0, # of connection points: 4
#     Node 21, Type 1, BuildingBlock: NAHDIM_clean_linker_0, # of connection points: 4
#     Node 22, Type 1, BuildingBlock: NAHDIM_clean_linker_0, # of connection points: 4
#     Node 23, Type 1, BuildingBlock: NAHDIM_clean_linker_0, # of connection points: 4
#     Node 24, Type 1, BuildingBlock: NAHDIM_clean_linker_0, # of connection points: 4
#     Node 25, Type 1, BuildingBlock: NAHDIM_clean_linker_0, # of connection points: 4
#     Node 26, Type 1, BuildingBlock: NAHDIM_clean_linker_0, # of connection points: 4
#     Node 27, Type 1, BuildingBlock: NAHDIM_clean_linker_0, # of connection points: 4
#     Node 28, Type 1, BuildingBlock: NAHDIM_clean_linker_0, # of connection points: 4
#     Node 29, Type 1, BuildingBlock: NAHDIM_clean_linker_0, # of connection points: 4
#     Node 30, Type 1, BuildingBlock: NAHDIM_clean_linker_0, # of connection points: 4
#     Node 31, Type 1, BuildingBlock: NAHDIM_clean_linker_0, # of connection points: 4
#     Node 32, Type 1, BuildingBlock: NAHDIM_clean_linker_0, # of connection points: 4
#     Node 33, Type 1, BuildingBlock: NAHDIM_clean_linker_0, # of connection points: 4
#     Node 34, Type 1, BuildingBlock: NAHDIM_clean_linker_0, # of connection points: 4
#     Node 35, Type 1, BuildingBlock: NAHDIM_clean_linker_0, # of connection points: 4
#     Edge 36, Type (0, 1), BuildingBlock: XIVTED_clean_linker_0, # of connection points: 2
#     Edge 37, Type (0, 1), BuildingBlock: XIVTED_clean_linker_0, # of connection points: 2
#     Edge 38, Type (0, 1), BuildingBlock: XIVTED_clean_linker_0, # of connection points: 2
#     Edge 39, Type (0, 1), BuildingBlock: XIVTED_clean_linker_0, # of connection points: 2
#     Edge 40, Type (0, 1), BuildingBlock: XIVTED_clean_linker_0, # of connection points: 2
#     Edge 41, Type (0, 1), BuildingBlock: XIVTED_clean_linker_0, # of connection points: 2
#     Edge 42, Type (0, 1), BuildingBlock: XIVTED_clean_linker_0, # of connection points: 2
#     Edge 43, Type (0, 1), BuildingBlock: XIVTED_clean_linker_0, # of connection points: 2
#     Edge 44, Type (0, 1), BuildingBlock: XIVTED_clean_linker_0, # of connection points: 2
#     Edge 45, Type (0, 1), BuildingBlock: XIVTED_clean_linker_0, # of connection points: 2
#     Edge 46, Type (0, 1), BuildingBlock: XIVTED_clean_linker_0, # of connection points: 2
#     Edge 47, Type (0, 1), BuildingBlock: XIVTED_clean_linker_0, # of connection points: 2
#     Edge 48, Type (0, 1), BuildingBlock: XIVTED_clean_linker_0, # of connection points: 2
#     Edge 49, Type (0, 1), BuildingBlock: XIVTED_clean_linker_0, # of connection points: 2
#     Edge 50, Type (0, 1), BuildingBlock: XIVTED_clean_linker_0, # of connection points: 2
#     Edge 51, Type (0, 1), BuildingBlock: XIVTED_clean_linker_0, # of connection points: 2
#     Edge 52, Type (0, 1), BuildingBlock: XIVTED_clean_linker_0, # of connection points: 2
#     Edge 53, Type (0, 1), BuildingBlock: XIVTED_clean_linker_0, # of connection points: 2
#     Edge 54, Type (0, 1), BuildingBlock: XIVTED_clean_linker_0, # of connection points: 2
#     Edge 55, Type (0, 1), BuildingBlock: XIVTED_clean_linker_0, # of connection points: 2
#     Edge 56, Type (0, 1), BuildingBlock: XIVTED_clean_linker_0, # of connection points: 2
#     Edge 57, Type (0, 1), BuildingBlock: XIVTED_clean_linker_0, # of connection points: 2
#     Edge 58, Type (0, 1), BuildingBlock: XIVTED_clean_linker_0, # of connection points: 2
#     Edge 59, Type (0, 1), BuildingBlock: XIVTED_clean_linker_0, # of connection points: 2
#     Edge 60, Type (0, 1), BuildingBlock: XIVTED_clean_linker_0, # of connection points: 2
#     Edge 61, Type (0, 1), BuildingBlock: XIVTED_clean_linker_0, # of connection points: 2
#     Edge 62, Type (0, 1), BuildingBlock: XIVTED_clean_linker_0, # of connection points: 2
#     Edge 63, Type (0, 1), BuildingBlock: XIVTED_clean_linker_0, # of connection points: 2
#     Edge 64, Type (0, 1), BuildingBlock: XIVTED_clean_linker_0, # of connection points: 2
#     Edge 65, Type (0, 1), BuildingBlock: XIVTED_clean_linker_0, # of connection points: 2
#     Edge 66, Type (0, 1), BuildingBlock: XIVTED_clean_linker_0, # of connection points: 2
#     Edge 67, Type (0, 1), BuildingBlock: XIVTED_clean_linker_0, # of connection points: 2
#     Edge 68, Type (0, 1), BuildingBlock: XIVTED_clean_linker_0, # of connection points: 2
#     Edge 69, Type (0, 1), BuildingBlock: XIVTED_clean_linker_0, # of connection points: 2
#     Edge 70, Type (0, 1), BuildingBlock: XIVTED_clean_linker_0, # of connection points: 2
#     Edge 71, Type (0, 1), BuildingBlock: XIVTED_clean_linker_0, # of connection points: 2
#     Edge 72, Type (0, 1), BuildingBlock: XIVTED_clean_linker_0, # of connection points: 2
#     Edge 73, Type (0, 1), BuildingBlock: XIVTED_clean_linker_0, # of connection points: 2
#     Edge 74, Type (0, 1), BuildingBlock: XIVTED_clean_linker_0, # of connection points: 2
#     Edge 75, Type (0, 1), BuildingBlock: XIVTED_clean_linker_0, # of connection points: 2
#     Edge 76, Type (0, 1), BuildingBlock: XIVTED_clean_linker_0, # of connection points: 2
#     Edge 77, Type (0, 1), BuildingBlock: XIVTED_clean_linker_0, # of connection points: 2
#     Edge 78, Type (0, 1), BuildingBlock: XIVTED_clean_linker_0, # of connection points: 2
#     Edge 79, Type (0, 1), BuildingBlock: XIVTED_clean_linker_0, # of connection points: 2
#     Edge 80, Type (0, 1), BuildingBlock: XIVTED_clean_linker_0, # of connection points: 2
#     Edge 81, Type (0, 1), BuildingBlock: XIVTED_clean_linker_0, # of connection points: 2
#     Edge 82, Type (0, 1), BuildingBlock: XIVTED_clean_linker_0, # of connection points: 2
#     Edge 83, Type (0, 1), BuildingBlock: XIVTED_clean_linker_0, # of connection points: 2
#     Edge 84, Type (0, 1), BuildingBlock: XIVTED_clean_linker_0, # of connection points: 2
#     Edge 85, Type (0, 1), BuildingBlock: XIVTED_clean_linker_0, # of connection points: 2
#     Edge 86, Type (0, 1), BuildingBlock: XIVTED_clean_linker_0, # of connection points: 2
#     Edge 87, Type (0, 1), BuildingBlock: XIVTED_clean_linker_0, # of connection points: 2
#     Edge 88, Type (0, 1), BuildingBlock: XIVTED_clean_linker_0, # of connection points: 2
#     Edge 89, Type (0, 1), BuildingBlock: XIVTED_clean_linker_0, # of connection points: 2
#     Edge 90, Type (0, 1), BuildingBlock: XIVTED_clean_linker_0, # of connection points: 2
#     Edge 91, Type (0, 1), BuildingBlock: XIVTED_clean_linker_0, # of connection points: 2
#     Edge 92, Type (0, 1), BuildingBlock: XIVTED_clean_linker_0, # of connection points: 2
#     Edge 93, Type (0, 1), BuildingBlock: XIVTED_clean_linker_0, # of connection points: 2
#     Edge 94, Type (0, 1), BuildingBlock: XIVTED_clean_linker_0, # of connection points: 2
#     Edge 95, Type (0, 1), BuildingBlock: XIVTED_clean_linker_0, # of connection points: 2
#     Edge 96, Type (0, 1), BuildingBlock: XIVTED_clean_linker_0, # of connection points: 2
#     Edge 97, Type (0, 1), BuildingBlock: XIVTED_clean_linker_0, # of connection points: 2
#     Edge 98, Type (0, 1), BuildingBlock: XIVTED_clean_linker_0, # of connection points: 2
#     Edge 99, Type (0, 1), BuildingBlock: XIVTED_clean_linker_0, # of connection points: 2
#     Edge 100, Type (0, 1), BuildingBlock: XIVTED_clean_linker_0, # of connection points: 2
#     Edge 101, Type (0, 1), BuildingBlock: XIVTED_clean_linker_0, # of connection points: 2
#     Edge 102, Type (0, 1), BuildingBlock: XIVTED_clean_linker_0, # of connection points: 2
#     Edge 103, Type (0, 1), BuildingBlock: XIVTED_clean_linker_0, # of connection points: 2
#     Edge 104, Type (0, 1), BuildingBlock: XIVTED_clean_linker_0, # of connection points: 2
#     Edge 105, Type (0, 1), BuildingBlock: XIVTED_clean_linker_0, # of connection points: 2
#     Edge 106, Type (0, 1), BuildingBlock: XIVTED_clean_linker_0, # of connection points: 2
#     Edge 107, Type (0, 1), BuildingBlock: XIVTED_clean_linker_0, # of connection points: 2
# Relax obj value: 0.030
# Max RMSD: 0.171
# Mean RMSD: 0.059
data_MOF--net-ptr--node1-QUQFOY_clean_sbu_3--node2-NAHDIM_clean_linker_0--edge1-XIVTED_clean_linker_0
_symmetry_space_group_name_H-M    P1
_symmetry_Int_Tables_number       1
_symmetry_cell_setting            triclinic
loop_
_symmetry_equiv_pos_as_xyz
'x, y, z'
_cell_length_a     95.240125
_cell_length_b     95.257264
_cell_length_c     81.372292
_cell_angle_alpha  91.078196
_cell_angle_beta   89.987024
_cell_angle_gamma 120.67657
loop_
_atom_site_label
_atom_site_type_symbol
_atom_site_fract_x
_atom_site_fract_y
_atom_site_fract_z
_atom_type_partial_charge
C0 C 0.97287 0.31029 0.98731 0.0
O1 O 0.96413 0.31596 0.99247 0.0
Cd2 Cd 0.97628 0.34202 0.00691 0.0
O3 O 0.98808 0.31779 0.99058 0.0
Cd4 Cd 0.00922 0.34182 0.00586 0.0
C5 C 0.00591 0.36565 0.97868 0.0
O6 O 0.99403 0.34472 0.02896 0.0
O7 O 0.0174 0.36564 0.02279 0.0
O8 O 0.01389 0.32191 0.01838 0.0
C9 C 0.00535 0.35924 0.03241 0.0
O10 O 0.99311 0.362 0.98684 0.0
C11 C 0.02935 0.32997 0.01773 0.0
O12 O 0.01419 0.35879 0.98144 0.0
O13 O 0.03586 0.34371 0.01075 0.0
C14 C 0.6555 0.68047 0.04251 0.0
O15 O 0.64013 0.67387 0.0409 0.0
Cd16 Cd 0.62432 0.65064 0.0229 0.0
O17 O 0.66318 0.67507 0.03429 0.0
Cd18 Cd 0.65825 0.65389 0.01344 0.0
C19 C 0.63419 0.62353 0.03887 0.0
O20 O 0.63807 0.65623 0.99716 0.0
O21 O 0.64131 0.63592 0.99093 0.0
O22 O 0.68269 0.67515 0.00089 0.0
C23 C 0.63462 0.64415 0.98768 0.0
O24 O 0.62351 0.62742 0.03585 0.0
C25 C 0.6899 0.66709 -0.00044 0.0
O26 O 0.64863 0.63187 0.03333 0.0
O27 O 0.68244 0.65264 0.00495 0.0
C28 C 0.30734 0.9659 0.01083 0.0
O29 O 0.31205 0.95659 0.0049 0.0
Cd30 Cd 0.33958 0.96843 0.99455 0.0
O31 O 0.31636 0.98127 0.00972 0.0
Cd32 Cd 0.3422 0.00209 -0.00184 0.0
C33 C 0.36149 0.99392 0.02726 0.0
O34 O 0.34747 0.98912 0.97431 0.0
O35 O 0.36794 0.0106 0.98577 0.0
O36 O 0.32908 0.0124 0.98096 0.0
C37 C 0.36257 3e-05 0.97413 0.0
O38 O 0.3573 0.98122 0.01835 0.0
C39 C 0.33471 0.0261 0.98835 0.0
O40 O 0.35681 0.00388 0.02364 0.0
O41 O 0.34403 0.02888 0.00071 0.0
C42 C 0.96249 0.65767 0.99011 0.0
O43 O 0.95268 0.64274 0.99311 0.0
Cd44 Cd 0.96273 0.62644 0.00536 0.0
O45 O 0.97734 0.66447 0.99469 0.0
Cd46 Cd 0.99642 0.65945 0.01 0.0
C47 C 0.99484 0.63384 0.98015 0.0
O48 O 0.97823 0.63941 0.02986 0.0
O49 O 0.00251 0.64293 0.02749 0.0
O50 O 0.00138 0.68161 0.02802 0.0
C51 C 0.98889 0.63613 0.03479 0.0
O52 O 0.98078 0.624 0.98585 0.0
C53 C 0.0162 0.69116 0.02441 0.0
O54 O 0.00327 0.64849 0.98568 0.0
O55 O 0.02238 0.68606 0.01367 0.0
C56 C 0.31795 0.34902 0.02188 0.0
O57 O 0.32351 0.36425 0.02098 0.0
Cd58 Cd 0.34919 0.38147 0.00811 0.0
O59 O 0.3254 0.34261 0.01497 0.0
Cd60 Cd 0.34912 0.34972 0.997 0.0
C61 C 0.37471 0.37147 0.02836 0.0
O62 O 0.34747 0.37006 0.98105 0.0
O63 O 0.36983 0.36961 0.97832 0.0
O64 O 0.32993 0.32697 0.97985 0.0
C65 C 0.36086 0.3751 0.97364 0.0
O66 O 0.36994 0.38157 0.02597 0.0
C67 C 0.33698 0.31875 0.98058 0.0
O68 O 0.3688 0.35827 0.01984 0.0
O69 O 0.35025 0.32507 0.98883 0.0
C70 C 0.69252 0.03115 0.00217 0.0
O71 O 0.68737 0.04089 0.00495 0.0
Cd72 Cd 0.66036 0.03051 0.01559 0.0
O73 O 0.68379 0.01614 0.00563 0.0
Cd74 Cd 0.65777 0.99604 0.018 0.0
C75 C 0.63813 0.00071 0.9859 0.0
O76 O 0.65641 0.01375 0.03892 0.0
O77 O 0.63411 0.99062 0.03436 0.0
O78 O 0.67478 0.98984 0.03434 0.0
C79 C 0.64179 0.0037 0.04292 0.0
O80 O 0.64265 0.01461 0.99254 0.0
C81 C 0.66803 0.97483 0.03042 0.0
O82 O 0.64231 0.99116 0.99213 0.0
O83 O 0.65586 0.96914 0.02056 0.0
C84 C 0.63834 0.65078 0.3131 0.0
O85 O 0.62996 0.65771 0.31397 0.0
Cd86 Cd 0.63783 0.68169 0.33071 0.0
O87 O 0.65162 0.65646 0.32129 0.0
Cd88 Cd 0.66876 0.6791 0.34101 0.0
C89 C 0.67526 0.70836 0.31406 0.0
O90 O 0.64607 0.67738 0.35695 0.0
O91 O 0.67001 0.69788 0.36266 0.0
O92 O 0.67238 0.6582 0.3535 0.0
C93 C 0.65492 0.68993 0.3659 0.0
O94 O 0.66058 0.70439 0.31707 0.0
C95 C 0.6876 0.66711 0.35622 0.0
O96 O 0.68138 0.70034 0.32002 0.0
O97 O 0.69438 0.6818 0.35155 0.0
C98 C 0.31836 0.00953 0.37334 0.0
O99 O 0.30291 0.00279 0.37291 0.0
Cd100 Cd 0.28456 0.97891 0.35716 0.0
O101 O 0.32547 0.00327 0.36543 0.0
Cd102 Cd 0.31617 0.97833 0.34795 0.0
C103 C 0.29097 0.95118 0.37589 0.0
O104 O 0.29745 0.9826 0.33103 0.0
O105 O 0.29744 0.96028 0.32631 0.0
O106 O 0.34276 0.9928 0.3343 0.0
C107 C 0.29256 0.96984 0.3222 0.0
O108 O 0.28065 0.95534 0.37218 0.0
C109 C 0.3448 0.98062 0.33432 0.0
O110 O 0.30524 0.95857 0.3699 0.0
O111 O 0.33382 0.96777 0.34103 0.0
C112 C 0.98778 0.30191 0.35797 0.0
O113 O 0.99402 0.29289 0.35755 0.0
Cd114 Cd 0.02019 0.30117 0.34602 0.0
O115 O 0.99531 0.31607 0.35181 0.0
Cd116 Cd 0.02132 0.33325 0.33708 0.0
C117 C 0.04487 0.33529 0.36925 0.0
O118 O 0.02018 0.31155 0.31925 0.0
O119 O 0.04227 0.3351 0.31853 0.0
O120 O 0.00625 0.34318 0.32153 0.0
C121 C 0.03385 0.32073 0.31262 0.0
O122 O 0.04066 0.3206 0.36561 0.0
C123 C 0.01725 0.35814 0.32298 0.0
O124 O 0.03898 0.34253 0.36134 0.0
O125 O 0.02995 0.36147 0.33117 0.0
C126 C 0.63525 0.97136 0.31921 0.0
O127 O 0.62745 0.95597 0.32078 0.0
Cd128 Cd 0.63617 0.94206 0.33856 0.0
O129 O 0.64834 0.98043 0.32742 0.0
Cd130 Cd 0.66654 0.97877 0.34821 0.0
C131 C 0.67378 0.95544 0.32097 0.0
O132 O 0.6443 0.95789 0.36353 0.0
O133 O 0.66817 0.96395 0.37216 0.0
O134 O 0.66883 0.00351 0.36006 0.0
C135 C 0.65281 0.95559 0.37387 0.0
O136 O 0.65921 0.94403 0.32357 0.0
C137 C 0.68431 0.01182 0.3604 0.0
O138 O 0.67951 0.96943 0.32796 0.0
O139 O 0.69174 0.00474 0.35511 0.0
C140 C 0.98263 0.6855 0.362 0.0
O141 O 0.98833 0.70079 0.36281 0.0
Cd142 Cd 0.01402 0.71991 0.35125 0.0
O143 O 0.99053 0.67979 0.35461 0.0
Cd144 Cd 0.01654 0.69113 0.33895 0.0
C145 C 0.0404 0.71208 0.3717 0.0
O146 O 0.01318 0.71077 0.32316 0.0
O147 O 0.03711 0.7136 0.32208 0.0
O148 O 0.00267 0.66725 0.32037 0.0
C149 C 0.02702 0.71726 0.31642 0.0
O150 O 0.03566 0.72222 0.36949 0.0
C151 C 0.0138 0.66368 0.32106 0.0
O152 O 0.03462 0.69914 0.36284 0.0
O153 O 0.026 0.67268 0.33031 0.0
C154 C 0.34918 0.3623 0.32405 0.0
O155 O 0.34297 0.37133 0.32348 0.0
Cd156 Cd 0.31787 0.36431 0.33702 0.0
O157 O 0.34225 0.34908 0.33198 0.0
Cd158 Cd 0.31813 0.33239 0.34915 0.0
C159 C 0.29243 0.32747 0.3174 0.0
O160 O 0.31988 0.35561 0.36397 0.0
O161 O 0.29913 0.33205 0.3697 0.0
O162 O 0.33738 0.32873 0.36521 0.0
C163 C 0.30724 0.34734 0.37253 0.0
O164 O 0.2971 0.34249 0.31969 0.0
C165 C 0.32951 0.31325 0.36463 0.0
O166 O 0.29837 0.32065 0.32602 0.0
O167 O 0.31589 0.30635 0.35696 0.0
C168 C 0.30835 0.98437 0.65464 0.0
O169 O 0.29927 0.99053 0.65414 0.0
Cd170 Cd 0.30717 0.01763 0.66287 0.0
O171 O 0.32295 0.99267 0.66023 0.0
Cd172 Cd 0.34117 0.02042 0.67291 0.0
C173 C 0.34058 0.04111 0.63923 0.0
O174 O 0.31939 0.01968 0.68925 0.0
O175 O 0.34281 0.04173 0.69191 0.0
O176 O 0.35301 0.00792 0.68998 0.0
C177 C 0.32803 0.03351 0.69623 0.0
O178 O 0.3256 0.03598 0.64206 0.0
C179 C 0.3677 0.0182 0.68643 0.0
O180 O 0.34876 0.03703 0.64827 0.0
O181 O 0.36994 0.02936 0.67664 0.0
C182 C 0.97689 0.33898 0.69474 0.0
O183 O 0.96193 0.33109 0.69048 0.0
Cd184 Cd 0.95035 0.30887 0.67113 0.0
O185 O 0.98709 0.33565 0.68829 0.0
Cd186 Cd 0.98767 0.31643 0.66746 0.0
C187 C 0.96219 0.28515 0.69172 0.0
O188 O 0.96892 0.31802 0.64887 0.0
O189 O 0.97436 0.29932 0.6425 0.0
O190 O 0.01368 0.3394 0.65913 0.0
C191 C 0.9671 0.3069 0.63885 0.0
O192 O 0.95101 0.28772 0.6868 0.0
C193 C 0.02128 0.33167 0.65868 0.0
O194 O 0.97689 0.29415 0.68711 0.0
O195 O 0.01329 0.31674 0.6626 0.0
C196 C 0.65139 0.63439 0.6873 0.0
O197 O 0.65773 0.62554 0.6855 0.0
Cd198 Cd 0.68338 0.635 0.67232 0.0
O199 O 0.65821 0.64862 0.68128 0.0
Cd200 Cd 0.68207 0.66723 0.66436 0.0
C201 C 0.70745 0.67052 0.69515 0.0
O202 O 0.68184 0.64621 0.6468 0.0
O203 O 0.70322 0.67022 0.64511 0.0
O204 O 0.66262 0.67127 0.64921 0.0
C205 C 0.69535 0.65551 0.63995 0.0
O206 O 0.70332 0.65589 0.69119 0.0
C207 C 0.67047 0.68674 0.65024 0.0
O208 O 0.70116 0.67776 0.68783 0.0
O209 O 0.6841 0.69345 0.65787 0.0
C210 C 0.30017 0.31528 0.64744 0.0
O211 O 0.29059 0.29995 0.64801 0.0
Cd212 Cd 0.29973 0.28402 0.66195 0.0
O213 O 0.31383 0.32202 0.65505 0.0
Cd214 Cd 0.33048 0.31625 0.67401 0.0
C215 C 0.33674 0.29582 0.64362 0.0
O216 O 0.30745 0.29566 0.68944 0.0
O217 O 0.33072 0.29774 0.69451 0.0
O218 O 0.33339 0.34121 0.68525 0.0
C219 C 0.31579 0.29156 0.69811 0.0
O220 O 0.32172 0.28507 0.64526 0.0
C221 C 0.34841 0.34803 0.68896 0.0
O222 O 0.34325 0.30893 0.65228 0.0
O223 O 0.35543 0.33995 0.68599 0.0
C224 C 0.66156 0.03048 0.68471 0.0
O225 O 0.66998 0.04568 0.68209 0.0
Cd226 Cd 0.69452 0.05734 0.66673 0.0
O227 O 0.66582 0.02077 0.67865 0.0
Cd228 Cd 0.68751 0.02181 0.66042 0.0
C229 C 0.71657 0.04461 0.68897 0.0
O230 O 0.68729 0.0411 0.64179 0.0
O231 O 0.70783 0.03758 0.63892 0.0
O232 O 0.66551 0.99717 0.64735 0.0
C233 C 0.69948 0.04345 0.63346 0.0
O234 O 0.71441 0.0562 0.68482 0.0
C235 C 0.67234 0.98875 0.64819 0.0
O236 O 0.70801 0.03042 0.68244 0.0
O237 O 0.68647 0.99568 0.65481 0.0
C238 C 0.00859 0.69421 0.657 0.0
O239 O 0.00353 0.70412 0.65537 0.0
Cd240 Cd 0.97841 0.69905 0.66723 0.0
O241 O 0.00018 0.68104 0.6648 0.0
Cd242 Cd 0.97387 0.66666 0.67962 0.0
C243 C 0.95119 0.66431 0.64635 0.0
O244 O 0.9784 0.69062 0.69514 0.0
O245 O 0.95435 0.66931 0.69743 0.0
O246 O 0.98806 0.65756 0.69738 0.0
C247 C 0.96478 0.68364 0.70237 0.0
O248 O 0.95685 0.67954 0.64854 0.0
C249 C 0.97757 0.64245 0.69601 0.0
O250 O 0.95589 0.65676 0.65548 0.0
O251 O 0.96504 0.63851 0.68718 0.0
C252 C 0.19914 0.25495 0.04671 0.0
C253 C 0.20454 0.26971 0.05829 0.0
C254 C 0.19483 0.26937 0.08581 0.0
C255 C 0.19964 0.28585 0.08808 0.0
C256 C 0.19133 0.29053 0.09904 0.0
C257 C 0.17766 0.27841 0.10758 0.0
C258 C 0.17306 0.26177 0.10559 0.0
C259 C 0.18201 0.25754 0.09499 0.0
C260 C 0.19687 0.3084 0.1011 0.0
C261 C 0.15832 0.24839 0.11408 0.0
C262 C 0.079 0.29547 0.06279 0.0
C263 C 0.08704 0.28896 0.07316 0.0
C264 C 0.1134 0.29689 0.08576 0.0
C265 C 0.10782 0.28215 0.09402 0.0
C266 C 0.11837 0.27979 0.10409 0.0
C267 C 0.13472 0.29263 0.10642 0.0
C268 C 0.14028 0.30761 0.09843 0.0
C269 C 0.12957 0.30947 0.08806 0.0
C270 C 0.11205 0.26347 0.11206 0.0
C271 C 0.15757 0.32162 0.10071 0.0
C272 C 0.10556 0.29286 0.21044 0.0
C273 C 0.10185 0.27784 0.20312 0.0
C274 C 0.11406 0.27596 0.19558 0.0
C275 C 0.13024 0.2894 0.19515 0.0
C276 C 0.13406 0.30444 0.2027 0.0
C277 C 0.12165 0.30593 0.2103 0.0
C278 C 0.1096 0.25968 0.18778 0.0
C279 C 0.15116 0.31902 0.20241 0.0
C280 C 0.22232 0.2544 0.21494 0.0
C281 C 0.21975 0.26853 0.21975 0.0
C282 C 0.19405 0.26759 0.21444 0.0
C283 C 0.17783 0.25607 0.21051 0.0
C284 C 0.16803 0.26041 0.20162 0.0
C285 C 0.17456 0.27681 0.19693 0.0
C286 C 0.19072 0.28872 0.20164 0.0
C287 C 0.20033 0.28397 0.2103 0.0
C288 C 0.15079 0.24742 0.19701 0.0
C289 C 0.19785 0.30641 0.19738 0.0
C290 C 0.16732 0.28296 0.11729 0.0
C291 C 0.1568 0.28637 0.10857 0.0
C292 C 0.14614 0.2901 0.11666 0.0
C293 C 0.14586 0.2904 0.13403 0.0
C294 C 0.13532 0.29414 0.1426 0.0
C295 C 0.13447 0.29352 0.15965 0.0
C296 C 0.14427 0.2893 0.16881 0.0
C297 C 0.14293 0.28789 0.18607 0.0
C298 C 0.15314 0.28412 0.19488 0.0
C299 C 0.16456 0.28141 0.18686 0.0
C300 C 0.16581 0.28239 0.16952 0.0
C301 C 0.17692 0.27943 0.16097 0.0
C302 C 0.17771 0.27996 0.14389 0.0
C303 C 0.16724 0.28323 0.13468 0.0
C304 C 0.15629 0.28674 0.14306 0.0
C305 C 0.15555 0.28627 0.16048 0.0
C306 C 0.06898 0.28396 0.20241 0.0
C307 C 0.07747 0.28463 0.21865 0.0
O308 O 0.20197 0.26456 0.07439 0.0
O309 O 0.20325 0.2625 0.2222 0.0
O310 O 0.09414 0.29542 0.21761 0.0
O311 O 0.10368 0.2994 0.07542 0.0
H312 H 0.19666 0.27484 0.05518 0.0
H313 H 0.18589 0.24619 0.04823 0.0
H314 H 0.20588 0.24857 0.04945 0.0
H315 H 0.20128 0.25886 0.03372 0.0
H316 H 0.20982 0.29503 0.08118 0.0
H317 H 0.1785 0.24485 0.09317 0.0
H318 H 0.18839 0.31097 0.09423 0.0
H319 H 0.20938 0.31636 0.09632 0.0
H320 H 0.19663 0.31162 0.11424 0.0
H321 H 0.15507 0.23605 0.1094 0.0
H322 H 0.14761 0.24993 0.11239 0.0
H323 H 0.16085 0.24906 0.12746 0.0
H324 H 0.08336 0.27602 0.07034 0.0
H325 H 0.07408 0.28687 0.05178 0.0
H326 H 0.08891 0.30591 0.05568 0.0
H327 H 0.06297 0.29904 0.08041 0.0
H328 H 0.09531 0.2723 0.09252 0.0
H329 H 0.13378 0.32082 0.08172 0.0
H330 H 0.11113 0.26486 0.12552 0.0
H331 H 0.12063 0.25897 0.11003 0.0
H332 H 0.09981 0.25411 0.10725 0.0
H333 H 0.15934 0.3331 0.0955 0.0
H334 H 0.16603 0.31851 0.0945 0.0
H335 H 0.16092 0.32373 0.11397 0.0
H336 H 0.07507 0.27222 0.2215 0.0
H337 H 0.08949 0.26757 0.20307 0.0
H338 H 0.1244 0.31745 0.216 0.0
H339 H 0.11068 0.26085 0.17423 0.0
H340 H 0.09694 0.24999 0.1907 0.0
H341 H 0.11818 0.25581 0.19201 0.0
H342 H 0.15209 0.32995 0.20862 0.0
H343 H 0.15519 0.32202 0.18949 0.0
H344 H 0.15968 0.31602 0.20858 0.0
H345 H 0.2242 0.27687 0.20911 0.0
H346 H 0.23554 0.25888 0.21348 0.0
H347 H 0.21603 0.24884 0.20304 0.0
H348 H 0.21723 0.24474 0.22431 0.0
H349 H 0.17302 0.24351 0.214 0.0
H350 H 0.21269 0.29307 0.2139 0.0
H351 H 0.14891 0.24729 0.18352 0.0
H352 H 0.14207 0.25027 0.20308 0.0
H353 H 0.14789 0.23506 0.20069 0.0
H354 H 0.21004 0.31439 0.20319 0.0
H355 H 0.18951 0.31073 0.20138 0.0
H356 H 0.19911 0.30769 0.18385 0.0
H357 H 0.1567 0.28583 0.09523 0.0
H358 H 0.12743 0.29737 0.13619 0.0
H359 H 0.12596 0.29629 0.16555 0.0
H360 H 0.15197 0.28299 0.20813 0.0
H361 H 0.18506 0.27654 0.16738 0.0
H362 H 0.18647 0.27757 0.13796 0.0
H363 H 0.07131 0.29628 0.19932 0.0
H364 H 0.0556 0.27545 0.20332 0.0
H365 H 0.07359 0.27952 0.19225 0.0
C366 C 0.73982 0.92259 0.05002 0.0
C367 C 0.72688 0.91722 0.06336 0.0
C368 C 0.73106 0.91148 0.09135 0.0
C369 C 0.7149 0.90005 0.09536 0.0
C370 C 0.71151 0.88862 0.10763 0.0
C371 C 0.72456 0.88846 0.1158 0.0
C372 C 0.74087 0.90055 0.11231 0.0
C373 C 0.74388 0.91215 0.10033 0.0
C374 C 0.69395 0.87624 0.11131 0.0
C375 C 0.75515 0.90067 0.12052 0.0
C376 C 0.70358 0.76725 0.07902 0.0
C377 C 0.71232 0.78441 0.08492 0.0
C378 C 0.70561 0.80412 0.09646 0.0
C379 C 0.72133 0.81495 0.10279 0.0
C380 C 0.7244 0.82868 0.1123 0.0
C381 C 0.71146 0.83148 0.11572 0.0
C382 C 0.69564 0.82061 0.10935 0.0
C383 C 0.69296 0.80711 0.09969 0.0
C384 C 0.74149 0.84022 0.11867 0.0
C385 C 0.68158 0.82326 0.11277 0.0
C386 C 0.70846 0.80504 0.22171 0.0
C387 C 0.72396 0.81525 0.21504 0.0
C388 C 0.72735 0.82941 0.20668 0.0
C389 C 0.71492 0.83326 0.20475 0.0
C390 C 0.69932 0.82298 0.21146 0.0
C391 C 0.69634 0.80905 0.21992 0.0
C392 C 0.74415 0.84017 0.19975 0.0
C393 C 0.68574 0.82662 0.20954 0.0
C394 C 0.74989 0.96226 0.22231 0.0
C395 C 0.73649 0.9451 0.22704 0.0
C396 C 0.73842 0.92075 0.22218 0.0
C397 C 0.75015 0.91653 0.21858 0.0
C398 C 0.74591 0.9019 0.21009 0.0
C399 C 0.72944 0.89112 0.20541 0.0
C400 C 0.71735 0.8949 0.20982 0.0
C401 C 0.72197 0.90971 0.21813 0.0
C402 C 0.75908 0.89814 0.2058 0.0
C403 C 0.6996 0.8834 0.20553 0.0
C404 C 0.7212 0.87426 0.1259 0.0
C405 C 0.71766 0.85993 0.11739 0.0
C406 C 0.71458 0.84599 0.1257 0.0
C407 C 0.71497 0.84619 0.14306 0.0
C408 C 0.71168 0.83225 0.15178 0.0
C409 C 0.71251 0.83267 0.16885 0.0
C410 C 0.71674 0.84706 0.17786 0.0
C411 C 0.718 0.8477 0.1952 0.0
C412 C 0.72209 0.86216 0.2038 0.0
C413 C 0.72495 0.87611 0.19552 0.0
C414 C 0.72375 0.87571 0.17816 0.0
C415 C 0.7265 0.88949 0.1694 0.0
C416 C 0.72541 0.88899 0.1523 0.0
C417 C 0.72183 0.8748 0.14329 0.0
C418 C 0.71881 0.86071 0.15188 0.0
C419 C 0.71974 0.86116 0.16931 0.0
C420 C 0.70864 0.77349 0.24693 0.0
C421 C 0.71473 0.78516 0.23329 0.0
O422 O 0.73463 0.92171 0.07861 0.0
O423 O 0.74339 0.93552 0.2295 0.0
O424 O 0.70462 0.79132 0.23001 0.0
O425 O 0.70212 0.79065 0.08728 0.0
H426 H 0.71906 0.90367 0.06218 0.0
H427 H 0.74716 0.91667 0.05182 0.0
H428 H 0.74816 0.93605 0.05055 0.0
H429 H 0.73394 0.91893 0.03765 0.0
H430 H 0.70497 0.8999 0.08871 0.0
H431 H 0.7563 0.92122 0.09724 0.0
H432 H 0.69066 0.86444 0.10517 0.0
H433 H 0.68548 0.88012 0.10676 0.0
H434 H 0.69222 0.8742 0.12473 0.0
H435 H 0.76706 0.91033 0.11573 0.0
H436 H 0.75423 0.88865 0.11861 0.0
H437 H 0.75492 0.90272 0.13395 0.0
H438 H 0.72392 0.79277 0.07852 0.0
H439 H 0.70883 0.76754 0.0665 0.0
H440 H 0.69133 0.76446 0.074 0.0
H441 H 0.70569 0.75361 0.10009 0.0
H442 H 0.73126 0.81282 0.10026 0.0
H443 H 0.6809 0.79868 0.09472 0.0
H444 H 0.7416 0.84011 0.13231 0.0
H445 H 0.74552 0.85288 0.11498 0.0
H446 H 0.75042 0.8369 0.11404 0.0
H447 H 0.66977 0.813 0.108 0.0
H448 H 0.6839 0.83467 0.10691 0.0
H449 H 0.68055 0.82475 0.1262 0.0
H450 H 0.71891 0.78142 0.22215 0.0
H451 H 0.73342 0.81223 0.2163 0.0
H452 H 0.68443 0.8011 0.22513 0.0
H453 H 0.74339 0.83967 0.18612 0.0
H454 H 0.75289 0.83637 0.20362 0.0
H455 H 0.74899 0.85305 0.20376 0.0
H456 H 0.6741 0.81704 0.21489 0.0
H457 H 0.68367 0.8277 0.19631 0.0
H458 H 0.68931 0.83851 0.21568 0.0
H459 H 0.72788 0.94037 0.21633 0.0
H460 H 0.74472 0.97034 0.22094 0.0
H461 H 0.75524 0.96165 0.21038 0.0
H462 H 0.75985 0.96771 0.23167 0.0
H463 H 0.76276 0.925 0.22201 0.0
H464 H 0.71272 0.9126 0.22148 0.0
H465 H 0.75928 0.89642 0.19228 0.0
H466 H 0.75635 0.88654 0.21154 0.0
H467 H 0.77137 0.90797 0.20999 0.0
H468 H 0.69154 0.88749 0.21095 0.0
H469 H 0.69568 0.87097 0.20994 0.0
H470 H 0.69796 0.8825 0.19197 0.0
H471 H 0.71744 0.85966 0.10405 0.0
H472 H 0.70847 0.82086 0.1455 0.0
H473 H 0.70989 0.82157 0.17488 0.0
H474 H 0.72305 0.86257 0.21711 0.0
H475 H 0.72952 0.90083 0.17567 0.0
H476 H 0.72757 0.89992 0.1462 0.0
H477 H 0.72735 0.78629 0.26691 0.0
H478 H 0.70612 0.76148 0.24131 0.0
H479 H 0.69529 0.76935 0.24848 0.0
C480 C 0.18898 0.91671 0.06 0.0
C481 C 0.20231 0.92156 0.07318 0.0
C482 C 0.18691 0.90071 0.09383 0.0
C483 C 0.17708 0.90697 0.09916 0.0
C484 C 0.16402 0.8981 0.10983 0.0
C485 C 0.16088 0.88282 0.11546 0.0
C486 C 0.17118 0.87684 0.11072 0.0
C487 C 0.18408 0.8859 0.09996 0.0
C488 C 0.15332 0.90487 0.1148 0.0
C489 C 0.16832 0.8607 0.11672 0.0
C490 C 0.04841 0.8085 0.06667 0.0
C491 C 0.06152 0.80439 0.07101 0.0
C492 C 0.07644 0.81598 0.09661 0.0
C493 C 0.08475 0.81091 0.10674 0.0
C494 C 0.09841 0.82228 0.116 0.0
C495 C 0.10319 0.83902 0.11578 0.0
C496 C 0.09451 0.84413 0.10578 0.0
C497 C 0.08136 0.83254 0.09608 0.0
C498 C 0.10773 0.81635 0.12586 0.0
C499 C 0.09907 0.8618 0.10537 0.0
C500 C 0.07525 0.82316 0.22304 0.0
C501 C 0.08475 0.81734 0.21586 0.0
C502 C 0.0988 0.8278 0.20698 0.0
C503 C 0.1032 0.8443 0.20499 0.0
C504 C 0.09377 0.85022 0.21254 0.0
C505 C 0.08005 0.83959 0.22171 0.0
C506 C 0.10896 0.82121 0.19977 0.0
C507 C 0.09808 0.86772 0.2108 0.0
C508 C 0.21832 0.95 0.21525 0.0
C509 C 0.21077 0.94003 0.2307 0.0
C510 C 0.18998 0.91269 0.22013 0.0
C511 C 0.18649 0.89665 0.2179 0.0
C512 C 0.17203 0.88479 0.21009 0.0
C513 C 0.16077 0.88915 0.20441 0.0
C514 C 0.16399 0.90526 0.20698 0.0
C515 C 0.17861 0.91692 0.21476 0.0
C516 C 0.16895 0.86771 0.20754 0.0
C517 C 0.15213 0.91023 0.20116 0.0
C518 C 0.14622 0.87262 0.12544 0.0
C519 C 0.13199 0.8612 0.11711 0.0
C520 C 0.11759 0.85122 0.12555 0.0
C521 C 0.11728 0.85265 0.14286 0.0
C522 C 0.10289 0.84317 0.15175 0.0
C523 C 0.10293 0.84412 0.16884 0.0
C524 C 0.11733 0.8547 0.17769 0.0
C525 C 0.11766 0.85537 0.19509 0.0
C526 C 0.132 0.86661 0.20344 0.0
C527 C 0.14613 0.87715 0.19488 0.0
C528 C 0.14623 0.87623 0.17753 0.0
C529 C 0.16045 0.88627 0.1686 0.0
C530 C 0.16048 0.88515 0.15153 0.0
C531 C 0.14628 0.874 0.14276 0.0
C532 C 0.13177 0.86389 0.1515 0.0
C533 C 0.13177 0.86496 0.16892 0.0
C534 C 0.03364 0.79699 0.22501 0.0
C535 C 0.04984 0.79746 0.22734 0.0
O536 O 0.19899 0.90828 0.08264 0.0
O537 O 0.20452 0.92358 0.22727 0.0
O538 O 0.06163 0.81335 0.23169 0.0
O539 O 0.06331 0.80459 0.08792 0.0
H540 H 0.20304 0.93149 0.08121 0.0
H541 H 0.19201 0.92729 0.05214 0.0
H542 H 0.18777 0.90649 0.05212 0.0
H543 H 0.177 0.91278 0.06571 0.0
H544 H 0.1793 0.9186 0.09487 0.0
H545 H 0.19184 0.88125 0.09595 0.0
H546 H 0.14056 0.89634 0.11063 0.0
H547 H 0.15749 0.91705 0.10955 0.0
H548 H 0.15321 0.90595 0.12841 0.0
H549 H 0.17811 0.85831 0.11284 0.0
H550 H 0.15645 0.85068 0.11182 0.0
H551 H 0.16762 0.86046 0.13034 0.0
H552 H 0.07323 0.81361 0.06532 0.0
H553 H 0.04658 0.80787 0.05313 0.0
H554 H 0.05217 0.82106 0.07101 0.0
H555 H 0.03662 0.79986 0.0725 0.0
H556 H 0.08073 0.79803 0.10705 0.0
H557 H 0.0747 0.83636 0.08838 0.0
H558 H 0.10473 0.81613 0.13905 0.0
H559 H 0.1211 0.82467 0.12459 0.0
H560 H 0.1046 0.80382 0.12198 0.0
H561 H 0.08954 0.86332 0.0992 0.0
H562 H 0.11066 0.86888 0.09858 0.0
H563 H 0.10108 0.86707 0.11803 0.0
H564 H 0.05275 0.79367 0.21539 0.0
H565 H 0.08133 0.80473 0.21743 0.0
H566 H 0.07274 0.84398 0.22756 0.0
H567 H 0.10746 0.8202 0.1862 0.0
H568 H 0.10534 0.80896 0.20449 0.0
H569 H 0.12211 0.82969 0.20261 0.0
H570 H 0.08846 0.86988 0.21576 0.0
H571 H 0.10002 0.87114 0.19767 0.0
H572 H 0.10967 0.87589 0.21754 0.0
H573 H 0.20091 0.94207 0.23523 0.0
H574 H 0.22353 0.96322 0.21807 0.0
H575 H 0.2089 0.94633 0.20547 0.0
H576 H 0.22815 0.94805 0.2105 0.0
H577 H 0.19531 0.89351 0.22213 0.0
H578 H 0.18108 0.92927 0.21637 0.0
H579 H 0.16785 0.86466 0.19418 0.0
H580 H 0.15722 0.85881 0.21328 0.0
H581 H 0.17885 0.86623 0.21285 0.0
H582 H 0.15579 0.92286 0.2052 0.0
H583 H 0.13974 0.90169 0.20587 0.0
H584 H 0.15137 0.90947 0.18753 0.0
H585 H 0.13216 0.86001 0.10383 0.0
H586 H 0.09146 0.8348 0.14559 0.0
H587 H 0.09153 0.83641 0.17503 0.0
H588 H 0.13216 0.8672 0.21677 0.0
H589 H 0.17177 0.89504 0.17469 0.0
H590 H 0.17179 0.8931 0.14531 0.0
H591 H 0.02962 0.79976 0.23684 0.0
H592 H 0.02395 0.78487 0.22022 0.0
H593 H 0.03519 0.80626 0.21596 0.0
C594 C 0.3134 0.12063 0.95184 0.0
C595 C 0.30148 0.10329 0.94524 0.0
C596 C 0.29528 0.11057 0.91899 0.0
C597 C 0.27865 0.10542 0.91908 0.0
C598 C 0.27252 0.11312 0.90926 0.0
C599 C 0.2834 0.12644 0.89952 0.0
C600 C 0.30026 0.1317 0.8996 0.0
C601 C 0.30589 0.12338 0.90904 0.0
C602 C 0.25446 0.10702 0.9093 0.0
C603 C 0.31243 0.14625 0.88997 0.0
C604 C 0.25429 0.19634 0.96232 0.0
C605 C 0.26735 0.20091 0.94921 0.0
C606 C 0.26271 0.18804 0.92217 0.0
C607 C 0.2786 0.19165 0.91863 0.0
C608 C 0.28129 0.18203 0.90727 0.0
C609 C 0.26777 0.1683 0.89962 0.0
C610 C 0.25174 0.16496 0.90282 0.0
C611 C 0.24947 0.17516 0.91381 0.0
C612 C 0.29859 0.18628 0.90386 0.0
C613 C 0.23698 0.15027 0.89521 0.0
C614 C 0.25935 0.18629 0.79179 0.0
C615 C 0.27484 0.19209 0.79881 0.0
C616 C 0.27824 0.18169 0.80776 0.0
C617 C 0.26575 0.16526 0.80997 0.0
C618 C 0.25023 0.15933 0.80254 0.0
C619 C 0.24733 0.1699 0.7933 0.0
C620 C 0.29517 0.18825 0.81481 0.0
C621 C 0.23665 0.14186 0.80447 0.0
C622 C 0.27605 0.06199 0.79759 0.0
C623 C 0.27821 0.07178 0.7821 0.0
C624 C 0.28434 0.09856 0.79346 0.0
C625 C 0.29692 0.11455 0.79674 0.0
C626 C 0.294 0.12572 0.80529 0.0
C627 C 0.27801 0.12076 0.81056 0.0
C628 C 0.26512 0.10469 0.80701 0.0
C629 C 0.2684 0.0937 0.79857 0.0
C630 C 0.30805 0.14276 0.80891 0.0
C631 C 0.24789 0.09908 0.81232 0.0
C632 C 0.27738 0.13535 0.88973 0.0
C633 C 0.27421 0.14635 0.89809 0.0
C634 C 0.27037 0.15662 0.88963 0.0
C635 C 0.2697 0.15597 0.87224 0.0
C636 C 0.26645 0.16648 0.86326 0.0
C637 C 0.26592 0.16577 0.84615 0.0
C638 C 0.26894 0.15474 0.83734 0.0
C639 C 0.2689 0.15423 0.81994 0.0
C640 C 0.27188 0.14304 0.81162 0.0
C641 C 0.27488 0.13225 0.82018 0.0
C642 C 0.27508 0.13264 0.83756 0.0
C643 C 0.2782 0.12203 0.84654 0.0
C644 C 0.27868 0.1227 0.86363 0.0
C645 C 0.27617 0.13408 0.87239 0.0
C646 C 0.27256 0.1446 0.86361 0.0
C647 C 0.27214 0.14396 0.84616 0.0
C648 C 0.24286 0.21014 0.79271 0.0
C649 C 0.25918 0.21151 0.78832 0.0
O650 O 0.30135 0.10318 0.92821 0.0
O651 O 0.28823 0.08834 0.78547 0.0
O652 O 0.2558 0.19613 0.78314 0.0
O653 O 0.25982 0.19655 0.93386 0.0
H654 H 0.28902 0.09932 0.94986 0.0
H655 H 0.31374 0.12099 0.96549 0.0
H656 H 0.3259 0.12495 0.94719 0.0
H657 H 0.30946 0.12917 0.94779 0.0
H658 H 0.27048 0.09527 0.92665 0.0
H659 H 0.31873 0.12714 0.9091 0.0
H660 H 0.25234 0.1162 0.91561 0.0
H661 H 0.2474 0.09525 0.91571 0.0
H662 H 0.24975 0.10543 0.89651 0.0
H663 H 0.32523 0.15042 0.89364 0.0
H664 H 0.31027 0.15659 0.8917 0.0
H665 H 0.31098 0.14294 0.87668 0.0
H666 H 0.27344 0.1938 0.95178 0.0
H667 H 0.25997 0.1995 0.97479 0.0
H668 H 0.24545 0.18299 0.96165 0.0
H669 H 0.24753 0.20286 0.9604 0.0
H670 H 0.28886 0.20191 0.92484 0.0
H671 H 0.23727 0.17262 0.91657 0.0
H672 H 0.30113 0.17764 0.91032 0.0
H673 H 0.30765 0.19887 0.90817 0.0
H674 H 0.30028 0.18513 0.8905 0.0
H675 H 0.22536 0.14852 0.90024 0.0
H676 H 0.23751 0.13907 0.89735 0.0
H677 H 0.23689 0.15174 0.88173 0.0
H678 H 0.26697 0.21568 0.79962 0.0
H679 H 0.28432 0.20468 0.79708 0.0
H680 H 0.23551 0.16552 0.78756 0.0
H681 H 0.29482 0.18926 0.82839 0.0
H682 H 0.30403 0.20049 0.81006 0.0
H683 H 0.29961 0.17976 0.81187 0.0
H684 H 0.22484 0.13965 0.79942 0.0
H685 H 0.23508 0.13863 0.81765 0.0
H686 H 0.2399 0.13359 0.79794 0.0
H687 H 0.26608 0.06925 0.77764 0.0
H688 H 0.26813 0.0487 0.79486 0.0
H689 H 0.27018 0.06538 0.80742 0.0
H690 H 0.28807 0.06442 0.80226 0.0
H691 H 0.30915 0.1182 0.79273 0.0
H692 H 0.25847 0.08139 0.79615 0.0
H693 H 0.3092 0.14523 0.82239 0.0
H694 H 0.3056 0.1518 0.80319 0.0
H695 H 0.31983 0.14462 0.80425 0.0
H696 H 0.23902 0.08654 0.80772 0.0
H697 H 0.24409 0.10758 0.80779 0.0
H698 H 0.2474 0.09929 0.82595 0.0
H699 H 0.27518 0.14726 0.9114 0.0
H700 H 0.2643 0.17539 0.86938 0.0
H701 H 0.26325 0.1741 0.83991 0.0
H702 H 0.27186 0.14273 0.79828 0.0
H703 H 0.2804 0.11313 0.84047 0.0
H704 H 0.28113 0.11424 0.8699 0.0
H705 H 0.23547 0.20829 0.78144 0.0
H706 H 0.24478 0.22116 0.7996 0.0
H707 H 0.23579 0.19955 0.8008 0.0
C708 C 0.7862 0.03992 0.92653 0.0
C709 C 0.78867 0.05648 0.93208 0.0
C710 C 0.80175 0.07813 0.91185 0.0
C711 C 0.79895 0.08932 0.90388 0.0
C712 C 0.81177 0.10322 0.89675 0.0
C713 C 0.8277 0.10559 0.89711 0.0
C714 C 0.8306 0.09417 0.905 0.0
C715 C 0.81756 0.08055 0.91239 0.0
C716 C 0.80827 0.11531 0.88877 0.0
C717 C 0.8474 0.09626 0.90541 0.0
C718 C 0.92961 0.22342 0.94557 0.0
C719 C 0.92157 0.20719 0.93728 0.0
C720 C 0.89549 0.18773 0.92427 0.0
C721 C 0.90078 0.17751 0.91761 0.0
C722 C 0.89059 0.16431 0.9071 0.0
C723 C 0.87497 0.16155 0.90281 0.0
C724 C 0.86962 0.17185 0.90946 0.0
C725 C 0.87993 0.18472 0.92025 0.0
C726 C 0.89651 0.15329 0.90064 0.0
C727 C 0.85306 0.16929 0.90513 0.0
C728 C 0.9096 0.19307 0.79975 0.0
C729 C 0.91297 0.18126 0.8055 0.0
C730 C 0.90065 0.16696 0.81268 0.0
C731 C 0.88477 0.16454 0.81427 0.0
C732 C 0.88139 0.17643 0.80855 0.0
C733 C 0.89389 0.19056 0.80138 0.0
C734 C 0.90464 0.15452 0.8188 0.0
C735 C 0.86463 0.1743 0.81021 0.0
C736 C 0.78295 0.03966 0.79136 0.0
C737 C 0.78788 0.05677 0.78558 0.0
C738 C 0.81541 0.07981 0.7908 0.0
C739 C 0.83096 0.08262 0.79456 0.0
C740 C 0.84221 0.09656 0.80366 0.0
C741 C 0.83784 0.10808 0.80882 0.0
C742 C 0.82247 0.10579 0.80417 0.0
C743 C 0.81141 0.09167 0.79519 0.0
C744 C 0.85858 0.09875 0.80821 0.0
C745 C 0.81762 0.11808 0.80902 0.0
C746 C 0.8412 0.11986 0.88892 0.0
C747 C 0.85169 0.13349 0.89865 0.0
C748 C 0.86411 0.14769 0.89163 0.0
C749 C 0.86607 0.14842 0.87437 0.0
C750 C 0.87813 0.16266 0.86683 0.0
C751 C 0.88007 0.16317 0.84987 0.0
C752 C 0.86996 0.14949 0.83976 0.0
C753 C 0.87185 0.14987 0.82252 0.0
C754 C 0.86131 0.13623 0.81277 0.0
C755 C 0.84893 0.12202 0.81983 0.0
C756 C 0.84709 0.12127 0.8371 0.0
C757 C 0.83502 0.10703 0.84465 0.0
C758 C 0.83317 0.10648 0.86162 0.0
C759 C 0.84324 0.12017 0.8717 0.0
C760 C 0.85565 0.13456 0.8644 0.0
C761 C 0.85758 0.1351 0.84708 0.0
C762 C 0.94885 0.2206 0.80177 0.0
C763 C 0.93661 0.21153 0.78775 0.0
O764 O 0.78875 0.0649 0.91836 0.0
O765 O 0.80459 0.06555 0.78302 0.0
O766 O 0.92104 0.20716 0.79283 0.0
O767 O 0.90499 0.20057 0.93455 0.0
H768 H 0.80043 0.0634 0.93901 0.0
H769 H 0.79597 0.04173 0.91786 0.0
H770 H 0.77419 0.03246 0.92021 0.0
H771 H 0.78681 0.03315 0.93721 0.0
H772 H 0.78665 0.08722 0.90348 0.0
H773 H 0.81969 0.07165 0.91819 0.0
H774 H 0.8172 0.12792 0.89312 0.0
H775 H 0.79574 0.11277 0.8914 0.0
H776 H 0.80955 0.11478 0.87526 0.0
H777 H 0.84743 0.08576 0.91107 0.0
H778 H 0.85584 0.10753 0.91255 0.0
H779 H 0.85221 0.09772 0.89273 0.0
H780 H 0.92497 0.19844 0.94212 0.0
H781 H 0.93433 0.22166 0.95761 0.0
H782 H 0.9197 0.22496 0.95144 0.0
H783 H 0.94598 0.24027 0.92625 0.0
H784 H 0.91278 0.17963 0.92068 0.0
H785 H 0.87595 0.19265 0.92546 0.0
H786 H 0.89853 0.1549 0.88721 0.0
H787 H 0.88714 0.1403 0.90263 0.0
H788 H 0.90812 0.15593 0.90663 0.0
H789 H 0.85142 0.17934 0.90996 0.0
H790 H 0.84342 0.15764 0.91034 0.0
H791 H 0.8513 0.16834 0.89157 0.0
H792 H 0.9371 0.20049 0.784 0.0
H793 H 0.92515 0.18318 0.80466 0.0
H794 H 0.89146 0.19981 0.79701 0.0
H795 H 0.90313 0.15356 0.83234 0.0
H796 H 0.91732 0.15774 0.81584 0.0
H797 H 0.89602 0.14232 0.81329 0.0
H798 H 0.86402 0.18476 0.80521 0.0
H799 H 0.86117 0.173 0.82336 0.0
H800 H 0.85551 0.16295 0.8036 0.0
H801 H 0.78442 0.06234 0.79578 0.0
H802 H 0.76949 0.03216 0.79276 0.0
H803 H 0.78875 0.0406 0.80349 0.0
H804 H 0.78699 0.03339 0.78259 0.0
H805 H 0.83404 0.07355 0.79084 0.0
H806 H 0.79965 0.08991 0.79166 0.0
H807 H 0.85997 0.09935 0.8218 0.0
H808 H 0.86849 0.11047 0.80339 0.0
H809 H 0.86012 0.08866 0.80329 0.0
H810 H 0.80592 0.11532 0.80317 0.0
H811 H 0.82732 0.13053 0.80554 0.0
H812 H 0.81628 0.11817 0.82257 0.0
H813 H 0.85009 0.13309 0.91187 0.0
H814 H 0.88621 0.17358 0.87397 0.0
H815 H 0.8896 0.17446 0.84477 0.0
H816 H 0.86272 0.13671 0.79952 0.0
H817 H 0.82687 0.09613 0.83753 0.0
H818 H 0.82369 0.09517 0.86673 0.0
H819 H 0.96137 0.22401 0.79791 0.0
H820 H 0.94564 0.21266 0.81261 0.0
H821 H 0.94875 0.23184 0.80545 0.0
C822 C 0.81281 0.72573 0.96027 0.0
C823 C 0.80012 0.71975 0.94629 0.0
C824 C 0.81363 0.7125 0.92476 0.0
C825 C 0.82534 0.72859 0.92062 0.0
C826 C 0.83794 0.73169 0.90969 0.0
C827 C 0.83891 0.71849 0.90279 0.0
C828 C 0.82691 0.70228 0.90654 0.0
C829 C 0.81436 0.69952 0.91741 0.0
C830 C 0.85048 0.74913 0.9058 0.0
C831 C 0.82762 0.68793 0.89939 0.0
C832 C 0.93644 0.7489 0.96626 0.0
C833 C 0.92739 0.73495 0.95367 0.0
C834 C 0.92041 0.73762 0.92581 0.0
C835 C 0.90813 0.72152 0.92218 0.0
C836 C 0.89591 0.71816 0.91051 0.0
C837 C 0.89577 0.73125 0.90268 0.0
C838 C 0.90849 0.74751 0.90601 0.0
C839 C 0.9209 0.75043 0.91728 0.0
C840 C 0.88282 0.70065 0.90704 0.0
C841 C 0.90859 0.76187 0.89832 0.0
C842 C 0.92691 0.74749 0.79751 0.0
C843 C 0.91724 0.73116 0.80213 0.0
C844 C 0.90221 0.72574 0.8099 0.0
C845 C 0.89707 0.73703 0.81353 0.0
C846 C 0.90665 0.75339 0.80844 0.0
C847 C 0.92132 0.7583 0.8002 0.0
C848 C 0.89195 0.70803 0.81442 0.0
C849 C 0.90156 0.76578 0.8119 0.0
C850 C 0.78569 0.73026 0.79939 0.0
C851 C 0.79268 0.72606 0.78437 0.0
C852 C 0.81161 0.71845 0.79658 0.0
C853 C 0.81373 0.70527 0.79968 0.0
C854 C 0.82753 0.70744 0.80818 0.0
C855 C 0.8395 0.72325 0.81377 0.0
C856 C 0.83757 0.73672 0.81054 0.0
C857 C 0.82366 0.73421 0.80192 0.0
C858 C 0.82922 0.69282 0.81138 0.0
C859 C 0.85013 0.75374 0.81638 0.0
C860 C 0.85318 0.72172 0.89273 0.0
C861 C 0.86721 0.72451 0.90106 0.0
C862 C 0.88137 0.72803 0.89262 0.0
C863 C 0.8816 0.72876 0.87528 0.0
C864 C 0.89559 0.73221 0.86635 0.0
C865 C 0.89584 0.73345 0.84933 0.0
C866 C 0.88195 0.7308 0.84052 0.0
C867 C 0.88207 0.73201 0.8232 0.0
C868 C 0.86803 0.72931 0.81486 0.0
C869 C 0.85384 0.72562 0.82337 0.0
C870 C 0.8535 0.72444 0.84068 0.0
C871 C 0.83946 0.72088 0.84962 0.0
C872 C 0.8393 0.71993 0.86667 0.0
C873 C 0.85316 0.72248 0.87541 0.0
C874 C 0.86744 0.72603 0.86665 0.0
C875 C 0.8676 0.72701 0.84926 0.0
C876 C 0.96974 0.76388 0.79495 0.0
C877 C 0.95281 0.74847 0.79377 0.0
O878 O 0.80167 0.70892 0.93592 0.0
O879 O 0.79771 0.71525 0.78859 0.0
O880 O 0.94161 0.75319 0.79027 0.0
O881 O 0.93149 0.74113 0.93799 0.0
H882 H 0.80186 0.73039 0.93921 0.0
H883 H 0.82537 0.73254 0.95532 0.0
H884 H 0.81153 0.71526 0.9673 0.0
H885 H 0.81125 0.73409 0.96878 0.0
H886 H 0.82494 0.73884 0.926 0.0
H887 H 0.80524 0.68715 0.92057 0.0
H888 H 0.86255 0.75213 0.91085 0.0
H889 H 0.84728 0.75798 0.91105 0.0
H890 H 0.85172 0.75062 0.89228 0.0
H891 H 0.81718 0.67606 0.90327 0.0
H892 H 0.83916 0.68869 0.90332 0.0
H893 H 0.82764 0.68832 0.88576 0.0
H894 H 0.91409 0.7299 0.95577 0.0
H895 H 0.93332 0.74423 0.97896 0.0
H896 H 0.93278 0.75816 0.96465 0.0
H897 H 0.94986 0.75494 0.96467 0.0
H898 H 0.90801 0.7116 0.92861 0.0
H899 H 0.93054 0.76282 0.92017 0.0
H900 H 0.88008 0.69848 0.89365 0.0
H901 H 0.87144 0.69807 0.91337 0.0
H902 H 0.8864 0.69194 0.91147 0.0
H903 H 0.91816 0.77372 0.9038 0.0
H904 H 0.89653 0.76089 0.89982 0.0
H905 H 0.91089 0.7619 0.88496 0.0
H906 H 0.95026 0.74256 0.80597 0.0
H907 H 0.92135 0.72264 0.79956 0.0
H908 H 0.9288 0.7708 0.79631 0.0
H909 H 0.89255 0.70693 0.82791 0.0
H910 H 0.89621 0.70036 0.80832 0.0
H911 H 0.87896 0.70318 0.81097 0.0
H912 H 0.9113 0.77837 0.80891 0.0
H913 H 0.89833 0.76557 0.82505 0.0
H914 H 0.89056 0.76261 0.80441 0.0
H915 H 0.80318 0.73741 0.77952 0.0
H916 H 0.78149 0.73877 0.79594 0.0
H917 H 0.77523 0.71903 0.80444 0.0
H918 H 0.79513 0.73629 0.80919 0.0
H919 H 0.80439 0.69317 0.79548 0.0
H920 H 0.82229 0.74458 0.79958 0.0
H921 H 0.82945 0.6912 0.82483 0.0
H922 H 0.84096 0.69488 0.80637 0.0
H923 H 0.81907 0.6814 0.80577 0.0
H924 H 0.84681 0.76293 0.813 0.0
H925 H 0.86215 0.75726 0.81096 0.0
H926 H 0.85153 0.75401 0.82995 0.0
H927 H 0.86715 0.72409 0.91438 0.0
H928 H 0.90657 0.73418 0.87246 0.0
H929 H 0.90709 0.73647 0.84318 0.0
H930 H 0.86823 0.73032 0.80159 0.0
H931 H 0.82844 0.71884 0.84355 0.0
H932 H 0.82818 0.71721 0.87292 0.0
H933 H 0.97324 0.77002 0.78291 0.0
H934 H 0.9791 0.76092 0.79882 0.0
H935 H 0.96965 0.77252 0.80425 0.0
C936 C 0.86121 0.59153 0.38074 0.0
C937 C 0.86688 0.60617 0.39255 0.0
C938 C 0.85594 0.60529 0.41957 0.0
C939 C 0.86079 0.62174 0.42217 0.0
C940 C 0.85206 0.62622 0.43279 0.0
C941 C 0.83795 0.61393 0.44064 0.0
C942 C 0.83325 0.59731 0.43827 0.0
C943 C 0.84259 0.59325 0.42803 0.0
C944 C 0.8577 0.64407 0.43529 0.0
C945 C 0.81808 0.58378 0.44605 0.0
C946 C 0.74138 0.63575 0.39737 0.0
C947 C 0.74944 0.62804 0.40577 0.0
C948 C 0.77528 0.63517 0.41911 0.0
C949 C 0.76951 0.61969 0.42585 0.0
C950 C 0.77965 0.61661 0.43576 0.0
C951 C 0.79581 0.62933 0.43927 0.0
C952 C 0.8016 0.64496 0.43267 0.0
C953 C 0.79127 0.64764 0.42258 0.0
C954 C 0.77313 0.59972 0.44242 0.0
C955 C 0.81872 0.65882 0.43627 0.0
C956 C 0.76877 0.6326 0.54468 0.0
C957 C 0.76414 0.61692 0.53852 0.0
C958 C 0.77541 0.61401 0.53032 0.0
C959 C 0.79159 0.62704 0.5282 0.0
C960 C 0.7963 0.64281 0.53443 0.0
C961 C 0.78478 0.64538 0.54257 0.0
C962 C 0.76999 0.59705 0.52378 0.0
C963 C 0.81346 0.65695 0.53236 0.0
C964 C 0.88138 0.58718 0.54668 0.0
C965 C 0.87835 0.60122 0.55041 0.0
C966 C 0.85276 0.60074 0.54585 0.0
C967 C 0.83633 0.58973 0.54224 0.0
C968 C 0.82672 0.59477 0.53408 0.0
C969 C 0.83369 0.61133 0.52979 0.0
C970 C 0.85004 0.62274 0.53436 0.0
C971 C 0.85945 0.61731 0.54229 0.0
C972 C 0.80924 0.58231 0.52966 0.0
C973 C 0.85767 0.64059 0.53053 0.0
C974 C 0.82747 0.61839 0.45026 0.0
C975 C 0.81729 0.62222 0.44147 0.0
C976 C 0.80673 0.62612 0.44952 0.0
C977 C 0.8062 0.6262 0.46689 0.0
C978 C 0.79573 0.63008 0.47539 0.0
C979 C 0.79489 0.62957 0.49245 0.0
C980 C 0.80454 0.62524 0.50168 0.0
C981 C 0.80343 0.62424 0.51899 0.0
C982 C 0.81323 0.61995 0.52782 0.0
C983 C 0.82414 0.61651 0.51979 0.0
C984 C 0.82542 0.61741 0.50246 0.0
C985 C 0.83625 0.61401 0.49396 0.0
C986 C 0.8372 0.61466 0.4769 0.0
C987 C 0.82712 0.6184 0.46764 0.0
C988 C 0.81633 0.62217 0.47596 0.0
C989 C 0.8155 0.6217 0.49339 0.0
C990 C 0.73598 0.6306 0.5704 0.0
C991 C 0.74251 0.6245 0.5574 0.0
O992 O 0.86362 0.60072 0.40854 0.0
O993 O 0.86178 0.59492 0.55262 0.0
O994 O 0.75824 0.63589 0.55275 0.0
O995 O 0.76587 0.63853 0.40923 0.0
H996 H 0.85956 0.61187 0.38923 0.0
H997 H 0.8478 0.58327 0.38175 0.0
H998 H 0.86722 0.58448 0.38369 0.0
H999 H 0.864 0.59568 0.36785 0.0
H1000 H 0.87136 0.63105 0.41584 0.0
H1001 H 0.83903 0.58058 0.42596 0.0
H1002 H 0.84938 0.64691 0.42849 0.0
H1003 H 0.87031 0.6521 0.43078 0.0
H1004 H 0.85728 0.64694 0.44851 0.0
H1005 H 0.81495 0.57153 0.4412 0.0
H1006 H 0.80753 0.58548 0.44389 0.0
H1007 H 0.81999 0.5841 0.45953 0.0
H1008 H 0.74646 0.61588 0.40065 0.0
H1009 H 0.73696 0.62906 0.38514 0.0
H1010 H 0.75143 0.64736 0.39189 0.0
H1011 H 0.724 0.63532 0.41616 0.0
H1012 H 0.75714 0.6099 0.42335 0.0
H1013 H 0.79562 0.65954 0.41738 0.0
H1014 H 0.78145 0.59516 0.43919 0.0
H1015 H 0.76071 0.59087 0.4376 0.0
H1016 H 0.77262 0.60023 0.45603 0.0
H1017 H 0.82095 0.67056 0.43131 0.0
H1018 H 0.82762 0.65592 0.43074 0.0
H1019 H 0.82101 0.66032 0.44975 0.0
H1020 H 0.73405 0.61768 0.54693 0.0
H1021 H 0.75175 0.60692 0.53999 0.0
H1022 H 0.78824 0.65742 0.54738 0.0
H1023 H 0.77114 0.59725 0.5102 0.0
H1024 H 0.75715 0.58809 0.52696 0.0
H1025 H 0.77802 0.59284 0.52881 0.0
H1026 H 0.81521 0.66847 0.53798 0.0
H1027 H 0.81634 0.65886 0.51908 0.0
H1028 H 0.82227 0.6541 0.53809 0.0
H1029 H 0.88264 0.60907 0.5394 0.0
H1030 H 0.89465 0.59194 0.54517 0.0
H1031 H 0.875 0.58081 0.53506 0.0
H1032 H 0.8767 0.57815 0.55666 0.0
H1033 H 0.83121 0.57703 0.54532 0.0
H1034 H 0.872 0.62602 0.54564 0.0
H1035 H 0.80729 0.58221 0.51619 0.0
H1036 H 0.80095 0.58571 0.53581 0.0
H1037 H 0.80582 0.5698 0.53336 0.0
H1038 H 0.86988 0.64816 0.53641 0.0
H1039 H 0.84961 0.64518 0.53474 0.0
H1040 H 0.859 0.64214 0.51702 0.0
H1041 H 0.81745 0.62197 0.42814 0.0
H1042 H 0.78797 0.63343 0.46893 0.0
H1043 H 0.7865 0.63255 0.4983 0.0
H1044 H 0.81219 0.61906 0.54109 0.0
H1045 H 0.84412 0.61078 0.50039 0.0
H1046 H 0.84581 0.61199 0.47103 0.0
H1047 H 0.73396 0.61567 0.59221 0.0
H1048 H 0.72492 0.63013 0.56475 0.0
H1049 H 0.74367 0.64437 0.57042 0.0
C1050 C 0.3986 0.25861 0.38428 0.0
C1051 C 0.38618 0.25377 0.39809 0.0
C1052 C 0.39228 0.24813 0.42533 0.0
C1053 C 0.37667 0.2359 0.43003 0.0
C1054 C 0.37471 0.22457 0.44192 0.0
C1055 C 0.38868 0.2254 0.44907 0.0
C1056 C 0.40445 0.23816 0.44479 0.0
C1057 C 0.40601 0.24958 0.43317 0.0
C1058 C 0.3577 0.21138 0.44642 0.0
C1059 C 0.41964 0.23932 0.45193 0.0
C1060 C 0.38829 0.13545 0.39922 0.0
C1061 C 0.38127 0.12541 0.41475 0.0
C1062 C 0.37383 0.14244 0.43167 0.0
C1063 C 0.38977 0.15471 0.43611 0.0
C1064 C 0.39248 0.1683 0.44567 0.0
C1065 C 0.379 0.16961 0.45087 0.0
C1066 C 0.36296 0.15721 0.44654 0.0
C1067 C 0.36061 0.14377 0.43701 0.0
C1068 C 0.40974 0.18138 0.4501 0.0
C1069 C 0.34834 0.15827 0.45184 0.0
C1070 C 0.37952 0.14873 0.5596 0.0
C1071 C 0.39417 0.15811 0.55133 0.0
C1072 C 0.39656 0.17119 0.54164 0.0
C1073 C 0.38384 0.1747 0.54009 0.0
C1074 C 0.36899 0.16514 0.54851 0.0
C1075 C 0.36707 0.15231 0.5583 0.0
C1076 C 0.41268 0.18126 0.53314 0.0
C1077 C 0.35517 0.16851 0.54718 0.0
C1078 C 0.41804 0.30505 0.55013 0.0
C1079 C 0.40478 0.28757 0.554 0.0
C1080 C 0.40674 0.26306 0.55196 0.0
C1081 C 0.41829 0.25842 0.54914 0.0
C1082 C 0.41372 0.2431 0.5421 0.0
C1083 C 0.3971 0.23205 0.53818 0.0
C1084 C 0.3852 0.23624 0.54206 0.0
C1085 C 0.39016 0.25177 0.54882 0.0
C1086 C 0.42671 0.23894 0.53832 0.0
C1087 C 0.36731 0.22449 0.53863 0.0
C1088 C 0.38679 0.21194 0.45954 0.0
C1089 C 0.38385 0.19758 0.45154 0.0
C1090 C 0.38173 0.18423 0.46035 0.0
C1091 C 0.38241 0.18502 0.47771 0.0
C1092 C 0.37986 0.17161 0.48695 0.0
C1093 C 0.38076 0.17259 0.50403 0.0
C1094 C 0.38458 0.18714 0.51251 0.0
C1095 C 0.38611 0.18846 0.52986 0.0
C1096 C 0.39003 0.20316 0.53786 0.0
C1097 C 0.39237 0.21662 0.52902 0.0
C1098 C 0.39069 0.21548 0.51169 0.0
C1099 C 0.39275 0.22873 0.50243 0.0
C1100 C 0.39117 0.22751 0.48538 0.0
C1101 C 0.38791 0.21316 0.4769 0.0
C1102 C 0.38572 0.19963 0.486 0.0
C1103 C 0.38696 0.20073 0.50342 0.0
C1104 C 0.36847 0.10876 0.57585 0.0
C1105 C 0.3722 0.12092 0.56302 0.0
O1106 O 0.39444 0.25847 0.41306 0.0
O1107 O 0.41205 0.27853 0.55748 0.0
O1108 O 0.37751 0.13646 0.56924 0.0
O1109 O 0.37049 0.12921 0.42217 0.0
H1110 H 0.37813 0.24023 0.3972 0.0
H1111 H 0.40571 0.2524 0.38581 0.0
H1112 H 0.40724 0.27202 0.38452 0.0
H1113 H 0.39228 0.25487 0.37213 0.0
H1114 H 0.36603 0.23513 0.42426 0.0
H1115 H 0.41801 0.25922 0.42956 0.0
H1116 H 0.35516 0.19958 0.44084 0.0
H1117 H 0.34827 0.21401 0.44196 0.0
H1118 H 0.35667 0.20996 0.45996 0.0
H1119 H 0.43097 0.24941 0.4466 0.0
H1120 H 0.4194 0.22766 0.44968 0.0
H1121 H 0.42004 0.24137 0.46543 0.0
H1122 H 0.39134 0.12794 0.42346 0.0
H1123 H 0.39695 0.13244 0.39322 0.0
H1124 H 0.39502 0.1487 0.40233 0.0
H1125 H 0.37834 0.13288 0.39036 0.0
H1126 H 0.40014 0.15386 0.4321 0.0
H1127 H 0.34837 0.13422 0.43353 0.0
H1128 H 0.41241 0.19316 0.44485 0.0
H1129 H 0.4189 0.17838 0.44548 0.0
H1130 H 0.41108 0.18311 0.46366 0.0
H1131 H 0.33663 0.14746 0.44766 0.0
H1132 H 0.34916 0.16941 0.44677 0.0
H1133 H 0.34827 0.15934 0.46544 0.0
H1134 H 0.36312 0.11699 0.55273 0.0
H1135 H 0.40376 0.15524 0.55259 0.0
H1136 H 0.35583 0.14498 0.56491 0.0
H1137 H 0.4109 0.17888 0.51968 0.0
H1138 H 0.42198 0.17834 0.53734 0.0
H1139 H 0.41743 0.19448 0.53537 0.0
H1140 H 0.34387 0.15897 0.5531 0.0
H1141 H 0.35244 0.16925 0.53407 0.0
H1142 H 0.35886 0.18047 0.5532 0.0
H1143 H 0.39709 0.28266 0.54264 0.0
H1144 H 0.41248 0.3126 0.54757 0.0
H1145 H 0.42483 0.30497 0.53906 0.0
H1146 H 0.42689 0.31074 0.56051 0.0
H1147 H 0.43102 0.26713 0.55187 0.0
H1148 H 0.38107 0.25506 0.55153 0.0
H1149 H 0.4266 0.23633 0.52494 0.0
H1150 H 0.42404 0.22774 0.54488 0.0
H1151 H 0.43912 0.24895 0.54197 0.0
H1152 H 0.35944 0.22878 0.54413 0.0
H1153 H 0.36364 0.21229 0.54352 0.0
H1154 H 0.3651 0.22301 0.52514 0.0
H1155 H 0.38323 0.19679 0.4382 0.0
H1156 H 0.37711 0.16018 0.48107 0.0
H1157 H 0.37859 0.16185 0.51049 0.0
H1158 H 0.39137 0.20418 0.55114 0.0
H1159 H 0.39556 0.2402 0.50824 0.0
H1160 H 0.39275 0.23804 0.4789 0.0
H1161 H 0.38751 0.10186 0.57237 0.0
H1162 H 0.35502 0.09953 0.57434 0.0
H1163 H 0.36695 0.11416 0.58773 0.0
C1164 C 0.86269 0.25096 0.38617 0.0
C1165 C 0.87379 0.25489 0.40131 0.0
C1166 C 0.856 0.2322 0.41949 0.0
C1167 C 0.84492 0.23736 0.42333 0.0
C1168 C 0.83106 0.22761 0.4328 0.0
C1169 C 0.82833 0.21252 0.4386 0.0
C1170 C 0.83966 0.2075 0.43505 0.0
C1171 C 0.85335 0.21743 0.42554 0.0
C1172 C 0.81928 0.23337 0.43658 0.0
C1173 C 0.83726 0.19159 0.44124 0.0
C1174 C 0.734 0.13787 0.37467 0.0
C1175 C 0.73983 0.13156 0.3887 0.0
C1176 C 0.74715 0.14548 0.41534 0.0
C1177 C 0.75961 0.14263 0.42008 0.0
C1178 C 0.7717 0.15312 0.43142 0.0
C1179 C 0.77142 0.16687 0.43795 0.0
C1180 C 0.75848 0.16939 0.43365 0.0
C1181 C 0.74631 0.15844 0.42259 0.0
C1182 C 0.78507 0.14979 0.436 0.0
C1183 C 0.75785 0.18398 0.44022 0.0
C1184 C 0.74219 0.14965 0.54478 0.0
C1185 C 0.75172 0.14364 0.53811 0.0
C1186 C 0.76615 0.15398 0.52969 0.0
C1187 C 0.77079 0.17052 0.52751 0.0
C1188 C 0.76134 0.17665 0.53458 0.0
C1189 C 0.7473 0.16615 0.5434 0.0
C1190 C 0.77638 0.14722 0.5231 0.0
C1191 C 0.76594 0.19422 0.53268 0.0
C1192 C 0.88564 0.27533 0.53589 0.0
C1193 C 0.87893 0.26683 0.55226 0.0
C1194 C 0.85752 0.23917 0.54326 0.0
C1195 C 0.85406 0.22315 0.54087 0.0
C1196 C 0.8396 0.21133 0.53299 0.0
C1197 C 0.82825 0.21567 0.52754 0.0
C1198 C 0.83135 0.2317 0.53045 0.0
C1199 C 0.84601 0.24333 0.5382 0.0
C1200 C 0.83664 0.19434 0.5301 0.0
C1201 C 0.81934 0.23662 0.52502 0.0
C1202 C 0.81357 0.20186 0.44828 0.0
C1203 C 0.79952 0.19035 0.43974 0.0
C1204 C 0.78542 0.17928 0.44805 0.0
C1205 C 0.78519 0.17982 0.46543 0.0
C1206 C 0.77121 0.16899 0.47423 0.0
C1207 C 0.77114 0.16966 0.49134 0.0
C1208 C 0.7852 0.18088 0.50033 0.0
C1209 C 0.78542 0.18142 0.51774 0.0
C1210 C 0.79962 0.19277 0.52624 0.0
C1211 C 0.81366 0.20376 0.51783 0.0
C1212 C 0.8137 0.20341 0.50046 0.0
C1213 C 0.82768 0.21427 0.49165 0.0
C1214 C 0.82762 0.21387 0.47457 0.0
C1215 C 0.81363 0.20253 0.46563 0.0
C1216 C 0.79938 0.19146 0.47424 0.0
C1217 C 0.79942 0.19192 0.49169 0.0
C1218 C 0.69976 0.12187 0.54914 0.0
C1219 C 0.71676 0.12389 0.54847 0.0
O1220 O 0.86931 0.24084 0.40995 0.0
O1221 O 0.87214 0.25011 0.55029 0.0
O1222 O 0.7281 0.13993 0.55278 0.0
O1223 O 0.73602 0.13612 0.40357 0.0
H1224 H 0.87299 0.26398 0.40942 0.0
H1225 H 0.84983 0.24607 0.38988 0.0
H1226 H 0.86321 0.24172 0.37807 0.0
H1227 H 0.86655 0.2622 0.37908 0.0
H1228 H 0.84693 0.24889 0.41897 0.0
H1229 H 0.86204 0.21363 0.42262 0.0
H1230 H 0.80702 0.22443 0.43147 0.0
H1231 H 0.82325 0.24554 0.43142 0.0
H1232 H 0.81804 0.23405 0.4501 0.0
H1233 H 0.84723 0.18945 0.43741 0.0
H1234 H 0.82548 0.1813 0.43653 0.0
H1235 H 0.8367 0.19155 0.45487 0.0
H1236 H 0.75332 0.1374 0.3874 0.0
H1237 H 0.73698 0.13444 0.3626 0.0
H1238 H 0.74021 0.1514 0.37557 0.0
H1239 H 0.7206 0.13278 0.37529 0.0
H1240 H 0.75994 0.13229 0.41478 0.0
H1241 H 0.73649 0.16038 0.41896 0.0
H1242 H 0.78745 0.15142 0.44946 0.0
H1243 H 0.79649 0.15864 0.42977 0.0
H1244 H 0.78201 0.13726 0.43225 0.0
H1245 H 0.74732 0.18453 0.43516 0.0
H1246 H 0.7693 0.19539 0.43716 0.0
H1247 H 0.75694 0.18349 0.45382 0.0
H1248 H 0.71866 0.12113 0.53556 0.0
H1249 H 0.748 0.13094 0.53965 0.0
H1250 H 0.73993 0.17067 0.54884 0.0
H1251 H 0.77508 0.14593 0.50952 0.0
H1252 H 0.77263 0.13506 0.52816 0.0
H1253 H 0.78949 0.15571 0.52607 0.0
H1254 H 0.7563 0.19654 0.53725 0.0
H1255 H 0.76827 0.19765 0.51957 0.0
H1256 H 0.77738 0.20227 0.5397 0.0
H1257 H 0.86954 0.26955 0.55682 0.0
H1258 H 0.89134 0.28876 0.53757 0.0
H1259 H 0.87565 0.27111 0.52665 0.0
H1260 H 0.89492 0.27259 0.53104 0.0
H1261 H 0.86295 0.22003 0.5449 0.0
H1262 H 0.84837 0.25562 0.54003 0.0
H1263 H 0.83541 0.19145 0.5167 0.0
H1264 H 0.825 0.18531 0.5359 0.0
H1265 H 0.84666 0.19289 0.53515 0.0
H1266 H 0.82278 0.24905 0.52957 0.0
H1267 H 0.80694 0.22777 0.5295 0.0
H1268 H 0.81873 0.23638 0.51139 0.0
H1269 H 0.79968 0.1898 0.42641 0.0
H1270 H 0.76012 0.15993 0.46798 0.0
H1271 H 0.75995 0.16115 0.49743 0.0
H1272 H 0.79971 0.19314 0.53958 0.0
H1273 H 0.83885 0.22322 0.49784 0.0
H1274 H 0.83873 0.22255 0.46846 0.0
H1275 H 0.69698 0.12408 0.56187 0.0
H1276 H 0.69027 0.1094 0.54495 0.0
H1277 H 0.69923 0.13077 0.54092 0.0
C1278 C 0.01609 0.46424 0.28783 0.0
C1279 C 0.00674 0.44925 0.2764 0.0
C1280 C 0.00751 0.46018 0.24948 0.0
C1281 C 0.99088 0.45448 0.24674 0.0
C1282 C 0.98596 0.4627 0.23621 0.0
C1283 C -0.00207 0.4768 0.2282 0.0
C1284 C 0.01467 0.482 0.2302 0.0
C1285 C 0.01923 0.47347 0.24073 0.0
C1286 C 0.96801 0.45654 0.2339 0.0
C1287 C 0.02774 0.49688 0.22167 0.0
C1288 C 0.00762 0.58787 0.27311 0.0
C1289 C 0.00908 0.57537 0.26349 0.0
C1290 C 0.99275 0.54921 0.24924 0.0
C1291 C 0.00579 0.5508 0.23969 0.0
C1292 C 0.00397 0.53791 0.22958 0.0
C1293 C 0.98883 0.52306 0.22902 0.0
C1294 C 0.97556 0.52148 0.23828 0.0
C1295 C 0.97768 0.53466 0.24824 0.0
C1296 C 0.01837 0.54008 0.21974 0.0
C1297 C 0.95925 0.50581 0.23781 0.0
C1298 C 0.96417 0.5352 0.12933 0.0
C1299 C 0.98079 0.54028 0.13087 0.0
C1300 C 0.98565 0.52968 0.1369 0.0
C1301 C 0.97363 0.51368 0.1413 0.0
C1302 C 0.95692 0.50818 0.13857 0.0
C1303 C 0.95241 0.51902 0.1325 0.0
C1304 C 0.00359 0.53574 0.13915 0.0
C1305 C 0.94382 0.49107 0.14277 0.0
C1306 C 0.01601 0.42885 0.13998 0.0
C1307 C 0.0042 0.42814 0.12681 0.0
C1308 C 0.00309 0.45324 0.12682 0.0
C1309 C 0.01393 0.46989 0.12954 0.0
C1310 C 0.0085 0.48001 0.13601 0.0
C1311 C 0.99175 0.47325 0.13955 0.0
C1312 C 0.98051 0.45669 0.13554 0.0
C1313 C 0.9863 0.44682 0.12916 0.0
C1314 C 0.02077 0.49772 0.13981 0.0
C1315 C 0.96252 0.44929 0.13871 0.0
C1316 C 0.993 0.48678 0.21877 0.0
C1317 C 0.99138 0.49864 0.22746 0.0
C1318 C 0.98741 0.509 0.21943 0.0
C1319 C 0.98433 0.50714 0.20232 0.0
C1320 C 0.97974 0.51698 0.19397 0.0
C1321 C 0.97743 0.51552 0.177 0.0
C1322 C 0.97995 0.5044 0.1677 0.0
C1323 C 0.9784 0.50336 0.15036 0.0
C1324 C 0.98182 0.49278 0.14143 0.0
C1325 C 0.98649 0.48293 0.14947 0.0
C1326 C 0.98736 0.48323 0.16684 0.0
C1327 C 0.99145 0.47302 0.1753 0.0
C1328 C 0.9929 0.47386 0.19234 0.0
C1329 C 0.99067 0.48518 0.20154 0.0
C1330 C 0.98628 0.49539 0.1933 0.0
C1331 C 0.98438 0.49423 0.17594 0.0
C1332 C 0.95489 0.56368 0.14195 0.0
C1333 C 0.96617 0.5618 0.12986 0.0
O1334 O 0.01259 0.45319 0.26054 0.0
O1335 O 0.00926 0.44385 0.1218 0.0
O1336 O 0.95905 0.54555 0.1249 0.0
O1337 O 0.99438 0.56135 0.2596 0.0
H1338 H 0.99366 0.44561 0.27694 0.0
H1339 H 0.01373 0.474 0.28403 0.0
H1340 H 0.02945 0.46912 0.28731 0.0
H1341 H 0.01196 0.46105 0.30071 0.0
H1342 H 0.98172 0.44365 0.25283 0.0
H1343 H 0.03201 0.47755 0.2427 0.0
H1344 H 0.96516 0.46562 0.23918 0.0
H1345 H 0.9602 0.44466 0.23991 0.0
H1346 H 0.96489 0.45511 0.22059 0.0
H1347 H 0.04016 0.49898 0.22408 0.0
H1348 H 0.02737 0.50781 0.22594 0.0
H1349 H 0.02543 0.49552 0.2082 0.0
H1350 H 0.01877 0.57297 0.26777 0.0
H1351 H 0.01415 0.58928 0.28515 0.0
H1352 H 0.99502 0.58146 0.27863 0.0
H1353 H 0.01621 0.60857 0.25571 0.0
H1354 H 0.0175 0.56202 0.24014 0.0
H1355 H 0.96765 0.53354 0.25553 0.0
H1356 H 0.01509 0.53797 0.20647 0.0
H1357 H 0.02162 0.53093 0.22344 0.0
H1358 H 0.02929 0.55246 0.22144 0.0
H1359 H 0.94987 0.50679 0.24502 0.0
H1360 H 0.96063 0.49581 0.24284 0.0
H1361 H 0.9549 0.50238 0.22488 0.0
H1362 H 0.97781 0.56602 0.1367 0.0
H1363 H 0.98998 0.55253 0.12752 0.0
H1364 H 0.93962 0.51512 0.13086 0.0
H1365 H 0.00644 0.53613 0.15244 0.0
H1366 H 0.01144 0.54812 0.13415 0.0
H1367 H 0.00666 0.52717 0.13296 0.0
H1368 H 0.93148 0.48827 0.13879 0.0
H1369 H 0.94377 0.48953 0.15627 0.0
H1370 H 0.94648 0.48208 0.13686 0.0
H1371 H 0.99188 0.42232 0.13238 0.0
H1372 H 0.01225 0.41635 0.14405 0.0
H1373 H 0.01595 0.43608 0.15082 0.0
H1374 H 0.02866 0.4347 0.1352 0.0
H1375 H 0.0268 0.47479 0.12726 0.0
H1376 H 0.97772 0.43413 0.12611 0.0
H1377 H 0.02167 0.49992 0.15332 0.0
H1378 H 0.01666 0.50563 0.13433 0.0
H1379 H 0.0331 0.5014 0.1351 0.0
H1380 H 0.95518 0.43672 0.13343 0.0
H1381 H 0.95811 0.45702 0.13342 0.0
H1382 H 0.96047 0.44885 0.15217 0.0
H1383 H 0.99384 0.50024 0.2406 0.0
H1384 H 0.9779 0.52592 0.20048 0.0
H1385 H 0.97392 0.52345 0.17126 0.0
H1386 H 0.98115 0.49244 0.12811 0.0
H1387 H 0.99361 0.46426 0.16887 0.0
H1388 H 0.9961 0.46574 0.19819 0.0
H1389 H 0.96015 0.57672 0.14564 0.0
H1390 H 0.95352 0.55663 0.15316 0.0
H1391 H 0.94257 0.55901 0.13646 0.0
C1392 C 0.4516 0.37678 0.25541 0.0
C1393 C 0.45164 0.3919 0.26213 0.0
C1394 C 0.46556 0.41534 0.24385 0.0
C1395 C 0.46274 0.42637 0.23557 0.0
C1396 C 0.47564 0.44063 0.22908 0.0
C1397 C 0.49174 0.44358 0.23037 0.0
C1398 C 0.49474 0.43252 0.23887 0.0
C1399 C 0.48159 0.41851 0.24565 0.0
C1400 C 0.47196 0.45235 0.22054 0.0
C1401 C 0.51177 0.43528 0.24039 0.0
C1402 C 0.59359 0.56267 0.27659 0.0
C1403 C 0.58456 0.54574 0.26991 0.0
C1404 C 0.55934 0.52751 0.25469 0.0
C1405 C 0.56382 0.51598 0.25033 0.0
C1406 C 0.55352 0.50229 0.2404 0.0
C1407 C 0.53852 0.50014 0.23464 0.0
C1408 C 0.53396 0.51169 0.23904 0.0
C1409 C 0.54444 0.52522 0.24907 0.0
C1410 C 0.55868 0.49012 0.23602 0.0
C1411 C 0.51807 0.50977 0.23305 0.0
C1412 C 0.57069 0.52979 0.13092 0.0
C1413 C 0.57517 0.51936 0.13819 0.0
C1414 C 0.56341 0.5049 0.14558 0.0
C1415 C 0.54694 0.50102 0.14602 0.0
C1416 C 0.54244 0.51152 0.13872 0.0
C1417 C 0.55439 0.52574 0.13119 0.0
C1418 C 0.56859 0.49385 0.15308 0.0
C1419 C 0.52503 0.50782 0.13904 0.0
C1420 C 0.44879 0.37353 0.12709 0.0
C1421 C 0.45231 0.39026 0.12148 0.0
C1422 C 0.47934 0.41449 0.1252 0.0
C1423 C 0.49531 0.41826 0.12839 0.0
C1424 C 0.50637 0.43265 0.13702 0.0
C1425 C 0.50136 0.44366 0.14222 0.0
C1426 C 0.48551 0.44039 0.13809 0.0
C1427 C 0.47464 0.42581 0.12964 0.0
C1428 C 0.52322 0.43583 0.14106 0.0
C1429 C 0.47994 0.45214 0.14293 0.0
C1430 C 0.5052 0.45773 0.22197 0.0
C1431 C 0.5155 0.47176 0.23132 0.0
C1432 C 0.5277 0.48585 0.2239 0.0
C1433 C 0.52951 0.48611 0.20663 0.0
C1434 C 0.54123 0.50026 0.19871 0.0
C1435 C 0.54285 0.50041 0.18171 0.0
C1436 C 0.53293 0.48635 0.17198 0.0
C1437 C 0.53456 0.48633 0.1547 0.0
C1438 C 0.52422 0.47228 0.14535 0.0
C1439 C 0.51229 0.45807 0.15283 0.0
C1440 C 0.51073 0.45775 0.17013 0.0
C1441 C 0.49915 0.44354 0.1781 0.0
C1442 C 0.49745 0.44344 0.19507 0.0
C1443 C 0.50723 0.45756 0.20476 0.0
C1444 C 0.51927 0.47188 0.19705 0.0
C1445 C 0.521 0.47198 0.17971 0.0
C1446 C 0.60495 0.56135 0.10775 0.0
C1447 C 0.59815 0.54982 0.12144 0.0
O1448 O 0.45238 0.40154 0.24925 0.0
O1449 O 0.46877 0.39984 0.11792 0.0
O1450 O 0.58159 0.54377 0.12343 0.0
O1451 O 0.56901 0.54097 0.26421 0.0
H1452 H 0.46232 0.39886 0.27057 0.0
H1453 H 0.46289 0.38047 0.24834 0.0
H1454 H 0.44089 0.36948 0.24714 0.0
H1455 H 0.45116 0.36903 0.26567 0.0
H1456 H 0.4503 0.42375 0.23426 0.0
H1457 H 0.48383 0.40988 0.25185 0.0
H1458 H 0.48083 0.46513 0.22445 0.0
H1459 H 0.45941 0.44977 0.2231 0.0
H1460 H 0.47311 0.45132 0.20706 0.0
H1461 H 0.51197 0.42511 0.24662 0.0
H1462 H 0.51961 0.44677 0.2475 0.0
H1463 H 0.51718 0.4367 0.228 0.0
H1464 H 0.58525 0.53643 0.27742 0.0
H1465 H 0.61387 0.57584 0.25871 0.0
H1466 H 0.59578 0.56141 0.28998 0.0
H1467 H 0.58434 0.56649 0.27917 0.0
H1468 H 0.5753 0.51756 0.25461 0.0
H1469 H 0.54109 0.53417 0.25248 0.0
H1470 H 0.54916 0.47774 0.23988 0.0
H1471 H 0.57048 0.49324 0.2419 0.0
H1472 H 0.5599 0.48961 0.22248 0.0
H1473 H 0.51641 0.51996 0.23737 0.0
H1474 H 0.5077 0.4981 0.23744 0.0
H1475 H 0.51764 0.50922 0.2194 0.0
H1476 H 0.60535 0.55363 0.13314 0.0
H1477 H 0.58779 0.52242 0.13815 0.0
H1478 H 0.55108 0.53387 0.12552 0.0
H1479 H 0.5677 0.49427 0.16666 0.0
H1480 H 0.58134 0.4975 0.14992 0.0
H1481 H 0.56033 0.48102 0.14886 0.0
H1482 H 0.52371 0.51774 0.13367 0.0
H1483 H 0.52059 0.50598 0.15189 0.0
H1484 H 0.51708 0.49632 0.132 0.0
H1485 H 0.44902 0.39557 0.13207 0.0
H1486 H 0.43556 0.36549 0.12956 0.0
H1487 H 0.4557 0.375 0.13863 0.0
H1488 H 0.45257 0.36755 0.11768 0.0
H1489 H 0.4989 0.40957 0.12464 0.0
H1490 H 0.46248 0.42324 0.12656 0.0
H1491 H 0.52516 0.437 0.15459 0.0
H1492 H 0.53254 0.44755 0.13569 0.0
H1493 H 0.52518 0.42595 0.13632 0.0
H1494 H 0.46802 0.44878 0.13718 0.0
H1495 H 0.48918 0.46472 0.13934 0.0
H1496 H 0.47869 0.45224 0.15649 0.0
H1497 H 0.51394 0.47176 0.24453 0.0
H1498 H 0.54922 0.51143 0.20555 0.0
H1499 H 0.552 0.5117 0.1763 0.0
H1500 H 0.52542 0.47243 0.13209 0.0
H1501 H 0.49123 0.43232 0.17131 0.0
H1502 H 0.48833 0.43214 0.20049 0.0
H1503 H 0.61184 0.54834 0.08915 0.0
H1504 H 0.61411 0.57339 0.11378 0.0
H1505 H 0.59597 0.56539 0.10475 0.0
C1506 C 0.44612 0.97136 0.29766 0.0
C1507 C 0.44302 0.98252 0.28688 0.0
C1508 C 0.4527 0.98293 0.25918 0.0
C1509 C 0.46308 -0.00023 0.25717 0.0
C1510 C 0.47604 0.00565 0.24607 0.0
C1511 C 0.47853 0.99444 0.23676 0.0
C1512 C 0.4675 0.97746 0.23809 0.0
C1513 C 0.45457 0.97193 0.2492 0.0
C1514 C 0.48726 0.02383 0.24451 0.0
C1515 C 0.46967 0.96519 0.22813 0.0
C1516 C 0.59498 0.00367 0.25772 0.0
C1517 C 0.58837 0.009 0.24438 0.0
C1518 C 0.5665 0.01515 0.24551 0.0
C1519 C 0.55373 -0.00057 0.24103 0.0
C1520 C 0.53882 0.997 0.23509 0.0
C1521 C 0.53655 0.01051 0.2339 0.0
C1522 C 0.5489 0.02611 0.23964 0.0
C1523 C 0.56375 0.02821 0.24541 0.0
C1524 C 0.52568 0.9801 0.22952 0.0
C1525 C 0.54667 0.04067 0.23896 0.0
C1526 C 0.56748 0.03614 0.13251 0.0
C1527 C 0.558 0.01946 0.13582 0.0
C1528 C 0.54245 0.01303 0.14271 0.0
C1529 C 0.53656 0.02363 0.14676 0.0
C1530 C 0.54582 0.0403 0.1426 0.0
C1531 C 0.56109 0.04627 0.13524 0.0
C1532 C 0.53258 0.99503 0.1462 0.0
C1533 C 0.53987 0.05194 0.14646 0.0
C1534 C 0.41253 0.99597 0.14351 0.0
C1535 C 0.42504 0.00414 0.12989 0.0
C1536 C 0.44832 4e-05 0.13469 0.0
C1537 C 0.45154 0.98741 0.13664 0.0
C1538 C 0.46619 0.99033 0.14381 0.0
C1539 C 0.47796 0.00636 0.14902 0.0
C1540 C 0.4751 0.01934 0.14648 0.0
C1541 C 0.46033 0.01608 0.13926 0.0
C1542 C 0.46896 0.97624 0.14613 0.0
C1543 C 0.48763 0.03666 0.15151 0.0
C1544 C 0.49327 0.00042 0.22648 0.0
C1545 C 0.50763 0.00325 0.23417 0.0
C1546 C 0.52193 0.00855 0.22527 0.0
C1547 C 0.52204 0.01121 0.20823 0.0
C1548 C 0.53629 0.01668 0.19895 0.0
C1549 C 0.53625 0.01909 0.18218 0.0
C1550 C 0.52187 0.01578 0.17391 0.0
C1551 C 0.5216 0.01772 0.15674 0.0
C1552 C 0.50713 0.01444 0.14894 0.0
C1553 C 0.49287 0.00941 0.15791 0.0
C1554 C 0.49289 0.0074 0.17509 0.0
C1555 C 0.47876 0.00244 0.18448 0.0
C1556 C 0.47886 0.00025 0.20133 0.0
C1557 C 0.49309 0.00294 0.20944 0.0
C1558 C 0.50753 0.00826 0.20027 0.0
C1559 C 0.50743 0.01047 0.18307 0.0
C1560 C 0.60883 0.05635 0.13945 0.0
C1561 C 0.59476 0.04001 0.13284 0.0
O1562 O 0.44085 0.97697 0.27068 0.0
O1563 O 0.43373 0.99617 0.12787 0.0
O1564 O 0.58284 0.04278 0.12667 0.0
O1565 O 0.58164 0.01822 0.24961 0.0
H1566 H 0.45394 0.99497 0.28831 0.0
H1567 H 0.45762 0.97195 0.29387 0.0
H1568 H 0.436 0.95847 0.29641 0.0
H1569 H 0.44741 0.97535 0.31077 0.0
H1570 H 0.46111 0.00831 0.2643 0.0
H1571 H 0.44624 0.95896 0.25063 0.0
H1572 H 0.49962 0.02735 0.24913 0.0
H1573 H 0.48286 0.03093 0.25153 0.0
H1574 H 0.48842 0.0272 0.23138 0.0
H1575 H 0.46004 0.95241 0.23062 0.0
H1576 H 0.48177 0.96668 0.23096 0.0
H1577 H 0.4694 0.96741 0.21483 0.0
H1578 H 0.58176 0.00018 0.23405 0.0
H1579 H 0.58769 0.98989 0.25708 0.0
H1580 H 0.58921 0.00466 0.26949 0.0
H1581 H 0.62196 0.01771 0.25347 0.0
H1582 H 0.55545 0.98907 0.2419 0.0
H1583 H 0.57354 0.04023 0.24925 0.0
H1584 H 0.52302 0.98012 0.21624 0.0
H1585 H 0.51425 0.97649 0.2363 0.0
H1586 H 0.52923 0.97081 0.23151 0.0
H1587 H 0.55662 0.05153 0.24554 0.0
H1588 H 0.53479 0.03766 0.24443 0.0
H1589 H 0.54645 0.04382 0.22593 0.0
H1590 H 0.59006 0.03149 0.14333 0.0
H1591 H 0.5628 0.01153 0.13309 0.0
H1592 H 0.56845 0.05907 0.13228 0.0
H1593 H 0.53316 0.99321 0.15956 0.0
H1594 H 0.53727 0.98803 0.13946 0.0
H1595 H 0.51956 0.98999 0.14276 0.0
H1596 H 0.54905 0.06475 0.14347 0.0
H1597 H 0.53682 0.05144 0.15969 0.0
H1598 H 0.52856 0.04822 0.13926 0.0
H1599 H 0.4331 0.01717 0.13346 0.0
H1600 H 0.40539 0.00215 0.14532 0.0
H1601 H 0.4189 0.99684 0.15525 0.0
H1602 H 0.404 0.98287 0.1404 0.0
H1603 H 0.44233 0.97514 0.13278 0.0
H1604 H 0.45849 0.02618 0.13707 0.0
H1605 H 0.46933 0.97417 0.15946 0.0
H1606 H 0.48093 0.97919 0.14094 0.0
H1607 H 0.45921 0.96476 0.14021 0.0
H1608 H 0.48342 0.04536 0.14906 0.0
H1609 H 0.49909 0.04057 0.14468 0.0
H1610 H 0.49053 0.03729 0.16482 0.0
H1611 H 0.50763 0.00112 0.24723 0.0
H1612 H 0.54769 0.01921 0.20454 0.0
H1613 H 0.54766 0.02346 0.17578 0.0
H1614 H 0.50699 0.01596 0.13577 0.0
H1615 H 0.46744 0.00012 0.17891 0.0
H1616 H 0.46763 0.99635 0.20793 0.0
H1617 H 0.61476 0.06499 0.12926 0.0
H1618 H 0.61812 0.0547 0.14595 0.0
H1619 H 0.60407 0.06183 0.1484 0.0
C1620 C 0.53812 0.96922 0.71481 0.0
C1621 C 0.54824 0.98229 0.7279 0.0
C1622 C 0.53846 0.98018 0.75576 0.0
C1623 C 0.54493 0.99676 0.75974 0.0
C1624 C 0.53767 0.00164 0.77181 0.0
C1625 C 0.52354 0.98966 0.77986 0.0
C1626 C 0.5174 0.97289 0.77632 0.0
C1627 C 0.52517 0.96837 0.76448 0.0
C1628 C 0.54482 0.01959 0.77559 0.0
C1629 C 0.50228 0.95977 0.78454 0.0
C1630 C 0.44203 0.02538 0.73459 0.0
C1631 C 0.45623 0.02679 0.74353 0.0
C1632 C 0.46274 0.01513 0.76657 0.0
C1633 C 0.45645 0.00039 0.77472 0.0
C1634 C 0.46677 0.99649 0.78329 0.0
C1635 C 0.48373 0.00799 0.78428 0.0
C1636 C 0.49008 0.02321 0.77656 0.0
C1637 C 0.47955 0.02656 0.76763 0.0
C1638 C 0.45953 0.97998 0.79107 0.0
C1639 C 0.50801 0.03595 0.77769 0.0
C1640 C 0.46722 0.01775 0.88528 0.0
C1641 C 0.461 0.00121 0.88122 0.0
C1642 C 0.47129 0.99591 0.87496 0.0
C1643 C 0.48807 0.00738 0.87283 0.0
C1644 C 0.49456 0.02374 0.87831 0.0
C1645 C 0.48401 0.02869 0.88459 0.0
C1646 C 0.46408 0.97825 0.86975 0.0
C1647 C 0.51246 0.03619 0.87657 0.0
C1648 C 0.57097 0.95928 0.87236 0.0
C1649 C 0.57 0.97245 0.88251 0.0
C1650 C 0.54504 0.97377 0.88127 0.0
C1651 C 0.52846 0.96345 0.87771 0.0
C1652 C 0.519 0.96962 0.87141 0.0
C1653 C 0.52633 0.98658 0.86886 0.0
C1654 C 0.54286 0.99722 0.87343 0.0
C1655 C 0.55206 0.99071 0.87964 0.0
C1656 C 0.50132 0.95796 0.86697 0.0
C1657 C 0.55088 0.01541 0.87134 0.0
C1658 C 0.51442 0.99471 0.79091 0.0
C1659 C 0.50404 -0.00083 0.78357 0.0
C1660 C 0.49488 0.00394 0.79302 0.0
C1661 C 0.49614 0.00438 0.81035 0.0
C1662 C 0.48748 0.00957 0.82023 0.0
C1663 C 0.48825 0.00931 0.83726 0.0
C1664 C 0.49774 0.00387 0.8451 0.0
C1665 C 0.49808 0.00298 0.86242 0.0
C1666 C 0.50763 0.99754 0.86986 0.0
C1667 C 0.517 0.99298 0.86039 0.0
C1668 C 0.51688 0.9939 0.84303 0.0
C1669 C 0.52627 0.98959 0.83312 0.0
C1670 C 0.52574 0.99013 0.81606 0.0
C1671 C 0.5156 0.99475 0.80823 0.0
C1672 C 0.50631 -0.00051 0.81798 0.0
C1673 C 0.50704 -0.00084 0.83539 0.0
C1674 C 0.44146 0.03178 0.87499 0.0
C1675 C 0.44166 0.01812 0.88436 0.0
O1676 O 0.5445 0.9753 0.74326 0.0
O1677 O 0.55383 0.96697 0.88624 0.0
O1678 O 0.45747 0.02365 0.88985 0.0
O1679 O 0.45228 0.01792 0.75784 0.0
H1680 H 0.54464 0.99171 0.72697 0.0
H1681 H 0.52492 0.96435 0.71696 0.0
H1682 H 0.54042 0.95891 0.71526 0.0
H1683 H 0.54111 0.97453 0.70236 0.0
H1684 H 0.55555 0.00588 0.75327 0.0
H1685 H 0.52042 0.9556 0.76141 0.0
H1686 H 0.53667 0.0236 0.77046 0.0
H1687 H 0.55714 0.02714 0.77024 0.0
H1688 H 0.54567 0.02188 0.78909 0.0
H1689 H 0.49849 0.94737 0.77963 0.0
H1690 H 0.49203 0.96203 0.78282 0.0
H1691 H 0.50457 0.96011 0.79795 0.0
H1692 H 0.46696 0.03941 0.7446 0.0
H1693 H 0.44063 0.01154 0.7115 0.0
H1694 H 0.44416 0.03818 0.73462 0.0
H1695 H 0.43158 0.02068 0.74354 0.0
H1696 H 0.44345 0.9917 0.77391 0.0
H1697 H 0.48453 0.0382 0.76172 0.0
H1698 H 0.46001 0.9815 0.80464 0.0
H1699 H 0.46673 0.97415 0.78774 0.0
H1700 H 0.44662 0.97166 0.78725 0.0
H1701 H 0.5106 0.04798 0.77319 0.0
H1702 H 0.51502 0.03185 0.77016 0.0
H1703 H 0.51245 0.03751 0.79059 0.0
H1704 H 0.43735 0.00757 0.87561 0.0
H1705 H 0.44814 0.99247 0.88268 0.0
H1706 H 0.48873 0.04133 0.88821 0.0
H1707 H 0.46379 0.97728 0.85612 0.0
H1708 H 0.45145 0.97046 0.8743 0.0
H1709 H 0.4718 0.97349 0.87435 0.0
H1710 H 0.51585 0.04801 0.88275 0.0
H1711 H 0.51545 0.03835 0.86332 0.0
H1712 H 0.51997 0.03147 0.88184 0.0
H1713 H 0.57512 0.9833 0.87452 0.0
H1714 H 0.58391 0.9632 0.86976 0.0
H1715 H 0.56445 0.95727 0.86044 0.0
H1716 H 0.5652 0.9475 0.87885 0.0
H1717 H 0.52307 0.95044 0.87935 0.0
H1718 H 0.5647 -0.00115 0.88316 0.0
H1719 H 0.49947 0.95829 0.85354 0.0
H1720 H 0.49348 0.96182 0.87334 0.0
H1721 H 0.49726 0.9452 0.87032 0.0
H1722 H 0.56355 0.02214 0.87636 0.0
H1723 H 0.5436 0.02 0.87762 0.0
H1724 H 0.5512 0.01809 0.85808 0.0
H1725 H 0.50297 -0.00119 0.77026 0.0
H1726 H 0.4799 0.01379 0.8149 0.0
H1727 H 0.48117 0.01333 0.84416 0.0
H1728 H 0.50765 0.99669 0.88314 0.0
H1729 H 0.53413 0.9857 0.83843 0.0
H1730 H 0.53322 0.98669 0.80905 0.0
H1731 H 0.44558 0.04276 0.88307 0.0
H1732 H 0.42895 0.02766 0.8703 0.0
H1733 H 0.44977 0.03521 0.86432 0.0
C1734 C 0.01978 0.56344 0.7228 0.0
C1735 C 0.0069 0.56149 0.73524 0.0
C1736 C 0.00897 0.55265 0.76249 0.0
C1737 C 0.99249 0.54144 0.76555 0.0
C1738 C 0.98806 0.52883 0.7767 0.0
C1739 C 0.0004 0.52739 0.78482 0.0
C1740 C 0.01705 0.53916 0.78225 0.0
C1741 C 0.02108 0.55185 0.77133 0.0
C1742 C 0.97021 0.51675 0.77942 0.0
C1743 C 0.03061 0.538 0.79051 0.0
C1744 C 0.99676 0.41606 0.74366 0.0
C1745 C 0.00147 0.43211 0.75116 0.0
C1746 C 0.98893 0.44619 0.76431 0.0
C1747 C 0.00357 0.45866 0.77142 0.0
C1748 C 0.00382 0.47113 0.78105 0.0
C1749 C 0.98913 0.47113 0.78365 0.0
C1750 C 0.97436 0.4586 0.77657 0.0
C1751 C 0.97446 0.44625 0.76697 0.0
C1752 C 0.01984 0.48436 0.78837 0.0
C1753 C 0.95852 0.45827 0.77922 0.0
C1754 C 0.98496 0.43998 0.88274 0.0
C1755 C 0.00075 0.45186 0.87797 0.0
C1756 C 0.00392 0.46706 0.87239 0.0
C1757 C 0.99111 0.4705 0.87182 0.0
C1758 C 0.97551 0.45899 0.87774 0.0
C1759 C 0.97268 0.44388 0.88319 0.0
C1760 C 0.02078 0.47918 0.86644 0.0
C1761 C 0.96165 0.46233 0.87751 0.0
C1762 C 0.04923 0.60274 0.88135 0.0
C1763 C 0.03284 0.58966 0.88826 0.0
C1764 C 0.0262 0.56132 0.88733 0.0
C1765 C 0.03476 0.55338 0.88381 0.0
C1766 C 0.0269 0.53772 0.87654 0.0
C1767 C 0.00988 0.52958 0.87335 0.0
C1768 C 0.00092 0.53713 0.87809 0.0
C1769 C 0.00924 0.55307 0.88482 0.0
C1770 C 0.03691 0.53005 0.87199 0.0
C1771 C 0.98266 0.52852 0.87564 0.0
C1772 C 0.99596 0.51267 0.79448 0.0
C1773 C 0.99249 0.49851 0.78566 0.0
C1774 C 0.9895 0.48445 0.79369 0.0
C1775 C 0.98927 0.48417 0.81102 0.0
C1776 C 0.98577 0.47002 0.81942 0.0
C1777 C 0.98664 0.47014 0.83646 0.0
C1778 C 0.99135 0.48451 0.84576 0.0
C1779 C 0.99343 0.48503 0.86301 0.0
C1780 C -0.00136 0.49964 0.87184 0.0
C1781 C 0.00191 0.51389 0.86383 0.0
C1782 C -0.00052 0.51346 0.84661 0.0
C1783 C 0.00247 0.52747 0.83813 0.0
C1784 C 0.00068 0.52708 0.82112 0.0
C1785 C 0.99649 0.51286 0.81186 0.0
C1786 C 0.99315 0.49854 0.82015 0.0
C1787 C 0.99442 0.49877 0.83755 0.0
C1788 C 0.97604 0.39997 0.87457 0.0
C1789 C 0.98876 0.41619 0.8827 0.0
O1790 O 0.01355 0.56422 0.75095 0.0
O1791 O 0.03463 0.57685 0.89338 0.0
O1792 O 0.98098 0.42468 0.88705 0.0
O1793 O 0.98829 0.43396 0.75487 0.0
H1794 H 0.99641 0.54877 0.73369 0.0
H1795 H 0.02355 0.55438 0.7252 0.0
H1796 H 0.03075 0.57588 0.72377 0.0
H1797 H 0.01473 0.56129 0.71009 0.0
H1798 H 0.98311 0.54248 0.75912 0.0
H1799 H 0.03376 0.56077 0.76902 0.0
H1800 H 0.96694 0.50488 0.77342 0.0
H1801 H 0.96222 0.52094 0.77425 0.0
H1802 H 0.96776 0.51462 0.79276 0.0
H1803 H 0.04282 0.547 0.78571 0.0
H1804 H 0.0287 0.52556 0.78872 0.0
H1805 H 0.03058 0.54028 0.80392 0.0
H1806 H 0.01177 0.44286 0.74516 0.0
H1807 H 0.00237 0.41875 0.73104 0.0
H1808 H 0.98384 0.41067 0.73888 0.0
H1809 H 0.00392 0.40415 0.76274 0.0
H1810 H 0.01487 0.45878 0.76951 0.0
H1811 H 0.96322 0.43656 0.76147 0.0
H1812 H 0.01899 0.4845 0.80197 0.0
H1813 H 0.02249 0.49646 0.78405 0.0
H1814 H 0.03021 0.48269 0.78502 0.0
H1815 H 0.948 0.4475 0.77313 0.0
H1816 H 0.95951 0.46955 0.77433 0.0
H1817 H 0.95612 0.45808 0.79259 0.0
H1818 H -0.00157 0.42282 0.87348 0.0
H1819 H 0.0106 0.44933 0.87843 0.0
H1820 H 0.96063 0.43477 0.88727 0.0
H1821 H 0.02033 0.48071 0.85299 0.0
H1822 H 0.02973 0.47526 0.86892 0.0
H1823 H 0.02514 0.49126 0.87249 0.0
H1824 H 0.95062 0.4527 0.88373 0.0
H1825 H 0.95837 0.46303 0.86458 0.0
H1826 H 0.96552 0.4743 0.88362 0.0
H1827 H 0.02358 0.5856 0.87817 0.0
H1828 H 0.04821 0.61275 0.8758 0.0
H1829 H 0.05319 0.59725 0.87157 0.0
H1830 H 0.05874 0.60793 0.8912 0.0
H1831 H 0.04781 0.55979 0.88617 0.0
H1832 H 0.00255 0.55908 0.88817 0.0
H1833 H 0.03434 0.52537 0.85908 0.0
H1834 H 0.03352 0.51956 0.88007 0.0
H1835 H 0.05023 0.53877 0.87343 0.0
H1836 H 0.97719 0.53471 0.88255 0.0
H1837 H 0.97685 0.51567 0.87963 0.0
H1838 H 0.9798 0.5283 0.86239 0.0
H1839 H 0.9929 0.49867 0.77233 0.0
H1840 H 0.98242 0.45871 0.81289 0.0
H1841 H 0.98391 0.45887 0.8422 0.0
H1842 H 0.00074 0.50008 0.88499 0.0
H1843 H 0.00629 0.53895 0.8445 0.0
H1844 H 0.00308 0.5382 0.81527 0.0
H1845 H 0.96626 0.39242 0.88339 0.0
H1846 H 0.98178 0.393 0.87011 0.0
H1847 H 0.9704 0.40234 0.86383 0.0
C1848 C 0.52901 0.58034 0.72553 0.0
C1849 C 0.54128 0.58849 0.7398 0.0
C1850 C 0.52637 0.56909 0.76183 0.0
C1851 C 0.5143 0.57325 0.7642 0.0
C1852 C 0.50098 0.56401 0.77448 0.0
C1853 C 0.49978 0.55045 0.7826 0.0
C1854 C 0.51217 0.54654 0.78062 0.0
C1855 C 0.52534 0.556 0.77031 0.0
C1856 C 0.48804 0.56856 0.7765 0.0
C1857 C 0.51131 0.53218 0.78912 0.0
C1858 C 0.38303 0.45295 0.76147 0.0
C1859 C 0.39702 0.45523 0.75036 0.0
C1860 C 0.4216 0.47264 0.76738 0.0
C1861 C 0.43385 0.47249 0.77661 0.0
C1862 C 0.44578 0.48653 0.78497 0.0
C1863 C 0.44532 0.50111 0.78417 0.0
C1864 C 0.433 0.50144 0.77478 0.0
C1865 C 0.42124 0.48719 0.76641 0.0
C1866 C 0.45887 0.48573 0.79467 0.0
C1867 C 0.43223 0.51683 0.77371 0.0
C1868 C 0.41487 0.48857 0.88972 0.0
C1869 C 0.42494 0.4833 0.88287 0.0
C1870 C 0.43911 0.49419 0.87439 0.0
C1871 C 0.44292 0.51051 0.87232 0.0
C1872 C 0.43292 0.51588 0.8796 0.0
C1873 C 0.41916 0.50486 0.88849 0.0
C1874 C 0.44991 0.48819 0.86759 0.0
C1875 C 0.4366 0.53318 0.8778 0.0
C1876 C 0.5578 0.61646 0.88139 0.0
C1877 C 0.55043 0.60728 0.89729 0.0
C1878 C 0.52914 0.57992 0.88735 0.0
C1879 C 0.52559 0.56391 0.88474 0.0
C1880 C 0.51112 0.55224 0.87678 0.0
C1881 C 0.49984 0.55672 0.87147 0.0
C1882 C 0.50308 0.57278 0.87449 0.0
C1883 C 0.51777 0.58428 0.88229 0.0
C1884 C 0.50804 0.53521 0.87374 0.0
C1885 C 0.49116 0.57785 0.86916 0.0
C1886 C 0.48522 0.53987 0.79256 0.0
C1887 C 0.47172 0.52702 0.78444 0.0
C1888 C 0.45791 0.51596 0.79309 0.0
C1889 C 0.45721 0.51803 0.81025 0.0
C1890 C 0.44318 0.50757 0.81919 0.0
C1891 C 0.44295 0.50912 0.83621 0.0
C1892 C 0.45688 0.52091 0.84496 0.0
C1893 C 0.45717 0.5219 0.86235 0.0
C1894 C 0.47126 0.53377 0.87061 0.0
C1895 C 0.4851 0.54484 0.86197 0.0
C1896 C 0.48503 0.54412 0.8446 0.0
C1897 C 0.49876 0.55511 0.83554 0.0
C1898 C 0.49873 0.554 0.81847 0.0
C1899 C 0.48508 0.54169 0.80983 0.0
C1900 C 0.47101 0.53068 0.8187 0.0
C1901 C 0.47093 0.53198 0.8361 0.0
C1902 C 0.37334 0.46327 0.8899 0.0
C1903 C 0.38916 0.46294 0.89205 0.0
O1904 O 0.53907 0.5771 0.75141 0.0
O1905 O 0.54369 0.59065 0.8946 0.0
O1906 O 0.40109 0.47824 0.89785 0.0
O1907 O 0.41045 0.45842 0.75981 0.0
H1908 H 0.53972 0.59826 0.74564 0.0
H1909 H 0.51631 0.57523 0.72988 0.0
H1910 H 0.53013 0.57026 0.71985 0.0
H1911 H 0.53122 0.58943 0.716 0.0
H1912 H 0.51508 0.58355 0.75797 0.0
H1913 H 0.53479 0.55298 0.76853 0.0
H1914 H 0.47626 0.55857 0.7714 0.0
H1915 H 0.49122 0.58003 0.77018 0.0
H1916 H 0.48622 0.57004 0.78976 0.0
H1917 H 0.5219 0.53072 0.7862 0.0
H1918 H 0.49992 0.5208 0.78538 0.0
H1919 H 0.51093 0.53374 0.80263 0.0
H1920 H 0.40035 0.46547 0.74188 0.0
H1921 H 0.37222 0.45038 0.75392 0.0
H1922 H 0.38674 0.46417 0.76897 0.0
H1923 H 0.3795 0.44266 0.76991 0.0
H1924 H 0.43402 0.46121 0.77724 0.0
H1925 H 0.41186 0.48754 0.75927 0.0
H1926 H 0.45734 0.48732 0.80797 0.0
H1927 H 0.47113 0.49579 0.79114 0.0
H1928 H 0.4584 0.47392 0.79274 0.0
H1929 H 0.42138 0.5149 0.76664 0.0
H1930 H 0.44341 0.52644 0.7677 0.0
H1931 H 0.43189 0.52142 0.78627 0.0
H1932 H 0.39244 0.46015 0.87976 0.0
H1933 H 0.4218 0.47075 0.88434 0.0
H1934 H 0.41137 0.5088 0.89409 0.0
H1935 H 0.44803 0.48629 0.85409 0.0
H1936 H 0.44712 0.47644 0.87302 0.0
H1937 H 0.46298 0.49736 0.86992 0.0
H1938 H 0.42665 0.53489 0.88263 0.0
H1939 H 0.43853 0.5366 0.86467 0.0
H1940 H 0.44804 0.54166 0.88461 0.0
H1941 H 0.54091 0.60986 0.90171 0.0
H1942 H 0.56345 0.62982 0.8836 0.0
H1943 H 0.54818 0.61263 0.87179 0.0
H1944 H 0.56725 0.61391 0.87669 0.0
H1945 H 0.53439 0.56065 0.88873 0.0
H1946 H 0.52025 0.59661 0.88421 0.0
H1947 H 0.50655 0.53231 0.86034 0.0
H1948 H 0.4965 0.52621 0.87973 0.0
H1949 H 0.51811 0.53371 0.87851 0.0
H1950 H 0.49478 0.59035 0.87365 0.0
H1951 H 0.47878 0.56913 0.87378 0.0
H1952 H 0.49039 0.57751 0.85554 0.0
H1953 H 0.47222 0.52524 0.77129 0.0
H1954 H 0.43224 0.49805 0.81312 0.0
H1955 H 0.4318 0.50073 0.84243 0.0
H1956 H 0.4715 0.53434 0.88395 0.0
H1957 H 0.50974 0.56465 0.84154 0.0
H1958 H 0.50965 0.56275 0.81215 0.0
H1959 H 0.36892 0.46494 0.902 0.0
H1960 H 0.36365 0.45183 0.88388 0.0
H1961 H 0.3756 0.47357 0.88196 0.0
C1962 C 0.61583 0.75656 0.62299 0.0
C1963 C 0.62023 0.74991 0.60775 0.0
C1964 C 0.62603 0.7709 0.58729 0.0
C1965 C 0.60971 0.76663 0.58451 0.0
C1966 C 0.60594 0.77595 0.57425 0.0
C1967 C 0.61869 0.78987 0.5667 0.0
C1968 C 0.63508 0.79406 0.56923 0.0
C1969 C 0.63851 0.78443 0.57942 0.0
C1970 C 0.58831 0.77108 0.57168 0.0
C1971 C 0.64898 0.80889 0.56143 0.0
C1972 C 0.5974 0.8624 0.63024 0.0
C1973 C 0.61037 0.86945 0.61689 0.0
C1974 C 0.60461 0.85618 0.59 0.0
C1975 C 0.62014 0.85935 0.5855 0.0
C1976 C 0.62192 0.84904 0.57423 0.0
C1977 C 0.60784 0.83513 0.56758 0.0
C1978 C 0.59214 0.83221 0.57178 0.0
C1979 C 0.59076 0.84302 0.58271 0.0
C1980 C 0.63886 0.8528 0.56976 0.0
C1981 C 0.57683 0.81737 0.56522 0.0
C1982 C 0.59061 0.85118 0.46586 0.0
C1983 C 0.60703 0.85596 0.46862 0.0
C1984 C 0.61121 0.84496 0.47494 0.0
C1985 C 0.59871 0.82894 0.47868 0.0
C1986 C 0.58226 0.82381 0.4749 0.0
C1987 C 0.57845 0.835 0.46835 0.0
C1988 C 0.62893 0.85062 0.47821 0.0
C1989 C 0.56866 0.80672 0.47844 0.0
C1990 C 0.60657 0.72457 0.46647 0.0
C1991 C 0.60861 0.73346 0.45034 0.0
C1992 C 0.61552 0.76087 0.46052 0.0
C1993 C 0.62843 0.77684 0.46314 0.0
C1994 C 0.62617 0.78846 0.47167 0.0
C1995 C 0.61052 0.78396 0.47767 0.0
C1996 C 0.59725 0.76795 0.47468 0.0
C1997 C 0.59988 0.75654 0.46615 0.0
C1998 C 0.64055 0.80546 0.47455 0.0
C1999 C 0.58037 0.76284 0.48076 0.0
C2000 C 0.61493 0.80059 0.55698 0.0
C2001 C 0.61304 0.81234 0.56557 0.0
C2002 C 0.60957 0.823 0.55739 0.0
C2003 C 0.60789 0.82194 0.54007 0.0
C2004 C 0.60453 0.83253 0.53141 0.0
C2005 C 0.60265 0.83121 0.5144 0.0
C2006 C 0.60438 0.81945 0.50534 0.0
C2007 C 0.60265 0.81813 0.48801 0.0
C2008 C 0.6046 0.80642 0.47936 0.0
C2009 C 0.60819 0.79585 0.48759 0.0
C2010 C 0.60982 0.79688 0.50493 0.0
C2011 C 0.6133 0.78636 0.51361 0.0
C2012 C 0.6149 0.78748 0.53066 0.0
C2013 C 0.6132 0.79925 0.53968 0.0
C2014 C 0.60966 0.80997 0.5312 0.0
C2015 C 0.60794 0.80876 0.51381 0.0
C2016 C 0.58166 0.88307 0.47053 0.0
C2017 C 0.59415 0.8784 0.46509 0.0
O2018 O 0.63035 0.76256 0.59755 0.0
O2019 O 0.61885 0.75016 0.4527 0.0
O2020 O 0.58605 0.86187 0.46109 0.0
O2021 O 0.60269 0.86545 0.60162 0.0
H2022 H 0.60884 0.74111 0.601 0.0
H2023 H 0.60894 0.76256 0.61939 0.0
H2024 H 0.62704 0.76567 0.62978 0.0
H2025 H 0.60803 0.74644 0.63132 0.0
H2026 H 0.59982 0.75618 0.59039 0.0
H2027 H 0.65104 0.78762 0.58156 0.0
H2028 H 0.58619 0.78056 0.57727 0.0
H2029 H 0.57973 0.75916 0.57724 0.0
H2030 H 0.58551 0.77032 0.55833 0.0
H2031 H 0.66108 0.81065 0.56485 0.0
H2032 H 0.64865 0.81997 0.56525 0.0
H2033 H 0.6476 0.80768 0.54785 0.0
H2034 H 0.61801 0.86374 0.61834 0.0
H2035 H 0.60325 0.86538 0.64263 0.0
H2036 H 0.59001 0.8489 0.62874 0.0
H2037 H 0.58909 0.86734 0.62941 0.0
H2038 H 0.63085 0.86983 0.59091 0.0
H2039 H 0.57883 0.84081 0.5862 0.0
H2040 H 0.63975 0.85152 0.55627 0.0
H2041 H 0.64139 0.84392 0.57573 0.0
H2042 H 0.64838 0.86531 0.57381 0.0
H2043 H 0.56562 0.81609 0.57085 0.0
H2044 H 0.57727 0.80615 0.56758 0.0
H2045 H 0.57598 0.81824 0.55172 0.0
H2046 H 0.60248 0.88115 0.47583 0.0
H2047 H 0.61656 0.86832 0.46604 0.0
H2048 H 0.56584 0.83136 0.46585 0.0
H2049 H 0.63123 0.85178 0.49168 0.0
H2050 H 0.63726 0.86262 0.47265 0.0
H2051 H 0.63189 0.84149 0.47329 0.0
H2052 H 0.55652 0.80455 0.47453 0.0
H2053 H 0.56838 0.80452 0.49182 0.0
H2054 H 0.57094 0.79771 0.47198 0.0
H2055 H 0.59647 0.73085 0.44582 0.0
H2056 H 0.59862 0.71117 0.46447 0.0
H2057 H 0.60079 0.72849 0.47591 0.0
H2058 H 0.61862 0.72724 0.4713 0.0
H2059 H 0.64042 0.78011 0.45867 0.0
H2060 H 0.58967 0.7443 0.46409 0.0
H2061 H 0.64264 0.80813 0.48796 0.0
H2062 H 0.63789 0.81453 0.46926 0.0
H2063 H 0.65192 0.80707 0.46898 0.0
H2064 H 0.57116 0.75019 0.47677 0.0
H2065 H 0.57655 0.77131 0.47617 0.0
H2066 H 0.58055 0.76362 0.4944 0.0
H2067 H 0.61432 0.81322 0.57887 0.0
H2068 H 0.60323 0.84191 0.53771 0.0
H2069 H 0.5999 0.8396 0.50846 0.0
H2070 H 0.60336 0.80556 0.46607 0.0
H2071 H 0.61481 0.7771 0.50733 0.0
H2072 H 0.61753 0.77903 0.53669 0.0
H2073 H 0.58787 0.89631 0.47373 0.0
H2074 H 0.57517 0.87609 0.48157 0.0
H2075 H 0.57248 0.88023 0.46065 0.0
C2076 C 0.11615 0.70784 0.59991 0.0
C2077 C 0.11577 0.72303 0.60566 0.0
C2078 C 0.13175 0.74669 0.58813 0.0
C2079 C 0.1299 0.75839 0.57996 0.0
C2080 C 0.14344 0.77259 0.57419 0.0
C2081 C 0.1592 0.77469 0.57593 0.0
C2082 C 0.16122 0.76302 0.5845 0.0
C2083 C 0.14743 0.74917 0.59071 0.0
C2084 C 0.14076 0.78506 0.56581 0.0
C2085 C 0.17784 0.76491 0.58654 0.0
C2086 C 0.26397 0.89753 0.6153 0.0
C2087 C 0.25624 0.88133 0.60699 0.0
C2088 C 0.22926 0.85999 0.59704 0.0
C2089 C 0.23386 0.84847 0.59308 0.0
C2090 C 0.22297 0.83379 0.58479 0.0
C2091 C 0.20726 0.83065 0.58027 0.0
C2092 C 0.20241 0.84196 0.58479 0.0
C2093 C 0.21348 0.85646 0.5932 0.0
C2094 C 0.22838 0.82182 0.58043 0.0
C2095 C 0.18572 0.83896 0.58026 0.0
C2096 C 0.23609 0.86172 0.47622 0.0
C2097 C 0.24003 0.84986 0.48028 0.0
C2098 C 0.22856 0.83544 0.48795 0.0
C2099 C 0.21295 0.83295 0.49168 0.0
C2100 C 0.20903 0.84495 0.48772 0.0
C2101 C 0.22072 0.85923 0.48008 0.0
C2102 C 0.23313 0.82292 0.49221 0.0
C2103 C 0.19253 0.84271 0.49164 0.0
C2104 C 0.11128 0.7081 0.4704 0.0
C2105 C 0.11562 0.72517 0.46506 0.0
C2106 C 0.14326 0.74831 0.46958 0.0
C2107 C 0.15908 0.75129 0.47198 0.0
C2108 C 0.17072 0.76506 0.48102 0.0
C2109 C 0.16643 0.77624 0.48753 0.0
C2110 C 0.15073 0.77379 0.48428 0.0
C2111 C 0.1393 0.75985 0.47531 0.0
C2112 C 0.18746 0.76748 0.48398 0.0
C2113 C 0.14594 0.78577 0.49053 0.0
C2114 C 0.17323 0.78847 0.56766 0.0
C2115 C 0.18406 0.80222 0.57711 0.0
C2116 C 0.1964 0.81623 0.5697 0.0
C2117 C 0.19788 0.81668 0.55239 0.0
C2118 C 0.20972 0.83081 0.5445 0.0
C2119 C 0.21084 0.83126 0.52746 0.0
C2120 C 0.20012 0.81761 0.51763 0.0
C2121 C 0.20092 0.81808 0.5003 0.0
C2122 C 0.18993 0.80442 0.49083 0.0
C2123 C 0.17812 0.79012 0.49826 0.0
C2124 C 0.17728 0.78934 0.51561 0.0
C2125 C 0.16574 0.77507 0.52351 0.0
C2126 C 0.16462 0.77464 0.54056 0.0
C2127 C 0.17493 0.78848 0.55038 0.0
C2128 C 0.18709 0.80275 0.54271 0.0
C2129 C 0.18822 0.8032 0.52531 0.0
C2130 C 0.26497 0.88999 0.44674 0.0
C2131 C 0.26101 0.87896 0.46075 0.0
O2132 O 0.11801 0.73281 0.59239 0.0
O2133 O 0.13217 0.73422 0.46172 0.0
O2134 O 0.24661 0.87559 0.46834 0.0
O2135 O 0.23963 0.87466 0.60433 0.0
H2136 H 0.12557 0.72986 0.61506 0.0
H2137 H 0.12807 0.71143 0.5942 0.0
H2138 H 0.1063 0.70068 0.5907 0.0
H2139 H 0.11452 0.69999 0.61052 0.0
H2140 H 0.11771 0.75632 0.5781 0.0
H2141 H 0.14889 0.74005 0.59694 0.0
H2142 H 0.15037 0.79765 0.56952 0.0
H2143 H 0.12863 0.78343 0.5687 0.0
H2144 H 0.14142 0.78375 0.55229 0.0
H2145 H 0.17727 0.75436 0.5928 0.0
H2146 H 0.18588 0.77619 0.59386 0.0
H2147 H 0.18354 0.7662 0.57433 0.0
H2148 H 0.26297 0.88031 0.59626 0.0
H2149 H 0.27129 0.89316 0.63996 0.0
H2150 H 0.25542 0.90236 0.61365 0.0
H2151 H 0.27328 0.90627 0.60638 0.0
H2152 H 0.24595 0.85093 0.59629 0.0
H2153 H 0.21 0.86534 0.59647 0.0
H2154 H 0.21901 0.80936 0.58422 0.0
H2155 H 0.24024 0.82517 0.58632 0.0
H2156 H 0.22968 0.82142 0.56689 0.0
H2157 H 0.18385 0.84901 0.58463 0.0
H2158 H 0.17617 0.82737 0.58566 0.0
H2159 H 0.18403 0.83765 0.5667 0.0
H2160 H 0.2712 0.88178 0.46943 0.0
H2161 H 0.25201 0.85181 0.47756 0.0
H2162 H 0.21785 0.8685 0.47691 0.0
H2163 H 0.23239 0.82123 0.50571 0.0
H2164 H 0.24564 0.82651 0.48818 0.0
H2165 H 0.22432 0.81097 0.48634 0.0
H2166 H 0.19129 0.85307 0.48746 0.0
H2167 H 0.19055 0.84152 0.50511 0.0
H2168 H 0.18278 0.83127 0.48568 0.0
H2169 H 0.11248 0.73051 0.47573 0.0
H2170 H 0.09792 0.70036 0.47235 0.0
H2171 H 0.11766 0.70905 0.48217 0.0
H2172 H 0.11512 0.70207 0.46111 0.0
H2173 H 0.16212 0.74248 0.46721 0.0
H2174 H 0.12731 0.75802 0.4728 0.0
H2175 H 0.18992 0.76816 0.4974 0.0
H2176 H 0.19685 0.77923 0.47872 0.0
H2177 H 0.18876 0.75747 0.47841 0.0
H2178 H 0.13392 0.78303 0.48555 0.0
H2179 H 0.15534 0.79838 0.48718 0.0
H2180 H 0.14527 0.7854 0.50415 0.0
H2181 H 0.18263 0.80218 0.59034 0.0
H2182 H 0.21821 0.84175 0.55138 0.0
H2183 H 0.22015 0.8425 0.5221 0.0
H2184 H 0.19048 0.80498 0.47753 0.0
H2185 H 0.15737 0.7641 0.51661 0.0
H2186 H 0.15545 0.76332 0.54593 0.0
H2187 H 0.27695 0.90131 0.45019 0.0
H2188 H 0.2576 0.89619 0.44825 0.0
H2189 H 0.26256 0.87432 0.42476 0.0
C2190 C 0.14827 0.38907 0.63224 0.0
C2191 C 0.13663 0.38482 0.61752 0.0
C2192 C 0.151 0.37881 0.59582 0.0
C2193 C 0.16339 0.39507 0.59324 0.0
C2194 C 0.17641 0.39864 0.58268 0.0
C2195 C 0.17713 0.38575 0.57462 0.0
C2196 C 0.16453 0.36942 0.57691 0.0
C2197 C 0.15156 0.3662 0.5874 0.0
C2198 C 0.18958 0.41621 0.58036 0.0
C2199 C 0.16497 0.35535 0.5686 0.0
C2200 C 0.27509 0.40792 0.63696 0.0
C2201 C 0.26606 0.39543 0.62305 0.0
C2202 C 0.25814 0.40083 0.59668 0.0
C2203 C 0.24527 0.38507 0.59268 0.0
C2204 C 0.23296 0.38271 0.58157 0.0
C2205 C 0.2334 0.39644 0.5746 0.0
C2206 C 0.24668 0.41232 0.57825 0.0
C2207 C 0.25909 0.41426 0.58901 0.0
C2208 C 0.21925 0.36557 0.57764 0.0
C2209 C 0.24745 0.42729 0.57131 0.0
C2210 C 0.26409 0.40638 0.47128 0.0
C2211 C 0.25143 0.39035 0.47409 0.0
C2212 C 0.23675 0.38736 0.4812 0.0
C2213 C 0.23474 0.40067 0.48555 0.0
C2214 C 0.24707 0.41675 0.48177 0.0
C2215 C 0.26157 0.41937 0.47453 0.0
C2216 C 0.2236 0.37002 0.48456 0.0
C2217 C 0.24517 0.43118 0.48595 0.0
C2218 C 0.12445 0.39797 0.47228 0.0
C2219 C 0.13064 0.39267 0.4574 0.0
C2220 C 0.14993 0.38547 0.46944 0.0
C2221 C 0.15197 0.37236 0.47307 0.0
C2222 C 0.16607 0.37478 0.4811 0.0
C2223 C 0.17843 0.39079 0.48567 0.0
C2224 C 0.17665 0.40421 0.48174 0.0
C2225 C 0.16241 0.40144 0.47363 0.0
C2226 C 0.16762 0.36019 0.48499 0.0
C2227 C 0.18968 0.42144 0.48642 0.0
C2228 C 0.1916 0.38927 0.56469 0.0
C2229 C 0.20534 0.39131 0.57306 0.0
C2230 C 0.21934 0.39425 0.56464 0.0
C2231 C 0.21969 0.39509 0.54731 0.0
C2232 C 0.2334 0.3976 0.53841 0.0
C2233 C 0.2337 0.39863 0.52137 0.0
C2234 C 0.22021 0.39699 0.51255 0.0
C2235 C 0.22036 0.39791 0.49521 0.0
C2236 C 0.2067 0.39608 0.48681 0.0
C2237 C 0.19279 0.39335 0.49531 0.0
C2238 C 0.19245 0.39252 0.51265 0.0
C2239 C 0.17867 0.38987 0.52157 0.0
C2240 C 0.17837 0.38885 0.53862 0.0
C2241 C 0.19183 0.39045 0.5474 0.0
C2242 C 0.20592 0.3933 0.53868 0.0
C2243 C 0.2062 0.3943 0.52128 0.0
C2244 C 0.30362 0.41277 0.4761 0.0
C2245 C 0.28653 0.40105 0.4691 0.0
O2246 O 0.13846 0.37468 0.60639 0.0
O2247 O 0.13565 0.382 0.46213 0.0
O2248 O 0.2789 0.40978 0.46566 0.0
O2249 O 0.26952 0.40345 0.60826 0.0
H2250 H 0.13927 0.39624 0.61139 0.0
H2251 H 0.16116 0.39587 0.6282 0.0
H2252 H 0.14606 0.37779 0.63836 0.0
H2253 H 0.14651 0.39689 0.6413 0.0
H2254 H 0.16316 0.40505 0.5995 0.0
H2255 H 0.14194 0.35372 0.58937 0.0
H2256 H 0.2012 0.41835 0.58586 0.0
H2257 H 0.18647 0.42491 0.58618 0.0
H2258 H 0.19167 0.41881 0.56705 0.0
H2259 H 0.15441 0.34333 0.57196 0.0
H2260 H 0.17642 0.35568 0.57202 0.0
H2261 H 0.16492 0.35653 0.55505 0.0
H2262 H 0.25279 0.3897 0.62579 0.0
H2263 H 0.27257 0.40172 0.64895 0.0
H2264 H 0.27084 0.41682 0.63757 0.0
H2265 H 0.28847 0.41474 0.63488 0.0
H2266 H 0.24479 0.37463 0.59832 0.0
H2267 H 0.26919 0.42635 0.59211 0.0
H2268 H 0.21671 0.3639 0.5642 0.0
H2269 H 0.20798 0.36346 0.58386 0.0
H2270 H 0.22208 0.35623 0.5818 0.0
H2271 H 0.25775 0.43878 0.57662 0.0
H2272 H 0.23587 0.42708 0.57373 0.0
H2273 H 0.24897 0.42734 0.55779 0.0
H2274 H 0.27997 0.39205 0.4789 0.0
H2275 H 0.25303 0.38017 0.47087 0.0
H2276 H 0.27129 0.43167 0.47199 0.0
H2277 H 0.22227 0.36825 0.49804 0.0
H2278 H 0.22638 0.36095 0.47909 0.0
H2279 H 0.2117 0.36762 0.47959 0.0
H2280 H 0.25569 0.44287 0.4818 0.0
H2281 H 0.24396 0.432 0.49946 0.0
H2282 H 0.23383 0.42948 0.48014 0.0
H2283 H 0.14098 0.4036 0.45174 0.0
H2284 H 0.12023 0.40635 0.46842 0.0
H2285 H 0.11417 0.38719 0.47817 0.0
H2286 H 0.13436 0.40452 0.48156 0.0
H2287 H 0.1423 0.3601 0.46972 0.0
H2288 H 0.16108 0.41176 0.47085 0.0
H2289 H 0.16801 0.35912 0.49853 0.0
H2290 H 0.17923 0.36189 0.48002 0.0
H2291 H 0.15731 0.34862 0.47983 0.0
H2292 H 0.18665 0.43062 0.48221 0.0
H2293 H 0.20151 0.42422 0.48101 0.0
H2294 H 0.19132 0.42261 0.49999 0.0
H2295 H 0.20511 0.39055 0.58636 0.0
H2296 H 0.24408 0.39883 0.54453 0.0
H2297 H 0.24464 0.40068 0.51521 0.0
H2298 H 0.20684 0.39664 0.4735 0.0
H2299 H 0.16794 0.38853 0.51548 0.0
H2300 H 0.16745 0.38679 0.54484 0.0
H2301 H 0.31095 0.42272 0.46743 0.0
H2302 H 0.31009 0.40608 0.47866 0.0
H2303 H 0.30263 0.41838 0.48781 0.0
H2304 H 0.98138 0.34958 0.05573 0.0
H2305 H 0.02657 0.4369 0.10204 0.0
H2306 H 0.027 0.39094 0.04054 0.0
H2307 H 0.98142 0.39617 0.1189 0.0
H2308 H 0.02628 0.42011 0.07892 0.0
H2309 H 0.98048 0.36629 0.07858 0.0
C2310 C 0.99118 0.36214 0.0572 0.0
C2311 C 0.00431 0.36886 0.04627 0.0
C2312 C 0.01637 0.41481 0.0876 0.0
C2313 C 0.00336 0.38798 0.07223 0.0
C2314 C 0.01652 0.42443 0.10076 0.0
C2315 C 0.00385 0.41797 0.11221 0.0
C2316 C 0.00356 0.39853 0.08594 0.0
C2317 C 0.99129 0.40164 0.11019 0.0
C2318 C 0.99066 0.37167 0.07022 0.0
C2319 C 0.01667 0.38522 0.04869 0.0
N2320 N 0.99143 0.39246 0.09727 0.0
N2321 N 0.01588 0.39418 0.06139 0.0
H2322 H 0.60355 0.59825 0.04444 0.0
H2323 H 0.63252 0.55541 0.11942 0.0
H2324 H 0.65413 0.61603 0.05645 0.0
H2325 H 0.57555 0.52984 0.09209 0.0
H2326 H 0.6431 0.57991 0.09447 0.0
H2327 H 0.59559 0.57503 0.06203 0.0
C2328 C 0.613 0.59725 0.05076 0.0
C2329 C 0.62953 0.60912 0.04901 0.0
C2330 C 0.63062 0.56985 0.09461 0.0
C2331 C 0.62045 0.58256 0.06923 0.0
C2332 C 0.62453 0.55429 0.1094 0.0
C2333 C 0.6019 0.54103 0.11016 0.0
C2334 C 0.61575 0.56906 0.08055 0.0
C2335 C 0.58857 0.53837 0.09229 0.0
C2336 C 0.60844 0.58393 0.06075 0.0
C2337 C 0.64125 0.60712 0.05743 0.0
N2338 N 0.59685 0.55383 0.08013 0.0
N2339 N 0.63646 0.59412 0.06736 0.0
H2340 H 0.37183 0.01832 0.05106 0.0
H2341 H 0.4125 0.97959 0.10611 0.0
H2342 H 0.37484 0.97601 0.03691 0.0
H2343 H 0.41733 0.02622 0.11793 0.0
H2344 H 0.39817 0.97815 0.08082 0.0
H2345 H 0.38816 0.02168 0.07575 0.0
C2346 C 0.37594 0.00978 0.0531 0.0
C2347 C 0.3718 0.99677 0.04197 0.0
C2348 C 0.40245 0.98879 0.08885 0.0
C2349 C 0.3904 0.00051 0.07008 0.0
C2350 C 0.41069 0.98963 0.10329 0.0
C2351 C 0.41647 0.00325 0.11394 0.0
C2352 C 0.3996 0.00147 0.08515 0.0
C2353 C 0.41333 0.01566 0.10986 0.0
C2354 C 0.38526 0.01171 0.06717 0.0
C2355 C 0.37754 0.98612 0.04519 0.0
N2356 N 0.40508 0.01448 0.09577 0.0
N2357 N 0.38646 0.9882 0.05895 0.0
H2358 H 0.35513 0.98232 0.94499 0.0
H2359 H 0.44813 0.03114 0.9159 0.0
H2360 H 0.39561 0.01877 0.97428 0.0
H2361 H 0.40901 0.9949 0.88517 0.0
H2362 H 0.42893 0.02483 0.93819 0.0
H2363 H 0.37446 0.98488 0.92357 0.0
C2364 C 0.36806 0.99076 0.94695 0.0
C2365 C 0.37377 0.00047 0.96134 0.0
C2366 C 0.4245 0.0181 0.92665 0.0
C2367 C 0.39584 0.00342 0.93706 0.0
C2368 C 0.43552 0.02165 0.91394 0.0
C2369 C 0.4302 0.0133 0.89876 0.0
C2370 C 0.40793 0.00634 0.92412 0.0
C2371 C 0.41361 0.00142 0.89679 0.0
C2372 C 0.37907 0.99222 0.93475 0.0
C2373 C 0.39063 0.01117 0.96331 0.0
N2374 N 0.40302 0.99832 0.90931 0.0
N2375 N 0.40102 0.01239 0.9513 0.0
H2376 H 0.01822 0.36565 0.94801 0.0
H2377 H 0.98522 0.42145 0.9159 0.0
H2378 H 0.00279 0.39224 0.97925 0.0
H2379 H 0.0091 0.40366 0.88373 0.0
H2380 H 0.99471 0.41325 0.93939 0.0
H2381 H 0.01851 0.3818 0.92459 0.0
C2382 C 0.01536 0.3752 0.95001 0.0
C2383 C 0.0102 0.37748 0.96545 0.0
C2384 C -0.00192 0.41127 0.92722 0.0
C2385 C 0.01029 0.39571 0.93892 0.0
C2386 C 0.99262 0.41597 0.91371 0.0
C2387 C 0.9962 0.41308 0.8977 0.0
C2388 C 0.00688 0.40324 0.92483 0.0
C2389 C 0.00592 0.40595 0.89586 0.0
C2390 C 0.01543 0.38433 0.93666 0.0
C2391 C 0.00654 0.38991 0.96744 0.0
N2392 N 0.01069 0.401 0.90924 0.0
N2393 N 0.00644 0.39839 0.95431 0.0
H2394 H 0.61629 0.65772 0.97969 0.0
H2395 H 0.57312 0.59786 0.90205 0.0
H2396 H 0.62588 0.61972 0.96465 0.0
H2397 H 0.55797 0.63033 0.92182 0.0
H2398 H 0.59403 0.60722 0.92365 0.0
H2399 H 0.5963 0.64929 0.95731 0.0
C2400 C 0.61421 0.64762 0.97165 0.0
C2401 C 0.62272 0.63938 0.97405 0.0
C2402 C 0.5861 0.61225 0.92332 0.0
C2403 C 0.5999 0.6297 0.94842 0.0
C2404 C 0.57415 0.60689 0.91103 0.0
C2405 C 0.56354 0.61303 0.91044 0.0
C2406 C 0.58762 0.62403 0.93496 0.0
C2407 C 0.5657 0.62506 0.92207 0.0
C2408 C 0.60278 0.6428 0.9589 0.0
C2409 C 0.61956 0.62639 0.96327 0.0
N2410 N 0.57746 0.63012 0.9339 0.0
N2411 N 0.6084 0.62195 0.95092 0.0
H2412 H 0.98896 0.60297 0.97589 0.0
H2413 H 0.02642 0.61463 0.88743 0.0
H2414 H 0.01529 0.65083 0.95488 0.0
H2415 H 0.02656 0.58012 0.92104 0.0
H2416 H 0.01837 0.62629 0.91007 0.0
H2417 H -0.00124 0.59249 0.95381 0.0
C2418 C 0.99681 0.61127 0.9666 0.0
C2419 C 0.00133 0.62778 0.96716 0.0
C2420 C 0.02032 0.61625 0.91242 0.0
C2421 C 0.01232 0.6158 0.94181 0.0
C2422 C 0.02491 0.60959 0.89955 0.0
C2423 C 0.02753 0.59658 0.90231 0.0
C2424 C 0.01783 0.60952 0.92806 0.0
C2425 C 0.02491 0.59024 0.91823 0.0
C2426 C 0.00244 0.60529 0.95409 0.0
C2427 C 0.01161 0.63803 0.9549 0.0
N2428 N 0.0201 0.59671 0.93046 0.0
N2429 N 0.01662 0.63182 0.94255 0.0
H2430 H 0.3412 0.37843 0.95194 0.0
H2431 H 0.40523 0.46532 0.92178 0.0
H2432 H 0.39178 0.39937 0.96598 0.0
H2433 H 0.36799 0.42999 0.8886 0.0
H2434 H 0.39945 0.44327 0.94054 0.0
H2435 H 0.34933 0.3993 0.93103 0.0
C2436 C 0.35402 0.38743 0.95058 0.0
C2437 C 0.36586 0.38724 0.96064 0.0
C2438 C 0.39262 0.44043 0.9291 0.0
C2439 C 0.37515 0.41122 0.93708 0.0
C2440 C 0.39582 0.45299 0.91839 0.0
C2441 C 0.38674 0.44961 0.9037 0.0
C2442 C 0.38008 0.42447 0.92527 0.0
C2443 C 0.37495 0.43326 0.89997 0.0
C2444 C 0.35864 0.39924 0.93863 0.0
C2445 C 0.38232 0.39911 0.95837 0.0
N2446 N 0.37174 0.42135 0.91081 0.0
N2447 N 0.3865 0.41084 0.94696 0.0
H2448 H 0.61945 0.97009 0.97167 0.0
H2449 H 0.59541 0.00233 0.89281 0.0
H2450 H 0.63404 0.02063 0.96533 0.0
H2451 H 0.56716 0.9523 0.90797 0.0
H2452 H 0.61204 0.009 0.91784 0.0
H2453 H 0.6026 0.96295 0.94658 0.0
C2454 C 0.61915 0.97967 0.965 0.0
C2455 C 0.62811 0.99596 0.97065 0.0
C2456 C 0.60221 0.99655 0.91568 0.0
C2457 C 0.60903 0.98792 0.942 0.0
C2458 C 0.59274 0.99274 0.9014 0.0
C2459 C 0.58004 0.97669 0.89819 0.0
C2460 C 0.59905 0.98421 0.92681 0.0
C2461 C 0.57701 0.96477 0.90984 0.0
C2462 C 0.6095 0.97559 0.95075 0.0
C2463 C 0.62726 0.00789 0.96152 0.0
N2464 N 0.58653 0.96874 0.92357 0.0
N2465 N 0.61796 0.00364 0.94764 0.0
H2466 H 0.60938 0.99309 0.0465 0.0
H2467 H 0.61813 0.03147 0.13581 0.0
H2468 H 0.65639 0.02276 0.07012 0.0
H2469 H 0.58426 0.03102 0.10016 0.0
H2470 H 0.62909 0.02149 0.11436 0.0
H2471 H 0.59681 0.00044 0.06888 0.0
C2472 C 0.617 0.00103 0.05646 0.0
C2473 C 0.63393 0.00744 0.05649 0.0
C2474 C 0.61926 0.02362 0.11133 0.0
C2475 C 0.61967 0.01552 0.08206 0.0
C2476 C 0.61304 0.02937 0.1235 0.0
C2477 C 0.60065 0.0327 0.11973 0.0
C2478 C 0.61268 0.02064 0.09539 0.0
C2479 C 0.59408 0.02906 0.10366 0.0
C2480 C 0.60985 0.00524 0.06913 0.0
C2481 C 0.64331 0.0177 0.06962 0.0
N2482 N 0.60019 0.02323 0.09207 0.0
N2483 N 0.63603 0.02135 0.08197 0.0
H2484 H 0.01087 0.63121 0.05142 0.0
H2485 H 0.94417 0.56001 0.10665 0.0
H2486 H 0.95962 0.61549 0.04918 0.0
H2487 H 0.99547 0.58708 0.11915 0.0
H2488 H 0.94958 0.57783 0.08325 0.0
H2489 H 0.0054 0.61269 0.07411 0.0
C2490 C -0.00154 0.62383 0.05568 0.0
C2491 C 0.98568 0.62491 0.04844 0.0
C2492 C 0.95963 0.57988 0.09114 0.0
C2493 C 0.97934 0.60364 0.0743 0.0
C2494 C 0.95656 0.56974 0.10447 0.0
C2495 C 0.96936 0.57226 0.11499 0.0
C2496 C 0.97567 0.59245 0.08814 0.0
C2497 C 0.98524 0.58483 0.11144 0.0
C2498 C 0.99536 0.61331 0.06865 0.0
C2499 C 0.96984 0.61509 0.05447 0.0
N2500 N 0.98795 0.59446 0.09831 0.0
N2501 N 0.9671 0.6048 0.06702 0.0
H2502 H 0.38456 0.3944 0.05317 0.0
H2503 H 0.4517 0.3772 0.09063 0.0
H2504 H 0.39283 0.35684 0.03347 0.0
H2505 H 0.42971 0.39987 0.11845 0.0
H2506 H 0.43343 0.37306 0.06744 0.0
H2507 H 0.40432 0.39992 0.07509 0.0
C2508 C 0.39058 0.38735 0.05339 0.0
C2509 C 0.38697 0.37508 0.04147 0.0
C2510 C 0.43263 0.37894 0.07863 0.0
C2511 C 0.40972 0.38146 0.06654 0.0
C2512 C 0.44304 0.38131 0.09184 0.0
C2513 C 0.44201 0.38863 0.10658 0.0
C2514 C 0.42135 0.38422 0.08006 0.0
C2515 C 0.43079 0.39402 0.10738 0.0
C2516 C 0.40182 0.39048 0.06596 0.0
C2517 C 0.39516 0.36634 0.04245 0.0
N2518 N 0.42089 0.3917 0.09431 0.0
N2519 N 0.40619 0.36973 0.05476 0.0
H2520 H 0.62263 0.67759 0.37302 0.0
H2521 H 0.64093 0.74283 0.44565 0.0
H2522 H 0.67112 0.71566 0.38755 0.0
H2523 H 0.59257 0.70948 0.42659 0.0
H2524 H 0.65215 0.73205 0.42536 0.0
H2525 H 0.61128 0.68804 0.39356 0.0
C2526 C 0.63089 0.68811 0.38056 0.0
C2527 C 0.64785 0.69578 0.37856 0.0
C2528 C 0.63909 0.72715 0.42552 0.0
C2529 C 0.63496 0.7078 0.40207 0.0
C2530 C 0.6327 0.73335 0.43705 0.0
C2531 C 0.61583 0.72732 0.43751 0.0
C2532 C 0.62853 0.71463 0.4145 0.0
C2533 C 0.60567 0.71469 0.42641 0.0
C2534 C 0.62441 0.69409 0.39226 0.0
C2535 C 0.65798 0.70939 0.38865 0.0
N2536 N 0.61218 0.70878 0.41534 0.0
N2537 N 0.65137 0.71495 0.39997 0.0
H2538 H 0.31041 0.94061 0.38912 0.0
H2539 H 0.22943 0.86144 0.43929 0.0
H2540 H 0.26063 0.9302 0.38789 0.0
H2541 H 0.28993 0.87812 0.44601 0.0
H2542 H 0.24088 0.8871 0.41568 0.0
H2543 H 0.30194 0.91739 0.40717 0.0
C2544 C 0.29772 0.93346 0.39263 0.0
C2545 C 0.2862 0.93738 0.38699 0.0
C2546 C 0.24938 0.88449 0.42172 0.0
C2547 C 0.27652 0.91085 0.40745 0.0
C2548 C 0.24204 0.86805 0.43548 0.0
C2549 C 0.25893 0.86857 0.44746 0.0
C2550 C 0.27084 0.89686 0.41828 0.0
C2551 C 0.28018 0.87855 0.43966 0.0
C2552 C 0.29292 0.92023 0.40292 0.0
C2553 C 0.26994 0.92769 0.39196 0.0
N2554 N 0.28403 0.89289 0.4267 0.0
N2555 N 0.26558 0.91484 0.40188 0.0
H2556 H 0.06211 0.36822 0.37597 0.0
H2557 H 0.10561 0.36054 0.45633 0.0
H2558 H 0.05497 0.3224 0.39305 0.0
H2559 H 0.1244 0.40557 0.43026 0.0
H2560 H 0.08422 0.34678 0.43537 0.0
H2561 H 0.08241 0.38249 0.39789 0.0
C2562 C 0.06475 0.36115 0.38437 0.0
C2563 C 0.05687 0.34408 0.38265 0.0
C2564 C 0.09307 0.35965 0.43419 0.0
C2565 C 0.07996 0.36033 0.40776 0.0
C2566 C 0.10528 0.3675 0.44612 0.0
C2567 C 0.11709 0.38412 0.44474 0.0
C2568 C 0.09241 0.36852 0.42094 0.0
C2569 C 0.11575 0.39267 0.43155 0.0
C2570 C 0.07637 0.36932 0.39682 0.0
C2571 C 0.06081 0.33557 0.39385 0.0
N2572 N 0.10366 0.38476 0.42011 0.0
N2573 N 0.07204 0.34377 0.40596 0.0
H2574 H 0.02028 0.28973 0.29954 0.0
H2575 H 0.08589 0.31603 0.22777 0.0
H2576 H 0.06075 0.33884 0.29391 0.0
H2577 H 0.05308 0.26582 0.24025 0.0
H2578 H 0.07492 0.32471 0.25033 0.0
H2579 H 0.03037 0.28078 0.27629 0.0
C2580 C 0.03128 0.29862 0.29341 0.0
C2581 C 0.03972 0.31504 0.29868 0.0
C2582 C 0.07017 0.31179 0.24821 0.0
C2583 C 0.05125 0.30493 0.27208 0.0
C2584 C 0.07646 0.30685 0.23536 0.0
C2585 C 0.0707 0.2902 0.23246 0.0
C2586 C 0.05784 0.30001 0.25808 0.0
C2587 C 0.05809 0.27878 0.24234 0.0
C2588 C 0.03704 0.29351 0.28018 0.0
C2589 C 0.05389 0.32605 0.2903 0.0
N2590 N 0.05211 0.2839 0.25476 0.0
N2591 N 0.05918 0.32081 0.2774 0.0
H2592 H 0.70359 0.71666 0.29727 0.0
H2593 H 0.71021 0.80487 0.26143 0.0
H2594 H 0.66942 0.73277 0.30728 0.0
H2595 H 0.74313 0.77955 0.23857 0.0
H2596 H 0.69639 0.77811 0.28387 0.0
H2597 H 0.71899 0.74048 0.27967 0.0
C2598 C 0.69938 0.72521 0.29584 0.0
C2599 C 0.68515 0.72268 0.30369 0.0
C2600 C 0.7055 0.77936 0.27514 0.0
C2601 C 0.70269 0.7498 0.28388 0.0
C2602 C 0.7146 0.79642 0.26209 0.0
C2603 C 0.72653 0.79382 0.24546 0.0
C2604 C 0.71119 0.76416 0.27344 0.0
C2605 C 0.73537 0.78046 0.24772 0.0
C2606 C 0.70812 0.73872 0.28578 0.0
C2607 C 0.68022 0.73412 0.30138 0.0
N2608 N 0.7254 0.76597 0.26081 0.0
N2609 N 0.68901 0.74718 0.29175 0.0
H2610 H 0.28266 0.9452 0.2993 0.0
H2611 H 0.21741 0.96189 0.2563 0.0
H2612 H 0.2763 0.98546 0.31364 0.0
H2613 H 0.23372 0.93093 0.23495 0.0
H2614 H 0.23785 0.96986 0.27832 0.0
H2615 H 0.26337 0.93864 0.27661 0.0
C2616 C 0.27721 0.95267 0.29766 0.0
C2617 C 0.28107 0.96589 0.30835 0.0
C2618 C 0.23693 0.96132 0.26881 0.0
C2619 C 0.25897 0.95843 0.28246 0.0
C2620 C 0.22526 0.95675 0.25631 0.0
C2621 C 0.2236 0.94542 0.24407 0.0
C2622 C 0.24698 0.95451 0.26903 0.0
C2623 C 0.23433 0.9394 0.24438 0.0
C2624 C 0.26625 0.94895 0.28467 0.0
C2625 C 0.27367 0.97517 0.30565 0.0
N2626 N 0.24545 0.94389 0.25676 0.0
N2627 N 0.2629 0.97122 0.293 0.0
H2628 H 0.66285 0.93051 0.29829 0.0
H2629 H 0.74909 0.95799 0.25806 0.0
H2630 H 0.70685 0.97388 0.31525 0.0
H2631 H 0.70362 0.93268 0.23088 0.0
H2632 H 0.73433 0.95986 0.28196 0.0
H2633 H 0.67837 0.92695 0.27646 0.0
C2634 C 0.67582 0.93921 0.29756 0.0
C2635 C 0.68354 0.95259 0.3086 0.0
C2636 C 0.72764 0.95391 0.27074 0.0
C2637 C 0.70136 0.94847 0.28359 0.0
C2638 C 0.73603 0.95286 0.25711 0.0
C2639 C 0.72761 0.94551 0.24233 0.0
C2640 C 0.71068 0.94715 0.2697 0.0
C2641 C 0.71061 0.93864 0.24195 0.0
C2642 C 0.68464 0.93719 0.28502 0.0
C2643 C 0.70039 0.96346 0.30695 0.0
N2644 N 0.70271 0.93962 0.25542 0.0
N2645 N 0.70876 0.96115 0.29466 0.0
H2646 H 0.00624 0.71762 0.29381 0.0
H2647 H 0.06642 0.80328 0.25749 0.0
H2648 H 0.05707 0.74281 0.30818 0.0
H2649 H 0.03 0.7642 0.22664 0.0
H2650 H 0.06188 0.78334 0.27844 0.0
H2651 H 0.01301 0.73676 0.27135 0.0
C2652 C 0.01882 0.72722 0.29224 0.0
C2653 C 0.03113 0.7287 0.30283 0.0
C2654 C 0.05496 0.7792 0.26703 0.0
C2655 C 0.03886 0.75069 0.27744 0.0
C2656 C 0.05747 0.79056 0.25506 0.0
C2657 C 0.04828 0.78549 0.24033 0.0
C2658 C 0.04298 0.76276 0.26443 0.0
C2659 C 0.03706 0.76873 0.23792 0.0
C2660 C 0.02267 0.73804 0.2794 0.0
C2661 C 0.04726 0.74127 0.30022 0.0
N2662 N 0.03451 0.75801 0.24995 0.0
N2663 N 0.05065 0.75197 0.28788 0.0
H2664 H 0.27449 0.29419 0.3118 0.0
H2665 H 0.24293 0.301 0.22353 0.0
H2666 H 0.2834 0.33982 0.29222 0.0
H2667 H 0.21841 0.25652 0.25085 0.0
H2668 H 0.25967 0.31518 0.24783 0.0
H2669 H 0.25566 0.27968 0.2887 0.0
C2670 C 0.27246 0.30114 0.3027 0.0
C2671 C 0.28055 0.31825 0.30397 0.0
C2672 C 0.2506 0.30232 0.24853 0.0
C2673 C 0.25923 0.30178 0.27751 0.0
C2674 C 0.24107 0.29423 0.23466 0.0
C2675 C 0.22946 0.2775 0.23508 0.0
C2676 C 0.24866 0.2936 0.2629 0.0
C2677 C 0.22744 0.26935 0.24991 0.0
C2678 C 0.26169 0.29286 0.28958 0.0
C2679 C 0.27743 0.32663 0.29182 0.0
N2680 N 0.23709 0.27744 0.26319 0.0
N2681 N 0.26715 0.31833 0.27905 0.0
H2682 H 0.31967 0.37993 0.37827 0.0
H2683 H 0.27551 0.36838 0.4642 0.0
H2684 H 0.28444 0.33259 0.39659 0.0
H2685 H 0.29966 0.41419 0.43911 0.0
H2686 H 0.27896 0.35496 0.43986 0.0
H2687 H 0.31303 0.39277 0.40082 0.0
C2688 C 0.31048 0.37223 0.387 0.0
C2689 C 0.30264 0.35516 0.3856 0.0
C2690 C 0.2834 0.36793 0.43964 0.0
C2691 C 0.29506 0.36978 0.4115 0.0
C2692 C 0.28145 0.37558 0.45351 0.0
C2693 C 0.28745 0.39243 0.4537 0.0
C2694 C 0.29158 0.37724 0.42591 0.0
C2695 C 0.295 0.4012 0.43951 0.0
C2696 C 0.30666 0.37957 0.39984 0.0
C2697 C 0.29078 0.34579 0.39723 0.0
N2698 N 0.297 0.39353 0.42625 0.0
N2699 N 0.28745 0.35323 0.40978 0.0
H2700 H 0.6672 0.95119 0.40094 0.0
H2701 H 0.58349 0.87602 0.43316 0.0
H2702 H 0.62074 0.93203 0.37609 0.0
H2703 H 0.62614 0.90343 0.4641 0.0
H2704 H 0.59833 0.89379 0.41032 0.0
H2705 H 0.65359 0.93119 0.42259 0.0
C2706 C 0.65417 0.94273 0.4 0.0
C2707 C 0.64506 0.94332 0.38678 0.0
C2708 C 0.60448 0.89587 0.42208 0.0
C2709 C 0.62949 0.92043 0.41134 0.0
C2710 C 0.59604 0.8857 0.43506 0.0
C2711 C 0.60361 0.88831 0.45051 0.0
C2712 C 0.62064 0.90871 0.42453 0.0
C2713 C 0.61988 0.90103 0.45237 0.0
C2714 C 0.64642 0.93136 0.41236 0.0
C2715 C 0.62821 0.93208 0.38614 0.0
N2716 N 0.62786 0.9108 0.43954 0.0
N2717 N 0.62097 0.9211 0.39824 0.0
H2718 H 0.05228 0.73597 0.39586 0.0
H2719 H 0.11315 0.71062 0.43455 0.0
H2720 H 0.05628 0.69537 0.37735 0.0
H2721 H 0.09622 0.73857 0.46136 0.0
H2722 H 0.0957 0.7082 0.41128 0.0
H2723 H 0.07175 0.74033 0.41781 0.0
C2724 C 0.05728 0.728 0.39636 0.0
C2725 C 0.05255 0.71522 0.38478 0.0
C2726 C 0.09581 0.71486 0.42227 0.0
C2727 C 0.07489 0.72023 0.40982 0.0
C2728 C 0.10573 0.71621 0.43556 0.0
C2729 C 0.10578 0.72442 0.4501 0.0
C2730 C 0.08617 0.72209 0.42337 0.0
C2731 C 0.09631 0.73187 0.45051 0.0
C2732 C 0.06836 0.73049 0.40892 0.0
C2733 C 0.05948 0.70532 0.38605 0.0
N2734 N 0.08685 0.7305 0.43737 0.0
N2735 N 0.07031 0.70804 0.39833 0.0
H2736 H 0.34409 0.06102 0.71587 0.0
H2737 H 0.2625 0.04831 0.75797 0.0
H2738 H 0.29603 0.02011 0.7047 0.0
H2739 H 0.31083 0.08275 0.77637 0.0
H2740 H 0.27456 0.03921 0.73681 0.0
H2741 H 0.33211 0.07071 0.73654 0.0
C2742 C 0.33102 0.0541 0.71774 0.0
C2743 C 0.32105 0.03972 0.70859 0.0
C2744 C 0.28254 0.04883 0.74541 0.0
C2745 C 0.30727 0.05073 0.73214 0.0
C2746 C 0.27566 0.05406 0.75742 0.0
C2747 C 0.28569 0.06656 0.76867 0.0
C2748 C 0.29958 0.0561 0.74467 0.0
C2749 C 0.30267 0.07333 0.7677 0.0
C2750 C 0.3242 0.05961 0.72957 0.0
C2751 C 0.30419 0.03123 0.71153 0.0
N2752 N 0.30908 0.06808 0.75585 0.0
N2753 N 0.29783 0.03688 0.72302 0.0
H2754 H 0.93314 0.26708 0.70725 0.0
H2755 H 0.95947 0.21728 0.76411 0.0
H2756 H 0.9819 0.27476 0.70504 0.0
H2757 H 0.9242 0.23089 0.77807 0.0
H2758 H 0.96603 0.23439 0.73972 0.0
H2759 H 0.92727 0.24884 0.73007 0.0
C2760 C 0.9426 0.26483 0.71143 0.0
C2761 C 0.95812 0.27262 0.70427 0.0
C2762 C 0.95682 0.2335 0.74815 0.0
C2763 C 0.95139 0.25168 0.73052 0.0
C2764 C 0.95306 0.22377 0.76198 0.0
C2765 C 0.94097 0.22229 0.77291 0.0
C2766 C 0.9483 0.24165 0.74519 0.0
C2767 C 0.93328 0.23125 0.76981 0.0
C2768 C 0.93924 0.25447 0.72455 0.0
C2769 C 0.96981 0.2691 0.71025 0.0
N2770 N 0.93694 0.24037 0.75616 0.0
N2771 N 0.96622 0.25888 0.72309 0.0
H2772 H 0.71769 0.65678 0.7177 0.0
H2773 H 0.78705 0.74067 0.7583 0.0
H2774 H 0.72487 0.70336 0.7032 0.0
H2775 H 0.76828 0.69382 0.78072 0.0
H2776 H 0.76588 0.72763 0.73677 0.0
H2777 H 0.73794 0.67051 0.73951 0.0
C2778 C 0.72353 0.66992 0.71909 0.0
C2779 C 0.71957 0.67893 0.70857 0.0
C2780 C 0.76645 0.72023 0.7464 0.0
C2781 C 0.74291 0.69477 0.73359 0.0
C2782 C 0.77854 0.72764 0.75861 0.0
C2783 C 0.7797 0.71823 0.77103 0.0
C2784 C 0.75547 0.70331 0.74665 0.0
C2785 C 0.76811 0.70146 0.77114 0.0
C2786 C 0.73507 0.67775 0.73161 0.0
C2787 C 0.72752 0.69593 0.71106 0.0
N2788 N 0.75661 0.69454 0.75905 0.0
N2789 N 0.73891 0.70334 0.72327 0.0
H2790 H 0.67976 0.62628 0.62317 0.0
H2791 H 0.76937 0.63743 0.58473 0.0
H2792 H 0.72708 0.66974 0.62997 0.0
H2793 H 0.7113 0.59337 0.56583 0.0
H2794 H 0.75336 0.64961 0.60586 0.0
H2795 H 0.69205 0.61496 0.60478 0.0
C2796 C 0.69272 0.63346 0.62074 0.0
C2797 C 0.70244 0.64896 0.62811 0.0
C2798 C 0.74626 0.63895 0.59804 0.0
C2799 C 0.71652 0.63602 0.60733 0.0
C2800 C 0.75623 0.63099 0.58592 0.0
C2801 C 0.742 0.61527 0.57072 0.0
C2802 C 0.72448 0.62928 0.59709 0.0
C2803 C 0.71961 0.60319 0.57405 0.0
C2804 C 0.6997 0.627 0.61023 0.0
C2805 C 0.71915 0.65776 0.62451 0.0
N2806 N 0.71325 0.61261 0.58607 0.0
N2807 N 0.72571 0.65109 0.61447 0.0
H2808 H 0.32774 0.04106 0.60923 0.0
H2809 H 0.40396 0.1366 0.58449 0.0
H2810 H 0.37173 0.06711 0.63863 0.0
H2811 H 0.36669 0.09202 0.54202 0.0
H2812 H 0.39085 0.11069 0.60809 0.0
H2813 H 0.34112 0.06096 0.58738 0.0
C2814 C 0.34022 0.05095 0.61104 0.0
C2815 C 0.3487 0.05247 0.62568 0.0
C2816 C 0.38715 0.10809 0.5953 0.0
C2817 C 0.36379 0.0753 0.60107 0.0
C2818 C 0.39602 0.12396 0.58076 0.0
C2819 C 0.38474 0.11763 0.56075 0.0
C2820 C 0.37167 0.08801 0.58872 0.0
C2821 C 0.37248 0.09584 0.55401 0.0
C2822 C 0.34783 0.06221 0.59859 0.0
C2823 C 0.36485 0.06547 0.62745 0.0
N2824 N 0.36608 0.08345 0.5694 0.0
N2825 N 0.37182 0.07658 0.61536 0.0
H2826 H 0.95932 0.28251 0.61584 0.0
H2827 H 0.88719 0.29085 0.57582 0.0
H2828 H 0.94772 0.31915 0.63071 0.0
H2829 H 0.90209 0.25793 0.55679 0.0
H2830 H 0.90934 0.30126 0.59617 0.0
H2831 H 0.93844 0.27316 0.59415 0.0
C2832 C 0.95244 0.28863 0.61449 0.0
C2833 C 0.95521 0.30158 0.62512 0.0
C2834 C 0.90776 0.29173 0.58758 0.0
C2835 C 0.9313 0.29093 0.60044 0.0
C2836 C 0.89508 0.28575 0.57603 0.0
C2837 C 0.89256 0.27324 0.56491 0.0
C2838 C 0.91806 0.2852 0.58797 0.0
C2839 C 0.90339 0.26733 0.5654 0.0
C2840 C 0.94053 0.2833 0.60212 0.0
C2841 C 0.94597 0.30909 0.62282 0.0
N2842 N 0.9156 0.27328 0.57683 0.0
N2843 N 0.93439 0.30361 0.61079 0.0
H2844 H 0.32575 0.27413 0.61759 0.0
H2845 H 0.41424 0.29709 0.58632 0.0
H2846 H 0.37007 0.31154 0.64133 0.0
H2847 H 0.37211 0.27745 0.55418 0.0
H2848 H 0.39766 0.29815 0.60888 0.0
H2849 H 0.34217 0.27085 0.59643 0.0
C2850 C 0.33894 0.28158 0.61842 0.0
C2851 C 0.34656 0.29321 0.63119 0.0
C2852 C 0.39207 0.29358 0.59688 0.0
C2853 C 0.36536 0.28939 0.60711 0.0
C2854 C 0.40149 0.29297 0.58405 0.0
C2855 C 0.39456 0.28736 0.56834 0.0
C2856 C 0.37555 0.28826 0.59404 0.0
C2857 C 0.37794 0.28195 0.56608 0.0
C2858 C 0.34827 0.27973 0.60631 0.0
C2859 C 0.36369 0.30253 0.63163 0.0
N2860 N 0.36899 0.28252 0.5788 0.0
N2861 N 0.37253 0.3004 0.61977 0.0
H2862 H 0.68 0.04078 0.60807 0.0
H2863 H 0.73272 0.12954 0.57889 0.0
H2864 H 0.72939 0.06975 0.62641 0.0
H2865 H 0.70253 0.09097 0.54403 0.0
H2866 H 0.73092 0.10899 0.5978 0.0
H2867 H 0.68674 0.05989 0.58558 0.0
C2868 C 0.69233 0.05109 0.60718 0.0
C2869 C 0.70421 0.05375 0.61894 0.0
C2870 C 0.72494 0.10511 0.58588 0.0
C2871 C 0.71183 0.07582 0.59373 0.0
C2872 C 0.72591 0.1168 0.57508 0.0
C2873 C 0.71769 0.11194 0.55982 0.0
C2874 C 0.71531 0.08849 0.5816 0.0
C2875 C 0.70897 0.09521 0.55569 0.0
C2876 C 0.69617 0.06192 0.59438 0.0
C2877 C 0.71999 0.06729 0.61741 0.0
N2878 N 0.70775 0.08406 0.56663 0.0
N2879 N 0.72329 0.07808 0.60517 0.0
H2880 H 0.94459 0.67706 0.61957 0.0
H2881 H 0.87517 0.59103 0.58245 0.0
H2882 H 0.93094 0.63126 0.64225 0.0
H2883 H 0.90296 0.63337 0.55271 0.0
H2884 H 0.89203 0.60651 0.60637 0.0
H2885 H 0.92582 0.662 0.59674 0.0
C2886 C 0.93756 0.66385 0.61982 0.0
C2887 C 0.93939 0.6554 0.63281 0.0
C2888 C 0.89439 0.6124 0.59461 0.0
C2889 C 0.91783 0.63815 0.6068 0.0
C2890 C 0.88479 0.6036 0.58099 0.0
C2891 C 0.88783 0.61089 0.56556 0.0
C2892 C 0.90693 0.62868 0.59282 0.0
C2893 C 0.90029 0.62727 0.56437 0.0
C2894 C 0.92691 0.65528 0.60675 0.0
C2895 C 0.93 0.63827 0.63244 0.0
N2896 N 0.90939 0.63563 0.57782 0.0
N2897 N 0.91959 0.6302 0.61965 0.0
H2898 H 0.93565 0.68064 0.71133 0.0
H2899 H 0.96899 0.7317 0.79446 0.0
H2900 H 0.98669 0.70501 0.72475 0.0
H2901 H 0.93607 0.73836 0.76354 0.0
H2902 H 0.97098 0.71471 0.77266 0.0
H2903 H 0.93116 0.69516 0.73427 0.0
C2904 C 0.94584 0.68895 0.71917 0.0
C2905 C 0.96157 0.69177 0.71617 0.0
C2906 C 0.96324 0.71984 0.77078 0.0
C2907 C 0.95647 0.70785 0.74239 0.0
C2908 C 0.9621 0.72951 0.78315 0.0
C2909 C 0.95259 0.73672 0.78077 0.0
C2910 C 0.95445 0.71696 0.75609 0.0
C2911 C 0.94368 0.73322 0.76594 0.0
C2912 C 0.94329 0.6972 0.73215 0.0
C2913 C 0.97442 0.70264 0.72661 0.0
N2914 N 0.94481 0.72355 0.75415 0.0
N2915 N 0.97156 0.71019 0.73937 0.0
H2916 H 0.32535 0.27132 0.71089 0.0
H2917 H 0.26316 0.24233 0.78479 0.0
H2918 H 0.28939 0.28579 0.71617 0.0
H2919 H 0.27765 0.21014 0.76252 0.0
H2920 H 0.27739 0.26184 0.76324 0.0
H2921 H 0.31228 0.25198 0.7333 0.0
C2922 C 0.31477 0.27047 0.71683 0.0
C2923 C 0.30835 0.28007 0.71167 0.0
C2924 C 0.27725 0.25039 0.76302 0.0
C2925 C 0.29367 0.25836 0.73732 0.0
C2926 C 0.26901 0.23912 0.77526 0.0
C2927 C 0.26827 0.22398 0.77505 0.0
C2928 C 0.28541 0.24687 0.75078 0.0
C2929 C 0.27719 0.22126 0.76287 0.0
C2930 C 0.30732 0.25943 0.72951 0.0
C2931 C 0.29461 0.27851 0.7197 0.0
N2932 N 0.28533 0.23256 0.75118 0.0
N2933 N 0.2878 0.26794 0.73223 0.0
H2934 H 0.73071 0.07017 0.71107 0.0
H2935 H 0.78641 0.04177 0.75556 0.0
H2936 H 0.72979 0.0258 0.6969 0.0
H2937 H 0.76924 0.07069 0.78 0.0
H2938 H 0.77008 0.03946 0.73125 0.0
H2939 H 0.74935 0.07419 0.73369 0.0
C2940 C 0.73452 0.06134 0.71262 0.0
C2941 C 0.7286 0.04757 0.7021 0.0
C2942 C 0.76991 0.04629 0.74196 0.0
C2943 C 0.75003 0.0522 0.72794 0.0
C2944 C 0.77918 0.0476 0.75583 0.0
C2945 C 0.77882 0.05607 0.77 0.0
C2946 C 0.76058 0.05388 0.7421 0.0
C2947 C 0.76964 0.06382 0.76946 0.0
C2948 C 0.74511 0.06362 0.72558 0.0
C2949 C 0.73396 0.03652 0.70476 0.0
N2950 N 0.76087 0.06252 0.75576 0.0
N2951 N 0.74441 0.03909 0.71741 0.0
H2952 H 0.06105 0.34756 0.02917 0.0
H2953 H 0.05176 0.26339 0.07845 0.0
H2954 H 0.01923 0.29873 0.02589 0.0
H2955 H 0.09768 0.32306 0.08922 0.0
H2956 H 0.03895 0.27662 0.05518 0.0
H2957 H 0.07472 0.33749 0.04707 0.0
C2958 C 0.0549 0.33469 0.03194 0.0
C2959 C 0.03896 0.32396 0.02613 0.0
C2960 C 0.04997 0.28462 0.06211 0.0
C2961 C 0.05437 0.3125 0.04651 0.0
C2962 C 0.05705 0.27642 0.07722 0.0
C2963 C 0.07787 0.29163 0.08477 0.0
C2964 C 0.06117 0.3061 0.05849 0.0
C2965 C 0.08604 0.31404 0.08389 0.0
C2966 C 0.06264 0.329 0.04223 0.0
C2967 C 0.03147 0.30744 0.03019 0.0
N2968 N 0.07735 0.31872 0.06946 0.0
N2969 N 0.03922 0.30224 0.04018 0.0
H2970 H 0.64341 0.69477 0.06325 0.0
H2971 H 0.73919 0.77636 0.08729 0.0
H2972 H 0.68862 0.69916 0.04685 0.0
H2973 H 0.68468 0.767 0.11046 0.0
H2974 H 0.72002 0.7442 0.07242 0.0
H2975 H 0.65912 0.71944 0.08034 0.0
C2976 C 0.65661 0.70085 0.06329 0.0
C2977 C 0.6647 0.6949 0.05354 0.0
C2978 C 0.71427 0.7492 0.08007 0.0
C2979 C 0.68266 0.72307 0.07301 0.0
C2980 C 0.72637 0.76858 0.08999 0.0
C2981 C 0.7136 0.77652 0.0986 0.0
C2982 C 0.69254 0.73845 0.08231 0.0
C2983 C 0.69194 0.76272 0.10437 0.0
C2984 C 0.66556 0.7149 0.07307 0.0
C2985 C 0.68185 0.70329 0.05414 0.0
N2986 N 0.68345 0.74544 0.09414 0.0
N2987 N 0.69027 0.71703 0.06364 0.0
H2988 H 0.29454 0.98285 0.02545 0.0
H2989 H 0.21473 0.90388 0.05845 0.0
H2990 H 0.28469 0.93374 0.01687 0.0
H2991 H 0.22635 0.95334 0.06827 0.0
H2992 H 0.24031 0.91437 0.04339 0.0
H2993 H 0.26953 0.97205 0.04112 0.0
C2994 C 0.28708 0.96976 0.02678 0.0
C2995 C 0.29173 0.95918 0.01975 0.0
C2996 C 0.23733 0.92293 0.04895 0.0
C2997 C 0.26296 0.9467 0.03785 0.0
C2998 C 0.22279 0.91696 0.0576 0.0
C2999 C 0.21858 0.92779 0.06487 0.0
C3000 C 0.24765 0.93985 0.04737 0.0
C3001 C 0.22926 0.9446 0.06307 0.0
C3002 C 0.27279 0.9636 0.0358 0.0
C3003 C 0.28156 0.94234 0.022 0.0
N3004 N 0.24329 0.9501 0.05451 0.0
N3005 N 0.26763 0.93661 0.03086 0.0
H3006 H 0.33536 0.05151 0.00563 0.0
H3007 H 0.31556 0.08791 0.92816 0.0
H3008 H 0.32445 0.02784 0.95775 0.0
H3009 H 0.29939 0.09234 0.97657 0.0
H3010 H 0.32385 0.06955 0.93903 0.0
H3011 H 0.32723 0.07052 0.99535 0.0
C3012 C 0.33136 0.05039 0.99296 0.0
C3013 C 0.33052 0.0381 0.98251 0.0
C3014 C 0.31845 0.07453 0.94724 0.0
C3015 C 0.32149 0.05975 0.97074 0.0
C3016 C 0.31365 0.085 0.94106 0.0
C3017 C 0.30652 0.09156 0.95145 0.0
C3018 C 0.31655 0.07089 0.964 0.0
C3019 C 0.30473 0.08747 0.96814 0.0
C3020 C 0.32665 0.06114 0.98716 0.0
C3021 C 0.32519 0.0371 0.96623 0.0
N3022 N 0.3098 0.07748 0.97395 0.0
N3023 N 0.32099 0.04785 0.96081 0.0
H3024 H 0.94299 0.29437 0.97157 0.0
H3025 H 0.95703 0.21681 0.9343 0.0
H3026 H 0.98633 0.29165 0.97986 0.0
H3027 H 0.91144 0.22733 0.91572 0.0
H3028 H 0.9694 0.24658 0.95364 0.0
H3029 H 0.93208 0.26982 0.95382 0.0
C3030 C 0.95016 0.28858 0.96975 0.0
C3031 C 0.96562 0.2951 0.97717 0.0
C3032 C 0.95862 0.24225 0.946 0.0
C3033 C 0.95323 0.26717 0.95699 0.0
C3034 C 0.95179 0.22451 0.93333 0.0
C3035 C 0.93109 0.21718 0.92465 0.0
C3036 C 0.94736 0.25262 0.94627 0.0
C3037 C 0.92297 0.23111 0.92178 0.0
C3038 C 0.94396 0.27465 0.95956 0.0
C3039 C 0.9744 0.28712 0.97433 0.0
N3040 N 0.93139 0.24685 0.93434 0.0
N3041 N 0.96806 0.27355 0.96449 0.0
H3042 H 0.70868 0.6531 0.99439 0.0
H3043 H 0.78001 0.73221 0.95082 0.0
H3044 H 0.70793 0.69748 0.98696 0.0
H3045 H 0.78215 0.68868 0.95862 0.0
H3046 H 0.75318 0.71922 0.9636 0.0
H3047 H 0.73533 0.66549 0.98101 0.0
C3048 C 0.71413 0.66544 0.98998 0.0
C3049 C 0.70609 0.67428 0.99181 0.0
C3050 C 0.75944 0.71243 0.96244 0.0
C3051 C 0.73647 0.68847 0.97648 0.0
C3052 C 0.77472 0.71983 0.95509 0.0
C3053 C 0.78315 0.7114 0.95341 0.0
C3054 C 0.75257 0.6965 0.96833 0.0
C3055 C 0.77591 0.6955 0.95946 0.0
C3056 C 0.72932 0.6725 0.98233 0.0
C3057 C 0.71368 0.69021 0.98584 0.0
N3058 N 0.76101 0.68854 0.96664 0.0
N3059 N 0.72842 0.69677 0.97845 0.0
H3060 H 0.98112 0.68727 0.97602 0.0
H3061 H 0.90813 0.70443 0.96631 0.0
H3062 H 0.93099 0.65096 0.98575 0.0
H3063 H 0.95627 0.73587 0.94713 0.0
H3064 H 0.9159 0.68431 0.97286 0.0
H3065 H 0.97203 0.70486 0.96477 0.0
C3066 C 0.96816 0.68294 0.9757 0.0
C3067 C 0.95679 0.66765 0.98196 0.0
C3068 C 0.92471 0.69552 0.96704 0.0
C3069 C 0.9463 0.68786 0.96916 0.0
C3070 C 0.92028 0.70699 0.96331 0.0
C3071 C 0.93159 0.72181 0.95618 0.0
C3072 C 0.94065 0.69899 0.96383 0.0
C3073 C 0.9472 0.72458 0.95262 0.0
C3074 C 0.96298 0.693 0.96922 0.0
C3075 C 0.94017 0.66266 0.98108 0.0
N3076 N 0.95132 0.71334 0.95661 0.0
N3077 N 0.93543 0.67282 0.97497 0.0
H3078 H 0.34533 0.29529 0.98457 0.0
H3079 H 0.26511 0.22658 0.93706 0.0
H3080 H 0.31097 0.30445 0.95946 0.0
H3081 H 0.29724 0.2162 0.96473 0.0
H3082 H 0.28393 0.25578 0.94204 0.0
H3083 H 0.33009 0.26692 0.97432 0.0
C3084 C 0.33472 0.2914 0.97673 0.0
C3085 C 0.32931 0.30219 0.973 0.0
C3086 C 0.287 0.24715 0.94686 0.0
C3087 C 0.31181 0.26982 0.96132 0.0
C3088 C 0.27629 0.2305 0.94394 0.0
C3089 C 0.27973 0.219 0.95036 0.0
C3090 C 0.30117 0.25236 0.95645 0.0
C3091 C 0.29424 0.2247 0.95945 0.0
C3092 C 0.326 0.2752 0.97093 0.0
C3093 C 0.31549 0.29651 0.9628 0.0
N3094 N 0.30438 0.24097 0.9623 0.0
N3095 N 0.30717 0.28071 0.95742 0.0
H3096 H 0.71204 0.01799 0.00404 0.0
H3097 H 0.76382 0.06346 0.927 0.0
H3098 H 0.70886 0.05711 0.98189 0.0
H3099 H 0.78268 0.04462 0.96336 0.0
H3100 H 0.74228 0.05933 0.94577 0.0
H3101 H 0.7368 0.02579 0.98834 0.0
C3102 C 0.71664 0.02831 0.99597 0.0
C3103 C 0.70837 0.03688 0.99416 0.0
C3104 C 0.75121 0.05621 0.94968 0.0
C3105 C 0.73643 0.04563 0.97604 0.0
C3106 C 0.76355 0.0585 0.93893 0.0
C3107 C 0.77517 0.05432 0.94356 0.0
C3108 C 0.75018 0.04937 0.96503 0.0
C3109 C 0.77393 0.04789 0.95925 0.0
C3110 C 0.73078 0.03277 0.98708 0.0
C3111 C 0.71489 0.0502 0.98364 0.0
N3112 N 0.76154 0.04543 0.96937 0.0
N3113 N 0.72842 0.05402 0.97475 0.0
H3114 H 0.65885 0.94298 0.0224 0.0
H3115 H 0.73315 0.94776 0.07339 0.0
H3116 H 0.69264 0.98427 0.05272 0.0
H3117 H 0.69779 0.90451 0.04656 0.0
H3118 H 0.71751 0.96078 0.06676 0.0
H3119 H 0.67192 0.928 0.03187 0.0
C3120 C 0.6689 0.94883 0.03113 0.0
C3121 C 0.67471 0.96492 0.0367 0.0
C3122 C 0.71302 0.94837 0.06246 0.0
C3123 C 0.68974 0.94796 0.0475 0.0
C3124 C 0.72193 0.94092 0.06633 0.0
C3125 C 0.71658 0.92493 0.06077 0.0
C3126 C 0.69879 0.93989 0.05272 0.0
C3127 C 0.70217 0.91677 0.05128 0.0
C3128 C 0.67637 0.9403 0.03651 0.0
C3129 C 0.68779 0.97192 0.048 0.0
N3130 N 0.69379 0.92435 0.0475 0.0
N3131 N 0.69488 0.96345 0.05294 0.0
H3132 H 0.00957 0.70041 0.05358 0.0
H3133 H 0.07248 0.7958 0.04328 0.0
H3134 H 0.04324 0.71905 0.01325 0.0
H3135 H 0.03908 0.77477 0.08352 0.0
H3136 H 0.06346 0.76814 0.03254 0.0
H3137 H 0.0221 0.72776 0.06551 0.0
C3138 C 0.01971 0.71031 0.04727 0.0
C3139 C 0.02528 0.70751 0.03233 0.0
C3140 C 0.05824 0.76961 0.04379 0.0
C3141 C 0.03963 0.73908 0.04584 0.0
C3142 C 0.06336 0.78536 0.0499 0.0
C3143 C 0.05663 0.78754 0.06439 0.0
C3144 C 0.04623 0.75603 0.05221 0.0
C3145 C 0.04471 0.77364 0.07241 0.0
C3146 C 0.02688 0.72597 0.05409 0.0
C3147 C 0.03859 0.72074 0.02479 0.0
N3148 N 0.03991 0.75853 0.06621 0.0
N3149 N 0.04522 0.73606 0.03155 0.0
H3150 H 0.29486 0.35657 0.03112 0.0
H3151 H 0.23194 0.26748 0.06397 0.0
H3152 H 0.3051 0.31732 0.03116 0.0
H3153 H 0.21737 0.30078 0.04679 0.0
H3154 H 0.26035 0.28755 0.05736 0.0
H3155 H 0.26788 0.33807 0.04237 0.0
C3156 C 0.29152 0.34412 0.03365 0.0
C3157 C 0.30221 0.33844 0.03005 0.0
C3158 C 0.25092 0.29047 0.05514 0.0
C3159 C 0.2714 0.31728 0.04297 0.0
C3160 C 0.23476 0.27906 0.0589 0.0
C3161 C 0.2223 0.28242 0.05571 0.0
C3162 C 0.25465 0.30542 0.04835 0.0
C3163 C 0.2266 0.29766 0.04931 0.0
C3164 C 0.2761 0.33357 0.04001 0.0
C3165 C 0.2972 0.32218 0.0336 0.0
N3166 N 0.24242 0.30859 0.04581 0.0
N3167 N 0.28214 0.31215 0.03983 0.0
H3168 H 0.67774 0.6353 0.36181 0.0
H3169 H 0.75806 0.65853 0.42807 0.0
H3170 H 0.71787 0.68432 0.371 0.0
H3171 H 0.71429 0.60091 0.4074 0.0
H3172 H 0.742 0.67025 0.40682 0.0
H3173 H 0.69164 0.62483 0.37833 0.0
C3174 C 0.68954 0.64386 0.36723 0.0
C3175 C 0.69664 0.66072 0.36507 0.0
C3176 C 0.73746 0.65732 0.40767 0.0
C3177 C 0.71251 0.6488 0.38416 0.0
C3178 C 0.7468 0.65025 0.4216 0.0
C3179 C 0.73938 0.62813 0.41814 0.0
C3180 C 0.72054 0.64287 0.39519 0.0
C3181 C 0.71917 0.61392 0.40861 0.0
C3182 C 0.69748 0.63787 0.37665 0.0
C3183 C 0.71199 0.67123 0.37234 0.0
N3184 N 0.71273 0.62315 0.39685 0.0
N3185 N 0.71936 0.66511 0.38173 0.0
H3186 H 0.30704 0.02566 0.39205 0.0
H3187 H 0.39397 0.10545 0.40972 0.0
H3188 H 0.35179 0.02966 0.3747 0.0
H3189 H 0.34822 0.10461 0.40863 0.0
H3190 H 0.37928 0.07636 0.4015 0.0
H3191 H 0.32273 0.05316 0.40377 0.0
C3192 C 0.32019 0.03226 0.39079 0.0
C3193 C 0.32808 0.02541 0.38214 0.0
C3194 C 0.37252 0.08258 0.40325 0.0
C3195 C 0.34612 0.05701 0.39553 0.0
C3196 C 0.38085 0.0991 0.40796 0.0
C3197 C 0.37229 0.10739 0.41024 0.0
C3198 C 0.35552 0.07433 0.40093 0.0
C3199 C 0.35534 0.09871 0.40743 0.0
C3200 C 0.32913 0.048 0.39745 0.0
C3201 C 0.34519 0.03452 0.38114 0.0
N3202 N 0.34753 0.08267 0.40305 0.0
N3203 N 0.35367 0.04995 0.38766 0.0
H3204 H 0.9714 0.31835 0.36349 0.0
H3205 H 0.88964 0.23875 0.39141 0.0
H3206 H 0.96689 0.27122 0.36905 0.0
H3207 H 0.89729 0.28725 0.3977 0.0
H3208 H 0.91756 0.2505 0.38174 0.0
H3209 H 0.94396 0.30731 0.37471 0.0
C3210 C 0.96468 0.30571 0.3671 0.0
C3211 C 0.97146 0.29569 0.36526 0.0
C3212 C 0.91322 0.25861 0.38537 0.0
C3213 C 0.94007 0.28299 0.378 0.0
C3214 C 0.89729 0.25191 0.39095 0.0
C3215 C 0.89128 0.26208 0.39579 0.0
C3216 C 0.92319 0.27562 0.38425 0.0
C3217 C 0.90158 0.27902 0.3944 0.0
C3218 C 0.94904 0.29943 0.37353 0.0
C3219 C 0.96219 0.27941 0.3702 0.0
N3220 N 0.91705 0.28528 0.38874 0.0
N3221 N 0.94696 0.27357 0.37625 0.0
H3222 H 0.98958 0.35577 0.31007 0.0
H3223 H 0.03466 0.4474 0.27856 0.0
H3224 H 0.04092 0.38989 0.31839 0.0
H3225 H 0.9828 0.41923 0.28699 0.0
H3226 H 0.0373 0.42493 0.28916 0.0
H3227 H 0.98698 0.37757 0.29763 0.0
C3228 C 0.0003 0.36784 0.30925 0.0
C3229 C 0.01546 0.37108 0.31535 0.0
C3230 C 0.02535 0.42369 0.28868 0.0
C3231 C 0.01262 0.39594 0.30103 0.0
C3232 C 0.02385 0.43648 0.28265 0.0
C3233 C 0.00852 0.43524 0.28213 0.0
C3234 C 0.0114 0.40948 0.29399 0.0
C3235 C 0.99485 0.42073 0.28732 0.0
C3236 C -0.0012 0.38025 0.30219 0.0
C3237 C 0.02897 0.38691 0.31395 0.0
N3238 N 0.99661 0.4084 0.29304 0.0
N3239 N 0.02724 0.39876 0.30689 0.0
H3240 H 0.61337 0.63765 0.29037 0.0
H3241 H 0.6181 0.5502 0.2749 0.0
H3242 H 0.64966 0.62948 0.31269 0.0
H3243 H 0.58237 0.56617 0.24167 0.0
H3244 H 0.63192 0.58207 0.29048 0.0
H3245 H 0.60319 0.61221 0.27439 0.0
C3246 C 0.61923 0.63055 0.29189 0.0
C3247 C 0.6324 0.63572 0.3029 0.0
C3248 C 0.62269 0.57828 0.28096 0.0
C3249 C 0.62075 0.60662 0.28473 0.0
C3250 C 0.61508 0.55907 0.27072 0.0
C3251 C 0.59659 0.55345 0.25811 0.0
C3252 C 0.61464 0.59101 0.27572 0.0
C3253 C 0.59244 0.56911 0.24994 0.0
C3254 C 0.61342 0.61605 0.28273 0.0
C3255 C 0.63952 0.62601 0.30432 0.0
N3256 N 0.6011 0.58595 0.26096 0.0
N3257 N 0.63353 0.61186 0.2954 0.0
H3258 H 0.34845 0.9548 0.32626 0.0
H3259 H 0.44129 0.00843 0.29998 0.0
H3260 H 0.37337 0.00738 0.32459 0.0
H3261 H 0.41093 0.95749 0.28645 0.0
H3262 H 0.41717 0.00839 0.31051 0.0
H3263 H 0.37194 0.95551 0.31339 0.0
C3264 C 0.3589 0.96651 0.32322 0.0
C3265 C 0.35902 0.98107 0.32657 0.0
C3266 C 0.41578 0.99725 0.30515 0.0
C3267 C 0.38595 0.98196 0.31187 0.0
C3268 C 0.42952 0.99726 0.29918 0.0
C3269 C 0.42809 0.98289 0.2925 0.0
C3270 C 0.40057 0.98272 0.30463 0.0
C3271 C 0.41256 0.96877 0.29167 0.0
C3272 C 0.37226 0.96689 0.31578 0.0
C3273 C 0.37281 0.99588 0.32223 0.0
N3274 N 0.39942 0.96899 0.29781 0.0
N3275 N 0.38581 0.99596 0.31521 0.0
H3276 H 0.61621 0.9569 0.29191 0.0
H3277 H 0.61156 0.0413 0.26401 0.0
H3278 H 0.64134 0.00271 0.31908 0.0
H3279 H 0.60563 0.99552 0.22444 0.0
H3280 H 0.61999 0.02534 0.28877 0.0
H3281 H 0.60836 0.96996 0.27108 0.0
C3282 C 0.61993 0.96965 0.29357 0.0
C3283 C 0.62952 0.97879 0.30717 0.0
C3284 C 0.61725 0.02055 0.27628 0.0
C3285 C 0.62048 0.99362 0.28357 0.0
C3286 C 0.61312 0.03107 0.26097 0.0
C3287 C 0.60502 0.01858 0.24167 0.0
C3288 C 0.61669 0.00197 0.2709 0.0
C3289 C 0.60944 0.00224 0.23603 0.0
C3290 C 0.61553 0.97708 0.28166 0.0
C3291 C 0.63406 0.99529 0.30869 0.0
N3292 N 0.61345 0.99477 0.25198 0.0
N3293 N 0.62943 0.00219 0.29703 0.0
H3294 H 0.03663 0.65448 0.31904 0.0
H3295 H 0.98444 0.58076 0.243 0.0
H3296 H 0.9894 0.64246 0.29991 0.0
H3297 H 0.04383 0.60303 0.26241 0.0
H3298 H 0.98425 0.60393 0.26645 0.0
H3299 H 0.03631 0.63384 0.30055 0.0
C3300 C 0.02614 0.64743 0.31103 0.0
C3301 C 0.01308 0.65029 0.31092 0.0
C3302 C 0.99508 0.6031 0.26488 0.0
C3303 C 0.01271 0.62675 0.2897 0.0
C3304 C 0.99534 0.58956 0.24967 0.0
C3305 C 0.01368 0.58748 0.25191 0.0
C3306 C 0.01281 0.6152 0.27753 0.0
C3307 C 0.03281 0.60363 0.26188 0.0
C3308 C 0.02599 0.63568 0.30045 0.0
C3309 C -0.00023 0.64071 0.30032 0.0
N3310 N 0.02971 0.61492 0.27488 0.0
N3311 N -5e-05 0.62938 0.29004 0.0
H3312 H 0.36173 0.3823 0.29776 0.0
H3313 H 0.44556 0.38337 0.29457 0.0
H3314 H 0.37138 0.3529 0.33038 0.0
H3315 H 0.4224 0.38839 0.2513 0.0
H3316 H 0.42067 0.376 0.31017 0.0
H3317 H 0.3867 0.38917 0.28284 0.0
C3318 C 0.36916 0.37738 0.30184 0.0
C3319 C 0.36447 0.36698 0.31527 0.0
C3320 C 0.42114 0.37877 0.29726 0.0
C3321 C 0.39302 0.37489 0.2984 0.0
C3322 C 0.43529 0.383 0.28841 0.0
C3323 C 0.43623 0.38693 0.27175 0.0
C3324 C 0.40796 0.37865 0.2894 0.0
C3325 C 0.42245 0.38591 0.26422 0.0
C3326 C 0.38332 0.38122 0.29328 0.0
C3327 C 0.37451 0.36088 0.32 0.0
N3328 N 0.40898 0.38209 0.27315 0.0
N3329 N 0.3884 0.36501 0.31163 0.0
H3330 H 0.3571 0.32512 0.38345 0.0
H3331 H 0.35545 0.24036 0.38461 0.0
H3332 H 0.31782 0.28025 0.36233 0.0
H3333 H 0.39436 0.28546 0.4056 0.0
H3334 H 0.34035 0.25411 0.37829 0.0
H3335 H 0.36972 0.3102 0.39363 0.0
C3336 C 0.35106 0.31209 0.38103 0.0
C3337 C 0.33642 0.30394 0.37192 0.0
C3338 C 0.35209 0.26096 0.38446 0.0
C3339 C 0.35091 0.28674 0.3835 0.0
C3340 C 0.36068 0.2531 0.38812 0.0
C3341 C 0.37607 0.26174 0.39582 0.0
C3342 C 0.35903 0.27764 0.38838 0.0
C3343 C 0.38244 0.27831 0.39984 0.0
C3344 C 0.35829 0.30357 0.38686 0.0
C3345 C 0.32912 0.28702 0.36927 0.0
N3346 N 0.37392 0.28572 0.39602 0.0
N3347 N 0.33651 0.279 0.37493 0.0
H3348 H 0.7173 0.03377 0.36027 0.0
H3349 H 0.70829 0.1078 0.39608 0.0
H3350 H 0.67136 0.0291 0.37407 0.0
H3351 H 0.75332 0.11377 0.37734 0.0
H3352 H 0.69512 0.07833 0.39085 0.0
H3353 H 0.73128 0.06255 0.36906 0.0
C3354 C 0.71017 0.03877 0.36523 0.0
C3355 C 0.69313 0.02904 0.36635 0.0
C3356 C 0.70792 0.08605 0.38802 0.0
C3357 C 0.70903 0.06193 0.37644 0.0
C3358 C 0.71544 0.10284 0.39108 0.0
C3359 C 0.73194 0.1132 0.38726 0.0
C3360 C 0.71694 0.07955 0.38098 0.0
C3361 C 0.74061 0.10619 0.38058 0.0
C3362 C 0.71815 0.0552 0.37023 0.0
C3363 C 0.68451 0.03616 0.37289 0.0
N3364 N 0.733 0.08982 0.37761 0.0
N3365 N 0.69254 0.05216 0.37764 0.0
H3366 H 0.95984 0.69291 0.37243 0.0
H3367 H 0.89335 0.6021 0.39748 0.0
H3368 H 0.96823 0.65257 0.36723 0.0
H3369 H 0.88125 0.63809 0.38324 0.0
H3370 H 0.92219 0.62167 0.39184 0.0
H3371 H 0.93229 0.67405 0.38197 0.0
C3372 C 0.95596 0.68011 0.37343 0.0
C3373 C 0.96634 0.6743 0.36889 0.0
C3374 C 0.91319 0.62526 0.39002 0.0
C3375 C 0.93479 0.65267 0.37989 0.0
C3376 C 0.89679 0.61413 0.39323 0.0
C3377 C 0.88488 0.61841 0.39054 0.0
C3378 C 0.91773 0.64085 0.3844 0.0
C3379 C 0.89001 0.63424 0.3853 0.0
C3380 C 0.9402 0.66935 0.37882 0.0
C3381 C 0.96059 0.65756 0.37046 0.0
N3382 N 0.90603 0.64488 0.38238 0.0
N3383 N 0.94518 0.64732 0.37582 0.0
H3384 H 0.36691 0.99547 0.70732 0.0
H3385 H 0.47235 0.04341 0.71199 0.0
H3386 H 0.40019 0.03895 0.68122 0.0
H3387 H 0.43231 0.98919 0.73974 0.0
H3388 H 0.44365 0.042 0.69848 0.0
H3389 H 0.39035 0.99445 0.71834 0.0
C3390 C 0.37912 0.00479 0.7039 0.0
C3391 C 0.3816 0.01731 0.6933 0.0
C3392 C 0.4425 0.03238 0.70624 0.0
C3393 C 0.40832 0.01618 0.70583 0.0
C3394 C 0.46031 0.03286 0.71355 0.0
C3395 C 0.4555 0.01758 0.7297 0.0
C3396 C 0.4228 0.0161 0.71201 0.0
C3397 C 0.43501 -0.00125 0.73113 0.0
C3398 C 0.39246 0.00418 0.71018 0.0
C3399 C 0.39769 0.02907 0.68932 0.0
N3400 N 0.42057 0.00093 0.72312 0.0
N3401 N 0.41043 0.02822 0.6956 0.0
H3402 H 0.00827 0.36298 0.70253 0.0
H3403 H 0.97631 0.40746 0.77577 0.0
H3404 H 0.95806 0.34479 0.71588 0.0
H3405 H 0.03407 0.43381 0.75126 0.0
H3406 H 0.96904 0.37906 0.75586 0.0
H3407 H 0.01682 0.3851 0.72305 0.0
C3408 C -0.00094 0.36358 0.70982 0.0
C3409 C 0.98242 0.35212 0.70739 0.0
C3410 C 0.98116 0.38975 0.75594 0.0
C3411 C 0.99211 0.37718 0.73086 0.0
C3412 C 0.98571 0.40677 0.76895 0.0
C3413 C 0.0056 0.42507 0.76372 0.0
C3414 C 0.99657 0.39073 0.74258 0.0
C3415 C 0.02211 0.42337 0.75348 0.0
C3416 C 0.00395 0.3762 0.72149 0.0
C3417 C 0.97101 0.35347 0.7172 0.0
N3418 N 0.01518 0.40651 0.74269 0.0
N3419 N 0.97608 0.36579 0.72852 0.0
H3420 H 0.63312 0.60451 0.70131 0.0
H3421 H 0.56192 0.62024 0.73071 0.0
H3422 H 0.63393 0.64961 0.69331 0.0
H3423 H 0.55914 0.57369 0.73303 0.0
H3424 H 0.58917 0.63196 0.71873 0.0
H3425 H 0.60691 0.59378 0.71492 0.0
C3426 C 0.62782 0.61219 0.70244 0.0
C3427 C 0.63573 0.62797 0.69607 0.0
C3428 C 0.58265 0.61922 0.722 0.0
C3429 C 0.60563 0.61571 0.71166 0.0
C3430 C 0.56715 0.61256 0.72888 0.0
C3431 C 0.55844 0.59608 0.7332 0.0
C3432 C 0.58941 0.60927 0.71933 0.0
C3433 C 0.56558 0.58654 0.7302 0.0
C3434 C 0.61282 0.60603 0.7102 0.0
C3435 C 0.62826 0.63736 0.69798 0.0
N3436 N 0.58066 0.59328 0.72351 0.0
N3437 N 0.61361 0.63107 0.70557 0.0
H3438 H 0.64129 0.67496 0.63437 0.0
H3439 H 0.6519 0.76265 0.61906 0.0
H3440 H 0.68416 0.72011 0.64985 0.0
H3441 H 0.60763 0.71683 0.60889 0.0
H3442 H 0.66481 0.74763 0.62876 0.0
H3443 H 0.62969 0.69042 0.62327 0.0
C3444 C 0.64831 0.68816 0.6354 0.0
C3445 C 0.66371 0.69625 0.6431 0.0
C3446 C 0.65231 0.74087 0.62431 0.0
C3447 C 0.65043 0.71411 0.63038 0.0
C3448 C 0.64497 0.74943 0.61873 0.0
C3449 C 0.62875 0.74095 0.61296 0.0
C3450 C 0.64332 0.72372 0.62418 0.0
C3451 C 0.62022 0.72383 0.61304 0.0
C3452 C 0.64165 0.697 0.62907 0.0
C3453 C 0.67223 0.71338 0.64404 0.0
N3454 N 0.62761 0.7158 0.61853 0.0
N3455 N 0.66545 0.72176 0.63777 0.0
H3456 H 0.32462 0.96828 0.64638 0.0
H3457 H 0.23478 0.875 0.63786 0.0
H3458 H 0.27621 0.96092 0.6518 0.0
H3459 H 0.29009 0.88713 0.61424 0.0
H3460 H 0.2519 0.90876 0.64882 0.0
H3461 H 0.31231 0.93917 0.63892 0.0
C3462 C 0.31144 0.96058 0.64599 0.0
C3463 C 0.30142 0.96705 0.64964 0.0
C3464 C 0.25834 0.9037 0.64245 0.0
C3465 C 0.28742 0.93393 0.64146 0.0
C3466 C 0.24786 0.88267 0.63665 0.0
C3467 C 0.26008 0.8778 0.6223 0.0
C3468 C 0.2794 0.91643 0.63731 0.0
C3469 C 0.28275 0.89034 0.62179 0.0
C3470 C 0.30446 0.94402 0.64172 0.0
C3471 C 0.28442 0.95651 0.64896 0.0
N3472 N 0.28973 0.90908 0.62824 0.0
N3473 N 0.27796 0.94045 0.64507 0.0
H3474 H 0.04122 0.36349 0.65039 0.0
H3475 H 0.11684 0.35271 0.62645 0.0
H3476 H 0.04044 0.31801 0.65469 0.0
H3477 H 0.11718 0.39799 0.62281 0.0
H3478 H 0.08894 0.33969 0.63694 0.0
H3479 H 0.06919 0.37631 0.64056 0.0
C3480 C 0.04695 0.3562 0.64931 0.0
C3481 C 0.03846 0.33964 0.65335 0.0
C3482 C 0.09508 0.35245 0.63377 0.0
C3483 C 0.07054 0.35426 0.64201 0.0
C3484 C 0.11096 0.35985 0.62772 0.0
C3485 C 0.11919 0.37636 0.62344 0.0
C3486 C 0.08743 0.36166 0.63569 0.0
C3487 C 0.11117 0.38516 0.62569 0.0
C3488 C 0.06294 0.36354 0.64368 0.0
C3489 C 0.04653 0.33081 0.65172 0.0
N3490 N 0.09573 0.3777 0.63161 0.0
N3491 N 0.06212 0.33822 0.64614 0.0
H3492 H 0.26925 0.30723 0.63802 0.0
H3493 H 0.29581 0.39885 0.61513 0.0
H3494 H 0.3192 0.3472 0.63889 0.0
H3495 H 0.24724 0.36287 0.63003 0.0
H3496 H 0.30403 0.37838 0.61748 0.0
H3497 H 0.26057 0.32592 0.62857 0.0
C3498 C 0.27842 0.31986 0.63596 0.0
C3499 C 0.29495 0.32571 0.63943 0.0
C3500 C 0.29154 0.37495 0.62007 0.0
C3501 C 0.28511 0.3471 0.62866 0.0
C3502 C 0.28686 0.38659 0.61872 0.0
C3503 C 0.27089 0.38256 0.62259 0.0
C3504 C 0.28012 0.35915 0.62518 0.0
C3505 C 0.2597 0.36649 0.62707 0.0
C3506 C 0.27344 0.33052 0.63065 0.0
C3507 C 0.3063 0.34221 0.63655 0.0
N3508 N 0.26454 0.35538 0.62832 0.0
N3509 N 0.30116 0.35234 0.63143 0.0
H3510 H 0.64306 0.97194 0.63195 0.0
H3511 H 0.64131 0.88706 0.63006 0.0
H3512 H 0.68257 0.96658 0.65023 0.0
H3513 H 0.6031 0.89326 0.60965 0.0
H3514 H 0.65725 0.91639 0.63632 0.0
H3515 H 0.62885 0.94345 0.62261 0.0
C3516 C 0.64878 0.96478 0.63396 0.0
C3517 C 0.66401 0.97165 0.64197 0.0
C3518 C 0.64546 0.91139 0.63032 0.0
C3519 C 0.64774 0.93891 0.6313 0.0
C3520 C 0.63639 0.89467 0.62669 0.0
C3521 C 0.62095 0.88777 0.61918 0.0
C3522 C 0.63896 0.92129 0.62657 0.0
C3523 C 0.61503 0.89813 0.6153 0.0
C3524 C 0.64066 0.94849 0.6286 0.0
C3525 C 0.67084 0.96178 0.64416 0.0
N3526 N 0.62401 0.91435 0.6191 0.0
N3527 N 0.66262 0.94589 0.63893 0.0
H3528 H 0.02863 0.68292 0.66635 0.0
H3529 H 0.08814 0.72014 0.59098 0.0
H3530 H 0.02441 0.71415 0.63141 0.0
H3531 H 0.10588 0.71385 0.63747 0.0
H3532 H 0.06232 0.71308 0.60382 0.0
H3533 H 0.05488 0.6896 0.65418 0.0
C3534 C 0.0332 0.69112 0.65609 0.0
C3535 C 0.02435 0.698 0.64985 0.0
C3536 C 0.0719 0.71333 0.61122 0.0
C3537 C 0.05408 0.70542 0.63585 0.0
C3538 C 0.08668 0.71739 0.60394 0.0
C3539 C 0.09943 0.71811 0.61333 0.0
C3540 C 0.06958 0.70944 0.62789 0.0
C3541 C 0.09649 0.71378 0.62991 0.0
C3542 C 0.04817 0.69497 0.64925 0.0
C3543 C 0.03086 0.70863 0.63663 0.0
N3544 N 0.08184 0.7096 0.63671 0.0
N3545 N 0.04526 0.7119 0.62997 0.0
H3546 H 0.95859 0.60911 0.69337 0.0
H3547 H 0.02235 0.59436 0.74306 0.0
H3548 H 0.00286 0.64771 0.71606 0.0
H3549 H 0.97916 0.55575 0.71893 0.0
H3550 H 0.01411 0.61382 0.73528 0.0
H3551 H 0.96458 0.58907 0.70463 0.0
C3552 C 0.96949 0.61336 0.70083 0.0
C3553 C 0.98029 0.6301 0.70371 0.0
C3554 C 0.00633 0.60107 0.73181 0.0
C3555 C 0.98725 0.60728 0.71656 0.0
C3556 C 0.01101 0.58997 0.73632 0.0
C3557 C 0.0013 0.57341 0.7318 0.0
C3558 C 0.99194 0.59561 0.72257 0.0
C3559 C 0.98688 0.56839 0.72279 0.0
C3560 C 0.97293 0.60192 0.70723 0.0
C3561 C 0.99423 0.63493 0.71346 0.0
N3562 N 0.98265 0.57945 0.71843 0.0
N3563 N 0.99735 0.62358 0.71947 0.0
H3564 H 0.33991 0.37118 0.68703 0.0
H3565 H 0.40065 0.42872 0.75686 0.0
H3566 H 0.37638 0.36249 0.70788 0.0
H3567 H 0.38017 0.44633 0.72106 0.0
H3568 H 0.39046 0.40355 0.74055 0.0
H3569 H 0.3531 0.398 0.70073 0.0
C3570 C 0.35074 0.37496 0.69447 0.0
C3571 C 0.35703 0.3646 0.69643 0.0
C3572 C 0.3884 0.41302 0.73616 0.0
C3573 C 0.37204 0.39516 0.71227 0.0
C3574 C 0.39422 0.42741 0.74544 0.0
C3575 C 0.39156 0.43984 0.7401 0.0
C3576 C 0.37944 0.41078 0.7217 0.0
C3577 C 0.3827 0.43717 0.72545 0.0
C3578 C 0.35829 0.39028 0.70221 0.0
C3579 C 0.37116 0.37014 0.70607 0.0
N3580 N 0.37685 0.42289 0.71681 0.0
N3581 N 0.3781 0.385 0.71384 0.0
H3582 H 0.64747 0.04731 0.69686 0.0
H3583 H 0.56726 0.96808 0.72894 0.0
H3584 H 0.64048 -0.00117 0.6937 0.0
H3585 H 0.57013 0.01386 0.71946 0.0
H3586 H 0.59589 0.98014 0.7208 0.0
H3587 H 0.62097 0.03613 0.70999 0.0
C3588 C 0.64044 0.03433 0.69903 0.0
C3589 C 0.64617 0.02397 0.69399 0.0
C3590 C 0.59026 0.98756 0.72062 0.0
C3591 C 0.61575 0.0111 0.70905 0.0
C3592 C 0.57398 0.9807 0.72527 0.0
C3593 C 0.5663 0.98994 0.72466 0.0
C3594 C 0.59895 0.00381 0.71548 0.0
C3595 C 0.57556 0.00628 0.71997 0.0
C3596 C 0.62528 0.02796 0.70651 0.0
C3597 C 0.63651 0.00726 0.69725 0.0
N3598 N 0.59137 0.01267 0.7155 0.0
N3599 N 0.62173 0.00132 0.7045 0.0
loop_
_geom_bond_atom_site_label_1
_geom_bond_atom_site_label_2
_geom_bond_distance
_geom_bond_site_symmetry_2
_ccdc_geom_bond_type
C0 O1 1.306 . S
C0 O3 1.160 . S
O1 C0 1.306 . S
O1 Cd2 2.228 1_556 S
Cd2 O1 2.228 1_554 S
Cd2 O6 2.273 . S
Cd2 O10 2.277 1_554 S
O3 C0 1.160 . S
O3 Cd4 2.203 1_656 S
Cd4 O3 2.203 1_454 S
Cd4 O6 2.411 1_455 S
Cd4 O7 2.333 . S
Cd4 O8 2.352 . S
Cd4 O12 2.277 1_554 S
Cd4 O13 2.356 . S
C5 O10 1.209 1_455 S
C5 O12 1.226 . S
O6 Cd2 2.273 . S
O6 Cd4 2.411 1_655 S
O6 C9 1.320 1_655 S
O7 Cd4 2.333 . S
O7 C9 1.214 . S
O8 Cd4 2.352 . S
O8 C11 1.258 . S
C9 O6 1.320 1_455 S
C9 O7 1.214 . S
O10 Cd2 2.277 1_556 S
O10 C5 1.209 1_655 S
C11 O8 1.258 . S
C11 O13 1.282 . S
O12 Cd4 2.277 1_556 S
O12 C5 1.226 . S
O13 Cd4 2.356 . S
O13 C11 1.282 . S
C14 O15 1.306 . S
C14 O17 1.160 . S
O15 C14 1.306 . S
O15 Cd16 2.228 . S
Cd16 O15 2.228 . S
Cd16 O20 2.273 . S
Cd16 O24 2.277 . S
O17 C14 1.160 . S
O17 Cd18 2.203 . S
Cd18 O17 2.203 . S
Cd18 O20 2.411 . S
Cd18 O21 2.333 1_554 S
Cd18 O22 2.352 1_554 S
Cd18 O26 2.277 . S
Cd18 O27 2.356 . S
C19 O24 1.209 . S
C19 O26 1.226 . S
O20 Cd16 2.273 . S
O20 Cd18 2.411 . S
O20 C23 1.320 1_554 S
O21 Cd18 2.333 1_556 S
O21 C23 1.214 . S
O22 Cd18 2.352 1_556 S
O22 C25 1.258 . S
C23 O20 1.320 1_556 S
C23 O21 1.214 . S
O24 Cd16 2.277 . S
O24 C19 1.209 . S
C25 O22 1.258 . S
C25 O27 1.282 1_556 S
O26 Cd18 2.277 . S
O26 C19 1.226 . S
O27 Cd18 2.356 . S
O27 C25 1.282 1_554 S
C28 O29 1.306 . S
C28 O31 1.160 . S
O29 C28 1.306 . S
O29 Cd30 2.228 . S
Cd30 O29 2.228 . S
Cd30 O34 2.273 1_554 S
Cd30 O38 2.277 . S
O31 C28 1.160 . S
O31 Cd32 2.203 1_565 S
Cd32 O31 2.203 1_545 S
Cd32 O34 2.411 1_544 S
Cd32 O35 2.333 1_554 S
Cd32 O36 2.352 1_554 S
Cd32 O40 2.277 . S
Cd32 O41 2.356 . S
C33 O38 1.209 1_545 S
C33 O40 1.226 . S
O34 Cd30 2.273 1_556 S
O34 Cd32 2.411 1_566 S
O34 C37 1.320 1_565 S
O35 Cd32 2.333 1_556 S
O35 C37 1.214 . S
O36 Cd32 2.352 1_556 S
O36 C39 1.258 . S
C37 O34 1.320 1_545 S
C37 O35 1.214 . S
O38 Cd30 2.277 . S
O38 C33 1.209 1_565 S
C39 O36 1.258 . S
C39 O41 1.282 1_556 S
O40 Cd32 2.277 . S
O40 C33 1.226 . S
O41 Cd32 2.356 . S
O41 C39 1.282 1_554 S
C42 O43 1.284 1_556 S
C42 O45 1.160 . S
O43 C42 1.284 1_554 S
O43 Cd44 2.245 . S
Cd44 O43 2.245 . S
Cd44 O48 2.273 . S
Cd44 O52 2.277 1_554 S
O45 C42 1.160 . S
O45 Cd46 2.203 1_656 S
Cd46 O45 2.203 1_454 S
Cd46 O48 2.411 1_455 S
Cd46 O49 2.333 . S
Cd46 O50 2.352 . S
Cd46 O54 2.277 1_554 S
Cd46 O55 2.356 . S
C47 O52 1.209 1_455 S
C47 O54 1.226 . S
O48 Cd44 2.273 . S
O48 Cd46 2.411 1_655 S
O48 C51 1.320 . S
O49 Cd46 2.333 . S
O49 C51 1.214 1_455 S
O50 Cd46 2.352 . S
O50 C53 1.258 . S
C51 O48 1.320 . S
C51 O49 1.214 1_655 S
O52 Cd44 2.277 1_556 S
O52 C47 1.209 1_655 S
C53 O50 1.258 . S
C53 O55 1.282 . S
O54 Cd46 2.277 1_556 S
O54 C47 1.226 . S
O55 Cd46 2.356 . S
O55 C53 1.282 . S
C56 O57 1.306 . S
C56 O59 1.160 . S
O57 C56 1.306 . S
O57 Cd58 2.228 . S
Cd58 O57 2.228 . S
Cd58 O62 2.273 1_554 S
Cd58 O66 2.277 . S
O59 C56 1.160 . S
O59 Cd60 2.203 . S
Cd60 O59 2.203 . S
Cd60 O62 2.411 1_554 S
Cd60 O63 2.333 1_554 S
Cd60 O64 2.352 1_554 S
Cd60 O68 2.277 . S
Cd60 O69 2.356 1_554 S
C61 O66 1.209 . S
C61 O68 1.226 . S
O62 Cd58 2.273 1_556 S
O62 Cd60 2.411 1_556 S
O62 C65 1.320 . S
O63 Cd60 2.333 1_556 S
O63 C65 1.214 . S
O64 Cd60 2.352 1_556 S
O64 C67 1.258 . S
C65 O62 1.320 . S
C65 O63 1.214 . S
O66 Cd58 2.277 . S
O66 C61 1.209 . S
C67 O64 1.258 . S
C67 O69 1.282 . S
O68 Cd60 2.277 . S
O68 C61 1.226 . S
O69 Cd60 2.356 1_556 S
O69 C67 1.282 . S
C70 O71 1.306 1_556 S
C70 O73 1.160 . S
O71 C70 1.306 1_554 S
O71 Cd72 2.228 . S
Cd72 O71 2.228 . S
Cd72 O76 2.273 . S
Cd72 O80 2.277 1_554 S
O73 C70 1.160 . S
O73 Cd74 2.203 1_546 S
Cd74 O73 2.203 1_564 S
Cd74 O76 2.411 1_565 S
Cd74 O77 2.333 . S
Cd74 O78 2.352 . S
Cd74 O82 2.277 1_554 S
Cd74 O83 2.356 . S
C75 O80 1.209 1_565 S
C75 O82 1.226 . S
O76 Cd72 2.273 . S
O76 Cd74 2.411 1_545 S
O76 C79 1.320 . S
O77 Cd74 2.333 . S
O77 C79 1.214 1_565 S
O78 Cd74 2.352 . S
O78 C81 1.258 . S
C79 O76 1.320 . S
C79 O77 1.214 1_545 S
O80 Cd72 2.277 1_556 S
O80 C75 1.209 1_545 S
C81 O78 1.258 . S
C81 O83 1.282 . S
O82 Cd74 2.277 1_556 S
O82 C75 1.226 . S
O83 Cd74 2.356 . S
O83 C81 1.282 . S
C84 O85 1.306 . S
C84 O87 1.160 . S
O85 C84 1.306 . S
O85 Cd86 2.228 . S
Cd86 O85 2.228 . S
Cd86 O90 2.273 . S
Cd86 O94 2.277 . S
O87 C84 1.160 . S
O87 Cd88 2.203 . S
Cd88 O87 2.203 . S
Cd88 O90 2.411 . S
Cd88 O91 2.333 . S
Cd88 O92 2.352 . S
Cd88 O96 2.277 . S
Cd88 O97 2.356 . S
C89 O94 1.209 . S
C89 O96 1.226 . S
O90 Cd86 2.273 . S
O90 Cd88 2.411 . S
O90 C93 1.320 . S
O91 Cd88 2.333 . S
O91 C93 1.214 . S
O92 Cd88 2.352 . S
O92 C95 1.258 . S
C93 O90 1.320 . S
C93 O91 1.214 . S
O94 Cd86 2.277 . S
O94 C89 1.209 . S
C95 O92 1.258 . S
C95 O97 1.282 . S
O96 Cd88 2.277 . S
O96 C89 1.226 . S
O97 Cd88 2.356 . S
O97 C95 1.282 . S
C98 O99 1.306 . S
C98 O101 1.160 . S
O99 C98 1.306 . S
O99 Cd100 2.228 1_545 S
Cd100 O99 2.228 1_565 S
Cd100 O104 2.273 . S
Cd100 O108 2.277 . S
O101 C98 1.160 . S
O101 Cd102 2.203 1_545 S
Cd102 O101 2.203 1_565 S
Cd102 O104 2.411 . S
Cd102 O105 2.333 . S
Cd102 O106 2.352 . S
Cd102 O110 2.277 . S
Cd102 O111 2.356 . S
C103 O108 1.209 . S
C103 O110 1.226 . S
O104 Cd100 2.273 . S
O104 Cd102 2.411 . S
O104 C107 1.320 . S
O105 Cd102 2.333 . S
O105 C107 1.214 . S
O106 Cd102 2.352 . S
O106 C109 1.258 . S
C107 O104 1.320 . S
C107 O105 1.214 . S
O108 Cd100 2.277 . S
O108 C103 1.209 . S
C109 O106 1.258 . S
C109 O111 1.282 . S
O110 Cd102 2.277 . S
O110 C103 1.226 . S
O111 Cd102 2.356 . S
O111 C109 1.282 . S
C112 O113 1.281 1_655 S
C112 O115 1.159 1_655 S
O113 C112 1.281 1_455 S
O113 Cd114 2.228 . S
Cd114 O113 2.228 . S
Cd114 O118 2.273 . S
Cd114 O122 2.277 . S
O115 C112 1.159 1_455 S
O115 Cd116 2.203 . S
Cd116 O115 2.203 . S
Cd116 O118 2.411 . S
Cd116 O119 2.333 . S
Cd116 O120 2.352 . S
Cd116 O124 2.277 . S
Cd116 O125 2.356 . S
C117 O122 1.209 . S
C117 O124 1.226 . S
O118 Cd114 2.273 . S
O118 Cd116 2.411 . S
O118 C121 1.320 . S
O119 Cd116 2.333 . S
O119 C121 1.214 . S
O120 Cd116 2.352 . S
O120 C123 1.258 . S
C121 O118 1.320 . S
C121 O119 1.214 . S
O122 Cd114 2.277 . S
O122 C117 1.209 . S
C123 O120 1.258 . S
C123 O125 1.282 . S
O124 Cd116 2.277 . S
O124 C117 1.226 . S
O125 Cd116 2.356 . S
O125 C123 1.282 . S
C126 O127 1.306 . S
C126 O129 1.160 . S
O127 C126 1.306 . S
O127 Cd128 2.228 . S
Cd128 O127 2.228 . S
Cd128 O132 2.273 . S
Cd128 O136 2.277 . S
O129 C126 1.160 . S
O129 Cd130 2.203 . S
Cd130 O129 2.203 . S
Cd130 O132 2.411 . S
Cd130 O133 2.333 . S
Cd130 O134 2.352 1_565 S
Cd130 O138 2.277 . S
Cd130 O139 2.356 1_565 S
C131 O136 1.209 . S
C131 O138 1.226 . S
O132 Cd128 2.273 . S
O132 Cd130 2.411 . S
O132 C135 1.320 . S
O133 Cd130 2.333 . S
O133 C135 1.214 . S
O134 Cd130 2.352 1_545 S
O134 C137 1.258 . S
C135 O132 1.320 . S
C135 O133 1.214 . S
O136 Cd128 2.277 . S
O136 C131 1.209 . S
C137 O134 1.258 . S
C137 O139 1.282 . S
O138 Cd130 2.277 . S
O138 C131 1.226 . S
O139 Cd130 2.356 1_545 S
O139 C137 1.282 . S
C140 O141 1.306 . S
C140 O143 1.160 1_655 S
O141 C140 1.306 . S
O141 Cd142 2.228 1_655 S
Cd142 O141 2.228 1_455 S
Cd142 O146 2.273 . S
Cd142 O150 2.277 . S
O143 C140 1.160 1_455 S
O143 Cd144 2.203 . S
Cd144 O143 2.203 . S
Cd144 O146 2.411 . S
Cd144 O147 2.333 . S
Cd144 O148 2.352 . S
Cd144 O152 2.277 . S
Cd144 O153 2.356 . S
C145 O150 1.209 . S
C145 O152 1.226 . S
O146 Cd142 2.273 . S
O146 Cd144 2.411 . S
O146 C149 1.320 . S
O147 Cd144 2.333 . S
O147 C149 1.214 . S
O148 Cd144 2.352 . S
O148 C151 1.258 . S
C149 O146 1.320 . S
C149 O147 1.214 . S
O150 Cd142 2.277 . S
O150 C145 1.209 . S
C151 O148 1.258 . S
C151 O153 1.282 . S
O152 Cd144 2.277 . S
O152 C145 1.226 . S
O153 Cd144 2.356 . S
O153 C151 1.282 . S
C154 O155 1.306 . S
C154 O157 1.160 . S
O155 C154 1.306 . S
O155 Cd156 2.228 . S
Cd156 O155 2.228 . S
Cd156 O160 2.273 . S
Cd156 O164 2.277 . S
O157 C154 1.160 . S
O157 Cd158 2.203 . S
Cd158 O157 2.203 . S
Cd158 O160 2.411 . S
Cd158 O161 2.333 . S
Cd158 O162 2.352 . S
Cd158 O166 2.277 . S
Cd158 O167 2.356 . S
C159 O164 1.209 . S
C159 O166 1.226 . S
O160 Cd156 2.273 . S
O160 Cd158 2.411 . S
O160 C163 1.320 . S
O161 Cd158 2.333 . S
O161 C163 1.214 . S
O162 Cd158 2.352 . S
O162 C165 1.258 . S
C163 O160 1.320 . S
C163 O161 1.214 . S
O164 Cd156 2.277 . S
O164 C159 1.209 . S
C165 O162 1.258 . S
C165 O167 1.282 . S
O166 Cd158 2.277 . S
O166 C159 1.226 . S
O167 Cd158 2.356 . S
O167 C165 1.282 . S
C168 O169 1.306 . S
C168 O171 1.159 . S
O169 C168 1.306 . S
O169 Cd170 2.228 1_565 S
Cd170 O169 2.228 1_545 S
Cd170 O174 2.273 . S
Cd170 O178 2.277 . S
O171 C168 1.159 . S
O171 Cd172 2.207 1_565 S
Cd172 O171 2.207 1_545 S
Cd172 O174 2.411 . S
Cd172 O175 2.333 . S
Cd172 O176 2.352 . S
Cd172 O180 2.277 . S
Cd172 O181 2.356 . S
C173 O178 1.209 . S
C173 O180 1.226 . S
O174 Cd170 2.273 . S
O174 Cd172 2.411 . S
O174 C177 1.320 . S
O175 Cd172 2.333 . S
O175 C177 1.214 . S
O176 Cd172 2.352 . S
O176 C179 1.258 . S
C177 O174 1.320 . S
C177 O175 1.214 . S
O178 Cd170 2.277 . S
O178 C173 1.209 . S
C179 O176 1.258 . S
C179 O181 1.282 . S
O180 Cd172 2.277 . S
O180 C173 1.226 . S
O181 Cd172 2.356 . S
O181 C179 1.282 . S
C182 O183 1.306 . S
C182 O185 1.233 . S
O183 C182 1.306 . S
O183 Cd184 2.228 . S
Cd184 O183 2.228 . S
Cd184 O188 2.273 . S
Cd184 O192 2.277 . S
O185 C182 1.233 . S
O185 Cd186 2.196 . S
Cd186 O185 2.196 . S
Cd186 O188 2.411 . S
Cd186 O189 2.333 . S
Cd186 O190 2.352 1_655 S
Cd186 O194 2.277 . S
Cd186 O195 2.356 1_655 S
C187 O192 1.209 . S
C187 O194 1.226 . S
O188 Cd184 2.273 . S
O188 Cd186 2.411 . S
O188 C191 1.320 . S
O189 Cd186 2.333 . S
O189 C191 1.214 . S
O190 Cd186 2.352 1_455 S
O190 C193 1.258 . S
C191 O188 1.320 . S
C191 O189 1.214 . S
O192 Cd184 2.277 . S
O192 C187 1.209 . S
C193 O190 1.258 . S
C193 O195 1.282 . S
O194 Cd186 2.277 . S
O194 C187 1.226 . S
O195 Cd186 2.356 1_455 S
O195 C193 1.282 . S
C196 O197 1.306 . S
C196 O199 1.160 . S
O197 C196 1.306 . S
O197 Cd198 2.228 . S
Cd198 O197 2.228 . S
Cd198 O202 2.273 . S
Cd198 O206 2.277 . S
O199 C196 1.160 . S
O199 Cd200 2.203 . S
Cd200 O199 2.203 . S
Cd200 O202 2.411 . S
Cd200 O203 2.333 . S
Cd200 O204 2.352 . S
Cd200 O208 2.277 . S
Cd200 O209 2.356 . S
C201 O206 1.209 . S
C201 O208 1.226 . S
O202 Cd198 2.273 . S
O202 Cd200 2.411 . S
O202 C205 1.320 . S
O203 Cd200 2.333 . S
O203 C205 1.214 . S
O204 Cd200 2.352 . S
O204 C207 1.258 . S
C205 O202 1.320 . S
C205 O203 1.214 . S
O206 Cd198 2.277 . S
O206 C201 1.209 . S
C207 O204 1.258 . S
C207 O209 1.282 . S
O208 Cd200 2.277 . S
O208 C201 1.226 . S
O209 Cd200 2.356 . S
O209 C207 1.282 . S
C210 O211 1.306 . S
C210 O213 1.160 . S
O211 C210 1.306 . S
O211 Cd212 2.228 . S
Cd212 O211 2.228 . S
Cd212 O216 2.273 . S
Cd212 O220 2.277 . S
O213 C210 1.160 . S
O213 Cd214 2.203 . S
Cd214 O213 2.203 . S
Cd214 O216 2.411 . S
Cd214 O217 2.333 . S
Cd214 O218 2.352 . S
Cd214 O222 2.277 . S
Cd214 O223 2.356 . S
C215 O220 1.209 . S
C215 O222 1.226 . S
O216 Cd212 2.273 . S
O216 Cd214 2.411 . S
O216 C219 1.320 . S
O217 Cd214 2.333 . S
O217 C219 1.214 . S
O218 Cd214 2.352 . S
O218 C221 1.258 . S
C219 O216 1.320 . S
C219 O217 1.214 . S
O220 Cd212 2.277 . S
O220 C215 1.209 . S
C221 O218 1.258 . S
C221 O223 1.282 . S
O222 Cd214 2.277 . S
O222 C215 1.226 . S
O223 Cd214 2.356 . S
O223 C221 1.282 . S
C224 O225 1.306 . S
C224 O227 1.160 . S
O225 C224 1.306 . S
O225 Cd226 2.228 . S
Cd226 O225 2.228 . S
Cd226 O230 2.273 . S
Cd226 O234 2.277 . S
O227 C224 1.160 . S
O227 Cd228 2.203 . S
Cd228 O227 2.203 . S
Cd228 O230 2.411 . S
Cd228 O231 2.333 . S
Cd228 O232 2.352 1_545 S
Cd228 O236 2.277 . S
Cd228 O237 2.356 1_545 S
C229 O234 1.209 . S
C229 O236 1.226 . S
O230 Cd226 2.273 . S
O230 Cd228 2.411 . S
O230 C233 1.320 . S
O231 Cd228 2.333 . S
O231 C233 1.214 . S
O232 Cd228 2.352 1_565 S
O232 C235 1.258 . S
C233 O230 1.320 . S
C233 O231 1.214 . S
O234 Cd226 2.277 . S
O234 C229 1.209 . S
C235 O232 1.258 . S
C235 O237 1.282 . S
O236 Cd228 2.277 . S
O236 C229 1.226 . S
O237 Cd228 2.356 1_565 S
O237 C235 1.282 . S
C238 O239 1.306 . S
C238 O241 1.160 . S
O239 C238 1.306 . S
O239 Cd240 2.228 1_455 S
Cd240 O239 2.228 1_655 S
Cd240 O244 2.273 . S
Cd240 O248 2.277 . S
O241 C238 1.160 . S
O241 Cd242 2.203 1_455 S
Cd242 O241 2.203 1_655 S
Cd242 O244 2.411 . S
Cd242 O245 2.333 . S
Cd242 O246 2.352 . S
Cd242 O250 2.277 . S
Cd242 O251 2.356 . S
C243 O248 1.209 . S
C243 O250 1.226 . S
O244 Cd240 2.273 . S
O244 Cd242 2.411 . S
O244 C247 1.320 . S
O245 Cd242 2.333 . S
O245 C247 1.214 . S
O246 Cd242 2.352 . S
O246 C249 1.258 . S
C247 O244 1.320 . S
C247 O245 1.214 . S
O248 Cd240 2.277 . S
O248 C243 1.209 . S
C249 O246 1.258 . S
C249 O251 1.282 . S
O250 Cd242 2.277 . S
O250 C243 1.226 . S
O251 Cd242 2.356 . S
O251 C249 1.282 . S
C252 C253 1.560 . S
C252 H313 0.959 . S
C252 H314 0.959 . S
C252 H315 0.960 . S
C253 C252 1.560 . S
C253 O308 1.426 . S
C253 H312 0.980 . S
C254 C255 1.407 . S
C254 C259 1.418 . S
C254 O308 1.334 . S
C255 C254 1.407 . S
C255 C256 1.360 . S
C255 H316 0.929 . S
C256 C255 1.360 . S
C256 C257 1.401 . S
C256 C260 1.527 . S
C257 C256 1.401 . S
C257 C258 1.405 . S
C257 C290 1.587 . S
C258 C257 1.405 . S
C258 C259 1.332 . S
C258 C261 1.496 . S
C259 C254 1.418 . S
C259 C258 1.332 . S
C259 H317 0.929 . S
C260 C256 1.527 . S
C260 H318 0.959 . S
C260 H319 0.961 . S
C260 H320 0.961 . S
C261 C258 1.496 . S
C261 H321 0.960 . S
C261 H322 0.960 . S
C261 H323 0.961 . S
C262 C263 1.517 . S
C262 H325 0.961 . S
C262 H326 0.960 . S
C262 H327 0.959 . S
C263 C262 1.517 . S
C263 O311 1.468 . S
C263 H324 0.980 . S
C264 C265 1.349 . S
C264 C269 1.367 . S
C264 O311 1.408 . S
C265 C264 1.349 . S
C265 C266 1.407 . S
C265 H328 0.930 . S
C266 C265 1.407 . S
C266 C267 1.449 . S
C266 C270 1.535 . S
C267 C266 1.449 . S
C267 C268 1.384 . S
C267 C292 1.553 . S
C268 C267 1.384 . S
C268 C269 1.364 . S
C268 C271 1.450 . S
C269 C264 1.367 . S
C269 C268 1.364 . S
C269 H329 0.931 . S
C270 C266 1.535 . S
C270 H330 0.959 . S
C270 H331 0.961 . S
C270 H332 0.959 . S
C271 C268 1.450 . S
C271 H333 0.960 . S
C271 H334 0.960 . S
C271 H335 0.960 . S
C272 C273 1.309 . S
C272 C277 1.304 . S
C272 O310 1.435 . S
C273 C272 1.309 . S
C273 C274 1.476 . S
C273 H337 0.930 . S
C274 C273 1.476 . S
C274 C275 1.400 . S
C274 C278 1.567 . S
C275 C274 1.400 . S
C275 C276 1.373 . S
C275 C297 1.432 . S
C276 C275 1.373 . S
C276 C277 1.339 . S
C276 C279 1.530 . S
C277 C272 1.304 . S
C277 C276 1.339 . S
C277 H338 0.930 . S
C278 C274 1.567 . S
C278 H339 0.961 . S
C278 H340 0.960 . S
C278 H341 0.958 . S
C279 C276 1.530 . S
C279 H342 0.961 . S
C279 H343 0.960 . S
C279 H344 0.960 . S
C280 C281 1.530 . S
C280 H346 0.961 . S
C280 H347 0.961 . S
C280 H348 0.959 . S
C281 C280 1.530 . S
C281 O309 1.412 . S
C281 H345 0.980 . S
C282 C283 1.288 . S
C282 C287 1.377 . S
C282 O309 1.393 . S
C283 C282 1.288 . S
C283 C284 1.369 . S
C283 H349 0.932 . S
C284 C283 1.369 . S
C284 C285 1.398 . S
C284 C288 1.527 . S
C285 C284 1.398 . S
C285 C286 1.380 . S
C285 C299 1.497 . S
C286 C285 1.380 . S
C286 C287 1.383 . S
C286 C289 1.603 . S
C287 C282 1.377 . S
C287 C286 1.383 . S
C287 H350 0.929 . S
C288 C284 1.527 . S
C288 H351 0.961 . S
C288 H352 0.959 . S
C288 H353 0.959 . S
C289 C286 1.603 . S
C289 H354 0.960 . S
C289 H355 0.962 . S
C289 H356 0.961 . S
C290 C257 1.587 . S
C290 C291 1.360 . S
C290 C303 1.412 . S
C291 C290 1.360 . S
C291 C292 1.365 . S
C291 H357 0.929 . S
C292 C267 1.553 . S
C292 C291 1.365 . S
C292 C293 1.404 . S
C293 C292 1.404 . S
C293 C294 1.395 . S
C293 C304 1.451 . S
C294 C293 1.395 . S
C294 C295 1.322 . S
C294 H358 0.930 . S
C295 C294 1.322 . S
C295 C296 1.459 . S
C295 H359 0.929 . S
C296 C295 1.459 . S
C296 C297 1.445 . S
C296 C305 1.395 . S
C297 C275 1.432 . S
C297 C296 1.445 . S
C297 C298 1.370 . S
C298 C297 1.370 . S
C298 C299 1.438 . S
C298 H360 0.930 . S
C299 C285 1.497 . S
C299 C298 1.438 . S
C299 C300 1.360 . S
C300 C299 1.360 . S
C300 C301 1.401 . S
C300 C305 1.446 . S
C301 C300 1.401 . S
C301 C302 1.347 . S
C301 H361 0.929 . S
C302 C301 1.347 . S
C302 C303 1.455 . S
C302 H362 0.930 . S
C303 C290 1.412 . S
C303 C302 1.455 . S
C303 C304 1.331 . S
C304 C293 1.451 . S
C304 C303 1.331 . S
C304 C305 1.497 . S
C305 C296 1.395 . S
C305 C300 1.446 . S
C305 C304 1.497 . S
C306 C307 1.582 . S
C306 H363 0.962 . S
C306 H364 0.959 . S
C306 H365 0.958 . S
C307 C306 1.582 . S
C307 O310 1.458 . S
C307 H336 0.980 . S
O308 C253 1.426 . S
O308 C254 1.334 . S
O309 C281 1.412 . S
O309 C282 1.393 . S
O310 C272 1.435 . S
O310 C307 1.458 . S
O311 C263 1.468 . S
O311 C264 1.408 . S
H312 C253 0.980 . S
H313 C252 0.959 . S
H314 C252 0.959 . S
H315 C252 0.960 . S
H316 C255 0.929 . S
H317 C259 0.929 . S
H318 C260 0.959 . S
H319 C260 0.961 . S
H320 C260 0.961 . S
H321 C261 0.960 . S
H322 C261 0.960 . S
H323 C261 0.961 . S
H324 C263 0.980 . S
H325 C262 0.961 . S
H326 C262 0.960 . S
H327 C262 0.959 . S
H328 C265 0.930 . S
H329 C269 0.931 . S
H330 C270 0.959 . S
H331 C270 0.961 . S
H332 C270 0.959 . S
H333 C271 0.960 . S
H334 C271 0.960 . S
H335 C271 0.960 . S
H336 C307 0.980 . S
H337 C273 0.930 . S
H338 C277 0.930 . S
H339 C278 0.961 . S
H340 C278 0.960 . S
H341 C278 0.958 . S
H342 C279 0.961 . S
H343 C279 0.960 . S
H344 C279 0.960 . S
H345 C281 0.980 . S
H346 C280 0.961 . S
H347 C280 0.961 . S
H348 C280 0.959 . S
H349 C283 0.932 . S
H350 C287 0.929 . S
H351 C288 0.961 . S
H352 C288 0.959 . S
H353 C288 0.959 . S
H354 C289 0.960 . S
H355 C289 0.962 . S
H356 C289 0.961 . S
H357 C291 0.929 . S
H358 C294 0.930 . S
H359 C295 0.929 . S
H360 C298 0.930 . S
H361 C301 0.929 . S
H362 C302 0.930 . S
H363 C306 0.962 . S
H364 C306 0.959 . S
H365 C306 0.958 . S
C366 C367 1.560 . S
C366 H427 0.959 . S
C366 H428 0.959 . S
C366 H429 0.960 . S
C367 C366 1.560 . S
C367 O422 1.426 . S
C367 H426 0.980 . S
C368 C369 1.407 . S
C368 C373 1.418 . S
C368 O422 1.334 . S
C369 C368 1.407 . S
C369 C370 1.360 . S
C369 H430 0.929 . S
C370 C369 1.360 . S
C370 C371 1.401 . S
C370 C374 1.527 . S
C371 C370 1.401 . S
C371 C372 1.405 . S
C371 C404 1.587 . S
C372 C371 1.405 . S
C372 C373 1.332 . S
C372 C375 1.496 . S
C373 C368 1.418 . S
C373 C372 1.332 . S
C373 H431 0.929 . S
C374 C370 1.527 . S
C374 H432 0.959 . S
C374 H433 0.961 . S
C374 H434 0.961 . S
C375 C372 1.496 . S
C375 H435 0.960 . S
C375 H436 0.960 . S
C375 H437 0.961 . S
C376 C377 1.517 . S
C376 H439 0.961 . S
C376 H440 0.960 . S
C376 H441 0.959 . S
C377 C376 1.517 . S
C377 O425 1.468 . S
C377 H438 0.980 . S
C378 C379 1.349 . S
C378 C383 1.367 . S
C378 O425 1.408 . S
C379 C378 1.349 . S
C379 C380 1.407 . S
C379 H442 0.930 . S
C380 C379 1.407 . S
C380 C381 1.449 . S
C380 C384 1.535 . S
C381 C380 1.449 . S
C381 C382 1.384 . S
C381 C406 1.553 . S
C382 C381 1.384 . S
C382 C383 1.364 . S
C382 C385 1.450 . S
C383 C378 1.367 . S
C383 C382 1.364 . S
C383 H443 0.931 . S
C384 C380 1.535 . S
C384 H444 0.959 . S
C384 H445 0.961 . S
C384 H446 0.959 . S
C385 C382 1.450 . S
C385 H447 0.960 . S
C385 H448 0.960 . S
C385 H449 0.960 . S
C386 C387 1.309 . S
C386 C391 1.304 . S
C386 O424 1.435 . S
C387 C386 1.309 . S
C387 C388 1.476 . S
C387 H451 0.930 . S
C388 C387 1.476 . S
C388 C389 1.400 . S
C388 C392 1.567 . S
C389 C388 1.400 . S
C389 C390 1.373 . S
C389 C411 1.432 . S
C390 C389 1.373 . S
C390 C391 1.339 . S
C390 C393 1.530 . S
C391 C386 1.304 . S
C391 C390 1.339 . S
C391 H452 0.930 . S
C392 C388 1.567 . S
C392 H453 0.961 . S
C392 H454 0.960 . S
C392 H455 0.958 . S
C393 C390 1.530 . S
C393 H456 0.961 . S
C393 H457 0.960 . S
C393 H458 0.960 . S
C394 C395 1.530 . S
C394 H460 0.961 . S
C394 H461 0.961 . S
C394 H462 0.959 . S
C395 C394 1.530 . S
C395 O423 1.412 . S
C395 H459 0.980 . S
C396 C397 1.288 . S
C396 C401 1.377 . S
C396 O423 1.393 . S
C397 C396 1.288 . S
C397 C398 1.369 . S
C397 H463 0.932 . S
C398 C397 1.369 . S
C398 C399 1.398 . S
C398 C402 1.527 . S
C399 C398 1.398 . S
C399 C400 1.380 . S
C399 C413 1.497 . S
C400 C399 1.380 . S
C400 C401 1.383 . S
C400 C403 1.603 . S
C401 C396 1.377 . S
C401 C400 1.383 . S
C401 H464 0.929 . S
C402 C398 1.527 . S
C402 H465 0.961 . S
C402 H466 0.959 . S
C402 H467 0.959 . S
C403 C400 1.603 . S
C403 H468 0.960 . S
C403 H469 0.962 . S
C403 H470 0.961 . S
C404 C371 1.587 . S
C404 C405 1.360 . S
C404 C417 1.412 . S
C405 C404 1.360 . S
C405 C406 1.365 . S
C405 H471 0.929 . S
C406 C381 1.553 . S
C406 C405 1.365 . S
C406 C407 1.404 . S
C407 C406 1.404 . S
C407 C408 1.395 . S
C407 C418 1.451 . S
C408 C407 1.395 . S
C408 C409 1.322 . S
C408 H472 0.930 . S
C409 C408 1.322 . S
C409 C410 1.459 . S
C409 H473 0.929 . S
C410 C409 1.459 . S
C410 C411 1.445 . S
C410 C419 1.395 . S
C411 C389 1.432 . S
C411 C410 1.445 . S
C411 C412 1.370 . S
C412 C411 1.370 . S
C412 C413 1.438 . S
C412 H474 0.930 . S
C413 C399 1.497 . S
C413 C412 1.438 . S
C413 C414 1.360 . S
C414 C413 1.360 . S
C414 C415 1.401 . S
C414 C419 1.446 . S
C415 C414 1.401 . S
C415 C416 1.347 . S
C415 H475 0.929 . S
C416 C415 1.347 . S
C416 C417 1.455 . S
C416 H476 0.930 . S
C417 C404 1.412 . S
C417 C416 1.455 . S
C417 C418 1.331 . S
C418 C407 1.451 . S
C418 C417 1.331 . S
C418 C419 1.497 . S
C419 C410 1.395 . S
C419 C414 1.446 . S
C419 C418 1.497 . S
C420 C421 1.582 . S
C420 H477 0.962 . S
C420 H478 0.959 . S
C420 H479 0.958 . S
C421 C420 1.582 . S
C421 O424 1.458 . S
C421 H450 0.980 . S
O422 C367 1.426 . S
O422 C368 1.334 . S
O423 C395 1.412 . S
O423 C396 1.393 . S
O424 C386 1.435 . S
O424 C421 1.458 . S
O425 C377 1.468 . S
O425 C378 1.408 . S
H426 C367 0.980 . S
H427 C366 0.959 . S
H428 C366 0.959 . S
H429 C366 0.960 . S
H430 C369 0.929 . S
H431 C373 0.929 . S
H432 C374 0.959 . S
H433 C374 0.961 . S
H434 C374 0.961 . S
H435 C375 0.960 . S
H436 C375 0.960 . S
H437 C375 0.961 . S
H438 C377 0.980 . S
H439 C376 0.961 . S
H440 C376 0.960 . S
H441 C376 0.959 . S
H442 C379 0.930 . S
H443 C383 0.931 . S
H444 C384 0.959 . S
H445 C384 0.961 . S
H446 C384 0.959 . S
H447 C385 0.960 . S
H448 C385 0.960 . S
H449 C385 0.960 . S
H450 C421 0.980 . S
H451 C387 0.930 . S
H452 C391 0.930 . S
H453 C392 0.961 . S
H454 C392 0.960 . S
H455 C392 0.958 . S
H456 C393 0.961 . S
H457 C393 0.960 . S
H458 C393 0.960 . S
H459 C395 0.980 . S
H460 C394 0.961 . S
H461 C394 0.961 . S
H462 C394 0.959 . S
H463 C397 0.932 . S
H464 C401 0.929 . S
H465 C402 0.961 . S
H466 C402 0.959 . S
H467 C402 0.959 . S
H468 C403 0.960 . S
H469 C403 0.962 . S
H470 C403 0.961 . S
H471 C405 0.929 . S
H472 C408 0.930 . S
H473 C409 0.929 . S
H474 C412 0.930 . S
H475 C415 0.929 . S
H476 C416 0.930 . S
H477 C420 0.962 . S
H478 C420 0.959 . S
H479 C420 0.958 . S
C480 C481 1.560 . S
C480 H541 0.959 . S
C480 H542 0.959 . S
C480 H543 0.960 . S
C481 C480 1.560 . S
C481 O536 1.426 . S
C481 H540 0.980 . S
C482 C483 1.407 . S
C482 C487 1.418 . S
C482 O536 1.334 . S
C483 C482 1.407 . S
C483 C484 1.360 . S
C483 H544 0.929 . S
C484 C483 1.360 . S
C484 C485 1.401 . S
C484 C488 1.527 . S
C485 C484 1.401 . S
C485 C486 1.405 . S
C485 C518 1.587 . S
C486 C485 1.405 . S
C486 C487 1.332 . S
C486 C489 1.496 . S
C487 C482 1.418 . S
C487 C486 1.332 . S
C487 H545 0.929 . S
C488 C484 1.527 . S
C488 H546 0.959 . S
C488 H547 0.961 . S
C488 H548 0.961 . S
C489 C486 1.496 . S
C489 H549 0.960 . S
C489 H550 0.960 . S
C489 H551 0.961 . S
C490 C491 1.517 . S
C490 H553 0.961 . S
C490 H554 0.960 . S
C490 H555 0.959 . S
C491 C490 1.517 . S
C491 O539 1.468 . S
C491 H552 0.980 . S
C492 C493 1.349 . S
C492 C497 1.367 . S
C492 O539 1.408 . S
C493 C492 1.349 . S
C493 C494 1.407 . S
C493 H556 0.930 . S
C494 C493 1.407 . S
C494 C495 1.449 . S
C494 C498 1.535 . S
C495 C494 1.449 . S
C495 C496 1.384 . S
C495 C520 1.553 . S
C496 C495 1.384 . S
C496 C497 1.364 . S
C496 C499 1.450 . S
C497 C492 1.367 . S
C497 C496 1.364 . S
C497 H557 0.931 . S
C498 C494 1.535 . S
C498 H558 0.959 . S
C498 H559 0.961 . S
C498 H560 0.959 . S
C499 C496 1.450 . S
C499 H561 0.960 . S
C499 H562 0.960 . S
C499 H563 0.960 . S
C500 C501 1.309 . S
C500 C505 1.304 . S
C500 O538 1.435 . S
C501 C500 1.309 . S
C501 C502 1.476 . S
C501 H565 0.930 . S
C502 C501 1.476 . S
C502 C503 1.400 . S
C502 C506 1.567 . S
C503 C502 1.400 . S
C503 C504 1.373 . S
C503 C525 1.432 . S
C504 C503 1.373 . S
C504 C505 1.339 . S
C504 C507 1.530 . S
C505 C500 1.304 . S
C505 C504 1.339 . S
C505 H566 0.930 . S
C506 C502 1.567 . S
C506 H567 0.961 . S
C506 H568 0.960 . S
C506 H569 0.958 . S
C507 C504 1.530 . S
C507 H570 0.961 . S
C507 H571 0.960 . S
C507 H572 0.960 . S
C508 C509 1.530 . S
C508 H574 0.961 . S
C508 H575 0.961 . S
C508 H576 0.959 . S
C509 C508 1.530 . S
C509 O537 1.412 . S
C509 H573 0.980 . S
C510 C511 1.288 . S
C510 C515 1.377 . S
C510 O537 1.393 . S
C511 C510 1.288 . S
C511 C512 1.369 . S
C511 H577 0.932 . S
C512 C511 1.369 . S
C512 C513 1.398 . S
C512 C516 1.527 . S
C513 C512 1.398 . S
C513 C514 1.380 . S
C513 C527 1.497 . S
C514 C513 1.380 . S
C514 C515 1.383 . S
C514 C517 1.603 . S
C515 C510 1.377 . S
C515 C514 1.383 . S
C515 H578 0.929 . S
C516 C512 1.527 . S
C516 H579 0.961 . S
C516 H580 0.959 . S
C516 H581 0.959 . S
C517 C514 1.603 . S
C517 H582 0.960 . S
C517 H583 0.962 . S
C517 H584 0.961 . S
C518 C485 1.587 . S
C518 C519 1.360 . S
C518 C531 1.412 . S
C519 C518 1.360 . S
C519 C520 1.365 . S
C519 H585 0.929 . S
C520 C495 1.553 . S
C520 C519 1.365 . S
C520 C521 1.404 . S
C521 C520 1.404 . S
C521 C522 1.395 . S
C521 C532 1.451 . S
C522 C521 1.395 . S
C522 C523 1.322 . S
C522 H586 0.930 . S
C523 C522 1.322 . S
C523 C524 1.459 . S
C523 H587 0.929 . S
C524 C523 1.459 . S
C524 C525 1.445 . S
C524 C533 1.395 . S
C525 C503 1.432 . S
C525 C524 1.445 . S
C525 C526 1.370 . S
C526 C525 1.370 . S
C526 C527 1.438 . S
C526 H588 0.930 . S
C527 C513 1.497 . S
C527 C526 1.438 . S
C527 C528 1.360 . S
C528 C527 1.360 . S
C528 C529 1.401 . S
C528 C533 1.446 . S
C529 C528 1.401 . S
C529 C530 1.347 . S
C529 H589 0.929 . S
C530 C529 1.347 . S
C530 C531 1.455 . S
C530 H590 0.930 . S
C531 C518 1.412 . S
C531 C530 1.455 . S
C531 C532 1.331 . S
C532 C521 1.451 . S
C532 C531 1.331 . S
C532 C533 1.497 . S
C533 C524 1.395 . S
C533 C528 1.446 . S
C533 C532 1.497 . S
C534 C535 1.582 . S
C534 H591 0.962 . S
C534 H592 0.959 . S
C534 H593 0.958 . S
C535 C534 1.582 . S
C535 O538 1.458 . S
C535 H564 0.980 . S
O536 C481 1.426 . S
O536 C482 1.334 . S
O537 C509 1.412 . S
O537 C510 1.393 . S
O538 C500 1.435 . S
O538 C535 1.458 . S
O539 C491 1.468 . S
O539 C492 1.408 . S
H540 C481 0.980 . S
H541 C480 0.959 . S
H542 C480 0.959 . S
H543 C480 0.960 . S
H544 C483 0.929 . S
H545 C487 0.929 . S
H546 C488 0.959 . S
H547 C488 0.961 . S
H548 C488 0.961 . S
H549 C489 0.960 . S
H550 C489 0.960 . S
H551 C489 0.961 . S
H552 C491 0.980 . S
H553 C490 0.961 . S
H554 C490 0.960 . S
H555 C490 0.959 . S
H556 C493 0.930 . S
H557 C497 0.931 . S
H558 C498 0.959 . S
H559 C498 0.961 . S
H560 C498 0.959 . S
H561 C499 0.960 . S
H562 C499 0.960 . S
H563 C499 0.960 . S
H564 C535 0.980 . S
H565 C501 0.930 . S
H566 C505 0.930 . S
H567 C506 0.961 . S
H568 C506 0.960 . S
H569 C506 0.958 . S
H570 C507 0.961 . S
H571 C507 0.960 . S
H572 C507 0.960 . S
H573 C509 0.980 . S
H574 C508 0.961 . S
H575 C508 0.961 . S
H576 C508 0.959 . S
H577 C511 0.932 . S
H578 C515 0.929 . S
H579 C516 0.961 . S
H580 C516 0.959 . S
H581 C516 0.959 . S
H582 C517 0.960 . S
H583 C517 0.962 . S
H584 C517 0.961 . S
H585 C519 0.929 . S
H586 C522 0.930 . S
H587 C523 0.929 . S
H588 C526 0.930 . S
H589 C529 0.929 . S
H590 C530 0.930 . S
H591 C534 0.962 . S
H592 C534 0.959 . S
H593 C534 0.958 . S
C594 C595 1.560 . S
C594 H655 0.959 . S
C594 H656 0.959 . S
C594 H657 0.960 . S
C595 C594 1.560 . S
C595 O650 1.426 . S
C595 H654 0.980 . S
C596 C597 1.407 . S
C596 C601 1.418 . S
C596 O650 1.334 . S
C597 C596 1.407 . S
C597 C598 1.360 . S
C597 H658 0.929 . S
C598 C597 1.360 . S
C598 C599 1.401 . S
C598 C602 1.527 . S
C599 C598 1.401 . S
C599 C600 1.405 . S
C599 C632 1.587 . S
C600 C599 1.405 . S
C600 C601 1.332 . S
C600 C603 1.496 . S
C601 C596 1.418 . S
C601 C600 1.332 . S
C601 H659 0.929 . S
C602 C598 1.527 . S
C602 H660 0.959 . S
C602 H661 0.961 . S
C602 H662 0.961 . S
C603 C600 1.496 . S
C603 H663 0.960 . S
C603 H664 0.960 . S
C603 H665 0.961 . S
C604 C605 1.517 . S
C604 H667 0.961 . S
C604 H668 0.960 . S
C604 H669 0.959 . S
C605 C604 1.517 . S
C605 O653 1.468 . S
C605 H666 0.980 . S
C606 C607 1.349 . S
C606 C611 1.367 . S
C606 O653 1.408 . S
C607 C606 1.349 . S
C607 C608 1.407 . S
C607 H670 0.930 . S
C608 C607 1.407 . S
C608 C609 1.449 . S
C608 C612 1.535 . S
C609 C608 1.449 . S
C609 C610 1.384 . S
C609 C634 1.553 . S
C610 C609 1.384 . S
C610 C611 1.364 . S
C610 C613 1.450 . S
C611 C606 1.367 . S
C611 C610 1.364 . S
C611 H671 0.931 . S
C612 C608 1.535 . S
C612 H672 0.959 . S
C612 H673 0.961 . S
C612 H674 0.959 . S
C613 C610 1.450 . S
C613 H675 0.960 . S
C613 H676 0.960 . S
C613 H677 0.960 . S
C614 C615 1.309 . S
C614 C619 1.304 . S
C614 O652 1.435 . S
C615 C614 1.309 . S
C615 C616 1.476 . S
C615 H679 0.930 . S
C616 C615 1.476 . S
C616 C617 1.400 . S
C616 C620 1.567 . S
C617 C616 1.400 . S
C617 C618 1.373 . S
C617 C639 1.432 . S
C618 C617 1.373 . S
C618 C619 1.339 . S
C618 C621 1.530 . S
C619 C614 1.304 . S
C619 C618 1.339 . S
C619 H680 0.930 . S
C620 C616 1.567 . S
C620 H681 0.961 . S
C620 H682 0.960 . S
C620 H683 0.958 . S
C621 C618 1.530 . S
C621 H684 0.961 . S
C621 H685 0.960 . S
C621 H686 0.960 . S
C622 C623 1.530 . S
C622 H688 0.961 . S
C622 H689 0.961 . S
C622 H690 0.959 . S
C623 C622 1.530 . S
C623 O651 1.412 . S
C623 H687 0.980 . S
C624 C625 1.288 . S
C624 C629 1.377 . S
C624 O651 1.393 . S
C625 C624 1.288 . S
C625 C626 1.369 . S
C625 H691 0.932 . S
C626 C625 1.369 . S
C626 C627 1.398 . S
C626 C630 1.527 . S
C627 C626 1.398 . S
C627 C628 1.380 . S
C627 C641 1.497 . S
C628 C627 1.380 . S
C628 C629 1.383 . S
C628 C631 1.603 . S
C629 C624 1.377 . S
C629 C628 1.383 . S
C629 H692 0.929 . S
C630 C626 1.527 . S
C630 H693 0.961 . S
C630 H694 0.959 . S
C630 H695 0.959 . S
C631 C628 1.603 . S
C631 H696 0.960 . S
C631 H697 0.962 . S
C631 H698 0.961 . S
C632 C599 1.587 . S
C632 C633 1.360 . S
C632 C645 1.412 . S
C633 C632 1.360 . S
C633 C634 1.365 . S
C633 H699 0.929 . S
C634 C609 1.553 . S
C634 C633 1.365 . S
C634 C635 1.404 . S
C635 C634 1.404 . S
C635 C636 1.395 . S
C635 C646 1.451 . S
C636 C635 1.395 . S
C636 C637 1.322 . S
C636 H700 0.930 . S
C637 C636 1.322 . S
C637 C638 1.459 . S
C637 H701 0.929 . S
C638 C637 1.459 . S
C638 C639 1.445 . S
C638 C647 1.395 . S
C639 C617 1.432 . S
C639 C638 1.445 . S
C639 C640 1.370 . S
C640 C639 1.370 . S
C640 C641 1.438 . S
C640 H702 0.930 . S
C641 C627 1.497 . S
C641 C640 1.438 . S
C641 C642 1.360 . S
C642 C641 1.360 . S
C642 C643 1.401 . S
C642 C647 1.446 . S
C643 C642 1.401 . S
C643 C644 1.347 . S
C643 H703 0.929 . S
C644 C643 1.347 . S
C644 C645 1.455 . S
C644 H704 0.930 . S
C645 C632 1.412 . S
C645 C644 1.455 . S
C645 C646 1.331 . S
C646 C635 1.451 . S
C646 C645 1.331 . S
C646 C647 1.497 . S
C647 C638 1.395 . S
C647 C642 1.446 . S
C647 C646 1.497 . S
C648 C649 1.582 . S
C648 H705 0.962 . S
C648 H706 0.959 . S
C648 H707 0.958 . S
C649 C648 1.582 . S
C649 O652 1.458 . S
C649 H678 0.980 . S
O650 C595 1.426 . S
O650 C596 1.334 . S
O651 C623 1.412 . S
O651 C624 1.393 . S
O652 C614 1.435 . S
O652 C649 1.458 . S
O653 C605 1.468 . S
O653 C606 1.408 . S
H654 C595 0.980 . S
H655 C594 0.959 . S
H656 C594 0.959 . S
H657 C594 0.960 . S
H658 C597 0.929 . S
H659 C601 0.929 . S
H660 C602 0.959 . S
H661 C602 0.961 . S
H662 C602 0.961 . S
H663 C603 0.960 . S
H664 C603 0.960 . S
H665 C603 0.961 . S
H666 C605 0.980 . S
H667 C604 0.961 . S
H668 C604 0.960 . S
H669 C604 0.959 . S
H670 C607 0.930 . S
H671 C611 0.931 . S
H672 C612 0.959 . S
H673 C612 0.961 . S
H674 C612 0.959 . S
H675 C613 0.960 . S
H676 C613 0.960 . S
H677 C613 0.960 . S
H678 C649 0.980 . S
H679 C615 0.930 . S
H680 C619 0.930 . S
H681 C620 0.961 . S
H682 C620 0.960 . S
H683 C620 0.958 . S
H684 C621 0.961 . S
H685 C621 0.960 . S
H686 C621 0.960 . S
H687 C623 0.980 . S
H688 C622 0.961 . S
H689 C622 0.961 . S
H690 C622 0.959 . S
H691 C625 0.932 . S
H692 C629 0.929 . S
H693 C630 0.961 . S
H694 C630 0.959 . S
H695 C630 0.959 . S
H696 C631 0.960 . S
H697 C631 0.962 . S
H698 C631 0.961 . S
H699 C633 0.929 . S
H700 C636 0.930 . S
H701 C637 0.929 . S
H702 C640 0.930 . S
H703 C643 0.929 . S
H704 C644 0.930 . S
H705 C648 0.962 . S
H706 C648 0.959 . S
H707 C648 0.958 . S
C708 C709 1.560 . S
C708 H769 0.959 . S
C708 H770 0.959 . S
C708 H771 0.960 . S
C709 C708 1.560 . S
C709 O764 1.426 . S
C709 H768 0.980 . S
C710 C711 1.407 . S
C710 C715 1.418 . S
C710 O764 1.334 . S
C711 C710 1.407 . S
C711 C712 1.360 . S
C711 H772 0.929 . S
C712 C711 1.360 . S
C712 C713 1.401 . S
C712 C716 1.527 . S
C713 C712 1.401 . S
C713 C714 1.405 . S
C713 C746 1.587 . S
C714 C713 1.405 . S
C714 C715 1.332 . S
C714 C717 1.496 . S
C715 C710 1.418 . S
C715 C714 1.332 . S
C715 H773 0.929 . S
C716 C712 1.527 . S
C716 H774 0.959 . S
C716 H775 0.961 . S
C716 H776 0.961 . S
C717 C714 1.496 . S
C717 H777 0.960 . S
C717 H778 0.960 . S
C717 H779 0.961 . S
C718 C719 1.517 . S
C718 H781 0.961 . S
C718 H782 0.960 . S
C718 H783 0.959 . S
C719 C718 1.517 . S
C719 O767 1.468 . S
C719 H780 0.980 . S
C720 C721 1.349 . S
C720 C725 1.367 . S
C720 O767 1.408 . S
C721 C720 1.349 . S
C721 C722 1.407 . S
C721 H784 0.930 . S
C722 C721 1.407 . S
C722 C723 1.449 . S
C722 C726 1.535 . S
C723 C722 1.449 . S
C723 C724 1.384 . S
C723 C748 1.553 . S
C724 C723 1.384 . S
C724 C725 1.364 . S
C724 C727 1.450 . S
C725 C720 1.367 . S
C725 C724 1.364 . S
C725 H785 0.931 . S
C726 C722 1.535 . S
C726 H786 0.959 . S
C726 H787 0.961 . S
C726 H788 0.959 . S
C727 C724 1.450 . S
C727 H789 0.960 . S
C727 H790 0.960 . S
C727 H791 0.960 . S
C728 C729 1.309 . S
C728 C733 1.304 . S
C728 O766 1.435 . S
C729 C728 1.309 . S
C729 C730 1.476 . S
C729 H793 0.930 . S
C730 C729 1.476 . S
C730 C731 1.400 . S
C730 C734 1.567 . S
C731 C730 1.400 . S
C731 C732 1.373 . S
C731 C753 1.432 . S
C732 C731 1.373 . S
C732 C733 1.339 . S
C732 C735 1.530 . S
C733 C728 1.304 . S
C733 C732 1.339 . S
C733 H794 0.930 . S
C734 C730 1.567 . S
C734 H795 0.961 . S
C734 H796 0.960 . S
C734 H797 0.958 . S
C735 C732 1.530 . S
C735 H798 0.961 . S
C735 H799 0.960 . S
C735 H800 0.960 . S
C736 C737 1.530 . S
C736 H802 0.961 . S
C736 H803 0.961 . S
C736 H804 0.959 . S
C737 C736 1.530 . S
C737 O765 1.412 . S
C737 H801 0.980 . S
C738 C739 1.288 . S
C738 C743 1.377 . S
C738 O765 1.393 . S
C739 C738 1.288 . S
C739 C740 1.369 . S
C739 H805 0.932 . S
C740 C739 1.369 . S
C740 C741 1.398 . S
C740 C744 1.527 . S
C741 C740 1.398 . S
C741 C742 1.380 . S
C741 C755 1.497 . S
C742 C741 1.380 . S
C742 C743 1.383 . S
C742 C745 1.603 . S
C743 C738 1.377 . S
C743 C742 1.383 . S
C743 H806 0.929 . S
C744 C740 1.527 . S
C744 H807 0.961 . S
C744 H808 0.959 . S
C744 H809 0.959 . S
C745 C742 1.603 . S
C745 H810 0.960 . S
C745 H811 0.962 . S
C745 H812 0.961 . S
C746 C713 1.587 . S
C746 C747 1.360 . S
C746 C759 1.412 . S
C747 C746 1.360 . S
C747 C748 1.365 . S
C747 H813 0.929 . S
C748 C723 1.553 . S
C748 C747 1.365 . S
C748 C749 1.404 . S
C749 C748 1.404 . S
C749 C750 1.395 . S
C749 C760 1.451 . S
C750 C749 1.395 . S
C750 C751 1.322 . S
C750 H814 0.930 . S
C751 C750 1.322 . S
C751 C752 1.459 . S
C751 H815 0.929 . S
C752 C751 1.459 . S
C752 C753 1.445 . S
C752 C761 1.395 . S
C753 C731 1.432 . S
C753 C752 1.445 . S
C753 C754 1.370 . S
C754 C753 1.370 . S
C754 C755 1.438 . S
C754 H816 0.930 . S
C755 C741 1.497 . S
C755 C754 1.438 . S
C755 C756 1.360 . S
C756 C755 1.360 . S
C756 C757 1.401 . S
C756 C761 1.446 . S
C757 C756 1.401 . S
C757 C758 1.347 . S
C757 H817 0.929 . S
C758 C757 1.347 . S
C758 C759 1.455 . S
C758 H818 0.930 . S
C759 C746 1.412 . S
C759 C758 1.455 . S
C759 C760 1.331 . S
C760 C749 1.451 . S
C760 C759 1.331 . S
C760 C761 1.497 . S
C761 C752 1.395 . S
C761 C756 1.446 . S
C761 C760 1.497 . S
C762 C763 1.582 . S
C762 H819 0.962 . S
C762 H820 0.959 . S
C762 H821 0.958 . S
C763 C762 1.582 . S
C763 O766 1.458 . S
C763 H792 0.980 . S
O764 C709 1.426 . S
O764 C710 1.334 . S
O765 C737 1.412 . S
O765 C738 1.393 . S
O766 C728 1.435 . S
O766 C763 1.458 . S
O767 C719 1.468 . S
O767 C720 1.408 . S
H768 C709 0.980 . S
H769 C708 0.959 . S
H770 C708 0.959 . S
H771 C708 0.960 . S
H772 C711 0.929 . S
H773 C715 0.929 . S
H774 C716 0.959 . S
H775 C716 0.961 . S
H776 C716 0.961 . S
H777 C717 0.960 . S
H778 C717 0.960 . S
H779 C717 0.961 . S
H780 C719 0.980 . S
H781 C718 0.961 . S
H782 C718 0.960 . S
H783 C718 0.959 . S
H784 C721 0.930 . S
H785 C725 0.931 . S
H786 C726 0.959 . S
H787 C726 0.961 . S
H788 C726 0.959 . S
H789 C727 0.960 . S
H790 C727 0.960 . S
H791 C727 0.960 . S
H792 C763 0.980 . S
H793 C729 0.930 . S
H794 C733 0.930 . S
H795 C734 0.961 . S
H796 C734 0.960 . S
H797 C734 0.958 . S
H798 C735 0.961 . S
H799 C735 0.960 . S
H800 C735 0.960 . S
H801 C737 0.980 . S
H802 C736 0.961 . S
H803 C736 0.961 . S
H804 C736 0.959 . S
H805 C739 0.932 . S
H806 C743 0.929 . S
H807 C744 0.961 . S
H808 C744 0.959 . S
H809 C744 0.959 . S
H810 C745 0.960 . S
H811 C745 0.962 . S
H812 C745 0.961 . S
H813 C747 0.929 . S
H814 C750 0.930 . S
H815 C751 0.929 . S
H816 C754 0.930 . S
H817 C757 0.929 . S
H818 C758 0.930 . S
H819 C762 0.962 . S
H820 C762 0.959 . S
H821 C762 0.958 . S
C822 C823 1.560 . S
C822 H883 0.959 . S
C822 H884 0.959 . S
C822 H885 0.960 . S
C823 C822 1.560 . S
C823 O878 1.426 . S
C823 H882 0.980 . S
C824 C825 1.407 . S
C824 C829 1.418 . S
C824 O878 1.334 . S
C825 C824 1.407 . S
C825 C826 1.360 . S
C825 H886 0.929 . S
C826 C825 1.360 . S
C826 C827 1.401 . S
C826 C830 1.527 . S
C827 C826 1.401 . S
C827 C828 1.405 . S
C827 C860 1.587 . S
C828 C827 1.405 . S
C828 C829 1.332 . S
C828 C831 1.496 . S
C829 C824 1.418 . S
C829 C828 1.332 . S
C829 H887 0.929 . S
C830 C826 1.527 . S
C830 H888 0.959 . S
C830 H889 0.961 . S
C830 H890 0.961 . S
C831 C828 1.496 . S
C831 H891 0.960 . S
C831 H892 0.960 . S
C831 H893 0.961 . S
C832 C833 1.517 . S
C832 H895 0.961 . S
C832 H896 0.960 . S
C832 H897 0.959 . S
C833 C832 1.517 . S
C833 O881 1.468 . S
C833 H894 0.980 . S
C834 C835 1.349 . S
C834 C839 1.367 . S
C834 O881 1.408 . S
C835 C834 1.349 . S
C835 C836 1.407 . S
C835 H898 0.930 . S
C836 C835 1.407 . S
C836 C837 1.449 . S
C836 C840 1.535 . S
C837 C836 1.449 . S
C837 C838 1.384 . S
C837 C862 1.553 . S
C838 C837 1.384 . S
C838 C839 1.364 . S
C838 C841 1.450 . S
C839 C834 1.367 . S
C839 C838 1.364 . S
C839 H899 0.931 . S
C840 C836 1.535 . S
C840 H900 0.959 . S
C840 H901 0.961 . S
C840 H902 0.959 . S
C841 C838 1.450 . S
C841 H903 0.960 . S
C841 H904 0.960 . S
C841 H905 0.960 . S
C842 C843 1.309 . S
C842 C847 1.304 . S
C842 O880 1.435 . S
C843 C842 1.309 . S
C843 C844 1.476 . S
C843 H907 0.930 . S
C844 C843 1.476 . S
C844 C845 1.400 . S
C844 C848 1.567 . S
C845 C844 1.400 . S
C845 C846 1.373 . S
C845 C867 1.432 . S
C846 C845 1.373 . S
C846 C847 1.339 . S
C846 C849 1.530 . S
C847 C842 1.304 . S
C847 C846 1.339 . S
C847 H908 0.930 . S
C848 C844 1.567 . S
C848 H909 0.961 . S
C848 H910 0.960 . S
C848 H911 0.958 . S
C849 C846 1.530 . S
C849 H912 0.961 . S
C849 H913 0.960 . S
C849 H914 0.960 . S
C850 C851 1.530 . S
C850 H916 0.961 . S
C850 H917 0.961 . S
C850 H918 0.959 . S
C851 C850 1.530 . S
C851 O879 1.412 . S
C851 H915 0.980 . S
C852 C853 1.288 . S
C852 C857 1.377 . S
C852 O879 1.393 . S
C853 C852 1.288 . S
C853 C854 1.369 . S
C853 H919 0.932 . S
C854 C853 1.369 . S
C854 C855 1.398 . S
C854 C858 1.527 . S
C855 C854 1.398 . S
C855 C856 1.380 . S
C855 C869 1.497 . S
C856 C855 1.380 . S
C856 C857 1.383 . S
C856 C859 1.603 . S
C857 C852 1.377 . S
C857 C856 1.383 . S
C857 H920 0.929 . S
C858 C854 1.527 . S
C858 H921 0.961 . S
C858 H922 0.959 . S
C858 H923 0.959 . S
C859 C856 1.603 . S
C859 H924 0.960 . S
C859 H925 0.962 . S
C859 H926 0.961 . S
C860 C827 1.587 . S
C860 C861 1.360 . S
C860 C873 1.412 . S
C861 C860 1.360 . S
C861 C862 1.365 . S
C861 H927 0.929 . S
C862 C837 1.553 . S
C862 C861 1.365 . S
C862 C863 1.404 . S
C863 C862 1.404 . S
C863 C864 1.395 . S
C863 C874 1.451 . S
C864 C863 1.395 . S
C864 C865 1.322 . S
C864 H928 0.930 . S
C865 C864 1.322 . S
C865 C866 1.459 . S
C865 H929 0.929 . S
C866 C865 1.459 . S
C866 C867 1.445 . S
C866 C875 1.395 . S
C867 C845 1.432 . S
C867 C866 1.445 . S
C867 C868 1.370 . S
C868 C867 1.370 . S
C868 C869 1.438 . S
C868 H930 0.930 . S
C869 C855 1.497 . S
C869 C868 1.438 . S
C869 C870 1.360 . S
C870 C869 1.360 . S
C870 C871 1.401 . S
C870 C875 1.446 . S
C871 C870 1.401 . S
C871 C872 1.347 . S
C871 H931 0.929 . S
C872 C871 1.347 . S
C872 C873 1.455 . S
C872 H932 0.930 . S
C873 C860 1.412 . S
C873 C872 1.455 . S
C873 C874 1.331 . S
C874 C863 1.451 . S
C874 C873 1.331 . S
C874 C875 1.497 . S
C875 C866 1.395 . S
C875 C870 1.446 . S
C875 C874 1.497 . S
C876 C877 1.582 . S
C876 H933 0.962 . S
C876 H934 0.959 . S
C876 H935 0.958 . S
C877 C876 1.582 . S
C877 O880 1.458 . S
C877 H906 0.980 . S
O878 C823 1.426 . S
O878 C824 1.334 . S
O879 C851 1.412 . S
O879 C852 1.393 . S
O880 C842 1.435 . S
O880 C877 1.458 . S
O881 C833 1.468 . S
O881 C834 1.408 . S
H882 C823 0.980 . S
H883 C822 0.959 . S
H884 C822 0.959 . S
H885 C822 0.960 . S
H886 C825 0.929 . S
H887 C829 0.929 . S
H888 C830 0.959 . S
H889 C830 0.961 . S
H890 C830 0.961 . S
H891 C831 0.960 . S
H892 C831 0.960 . S
H893 C831 0.961 . S
H894 C833 0.980 . S
H895 C832 0.961 . S
H896 C832 0.960 . S
H897 C832 0.959 . S
H898 C835 0.930 . S
H899 C839 0.931 . S
H900 C840 0.959 . S
H901 C840 0.961 . S
H902 C840 0.959 . S
H903 C841 0.960 . S
H904 C841 0.960 . S
H905 C841 0.960 . S
H906 C877 0.980 . S
H907 C843 0.930 . S
H908 C847 0.930 . S
H909 C848 0.961 . S
H910 C848 0.960 . S
H911 C848 0.958 . S
H912 C849 0.961 . S
H913 C849 0.960 . S
H914 C849 0.960 . S
H915 C851 0.980 . S
H916 C850 0.961 . S
H917 C850 0.961 . S
H918 C850 0.959 . S
H919 C853 0.932 . S
H920 C857 0.929 . S
H921 C858 0.961 . S
H922 C858 0.959 . S
H923 C858 0.959 . S
H924 C859 0.960 . S
H925 C859 0.962 . S
H926 C859 0.961 . S
H927 C861 0.929 . S
H928 C864 0.930 . S
H929 C865 0.929 . S
H930 C868 0.930 . S
H931 C871 0.929 . S
H932 C872 0.930 . S
H933 C876 0.962 . S
H934 C876 0.959 . S
H935 C876 0.958 . S
C936 C937 1.560 . S
C936 H997 0.959 . S
C936 H998 0.959 . S
C936 H999 0.960 . S
C937 C936 1.560 . S
C937 O992 1.426 . S
C937 H996 0.980 . S
C938 C939 1.407 . S
C938 C943 1.418 . S
C938 O992 1.334 . S
C939 C938 1.407 . S
C939 C940 1.360 . S
C939 H1000 0.929 . S
C940 C939 1.360 . S
C940 C941 1.401 . S
C940 C944 1.527 . S
C941 C940 1.401 . S
C941 C942 1.405 . S
C941 C974 1.587 . S
C942 C941 1.405 . S
C942 C943 1.332 . S
C942 C945 1.496 . S
C943 C938 1.418 . S
C943 C942 1.332 . S
C943 H1001 0.929 . S
C944 C940 1.527 . S
C944 H1002 0.959 . S
C944 H1003 0.961 . S
C944 H1004 0.961 . S
C945 C942 1.496 . S
C945 H1005 0.960 . S
C945 H1006 0.960 . S
C945 H1007 0.961 . S
C946 C947 1.517 . S
C946 H1009 0.961 . S
C946 H1010 0.960 . S
C946 H1011 0.959 . S
C947 C946 1.517 . S
C947 O995 1.468 . S
C947 H1008 0.980 . S
C948 C949 1.349 . S
C948 C953 1.367 . S
C948 O995 1.408 . S
C949 C948 1.349 . S
C949 C950 1.407 . S
C949 H1012 0.930 . S
C950 C949 1.407 . S
C950 C951 1.449 . S
C950 C954 1.535 . S
C951 C950 1.449 . S
C951 C952 1.384 . S
C951 C976 1.553 . S
C952 C951 1.384 . S
C952 C953 1.364 . S
C952 C955 1.450 . S
C953 C948 1.367 . S
C953 C952 1.364 . S
C953 H1013 0.931 . S
C954 C950 1.535 . S
C954 H1014 0.959 . S
C954 H1015 0.961 . S
C954 H1016 0.959 . S
C955 C952 1.450 . S
C955 H1017 0.960 . S
C955 H1018 0.960 . S
C955 H1019 0.960 . S
C956 C957 1.309 . S
C956 C961 1.304 . S
C956 O994 1.435 . S
C957 C956 1.309 . S
C957 C958 1.476 . S
C957 H1021 0.930 . S
C958 C957 1.476 . S
C958 C959 1.400 . S
C958 C962 1.567 . S
C959 C958 1.400 . S
C959 C960 1.373 . S
C959 C981 1.432 . S
C960 C959 1.373 . S
C960 C961 1.339 . S
C960 C963 1.530 . S
C961 C956 1.304 . S
C961 C960 1.339 . S
C961 H1022 0.930 . S
C962 C958 1.567 . S
C962 H1023 0.961 . S
C962 H1024 0.960 . S
C962 H1025 0.958 . S
C963 C960 1.530 . S
C963 H1026 0.961 . S
C963 H1027 0.960 . S
C963 H1028 0.960 . S
C964 C965 1.530 . S
C964 H1030 0.961 . S
C964 H1031 0.961 . S
C964 H1032 0.959 . S
C965 C964 1.530 . S
C965 O993 1.412 . S
C965 H1029 0.980 . S
C966 C967 1.288 . S
C966 C971 1.377 . S
C966 O993 1.393 . S
C967 C966 1.288 . S
C967 C968 1.369 . S
C967 H1033 0.932 . S
C968 C967 1.369 . S
C968 C969 1.398 . S
C968 C972 1.527 . S
C969 C968 1.398 . S
C969 C970 1.380 . S
C969 C983 1.497 . S
C970 C969 1.380 . S
C970 C971 1.383 . S
C970 C973 1.603 . S
C971 C966 1.377 . S
C971 C970 1.383 . S
C971 H1034 0.929 . S
C972 C968 1.527 . S
C972 H1035 0.961 . S
C972 H1036 0.959 . S
C972 H1037 0.959 . S
C973 C970 1.603 . S
C973 H1038 0.960 . S
C973 H1039 0.962 . S
C973 H1040 0.961 . S
C974 C941 1.587 . S
C974 C975 1.360 . S
C974 C987 1.412 . S
C975 C974 1.360 . S
C975 C976 1.365 . S
C975 H1041 0.929 . S
C976 C951 1.553 . S
C976 C975 1.365 . S
C976 C977 1.404 . S
C977 C976 1.404 . S
C977 C978 1.395 . S
C977 C988 1.451 . S
C978 C977 1.395 . S
C978 C979 1.322 . S
C978 H1042 0.930 . S
C979 C978 1.322 . S
C979 C980 1.459 . S
C979 H1043 0.929 . S
C980 C979 1.459 . S
C980 C981 1.445 . S
C980 C989 1.395 . S
C981 C959 1.432 . S
C981 C980 1.445 . S
C981 C982 1.370 . S
C982 C981 1.370 . S
C982 C983 1.438 . S
C982 H1044 0.930 . S
C983 C969 1.497 . S
C983 C982 1.438 . S
C983 C984 1.360 . S
C984 C983 1.360 . S
C984 C985 1.401 . S
C984 C989 1.446 . S
C985 C984 1.401 . S
C985 C986 1.347 . S
C985 H1045 0.929 . S
C986 C985 1.347 . S
C986 C987 1.455 . S
C986 H1046 0.930 . S
C987 C974 1.412 . S
C987 C986 1.455 . S
C987 C988 1.331 . S
C988 C977 1.451 . S
C988 C987 1.331 . S
C988 C989 1.497 . S
C989 C980 1.395 . S
C989 C984 1.446 . S
C989 C988 1.497 . S
C990 C991 1.582 . S
C990 H1047 0.962 . S
C990 H1048 0.959 . S
C990 H1049 0.958 . S
C991 C990 1.582 . S
C991 O994 1.458 . S
C991 H1020 0.980 . S
O992 C937 1.426 . S
O992 C938 1.334 . S
O993 C965 1.412 . S
O993 C966 1.393 . S
O994 C956 1.435 . S
O994 C991 1.458 . S
O995 C947 1.468 . S
O995 C948 1.408 . S
H996 C937 0.980 . S
H997 C936 0.959 . S
H998 C936 0.959 . S
H999 C936 0.960 . S
H1000 C939 0.929 . S
H1001 C943 0.929 . S
H1002 C944 0.959 . S
H1003 C944 0.961 . S
H1004 C944 0.961 . S
H1005 C945 0.960 . S
H1006 C945 0.960 . S
H1007 C945 0.961 . S
H1008 C947 0.980 . S
H1009 C946 0.961 . S
H1010 C946 0.960 . S
H1011 C946 0.959 . S
H1012 C949 0.930 . S
H1013 C953 0.931 . S
H1014 C954 0.959 . S
H1015 C954 0.961 . S
H1016 C954 0.959 . S
H1017 C955 0.960 . S
H1018 C955 0.960 . S
H1019 C955 0.960 . S
H1020 C991 0.980 . S
H1021 C957 0.930 . S
H1022 C961 0.930 . S
H1023 C962 0.961 . S
H1024 C962 0.960 . S
H1025 C962 0.958 . S
H1026 C963 0.961 . S
H1027 C963 0.960 . S
H1028 C963 0.960 . S
H1029 C965 0.980 . S
H1030 C964 0.961 . S
H1031 C964 0.961 . S
H1032 C964 0.959 . S
H1033 C967 0.932 . S
H1034 C971 0.929 . S
H1035 C972 0.961 . S
H1036 C972 0.959 . S
H1037 C972 0.959 . S
H1038 C973 0.960 . S
H1039 C973 0.962 . S
H1040 C973 0.961 . S
H1041 C975 0.929 . S
H1042 C978 0.930 . S
H1043 C979 0.929 . S
H1044 C982 0.930 . S
H1045 C985 0.929 . S
H1046 C986 0.930 . S
H1047 C990 0.962 . S
H1048 C990 0.959 . S
H1049 C990 0.958 . S
C1050 C1051 1.560 . S
C1050 H1111 0.959 . S
C1050 H1112 0.959 . S
C1050 H1113 0.960 . S
C1051 C1050 1.560 . S
C1051 O1106 1.426 . S
C1051 H1110 0.980 . S
C1052 C1053 1.407 . S
C1052 C1057 1.418 . S
C1052 O1106 1.334 . S
C1053 C1052 1.407 . S
C1053 C1054 1.360 . S
C1053 H1114 0.929 . S
C1054 C1053 1.360 . S
C1054 C1055 1.401 . S
C1054 C1058 1.527 . S
C1055 C1054 1.401 . S
C1055 C1056 1.405 . S
C1055 C1088 1.587 . S
C1056 C1055 1.405 . S
C1056 C1057 1.332 . S
C1056 C1059 1.496 . S
C1057 C1052 1.418 . S
C1057 C1056 1.332 . S
C1057 H1115 0.929 . S
C1058 C1054 1.527 . S
C1058 H1116 0.959 . S
C1058 H1117 0.961 . S
C1058 H1118 0.961 . S
C1059 C1056 1.496 . S
C1059 H1119 0.960 . S
C1059 H1120 0.960 . S
C1059 H1121 0.961 . S
C1060 C1061 1.517 . S
C1060 H1123 0.961 . S
C1060 H1124 0.960 . S
C1060 H1125 0.959 . S
C1061 C1060 1.517 . S
C1061 O1109 1.468 . S
C1061 H1122 0.980 . S
C1062 C1063 1.349 . S
C1062 C1067 1.367 . S
C1062 O1109 1.408 . S
C1063 C1062 1.349 . S
C1063 C1064 1.407 . S
C1063 H1126 0.930 . S
C1064 C1063 1.407 . S
C1064 C1065 1.449 . S
C1064 C1068 1.535 . S
C1065 C1064 1.449 . S
C1065 C1066 1.384 . S
C1065 C1090 1.553 . S
C1066 C1065 1.384 . S
C1066 C1067 1.364 . S
C1066 C1069 1.450 . S
C1067 C1062 1.367 . S
C1067 C1066 1.364 . S
C1067 H1127 0.931 . S
C1068 C1064 1.535 . S
C1068 H1128 0.959 . S
C1068 H1129 0.961 . S
C1068 H1130 0.959 . S
C1069 C1066 1.450 . S
C1069 H1131 0.960 . S
C1069 H1132 0.960 . S
C1069 H1133 0.960 . S
C1070 C1071 1.309 . S
C1070 C1075 1.304 . S
C1070 O1108 1.435 . S
C1071 C1070 1.309 . S
C1071 C1072 1.476 . S
C1071 H1135 0.930 . S
C1072 C1071 1.476 . S
C1072 C1073 1.400 . S
C1072 C1076 1.567 . S
C1073 C1072 1.400 . S
C1073 C1074 1.373 . S
C1073 C1095 1.432 . S
C1074 C1073 1.373 . S
C1074 C1075 1.339 . S
C1074 C1077 1.530 . S
C1075 C1070 1.304 . S
C1075 C1074 1.339 . S
C1075 H1136 0.930 . S
C1076 C1072 1.567 . S
C1076 H1137 0.961 . S
C1076 H1138 0.960 . S
C1076 H1139 0.958 . S
C1077 C1074 1.530 . S
C1077 H1140 0.961 . S
C1077 H1141 0.960 . S
C1077 H1142 0.960 . S
C1078 C1079 1.530 . S
C1078 H1144 0.961 . S
C1078 H1145 0.961 . S
C1078 H1146 0.959 . S
C1079 C1078 1.530 . S
C1079 O1107 1.412 . S
C1079 H1143 0.980 . S
C1080 C1081 1.288 . S
C1080 C1085 1.377 . S
C1080 O1107 1.393 . S
C1081 C1080 1.288 . S
C1081 C1082 1.369 . S
C1081 H1147 0.932 . S
C1082 C1081 1.369 . S
C1082 C1083 1.398 . S
C1082 C1086 1.527 . S
C1083 C1082 1.398 . S
C1083 C1084 1.380 . S
C1083 C1097 1.497 . S
C1084 C1083 1.380 . S
C1084 C1085 1.383 . S
C1084 C1087 1.603 . S
C1085 C1080 1.377 . S
C1085 C1084 1.383 . S
C1085 H1148 0.929 . S
C1086 C1082 1.527 . S
C1086 H1149 0.961 . S
C1086 H1150 0.959 . S
C1086 H1151 0.959 . S
C1087 C1084 1.603 . S
C1087 H1152 0.960 . S
C1087 H1153 0.962 . S
C1087 H1154 0.961 . S
C1088 C1055 1.587 . S
C1088 C1089 1.360 . S
C1088 C1101 1.412 . S
C1089 C1088 1.360 . S
C1089 C1090 1.365 . S
C1089 H1155 0.929 . S
C1090 C1065 1.553 . S
C1090 C1089 1.365 . S
C1090 C1091 1.404 . S
C1091 C1090 1.404 . S
C1091 C1092 1.395 . S
C1091 C1102 1.451 . S
C1092 C1091 1.395 . S
C1092 C1093 1.322 . S
C1092 H1156 0.930 . S
C1093 C1092 1.322 . S
C1093 C1094 1.459 . S
C1093 H1157 0.929 . S
C1094 C1093 1.459 . S
C1094 C1095 1.445 . S
C1094 C1103 1.395 . S
C1095 C1073 1.432 . S
C1095 C1094 1.445 . S
C1095 C1096 1.370 . S
C1096 C1095 1.370 . S
C1096 C1097 1.438 . S
C1096 H1158 0.930 . S
C1097 C1083 1.497 . S
C1097 C1096 1.438 . S
C1097 C1098 1.360 . S
C1098 C1097 1.360 . S
C1098 C1099 1.401 . S
C1098 C1103 1.446 . S
C1099 C1098 1.401 . S
C1099 C1100 1.347 . S
C1099 H1159 0.929 . S
C1100 C1099 1.347 . S
C1100 C1101 1.455 . S
C1100 H1160 0.930 . S
C1101 C1088 1.412 . S
C1101 C1100 1.455 . S
C1101 C1102 1.331 . S
C1102 C1091 1.451 . S
C1102 C1101 1.331 . S
C1102 C1103 1.497 . S
C1103 C1094 1.395 . S
C1103 C1098 1.446 . S
C1103 C1102 1.497 . S
C1104 C1105 1.582 . S
C1104 H1161 0.962 . S
C1104 H1162 0.959 . S
C1104 H1163 0.958 . S
C1105 C1104 1.582 . S
C1105 O1108 1.458 . S
C1105 H1134 0.980 . S
O1106 C1051 1.426 . S
O1106 C1052 1.334 . S
O1107 C1079 1.412 . S
O1107 C1080 1.393 . S
O1108 C1070 1.435 . S
O1108 C1105 1.458 . S
O1109 C1061 1.468 . S
O1109 C1062 1.408 . S
H1110 C1051 0.980 . S
H1111 C1050 0.959 . S
H1112 C1050 0.959 . S
H1113 C1050 0.960 . S
H1114 C1053 0.929 . S
H1115 C1057 0.929 . S
H1116 C1058 0.959 . S
H1117 C1058 0.961 . S
H1118 C1058 0.961 . S
H1119 C1059 0.960 . S
H1120 C1059 0.960 . S
H1121 C1059 0.961 . S
H1122 C1061 0.980 . S
H1123 C1060 0.961 . S
H1124 C1060 0.960 . S
H1125 C1060 0.959 . S
H1126 C1063 0.930 . S
H1127 C1067 0.931 . S
H1128 C1068 0.959 . S
H1129 C1068 0.961 . S
H1130 C1068 0.959 . S
H1131 C1069 0.960 . S
H1132 C1069 0.960 . S
H1133 C1069 0.960 . S
H1134 C1105 0.980 . S
H1135 C1071 0.930 . S
H1136 C1075 0.930 . S
H1137 C1076 0.961 . S
H1138 C1076 0.960 . S
H1139 C1076 0.958 . S
H1140 C1077 0.961 . S
H1141 C1077 0.960 . S
H1142 C1077 0.960 . S
H1143 C1079 0.980 . S
H1144 C1078 0.961 . S
H1145 C1078 0.961 . S
H1146 C1078 0.959 . S
H1147 C1081 0.932 . S
H1148 C1085 0.929 . S
H1149 C1086 0.961 . S
H1150 C1086 0.959 . S
H1151 C1086 0.959 . S
H1152 C1087 0.960 . S
H1153 C1087 0.962 . S
H1154 C1087 0.961 . S
H1155 C1089 0.929 . S
H1156 C1092 0.930 . S
H1157 C1093 0.929 . S
H1158 C1096 0.930 . S
H1159 C1099 0.929 . S
H1160 C1100 0.930 . S
H1161 C1104 0.962 . S
H1162 C1104 0.959 . S
H1163 C1104 0.958 . S
C1164 C1165 1.560 . S
C1164 H1225 0.959 . S
C1164 H1226 0.959 . S
C1164 H1227 0.960 . S
C1165 C1164 1.560 . S
C1165 O1220 1.426 . S
C1165 H1224 0.980 . S
C1166 C1167 1.407 . S
C1166 C1171 1.418 . S
C1166 O1220 1.334 . S
C1167 C1166 1.407 . S
C1167 C1168 1.360 . S
C1167 H1228 0.929 . S
C1168 C1167 1.360 . S
C1168 C1169 1.401 . S
C1168 C1172 1.527 . S
C1169 C1168 1.401 . S
C1169 C1170 1.405 . S
C1169 C1202 1.587 . S
C1170 C1169 1.405 . S
C1170 C1171 1.332 . S
C1170 C1173 1.496 . S
C1171 C1166 1.418 . S
C1171 C1170 1.332 . S
C1171 H1229 0.929 . S
C1172 C1168 1.527 . S
C1172 H1230 0.959 . S
C1172 H1231 0.961 . S
C1172 H1232 0.961 . S
C1173 C1170 1.496 . S
C1173 H1233 0.960 . S
C1173 H1234 0.960 . S
C1173 H1235 0.961 . S
C1174 C1175 1.517 . S
C1174 H1237 0.961 . S
C1174 H1238 0.960 . S
C1174 H1239 0.959 . S
C1175 C1174 1.517 . S
C1175 O1223 1.468 . S
C1175 H1236 0.980 . S
C1176 C1177 1.349 . S
C1176 C1181 1.367 . S
C1176 O1223 1.408 . S
C1177 C1176 1.349 . S
C1177 C1178 1.407 . S
C1177 H1240 0.930 . S
C1178 C1177 1.407 . S
C1178 C1179 1.449 . S
C1178 C1182 1.535 . S
C1179 C1178 1.449 . S
C1179 C1180 1.384 . S
C1179 C1204 1.553 . S
C1180 C1179 1.384 . S
C1180 C1181 1.364 . S
C1180 C1183 1.450 . S
C1181 C1176 1.367 . S
C1181 C1180 1.364 . S
C1181 H1241 0.931 . S
C1182 C1178 1.535 . S
C1182 H1242 0.959 . S
C1182 H1243 0.961 . S
C1182 H1244 0.959 . S
C1183 C1180 1.450 . S
C1183 H1245 0.960 . S
C1183 H1246 0.960 . S
C1183 H1247 0.960 . S
C1184 C1185 1.309 . S
C1184 C1189 1.304 . S
C1184 O1222 1.435 . S
C1185 C1184 1.309 . S
C1185 C1186 1.476 . S
C1185 H1249 0.930 . S
C1186 C1185 1.476 . S
C1186 C1187 1.400 . S
C1186 C1190 1.567 . S
C1187 C1186 1.400 . S
C1187 C1188 1.373 . S
C1187 C1209 1.432 . S
C1188 C1187 1.373 . S
C1188 C1189 1.339 . S
C1188 C1191 1.530 . S
C1189 C1184 1.304 . S
C1189 C1188 1.339 . S
C1189 H1250 0.930 . S
C1190 C1186 1.567 . S
C1190 H1251 0.961 . S
C1190 H1252 0.960 . S
C1190 H1253 0.958 . S
C1191 C1188 1.530 . S
C1191 H1254 0.961 . S
C1191 H1255 0.960 . S
C1191 H1256 0.960 . S
C1192 C1193 1.530 . S
C1192 H1258 0.961 . S
C1192 H1259 0.961 . S
C1192 H1260 0.959 . S
C1193 C1192 1.530 . S
C1193 O1221 1.412 . S
C1193 H1257 0.980 . S
C1194 C1195 1.288 . S
C1194 C1199 1.377 . S
C1194 O1221 1.393 . S
C1195 C1194 1.288 . S
C1195 C1196 1.369 . S
C1195 H1261 0.932 . S
C1196 C1195 1.369 . S
C1196 C1197 1.398 . S
C1196 C1200 1.527 . S
C1197 C1196 1.398 . S
C1197 C1198 1.380 . S
C1197 C1211 1.497 . S
C1198 C1197 1.380 . S
C1198 C1199 1.383 . S
C1198 C1201 1.603 . S
C1199 C1194 1.377 . S
C1199 C1198 1.383 . S
C1199 H1262 0.929 . S
C1200 C1196 1.527 . S
C1200 H1263 0.961 . S
C1200 H1264 0.959 . S
C1200 H1265 0.959 . S
C1201 C1198 1.603 . S
C1201 H1266 0.960 . S
C1201 H1267 0.962 . S
C1201 H1268 0.961 . S
C1202 C1169 1.587 . S
C1202 C1203 1.360 . S
C1202 C1215 1.412 . S
C1203 C1202 1.360 . S
C1203 C1204 1.365 . S
C1203 H1269 0.929 . S
C1204 C1179 1.553 . S
C1204 C1203 1.365 . S
C1204 C1205 1.404 . S
C1205 C1204 1.404 . S
C1205 C1206 1.395 . S
C1205 C1216 1.451 . S
C1206 C1205 1.395 . S
C1206 C1207 1.322 . S
C1206 H1270 0.930 . S
C1207 C1206 1.322 . S
C1207 C1208 1.459 . S
C1207 H1271 0.929 . S
C1208 C1207 1.459 . S
C1208 C1209 1.445 . S
C1208 C1217 1.395 . S
C1209 C1187 1.432 . S
C1209 C1208 1.445 . S
C1209 C1210 1.370 . S
C1210 C1209 1.370 . S
C1210 C1211 1.438 . S
C1210 H1272 0.930 . S
C1211 C1197 1.497 . S
C1211 C1210 1.438 . S
C1211 C1212 1.360 . S
C1212 C1211 1.360 . S
C1212 C1213 1.401 . S
C1212 C1217 1.446 . S
C1213 C1212 1.401 . S
C1213 C1214 1.347 . S
C1213 H1273 0.929 . S
C1214 C1213 1.347 . S
C1214 C1215 1.455 . S
C1214 H1274 0.930 . S
C1215 C1202 1.412 . S
C1215 C1214 1.455 . S
C1215 C1216 1.331 . S
C1216 C1205 1.451 . S
C1216 C1215 1.331 . S
C1216 C1217 1.497 . S
C1217 C1208 1.395 . S
C1217 C1212 1.446 . S
C1217 C1216 1.497 . S
C1218 C1219 1.582 . S
C1218 H1275 0.962 . S
C1218 H1276 0.959 . S
C1218 H1277 0.958 . S
C1219 C1218 1.582 . S
C1219 O1222 1.458 . S
C1219 H1248 0.980 . S
O1220 C1165 1.426 . S
O1220 C1166 1.334 . S
O1221 C1193 1.412 . S
O1221 C1194 1.393 . S
O1222 C1184 1.435 . S
O1222 C1219 1.458 . S
O1223 C1175 1.468 . S
O1223 C1176 1.408 . S
H1224 C1165 0.980 . S
H1225 C1164 0.959 . S
H1226 C1164 0.959 . S
H1227 C1164 0.960 . S
H1228 C1167 0.929 . S
H1229 C1171 0.929 . S
H1230 C1172 0.959 . S
H1231 C1172 0.961 . S
H1232 C1172 0.961 . S
H1233 C1173 0.960 . S
H1234 C1173 0.960 . S
H1235 C1173 0.961 . S
H1236 C1175 0.980 . S
H1237 C1174 0.961 . S
H1238 C1174 0.960 . S
H1239 C1174 0.959 . S
H1240 C1177 0.930 . S
H1241 C1181 0.931 . S
H1242 C1182 0.959 . S
H1243 C1182 0.961 . S
H1244 C1182 0.959 . S
H1245 C1183 0.960 . S
H1246 C1183 0.960 . S
H1247 C1183 0.960 . S
H1248 C1219 0.980 . S
H1249 C1185 0.930 . S
H1250 C1189 0.930 . S
H1251 C1190 0.961 . S
H1252 C1190 0.960 . S
H1253 C1190 0.958 . S
H1254 C1191 0.961 . S
H1255 C1191 0.960 . S
H1256 C1191 0.960 . S
H1257 C1193 0.980 . S
H1258 C1192 0.961 . S
H1259 C1192 0.961 . S
H1260 C1192 0.959 . S
H1261 C1195 0.932 . S
H1262 C1199 0.929 . S
H1263 C1200 0.961 . S
H1264 C1200 0.959 . S
H1265 C1200 0.959 . S
H1266 C1201 0.960 . S
H1267 C1201 0.962 . S
H1268 C1201 0.961 . S
H1269 C1203 0.929 . S
H1270 C1206 0.930 . S
H1271 C1207 0.929 . S
H1272 C1210 0.930 . S
H1273 C1213 0.929 . S
H1274 C1214 0.930 . S
H1275 C1218 0.962 . S
H1276 C1218 0.959 . S
H1277 C1218 0.958 . S
C1278 C1279 1.560 . S
C1278 H1339 0.959 . S
C1278 H1340 0.959 . S
C1278 H1341 0.960 . S
C1279 C1278 1.560 . S
C1279 O1334 1.426 . S
C1279 H1338 0.980 . S
C1280 C1281 1.407 1_455 S
C1280 C1285 1.418 . S
C1280 O1334 1.334 . S
C1281 C1280 1.407 1_655 S
C1281 C1282 1.360 . S
C1281 H1342 0.929 . S
C1282 C1281 1.360 . S
C1282 C1283 1.401 1_655 S
C1282 C1286 1.527 . S
C1283 C1282 1.401 1_455 S
C1283 C1284 1.405 . S
C1283 C1316 1.587 1_455 S
C1284 C1283 1.405 . S
C1284 C1285 1.332 . S
C1284 C1287 1.496 . S
C1285 C1280 1.418 . S
C1285 C1284 1.332 . S
C1285 H1343 0.929 . S
C1286 C1282 1.527 . S
C1286 H1344 0.959 . S
C1286 H1345 0.961 . S
C1286 H1346 0.961 . S
C1287 C1284 1.496 . S
C1287 H1347 0.960 . S
C1287 H1348 0.960 . S
C1287 H1349 0.961 . S
C1288 C1289 1.517 . S
C1288 H1351 0.980 . S
C1288 H1352 0.960 . S
C1288 H1353 0.959 . S
C1289 C1288 1.517 . S
C1289 O1337 1.468 . S
C1289 H1350 0.980 1_655 S
C1290 C1291 1.349 . S
C1290 C1295 1.367 . S
C1290 O1337 1.408 . S
C1291 C1290 1.349 . S
C1291 C1292 1.407 1_655 S
C1291 H1354 0.930 1_655 S
C1292 C1291 1.407 1_455 S
C1292 C1293 1.449 1_455 S
C1292 C1296 1.535 . S
C1293 C1292 1.449 1_655 S
C1293 C1294 1.384 . S
C1293 C1318 1.553 . S
C1294 C1293 1.384 . S
C1294 C1295 1.364 . S
C1294 C1297 1.450 . S
C1295 C1290 1.367 . S
C1295 C1294 1.364 . S
C1295 H1355 0.931 . S
C1296 C1292 1.535 . S
C1296 H1356 0.959 . S
C1296 H1357 0.961 . S
C1296 H1358 0.959 . S
C1297 C1294 1.450 . S
C1297 H1359 0.960 . S
C1297 H1360 0.960 . S
C1297 H1361 0.960 . S
C1298 C1299 1.309 . S
C1298 C1303 1.304 . S
C1298 O1336 1.435 . S
C1299 C1298 1.309 . S
C1299 C1300 1.475 . S
C1299 H1363 0.930 1_655 S
C1300 C1299 1.475 . S
C1300 C1301 1.400 . S
C1300 C1304 1.567 1_655 S
C1301 C1300 1.400 . S
C1301 C1302 1.373 . S
C1301 C1323 1.432 . S
C1302 C1301 1.373 . S
C1302 C1303 1.339 . S
C1302 C1305 1.530 . S
C1303 C1298 1.304 . S
C1303 C1302 1.339 . S
C1303 H1364 0.930 . S
C1304 C1300 1.567 1_455 S
C1304 H1365 0.961 . S
C1304 H1366 0.960 . S
C1304 H1367 0.958 . S
C1305 C1302 1.530 . S
C1305 H1368 0.961 . S
C1305 H1369 0.960 . S
C1305 H1370 0.960 . S
C1306 C1307 1.523 1_455 S
C1306 H1372 0.961 . S
C1306 H1373 0.961 . S
C1306 H1374 0.959 . S
C1307 C1306 1.523 1_655 S
C1307 O1335 1.410 1_655 S
C1307 H1371 0.982 . S
C1308 C1309 1.288 . S
C1308 C1313 1.377 1_455 S
C1308 O1335 1.393 . S
C1309 C1308 1.288 . S
C1309 C1310 1.369 . S
C1309 H1375 0.932 . S
C1310 C1309 1.369 . S
C1310 C1311 1.398 1_455 S
C1310 C1314 1.527 . S
C1311 C1310 1.398 1_655 S
C1311 C1312 1.380 . S
C1311 C1325 1.497 . S
C1312 C1311 1.380 . S
C1312 C1313 1.383 . S
C1312 C1315 1.603 . S
C1313 C1308 1.377 1_655 S
C1313 C1312 1.383 . S
C1313 H1376 0.929 . S
C1314 C1310 1.527 . S
C1314 H1377 0.961 . S
C1314 H1378 0.959 . S
C1314 H1379 0.959 . S
C1315 C1312 1.603 . S
C1315 H1380 0.960 . S
C1315 H1381 0.962 . S
C1315 H1382 0.961 . S
C1316 C1283 1.587 1_655 S
C1316 C1317 1.360 . S
C1316 C1329 1.412 . S
C1317 C1316 1.360 . S
C1317 C1318 1.365 . S
C1317 H1383 0.929 . S
C1318 C1293 1.553 . S
C1318 C1317 1.365 . S
C1318 C1319 1.404 . S
C1319 C1318 1.404 . S
C1319 C1320 1.395 . S
C1319 C1330 1.451 . S
C1320 C1319 1.395 . S
C1320 C1321 1.322 . S
C1320 H1384 0.930 . S
C1321 C1320 1.322 . S
C1321 C1322 1.459 . S
C1321 H1385 0.929 . S
C1322 C1321 1.459 . S
C1322 C1323 1.445 . S
C1322 C1331 1.395 . S
C1323 C1301 1.432 . S
C1323 C1322 1.445 . S
C1323 C1324 1.370 . S
C1324 C1323 1.370 . S
C1324 C1325 1.438 . S
C1324 H1386 0.930 . S
C1325 C1311 1.497 . S
C1325 C1324 1.438 . S
C1325 C1326 1.360 . S
C1326 C1325 1.360 . S
C1326 C1327 1.401 . S
C1326 C1331 1.446 . S
C1327 C1326 1.401 . S
C1327 C1328 1.347 . S
C1327 H1387 0.929 . S
C1328 C1327 1.347 . S
C1328 C1329 1.455 . S
C1328 H1388 0.930 . S
C1329 C1316 1.412 . S
C1329 C1328 1.455 . S
C1329 C1330 1.331 . S
C1330 C1319 1.451 . S
C1330 C1329 1.331 . S
C1330 C1331 1.497 . S
C1331 C1322 1.395 . S
C1331 C1326 1.446 . S
C1331 C1330 1.497 . S
C1332 C1333 1.582 . S
C1332 H1389 0.962 . S
C1332 H1390 0.959 . S
C1332 H1391 0.958 . S
C1333 C1332 1.582 . S
C1333 O1336 1.458 . S
C1333 H1362 0.980 . S
O1334 C1279 1.426 . S
O1334 C1280 1.334 . S
O1335 C1307 1.410 1_455 S
O1335 C1308 1.393 . S
O1336 C1298 1.435 . S
O1336 C1333 1.458 . S
O1337 C1289 1.468 . S
O1337 C1290 1.408 . S
H1338 C1279 0.980 . S
H1339 C1278 0.959 . S
H1340 C1278 0.959 . S
H1341 C1278 0.960 . S
H1342 C1281 0.929 . S
H1343 C1285 0.929 . S
H1344 C1286 0.959 . S
H1345 C1286 0.961 . S
H1346 C1286 0.961 . S
H1347 C1287 0.960 . S
H1348 C1287 0.960 . S
H1349 C1287 0.961 . S
H1350 C1289 0.980 1_455 S
H1351 C1288 0.980 . S
H1352 C1288 0.960 . S
H1353 C1288 0.959 . S
H1354 C1291 0.930 1_455 S
H1355 C1295 0.931 . S
H1356 C1296 0.959 . S
H1357 C1296 0.961 . S
H1358 C1296 0.959 . S
H1359 C1297 0.960 . S
H1360 C1297 0.960 . S
H1361 C1297 0.960 . S
H1362 C1333 0.980 . S
H1363 C1299 0.930 1_455 S
H1364 C1303 0.930 . S
H1365 C1304 0.961 . S
H1366 C1304 0.960 . S
H1367 C1304 0.958 . S
H1368 C1305 0.961 . S
H1369 C1305 0.960 . S
H1370 C1305 0.960 . S
H1371 C1307 0.982 . S
H1372 C1306 0.961 . S
H1373 C1306 0.961 . S
H1374 C1306 0.959 . S
H1375 C1309 0.932 . S
H1376 C1313 0.929 . S
H1377 C1314 0.961 . S
H1378 C1314 0.959 . S
H1379 C1314 0.959 . S
H1380 C1315 0.960 . S
H1381 C1315 0.962 . S
H1382 C1315 0.961 . S
H1383 C1317 0.929 . S
H1384 C1320 0.930 . S
H1385 C1321 0.929 . S
H1386 C1324 0.930 . S
H1387 C1327 0.929 . S
H1388 C1328 0.930 . S
H1389 C1332 0.962 . S
H1390 C1332 0.959 . S
H1391 C1332 0.958 . S
C1392 C1393 1.560 . S
C1392 H1453 0.959 . S
C1392 H1454 0.959 . S
C1392 H1455 0.960 . S
C1393 C1392 1.560 . S
C1393 O1448 1.426 . S
C1393 H1452 0.980 . S
C1394 C1395 1.407 . S
C1394 C1399 1.418 . S
C1394 O1448 1.334 . S
C1395 C1394 1.407 . S
C1395 C1396 1.360 . S
C1395 H1456 0.929 . S
C1396 C1395 1.360 . S
C1396 C1397 1.401 . S
C1396 C1400 1.527 . S
C1397 C1396 1.401 . S
C1397 C1398 1.405 . S
C1397 C1430 1.587 . S
C1398 C1397 1.405 . S
C1398 C1399 1.332 . S
C1398 C1401 1.496 . S
C1399 C1394 1.418 . S
C1399 C1398 1.332 . S
C1399 H1457 0.929 . S
C1400 C1396 1.527 . S
C1400 H1458 0.959 . S
C1400 H1459 0.961 . S
C1400 H1460 0.961 . S
C1401 C1398 1.496 . S
C1401 H1461 0.960 . S
C1401 H1462 0.960 . S
C1401 H1463 0.961 . S
C1402 C1403 1.517 . S
C1402 H1465 0.961 . S
C1402 H1466 0.960 . S
C1402 H1467 0.959 . S
C1403 C1402 1.517 . S
C1403 O1451 1.468 . S
C1403 H1464 0.980 . S
C1404 C1405 1.349 . S
C1404 C1409 1.367 . S
C1404 O1451 1.408 . S
C1405 C1404 1.349 . S
C1405 C1406 1.407 . S
C1405 H1468 0.930 . S
C1406 C1405 1.407 . S
C1406 C1407 1.449 . S
C1406 C1410 1.535 . S
C1407 C1406 1.449 . S
C1407 C1408 1.384 . S
C1407 C1432 1.553 . S
C1408 C1407 1.384 . S
C1408 C1409 1.364 . S
C1408 C1411 1.450 . S
C1409 C1404 1.367 . S
C1409 C1408 1.364 . S
C1409 H1469 0.931 . S
C1410 C1406 1.535 . S
C1410 H1470 0.959 . S
C1410 H1471 0.961 . S
C1410 H1472 0.959 . S
C1411 C1408 1.450 . S
C1411 H1473 0.960 . S
C1411 H1474 0.960 . S
C1411 H1475 0.960 . S
C1412 C1413 1.309 . S
C1412 C1417 1.304 . S
C1412 O1450 1.435 . S
C1413 C1412 1.309 . S
C1413 C1414 1.476 . S
C1413 H1477 0.930 . S
C1414 C1413 1.476 . S
C1414 C1415 1.400 . S
C1414 C1418 1.567 . S
C1415 C1414 1.400 . S
C1415 C1416 1.373 . S
C1415 C1437 1.432 . S
C1416 C1415 1.373 . S
C1416 C1417 1.339 . S
C1416 C1419 1.530 . S
C1417 C1412 1.304 . S
C1417 C1416 1.339 . S
C1417 H1478 0.930 . S
C1418 C1414 1.567 . S
C1418 H1479 0.961 . S
C1418 H1480 0.960 . S
C1418 H1481 0.958 . S
C1419 C1416 1.530 . S
C1419 H1482 0.961 . S
C1419 H1483 0.960 . S
C1419 H1484 0.960 . S
C1420 C1421 1.530 . S
C1420 H1486 0.961 . S
C1420 H1487 0.961 . S
C1420 H1488 0.959 . S
C1421 C1420 1.530 . S
C1421 O1449 1.412 . S
C1421 H1485 0.980 . S
C1422 C1423 1.288 . S
C1422 C1427 1.377 . S
C1422 O1449 1.393 . S
C1423 C1422 1.288 . S
C1423 C1424 1.369 . S
C1423 H1489 0.932 . S
C1424 C1423 1.369 . S
C1424 C1425 1.398 . S
C1424 C1428 1.527 . S
C1425 C1424 1.398 . S
C1425 C1426 1.380 . S
C1425 C1439 1.497 . S
C1426 C1425 1.380 . S
C1426 C1427 1.383 . S
C1426 C1429 1.603 . S
C1427 C1422 1.377 . S
C1427 C1426 1.383 . S
C1427 H1490 0.929 . S
C1428 C1424 1.527 . S
C1428 H1491 0.961 . S
C1428 H1492 0.959 . S
C1428 H1493 0.959 . S
C1429 C1426 1.603 . S
C1429 H1494 0.960 . S
C1429 H1495 0.962 . S
C1429 H1496 0.961 . S
C1430 C1397 1.587 . S
C1430 C1431 1.360 . S
C1430 C1443 1.412 . S
C1431 C1430 1.360 . S
C1431 C1432 1.365 . S
C1431 H1497 0.929 . S
C1432 C1407 1.553 . S
C1432 C1431 1.365 . S
C1432 C1433 1.404 . S
C1433 C1432 1.404 . S
C1433 C1434 1.395 . S
C1433 C1444 1.451 . S
C1434 C1433 1.395 . S
C1434 C1435 1.322 . S
C1434 H1498 0.930 . S
C1435 C1434 1.322 . S
C1435 C1436 1.459 . S
C1435 H1499 0.929 . S
C1436 C1435 1.459 . S
C1436 C1437 1.445 . S
C1436 C1445 1.395 . S
C1437 C1415 1.432 . S
C1437 C1436 1.445 . S
C1437 C1438 1.370 . S
C1438 C1437 1.370 . S
C1438 C1439 1.438 . S
C1438 H1500 0.930 . S
C1439 C1425 1.497 . S
C1439 C1438 1.438 . S
C1439 C1440 1.360 . S
C1440 C1439 1.360 . S
C1440 C1441 1.401 . S
C1440 C1445 1.446 . S
C1441 C1440 1.401 . S
C1441 C1442 1.347 . S
C1441 H1501 0.929 . S
C1442 C1441 1.347 . S
C1442 C1443 1.455 . S
C1442 H1502 0.930 . S
C1443 C1430 1.412 . S
C1443 C1442 1.455 . S
C1443 C1444 1.331 . S
C1444 C1433 1.451 . S
C1444 C1443 1.331 . S
C1444 C1445 1.497 . S
C1445 C1436 1.395 . S
C1445 C1440 1.446 . S
C1445 C1444 1.497 . S
C1446 C1447 1.582 . S
C1446 H1503 0.962 . S
C1446 H1504 0.959 . S
C1446 H1505 0.958 . S
C1447 C1446 1.582 . S
C1447 O1450 1.458 . S
C1447 H1476 0.980 . S
O1448 C1393 1.426 . S
O1448 C1394 1.334 . S
O1449 C1421 1.412 . S
O1449 C1422 1.393 . S
O1450 C1412 1.435 . S
O1450 C1447 1.458 . S
O1451 C1403 1.468 . S
O1451 C1404 1.408 . S
H1452 C1393 0.980 . S
H1453 C1392 0.959 . S
H1454 C1392 0.959 . S
H1455 C1392 0.960 . S
H1456 C1395 0.929 . S
H1457 C1399 0.929 . S
H1458 C1400 0.959 . S
H1459 C1400 0.961 . S
H1460 C1400 0.961 . S
H1461 C1401 0.960 . S
H1462 C1401 0.960 . S
H1463 C1401 0.961 . S
H1464 C1403 0.980 . S
H1465 C1402 0.961 . S
H1466 C1402 0.960 . S
H1467 C1402 0.959 . S
H1468 C1405 0.930 . S
H1469 C1409 0.931 . S
H1470 C1410 0.959 . S
H1471 C1410 0.961 . S
H1472 C1410 0.959 . S
H1473 C1411 0.960 . S
H1474 C1411 0.960 . S
H1475 C1411 0.960 . S
H1476 C1447 0.980 . S
H1477 C1413 0.930 . S
H1478 C1417 0.930 . S
H1479 C1418 0.961 . S
H1480 C1418 0.960 . S
H1481 C1418 0.958 . S
H1482 C1419 0.961 . S
H1483 C1419 0.960 . S
H1484 C1419 0.960 . S
H1485 C1421 0.980 . S
H1486 C1420 0.961 . S
H1487 C1420 0.961 . S
H1488 C1420 0.959 . S
H1489 C1423 0.932 . S
H1490 C1427 0.929 . S
H1491 C1428 0.961 . S
H1492 C1428 0.959 . S
H1493 C1428 0.959 . S
H1494 C1429 0.960 . S
H1495 C1429 0.962 . S
H1496 C1429 0.961 . S
H1497 C1431 0.929 . S
H1498 C1434 0.930 . S
H1499 C1435 0.929 . S
H1500 C1438 0.930 . S
H1501 C1441 0.929 . S
H1502 C1442 0.930 . S
H1503 C1446 0.962 . S
H1504 C1446 0.959 . S
H1505 C1446 0.958 . S
C1506 C1507 1.560 . S
C1506 H1567 0.959 . S
C1506 H1568 0.959 . S
C1506 H1569 0.960 . S
C1507 C1506 1.560 . S
C1507 O1562 1.426 . S
C1507 H1566 0.980 . S
C1508 C1509 1.407 1_565 S
C1508 C1513 1.418 . S
C1508 O1562 1.334 . S
C1509 C1508 1.407 1_545 S
C1509 C1510 1.360 . S
C1509 H1570 0.929 . S
C1510 C1509 1.360 . S
C1510 C1511 1.401 1_545 S
C1510 C1514 1.527 . S
C1511 C1510 1.401 1_565 S
C1511 C1512 1.405 . S
C1511 C1544 1.587 1_565 S
C1512 C1511 1.405 . S
C1512 C1513 1.332 . S
C1512 C1515 1.496 . S
C1513 C1508 1.418 . S
C1513 C1512 1.332 . S
C1513 H1571 0.929 . S
C1514 C1510 1.527 . S
C1514 H1572 0.959 . S
C1514 H1573 0.961 . S
C1514 H1574 0.961 . S
C1515 C1512 1.496 . S
C1515 H1575 0.960 . S
C1515 H1576 0.960 . S
C1515 H1577 0.961 . S
C1516 C1517 1.517 . S
C1516 H1579 0.961 1_545 S
C1516 H1580 0.960 . S
C1516 H1581 0.959 . S
C1517 C1516 1.517 . S
C1517 O1565 1.468 . S
C1517 H1578 0.980 1_545 S
C1518 C1519 1.377 . S
C1518 C1523 1.367 . S
C1518 O1565 1.408 . S
C1519 C1518 1.377 . S
C1519 C1520 1.424 1_545 S
C1519 H1582 0.885 1_545 S
C1520 C1519 1.424 1_565 S
C1520 C1521 1.449 1_565 S
C1520 C1524 1.535 . S
C1521 C1520 1.449 1_545 S
C1521 C1522 1.384 . S
C1521 C1546 1.553 . S
C1522 C1521 1.384 . S
C1522 C1523 1.364 . S
C1522 C1525 1.450 . S
C1523 C1518 1.367 . S
C1523 C1522 1.364 . S
C1523 H1583 0.931 . S
C1524 C1520 1.535 . S
C1524 H1584 0.959 . S
C1524 H1585 0.961 . S
C1524 H1586 0.959 . S
C1525 C1522 1.450 . S
C1525 H1587 0.960 . S
C1525 H1588 0.960 . S
C1525 H1589 0.960 . S
C1526 C1527 1.309 . S
C1526 C1531 1.304 . S
C1526 O1564 1.435 . S
C1527 C1526 1.309 . S
C1527 C1528 1.496 1_545 S
C1527 H1591 0.930 1_545 S
C1528 C1527 1.496 1_565 S
C1528 C1529 1.337 1_565 S
C1528 C1532 1.610 . S
C1529 C1528 1.337 1_545 S
C1529 C1530 1.373 . S
C1529 C1551 1.432 . S
C1530 C1529 1.373 . S
C1530 C1531 1.339 . S
C1530 C1533 1.530 . S
C1531 C1526 1.304 . S
C1531 C1530 1.339 . S
C1531 H1592 0.930 . S
C1532 C1528 1.610 . S
C1532 H1593 0.961 . S
C1532 H1594 0.960 . S
C1532 H1595 0.958 . S
C1533 C1530 1.530 . S
C1533 H1596 0.961 . S
C1533 H1597 0.960 . S
C1533 H1598 0.960 . S
C1534 C1535 1.530 1_565 S
C1534 H1600 0.961 . S
C1534 H1601 0.961 . S
C1534 H1602 0.959 . S
C1535 C1534 1.530 1_545 S
C1535 O1563 1.412 1_545 S
C1535 H1599 0.980 . S
C1536 C1537 1.288 . S
C1536 C1541 1.377 1_565 S
C1536 O1563 1.393 . S
C1537 C1536 1.288 . S
C1537 C1538 1.369 . S
C1537 H1603 0.932 . S
C1538 C1537 1.369 . S
C1538 C1539 1.398 1_565 S
C1538 C1542 1.527 . S
C1539 C1538 1.398 1_545 S
C1539 C1540 1.380 . S
C1539 C1553 1.497 . S
C1540 C1539 1.380 . S
C1540 C1541 1.383 . S
C1540 C1543 1.603 . S
C1541 C1536 1.377 1_545 S
C1541 C1540 1.383 . S
C1541 H1604 0.929 . S
C1542 C1538 1.527 . S
C1542 H1605 0.961 . S
C1542 H1606 0.959 . S
C1542 H1607 0.959 . S
C1543 C1540 1.603 . S
C1543 H1608 0.960 . S
C1543 H1609 0.962 . S
C1543 H1610 0.961 . S
C1544 C1511 1.587 1_545 S
C1544 C1545 1.360 . S
C1544 C1557 1.412 . S
C1545 C1544 1.360 . S
C1545 C1546 1.365 . S
C1545 H1611 0.929 . S
C1546 C1521 1.553 . S
C1546 C1545 1.365 . S
C1546 C1547 1.404 . S
C1547 C1546 1.404 . S
C1547 C1548 1.395 . S
C1547 C1558 1.451 . S
C1548 C1547 1.395 . S
C1548 C1549 1.322 . S
C1548 H1612 0.930 . S
C1549 C1548 1.322 . S
C1549 C1550 1.459 . S
C1549 H1613 0.929 . S
C1550 C1549 1.459 . S
C1550 C1551 1.445 . S
C1550 C1559 1.395 . S
C1551 C1529 1.432 . S
C1551 C1550 1.445 . S
C1551 C1552 1.370 . S
C1552 C1551 1.370 . S
C1552 C1553 1.438 . S
C1552 H1614 0.930 . S
C1553 C1539 1.497 . S
C1553 C1552 1.438 . S
C1553 C1554 1.360 . S
C1554 C1553 1.360 . S
C1554 C1555 1.401 . S
C1554 C1559 1.446 . S
C1555 C1554 1.401 . S
C1555 C1556 1.347 . S
C1555 H1615 0.929 . S
C1556 C1555 1.347 . S
C1556 C1557 1.455 . S
C1556 H1616 0.930 . S
C1557 C1544 1.412 . S
C1557 C1556 1.455 . S
C1557 C1558 1.331 . S
C1558 C1547 1.451 . S
C1558 C1557 1.331 . S
C1558 C1559 1.497 . S
C1559 C1550 1.395 . S
C1559 C1554 1.446 . S
C1559 C1558 1.497 . S
C1560 C1561 1.582 . S
C1560 H1617 0.962 . S
C1560 H1618 0.959 . S
C1560 H1619 0.958 . S
C1561 C1560 1.582 . S
C1561 O1564 1.458 . S
C1561 H1590 0.980 . S
O1562 C1507 1.426 . S
O1562 C1508 1.334 . S
O1563 C1535 1.412 1_565 S
O1563 C1536 1.393 . S
O1564 C1526 1.435 . S
O1564 C1561 1.458 . S
O1565 C1517 1.468 . S
O1565 C1518 1.408 . S
H1566 C1507 0.980 . S
H1567 C1506 0.959 . S
H1568 C1506 0.959 . S
H1569 C1506 0.960 . S
H1570 C1509 0.929 . S
H1571 C1513 0.929 . S
H1572 C1514 0.959 . S
H1573 C1514 0.961 . S
H1574 C1514 0.961 . S
H1575 C1515 0.960 . S
H1576 C1515 0.960 . S
H1577 C1515 0.961 . S
H1578 C1517 0.980 1_565 S
H1579 C1516 0.961 1_565 S
H1580 C1516 0.960 . S
H1581 C1516 0.959 . S
H1582 C1519 0.885 1_565 S
H1583 C1523 0.931 . S
H1584 C1524 0.959 . S
H1585 C1524 0.961 . S
H1586 C1524 0.959 . S
H1587 C1525 0.960 . S
H1588 C1525 0.960 . S
H1589 C1525 0.960 . S
H1590 C1561 0.980 . S
H1591 C1527 0.930 1_565 S
H1592 C1531 0.930 . S
H1593 C1532 0.961 . S
H1594 C1532 0.960 . S
H1595 C1532 0.958 . S
H1596 C1533 0.961 . S
H1597 C1533 0.960 . S
H1598 C1533 0.960 . S
H1599 C1535 0.980 . S
H1600 C1534 0.961 . S
H1601 C1534 0.961 . S
H1602 C1534 0.959 . S
H1603 C1537 0.932 . S
H1604 C1541 0.929 . S
H1605 C1542 0.961 . S
H1606 C1542 0.959 . S
H1607 C1542 0.959 . S
H1608 C1543 0.960 . S
H1609 C1543 0.962 . S
H1610 C1543 0.961 . S
H1611 C1545 0.929 . S
H1612 C1548 0.930 . S
H1613 C1549 0.929 . S
H1614 C1552 0.930 . S
H1615 C1555 0.929 . S
H1616 C1556 0.930 . S
H1617 C1560 0.962 . S
H1618 C1560 0.959 . S
H1619 C1560 0.958 . S
C1620 C1621 1.560 . S
C1620 H1681 0.959 . S
C1620 H1682 0.959 . S
C1620 H1683 0.960 . S
C1621 C1620 1.560 . S
C1621 O1676 1.426 . S
C1621 H1680 0.980 1_565 S
C1622 C1623 1.407 1_565 S
C1622 C1627 1.418 . S
C1622 O1676 1.334 . S
C1623 C1622 1.407 1_545 S
C1623 C1624 1.360 . S
C1623 H1684 0.929 . S
C1624 C1623 1.360 . S
C1624 C1625 1.401 . S
C1624 C1628 1.527 . S
C1625 C1624 1.401 . S
C1625 C1626 1.405 1_545 S
C1625 C1658 1.587 . S
C1626 C1625 1.405 1_565 S
C1626 C1627 1.332 . S
C1626 C1629 1.496 . S
C1627 C1622 1.418 . S
C1627 C1626 1.332 . S
C1627 H1685 0.929 . S
C1628 C1624 1.527 . S
C1628 H1686 0.959 . S
C1628 H1687 0.961 . S
C1628 H1688 0.961 . S
C1629 C1626 1.496 . S
C1629 H1689 0.960 . S
C1629 H1690 0.960 . S
C1629 H1691 0.961 . S
C1630 C1631 1.517 . S
C1630 H1693 0.961 . S
C1630 H1694 0.960 . S
C1630 H1695 0.959 . S
C1631 C1630 1.517 . S
C1631 O1679 1.468 . S
C1631 H1692 0.980 . S
C1632 C1633 1.349 . S
C1632 C1637 1.367 . S
C1632 O1679 1.408 . S
C1633 C1632 1.349 . S
C1633 C1634 1.407 . S
C1633 H1696 0.933 1_545 S
C1634 C1633 1.407 . S
C1634 C1635 1.449 . S
C1634 C1638 1.535 1_545 S
C1635 C1634 1.449 . S
C1635 C1636 1.384 . S
C1635 C1660 1.553 . S
C1636 C1635 1.384 . S
C1636 C1637 1.364 . S
C1636 C1639 1.450 . S
C1637 C1632 1.367 . S
C1637 C1636 1.364 . S
C1637 H1697 0.931 . S
C1638 C1634 1.535 1_565 S
C1638 H1698 0.959 . S
C1638 H1699 0.961 . S
C1638 H1700 0.959 . S
C1639 C1636 1.450 . S
C1639 H1701 0.960 . S
C1639 H1702 0.960 . S
C1639 H1703 0.960 . S
C1640 C1641 1.309 1_545 S
C1640 C1645 1.304 . S
C1640 O1678 1.435 . S
C1641 C1640 1.309 1_565 S
C1641 C1642 1.476 . S
C1641 H1705 0.930 . S
C1642 C1641 1.476 . S
C1642 C1643 1.400 1_565 S
C1642 C1646 1.567 . S
C1643 C1642 1.400 1_545 S
C1643 C1644 1.373 . S
C1643 C1665 1.432 . S
C1644 C1643 1.373 . S
C1644 C1645 1.339 . S
C1644 C1647 1.530 . S
C1645 C1640 1.304 . S
C1645 C1644 1.339 . S
C1645 H1706 0.930 . S
C1646 C1642 1.567 . S
C1646 H1707 0.961 . S
C1646 H1708 0.960 . S
C1646 H1709 0.958 . S
C1647 C1644 1.530 . S
C1647 H1710 0.961 . S
C1647 H1711 0.960 . S
C1647 H1712 0.960 . S
C1648 C1649 1.530 . S
C1648 H1714 0.961 . S
C1648 H1715 0.961 . S
C1648 H1716 0.959 . S
C1649 C1648 1.530 . S
C1649 O1677 1.412 . S
C1649 H1713 1.006 . S
C1650 C1651 1.288 . S
C1650 C1655 1.377 1_565 S
C1650 O1677 1.393 . S
C1651 C1650 1.288 . S
C1651 C1652 1.369 . S
C1651 H1717 0.932 . S
C1652 C1651 1.369 . S
C1652 C1653 1.398 . S
C1652 C1656 1.527 . S
C1653 C1652 1.398 . S
C1653 C1654 1.380 1_565 S
C1653 C1667 1.497 1_565 S
C1654 C1653 1.380 1_545 S
C1654 C1655 1.383 . S
C1654 C1657 1.603 . S
C1655 C1650 1.377 1_545 S
C1655 C1654 1.383 . S
C1655 H1718 0.929 . S
C1656 C1652 1.527 . S
C1656 H1719 0.961 . S
C1656 H1720 0.959 . S
C1656 H1721 0.959 . S
C1657 C1654 1.603 . S
C1657 H1722 0.960 . S
C1657 H1723 0.962 . S
C1657 H1724 0.961 . S
C1658 C1625 1.587 . S
C1658 C1659 1.360 . S
C1658 C1671 1.412 . S
C1659 C1658 1.360 . S
C1659 C1660 1.365 . S
C1659 H1725 0.929 . S
C1660 C1635 1.553 . S
C1660 C1659 1.365 . S
C1660 C1661 1.404 . S
C1661 C1660 1.404 . S
C1661 C1662 1.395 . S
C1661 C1672 1.451 . S
C1662 C1661 1.395 . S
C1662 C1663 1.322 . S
C1662 H1726 0.930 . S
C1663 C1662 1.322 . S
C1663 C1664 1.459 . S
C1663 H1727 0.929 . S
C1664 C1663 1.459 . S
C1664 C1665 1.445 . S
C1664 C1673 1.395 . S
C1665 C1643 1.432 . S
C1665 C1664 1.445 . S
C1665 C1666 1.370 . S
C1666 C1665 1.370 . S
C1666 C1667 1.438 . S
C1666 H1728 0.930 . S
C1667 C1653 1.497 1_545 S
C1667 C1666 1.438 . S
C1667 C1668 1.360 . S
C1668 C1667 1.360 . S
C1668 C1669 1.401 . S
C1668 C1673 1.446 . S
C1669 C1668 1.401 . S
C1669 C1670 1.347 . S
C1669 H1729 0.957 . S
C1670 C1669 1.347 . S
C1670 C1671 1.455 . S
C1670 H1730 0.930 . S
C1671 C1658 1.412 . S
C1671 C1670 1.455 . S
C1671 C1672 1.331 . S
C1672 C1661 1.451 . S
C1672 C1671 1.331 . S
C1672 C1673 1.497 . S
C1673 C1664 1.395 . S
C1673 C1668 1.446 . S
C1673 C1672 1.497 . S
C1674 C1675 1.582 . S
C1674 H1731 0.962 . S
C1674 H1732 0.959 . S
C1674 H1733 0.958 . S
C1675 C1674 1.582 . S
C1675 O1678 1.458 . S
C1675 H1704 0.980 1_545 S
O1676 C1621 1.426 . S
O1676 C1622 1.334 . S
O1677 C1649 1.412 . S
O1677 C1650 1.393 . S
O1678 C1640 1.435 . S
O1678 C1675 1.458 . S
O1679 C1631 1.468 . S
O1679 C1632 1.408 . S
H1680 C1621 0.980 1_545 S
H1681 C1620 0.959 . S
H1682 C1620 0.959 . S
H1683 C1620 0.960 . S
H1684 C1623 0.929 . S
H1685 C1627 0.929 . S
H1686 C1628 0.959 . S
H1687 C1628 0.961 . S
H1688 C1628 0.961 . S
H1689 C1629 0.960 . S
H1690 C1629 0.960 . S
H1691 C1629 0.961 . S
H1692 C1631 0.980 . S
H1693 C1630 0.961 . S
H1694 C1630 0.960 . S
H1695 C1630 0.959 . S
H1696 C1633 0.933 1_565 S
H1697 C1637 0.931 . S
H1698 C1638 0.959 . S
H1699 C1638 0.961 . S
H1700 C1638 0.959 . S
H1701 C1639 0.960 . S
H1702 C1639 0.960 . S
H1703 C1639 0.960 . S
H1704 C1675 0.980 1_565 S
H1705 C1641 0.930 . S
H1706 C1645 0.930 . S
H1707 C1646 0.961 . S
H1708 C1646 0.960 . S
H1709 C1646 0.958 . S
H1710 C1647 0.961 . S
H1711 C1647 0.960 . S
H1712 C1647 0.960 . S
H1713 C1649 1.006 . S
H1714 C1648 0.961 . S
H1715 C1648 0.961 . S
H1716 C1648 0.959 . S
H1717 C1651 0.932 . S
H1718 C1655 0.929 . S
H1719 C1656 0.961 . S
H1720 C1656 0.959 . S
H1721 C1656 0.959 . S
H1722 C1657 0.960 . S
H1723 C1657 0.962 . S
H1724 C1657 0.961 . S
H1725 C1659 0.929 . S
H1726 C1662 0.930 . S
H1727 C1663 0.929 . S
H1728 C1666 0.930 . S
H1729 C1669 0.957 . S
H1730 C1670 0.930 . S
H1731 C1674 0.962 . S
H1732 C1674 0.959 . S
H1733 C1674 0.958 . S
C1734 C1735 1.560 . S
C1734 H1795 0.959 . S
C1734 H1796 0.959 . S
C1734 H1797 0.960 . S
C1735 C1734 1.560 . S
C1735 O1790 1.426 . S
C1735 H1794 0.980 1_455 S
C1736 C1737 1.407 1_455 S
C1736 C1741 1.418 . S
C1736 O1790 1.334 . S
C1737 C1736 1.407 1_655 S
C1737 C1738 1.360 . S
C1737 H1798 0.929 . S
C1738 C1737 1.360 . S
C1738 C1739 1.401 . S
C1738 C1742 1.527 . S
C1739 C1738 1.401 . S
C1739 C1740 1.405 1_655 S
C1739 C1772 1.587 . S
C1740 C1739 1.405 1_455 S
C1740 C1741 1.332 . S
C1740 C1743 1.496 . S
C1741 C1736 1.418 . S
C1741 C1740 1.332 . S
C1741 H1799 0.929 . S
C1742 C1738 1.527 . S
C1742 H1800 0.959 . S
C1742 H1801 0.961 . S
C1742 H1802 0.961 . S
C1743 C1740 1.496 . S
C1743 H1803 0.960 . S
C1743 H1804 0.960 . S
C1743 H1805 0.961 . S
C1744 C1745 1.517 . S
C1744 H1807 0.961 . S
C1744 H1808 0.960 . S
C1744 H1809 0.959 . S
C1745 C1744 1.517 . S
C1745 O1793 1.468 . S
C1745 H1806 0.980 . S
C1746 C1747 1.349 . S
C1746 C1751 1.367 . S
C1746 O1793 1.408 . S
C1747 C1746 1.349 . S
C1747 C1748 1.407 . S
C1747 H1810 0.886 1_655 S
C1748 C1747 1.407 . S
C1748 C1749 1.449 . S
C1748 C1752 1.535 1_655 S
C1749 C1748 1.449 . S
C1749 C1750 1.384 . S
C1749 C1774 1.553 . S
C1750 C1749 1.384 . S
C1750 C1751 1.364 . S
C1750 C1753 1.450 . S
C1751 C1746 1.367 . S
C1751 C1750 1.364 . S
C1751 H1811 0.931 . S
C1752 C1748 1.535 1_455 S
C1752 H1812 0.959 . S
C1752 H1813 0.961 . S
C1752 H1814 0.959 . S
C1753 C1750 1.450 . S
C1753 H1815 0.960 . S
C1753 H1816 0.960 . S
C1753 H1817 0.960 . S
C1754 C1755 1.309 1_655 S
C1754 C1759 1.304 . S
C1754 O1792 1.435 . S
C1755 C1754 1.309 1_455 S
C1755 C1756 1.476 . S
C1755 H1819 0.930 . S
C1756 C1755 1.476 . S
C1756 C1757 1.400 1_455 S
C1756 C1760 1.567 . S
C1757 C1756 1.400 1_655 S
C1757 C1758 1.373 . S
C1757 C1779 1.432 . S
C1758 C1757 1.373 . S
C1758 C1759 1.339 . S
C1758 C1761 1.530 . S
C1759 C1754 1.304 . S
C1759 C1758 1.339 . S
C1759 H1820 0.930 . S
C1760 C1756 1.567 . S
C1760 H1821 0.961 . S
C1760 H1822 0.960 . S
C1760 H1823 0.958 . S
C1761 C1758 1.530 . S
C1761 H1824 0.961 . S
C1761 H1825 0.960 . S
C1761 H1826 0.960 . S
C1762 C1763 1.530 . S
C1762 H1828 0.961 . S
C1762 H1829 0.961 . S
C1762 H1830 0.959 . S
C1763 C1762 1.530 . S
C1763 O1791 1.412 . S
C1763 H1827 0.966 1_455 S
C1764 C1765 1.288 . S
C1764 C1769 1.377 1_455 S
C1764 O1791 1.393 . S
C1765 C1764 1.288 . S
C1765 C1766 1.369 . S
C1765 H1831 0.932 . S
C1766 C1765 1.369 . S
C1766 C1767 1.398 . S
C1766 C1770 1.527 . S
C1767 C1766 1.398 . S
C1767 C1768 1.380 1_455 S
C1767 C1781 1.497 1_455 S
C1768 C1767 1.380 1_655 S
C1768 C1769 1.383 . S
C1768 C1771 1.603 . S
C1769 C1764 1.377 1_655 S
C1769 C1768 1.383 . S
C1769 H1832 0.929 . S
C1770 C1766 1.527 . S
C1770 H1833 0.961 . S
C1770 H1834 0.959 . S
C1770 H1835 0.959 . S
C1771 C1768 1.603 . S
C1771 H1836 0.960 . S
C1771 H1837 0.962 . S
C1771 H1838 0.961 . S
C1772 C1739 1.587 . S
C1772 C1773 1.360 . S
C1772 C1785 1.412 . S
C1773 C1772 1.360 . S
C1773 C1774 1.365 . S
C1773 H1839 0.929 . S
C1774 C1749 1.553 . S
C1774 C1773 1.365 . S
C1774 C1775 1.404 . S
C1775 C1774 1.404 . S
C1775 C1776 1.395 . S
C1775 C1786 1.451 . S
C1776 C1775 1.395 . S
C1776 C1777 1.322 . S
C1776 H1840 0.930 . S
C1777 C1776 1.322 . S
C1777 C1778 1.459 . S
C1777 H1841 0.929 . S
C1778 C1777 1.459 . S
C1778 C1779 1.445 . S
C1778 C1787 1.395 . S
C1779 C1757 1.432 . S
C1779 C1778 1.445 . S
C1779 C1780 1.370 . S
C1780 C1779 1.370 . S
C1780 C1781 1.438 . S
C1780 H1842 0.930 . S
C1781 C1767 1.497 1_655 S
C1781 C1780 1.438 . S
C1781 C1782 1.360 . S
C1782 C1781 1.360 . S
C1782 C1783 1.401 . S
C1782 C1787 1.446 . S
C1783 C1782 1.401 . S
C1783 C1784 1.347 . S
C1783 H1843 0.929 . S
C1784 C1783 1.347 . S
C1784 C1785 1.455 . S
C1784 H1844 0.930 . S
C1785 C1772 1.412 . S
C1785 C1784 1.455 . S
C1785 C1786 1.331 . S
C1786 C1775 1.451 . S
C1786 C1785 1.331 . S
C1786 C1787 1.497 . S
C1787 C1778 1.395 . S
C1787 C1782 1.446 . S
C1787 C1786 1.497 . S
C1788 C1789 1.582 1_655 S
C1788 H1845 0.967 1_655 S
C1788 H1846 0.959 . S
C1788 H1847 0.958 . S
C1789 C1788 1.582 1_455 S
C1789 O1792 1.390 1_455 S
C1789 H1818 1.008 . S
O1790 C1735 1.426 . S
O1790 C1736 1.334 . S
O1791 C1763 1.412 . S
O1791 C1764 1.393 . S
O1792 C1754 1.435 . S
O1792 C1789 1.390 1_655 S
O1793 C1745 1.468 . S
O1793 C1746 1.408 . S
H1794 C1735 0.980 1_655 S
H1795 C1734 0.959 . S
H1796 C1734 0.959 . S
H1797 C1734 0.960 . S
H1798 C1737 0.929 . S
H1799 C1741 0.929 . S
H1800 C1742 0.959 . S
H1801 C1742 0.961 . S
H1802 C1742 0.961 . S
H1803 C1743 0.960 . S
H1804 C1743 0.960 . S
H1805 C1743 0.961 . S
H1806 C1745 0.980 . S
H1807 C1744 0.961 . S
H1808 C1744 0.960 . S
H1809 C1744 0.959 . S
H1810 C1747 0.886 1_455 S
H1811 C1751 0.931 . S
H1812 C1752 0.959 . S
H1813 C1752 0.961 . S
H1814 C1752 0.959 . S
H1815 C1753 0.960 . S
H1816 C1753 0.960 . S
H1817 C1753 0.960 . S
H1818 C1789 1.008 . S
H1819 C1755 0.930 . S
H1820 C1759 0.930 . S
H1821 C1760 0.961 . S
H1822 C1760 0.960 . S
H1823 C1760 0.958 . S
H1824 C1761 0.961 . S
H1825 C1761 0.960 . S
H1826 C1761 0.960 . S
H1827 C1763 0.966 1_655 S
H1828 C1762 0.961 . S
H1829 C1762 0.961 . S
H1830 C1762 0.959 . S
H1831 C1765 0.932 . S
H1832 C1769 0.929 . S
H1833 C1770 0.961 . S
H1834 C1770 0.959 . S
H1835 C1770 0.959 . S
H1836 C1771 0.960 . S
H1837 C1771 0.962 . S
H1838 C1771 0.961 . S
H1839 C1773 0.929 . S
H1840 C1776 0.930 . S
H1841 C1777 0.929 . S
H1842 C1780 0.930 . S
H1843 C1783 0.929 . S
H1844 C1784 0.930 . S
H1845 C1788 0.967 1_455 S
H1846 C1788 0.959 . S
H1847 C1788 0.958 . S
C1848 C1849 1.560 . S
C1848 H1909 0.959 . S
C1848 H1910 0.959 . S
C1848 H1911 0.960 . S
C1849 C1848 1.560 . S
C1849 O1904 1.426 . S
C1849 H1908 0.980 . S
C1850 C1851 1.407 . S
C1850 C1855 1.418 . S
C1850 O1904 1.334 . S
C1851 C1850 1.407 . S
C1851 C1852 1.360 . S
C1851 H1912 0.929 . S
C1852 C1851 1.360 . S
C1852 C1853 1.401 . S
C1852 C1856 1.527 . S
C1853 C1852 1.401 . S
C1853 C1854 1.405 . S
C1853 C1886 1.587 . S
C1854 C1853 1.405 . S
C1854 C1855 1.332 . S
C1854 C1857 1.496 . S
C1855 C1850 1.418 . S
C1855 C1854 1.332 . S
C1855 H1913 0.929 . S
C1856 C1852 1.527 . S
C1856 H1914 0.959 . S
C1856 H1915 0.961 . S
C1856 H1916 0.961 . S
C1857 C1854 1.496 . S
C1857 H1917 0.960 . S
C1857 H1918 0.960 . S
C1857 H1919 0.961 . S
C1858 C1859 1.517 . S
C1858 H1921 0.961 . S
C1858 H1922 0.960 . S
C1858 H1923 0.959 . S
C1859 C1858 1.517 . S
C1859 O1907 1.468 . S
C1859 H1920 0.980 . S
C1860 C1861 1.349 . S
C1860 C1865 1.367 . S
C1860 O1907 1.408 . S
C1861 C1860 1.349 . S
C1861 C1862 1.407 . S
C1861 H1924 0.930 . S
C1862 C1861 1.407 . S
C1862 C1863 1.449 . S
C1862 C1866 1.535 . S
C1863 C1862 1.449 . S
C1863 C1864 1.384 . S
C1863 C1888 1.553 . S
C1864 C1863 1.384 . S
C1864 C1865 1.364 . S
C1864 C1867 1.450 . S
C1865 C1860 1.367 . S
C1865 C1864 1.364 . S
C1865 H1925 0.931 . S
C1866 C1862 1.535 . S
C1866 H1926 0.959 . S
C1866 H1927 0.961 . S
C1866 H1928 0.959 . S
C1867 C1864 1.450 . S
C1867 H1929 0.960 . S
C1867 H1930 0.960 . S
C1867 H1931 0.960 . S
C1868 C1869 1.309 . S
C1868 C1873 1.304 . S
C1868 O1906 1.435 . S
C1869 C1868 1.309 . S
C1869 C1870 1.476 . S
C1869 H1933 0.930 . S
C1870 C1869 1.476 . S
C1870 C1871 1.400 . S
C1870 C1874 1.567 . S
C1871 C1870 1.400 . S
C1871 C1872 1.373 . S
C1871 C1893 1.432 . S
C1872 C1871 1.373 . S
C1872 C1873 1.339 . S
C1872 C1875 1.530 . S
C1873 C1868 1.304 . S
C1873 C1872 1.339 . S
C1873 H1934 0.930 . S
C1874 C1870 1.567 . S
C1874 H1935 0.961 . S
C1874 H1936 0.960 . S
C1874 H1937 0.958 . S
C1875 C1872 1.530 . S
C1875 H1938 0.961 . S
C1875 H1939 0.960 . S
C1875 H1940 0.960 . S
C1876 C1877 1.530 . S
C1876 H1942 0.961 . S
C1876 H1943 0.961 . S
C1876 H1944 0.959 . S
C1877 C1876 1.530 . S
C1877 O1905 1.412 . S
C1877 H1941 0.980 . S
C1878 C1879 1.288 . S
C1878 C1883 1.377 . S
C1878 O1905 1.393 . S
C1879 C1878 1.288 . S
C1879 C1880 1.369 . S
C1879 H1945 0.932 . S
C1880 C1879 1.369 . S
C1880 C1881 1.398 . S
C1880 C1884 1.527 . S
C1881 C1880 1.398 . S
C1881 C1882 1.380 . S
C1881 C1895 1.497 . S
C1882 C1881 1.380 . S
C1882 C1883 1.383 . S
C1882 C1885 1.603 . S
C1883 C1878 1.377 . S
C1883 C1882 1.383 . S
C1883 H1946 0.929 . S
C1884 C1880 1.527 . S
C1884 H1947 0.961 . S
C1884 H1948 0.959 . S
C1884 H1949 0.959 . S
C1885 C1882 1.603 . S
C1885 H1950 0.960 . S
C1885 H1951 0.962 . S
C1885 H1952 0.961 . S
C1886 C1853 1.587 . S
C1886 C1887 1.360 . S
C1886 C1899 1.412 . S
C1887 C1886 1.360 . S
C1887 C1888 1.365 . S
C1887 H1953 0.929 . S
C1888 C1863 1.553 . S
C1888 C1887 1.365 . S
C1888 C1889 1.404 . S
C1889 C1888 1.404 . S
C1889 C1890 1.395 . S
C1889 C1900 1.451 . S
C1890 C1889 1.395 . S
C1890 C1891 1.322 . S
C1890 H1954 0.930 . S
C1891 C1890 1.322 . S
C1891 C1892 1.459 . S
C1891 H1955 0.929 . S
C1892 C1891 1.459 . S
C1892 C1893 1.445 . S
C1892 C1901 1.395 . S
C1893 C1871 1.432 . S
C1893 C1892 1.445 . S
C1893 C1894 1.370 . S
C1894 C1893 1.370 . S
C1894 C1895 1.438 . S
C1894 H1956 0.930 . S
C1895 C1881 1.497 . S
C1895 C1894 1.438 . S
C1895 C1896 1.360 . S
C1896 C1895 1.360 . S
C1896 C1897 1.401 . S
C1896 C1901 1.446 . S
C1897 C1896 1.401 . S
C1897 C1898 1.347 . S
C1897 H1957 0.929 . S
C1898 C1897 1.347 . S
C1898 C1899 1.455 . S
C1898 H1958 0.930 . S
C1899 C1886 1.412 . S
C1899 C1898 1.455 . S
C1899 C1900 1.331 . S
C1900 C1889 1.451 . S
C1900 C1899 1.331 . S
C1900 C1901 1.497 . S
C1901 C1892 1.395 . S
C1901 C1896 1.446 . S
C1901 C1900 1.497 . S
C1902 C1903 1.582 . S
C1902 H1959 0.962 . S
C1902 H1960 0.959 . S
C1902 H1961 0.958 . S
C1903 C1902 1.582 . S
C1903 O1906 1.458 . S
C1903 H1932 0.980 . S
O1904 C1849 1.426 . S
O1904 C1850 1.334 . S
O1905 C1877 1.412 . S
O1905 C1878 1.393 . S
O1906 C1868 1.435 . S
O1906 C1903 1.458 . S
O1907 C1859 1.468 . S
O1907 C1860 1.408 . S
H1908 C1849 0.980 . S
H1909 C1848 0.959 . S
H1910 C1848 0.959 . S
H1911 C1848 0.960 . S
H1912 C1851 0.929 . S
H1913 C1855 0.929 . S
H1914 C1856 0.959 . S
H1915 C1856 0.961 . S
H1916 C1856 0.961 . S
H1917 C1857 0.960 . S
H1918 C1857 0.960 . S
H1919 C1857 0.961 . S
H1920 C1859 0.980 . S
H1921 C1858 0.961 . S
H1922 C1858 0.960 . S
H1923 C1858 0.959 . S
H1924 C1861 0.930 . S
H1925 C1865 0.931 . S
H1926 C1866 0.959 . S
H1927 C1866 0.961 . S
H1928 C1866 0.959 . S
H1929 C1867 0.960 . S
H1930 C1867 0.960 . S
H1931 C1867 0.960 . S
H1932 C1903 0.980 . S
H1933 C1869 0.930 . S
H1934 C1873 0.930 . S
H1935 C1874 0.961 . S
H1936 C1874 0.960 . S
H1937 C1874 0.958 . S
H1938 C1875 0.961 . S
H1939 C1875 0.960 . S
H1940 C1875 0.960 . S
H1941 C1877 0.980 . S
H1942 C1876 0.961 . S
H1943 C1876 0.961 . S
H1944 C1876 0.959 . S
H1945 C1879 0.932 . S
H1946 C1883 0.929 . S
H1947 C1884 0.961 . S
H1948 C1884 0.959 . S
H1949 C1884 0.959 . S
H1950 C1885 0.960 . S
H1951 C1885 0.962 . S
H1952 C1885 0.961 . S
H1953 C1887 0.929 . S
H1954 C1890 0.930 . S
H1955 C1891 0.929 . S
H1956 C1894 0.930 . S
H1957 C1897 0.929 . S
H1958 C1898 0.930 . S
H1959 C1902 0.962 . S
H1960 C1902 0.959 . S
H1961 C1902 0.958 . S
C1962 C1963 1.560 . S
C1962 H2023 0.959 . S
C1962 H2024 0.959 . S
C1962 H2025 0.960 . S
C1963 C1962 1.560 . S
C1963 O2018 1.426 . S
C1963 H2022 0.980 . S
C1964 C1965 1.407 . S
C1964 C1969 1.418 . S
C1964 O2018 1.334 . S
C1965 C1964 1.407 . S
C1965 C1966 1.360 . S
C1965 H2026 0.929 . S
C1966 C1965 1.360 . S
C1966 C1967 1.401 . S
C1966 C1970 1.527 . S
C1967 C1966 1.401 . S
C1967 C1968 1.405 . S
C1967 C2000 1.587 . S
C1968 C1967 1.405 . S
C1968 C1969 1.332 . S
C1968 C1971 1.496 . S
C1969 C1964 1.418 . S
C1969 C1968 1.332 . S
C1969 H2027 0.929 . S
C1970 C1966 1.527 . S
C1970 H2028 0.959 . S
C1970 H2029 0.961 . S
C1970 H2030 0.961 . S
C1971 C1968 1.496 . S
C1971 H2031 0.960 . S
C1971 H2032 0.960 . S
C1971 H2033 0.961 . S
C1972 C1973 1.517 . S
C1972 H2035 0.961 . S
C1972 H2036 0.960 . S
C1972 H2037 0.959 . S
C1973 C1972 1.517 . S
C1973 O2021 1.468 . S
C1973 H2034 0.980 . S
C1974 C1975 1.349 . S
C1974 C1979 1.367 . S
C1974 O2021 1.408 . S
C1975 C1974 1.349 . S
C1975 C1976 1.407 . S
C1975 H2038 0.930 . S
C1976 C1975 1.407 . S
C1976 C1977 1.449 . S
C1976 C1980 1.535 . S
C1977 C1976 1.449 . S
C1977 C1978 1.384 . S
C1977 C2002 1.553 . S
C1978 C1977 1.384 . S
C1978 C1979 1.364 . S
C1978 C1981 1.450 . S
C1979 C1974 1.367 . S
C1979 C1978 1.364 . S
C1979 H2039 0.931 . S
C1980 C1976 1.535 . S
C1980 H2040 0.959 . S
C1980 H2041 0.961 . S
C1980 H2042 0.959 . S
C1981 C1978 1.450 . S
C1981 H2043 0.960 . S
C1981 H2044 0.960 . S
C1981 H2045 0.960 . S
C1982 C1983 1.309 . S
C1982 C1987 1.304 . S
C1982 O2020 1.435 . S
C1983 C1982 1.309 . S
C1983 C1984 1.476 . S
C1983 H2047 0.930 . S
C1984 C1983 1.476 . S
C1984 C1985 1.400 . S
C1984 C1988 1.567 . S
C1985 C1984 1.400 . S
C1985 C1986 1.373 . S
C1985 C2007 1.432 . S
C1986 C1985 1.373 . S
C1986 C1987 1.339 . S
C1986 C1989 1.530 . S
C1987 C1982 1.304 . S
C1987 C1986 1.339 . S
C1987 H2048 0.930 . S
C1988 C1984 1.567 . S
C1988 H2049 0.961 . S
C1988 H2050 0.960 . S
C1988 H2051 0.958 . S
C1989 C1986 1.530 . S
C1989 H2052 0.961 . S
C1989 H2053 0.960 . S
C1989 H2054 0.960 . S
C1990 C1991 1.530 . S
C1990 H2056 0.961 . S
C1990 H2057 0.961 . S
C1990 H2058 0.959 . S
C1991 C1990 1.530 . S
C1991 O2019 1.412 . S
C1991 H2055 0.980 . S
C1992 C1993 1.288 . S
C1992 C1997 1.377 . S
C1992 O2019 1.393 . S
C1993 C1992 1.288 . S
C1993 C1994 1.369 . S
C1993 H2059 0.932 . S
C1994 C1993 1.369 . S
C1994 C1995 1.398 . S
C1994 C1998 1.527 . S
C1995 C1994 1.398 . S
C1995 C1996 1.380 . S
C1995 C2009 1.497 . S
C1996 C1995 1.380 . S
C1996 C1997 1.383 . S
C1996 C1999 1.603 . S
C1997 C1992 1.377 . S
C1997 C1996 1.383 . S
C1997 H2060 0.929 . S
C1998 C1994 1.527 . S
C1998 H2061 0.961 . S
C1998 H2062 0.959 . S
C1998 H2063 0.959 . S
C1999 C1996 1.603 . S
C1999 H2064 0.960 . S
C1999 H2065 0.962 . S
C1999 H2066 0.961 . S
C2000 C1967 1.587 . S
C2000 C2001 1.360 . S
C2000 C2013 1.412 . S
C2001 C2000 1.360 . S
C2001 C2002 1.365 . S
C2001 H2067 0.929 . S
C2002 C1977 1.553 . S
C2002 C2001 1.365 . S
C2002 C2003 1.404 . S
C2003 C2002 1.404 . S
C2003 C2004 1.395 . S
C2003 C2014 1.451 . S
C2004 C2003 1.395 . S
C2004 C2005 1.322 . S
C2004 H2068 0.930 . S
C2005 C2004 1.322 . S
C2005 C2006 1.459 . S
C2005 H2069 0.929 . S
C2006 C2005 1.459 . S
C2006 C2007 1.445 . S
C2006 C2015 1.395 . S
C2007 C1985 1.432 . S
C2007 C2006 1.445 . S
C2007 C2008 1.370 . S
C2008 C2007 1.370 . S
C2008 C2009 1.438 . S
C2008 H2070 0.930 . S
C2009 C1995 1.497 . S
C2009 C2008 1.438 . S
C2009 C2010 1.360 . S
C2010 C2009 1.360 . S
C2010 C2011 1.401 . S
C2010 C2015 1.446 . S
C2011 C2010 1.401 . S
C2011 C2012 1.347 . S
C2011 H2071 0.929 . S
C2012 C2011 1.347 . S
C2012 C2013 1.455 . S
C2012 H2072 0.930 . S
C2013 C2000 1.412 . S
C2013 C2012 1.455 . S
C2013 C2014 1.331 . S
C2014 C2003 1.451 . S
C2014 C2013 1.331 . S
C2014 C2015 1.497 . S
C2015 C2006 1.395 . S
C2015 C2010 1.446 . S
C2015 C2014 1.497 . S
C2016 C2017 1.582 . S
C2016 H2073 0.962 . S
C2016 H2074 0.959 . S
C2016 H2075 0.958 . S
C2017 C2016 1.582 . S
C2017 O2020 1.458 . S
C2017 H2046 0.980 . S
O2018 C1963 1.426 . S
O2018 C1964 1.334 . S
O2019 C1991 1.412 . S
O2019 C1992 1.393 . S
O2020 C1982 1.435 . S
O2020 C2017 1.458 . S
O2021 C1973 1.468 . S
O2021 C1974 1.408 . S
H2022 C1963 0.980 . S
H2023 C1962 0.959 . S
H2024 C1962 0.959 . S
H2025 C1962 0.960 . S
H2026 C1965 0.929 . S
H2027 C1969 0.929 . S
H2028 C1970 0.959 . S
H2029 C1970 0.961 . S
H2030 C1970 0.961 . S
H2031 C1971 0.960 . S
H2032 C1971 0.960 . S
H2033 C1971 0.961 . S
H2034 C1973 0.980 . S
H2035 C1972 0.961 . S
H2036 C1972 0.960 . S
H2037 C1972 0.959 . S
H2038 C1975 0.930 . S
H2039 C1979 0.931 . S
H2040 C1980 0.959 . S
H2041 C1980 0.961 . S
H2042 C1980 0.959 . S
H2043 C1981 0.960 . S
H2044 C1981 0.960 . S
H2045 C1981 0.960 . S
H2046 C2017 0.980 . S
H2047 C1983 0.930 . S
H2048 C1987 0.930 . S
H2049 C1988 0.961 . S
H2050 C1988 0.960 . S
H2051 C1988 0.958 . S
H2052 C1989 0.961 . S
H2053 C1989 0.960 . S
H2054 C1989 0.960 . S
H2055 C1991 0.980 . S
H2056 C1990 0.961 . S
H2057 C1990 0.961 . S
H2058 C1990 0.959 . S
H2059 C1993 0.932 . S
H2060 C1997 0.929 . S
H2061 C1998 0.961 . S
H2062 C1998 0.959 . S
H2063 C1998 0.959 . S
H2064 C1999 0.960 . S
H2065 C1999 0.962 . S
H2066 C1999 0.961 . S
H2067 C2001 0.929 . S
H2068 C2004 0.930 . S
H2069 C2005 0.929 . S
H2070 C2008 0.930 . S
H2071 C2011 0.929 . S
H2072 C2012 0.930 . S
H2073 C2016 0.962 . S
H2074 C2016 0.959 . S
H2075 C2016 0.958 . S
C2076 C2077 1.560 . S
C2076 H2137 0.959 . S
C2076 H2138 0.959 . S
C2076 H2139 0.960 . S
C2077 C2076 1.560 . S
C2077 O2132 1.426 . S
C2077 H2136 0.980 . S
C2078 C2079 1.407 . S
C2078 C2083 1.418 . S
C2078 O2132 1.334 . S
C2079 C2078 1.407 . S
C2079 C2080 1.360 . S
C2079 H2140 0.929 . S
C2080 C2079 1.360 . S
C2080 C2081 1.401 . S
C2080 C2084 1.527 . S
C2081 C2080 1.401 . S
C2081 C2082 1.405 . S
C2081 C2114 1.587 . S
C2082 C2081 1.405 . S
C2082 C2083 1.332 . S
C2082 C2085 1.496 . S
C2083 C2078 1.418 . S
C2083 C2082 1.332 . S
C2083 H2141 0.929 . S
C2084 C2080 1.527 . S
C2084 H2142 0.959 . S
C2084 H2143 0.961 . S
C2084 H2144 0.961 . S
C2085 C2082 1.496 . S
C2085 H2145 0.960 . S
C2085 H2146 0.960 . S
C2085 H2147 0.961 . S
C2086 C2087 1.517 . S
C2086 H2149 0.961 . S
C2086 H2150 0.960 . S
C2086 H2151 0.959 . S
C2087 C2086 1.517 . S
C2087 O2135 1.468 . S
C2087 H2148 0.980 . S
C2088 C2089 1.349 . S
C2088 C2093 1.367 . S
C2088 O2135 1.408 . S
C2089 C2088 1.349 . S
C2089 C2090 1.407 . S
C2089 H2152 0.930 . S
C2090 C2089 1.407 . S
C2090 C2091 1.449 . S
C2090 C2094 1.535 . S
C2091 C2090 1.449 . S
C2091 C2092 1.384 . S
C2091 C2116 1.553 . S
C2092 C2091 1.384 . S
C2092 C2093 1.364 . S
C2092 C2095 1.450 . S
C2093 C2088 1.367 . S
C2093 C2092 1.364 . S
C2093 H2153 0.931 . S
C2094 C2090 1.535 . S
C2094 H2154 0.959 . S
C2094 H2155 0.961 . S
C2094 H2156 0.959 . S
C2095 C2092 1.450 . S
C2095 H2157 0.960 . S
C2095 H2158 0.960 . S
C2095 H2159 0.960 . S
C2096 C2097 1.309 . S
C2096 C2101 1.304 . S
C2096 O2134 1.435 . S
C2097 C2096 1.309 . S
C2097 C2098 1.476 . S
C2097 H2161 0.930 . S
C2098 C2097 1.476 . S
C2098 C2099 1.400 . S
C2098 C2102 1.567 . S
C2099 C2098 1.400 . S
C2099 C2100 1.373 . S
C2099 C2121 1.432 . S
C2100 C2099 1.373 . S
C2100 C2101 1.339 . S
C2100 C2103 1.530 . S
C2101 C2096 1.304 . S
C2101 C2100 1.339 . S
C2101 H2162 0.930 . S
C2102 C2098 1.567 . S
C2102 H2163 0.961 . S
C2102 H2164 0.960 . S
C2102 H2165 0.958 . S
C2103 C2100 1.530 . S
C2103 H2166 0.961 . S
C2103 H2167 0.960 . S
C2103 H2168 0.960 . S
C2104 C2105 1.530 . S
C2104 H2170 0.961 . S
C2104 H2171 0.961 . S
C2104 H2172 0.959 . S
C2105 C2104 1.530 . S
C2105 O2133 1.412 . S
C2105 H2169 0.980 . S
C2106 C2107 1.288 . S
C2106 C2111 1.377 . S
C2106 O2133 1.393 . S
C2107 C2106 1.288 . S
C2107 C2108 1.369 . S
C2107 H2173 0.932 . S
C2108 C2107 1.369 . S
C2108 C2109 1.398 . S
C2108 C2112 1.527 . S
C2109 C2108 1.398 . S
C2109 C2110 1.380 . S
C2109 C2123 1.497 . S
C2110 C2109 1.380 . S
C2110 C2111 1.383 . S
C2110 C2113 1.603 . S
C2111 C2106 1.377 . S
C2111 C2110 1.383 . S
C2111 H2174 0.929 . S
C2112 C2108 1.527 . S
C2112 H2175 0.961 . S
C2112 H2176 0.959 . S
C2112 H2177 0.959 . S
C2113 C2110 1.603 . S
C2113 H2178 0.960 . S
C2113 H2179 0.962 . S
C2113 H2180 0.961 . S
C2114 C2081 1.587 . S
C2114 C2115 1.360 . S
C2114 C2127 1.412 . S
C2115 C2114 1.360 . S
C2115 C2116 1.365 . S
C2115 H2181 0.929 . S
C2116 C2091 1.553 . S
C2116 C2115 1.365 . S
C2116 C2117 1.404 . S
C2117 C2116 1.404 . S
C2117 C2118 1.395 . S
C2117 C2128 1.451 . S
C2118 C2117 1.395 . S
C2118 C2119 1.322 . S
C2118 H2182 0.930 . S
C2119 C2118 1.322 . S
C2119 C2120 1.459 . S
C2119 H2183 0.929 . S
C2120 C2119 1.459 . S
C2120 C2121 1.445 . S
C2120 C2129 1.395 . S
C2121 C2099 1.432 . S
C2121 C2120 1.445 . S
C2121 C2122 1.370 . S
C2122 C2121 1.370 . S
C2122 C2123 1.438 . S
C2122 H2184 0.930 . S
C2123 C2109 1.497 . S
C2123 C2122 1.438 . S
C2123 C2124 1.360 . S
C2124 C2123 1.360 . S
C2124 C2125 1.401 . S
C2124 C2129 1.446 . S
C2125 C2124 1.401 . S
C2125 C2126 1.347 . S
C2125 H2185 0.929 . S
C2126 C2125 1.347 . S
C2126 C2127 1.455 . S
C2126 H2186 0.930 . S
C2127 C2114 1.412 . S
C2127 C2126 1.455 . S
C2127 C2128 1.331 . S
C2128 C2117 1.451 . S
C2128 C2127 1.331 . S
C2128 C2129 1.497 . S
C2129 C2120 1.395 . S
C2129 C2124 1.446 . S
C2129 C2128 1.497 . S
C2130 C2131 1.582 . S
C2130 H2187 0.962 . S
C2130 H2188 0.959 . S
C2130 H2189 0.958 . S
C2131 C2130 1.582 . S
C2131 O2134 1.458 . S
C2131 H2160 0.980 . S
O2132 C2077 1.426 . S
O2132 C2078 1.334 . S
O2133 C2105 1.412 . S
O2133 C2106 1.393 . S
O2134 C2096 1.435 . S
O2134 C2131 1.458 . S
O2135 C2087 1.468 . S
O2135 C2088 1.408 . S
H2136 C2077 0.980 . S
H2137 C2076 0.959 . S
H2138 C2076 0.959 . S
H2139 C2076 0.960 . S
H2140 C2079 0.929 . S
H2141 C2083 0.929 . S
H2142 C2084 0.959 . S
H2143 C2084 0.961 . S
H2144 C2084 0.961 . S
H2145 C2085 0.960 . S
H2146 C2085 0.960 . S
H2147 C2085 0.961 . S
H2148 C2087 0.980 . S
H2149 C2086 0.961 . S
H2150 C2086 0.960 . S
H2151 C2086 0.959 . S
H2152 C2089 0.930 . S
H2153 C2093 0.931 . S
H2154 C2094 0.959 . S
H2155 C2094 0.961 . S
H2156 C2094 0.959 . S
H2157 C2095 0.960 . S
H2158 C2095 0.960 . S
H2159 C2095 0.960 . S
H2160 C2131 0.980 . S
H2161 C2097 0.930 . S
H2162 C2101 0.930 . S
H2163 C2102 0.961 . S
H2164 C2102 0.960 . S
H2165 C2102 0.958 . S
H2166 C2103 0.961 . S
H2167 C2103 0.960 . S
H2168 C2103 0.960 . S
H2169 C2105 0.980 . S
H2170 C2104 0.961 . S
H2171 C2104 0.961 . S
H2172 C2104 0.959 . S
H2173 C2107 0.932 . S
H2174 C2111 0.929 . S
H2175 C2112 0.961 . S
H2176 C2112 0.959 . S
H2177 C2112 0.959 . S
H2178 C2113 0.960 . S
H2179 C2113 0.962 . S
H2180 C2113 0.961 . S
H2181 C2115 0.929 . S
H2182 C2118 0.930 . S
H2183 C2119 0.929 . S
H2184 C2122 0.930 . S
H2185 C2125 0.929 . S
H2186 C2126 0.930 . S
H2187 C2130 0.962 . S
H2188 C2130 0.959 . S
H2189 C2130 0.958 . S
C2190 C2191 1.560 . S
C2190 H2251 0.959 . S
C2190 H2252 0.959 . S
C2190 H2253 0.960 . S
C2191 C2190 1.560 . S
C2191 O2246 1.426 . S
C2191 H2250 0.980 . S
C2192 C2193 1.407 . S
C2192 C2197 1.418 . S
C2192 O2246 1.334 . S
C2193 C2192 1.407 . S
C2193 C2194 1.360 . S
C2193 H2254 0.929 . S
C2194 C2193 1.360 . S
C2194 C2195 1.401 . S
C2194 C2198 1.527 . S
C2195 C2194 1.401 . S
C2195 C2196 1.405 . S
C2195 C2228 1.587 . S
C2196 C2195 1.405 . S
C2196 C2197 1.332 . S
C2196 C2199 1.496 . S
C2197 C2192 1.418 . S
C2197 C2196 1.332 . S
C2197 H2255 0.929 . S
C2198 C2194 1.527 . S
C2198 H2256 0.959 . S
C2198 H2257 0.961 . S
C2198 H2258 0.961 . S
C2199 C2196 1.496 . S
C2199 H2259 0.960 . S
C2199 H2260 0.960 . S
C2199 H2261 0.961 . S
C2200 C2201 1.517 . S
C2200 H2263 0.961 . S
C2200 H2264 0.960 . S
C2200 H2265 0.959 . S
C2201 C2200 1.517 . S
C2201 O2249 1.468 . S
C2201 H2262 0.980 . S
C2202 C2203 1.349 . S
C2202 C2207 1.367 . S
C2202 O2249 1.408 . S
C2203 C2202 1.349 . S
C2203 C2204 1.407 . S
C2203 H2266 0.930 . S
C2204 C2203 1.407 . S
C2204 C2205 1.449 . S
C2204 C2208 1.535 . S
C2205 C2204 1.449 . S
C2205 C2206 1.384 . S
C2205 C2230 1.553 . S
C2206 C2205 1.384 . S
C2206 C2207 1.364 . S
C2206 C2209 1.450 . S
C2207 C2202 1.367 . S
C2207 C2206 1.364 . S
C2207 H2267 0.931 . S
C2208 C2204 1.535 . S
C2208 H2268 0.959 . S
C2208 H2269 0.961 . S
C2208 H2270 0.959 . S
C2209 C2206 1.450 . S
C2209 H2271 0.960 . S
C2209 H2272 0.960 . S
C2209 H2273 0.960 . S
C2210 C2211 1.309 . S
C2210 C2215 1.304 . S
C2210 O2248 1.435 . S
C2211 C2210 1.309 . S
C2211 C2212 1.476 . S
C2211 H2275 0.930 . S
C2212 C2211 1.476 . S
C2212 C2213 1.400 . S
C2212 C2216 1.567 . S
C2213 C2212 1.400 . S
C2213 C2214 1.373 . S
C2213 C2235 1.432 . S
C2214 C2213 1.373 . S
C2214 C2215 1.339 . S
C2214 C2217 1.530 . S
C2215 C2210 1.304 . S
C2215 C2214 1.339 . S
C2215 H2276 0.930 . S
C2216 C2212 1.567 . S
C2216 H2277 0.961 . S
C2216 H2278 0.960 . S
C2216 H2279 0.958 . S
C2217 C2214 1.530 . S
C2217 H2280 0.961 . S
C2217 H2281 0.960 . S
C2217 H2282 0.960 . S
C2218 C2219 1.530 . S
C2218 H2284 0.961 . S
C2218 H2285 0.961 . S
C2218 H2286 0.959 . S
C2219 C2218 1.530 . S
C2219 O2247 1.412 . S
C2219 H2283 0.980 . S
C2220 C2221 1.288 . S
C2220 C2225 1.377 . S
C2220 O2247 1.393 . S
C2221 C2220 1.288 . S
C2221 C2222 1.369 . S
C2221 H2287 0.932 . S
C2222 C2221 1.369 . S
C2222 C2223 1.398 . S
C2222 C2226 1.527 . S
C2223 C2222 1.398 . S
C2223 C2224 1.380 . S
C2223 C2237 1.497 . S
C2224 C2223 1.380 . S
C2224 C2225 1.383 . S
C2224 C2227 1.603 . S
C2225 C2220 1.377 . S
C2225 C2224 1.383 . S
C2225 H2288 0.929 . S
C2226 C2222 1.527 . S
C2226 H2289 0.961 . S
C2226 H2290 0.959 . S
C2226 H2291 0.959 . S
C2227 C2224 1.603 . S
C2227 H2292 0.960 . S
C2227 H2293 0.962 . S
C2227 H2294 0.961 . S
C2228 C2195 1.587 . S
C2228 C2229 1.360 . S
C2228 C2241 1.412 . S
C2229 C2228 1.360 . S
C2229 C2230 1.365 . S
C2229 H2295 0.929 . S
C2230 C2205 1.553 . S
C2230 C2229 1.365 . S
C2230 C2231 1.404 . S
C2231 C2230 1.404 . S
C2231 C2232 1.395 . S
C2231 C2242 1.451 . S
C2232 C2231 1.395 . S
C2232 C2233 1.322 . S
C2232 H2296 0.930 . S
C2233 C2232 1.322 . S
C2233 C2234 1.459 . S
C2233 H2297 0.929 . S
C2234 C2233 1.459 . S
C2234 C2235 1.445 . S
C2234 C2243 1.395 . S
C2235 C2213 1.432 . S
C2235 C2234 1.445 . S
C2235 C2236 1.370 . S
C2236 C2235 1.370 . S
C2236 C2237 1.438 . S
C2236 H2298 0.930 . S
C2237 C2223 1.497 . S
C2237 C2236 1.438 . S
C2237 C2238 1.360 . S
C2238 C2237 1.360 . S
C2238 C2239 1.401 . S
C2238 C2243 1.446 . S
C2239 C2238 1.401 . S
C2239 C2240 1.347 . S
C2239 H2299 0.929 . S
C2240 C2239 1.347 . S
C2240 C2241 1.455 . S
C2240 H2300 0.930 . S
C2241 C2228 1.412 . S
C2241 C2240 1.455 . S
C2241 C2242 1.331 . S
C2242 C2231 1.451 . S
C2242 C2241 1.331 . S
C2242 C2243 1.497 . S
C2243 C2234 1.395 . S
C2243 C2238 1.446 . S
C2243 C2242 1.497 . S
C2244 C2245 1.582 . S
C2244 H2301 0.962 . S
C2244 H2302 0.959 . S
C2244 H2303 0.958 . S
C2245 C2244 1.582 . S
C2245 O2248 1.458 . S
C2245 H2274 0.980 . S
O2246 C2191 1.426 . S
O2246 C2192 1.334 . S
O2247 C2219 1.412 . S
O2247 C2220 1.393 . S
O2248 C2210 1.435 . S
O2248 C2245 1.458 . S
O2249 C2201 1.468 . S
O2249 C2202 1.408 . S
H2250 C2191 0.980 . S
H2251 C2190 0.959 . S
H2252 C2190 0.959 . S
H2253 C2190 0.960 . S
H2254 C2193 0.929 . S
H2255 C2197 0.929 . S
H2256 C2198 0.959 . S
H2257 C2198 0.961 . S
H2258 C2198 0.961 . S
H2259 C2199 0.960 . S
H2260 C2199 0.960 . S
H2261 C2199 0.961 . S
H2262 C2201 0.980 . S
H2263 C2200 0.961 . S
H2264 C2200 0.960 . S
H2265 C2200 0.959 . S
H2266 C2203 0.930 . S
H2267 C2207 0.931 . S
H2268 C2208 0.959 . S
H2269 C2208 0.961 . S
H2270 C2208 0.959 . S
H2271 C2209 0.960 . S
H2272 C2209 0.960 . S
H2273 C2209 0.960 . S
H2274 C2245 0.980 . S
H2275 C2211 0.930 . S
H2276 C2215 0.930 . S
H2277 C2216 0.961 . S
H2278 C2216 0.960 . S
H2279 C2216 0.958 . S
H2280 C2217 0.961 . S
H2281 C2217 0.960 . S
H2282 C2217 0.960 . S
H2283 C2219 0.980 . S
H2284 C2218 0.961 . S
H2285 C2218 0.961 . S
H2286 C2218 0.959 . S
H2287 C2221 0.932 . S
H2288 C2225 0.929 . S
H2289 C2226 0.961 . S
H2290 C2226 0.959 . S
H2291 C2226 0.959 . S
H2292 C2227 0.960 . S
H2293 C2227 0.962 . S
H2294 C2227 0.961 . S
H2295 C2229 0.929 . S
H2296 C2232 0.930 . S
H2297 C2233 0.929 . S
H2298 C2236 0.930 . S
H2299 C2239 0.929 . S
H2300 C2240 0.930 . S
H2301 C2244 0.962 . S
H2302 C2244 0.959 . S
H2303 C2244 0.958 . S
H2304 C2310 0.930 . S
H2305 C2314 0.930 . S
H2306 C2319 0.933 1_455 S
H2307 C2317 0.929 . S
H2308 C2312 0.929 . S
H2309 C2318 0.929 . S
C2310 H2304 0.930 . S
C2310 C2311 1.367 . S
C2310 C2318 1.378 . S
C2311 C2310 1.367 . S
C2311 C2319 1.417 . S
C2312 H2308 0.929 . S
C2312 C2314 1.378 . S
C2312 C2316 1.350 . S
C2313 C2316 1.463 . S
C2313 C2318 1.350 . S
C2313 N2321 1.427 . S
C2314 H2305 0.930 . S
C2314 C2312 1.378 . S
C2314 C2315 1.367 . S
C2315 C2314 1.367 . S
C2315 C2317 1.433 . S
C2316 C2312 1.350 . S
C2316 C2313 1.463 . S
C2316 N2320 1.427 . S
C2317 H2307 0.929 . S
C2317 C2315 1.433 . S
C2317 N2320 1.384 . S
C2318 H2309 0.929 . S
C2318 C2310 1.378 . S
C2318 C2313 1.350 . S
C2319 H2306 0.933 1_655 S
C2319 C2311 1.417 . S
C2319 N2321 1.401 . S
N2320 C2316 1.427 . S
N2320 C2317 1.384 . S
N2321 C2313 1.427 . S
N2321 C2319 1.401 . S
H2322 C2328 0.930 . S
H2323 C2332 0.930 . S
H2324 C2337 0.929 . S
H2325 C2335 0.929 . S
H2326 C2330 0.929 . S
H2327 C2336 0.929 . S
C2328 H2322 0.930 . S
C2328 C2329 1.367 . S
C2328 C2336 1.378 . S
C2329 C2328 1.367 . S
C2329 C2337 1.433 . S
C2330 H2326 0.929 . S
C2330 C2332 1.378 . S
C2330 C2334 1.350 . S
C2331 C2334 1.463 . S
C2331 C2336 1.350 . S
C2331 N2339 1.427 . S
C2332 H2323 0.930 . S
C2332 C2330 1.378 . S
C2332 C2333 1.367 . S
C2333 C2332 1.367 . S
C2333 C2335 1.433 . S
C2334 C2330 1.350 . S
C2334 C2331 1.463 . S
C2334 N2338 1.427 . S
C2335 H2325 0.929 . S
C2335 C2333 1.433 . S
C2335 N2338 1.384 . S
C2336 H2327 0.929 . S
C2336 C2328 1.378 . S
C2336 C2331 1.350 . S
C2337 H2324 0.929 . S
C2337 C2329 1.433 . S
C2337 N2339 1.384 . S
N2338 C2334 1.427 . S
N2338 C2335 1.384 . S
N2339 C2331 1.427 . S
N2339 C2337 1.384 . S
H2340 C2346 0.930 . S
H2341 C2350 0.930 . S
H2342 C2355 0.929 . S
H2343 C2353 0.929 . S
H2344 C2348 0.929 . S
H2345 C2354 0.929 . S
C2346 H2340 0.930 . S
C2346 C2347 1.367 . S
C2346 C2354 1.378 . S
C2347 C2346 1.367 . S
C2347 C2355 1.433 1_545 S
C2348 H2344 0.929 . S
C2348 C2350 1.378 . S
C2348 C2352 1.350 1_565 S
C2349 C2352 1.463 . S
C2349 C2354 1.350 . S
C2349 N2357 1.427 1_545 S
C2350 H2341 0.930 . S
C2350 C2348 1.378 . S
C2350 C2351 1.367 1_565 S
C2351 C2350 1.367 1_545 S
C2351 C2353 1.433 . S
C2352 C2348 1.350 1_545 S
C2352 C2349 1.463 . S
C2352 N2356 1.427 . S
C2353 H2343 0.929 . S
C2353 C2351 1.433 . S
C2353 N2356 1.384 . S
C2354 H2345 0.929 . S
C2354 C2346 1.378 . S
C2354 C2349 1.350 . S
C2355 H2342 0.929 . S
C2355 C2347 1.433 1_565 S
C2355 N2357 1.384 . S
N2356 C2352 1.427 . S
N2356 C2353 1.384 . S
N2357 C2349 1.427 1_565 S
N2357 C2355 1.384 . S
H2358 C2364 0.930 . S
H2359 C2368 0.930 . S
H2360 C2373 0.929 . S
H2361 C2371 0.929 . S
H2362 C2366 0.929 . S
H2363 C2372 0.929 . S
C2364 H2358 0.930 . S
C2364 C2365 1.367 1_545 S
C2364 C2372 1.378 . S
C2365 C2364 1.367 1_565 S
C2365 C2373 1.433 . S
C2366 H2362 0.929 . S
C2366 C2368 1.378 . S
C2366 C2370 1.350 . S
C2367 C2370 1.463 . S
C2367 C2372 1.350 1_565 S
C2367 N2375 1.427 . S
C2368 H2359 0.930 . S
C2368 C2366 1.378 . S
C2368 C2369 1.367 . S
C2369 C2368 1.367 . S
C2369 C2371 1.433 1_565 S
C2370 C2366 1.350 . S
C2370 C2367 1.463 . S
C2370 N2374 1.427 1_565 S
C2371 H2361 0.929 . S
C2371 C2369 1.433 1_545 S
C2371 N2374 1.384 . S
C2372 H2363 0.929 . S
C2372 C2364 1.378 . S
C2372 C2367 1.350 1_545 S
C2373 H2360 0.929 . S
C2373 C2365 1.433 . S
C2373 N2375 1.384 . S
N2374 C2370 1.427 1_545 S
N2374 C2371 1.384 . S
N2375 C2367 1.427 . S
N2375 C2373 1.384 . S
H2376 C2382 0.930 1_655 S
H2377 C2386 0.930 . S
H2378 C2391 0.929 . S
H2379 C2389 0.944 . S
H2380 C2384 0.929 . S
H2381 C2390 0.929 1_655 S
C2382 H2376 0.930 1_455 S
C2382 C2383 1.367 . S
C2382 C2390 1.378 . S
C2383 C2382 1.367 . S
C2383 C2391 1.433 . S
C2384 H2380 0.929 . S
C2384 C2386 1.378 . S
C2384 C2388 1.350 . S
C2385 C2388 1.463 . S
C2385 C2390 1.350 . S
C2385 N2393 1.427 . S
C2386 H2377 0.930 . S
C2386 C2384 1.378 . S
C2386 C2387 1.367 . S
C2387 C2386 1.367 . S
C2387 C2389 1.433 1_455 S
C2388 C2384 1.350 . S
C2388 C2385 1.463 . S
C2388 N2392 1.435 . S
C2389 H2379 0.944 . S
C2389 C2387 1.433 1_655 S
C2389 N2392 1.363 1_655 S
C2390 H2381 0.929 1_455 S
C2390 C2382 1.378 . S
C2390 C2385 1.350 . S
C2391 H2378 0.929 . S
C2391 C2383 1.433 . S
C2391 N2393 1.384 . S
N2392 C2388 1.435 . S
N2392 C2389 1.363 1_455 S
N2393 C2385 1.427 . S
N2393 C2391 1.384 . S
H2394 C2400 0.930 . S
H2395 C2404 0.930 . S
H2396 C2409 0.929 . S
H2397 C2407 0.929 . S
H2398 C2402 0.929 . S
H2399 C2408 0.929 . S
C2400 H2394 0.930 . S
C2400 C2401 1.367 . S
C2400 C2408 1.378 . S
C2401 C2400 1.367 . S
C2401 C2409 1.433 . S
C2402 H2398 0.929 . S
C2402 C2404 1.378 . S
C2402 C2406 1.350 . S
C2403 C2406 1.463 . S
C2403 C2408 1.350 . S
C2403 N2411 1.427 . S
C2404 H2395 0.930 . S
C2404 C2402 1.378 . S
C2404 C2405 1.367 . S
C2405 C2404 1.367 . S
C2405 C2407 1.433 . S
C2406 C2402 1.350 . S
C2406 C2403 1.463 . S
C2406 N2410 1.427 . S
C2407 H2397 0.929 . S
C2407 C2405 1.433 . S
C2407 N2410 1.384 . S
C2408 H2399 0.929 . S
C2408 C2400 1.378 . S
C2408 C2403 1.350 . S
C2409 H2396 0.929 . S
C2409 C2401 1.433 . S
C2409 N2411 1.384 . S
N2410 C2406 1.427 . S
N2410 C2407 1.384 . S
N2411 C2403 1.427 . S
N2411 C2409 1.384 . S
H2412 C2418 0.930 . S
H2413 C2422 0.930 . S
H2414 C2427 0.929 . S
H2415 C2425 0.929 . S
H2416 C2420 0.929 . S
H2417 C2426 0.929 . S
C2418 H2412 0.930 . S
C2418 C2419 1.367 1_655 S
C2418 C2426 1.378 . S
C2419 C2418 1.367 1_455 S
C2419 C2427 1.433 . S
C2420 H2416 0.929 . S
C2420 C2422 1.378 . S
C2420 C2424 1.350 . S
C2421 C2424 1.463 . S
C2421 C2426 1.350 1_455 S
C2421 N2429 1.427 . S
C2422 H2413 0.930 . S
C2422 C2420 1.378 . S
C2422 C2423 1.367 . S
C2423 C2422 1.367 . S
C2423 C2425 1.433 1_455 S
C2424 C2420 1.350 . S
C2424 C2421 1.463 . S
C2424 N2428 1.427 1_455 S
C2425 H2415 0.929 . S
C2425 C2423 1.433 1_655 S
C2425 N2428 1.384 . S
C2426 H2417 0.929 . S
C2426 C2418 1.378 . S
C2426 C2421 1.350 1_655 S
C2427 H2414 0.929 . S
C2427 C2419 1.433 . S
C2427 N2429 1.384 . S
N2428 C2424 1.427 1_655 S
N2428 C2425 1.384 . S
N2429 C2421 1.427 . S
N2429 C2427 1.384 . S
H2430 C2436 0.930 . S
H2431 C2440 0.930 . S
H2432 C2445 0.929 . S
H2433 C2443 0.929 . S
H2434 C2438 0.929 . S
H2435 C2444 0.929 . S
C2436 H2430 0.930 . S
C2436 C2437 1.367 . S
C2436 C2444 1.378 . S
C2437 C2436 1.367 . S
C2437 C2445 1.433 . S
C2438 H2434 0.929 . S
C2438 C2440 1.378 . S
C2438 C2442 1.350 . S
C2439 C2442 1.463 . S
C2439 C2444 1.350 . S
C2439 N2447 1.427 . S
C2440 H2431 0.930 . S
C2440 C2438 1.378 . S
C2440 C2441 1.367 . S
C2441 C2440 1.367 . S
C2441 C2443 1.433 . S
C2442 C2438 1.350 . S
C2442 C2439 1.463 . S
C2442 N2446 1.427 . S
C2443 H2433 0.929 . S
C2443 C2441 1.433 . S
C2443 N2446 1.384 . S
C2444 H2435 0.929 . S
C2444 C2436 1.378 . S
C2444 C2439 1.350 . S
C2445 H2432 0.929 . S
C2445 C2437 1.433 . S
C2445 N2447 1.384 . S
N2446 C2442 1.427 . S
N2446 C2443 1.384 . S
N2447 C2439 1.427 . S
N2447 C2445 1.384 . S
H2448 C2454 0.930 . S
H2449 C2458 0.930 . S
H2450 C2463 0.929 . S
H2451 C2461 0.929 . S
H2452 C2456 0.929 . S
H2453 C2462 0.929 . S
C2454 H2448 0.930 . S
C2454 C2455 1.367 . S
C2454 C2462 1.378 . S
C2455 C2454 1.367 . S
C2455 C2463 1.433 1_565 S
C2456 H2452 0.929 . S
C2456 C2458 1.378 . S
C2456 C2460 1.350 1_545 S
C2457 C2460 1.463 . S
C2457 C2462 1.350 . S
C2457 N2465 1.427 1_565 S
C2458 H2449 0.930 . S
C2458 C2456 1.378 . S
C2458 C2459 1.367 1_545 S
C2459 C2458 1.367 1_565 S
C2459 C2461 1.433 . S
C2460 C2456 1.350 1_565 S
C2460 C2457 1.463 . S
C2460 N2464 1.427 . S
C2461 H2451 0.929 . S
C2461 C2459 1.433 . S
C2461 N2464 1.384 . S
C2462 H2453 0.929 . S
C2462 C2454 1.378 . S
C2462 C2457 1.350 . S
C2463 H2450 0.929 . S
C2463 C2455 1.433 1_545 S
C2463 N2465 1.384 . S
N2464 C2460 1.427 . S
N2464 C2461 1.384 . S
N2465 C2457 1.427 1_545 S
N2465 C2463 1.384 . S
H2466 C2472 0.933 . S
H2467 C2476 0.930 . S
H2468 C2481 0.929 . S
H2469 C2479 0.929 . S
H2470 C2474 0.929 . S
H2471 C2480 0.929 . S
C2472 H2466 0.933 . S
C2472 C2473 1.368 1_565 S
C2472 C2480 1.374 . S
C2473 C2472 1.368 1_545 S
C2473 C2481 1.433 . S
C2474 H2470 0.929 . S
C2474 C2476 1.378 . S
C2474 C2478 1.350 . S
C2475 C2478 1.463 . S
C2475 C2480 1.350 1_545 S
C2475 N2483 1.427 . S
C2476 H2467 0.930 . S
C2476 C2474 1.378 . S
C2476 C2477 1.367 . S
C2477 C2476 1.367 . S
C2477 C2479 1.433 1_545 S
C2478 C2474 1.350 . S
C2478 C2475 1.463 . S
C2478 N2482 1.427 1_545 S
C2479 H2469 0.929 . S
C2479 C2477 1.433 1_565 S
C2479 N2482 1.384 . S
C2480 H2471 0.929 . S
C2480 C2472 1.374 . S
C2480 C2475 1.350 1_565 S
C2481 H2468 0.929 . S
C2481 C2473 1.433 . S
C2481 N2483 1.384 . S
N2482 C2478 1.427 1_565 S
N2482 C2479 1.384 . S
N2483 C2475 1.427 . S
N2483 C2481 1.384 . S
H2484 C2490 0.930 . S
H2485 C2494 0.930 . S
H2486 C2499 0.929 . S
H2487 C2497 0.929 . S
H2488 C2492 0.929 . S
H2489 C2498 0.929 . S
C2490 H2484 0.930 . S
C2490 C2491 1.367 1_455 S
C2490 C2498 1.378 . S
C2491 C2490 1.367 1_655 S
C2491 C2499 1.433 . S
C2492 H2488 0.929 . S
C2492 C2494 1.378 . S
C2492 C2496 1.350 . S
C2493 C2496 1.463 . S
C2493 C2498 1.350 1_655 S
C2493 N2501 1.427 . S
C2494 H2485 0.930 . S
C2494 C2492 1.378 . S
C2494 C2495 1.367 . S
C2495 C2494 1.367 . S
C2495 C2497 1.433 1_655 S
C2496 C2492 1.350 . S
C2496 C2493 1.463 . S
C2496 N2500 1.427 1_655 S
C2497 H2487 0.929 . S
C2497 C2495 1.433 1_455 S
C2497 N2500 1.384 . S
C2498 H2489 0.929 . S
C2498 C2490 1.378 . S
C2498 C2493 1.350 1_455 S
C2499 H2486 0.929 . S
C2499 C2491 1.433 . S
C2499 N2501 1.384 . S
N2500 C2496 1.427 1_455 S
N2500 C2497 1.384 . S
N2501 C2493 1.427 . S
N2501 C2499 1.384 . S
H2502 C2508 0.930 . S
H2503 C2512 0.930 . S
H2504 C2517 0.929 . S
H2505 C2515 0.929 . S
H2506 C2510 0.929 . S
H2507 C2516 0.929 . S
C2508 H2502 0.930 . S
C2508 C2509 1.367 . S
C2508 C2516 1.378 . S
C2509 C2508 1.367 . S
C2509 C2517 1.433 . S
C2510 H2506 0.929 . S
C2510 C2512 1.378 . S
C2510 C2514 1.350 . S
C2511 C2514 1.463 . S
C2511 C2516 1.350 . S
C2511 N2519 1.427 . S
C2512 H2503 0.930 . S
C2512 C2510 1.378 . S
C2512 C2513 1.367 . S
C2513 C2512 1.367 . S
C2513 C2515 1.433 . S
C2514 C2510 1.350 . S
C2514 C2511 1.463 . S
C2514 N2518 1.427 . S
C2515 H2505 0.929 . S
C2515 C2513 1.433 . S
C2515 N2518 1.384 . S
C2516 H2507 0.929 . S
C2516 C2508 1.378 . S
C2516 C2511 1.350 . S
C2517 H2504 0.929 . S
C2517 C2509 1.433 . S
C2517 N2519 1.384 . S
N2518 C2514 1.427 . S
N2518 C2515 1.384 . S
N2519 C2511 1.427 . S
N2519 C2517 1.384 . S
H2520 C2526 0.930 . S
H2521 C2530 0.930 . S
H2522 C2535 0.929 . S
H2523 C2533 0.929 . S
H2524 C2528 0.929 . S
H2525 C2534 0.929 . S
C2526 H2520 0.930 . S
C2526 C2527 1.367 . S
C2526 C2534 1.378 . S
C2527 C2526 1.367 . S
C2527 C2535 1.433 . S
C2528 H2524 0.929 . S
C2528 C2530 1.378 . S
C2528 C2532 1.350 . S
C2529 C2532 1.463 . S
C2529 C2534 1.350 . S
C2529 N2537 1.427 . S
C2530 H2521 0.930 . S
C2530 C2528 1.378 . S
C2530 C2531 1.367 . S
C2531 C2530 1.367 . S
C2531 C2533 1.433 . S
C2532 C2528 1.350 . S
C2532 C2529 1.463 . S
C2532 N2536 1.427 . S
C2533 H2523 0.929 . S
C2533 C2531 1.433 . S
C2533 N2536 1.384 . S
C2534 H2525 0.929 . S
C2534 C2526 1.378 . S
C2534 C2529 1.350 . S
C2535 H2522 0.929 . S
C2535 C2527 1.433 . S
C2535 N2537 1.384 . S
N2536 C2532 1.427 . S
N2536 C2533 1.384 . S
N2537 C2529 1.427 . S
N2537 C2535 1.384 . S
H2538 C2544 0.930 . S
H2539 C2548 0.930 . S
H2540 C2553 0.929 . S
H2541 C2551 0.929 . S
H2542 C2546 0.929 . S
H2543 C2552 0.929 . S
C2544 H2538 0.930 . S
C2544 C2545 1.367 . S
C2544 C2552 1.378 . S
C2545 C2544 1.367 . S
C2545 C2553 1.433 . S
C2546 H2542 0.929 . S
C2546 C2548 1.378 . S
C2546 C2550 1.350 . S
C2547 C2550 1.463 . S
C2547 C2552 1.350 . S
C2547 N2555 1.427 . S
C2548 H2539 0.930 . S
C2548 C2546 1.378 . S
C2548 C2549 1.367 . S
C2549 C2548 1.367 . S
C2549 C2551 1.433 . S
C2550 C2546 1.350 . S
C2550 C2547 1.463 . S
C2550 N2554 1.427 . S
C2551 H2541 0.929 . S
C2551 C2549 1.433 . S
C2551 N2554 1.384 . S
C2552 H2543 0.929 . S
C2552 C2544 1.378 . S
C2552 C2547 1.350 . S
C2553 H2540 0.929 . S
C2553 C2545 1.433 . S
C2553 N2555 1.384 . S
N2554 C2550 1.427 . S
N2554 C2551 1.384 . S
N2555 C2547 1.427 . S
N2555 C2553 1.384 . S
H2556 C2562 0.930 . S
H2557 C2566 0.930 . S
H2558 C2571 0.929 . S
H2559 C2569 0.929 . S
H2560 C2564 0.929 . S
H2561 C2570 0.929 . S
C2562 H2556 0.930 . S
C2562 C2563 1.367 . S
C2562 C2570 1.378 . S
C2563 C2562 1.367 . S
C2563 C2571 1.433 . S
C2564 H2560 0.929 . S
C2564 C2566 1.378 . S
C2564 C2568 1.350 . S
C2565 C2568 1.463 . S
C2565 C2570 1.350 . S
C2565 N2573 1.427 . S
C2566 H2557 0.930 . S
C2566 C2564 1.378 . S
C2566 C2567 1.367 . S
C2567 C2566 1.367 . S
C2567 C2569 1.433 . S
C2568 C2564 1.350 . S
C2568 C2565 1.463 . S
C2568 N2572 1.427 . S
C2569 H2559 0.929 . S
C2569 C2567 1.433 . S
C2569 N2572 1.384 . S
C2570 H2561 0.929 . S
C2570 C2562 1.378 . S
C2570 C2565 1.350 . S
C2571 H2558 0.929 . S
C2571 C2563 1.433 . S
C2571 N2573 1.384 . S
N2572 C2568 1.427 . S
N2572 C2569 1.384 . S
N2573 C2565 1.427 . S
N2573 C2571 1.384 . S
H2574 C2580 0.930 . S
H2575 C2584 0.930 . S
H2576 C2589 0.929 . S
H2577 C2587 0.929 . S
H2578 C2582 0.929 . S
H2579 C2588 0.929 . S
C2580 H2574 0.930 . S
C2580 C2581 1.367 . S
C2580 C2588 1.378 . S
C2581 C2580 1.367 . S
C2581 C2589 1.433 . S
C2582 H2578 0.929 . S
C2582 C2584 1.378 . S
C2582 C2586 1.350 . S
C2583 C2586 1.463 . S
C2583 C2588 1.350 . S
C2583 N2591 1.427 . S
C2584 H2575 0.930 . S
C2584 C2582 1.378 . S
C2584 C2585 1.367 . S
C2585 C2584 1.367 . S
C2585 C2587 1.433 . S
C2586 C2582 1.350 . S
C2586 C2583 1.463 . S
C2586 N2590 1.427 . S
C2587 H2577 0.929 . S
C2587 C2585 1.433 . S
C2587 N2590 1.384 . S
C2588 H2579 0.929 . S
C2588 C2580 1.378 . S
C2588 C2583 1.350 . S
C2589 H2576 0.929 . S
C2589 C2581 1.433 . S
C2589 N2591 1.384 . S
N2590 C2586 1.427 . S
N2590 C2587 1.384 . S
N2591 C2583 1.427 . S
N2591 C2589 1.384 . S
H2592 C2598 0.930 . S
H2593 C2602 0.930 . S
H2594 C2607 0.929 . S
H2595 C2605 0.929 . S
H2596 C2600 0.929 . S
H2597 C2606 0.929 . S
C2598 H2592 0.930 . S
C2598 C2599 1.367 . S
C2598 C2606 1.378 . S
C2599 C2598 1.367 . S
C2599 C2607 1.433 . S
C2600 H2596 0.929 . S
C2600 C2602 1.378 . S
C2600 C2604 1.350 . S
C2601 C2604 1.463 . S
C2601 C2606 1.350 . S
C2601 N2609 1.427 . S
C2602 H2593 0.930 . S
C2602 C2600 1.378 . S
C2602 C2603 1.367 . S
C2603 C2602 1.367 . S
C2603 C2605 1.433 . S
C2604 C2600 1.350 . S
C2604 C2601 1.463 . S
C2604 N2608 1.427 . S
C2605 H2595 0.929 . S
C2605 C2603 1.433 . S
C2605 N2608 1.384 . S
C2606 H2597 0.929 . S
C2606 C2598 1.378 . S
C2606 C2601 1.350 . S
C2607 H2594 0.929 . S
C2607 C2599 1.433 . S
C2607 N2609 1.384 . S
N2608 C2604 1.427 . S
N2608 C2605 1.384 . S
N2609 C2601 1.427 . S
N2609 C2607 1.384 . S
H2610 C2616 0.930 . S
H2611 C2620 0.930 . S
H2612 C2625 0.929 . S
H2613 C2623 0.929 . S
H2614 C2618 0.929 . S
H2615 C2624 0.929 . S
C2616 H2610 0.930 . S
C2616 C2617 1.367 . S
C2616 C2624 1.378 . S
C2617 C2616 1.367 . S
C2617 C2625 1.433 . S
C2618 H2614 0.929 . S
C2618 C2620 1.378 . S
C2618 C2622 1.350 . S
C2619 C2622 1.463 . S
C2619 C2624 1.350 . S
C2619 N2627 1.427 . S
C2620 H2611 0.930 . S
C2620 C2618 1.378 . S
C2620 C2621 1.367 . S
C2621 C2620 1.367 . S
C2621 C2623 1.433 . S
C2622 C2618 1.350 . S
C2622 C2619 1.463 . S
C2622 N2626 1.427 . S
C2623 H2613 0.929 . S
C2623 C2621 1.433 . S
C2623 N2626 1.384 . S
C2624 H2615 0.929 . S
C2624 C2616 1.378 . S
C2624 C2619 1.350 . S
C2625 H2612 0.929 . S
C2625 C2617 1.433 . S
C2625 N2627 1.384 . S
N2626 C2622 1.427 . S
N2626 C2623 1.384 . S
N2627 C2619 1.427 . S
N2627 C2625 1.384 . S
H2628 C2634 0.930 . S
H2629 C2638 0.930 . S
H2630 C2643 0.929 . S
H2631 C2641 0.929 . S
H2632 C2636 0.929 . S
H2633 C2642 0.929 . S
C2634 H2628 0.930 . S
C2634 C2635 1.367 . S
C2634 C2642 1.378 . S
C2635 C2634 1.367 . S
C2635 C2643 1.433 . S
C2636 H2632 0.929 . S
C2636 C2638 1.378 . S
C2636 C2640 1.350 . S
C2637 C2640 1.463 . S
C2637 C2642 1.350 . S
C2637 N2645 1.427 . S
C2638 H2629 0.930 . S
C2638 C2636 1.378 . S
C2638 C2639 1.367 . S
C2639 C2638 1.367 . S
C2639 C2641 1.433 . S
C2640 C2636 1.350 . S
C2640 C2637 1.463 . S
C2640 N2644 1.427 . S
C2641 H2631 0.929 . S
C2641 C2639 1.433 . S
C2641 N2644 1.384 . S
C2642 H2633 0.929 . S
C2642 C2634 1.378 . S
C2642 C2637 1.350 . S
C2643 H2630 0.929 . S
C2643 C2635 1.433 . S
C2643 N2645 1.384 . S
N2644 C2640 1.427 . S
N2644 C2641 1.384 . S
N2645 C2637 1.427 . S
N2645 C2643 1.384 . S
H2646 C2652 0.930 . S
H2647 C2656 0.930 . S
H2648 C2661 0.929 . S
H2649 C2659 0.929 . S
H2650 C2654 0.929 . S
H2651 C2660 0.929 . S
C2652 H2646 0.930 . S
C2652 C2653 1.367 . S
C2652 C2660 1.378 . S
C2653 C2652 1.367 . S
C2653 C2661 1.433 . S
C2654 H2650 0.929 . S
C2654 C2656 1.378 . S
C2654 C2658 1.350 . S
C2655 C2658 1.463 . S
C2655 C2660 1.350 . S
C2655 N2663 1.427 . S
C2656 H2647 0.930 . S
C2656 C2654 1.378 . S
C2656 C2657 1.367 . S
C2657 C2656 1.367 . S
C2657 C2659 1.433 . S
C2658 C2654 1.350 . S
C2658 C2655 1.463 . S
C2658 N2662 1.427 . S
C2659 H2649 0.929 . S
C2659 C2657 1.433 . S
C2659 N2662 1.384 . S
C2660 H2651 0.929 . S
C2660 C2652 1.378 . S
C2660 C2655 1.350 . S
C2661 H2648 0.929 . S
C2661 C2653 1.433 . S
C2661 N2663 1.384 . S
N2662 C2658 1.427 . S
N2662 C2659 1.384 . S
N2663 C2655 1.427 . S
N2663 C2661 1.384 . S
H2664 C2670 0.930 . S
H2665 C2674 0.930 . S
H2666 C2679 0.929 . S
H2667 C2677 0.929 . S
H2668 C2672 0.929 . S
H2669 C2678 0.929 . S
C2670 H2664 0.930 . S
C2670 C2671 1.367 . S
C2670 C2678 1.378 . S
C2671 C2670 1.367 . S
C2671 C2679 1.433 . S
C2672 H2668 0.929 . S
C2672 C2674 1.378 . S
C2672 C2676 1.350 . S
C2673 C2676 1.463 . S
C2673 C2678 1.350 . S
C2673 N2681 1.427 . S
C2674 H2665 0.930 . S
C2674 C2672 1.378 . S
C2674 C2675 1.367 . S
C2675 C2674 1.367 . S
C2675 C2677 1.433 . S
C2676 C2672 1.350 . S
C2676 C2673 1.463 . S
C2676 N2680 1.427 . S
C2677 H2667 0.929 . S
C2677 C2675 1.433 . S
C2677 N2680 1.384 . S
C2678 H2669 0.929 . S
C2678 C2670 1.378 . S
C2678 C2673 1.350 . S
C2679 H2666 0.929 . S
C2679 C2671 1.433 . S
C2679 N2681 1.384 . S
N2680 C2676 1.427 . S
N2680 C2677 1.384 . S
N2681 C2673 1.427 . S
N2681 C2679 1.384 . S
H2682 C2688 0.930 . S
H2683 C2692 0.930 . S
H2684 C2697 0.929 . S
H2685 C2695 0.929 . S
H2686 C2690 0.929 . S
H2687 C2696 0.929 . S
C2688 H2682 0.930 . S
C2688 C2689 1.367 . S
C2688 C2696 1.378 . S
C2689 C2688 1.367 . S
C2689 C2697 1.433 . S
C2690 H2686 0.929 . S
C2690 C2692 1.378 . S
C2690 C2694 1.350 . S
C2691 C2694 1.463 . S
C2691 C2696 1.350 . S
C2691 N2699 1.427 . S
C2692 H2683 0.930 . S
C2692 C2690 1.378 . S
C2692 C2693 1.367 . S
C2693 C2692 1.367 . S
C2693 C2695 1.433 . S
C2694 C2690 1.350 . S
C2694 C2691 1.463 . S
C2694 N2698 1.427 . S
C2695 H2685 0.929 . S
C2695 C2693 1.433 . S
C2695 N2698 1.384 . S
C2696 H2687 0.929 . S
C2696 C2688 1.378 . S
C2696 C2691 1.350 . S
C2697 H2684 0.929 . S
C2697 C2689 1.433 . S
C2697 N2699 1.384 . S
N2698 C2694 1.427 . S
N2698 C2695 1.384 . S
N2699 C2691 1.427 . S
N2699 C2697 1.384 . S
H2700 C2706 0.930 . S
H2701 C2710 0.930 . S
H2702 C2715 0.929 . S
H2703 C2713 0.929 . S
H2704 C2708 0.929 . S
H2705 C2714 0.929 . S
C2706 H2700 0.930 . S
C2706 C2707 1.367 . S
C2706 C2714 1.378 . S
C2707 C2706 1.367 . S
C2707 C2715 1.433 . S
C2708 H2704 0.929 . S
C2708 C2710 1.378 . S
C2708 C2712 1.350 . S
C2709 C2712 1.463 . S
C2709 C2714 1.350 . S
C2709 N2717 1.427 . S
C2710 H2701 0.930 . S
C2710 C2708 1.378 . S
C2710 C2711 1.367 . S
C2711 C2710 1.367 . S
C2711 C2713 1.433 . S
C2712 C2708 1.350 . S
C2712 C2709 1.463 . S
C2712 N2716 1.427 . S
C2713 H2703 0.929 . S
C2713 C2711 1.433 . S
C2713 N2716 1.384 . S
C2714 H2705 0.929 . S
C2714 C2706 1.378 . S
C2714 C2709 1.350 . S
C2715 H2702 0.929 . S
C2715 C2707 1.433 . S
C2715 N2717 1.384 . S
N2716 C2712 1.427 . S
N2716 C2713 1.384 . S
N2717 C2709 1.427 . S
N2717 C2715 1.384 . S
H2718 C2724 0.930 . S
H2719 C2728 0.930 . S
H2720 C2733 0.929 . S
H2721 C2731 0.929 . S
H2722 C2726 0.929 . S
H2723 C2732 0.929 . S
C2724 H2718 0.930 . S
C2724 C2725 1.367 . S
C2724 C2732 1.378 . S
C2725 C2724 1.367 . S
C2725 C2733 1.433 . S
C2726 H2722 0.929 . S
C2726 C2728 1.378 . S
C2726 C2730 1.350 . S
C2727 C2730 1.463 . S
C2727 C2732 1.350 . S
C2727 N2735 1.427 . S
C2728 H2719 0.930 . S
C2728 C2726 1.378 . S
C2728 C2729 1.367 . S
C2729 C2728 1.367 . S
C2729 C2731 1.433 . S
C2730 C2726 1.350 . S
C2730 C2727 1.463 . S
C2730 N2734 1.427 . S
C2731 H2721 0.929 . S
C2731 C2729 1.433 . S
C2731 N2734 1.384 . S
C2732 H2723 0.929 . S
C2732 C2724 1.378 . S
C2732 C2727 1.350 . S
C2733 H2720 0.929 . S
C2733 C2725 1.433 . S
C2733 N2735 1.384 . S
N2734 C2730 1.427 . S
N2734 C2731 1.384 . S
N2735 C2727 1.427 . S
N2735 C2733 1.384 . S
H2736 C2742 0.930 . S
H2737 C2746 0.930 . S
H2738 C2751 0.929 . S
H2739 C2749 0.929 . S
H2740 C2744 0.929 . S
H2741 C2750 0.929 . S
C2742 H2736 0.930 . S
C2742 C2743 1.367 . S
C2742 C2750 1.378 . S
C2743 C2742 1.367 . S
C2743 C2751 1.433 . S
C2744 H2740 0.929 . S
C2744 C2746 1.378 . S
C2744 C2748 1.350 . S
C2745 C2748 1.463 . S
C2745 C2750 1.350 . S
C2745 N2753 1.427 . S
C2746 H2737 0.930 . S
C2746 C2744 1.378 . S
C2746 C2747 1.367 . S
C2747 C2746 1.367 . S
C2747 C2749 1.433 . S
C2748 C2744 1.350 . S
C2748 C2745 1.463 . S
C2748 N2752 1.427 . S
C2749 H2739 0.929 . S
C2749 C2747 1.433 . S
C2749 N2752 1.384 . S
C2750 H2741 0.929 . S
C2750 C2742 1.378 . S
C2750 C2745 1.350 . S
C2751 H2738 0.929 . S
C2751 C2743 1.433 . S
C2751 N2753 1.384 . S
N2752 C2748 1.427 . S
N2752 C2749 1.384 . S
N2753 C2745 1.427 . S
N2753 C2751 1.384 . S
H2754 C2760 0.930 . S
H2755 C2764 0.930 . S
H2756 C2769 0.929 . S
H2757 C2767 0.929 . S
H2758 C2762 0.929 . S
H2759 C2768 0.929 . S
C2760 H2754 0.930 . S
C2760 C2761 1.367 . S
C2760 C2768 1.378 . S
C2761 C2760 1.367 . S
C2761 C2769 1.433 . S
C2762 H2758 0.929 . S
C2762 C2764 1.378 . S
C2762 C2766 1.350 . S
C2763 C2766 1.463 . S
C2763 C2768 1.350 . S
C2763 N2771 1.427 . S
C2764 H2755 0.930 . S
C2764 C2762 1.378 . S
C2764 C2765 1.367 . S
C2765 C2764 1.367 . S
C2765 C2767 1.433 . S
C2766 C2762 1.350 . S
C2766 C2763 1.463 . S
C2766 N2770 1.427 . S
C2767 H2757 0.929 . S
C2767 C2765 1.433 . S
C2767 N2770 1.384 . S
C2768 H2759 0.929 . S
C2768 C2760 1.378 . S
C2768 C2763 1.350 . S
C2769 H2756 0.929 . S
C2769 C2761 1.433 . S
C2769 N2771 1.384 . S
N2770 C2766 1.427 . S
N2770 C2767 1.384 . S
N2771 C2763 1.427 . S
N2771 C2769 1.384 . S
H2772 C2778 0.930 . S
H2773 C2782 0.930 . S
H2774 C2787 0.929 . S
H2775 C2785 0.929 . S
H2776 C2780 0.929 . S
H2777 C2786 0.929 . S
C2778 H2772 0.930 . S
C2778 C2779 1.367 . S
C2778 C2786 1.378 . S
C2779 C2778 1.367 . S
C2779 C2787 1.433 . S
C2780 H2776 0.929 . S
C2780 C2782 1.378 . S
C2780 C2784 1.350 . S
C2781 C2784 1.463 . S
C2781 C2786 1.350 . S
C2781 N2789 1.427 . S
C2782 H2773 0.930 . S
C2782 C2780 1.378 . S
C2782 C2783 1.367 . S
C2783 C2782 1.367 . S
C2783 C2785 1.433 . S
C2784 C2780 1.350 . S
C2784 C2781 1.463 . S
C2784 N2788 1.427 . S
C2785 H2775 0.929 . S
C2785 C2783 1.433 . S
C2785 N2788 1.384 . S
C2786 H2777 0.929 . S
C2786 C2778 1.378 . S
C2786 C2781 1.350 . S
C2787 H2774 0.929 . S
C2787 C2779 1.433 . S
C2787 N2789 1.384 . S
N2788 C2784 1.427 . S
N2788 C2785 1.384 . S
N2789 C2781 1.427 . S
N2789 C2787 1.384 . S
H2790 C2796 0.930 . S
H2791 C2800 0.930 . S
H2792 C2805 0.929 . S
H2793 C2803 0.929 . S
H2794 C2798 0.929 . S
H2795 C2804 0.929 . S
C2796 H2790 0.930 . S
C2796 C2797 1.367 . S
C2796 C2804 1.378 . S
C2797 C2796 1.367 . S
C2797 C2805 1.433 . S
C2798 H2794 0.929 . S
C2798 C2800 1.378 . S
C2798 C2802 1.350 . S
C2799 C2802 1.463 . S
C2799 C2804 1.350 . S
C2799 N2807 1.427 . S
C2800 H2791 0.930 . S
C2800 C2798 1.378 . S
C2800 C2801 1.367 . S
C2801 C2800 1.367 . S
C2801 C2803 1.433 . S
C2802 C2798 1.350 . S
C2802 C2799 1.463 . S
C2802 N2806 1.427 . S
C2803 H2793 0.929 . S
C2803 C2801 1.433 . S
C2803 N2806 1.384 . S
C2804 H2795 0.929 . S
C2804 C2796 1.378 . S
C2804 C2799 1.350 . S
C2805 H2792 0.929 . S
C2805 C2797 1.433 . S
C2805 N2807 1.384 . S
N2806 C2802 1.427 . S
N2806 C2803 1.384 . S
N2807 C2799 1.427 . S
N2807 C2805 1.384 . S
H2808 C2814 0.930 . S
H2809 C2818 0.930 . S
H2810 C2823 0.929 . S
H2811 C2821 0.929 . S
H2812 C2816 0.929 . S
H2813 C2822 0.929 . S
C2814 H2808 0.930 . S
C2814 C2815 1.367 . S
C2814 C2822 1.378 . S
C2815 C2814 1.367 . S
C2815 C2823 1.433 . S
C2816 H2812 0.929 . S
C2816 C2818 1.378 . S
C2816 C2820 1.350 . S
C2817 C2820 1.463 . S
C2817 C2822 1.350 . S
C2817 N2825 1.427 . S
C2818 H2809 0.930 . S
C2818 C2816 1.378 . S
C2818 C2819 1.367 . S
C2819 C2818 1.367 . S
C2819 C2821 1.433 . S
C2820 C2816 1.350 . S
C2820 C2817 1.463 . S
C2820 N2824 1.427 . S
C2821 H2811 0.929 . S
C2821 C2819 1.433 . S
C2821 N2824 1.384 . S
C2822 H2813 0.929 . S
C2822 C2814 1.378 . S
C2822 C2817 1.350 . S
C2823 H2810 0.929 . S
C2823 C2815 1.433 . S
C2823 N2825 1.384 . S
N2824 C2820 1.427 . S
N2824 C2821 1.384 . S
N2825 C2817 1.427 . S
N2825 C2823 1.384 . S
H2826 C2832 0.930 . S
H2827 C2836 0.930 . S
H2828 C2841 0.929 . S
H2829 C2839 0.929 . S
H2830 C2834 0.929 . S
H2831 C2840 0.929 . S
C2832 H2826 0.930 . S
C2832 C2833 1.367 . S
C2832 C2840 1.378 . S
C2833 C2832 1.367 . S
C2833 C2841 1.433 . S
C2834 H2830 0.929 . S
C2834 C2836 1.378 . S
C2834 C2838 1.350 . S
C2835 C2838 1.463 . S
C2835 C2840 1.350 . S
C2835 N2843 1.427 . S
C2836 H2827 0.930 . S
C2836 C2834 1.378 . S
C2836 C2837 1.367 . S
C2837 C2836 1.367 . S
C2837 C2839 1.433 . S
C2838 C2834 1.350 . S
C2838 C2835 1.463 . S
C2838 N2842 1.427 . S
C2839 H2829 0.929 . S
C2839 C2837 1.433 . S
C2839 N2842 1.384 . S
C2840 H2831 0.929 . S
C2840 C2832 1.378 . S
C2840 C2835 1.350 . S
C2841 H2828 0.929 . S
C2841 C2833 1.433 . S
C2841 N2843 1.384 . S
N2842 C2838 1.427 . S
N2842 C2839 1.384 . S
N2843 C2835 1.427 . S
N2843 C2841 1.384 . S
H2844 C2850 0.930 . S
H2845 C2854 0.930 . S
H2846 C2859 0.929 . S
H2847 C2857 0.929 . S
H2848 C2852 0.929 . S
H2849 C2858 0.929 . S
C2850 H2844 0.930 . S
C2850 C2851 1.367 . S
C2850 C2858 1.378 . S
C2851 C2850 1.367 . S
C2851 C2859 1.433 . S
C2852 H2848 0.929 . S
C2852 C2854 1.378 . S
C2852 C2856 1.350 . S
C2853 C2856 1.463 . S
C2853 C2858 1.350 . S
C2853 N2861 1.427 . S
C2854 H2845 0.930 . S
C2854 C2852 1.378 . S
C2854 C2855 1.367 . S
C2855 C2854 1.367 . S
C2855 C2857 1.433 . S
C2856 C2852 1.350 . S
C2856 C2853 1.463 . S
C2856 N2860 1.427 . S
C2857 H2847 0.929 . S
C2857 C2855 1.433 . S
C2857 N2860 1.384 . S
C2858 H2849 0.929 . S
C2858 C2850 1.378 . S
C2858 C2853 1.350 . S
C2859 H2846 0.929 . S
C2859 C2851 1.433 . S
C2859 N2861 1.384 . S
N2860 C2856 1.427 . S
N2860 C2857 1.384 . S
N2861 C2853 1.427 . S
N2861 C2859 1.384 . S
H2862 C2868 0.930 . S
H2863 C2872 0.930 . S
H2864 C2877 0.929 . S
H2865 C2875 0.929 . S
H2866 C2870 0.929 . S
H2867 C2876 0.929 . S
C2868 H2862 0.930 . S
C2868 C2869 1.367 . S
C2868 C2876 1.378 . S
C2869 C2868 1.367 . S
C2869 C2877 1.433 . S
C2870 H2866 0.929 . S
C2870 C2872 1.378 . S
C2870 C2874 1.350 . S
C2871 C2874 1.463 . S
C2871 C2876 1.350 . S
C2871 N2879 1.427 . S
C2872 H2863 0.930 . S
C2872 C2870 1.378 . S
C2872 C2873 1.367 . S
C2873 C2872 1.367 . S
C2873 C2875 1.433 . S
C2874 C2870 1.350 . S
C2874 C2871 1.463 . S
C2874 N2878 1.427 . S
C2875 H2865 0.929 . S
C2875 C2873 1.433 . S
C2875 N2878 1.384 . S
C2876 H2867 0.929 . S
C2876 C2868 1.378 . S
C2876 C2871 1.350 . S
C2877 H2864 0.929 . S
C2877 C2869 1.433 . S
C2877 N2879 1.384 . S
N2878 C2874 1.427 . S
N2878 C2875 1.384 . S
N2879 C2871 1.427 . S
N2879 C2877 1.384 . S
H2880 C2886 0.930 . S
H2881 C2890 0.930 . S
H2882 C2895 0.929 . S
H2883 C2893 0.929 . S
H2884 C2888 0.929 . S
H2885 C2894 0.929 . S
C2886 H2880 0.930 . S
C2886 C2887 1.367 . S
C2886 C2894 1.378 . S
C2887 C2886 1.367 . S
C2887 C2895 1.433 . S
C2888 H2884 0.929 . S
C2888 C2890 1.378 . S
C2888 C2892 1.350 . S
C2889 C2892 1.463 . S
C2889 C2894 1.350 . S
C2889 N2897 1.427 . S
C2890 H2881 0.930 . S
C2890 C2888 1.378 . S
C2890 C2891 1.367 . S
C2891 C2890 1.367 . S
C2891 C2893 1.433 . S
C2892 C2888 1.350 . S
C2892 C2889 1.463 . S
C2892 N2896 1.427 . S
C2893 H2883 0.929 . S
C2893 C2891 1.433 . S
C2893 N2896 1.384 . S
C2894 H2885 0.929 . S
C2894 C2886 1.378 . S
C2894 C2889 1.350 . S
C2895 H2882 0.929 . S
C2895 C2887 1.433 . S
C2895 N2897 1.384 . S
N2896 C2892 1.427 . S
N2896 C2893 1.384 . S
N2897 C2889 1.427 . S
N2897 C2895 1.384 . S
H2898 C2904 0.930 . S
H2899 C2908 0.930 . S
H2900 C2913 0.929 . S
H2901 C2911 0.929 . S
H2902 C2906 0.929 . S
H2903 C2912 0.929 . S
C2904 H2898 0.930 . S
C2904 C2905 1.367 . S
C2904 C2912 1.378 . S
C2905 C2904 1.367 . S
C2905 C2913 1.433 . S
C2906 H2902 0.929 . S
C2906 C2908 1.378 . S
C2906 C2910 1.350 . S
C2907 C2910 1.463 . S
C2907 C2912 1.350 . S
C2907 N2915 1.427 . S
C2908 H2899 0.930 . S
C2908 C2906 1.378 . S
C2908 C2909 1.367 . S
C2909 C2908 1.367 . S
C2909 C2911 1.433 . S
C2910 C2906 1.350 . S
C2910 C2907 1.463 . S
C2910 N2914 1.427 . S
C2911 H2901 0.929 . S
C2911 C2909 1.433 . S
C2911 N2914 1.384 . S
C2912 H2903 0.929 . S
C2912 C2904 1.378 . S
C2912 C2907 1.350 . S
C2913 H2900 0.929 . S
C2913 C2905 1.433 . S
C2913 N2915 1.384 . S
N2914 C2910 1.427 . S
N2914 C2911 1.384 . S
N2915 C2907 1.427 . S
N2915 C2913 1.384 . S
H2916 C2922 0.930 . S
H2917 C2926 0.930 . S
H2918 C2931 0.929 . S
H2919 C2929 0.929 . S
H2920 C2924 0.929 . S
H2921 C2930 0.929 . S
C2922 H2916 0.930 . S
C2922 C2923 1.367 . S
C2922 C2930 1.378 . S
C2923 C2922 1.367 . S
C2923 C2931 1.433 . S
C2924 H2920 0.929 . S
C2924 C2926 1.378 . S
C2924 C2928 1.350 . S
C2925 C2928 1.463 . S
C2925 C2930 1.350 . S
C2925 N2933 1.427 . S
C2926 H2917 0.930 . S
C2926 C2924 1.378 . S
C2926 C2927 1.367 . S
C2927 C2926 1.367 . S
C2927 C2929 1.433 . S
C2928 C2924 1.350 . S
C2928 C2925 1.463 . S
C2928 N2932 1.427 . S
C2929 H2919 0.929 . S
C2929 C2927 1.433 . S
C2929 N2932 1.384 . S
C2930 H2921 0.929 . S
C2930 C2922 1.378 . S
C2930 C2925 1.350 . S
C2931 H2918 0.929 . S
C2931 C2923 1.433 . S
C2931 N2933 1.384 . S
N2932 C2928 1.427 . S
N2932 C2929 1.384 . S
N2933 C2925 1.427 . S
N2933 C2931 1.384 . S
H2934 C2940 0.930 . S
H2935 C2944 0.930 . S
H2936 C2949 0.929 . S
H2937 C2947 0.929 . S
H2938 C2942 0.929 . S
H2939 C2948 0.929 . S
C2940 H2934 0.930 . S
C2940 C2941 1.367 . S
C2940 C2948 1.378 . S
C2941 C2940 1.367 . S
C2941 C2949 1.433 . S
C2942 H2938 0.929 . S
C2942 C2944 1.378 . S
C2942 C2946 1.350 . S
C2943 C2946 1.463 . S
C2943 C2948 1.350 . S
C2943 N2951 1.427 . S
C2944 H2935 0.930 . S
C2944 C2942 1.378 . S
C2944 C2945 1.367 . S
C2945 C2944 1.367 . S
C2945 C2947 1.433 . S
C2946 C2942 1.350 . S
C2946 C2943 1.463 . S
C2946 N2950 1.427 . S
C2947 H2937 0.929 . S
C2947 C2945 1.433 . S
C2947 N2950 1.384 . S
C2948 H2939 0.929 . S
C2948 C2940 1.378 . S
C2948 C2943 1.350 . S
C2949 H2936 0.929 . S
C2949 C2941 1.433 . S
C2949 N2951 1.384 . S
N2950 C2946 1.427 . S
N2950 C2947 1.384 . S
N2951 C2943 1.427 . S
N2951 C2949 1.384 . S
H2952 C2958 0.930 . S
H2953 C2962 0.930 . S
H2954 C2967 0.929 . S
H2955 C2965 0.929 . S
H2956 C2960 0.929 . S
H2957 C2966 0.929 . S
C2958 H2952 0.930 . S
C2958 C2959 1.367 . S
C2958 C2966 1.378 . S
C2959 C2958 1.367 . S
C2959 C2967 1.433 . S
C2960 H2956 0.929 . S
C2960 C2962 1.378 . S
C2960 C2964 1.350 . S
C2961 C2964 1.463 . S
C2961 C2966 1.350 . S
C2961 N2969 1.427 . S
C2962 H2953 0.930 . S
C2962 C2960 1.378 . S
C2962 C2963 1.367 . S
C2963 C2962 1.367 . S
C2963 C2965 1.433 . S
C2964 C2960 1.350 . S
C2964 C2961 1.463 . S
C2964 N2968 1.427 . S
C2965 H2955 0.929 . S
C2965 C2963 1.433 . S
C2965 N2968 1.384 . S
C2966 H2957 0.929 . S
C2966 C2958 1.378 . S
C2966 C2961 1.350 . S
C2967 H2954 0.929 . S
C2967 C2959 1.433 . S
C2967 N2969 1.384 . S
N2968 C2964 1.427 . S
N2968 C2965 1.384 . S
N2969 C2961 1.427 . S
N2969 C2967 1.384 . S
H2970 C2976 0.930 . S
H2971 C2980 0.930 . S
H2972 C2985 0.929 . S
H2973 C2983 0.929 . S
H2974 C2978 0.929 . S
H2975 C2984 0.929 . S
C2976 H2970 0.930 . S
C2976 C2977 1.367 . S
C2976 C2984 1.378 . S
C2977 C2976 1.367 . S
C2977 C2985 1.433 . S
C2978 H2974 0.929 . S
C2978 C2980 1.378 . S
C2978 C2982 1.350 . S
C2979 C2982 1.463 . S
C2979 C2984 1.350 . S
C2979 N2987 1.427 . S
C2980 H2971 0.930 . S
C2980 C2978 1.378 . S
C2980 C2981 1.367 . S
C2981 C2980 1.367 . S
C2981 C2983 1.433 . S
C2982 C2978 1.350 . S
C2982 C2979 1.463 . S
C2982 N2986 1.427 . S
C2983 H2973 0.929 . S
C2983 C2981 1.433 . S
C2983 N2986 1.384 . S
C2984 H2975 0.929 . S
C2984 C2976 1.378 . S
C2984 C2979 1.350 . S
C2985 H2972 0.929 . S
C2985 C2977 1.433 . S
C2985 N2987 1.384 . S
N2986 C2982 1.427 . S
N2986 C2983 1.384 . S
N2987 C2979 1.427 . S
N2987 C2985 1.384 . S
H2988 C2994 0.930 . S
H2989 C2998 0.930 . S
H2990 C3003 0.929 . S
H2991 C3001 0.929 . S
H2992 C2996 0.929 . S
H2993 C3002 0.929 . S
C2994 H2988 0.930 . S
C2994 C2995 1.367 . S
C2994 C3002 1.378 . S
C2995 C2994 1.367 . S
C2995 C3003 1.433 . S
C2996 H2992 0.929 . S
C2996 C2998 1.378 . S
C2996 C3000 1.350 . S
C2997 C3000 1.463 . S
C2997 C3002 1.350 . S
C2997 N3005 1.427 . S
C2998 H2989 0.930 . S
C2998 C2996 1.378 . S
C2998 C2999 1.367 . S
C2999 C2998 1.367 . S
C2999 C3001 1.433 . S
C3000 C2996 1.350 . S
C3000 C2997 1.463 . S
C3000 N3004 1.427 . S
C3001 H2991 0.929 . S
C3001 C2999 1.433 . S
C3001 N3004 1.384 . S
C3002 H2993 0.929 . S
C3002 C2994 1.378 . S
C3002 C2997 1.350 . S
C3003 H2990 0.929 . S
C3003 C2995 1.433 . S
C3003 N3005 1.384 . S
N3004 C3000 1.427 . S
N3004 C3001 1.384 . S
N3005 C2997 1.427 . S
N3005 C3003 1.384 . S
H3006 C3012 0.930 . S
H3007 C3016 0.930 . S
H3008 C3021 0.929 . S
H3009 C3019 0.929 . S
H3010 C3014 0.929 . S
H3011 C3020 0.929 . S
C3012 H3006 0.930 . S
C3012 C3013 1.367 . S
C3012 C3020 1.378 . S
C3013 C3012 1.367 . S
C3013 C3021 1.433 . S
C3014 H3010 0.929 . S
C3014 C3016 1.378 . S
C3014 C3018 1.350 . S
C3015 C3018 1.463 . S
C3015 C3020 1.350 . S
C3015 N3023 1.427 . S
C3016 H3007 0.930 . S
C3016 C3014 1.378 . S
C3016 C3017 1.367 . S
C3017 C3016 1.367 . S
C3017 C3019 1.433 . S
C3018 C3014 1.350 . S
C3018 C3015 1.463 . S
C3018 N3022 1.427 . S
C3019 H3009 0.929 . S
C3019 C3017 1.433 . S
C3019 N3022 1.384 . S
C3020 H3011 0.929 . S
C3020 C3012 1.378 . S
C3020 C3015 1.350 . S
C3021 H3008 0.929 . S
C3021 C3013 1.433 . S
C3021 N3023 1.384 . S
N3022 C3018 1.427 . S
N3022 C3019 1.384 . S
N3023 C3015 1.427 . S
N3023 C3021 1.384 . S
H3024 C3030 0.930 . S
H3025 C3034 0.930 . S
H3026 C3039 0.929 . S
H3027 C3037 0.929 . S
H3028 C3032 0.929 . S
H3029 C3038 0.929 . S
C3030 H3024 0.930 . S
C3030 C3031 1.367 . S
C3030 C3038 1.378 . S
C3031 C3030 1.367 . S
C3031 C3039 1.433 . S
C3032 H3028 0.929 . S
C3032 C3034 1.378 . S
C3032 C3036 1.350 . S
C3033 C3036 1.463 . S
C3033 C3038 1.350 . S
C3033 N3041 1.427 . S
C3034 H3025 0.930 . S
C3034 C3032 1.378 . S
C3034 C3035 1.367 . S
C3035 C3034 1.367 . S
C3035 C3037 1.433 . S
C3036 C3032 1.350 . S
C3036 C3033 1.463 . S
C3036 N3040 1.427 . S
C3037 H3027 0.929 . S
C3037 C3035 1.433 . S
C3037 N3040 1.384 . S
C3038 H3029 0.929 . S
C3038 C3030 1.378 . S
C3038 C3033 1.350 . S
C3039 H3026 0.929 . S
C3039 C3031 1.433 . S
C3039 N3041 1.384 . S
N3040 C3036 1.427 . S
N3040 C3037 1.384 . S
N3041 C3033 1.427 . S
N3041 C3039 1.384 . S
H3042 C3048 0.930 . S
H3043 C3052 0.930 . S
H3044 C3057 0.905 1_554 S
H3045 C3055 0.929 . S
H3046 C3050 0.929 . S
H3047 C3056 0.929 . S
C3048 H3042 0.930 . S
C3048 C3049 1.367 . S
C3048 C3056 1.378 . S
C3049 C3048 1.367 . S
C3049 C3057 1.433 . S
C3050 H3046 0.929 . S
C3050 C3052 1.378 . S
C3050 C3054 1.350 . S
C3051 C3054 1.463 . S
C3051 C3056 1.350 . S
C3051 N3059 1.427 . S
C3052 H3043 0.930 . S
C3052 C3050 1.378 . S
C3052 C3053 1.367 . S
C3053 C3052 1.367 . S
C3053 C3055 1.433 . S
C3054 C3050 1.350 . S
C3054 C3051 1.463 . S
C3054 N3058 1.427 . S
C3055 H3045 0.929 . S
C3055 C3053 1.433 . S
C3055 N3058 1.384 . S
C3056 H3047 0.929 . S
C3056 C3048 1.378 . S
C3056 C3051 1.350 . S
C3057 H3044 0.905 1_556 S
C3057 C3049 1.433 . S
C3057 N3059 1.384 . S
N3058 C3054 1.427 . S
N3058 C3055 1.384 . S
N3059 C3051 1.427 . S
N3059 C3057 1.384 . S
H3060 C3066 0.930 . S
H3061 C3070 0.930 . S
H3062 C3075 0.929 . S
H3063 C3073 0.929 . S
H3064 C3068 0.929 . S
H3065 C3074 0.929 . S
C3066 H3060 0.930 . S
C3066 C3067 1.367 . S
C3066 C3074 1.378 . S
C3067 C3066 1.367 . S
C3067 C3075 1.433 . S
C3068 H3064 0.929 . S
C3068 C3070 1.378 . S
C3068 C3072 1.350 . S
C3069 C3072 1.463 . S
C3069 C3074 1.350 . S
C3069 N3077 1.427 . S
C3070 H3061 0.930 . S
C3070 C3068 1.378 . S
C3070 C3071 1.367 . S
C3071 C3070 1.367 . S
C3071 C3073 1.433 . S
C3072 C3068 1.350 . S
C3072 C3069 1.463 . S
C3072 N3076 1.427 . S
C3073 H3063 0.929 . S
C3073 C3071 1.433 . S
C3073 N3076 1.384 . S
C3074 H3065 0.929 . S
C3074 C3066 1.378 . S
C3074 C3069 1.350 . S
C3075 H3062 0.929 . S
C3075 C3067 1.433 . S
C3075 N3077 1.384 . S
N3076 C3072 1.427 . S
N3076 C3073 1.384 . S
N3077 C3069 1.427 . S
N3077 C3075 1.384 . S
H3078 C3084 0.930 . S
H3079 C3088 0.930 . S
H3080 C3093 0.929 . S
H3081 C3091 0.929 . S
H3082 C3086 0.929 . S
H3083 C3092 0.929 . S
C3084 H3078 0.930 . S
C3084 C3085 1.367 . S
C3084 C3092 1.378 . S
C3085 C3084 1.367 . S
C3085 C3093 1.433 . S
C3086 H3082 0.929 . S
C3086 C3088 1.378 . S
C3086 C3090 1.350 . S
C3087 C3090 1.463 . S
C3087 C3092 1.350 . S
C3087 N3095 1.427 . S
C3088 H3079 0.930 . S
C3088 C3086 1.378 . S
C3088 C3089 1.367 . S
C3089 C3088 1.367 . S
C3089 C3091 1.433 . S
C3090 C3086 1.350 . S
C3090 C3087 1.463 . S
C3090 N3094 1.427 . S
C3091 H3081 0.929 . S
C3091 C3089 1.433 . S
C3091 N3094 1.384 . S
C3092 H3083 0.929 . S
C3092 C3084 1.378 . S
C3092 C3087 1.350 . S
C3093 H3080 0.929 . S
C3093 C3085 1.433 . S
C3093 N3095 1.384 . S
N3094 C3090 1.427 . S
N3094 C3091 1.384 . S
N3095 C3087 1.427 . S
N3095 C3093 1.384 . S
H3096 C3102 0.930 1_554 S
H3097 C3106 0.930 . S
H3098 C3111 0.929 . S
H3099 C3109 0.929 . S
H3100 C3104 0.929 . S
H3101 C3110 0.929 . S
C3102 H3096 0.930 1_556 S
C3102 C3103 1.367 . S
C3102 C3110 1.378 . S
C3103 C3102 1.367 . S
C3103 C3111 1.433 . S
C3104 H3100 0.929 . S
C3104 C3106 1.378 . S
C3104 C3108 1.350 . S
C3105 C3108 1.463 . S
C3105 C3110 1.350 . S
C3105 N3113 1.427 . S
C3106 H3097 0.930 . S
C3106 C3104 1.378 . S
C3106 C3107 1.367 . S
C3107 C3106 1.367 . S
C3107 C3109 1.433 . S
C3108 C3104 1.350 . S
C3108 C3105 1.463 . S
C3108 N3112 1.427 . S
C3109 H3099 0.929 . S
C3109 C3107 1.433 . S
C3109 N3112 1.384 . S
C3110 H3101 0.929 . S
C3110 C3102 1.378 . S
C3110 C3105 1.350 . S
C3111 H3098 0.929 . S
C3111 C3103 1.433 . S
C3111 N3113 1.384 . S
N3112 C3108 1.427 . S
N3112 C3109 1.384 . S
N3113 C3105 1.427 . S
N3113 C3111 1.384 . S
H3114 C3120 0.930 . S
H3115 C3124 0.930 . S
H3116 C3129 0.929 . S
H3117 C3127 0.929 . S
H3118 C3122 0.929 . S
H3119 C3128 0.929 . S
C3120 H3114 0.930 . S
C3120 C3121 1.367 . S
C3120 C3128 1.378 . S
C3121 C3120 1.367 . S
C3121 C3129 1.433 . S
C3122 H3118 0.929 . S
C3122 C3124 1.378 . S
C3122 C3126 1.350 . S
C3123 C3126 1.463 . S
C3123 C3128 1.350 . S
C3123 N3131 1.427 . S
C3124 H3115 0.930 . S
C3124 C3122 1.378 . S
C3124 C3125 1.367 . S
C3125 C3124 1.367 . S
C3125 C3127 1.433 . S
C3126 C3122 1.350 . S
C3126 C3123 1.463 . S
C3126 N3130 1.427 . S
C3127 H3117 0.929 . S
C3127 C3125 1.433 . S
C3127 N3130 1.384 . S
C3128 H3119 0.929 . S
C3128 C3120 1.378 . S
C3128 C3123 1.350 . S
C3129 H3116 0.929 . S
C3129 C3121 1.433 . S
C3129 N3131 1.384 . S
N3130 C3126 1.427 . S
N3130 C3127 1.384 . S
N3131 C3123 1.427 . S
N3131 C3129 1.384 . S
H3132 C3138 0.930 . S
H3133 C3142 0.930 . S
H3134 C3147 0.929 . S
H3135 C3145 0.929 . S
H3136 C3140 0.929 . S
H3137 C3146 0.929 . S
C3138 H3132 0.930 . S
C3138 C3139 1.367 . S
C3138 C3146 1.378 . S
C3139 C3138 1.367 . S
C3139 C3147 1.433 . S
C3140 H3136 0.929 . S
C3140 C3142 1.378 . S
C3140 C3144 1.350 . S
C3141 C3144 1.463 . S
C3141 C3146 1.350 . S
C3141 N3149 1.427 . S
C3142 H3133 0.930 . S
C3142 C3140 1.378 . S
C3142 C3143 1.367 . S
C3143 C3142 1.367 . S
C3143 C3145 1.433 . S
C3144 C3140 1.350 . S
C3144 C3141 1.463 . S
C3144 N3148 1.427 . S
C3145 H3135 0.929 . S
C3145 C3143 1.433 . S
C3145 N3148 1.384 . S
C3146 H3137 0.929 . S
C3146 C3138 1.378 . S
C3146 C3141 1.350 . S
C3147 H3134 0.929 . S
C3147 C3139 1.433 . S
C3147 N3149 1.384 . S
N3148 C3144 1.427 . S
N3148 C3145 1.384 . S
N3149 C3141 1.427 . S
N3149 C3147 1.384 . S
H3150 C3156 0.930 . S
H3151 C3160 0.930 . S
H3152 C3165 0.929 . S
H3153 C3163 0.929 . S
H3154 C3158 0.929 . S
H3155 C3164 0.929 . S
C3156 H3150 0.930 . S
C3156 C3157 1.367 . S
C3156 C3164 1.378 . S
C3157 C3156 1.367 . S
C3157 C3165 1.433 . S
C3158 H3154 0.929 . S
C3158 C3160 1.378 . S
C3158 C3162 1.350 . S
C3159 C3162 1.463 . S
C3159 C3164 1.350 . S
C3159 N3167 1.427 . S
C3160 H3151 0.930 . S
C3160 C3158 1.378 . S
C3160 C3161 1.367 . S
C3161 C3160 1.367 . S
C3161 C3163 1.433 . S
C3162 C3158 1.350 . S
C3162 C3159 1.463 . S
C3162 N3166 1.427 . S
C3163 H3153 0.929 . S
C3163 C3161 1.433 . S
C3163 N3166 1.384 . S
C3164 H3155 0.929 . S
C3164 C3156 1.378 . S
C3164 C3159 1.350 . S
C3165 H3152 0.929 . S
C3165 C3157 1.433 . S
C3165 N3167 1.384 . S
N3166 C3162 1.427 . S
N3166 C3163 1.384 . S
N3167 C3159 1.427 . S
N3167 C3165 1.384 . S
H3168 C3174 0.930 . S
H3169 C3178 0.930 . S
H3170 C3183 0.929 . S
H3171 C3181 0.929 . S
H3172 C3176 0.929 . S
H3173 C3182 0.929 . S
C3174 H3168 0.930 . S
C3174 C3175 1.367 . S
C3174 C3182 1.378 . S
C3175 C3174 1.367 . S
C3175 C3183 1.433 . S
C3176 H3172 0.929 . S
C3176 C3178 1.378 . S
C3176 C3180 1.350 . S
C3177 C3180 1.463 . S
C3177 C3182 1.350 . S
C3177 N3185 1.427 . S
C3178 H3169 0.930 . S
C3178 C3176 1.378 . S
C3178 C3179 1.367 . S
C3179 C3178 1.367 . S
C3179 C3181 1.433 . S
C3180 C3176 1.350 . S
C3180 C3177 1.463 . S
C3180 N3184 1.427 . S
C3181 H3171 0.929 . S
C3181 C3179 1.433 . S
C3181 N3184 1.384 . S
C3182 H3173 0.929 . S
C3182 C3174 1.378 . S
C3182 C3177 1.350 . S
C3183 H3170 0.929 . S
C3183 C3175 1.433 . S
C3183 N3185 1.384 . S
N3184 C3180 1.427 . S
N3184 C3181 1.384 . S
N3185 C3177 1.427 . S
N3185 C3183 1.384 . S
H3186 C3192 0.930 . S
H3187 C3196 0.930 . S
H3188 C3201 0.929 . S
H3189 C3199 0.929 . S
H3190 C3194 0.929 . S
H3191 C3200 0.929 . S
C3192 H3186 0.930 . S
C3192 C3193 1.367 . S
C3192 C3200 1.378 . S
C3193 C3192 1.367 . S
C3193 C3201 1.433 . S
C3194 H3190 0.929 . S
C3194 C3196 1.378 . S
C3194 C3198 1.350 . S
C3195 C3198 1.463 . S
C3195 C3200 1.350 . S
C3195 N3203 1.427 . S
C3196 H3187 0.930 . S
C3196 C3194 1.378 . S
C3196 C3197 1.367 . S
C3197 C3196 1.367 . S
C3197 C3199 1.433 . S
C3198 C3194 1.350 . S
C3198 C3195 1.463 . S
C3198 N3202 1.427 . S
C3199 H3189 0.929 . S
C3199 C3197 1.433 . S
C3199 N3202 1.384 . S
C3200 H3191 0.929 . S
C3200 C3192 1.378 . S
C3200 C3195 1.350 . S
C3201 H3188 0.929 . S
C3201 C3193 1.433 . S
C3201 N3203 1.384 . S
N3202 C3198 1.427 . S
N3202 C3199 1.384 . S
N3203 C3195 1.427 . S
N3203 C3201 1.384 . S
H3204 C3210 0.930 . S
H3205 C3214 0.930 . S
H3206 C3219 0.929 . S
H3207 C3217 0.929 . S
H3208 C3212 0.929 . S
H3209 C3218 0.929 . S
C3210 H3204 0.930 . S
C3210 C3211 1.367 . S
C3210 C3218 1.378 . S
C3211 C3210 1.367 . S
C3211 C3219 1.433 . S
C3212 H3208 0.929 . S
C3212 C3214 1.378 . S
C3212 C3216 1.350 . S
C3213 C3216 1.463 . S
C3213 C3218 1.350 . S
C3213 N3221 1.427 . S
C3214 H3205 0.930 . S
C3214 C3212 1.378 . S
C3214 C3215 1.367 . S
C3215 C3214 1.367 . S
C3215 C3217 1.433 . S
C3216 C3212 1.350 . S
C3216 C3213 1.463 . S
C3216 N3220 1.427 . S
C3217 H3207 0.929 . S
C3217 C3215 1.433 . S
C3217 N3220 1.384 . S
C3218 H3209 0.929 . S
C3218 C3210 1.378 . S
C3218 C3213 1.350 . S
C3219 H3206 0.929 . S
C3219 C3211 1.433 . S
C3219 N3221 1.384 . S
N3220 C3216 1.427 . S
N3220 C3217 1.384 . S
N3221 C3213 1.427 . S
N3221 C3219 1.384 . S
H3222 C3228 0.930 1_655 S
H3223 C3232 0.930 . S
H3224 C3237 0.929 . S
H3225 C3235 0.929 . S
H3226 C3230 0.929 . S
H3227 C3236 0.929 1_655 S
C3228 H3222 0.930 1_455 S
C3228 C3229 1.367 . S
C3228 C3236 1.378 . S
C3229 C3228 1.367 . S
C3229 C3237 1.433 . S
C3230 H3226 0.929 . S
C3230 C3232 1.378 . S
C3230 C3234 1.350 . S
C3231 C3234 1.463 . S
C3231 C3236 1.350 . S
C3231 N3239 1.427 . S
C3232 H3223 0.930 . S
C3232 C3230 1.378 . S
C3232 C3233 1.367 . S
C3233 C3232 1.367 . S
C3233 C3235 1.433 1_455 S
C3234 C3230 1.350 . S
C3234 C3231 1.463 . S
C3234 N3238 1.427 1_455 S
C3235 H3225 0.929 . S
C3235 C3233 1.433 1_655 S
C3235 N3238 1.384 . S
C3236 H3227 0.929 1_455 S
C3236 C3228 1.378 . S
C3236 C3231 1.350 . S
C3237 H3224 0.929 . S
C3237 C3229 1.433 . S
C3237 N3239 1.384 . S
N3238 C3234 1.427 1_655 S
N3238 C3235 1.384 . S
N3239 C3231 1.427 . S
N3239 C3237 1.384 . S
H3240 C3246 0.930 . S
H3241 C3250 0.930 . S
H3242 C3255 0.929 . S
H3243 C3253 0.929 . S
H3244 C3248 0.929 . S
H3245 C3254 0.929 . S
C3246 H3240 0.930 . S
C3246 C3247 1.367 . S
C3246 C3254 1.378 . S
C3247 C3246 1.367 . S
C3247 C3255 1.433 . S
C3248 H3244 0.929 . S
C3248 C3250 1.378 . S
C3248 C3252 1.350 . S
C3249 C3252 1.463 . S
C3249 C3254 1.350 . S
C3249 N3257 1.427 . S
C3250 H3241 0.930 . S
C3250 C3248 1.378 . S
C3250 C3251 1.367 . S
C3251 C3250 1.367 . S
C3251 C3253 1.433 . S
C3252 C3248 1.350 . S
C3252 C3249 1.463 . S
C3252 N3256 1.427 . S
C3253 H3243 0.929 . S
C3253 C3251 1.433 . S
C3253 N3256 1.384 . S
C3254 H3245 0.929 . S
C3254 C3246 1.378 . S
C3254 C3249 1.350 . S
C3255 H3242 0.929 . S
C3255 C3247 1.433 . S
C3255 N3257 1.384 . S
N3256 C3252 1.427 . S
N3256 C3253 1.384 . S
N3257 C3249 1.427 . S
N3257 C3255 1.384 . S
H3258 C3264 0.930 . S
H3259 C3268 0.930 . S
H3260 C3273 0.923 1_545 S
H3261 C3271 0.929 . S
H3262 C3266 0.937 . S
H3263 C3272 0.929 . S
C3264 H3258 0.930 . S
C3264 C3265 1.367 . S
C3264 C3272 1.378 . S
C3265 C3264 1.367 . S
C3265 C3273 1.433 . S
C3266 H3262 0.937 . S
C3266 C3268 1.387 . S
C3266 C3270 1.351 1_545 S
C3267 C3270 1.463 . S
C3267 C3272 1.350 . S
C3267 N3275 1.429 . S
C3268 H3259 0.930 . S
C3268 C3266 1.387 . S
C3268 C3269 1.351 1_545 S
C3269 C3268 1.351 1_565 S
C3269 C3271 1.433 . S
C3270 C3266 1.351 1_565 S
C3270 C3267 1.463 . S
C3270 N3274 1.427 . S
C3271 H3261 0.929 . S
C3271 C3269 1.433 . S
C3271 N3274 1.384 . S
C3272 H3263 0.929 . S
C3272 C3264 1.378 . S
C3272 C3267 1.350 . S
C3273 H3260 0.923 1_565 S
C3273 C3265 1.433 . S
C3273 N3275 1.389 . S
N3274 C3270 1.427 . S
N3274 C3271 1.384 . S
N3275 C3267 1.429 . S
N3275 C3273 1.389 . S
H3276 C3282 0.930 . S
H3277 C3286 0.930 . S
H3278 C3291 0.929 . S
H3279 C3289 0.929 . S
H3280 C3284 0.929 . S
H3281 C3290 0.929 . S
C3282 H3276 0.930 . S
C3282 C3283 1.367 . S
C3282 C3290 1.378 . S
C3283 C3282 1.367 . S
C3283 C3291 1.433 1_565 S
C3284 H3280 0.929 . S
C3284 C3286 1.378 . S
C3284 C3288 1.350 1_545 S
C3285 C3288 1.463 . S
C3285 C3290 1.350 . S
C3285 N3293 1.427 1_565 S
C3286 H3277 0.930 . S
C3286 C3284 1.378 . S
C3286 C3287 1.367 1_545 S
C3287 C3286 1.367 1_565 S
C3287 C3289 1.433 . S
C3288 C3284 1.350 1_565 S
C3288 C3285 1.463 . S
C3288 N3292 1.427 . S
C3289 H3279 0.929 . S
C3289 C3287 1.433 . S
C3289 N3292 1.384 . S
C3290 H3281 0.929 . S
C3290 C3282 1.378 . S
C3290 C3285 1.350 . S
C3291 H3278 0.929 . S
C3291 C3283 1.433 1_545 S
C3291 N3293 1.384 . S
N3292 C3288 1.427 . S
N3292 C3289 1.384 . S
N3293 C3285 1.427 1_545 S
N3293 C3291 1.384 . S
H3294 C3300 0.930 . S
H3295 C3304 0.930 . S
H3296 C3309 0.929 . S
H3297 C3307 0.929 . S
H3298 C3302 0.929 . S
H3299 C3308 0.929 . S
C3300 H3294 0.930 . S
C3300 C3301 1.367 . S
C3300 C3308 1.378 . S
C3301 C3300 1.367 . S
C3301 C3309 1.433 1_455 S
C3302 H3298 0.929 . S
C3302 C3304 1.378 . S
C3302 C3306 1.350 1_655 S
C3303 C3306 1.463 . S
C3303 C3308 1.350 . S
C3303 N3311 1.427 1_455 S
C3304 H3295 0.930 . S
C3304 C3302 1.378 . S
C3304 C3305 1.316 1_655 S
C3305 C3304 1.316 1_455 S
C3305 C3307 1.470 . S
C3306 C3302 1.350 1_455 S
C3306 C3303 1.463 . S
C3306 N3310 1.427 . S
C3307 H3297 0.929 . S
C3307 C3305 1.470 . S
C3307 N3310 1.384 . S
C3308 H3299 0.929 . S
C3308 C3300 1.378 . S
C3308 C3303 1.350 . S
C3309 H3296 0.929 . S
C3309 C3301 1.433 1_655 S
C3309 N3311 1.384 . S
N3310 C3306 1.427 . S
N3310 C3307 1.384 . S
N3311 C3303 1.427 1_655 S
N3311 C3309 1.384 . S
H3312 C3318 0.930 . S
H3313 C3322 0.930 . S
H3314 C3327 0.929 . S
H3315 C3325 0.929 . S
H3316 C3320 0.929 . S
H3317 C3326 0.929 . S
C3318 H3312 0.930 . S
C3318 C3319 1.367 . S
C3318 C3326 1.378 . S
C3319 C3318 1.367 . S
C3319 C3327 1.433 . S
C3320 H3316 0.929 . S
C3320 C3322 1.378 . S
C3320 C3324 1.350 . S
C3321 C3324 1.463 . S
C3321 C3326 1.350 . S
C3321 N3329 1.427 . S
C3322 H3313 0.930 . S
C3322 C3320 1.378 . S
C3322 C3323 1.367 . S
C3323 C3322 1.367 . S
C3323 C3325 1.433 . S
C3324 C3320 1.350 . S
C3324 C3321 1.463 . S
C3324 N3328 1.427 . S
C3325 H3315 0.929 . S
C3325 C3323 1.433 . S
C3325 N3328 1.384 . S
C3326 H3317 0.929 . S
C3326 C3318 1.378 . S
C3326 C3321 1.350 . S
C3327 H3314 0.929 . S
C3327 C3319 1.433 . S
C3327 N3329 1.384 . S
N3328 C3324 1.427 . S
N3328 C3325 1.384 . S
N3329 C3321 1.427 . S
N3329 C3327 1.384 . S
H3330 C3336 0.930 . S
H3331 C3340 0.930 . S
H3332 C3345 0.929 . S
H3333 C3343 0.929 . S
H3334 C3338 0.929 . S
H3335 C3344 0.929 . S
C3336 H3330 0.930 . S
C3336 C3337 1.367 . S
C3336 C3344 1.378 . S
C3337 C3336 1.367 . S
C3337 C3345 1.433 . S
C3338 H3334 0.929 . S
C3338 C3340 1.378 . S
C3338 C3342 1.350 . S
C3339 C3342 1.463 . S
C3339 C3344 1.350 . S
C3339 N3347 1.427 . S
C3340 H3331 0.930 . S
C3340 C3338 1.378 . S
C3340 C3341 1.367 . S
C3341 C3340 1.367 . S
C3341 C3343 1.433 . S
C3342 C3338 1.350 . S
C3342 C3339 1.463 . S
C3342 N3346 1.427 . S
C3343 H3333 0.929 . S
C3343 C3341 1.433 . S
C3343 N3346 1.384 . S
C3344 H3335 0.929 . S
C3344 C3336 1.378 . S
C3344 C3339 1.350 . S
C3345 H3332 0.929 . S
C3345 C3337 1.433 . S
C3345 N3347 1.384 . S
N3346 C3342 1.427 . S
N3346 C3343 1.384 . S
N3347 C3339 1.427 . S
N3347 C3345 1.384 . S
H3348 C3354 0.930 . S
H3349 C3358 0.930 . S
H3350 C3363 0.929 . S
H3351 C3361 0.929 . S
H3352 C3356 0.929 . S
H3353 C3362 0.929 . S
C3354 H3348 0.930 . S
C3354 C3355 1.367 . S
C3354 C3362 1.378 . S
C3355 C3354 1.367 . S
C3355 C3363 1.433 . S
C3356 H3352 0.929 . S
C3356 C3358 1.378 . S
C3356 C3360 1.350 . S
C3357 C3360 1.463 . S
C3357 C3362 1.350 . S
C3357 N3365 1.427 . S
C3358 H3349 0.930 . S
C3358 C3356 1.378 . S
C3358 C3359 1.367 . S
C3359 C3358 1.367 . S
C3359 C3361 1.433 . S
C3360 C3356 1.350 . S
C3360 C3357 1.463 . S
C3360 N3364 1.427 . S
C3361 H3351 0.929 . S
C3361 C3359 1.433 . S
C3361 N3364 1.384 . S
C3362 H3353 0.929 . S
C3362 C3354 1.378 . S
C3362 C3357 1.350 . S
C3363 H3350 0.929 . S
C3363 C3355 1.433 . S
C3363 N3365 1.384 . S
N3364 C3360 1.427 . S
N3364 C3361 1.384 . S
N3365 C3357 1.427 . S
N3365 C3363 1.384 . S
H3366 C3372 0.930 . S
H3367 C3376 0.930 . S
H3368 C3381 0.929 . S
H3369 C3379 0.929 . S
H3370 C3374 0.929 . S
H3371 C3380 0.929 . S
C3372 H3366 0.930 . S
C3372 C3373 1.367 . S
C3372 C3380 1.378 . S
C3373 C3372 1.367 . S
C3373 C3381 1.433 . S
C3374 H3370 0.929 . S
C3374 C3376 1.378 . S
C3374 C3378 1.350 . S
C3375 C3378 1.463 . S
C3375 C3380 1.350 . S
C3375 N3383 1.427 . S
C3376 H3367 0.930 . S
C3376 C3374 1.378 . S
C3376 C3377 1.367 . S
C3377 C3376 1.367 . S
C3377 C3379 1.433 . S
C3378 C3374 1.350 . S
C3378 C3375 1.463 . S
C3378 N3382 1.427 . S
C3379 H3369 0.929 . S
C3379 C3377 1.433 . S
C3379 N3382 1.384 . S
C3380 H3371 0.929 . S
C3380 C3372 1.378 . S
C3380 C3375 1.350 . S
C3381 H3368 0.929 . S
C3381 C3373 1.433 . S
C3381 N3383 1.384 . S
N3382 C3378 1.427 . S
N3382 C3379 1.384 . S
N3383 C3375 1.427 . S
N3383 C3381 1.384 . S
H3384 C3390 0.930 . S
H3385 C3394 0.930 . S
H3386 C3399 0.929 . S
H3387 C3397 0.929 . S
H3388 C3392 0.929 . S
H3389 C3398 0.929 . S
C3390 H3384 0.930 . S
C3390 C3391 1.367 1_565 S
C3390 C3398 1.378 . S
C3391 C3390 1.367 1_545 S
C3391 C3399 1.433 . S
C3392 H3388 0.929 . S
C3392 C3394 1.378 . S
C3392 C3396 1.350 . S
C3393 C3396 1.463 . S
C3393 C3398 1.350 1_545 S
C3393 N3401 1.427 . S
C3394 H3385 0.930 . S
C3394 C3392 1.378 . S
C3394 C3395 1.367 . S
C3395 C3394 1.367 . S
C3395 C3397 1.433 1_545 S
C3396 C3392 1.350 . S
C3396 C3393 1.463 . S
C3396 N3400 1.427 1_545 S
C3397 H3387 0.929 . S
C3397 C3395 1.433 1_565 S
C3397 N3400 1.384 . S
C3398 H3389 0.929 . S
C3398 C3390 1.378 . S
C3398 C3393 1.350 1_565 S
C3399 H3386 0.929 . S
C3399 C3391 1.433 . S
C3399 N3401 1.384 . S
N3400 C3396 1.427 1_565 S
N3400 C3397 1.384 . S
N3401 C3393 1.427 . S
N3401 C3399 1.384 . S
H3402 C3408 0.930 . S
H3403 C3412 0.930 . S
H3404 C3417 0.929 . S
H3405 C3415 0.929 . S
H3406 C3410 0.929 . S
H3407 C3416 0.929 . S
C3408 H3402 0.930 . S
C3408 C3409 1.367 1_455 S
C3408 C3416 1.378 . S
C3409 C3408 1.367 1_655 S
C3409 C3417 1.433 . S
C3410 H3406 0.929 . S
C3410 C3412 1.378 . S
C3410 C3414 1.350 . S
C3411 C3414 1.463 . S
C3411 C3416 1.350 1_655 S
C3411 N3419 1.427 . S
C3412 H3403 0.930 . S
C3412 C3410 1.378 . S
C3412 C3413 1.367 . S
C3413 C3412 1.367 . S
C3413 C3415 1.433 1_655 S
C3414 C3410 1.350 . S
C3414 C3411 1.463 . S
C3414 N3418 1.427 1_655 S
C3415 H3405 0.929 . S
C3415 C3413 1.433 1_455 S
C3415 N3418 1.384 . S
C3416 H3407 0.929 . S
C3416 C3408 1.378 . S
C3416 C3411 1.350 1_455 S
C3417 H3404 0.929 . S
C3417 C3409 1.433 . S
C3417 N3419 1.384 . S
N3418 C3414 1.427 1_455 S
N3418 C3415 1.384 . S
N3419 C3411 1.427 . S
N3419 C3417 1.384 . S
H3420 C3426 0.930 . S
H3421 C3430 0.930 . S
H3422 C3435 0.929 . S
H3423 C3433 0.929 . S
H3424 C3428 0.929 . S
H3425 C3434 0.929 . S
C3426 H3420 0.930 . S
C3426 C3427 1.367 . S
C3426 C3434 1.378 . S
C3427 C3426 1.367 . S
C3427 C3435 1.433 . S
C3428 H3424 0.929 . S
C3428 C3430 1.378 . S
C3428 C3432 1.350 . S
C3429 C3432 1.463 . S
C3429 C3434 1.350 . S
C3429 N3437 1.427 . S
C3430 H3421 0.930 . S
C3430 C3428 1.378 . S
C3430 C3431 1.367 . S
C3431 C3430 1.367 . S
C3431 C3433 1.433 . S
C3432 C3428 1.350 . S
C3432 C3429 1.463 . S
C3432 N3436 1.427 . S
C3433 H3423 0.929 . S
C3433 C3431 1.433 . S
C3433 N3436 1.384 . S
C3434 H3425 0.929 . S
C3434 C3426 1.378 . S
C3434 C3429 1.350 . S
C3435 H3422 0.929 . S
C3435 C3427 1.433 . S
C3435 N3437 1.384 . S
N3436 C3432 1.427 . S
N3436 C3433 1.384 . S
N3437 C3429 1.427 . S
N3437 C3435 1.384 . S
H3438 C3444 0.930 . S
H3439 C3448 0.930 . S
H3440 C3453 0.929 . S
H3441 C3451 0.929 . S
H3442 C3446 0.929 . S
H3443 C3452 0.929 . S
C3444 H3438 0.930 . S
C3444 C3445 1.367 . S
C3444 C3452 1.378 . S
C3445 C3444 1.367 . S
C3445 C3453 1.433 . S
C3446 H3442 0.929 . S
C3446 C3448 1.378 . S
C3446 C3450 1.350 . S
C3447 C3450 1.463 . S
C3447 C3452 1.350 . S
C3447 N3455 1.427 . S
C3448 H3439 0.930 . S
C3448 C3446 1.378 . S
C3448 C3449 1.367 . S
C3449 C3448 1.367 . S
C3449 C3451 1.433 . S
C3450 C3446 1.350 . S
C3450 C3447 1.463 . S
C3450 N3454 1.427 . S
C3451 H3441 0.929 . S
C3451 C3449 1.433 . S
C3451 N3454 1.384 . S
C3452 H3443 0.929 . S
C3452 C3444 1.378 . S
C3452 C3447 1.350 . S
C3453 H3440 0.929 . S
C3453 C3445 1.433 . S
C3453 N3455 1.384 . S
N3454 C3450 1.427 . S
N3454 C3451 1.384 . S
N3455 C3447 1.427 . S
N3455 C3453 1.384 . S
H3456 C3462 0.930 . S
H3457 C3466 0.930 . S
H3458 C3471 0.929 . S
H3459 C3469 0.929 . S
H3460 C3464 0.929 . S
H3461 C3470 0.929 . S
C3462 H3456 0.930 . S
C3462 C3463 1.367 . S
C3462 C3470 1.378 . S
C3463 C3462 1.367 . S
C3463 C3471 1.433 . S
C3464 H3460 0.929 . S
C3464 C3466 1.378 . S
C3464 C3468 1.350 . S
C3465 C3468 1.463 . S
C3465 C3470 1.350 . S
C3465 N3473 1.427 . S
C3466 H3457 0.930 . S
C3466 C3464 1.378 . S
C3466 C3467 1.367 . S
C3467 C3466 1.367 . S
C3467 C3469 1.433 . S
C3468 C3464 1.350 . S
C3468 C3465 1.463 . S
C3468 N3472 1.427 . S
C3469 H3459 0.929 . S
C3469 C3467 1.433 . S
C3469 N3472 1.384 . S
C3470 H3461 0.929 . S
C3470 C3462 1.378 . S
C3470 C3465 1.350 . S
C3471 H3458 0.929 . S
C3471 C3463 1.433 . S
C3471 N3473 1.384 . S
N3472 C3468 1.427 . S
N3472 C3469 1.384 . S
N3473 C3465 1.427 . S
N3473 C3471 1.384 . S
H3474 C3480 0.930 . S
H3475 C3484 0.930 . S
H3476 C3489 0.929 . S
H3477 C3487 0.929 . S
H3478 C3482 0.929 . S
H3479 C3488 0.929 . S
C3480 H3474 0.930 . S
C3480 C3481 1.367 . S
C3480 C3488 1.378 . S
C3481 C3480 1.367 . S
C3481 C3489 1.433 . S
C3482 H3478 0.929 . S
C3482 C3484 1.378 . S
C3482 C3486 1.350 . S
C3483 C3486 1.463 . S
C3483 C3488 1.350 . S
C3483 N3491 1.427 . S
C3484 H3475 0.930 . S
C3484 C3482 1.378 . S
C3484 C3485 1.367 . S
C3485 C3484 1.367 . S
C3485 C3487 1.433 . S
C3486 C3482 1.350 . S
C3486 C3483 1.463 . S
C3486 N3490 1.427 . S
C3487 H3477 0.929 . S
C3487 C3485 1.433 . S
C3487 N3490 1.384 . S
C3488 H3479 0.929 . S
C3488 C3480 1.378 . S
C3488 C3483 1.350 . S
C3489 H3476 0.929 . S
C3489 C3481 1.433 . S
C3489 N3491 1.384 . S
N3490 C3486 1.427 . S
N3490 C3487 1.384 . S
N3491 C3483 1.427 . S
N3491 C3489 1.384 . S
H3492 C3498 0.930 . S
H3493 C3502 0.930 . S
H3494 C3507 0.929 . S
H3495 C3505 0.929 . S
H3496 C3500 0.929 . S
H3497 C3506 0.929 . S
C3498 H3492 0.930 . S
C3498 C3499 1.367 . S
C3498 C3506 1.378 . S
C3499 C3498 1.367 . S
C3499 C3507 1.433 . S
C3500 H3496 0.929 . S
C3500 C3502 1.378 . S
C3500 C3504 1.350 . S
C3501 C3504 1.463 . S
C3501 C3506 1.350 . S
C3501 N3509 1.427 . S
C3502 H3493 0.930 . S
C3502 C3500 1.378 . S
C3502 C3503 1.367 . S
C3503 C3502 1.367 . S
C3503 C3505 1.433 . S
C3504 C3500 1.350 . S
C3504 C3501 1.463 . S
C3504 N3508 1.427 . S
C3505 H3495 0.929 . S
C3505 C3503 1.433 . S
C3505 N3508 1.384 . S
C3506 H3497 0.929 . S
C3506 C3498 1.378 . S
C3506 C3501 1.350 . S
C3507 H3494 0.929 . S
C3507 C3499 1.433 . S
C3507 N3509 1.384 . S
N3508 C3504 1.427 . S
N3508 C3505 1.384 . S
N3509 C3501 1.427 . S
N3509 C3507 1.384 . S
H3510 C3516 0.930 . S
H3511 C3520 0.930 . S
H3512 C3525 0.929 . S
H3513 C3523 0.929 . S
H3514 C3518 0.929 . S
H3515 C3524 0.929 . S
C3516 H3510 0.930 . S
C3516 C3517 1.367 . S
C3516 C3524 1.378 . S
C3517 C3516 1.367 . S
C3517 C3525 1.433 . S
C3518 H3514 0.929 . S
C3518 C3520 1.378 . S
C3518 C3522 1.350 . S
C3519 C3522 1.463 . S
C3519 C3524 1.350 . S
C3519 N3527 1.427 . S
C3520 H3511 0.930 . S
C3520 C3518 1.378 . S
C3520 C3521 1.367 . S
C3521 C3520 1.367 . S
C3521 C3523 1.433 . S
C3522 C3518 1.350 . S
C3522 C3519 1.463 . S
C3522 N3526 1.427 . S
C3523 H3513 0.929 . S
C3523 C3521 1.433 . S
C3523 N3526 1.384 . S
C3524 H3515 0.929 . S
C3524 C3516 1.378 . S
C3524 C3519 1.350 . S
C3525 H3512 0.929 . S
C3525 C3517 1.433 . S
C3525 N3527 1.384 . S
N3526 C3522 1.427 . S
N3526 C3523 1.384 . S
N3527 C3519 1.427 . S
N3527 C3525 1.384 . S
H3528 C3534 0.930 . S
H3529 C3538 0.930 . S
H3530 C3543 0.929 . S
H3531 C3541 0.929 . S
H3532 C3536 0.929 . S
H3533 C3542 0.929 . S
C3534 H3528 0.930 . S
C3534 C3535 1.367 . S
C3534 C3542 1.378 . S
C3535 C3534 1.367 . S
C3535 C3543 1.433 . S
C3536 H3532 0.929 . S
C3536 C3538 1.378 . S
C3536 C3540 1.350 . S
C3537 C3540 1.463 . S
C3537 C3542 1.350 . S
C3537 N3545 1.427 . S
C3538 H3529 0.930 . S
C3538 C3536 1.378 . S
C3538 C3539 1.367 . S
C3539 C3538 1.367 . S
C3539 C3541 1.433 . S
C3540 C3536 1.350 . S
C3540 C3537 1.463 . S
C3540 N3544 1.427 . S
C3541 H3531 0.929 . S
C3541 C3539 1.433 . S
C3541 N3544 1.384 . S
C3542 H3533 0.929 . S
C3542 C3534 1.378 . S
C3542 C3537 1.350 . S
C3543 H3530 0.929 . S
C3543 C3535 1.433 . S
C3543 N3545 1.384 . S
N3544 C3540 1.427 . S
N3544 C3541 1.384 . S
N3545 C3537 1.427 . S
N3545 C3543 1.384 . S
H3546 C3552 0.930 . S
H3547 C3556 0.931 1_455 S
H3548 C3561 0.929 . S
H3549 C3559 0.929 . S
H3550 C3554 0.951 1_455 S
H3551 C3560 0.929 . S
C3552 H3546 0.930 . S
C3552 C3553 1.367 . S
C3552 C3560 1.378 . S
C3553 C3552 1.367 . S
C3553 C3561 1.433 . S
C3554 H3550 0.951 1_655 S
C3554 C3556 1.377 . S
C3554 C3558 1.350 . S
C3555 C3558 1.463 . S
C3555 C3560 1.350 . S
C3555 N3563 1.427 . S
C3556 H3547 0.931 1_655 S
C3556 C3554 1.377 . S
C3556 C3557 1.367 . S
C3557 C3556 1.367 . S
C3557 C3559 1.433 . S
C3558 C3554 1.350 . S
C3558 C3555 1.463 . S
C3558 N3562 1.427 . S
C3559 H3549 0.929 . S
C3559 C3557 1.433 . S
C3559 N3562 1.384 . S
C3560 H3551 0.929 . S
C3560 C3552 1.378 . S
C3560 C3555 1.350 . S
C3561 H3548 0.929 . S
C3561 C3553 1.433 . S
C3561 N3563 1.384 . S
N3562 C3558 1.427 . S
N3562 C3559 1.384 . S
N3563 C3555 1.427 . S
N3563 C3561 1.384 . S
H3564 C3570 0.930 . S
H3565 C3574 0.930 . S
H3566 C3579 0.929 . S
H3567 C3577 0.929 . S
H3568 C3572 0.929 . S
H3569 C3578 0.929 . S
C3570 H3564 0.930 . S
C3570 C3571 1.367 . S
C3570 C3578 1.378 . S
C3571 C3570 1.367 . S
C3571 C3579 1.433 . S
C3572 H3568 0.929 . S
C3572 C3574 1.378 . S
C3572 C3576 1.350 . S
C3573 C3576 1.463 . S
C3573 C3578 1.350 . S
C3573 N3581 1.427 . S
C3574 H3565 0.930 . S
C3574 C3572 1.378 . S
C3574 C3575 1.367 . S
C3575 C3574 1.367 . S
C3575 C3577 1.433 . S
C3576 C3572 1.350 . S
C3576 C3573 1.463 . S
C3576 N3580 1.427 . S
C3577 H3567 0.929 . S
C3577 C3575 1.433 . S
C3577 N3580 1.384 . S
C3578 H3569 0.929 . S
C3578 C3570 1.378 . S
C3578 C3573 1.350 . S
C3579 H3566 0.929 . S
C3579 C3571 1.433 . S
C3579 N3581 1.384 . S
N3580 C3576 1.427 . S
N3580 C3577 1.384 . S
N3581 C3573 1.427 . S
N3581 C3579 1.384 . S
H3582 C3588 0.930 . S
H3583 C3592 0.930 . S
H3584 C3597 0.929 1_565 S
H3585 C3595 0.929 . S
H3586 C3590 0.929 . S
H3587 C3596 0.929 . S
C3588 H3582 0.930 . S
C3588 C3589 1.367 . S
C3588 C3596 1.378 . S
C3589 C3588 1.367 . S
C3589 C3597 1.433 . S
C3590 H3586 0.929 . S
C3590 C3592 1.378 . S
C3590 C3594 1.350 1_565 S
C3591 C3594 1.463 . S
C3591 C3596 1.350 . S
C3591 N3599 1.427 1_545 S
C3592 H3583 0.930 . S
C3592 C3590 1.378 . S
C3592 C3593 1.367 1_565 S
C3593 C3592 1.367 1_545 S
C3593 C3595 1.433 . S
C3594 C3590 1.350 1_545 S
C3594 C3591 1.463 . S
C3594 N3598 1.427 . S
C3595 H3585 0.929 . S
C3595 C3593 1.433 . S
C3595 N3598 1.384 . S
C3596 H3587 0.929 . S
C3596 C3588 1.378 . S
C3596 C3591 1.350 . S
C3597 H3584 0.929 1_545 S
C3597 C3589 1.433 . S
C3597 N3599 1.384 1_545 S
N3598 C3594 1.427 . S
N3598 C3595 1.384 . S
N3599 C3591 1.427 1_565 S
N3599 C3597 1.384 1_565 S
C2311 C9 1.329 1_655 S
C2315 C1307 1.082 . S
C2329 C19 1.725 . S
C2333 C1447 1.088 . S
C2351 C1535 1.153 . S
C2347 C33 1.417 . S
C2365 C37 1.441 1_565 S
C2369 C1675 1.091 1_565 S
C2383 C5 1.377 . S
C2387 C1789 1.105 . S
C2401 C23 1.792 . S
C2405 C1877 1.302 . S
C2419 C47 1.329 . S
C2423 C1763 1.065 . S
C2441 C1903 1.444 . S
C2437 C65 1.690 . S
C2459 C1649 1.148 . S
C2455 C75 1.374 . S
C2473 C79 1.352 . S
C2477 C1561 1.003 . S
C2495 C1333 1.064 . S
C2491 C51 1.400 . S
C2509 C61 1.657 . S
C2513 C1421 1.482 . S
C2527 C93 1.893 . S
C2531 C1991 1.367 . S
C2545 C103 1.813 . S
C2549 C2131 1.167 . S
C2567 C2219 1.305 . S
C2563 C117 1.794 . S
C2581 C121 1.847 . S
C2585 C307 1.191 . S
C2599 C89 1.852 . S
C2603 C421 1.205 . S
C2617 C107 1.871 . S
C2621 C509 1.375 . S
C2635 C131 1.590 . S
C2639 C395 1.421 . S
C2653 C149 1.757 . S
C2657 C535 1.533 . S
C2675 C281 1.520 . S
C2671 C159 1.682 . S
C2693 C2245 1.630 . S
C2689 C163 1.860 . S
C2711 C2017 1.533 . S
C2707 C135 1.780 . S
C2729 C2105 1.587 . S
C2725 C145 1.742 . S
C2743 C177 1.743 . S
C2747 C623 1.234 . S
C2761 C187 1.798 . S
C2765 C763 1.169 . S
C2779 C201 1.837 . S
C2783 C851 1.367 . S
C2797 C205 1.998 . S
C2801 C991 1.332 . S
C2819 C1105 1.185 . S
C2815 C173 1.829 . S
C2837 C1193 1.401 . S
C2833 C191 1.898 . S
C2855 C1079 1.580 . S
C2851 C215 1.757 . S
C2873 C1219 1.554 . S
C2869 C233 1.782 . S
C2887 C243 1.639 . S
C2891 C965 1.491 . S
C2909 C877 1.462 . S
C2905 C247 1.694 . S
C2923 C219 1.813 . S
C2927 C649 1.549 . S
C2945 C737 1.573 . S
C2941 C229 1.728 . S
C2963 C263 1.006 . S
C2959 C11 1.816 . S
C2977 C14 1.635 . S
C2981 C377 0.916 . S
C2999 C481 1.300 . S
C2995 C28 1.833 . S
C3017 C595 1.267 . S
C3013 C39 1.746 . S
C3035 C719 1.017 . S
C3031 C0 1.797 . S
C3053 C823 1.162 . S
C3049 C25 1.615 . S
C3067 C42 2.006 . S
C3071 C833 1.509 . S
C3085 C67 1.769 . S
C3089 C605 1.372 . S
C3103 C70 1.812 . S
C3107 C709 1.597 . S
C3121 C81 1.762 . S
C3125 C367 1.553 . S
C3143 C491 1.491 . S
C3139 C53 1.948 . S
C3157 C56 1.820 . S
C3161 C253 1.599 . S
C3179 C947 0.961 . S
C3175 C95 1.720 . S
C3193 C98 1.808 . S
C3197 C1061 1.035 . S
C3211 C112 1.896 . S
C3215 C1165 1.392 . S
C3233 C1279 1.018 . S
C3229 C123 1.269 . S
C3247 C84 1.701 . S
C3251 C1403 0.942 . S
C3265 C109 1.294 . S
C3269 C1507 1.059 . S
C3283 C126 1.494 . S
C3287 C1517 0.945 1_565 S
C3301 C151 1.347 . S
C3305 C1289 0.892 1_455 S
C3323 C1393 1.503 . S
C3319 C154 1.742 . S
C3337 C165 1.679 . S
C3341 C1051 1.483 . S
C3355 C137 1.936 . S
C3359 C1175 1.493 . S
C3377 C937 1.734 . S
C3373 C140 1.974 . S
C3395 C1631 0.895 . S
C3391 C179 1.430 . S
C3409 C182 1.326 . S
C3413 C1745 0.875 . S
C3427 C196 1.748 . S
C3431 C1849 1.254 . S
C3449 C1963 1.212 . S
C3445 C207 1.660 . S
C3467 C2087 1.056 . S
C3463 C168 1.809 . S
C3481 C193 1.780 . S
C3485 C2191 1.318 . S
C3499 C210 1.929 . S
C3503 C2201 1.452 . S
C3517 C235 1.936 . S
C3521 C1973 1.489 . S
C3539 C2077 1.634 . S
C3535 C238 1.838 . S
C3557 C1735 1.023 1_655 S
C3553 C249 1.196 . S
C3575 C1859 1.411 . S
C3571 C221 1.835 . S
C3589 C224 1.387 . S
C3593 C1621 1.128 1_545 S
