# Generated by pormake.
# Topology pyr, (3,6)-cn, num edge types: 1
# Building blocks:
#     Node 0, Type 0, BuildingBlock: ESEHIV_clean_linker_0, # of connection points: 3
#     Node 1, Type 0, BuildingBlock: ESEHIV_clean_linker_0, # of connection points: 3
#     Node 2, Type 0, BuildingBlock: ESEHIV_clean_linker_0, # of connection points: 3
#     Node 3, Type 0, BuildingBlock: ESEHIV_clean_linker_0, # of connection points: 3
#     Node 4, Type 0, BuildingBlock: ESEHIV_clean_linker_0, # of connection points: 3
#     Node 5, Type 0, BuildingBlock: ESEHIV_clean_linker_0, # of connection points: 3
#     Node 6, Type 0, BuildingBlock: ESEHIV_clean_linker_0, # of connection points: 3
#     Node 7, Type 0, BuildingBlock: ESEHIV_clean_linker_0, # of connection points: 3
#     Node 8, Type 1, BuildingBlock: MIFKUJ_clean_sbu_0, # of connection points: 6
#     Node 9, Type 1, BuildingBlock: MIFKUJ_clean_sbu_0, # of connection points: 6
#     Node 10, Type 1, BuildingBlock: MIFKUJ_clean_sbu_0, # of connection points: 6
#     Node 11, Type 1, BuildingBlock: MIFKUJ_clean_sbu_0, # of connection points: 6
#     Edge 12, Type (0, 1), BuildingBlock: OJICUG_clean_linker_0, # of connection points: 2
#     Edge 13, Type (0, 1), BuildingBlock: OJICUG_clean_linker_0, # of connection points: 2
#     Edge 14, Type (0, 1), BuildingBlock: OJICUG_clean_linker_0, # of connection points: 2
#     Edge 15, Type (0, 1), BuildingBlock: OJICUG_clean_linker_0, # of connection points: 2
#     Edge 16, Type (0, 1), BuildingBlock: OJICUG_clean_linker_0, # of connection points: 2
#     Edge 17, Type (0, 1), BuildingBlock: OJICUG_clean_linker_0, # of connection points: 2
#     Edge 18, Type (0, 1), BuildingBlock: OJICUG_clean_linker_0, # of connection points: 2
#     Edge 19, Type (0, 1), BuildingBlock: OJICUG_clean_linker_0, # of connection points: 2
#     Edge 20, Type (0, 1), BuildingBlock: OJICUG_clean_linker_0, # of connection points: 2
#     Edge 21, Type (0, 1), BuildingBlock: OJICUG_clean_linker_0, # of connection points: 2
#     Edge 22, Type (0, 1), BuildingBlock: OJICUG_clean_linker_0, # of connection points: 2
#     Edge 23, Type (0, 1), BuildingBlock: OJICUG_clean_linker_0, # of connection points: 2
#     Edge 24, Type (0, 1), BuildingBlock: OJICUG_clean_linker_0, # of connection points: 2
#     Edge 25, Type (0, 1), BuildingBlock: OJICUG_clean_linker_0, # of connection points: 2
#     Edge 26, Type (0, 1), BuildingBlock: OJICUG_clean_linker_0, # of connection points: 2
#     Edge 27, Type (0, 1), BuildingBlock: OJICUG_clean_linker_0, # of connection points: 2
#     Edge 28, Type (0, 1), BuildingBlock: OJICUG_clean_linker_0, # of connection points: 2
#     Edge 29, Type (0, 1), BuildingBlock: OJICUG_clean_linker_0, # of connection points: 2
#     Edge 30, Type (0, 1), BuildingBlock: OJICUG_clean_linker_0, # of connection points: 2
#     Edge 31, Type (0, 1), BuildingBlock: OJICUG_clean_linker_0, # of connection points: 2
#     Edge 32, Type (0, 1), BuildingBlock: OJICUG_clean_linker_0, # of connection points: 2
#     Edge 33, Type (0, 1), BuildingBlock: OJICUG_clean_linker_0, # of connection points: 2
#     Edge 34, Type (0, 1), BuildingBlock: OJICUG_clean_linker_0, # of connection points: 2
#     Edge 35, Type (0, 1), BuildingBlock: OJICUG_clean_linker_0, # of connection points: 2
# Relax obj value: 0.038
# Max RMSD: 0.090
# Mean RMSD: 0.052
data_MOF--net-pyr--node1-MIFKUJ_clean_sbu_0--node2-ESEHIV_clean_linker_0--edge1-OJICUG_clean_linker_0
_symmetry_space_group_name_H-M    P1
_symmetry_Int_Tables_number       1
_symmetry_cell_setting            triclinic
loop_
_symmetry_equiv_pos_as_xyz
'x, y, z'
_cell_length_a     27.394011
_cell_length_b     24.469425
_cell_length_c     25.716959
_cell_angle_alpha  84.639612
_cell_angle_beta   87.257675
_cell_angle_gamma 97.132041
loop_
_atom_site_label
_atom_site_type_symbol
_atom_site_fract_x
_atom_site_fract_y
_atom_site_fract_z
_atom_type_partial_charge
H0 H 0.12574 0.20526 0.24554 0.0
H1 H 0.23399 0.0947 0.26695 0.0
H2 H 0.24672 0.21348 0.13082 0.0
C3 C 0.15981 0.19148 0.23201 0.0
C4 C 0.18528 0.21662 0.18557 0.0
C5 C 0.17753 0.14788 0.26116 0.0
C6 C 0.22068 0.12845 0.24375 0.0
C7 C 0.24511 0.15045 0.19569 0.0
C8 C 0.22781 0.19556 0.16749 0.0
H9 H 0.30993 0.90832 0.75405 0.0
H10 H 0.40941 0.78926 0.72954 0.0
H11 H 0.29025 0.80346 0.62916 0.0
C12 C 0.32105 0.87516 0.73299 0.0
C13 C 0.29361 0.85735 0.69126 0.0
C14 C 0.36368 0.85173 0.74643 0.0
C15 C 0.37833 0.80983 0.71777 0.0
C16 C 0.35325 0.79338 0.67447 0.0
C17 C 0.31042 0.81678 0.6619 0.0
H18 H 0.69033 0.28889 0.87783 0.0
H19 H 0.69539 0.42357 0.75776 0.0
H20 H 0.56769 0.3004 0.78071 0.0
C21 C 0.67229 0.31063 0.84719 0.0
C22 C 0.6253 0.28878 0.83361 0.0
C23 C 0.69712 0.35988 0.82128 0.0
C24 C 0.67587 0.38612 0.77868 0.0
C25 C 0.62965 0.36406 0.76289 0.0
C26 C 0.60425 0.31598 0.79125 0.0
H27 H 0.78387 0.68516 0.35194 0.0
H28 H 0.9107 0.69531 0.24456 0.0
H29 H 0.79767 0.55474 0.2538 0.0
C30 C 0.80448 0.66756 0.32208 0.0
C31 C 0.78542 0.61666 0.30562 0.0
C32 C 0.84938 0.69647 0.30027 0.0
C33 C 0.87623 0.67304 0.26193 0.0
C34 C 0.85742 0.62209 0.24428 0.0
C35 C 0.81194 0.59438 0.26637 0.0
H36 H 0.7797 0.90664 0.74445 0.0
H37 H 0.88396 0.78995 0.75942 0.0
H38 H 0.7569 0.77301 0.86758 0.0
C39 C 0.7906 0.86921 0.7639 0.0
C40 C 0.76359 0.84269 0.80896 0.0
C41 C 0.83363 0.84973 0.74562 0.0
C42 C 0.84976 0.80356 0.77272 0.0
C43 C 0.82261 0.77579 0.8172 0.0
C44 C 0.77885 0.79486 0.83409 0.0
H45 H 0.59758 0.19778 0.27939 0.0
H46 H 0.7129 0.10284 0.24179 0.0
H47 H 0.71534 0.18601 0.38274 0.0
C48 C 0.63228 0.18337 0.28871 0.0
C49 C 0.65496 0.19817 0.33404 0.0
C50 C 0.65295 0.14905 0.2556 0.0
C51 C 0.69658 0.12801 0.26858 0.0
C52 C 0.71947 0.1402 0.31491 0.0
C53 C 0.69827 0.17574 0.34726 0.0
H54 H 0.33149 0.70222 0.12288 0.0
H55 H 0.32136 0.57717 0.2532 0.0
H56 H 0.44885 0.69973 0.22788 0.0
C57 C 0.34708 0.68362 0.15697 0.0
C58 C 0.39284 0.70768 0.17222 0.0
C59 C 0.3211 0.63607 0.18517 0.0
C60 C 0.34164 0.6125 0.22969 0.0
C61 C 0.38769 0.635 0.24528 0.0
C62 C 0.41299 0.68275 0.21644 0.0
H63 H 0.09294 0.31901 0.75214 0.0
H64 H 0.2191 0.32684 0.64506 0.0
H65 H 0.22085 0.43691 0.76621 0.0
C66 C 0.13007 0.33723 0.73892 0.0
C67 C 0.15384 0.38113 0.76391 0.0
C68 C 0.15378 0.31736 0.69626 0.0
C69 C 0.20163 0.34152 0.6788 0.0
C70 C 0.22666 0.38453 0.7036 0.0
C71 C 0.20238 0.40368 0.74658 0.0
Zn72 Zn 0.06142 0.01774 0.56385 0.0
Zn73 Zn 0.95316 0.98531 0.44493 0.0
C74 C 0.08499 0.13221 0.58375 0.0
O75 O 0.0972 0.13702 0.53341 0.0
C76 C 0.90383 0.89609 0.39833 0.0
O77 O 0.86732 0.91615 0.42188 0.0
O78 O 0.10817 0.96563 0.59121 0.0
O79 O 0.99097 0.98049 0.5637 0.0
O80 O 0.92685 0.95675 0.51779 0.0
C81 C 0.11981 0.95975 0.63848 0.0
O82 O 0.09715 0.98477 0.67373 0.0
O83 O 0.06714 0.08485 0.60629 0.0
C84 C 0.89403 0.04021 0.37026 0.0
O85 O 0.9129 0.00854 0.33823 0.0
O86 O 0.90802 0.04005 0.41674 0.0
O87 O 0.02329 0.02039 0.44639 0.0
O88 O 0.08812 0.04342 0.49072 0.0
O89 O 0.94764 0.91899 0.40222 0.0
C90 C 0.94684 0.95765 0.5614 0.0
C91 C 0.06763 0.04251 0.44756 0.0
Zn92 Zn 0.54315 0.9737 0.98211 0.0
Zn93 Zn 0.47015 0.02589 0.02473 0.0
C94 C 0.48222 0.90886 0.91775 0.0
O95 O 0.51001 0.87187 0.935 0.0
C96 C 0.53444 0.09262 0.0843 0.0
O97 O 0.51175 0.13102 0.06017 0.0
O98 O 0.59977 0.94042 0.95241 0.0
O99 O 0.56574 0.05574 0.97447 0.0
O100 O 0.49105 0.06718 0.95339 0.0
C101 C 0.60965 0.94851 0.90329 0.0
O102 O 0.5838 0.98001 0.8744 0.0
O103 O 0.48842 0.95695 0.93307 0.0
C104 C 0.39509 0.04169 0.09787 0.0
O105 O 0.40858 0.99608 0.12062 0.0
O106 O 0.41521 0.06208 0.05371 0.0
O107 O 0.44782 0.94316 0.03334 0.0
O108 O 0.52304 0.93182 0.05303 0.0
O109 O 0.52365 0.04266 0.07476 0.0
C110 C 0.53692 0.08382 0.94952 0.0
C111 C 0.47721 0.91493 0.05737 0.0
Zn112 Zn 0.52522 0.4513 0.47142 0.0
Zn113 Zn 0.48829 0.54354 0.53865 0.0
C114 C 0.59677 0.50755 0.39726 0.0
O115 O 0.56567 0.48175 0.36755 0.0
C116 C 0.41746 0.48933 0.61443 0.0
O117 O 0.44479 0.5227 0.6417 0.0
O118 O 0.53852 0.38222 0.43898 0.0
O119 O 0.52327 0.43275 0.54983 0.0
O120 O 0.54782 0.51657 0.5708 0.0
C121 C 0.56994 0.3529 0.45789 0.0
O122 O 0.58952 0.36458 0.5018 0.0
O123 O 0.58644 0.50369 0.44639 0.0
C124 C 0.42979 0.62555 0.56124 0.0
O125 O 0.40072 0.59439 0.53359 0.0
O126 O 0.47309 0.61359 0.56844 0.0
O127 O 0.48945 0.56361 0.46074 0.0
O128 O 0.46719 0.48047 0.43734 0.0
O129 O 0.42938 0.48778 0.56612 0.0
C130 C 0.54575 0.4643 0.58004 0.0
C131 C 0.46858 0.53271 0.42915 0.0
Zn132 Zn 0.94646 0.50582 0.96096 0.0
Zn133 Zn 0.06614 0.49408 0.04971 0.0
C134 C 0.88228 0.45304 0.89562 0.0
O135 O 0.91649 0.48031 0.86209 0.0
C136 C 0.1363 0.53644 0.11548 0.0
O137 O 0.10825 0.49971 0.14798 0.0
O138 O 0.9346 0.57596 0.9206 0.0
O139 O 0.9413 0.52192 0.03666 0.0
O140 O 0.00675 0.5203 0.08395 0.0
C141 C 0.89732 0.59672 0.93724 0.0
O142 O 0.87236 0.57376 0.98029 0.0
O143 O 0.88791 0.45415 0.94438 0.0
C144 C 0.11212 0.39939 0.06955 0.0
O145 O 0.13835 0.42365 0.0278 0.0
O146 O 0.07557 0.42096 0.08698 0.0
O147 O 0.07239 0.48067 0.97338 0.0
O148 O 0.00647 0.48127 0.92682 0.0
O149 O 0.1251 0.54459 0.06819 0.0
C150 C 0.96229 0.52862 0.07903 0.0
C151 C 0.05125 0.47411 0.93111 0.0
C152 C 0.10071 0.09618 0.30594 0.0
C153 C 0.14949 0.1207 0.30867 0.0
H154 H 0.03647 0.05126 0.34783 0.0
C155 C 0.17145 0.11884 0.3567 0.0
H156 H 0.08346 0.09691 0.26888 0.0
C157 C 0.14473 0.09322 0.40176 0.0
C158 C 0.09576 0.06848 0.39935 0.0
H159 H 0.20903 0.13781 0.35943 0.0
H160 H 0.16249 0.09306 0.4385 0.0
C161 C 0.07405 0.06999 0.35094 0.0
C162 C 0.37193 0.88665 0.8357 0.0
C163 C 0.39386 0.87071 0.78972 0.0
H164 H 0.38321 0.91209 0.91262 0.0
C165 C 0.44538 0.87095 0.78591 0.0
H166 H 0.33245 0.88669 0.8403 0.0
C167 C 0.47371 0.8834 0.82779 0.0
C168 C 0.4516 0.89792 0.87377 0.0
H169 H 0.46406 0.86105 0.75061 0.0
H170 H 0.51312 0.882 0.82416 0.0
C171 C 0.40077 0.90079 0.87724 0.0
C172 C 0.58499 0.35743 0.68041 0.0
C173 C 0.60818 0.39045 0.71626 0.0
H174 H 0.54738 0.35462 0.60972 0.0
C175 C 0.61108 0.44839 0.70674 0.0
H176 H 0.58285 0.31275 0.68601 0.0
C177 C 0.59098 0.47264 0.66252 0.0
C178 C 0.56761 0.43944 0.62685 0.0
H179 H 0.62834 0.47503 0.73382 0.0
H180 H 0.59357 0.51733 0.65644 0.0
C181 C 0.56494 0.38156 0.63638 0.0
C182 C 0.9355 0.59578 0.20325 0.0
C183 C 0.88451 0.59791 0.20222 0.0
H184 H -0.00012 0.57145 0.16591 0.0
C185 C 0.8592 0.57602 0.16094 0.0
H186 H 0.95595 0.61185 0.23476 0.0
C187 C 0.88427 0.55295 0.12144 0.0
C188 C 0.93529 0.55074 0.12238 0.0
H189 H 0.81998 0.57743 0.15874 0.0
H190 H 0.86358 0.53694 0.09008 0.0
C191 C 0.96055 0.57216 0.164 0.0
C192 C 0.28435 0.06536 0.18092 0.0
C193 C 0.28575 0.12332 0.17302 0.0
H194 H 0.31824 0.99436 0.16376 0.0
C195 C 0.32457 0.15419 0.14098 0.0
H196 H 0.25453 0.03983 0.20414 0.0
C197 C 0.36 0.12757 0.11617 0.0
C198 C 0.35803 0.0698 0.12404 0.0
H199 H 0.32762 0.19888 0.13482 0.0
H200 H 0.38925 0.15222 0.09127 0.0
C201 C 0.32052 0.03903 0.15729 0.0
C202 C 0.23686 0.89277 0.62531 0.0
C203 C 0.24798 0.88183 0.67782 0.0
H204 H 0.18767 0.92515 0.57181 0.0
C205 C 0.21525 0.89478 0.71738 0.0
H206 H 0.26146 0.88428 0.5937 0.0
C207 C 0.17311 0.91903 0.70473 0.0
C208 C 0.1624 0.93043 0.65223 0.0
H209 H 0.22208 0.88607 0.75826 0.0
H210 H 0.14908 0.92912 0.73613 0.0
C211 C 0.1945 0.91646 0.6127 0.0
C212 C 0.75119 0.38375 0.89385 0.0
C213 C 0.74493 0.38364 0.83986 0.0
H214 H 0.79946 0.40504 0.95382 0.0
C215 C 0.78466 0.40545 0.80439 0.0
H216 H 0.72104 0.36798 0.92221 0.0
C217 C 0.82966 0.42692 0.82259 0.0
C218 C 0.83578 0.42704 0.8766 0.0
H219 H 0.78117 0.4054 0.76262 0.0
H220 H 0.85952 0.44374 0.79424 0.0
C221 C 0.79613 0.40503 0.91202 0.0
C222 C 0.70176 0.56395 0.29766 0.0
C223 C 0.73736 0.58774 0.32923 0.0
H224 H 0.62934 0.52077 0.29423 0.0
C225 C 0.72608 0.58549 0.38344 0.0
H226 H 0.70902 0.56563 0.25573 0.0
C227 C 0.68023 0.56024 0.40554 0.0
C228 C 0.64462 0.53654 0.37394 0.0
H229 H 0.75292 0.6029 0.40896 0.0
H230 H 0.6729 0.55889 0.44743 0.0
C231 C 0.6559 0.5387 0.31975 0.0
C232 C 0.1701 0.26943 0.1004 0.0
C233 C 0.16631 0.26354 0.15546 0.0
H234 H 0.15593 0.31753 0.03006 0.0
C235 C 0.14353 0.30252 0.18172 0.0
H236 H 0.18643 0.23975 0.0787 0.0
C237 C 0.12432 0.34566 0.15367 0.0
C238 C 0.12875 0.35157 0.09889 0.0
H239 H 0.14103 0.30025 0.22403 0.0
H240 H 0.1074 0.37537 0.17487 0.0
C241 C 0.15209 0.31351 0.07243 0.0
C242 C 0.56781 0.19861 0.83971 0.0
C243 C 0.59908 0.23756 0.86392 0.0
H244 H 0.52274 0.11944 0.84845 0.0
C245 C 0.60679 0.22614 0.91746 0.0
H246 H 0.56127 0.20531 0.79858 0.0
C247 C 0.58648 0.1761 0.94501 0.0
C248 C 0.55617 0.13725 0.92049 0.0
H249 H 0.62893 0.25562 0.93833 0.0
H250 H 0.59427 0.16787 0.98572 0.0
C251 C 0.54598 0.14922 0.86804 0.0
C252 C 0.83262 0.789 0.32506 0.0
C253 C 0.86665 0.75139 0.31804 0.0
H254 H 0.81776 0.86367 0.35589 0.0
C255 C 0.91515 0.7647 0.3328 0.0
H256 H 0.79532 0.78068 0.31291 0.0
C257 C 0.92829 0.81305 0.35715 0.0
C258 C 0.89299 0.84845 0.36734 0.0
H259 H 0.94216 0.73652 0.32787 0.0
H260 H 0.9653 0.82138 0.37006 0.0
C261 C 0.84549 0.83661 0.34972 0.0
C262 C 0.42382 0.75239 0.63372 0.0
C263 C 0.3726 0.75195 0.64275 0.0
H264 H 0.48206 0.7127 0.60132 0.0
C265 C 0.34053 0.71082 0.62261 0.0
H266 H 0.44968 0.7842 0.64754 0.0
C267 C 0.35925 0.67058 0.59507 0.0
C268 C 0.41041 0.6702 0.58758 0.0
H269 H 0.30099 0.70871 0.62929 0.0
H270 H 0.33355 0.63881 0.58093 0.0
C271 C 0.4425 0.71167 0.60692 0.0
C272 C 0.83943 0.89039 0.65264 0.0
C273 C 0.86264 0.87868 0.69904 0.0
H274 H 0.84795 0.92421 0.57267 0.0
C275 C 0.91365 0.89413 0.7005 0.0
H276 H 0.80016 0.87858 0.65057 0.0
C277 C 0.94111 0.92073 0.65607 0.0
C278 C 0.91803 0.93163 0.60928 0.0
H279 H 0.93222 0.88588 0.73611 0.0
H280 H 0.98043 0.93199 0.65817 0.0
C281 C 0.86688 0.91629 0.60809 0.0
C282 C 0.61801 0.07949 0.19696 0.0
C283 C 0.62777 0.13481 0.20798 0.0
H284 H 0.58058 0.02254 0.14912 0.0
C285 C 0.61002 0.17632 0.1754 0.0
H286 H 0.63106 0.04667 0.22165 0.0
C287 C 0.58117 0.16265 0.13409 0.0
C288 C 0.56931 0.10711 0.12453 0.0
H289 H 0.61761 0.2194 0.1826 0.0
H290 H 0.56715 0.1956 0.11051 0.0
C291 C 0.58894 0.06572 0.15561 0.0
C292 C 0.40688 0.55066 0.30044 0.0
C293 C 0.40887 0.60861 0.29207 0.0
H294 H 0.42424 0.48114 0.34999 0.0
C295 C 0.43044 0.64109 0.32918 0.0
H296 H 0.39083 0.52449 0.27232 0.0
C297 C 0.4495 0.6163 0.37363 0.0
C298 C 0.44768 0.55837 0.38203 0.0
H299 H 0.43191 0.68573 0.32427 0.0
H300 H 0.4656 0.64274 0.40152 0.0
C301 C 0.42614 0.52581 0.34488 0.0
C302 C 0.07831 0.41471 0.80285 0.0
C303 C 0.12758 0.40495 0.80683 0.0
H304 H 0.01588 0.44474 0.83821 0.0
C305 C 0.15196 0.41972 0.85134 0.0
H306 H 0.05868 0.40473 0.76869 0.0
C307 C 0.12763 0.44331 0.891 0.0
C308 C 0.07817 0.45259 0.88733 0.0
H309 H 0.1898 0.41245 0.85587 0.0
H310 H 0.14761 0.45386 0.92472 0.0
C311 C 0.05393 0.43826 0.84253 0.0
C312 C 0.71778 0.8689 0.88728 0.0
C313 C 0.72236 0.86767 0.83272 0.0
H314 H 0.67874 0.89542 0.95222 0.0
C315 C 0.68904 0.89281 0.80147 0.0
H316 H 0.74344 0.85097 0.91246 0.0
C317 C 0.65236 0.9193 0.82435 0.0
C318 C 0.64822 0.92076 0.87886 0.0
H319 H 0.69129 0.89202 0.75939 0.0
H320 H 0.62717 0.93837 0.79936 0.0
C321 C 0.68097 0.89487 0.9101 0.0
C322 C 0.77257 0.06296 0.31412 0.0
C323 C 0.76497 0.1153 0.32929 0.0
H324 H 0.81959 -0.00065 0.3141 0.0
C325 C 0.80115 0.14299 0.35825 0.0
H326 H 0.74528 0.03903 0.29348 0.0
C327 C 0.84314 0.11875 0.37193 0.0
C328 C 0.85071 0.06722 0.35548 0.0
H329 H 0.79753 0.18366 0.37004 0.0
H330 H 0.87008 0.14066 0.39462 0.0
C331 C 0.81518 0.03977 0.32626 0.0
C332 C 0.24082 0.64377 0.14195 0.0
C333 C 0.27292 0.61081 0.16769 0.0
H334 H 0.17284 0.64572 0.10385 0.0
C335 C 0.25897 0.55314 0.17563 0.0
H336 H 0.24921 0.68838 0.13622 0.0
C337 C 0.21417 0.52937 0.15907 0.0
C338 C 0.18311 0.56236 0.13261 0.0
H339 H 0.28285 0.52596 0.19395 0.0
H340 H 0.20425 0.48489 0.1659 0.0
C341 C 0.19678 0.6196 0.1237 0.0
C342 C 0.29203 0.46749 0.68552 0.0
C343 C 0.27702 0.41069 0.68282 0.0
H344 H 0.3485 0.53628 0.66643 0.0
C345 C 0.30989 0.37974 0.65795 0.0
H346 H 0.26786 0.49334 0.70307 0.0
C347 C 0.35533 0.40526 0.63481 0.0
C348 C 0.36967 0.46172 0.63779 0.0
H349 H 0.30073 0.33567 0.65624 0.0
H350 H 0.37961 0.38072 0.61545 0.0
C351 C 0.3381 0.49243 0.66397 0.0
C352 C 0.86691 0.69154 0.82267 0.0
C353 C 0.84138 0.72912 0.84781 0.0
H354 H 0.90552 0.6206 0.83159 0.0
C355 C 0.83514 0.72281 0.90279 0.0
H356 H 0.87157 0.69439 0.78042 0.0
C357 C 0.85347 0.67974 0.93182 0.0
C358 C 0.87951 0.643 0.90661 0.0
H359 H 0.81675 0.75161 0.92369 0.0
H360 H 0.84789 0.67565 0.97407 0.0
C361 C 0.8863 0.64924 0.85188 0.0
C362 C 0.41436 0.76889 0.08771 0.0
C363 C 0.41845 0.75941 0.14218 0.0
H364 H 0.42875 0.82621 0.01872 0.0
C365 C 0.44476 0.80116 0.16784 0.0
H366 H 0.39595 0.73735 0.06603 0.0
C367 C 0.46524 0.85136 0.13996 0.0
C368 C 0.45873 0.86118 0.08632 0.0
H369 H 0.44827 0.7959 0.2097 0.0
H370 H 0.48462 0.88323 0.16062 0.0
C371 C 0.43348 0.81958 0.06034 0.0
C372 C 0.13132 0.27715 0.61362 0.0
C373 C 0.12922 0.2719 0.66853 0.0
H374 H 0.11883 0.23762 0.54418 0.0
C375 C 0.10776 0.22153 0.69589 0.0
H376 H 0.1469 0.31574 0.59149 0.0
C377 C 0.09146 0.17624 0.66861 0.0
C378 C 0.09621 0.18082 0.61358 0.0
H379 H 0.10576 0.21638 0.73826 0.0
H380 H 0.07688 0.13723 0.69058 0.0
C381 C 0.11511 0.23226 0.58653 0.0
C382 C 0.63418 0.23191 0.42154 0.0
C383 C 0.63301 0.23739 0.36665 0.0
H384 H 0.61501 0.26413 0.49354 0.0
C385 C 0.6099 0.28071 0.34264 0.0
H386 H 0.65093 0.19875 0.4416 0.0
C387 C 0.58793 0.31679 0.3725 0.0
C388 C 0.58956 0.31154 0.42713 0.0
H389 H 0.60934 0.28751 0.30047 0.0
H390 H 0.571 0.34992 0.35256 0.0
C391 C 0.61311 0.26897 0.45141 0.0
loop_
_geom_bond_atom_site_label_1
_geom_bond_atom_site_label_2
_geom_bond_distance
_geom_bond_site_symmetry_2
_ccdc_geom_bond_type
H0 C3 0.931 . S
H1 C6 0.928 . S
H2 C8 0.930 . S
C3 H0 0.931 . S
C3 C4 1.413 . S
C3 C5 1.360 . S
C4 C3 1.413 . S
C4 C8 1.429 . S
C5 C3 1.360 . S
C5 C6 1.372 . S
C6 H1 0.928 . S
C6 C5 1.372 . S
C6 C7 1.404 . S
C7 C6 1.404 . S
C7 C8 1.391 . S
C8 H2 0.930 . S
C8 C4 1.429 . S
C8 C7 1.391 . S
H9 C12 0.931 . S
H10 C15 0.928 . S
H11 C17 0.930 . S
C12 H9 0.931 . S
C12 C13 1.413 . S
C12 C14 1.360 . S
C13 C12 1.413 . S
C13 C17 1.429 . S
C14 C12 1.360 . S
C14 C15 1.372 . S
C15 H10 0.928 . S
C15 C14 1.372 . S
C15 C16 1.404 . S
C16 C15 1.404 . S
C16 C17 1.391 . S
C17 H11 0.930 . S
C17 C13 1.429 . S
C17 C16 1.391 . S
H18 C21 0.931 . S
H19 C24 0.928 . S
H20 C26 0.930 . S
C21 H18 0.931 . S
C21 C22 1.413 . S
C21 C23 1.360 . S
C22 C21 1.413 . S
C22 C26 1.429 . S
C23 C21 1.360 . S
C23 C24 1.372 . S
C24 H19 0.928 . S
C24 C23 1.372 . S
C24 C25 1.404 . S
C25 C24 1.404 . S
C25 C26 1.391 . S
C26 H20 0.930 . S
C26 C22 1.429 . S
C26 C25 1.391 . S
H27 C30 0.931 . S
H28 C33 0.928 . S
H29 C35 0.930 . S
C30 H27 0.931 . S
C30 C31 1.413 . S
C30 C32 1.360 . S
C31 C30 1.413 . S
C31 C35 1.429 . S
C32 C30 1.360 . S
C32 C33 1.372 . S
C33 H28 0.928 . S
C33 C32 1.372 . S
C33 C34 1.404 . S
C34 C33 1.404 . S
C34 C35 1.391 . S
C35 H29 0.930 . S
C35 C31 1.429 . S
C35 C34 1.391 . S
H36 C39 0.931 . S
H37 C42 0.928 . S
H38 C44 0.930 . S
C39 H36 0.931 . S
C39 C40 1.413 . S
C39 C41 1.360 . S
C40 C39 1.413 . S
C40 C44 1.429 . S
C41 C39 1.360 . S
C41 C42 1.372 . S
C42 H37 0.928 . S
C42 C41 1.372 . S
C42 C43 1.404 . S
C43 C42 1.404 . S
C43 C44 1.391 . S
C44 H38 0.930 . S
C44 C40 1.429 . S
C44 C43 1.391 . S
H45 C48 0.931 . S
H46 C51 0.928 . S
H47 C53 0.930 . S
C48 H45 0.931 . S
C48 C49 1.413 . S
C48 C50 1.360 . S
C49 C48 1.413 . S
C49 C53 1.429 . S
C50 C48 1.360 . S
C50 C51 1.372 . S
C51 H46 0.928 . S
C51 C50 1.372 . S
C51 C52 1.404 . S
C52 C51 1.404 . S
C52 C53 1.391 . S
C53 H47 0.930 . S
C53 C49 1.429 . S
C53 C52 1.391 . S
H54 C57 0.931 . S
H55 C60 0.928 . S
H56 C62 0.930 . S
C57 H54 0.931 . S
C57 C58 1.413 . S
C57 C59 1.360 . S
C58 C57 1.413 . S
C58 C62 1.429 . S
C59 C57 1.360 . S
C59 C60 1.372 . S
C60 H55 0.928 . S
C60 C59 1.372 . S
C60 C61 1.404 . S
C61 C60 1.404 . S
C61 C62 1.391 . S
C62 H56 0.930 . S
C62 C58 1.429 . S
C62 C61 1.391 . S
H63 C66 0.931 . S
H64 C69 0.928 . S
H65 C71 0.930 . S
C66 H63 0.931 . S
C66 C67 1.413 . S
C66 C68 1.360 . S
C67 C66 1.413 . S
C67 C71 1.429 . S
C68 C66 1.360 . S
C68 C69 1.372 . S
C69 H64 0.928 . S
C69 C68 1.372 . S
C69 C70 1.404 . S
C70 C69 1.404 . S
C70 C71 1.391 . S
C71 H65 0.930 . S
C71 C67 1.429 . S
C71 C70 1.391 . S
Zn72 O78 1.969 1_545 S
Zn72 O79 1.965 1_545 S
Zn72 O83 2.024 . S
Zn72 O88 1.969 . S
Zn73 O80 1.969 . S
Zn73 O86 1.969 1_565 S
Zn73 O87 1.965 1_665 S
Zn73 O89 2.024 . S
C74 O75 1.229 . S
C74 O83 1.058 . S
O75 C74 1.229 . S
C76 O77 1.229 . S
C76 O89 1.058 . S
O77 C76 1.229 . S
O78 Zn72 1.969 1_565 S
O78 C81 1.267 . S
O79 Zn72 1.965 1_565 S
O79 C90 1.260 1_455 S
O80 Zn73 1.969 . S
O80 C90 1.258 . S
C81 O78 1.267 . S
C81 O82 1.228 . S
O82 C81 1.228 . S
O83 Zn72 2.024 . S
O83 C74 1.058 . S
C84 O85 1.228 . S
C84 O86 1.267 . S
O85 C84 1.228 . S
O86 Zn73 1.969 1_545 S
O86 C84 1.267 . S
O87 Zn73 1.965 1_445 S
O87 C91 1.260 . S
O88 Zn72 1.969 . S
O88 C91 1.258 . S
O89 Zn73 2.024 . S
O89 C76 1.058 . S
C90 O79 1.260 1_655 S
C90 O80 1.258 . S
C91 O87 1.260 . S
C91 O88 1.258 . S
Zn92 O98 1.969 . S
Zn92 O99 1.965 1_565 S
Zn92 O103 2.024 . S
Zn92 O108 1.969 1_556 S
Zn93 O100 1.969 . S
Zn93 O106 1.969 . S
Zn93 O107 1.965 1_545 S
Zn93 O109 2.024 . S
C94 O95 1.229 . S
C94 O103 1.058 . S
O95 C94 1.229 . S
C96 O97 1.229 . S
C96 O109 1.058 . S
O97 C96 1.229 . S
O98 Zn92 1.969 . S
O98 C101 1.267 . S
O99 Zn92 1.965 1_545 S
O99 C110 1.260 . S
O100 Zn93 1.969 . S
O100 C110 1.258 1_554 S
C101 O98 1.267 . S
C101 O102 1.228 . S
O102 C101 1.228 . S
O103 Zn92 2.024 . S
O103 C94 1.058 . S
C104 O105 1.228 . S
C104 O106 1.267 . S
O105 C104 1.228 . S
O106 Zn93 1.969 . S
O106 C104 1.267 . S
O107 Zn93 1.965 1_565 S
O107 C111 1.260 . S
O108 Zn92 1.969 1_554 S
O108 C111 1.258 . S
O109 Zn93 2.024 . S
O109 C96 1.058 . S
C110 O99 1.260 . S
C110 O100 1.258 1_556 S
C111 O107 1.260 . S
C111 O108 1.258 . S
Zn112 O118 1.969 . S
Zn112 O119 1.965 . S
Zn112 O123 2.024 . S
Zn112 O128 1.969 . S
Zn113 O120 1.969 . S
Zn113 O126 1.969 . S
Zn113 O127 1.965 . S
Zn113 O129 2.024 . S
C114 O115 1.229 . S
C114 O123 1.058 . S
O115 C114 1.229 . S
C116 O117 1.229 . S
C116 O129 1.058 . S
O117 C116 1.229 . S
O118 Zn112 1.969 . S
O118 C121 1.267 . S
O119 Zn112 1.965 . S
O119 C130 1.260 . S
O120 Zn113 1.969 . S
O120 C130 1.258 . S
C121 O118 1.267 . S
C121 O122 1.228 . S
O122 C121 1.228 . S
O123 Zn112 2.024 . S
O123 C114 1.058 . S
C124 O125 1.228 . S
C124 O126 1.267 . S
O125 C124 1.228 . S
O126 Zn113 1.969 . S
O126 C124 1.267 . S
O127 Zn113 1.965 . S
O127 C131 1.260 . S
O128 Zn112 1.969 . S
O128 C131 1.258 . S
O129 Zn113 2.024 . S
O129 C116 1.058 . S
C130 O119 1.260 . S
C130 O120 1.258 . S
C131 O127 1.260 . S
C131 O128 1.258 . S
Zn132 O138 1.969 . S
Zn132 O139 1.965 1_556 S
Zn132 O143 2.024 . S
Zn132 O148 1.969 1_655 S
Zn133 O140 1.969 . S
Zn133 O146 1.969 . S
Zn133 O147 1.965 1_554 S
Zn133 O149 2.024 . S
C134 O135 1.229 . S
C134 O143 1.058 . S
O135 C134 1.229 . S
C136 O137 1.229 . S
C136 O149 1.058 . S
O137 C136 1.229 . S
O138 Zn132 1.969 . S
O138 C141 1.267 . S
O139 Zn132 1.965 1_554 S
O139 C150 1.260 . S
O140 Zn133 1.969 . S
O140 C150 1.258 1_455 S
C141 O138 1.267 . S
C141 O142 1.228 . S
O142 C141 1.228 . S
O143 Zn132 2.024 . S
O143 C134 1.058 . S
C144 O145 1.228 . S
C144 O146 1.267 . S
O145 C144 1.228 . S
O146 Zn133 1.969 . S
O146 C144 1.267 . S
O147 Zn133 1.965 1_556 S
O147 C151 1.260 . S
O148 Zn132 1.969 1_455 S
O148 C151 1.258 . S
O149 Zn133 2.024 . S
O149 C136 1.058 . S
C150 O139 1.260 . S
C150 O140 1.258 1_655 S
C151 O147 1.260 . S
C151 O148 1.258 . S
C152 C153 1.387 . S
C152 H156 0.950 . S
C152 C161 1.390 . S
C153 C152 1.387 . S
C153 C155 1.387 . S
H154 C161 0.950 . S
C155 C153 1.387 . S
C155 C157 1.390 . S
C155 H159 0.950 . S
H156 C152 0.950 . S
C157 C155 1.390 . S
C157 C158 1.387 . S
C157 H160 0.950 . S
C158 C157 1.387 . S
C158 C161 1.387 . S
H159 C155 0.950 . S
H160 C157 0.950 . S
C161 C152 1.390 . S
C161 H154 0.950 . S
C161 C158 1.387 . S
C162 C163 1.387 . S
C162 H166 0.950 . S
C162 C171 1.390 . S
C163 C162 1.387 . S
C163 C165 1.387 . S
H164 C171 0.950 . S
C165 C163 1.387 . S
C165 C167 1.390 . S
C165 H169 0.950 . S
H166 C162 0.950 . S
C167 C165 1.390 . S
C167 C168 1.387 . S
C167 H170 0.950 . S
C168 C167 1.387 . S
C168 C171 1.387 . S
H169 C165 0.950 . S
H170 C167 0.950 . S
C171 C162 1.390 . S
C171 H164 0.950 . S
C171 C168 1.387 . S
C172 C173 1.387 . S
C172 H176 0.950 . S
C172 C181 1.390 . S
C173 C172 1.387 . S
C173 C175 1.387 . S
H174 C181 0.950 . S
C175 C173 1.387 . S
C175 C177 1.390 . S
C175 H179 0.950 . S
H176 C172 0.950 . S
C177 C175 1.390 . S
C177 C178 1.387 . S
C177 H180 0.950 . S
C178 C177 1.387 . S
C178 C181 1.387 . S
H179 C175 0.950 . S
H180 C177 0.950 . S
C181 C172 1.390 . S
C181 H174 0.950 . S
C181 C178 1.387 . S
C182 C183 1.387 . S
C182 H186 0.950 . S
C182 C191 1.390 . S
C183 C182 1.387 . S
C183 C185 1.387 . S
H184 C191 0.950 . S
C185 C183 1.387 . S
C185 C187 1.390 . S
C185 H189 0.950 . S
H186 C182 0.950 . S
C187 C185 1.390 . S
C187 C188 1.387 . S
C187 H190 0.950 . S
C188 C187 1.387 . S
C188 C191 1.387 . S
H189 C185 0.950 . S
H190 C187 0.950 . S
C191 C182 1.390 . S
C191 H184 0.950 . S
C191 C188 1.387 . S
C192 C193 1.387 . S
C192 H196 0.950 . S
C192 C201 1.390 . S
C193 C192 1.387 . S
C193 C195 1.387 . S
H194 C201 0.950 . S
C195 C193 1.387 . S
C195 C197 1.390 . S
C195 H199 0.950 . S
H196 C192 0.950 . S
C197 C195 1.390 . S
C197 C198 1.387 . S
C197 H200 0.950 . S
C198 C197 1.387 . S
C198 C201 1.387 . S
H199 C195 0.950 . S
H200 C197 0.950 . S
C201 C192 1.390 . S
C201 H194 0.950 . S
C201 C198 1.387 . S
C202 C203 1.387 . S
C202 H206 0.950 . S
C202 C211 1.390 . S
C203 C202 1.387 . S
C203 C205 1.387 . S
H204 C211 0.950 . S
C205 C203 1.387 . S
C205 C207 1.390 . S
C205 H209 0.950 . S
H206 C202 0.950 . S
C207 C205 1.390 . S
C207 C208 1.387 . S
C207 H210 0.950 . S
C208 C207 1.387 . S
C208 C211 1.387 . S
H209 C205 0.950 . S
H210 C207 0.950 . S
C211 C202 1.390 . S
C211 H204 0.950 . S
C211 C208 1.387 . S
C212 C213 1.387 . S
C212 H216 0.950 . S
C212 C221 1.390 . S
C213 C212 1.387 . S
C213 C215 1.387 . S
H214 C221 0.950 . S
C215 C213 1.387 . S
C215 C217 1.390 . S
C215 H219 0.950 . S
H216 C212 0.950 . S
C217 C215 1.390 . S
C217 C218 1.387 . S
C217 H220 0.950 . S
C218 C217 1.387 . S
C218 C221 1.387 . S
H219 C215 0.950 . S
H220 C217 0.950 . S
C221 C212 1.390 . S
C221 H214 0.950 . S
C221 C218 1.387 . S
C222 C223 1.387 . S
C222 H226 0.950 . S
C222 C231 1.390 . S
C223 C222 1.387 . S
C223 C225 1.387 . S
H224 C231 0.950 . S
C225 C223 1.387 . S
C225 C227 1.390 . S
C225 H229 0.950 . S
H226 C222 0.950 . S
C227 C225 1.390 . S
C227 C228 1.387 . S
C227 H230 0.950 . S
C228 C227 1.387 . S
C228 C231 1.387 . S
H229 C225 0.950 . S
H230 C227 0.950 . S
C231 C222 1.390 . S
C231 H224 0.950 . S
C231 C228 1.387 . S
C232 C233 1.387 . S
C232 H236 0.950 . S
C232 C241 1.390 . S
C233 C232 1.387 . S
C233 C235 1.387 . S
H234 C241 0.950 . S
C235 C233 1.387 . S
C235 C237 1.390 . S
C235 H239 0.950 . S
H236 C232 0.950 . S
C237 C235 1.390 . S
C237 C238 1.387 . S
C237 H240 0.950 . S
C238 C237 1.387 . S
C238 C241 1.387 . S
H239 C235 0.950 . S
H240 C237 0.950 . S
C241 C232 1.390 . S
C241 H234 0.950 . S
C241 C238 1.387 . S
C242 C243 1.387 . S
C242 H246 0.950 . S
C242 C251 1.390 . S
C243 C242 1.387 . S
C243 C245 1.387 . S
H244 C251 0.950 . S
C245 C243 1.387 . S
C245 C247 1.390 . S
C245 H249 0.950 . S
H246 C242 0.950 . S
C247 C245 1.390 . S
C247 C248 1.387 . S
C247 H250 0.950 . S
C248 C247 1.387 . S
C248 C251 1.387 . S
H249 C245 0.950 . S
H250 C247 0.950 . S
C251 C242 1.390 . S
C251 H244 0.950 . S
C251 C248 1.387 . S
C252 C253 1.387 . S
C252 H256 0.950 . S
C252 C261 1.390 . S
C253 C252 1.387 . S
C253 C255 1.387 . S
H254 C261 0.950 . S
C255 C253 1.387 . S
C255 C257 1.390 . S
C255 H259 0.950 . S
H256 C252 0.950 . S
C257 C255 1.390 . S
C257 C258 1.387 . S
C257 H260 0.950 . S
C258 C257 1.387 . S
C258 C261 1.387 . S
H259 C255 0.950 . S
H260 C257 0.950 . S
C261 C252 1.390 . S
C261 H254 0.950 . S
C261 C258 1.387 . S
C262 C263 1.387 . S
C262 H266 0.950 . S
C262 C271 1.390 . S
C263 C262 1.387 . S
C263 C265 1.387 . S
H264 C271 0.950 . S
C265 C263 1.387 . S
C265 C267 1.390 . S
C265 H269 0.950 . S
H266 C262 0.950 . S
C267 C265 1.390 . S
C267 C268 1.387 . S
C267 H270 0.950 . S
C268 C267 1.387 . S
C268 C271 1.387 . S
H269 C265 0.950 . S
H270 C267 0.950 . S
C271 C262 1.390 . S
C271 H264 0.950 . S
C271 C268 1.387 . S
C272 C273 1.387 . S
C272 H276 0.950 . S
C272 C281 1.390 . S
C273 C272 1.387 . S
C273 C275 1.387 . S
H274 C281 0.950 . S
C275 C273 1.387 . S
C275 C277 1.390 . S
C275 H279 0.950 . S
H276 C272 0.950 . S
C277 C275 1.390 . S
C277 C278 1.387 . S
C277 H280 0.950 . S
C278 C277 1.387 . S
C278 C281 1.387 . S
H279 C275 0.950 . S
H280 C277 0.950 . S
C281 C272 1.390 . S
C281 H274 0.950 . S
C281 C278 1.387 . S
C282 C283 1.387 . S
C282 H286 0.950 . S
C282 C291 1.390 . S
C283 C282 1.387 . S
C283 C285 1.387 . S
H284 C291 0.950 . S
C285 C283 1.387 . S
C285 C287 1.390 . S
C285 H289 0.950 . S
H286 C282 0.950 . S
C287 C285 1.390 . S
C287 C288 1.387 . S
C287 H290 0.950 . S
C288 C287 1.387 . S
C288 C291 1.387 . S
H289 C285 0.950 . S
H290 C287 0.950 . S
C291 C282 1.390 . S
C291 H284 0.950 . S
C291 C288 1.387 . S
C292 C293 1.387 . S
C292 H296 0.950 . S
C292 C301 1.390 . S
C293 C292 1.387 . S
C293 C295 1.387 . S
H294 C301 0.950 . S
C295 C293 1.387 . S
C295 C297 1.390 . S
C295 H299 0.950 . S
H296 C292 0.950 . S
C297 C295 1.390 . S
C297 C298 1.387 . S
C297 H300 0.950 . S
C298 C297 1.387 . S
C298 C301 1.387 . S
H299 C295 0.950 . S
H300 C297 0.950 . S
C301 C292 1.390 . S
C301 H294 0.950 . S
C301 C298 1.387 . S
C302 C303 1.387 . S
C302 H306 0.950 . S
C302 C311 1.390 . S
C303 C302 1.387 . S
C303 C305 1.387 . S
H304 C311 0.950 . S
C305 C303 1.387 . S
C305 C307 1.390 . S
C305 H309 0.950 . S
H306 C302 0.950 . S
C307 C305 1.390 . S
C307 C308 1.387 . S
C307 H310 0.950 . S
C308 C307 1.387 . S
C308 C311 1.387 . S
H309 C305 0.950 . S
H310 C307 0.950 . S
C311 C302 1.390 . S
C311 H304 0.950 . S
C311 C308 1.387 . S
C312 C313 1.387 . S
C312 H316 0.950 . S
C312 C321 1.390 . S
C313 C312 1.387 . S
C313 C315 1.387 . S
H314 C321 0.950 . S
C315 C313 1.387 . S
C315 C317 1.390 . S
C315 H319 0.950 . S
H316 C312 0.950 . S
C317 C315 1.390 . S
C317 C318 1.387 . S
C317 H320 0.950 . S
C318 C317 1.387 . S
C318 C321 1.387 . S
H319 C315 0.950 . S
H320 C317 0.950 . S
C321 C312 1.390 . S
C321 H314 0.950 . S
C321 C318 1.387 . S
C322 C323 1.387 . S
C322 H326 0.950 . S
C322 C331 1.390 . S
C323 C322 1.387 . S
C323 C325 1.387 . S
H324 C331 0.950 . S
C325 C323 1.387 . S
C325 C327 1.390 . S
C325 H329 0.950 . S
H326 C322 0.950 . S
C327 C325 1.390 . S
C327 C328 1.387 . S
C327 H330 0.950 . S
C328 C327 1.387 . S
C328 C331 1.387 . S
H329 C325 0.950 . S
H330 C327 0.950 . S
C331 C322 1.390 . S
C331 H324 0.950 . S
C331 C328 1.387 . S
C332 C333 1.387 . S
C332 H336 0.950 . S
C332 C341 1.390 . S
C333 C332 1.387 . S
C333 C335 1.387 . S
H334 C341 0.950 . S
C335 C333 1.387 . S
C335 C337 1.390 . S
C335 H339 0.950 . S
H336 C332 0.950 . S
C337 C335 1.390 . S
C337 C338 1.387 . S
C337 H340 0.950 . S
C338 C337 1.387 . S
C338 C341 1.387 . S
H339 C335 0.950 . S
H340 C337 0.950 . S
C341 C332 1.390 . S
C341 H334 0.950 . S
C341 C338 1.387 . S
C342 C343 1.387 . S
C342 H346 0.950 . S
C342 C351 1.390 . S
C343 C342 1.387 . S
C343 C345 1.387 . S
H344 C351 0.950 . S
C345 C343 1.387 . S
C345 C347 1.390 . S
C345 H349 0.950 . S
H346 C342 0.950 . S
C347 C345 1.390 . S
C347 C348 1.387 . S
C347 H350 0.950 . S
C348 C347 1.387 . S
C348 C351 1.387 . S
H349 C345 0.950 . S
H350 C347 0.950 . S
C351 C342 1.390 . S
C351 H344 0.950 . S
C351 C348 1.387 . S
C352 C353 1.387 . S
C352 H356 0.950 . S
C352 C361 1.390 . S
C353 C352 1.387 . S
C353 C355 1.387 . S
H354 C361 0.950 . S
C355 C353 1.387 . S
C355 C357 1.390 . S
C355 H359 0.950 . S
H356 C352 0.950 . S
C357 C355 1.390 . S
C357 C358 1.387 . S
C357 H360 0.950 . S
C358 C357 1.387 . S
C358 C361 1.387 . S
H359 C355 0.950 . S
H360 C357 0.950 . S
C361 C352 1.390 . S
C361 H354 0.950 . S
C361 C358 1.387 . S
C362 C363 1.387 . S
C362 H366 0.950 . S
C362 C371 1.390 . S
C363 C362 1.387 . S
C363 C365 1.387 . S
H364 C371 0.950 . S
C365 C363 1.387 . S
C365 C367 1.390 . S
C365 H369 0.950 . S
H366 C362 0.950 . S
C367 C365 1.390 . S
C367 C368 1.387 . S
C367 H370 0.950 . S
C368 C367 1.387 . S
C368 C371 1.387 . S
H369 C365 0.950 . S
H370 C367 0.950 . S
C371 C362 1.390 . S
C371 H364 0.950 . S
C371 C368 1.387 . S
C372 C373 1.387 . S
C372 H376 0.950 . S
C372 C381 1.390 . S
C373 C372 1.387 . S
C373 C375 1.387 . S
H374 C381 0.950 . S
C375 C373 1.387 . S
C375 C377 1.390 . S
C375 H379 0.950 . S
H376 C372 0.950 . S
C377 C375 1.390 . S
C377 C378 1.387 . S
C377 H380 0.950 . S
C378 C377 1.387 . S
C378 C381 1.387 . S
H379 C375 0.950 . S
H380 C377 0.950 . S
C381 C372 1.390 . S
C381 H374 0.950 . S
C381 C378 1.387 . S
C382 C383 1.387 . S
C382 H386 0.950 . S
C382 C391 1.390 . S
C383 C382 1.387 . S
C383 C385 1.387 . S
H384 C391 0.950 . S
C385 C383 1.387 . S
C385 C387 1.390 . S
C385 H389 0.950 . S
H386 C382 0.950 . S
C387 C385 1.390 . S
C387 C388 1.387 . S
C387 H390 0.950 . S
C388 C387 1.387 . S
C388 C391 1.387 . S
H389 C385 0.950 . S
H390 C387 0.950 . S
C391 C382 1.390 . S
C391 H384 0.950 . S
C391 C388 1.387 . S
C153 C5 1.443 . S
C158 C91 1.414 . S
C163 C14 1.261 . S
C168 C94 1.223 . S
C178 C130 1.801 . S
C173 C25 1.835 . S
C183 C34 1.709 . S
C188 C150 1.678 . S
C198 C104 1.573 . S
C193 C7 1.601 . S
C208 C81 1.456 . S
C203 C13 1.469 . S
C218 C134 1.565 . S
C213 C23 1.690 . S
C228 C114 1.365 . S
C223 C31 1.447 . S
C233 C4 1.361 . S
C238 C144 1.303 . S
C248 C110 1.670 . S
C243 C22 1.698 . S
C253 C32 1.624 . S
C258 C76 1.576 . S
C263 C16 1.324 . S
C268 C124 1.290 . S
C278 C90 1.404 . S
C273 C41 1.432 . S
C283 C50 1.266 . S
C288 C96 1.226 . S
C293 C61 1.833 . S
C298 C131 1.799 . S
C303 C67 1.715 . S
C308 C151 1.685 . S
C313 C40 1.612 . S
C318 C101 1.586 . S
C328 C84 1.438 . S
C323 C52 1.451 . S
C338 C136 1.568 . S
C333 C59 1.695 . S
C348 C116 1.362 . S
C343 C70 1.442 . S
C353 C43 1.358 . S
C358 C141 1.300 . S
C368 C111 1.676 . S
C363 C58 1.704 . S
C378 C74 1.566 . S
C373 C68 1.612 . S
C383 C49 1.330 . S
C388 C121 1.295 . S
