# Generated by pormake.
# Topology eea, (3,6)-cn, num edge types: 1
# Building blocks:
#     Node 0, Type 0, BuildingBlock: MIDCAF_clean_linker_0, # of connection points: 3
#     Node 1, Type 0, BuildingBlock: MIDCAF_clean_linker_0, # of connection points: 3
#     Node 2, Type 0, BuildingBlock: MIDCAF_clean_linker_0, # of connection points: 3
#     Node 3, Type 0, BuildingBlock: MIDCAF_clean_linker_0, # of connection points: 3
#     Node 4, Type 0, BuildingBlock: MIDCAF_clean_linker_0, # of connection points: 3
#     Node 5, Type 0, BuildingBlock: MIDCAF_clean_linker_0, # of connection points: 3
#     Node 6, Type 0, BuildingBlock: MIDCAF_clean_linker_0, # of connection points: 3
#     Node 7, Type 0, BuildingBlock: MIDCAF_clean_linker_0, # of connection points: 3
#     Node 8, Type 0, BuildingBlock: MIDCAF_clean_linker_0, # of connection points: 3
#     Node 9, Type 0, BuildingBlock: MIDCAF_clean_linker_0, # of connection points: 3
#     Node 10, Type 0, BuildingBlock: MIDCAF_clean_linker_0, # of connection points: 3
#     Node 11, Type 0, BuildingBlock: MIDCAF_clean_linker_0, # of connection points: 3
#     Node 12, Type 0, BuildingBlock: MIDCAF_clean_linker_0, # of connection points: 3
#     Node 13, Type 0, BuildingBlock: MIDCAF_clean_linker_0, # of connection points: 3
#     Node 14, Type 0, BuildingBlock: MIDCAF_clean_linker_0, # of connection points: 3
#     Node 15, Type 0, BuildingBlock: MIDCAF_clean_linker_0, # of connection points: 3
#     Node 16, Type 0, BuildingBlock: MIDCAF_clean_linker_0, # of connection points: 3
#     Node 17, Type 0, BuildingBlock: MIDCAF_clean_linker_0, # of connection points: 3
#     Node 18, Type 1, BuildingBlock: CUKXOW_clean_sbu_0, # of connection points: 6
#     Node 19, Type 1, BuildingBlock: CUKXOW_clean_sbu_0, # of connection points: 6
#     Node 20, Type 1, BuildingBlock: CUKXOW_clean_sbu_0, # of connection points: 6
#     Node 21, Type 1, BuildingBlock: CUKXOW_clean_sbu_0, # of connection points: 6
#     Node 22, Type 1, BuildingBlock: CUKXOW_clean_sbu_0, # of connection points: 6
#     Node 23, Type 1, BuildingBlock: CUKXOW_clean_sbu_0, # of connection points: 6
#     Node 24, Type 1, BuildingBlock: CUKXOW_clean_sbu_0, # of connection points: 6
#     Node 25, Type 1, BuildingBlock: CUKXOW_clean_sbu_0, # of connection points: 6
#     Node 26, Type 1, BuildingBlock: CUKXOW_clean_sbu_0, # of connection points: 6
#     Edge 27, Type (0, 1), BuildingBlock: CIFDUS_clean_linker_0, # of connection points: 2
#     Edge 28, Type (0, 1), BuildingBlock: CIFDUS_clean_linker_0, # of connection points: 2
#     Edge 29, Type (0, 1), BuildingBlock: CIFDUS_clean_linker_0, # of connection points: 2
#     Edge 30, Type (0, 1), BuildingBlock: CIFDUS_clean_linker_0, # of connection points: 2
#     Edge 31, Type (0, 1), BuildingBlock: CIFDUS_clean_linker_0, # of connection points: 2
#     Edge 32, Type (0, 1), BuildingBlock: CIFDUS_clean_linker_0, # of connection points: 2
#     Edge 33, Type (0, 1), BuildingBlock: CIFDUS_clean_linker_0, # of connection points: 2
#     Edge 34, Type (0, 1), BuildingBlock: CIFDUS_clean_linker_0, # of connection points: 2
#     Edge 35, Type (0, 1), BuildingBlock: CIFDUS_clean_linker_0, # of connection points: 2
#     Edge 36, Type (0, 1), BuildingBlock: CIFDUS_clean_linker_0, # of connection points: 2
#     Edge 37, Type (0, 1), BuildingBlock: CIFDUS_clean_linker_0, # of connection points: 2
#     Edge 38, Type (0, 1), BuildingBlock: CIFDUS_clean_linker_0, # of connection points: 2
#     Edge 39, Type (0, 1), BuildingBlock: CIFDUS_clean_linker_0, # of connection points: 2
#     Edge 40, Type (0, 1), BuildingBlock: CIFDUS_clean_linker_0, # of connection points: 2
#     Edge 41, Type (0, 1), BuildingBlock: CIFDUS_clean_linker_0, # of connection points: 2
#     Edge 42, Type (0, 1), BuildingBlock: CIFDUS_clean_linker_0, # of connection points: 2
#     Edge 43, Type (0, 1), BuildingBlock: CIFDUS_clean_linker_0, # of connection points: 2
#     Edge 44, Type (0, 1), BuildingBlock: CIFDUS_clean_linker_0, # of connection points: 2
#     Edge 45, Type (0, 1), BuildingBlock: CIFDUS_clean_linker_0, # of connection points: 2
#     Edge 46, Type (0, 1), BuildingBlock: CIFDUS_clean_linker_0, # of connection points: 2
#     Edge 47, Type (0, 1), BuildingBlock: CIFDUS_clean_linker_0, # of connection points: 2
#     Edge 48, Type (0, 1), BuildingBlock: CIFDUS_clean_linker_0, # of connection points: 2
#     Edge 49, Type (0, 1), BuildingBlock: CIFDUS_clean_linker_0, # of connection points: 2
#     Edge 50, Type (0, 1), BuildingBlock: CIFDUS_clean_linker_0, # of connection points: 2
#     Edge 51, Type (0, 1), BuildingBlock: CIFDUS_clean_linker_0, # of connection points: 2
#     Edge 52, Type (0, 1), BuildingBlock: CIFDUS_clean_linker_0, # of connection points: 2
#     Edge 53, Type (0, 1), BuildingBlock: CIFDUS_clean_linker_0, # of connection points: 2
#     Edge 54, Type (0, 1), BuildingBlock: CIFDUS_clean_linker_0, # of connection points: 2
#     Edge 55, Type (0, 1), BuildingBlock: CIFDUS_clean_linker_0, # of connection points: 2
#     Edge 56, Type (0, 1), BuildingBlock: CIFDUS_clean_linker_0, # of connection points: 2
#     Edge 57, Type (0, 1), BuildingBlock: CIFDUS_clean_linker_0, # of connection points: 2
#     Edge 58, Type (0, 1), BuildingBlock: CIFDUS_clean_linker_0, # of connection points: 2
#     Edge 59, Type (0, 1), BuildingBlock: CIFDUS_clean_linker_0, # of connection points: 2
#     Edge 60, Type (0, 1), BuildingBlock: CIFDUS_clean_linker_0, # of connection points: 2
#     Edge 61, Type (0, 1), BuildingBlock: CIFDUS_clean_linker_0, # of connection points: 2
#     Edge 62, Type (0, 1), BuildingBlock: CIFDUS_clean_linker_0, # of connection points: 2
#     Edge 63, Type (0, 1), BuildingBlock: CIFDUS_clean_linker_0, # of connection points: 2
#     Edge 64, Type (0, 1), BuildingBlock: CIFDUS_clean_linker_0, # of connection points: 2
#     Edge 65, Type (0, 1), BuildingBlock: CIFDUS_clean_linker_0, # of connection points: 2
#     Edge 66, Type (0, 1), BuildingBlock: CIFDUS_clean_linker_0, # of connection points: 2
#     Edge 67, Type (0, 1), BuildingBlock: CIFDUS_clean_linker_0, # of connection points: 2
#     Edge 68, Type (0, 1), BuildingBlock: CIFDUS_clean_linker_0, # of connection points: 2
#     Edge 69, Type (0, 1), BuildingBlock: CIFDUS_clean_linker_0, # of connection points: 2
#     Edge 70, Type (0, 1), BuildingBlock: CIFDUS_clean_linker_0, # of connection points: 2
#     Edge 71, Type (0, 1), BuildingBlock: CIFDUS_clean_linker_0, # of connection points: 2
#     Edge 72, Type (0, 1), BuildingBlock: CIFDUS_clean_linker_0, # of connection points: 2
#     Edge 73, Type (0, 1), BuildingBlock: CIFDUS_clean_linker_0, # of connection points: 2
#     Edge 74, Type (0, 1), BuildingBlock: CIFDUS_clean_linker_0, # of connection points: 2
#     Edge 75, Type (0, 1), BuildingBlock: CIFDUS_clean_linker_0, # of connection points: 2
#     Edge 76, Type (0, 1), BuildingBlock: CIFDUS_clean_linker_0, # of connection points: 2
#     Edge 77, Type (0, 1), BuildingBlock: CIFDUS_clean_linker_0, # of connection points: 2
#     Edge 78, Type (0, 1), BuildingBlock: CIFDUS_clean_linker_0, # of connection points: 2
#     Edge 79, Type (0, 1), BuildingBlock: CIFDUS_clean_linker_0, # of connection points: 2
#     Edge 80, Type (0, 1), BuildingBlock: CIFDUS_clean_linker_0, # of connection points: 2
# Relax obj value: 0.018
# Max RMSD: 0.126
# Mean RMSD: 0.057
data_MOF--net-eea--node1-CUKXOW_clean_sbu_0--node2-MIDCAF_clean_linker_0--edge1-CIFDUS_clean_linker_0
_symmetry_space_group_name_H-M    P1
_symmetry_Int_Tables_number       1
_symmetry_cell_setting            triclinic
loop_
_symmetry_equiv_pos_as_xyz
'x, y, z'
_cell_length_a     60.608972
_cell_length_b     57.433658
_cell_length_c     65.638621
_cell_angle_alpha  93.197775
_cell_angle_beta   93.071697
_cell_angle_gamma 119.96647
loop_
_atom_site_label
_atom_site_type_symbol
_atom_site_fract_x
_atom_site_fract_y
_atom_site_fract_z
_atom_type_partial_charge
C0 C 0.23428 0.04 0.41208 0.0
C1 C 0.21329 0.02854 0.39714 0.0
C2 C 0.20177 0.04363 0.39178 0.0
C3 C 0.21115 0.06975 0.40117 0.0
H4 H 0.22901 0.14986 0.38892 0.0
H5 H 0.22012 0.18199 0.37303 0.0
H6 H 0.23598 0.2276 0.43178 0.0
H7 H 0.2452 0.1955 0.44785 0.0
H8 H 0.27256 0.17887 0.48633 0.0
H9 H 0.2952 0.1873 0.52038 0.0
H10 H 0.313 0.125 0.50431 0.0
H11 H 0.29057 0.11656 0.47048 0.0
H12 H 0.25953 0.07398 0.43322 0.0
H13 H 0.24339 0.02874 0.41663 0.0
H14 H 0.18564 0.03529 0.38022 0.0
H15 H 0.20183 0.08086 0.39678 0.0
N16 N 0.23546 0.12594 0.41903 0.0
N17 N 0.25797 0.1575 0.44755 0.0
N18 N 0.25586 0.11552 0.44525 0.0
C19 C 0.24377 0.15066 0.42911 0.0
C20 C 0.2642 0.13998 0.45564 0.0
C21 C 0.24138 0.10823 0.42705 0.0
C22 C 0.23786 0.17008 0.41969 0.0
C23 C 0.23056 0.16665 0.39854 0.0
C24 C 0.2256 0.18515 0.38937 0.0
C25 C 0.22745 0.20733 0.40116 0.0
C26 C 0.23432 0.21061 0.42236 0.0
C27 C 0.23971 0.1923 0.43151 0.0
C28 C 0.27956 0.1469 0.47572 0.0
C29 C 0.28155 0.16719 0.49 0.0
C30 C 0.2944 0.17193 0.50951 0.0
C31 C 0.30582 0.15676 0.51502 0.0
C32 C 0.3046 0.13718 0.50048 0.0
C33 C 0.29153 0.13222 0.48112 0.0
C34 C 0.23197 0.08108 0.41634 0.0
C35 C 0.24342 0.06589 0.42165 0.0
C36 C 0.96052 0.20679 0.42359 0.0
C37 C 0.96472 0.19743 0.40473 0.0
C38 C 0.94454 0.17395 0.39392 0.0
C39 C 0.9209 0.15994 0.40181 0.0
H40 H 0.85638 0.08805 0.39263 0.0
H41 H 0.82514 0.04461 0.37454 0.0
H42 H 0.76794 0.03977 0.4133 0.0
H43 H 0.79913 0.08334 0.43151 0.0
H44 H 0.81739 0.12337 0.47129 0.0
H45 H 0.80841 0.13398 0.50502 0.0
H46 H 0.88716 0.19757 0.51798 0.0
H47 H 0.89621 0.1873 0.48385 0.0
H48 H 0.93419 0.20025 0.4462 0.0
H49 H 0.97575 0.22477 0.43234 0.0
H50 H 0.94692 0.16646 0.37917 0.0
H51 H 0.90596 0.14191 0.3929 0.0
N52 N 0.87296 0.13009 0.41826 0.0
N53 N 0.84502 0.12333 0.44342 0.0
N54 N 0.88643 0.16133 0.4473 0.0
C55 C 0.84977 0.11501 0.42528 0.0
C56 C 0.86316 0.14641 0.45457 0.0
C57 C 0.89138 0.15328 0.42902 0.0
C58 C 0.83034 0.0892 0.41363 0.0
C59 C 0.83712 0.0779 0.39727 0.0
C60 C 0.81927 0.05292 0.38693 0.0
C61 C 0.79416 0.03879 0.39256 0.0
C62 C 0.78713 0.05033 0.40854 0.0
C63 C 0.80506 0.07522 0.41905 0.0
C64 C 0.85764 0.1543 0.4748 0.0
C65 C 0.83288 0.13972 0.48121 0.0
C66 C 0.8277 0.14571 0.50066 0.0
C67 C 0.84711 0.16641 0.51433 0.0
C68 C 0.87172 0.18159 0.50778 0.0
C69 C 0.87693 0.17561 0.48823 0.0
C70 C 0.91665 0.16897 0.42078 0.0
C71 C 0.93674 0.19268 0.43156 0.0
C72 C 0.80087 0.73481 0.42261 0.0
C73 C 0.80529 0.74352 0.40288 0.0
C74 C 0.82689 0.74606 0.39402 0.0
C75 C 0.84419 0.74093 0.40495 0.0
H76 H 0.91273 0.74274 0.40192 0.0
H77 H 0.95347 0.75564 0.38852 0.0
H78 H 0.9867 0.75954 0.44945 0.0
H79 H 0.9456 0.74568 0.46278 0.0
H80 H 0.90825 0.72847 0.50007 0.0
H81 H 0.89965 0.71338 0.53422 0.0
H82 H 0.81841 0.67122 0.51566 0.0
H83 H 0.82704 0.68744 0.48198 0.0
H84 H 0.81429 0.72335 0.44882 0.0
H85 H 0.7842 0.73234 0.42972 0.0
H86 H 0.8309 0.75293 0.3789 0.0
H87 H 0.86095 0.74372 0.39782 0.0
N88 N 0.88251 0.73678 0.42999 0.0
N89 N 0.89633 0.72647 0.46046 0.0
N90 N 0.85516 0.72072 0.45608 0.0
C91 C 0.90095 0.73521 0.4415 0.0
C92 C 0.8734 0.71902 0.46778 0.0
C93 C 0.8596 0.72969 0.43718 0.0
C94 C 0.92587 0.74318 0.43344 0.0
C95 C 0.92871 0.74636 0.4125 0.0
C96 C 0.95216 0.75394 0.40482 0.0
C97 C 0.97346 0.75881 0.41791 0.0
C98 C 0.97062 0.75562 0.43888 0.0
C99 C 0.94707 0.74778 0.44654 0.0
C100 C 0.86832 0.70928 0.48836 0.0
C101 C 0.88856 0.71599 0.50333 0.0
C102 C 0.88361 0.70719 0.52289 0.0
C103 C 0.85831 0.69114 0.52783 0.0
C104 C 0.83813 0.68409 0.51265 0.0
C105 C 0.84306 0.69325 0.49325 0.0
C106 C 0.84022 0.73302 0.42496 0.0
C107 C 0.81809 0.72954 0.43351 0.0
C108 C 0.03222 0.2424 0.57163 0.0
C109 C 0.03316 0.24549 0.59316 0.0
C110 C 0.05703 0.25723 0.60472 0.0
C111 C 0.07913 0.26384 0.59519 0.0
H112 H 0.12447 0.22273 0.59618 0.0
H113 H 0.15179 0.20974 0.61479 0.0
H114 H 0.21582 0.26495 0.58316 0.0
H115 H 0.18798 0.27662 0.56372 0.0
H116 H 0.15039 0.25728 0.50984 0.0
H117 H 0.16367 0.27426 0.47698 0.0
H118 H 0.13017 0.32495 0.48465 0.0
H119 H 0.11571 0.30674 0.51726 0.0
H120 H 0.05317 0.24578 0.54552 0.0
H121 H 0.01414 0.23332 0.56226 0.0
H122 H 0.05859 0.26068 0.62126 0.0
H123 H 0.09707 0.27186 0.60462 0.0
N124 N 0.11659 0.25619 0.57508 0.0
N125 N 0.14207 0.26585 0.54775 0.0
N126 N 0.10553 0.27031 0.54526 0.0
C127 C 0.13727 0.25786 0.56684 0.0
C128 C 0.12632 0.27209 0.53687 0.0
C129 C 0.10071 0.26242 0.56447 0.0
C130 C 0.1541 0.25061 0.57846 0.0
C131 C 0.1444 0.23206 0.59323 0.0
C132 C 0.16014 0.22476 0.604 0.0
C133 C 0.18609 0.23625 0.60054 0.0
C134 C 0.19583 0.25518 0.58595 0.0
C135 C 0.17993 0.26204 0.57487 0.0
C136 C 0.13225 0.28091 0.51618 0.0
C137 C 0.14568 0.27189 0.50443 0.0
C138 C 0.15345 0.2818 0.48564 0.0
C139 C 0.14848 0.30142 0.4783 0.0
C140 C 0.13421 0.30974 0.48975 0.0
C141 C 0.12599 0.2994 0.50846 0.0
C142 C 0.07799 0.2594 0.57383 0.0
C143 C 0.05453 0.2495 0.56203 0.0
C144 C 0.76227 0.78809 0.5811 0.0
C145 C 0.77076 0.78998 0.60179 0.0
C146 C 0.7727 0.81081 0.61539 0.0
C147 C 0.76699 0.82986 0.60833 0.0
H148 H 0.79753 0.91627 0.61618 0.0
H149 H 0.81431 0.96072 0.63518 0.0
H150 H 0.75746 0.97134 0.60123 0.0
H151 H 0.74094 0.9274 0.58217 0.0
H152 H 0.74629 0.90701 0.53067 0.0
H153 H 0.72918 0.90367 0.49577 0.0
H154 H 0.69139 0.81658 0.49298 0.0
H155 H 0.70972 0.82008 0.52786 0.0
H156 H 0.75023 0.80521 0.55795 0.0
H157 H 0.76038 0.77207 0.57033 0.0
H158 H 0.77941 0.8129 0.63138 0.0
H159 H 0.76917 0.84595 0.61918 0.0
N160 N 0.76241 0.87293 0.59192 0.0
N161 N 0.748 0.88937 0.56562 0.0
N162 N 0.74349 0.84645 0.56054 0.0
C163 C 0.75903 0.89281 0.58489 0.0
C164 C 0.74022 0.86636 0.55334 0.0
C165 C 0.75455 0.8496 0.57988 0.0
C166 C 0.768 0.91844 0.59765 0.0
C167 C 0.78848 0.92801 0.61297 0.0
C168 C 0.79815 0.95341 0.62375 0.0
C169 C 0.7871 0.96931 0.61966 0.0
C170 C 0.76615 0.95934 0.60481 0.0
C171 C 0.75681 0.93427 0.59382 0.0
C172 C 0.7293 0.86379 0.53208 0.0
C173 C 0.73428 0.8871 0.52267 0.0
C174 C 0.72428 0.88517 0.50263 0.0
C175 C 0.70864 0.85984 0.49152 0.0
C176 C 0.70361 0.83645 0.50095 0.0
C177 C 0.714 0.83842 0.52098 0.0
C178 C 0.75904 0.82839 0.58753 0.0
C179 C 0.75634 0.80702 0.57406 0.0
C180 C 0.19322 0.96593 0.59376 0.0
C181 C 0.18316 0.97729 0.60725 0.0
C182 C 0.15679 0.96313 0.6094 0.0
C183 C 0.14076 0.93813 0.59816 0.0
H184 H 0.07806 0.85955 0.60271 0.0
H185 H 0.03766 0.82728 0.6145 0.0
H186 H 0.01271 0.78426 0.55403 0.0
H187 H 0.05385 0.81628 0.54231 0.0
H188 H 0.09663 0.84075 0.50621 0.0
H189 H 0.11166 0.83674 0.47306 0.0
H190 H 0.1897 0.8907 0.49841 0.0
H191 H 0.1747 0.89542 0.53103 0.0
H192 H 0.18552 0.93326 0.57176 0.0
H193 H 0.21345 0.97653 0.59168 0.0
H194 H 0.14859 0.97142 0.61977 0.0
H195 H 0.12048 0.9278 0.59999 0.0
N196 N 0.11031 0.88361 0.5768 0.0
N197 N 0.10212 0.8555 0.54656 0.0
N198 N 0.14121 0.89616 0.55339 0.0
C199 C 0.09444 0.86042 0.56466 0.0
C200 C 0.12562 0.87333 0.5409 0.0
C201 C 0.1337 0.90156 0.57127 0.0
C202 C 0.0693 0.84066 0.57149 0.0
C203 C 0.06401 0.84331 0.59182 0.0
C204 C 0.04064 0.82481 0.59859 0.0
C205 C 0.02167 0.8032 0.58521 0.0
C206 C 0.02692 0.80048 0.56484 0.0
C207 C 0.05049 0.81894 0.55808 0.0
C208 C 0.13441 0.86864 0.52122 0.0
C209 C 0.11699 0.85159 0.50469 0.0
C210 C 0.12564 0.84924 0.48569 0.0
C211 C 0.15192 0.86369 0.4829 0.0
C212 C 0.1693 0.87986 0.49974 0.0
C213 C 0.16067 0.88243 0.51855 0.0
C214 C 0.15074 0.9271 0.58425 0.0
C215 C 0.17718 0.94123 0.58227 0.0
C216 C 0.88885 0.37064 0.74605 0.0
C217 C 0.88324 0.36723 0.72472 0.0
C218 C 0.88907 0.38987 0.71409 0.0
C219 C 0.8996 0.41546 0.72481 0.0
H220 H 0.9053 0.49068 0.72121 0.0
H221 H 0.89132 0.52043 0.70799 0.0
H222 H 0.90738 0.56249 0.76833 0.0
H223 H 0.92127 0.53261 0.78173 0.0
H224 H 0.96658 0.52152 0.81206 0.0
H225 H 0.98692 0.52723 0.84661 0.0
H226 H 0.9464 0.44055 0.84819 0.0
H227 H 0.92722 0.43493 0.81364 0.0
H228 H 0.90353 0.39797 0.77319 0.0
H229 H 0.8847 0.35346 0.75453 0.0
H230 H 0.88487 0.38764 0.69762 0.0
H231 H 0.90349 0.43255 0.71632 0.0
N232 N 0.91202 0.46509 0.74983 0.0
N233 N 0.93096 0.49327 0.78049 0.0
N234 N 0.92588 0.44996 0.77738 0.0
C235 C 0.91986 0.489 0.76102 0.0
C236 C 0.93411 0.47379 0.78872 0.0
C237 C 0.91498 0.44548 0.75792 0.0
C238 C 0.91423 0.50909 0.75259 0.0
C239 C 0.90612 0.50642 0.73167 0.0
C240 C 0.89823 0.52356 0.72404 0.0
C241 C 0.8981 0.54365 0.73716 0.0
C242 C 0.907 0.54695 0.75792 0.0
C243 C 0.91512 0.52994 0.76555 0.0
C244 C 0.94553 0.47778 0.81003 0.0
C245 C 0.96206 0.50375 0.81987 0.0
C246 C 0.97362 0.507 0.8397 0.0
C247 C 0.96859 0.48434 0.85017 0.0
C248 C 0.95138 0.45847 0.84045 0.0
C249 C 0.94021 0.45523 0.82062 0.0
C250 C 0.90492 0.41882 0.74625 0.0
C251 C 0.89975 0.39616 0.75669 0.0
C252 C 0.63047 0.54096 0.77164 0.0
C253 C 0.64062 0.52998 0.75775 0.0
C254 C 0.62614 0.50218 0.75134 0.0
C255 C 0.60183 0.48614 0.75777 0.0
H256 H 0.53176 0.41965 0.73413 0.0
H257 H 0.50037 0.37975 0.71187 0.0
H258 H 0.44016 0.37483 0.74696 0.0
H259 H 0.4712 0.4146 0.769 0.0
H260 H 0.48378 0.45044 0.80886 0.0
H261 H 0.46906 0.45404 0.84187 0.0
H262 H 0.54733 0.50426 0.8679 0.0
H263 H 0.56225 0.50111 0.83449 0.0
H264 H 0.59876 0.53391 0.78867 0.0
H265 H 0.64082 0.56228 0.7768 0.0
H266 H 0.63348 0.49268 0.7412 0.0
H267 H 0.5911 0.46495 0.75216 0.0
N268 N 0.54763 0.45907 0.7634 0.0
N269 N 0.5159 0.44964 0.78561 0.0
N270 N 0.55743 0.48609 0.79457 0.0
C271 C 0.52302 0.44369 0.76773 0.0
C272 C 0.53283 0.47059 0.79916 0.0
C273 C 0.5649 0.48039 0.77663 0.0
C274 C 0.50408 0.42031 0.75346 0.0
C275 C 0.5118 0.4102 0.73699 0.0
C276 C 0.49385 0.38728 0.72429 0.0
C277 C 0.46779 0.37416 0.72765 0.0
C278 C 0.46004 0.38466 0.74379 0.0
C279 C 0.47793 0.40738 0.75655 0.0
C280 C 0.52428 0.47527 0.819 0.0
C281 C 0.49797 0.46241 0.82154 0.0
C282 C 0.48947 0.46433 0.84055 0.0
C283 C 0.50698 0.47907 0.85765 0.0
C284 C 0.5333 0.49282 0.85502 0.0
C285 C 0.54187 0.49098 0.83587 0.0
C286 C 0.59147 0.49726 0.77117 0.0
C287 C 0.60627 0.52472 0.7784 0.0
C288 C 0.46656 0.08079 0.7574 0.0
C289 C 0.46922 0.08675 0.7369 0.0
C290 C 0.48896 0.08624 0.72698 0.0
C291 C 0.50609 0.08056 0.73748 0.0
H292 H 0.56831 0.07254 0.73112 0.0
H293 H 0.60707 0.08807 0.71414 0.0
H294 H 0.65093 0.10566 0.77272 0.0
H295 H 0.61154 0.08954 0.78998 0.0
H296 H 0.57276 0.06833 0.83201 0.0
H297 H 0.56365 0.05707 0.8673 0.0
H298 H 0.48271 0.01954 0.84908 0.0
H299 H 0.49169 0.03119 0.81443 0.0
H300 H 0.48124 0.07078 0.78378 0.0
H301 H 0.45134 0.08076 0.76535 0.0
H302 H 0.49161 0.09099 0.71124 0.0
H303 H 0.52133 0.08081 0.72944 0.0
N304 N 0.54481 0.07607 0.7613 0.0
N305 N 0.55992 0.06589 0.79127 0.0
N306 N 0.51964 0.0628 0.78872 0.0
C307 C 0.5633 0.07364 0.77187 0.0
C308 C 0.5378 0.06008 0.79965 0.0
C309 C 0.52303 0.07087 0.76959 0.0
C310 C 0.58687 0.08018 0.76197 0.0
C311 C 0.58614 0.07959 0.74049 0.0
C312 C 0.60842 0.08863 0.73071 0.0
C313 C 0.63216 0.09868 0.74209 0.0
C314 C 0.63288 0.09808 0.76354 0.0
C315 C 0.61037 0.08885 0.77341 0.0
C316 C 0.53299 0.05108 0.8205 0.0
C317 C 0.55306 0.05747 0.83559 0.0
C318 C 0.54783 0.05099 0.85576 0.0
C319 C 0.52246 0.0379 0.86109 0.0
C320 C 0.50249 0.03034 0.84568 0.0
C321 C 0.50767 0.03695 0.82574 0.0
C322 C 0.5038 0.07512 0.75814 0.0
C323 C 0.48361 0.07492 0.7679 0.0
C324 C 0.68812 0.55641 0.89946 0.0
C325 C 0.68622 0.54946 0.91977 0.0
C326 C 0.70771 0.55155 0.93082 0.0
C327 C 0.73033 0.55968 0.92171 0.0
H328 H 0.79549 0.56004 0.9318 0.0
H329 H 0.82477 0.54863 0.94898 0.0
H330 H 0.86863 0.56723 0.89641 0.0
H331 H 0.83956 0.57934 0.87925 0.0
H332 H 0.82993 0.62477 0.85239 0.0
H333 H 0.83949 0.64514 0.82026 0.0
H334 H 0.75853 0.60736 0.80157 0.0
H335 H 0.74902 0.58803 0.83439 0.0
H336 H 0.71175 0.56956 0.87454 0.0
H337 H 0.67183 0.55491 0.89053 0.0
H338 H 0.70714 0.54704 0.94666 0.0
H339 H 0.74639 0.56091 0.93081 0.0
N340 N 0.77411 0.56957 0.90145 0.0
N341 N 0.80091 0.58759 0.87536 0.0
N342 N 0.76081 0.5849 0.87361 0.0
C343 C 0.79639 0.57626 0.89338 0.0
C344 C 0.78326 0.59203 0.86541 0.0
C345 C 0.75625 0.5738 0.89179 0.0
C346 C 0.81506 0.5705 0.90405 0.0
C347 C 0.81138 0.5618 0.92384 0.0
C348 C 0.8281 0.55508 0.93369 0.0
C349 C 0.84888 0.55675 0.924 0.0
C350 C 0.8529 0.56592 0.90436 0.0
C351 C 0.83618 0.57278 0.8945 0.0
C352 C 0.78872 0.60465 0.84588 0.0
C353 C 0.81415 0.62082 0.84144 0.0
C354 C 0.81962 0.63237 0.82291 0.0
C355 C 0.79981 0.62765 0.80811 0.0
C356 C 0.7743 0.6117 0.81266 0.0
C357 C 0.76882 0.60049 0.83143 0.0
C358 C 0.73221 0.56616 0.90129 0.0
C359 C 0.71094 0.56473 0.89029 0.0
C360 C 0.43247 0.12554 0.92222 0.0
C361 C 0.44878 0.13501 0.9405 0.0
C362 C 0.45978 0.16225 0.94798 0.0
C363 C 0.45468 0.17972 0.93739 0.0
H364 H 0.47123 0.25939 0.93965 0.0
H365 H 0.48376 0.30417 0.95586 0.0
H366 H 0.43009 0.3091 0.91296 0.0
H367 H 0.41773 0.26451 0.89648 0.0
H368 H 0.42391 0.2347 0.84922 0.0
H369 H 0.40601 0.22425 0.81381 0.0
H370 H 0.37168 0.13896 0.82056 0.0
H371 H 0.39069 0.14958 0.85612 0.0
H372 H 0.41506 0.13521 0.89737 0.0
H373 H 0.42387 0.10466 0.91603 0.0
H374 H 0.47224 0.17003 0.96213 0.0
H375 H 0.46359 0.20061 0.94361 0.0
N376 N 0.44045 0.21397 0.91677 0.0
N377 N 0.42576 0.22441 0.88688 0.0
N378 N 0.42301 0.18226 0.88785 0.0
C379 C 0.43633 0.23157 0.90658 0.0
C380 C 0.41914 0.19988 0.87736 0.0
C381 C 0.43375 0.18924 0.90758 0.0
C382 C 0.44354 0.25842 0.91673 0.0
C383 C 0.46203 0.26996 0.9337 0.0
C384 C 0.4693 0.29561 0.94292 0.0
C385 C 0.45787 0.31 0.93563 0.0
C386 C 0.43907 0.29832 0.91893 0.0
C387 C 0.43214 0.27289 0.90945 0.0
C388 C 0.40847 0.19298 0.8556 0.0
C389 C 0.41254 0.21368 0.84323 0.0
C390 C 0.40214 0.20766 0.82288 0.0
C391 C 0.38695 0.18072 0.81437 0.0
C392 C 0.38336 0.15992 0.82658 0.0
C393 C 0.39413 0.16601 0.84698 0.0
C394 C 0.43864 0.17041 0.91894 0.0
C395 C 0.42756 0.14309 0.91148 0.0
C396 C 0.8797 0.3007 0.91528 0.0
C397 C 0.87918 0.30603 0.93633 0.0
C398 C 0.86001 0.28612 0.94678 0.0
C399 C 0.84137 0.26157 0.93626 0.0
H400 H 0.76231 0.20457 0.9349 0.0
H401 H 0.72173 0.17679 0.94884 0.0
H402 H 0.70396 0.11129 0.90305 0.0
H403 H 0.74406 0.13944 0.88861 0.0
H404 H 0.7678 0.16652 0.84392 0.0
H405 H 0.77208 0.1581 0.80788 0.0
H406 H 0.85376 0.21169 0.81829 0.0
H407 H 0.84962 0.22038 0.85433 0.0
H408 H 0.86217 0.27278 0.88854 0.0
H409 H 0.89442 0.31561 0.90689 0.0
H410 H 0.85907 0.28978 0.96299 0.0
H411 H 0.82664 0.24679 0.94471 0.0
N412 N 0.79956 0.21453 0.91224 0.0
N413 N 0.78378 0.18495 0.88215 0.0
N414 N 0.82434 0.2238 0.88433 0.0
C415 C 0.78064 0.19155 0.90154 0.0
C416 C 0.80558 0.20093 0.87345 0.0
C417 C 0.82151 0.23075 0.90373 0.0
C418 C 0.75644 0.17428 0.9106 0.0
C419 C 0.74979 0.18421 0.92784 0.0
C420 C 0.72653 0.1682 0.9359 0.0
C421 C 0.70949 0.14174 0.92709 0.0
C422 C 0.71635 0.13172 0.91001 0.0
C423 C 0.73946 0.14783 0.9018 0.0
C424 C 0.80836 0.19426 0.85198 0.0
C425 C 0.78672 0.17632 0.83861 0.0
C426 C 0.78911 0.17156 0.81796 0.0
C427 C 0.81323 0.18429 0.81036 0.0
C428 C 0.83497 0.20148 0.82383 0.0
C429 C 0.83255 0.20657 0.84441 0.0
C430 C 0.84172 0.25632 0.91512 0.0
C431 C 0.86128 0.27608 0.90481 0.0
C432 C 0.56803 0.70923 0.08864 0.0
C433 C 0.54651 0.69734 0.07418 0.0
C434 C 0.53498 0.71235 0.0687 0.0
C435 C 0.54478 0.73877 0.07751 0.0
H436 H 0.55818 0.81715 0.06397 0.0
H437 H 0.54474 0.84681 0.04936 0.0
H438 H 0.56177 0.8919 0.10852 0.0
H439 H 0.57539 0.86248 0.12319 0.0
H440 H 0.60222 0.8492 0.15946 0.0
H441 H 0.6215 0.8586 0.19472 0.0
H442 H 0.64605 0.80077 0.18316 0.0
H443 H 0.62634 0.7908 0.14783 0.0
H444 H 0.59407 0.744 0.10894 0.0
H445 H 0.57721 0.69803 0.0932 0.0
H446 H 0.51851 0.70373 0.05745 0.0
H447 H 0.53534 0.74973 0.07301 0.0
N448 N 0.56854 0.79482 0.094 0.0
N449 N 0.59054 0.82729 0.12196 0.0
N450 N 0.59049 0.78638 0.12044 0.0
C451 C 0.57602 0.8195 0.1037 0.0
C452 C 0.598 0.81095 0.13037 0.0
C453 C 0.57565 0.77811 0.10229 0.0
C454 C 0.56788 0.83744 0.09475 0.0
C455 C 0.55905 0.83336 0.07388 0.0
C456 C 0.55147 0.8504 0.06548 0.0
C457 C 0.55219 0.87158 0.07783 0.0
C458 C 0.56084 0.87557 0.0987 0.0
C459 C 0.56878 0.85881 0.10704 0.0
C460 C 0.61249 0.81901 0.15088 0.0
C461 C 0.61208 0.83877 0.16425 0.0
C462 C 0.62312 0.84421 0.18443 0.0
C463 C 0.63523 0.83043 0.19152 0.0
C464 C 0.63698 0.81181 0.17792 0.0
C465 C 0.62552 0.80597 0.15779 0.0
C466 C 0.56609 0.75059 0.09223 0.0
C467 C 0.57762 0.73552 0.09769 0.0
C468 C 0.30766 0.87719 0.09378 0.0
C469 C 0.31543 0.86552 0.07839 0.0
C470 C 0.30171 0.83731 0.07398 0.0
C471 C 0.28034 0.82127 0.08418 0.0
H472 H 0.21695 0.74538 0.07865 0.0
H473 H 0.18609 0.70074 0.06193 0.0
H474 H 0.12724 0.69989 0.09666 0.0
H475 H 0.15806 0.74454 0.11356 0.0
H476 H 0.17506 0.79498 0.14845 0.0
H477 H 0.1658 0.80573 0.18206 0.0
H478 H 0.24682 0.85306 0.20115 0.0
H479 H 0.25606 0.84322 0.16695 0.0
H480 H 0.2806 0.87071 0.11566 0.0
H481 H 0.31758 0.89886 0.09745 0.0
H482 H 0.30747 0.82752 0.0626 0.0
H483 H 0.2701 0.79964 0.08017 0.0
N484 N 0.23111 0.79117 0.09964 0.0
N485 N 0.20406 0.78469 0.12553 0.0
N486 N 0.24377 0.82478 0.12694 0.0
C487 C 0.20879 0.77549 0.10776 0.0
C488 C 0.22148 0.80919 0.13528 0.0
C489 C 0.2486 0.81588 0.109 0.0
C490 C 0.18998 0.74853 0.09746 0.0
C491 C 0.19743 0.73575 0.08272 0.0
C492 C 0.17983 0.71013 0.07323 0.0
C493 C 0.15434 0.69691 0.07805 0.0
C494 C 0.14677 0.70974 0.0926 0.0
C495 C 0.16446 0.73522 0.10233 0.0
C496 C 0.21628 0.81803 0.15513 0.0
C497 C 0.19092 0.80787 0.15976 0.0
C498 C 0.18562 0.8139 0.17912 0.0
C499 C 0.20554 0.82979 0.19453 0.0
C500 C 0.23099 0.84085 0.18966 0.0
C501 C 0.23631 0.83516 0.17008 0.0
C502 C 0.27228 0.83296 0.09927 0.0
C503 C 0.2864 0.86106 0.1042 0.0
C504 C 0.12762 0.40842 0.09592 0.0
C505 C 0.13126 0.41901 0.0768 0.0
C506 C 0.15188 0.42149 0.06634 0.0
C507 C 0.16875 0.41406 0.07498 0.0
H508 H 0.23385 0.41121 0.06617 0.0
H509 H 0.27446 0.42979 0.05159 0.0
H510 H 0.31088 0.42778 0.10936 0.0
H511 H 0.2696 0.40826 0.12396 0.0
H512 H 0.22576 0.36812 0.15742 0.0
H513 H 0.21399 0.34647 0.18933 0.0
H514 H 0.13799 0.33454 0.17791 0.0
H515 H 0.14928 0.35519 0.14624 0.0
H516 H 0.14115 0.39309 0.11939 0.0
H517 H 0.11215 0.40657 0.10452 0.0
H518 H 0.15496 0.42912 0.05141 0.0
H519 H 0.18452 0.41643 0.06656 0.0
N520 N 0.20629 0.40441 0.09603 0.0
N521 N 0.21833 0.38604 0.12263 0.0
N522 N 0.17846 0.38372 0.12094 0.0
C523 C 0.22373 0.39915 0.10525 0.0
C524 C 0.19544 0.37803 0.13043 0.0
C525 C 0.18368 0.39689 0.10382 0.0
C526 C 0.24847 0.40846 0.09633 0.0
C527 C 0.25044 0.41461 0.07584 0.0
C528 C 0.27385 0.42549 0.06747 0.0
C529 C 0.29612 0.43082 0.07938 0.0
C530 C 0.2941 0.42388 0.09973 0.0
C531 C 0.27046 0.41272 0.10811 0.0
C532 C 0.1886 0.36364 0.14926 0.0
C533 C 0.20648 0.36059 0.16165 0.0
C534 C 0.19976 0.34829 0.17997 0.0
C535 C 0.175 0.33869 0.18619 0.0
C536 C 0.15707 0.34121 0.1735 0.0
C537 C 0.16373 0.35342 0.15534 0.0
C538 C 0.16528 0.40379 0.09422 0.0
C539 C 0.14437 0.40081 0.10449 0.0
C540 C 0.36412 0.8984 0.23124 0.0
C541 C 0.36152 0.89683 0.2524 0.0
C542 C 0.38298 0.90256 0.26566 0.0
C543 C 0.40603 0.90855 0.25798 0.0
H544 H 0.45675 0.87548 0.26185 0.0
H545 H 0.48359 0.86202 0.28073 0.0
H546 H 0.54978 0.92242 0.25408 0.0
H547 H 0.52267 0.93478 0.23444 0.0
H548 H 0.51127 0.95255 0.19256 0.0
H549 H 0.52605 0.97056 0.16041 0.0
H550 H 0.45019 0.95389 0.13993 0.0
H551 H 0.43526 0.93618 0.17267 0.0
H552 H 0.38881 0.90538 0.20716 0.0
H553 H 0.34798 0.89401 0.22056 0.0
H554 H 0.38204 0.90244 0.28208 0.0
H555 H 0.422 0.91253 0.26872 0.0
N556 N 0.44834 0.90837 0.24051 0.0
N557 N 0.47841 0.92451 0.21647 0.0
N558 N 0.44021 0.92537 0.21103 0.0
C559 C 0.47109 0.91327 0.23428 0.0
C560 C 0.46318 0.93058 0.2047 0.0
C561 C 0.43286 0.91448 0.22911 0.0
C562 C 0.48758 0.90607 0.24656 0.0
C563 C 0.47706 0.8859 0.26008 0.0
C564 C 0.49251 0.87828 0.271 0.0
C565 C 0.51891 0.89098 0.2689 0.0
C566 C 0.52946 0.91166 0.25573 0.0
C567 C 0.51394 0.91892 0.24455 0.0
C568 C 0.47195 0.94263 0.1852 0.0
C569 C 0.49759 0.95263 0.18129 0.0
C570 C 0.50611 0.96288 0.16274 0.0
C571 C 0.48925 0.96331 0.14744 0.0
C572 C 0.4637 0.95393 0.15144 0.0
C573 C 0.45513 0.94372 0.17017 0.0
C574 C 0.40851 0.90948 0.23684 0.0
C575 C 0.38747 0.90483 0.22354 0.0
C576 C 0.08343 0.44844 0.24768 0.0
C577 C 0.10172 0.45696 0.26466 0.0
C578 C 0.11368 0.48395 0.27308 0.0
C579 C 0.10704 0.50189 0.26503 0.0
H580 H 0.11142 0.57647 0.27946 0.0
H581 H 0.12136 0.61858 0.29909 0.0
H582 H 0.06352 0.62259 0.26065 0.0
H583 H 0.05356 0.5807 0.24104 0.0
H584 H 0.02845 0.54023 0.19991 0.0
H585 H 0.01262 0.53813 0.16469 0.0
H586 H 0.05269 0.49776 0.14429 0.0
H587 H 0.06764 0.49886 0.17987 0.0
H588 H 0.06275 0.45923 0.22642 0.0
H589 H 0.07403 0.42777 0.24082 0.0
H590 H 0.12773 0.49101 0.28626 0.0
H591 H 0.11635 0.52245 0.27209 0.0
N592 N 0.08488 0.53414 0.25238 0.0
N593 N 0.06508 0.54564 0.22641 0.0
N594 N 0.06904 0.50725 0.22088 0.0
C595 C 0.07695 0.55093 0.2456 0.0
C596 C 0.06117 0.52404 0.21391 0.0
C597 C 0.08077 0.51211 0.24019 0.0
C598 C 0.08181 0.57529 0.25859 0.0
C599 C 0.10064 0.58617 0.27533 0.0
C600 C 0.10642 0.61033 0.28652 0.0
C601 C 0.09323 0.62386 0.28137 0.0
C602 C 0.07384 0.6125 0.26508 0.0
C603 C 0.06829 0.58858 0.25375 0.0
C604 C 0.04949 0.51993 0.19266 0.0
C605 C 0.03368 0.53066 0.18794 0.0
C606 C 0.02476 0.52962 0.16768 0.0
C607 C 0.03177 0.51827 0.15152 0.0
C608 C 0.04676 0.50653 0.15632 0.0
C609 C 0.0554 0.50721 0.17671 0.0
C610 C 0.08858 0.49335 0.24814 0.0
C611 C 0.07709 0.4665 0.23938 0.0
C612 C 0.53409 0.63177 0.24499 0.0
C613 C 0.53419 0.63807 0.26599 0.0
C614 C 0.51714 0.61797 0.27756 0.0
C615 C 0.49964 0.59226 0.26815 0.0
H616 H 0.42557 0.53603 0.27166 0.0
H617 H 0.38631 0.51182 0.28794 0.0
H618 H 0.35662 0.44706 0.2393 0.0
H619 H 0.39629 0.47124 0.22283 0.0
H620 H 0.42627 0.49266 0.17782 0.0
H621 H 0.43267 0.48169 0.14288 0.0
H622 H 0.51455 0.52887 0.15789 0.0
H623 H 0.50815 0.54062 0.19226 0.0
H624 H 0.51694 0.60183 0.21932 0.0
H625 H 0.54722 0.64692 0.23578 0.0
H626 H 0.5168 0.62239 0.29377 0.0
H627 H 0.48631 0.57735 0.27739 0.0
N628 N 0.45734 0.54461 0.24559 0.0
N629 N 0.44118 0.51214 0.21718 0.0
N630 N 0.48209 0.55055 0.21812 0.0
C631 C 0.43819 0.52095 0.23597 0.0
C632 C 0.46323 0.52683 0.20826 0.0
C633 C 0.47927 0.55954 0.2368 0.0
C634 C 0.41417 0.50564 0.24585 0.0
C635 C 0.41079 0.51662 0.26433 0.0
C636 C 0.38817 0.50284 0.27366 0.0
C637 C 0.36834 0.47766 0.26483 0.0
C638 C 0.37169 0.46641 0.24649 0.0
C639 C 0.39436 0.48032 0.23703 0.0
C640 C 0.4667 0.51782 0.18771 0.0
C641 C 0.44561 0.50051 0.17364 0.0
C642 C 0.44928 0.49415 0.15364 0.0
C643 C 0.47413 0.50475 0.14743 0.0
C644 C 0.49514 0.52099 0.1619 0.0
C645 C 0.49147 0.52762 0.18169 0.0
C646 C 0.49913 0.58606 0.24703 0.0
C647 C 0.51687 0.60593 0.23562 0.0
Tb648 Tb 0.54346 0.03194 0.00525 0.0
C649 C 0.5263 0.97517 0.01969 0.0
Tb650 Tb 0.48684 0.99637 0.01325 0.0
O651 O 0.55456 0.03534 0.03801 0.0
O652 O 0.51947 0.031 0.02779 0.0
O653 O 0.54286 0.9943 0.00902 0.0
C654 C 0.44462 0.96847 0.0321 0.0
O655 O 0.5047 0.97383 0.02459 0.0
C656 C 0.49676 0.99566 0.97505 0.0
C657 C 0.50364 0.05255 0.99712 0.0
O658 O 0.46415 0.99159 0.03908 0.0
O659 O 0.44866 0.96107 0.01427 0.0
O660 O 0.4748 0.99131 0.98055 0.0
O661 O 0.51074 0.99736 0.99064 0.0
O662 O 0.48588 0.03239 0.00632 0.0
O663 O 0.52644 0.05541 0.99437 0.0
C664 C 0.5878 0.06191 0.98956 0.0
O665 O 0.58347 0.06444 0.00846 0.0
O666 O 0.56716 0.04252 0.97946 0.0
C667 C 0.53302 0.03218 0.04348 0.0
Tb668 Tb 0.98897 0.51965 0.99417 0.0
C669 C 0.0414 0.56054 0.01831 0.0
Tb670 Tb 0.02644 0.49976 0.00529 0.0
O671 O 0.98413 0.52534 0.02659 0.0
O672 O 0.99294 0.49625 0.01632 0.0
O673 O 0.02234 0.55793 0.00562 0.0
C674 C 0.05772 0.4856 0.0235 0.0
O675 O 0.04468 0.53991 0.0221 0.0
C676 C 0.02487 0.511 0.96725 0.0
C677 C 0.97416 0.45908 0.98091 0.0
O678 O 0.06425 0.50411 0.01091 0.0
O679 O 0.03357 0.47508 0.02589 0.0
O680 O 0.03127 0.49373 0.97301 0.0
O681 O 0.0223 0.5228 0.98293 0.0
O682 O 0.99271 0.46144 0.99411 0.0
O683 O 0.97135 0.47991 0.97681 0.0
C684 C 0.95811 0.53399 0.97536 0.0
O685 O 0.95093 0.51442 0.98706 0.0
O686 O 0.9826 0.54553 0.9744 0.0
C687 C 0.99045 0.50791 0.03207 0.0
Tb688 Tb 0.46921 0.49253 0.00998 0.0
C689 C 0.47963 0.45002 0.98724 0.0
Tb690 Tb 0.52354 0.51187 0.99625 0.0
O691 O 0.45351 0.48374 0.9776 0.0
O692 O 0.49099 0.51394 0.98651 0.0
O693 O 0.46478 0.45367 0.99964 0.0
C694 C 0.56289 0.52484 0.97406 0.0
O695 O 0.50171 0.47011 0.98242 0.0
C696 C 0.51887 0.50472 0.03514 0.0
C697 C 0.51354 0.55454 0.01909 0.0
O698 O 0.55676 0.50886 0.9886 0.0
O699 O 0.54707 0.53375 0.9722 0.0
O700 O 0.54039 0.52096 0.02796 0.0
O701 O 0.50225 0.49138 0.0203 0.0
O702 O 0.52812 0.55066 0.00653 0.0
O703 O 0.49109 0.53464 0.02373 0.0
C704 C 0.42912 0.47736 0.03194 0.0
O705 O 0.4344 0.49297 0.01715 0.0
O706 O 0.44634 0.4704 0.03424 0.0
C707 C 0.47515 0.50126 0.97125 0.0
Tb708 Tb 0.19769 0.35617 0.33373 0.0
C709 C 0.18101 0.30398 0.35623 0.0
Tb710 Tb 0.13991 0.31953 0.34053 0.0
O711 O 0.20853 0.36823 0.3666 0.0
O712 O 0.17184 0.35599 0.35411 0.0
O713 O 0.19765 0.32086 0.34428 0.0
C714 C 0.09564 0.2937 0.35735 0.0
O715 O 0.1588 0.3026 0.35885 0.0
C716 C 0.15194 0.3138 0.30335 0.0
C717 C 0.15631 0.37166 0.31785 0.0
O718 O 0.106 0.28213 0.34722 0.0
O719 O 0.11002 0.31968 0.35771 0.0
O720 O 0.12878 0.30658 0.30754 0.0
O721 O 0.16576 0.32005 0.32003 0.0
O722 O 0.13891 0.3537 0.32878 0.0
O723 O 0.17904 0.37388 0.31597 0.0
C724 C 0.24308 0.38253 0.31867 0.0
O725 O 0.23043 0.39351 0.32569 0.0
O726 O 0.23026 0.35676 0.32024 0.0
C727 C 0.18556 0.36179 0.37076 0.0
Tb728 Tb 0.65277 0.84098 0.33332 0.0
C729 C 0.70995 0.88447 0.34749 0.0
Tb730 Tb 0.69281 0.82277 0.34273 0.0
O731 O 0.65531 0.85457 0.36569 0.0
O732 O 0.66302 0.82404 0.35721 0.0
O733 O 0.68885 0.87921 0.33622 0.0
C734 C 0.72067 0.80449 0.36101 0.0
O735 O 0.71395 0.86531 0.35395 0.0
C736 C 0.69108 0.83845 0.30594 0.0
C737 C 0.63526 0.77846 0.32798 0.0
O738 O 0.7153 0.82184 0.36938 0.0
O739 O 0.71047 0.79745 0.34213 0.0
O740 O 0.71132 0.83923 0.31456 0.0
O741 O 0.67342 0.82691 0.31719 0.0
O742 O 0.65769 0.7835 0.33692 0.0
O743 O 0.62982 0.79768 0.32408 0.0
C744 C 0.62112 0.85371 0.31411 0.0
O745 O 0.61588 0.83938 0.32971 0.0
O746 O 0.64411 0.86095 0.30952 0.0
C747 C 0.66374 0.83918 0.37212 0.0
Tb748 Tb 0.1416 0.82196 0.3416 0.0
C749 C 0.15436 0.7778 0.32616 0.0
Tb750 Tb 0.19746 0.84025 0.33345 0.0
O751 O 0.12856 0.80927 0.30917 0.0
O752 O 0.16584 0.84042 0.3184 0.0
O753 O 0.13799 0.78243 0.33582 0.0
C754 C 0.23975 0.85102 0.31574 0.0
O755 O 0.17717 0.79744 0.32212 0.0
C756 C 0.18713 0.83571 0.37183 0.0
C757 C 0.18519 0.88447 0.34882 0.0
O758 O 0.23275 0.83865 0.33222 0.0
O759 O 0.22311 0.85755 0.30943 0.0
O760 O 0.20955 0.85268 0.36635 0.0
O761 O 0.17293 0.82119 0.35624 0.0
O762 O 0.20109 0.87955 0.3388 0.0
O763 O 0.16237 0.865 0.35312 0.0
C764 C 0.09906 0.81103 0.35883 0.0
O765 O 0.10677 0.82436 0.34287 0.0
O766 O 0.11523 0.80378 0.36499 0.0
C767 C 0.15089 0.82539 0.30319 0.0
Tb768 Tb 0.85676 0.68348 0.66254 0.0
C769 C 0.84928 0.63067 0.67957 0.0
Tb770 Tb 0.80317 0.64276 0.67563 0.0
O771 O 0.87338 0.69154 0.69435 0.0
O772 O 0.83516 0.68 0.68766 0.0
O773 O 0.86263 0.64985 0.66754 0.0
C774 C 0.76226 0.60962 0.69444 0.0
O775 O 0.82712 0.62622 0.68597 0.0
C776 C 0.80821 0.64182 0.63614 0.0
C777 C 0.81056 0.69507 0.65801 0.0
O778 O 0.76814 0.60394 0.67686 0.0
O779 O 0.77952 0.63401 0.70154 0.0
O780 O 0.78672 0.63514 0.64376 0.0
O781 O 0.82479 0.64629 0.65053 0.0
O782 O 0.79765 0.67671 0.67073 0.0
O783 O 0.83219 0.69865 0.65115 0.0
C784 C 0.89675 0.71768 0.64338 0.0
O785 O 0.88781 0.72421 0.65884 0.0
O786 O 0.88324 0.69174 0.63872 0.0
C787 C 0.85185 0.68459 0.70201 0.0
Tb788 Tb 0.31668 0.18151 0.6641 0.0
C789 C 0.37508 0.22356 0.67755 0.0
Tb790 Tb 0.35353 0.16004 0.67332 0.0
O791 O 0.31928 0.19543 0.69601 0.0
O792 O 0.32455 0.16273 0.68826 0.0
O793 O 0.35266 0.21986 0.6699 0.0
C794 C 0.38498 0.14672 0.69254 0.0
O795 O 0.37934 0.20335 0.68038 0.0
C796 C 0.34474 0.16408 0.63441 0.0
C797 C 0.29602 0.11831 0.66077 0.0
O798 O 0.37905 0.16408 0.69987 0.0
O799 O 0.37348 0.1371 0.67426 0.0
O800 O 0.35336 0.14878 0.64054 0.0
O801 O 0.34536 0.17864 0.64969 0.0
O802 O 0.31684 0.12298 0.67217 0.0
O803 O 0.29306 0.13818 0.65422 0.0
C804 C 0.28666 0.19683 0.64541 0.0
O805 O 0.2811 0.18271 0.66108 0.0
O806 O 0.30906 0.20243 0.64039 0.0
C807 C 0.32623 0.17904 0.70286 0.0
Tb808 Tb 0.80233 0.16166 0.66815 0.0
C809 C 0.81715 0.11612 0.65919 0.0
Tb810 Tb 0.85692 0.17789 0.65794 0.0
O811 O 0.7921 0.16789 0.63697 0.0
O812 O 0.82004 0.15783 0.64246 0.0
O813 O 0.8011 0.12283 0.66709 0.0
C814 C 0.89847 0.19619 0.63771 0.0
O815 O 0.83888 0.13412 0.65219 0.0
C816 C 0.84893 0.17298 0.69665 0.0
C817 C 0.84277 0.22361 0.66868 0.0
O818 O 0.89617 0.18688 0.65554 0.0
O819 O 0.87738 0.1952 0.63128 0.0
O820 O 0.86681 0.17031 0.68864 0.0
O821 O 0.83923 0.18132 0.68368 0.0
O822 O 0.8585 0.21716 0.65979 0.0
O823 O 0.82124 0.20514 0.6756 0.0
C824 C 0.7611 0.14277 0.68903 0.0
O825 O 0.76488 0.15688 0.67341 0.0
O826 O 0.78027 0.13903 0.69259 0.0
C827 C 0.81058 0.16607 0.62929 0.0
H828 H 0.36041 0.91088 0.0928 0.0
H829 H 0.31998 0.85867 0.03752 0.0
H830 H 0.35641 0.88557 0.01845 0.0
H831 H 0.39994 0.9239 0.01737 0.0
H832 H 0.43942 0.97746 0.0721 0.0
H833 H 0.40305 0.95036 0.09138 0.0
C834 C 0.35939 0.90555 0.07653 0.0
C835 C 0.33748 0.88258 0.06672 0.0
C836 C 0.38025 0.9214 0.06551 0.0
C837 C 0.33675 0.87586 0.04564 0.0
C838 C 0.35752 0.89136 0.03464 0.0
C839 C 0.40047 0.92962 0.0335 0.0
C840 C 0.42223 0.95253 0.04334 0.0
C841 C 0.3794 0.9141 0.04442 0.0
C842 C 0.42277 0.9599 0.06421 0.0
C843 C 0.40202 0.94439 0.07524 0.0
H844 H 0.14427 0.46363 0.05672 0.0
H845 H 0.07924 0.39455 0.07727 0.0
H846 H 0.05092 0.40978 0.06344 0.0
H847 H 0.0445 0.44232 0.04492 0.0
H848 H 0.10924 0.51004 0.02291 0.0
H849 H 0.13781 0.49557 0.0377 0.0
C850 C 0.12386 0.45169 0.05795 0.0
C851 C 0.11394 0.42797 0.06802 0.0
C852 C 0.10765 0.46033 0.04971 0.0
C853 C 0.08748 0.41307 0.06984 0.0
C854 C 0.07123 0.42168 0.06183 0.0
C855 C 0.06488 0.45391 0.04345 0.0
C856 C 0.07485 0.47717 0.03291 0.0
C857 C 0.0811 0.44526 0.05172 0.0
C858 C 0.10121 0.49202 0.03097 0.0
C859 C 0.11752 0.48376 0.0394 0.0
H860 H 0.57293 0.676 0.05701 0.0
H861 H 0.49687 0.65616 0.07015 0.0
H862 H 0.47979 0.60995 0.05457 0.0
H863 H 0.4866 0.57523 0.03708 0.0
H864 H 0.56275 0.5961 0.02299 0.0
H865 H 0.57962 0.64172 0.03912 0.0
C866 C 0.55264 0.66148 0.05655 0.0
C867 C 0.53619 0.66937 0.06475 0.0
C868 C 0.54296 0.63514 0.04737 0.0
C869 C 0.50988 0.65053 0.06381 0.0
C870 C 0.50013 0.62412 0.05497 0.0
C871 C 0.50688 0.58976 0.03756 0.0
C872 C 0.52334 0.58224 0.02878 0.0
C873 C 0.5165 0.6162 0.04667 0.0
C874 C 0.54957 0.60137 0.02945 0.0
C875 C 0.5593 0.62749 0.03874 0.0
H876 H 0.89324 0.35545 0.92416 0.0
H877 H 0.90745 0.31601 0.97294 0.0
H878 H 0.93868 0.35994 0.9909 0.0
H879 H 0.96167 0.40964 0.99278 0.0
H880 H 0.94617 0.44878 0.94433 0.0
H881 H 0.91588 0.40492 0.92611 0.0
C882 C 0.90335 0.35651 0.93864 0.0
C883 C 0.89819 0.33259 0.94719 0.0
C884 C 0.92101 0.38177 0.94893 0.0
C885 C 0.91104 0.3342 0.96614 0.0
C886 C 0.92893 0.35928 0.97636 0.0
C887 C 0.95172 0.40853 0.97819 0.0
C888 C 0.95611 0.4324 0.96994 0.0
C889 C 0.93404 0.38321 0.96791 0.0
C890 C 0.94295 0.43068 0.95111 0.0
C891 C 0.92568 0.40562 0.94064 0.0
H892 H 0.65367 0.56934 0.91764 0.0
H893 H 0.66462 0.50834 0.94423 0.0
H894 H 0.62743 0.49538 0.96331 0.0
H895 H 0.59279 0.50245 0.97353 0.0
H896 H 0.5805 0.56209 0.94625 0.0
H897 H 0.61702 0.57431 0.92615 0.0
C898 C 0.64767 0.55294 0.92736 0.0
C899 C 0.66213 0.5401 0.92971 0.0
C900 C 0.62613 0.54545 0.93824 0.0
C901 C 0.65417 0.51897 0.94248 0.0
C902 C 0.63284 0.51145 0.95334 0.0
C903 C 0.59812 0.51809 0.96315 0.0
C904 C 0.5843 0.5316 0.9615 0.0
C905 C 0.61892 0.52481 0.95158 0.0
C906 C 0.59109 0.55159 0.94785 0.0
C907 C 0.61192 0.55855 0.93636 0.0
H908 H 0.49542 0.14461 0.95551 0.0
H909 H 0.41528 0.08426 0.95021 0.0
H910 H 0.42505 0.05393 0.96837 0.0
H911 H 0.45652 0.04428 0.98506 0.0
H912 H 0.53685 0.10405 0.989 0.0
H913 H 0.52684 0.13505 0.9723 0.0
C914 C 0.48009 0.12491 0.95851 0.0
C915 C 0.45467 0.11669 0.95161 0.0
C916 C 0.48588 0.10754 0.96876 0.0
C917 C 0.43502 0.09093 0.95526 0.0
C918 C 0.44058 0.07366 0.96571 0.0
C919 C 0.4718 0.06423 0.98251 0.0
C920 C 0.49737 0.07195 0.98842 0.0
C921 C 0.46596 0.08172 0.97247 0.0
C922 C 0.51701 0.09765 0.98463 0.0
C923 C 0.51131 0.11538 0.97506 0.0
H924 H 0.69986 0.13882 0.96726 0.0
H925 H 0.66302 0.10633 0.90605 0.0
H926 H 0.62238 0.07816 0.91999 0.0
H927 H 0.59703 0.06315 0.94959 0.0
H928 H 0.63343 0.09764 0.01054 0.0
H929 H 0.67441 0.12501 0.99664 0.0
C930 C 0.68292 0.12586 0.95691 0.0
C931 C 0.68464 0.12472 0.93562 0.0
C932 C 0.65947 0.11011 0.96499 0.0
C933 C 0.66246 0.10734 0.92252 0.0
C934 C 0.63911 0.09134 0.93046 0.0
C935 C 0.61398 0.07667 0.95978 0.0
C936 C 0.61234 0.07841 0.98102 0.0
C937 C 0.63739 0.09257 0.95166 0.0
C938 C 0.6343 0.09604 0.99411 0.0
C939 C 0.65772 0.11165 0.98619 0.0
H940 H 0.90085 0.58175 0.92524 0.0
H941 H 0.83538 0.51336 0.946 0.0
H942 H 0.86339 0.50058 0.96401 0.0
H943 H 0.90652 0.50882 0.97397 0.0
H944 H 0.97191 0.57626 0.95239 0.0
H945 H 0.94391 0.58925 0.93439 0.0
C946 C 0.89269 0.56388 0.93351 0.0
C947 C 0.86606 0.54865 0.93436 0.0
C948 C 0.9089 0.55649 0.9437 0.0
C949 C 0.85584 0.52573 0.94538 0.0
C950 C 0.87183 0.5183 0.95559 0.0
C951 C 0.91458 0.52636 0.96533 0.0
C952 C 0.94115 0.54166 0.96455 0.0
C953 C 0.89838 0.53358 0.95493 0.0
C954 C 0.95145 0.56424 0.95323 0.0
C955 C 0.93547 0.57166 0.94294 0.0
H956 H 0.42757 0.32856 0.94963 0.0
H957 H 0.50632 0.35264 0.94292 0.0
H958 H 0.51999 0.39825 0.95802 0.0
H959 H 0.50953 0.43124 0.97297 0.0
H960 H 0.43099 0.40679 0.98131 0.0
H961 H 0.41721 0.36136 0.96574 0.0
C962 C 0.44769 0.34388 0.95146 0.0
C963 C 0.46594 0.33739 0.94515 0.0
C964 C 0.45542 0.36991 0.96044 0.0
C965 C 0.49199 0.35721 0.94779 0.0
C966 C 0.49978 0.38327 0.95635 0.0
C967 C 0.48938 0.41599 0.97135 0.0
C968 C 0.4713 0.42239 0.97822 0.0
C969 C 0.48167 0.38985 0.9627 0.0
C970 C 0.4453 0.40232 0.97623 0.0
C971 C 0.4374 0.37637 0.96727 0.0
H972 H 0.10694 0.68019 0.05978 0.0
H973 H 0.16028 0.65301 0.07356 0.0
H974 H 0.12986 0.60823 0.05656 0.0
H975 H 0.08831 0.57701 0.03761 0.0
H976 H 0.03542 0.60459 0.02278 0.0
H977 H 0.06542 0.64899 0.04041 0.0
C978 C 0.11177 0.66436 0.05915 0.0
C979 C 0.13573 0.66978 0.06791 0.0
C980 C 0.09433 0.63881 0.04915 0.0
C981 C 0.14198 0.64929 0.06678 0.0
C982 C 0.12459 0.6237 0.05713 0.0
C983 C 0.08329 0.5927 0.03827 0.0
C984 C 0.05964 0.58746 0.0289 0.0
C985 C 0.10074 0.61826 0.04822 0.0
C986 C 0.05355 0.6081 0.02977 0.0
C987 C 0.07067 0.63349 0.0399 0.0
H988 H 0.33505 0.41981 0.08437 0.0
H989 H 0.31377 0.47163 0.05427 0.0
H990 H 0.35302 0.49082 0.03721 0.0
H991 H 0.39277 0.49182 0.02969 0.0
H992 H 0.41494 0.44129 0.06054 0.0
H993 H 0.37633 0.4231 0.07868 0.0
C994 C 0.33915 0.43557 0.07432 0.0
C995 C 0.32119 0.44388 0.07041 0.0
C996 C 0.36196 0.44677 0.06463 0.0
C997 C 0.32688 0.46428 0.05721 0.0
C998 C 0.34943 0.47544 0.04751 0.0
C999 C 0.38916 0.47693 0.04047 0.0
C1000 C 0.4065 0.46773 0.04366 0.0
C1001 C 0.36695 0.46659 0.05087 0.0
C1002 C 0.40176 0.44859 0.05776 0.0
C1003 C 0.37968 0.43815 0.06812 0.0
H1004 H 0.56691 0.89727 0.04338 0.0
H1005 H 0.51941 0.88635 0.09272 0.0
H1006 H 0.5063 0.91655 0.07853 0.0
H1007 H 0.5089 0.94652 0.05242 0.0
H1008 H 0.55823 0.95951 0.00406 0.0
H1009 H 0.5699 0.92779 0.0174 0.0
C1010 C 0.55353 0.90137 0.05089 0.0
C1011 C 0.54404 0.88957 0.06899 0.0
C1012 C 0.5464 0.91904 0.04281 0.0
C1013 C 0.52704 0.89534 0.07881 0.0
C1014 C 0.51949 0.9125 0.07067 0.0
C1015 C 0.52203 0.94224 0.04469 0.0
C1016 C 0.53256 0.95519 0.0272 0.0
C1017 C 0.5291 0.92452 0.05271 0.0
C1018 C 0.54987 0.94978 0.01755 0.0
C1019 C 0.55655 0.93166 0.02517 0.0
H1020 H 0.99576 0.25179 0.40359 0.0
H1021 H 0.99029 0.17531 0.38645 0.0
H1022 H 0.03004 0.19821 0.37015 0.0
H1023 H 0.06605 0.23989 0.36006 0.0
H1024 H 0.07216 0.31649 0.37769 0.0
H1025 H 0.03269 0.29371 0.3946 0.0
C1026 C 0.00344 0.24018 0.39652 0.0
C1027 C 0.98991 0.21185 0.39612 0.0
C1028 C 0.0264 0.25349 0.38715 0.0
C1029 C 5e-05 0.1971 0.38669 0.0
C1030 C 0.02286 0.21018 0.37742 0.0
C1031 C 0.05869 0.25155 0.3676 0.0
C1032 C 0.07182 0.27975 0.36752 0.0
C1033 C 0.03607 0.23833 0.37737 0.0
C1034 C 0.06225 0.29469 0.37746 0.0
C1035 C 0.03972 0.28169 0.38716 0.0
H1036 H 0.78674 0.77407 0.4188 0.0
H1037 H 0.786 0.73099 0.36257 0.0
H1038 H 0.75935 0.74571 0.34455 0.0
H1039 H 0.73679 0.77156 0.34476 0.0
H1040 H 0.73832 0.81495 0.40113 0.0
H1041 H 0.7639 0.79915 0.41918 0.0
C1042 C 0.78046 0.7676 0.40266 0.0
C1043 C 0.78822 0.75138 0.39205 0.0
C1044 C 0.76534 0.77626 0.39243 0.0
C1045 C 0.78038 0.74361 0.37104 0.0
C1046 C 0.7651 0.75196 0.36075 0.0
C1047 C 0.74271 0.77746 0.36099 0.0
C1048 C 0.7358 0.79442 0.37162 0.0
C1049 C 0.75759 0.76843 0.37127 0.0
C1050 C 0.74355 0.80199 0.39263 0.0
C1051 C 0.75813 0.79294 0.40296 0.0
H1052 H 0.24078 0.00804 0.38079 0.0
H1053 H 0.16377 0.98694 0.39175 0.0
H1054 H 0.148 0.94041 0.37751 0.0
H1055 H 0.15649 0.90541 0.36296 0.0
H1056 H 0.23374 0.9274 0.3515 0.0
H1057 H 0.24898 0.97378 0.36496 0.0
C1058 C 0.22055 0.99321 0.38006 0.0
C1059 C 0.20348 0.0008 0.3874 0.0
C1060 C 0.21167 0.96664 0.37181 0.0
C1061 C 0.17725 0.98157 0.38608 0.0
C1062 C 0.16826 0.95496 0.37804 0.0
C1063 C 0.17664 0.92036 0.36336 0.0
C1064 C 0.19391 0.91283 0.35626 0.0
C1065 C 0.18534 0.9472 0.37101 0.0
C1066 C 0.21995 0.93256 0.35677 0.0
C1067 C 0.22874 0.95914 0.36453 0.0
H1068 H 0.5663 0.6537 0.30087 0.0
H1069 H 0.54014 0.68454 0.25257 0.0
H1070 H 0.56792 0.73065 0.26836 0.0
H1071 H 0.60024 0.76214 0.29534 0.0
H1072 H 0.62866 0.73198 0.34264 0.0
H1073 H 0.59919 0.68556 0.32795 0.0
C1074 C 0.56667 0.67057 0.29391 0.0
C1075 C 0.5513 0.66587 0.27561 0.0
C1076 C 0.58296 0.69704 0.30292 0.0
C1077 C 0.55204 0.6878 0.26656 0.0
C1078 C 0.56779 0.7141 0.27563 0.0
C1079 C 0.59974 0.74539 0.30261 0.0
C1080 C 0.61636 0.75039 0.32016 0.0
C1081 C 0.58337 0.71894 0.29376 0.0
C1082 C 0.61595 0.72856 0.32914 0.0
C1083 C 0.59916 0.70206 0.32073 0.0
H1084 H 0.3412 0.86523 0.28341 0.0
H1085 H 0.32565 0.9106 0.24037 0.0
H1086 H 0.28595 0.89933 0.25558 0.0
H1087 H 0.25675 0.87845 0.28231 0.0
H1088 H 0.274 0.83544 0.32636 0.0
H1089 H 0.31236 0.84455 0.30985 0.0
C1090 C 0.32936 0.87301 0.27747 0.0
C1091 C 0.33667 0.88903 0.26088 0.0
C1092 C 0.30698 0.86708 0.28661 0.0
C1093 C 0.32052 0.89809 0.25302 0.0
C1094 C 0.2979 0.89185 0.26182 0.0
C1095 C 0.26895 0.87111 0.28826 0.0
C1096 C 0.26272 0.85643 0.30557 0.0
C1097 C 0.29111 0.87665 0.27879 0.0
C1098 C 0.27853 0.84689 0.31311 0.0
C1099 C 0.30042 0.85206 0.30366 0.0
H1100 H 0.1487 0.46336 0.27452 0.0
H1101 H 0.06815 0.40719 0.27571 0.0
H1102 H 0.07783 0.37583 0.29236 0.0
H1103 H 0.10924 0.36477 0.30716 0.0
H1104 H 0.18983 0.42018 0.30466 0.0
H1105 H 0.18011 0.4514 0.28798 0.0
C1106 C 0.13332 0.44425 0.27846 0.0
C1107 C 0.10777 0.43761 0.27398 0.0
C1108 C 0.13903 0.42621 0.28783 0.0
C1109 C 0.08797 0.41264 0.2789 0.0
C1110 C 0.09349 0.39478 0.2885 0.0
C1111 C 0.12468 0.3837 0.30301 0.0
C1112 C 0.15023 0.3902 0.30731 0.0
C1113 C 0.11895 0.40141 0.29314 0.0
C1114 C 0.16999 0.41464 0.30153 0.0
C1115 C 0.16446 0.43256 0.29202 0.0
H1116 H 0.34211 0.4246 0.27162 0.0
H1117 H 0.34087 0.4989 0.28071 0.0
H1118 H 0.30236 0.4762 0.29865 0.0
H1119 H 0.26904 0.43525 0.31183 0.0
H1120 H 0.26994 0.36082 0.3026 0.0
H1121 H 0.30852 0.38347 0.2846 0.0
C1122 C 0.33323 0.43571 0.27736 0.0
C1123 C 0.34433 0.46337 0.27488 0.0
C1124 C 0.31113 0.42255 0.28771 0.0
C1125 C 0.33283 0.47764 0.28263 0.0
C1126 C 0.31078 0.46468 0.29283 0.0
C1127 C 0.27779 0.42407 0.30595 0.0
C1128 C 0.26685 0.39651 0.30857 0.0
C1129 C 0.29984 0.43718 0.29555 0.0
C1130 C 0.27818 0.38213 0.30081 0.0
C1131 C 0.30016 0.39504 0.29048 0.0
H1132 H 0.55926 0.888 0.25537 0.0
H1133 H 0.51558 0.87464 0.30776 0.0
H1134 H 0.54234 0.86036 0.32588 0.0
H1135 H 0.57905 0.85283 0.32727 0.0
H1136 H 0.62471 0.87015 0.27599 0.0
H1137 H 0.59654 0.88218 0.25716 0.0
C1138 C 0.55575 0.8824 0.27087 0.0
C1139 C 0.53535 0.88247 0.28011 0.0
C1140 C 0.57164 0.87495 0.28145 0.0
C1141 C 0.53084 0.87442 0.30006 0.0
C1142 C 0.54627 0.86643 0.31054 0.0
C1143 C 0.5827 0.85918 0.31195 0.0
C1144 C 0.60377 0.86058 0.30295 0.0
C1145 C 0.56678 0.8667 0.30141 0.0
C1146 C 0.60857 0.86901 0.2832 0.0
C1147 C 0.59249 0.87587 0.27244 0.0
H1148 H 0.14102 0.66689 0.29005 0.0
H1149 H 0.06172 0.64068 0.29628 0.0
H1150 H 0.07364 0.68572 0.31164 0.0
H1151 H 0.10656 0.73313 0.32191 0.0
H1152 H 0.18571 0.75931 0.31436 0.0
H1153 H 0.1739 0.71374 0.30109 0.0
C1154 C 0.1264 0.67095 0.29507 0.0
C1155 C 0.10056 0.65051 0.2921 0.0
C1156 C 0.13335 0.69695 0.30356 0.0
C1157 C 0.08175 0.65617 0.29832 0.0
C1158 C 0.08856 0.68189 0.30712 0.0
C1159 C 0.12125 0.72881 0.31754 0.0
C1160 C 0.14698 0.74967 0.31914 0.0
C1161 C 0.11429 0.70254 0.3096 0.0
C1162 C 0.16573 0.74373 0.31322 0.0
C1163 C 0.15902 0.71763 0.30563 0.0
H1164 H 0.80235 0.99707 0.38457 0.0
H1165 H 0.74444 0.01952 0.37784 0.0
H1166 H 0.71361 0.97413 0.36198 0.0
H1167 H 0.70278 0.92758 0.35121 0.0
H1168 H 0.76043 0.90489 0.35948 0.0
H1169 H 0.7918 0.95096 0.37328 0.0
C1170 C 0.78306 0.9921 0.37939 0.0
C1171 C 0.77568 0.0116 0.38231 0.0
C1172 C 0.76541 0.96594 0.37056 0.0
C1173 C 0.7505 0.00476 0.37588 0.0
C1174 C 0.73292 0.97887 0.36675 0.0
C1175 C 0.72229 0.93282 0.35578 0.0
C1176 C 0.72929 0.91287 0.35426 0.0
C1177 C 0.74011 0.95923 0.36416 0.0
C1178 C 0.75455 0.91986 0.36054 0.0
C1179 C 0.7725 0.94619 0.36845 0.0
H1180 H 0.99524 0.79321 0.38867 0.0
H1181 H 0.00794 0.74291 0.42857 0.0
H1182 H 0.0485 0.75569 0.41447 0.0
H1183 H 0.07967 0.77989 0.38993 0.0
H1184 H 0.06579 0.8282 0.34884 0.0
H1185 H 0.02612 0.81709 0.36407 0.0
C1186 C 0.00671 0.78479 0.39416 0.0
C1187 C 0.99844 0.76705 0.40964 0.0
C1188 C 0.02974 0.79176 0.3857 0.0
C1189 C 0.01393 0.75686 0.41686 0.0
C1190 C 0.03705 0.76399 0.4087 0.0
C1191 C 0.06793 0.78798 0.38436 0.0
C1192 C 0.07548 0.80474 0.3683 0.0
C1193 C 0.04505 0.78127 0.39302 0.0
C1194 C 0.06024 0.81517 0.36118 0.0
C1195 C 0.0376 0.80884 0.36987 0.0
H1196 H 0.1963 0.22629 0.41256 0.0
H1197 H 0.24727 0.23223 0.36715 0.0
H1198 H 0.23803 0.26325 0.34958 0.0
H1199 H 0.21466 0.2878 0.34658 0.0
H1200 H 0.16228 0.28054 0.39115 0.0
H1201 H 0.17292 0.25111 0.40961 0.0
C1202 C 0.20552 0.2346 0.39892 0.0
C1203 C 0.22243 0.227 0.39115 0.0
C1204 C 0.19977 0.25208 0.38869 0.0
C1205 C 0.23403 0.23764 0.37332 0.0
C1206 C 0.2288 0.2554 0.3633 0.0
C1207 C 0.20563 0.27985 0.36037 0.0
C1208 C 0.18762 0.28626 0.3674 0.0
C1209 C 0.21155 0.2626 0.37074 0.0
C1210 C 0.176 0.27567 0.38525 0.0
C1211 C 0.18214 0.25891 0.39587 0.0
H1212 H 0.6537 0.52537 0.7192 0.0
H1213 H 0.68411 0.57431 0.77717 0.0
H1214 H 0.72427 0.60343 0.76278 0.0
H1215 H 0.75079 0.61524 0.73341 0.0
H1216 H 0.72081 0.564 0.67654 0.0
H1217 H 0.68071 0.53518 0.69102 0.0
C1218 C 0.66918 0.54204 0.72893 0.0
C1219 C 0.66562 0.54746 0.74932 0.0
C1220 C 0.69241 0.55835 0.72071 0.0
C1221 C 0.68594 0.56975 0.76134 0.0
C1222 C 0.70906 0.58637 0.75316 0.0
C1223 C 0.73547 0.59769 0.72428 0.0
C1224 C 0.73867 0.59179 0.70392 0.0
C1225 C 0.71248 0.58094 0.73281 0.0
C1226 C 0.7188 0.56893 0.69225 0.0
C1227 C 0.69583 0.55248 0.7005 0.0
H1228 H 0.45454 0.12165 0.75131 0.0
H1229 H 0.44577 0.06925 0.69799 0.0
H1230 H 0.41904 0.08339 0.67948 0.0
H1231 H 0.39849 0.11095 0.67836 0.0
H1232 H 0.40734 0.16346 0.7316 0.0
H1233 H 0.43356 0.14883 0.75034 0.0
C1234 C 0.44651 0.1131 0.73572 0.0
C1235 C 0.45207 0.09442 0.72603 0.0
C1236 C 0.43129 0.12141 0.72516 0.0
C1237 C 0.44191 0.08384 0.70571 0.0
C1238 C 0.4266 0.09185 0.69514 0.0
C1239 C 0.40623 0.11919 0.69406 0.0
C1240 C 0.40115 0.13827 0.70362 0.0
C1241 C 0.42128 0.11073 0.70468 0.0
C1242 C 0.41115 0.1488 0.72394 0.0
C1243 C 0.42608 0.14042 0.73466 0.0
H1244 H 0.89937 0.34953 0.69261 0.0
H1245 H 0.83918 0.32372 0.73295 0.0
H1246 H 0.81987 0.27726 0.71754 0.0
H1247 H 0.82192 0.24374 0.69469 0.0
H1248 H 0.88339 0.26827 0.65557 0.0
H1249 H 0.90024 0.31556 0.66821 0.0
C1250 C 0.88184 0.3337 0.69775 0.0
C1251 C 0.87069 0.33984 0.71389 0.0
C1252 C 0.87118 0.3069 0.68913 0.0
C1253 C 0.84812 0.31928 0.72063 0.0
C1254 C 0.8371 0.29279 0.71183 0.0
C1255 C 0.83881 0.25938 0.68866 0.0
C1256 C 0.85141 0.25242 0.67425 0.0
C1257 C 0.84873 0.2863 0.69636 0.0
C1258 C 0.87336 0.27305 0.66674 0.0
C1259 C 0.88304 0.30009 0.67399 0.0
H1260 H 0.2284 0.99463 0.62974 0.0
H1261 H 0.17595 0.02053 0.60947 0.0
H1262 H 0.20567 0.06635 0.62516 0.0
H1263 H 0.24774 0.0996 0.64282 0.0
H1264 H 0.29972 0.07316 0.66365 0.0
H1265 H 0.26899 0.02707 0.64969 0.0
C1266 C 0.22348 0.01032 0.62887 0.0
C1267 C 0.20015 0.00433 0.61837 0.0
C1268 C 0.24059 0.03653 0.63798 0.0
C1269 C 0.19378 0.02468 0.61757 0.0
C1270 C 0.21081 0.05088 0.62644 0.0
C1271 C 0.25227 0.08373 0.64447 0.0
C1272 C 0.27612 0.08995 0.65417 0.0
C1273 C 0.23444 0.05714 0.63643 0.0
C1274 C 0.28154 0.06903 0.6563 0.0
C1275 C 0.264 0.04262 0.64823 0.0
H1276 H 0.98982 0.24719 0.58206 0.0
H1277 H 0.02279 0.2194 0.62788 0.0
H1278 H 0.98437 0.20235 0.64579 0.0
H1279 H 0.94134 0.19498 0.64852 0.0
H1280 H 0.90698 0.22039 0.60213 0.0
H1281 H 0.94581 0.23828 0.58416 0.0
C1282 C 0.98852 0.23722 0.59586 0.0
C1283 C 0.00938 0.23498 0.60372 0.0
C1284 C 0.96609 0.22693 0.60595 0.0
C1285 C 0.00736 0.2221 0.62173 0.0
C1286 C 0.98528 0.21208 0.63192 0.0
C1287 C 0.94239 0.20444 0.63447 0.0
C1288 C 0.92153 0.20653 0.62666 0.0
C1289 C 0.96458 0.21444 0.62421 0.0
C1290 C 0.92294 0.21865 0.60841 0.0
C1291 C 0.94511 0.22888 0.59816 0.0
H1292 H 0.7588 0.76365 0.63633 0.0
H1293 H 0.80115 0.77441 0.58346 0.0
H1294 H 0.8169 0.74572 0.59616 0.0
H1295 H 0.81989 0.71905 0.62275 0.0
H1296 H 0.77709 0.70724 0.67545 0.0
H1297 H 0.76036 0.73509 0.66241 0.0
C1298 C 0.77149 0.75969 0.62763 0.0
C1299 C 0.77887 0.77117 0.60903 0.0
C1300 C 0.78051 0.74321 0.63504 0.0
C1301 C 0.79501 0.76559 0.59773 0.0
C1302 C 0.80417 0.74936 0.60504 0.0
C1303 C 0.80699 0.72265 0.63146 0.0
C1304 C 0.79999 0.71143 0.65017 0.0
C1305 C 0.79726 0.73833 0.62377 0.0
C1306 C 0.78282 0.71577 0.66104 0.0
C1307 C 0.77329 0.7317 0.6536 0.0
H1308 H 0.99409 0.81391 0.61179 0.0
H1309 H 0.99294 0.7482 0.57552 0.0
H1310 H 0.95337 0.71606 0.5893 0.0
H1311 H 0.9202 0.7063 0.61323 0.0
H1312 H 0.92329 0.77217 0.65071 0.0
H1313 H 0.96117 0.80442 0.63517 0.0
C1314 C 0.9854 0.79255 0.607 0.0
C1315 C 0.99675 0.78361 0.59272 0.0
C1316 C 0.963 0.77411 0.61535 0.0
C1317 C 0.98463 0.75582 0.58633 0.0
C1318 C 0.96207 0.73735 0.59434 0.0
C1319 C 0.92918 0.72773 0.61791 0.0
C1320 C 0.91908 0.73686 0.63317 0.0
C1321 C 0.95124 0.74622 0.60907 0.0
C1322 C 0.93079 0.76465 0.63907 0.0
C1323 C 0.95245 0.78311 0.63019 0.0
H1324 H 0.2247 0.23046 0.58633 0.0
H1325 H 0.18524 0.2241 0.64049 0.0
H1326 H 0.21196 0.20997 0.65877 0.0
H1327 H 0.24714 0.20011 0.65962 0.0
H1328 H 0.28898 0.21066 0.60653 0.0
H1329 H 0.26107 0.22307 0.58771 0.0
C1330 C 0.22215 0.22647 0.60223 0.0
C1331 C 0.20283 0.2283 0.61191 0.0
C1332 C 0.23809 0.21917 0.61288 0.0
C1333 C 0.19957 0.22238 0.63244 0.0
C1334 C 0.21499 0.2145 0.643 0.0
C1335 C 0.25004 0.20513 0.64393 0.0
C1336 C 0.2699 0.20447 0.63438 0.0
C1337 C 0.23431 0.21283 0.63338 0.0
C1338 C 0.27378 0.21118 0.61414 0.0
C1339 C 0.25783 0.21821 0.60339 0.0
H1340 H 0.76153 0.9902 0.63868 0.0
H1341 H 0.83681 0.01002 0.62325 0.0
H1342 H 0.85348 0.05739 0.63559 0.0
H1343 H 0.84553 0.09366 0.6477 0.0
H1344 H 0.76991 0.07324 0.66314 0.0
H1345 H 0.75456 0.02564 0.65395 0.0
C1346 C 0.78164 0.0049 0.63826 0.0
C1347 C 0.79791 0.99684 0.62995 0.0
C1348 C 0.79097 0.03199 0.6452 0.0
C1349 C 0.82399 0.01585 0.62968 0.0
C1350 C 0.83346 0.04292 0.63658 0.0
C1351 C 0.82575 0.07879 0.64922 0.0
C1352 C 0.80885 0.08711 0.65581 0.0
C1353 C 0.81696 0.05133 0.64389 0.0
C1354 C 0.78336 0.0675 0.65799 0.0
C1355 C 0.77449 0.04022 0.65269 0.0
H1356 H 0.47285 0.331 0.71616 0.0
H1357 H 0.41984 0.3603 0.71137 0.0
H1358 H 0.38694 0.31683 0.694 0.0
H1359 H 0.37235 0.26953 0.68238 0.0
H1360 H 0.42533 0.24014 0.68799 0.0
H1361 H 0.45914 0.28469 0.70249 0.0
C1362 C 0.45426 0.32805 0.71096 0.0
C1363 C 0.44878 0.34882 0.71515 0.0
C1364 C 0.43535 0.30291 0.7012 0.0
C1365 C 0.42445 0.34452 0.70857 0.0
C1366 C 0.40564 0.31969 0.69859 0.0
C1367 C 0.39137 0.27293 0.68649 0.0
C1368 C 0.39617 0.2514 0.68416 0.0
C1369 C 0.41072 0.29857 0.69516 0.0
C1370 C 0.42097 0.25623 0.6897 0.0
C1371 C 0.44037 0.28174 0.69803 0.0
H1372 H 0.67339 0.09168 0.74821 0.0
H1373 H 0.64419 0.13247 0.71187 0.0
H1374 H 0.68131 0.14958 0.69222 0.0
H1375 H 0.72157 0.15206 0.68462 0.0
H1376 H 0.75159 0.11232 0.72121 0.0
H1377 H 0.71488 0.09591 0.74157 0.0
C1378 C 0.67533 0.10456 0.73615 0.0
C1379 C 0.65587 0.11047 0.73136 0.0
C1380 C 0.69683 0.11442 0.72487 0.0
C1381 C 0.65862 0.12713 0.71561 0.0
C1382 C 0.6799 0.13704 0.7044 0.0
C1383 C 0.72002 0.13979 0.69704 0.0
C1384 C 0.73902 0.13316 0.70131 0.0
C1385 C 0.69897 0.13056 0.70872 0.0
C1386 C 0.73701 0.11749 0.71756 0.0
C1387 C 0.71607 0.10815 0.72922 0.0
H1388 H 0.90741 0.56864 0.702 0.0
H1389 H 0.86467 0.55531 0.75485 0.0
H1390 H 0.84534 0.58051 0.74143 0.0
H1391 H 0.84005 0.60562 0.71446 0.0
H1392 H 0.88372 0.62032 0.66205 0.0
H1393 H 0.90294 0.5949 0.67535 0.0
C1394 C 0.89381 0.57121 0.71052 0.0
C1395 C 0.88746 0.56012 0.72937 0.0
C1396 C 0.88278 0.58572 0.70272 0.0
C1397 C 0.87008 0.56391 0.74041 0.0
C1398 C 0.85887 0.57812 0.73268 0.0
C1399 C 0.85362 0.60308 0.70586 0.0
C1400 C 0.86026 0.61457 0.6872 0.0
C1401 C 0.86496 0.58895 0.71379 0.0
C1402 C 0.87825 0.61157 0.67643 0.0
C1403 C 0.88926 0.59708 0.68404 0.0
H1404 H 0.47846 0.99536 0.12447 0.0
H1405 H 0.52093 0.95337 0.12523 0.0
H1406 H 0.53913 0.97212 0.09383 0.0
H1407 H 0.54361 0.00092 0.06637 0.0
H1408 H 0.49959 0.04094 0.06398 0.0
H1409 H 0.48139 0.02261 0.09582 0.0
C1410 C 0.49146 0.99008 0.11764 0.0
C1411 C 0.49859 0.9733 0.12742 0.0
C1412 C 0.50176 0.00078 0.0994 0.0
C1413 C 0.51556 0.96674 0.11834 0.0
C1414 C 0.52593 0.97737 0.10032 0.0
C1415 C 0.53014 0.00572 0.07293 0.0
C1416 C 0.52294 0.02227 0.06304 0.0
C1417 C 0.5194 0.99463 0.09086 0.0
C1418 C 0.50533 0.02821 0.07147 0.0
C1419 C 0.49492 0.01769 0.08959 0.0
H1420 H 0.01771 0.48065 0.11843 0.0
H1421 H 0.02985 0.56022 0.13556 0.0
H1422 H 0.01724 0.5634 0.10051 0.0
H1423 H 0.00315 0.54406 0.06484 0.0
H1424 H 0.99298 0.46576 0.04684 0.0
H1425 H 0.00493 0.46184 0.08223 0.0
C1426 C 0.01783 0.49879 0.11449 0.0
C1427 C 0.02441 0.51998 0.12982 0.0
C1428 C 0.01101 0.50079 0.09409 0.0
C1429 C 0.02424 0.54325 0.12432 0.0
C1430 C 0.01723 0.54523 0.10419 0.0
C1431 C 0.00344 0.52609 0.06872 0.0
C1432 C 0.99722 0.50522 0.05337 0.0
C1433 C 0.01051 0.52413 0.08898 0.0
C1434 C 0.99793 0.48217 0.05846 0.0
C1435 C 0.00466 0.4799 0.07868 0.0
H1436 H 0.50983 0.54072 0.12491 0.0
H1437 H 0.44779 0.4582 0.12115 0.0
H1438 H 0.45581 0.45081 0.08589 0.0
H1439 H 0.48175 0.4676 0.05643 0.0
H1440 H 0.54432 0.54983 0.06134 0.0
H1441 H 0.53544 0.5572 0.09614 0.0
C1442 C 0.49825 0.52095 0.11656 0.0
C1443 C 0.47842 0.49999 0.12583 0.0
C1444 C 0.50325 0.51672 0.09652 0.0
C1445 C 0.46311 0.47478 0.11441 0.0
C1446 C 0.4678 0.47047 0.09428 0.0
C1447 C 0.49317 0.48715 0.06511 0.0
C1448 C 0.51347 0.5082 0.05635 0.0
C1449 C 0.48794 0.49127 0.08521 0.0
C1450 C 0.52866 0.53328 0.06784 0.0
C1451 C 0.52352 0.53756 0.08769 0.0
H1452 H 0.98039 0.52306 0.88194 0.0
H1453 H 0.98595 0.45243 0.86526 0.0
H1454 H 0.00386 0.45471 0.89983 0.0
H1455 H 0.01674 0.47567 0.93505 0.0
H1456 H 0.01526 0.54848 0.95147 0.0
H1457 H 0.99712 0.54661 0.9167 0.0
C1458 C 0.98586 0.5084 0.88574 0.0
C1459 C 0.9813 0.4873 0.87099 0.0
C1460 C 0.99672 0.5101 0.90565 0.0
C1461 C 0.98846 0.46843 0.87636 0.0
C1462 C 0.99894 0.46982 0.89612 0.0
C1463 C 0.01263 0.49126 0.93098 0.0
C1464 C 0.01645 0.5117 0.94591 0.0
C1465 C 0.00289 0.49036 0.91092 0.0
C1466 C 0.01138 0.53193 0.9404 0.0
C1467 C 0.00133 0.53101 0.92047 0.0
H1468 H 0.52417 0.52151 0.88709 0.0
H1469 H 0.46874 0.43662 0.87448 0.0
H1470 H 0.45273 0.43634 0.90781 0.0
H1471 H 0.45515 0.45987 0.94113 0.0
H1472 H 0.51136 0.54424 0.95425 0.0
H1473 H 0.52648 0.54507 0.92031 0.0
C1474 C 0.5087 0.50291 0.89168 0.0
C1475 C 0.49762 0.47919 0.87818 0.0
C1476 C 0.49967 0.50281 0.91099 0.0
C1477 C 0.47738 0.45533 0.88436 0.0
C1478 C 0.46826 0.45508 0.90349 0.0
C1479 C 0.47044 0.47847 0.93638 0.0
C1480 C 0.4822 0.50196 0.95005 0.0
C1481 C 0.47923 0.47869 0.91694 0.0
C1482 C 0.50219 0.52589 0.94392 0.0
C1483 C 0.51083 0.52637 0.92455 0.0
H1484 H 0.54359 0.01983 0.88976 0.0
H1485 H 0.48783 0.04513 0.88104 0.0
H1486 H 0.4749 0.03394 0.91524 0.0
H1487 H 0.47837 0.01587 0.94731 0.0
H1488 H 0.5347 0.99185 0.95725 0.0
H1489 H 0.54871 0.0039 0.92305 0.0
C1490 C 0.52882 0.02316 0.89544 0.0
C1491 C 0.5164 0.03285 0.88265 0.0
C1492 C 0.5215 0.01681 0.91532 0.0
C1493 C 0.49728 0.03704 0.89031 0.0
C1494 C 0.48992 0.03078 0.90993 0.0
C1495 C 0.49363 0.01317 0.94192 0.0
C1496 C 0.50542 0.00286 0.95459 0.0
C1497 C 0.50162 0.02031 0.92244 0.0
C1498 C 0.52542 0.99981 0.94766 0.0
C1499 C 0.53338 0.00666 0.92814 0.0
H1500 H 0.12635 0.31673 0.44837 0.0
H1501 H 0.19508 0.31452 0.4655 0.0
H1502 H 0.21255 0.33338 0.43403 0.0
H1503 H 0.20833 0.34992 0.40146 0.0
H1504 H 0.14146 0.35534 0.38483 0.0
H1505 H 0.12332 0.33616 0.41646 0.0
C1506 C 0.14527 0.32068 0.44537 0.0
C1507 C 0.15915 0.3138 0.45925 0.0
C1508 C 0.15555 0.33213 0.42735 0.0
C1509 C 0.1836 0.31889 0.45492 0.0
C1510 C 0.19378 0.32997 0.437 0.0
C1511 C 0.18992 0.34722 0.40489 0.0
C1512 C 0.17587 0.35336 0.39072 0.0
C1513 C 0.17991 0.33657 0.4231 0.0
C1514 C 0.1521 0.34981 0.39528 0.0
C1515 C 0.1419 0.33911 0.41341 0.0
H1516 H 0.70173 0.8242 0.45897 0.0
H1517 H 0.69126 0.8916 0.4759 0.0
H1518 H 0.67698 0.89138 0.4405 0.0
H1519 H 0.66839 0.87287 0.40453 0.0
H1520 H 0.67455 0.80278 0.38805 0.0
H1521 H 0.68944 0.80311 0.4235 0.0
C1522 C 0.69593 0.83857 0.45505 0.0
C1523 C 0.698 0.85814 0.47015 0.0
C1524 C 0.68715 0.838 0.43468 0.0
C1525 C 0.69057 0.87674 0.46459 0.0
C1526 C 0.68219 0.87654 0.44434 0.0
C1527 C 0.67292 0.85763 0.40875 0.0
C1528 C 0.67123 0.83837 0.39366 0.0
C1529 C 0.68066 0.85746 0.42923 0.0
C1530 C 0.67666 0.81842 0.39932 0.0
C1531 C 0.6849 0.81843 0.41961 0.0
H1532 H 0.13451 0.82014 0.4543 0.0
H1533 H 0.19053 0.90509 0.46536 0.0
H1534 H 0.20718 0.90359 0.43267 0.0
H1535 H 0.2057 0.87841 0.40056 0.0
H1536 H 0.14846 0.79423 0.38853 0.0
H1537 H 0.13218 0.79525 0.42172 0.0
C1538 C 0.15018 0.8384 0.4495 0.0
C1539 C 0.16136 0.8626 0.46251 0.0
C1540 C 0.15948 0.83756 0.43044 0.0
C1541 C 0.18186 0.88599 0.45599 0.0
C1542 C 0.19134 0.88524 0.43718 0.0
C1543 C 0.18982 0.86028 0.40535 0.0
C1544 C 0.17828 0.83627 0.39224 0.0
C1545 C 0.18039 0.86113 0.42432 0.0
C1546 C 0.15751 0.81297 0.3984 0.0
C1547 C 0.14824 0.81355 0.41736 0.0
H1548 H 0.68258 0.84575 0.21016 0.0
H1549 H 0.60482 0.82019 0.22215 0.0
H1550 H 0.61555 0.82081 0.25861 0.0
H1551 H 0.64605 0.82594 0.28644 0.0
H1552 H 0.7249 0.85507 0.27627 0.0
H1553 H 0.71477 0.8553 0.23951 0.0
C1554 C 0.66817 0.84056 0.22088 0.0
C1555 C 0.64296 0.83289 0.21362 0.0
C1556 C 0.67462 0.84145 0.24196 0.0
C1557 C 0.62435 0.82629 0.2275 0.0
C1558 C 0.63044 0.82654 0.24829 0.0
C1559 C 0.66128 0.83326 0.27638 0.0
C1560 C 0.68628 0.84101 0.28412 0.0
C1561 C 0.65541 0.83388 0.25562 0.0
C1562 C 0.70554 0.84924 0.27066 0.0
C1563 C 0.69972 0.84932 0.24968 0.0
H1564 H 0.16772 0.79275 0.21498 0.0
H1565 H 0.23011 0.87526 0.22206 0.0
H1566 H 0.21928 0.88108 0.25664 0.0
H1567 H 0.19065 0.86308 0.28437 0.0
H1568 H 0.12765 0.78104 0.2761 0.0
H1569 H 0.13956 0.77501 0.24213 0.0
C1570 C 0.17876 0.8122 0.22388 0.0
C1571 C 0.1995 0.83361 0.21574 0.0
C1572 C 0.17214 0.81556 0.2435 0.0
C1573 C 0.2141 0.85835 0.22791 0.0
C1574 C 0.20781 0.86176 0.24765 0.0
C1575 C 0.17978 0.84386 0.27515 0.0
C1576 C 0.15844 0.82248 0.28268 0.0
C1577 C 0.18672 0.84056 0.25554 0.0
C1578 C 0.14409 0.79782 0.27053 0.0
C1579 C 0.15094 0.79431 0.25116 0.0
H1580 H 0.2043 0.35713 0.22273 0.0
H1581 H 0.12977 0.29572 0.19512 0.0
H1582 H 0.11616 0.28199 0.22891 0.0
H1583 H 0.12459 0.28951 0.26667 0.0
H1584 H 0.19896 0.3506 0.29363 0.0
H1585 H 0.21377 0.362 0.25997 0.0
C1586 C 0.18528 0.34032 0.22401 0.0
C1587 C 0.16804 0.32772 0.20638 0.0
C1588 C 0.17755 0.33247 0.24348 0.0
C1589 C 0.14332 0.30616 0.20846 0.0
C1590 C 0.13551 0.29822 0.22778 0.0
C1591 C 0.14411 0.30508 0.26509 0.0
C1592 C 0.16097 0.31898 0.2827 0.0
C1593 C 0.15229 0.31162 0.24546 0.0
C1594 C 0.18608 0.33911 0.28043 0.0
C1595 C 0.19438 0.34585 0.26109 0.0
H1596 H 0.83835 0.63317 0.78566 0.0
H1597 H 0.77492 0.64766 0.78501 0.0
H1598 H 0.78553 0.66676 0.75219 0.0
H1599 H 0.81344 0.68015 0.72386 0.0
H1600 H 0.87768 0.66718 0.72564 0.0
H1601 H 0.86672 0.64763 0.75826 0.0
C1602 C 0.82703 0.64089 0.77859 0.0
C1603 C 0.80594 0.63907 0.78797 0.0
C1604 C 0.83357 0.6524 0.75999 0.0
C1605 C 0.79111 0.64849 0.77812 0.0
C1606 C 0.79729 0.65966 0.75942 0.0
C1607 C 0.82495 0.67299 0.73147 0.0
C1608 C 0.84617 0.67487 0.72241 0.0
C1609 C 0.81853 0.66179 0.75025 0.0
C1610 C 0.86131 0.66605 0.73244 0.0
C1611 C 0.85496 0.65472 0.75101 0.0
H1612 H 0.36545 0.20675 0.79629 0.0
H1613 H 0.37978 0.14102 0.78458 0.0
H1614 H 0.36044 0.13307 0.74928 0.0
H1615 H 0.34066 0.14616 0.72128 0.0
H1616 H 0.33092 0.21499 0.73327 0.0
H1617 H 0.34712 0.22023 0.76888 0.0
C1618 C 0.36472 0.19088 0.786 0.0
C1619 C 0.37438 0.17476 0.79309 0.0
C1620 C 0.35431 0.18694 0.76571 0.0
C1621 C 0.37238 0.15369 0.77963 0.0
C1622 C 0.36146 0.14923 0.75938 0.0
C1623 C 0.34247 0.16249 0.73166 0.0
C1624 C 0.33507 0.18047 0.72454 0.0
C1625 C 0.3526 0.16595 0.75217 0.0
C1626 C 0.33666 0.20099 0.7383 0.0
C1627 C 0.34597 0.20407 0.7587 0.0
H1628 H 0.84595 0.17179 0.79255 0.0
H1629 H 0.78576 0.18943 0.77867 0.0
H1630 H 0.79129 0.18705 0.74215 0.0
H1631 H 0.81492 0.18267 0.71457 0.0
H1632 H 0.87347 0.16245 0.72772 0.0
H1633 H 0.86737 0.16372 0.76429 0.0
C1634 C 0.83405 0.17503 0.78147 0.0
C1635 C 0.81559 0.18091 0.78822 0.0
C1636 C 0.83723 0.17346 0.7605 0.0
C1637 C 0.8 0.18473 0.77378 0.0
C1638 C 0.80326 0.18355 0.75294 0.0
C1639 C 0.826 0.17802 0.72537 0.0
C1640 C 0.84449 0.17231 0.71851 0.0
C1641 C 0.82201 0.17825 0.74618 0.0
C1642 C 0.85908 0.16686 0.7327 0.0
C1643 C 0.8556 0.16758 0.75358 0.0
H1644 H 0.2863 0.15969 0.55059 0.0
H1645 H 0.35158 0.16044 0.52684 0.0
H1646 H 0.36953 0.16273 0.56172 0.0
H1647 H 0.36613 0.16369 0.59921 0.0
H1648 H 0.29947 0.16029 0.62203 0.0
H1649 H 0.28281 0.16037 0.58758 0.0
C1650 C 0.30464 0.16078 0.55307 0.0
C1651 C 0.31765 0.16005 0.53618 0.0
C1652 C 0.31466 0.16175 0.57309 0.0
C1653 C 0.34115 0.16087 0.53962 0.0
C1654 C 0.35142 0.16219 0.55954 0.0
C1655 C 0.34803 0.16309 0.59654 0.0
C1656 C 0.33457 0.16326 0.61327 0.0
C1657 C 0.33824 0.16242 0.57642 0.0
C1658 C 0.31093 0.16188 0.60964 0.0
C1659 C 0.30114 0.1614 0.58982 0.0
H1660 H 0.81897 0.12889 0.53977 0.0
H1661 H 0.86344 0.21499 0.53673 0.0
H1662 H 0.85481 0.22267 0.57174 0.0
H1663 H 0.83515 0.20466 0.60367 0.0
H1664 H 0.79171 0.11861 0.60647 0.0
H1665 H 0.79881 0.11106 0.57094 0.0
C1666 C 0.82648 0.14936 0.54662 0.0
C1667 C 0.84173 0.17132 0.53555 0.0
C1668 C 0.8214 0.15359 0.56668 0.0
C1669 C 0.85182 0.19771 0.54493 0.0
C1670 C 0.84675 0.20211 0.56491 0.0
C1671 C 0.8269 0.18434 0.59625 0.0
C1672 C 0.81249 0.16216 0.6073 0.0
C1673 C 0.83159 0.18021 0.57596 0.0
C1674 C 0.80245 0.13587 0.59796 0.0
C1675 C 0.80666 0.13159 0.57775 0.0
H1676 H 0.81929 0.68596 0.54958 0.0
H1677 H 0.88518 0.67555 0.55322 0.0
H1678 H 0.87579 0.65988 0.58719 0.0
H1679 H 0.84787 0.64753 0.61546 0.0
H1680 H 0.78108 0.65605 0.6108 0.0
H1681 H 0.79125 0.67305 0.57726 0.0
C1682 C 0.83143 0.67988 0.55758 0.0
C1683 C 0.85285 0.68186 0.54868 0.0
C1684 C 0.82555 0.6702 0.57686 0.0
C1685 C 0.86872 0.67459 0.5597 0.0
C1686 C 0.86324 0.66536 0.57908 0.0
C1687 C 0.83567 0.65323 0.60706 0.0
C1688 C 0.81386 0.65068 0.6155 0.0
C1689 C 0.8416 0.6629 0.58774 0.0
C1690 C 0.79788 0.65766 0.60446 0.0
C1691 C 0.80376 0.66753 0.58536 0.0
loop_
_geom_bond_atom_site_label_1
_geom_bond_atom_site_label_2
_geom_bond_distance
_geom_bond_site_symmetry_2
_ccdc_geom_bond_type
C0 C1 1.384 . S
C0 H13 0.947 . S
C0 C35 1.382 . S
C1 C0 1.384 . S
C1 C2 1.378 . S
C2 C1 1.378 . S
C2 C3 1.378 . S
C2 H14 0.952 . S
C3 C2 1.378 . S
C3 H15 0.950 . S
C3 C34 1.383 . S
H4 C23 0.947 . S
H5 C24 0.946 . S
H6 C26 0.953 . S
H7 C27 0.945 . S
H8 C29 0.952 . S
H9 C30 0.949 . S
H10 C32 0.950 . S
H11 C33 0.948 . S
H12 C35 0.951 . S
H13 C0 0.947 . S
H14 C2 0.952 . S
H15 C3 0.950 . S
N16 C19 1.382 . S
N16 C21 1.363 . S
N17 C19 1.371 . S
N17 C20 1.372 . S
N18 C20 1.361 . S
N18 C21 1.377 . S
C19 N16 1.382 . S
C19 N17 1.371 . S
C19 C22 1.480 . S
C20 N17 1.372 . S
C20 N18 1.361 . S
C20 C28 1.457 . S
C21 N16 1.363 . S
C21 N18 1.377 . S
C21 C34 1.479 . S
C22 C19 1.480 . S
C22 C23 1.383 . S
C22 C27 1.385 . S
C23 H4 0.947 . S
C23 C22 1.383 . S
C23 C24 1.388 . S
C24 H5 0.946 . S
C24 C23 1.388 . S
C24 C25 1.384 . S
C25 C24 1.384 . S
C25 C26 1.377 . S
C26 H6 0.953 . S
C26 C25 1.377 . S
C26 C27 1.369 . S
C27 H7 0.945 . S
C27 C22 1.385 . S
C27 C26 1.369 . S
C28 C20 1.457 . S
C28 C29 1.372 . S
C28 C33 1.364 . S
C29 H8 0.952 . S
C29 C28 1.372 . S
C29 C30 1.389 . S
C30 H9 0.949 . S
C30 C29 1.389 . S
C30 C31 1.387 . S
C31 C30 1.387 . S
C31 C32 1.372 . S
C32 H10 0.950 . S
C32 C31 1.372 . S
C32 C33 1.379 . S
C33 H11 0.948 . S
C33 C28 1.364 . S
C33 C32 1.379 . S
C34 C3 1.383 . S
C34 C21 1.479 . S
C34 C35 1.398 . S
C35 C0 1.382 . S
C35 H12 0.951 . S
C35 C34 1.398 . S
C36 C37 1.384 . S
C36 H49 0.947 . S
C36 C71 1.382 . S
C37 C36 1.384 . S
C37 C38 1.378 . S
C38 C37 1.378 . S
C38 C39 1.378 . S
C38 H50 0.952 . S
C39 C38 1.378 . S
C39 H51 0.950 . S
C39 C70 1.383 . S
H40 C59 0.947 . S
H41 C60 0.946 . S
H42 C62 0.953 . S
H43 C63 0.945 . S
H44 C65 0.952 . S
H45 C66 0.949 . S
H46 C68 0.950 . S
H47 C69 0.948 . S
H48 C71 0.951 . S
H49 C36 0.947 . S
H50 C38 0.952 . S
H51 C39 0.950 . S
N52 C55 1.382 . S
N52 C57 1.363 . S
N53 C55 1.371 . S
N53 C56 1.372 . S
N54 C56 1.361 . S
N54 C57 1.377 . S
C55 N52 1.382 . S
C55 N53 1.371 . S
C55 C58 1.480 . S
C56 N53 1.372 . S
C56 N54 1.361 . S
C56 C64 1.457 . S
C57 N52 1.363 . S
C57 N54 1.377 . S
C57 C70 1.479 . S
C58 C55 1.480 . S
C58 C59 1.383 . S
C58 C63 1.385 . S
C59 H40 0.947 . S
C59 C58 1.383 . S
C59 C60 1.388 . S
C60 H41 0.946 . S
C60 C59 1.388 . S
C60 C61 1.384 . S
C61 C60 1.384 . S
C61 C62 1.377 . S
C62 H42 0.953 . S
C62 C61 1.377 . S
C62 C63 1.369 . S
C63 H43 0.945 . S
C63 C58 1.385 . S
C63 C62 1.369 . S
C64 C56 1.457 . S
C64 C65 1.372 . S
C64 C69 1.364 . S
C65 H44 0.952 . S
C65 C64 1.372 . S
C65 C66 1.389 . S
C66 H45 0.949 . S
C66 C65 1.389 . S
C66 C67 1.387 . S
C67 C66 1.387 . S
C67 C68 1.372 . S
C68 H46 0.950 . S
C68 C67 1.372 . S
C68 C69 1.379 . S
C69 H47 0.948 . S
C69 C64 1.364 . S
C69 C68 1.379 . S
C70 C39 1.383 . S
C70 C57 1.479 . S
C70 C71 1.398 . S
C71 C36 1.382 . S
C71 H48 0.951 . S
C71 C70 1.398 . S
C72 C73 1.384 . S
C72 H85 0.947 . S
C72 C107 1.382 . S
C73 C72 1.384 . S
C73 C74 1.378 . S
C74 C73 1.378 . S
C74 C75 1.378 . S
C74 H86 0.952 . S
C75 C74 1.378 . S
C75 H87 0.950 . S
C75 C106 1.383 . S
H76 C95 0.947 . S
H77 C96 0.946 . S
H78 C98 0.953 . S
H79 C99 0.945 . S
H80 C101 0.952 . S
H81 C102 0.949 . S
H82 C104 0.950 . S
H83 C105 0.948 . S
H84 C107 0.951 . S
H85 C72 0.947 . S
H86 C74 0.952 . S
H87 C75 0.950 . S
N88 C91 1.382 . S
N88 C93 1.363 . S
N89 C91 1.371 . S
N89 C92 1.372 . S
N90 C92 1.361 . S
N90 C93 1.377 . S
C91 N88 1.382 . S
C91 N89 1.371 . S
C91 C94 1.480 . S
C92 N89 1.372 . S
C92 N90 1.361 . S
C92 C100 1.457 . S
C93 N88 1.363 . S
C93 N90 1.377 . S
C93 C106 1.479 . S
C94 C91 1.480 . S
C94 C95 1.383 . S
C94 C99 1.385 . S
C95 H76 0.947 . S
C95 C94 1.383 . S
C95 C96 1.388 . S
C96 H77 0.946 . S
C96 C95 1.388 . S
C96 C97 1.384 . S
C97 C96 1.384 . S
C97 C98 1.377 . S
C98 H78 0.953 . S
C98 C97 1.377 . S
C98 C99 1.369 . S
C99 H79 0.945 . S
C99 C94 1.385 . S
C99 C98 1.369 . S
C100 C92 1.457 . S
C100 C101 1.372 . S
C100 C105 1.364 . S
C101 H80 0.952 . S
C101 C100 1.372 . S
C101 C102 1.389 . S
C102 H81 0.949 . S
C102 C101 1.389 . S
C102 C103 1.387 . S
C103 C102 1.387 . S
C103 C104 1.372 . S
C104 H82 0.950 . S
C104 C103 1.372 . S
C104 C105 1.379 . S
C105 H83 0.948 . S
C105 C100 1.364 . S
C105 C104 1.379 . S
C106 C75 1.383 . S
C106 C93 1.479 . S
C106 C107 1.398 . S
C107 C72 1.382 . S
C107 H84 0.951 . S
C107 C106 1.398 . S
C108 C109 1.384 . S
C108 H121 0.947 . S
C108 C143 1.382 . S
C109 C108 1.384 . S
C109 C110 1.378 . S
C110 C109 1.378 . S
C110 C111 1.378 . S
C110 H122 0.952 . S
C111 C110 1.378 . S
C111 H123 0.950 . S
C111 C142 1.383 . S
H112 C131 0.947 . S
H113 C132 0.946 . S
H114 C134 0.953 . S
H115 C135 0.945 . S
H116 C137 0.952 . S
H117 C138 0.949 . S
H118 C140 0.950 . S
H119 C141 0.948 . S
H120 C143 0.951 . S
H121 C108 0.947 . S
H122 C110 0.952 . S
H123 C111 0.950 . S
N124 C127 1.382 . S
N124 C129 1.363 . S
N125 C127 1.371 . S
N125 C128 1.372 . S
N126 C128 1.361 . S
N126 C129 1.377 . S
C127 N124 1.382 . S
C127 N125 1.371 . S
C127 C130 1.480 . S
C128 N125 1.372 . S
C128 N126 1.361 . S
C128 C136 1.457 . S
C129 N124 1.363 . S
C129 N126 1.377 . S
C129 C142 1.479 . S
C130 C127 1.480 . S
C130 C131 1.383 . S
C130 C135 1.385 . S
C131 H112 0.947 . S
C131 C130 1.383 . S
C131 C132 1.388 . S
C132 H113 0.946 . S
C132 C131 1.388 . S
C132 C133 1.384 . S
C133 C132 1.384 . S
C133 C134 1.377 . S
C134 H114 0.953 . S
C134 C133 1.377 . S
C134 C135 1.369 . S
C135 H115 0.945 . S
C135 C130 1.385 . S
C135 C134 1.369 . S
C136 C128 1.457 . S
C136 C137 1.372 . S
C136 C141 1.364 . S
C137 H116 0.952 . S
C137 C136 1.372 . S
C137 C138 1.389 . S
C138 H117 0.949 . S
C138 C137 1.389 . S
C138 C139 1.387 . S
C139 C138 1.387 . S
C139 C140 1.372 . S
C140 H118 0.950 . S
C140 C139 1.372 . S
C140 C141 1.379 . S
C141 H119 0.948 . S
C141 C136 1.364 . S
C141 C140 1.379 . S
C142 C111 1.383 . S
C142 C129 1.479 . S
C142 C143 1.398 . S
C143 C108 1.382 . S
C143 H120 0.951 . S
C143 C142 1.398 . S
C144 C145 1.384 . S
C144 H157 0.947 . S
C144 C179 1.382 . S
C145 C144 1.384 . S
C145 C146 1.378 . S
C146 C145 1.378 . S
C146 C147 1.378 . S
C146 H158 0.952 . S
C147 C146 1.378 . S
C147 H159 0.950 . S
C147 C178 1.383 . S
H148 C167 0.947 . S
H149 C168 0.946 . S
H150 C170 0.953 . S
H151 C171 0.945 . S
H152 C173 0.952 . S
H153 C174 0.949 . S
H154 C176 0.950 . S
H155 C177 0.948 . S
H156 C179 0.951 . S
H157 C144 0.947 . S
H158 C146 0.952 . S
H159 C147 0.950 . S
N160 C163 1.382 . S
N160 C165 1.363 . S
N161 C163 1.371 . S
N161 C164 1.372 . S
N162 C164 1.361 . S
N162 C165 1.377 . S
C163 N160 1.382 . S
C163 N161 1.371 . S
C163 C166 1.480 . S
C164 N161 1.372 . S
C164 N162 1.361 . S
C164 C172 1.457 . S
C165 N160 1.363 . S
C165 N162 1.377 . S
C165 C178 1.479 . S
C166 C163 1.480 . S
C166 C167 1.383 . S
C166 C171 1.385 . S
C167 H148 0.947 . S
C167 C166 1.383 . S
C167 C168 1.388 . S
C168 H149 0.946 . S
C168 C167 1.388 . S
C168 C169 1.384 . S
C169 C168 1.384 . S
C169 C170 1.377 . S
C170 H150 0.953 . S
C170 C169 1.377 . S
C170 C171 1.369 . S
C171 H151 0.945 . S
C171 C166 1.385 . S
C171 C170 1.369 . S
C172 C164 1.457 . S
C172 C173 1.372 . S
C172 C177 1.364 . S
C173 H152 0.952 . S
C173 C172 1.372 . S
C173 C174 1.389 . S
C174 H153 0.949 . S
C174 C173 1.389 . S
C174 C175 1.387 . S
C175 C174 1.387 . S
C175 C176 1.372 . S
C176 H154 0.950 . S
C176 C175 1.372 . S
C176 C177 1.379 . S
C177 H155 0.948 . S
C177 C172 1.364 . S
C177 C176 1.379 . S
C178 C147 1.383 . S
C178 C165 1.479 . S
C178 C179 1.398 . S
C179 C144 1.382 . S
C179 H156 0.951 . S
C179 C178 1.398 . S
C180 C181 1.384 . S
C180 H193 0.947 . S
C180 C215 1.382 . S
C181 C180 1.384 . S
C181 C182 1.378 . S
C182 C181 1.378 . S
C182 C183 1.378 . S
C182 H194 0.952 . S
C183 C182 1.378 . S
C183 H195 0.950 . S
C183 C214 1.383 . S
H184 C203 0.947 . S
H185 C204 0.946 . S
H186 C206 0.953 . S
H187 C207 0.945 . S
H188 C209 0.952 . S
H189 C210 0.949 . S
H190 C212 0.950 . S
H191 C213 0.948 . S
H192 C215 0.951 . S
H193 C180 0.947 . S
H194 C182 0.952 . S
H195 C183 0.950 . S
N196 C199 1.382 . S
N196 C201 1.363 . S
N197 C199 1.371 . S
N197 C200 1.372 . S
N198 C200 1.361 . S
N198 C201 1.377 . S
C199 N196 1.382 . S
C199 N197 1.371 . S
C199 C202 1.480 . S
C200 N197 1.372 . S
C200 N198 1.361 . S
C200 C208 1.457 . S
C201 N196 1.363 . S
C201 N198 1.377 . S
C201 C214 1.479 . S
C202 C199 1.480 . S
C202 C203 1.383 . S
C202 C207 1.385 . S
C203 H184 0.947 . S
C203 C202 1.383 . S
C203 C204 1.388 . S
C204 H185 0.946 . S
C204 C203 1.388 . S
C204 C205 1.384 . S
C205 C204 1.384 . S
C205 C206 1.377 . S
C206 H186 0.953 . S
C206 C205 1.377 . S
C206 C207 1.369 . S
C207 H187 0.945 . S
C207 C202 1.385 . S
C207 C206 1.369 . S
C208 C200 1.457 . S
C208 C209 1.372 . S
C208 C213 1.364 . S
C209 H188 0.952 . S
C209 C208 1.372 . S
C209 C210 1.389 . S
C210 H189 0.949 . S
C210 C209 1.389 . S
C210 C211 1.387 . S
C211 C210 1.387 . S
C211 C212 1.372 . S
C212 H190 0.950 . S
C212 C211 1.372 . S
C212 C213 1.379 . S
C213 H191 0.948 . S
C213 C208 1.364 . S
C213 C212 1.379 . S
C214 C183 1.383 . S
C214 C201 1.479 . S
C214 C215 1.398 . S
C215 C180 1.382 . S
C215 H192 0.951 . S
C215 C214 1.398 . S
C216 C217 1.384 . S
C216 H229 0.947 . S
C216 C251 1.382 . S
C217 C216 1.384 . S
C217 C218 1.378 . S
C218 C217 1.378 . S
C218 C219 1.378 . S
C218 H230 0.952 . S
C219 C218 1.378 . S
C219 H231 0.950 . S
C219 C250 1.383 . S
H220 C239 0.947 . S
H221 C240 0.946 . S
H222 C242 0.953 . S
H223 C243 0.945 . S
H224 C245 0.952 . S
H225 C246 0.949 . S
H226 C248 0.950 . S
H227 C249 0.948 . S
H228 C251 0.951 . S
H229 C216 0.947 . S
H230 C218 0.952 . S
H231 C219 0.950 . S
N232 C235 1.382 . S
N232 C237 1.363 . S
N233 C235 1.371 . S
N233 C236 1.372 . S
N234 C236 1.361 . S
N234 C237 1.377 . S
C235 N232 1.382 . S
C235 N233 1.371 . S
C235 C238 1.480 . S
C236 N233 1.372 . S
C236 N234 1.361 . S
C236 C244 1.457 . S
C237 N232 1.363 . S
C237 N234 1.377 . S
C237 C250 1.479 . S
C238 C235 1.480 . S
C238 C239 1.383 . S
C238 C243 1.385 . S
C239 H220 0.947 . S
C239 C238 1.383 . S
C239 C240 1.388 . S
C240 H221 0.946 . S
C240 C239 1.388 . S
C240 C241 1.384 . S
C241 C240 1.384 . S
C241 C242 1.377 . S
C242 H222 0.953 . S
C242 C241 1.377 . S
C242 C243 1.369 . S
C243 H223 0.945 . S
C243 C238 1.385 . S
C243 C242 1.369 . S
C244 C236 1.457 . S
C244 C245 1.372 . S
C244 C249 1.364 . S
C245 H224 0.952 . S
C245 C244 1.372 . S
C245 C246 1.389 . S
C246 H225 0.949 . S
C246 C245 1.389 . S
C246 C247 1.387 . S
C247 C246 1.387 . S
C247 C248 1.372 . S
C248 H226 0.950 . S
C248 C247 1.372 . S
C248 C249 1.379 . S
C249 H227 0.948 . S
C249 C244 1.364 . S
C249 C248 1.379 . S
C250 C219 1.383 . S
C250 C237 1.479 . S
C250 C251 1.398 . S
C251 C216 1.382 . S
C251 H228 0.951 . S
C251 C250 1.398 . S
C252 C253 1.384 . S
C252 H265 0.947 . S
C252 C287 1.382 . S
C253 C252 1.384 . S
C253 C254 1.378 . S
C254 C253 1.378 . S
C254 C255 1.378 . S
C254 H266 0.952 . S
C255 C254 1.378 . S
C255 H267 0.950 . S
C255 C286 1.383 . S
H256 C275 0.947 . S
H257 C276 0.946 . S
H258 C278 0.953 . S
H259 C279 0.945 . S
H260 C281 0.952 . S
H261 C282 0.949 . S
H262 C284 0.950 . S
H263 C285 0.948 . S
H264 C287 0.951 . S
H265 C252 0.947 . S
H266 C254 0.952 . S
H267 C255 0.950 . S
N268 C271 1.382 . S
N268 C273 1.363 . S
N269 C271 1.371 . S
N269 C272 1.372 . S
N270 C272 1.361 . S
N270 C273 1.377 . S
C271 N268 1.382 . S
C271 N269 1.371 . S
C271 C274 1.480 . S
C272 N269 1.372 . S
C272 N270 1.361 . S
C272 C280 1.457 . S
C273 N268 1.363 . S
C273 N270 1.377 . S
C273 C286 1.479 . S
C274 C271 1.480 . S
C274 C275 1.383 . S
C274 C279 1.385 . S
C275 H256 0.947 . S
C275 C274 1.383 . S
C275 C276 1.388 . S
C276 H257 0.946 . S
C276 C275 1.388 . S
C276 C277 1.384 . S
C277 C276 1.384 . S
C277 C278 1.377 . S
C278 H258 0.953 . S
C278 C277 1.377 . S
C278 C279 1.369 . S
C279 H259 0.945 . S
C279 C274 1.385 . S
C279 C278 1.369 . S
C280 C272 1.457 . S
C280 C281 1.372 . S
C280 C285 1.364 . S
C281 H260 0.952 . S
C281 C280 1.372 . S
C281 C282 1.389 . S
C282 H261 0.949 . S
C282 C281 1.389 . S
C282 C283 1.387 . S
C283 C282 1.387 . S
C283 C284 1.372 . S
C284 H262 0.950 . S
C284 C283 1.372 . S
C284 C285 1.379 . S
C285 H263 0.948 . S
C285 C280 1.364 . S
C285 C284 1.379 . S
C286 C255 1.383 . S
C286 C273 1.479 . S
C286 C287 1.398 . S
C287 C252 1.382 . S
C287 H264 0.951 . S
C287 C286 1.398 . S
C288 C289 1.384 . S
C288 H301 0.947 . S
C288 C323 1.382 . S
C289 C288 1.384 . S
C289 C290 1.378 . S
C290 C289 1.378 . S
C290 C291 1.378 . S
C290 H302 0.952 . S
C291 C290 1.378 . S
C291 H303 0.950 . S
C291 C322 1.383 . S
H292 C311 0.947 . S
H293 C312 0.946 . S
H294 C314 0.953 . S
H295 C315 0.945 . S
H296 C317 0.952 . S
H297 C318 0.949 . S
H298 C320 0.950 . S
H299 C321 0.948 . S
H300 C323 0.951 . S
H301 C288 0.947 . S
H302 C290 0.952 . S
H303 C291 0.950 . S
N304 C307 1.382 . S
N304 C309 1.363 . S
N305 C307 1.371 . S
N305 C308 1.372 . S
N306 C308 1.361 . S
N306 C309 1.377 . S
C307 N304 1.382 . S
C307 N305 1.371 . S
C307 C310 1.480 . S
C308 N305 1.372 . S
C308 N306 1.361 . S
C308 C316 1.457 . S
C309 N304 1.363 . S
C309 N306 1.377 . S
C309 C322 1.479 . S
C310 C307 1.480 . S
C310 C311 1.383 . S
C310 C315 1.385 . S
C311 H292 0.947 . S
C311 C310 1.383 . S
C311 C312 1.388 . S
C312 H293 0.946 . S
C312 C311 1.388 . S
C312 C313 1.384 . S
C313 C312 1.384 . S
C313 C314 1.377 . S
C314 H294 0.953 . S
C314 C313 1.377 . S
C314 C315 1.369 . S
C315 H295 0.945 . S
C315 C310 1.385 . S
C315 C314 1.369 . S
C316 C308 1.457 . S
C316 C317 1.372 . S
C316 C321 1.364 . S
C317 H296 0.952 . S
C317 C316 1.372 . S
C317 C318 1.389 . S
C318 H297 0.949 . S
C318 C317 1.389 . S
C318 C319 1.387 . S
C319 C318 1.387 . S
C319 C320 1.372 . S
C320 H298 0.950 . S
C320 C319 1.372 . S
C320 C321 1.379 . S
C321 H299 0.948 . S
C321 C316 1.364 . S
C321 C320 1.379 . S
C322 C291 1.383 . S
C322 C309 1.479 . S
C322 C323 1.398 . S
C323 C288 1.382 . S
C323 H300 0.951 . S
C323 C322 1.398 . S
C324 C325 1.384 . S
C324 H337 0.947 . S
C324 C359 1.382 . S
C325 C324 1.384 . S
C325 C326 1.378 . S
C326 C325 1.378 . S
C326 C327 1.378 . S
C326 H338 0.952 . S
C327 C326 1.378 . S
C327 H339 0.950 . S
C327 C358 1.383 . S
H328 C347 0.947 . S
H329 C348 0.946 . S
H330 C350 0.953 . S
H331 C351 0.945 . S
H332 C353 0.952 . S
H333 C354 0.949 . S
H334 C356 0.950 . S
H335 C357 0.948 . S
H336 C359 0.951 . S
H337 C324 0.947 . S
H338 C326 0.952 . S
H339 C327 0.950 . S
N340 C343 1.382 . S
N340 C345 1.363 . S
N341 C343 1.371 . S
N341 C344 1.372 . S
N342 C344 1.361 . S
N342 C345 1.377 . S
C343 N340 1.382 . S
C343 N341 1.371 . S
C343 C346 1.480 . S
C344 N341 1.372 . S
C344 N342 1.361 . S
C344 C352 1.457 . S
C345 N340 1.363 . S
C345 N342 1.377 . S
C345 C358 1.479 . S
C346 C343 1.480 . S
C346 C347 1.383 . S
C346 C351 1.385 . S
C347 H328 0.947 . S
C347 C346 1.383 . S
C347 C348 1.388 . S
C348 H329 0.946 . S
C348 C347 1.388 . S
C348 C349 1.384 . S
C349 C348 1.384 . S
C349 C350 1.377 . S
C350 H330 0.953 . S
C350 C349 1.377 . S
C350 C351 1.369 . S
C351 H331 0.945 . S
C351 C346 1.385 . S
C351 C350 1.369 . S
C352 C344 1.457 . S
C352 C353 1.372 . S
C352 C357 1.364 . S
C353 H332 0.952 . S
C353 C352 1.372 . S
C353 C354 1.389 . S
C354 H333 0.949 . S
C354 C353 1.389 . S
C354 C355 1.387 . S
C355 C354 1.387 . S
C355 C356 1.372 . S
C356 H334 0.950 . S
C356 C355 1.372 . S
C356 C357 1.379 . S
C357 H335 0.948 . S
C357 C352 1.364 . S
C357 C356 1.379 . S
C358 C327 1.383 . S
C358 C345 1.479 . S
C358 C359 1.398 . S
C359 C324 1.382 . S
C359 H336 0.951 . S
C359 C358 1.398 . S
C360 C361 1.384 . S
C360 H373 0.947 . S
C360 C395 1.382 . S
C361 C360 1.384 . S
C361 C362 1.378 . S
C362 C361 1.378 . S
C362 C363 1.378 . S
C362 H374 0.952 . S
C363 C362 1.378 . S
C363 H375 0.950 . S
C363 C394 1.383 . S
H364 C383 0.947 . S
H365 C384 0.946 . S
H366 C386 0.953 . S
H367 C387 0.945 . S
H368 C389 0.952 . S
H369 C390 0.949 . S
H370 C392 0.950 . S
H371 C393 0.948 . S
H372 C395 0.951 . S
H373 C360 0.947 . S
H374 C362 0.952 . S
H375 C363 0.950 . S
N376 C379 1.382 . S
N376 C381 1.363 . S
N377 C379 1.371 . S
N377 C380 1.372 . S
N378 C380 1.361 . S
N378 C381 1.377 . S
C379 N376 1.382 . S
C379 N377 1.371 . S
C379 C382 1.480 . S
C380 N377 1.372 . S
C380 N378 1.361 . S
C380 C388 1.457 . S
C381 N376 1.363 . S
C381 N378 1.377 . S
C381 C394 1.479 . S
C382 C379 1.480 . S
C382 C383 1.383 . S
C382 C387 1.385 . S
C383 H364 0.947 . S
C383 C382 1.383 . S
C383 C384 1.388 . S
C384 H365 0.946 . S
C384 C383 1.388 . S
C384 C385 1.384 . S
C385 C384 1.384 . S
C385 C386 1.377 . S
C386 H366 0.953 . S
C386 C385 1.377 . S
C386 C387 1.369 . S
C387 H367 0.945 . S
C387 C382 1.385 . S
C387 C386 1.369 . S
C388 C380 1.457 . S
C388 C389 1.372 . S
C388 C393 1.364 . S
C389 H368 0.952 . S
C389 C388 1.372 . S
C389 C390 1.389 . S
C390 H369 0.949 . S
C390 C389 1.389 . S
C390 C391 1.387 . S
C391 C390 1.387 . S
C391 C392 1.372 . S
C392 H370 0.950 . S
C392 C391 1.372 . S
C392 C393 1.379 . S
C393 H371 0.948 . S
C393 C388 1.364 . S
C393 C392 1.379 . S
C394 C363 1.383 . S
C394 C381 1.479 . S
C394 C395 1.398 . S
C395 C360 1.382 . S
C395 H372 0.951 . S
C395 C394 1.398 . S
C396 C397 1.384 . S
C396 H409 0.947 . S
C396 C431 1.382 . S
C397 C396 1.384 . S
C397 C398 1.378 . S
C398 C397 1.378 . S
C398 C399 1.378 . S
C398 H410 0.952 . S
C399 C398 1.378 . S
C399 H411 0.950 . S
C399 C430 1.383 . S
H400 C419 0.947 . S
H401 C420 0.946 . S
H402 C422 0.953 . S
H403 C423 0.945 . S
H404 C425 0.952 . S
H405 C426 0.949 . S
H406 C428 0.950 . S
H407 C429 0.948 . S
H408 C431 0.951 . S
H409 C396 0.947 . S
H410 C398 0.952 . S
H411 C399 0.950 . S
N412 C415 1.382 . S
N412 C417 1.363 . S
N413 C415 1.371 . S
N413 C416 1.372 . S
N414 C416 1.361 . S
N414 C417 1.377 . S
C415 N412 1.382 . S
C415 N413 1.371 . S
C415 C418 1.480 . S
C416 N413 1.372 . S
C416 N414 1.361 . S
C416 C424 1.457 . S
C417 N412 1.363 . S
C417 N414 1.377 . S
C417 C430 1.479 . S
C418 C415 1.480 . S
C418 C419 1.383 . S
C418 C423 1.385 . S
C419 H400 0.947 . S
C419 C418 1.383 . S
C419 C420 1.388 . S
C420 H401 0.946 . S
C420 C419 1.388 . S
C420 C421 1.384 . S
C421 C420 1.384 . S
C421 C422 1.377 . S
C422 H402 0.953 . S
C422 C421 1.377 . S
C422 C423 1.369 . S
C423 H403 0.945 . S
C423 C418 1.385 . S
C423 C422 1.369 . S
C424 C416 1.457 . S
C424 C425 1.372 . S
C424 C429 1.364 . S
C425 H404 0.952 . S
C425 C424 1.372 . S
C425 C426 1.389 . S
C426 H405 0.949 . S
C426 C425 1.389 . S
C426 C427 1.387 . S
C427 C426 1.387 . S
C427 C428 1.372 . S
C428 H406 0.950 . S
C428 C427 1.372 . S
C428 C429 1.379 . S
C429 H407 0.948 . S
C429 C424 1.364 . S
C429 C428 1.379 . S
C430 C399 1.383 . S
C430 C417 1.479 . S
C430 C431 1.398 . S
C431 C396 1.382 . S
C431 H408 0.951 . S
C431 C430 1.398 . S
C432 C433 1.384 . S
C432 H445 0.947 . S
C432 C467 1.382 . S
C433 C432 1.384 . S
C433 C434 1.378 . S
C434 C433 1.378 . S
C434 C435 1.378 . S
C434 H446 0.952 . S
C435 C434 1.378 . S
C435 H447 0.950 . S
C435 C466 1.383 . S
H436 C455 0.947 . S
H437 C456 0.946 . S
H438 C458 0.953 . S
H439 C459 0.945 . S
H440 C461 0.952 . S
H441 C462 0.949 . S
H442 C464 0.950 . S
H443 C465 0.948 . S
H444 C467 0.951 . S
H445 C432 0.947 . S
H446 C434 0.952 . S
H447 C435 0.950 . S
N448 C451 1.382 . S
N448 C453 1.363 . S
N449 C451 1.371 . S
N449 C452 1.372 . S
N450 C452 1.361 . S
N450 C453 1.377 . S
C451 N448 1.382 . S
C451 N449 1.371 . S
C451 C454 1.480 . S
C452 N449 1.372 . S
C452 N450 1.361 . S
C452 C460 1.457 . S
C453 N448 1.363 . S
C453 N450 1.377 . S
C453 C466 1.479 . S
C454 C451 1.480 . S
C454 C455 1.383 . S
C454 C459 1.385 . S
C455 H436 0.947 . S
C455 C454 1.383 . S
C455 C456 1.388 . S
C456 H437 0.946 . S
C456 C455 1.388 . S
C456 C457 1.384 . S
C457 C456 1.384 . S
C457 C458 1.377 . S
C458 H438 0.953 . S
C458 C457 1.377 . S
C458 C459 1.369 . S
C459 H439 0.945 . S
C459 C454 1.385 . S
C459 C458 1.369 . S
C460 C452 1.457 . S
C460 C461 1.372 . S
C460 C465 1.364 . S
C461 H440 0.952 . S
C461 C460 1.372 . S
C461 C462 1.389 . S
C462 H441 0.949 . S
C462 C461 1.389 . S
C462 C463 1.387 . S
C463 C462 1.387 . S
C463 C464 1.372 . S
C464 H442 0.950 . S
C464 C463 1.372 . S
C464 C465 1.379 . S
C465 H443 0.948 . S
C465 C460 1.364 . S
C465 C464 1.379 . S
C466 C435 1.383 . S
C466 C453 1.479 . S
C466 C467 1.398 . S
C467 C432 1.382 . S
C467 H444 0.951 . S
C467 C466 1.398 . S
C468 C469 1.384 . S
C468 H481 0.947 . S
C468 C503 1.382 . S
C469 C468 1.384 . S
C469 C470 1.378 . S
C470 C469 1.378 . S
C470 C471 1.378 . S
C470 H482 0.952 . S
C471 C470 1.378 . S
C471 H483 0.950 . S
C471 C502 1.383 . S
H472 C491 0.947 . S
H473 C492 0.946 . S
H474 C494 0.953 . S
H475 C495 0.945 . S
H476 C497 0.952 . S
H477 C498 0.949 . S
H478 C500 0.950 . S
H479 C501 0.948 . S
H480 C503 0.951 . S
H481 C468 0.947 . S
H482 C470 0.952 . S
H483 C471 0.950 . S
N484 C487 1.382 . S
N484 C489 1.363 . S
N485 C487 1.371 . S
N485 C488 1.372 . S
N486 C488 1.361 . S
N486 C489 1.377 . S
C487 N484 1.382 . S
C487 N485 1.371 . S
C487 C490 1.480 . S
C488 N485 1.372 . S
C488 N486 1.361 . S
C488 C496 1.457 . S
C489 N484 1.363 . S
C489 N486 1.377 . S
C489 C502 1.479 . S
C490 C487 1.480 . S
C490 C491 1.383 . S
C490 C495 1.385 . S
C491 H472 0.947 . S
C491 C490 1.383 . S
C491 C492 1.388 . S
C492 H473 0.946 . S
C492 C491 1.388 . S
C492 C493 1.384 . S
C493 C492 1.384 . S
C493 C494 1.377 . S
C494 H474 0.953 . S
C494 C493 1.377 . S
C494 C495 1.369 . S
C495 H475 0.945 . S
C495 C490 1.385 . S
C495 C494 1.369 . S
C496 C488 1.457 . S
C496 C497 1.372 . S
C496 C501 1.364 . S
C497 H476 0.952 . S
C497 C496 1.372 . S
C497 C498 1.389 . S
C498 H477 0.949 . S
C498 C497 1.389 . S
C498 C499 1.387 . S
C499 C498 1.387 . S
C499 C500 1.372 . S
C500 H478 0.950 . S
C500 C499 1.372 . S
C500 C501 1.379 . S
C501 H479 0.948 . S
C501 C496 1.364 . S
C501 C500 1.379 . S
C502 C471 1.383 . S
C502 C489 1.479 . S
C502 C503 1.398 . S
C503 C468 1.382 . S
C503 H480 0.951 . S
C503 C502 1.398 . S
C504 C505 1.384 . S
C504 H517 0.947 . S
C504 C539 1.382 . S
C505 C504 1.384 . S
C505 C506 1.378 . S
C506 C505 1.378 . S
C506 C507 1.378 . S
C506 H518 0.952 . S
C507 C506 1.378 . S
C507 H519 0.950 . S
C507 C538 1.383 . S
H508 C527 0.947 . S
H509 C528 0.946 . S
H510 C530 0.953 . S
H511 C531 0.945 . S
H512 C533 0.952 . S
H513 C534 0.949 . S
H514 C536 0.950 . S
H515 C537 0.948 . S
H516 C539 0.951 . S
H517 C504 0.947 . S
H518 C506 0.952 . S
H519 C507 0.950 . S
N520 C523 1.382 . S
N520 C525 1.363 . S
N521 C523 1.371 . S
N521 C524 1.372 . S
N522 C524 1.361 . S
N522 C525 1.377 . S
C523 N520 1.382 . S
C523 N521 1.371 . S
C523 C526 1.480 . S
C524 N521 1.372 . S
C524 N522 1.361 . S
C524 C532 1.457 . S
C525 N520 1.363 . S
C525 N522 1.377 . S
C525 C538 1.479 . S
C526 C523 1.480 . S
C526 C527 1.383 . S
C526 C531 1.385 . S
C527 H508 0.947 . S
C527 C526 1.383 . S
C527 C528 1.388 . S
C528 H509 0.946 . S
C528 C527 1.388 . S
C528 C529 1.384 . S
C529 C528 1.384 . S
C529 C530 1.377 . S
C530 H510 0.953 . S
C530 C529 1.377 . S
C530 C531 1.369 . S
C531 H511 0.945 . S
C531 C526 1.385 . S
C531 C530 1.369 . S
C532 C524 1.457 . S
C532 C533 1.372 . S
C532 C537 1.364 . S
C533 H512 0.952 . S
C533 C532 1.372 . S
C533 C534 1.389 . S
C534 H513 0.949 . S
C534 C533 1.389 . S
C534 C535 1.387 . S
C535 C534 1.387 . S
C535 C536 1.372 . S
C536 H514 0.950 . S
C536 C535 1.372 . S
C536 C537 1.379 . S
C537 H515 0.948 . S
C537 C532 1.364 . S
C537 C536 1.379 . S
C538 C507 1.383 . S
C538 C525 1.479 . S
C538 C539 1.398 . S
C539 C504 1.382 . S
C539 H516 0.951 . S
C539 C538 1.398 . S
C540 C541 1.384 . S
C540 H553 0.947 . S
C540 C575 1.382 . S
C541 C540 1.384 . S
C541 C542 1.378 . S
C542 C541 1.378 . S
C542 C543 1.378 . S
C542 H554 0.952 . S
C543 C542 1.378 . S
C543 H555 0.950 . S
C543 C574 1.383 . S
H544 C563 0.947 . S
H545 C564 0.946 . S
H546 C566 0.953 . S
H547 C567 0.945 . S
H548 C569 0.952 . S
H549 C570 0.949 . S
H550 C572 0.950 . S
H551 C573 0.948 . S
H552 C575 0.951 . S
H553 C540 0.947 . S
H554 C542 0.952 . S
H555 C543 0.950 . S
N556 C559 1.382 . S
N556 C561 1.363 . S
N557 C559 1.371 . S
N557 C560 1.372 . S
N558 C560 1.361 . S
N558 C561 1.377 . S
C559 N556 1.382 . S
C559 N557 1.371 . S
C559 C562 1.480 . S
C560 N557 1.372 . S
C560 N558 1.361 . S
C560 C568 1.457 . S
C561 N556 1.363 . S
C561 N558 1.377 . S
C561 C574 1.479 . S
C562 C559 1.480 . S
C562 C563 1.383 . S
C562 C567 1.385 . S
C563 H544 0.947 . S
C563 C562 1.383 . S
C563 C564 1.388 . S
C564 H545 0.946 . S
C564 C563 1.388 . S
C564 C565 1.384 . S
C565 C564 1.384 . S
C565 C566 1.377 . S
C566 H546 0.953 . S
C566 C565 1.377 . S
C566 C567 1.369 . S
C567 H547 0.945 . S
C567 C562 1.385 . S
C567 C566 1.369 . S
C568 C560 1.457 . S
C568 C569 1.372 . S
C568 C573 1.364 . S
C569 H548 0.952 . S
C569 C568 1.372 . S
C569 C570 1.389 . S
C570 H549 0.949 . S
C570 C569 1.389 . S
C570 C571 1.387 . S
C571 C570 1.387 . S
C571 C572 1.372 . S
C572 H550 0.950 . S
C572 C571 1.372 . S
C572 C573 1.379 . S
C573 H551 0.948 . S
C573 C568 1.364 . S
C573 C572 1.379 . S
C574 C543 1.383 . S
C574 C561 1.479 . S
C574 C575 1.398 . S
C575 C540 1.382 . S
C575 H552 0.951 . S
C575 C574 1.398 . S
C576 C577 1.384 . S
C576 H589 0.947 . S
C576 C611 1.382 . S
C577 C576 1.384 . S
C577 C578 1.378 . S
C578 C577 1.378 . S
C578 C579 1.378 . S
C578 H590 0.952 . S
C579 C578 1.378 . S
C579 H591 0.950 . S
C579 C610 1.383 . S
H580 C599 0.947 . S
H581 C600 0.946 . S
H582 C602 0.953 . S
H583 C603 0.945 . S
H584 C605 0.952 . S
H585 C606 0.949 . S
H586 C608 0.950 . S
H587 C609 0.948 . S
H588 C611 0.951 . S
H589 C576 0.947 . S
H590 C578 0.952 . S
H591 C579 0.950 . S
N592 C595 1.382 . S
N592 C597 1.363 . S
N593 C595 1.371 . S
N593 C596 1.372 . S
N594 C596 1.361 . S
N594 C597 1.377 . S
C595 N592 1.382 . S
C595 N593 1.371 . S
C595 C598 1.480 . S
C596 N593 1.372 . S
C596 N594 1.361 . S
C596 C604 1.457 . S
C597 N592 1.363 . S
C597 N594 1.377 . S
C597 C610 1.479 . S
C598 C595 1.480 . S
C598 C599 1.383 . S
C598 C603 1.385 . S
C599 H580 0.947 . S
C599 C598 1.383 . S
C599 C600 1.388 . S
C600 H581 0.946 . S
C600 C599 1.388 . S
C600 C601 1.384 . S
C601 C600 1.384 . S
C601 C602 1.377 . S
C602 H582 0.953 . S
C602 C601 1.377 . S
C602 C603 1.369 . S
C603 H583 0.945 . S
C603 C598 1.385 . S
C603 C602 1.369 . S
C604 C596 1.457 . S
C604 C605 1.372 . S
C604 C609 1.364 . S
C605 H584 0.952 . S
C605 C604 1.372 . S
C605 C606 1.389 . S
C606 H585 0.949 . S
C606 C605 1.389 . S
C606 C607 1.387 . S
C607 C606 1.387 . S
C607 C608 1.372 . S
C608 H586 0.950 . S
C608 C607 1.372 . S
C608 C609 1.379 . S
C609 H587 0.948 . S
C609 C604 1.364 . S
C609 C608 1.379 . S
C610 C579 1.383 . S
C610 C597 1.479 . S
C610 C611 1.398 . S
C611 C576 1.382 . S
C611 H588 0.951 . S
C611 C610 1.398 . S
C612 C613 1.384 . S
C612 H625 0.947 . S
C612 C647 1.382 . S
C613 C612 1.384 . S
C613 C614 1.378 . S
C614 C613 1.378 . S
C614 C615 1.378 . S
C614 H626 0.952 . S
C615 C614 1.378 . S
C615 H627 0.950 . S
C615 C646 1.383 . S
H616 C635 0.947 . S
H617 C636 0.946 . S
H618 C638 0.953 . S
H619 C639 0.945 . S
H620 C641 0.952 . S
H621 C642 0.949 . S
H622 C644 0.950 . S
H623 C645 0.948 . S
H624 C647 0.951 . S
H625 C612 0.947 . S
H626 C614 0.952 . S
H627 C615 0.950 . S
N628 C631 1.382 . S
N628 C633 1.363 . S
N629 C631 1.371 . S
N629 C632 1.372 . S
N630 C632 1.361 . S
N630 C633 1.377 . S
C631 N628 1.382 . S
C631 N629 1.371 . S
C631 C634 1.480 . S
C632 N629 1.372 . S
C632 N630 1.361 . S
C632 C640 1.457 . S
C633 N628 1.363 . S
C633 N630 1.377 . S
C633 C646 1.479 . S
C634 C631 1.480 . S
C634 C635 1.383 . S
C634 C639 1.385 . S
C635 H616 0.947 . S
C635 C634 1.383 . S
C635 C636 1.388 . S
C636 H617 0.946 . S
C636 C635 1.388 . S
C636 C637 1.384 . S
C637 C636 1.384 . S
C637 C638 1.377 . S
C638 H618 0.953 . S
C638 C637 1.377 . S
C638 C639 1.369 . S
C639 H619 0.945 . S
C639 C634 1.385 . S
C639 C638 1.369 . S
C640 C632 1.457 . S
C640 C641 1.372 . S
C640 C645 1.364 . S
C641 H620 0.952 . S
C641 C640 1.372 . S
C641 C642 1.389 . S
C642 H621 0.949 . S
C642 C641 1.389 . S
C642 C643 1.387 . S
C643 C642 1.387 . S
C643 C644 1.372 . S
C644 H622 0.950 . S
C644 C643 1.372 . S
C644 C645 1.379 . S
C645 H623 0.948 . S
C645 C640 1.364 . S
C645 C644 1.379 . S
C646 C615 1.383 . S
C646 C633 1.479 . S
C646 C647 1.398 . S
C647 C612 1.382 . S
C647 H624 0.951 . S
C647 C646 1.398 . S
Tb648 O651 2.453 . S
Tb648 O652 2.596 1_545 S
Tb648 O653 2.374 1_545 S
Tb648 O661 2.343 1_554 S
Tb648 O663 2.353 . S
Tb648 O665 2.427 1_554 S
Tb648 O666 2.513 1_554 S
C649 O653 1.251 . S
C649 O655 1.246 1_554 S
Tb650 O652 2.343 1_556 S
Tb650 O655 2.361 . S
Tb650 O658 2.427 1_556 S
Tb650 O659 2.513 1_556 S
Tb650 O660 2.453 . S
Tb650 O661 2.596 1_565 S
Tb650 O662 2.374 1_565 S
O651 Tb648 2.453 . S
O651 C667 1.245 . S
O652 Tb648 2.596 1_565 S
O652 Tb650 2.343 1_554 S
O652 C667 1.259 1_565 S
O653 Tb648 2.374 1_565 S
O653 C649 1.251 . S
C654 O658 1.275 . S
C654 O659 1.246 . S
O655 C649 1.246 1_556 S
O655 Tb650 2.361 . S
C656 O660 1.245 . S
C656 O661 1.259 1_565 S
C657 O662 1.250 . S
C657 O663 1.263 1_556 S
O658 Tb650 2.427 1_554 S
O658 C654 1.275 . S
O659 Tb650 2.513 1_554 S
O659 C654 1.246 . S
O660 Tb650 2.453 . S
O660 C656 1.245 . S
O661 Tb648 2.343 1_556 S
O661 Tb650 2.596 1_545 S
O661 C656 1.259 1_545 S
O662 Tb650 2.374 1_545 S
O662 C657 1.250 . S
O663 Tb648 2.353 . S
O663 C657 1.263 1_554 S
C664 O665 1.275 . S
C664 O666 1.246 . S
O665 Tb648 2.427 1_556 S
O665 C664 1.275 . S
O666 Tb648 2.513 1_556 S
O666 C664 1.246 . S
C667 O651 1.245 . S
C667 O652 1.259 1_545 S
Tb668 O671 2.453 . S
Tb668 O672 2.596 1_655 S
Tb668 O673 2.374 1_655 S
Tb668 O681 2.343 1_554 S
Tb668 O683 2.355 . S
Tb668 O685 2.427 1_554 S
Tb668 O686 2.513 1_554 S
C669 O673 1.251 . S
C669 O675 1.263 . S
Tb670 O672 2.343 1_556 S
Tb670 O675 2.353 1_556 S
Tb670 O678 2.427 1_556 S
Tb670 O679 2.513 1_556 S
Tb670 O680 2.453 . S
Tb670 O681 2.596 1_455 S
Tb670 O682 2.374 1_455 S
O671 Tb668 2.453 . S
O671 C687 1.245 1_655 S
O672 Tb668 2.596 1_455 S
O672 Tb670 2.343 1_554 S
O672 C687 1.259 . S
O673 Tb668 2.374 1_455 S
O673 C669 1.251 . S
C674 O678 1.275 . S
C674 O679 1.246 . S
O675 C669 1.263 . S
O675 Tb670 2.353 1_554 S
C676 O680 1.231 1_655 S
C676 O681 1.265 . S
C677 O682 1.250 . S
C677 O683 1.258 1_556 S
O678 Tb670 2.427 1_554 S
O678 C674 1.275 . S
O679 Tb670 2.513 1_554 S
O679 C674 1.246 . S
O680 Tb670 2.453 . S
O680 C676 1.231 1_455 S
O681 Tb668 2.343 1_556 S
O681 Tb670 2.596 1_655 S
O681 C676 1.265 . S
O682 Tb670 2.374 1_655 S
O682 C677 1.250 . S
O683 Tb668 2.355 . S
O683 C677 1.258 1_554 S
C684 O685 1.275 . S
C684 O686 1.246 . S
O685 Tb668 2.427 1_556 S
O685 C684 1.275 . S
O686 Tb668 2.513 1_556 S
O686 C684 1.246 . S
C687 O671 1.245 1_455 S
C687 O672 1.259 . S
Tb688 O691 2.453 . S
Tb688 O692 2.596 . S
Tb688 O693 2.374 . S
Tb688 O701 2.343 1_556 S
Tb688 O703 2.353 1_556 S
Tb688 O705 2.427 1_556 S
Tb688 O706 2.513 1_556 S
C689 O693 1.251 . S
C689 O695 1.263 1_556 S
Tb690 O692 2.343 1_554 S
Tb690 O695 2.353 . S
Tb690 O698 2.427 1_554 S
Tb690 O699 2.513 1_554 S
Tb690 O700 2.453 . S
Tb690 O701 2.596 . S
Tb690 O702 2.374 . S
O691 Tb688 2.453 . S
O691 C707 1.245 . S
O692 Tb688 2.596 . S
O692 Tb690 2.343 1_556 S
O692 C707 1.259 . S
O693 Tb688 2.374 . S
O693 C689 1.251 . S
C694 O698 1.275 . S
C694 O699 1.246 . S
O695 C689 1.263 1_554 S
O695 Tb690 2.353 . S
C696 O700 1.245 . S
C696 O701 1.259 . S
C697 O702 1.250 . S
C697 O703 1.263 . S
O698 Tb690 2.427 1_556 S
O698 C694 1.275 . S
O699 Tb690 2.513 1_556 S
O699 C694 1.246 . S
O700 Tb690 2.453 . S
O700 C696 1.245 . S
O701 Tb688 2.343 1_554 S
O701 Tb690 2.596 . S
O701 C696 1.259 . S
O702 Tb690 2.374 . S
O702 C697 1.250 . S
O703 Tb688 2.353 1_554 S
O703 C697 1.263 . S
C704 O705 1.275 . S
C704 O706 1.246 . S
O705 Tb688 2.427 1_554 S
O705 C704 1.275 . S
O706 Tb688 2.513 1_554 S
O706 C704 1.246 . S
C707 O691 1.245 . S
C707 O692 1.259 . S
Tb708 O711 2.453 . S
Tb708 O712 2.596 . S
Tb708 O713 2.374 . S
Tb708 O721 2.343 . S
Tb708 O723 2.353 . S
Tb708 O725 2.427 . S
Tb708 O726 2.513 . S
C709 O713 1.251 . S
C709 O715 1.263 . S
Tb710 O712 2.343 . S
Tb710 O715 2.353 . S
Tb710 O718 2.427 . S
Tb710 O719 2.513 . S
Tb710 O720 2.453 . S
Tb710 O721 2.596 . S
Tb710 O722 2.374 . S
O711 Tb708 2.453 . S
O711 C727 1.245 . S
O712 Tb708 2.596 . S
O712 Tb710 2.343 . S
O712 C727 1.259 . S
O713 Tb708 2.374 . S
O713 C709 1.251 . S
C714 O718 1.275 . S
C714 O719 1.246 . S
O715 C709 1.263 . S
O715 Tb710 2.353 . S
C716 O720 1.245 . S
C716 O721 1.259 . S
C717 O722 1.250 . S
C717 O723 1.263 . S
O718 Tb710 2.427 . S
O718 C714 1.275 . S
O719 Tb710 2.513 . S
O719 C714 1.246 . S
O720 Tb710 2.453 . S
O720 C716 1.245 . S
O721 Tb708 2.343 . S
O721 Tb710 2.596 . S
O721 C716 1.259 . S
O722 Tb710 2.374 . S
O722 C717 1.250 . S
O723 Tb708 2.353 . S
O723 C717 1.263 . S
C724 O725 1.275 . S
C724 O726 1.246 . S
O725 Tb708 2.427 . S
O725 C724 1.275 . S
O726 Tb708 2.513 . S
O726 C724 1.246 . S
C727 O711 1.245 . S
C727 O712 1.259 . S
Tb728 O731 2.453 . S
Tb728 O732 2.596 . S
Tb728 O733 2.374 . S
Tb728 O741 2.343 . S
Tb728 O743 2.353 . S
Tb728 O745 2.427 . S
Tb728 O746 2.513 . S
C729 O733 1.251 . S
C729 O735 1.263 . S
Tb730 O732 2.343 . S
Tb730 O735 2.353 . S
Tb730 O738 2.427 . S
Tb730 O739 2.513 . S
Tb730 O740 2.453 . S
Tb730 O741 2.596 . S
Tb730 O742 2.374 . S
O731 Tb728 2.453 . S
O731 C747 1.245 . S
O732 Tb728 2.596 . S
O732 Tb730 2.343 . S
O732 C747 1.259 . S
O733 Tb728 2.374 . S
O733 C729 1.251 . S
C734 O738 1.275 . S
C734 O739 1.246 . S
O735 C729 1.263 . S
O735 Tb730 2.353 . S
C736 O740 1.245 . S
C736 O741 1.259 . S
C737 O742 1.250 . S
C737 O743 1.263 . S
O738 Tb730 2.427 . S
O738 C734 1.275 . S
O739 Tb730 2.513 . S
O739 C734 1.246 . S
O740 Tb730 2.453 . S
O740 C736 1.245 . S
O741 Tb728 2.343 . S
O741 Tb730 2.596 . S
O741 C736 1.259 . S
O742 Tb730 2.374 . S
O742 C737 1.250 . S
O743 Tb728 2.353 . S
O743 C737 1.263 . S
C744 O745 1.275 . S
C744 O746 1.246 . S
O745 Tb728 2.427 . S
O745 C744 1.275 . S
O746 Tb728 2.513 . S
O746 C744 1.246 . S
C747 O731 1.245 . S
C747 O732 1.259 . S
Tb748 O751 2.453 . S
Tb748 O752 2.596 . S
Tb748 O753 2.374 . S
Tb748 O761 2.343 . S
Tb748 O763 2.353 . S
Tb748 O765 2.427 . S
Tb748 O766 2.513 . S
C749 O753 1.251 . S
C749 O755 1.263 . S
Tb750 O752 2.343 . S
Tb750 O755 2.353 . S
Tb750 O758 2.427 . S
Tb750 O759 2.513 . S
Tb750 O760 2.453 . S
Tb750 O761 2.596 . S
Tb750 O762 2.374 . S
O751 Tb748 2.453 . S
O751 C767 1.245 . S
O752 Tb748 2.596 . S
O752 Tb750 2.343 . S
O752 C767 1.259 . S
O753 Tb748 2.374 . S
O753 C749 1.251 . S
C754 O758 1.275 . S
C754 O759 1.246 . S
O755 C749 1.263 . S
O755 Tb750 2.353 . S
C756 O760 1.245 . S
C756 O761 1.259 . S
C757 O762 1.250 . S
C757 O763 1.263 . S
O758 Tb750 2.427 . S
O758 C754 1.275 . S
O759 Tb750 2.513 . S
O759 C754 1.246 . S
O760 Tb750 2.453 . S
O760 C756 1.245 . S
O761 Tb748 2.343 . S
O761 Tb750 2.596 . S
O761 C756 1.259 . S
O762 Tb750 2.374 . S
O762 C757 1.250 . S
O763 Tb748 2.353 . S
O763 C757 1.263 . S
C764 O765 1.275 . S
C764 O766 1.246 . S
O765 Tb748 2.427 . S
O765 C764 1.275 . S
O766 Tb748 2.513 . S
O766 C764 1.246 . S
C767 O751 1.245 . S
C767 O752 1.259 . S
Tb768 O771 2.453 . S
Tb768 O772 2.596 . S
Tb768 O773 2.374 . S
Tb768 O781 2.343 . S
Tb768 O783 2.353 . S
Tb768 O785 2.427 . S
Tb768 O786 2.513 . S
C769 O773 1.251 . S
C769 O775 1.263 . S
Tb770 O772 2.343 . S
Tb770 O775 2.353 . S
Tb770 O778 2.427 . S
Tb770 O779 2.513 . S
Tb770 O780 2.453 . S
Tb770 O781 2.596 . S
Tb770 O782 2.374 . S
O771 Tb768 2.453 . S
O771 C787 1.245 . S
O772 Tb768 2.596 . S
O772 Tb770 2.343 . S
O772 C787 1.259 . S
O773 Tb768 2.374 . S
O773 C769 1.251 . S
C774 O778 1.275 . S
C774 O779 1.246 . S
O775 C769 1.263 . S
O775 Tb770 2.353 . S
C776 O780 1.245 . S
C776 O781 1.259 . S
C777 O782 1.250 . S
C777 O783 1.263 . S
O778 Tb770 2.427 . S
O778 C774 1.275 . S
O779 Tb770 2.513 . S
O779 C774 1.246 . S
O780 Tb770 2.453 . S
O780 C776 1.245 . S
O781 Tb768 2.343 . S
O781 Tb770 2.596 . S
O781 C776 1.259 . S
O782 Tb770 2.374 . S
O782 C777 1.250 . S
O783 Tb768 2.353 . S
O783 C777 1.263 . S
C784 O785 1.275 . S
C784 O786 1.246 . S
O785 Tb768 2.427 . S
O785 C784 1.275 . S
O786 Tb768 2.513 . S
O786 C784 1.246 . S
C787 O771 1.245 . S
C787 O772 1.259 . S
Tb788 O791 2.453 . S
Tb788 O792 2.596 . S
Tb788 O793 2.374 . S
Tb788 O801 2.343 . S
Tb788 O803 2.353 . S
Tb788 O805 2.427 . S
Tb788 O806 2.513 . S
C789 O793 1.251 . S
C789 O795 1.263 . S
Tb790 O792 2.343 . S
Tb790 O795 2.353 . S
Tb790 O798 2.427 . S
Tb790 O799 2.513 . S
Tb790 O800 2.453 . S
Tb790 O801 2.596 . S
Tb790 O802 2.374 . S
O791 Tb788 2.453 . S
O791 C807 1.245 . S
O792 Tb788 2.596 . S
O792 Tb790 2.343 . S
O792 C807 1.259 . S
O793 Tb788 2.374 . S
O793 C789 1.251 . S
C794 O798 1.275 . S
C794 O799 1.246 . S
O795 C789 1.263 . S
O795 Tb790 2.353 . S
C796 O800 1.245 . S
C796 O801 1.259 . S
C797 O802 1.250 . S
C797 O803 1.263 . S
O798 Tb790 2.427 . S
O798 C794 1.275 . S
O799 Tb790 2.513 . S
O799 C794 1.246 . S
O800 Tb790 2.453 . S
O800 C796 1.245 . S
O801 Tb788 2.343 . S
O801 Tb790 2.596 . S
O801 C796 1.259 . S
O802 Tb790 2.374 . S
O802 C797 1.250 . S
O803 Tb788 2.353 . S
O803 C797 1.263 . S
C804 O805 1.275 . S
C804 O806 1.246 . S
O805 Tb788 2.427 . S
O805 C804 1.275 . S
O806 Tb788 2.513 . S
O806 C804 1.246 . S
C807 O791 1.245 . S
C807 O792 1.259 . S
Tb808 O811 2.453 . S
Tb808 O812 2.596 . S
Tb808 O813 2.374 . S
Tb808 O821 2.343 . S
Tb808 O823 2.353 . S
Tb808 O825 2.427 . S
Tb808 O826 2.513 . S
C809 O813 1.251 . S
C809 O815 1.263 . S
Tb810 O812 2.343 . S
Tb810 O815 2.353 . S
Tb810 O818 2.427 . S
Tb810 O819 2.513 . S
Tb810 O820 2.453 . S
Tb810 O821 2.596 . S
Tb810 O822 2.374 . S
O811 Tb808 2.453 . S
O811 C827 1.245 . S
O812 Tb808 2.596 . S
O812 Tb810 2.343 . S
O812 C827 1.259 . S
O813 Tb808 2.374 . S
O813 C809 1.251 . S
C814 O818 1.275 . S
C814 O819 1.246 . S
O815 C809 1.263 . S
O815 Tb810 2.353 . S
C816 O820 1.245 . S
C816 O821 1.259 . S
C817 O822 1.250 . S
C817 O823 1.263 . S
O818 Tb810 2.427 . S
O818 C814 1.275 . S
O819 Tb810 2.513 . S
O819 C814 1.246 . S
O820 Tb810 2.453 . S
O820 C816 1.245 . S
O821 Tb808 2.343 . S
O821 Tb810 2.596 . S
O821 C816 1.259 . S
O822 Tb810 2.374 . S
O822 C817 1.250 . S
O823 Tb808 2.353 . S
O823 C817 1.263 . S
C824 O825 1.275 . S
C824 O826 1.246 . S
O825 Tb808 2.427 . S
O825 C824 1.275 . S
O826 Tb808 2.513 . S
O826 C824 1.246 . S
C827 O811 1.245 . S
C827 O812 1.259 . S
H828 C834 0.930 . S
H829 C837 0.930 . S
H830 C838 0.930 . S
H831 C839 0.930 . S
H832 C842 0.930 . S
H833 C843 0.930 . S
C834 H828 0.930 . S
C834 C835 1.355 . S
C834 C836 1.415 . S
C835 C834 1.355 . S
C835 C837 1.419 . S
C836 C834 1.415 . S
C836 C841 1.425 . S
C836 C843 1.409 . S
C837 H829 0.930 . S
C837 C835 1.419 . S
C837 C838 1.362 . S
C838 H830 0.930 . S
C838 C837 1.362 . S
C838 C841 1.409 . S
C839 H831 0.930 . S
C839 C840 1.355 . S
C839 C841 1.415 . S
C840 C839 1.355 . S
C840 C842 1.419 . S
C841 C836 1.425 . S
C841 C838 1.409 . S
C841 C839 1.415 . S
C842 H832 0.930 . S
C842 C840 1.419 . S
C842 C843 1.362 . S
C843 H833 0.930 . S
C843 C836 1.409 . S
C843 C842 1.362 . S
H844 C850 0.930 . S
H845 C853 0.930 . S
H846 C854 0.930 . S
H847 C855 0.930 . S
H848 C858 0.930 . S
H849 C859 0.930 . S
C850 H844 0.930 . S
C850 C851 1.355 . S
C850 C852 1.415 . S
C851 C850 1.355 . S
C851 C853 1.419 . S
C852 C850 1.415 . S
C852 C857 1.425 . S
C852 C859 1.409 . S
C853 H845 0.930 . S
C853 C851 1.419 . S
C853 C854 1.362 . S
C854 H846 0.930 . S
C854 C853 1.362 . S
C854 C857 1.409 . S
C855 H847 0.930 . S
C855 C856 1.355 . S
C855 C857 1.415 . S
C856 C855 1.355 . S
C856 C858 1.419 . S
C857 C852 1.425 . S
C857 C854 1.409 . S
C857 C855 1.415 . S
C858 H848 0.930 . S
C858 C856 1.419 . S
C858 C859 1.362 . S
C859 H849 0.930 . S
C859 C852 1.409 . S
C859 C858 1.362 . S
H860 C866 0.930 . S
H861 C869 0.930 . S
H862 C870 0.930 1_556 S
H863 C871 0.905 1_556 S
H864 C874 0.930 . S
H865 C875 0.930 . S
C866 H860 0.930 . S
C866 C867 1.355 . S
C866 C868 1.415 . S
C867 C866 1.355 . S
C867 C869 1.419 . S
C868 C866 1.415 . S
C868 C873 1.425 . S
C868 C875 1.409 . S
C869 H861 0.930 . S
C869 C867 1.419 . S
C869 C870 1.362 . S
C870 H862 0.930 1_554 S
C870 C869 1.362 . S
C870 C873 1.409 . S
C871 H863 0.905 1_554 S
C871 C872 1.355 . S
C871 C873 1.415 . S
C872 C871 1.355 . S
C872 C874 1.419 . S
C873 C868 1.425 . S
C873 C870 1.409 . S
C873 C871 1.415 . S
C874 H864 0.930 . S
C874 C872 1.419 . S
C874 C875 1.362 . S
C875 H865 0.930 . S
C875 C868 1.409 . S
C875 C874 1.362 . S
H876 C882 0.930 . S
H877 C885 0.930 . S
H878 C886 0.930 . S
H879 C887 0.959 . S
H880 C890 0.930 . S
H881 C891 0.930 . S
C882 H876 0.930 . S
C882 C883 1.355 . S
C882 C884 1.415 . S
C883 C882 1.355 . S
C883 C885 1.419 . S
C884 C882 1.415 . S
C884 C889 1.425 . S
C884 C891 1.409 . S
C885 H877 0.930 . S
C885 C883 1.419 . S
C885 C886 1.362 . S
C886 H878 0.930 . S
C886 C885 1.362 . S
C886 C889 1.409 . S
C887 H879 0.959 . S
C887 C888 1.355 . S
C887 C889 1.415 . S
C888 C887 1.355 . S
C888 C890 1.419 . S
C889 C884 1.425 . S
C889 C886 1.409 . S
C889 C887 1.415 . S
C890 H880 0.930 . S
C890 C888 1.419 . S
C890 C891 1.362 . S
C891 H881 0.930 . S
C891 C884 1.409 . S
C891 C890 1.362 . S
H892 C898 0.930 . S
H893 C901 0.930 . S
H894 C902 0.930 . S
H895 C903 0.930 . S
H896 C906 0.930 . S
H897 C907 0.930 . S
C898 H892 0.930 . S
C898 C899 1.355 . S
C898 C900 1.415 . S
C899 C898 1.355 . S
C899 C901 1.419 . S
C900 C898 1.415 . S
C900 C905 1.425 . S
C900 C907 1.409 . S
C901 H893 0.930 . S
C901 C899 1.419 . S
C901 C902 1.362 . S
C902 H894 0.930 . S
C902 C901 1.362 . S
C902 C905 1.409 . S
C903 H895 0.930 . S
C903 C904 1.355 . S
C903 C905 1.415 . S
C904 C903 1.355 . S
C904 C906 1.419 . S
C905 C900 1.425 . S
C905 C902 1.409 . S
C905 C903 1.415 . S
C906 H896 0.930 . S
C906 C904 1.419 . S
C906 C907 1.362 . S
C907 H897 0.930 . S
C907 C900 1.409 . S
C907 C906 1.362 . S
H908 C914 0.930 . S
H909 C917 0.930 . S
H910 C918 0.930 . S
H911 C919 0.930 . S
H912 C922 0.930 . S
H913 C923 0.930 . S
C914 H908 0.930 . S
C914 C915 1.355 . S
C914 C916 1.415 . S
C915 C914 1.355 . S
C915 C917 1.419 . S
C916 C914 1.415 . S
C916 C921 1.425 . S
C916 C923 1.409 . S
C917 H909 0.930 . S
C917 C915 1.419 . S
C917 C918 1.362 . S
C918 H910 0.930 . S
C918 C917 1.362 . S
C918 C921 1.409 . S
C919 H911 0.930 . S
C919 C920 1.355 . S
C919 C921 1.415 . S
C920 C919 1.355 . S
C920 C922 1.419 . S
C921 C916 1.425 . S
C921 C918 1.409 . S
C921 C919 1.415 . S
C922 H912 0.930 . S
C922 C920 1.419 . S
C922 C923 1.362 . S
C923 H913 0.930 . S
C923 C916 1.409 . S
C923 C922 1.362 . S
H924 C930 0.930 . S
H925 C933 0.930 . S
H926 C934 0.930 . S
H927 C935 0.930 . S
H928 C938 0.930 . S
H929 C939 0.930 . S
C930 H924 0.930 . S
C930 C931 1.355 . S
C930 C932 1.415 . S
C931 C930 1.355 . S
C931 C933 1.419 . S
C932 C930 1.415 . S
C932 C937 1.425 . S
C932 C939 1.409 . S
C933 H925 0.930 . S
C933 C931 1.419 . S
C933 C934 1.362 . S
C934 H926 0.930 . S
C934 C933 1.362 . S
C934 C937 1.409 . S
C935 H927 0.930 . S
C935 C936 1.355 . S
C935 C937 1.415 . S
C936 C935 1.355 . S
C936 C938 1.419 . S
C937 C932 1.425 . S
C937 C934 1.409 . S
C937 C935 1.415 . S
C938 H928 0.930 . S
C938 C936 1.419 . S
C938 C939 1.362 . S
C939 H929 0.930 . S
C939 C932 1.409 . S
C939 C938 1.362 . S
H940 C946 0.930 . S
H941 C949 0.930 . S
H942 C950 0.930 . S
H943 C951 0.930 . S
H944 C954 0.930 . S
H945 C955 0.930 . S
C946 H940 0.930 . S
C946 C947 1.355 . S
C946 C948 1.415 . S
C947 C946 1.355 . S
C947 C949 1.419 . S
C948 C946 1.415 . S
C948 C953 1.425 . S
C948 C955 1.409 . S
C949 H941 0.930 . S
C949 C947 1.419 . S
C949 C950 1.362 . S
C950 H942 0.930 . S
C950 C949 1.362 . S
C950 C953 1.409 . S
C951 H943 0.930 . S
C951 C952 1.355 . S
C951 C953 1.415 . S
C952 C951 1.355 . S
C952 C954 1.419 . S
C953 C948 1.425 . S
C953 C950 1.409 . S
C953 C951 1.415 . S
C954 H944 0.930 . S
C954 C952 1.419 . S
C954 C955 1.362 . S
C955 H945 0.930 . S
C955 C948 1.409 . S
C955 C954 1.362 . S
H956 C962 0.930 . S
H957 C965 0.930 . S
H958 C966 0.930 . S
H959 C967 0.930 . S
H960 C970 0.930 . S
H961 C971 0.930 . S
C962 H956 0.930 . S
C962 C963 1.355 . S
C962 C964 1.415 . S
C963 C962 1.355 . S
C963 C965 1.419 . S
C964 C962 1.415 . S
C964 C969 1.425 . S
C964 C971 1.409 . S
C965 H957 0.930 . S
C965 C963 1.419 . S
C965 C966 1.362 . S
C966 H958 0.930 . S
C966 C965 1.362 . S
C966 C969 1.409 . S
C967 H959 0.930 . S
C967 C968 1.355 . S
C967 C969 1.415 . S
C968 C967 1.355 . S
C968 C970 1.419 . S
C969 C964 1.425 . S
C969 C966 1.409 . S
C969 C967 1.415 . S
C970 H960 0.930 . S
C970 C968 1.419 . S
C970 C971 1.362 . S
C971 H961 0.930 . S
C971 C964 1.409 . S
C971 C970 1.362 . S
H972 C978 0.930 . S
H973 C981 0.930 . S
H974 C982 0.930 . S
H975 C983 0.930 . S
H976 C986 0.930 . S
H977 C987 0.930 . S
C978 H972 0.930 . S
C978 C979 1.355 . S
C978 C980 1.415 . S
C979 C978 1.355 . S
C979 C981 1.419 . S
C980 C978 1.415 . S
C980 C985 1.425 . S
C980 C987 1.409 . S
C981 H973 0.930 . S
C981 C979 1.419 . S
C981 C982 1.362 . S
C982 H974 0.930 . S
C982 C981 1.362 . S
C982 C985 1.409 . S
C983 H975 0.930 . S
C983 C984 1.355 . S
C983 C985 1.415 . S
C984 C983 1.355 . S
C984 C986 1.419 . S
C985 C980 1.425 . S
C985 C982 1.409 . S
C985 C983 1.415 . S
C986 H976 0.930 . S
C986 C984 1.419 . S
C986 C987 1.362 . S
C987 H977 0.930 . S
C987 C980 1.409 . S
C987 C986 1.362 . S
H988 C994 0.930 . S
H989 C997 0.930 . S
H990 C998 0.930 . S
H991 C999 0.930 . S
H992 C1002 0.930 . S
H993 C1003 0.930 . S
C994 H988 0.930 . S
C994 C995 1.355 . S
C994 C996 1.415 . S
C995 C994 1.355 . S
C995 C997 1.419 . S
C996 C994 1.415 . S
C996 C1001 1.425 . S
C996 C1003 1.409 . S
C997 H989 0.930 . S
C997 C995 1.419 . S
C997 C998 1.362 . S
C998 H990 0.930 . S
C998 C997 1.362 . S
C998 C1001 1.409 . S
C999 H991 0.930 . S
C999 C1000 1.355 . S
C999 C1001 1.415 . S
C1000 C999 1.355 . S
C1000 C1002 1.419 . S
C1001 C996 1.425 . S
C1001 C998 1.409 . S
C1001 C999 1.415 . S
C1002 H992 0.930 . S
C1002 C1000 1.419 . S
C1002 C1003 1.362 . S
C1003 H993 0.930 . S
C1003 C996 1.409 . S
C1003 C1002 1.362 . S
H1004 C1010 0.930 . S
H1005 C1013 0.930 . S
H1006 C1014 0.930 . S
H1007 C1015 0.930 . S
H1008 C1018 0.930 . S
H1009 C1019 0.930 . S
C1010 H1004 0.930 . S
C1010 C1011 1.355 . S
C1010 C1012 1.415 . S
C1011 C1010 1.355 . S
C1011 C1013 1.419 . S
C1012 C1010 1.415 . S
C1012 C1017 1.425 . S
C1012 C1019 1.409 . S
C1013 H1005 0.930 . S
C1013 C1011 1.419 . S
C1013 C1014 1.362 . S
C1014 H1006 0.930 . S
C1014 C1013 1.362 . S
C1014 C1017 1.409 . S
C1015 H1007 0.930 . S
C1015 C1016 1.355 . S
C1015 C1017 1.415 . S
C1016 C1015 1.355 . S
C1016 C1018 1.419 . S
C1017 C1012 1.425 . S
C1017 C1014 1.409 . S
C1017 C1015 1.415 . S
C1018 H1008 0.930 . S
C1018 C1016 1.419 . S
C1018 C1019 1.362 . S
C1019 H1009 0.930 . S
C1019 C1012 1.409 . S
C1019 C1018 1.362 . S
H1020 C1026 0.939 . S
H1021 C1029 0.930 . S
H1022 C1030 0.930 . S
H1023 C1031 0.930 . S
H1024 C1034 0.930 . S
H1025 C1035 0.930 . S
C1026 H1020 0.939 . S
C1026 C1027 1.355 1_455 S
C1026 C1028 1.415 . S
C1027 C1026 1.355 1_655 S
C1027 C1029 1.419 . S
C1028 C1026 1.415 . S
C1028 C1033 1.425 . S
C1028 C1035 1.409 . S
C1029 H1021 0.930 . S
C1029 C1027 1.419 . S
C1029 C1030 1.362 1_655 S
C1030 H1022 0.930 . S
C1030 C1029 1.362 1_455 S
C1030 C1033 1.409 . S
C1031 H1023 0.930 . S
C1031 C1032 1.355 . S
C1031 C1033 1.415 . S
C1032 C1031 1.355 . S
C1032 C1034 1.419 . S
C1033 C1028 1.425 . S
C1033 C1030 1.409 . S
C1033 C1031 1.415 . S
C1034 H1024 0.930 . S
C1034 C1032 1.419 . S
C1034 C1035 1.362 . S
C1035 H1025 0.930 . S
C1035 C1028 1.409 . S
C1035 C1034 1.362 . S
H1036 C1042 0.930 . S
H1037 C1045 0.930 . S
H1038 C1046 0.930 . S
H1039 C1047 0.930 . S
H1040 C1050 0.930 . S
H1041 C1051 0.930 . S
C1042 H1036 0.930 . S
C1042 C1043 1.355 . S
C1042 C1044 1.415 . S
C1043 C1042 1.355 . S
C1043 C1045 1.419 . S
C1044 C1042 1.415 . S
C1044 C1049 1.425 . S
C1044 C1051 1.409 . S
C1045 H1037 0.930 . S
C1045 C1043 1.419 . S
C1045 C1046 1.362 . S
C1046 H1038 0.930 . S
C1046 C1045 1.362 . S
C1046 C1049 1.409 . S
C1047 H1039 0.930 . S
C1047 C1048 1.355 . S
C1047 C1049 1.415 . S
C1048 C1047 1.355 . S
C1048 C1050 1.419 . S
C1049 C1044 1.425 . S
C1049 C1046 1.409 . S
C1049 C1047 1.415 . S
C1050 H1040 0.930 . S
C1050 C1048 1.419 . S
C1050 C1051 1.362 . S
C1051 H1041 0.930 . S
C1051 C1044 1.409 . S
C1051 C1050 1.362 . S
H1052 C1058 0.929 . S
H1053 C1061 0.930 . S
H1054 C1062 0.930 . S
H1055 C1063 0.930 . S
H1056 C1066 0.930 . S
H1057 C1067 0.930 . S
C1058 H1052 0.929 . S
C1058 C1059 1.360 . S
C1058 C1060 1.410 1_545 S
C1059 C1058 1.360 . S
C1059 C1061 1.419 . S
C1060 C1058 1.410 1_565 S
C1060 C1065 1.425 . S
C1060 C1067 1.409 . S
C1061 H1053 0.930 . S
C1061 C1059 1.419 . S
C1061 C1062 1.362 1_545 S
C1062 H1054 0.930 . S
C1062 C1061 1.362 1_565 S
C1062 C1065 1.409 . S
C1063 H1055 0.930 . S
C1063 C1064 1.355 . S
C1063 C1065 1.415 . S
C1064 C1063 1.355 . S
C1064 C1066 1.419 . S
C1065 C1060 1.425 . S
C1065 C1062 1.409 . S
C1065 C1063 1.415 . S
C1066 H1056 0.930 . S
C1066 C1064 1.419 . S
C1066 C1067 1.362 . S
C1067 H1057 0.930 . S
C1067 C1060 1.409 . S
C1067 C1066 1.362 . S
H1068 C1074 0.930 . S
H1069 C1077 0.930 . S
H1070 C1078 0.930 . S
H1071 C1079 0.930 . S
H1072 C1082 0.930 . S
H1073 C1083 0.930 . S
C1074 H1068 0.930 . S
C1074 C1075 1.355 . S
C1074 C1076 1.415 . S
C1075 C1074 1.355 . S
C1075 C1077 1.419 . S
C1076 C1074 1.415 . S
C1076 C1081 1.425 . S
C1076 C1083 1.409 . S
C1077 H1069 0.930 . S
C1077 C1075 1.419 . S
C1077 C1078 1.362 . S
C1078 H1070 0.930 . S
C1078 C1077 1.362 . S
C1078 C1081 1.409 . S
C1079 H1071 0.930 . S
C1079 C1080 1.355 . S
C1079 C1081 1.415 . S
C1080 C1079 1.355 . S
C1080 C1082 1.419 . S
C1081 C1076 1.425 . S
C1081 C1078 1.409 . S
C1081 C1079 1.415 . S
C1082 H1072 0.930 . S
C1082 C1080 1.419 . S
C1082 C1083 1.362 . S
C1083 H1073 0.930 . S
C1083 C1076 1.409 . S
C1083 C1082 1.362 . S
H1084 C1090 0.930 . S
H1085 C1093 0.930 . S
H1086 C1094 0.930 . S
H1087 C1095 0.930 . S
H1088 C1098 0.930 . S
H1089 C1099 0.930 . S
C1090 H1084 0.930 . S
C1090 C1091 1.355 . S
C1090 C1092 1.415 . S
C1091 C1090 1.355 . S
C1091 C1093 1.419 . S
C1092 C1090 1.415 . S
C1092 C1097 1.425 . S
C1092 C1099 1.409 . S
C1093 H1085 0.930 . S
C1093 C1091 1.419 . S
C1093 C1094 1.362 . S
C1094 H1086 0.930 . S
C1094 C1093 1.362 . S
C1094 C1097 1.409 . S
C1095 H1087 0.930 . S
C1095 C1096 1.355 . S
C1095 C1097 1.415 . S
C1096 C1095 1.355 . S
C1096 C1098 1.419 . S
C1097 C1092 1.425 . S
C1097 C1094 1.409 . S
C1097 C1095 1.415 . S
C1098 H1088 0.930 . S
C1098 C1096 1.419 . S
C1098 C1099 1.362 . S
C1099 H1089 0.930 . S
C1099 C1092 1.409 . S
C1099 C1098 1.362 . S
H1100 C1106 0.930 . S
H1101 C1109 0.930 . S
H1102 C1110 0.930 . S
H1103 C1111 0.930 . S
H1104 C1114 0.930 . S
H1105 C1115 0.930 . S
C1106 H1100 0.930 . S
C1106 C1107 1.355 . S
C1106 C1108 1.415 . S
C1107 C1106 1.355 . S
C1107 C1109 1.419 . S
C1108 C1106 1.415 . S
C1108 C1113 1.425 . S
C1108 C1115 1.409 . S
C1109 H1101 0.930 . S
C1109 C1107 1.419 . S
C1109 C1110 1.362 . S
C1110 H1102 0.930 . S
C1110 C1109 1.362 . S
C1110 C1113 1.409 . S
C1111 H1103 0.930 . S
C1111 C1112 1.355 . S
C1111 C1113 1.415 . S
C1112 C1111 1.355 . S
C1112 C1114 1.419 . S
C1113 C1108 1.425 . S
C1113 C1110 1.409 . S
C1113 C1111 1.415 . S
C1114 H1104 0.930 . S
C1114 C1112 1.419 . S
C1114 C1115 1.362 . S
C1115 H1105 0.930 . S
C1115 C1108 1.409 . S
C1115 C1114 1.362 . S
H1116 C1122 0.930 . S
H1117 C1125 0.930 . S
H1118 C1126 0.930 . S
H1119 C1127 0.930 . S
H1120 C1130 0.930 . S
H1121 C1131 0.930 . S
C1122 H1116 0.930 . S
C1122 C1123 1.355 . S
C1122 C1124 1.415 . S
C1123 C1122 1.355 . S
C1123 C1125 1.419 . S
C1124 C1122 1.415 . S
C1124 C1129 1.425 . S
C1124 C1131 1.409 . S
C1125 H1117 0.930 . S
C1125 C1123 1.419 . S
C1125 C1126 1.362 . S
C1126 H1118 0.930 . S
C1126 C1125 1.362 . S
C1126 C1129 1.409 . S
C1127 H1119 0.930 . S
C1127 C1128 1.355 . S
C1127 C1129 1.415 . S
C1128 C1127 1.355 . S
C1128 C1130 1.419 . S
C1129 C1124 1.425 . S
C1129 C1126 1.409 . S
C1129 C1127 1.415 . S
C1130 H1120 0.930 . S
C1130 C1128 1.419 . S
C1130 C1131 1.362 . S
C1131 H1121 0.930 . S
C1131 C1124 1.409 . S
C1131 C1130 1.362 . S
H1132 C1138 0.930 . S
H1133 C1141 0.930 . S
H1134 C1142 0.930 . S
H1135 C1143 0.930 . S
H1136 C1146 0.930 . S
H1137 C1147 0.930 . S
C1138 H1132 0.930 . S
C1138 C1139 1.355 . S
C1138 C1140 1.415 . S
C1139 C1138 1.355 . S
C1139 C1141 1.419 . S
C1140 C1138 1.415 . S
C1140 C1145 1.425 . S
C1140 C1147 1.409 . S
C1141 H1133 0.930 . S
C1141 C1139 1.419 . S
C1141 C1142 1.362 . S
C1142 H1134 0.930 . S
C1142 C1141 1.362 . S
C1142 C1145 1.409 . S
C1143 H1135 0.930 . S
C1143 C1144 1.355 . S
C1143 C1145 1.415 . S
C1144 C1143 1.355 . S
C1144 C1146 1.419 . S
C1145 C1140 1.425 . S
C1145 C1142 1.409 . S
C1145 C1143 1.415 . S
C1146 H1136 0.930 . S
C1146 C1144 1.419 . S
C1146 C1147 1.362 . S
C1147 H1137 0.930 . S
C1147 C1140 1.409 . S
C1147 C1146 1.362 . S
H1148 C1154 0.930 . S
H1149 C1157 0.930 . S
H1150 C1158 0.930 . S
H1151 C1159 0.930 . S
H1152 C1162 0.930 . S
H1153 C1163 0.930 . S
C1154 H1148 0.930 . S
C1154 C1155 1.355 . S
C1154 C1156 1.415 . S
C1155 C1154 1.355 . S
C1155 C1157 1.419 . S
C1156 C1154 1.415 . S
C1156 C1161 1.425 . S
C1156 C1163 1.409 . S
C1157 H1149 0.930 . S
C1157 C1155 1.419 . S
C1157 C1158 1.362 . S
C1158 H1150 0.930 . S
C1158 C1157 1.362 . S
C1158 C1161 1.409 . S
C1159 H1151 0.930 . S
C1159 C1160 1.355 . S
C1159 C1161 1.415 . S
C1160 C1159 1.355 . S
C1160 C1162 1.419 . S
C1161 C1156 1.425 . S
C1161 C1158 1.409 . S
C1161 C1159 1.415 . S
C1162 H1152 0.930 . S
C1162 C1160 1.419 . S
C1162 C1163 1.362 . S
C1163 H1153 0.930 . S
C1163 C1156 1.409 . S
C1163 C1162 1.362 . S
H1164 C1170 0.930 . S
H1165 C1173 0.930 . S
H1166 C1174 0.930 . S
H1167 C1175 0.930 . S
H1168 C1178 0.930 . S
H1169 C1179 0.930 . S
C1170 H1164 0.930 . S
C1170 C1171 1.355 1_565 S
C1170 C1172 1.415 . S
C1171 C1170 1.355 1_545 S
C1171 C1173 1.419 . S
C1172 C1170 1.415 . S
C1172 C1177 1.425 . S
C1172 C1179 1.409 . S
C1173 H1165 0.930 . S
C1173 C1171 1.419 . S
C1173 C1174 1.362 1_545 S
C1174 H1166 0.930 . S
C1174 C1173 1.362 1_565 S
C1174 C1177 1.409 . S
C1175 H1167 0.930 . S
C1175 C1176 1.355 . S
C1175 C1177 1.415 . S
C1176 C1175 1.355 . S
C1176 C1178 1.419 . S
C1177 C1172 1.425 . S
C1177 C1174 1.409 . S
C1177 C1175 1.415 . S
C1178 H1168 0.930 . S
C1178 C1176 1.419 . S
C1178 C1179 1.362 . S
C1179 H1169 0.930 . S
C1179 C1172 1.409 . S
C1179 C1178 1.362 . S
H1180 C1186 0.930 1_655 S
H1181 C1189 0.930 1_655 S
H1182 C1190 0.930 . S
H1183 C1191 0.930 . S
H1184 C1194 0.930 . S
H1185 C1195 0.930 . S
C1186 H1180 0.930 1_455 S
C1186 C1187 1.355 1_455 S
C1186 C1188 1.415 . S
C1187 C1186 1.355 1_655 S
C1187 C1189 1.419 1_655 S
C1188 C1186 1.415 . S
C1188 C1193 1.425 . S
C1188 C1195 1.409 . S
C1189 H1181 0.930 1_455 S
C1189 C1187 1.419 1_455 S
C1189 C1190 1.362 . S
C1190 H1182 0.930 . S
C1190 C1189 1.362 . S
C1190 C1193 1.409 . S
C1191 H1183 0.930 . S
C1191 C1192 1.355 . S
C1191 C1193 1.415 . S
C1192 C1191 1.355 . S
C1192 C1194 1.419 . S
C1193 C1188 1.425 . S
C1193 C1190 1.409 . S
C1193 C1191 1.415 . S
C1194 H1184 0.930 . S
C1194 C1192 1.419 . S
C1194 C1195 1.362 . S
C1195 H1185 0.930 . S
C1195 C1188 1.409 . S
C1195 C1194 1.362 . S
H1196 C1202 0.930 . S
H1197 C1205 0.930 . S
H1198 C1206 0.930 . S
H1199 C1207 0.930 . S
H1200 C1210 0.930 . S
H1201 C1211 0.930 . S
C1202 H1196 0.930 . S
C1202 C1203 1.355 . S
C1202 C1204 1.415 . S
C1203 C1202 1.355 . S
C1203 C1205 1.419 . S
C1204 C1202 1.415 . S
C1204 C1209 1.425 . S
C1204 C1211 1.409 . S
C1205 H1197 0.930 . S
C1205 C1203 1.419 . S
C1205 C1206 1.362 . S
C1206 H1198 0.930 . S
C1206 C1205 1.362 . S
C1206 C1209 1.409 . S
C1207 H1199 0.930 . S
C1207 C1208 1.355 . S
C1207 C1209 1.415 . S
C1208 C1207 1.355 . S
C1208 C1210 1.419 . S
C1209 C1204 1.425 . S
C1209 C1206 1.409 . S
C1209 C1207 1.415 . S
C1210 H1200 0.930 . S
C1210 C1208 1.419 . S
C1210 C1211 1.362 . S
C1211 H1201 0.930 . S
C1211 C1204 1.409 . S
C1211 C1210 1.362 . S
H1212 C1218 0.930 . S
H1213 C1221 0.930 . S
H1214 C1222 0.930 . S
H1215 C1223 0.930 . S
H1216 C1226 0.930 . S
H1217 C1227 0.930 . S
C1218 H1212 0.930 . S
C1218 C1219 1.355 . S
C1218 C1220 1.415 . S
C1219 C1218 1.355 . S
C1219 C1221 1.419 . S
C1220 C1218 1.415 . S
C1220 C1225 1.425 . S
C1220 C1227 1.409 . S
C1221 H1213 0.930 . S
C1221 C1219 1.419 . S
C1221 C1222 1.362 . S
C1222 H1214 0.930 . S
C1222 C1221 1.362 . S
C1222 C1225 1.409 . S
C1223 H1215 0.930 . S
C1223 C1224 1.355 . S
C1223 C1225 1.415 . S
C1224 C1223 1.355 . S
C1224 C1226 1.419 . S
C1225 C1220 1.425 . S
C1225 C1222 1.409 . S
C1225 C1223 1.415 . S
C1226 H1216 0.930 . S
C1226 C1224 1.419 . S
C1226 C1227 1.362 . S
C1227 H1217 0.930 . S
C1227 C1220 1.409 . S
C1227 C1226 1.362 . S
H1228 C1234 0.930 . S
H1229 C1237 0.930 . S
H1230 C1238 0.930 . S
H1231 C1239 0.930 . S
H1232 C1242 0.930 . S
H1233 C1243 0.930 . S
C1234 H1228 0.930 . S
C1234 C1235 1.355 . S
C1234 C1236 1.415 . S
C1235 C1234 1.355 . S
C1235 C1237 1.419 . S
C1236 C1234 1.415 . S
C1236 C1241 1.425 . S
C1236 C1243 1.409 . S
C1237 H1229 0.930 . S
C1237 C1235 1.419 . S
C1237 C1238 1.362 . S
C1238 H1230 0.930 . S
C1238 C1237 1.362 . S
C1238 C1241 1.409 . S
C1239 H1231 0.930 . S
C1239 C1240 1.355 . S
C1239 C1241 1.415 . S
C1240 C1239 1.355 . S
C1240 C1242 1.419 . S
C1241 C1236 1.425 . S
C1241 C1238 1.409 . S
C1241 C1239 1.415 . S
C1242 H1232 0.930 . S
C1242 C1240 1.419 . S
C1242 C1243 1.362 . S
C1243 H1233 0.930 . S
C1243 C1236 1.409 . S
C1243 C1242 1.362 . S
H1244 C1250 0.930 . S
H1245 C1253 0.930 . S
H1246 C1254 0.930 . S
H1247 C1255 0.930 . S
H1248 C1258 0.930 . S
H1249 C1259 0.930 . S
C1250 H1244 0.930 . S
C1250 C1251 1.355 . S
C1250 C1252 1.415 . S
C1251 C1250 1.355 . S
C1251 C1253 1.419 . S
C1252 C1250 1.415 . S
C1252 C1257 1.425 . S
C1252 C1259 1.409 . S
C1253 H1245 0.930 . S
C1253 C1251 1.419 . S
C1253 C1254 1.362 . S
C1254 H1246 0.930 . S
C1254 C1253 1.362 . S
C1254 C1257 1.409 . S
C1255 H1247 0.930 . S
C1255 C1256 1.355 . S
C1255 C1257 1.415 . S
C1256 C1255 1.355 . S
C1256 C1258 1.419 . S
C1257 C1252 1.425 . S
C1257 C1254 1.409 . S
C1257 C1255 1.415 . S
C1258 H1248 0.930 . S
C1258 C1256 1.419 . S
C1258 C1259 1.362 . S
C1259 H1249 0.930 . S
C1259 C1252 1.409 . S
C1259 C1258 1.362 . S
H1260 C1266 0.930 1_565 S
H1261 C1269 0.930 1_565 S
H1262 C1270 0.930 . S
H1263 C1271 0.930 . S
H1264 C1274 0.930 . S
H1265 C1275 0.930 . S
C1266 H1260 0.930 1_545 S
C1266 C1267 1.355 1_545 S
C1266 C1268 1.415 . S
C1267 C1266 1.355 1_565 S
C1267 C1269 1.419 1_565 S
C1268 C1266 1.415 . S
C1268 C1273 1.425 . S
C1268 C1275 1.409 . S
C1269 H1261 0.930 1_545 S
C1269 C1267 1.419 1_545 S
C1269 C1270 1.362 . S
C1270 H1262 0.930 . S
C1270 C1269 1.362 . S
C1270 C1273 1.409 . S
C1271 H1263 0.930 . S
C1271 C1272 1.355 . S
C1271 C1273 1.415 . S
C1272 C1271 1.355 . S
C1272 C1274 1.419 . S
C1273 C1268 1.425 . S
C1273 C1270 1.409 . S
C1273 C1271 1.415 . S
C1274 H1264 0.930 . S
C1274 C1272 1.419 . S
C1274 C1275 1.362 . S
C1275 H1265 0.930 . S
C1275 C1268 1.409 . S
C1275 C1274 1.362 . S
H1276 C1282 0.928 1_455 S
H1277 C1285 0.903 1_455 S
H1278 C1286 0.930 . S
H1279 C1287 0.930 . S
H1280 C1290 0.930 . S
H1281 C1291 0.930 . S
C1282 H1276 0.928 1_655 S
C1282 C1283 1.325 1_655 S
C1282 C1284 1.447 . S
C1283 C1282 1.325 1_455 S
C1283 C1285 1.419 1_455 S
C1284 C1282 1.447 . S
C1284 C1289 1.425 . S
C1284 C1291 1.409 . S
C1285 H1277 0.903 1_655 S
C1285 C1283 1.419 1_655 S
C1285 C1286 1.362 . S
C1286 H1278 0.930 . S
C1286 C1285 1.362 . S
C1286 C1289 1.409 . S
C1287 H1279 0.930 . S
C1287 C1288 1.355 . S
C1287 C1289 1.415 . S
C1288 C1287 1.355 . S
C1288 C1290 1.419 . S
C1289 C1284 1.425 . S
C1289 C1286 1.409 . S
C1289 C1287 1.415 . S
C1290 H1280 0.930 . S
C1290 C1288 1.419 . S
C1290 C1291 1.362 . S
C1291 H1281 0.930 . S
C1291 C1284 1.409 . S
C1291 C1290 1.362 . S
H1292 C1298 0.930 . S
H1293 C1301 0.930 . S
H1294 C1302 0.930 . S
H1295 C1303 0.930 . S
H1296 C1306 0.930 . S
H1297 C1307 0.930 . S
C1298 H1292 0.930 . S
C1298 C1299 1.355 . S
C1298 C1300 1.415 . S
C1299 C1298 1.355 . S
C1299 C1301 1.419 . S
C1300 C1298 1.415 . S
C1300 C1305 1.425 . S
C1300 C1307 1.409 . S
C1301 H1293 0.930 . S
C1301 C1299 1.419 . S
C1301 C1302 1.362 . S
C1302 H1294 0.930 . S
C1302 C1301 1.362 . S
C1302 C1305 1.409 . S
C1303 H1295 0.930 . S
C1303 C1304 1.355 . S
C1303 C1305 1.415 . S
C1304 C1303 1.355 . S
C1304 C1306 1.419 . S
C1305 C1300 1.425 . S
C1305 C1302 1.409 . S
C1305 C1303 1.415 . S
C1306 H1296 0.930 . S
C1306 C1304 1.419 . S
C1306 C1307 1.362 . S
C1307 H1297 0.930 . S
C1307 C1300 1.409 . S
C1307 C1306 1.362 . S
H1308 C1314 0.930 . S
H1309 C1317 0.930 . S
H1310 C1318 0.930 . S
H1311 C1319 0.930 . S
H1312 C1322 0.930 . S
H1313 C1323 0.930 . S
C1314 H1308 0.930 . S
C1314 C1315 1.355 . S
C1314 C1316 1.415 1_455 S
C1315 C1314 1.355 . S
C1315 C1317 1.419 . S
C1316 C1314 1.415 1_655 S
C1316 C1321 1.425 . S
C1316 C1323 1.409 . S
C1317 H1309 0.930 . S
C1317 C1315 1.419 . S
C1317 C1318 1.362 1_455 S
C1318 H1310 0.930 . S
C1318 C1317 1.362 1_655 S
C1318 C1321 1.409 . S
C1319 H1311 0.930 . S
C1319 C1320 1.355 . S
C1319 C1321 1.415 . S
C1320 C1319 1.355 . S
C1320 C1322 1.419 . S
C1321 C1316 1.425 . S
C1321 C1318 1.409 . S
C1321 C1319 1.415 . S
C1322 H1312 0.930 . S
C1322 C1320 1.419 . S
C1322 C1323 1.362 . S
C1323 H1313 0.930 . S
C1323 C1316 1.409 . S
C1323 C1322 1.362 . S
H1324 C1330 0.930 . S
H1325 C1333 0.930 . S
H1326 C1334 0.930 . S
H1327 C1335 0.930 . S
H1328 C1338 0.930 . S
H1329 C1339 0.930 . S
C1330 H1324 0.930 . S
C1330 C1331 1.355 . S
C1330 C1332 1.415 . S
C1331 C1330 1.355 . S
C1331 C1333 1.419 . S
C1332 C1330 1.415 . S
C1332 C1337 1.425 . S
C1332 C1339 1.409 . S
C1333 H1325 0.930 . S
C1333 C1331 1.419 . S
C1333 C1334 1.362 . S
C1334 H1326 0.930 . S
C1334 C1333 1.362 . S
C1334 C1337 1.409 . S
C1335 H1327 0.930 . S
C1335 C1336 1.355 . S
C1335 C1337 1.415 . S
C1336 C1335 1.355 . S
C1336 C1338 1.419 . S
C1337 C1332 1.425 . S
C1337 C1334 1.409 . S
C1337 C1335 1.415 . S
C1338 H1328 0.930 . S
C1338 C1336 1.419 . S
C1338 C1339 1.362 . S
C1339 H1329 0.930 . S
C1339 C1332 1.409 . S
C1339 C1338 1.362 . S
H1340 C1346 0.929 1_565 S
H1341 C1349 0.930 . S
H1342 C1350 0.930 . S
H1343 C1351 0.930 . S
H1344 C1354 0.930 . S
H1345 C1355 0.930 . S
C1346 H1340 0.929 1_545 S
C1346 C1347 1.357 1_545 S
C1346 C1348 1.412 . S
C1347 C1346 1.357 1_565 S
C1347 C1349 1.419 . S
C1348 C1346 1.412 . S
C1348 C1353 1.425 . S
C1348 C1355 1.409 . S
C1349 H1341 0.930 . S
C1349 C1347 1.419 . S
C1349 C1350 1.362 1_565 S
C1350 H1342 0.930 . S
C1350 C1349 1.362 1_545 S
C1350 C1353 1.409 . S
C1351 H1343 0.930 . S
C1351 C1352 1.355 . S
C1351 C1353 1.415 . S
C1352 C1351 1.355 . S
C1352 C1354 1.419 . S
C1353 C1348 1.425 . S
C1353 C1350 1.409 . S
C1353 C1351 1.415 . S
C1354 H1344 0.930 . S
C1354 C1352 1.419 . S
C1354 C1355 1.362 . S
C1355 H1345 0.930 . S
C1355 C1348 1.409 . S
C1355 C1354 1.362 . S
H1356 C1362 0.930 . S
H1357 C1365 0.930 . S
H1358 C1366 0.930 . S
H1359 C1367 0.930 . S
H1360 C1370 0.930 . S
H1361 C1371 0.930 . S
C1362 H1356 0.930 . S
C1362 C1363 1.355 . S
C1362 C1364 1.415 . S
C1363 C1362 1.355 . S
C1363 C1365 1.419 . S
C1364 C1362 1.415 . S
C1364 C1369 1.425 . S
C1364 C1371 1.409 . S
C1365 H1357 0.930 . S
C1365 C1363 1.419 . S
C1365 C1366 1.362 . S
C1366 H1358 0.930 . S
C1366 C1365 1.362 . S
C1366 C1369 1.409 . S
C1367 H1359 0.930 . S
C1367 C1368 1.355 . S
C1367 C1369 1.415 . S
C1368 C1367 1.355 . S
C1368 C1370 1.419 . S
C1369 C1364 1.425 . S
C1369 C1366 1.409 . S
C1369 C1367 1.415 . S
C1370 H1360 0.930 . S
C1370 C1368 1.419 . S
C1370 C1371 1.362 . S
C1371 H1361 0.930 . S
C1371 C1364 1.409 . S
C1371 C1370 1.362 . S
H1372 C1378 0.930 . S
H1373 C1381 0.930 . S
H1374 C1382 0.930 . S
H1375 C1383 0.930 . S
H1376 C1386 0.930 . S
H1377 C1387 0.930 . S
C1378 H1372 0.930 . S
C1378 C1379 1.355 . S
C1378 C1380 1.415 . S
C1379 C1378 1.355 . S
C1379 C1381 1.419 . S
C1380 C1378 1.415 . S
C1380 C1385 1.425 . S
C1380 C1387 1.409 . S
C1381 H1373 0.930 . S
C1381 C1379 1.419 . S
C1381 C1382 1.362 . S
C1382 H1374 0.930 . S
C1382 C1381 1.362 . S
C1382 C1385 1.409 . S
C1383 H1375 0.930 . S
C1383 C1384 1.355 . S
C1383 C1385 1.415 . S
C1384 C1383 1.355 . S
C1384 C1386 1.419 . S
C1385 C1380 1.425 . S
C1385 C1382 1.409 . S
C1385 C1383 1.415 . S
C1386 H1376 0.930 . S
C1386 C1384 1.419 . S
C1386 C1387 1.362 . S
C1387 H1377 0.930 . S
C1387 C1380 1.409 . S
C1387 C1386 1.362 . S
H1388 C1394 0.930 . S
H1389 C1397 0.930 . S
H1390 C1398 0.930 . S
H1391 C1399 0.930 . S
H1392 C1402 0.930 . S
H1393 C1403 0.930 . S
C1394 H1388 0.930 . S
C1394 C1395 1.355 . S
C1394 C1396 1.415 . S
C1395 C1394 1.355 . S
C1395 C1397 1.419 . S
C1396 C1394 1.415 . S
C1396 C1401 1.425 . S
C1396 C1403 1.409 . S
C1397 H1389 0.930 . S
C1397 C1395 1.419 . S
C1397 C1398 1.362 . S
C1398 H1390 0.930 . S
C1398 C1397 1.362 . S
C1398 C1401 1.409 . S
C1399 H1391 0.930 . S
C1399 C1400 1.355 . S
C1399 C1401 1.415 . S
C1400 C1399 1.355 . S
C1400 C1402 1.419 . S
C1401 C1396 1.425 . S
C1401 C1398 1.409 . S
C1401 C1399 1.415 . S
C1402 H1392 0.930 . S
C1402 C1400 1.419 . S
C1402 C1403 1.362 . S
C1403 H1393 0.930 . S
C1403 C1396 1.409 . S
C1403 C1402 1.362 . S
H1404 C1410 0.930 . S
H1405 C1413 0.930 . S
H1406 C1414 0.930 . S
H1407 C1415 0.930 . S
H1408 C1418 0.930 . S
H1409 C1419 0.930 . S
C1410 H1404 0.930 . S
C1410 C1411 1.355 . S
C1410 C1412 1.415 . S
C1411 C1410 1.355 . S
C1411 C1413 1.419 . S
C1412 C1410 1.415 . S
C1412 C1417 1.425 . S
C1412 C1419 1.409 1_565 S
C1413 H1405 0.930 . S
C1413 C1411 1.419 . S
C1413 C1414 1.362 . S
C1414 H1406 0.930 . S
C1414 C1413 1.362 . S
C1414 C1417 1.409 . S
C1415 H1407 0.930 . S
C1415 C1416 1.355 . S
C1415 C1417 1.415 . S
C1416 C1415 1.355 . S
C1416 C1418 1.419 1_565 S
C1417 C1412 1.425 . S
C1417 C1414 1.409 . S
C1417 C1415 1.415 . S
C1418 H1408 0.930 . S
C1418 C1416 1.419 1_545 S
C1418 C1419 1.362 . S
C1419 H1409 0.930 . S
C1419 C1412 1.409 1_545 S
C1419 C1418 1.362 . S
H1420 C1426 0.930 . S
H1421 C1429 0.930 . S
H1422 C1430 0.930 . S
H1423 C1431 0.930 . S
H1424 C1434 0.930 1_655 S
H1425 C1435 0.930 1_655 S
C1426 H1420 0.930 . S
C1426 C1427 1.355 . S
C1426 C1428 1.415 . S
C1427 C1426 1.355 . S
C1427 C1429 1.419 . S
C1428 C1426 1.415 . S
C1428 C1433 1.425 . S
C1428 C1435 1.409 . S
C1429 H1421 0.930 . S
C1429 C1427 1.419 . S
C1429 C1430 1.362 . S
C1430 H1422 0.930 . S
C1430 C1429 1.362 . S
C1430 C1433 1.409 . S
C1431 H1423 0.930 . S
C1431 C1432 1.355 . S
C1431 C1433 1.415 . S
C1432 C1431 1.355 . S
C1432 C1434 1.419 . S
C1433 C1428 1.425 . S
C1433 C1430 1.409 . S
C1433 C1431 1.415 . S
C1434 H1424 0.930 1_455 S
C1434 C1432 1.419 . S
C1434 C1435 1.362 . S
C1435 H1425 0.930 1_455 S
C1435 C1428 1.409 . S
C1435 C1434 1.362 . S
H1436 C1442 0.930 . S
H1437 C1445 0.930 . S
H1438 C1446 0.930 . S
H1439 C1447 0.930 . S
H1440 C1450 0.930 . S
H1441 C1451 0.930 . S
C1442 H1436 0.930 . S
C1442 C1443 1.355 . S
C1442 C1444 1.415 . S
C1443 C1442 1.355 . S
C1443 C1445 1.419 . S
C1444 C1442 1.415 . S
C1444 C1449 1.425 . S
C1444 C1451 1.409 . S
C1445 H1437 0.930 . S
C1445 C1443 1.419 . S
C1445 C1446 1.362 . S
C1446 H1438 0.930 . S
C1446 C1445 1.362 . S
C1446 C1449 1.409 . S
C1447 H1439 0.930 . S
C1447 C1448 1.355 . S
C1447 C1449 1.415 . S
C1448 C1447 1.355 . S
C1448 C1450 1.419 . S
C1449 C1444 1.425 . S
C1449 C1446 1.409 . S
C1449 C1447 1.415 . S
C1450 H1440 0.930 . S
C1450 C1448 1.419 . S
C1450 C1451 1.362 . S
C1451 H1441 0.930 . S
C1451 C1444 1.409 . S
C1451 C1450 1.362 . S
H1452 C1458 0.930 . S
H1453 C1461 0.930 . S
H1454 C1462 0.930 . S
H1455 C1463 0.930 . S
H1456 C1466 0.930 . S
H1457 C1467 0.930 . S
C1458 H1452 0.930 . S
C1458 C1459 1.355 . S
C1458 C1460 1.415 . S
C1459 C1458 1.355 . S
C1459 C1461 1.419 1_655 S
C1460 C1458 1.415 . S
C1460 C1465 1.425 . S
C1460 C1467 1.409 . S
C1461 H1453 0.930 . S
C1461 C1459 1.419 1_455 S
C1461 C1462 1.362 . S
C1462 H1454 0.930 . S
C1462 C1461 1.362 . S
C1462 C1465 1.409 1_455 S
C1463 H1455 0.930 . S
C1463 C1464 1.355 1_455 S
C1463 C1465 1.415 1_455 S
C1464 C1463 1.355 1_655 S
C1464 C1466 1.419 . S
C1465 C1460 1.425 . S
C1465 C1462 1.409 1_655 S
C1465 C1463 1.415 1_655 S
C1466 H1456 0.930 . S
C1466 C1464 1.419 . S
C1466 C1467 1.362 . S
C1467 H1457 0.930 . S
C1467 C1460 1.409 . S
C1467 C1466 1.362 . S
H1468 C1474 0.930 . S
H1469 C1477 0.930 . S
H1470 C1478 0.930 . S
H1471 C1479 0.930 . S
H1472 C1482 0.930 . S
H1473 C1483 0.930 . S
C1474 H1468 0.930 . S
C1474 C1475 1.355 . S
C1474 C1476 1.415 . S
C1475 C1474 1.355 . S
C1475 C1477 1.419 . S
C1476 C1474 1.415 . S
C1476 C1481 1.425 . S
C1476 C1483 1.409 . S
C1477 H1469 0.930 . S
C1477 C1475 1.419 . S
C1477 C1478 1.362 . S
C1478 H1470 0.930 . S
C1478 C1477 1.362 . S
C1478 C1481 1.409 . S
C1479 H1471 0.930 . S
C1479 C1480 1.355 . S
C1479 C1481 1.415 . S
C1480 C1479 1.355 . S
C1480 C1482 1.419 . S
C1481 C1476 1.425 . S
C1481 C1478 1.409 . S
C1481 C1479 1.415 . S
C1482 H1472 0.930 . S
C1482 C1480 1.419 . S
C1482 C1483 1.362 . S
C1483 H1473 0.930 . S
C1483 C1476 1.409 . S
C1483 C1482 1.362 . S
H1484 C1490 0.930 . S
H1485 C1493 0.930 . S
H1486 C1494 0.930 . S
H1487 C1495 0.930 . S
H1488 C1498 0.941 . S
H1489 C1499 0.930 1_565 S
C1490 H1484 0.930 . S
C1490 C1491 1.355 . S
C1490 C1492 1.415 . S
C1491 C1490 1.355 . S
C1491 C1493 1.419 . S
C1492 C1490 1.415 . S
C1492 C1497 1.425 . S
C1492 C1499 1.409 . S
C1493 H1485 0.930 . S
C1493 C1491 1.419 . S
C1493 C1494 1.362 . S
C1494 H1486 0.930 . S
C1494 C1493 1.362 . S
C1494 C1497 1.409 . S
C1495 H1487 0.930 . S
C1495 C1496 1.355 . S
C1495 C1497 1.415 . S
C1496 C1495 1.355 . S
C1496 C1498 1.409 1_545 S
C1497 C1492 1.425 . S
C1497 C1494 1.409 . S
C1497 C1495 1.415 . S
C1498 H1488 0.941 . S
C1498 C1496 1.409 1_565 S
C1498 C1499 1.362 1_565 S
C1499 H1489 0.930 1_545 S
C1499 C1492 1.409 . S
C1499 C1498 1.362 1_545 S
H1500 C1506 0.930 . S
H1501 C1509 0.930 . S
H1502 C1510 0.930 . S
H1503 C1511 0.930 . S
H1504 C1514 0.930 . S
H1505 C1515 0.930 . S
C1506 H1500 0.930 . S
C1506 C1507 1.355 . S
C1506 C1508 1.415 . S
C1507 C1506 1.355 . S
C1507 C1509 1.419 . S
C1508 C1506 1.415 . S
C1508 C1513 1.425 . S
C1508 C1515 1.409 . S
C1509 H1501 0.930 . S
C1509 C1507 1.419 . S
C1509 C1510 1.362 . S
C1510 H1502 0.930 . S
C1510 C1509 1.362 . S
C1510 C1513 1.409 . S
C1511 H1503 0.930 . S
C1511 C1512 1.355 . S
C1511 C1513 1.415 . S
C1512 C1511 1.355 . S
C1512 C1514 1.419 . S
C1513 C1508 1.425 . S
C1513 C1510 1.409 . S
C1513 C1511 1.415 . S
C1514 H1504 0.930 . S
C1514 C1512 1.419 . S
C1514 C1515 1.362 . S
C1515 H1505 0.930 . S
C1515 C1508 1.409 . S
C1515 C1514 1.362 . S
H1516 C1522 0.930 . S
H1517 C1525 0.930 . S
H1518 C1526 0.930 . S
H1519 C1527 0.930 . S
H1520 C1530 0.930 . S
H1521 C1531 0.930 . S
C1522 H1516 0.930 . S
C1522 C1523 1.355 . S
C1522 C1524 1.415 . S
C1523 C1522 1.355 . S
C1523 C1525 1.419 . S
C1524 C1522 1.415 . S
C1524 C1529 1.425 . S
C1524 C1531 1.409 . S
C1525 H1517 0.930 . S
C1525 C1523 1.419 . S
C1525 C1526 1.362 . S
C1526 H1518 0.930 . S
C1526 C1525 1.362 . S
C1526 C1529 1.409 . S
C1527 H1519 0.930 . S
C1527 C1528 1.355 . S
C1527 C1529 1.415 . S
C1528 C1527 1.355 . S
C1528 C1530 1.419 . S
C1529 C1524 1.425 . S
C1529 C1526 1.409 . S
C1529 C1527 1.415 . S
C1530 H1520 0.930 . S
C1530 C1528 1.419 . S
C1530 C1531 1.362 . S
C1531 H1521 0.930 . S
C1531 C1524 1.409 . S
C1531 C1530 1.362 . S
H1532 C1538 0.930 . S
H1533 C1541 0.930 . S
H1534 C1542 0.930 . S
H1535 C1543 0.930 . S
H1536 C1546 0.930 . S
H1537 C1547 0.930 . S
C1538 H1532 0.930 . S
C1538 C1539 1.355 . S
C1538 C1540 1.415 . S
C1539 C1538 1.355 . S
C1539 C1541 1.419 . S
C1540 C1538 1.415 . S
C1540 C1545 1.425 . S
C1540 C1547 1.409 . S
C1541 H1533 0.930 . S
C1541 C1539 1.419 . S
C1541 C1542 1.362 . S
C1542 H1534 0.930 . S
C1542 C1541 1.362 . S
C1542 C1545 1.409 . S
C1543 H1535 0.930 . S
C1543 C1544 1.355 . S
C1543 C1545 1.415 . S
C1544 C1543 1.355 . S
C1544 C1546 1.419 . S
C1545 C1540 1.425 . S
C1545 C1542 1.409 . S
C1545 C1543 1.415 . S
C1546 H1536 0.930 . S
C1546 C1544 1.419 . S
C1546 C1547 1.362 . S
C1547 H1537 0.930 . S
C1547 C1540 1.409 . S
C1547 C1546 1.362 . S
H1548 C1554 0.930 . S
H1549 C1557 0.930 . S
H1550 C1558 0.930 . S
H1551 C1559 0.930 . S
H1552 C1562 0.930 . S
H1553 C1563 0.930 . S
C1554 H1548 0.930 . S
C1554 C1555 1.355 . S
C1554 C1556 1.415 . S
C1555 C1554 1.355 . S
C1555 C1557 1.419 . S
C1556 C1554 1.415 . S
C1556 C1561 1.425 . S
C1556 C1563 1.409 . S
C1557 H1549 0.930 . S
C1557 C1555 1.419 . S
C1557 C1558 1.362 . S
C1558 H1550 0.930 . S
C1558 C1557 1.362 . S
C1558 C1561 1.409 . S
C1559 H1551 0.930 . S
C1559 C1560 1.355 . S
C1559 C1561 1.415 . S
C1560 C1559 1.355 . S
C1560 C1562 1.419 . S
C1561 C1556 1.425 . S
C1561 C1558 1.409 . S
C1561 C1559 1.415 . S
C1562 H1552 0.930 . S
C1562 C1560 1.419 . S
C1562 C1563 1.362 . S
C1563 H1553 0.930 . S
C1563 C1556 1.409 . S
C1563 C1562 1.362 . S
H1564 C1570 0.930 . S
H1565 C1573 0.930 . S
H1566 C1574 0.930 . S
H1567 C1575 0.930 . S
H1568 C1578 0.930 . S
H1569 C1579 0.930 . S
C1570 H1564 0.930 . S
C1570 C1571 1.355 . S
C1570 C1572 1.415 . S
C1571 C1570 1.355 . S
C1571 C1573 1.419 . S
C1572 C1570 1.415 . S
C1572 C1577 1.425 . S
C1572 C1579 1.409 . S
C1573 H1565 0.930 . S
C1573 C1571 1.419 . S
C1573 C1574 1.362 . S
C1574 H1566 0.930 . S
C1574 C1573 1.362 . S
C1574 C1577 1.409 . S
C1575 H1567 0.930 . S
C1575 C1576 1.355 . S
C1575 C1577 1.415 . S
C1576 C1575 1.355 . S
C1576 C1578 1.419 . S
C1577 C1572 1.425 . S
C1577 C1574 1.409 . S
C1577 C1575 1.415 . S
C1578 H1568 0.930 . S
C1578 C1576 1.419 . S
C1578 C1579 1.362 . S
C1579 H1569 0.930 . S
C1579 C1572 1.409 . S
C1579 C1578 1.362 . S
H1580 C1586 0.930 . S
H1581 C1589 0.930 . S
H1582 C1590 0.930 . S
H1583 C1591 0.930 . S
H1584 C1594 0.930 . S
H1585 C1595 0.930 . S
C1586 H1580 0.930 . S
C1586 C1587 1.355 . S
C1586 C1588 1.415 . S
C1587 C1586 1.355 . S
C1587 C1589 1.419 . S
C1588 C1586 1.415 . S
C1588 C1593 1.425 . S
C1588 C1595 1.409 . S
C1589 H1581 0.930 . S
C1589 C1587 1.419 . S
C1589 C1590 1.362 . S
C1590 H1582 0.930 . S
C1590 C1589 1.362 . S
C1590 C1593 1.409 . S
C1591 H1583 0.930 . S
C1591 C1592 1.355 . S
C1591 C1593 1.415 . S
C1592 C1591 1.355 . S
C1592 C1594 1.419 . S
C1593 C1588 1.425 . S
C1593 C1590 1.409 . S
C1593 C1591 1.415 . S
C1594 H1584 0.930 . S
C1594 C1592 1.419 . S
C1594 C1595 1.362 . S
C1595 H1585 0.930 . S
C1595 C1588 1.409 . S
C1595 C1594 1.362 . S
H1596 C1602 0.930 . S
H1597 C1605 0.930 . S
H1598 C1606 0.930 . S
H1599 C1607 0.930 . S
H1600 C1610 0.930 . S
H1601 C1611 0.930 . S
C1602 H1596 0.930 . S
C1602 C1603 1.355 . S
C1602 C1604 1.415 . S
C1603 C1602 1.355 . S
C1603 C1605 1.419 . S
C1604 C1602 1.415 . S
C1604 C1609 1.425 . S
C1604 C1611 1.409 . S
C1605 H1597 0.930 . S
C1605 C1603 1.419 . S
C1605 C1606 1.362 . S
C1606 H1598 0.930 . S
C1606 C1605 1.362 . S
C1606 C1609 1.409 . S
C1607 H1599 0.930 . S
C1607 C1608 1.355 . S
C1607 C1609 1.415 . S
C1608 C1607 1.355 . S
C1608 C1610 1.419 . S
C1609 C1604 1.425 . S
C1609 C1606 1.409 . S
C1609 C1607 1.415 . S
C1610 H1600 0.930 . S
C1610 C1608 1.419 . S
C1610 C1611 1.362 . S
C1611 H1601 0.930 . S
C1611 C1604 1.409 . S
C1611 C1610 1.362 . S
H1612 C1618 0.930 . S
H1613 C1621 0.930 . S
H1614 C1622 0.930 . S
H1615 C1623 0.930 . S
H1616 C1626 0.930 . S
H1617 C1627 0.930 . S
C1618 H1612 0.930 . S
C1618 C1619 1.355 . S
C1618 C1620 1.415 . S
C1619 C1618 1.355 . S
C1619 C1621 1.419 . S
C1620 C1618 1.415 . S
C1620 C1625 1.425 . S
C1620 C1627 1.409 . S
C1621 H1613 0.930 . S
C1621 C1619 1.419 . S
C1621 C1622 1.362 . S
C1622 H1614 0.930 . S
C1622 C1621 1.362 . S
C1622 C1625 1.409 . S
C1623 H1615 0.930 . S
C1623 C1624 1.355 . S
C1623 C1625 1.415 . S
C1624 C1623 1.355 . S
C1624 C1626 1.419 . S
C1625 C1620 1.425 . S
C1625 C1622 1.409 . S
C1625 C1623 1.415 . S
C1626 H1616 0.930 . S
C1626 C1624 1.419 . S
C1626 C1627 1.362 . S
C1627 H1617 0.930 . S
C1627 C1620 1.409 . S
C1627 C1626 1.362 . S
H1628 C1634 0.930 . S
H1629 C1637 0.930 . S
H1630 C1638 0.930 . S
H1631 C1639 0.930 . S
H1632 C1642 0.930 . S
H1633 C1643 0.930 . S
C1634 H1628 0.930 . S
C1634 C1635 1.355 . S
C1634 C1636 1.415 . S
C1635 C1634 1.355 . S
C1635 C1637 1.419 . S
C1636 C1634 1.415 . S
C1636 C1641 1.425 . S
C1636 C1643 1.409 . S
C1637 H1629 0.930 . S
C1637 C1635 1.419 . S
C1637 C1638 1.362 . S
C1638 H1630 0.930 . S
C1638 C1637 1.362 . S
C1638 C1641 1.409 . S
C1639 H1631 0.930 . S
C1639 C1640 1.355 . S
C1639 C1641 1.415 . S
C1640 C1639 1.355 . S
C1640 C1642 1.419 . S
C1641 C1636 1.425 . S
C1641 C1638 1.409 . S
C1641 C1639 1.415 . S
C1642 H1632 0.930 . S
C1642 C1640 1.419 . S
C1642 C1643 1.362 . S
C1643 H1633 0.930 . S
C1643 C1636 1.409 . S
C1643 C1642 1.362 . S
H1644 C1650 0.930 . S
H1645 C1653 0.930 . S
H1646 C1654 0.930 . S
H1647 C1655 0.930 . S
H1648 C1658 0.930 . S
H1649 C1659 0.930 . S
C1650 H1644 0.930 . S
C1650 C1651 1.355 . S
C1650 C1652 1.415 . S
C1651 C1650 1.355 . S
C1651 C1653 1.419 . S
C1652 C1650 1.415 . S
C1652 C1657 1.425 . S
C1652 C1659 1.409 . S
C1653 H1645 0.930 . S
C1653 C1651 1.419 . S
C1653 C1654 1.362 . S
C1654 H1646 0.930 . S
C1654 C1653 1.362 . S
C1654 C1657 1.409 . S
C1655 H1647 0.930 . S
C1655 C1656 1.355 . S
C1655 C1657 1.415 . S
C1656 C1655 1.355 . S
C1656 C1658 1.419 . S
C1657 C1652 1.425 . S
C1657 C1654 1.409 . S
C1657 C1655 1.415 . S
C1658 H1648 0.930 . S
C1658 C1656 1.419 . S
C1658 C1659 1.362 . S
C1659 H1649 0.930 . S
C1659 C1652 1.409 . S
C1659 C1658 1.362 . S
H1660 C1666 0.930 . S
H1661 C1669 0.930 . S
H1662 C1670 0.930 . S
H1663 C1671 0.930 . S
H1664 C1674 0.930 . S
H1665 C1675 0.930 . S
C1666 H1660 0.930 . S
C1666 C1667 1.355 . S
C1666 C1668 1.415 . S
C1667 C1666 1.355 . S
C1667 C1669 1.419 . S
C1668 C1666 1.415 . S
C1668 C1673 1.425 . S
C1668 C1675 1.409 . S
C1669 H1661 0.930 . S
C1669 C1667 1.419 . S
C1669 C1670 1.362 . S
C1670 H1662 0.930 . S
C1670 C1669 1.362 . S
C1670 C1673 1.409 . S
C1671 H1663 0.930 . S
C1671 C1672 1.355 . S
C1671 C1673 1.415 . S
C1672 C1671 1.355 . S
C1672 C1674 1.419 . S
C1673 C1668 1.425 . S
C1673 C1670 1.409 . S
C1673 C1671 1.415 . S
C1674 H1664 0.930 . S
C1674 C1672 1.419 . S
C1674 C1675 1.362 . S
C1675 H1665 0.930 . S
C1675 C1668 1.409 . S
C1675 C1674 1.362 . S
H1676 C1682 0.930 . S
H1677 C1685 0.930 . S
H1678 C1686 0.930 . S
H1679 C1687 0.930 . S
H1680 C1690 0.930 . S
H1681 C1691 0.930 . S
C1682 H1676 0.930 . S
C1682 C1683 1.355 . S
C1682 C1684 1.415 . S
C1683 C1682 1.355 . S
C1683 C1685 1.419 . S
C1684 C1682 1.415 . S
C1684 C1689 1.425 . S
C1684 C1691 1.409 . S
C1685 H1677 0.930 . S
C1685 C1683 1.419 . S
C1685 C1686 1.362 . S
C1686 H1678 0.930 . S
C1686 C1685 1.362 . S
C1686 C1689 1.409 . S
C1687 H1679 0.930 . S
C1687 C1688 1.355 . S
C1687 C1689 1.415 . S
C1688 C1687 1.355 . S
C1688 C1690 1.419 . S
C1689 C1684 1.425 . S
C1689 C1686 1.409 . S
C1689 C1687 1.415 . S
C1690 H1680 0.930 . S
C1690 C1688 1.419 . S
C1690 C1691 1.362 . S
C1691 H1681 0.930 . S
C1691 C1684 1.409 . S
C1691 C1690 1.362 . S
C835 C469 1.593 . S
C840 C654 1.573 . S
C851 C505 1.525 . S
C856 C674 1.478 . S
C867 C433 1.589 . S
C872 C697 1.578 . S
C883 C397 1.498 . S
C888 C677 1.492 . S
C904 C694 1.444 . S
C899 C325 1.440 . S
C915 C361 1.512 . S
C920 C657 1.496 . S
C936 C664 1.521 . S
C931 C421 1.573 . S
C952 C684 1.455 . S
C947 C349 1.511 . S
C963 C385 1.558 . S
C968 C689 1.536 . S
C979 C493 1.477 . S
C984 C669 1.452 . S
C995 C529 1.456 . S
C1000 C704 1.429 . S
C1016 C649 1.464 . S
C1011 C457 1.491 . S
C1032 C714 1.556 . S
C1027 C37 1.567 . S
C1043 C73 1.526 . S
C1048 C734 1.495 . S
C1059 C1 1.576 . S
C1064 C757 1.558 . S
C1075 C613 1.475 . S
C1080 C737 1.448 . S
C1091 C541 1.464 . S
C1096 C754 1.417 . S
C1107 C577 1.512 . S
C1112 C717 1.496 . S
C1123 C637 1.580 . S
C1128 C724 1.551 . S
C1139 C565 1.525 . S
C1144 C744 1.500 . S
C1160 C749 1.585 . S
C1155 C601 1.590 . S
C1171 C61 1.493 . S
C1176 C729 1.492 . S
C1192 C764 1.450 . S
C1187 C97 1.468 . S
C1203 C25 1.516 . S
C1208 C709 1.500 . S
C1224 C774 1.529 . S
C1219 C253 1.562 . S
C1235 C289 1.526 . S
C1240 C794 1.495 . S
C1256 C817 1.537 . S
C1251 C217 1.563 . S
C1272 C797 1.457 . S
C1267 C181 1.475 . S
C1288 C814 1.423 . S
C1283 C109 1.442 . S
C1299 C145 1.497 . S
C1304 C777 1.473 . S
C1315 C205 1.596 . S
C1320 C784 1.573 . S
C1331 C133 1.524 . S
C1336 C804 1.499 . S
C1352 C809 1.536 . S
C1347 C169 1.557 . S
C1363 C277 1.487 . S
C1368 C789 1.486 . S
C1379 C313 1.456 . S
C1384 C824 1.426 . S
C1395 C241 1.492 . S
C1400 C769 1.469 . S
C1411 C571 1.298 . S
C1416 C667 1.246 1_565 S
C1432 C687 1.588 . S
C1427 C607 1.668 . S
C1443 C643 1.521 . S
C1448 C696 1.451 . S
C1459 C247 1.684 . S
C1464 C676 1.638 . S
C1475 C283 1.506 . S
C1480 C707 1.455 . S
C1496 C656 1.280 1_545 S
C1491 C319 1.287 . S
C1507 C139 1.297 . S
C1512 C727 1.279 . S
C1523 C175 1.671 . S
C1528 C747 1.602 . S
C1539 C211 1.496 . S
C1544 C756 1.455 . S
C1555 C463 1.670 . S
C1560 C736 1.564 . S
C1576 C767 1.470 . S
C1571 C499 1.523 . S
C1587 C535 1.302 . S
C1592 C716 1.296 . S
C1603 C355 1.304 . S
C1608 C787 1.295 . S
C1619 C391 1.682 . S
C1624 C807 1.597 . S
C1640 C816 1.445 . S
C1635 C427 1.496 . S
C1651 C31 1.679 . S
C1656 C796 1.637 . S
C1667 C67 1.524 . S
C1672 C827 1.479 . S
C1683 C103 1.310 . S
C1688 C776 1.261 . S
