# Generated by pormake.
# Topology nom, (4,4)-cn, num edge types: 1
# Building blocks:
#     Node 0, Type 0, BuildingBlock: NAHDIM_clean_linker_0, # of connection points: 4
#     Node 1, Type 0, BuildingBlock: NAHDIM_clean_linker_0, # of connection points: 4
#     Node 2, Type 0, BuildingBlock: NAHDIM_clean_linker_0, # of connection points: 4
#     Node 3, Type 0, BuildingBlock: NAHDIM_clean_linker_0, # of connection points: 4
#     Node 4, Type 0, BuildingBlock: NAHDIM_clean_linker_0, # of connection points: 4
#     Node 5, Type 0, BuildingBlock: NAHDIM_clean_linker_0, # of connection points: 4
#     Node 6, Type 1, BuildingBlock: QUQFOY_clean_sbu_3, # of connection points: 4
#     Node 7, Type 1, BuildingBlock: QUQFOY_clean_sbu_3, # of connection points: 4
#     Node 8, Type 1, BuildingBlock: QUQFOY_clean_sbu_3, # of connection points: 4
#     Node 9, Type 1, BuildingBlock: QUQFOY_clean_sbu_3, # of connection points: 4
#     Node 10, Type 1, BuildingBlock: QUQFOY_clean_sbu_3, # of connection points: 4
#     Node 11, Type 1, BuildingBlock: QUQFOY_clean_sbu_3, # of connection points: 4
#     Edge 12, Type (0, 1), BuildingBlock: TEMPAE_clean_linker_10, # of connection points: 2
#     Edge 13, Type (0, 1), BuildingBlock: TEMPAE_clean_linker_10, # of connection points: 2
#     Edge 14, Type (0, 1), BuildingBlock: TEMPAE_clean_linker_10, # of connection points: 2
#     Edge 15, Type (0, 1), BuildingBlock: TEMPAE_clean_linker_10, # of connection points: 2
#     Edge 16, Type (0, 1), BuildingBlock: TEMPAE_clean_linker_10, # of connection points: 2
#     Edge 17, Type (0, 1), BuildingBlock: TEMPAE_clean_linker_10, # of connection points: 2
#     Edge 18, Type (0, 1), BuildingBlock: TEMPAE_clean_linker_10, # of connection points: 2
#     Edge 19, Type (0, 1), BuildingBlock: TEMPAE_clean_linker_10, # of connection points: 2
#     Edge 20, Type (0, 1), BuildingBlock: TEMPAE_clean_linker_10, # of connection points: 2
#     Edge 21, Type (0, 1), BuildingBlock: TEMPAE_clean_linker_10, # of connection points: 2
#     Edge 22, Type (0, 1), BuildingBlock: TEMPAE_clean_linker_10, # of connection points: 2
#     Edge 23, Type (0, 1), BuildingBlock: TEMPAE_clean_linker_10, # of connection points: 2
#     Edge 24, Type (0, 1), BuildingBlock: TEMPAE_clean_linker_10, # of connection points: 2
#     Edge 25, Type (0, 1), BuildingBlock: TEMPAE_clean_linker_10, # of connection points: 2
#     Edge 26, Type (0, 1), BuildingBlock: TEMPAE_clean_linker_10, # of connection points: 2
#     Edge 27, Type (0, 1), BuildingBlock: TEMPAE_clean_linker_10, # of connection points: 2
#     Edge 28, Type (0, 1), BuildingBlock: TEMPAE_clean_linker_10, # of connection points: 2
#     Edge 29, Type (0, 1), BuildingBlock: TEMPAE_clean_linker_10, # of connection points: 2
#     Edge 30, Type (0, 1), BuildingBlock: TEMPAE_clean_linker_10, # of connection points: 2
#     Edge 31, Type (0, 1), BuildingBlock: TEMPAE_clean_linker_10, # of connection points: 2
#     Edge 32, Type (0, 1), BuildingBlock: TEMPAE_clean_linker_10, # of connection points: 2
#     Edge 33, Type (0, 1), BuildingBlock: TEMPAE_clean_linker_10, # of connection points: 2
#     Edge 34, Type (0, 1), BuildingBlock: TEMPAE_clean_linker_10, # of connection points: 2
#     Edge 35, Type (0, 1), BuildingBlock: TEMPAE_clean_linker_10, # of connection points: 2
# Relax obj value: 0.048
# Max RMSD: 0.130
# Mean RMSD: 0.099
data_MOF--net-nom--node1-QUQFOY_clean_sbu_3--node2-NAHDIM_clean_linker_0--edge1-TEMPAE_clean_linker_10
_symmetry_space_group_name_H-M    P1
_symmetry_Int_Tables_number       1
_symmetry_cell_setting            triclinic
loop_
_symmetry_equiv_pos_as_xyz
'x, y, z'
_cell_length_a     58.201644
_cell_length_b     59.668492
_cell_length_c     70.92091
_cell_angle_alpha  90.100345
_cell_angle_beta   90.118816
_cell_angle_gamma 119.99113
loop_
_atom_site_label
_atom_site_type_symbol
_atom_site_fract_x
_atom_site_fract_y
_atom_site_fract_z
_atom_type_partial_charge
C0 C 0.16659 0.59983 0.24738 0.0
C1 C 0.17679 0.6086 0.26759 0.0
C2 C 0.13319 0.59221 0.2825 0.0
C3 C 0.12595 0.56596 0.28338 0.0
C4 C 0.09967 0.5469 0.28719 0.0
C5 C 0.08027 0.55423 0.29002 0.0
C6 C 0.08763 0.5807 0.28947 0.0
C7 C 0.11414 0.59936 0.28601 0.0
C8 C 0.09254 0.51888 0.28798 0.0
C9 C 0.06741 0.58923 0.29217 0.0
C10 C 0.91208 0.4582 0.18975 0.0
C11 C 0.92622 0.47198 0.20723 0.0
C12 C 0.96223 0.4774 0.22798 0.0
C13 C 0.96098 0.49553 0.24 0.0
C14 C 0.97692 0.50463 0.25618 0.0
C15 C 0.99375 0.49468 0.2609 0.0
C16 C 0.99503 0.47638 0.24889 0.0
C17 C 0.97944 0.46822 0.23244 0.0
C18 C 0.97568 0.52495 0.2682 0.0
C19 C 0.01268 0.46532 0.25351 0.0
C20 C 0.87811 0.42432 0.35388 0.0
C21 C 0.88705 0.44987 0.34815 0.0
C22 C 0.91425 0.46801 0.34756 0.0
C23 C 0.93284 0.46029 0.35258 0.0
C24 C 0.92383 0.43484 0.35905 0.0
C25 C 0.89649 0.41724 0.35981 0.0
C26 C 0.92313 0.49528 0.34123 0.0
C27 C 0.94309 0.42605 0.36467 0.0
C28 C 0.09204 0.62098 0.4261 0.0
C29 C 0.08693 0.59331 0.42417 0.0
C30 C 0.04539 0.55974 0.4116 0.0
C31 C 0.02662 0.56341 0.402 0.0
C32 C 0.01245 0.54747 0.38676 0.0
C33 C 0.01666 0.52686 0.38154 0.0
C34 C 0.03467 0.52226 0.39198 0.0
C35 C 0.04924 0.53912 0.40676 0.0
C36 C 0.9934 0.55299 0.37602 0.0
C37 C 0.03885 0.49989 0.38732 0.0
C38 C 0.05213 0.53414 0.29289 0.0
C39 C 0.03669 0.52226 0.27689 0.0
C40 C 0.00988 0.50358 0.27844 0.0
C41 C -0.00176 0.49585 0.29646 0.0
C42 C 0.97169 0.47617 0.29856 0.0
C43 C 0.95984 0.46999 0.31623 0.0
C44 C 0.97403 0.48342 0.33245 0.0
C45 C 0.96165 0.47856 0.35029 0.0
C46 C 0.9763 0.49225 0.36612 0.0
C47 C 0.0031 0.51105 0.36462 0.0
C48 C 0.01587 0.51616 0.34691 0.0
C49 C 0.0428 0.53499 0.34486 0.0
C50 C 0.05496 0.54033 0.32729 0.0
C51 C 0.04044 0.52771 0.31098 0.0
C52 C 0.01337 0.50849 0.31274 0.0
C53 C 0.00117 0.50247 0.33075 0.0
C54 C 0.81305 0.37778 0.33674 0.0
C55 C 0.83249 0.40573 0.34249 0.0
O56 O 0.1581 0.61117 0.27803 0.0
O57 O 0.05987 0.57644 0.42545 0.0
O58 O 0.85203 0.40597 0.35382 0.0
O59 O 0.94731 0.46844 0.21201 0.0
H60 H 0.18089 0.59418 0.2744 0.0
H61 H 0.14824 0.58061 0.24742 0.0
H62 H 0.16215 0.61396 0.2405 0.0
H63 H 0.18157 0.59802 0.23885 0.0
H64 H 0.14064 0.56021 0.28105 0.0
H65 H 0.11999 0.61968 0.28542 0.0
H66 H 0.07897 0.50812 0.27611 0.0
H67 H 0.11026 0.51652 0.28707 0.0
H68 H 0.08186 0.50998 0.3013 0.0
H69 H 0.076 0.61034 0.28989 0.0
H70 H 0.05055 0.57861 0.28225 0.0
H71 H 0.05937 0.58454 0.3067 0.0
H72 H 0.93121 0.49261 0.20776 0.0
H73 H 0.91533 0.47399 0.1796 0.0
H74 H 0.92564 0.45283 0.18216 0.0
H75 H 0.87432 0.43066 0.1993 0.0
H76 H 0.94783 0.50292 0.23682 0.0
H77 H 0.98033 0.45428 0.22309 0.0
H78 H 0.96429 0.51583 0.28121 0.0
H79 H 0.9959 0.54024 0.27247 0.0
H80 H 0.96581 0.53423 0.26073 0.0
H81 H 0.00935 0.44932 0.24381 0.0
H82 H 0.03377 0.4808 0.25248 0.0
H83 H 0.00917 0.458 0.26821 0.0
H84 H 0.8414 0.41659 0.32922 0.0
H85 H 0.87287 0.45573 0.34412 0.0
H86 H 0.88933 0.39756 0.36448 0.0
H87 H 0.93223 0.49843 0.32704 0.0
H88 H 0.90637 0.49918 0.34045 0.0
H89 H 0.93841 0.50949 0.35101 0.0
H90 H 0.93288 0.40532 0.36875 0.0
H91 H 0.95674 0.42908 0.35279 0.0
H92 H 0.95535 0.43787 0.37675 0.0
H93 H 0.09443 0.5916 0.41007 0.0
H94 H 0.11346 0.63523 0.42434 0.0
H95 H 0.08085 0.62471 0.41503 0.0
H96 H 0.08548 0.62389 0.44014 0.0
H97 H 0.0238 0.57938 0.40609 0.0
H98 H 0.06361 0.53631 0.41459 0.0
H99 H 0.99765 0.55428 0.36068 0.0
H100 H 0.97283 0.53686 0.37815 0.0
H101 H 0.99446 0.57126 0.38069 0.0
H102 H 0.05023 0.4966 0.39851 0.0
H103 H 0.01947 0.48189 0.38533 0.0
H104 H 0.04998 0.50387 0.37389 0.0
H105 H 0.04548 0.52821 0.26302 0.0
H106 H 0.95971 0.4655 0.28652 0.0
H107 H 0.93927 0.45483 0.31695 0.0
H108 H 0.96652 0.48879 0.37968 0.0
H109 H 0.05483 0.5459 0.3568 0.0
H110 H 0.07575 0.55493 0.32659 0.0
H111 H 0.80348 0.3657 0.34937 0.0
H112 H 0.79743 0.37698 0.32725 0.0
H113 H 0.82378 0.36955 0.32907 0.0
C114 C 0.40979 0.86624 0.57093 0.0
C115 C 0.41163 0.85227 0.55333 0.0
C116 C 0.42833 0.8883 0.5313 0.0
C117 C 0.45551 0.89647 0.53145 0.0
C118 C 0.4743 0.92175 0.52613 0.0
C119 C 0.46571 0.93924 0.52084 0.0
C120 C 0.43823 0.9308 0.52028 0.0
C121 C 0.41987 0.90519 0.52513 0.0
C122 C 0.50338 0.92989 0.52644 0.0
C123 C 0.42821 0.94895 0.51508 0.0
C124 C 0.54639 0.09254 0.62491 0.0
C125 C 0.53102 0.07387 0.60966 0.0
C126 C 0.53804 0.05316 0.58232 0.0
C127 C 0.51367 0.0466 0.57371 0.0
C128 C 0.50614 0.03294 0.55664 0.0
C129 C 0.52309 0.02526 0.54814 0.0
C130 C 0.54761 0.03178 0.55672 0.0
C131 C 0.55486 0.04587 0.57367 0.0
C132 C 0.47985 0.02637 0.54782 0.0
C133 C 0.56592 0.02357 0.54808 0.0
C134 C 0.58782 0.1351 0.45303 0.0
C135 C 0.5607 0.12536 0.45634 0.0
C136 C 0.54308 0.0986 0.45715 0.0
C137 C 0.55287 0.08136 0.45458 0.0
C138 C 0.57993 0.09114 0.4502 0.0
C139 C 0.59704 0.11798 0.44929 0.0
C140 C 0.51416 0.08875 0.46126 0.0
C141 C 0.59091 0.07326 0.44714 0.0
C142 C 0.40706 0.8908 0.40394 0.0
C143 C 0.43439 0.90959 0.39578 0.0
C144 C 0.45551 0.95531 0.40352 0.0
C145 C 0.44778 0.97189 0.41149 0.0
C146 C 0.46479 0.9918 0.42375 0.0
C147 C 0.4902 0.99527 0.42775 0.0
C148 C 0.49916 0.98038 0.41803 0.0
C149 C 0.48164 0.96044 0.40598 0.0
C150 C 0.45493 0.0079 0.43348 0.0
C151 C 0.52653 0.98432 0.42143 0.0
C152 C 0.48545 0.96678 0.51721 0.0
C153 C 0.49715 0.98278 0.53284 0.0
C154 C 0.51431 0.00933 0.53076 0.0
C155 C 0.5205 0.02036 0.51256 0.0
C156 C 0.53771 0.04702 0.50997 0.0
C157 C 0.54299 0.05778 0.49201 0.0
C158 C 0.53089 0.04236 0.47597 0.0
C159 C 0.53524 0.05325 0.4577 0.0
C160 C 0.52228 0.03749 0.44214 0.0
C161 C 0.50516 0.01094 0.44433 0.0
C162 C 0.50109 -0.00043 0.46239 0.0
C163 C 0.48436 0.97277 0.46499 0.0
C164 C 0.47978 0.96188 0.48286 0.0
C165 C 0.49126 0.97741 0.49888 0.0
C166 C 0.50871 0.00435 0.49657 0.0
C167 C 0.51374 0.01541 0.47828 0.0
C168 C 0.63075 0.19347 0.47616 0.0
C169 C 0.60447 0.17866 0.46544 0.0
O170 O 0.40978 0.86439 0.5372 0.0
O171 O 0.43707 0.93394 0.39424 0.0
O172 O 0.60565 0.1608 0.45355 0.0
O173 O 0.54594 0.06645 0.59887 0.0
H174 H 0.43091 0.85264 0.55358 0.0
H175 H 0.4266 0.88647 0.5713 0.0
H176 H 0.3909 0.86664 0.57089 0.0
H177 H 0.41079 0.85636 0.58391 0.0
H178 H 0.46213 0.88317 0.53557 0.0
H179 H 0.3988 0.89852 0.52491 0.0
H180 H 0.51327 0.94359 0.5383 0.0
H181 H 0.50659 0.91316 0.52822 0.0
H182 H 0.51305 0.9401 0.51318 0.0
H183 H 0.40664 0.94035 0.51783 0.0
H184 H 0.4391 0.96734 0.52314 0.0
H185 H 0.43172 0.95372 0.49987 0.0
H186 H 0.51158 0.05715 0.61403 0.0
H187 H 0.53725 0.08185 0.63838 0.0
H188 H 0.56531 0.09192 0.62668 0.0
H189 H 0.54591 0.12626 0.61711 0.0
H190 H 0.50033 0.052 0.58022 0.0
H191 H 0.57361 0.05101 0.58039 0.0
H192 H 0.48265 0.03233 0.53279 0.0
H193 H 0.46631 0.00511 0.54826 0.0
H194 H 0.47016 0.03587 0.55522 0.0
H195 H 0.58415 0.02985 0.55665 0.0
H196 H 0.55539 0.00218 0.54659 0.0
H197 H 0.57176 0.03189 0.53373 0.0
H198 H 0.58885 0.16874 0.47635 0.0
H199 H 0.5533 0.13862 0.45844 0.0
H200 H 0.61795 0.12576 0.44641 0.0
H201 H 0.50913 0.07925 0.47528 0.0
H202 H 0.50926 0.10451 0.46126 0.0
H203 H 0.50155 0.07399 0.45062 0.0
H204 H 0.61234 0.08392 0.44353 0.0
H205 H 0.58816 0.06179 0.46011 0.0
H206 H 0.57983 0.0594 0.43559 0.0
H207 H 0.44902 0.90969 0.40599 0.0
H208 H 0.40415 0.87093 0.40462 0.0
H209 H 0.40559 0.89696 0.41847 0.0
H210 H 0.39093 0.89044 0.39532 0.0
H211 H 0.42776 0.96812 0.40905 0.0
H212 H 0.48803 0.94832 0.39902 0.0
H213 H 0.4526 0.00343 0.44878 0.0
H214 H 0.46968 0.02878 0.43194 0.0
H215 H 0.43558 0.00421 0.42772 0.0
H216 H 0.53195 0.97413 0.41075 0.0
H217 H 0.54151 0.00527 0.42122 0.0
H218 H 0.52724 0.97679 0.43559 0.0
H219 H 0.49207 0.9746 0.5469 0.0
H220 H 0.54725 0.05987 0.52182 0.0
H221 H 0.55641 0.07842 0.4909 0.0
H222 H 0.52523 0.04604 0.42823 0.0
H223 H 0.47447 0.95983 0.45326 0.0
H224 H 0.46675 0.94117 0.48399 0.0
H225 H 0.6303 0.20794 0.48581 0.0
H226 H 0.63408 0.17979 0.48473 0.0
H227 H 0.64761 0.2036 0.46623 0.0
C228 C 0.58753 0.4312 0.72633 0.0
C229 C 0.58957 0.42154 0.70665 0.0
C230 C 0.56138 0.43467 0.6896 0.0
C231 C 0.57989 0.46127 0.68859 0.0
C232 C 0.57181 0.4791 0.6838 0.0
C233 C 0.54472 0.47017 0.68004 0.0
C234 C 0.52625 0.4433 0.68021 0.0
C235 C 0.53495 0.42588 0.68477 0.0
C236 C 0.59208 0.50758 0.68338 0.0
C237 C 0.49715 0.43308 0.67638 0.0
C238 C 0.46024 0.54651 0.78449 0.0
C239 C 0.46201 0.53435 0.7667 0.0
C240 C 0.49481 0.53322 0.74602 0.0
C241 C 0.47623 0.51532 0.73319 0.0
C242 C 0.48446 0.50904 0.71645 0.0
C243 C 0.51183 0.52164 0.71207 0.0
C244 C 0.53063 0.53967 0.72492 0.0
C245 C 0.52184 0.54498 0.74188 0.0
C246 C 0.46377 0.48887 0.7035 0.0
C247 C 0.55992 0.55345 0.72068 0.0
C248 C 0.46495 0.59542 0.62227 0.0
C249 C 0.44819 0.56936 0.62708 0.0
C250 C 0.45767 0.55187 0.62712 0.0
C251 C 0.48451 0.56075 0.62249 0.0
C252 C 0.50115 0.58678 0.61703 0.0
C253 C 0.491 0.60371 0.61678 0.0
C254 C 0.43911 0.524 0.63237 0.0
C255 C 0.52978 0.59683 0.61182 0.0
C256 C 0.46693 0.42886 0.52719 0.0
C257 C 0.49452 0.4384 0.53573 0.0
C258 C 0.50614 0.47573 0.55636 0.0
C259 C 0.48697 0.46244 0.5703 0.0
C260 C 0.48694 0.47488 0.58709 0.0
C261 C 0.50694 0.5009 0.5902 0.0
C262 C 0.52623 0.51432 0.57617 0.0
C263 C 0.52532 0.5016 0.55931 0.0
C264 C 0.46539 0.46019 0.60141 0.0
C265 C 0.54779 0.54208 0.57896 0.0
C266 C 0.53531 0.48901 0.67801 0.0
C267 C 0.53028 0.49847 0.69459 0.0
C268 C 0.5205 0.51557 0.69407 0.0
C269 C 0.51617 0.52408 0.67655 0.0
C270 C 0.50747 0.54219 0.67555 0.0
C271 C 0.50133 0.54897 0.6583 0.0
C272 C 0.50335 0.53765 0.64144 0.0
C273 C 0.49545 0.54306 0.62396 0.0
C274 C 0.49725 0.5311 0.60754 0.0
C275 C 0.50729 0.51416 0.60798 0.0
C276 C 0.51598 0.50904 0.62524 0.0
C277 C 0.52696 0.49273 0.62613 0.0
C278 C 0.53393 0.48659 0.64336 0.0
C279 C 0.52999 0.49639 0.66033 0.0
C280 C 0.52012 0.51381 0.65964 0.0
C281 C 0.51335 0.52033 0.64208 0.0
C282 C 0.44406 0.63907 0.64015 0.0
C283 C 0.43642 0.61176 0.63365 0.0
O284 O 0.56792 0.41694 0.6956 0.0
O285 O 0.50664 0.46459 0.53977 0.0
O286 O 0.45681 0.61313 0.62276 0.0
O287 O 0.48745 0.53956 0.76245 0.0
H288 H 0.60813 0.43629 0.69972 0.0
H289 H 0.58813 0.45004 0.72539 0.0
H290 H 0.56868 0.41702 0.73324 0.0
H291 H 0.60445 0.43405 0.73532 0.0
H292 H 0.60056 0.46834 0.69183 0.0
H293 H 0.52088 0.40531 0.68538 0.0
H294 H 0.58866 0.5174 0.69546 0.0
H295 H 0.61272 0.5112 0.68427 0.0
H296 H 0.58987 0.51644 0.67024 0.0
H297 H 0.4853 0.41165 0.67731 0.0
H298 H 0.48919 0.44151 0.68667 0.0
H299 H 0.49452 0.43902 0.66209 0.0
H300 H 0.44673 0.51347 0.76534 0.0
H301 H 0.44741 0.52982 0.794 0.0
H302 H 0.47912 0.55232 0.79255 0.0
H303 H 0.44923 0.57329 0.77548 0.0
H304 H 0.45523 0.50591 0.73616 0.0
H305 H 0.53603 0.55871 0.75187 0.0
H306 H 0.46097 0.49853 0.69107 0.0
H307 H 0.47023 0.47532 0.69832 0.0
H308 H 0.44428 0.47747 0.71059 0.0
H309 H 0.5717 0.5689 0.73115 0.0
H310 H 0.567 0.53929 0.72077 0.0
H311 H 0.56366 0.56217 0.7064 0.0
H312 H 0.43397 0.60029 0.64664 0.0
H313 H 0.42771 0.5626 0.63077 0.0
H314 H 0.50363 0.62378 0.61283 0.0
H315 H 0.445 0.51998 0.6463 0.0
H316 H 0.41815 0.51945 0.63323 0.0
H317 H 0.44048 0.51087 0.6219 0.0
H318 H 0.54048 0.61794 0.60889 0.0
H319 H 0.54014 0.59294 0.62342 0.0
H320 H 0.53076 0.5865 0.59909 0.0
H321 H 0.49237 0.42727 0.54883 0.0
H322 H 0.45747 0.40795 0.52363 0.0
H323 H 0.45398 0.43141 0.53739 0.0
H324 H 0.4682 0.43983 0.51422 0.0
H325 H 0.47172 0.44252 0.56811 0.0
H326 H 0.53988 0.51173 0.5484 0.0
H327 H 0.47393 0.45552 0.61377 0.0
H328 H 0.45696 0.47219 0.60647 0.0
H329 H 0.44904 0.44179 0.59558 0.0
H330 H 0.56328 0.54857 0.56788 0.0
H331 H 0.53891 0.55476 0.57853 0.0
H332 H 0.55733 0.5446 0.59298 0.0
H333 H 0.53324 0.49179 0.70812 0.0
H334 H 0.50507 0.55113 0.68812 0.0
H335 H 0.49446 0.56281 0.65841 0.0
H336 H 0.49046 0.5348 0.59426 0.0
H337 H 0.53002 0.4843 0.61352 0.0
H338 H 0.54196 0.47367 0.64327 0.0
H339 H 0.42829 0.63855 0.64926 0.0
H340 H 0.46277 0.64752 0.64845 0.0
H341 H 0.44712 0.65176 0.62784 0.0
C342 C 0.14354 0.53234 0.90668 0.0
C343 C 0.15632 0.54613 0.88814 0.0
C344 C 0.11767 0.52612 0.86752 0.0
C345 C 0.11203 0.54623 0.86539 0.0
C346 C 0.08666 0.54093 0.85988 0.0
C347 C 0.06661 0.51499 0.85667 0.0
C348 C 0.07239 0.49472 0.85863 0.0
C349 C 0.0981 0.50067 0.8637 0.0
C350 C 0.08123 0.563 0.85751 0.0
C351 C 0.05134 0.4668 0.85567 0.0
C352 C 0.98664 0.52171 0.96243 0.0
C353 C 0.96901 0.49884 0.94953 0.0
C354 C 0.96446 0.50415 0.91609 0.0
C355 C 0.96191 0.4808 0.90957 0.0
C356 C 0.97006 0.47893 0.89134 0.0
C357 C 0.98104 0.50092 0.8795 0.0
C358 C 0.98139 0.52373 0.88547 0.0
C359 C 0.97273 0.52492 0.90371 0.0
C360 C 0.96861 0.45404 0.88519 0.0
C361 C 0.99273 0.54743 0.87313 0.0
C362 C 0.87648 0.4606 0.77792 0.0
C363 C 0.88141 0.44199 0.78609 0.0
C364 C 0.90746 0.44695 0.78855 0.0
C365 C 0.92897 0.47145 0.78347 0.0
C366 C 0.92396 0.48992 0.77474 0.0
C367 C 0.89769 0.48397 0.77173 0.0
C368 C 0.9119 0.42617 0.7969 0.0
C369 C 0.94625 0.51612 0.76885 0.0
C370 C 0.12209 0.52144 0.74059 0.0
C371 C 0.10437 0.52523 0.72642 0.0
C372 C 0.05832 0.49844 0.73596 0.0
C373 C 0.04291 0.47403 0.74401 0.0
C374 C 0.02235 0.46924 0.75657 0.0
C375 C 0.01711 0.48939 0.76097 0.0
C376 C 0.03126 0.51347 0.75166 0.0
C377 C 0.05155 0.51765 0.73908 0.0
C378 C 0.00728 0.44318 0.76597 0.0
C379 C 0.02575 0.53519 0.75568 0.0
C380 C 0.0394 0.50898 0.85171 0.0
C381 C 0.02292 0.50788 0.86632 0.0
C382 C 0.99677 0.50168 0.86287 0.0
C383 C 0.98656 0.49617 0.8443 0.0
C384 C 0.96036 0.48984 0.84029 0.0
C385 C 0.95057 0.48434 0.82191 0.0
C386 C 0.96648 0.48449 0.80689 0.0
C387 C 0.95657 0.4783 0.7882 0.0
C388 C 0.97321 0.47934 0.77358 0.0
C389 C -0.00032 0.48666 0.77708 0.0
C390 C 0.0098 0.49251 0.79568 0.0
C391 C 0.03636 0.49987 0.79966 0.0
C392 C 0.04614 0.50541 0.81797 0.0
C393 C 0.02978 0.50387 0.83302 0.0
C394 C 0.00314 0.49712 0.82932 0.0
C395 C 0.99309 0.49127 0.81063 0.0
C396 C 0.81203 0.45365 0.78726 0.0
C397 C 0.8303 0.44211 0.78747 0.0
O398 O 0.14187 0.53062 0.87308 0.0
O399 O 0.07972 0.50295 0.7255 0.0
O400 O 0.85159 0.45668 0.77571 0.0
O401 O 0.96045 0.50757 0.93444 0.0
H402 H 0.15663 0.5649 0.88772 0.0
H403 H 0.12282 0.5285 0.90749 0.0
H404 H 0.14324 0.51361 0.90757 0.0
H405 H 0.15457 0.54454 0.919 0.0
H406 H 0.12746 0.56607 0.86771 0.0
H407 H 0.10287 0.48539 0.86527 0.0
H408 H 0.06696 0.56164 0.86843 0.0
H409 H 0.09954 0.58219 0.85879 0.0
H410 H 0.07201 0.56167 0.84352 0.0
H411 H 0.0585 0.45324 0.85939 0.0
H412 H 0.03361 0.46207 0.86432 0.0
H413 H 0.04502 0.46363 0.84066 0.0
H414 H 0.98188 0.49109 0.94459 0.0
H415 H 0.993 0.51495 0.97493 0.0
H416 H 0.00466 0.53579 0.95463 0.0
H417 H 0.97611 0.53188 0.96725 0.0
H418 H 0.95445 0.46435 0.91897 0.0
H419 H 0.9741 0.54269 0.9088 0.0
H420 H 0.96106 0.44915 0.8705 0.0
H421 H 0.98884 0.45653 0.88548 0.0
H422 H 0.95564 0.43763 0.89455 0.0
H423 H 0.98938 0.56278 0.87909 0.0
H424 H 0.01442 0.55535 0.87154 0.0
H425 H 0.98371 0.5422 0.85885 0.0
H426 H 0.83755 0.44355 0.80223 0.0
H427 H 0.86502 0.42354 0.79046 0.0
H428 H 0.89358 0.49798 0.76515 0.0
H429 H 0.91722 0.43049 0.81203 0.0
H430 H 0.89383 0.40675 0.79589 0.0
H431 H 0.92849 0.42552 0.7897 0.0
H432 H 0.93901 0.52958 0.76504 0.0
H433 H 0.96118 0.52503 0.78033 0.0
H434 H 0.95632 0.51374 0.75639 0.0
H435 H 0.1029 0.54193 0.73189 0.0
H436 H 0.14272 0.53802 0.74005 0.0
H437 H 0.11438 0.52035 0.75509 0.0
H438 H 0.12218 0.50317 0.73785 0.0
H439 H 0.04788 0.45911 0.74113 0.0
H440 H 0.06233 0.53607 0.73194 0.0
H441 H 0.01318 0.44512 0.78104 0.0
H442 H 0.98563 0.43603 0.76543 0.0
H443 H 0.01124 0.42861 0.75927 0.0
H444 H 0.03798 0.55251 0.74687 0.0
H445 H 0.00449 0.5285 0.75304 0.0
H446 H 0.02988 0.54088 0.77076 0.0
H447 H 0.03055 0.5118 0.88065 0.0
H448 H 0.9472 0.48915 0.85133 0.0
H449 H 0.93032 0.47986 0.81967 0.0
H450 H 0.9656 0.47486 0.75927 0.0
H451 H 0.04995 0.50135 0.78869 0.0
H452 H 0.06671 0.5109 0.82017 0.0
H453 H 0.80406 0.45267 0.77283 0.0
H454 H 0.7952 0.44305 0.79713 0.0
H455 H 0.82326 0.47424 0.79178 0.0
C456 C 0.46314 0.87365 0.90055 0.0
C457 C 0.44921 0.86018 0.91888 0.0
C458 C 0.46859 0.89707 0.94029 0.0
C459 C 0.44739 0.90162 0.94292 0.0
C460 C 0.452 0.92598 0.94884 0.0
C461 C 0.47836 0.94619 0.95191 0.0
C462 C 0.49973 0.94149 0.94948 0.0
C463 C 0.49445 0.91675 0.94407 0.0
C464 C 0.42872 0.93016 0.95172 0.0
C465 C 0.52815 0.96266 0.95226 0.0
C466 C 0.45877 0.0481 0.85101 0.0
C467 C 0.48343 0.05546 0.86298 0.0
C468 C 0.48306 0.05239 0.89705 0.0
C469 C 0.50564 0.05015 0.89998 0.0
C470 C 0.50828 0.03851 0.91639 0.0
C471 C 0.4876 0.02844 0.92987 0.0
C472 C 0.46505 0.03122 0.92706 0.0
C473 C 0.4634 0.04375 0.91083 0.0
C474 C 0.53291 0.0365 0.91911 0.0
C475 C 0.44228 0.02017 0.94083 0.0
C476 C 0.53656 0.13299 0.02804 0.0
C477 C 0.55583 0.12702 0.02196 0.0
C478 C 0.54985 0.10124 0.02035 0.0
C479 C 0.52395 0.08109 0.02463 0.0
C480 C 0.50494 0.08707 0.03172 0.0
C481 C 0.51165 0.11306 0.03355 0.0
C482 C 0.57092 0.09554 0.01346 0.0
C483 C 0.47725 0.06601 0.0366 0.0
C484 C 0.52124 0.90741 0.07432 0.0
C485 C 0.50547 0.92012 0.08098 0.0
C486 C 0.51947 0.96411 0.07121 0.0
C487 C 0.54189 0.98403 0.06259 0.0
C488 C 0.53966 0.00096 0.05003 0.0
C489 C 0.51442 0.99819 0.04653 0.0
C490 C 0.49198 0.97938 0.05646 0.0
C491 C 0.49471 0.96233 0.06863 0.0
C492 C 0.56407 0.02105 0.03989 0.0
C493 C 0.465 0.97664 0.05363 0.0
C494 C 0.48364 0.97247 0.95701 0.0
C495 C 0.48297 0.98802 0.94258 0.0
C496 C 0.4887 0.01334 0.9461 0.0
C497 C 0.49537 0.02361 0.96457 0.0
C498 C 0.50173 0.04915 0.96857 0.0
C499 C 0.50815 0.059 0.98682 0.0
C500 C 0.50897 0.04385 0.00171 0.0
C501 C 0.51622 0.05392 0.02022 0.0
C502 C 0.51717 0.03848 0.03465 0.0
C503 C 0.51116 0.01308 0.03107 0.0
C504 C 0.50366 0.00257 0.0127 0.0
C505 C 0.4974 0.97703 0.00865 0.0
C506 C 0.49039 0.96698 0.99051 0.0
C507 C 0.48987 0.98223 0.97562 0.0
C508 C 0.49587 0.00794 0.97939 0.0
C509 C 0.50269 0.01808 -0.00203 0.0
C510 C 0.5454 0.19368 0.01118 0.0
C511 C 0.55774 0.17702 0.01607 0.0
O512 O 0.46475 0.8739 0.93421 0.0
O513 O 0.52227 0.94669 0.08171 0.0
O514 O 0.54115 0.15763 0.02835 0.0
O515 O 0.47952 0.06231 0.88087 0.0
H516 H 0.42968 0.85926 0.91951 0.0
H517 H 0.46599 0.89349 0.9001 0.0
H518 H 0.48287 0.87503 0.89957 0.0
H519 H 0.45096 0.8628 0.88812 0.0
H520 H 0.42725 0.88612 0.94064 0.0
H521 H 0.5106 0.91286 0.94215 0.0
H522 H 0.42893 0.94347 0.94072 0.0
H523 H 0.40944 0.91179 0.95093 0.0
H524 H 0.43031 0.93939 0.96565 0.0
H525 H 0.54249 0.95664 0.94763 0.0
H526 H 0.53204 0.98022 0.94429 0.0
H527 H 0.53176 0.96802 0.9674 0.0
H528 H 0.48569 0.03798 0.86369 0.0
H529 H 0.46105 0.0419 0.83669 0.0
H530 H 0.44111 0.03177 0.85771 0.0
H531 H 0.45534 0.06477 0.84972 0.0
H532 H 0.5211 0.05742 0.88941 0.0
H533 H 0.44614 0.04578 0.90839 0.0
H534 H 0.54065 0.04223 0.9337 0.0
H535 H 0.52789 0.0161 0.91701 0.0
H536 H 0.5488 0.04881 0.909 0.0
H537 H 0.42509 0.02166 0.9356 0.0
H538 H 0.43564 -0.00049 0.94363 0.0
H539 H 0.44892 0.03073 0.95444 0.0
H540 H 0.55919 0.16833 0.0025 0.0
H541 H 0.57546 0.1424 0.01826 0.0
H542 H 0.49707 0.11793 0.0385 0.0
H543 H 0.56582 0.0873 -0.001 0.0
H544 H 0.59087 0.11318 0.0131 0.0
H545 H 0.57179 0.08094 0.02266 0.0
H546 H 0.46484 0.07387 0.0421 0.0
H547 H 0.46749 0.05411 0.02388 0.0
H548 H 0.47819 0.05301 0.04738 0.0
H549 H 0.48925 0.91492 0.0705 0.0
H550 H 0.50815 0.88609 0.07328 0.0
H551 H 0.52969 0.91486 0.06015 0.0
H552 H 0.53778 0.91178 0.08425 0.0
H553 H 0.56097 0.98545 0.06502 0.0
H554 H 0.47753 0.94745 0.07596 0.0
H555 H 0.56124 0.01791 0.02442 0.0
H556 H 0.56719 0.04063 0.04296 0.0
H557 H 0.5822 0.02053 0.04408 0.0
H558 H 0.45047 0.96372 0.0643 0.0
H559 H 0.46645 0.99591 0.05438 0.0
H560 H 0.45739 0.96848 0.03941 0.0
H561 H 0.47811 0.98033 0.92834 0.0
H562 H 0.50177 0.06181 0.95764 0.0
H563 H 0.51266 0.07875 0.98904 0.0
H564 H 0.52318 0.04649 0.04873 0.0
H565 H 0.49783 0.96445 0.01944 0.0
H566 H 0.48562 0.94716 0.98827 0.0
H567 H 0.55847 0.20942 0.00136 0.0
H568 H 0.52591 0.18158 0.00415 0.0
H569 H 0.54223 0.20238 0.02408 0.0
C570 C 0.62173 0.47491 0.07892 0.0
C571 C 0.61602 0.45296 0.09278 0.0
C572 C 0.59619 0.4667 0.11679 0.0
C573 C 0.56899 0.44966 0.11429 0.0
C574 C 0.55047 0.45729 0.1189 0.0
C575 C 0.55952 0.48267 0.12572 0.0
C576 C 0.58704 0.49972 0.12859 0.0
C577 C 0.60497 0.49119 0.12451 0.0
C578 C 0.52131 0.43845 0.11601 0.0
C579 C 0.59769 0.52722 0.13528 0.0
C580 C 0.48937 0.58331 0.03088 0.0
C581 C 0.50101 0.57882 0.04809 0.0
C582 C 0.50451 0.54459 0.06377 0.0
C583 C 0.52322 0.56004 0.07747 0.0
C584 C 0.52733 0.54896 0.09356 0.0
C585 C 0.51182 0.52189 0.09628 0.0
C586 C 0.49325 0.50618 0.08237 0.0
C587 C 0.49012 0.51777 0.06609 0.0
C588 C 0.54835 0.56628 0.10761 0.0
C589 C 0.47654 0.47728 0.0848 0.0
C590 C 0.43768 0.56406 0.18793 0.0
C591 C 0.46494 0.58 0.1846 0.0
C592 C 0.48193 0.56965 0.18445 0.0
C593 C 0.47135 0.54285 0.1876 0.0
C594 C 0.44413 0.52705 0.19189 0.0
C595 C 0.42768 0.53799 0.19219 0.0
C596 C 0.51105 0.58721 0.18047 0.0
C597 C 0.43229 0.49848 0.19556 0.0
C598 C 0.60517 0.486 0.23526 0.0
C599 C 0.58202 0.47977 0.24857 0.0
C600 C 0.56281 0.50668 0.24181 0.0
C601 C 0.57252 0.53064 0.23308 0.0
C602 C 0.55655 0.53503 0.22054 0.0
C603 C 0.53024 0.51498 0.21701 0.0
C604 C 0.51947 0.4918 0.2275 0.0
C605 C 0.53595 0.48787 0.23985 0.0
C606 C 0.5684 0.56029 0.20997 0.0
C607 C 0.49123 0.47045 0.22452 0.0
C608 C 0.54047 0.49208 0.12836 0.0
C609 C 0.53198 0.49929 0.11224 0.0
C610 C 0.51576 0.51027 0.11354 0.0
C611 C 0.50697 0.51348 0.13136 0.0
C612 C 0.48977 0.52353 0.13311 0.0
C613 C 0.48297 0.52859 0.15077 0.0
C614 C 0.4935 0.5242 0.16733 0.0
C615 C 0.48835 0.53104 0.18531 0.0
C616 C 0.49997 0.5273 0.2014 0.0
C617 C 0.51621 0.51632 0.20001 0.0
C618 C 0.52068 0.50836 0.18226 0.0
C619 C 0.53614 0.49634 0.18051 0.0
C620 C 0.54175 0.48999 0.16291 0.0
C621 C 0.53281 0.49614 0.14637 0.0
C622 C 0.51624 0.50718 0.14785 0.0
C623 C 0.50988 0.51298 0.16584 0.0
C624 C 0.39611 0.58162 0.16414 0.0
C625 C 0.42225 0.59214 0.17499 0.0
O626 O 0.61443 0.46044 0.11104 0.0
O627 O 0.58 0.50173 0.2513 0.0
O628 O 0.42046 0.57311 0.18707 0.0
O629 O 0.4998 0.55502 0.0483 0.0
H630 H 0.59688 0.43556 0.08885 0.0
H631 H 0.60524 0.47921 0.07903 0.0
H632 H 0.64042 0.49277 0.08287 0.0
H633 H 0.62356 0.46929 0.0643 0.0
H634 H 0.56229 0.43048 0.10865 0.0
H635 H 0.6261 0.50409 0.12637 0.0
H636 H 0.51407 0.44451 0.10362 0.0
H637 H 0.51728 0.41842 0.11352 0.0
H638 H 0.50982 0.43849 0.12849 0.0
H639 H 0.61956 0.53907 0.13367 0.0
H640 H 0.58835 0.53662 0.12733 0.0
H641 H 0.5929 0.5272 0.15041 0.0
H642 H 0.52079 0.59535 0.05209 0.0
H643 H 0.50643 0.60038 0.02382 0.0
H644 H 0.48801 0.56886 0.02005 0.0
H645 H 0.45599 0.58428 0.04094 0.0
H646 H 0.53501 0.58075 0.07556 0.0
H647 H 0.47586 0.50602 0.05535 0.0
H648 H 0.53869 0.56817 0.12051 0.0
H649 H 0.56078 0.55779 0.11177 0.0
H650 H 0.5615 0.58598 0.10191 0.0
H651 H 0.46127 0.46811 0.07356 0.0
H652 H 0.4895 0.46856 0.0845 0.0
H653 H 0.46653 0.47277 0.09872 0.0
H654 H 0.43798 0.59703 0.16423 0.0
H655 H 0.47294 0.60047 0.18209 0.0
H656 H 0.40669 0.52599 0.19508 0.0
H657 H 0.5159 0.58232 0.16648 0.0
H658 H 0.51667 0.60796 0.18044 0.0
H659 H 0.52323 0.58427 0.19117 0.0
H660 H 0.4107 0.48882 0.19858 0.0
H661 H 0.4354 0.48902 0.1831 0.0
H662 H 0.4425 0.49553 0.20773 0.0
H663 H 0.56402 0.46418 0.24144 0.0
H664 H 0.60821 0.4691 0.234 0.0
H665 H 0.60063 0.49052 0.22101 0.0
H666 H 0.62383 0.50305 0.24026 0.0
H667 H 0.59315 0.54524 0.23511 0.0
H668 H 0.52816 0.46977 0.24742 0.0
H669 H 0.57139 0.55691 0.195 0.0
H670 H 0.55462 0.56809 0.21021 0.0
H671 H 0.58781 0.57501 0.21598 0.0
H672 H 0.48475 0.45528 0.23553 0.0
H673 H 0.47766 0.4785 0.22453 0.0
H674 H 0.48949 0.46131 0.21054 0.0
H675 H 0.53911 0.49744 0.09852 0.0
H676 H 0.48161 0.52782 0.12082 0.0
H677 H 0.46987 0.53656 0.15124 0.0
H678 H 0.49667 0.53335 0.21507 0.0
H679 H 0.54429 0.49183 0.1927 0.0
H680 H 0.55381 0.48087 0.16241 0.0
H681 H 0.39706 0.59642 0.15418 0.0
H682 H 0.39235 0.56426 0.15588 0.0
H683 H 0.37928 0.57604 0.17399 0.0
C684 C 0.691 0.43143 0.40078 0.0
O685 O 0.69187 0.45168 0.40726 0.0
Cd686 Cd 0.65003 0.44901 0.41592 0.0
O687 O 0.6691 0.41026 0.40038 0.0
Cd688 Cd 0.6225 0.38983 0.4088 0.0
C689 C 0.61479 0.42436 0.37491 0.0
O690 O 0.62356 0.41401 0.43719 0.0
O691 O 0.58565 0.39051 0.42324 0.0
O692 O 0.63023 0.35887 0.4247 0.0
C693 C 0.59851 0.40454 0.43721 0.0
O694 O 0.62553 0.44305 0.38663 0.0
C695 C 0.61237 0.33891 0.41634 0.0
O696 O 0.61289 0.40257 0.37846 0.0
O697 O 0.59862 0.34242 0.40395 0.0
C698 C 0.26595 0.57533 0.572 0.0
O699 O 0.24718 0.55409 0.56572 0.0
Cd700 Cd 0.20571 0.55226 0.55702 0.0
O701 O 0.26331 0.59519 0.57253 0.0
Cd702 Cd 0.23249 0.61011 0.56469 0.0
C703 C 0.19017 0.5714 0.59794 0.0
O704 O 0.21178 0.58609 0.5353 0.0
O705 O 0.19398 0.60613 0.5492 0.0
O706 O 0.26972 0.64763 0.55061 0.0
C707 C 0.19502 0.59388 0.5349 0.0
O708 O 0.18369 0.55311 0.58611 0.0
C709 C 0.26849 0.66423 0.56112 0.0
O710 O 0.20896 0.59416 0.59442 0.0
O711 O 0.2502 0.65566 0.57342 0.0
C712 C 0.69507 0.26159 0.74848 0.0
O713 O 0.69768 0.2418 0.74692 0.0
Cd714 Cd 0.65847 0.20124 0.739 0.0
O715 O 0.6725 0.25956 0.74593 0.0
Cd716 Cd 0.62639 0.2289 0.73779 0.0
C717 C 0.61395 0.18758 0.77416 0.0
O718 O 0.6354 0.20667 0.7121 0.0
O719 O 0.59427 0.19246 0.7199 0.0
O720 O 0.62331 0.26077 0.7182 0.0
C721 C 0.61086 0.19154 0.70884 0.0
O722 O 0.63106 0.18275 0.76704 0.0
C723 C 0.60914 0.26504 0.72957 0.0
O724 O 0.60883 0.20387 0.76656 0.0
O725 O 0.60231 0.252 0.74471 0.0
C726 C 0.34219 0.57766 0.9011 0.0
O727 O 0.34592 0.5597 0.90714 0.0
Cd728 Cd 0.38851 0.56735 0.91688 0.0
O729 O 0.36118 0.60098 0.90052 0.0
Cd730 Cd 0.40863 0.6261 0.90922 0.0
C731 C 0.4242 0.59467 0.87672 0.0
O732 O 0.40297 0.60307 0.93822 0.0
O733 O 0.44372 0.62763 0.9299 0.0
O734 O 0.39994 0.65946 0.92093 0.0
C735 C 0.42728 0.61362 0.94243 0.0
O736 O 0.41492 0.57574 0.88816 0.0
C737 C 0.41836 0.67785 0.91172 0.0
O738 O 0.423 0.6149 0.88043 0.0
O739 O 0.43239 0.67218 0.90122 0.0
C740 C 0.7667 0.41838 0.0696 0.0
O741 O 0.7884 0.43622 0.06294 0.0
Cd742 Cd 0.82367 0.42798 0.0555 0.0
O743 O 0.76267 0.39544 0.07112 0.0
Cd744 Cd 0.78292 0.36864 0.06369 0.0
C745 C 0.82748 0.40081 0.09778 0.0
O746 O 0.80515 0.39096 0.03531 0.0
O747 O 0.81927 0.36677 0.04716 0.0
O748 O 0.74064 0.34213 0.0493 0.0
C749 C 0.81982 0.38101 0.03371 0.0
O750 O 0.83768 0.41921 0.08587 0.0
C751 C 0.7356 0.32084 0.05669 0.0
O752 O 0.80594 0.37997 0.09409 0.0
O753 O 0.75315 0.3213 0.0677 0.0
C754 C 0.34827 0.77341 0.24327 0.0
O755 O 0.3502 0.79424 0.23706 0.0
Cd756 Cd 0.39261 0.83096 0.2288 0.0
O757 O 0.36825 0.77016 0.24371 0.0
Cd758 Cd 0.41517 0.79172 0.23432 0.0
C759 C 0.42873 0.83558 0.26872 0.0
O760 O 0.41159 0.81458 0.20703 0.0
O761 O 0.45133 0.82394 0.21513 0.0
O762 O 0.40205 0.75051 0.21996 0.0
C763 C 0.43629 0.82702 0.20377 0.0
O764 O 0.41867 0.84539 0.25785 0.0
C765 C 0.42061 0.74768 0.22677 0.0
O766 O 0.42857 0.81478 0.26439 0.0
O767 O 0.43697 0.76547 0.23773 0.0
C768 C 0.20362 0.65783 0.27058 0.0
C769 C 0.20266 0.63421 0.2669 0.0
C770 C 0.2273 0.68148 0.26854 0.0
C771 C 0.25027 0.68162 0.2619 0.0
C772 C 0.24952 0.65792 0.25827 0.0
C773 C 0.22582 0.63453 0.26104 0.0
C774 C 0.22758 0.70635 0.2731 0.0
C775 C 0.27344 0.65726 0.25076 0.0
C776 C 0.30156 0.74109 0.23574 0.0
C777 C 0.32236 0.75179 0.24882 0.0
C778 C 0.27788 0.71824 0.23987 0.0
C779 C 0.27472 0.70652 0.25777 0.0
C780 C 0.29531 0.71807 0.27134 0.0
C781 C 0.3192 0.74031 0.26652 0.0
C782 C 0.25675 0.70605 0.22481 0.0
C783 C 0.29231 0.70669 0.29079 0.0
H784 H 0.18585 0.65796 0.2749 0.0
H785 H 0.22508 0.61635 0.25804 0.0
H786 H 0.24446 0.71856 0.28262 0.0
H787 H 0.23038 0.71752 0.25999 0.0
H788 H 0.2089 0.70282 0.27992 0.0
H789 H 0.26964 0.6372 0.24887 0.0
H790 H 0.27928 0.66729 0.23696 0.0
H791 H 0.29054 0.6677 0.26048 0.0
H792 H 0.30435 0.74988 0.22195 0.0
H793 H 0.33546 0.74873 0.27656 0.0
H794 H 0.23775 0.70378 0.23 0.0
H795 H 0.25324 0.68642 0.22139 0.0
H796 H 0.2623 0.71765 0.21165 0.0
H797 H 0.27352 0.70331 0.29728 0.0
H798 H 0.30907 0.71944 0.30025 0.0
H799 H 0.29132 0.68767 0.28979 0.0
C800 C 0.61373 0.20878 0.43784 0.0
C801 C 0.59928 0.19725 0.45427 0.0
C802 C 0.6125 0.22928 0.4292 0.0
C803 C 0.59661 0.23856 0.4373 0.0
C804 C 0.58058 0.2258 0.45311 0.0
C805 C 0.58223 0.20538 0.46148 0.0
C806 C 0.62986 0.24233 0.41234 0.0
C807 C 0.56329 0.23503 0.46212 0.0
C808 C 0.62388 0.3108 0.43516 0.0
C809 C 0.60803 0.31298 0.42119 0.0
C810 C 0.62029 0.28668 0.4404 0.0
C811 C 0.60035 0.26405 0.43144 0.0
C812 C 0.5843 0.26601 0.41724 0.0
C813 C 0.58833 0.29054 0.41226 0.0
C814 C 0.63785 0.28548 0.45564 0.0
C815 C 0.5629 0.24225 0.40739 0.0
H816 H 0.62703 0.2026 0.4323 0.0
H817 H 0.5711 0.19654 0.47421 0.0
H818 H 0.61875 0.24633 0.4014 0.0
H819 H 0.64696 0.26117 0.41676 0.0
H820 H 0.63764 0.23042 0.40598 0.0
H821 H 0.54904 0.22073 0.4723 0.0
H822 H 0.57598 0.25344 0.46977 0.0
H823 H 0.55202 0.23894 0.45124 0.0
H824 H 0.63916 0.32802 0.44214 0.0
H825 H 0.57604 0.29213 0.40145 0.0
H826 H 0.64875 0.27605 0.45009 0.0
H827 H 0.62553 0.27361 0.46759 0.0
H828 H 0.65253 0.30494 0.46111 0.0
H829 H 0.57169 0.23161 0.40046 0.0
H830 H 0.55222 0.24707 0.39659 0.0
H831 H 0.54832 0.22896 0.41785 0.0
C832 C 0.3865 0.58626 0.63222 0.0
C833 C 0.41064 0.60003 0.62263 0.0
C834 C 0.3623 0.57863 0.62307 0.0
C835 C 0.36227 0.58499 0.60385 0.0
C836 C 0.38648 0.59762 0.59381 0.0
C837 C 0.41043 0.60526 0.60337 0.0
C838 C 0.33697 0.56546 0.63435 0.0
C839 C 0.38728 0.6046 0.57328 0.0
C840 C 0.29602 0.55696 0.57798 0.0
C841 C 0.29074 0.5774 0.57954 0.0
C842 C 0.31941 0.55913 0.58562 0.0
C843 C 0.33766 0.58214 0.59516 0.0
C844 C 0.3324 0.60278 0.59672 0.0
C845 C 0.30916 0.60021 0.58884 0.0
C846 C 0.32456 0.53685 0.58356 0.0
C847 C 0.35121 0.62759 0.60694 0.0
H848 H 0.38667 0.58247 0.64716 0.0
H849 H 0.42905 0.6162 0.59595 0.0
H850 H 0.32956 0.57915 0.63663 0.0
H851 H 0.32135 0.54854 0.62655 0.0
H852 H 0.33992 0.55888 0.64833 0.0
H853 H 0.40693 0.61074 0.56684 0.0
H854 H 0.37181 0.58796 0.56515 0.0
H855 H 0.38308 0.62074 0.57195 0.0
H856 H 0.28192 0.5393 0.5708 0.0
H857 H 0.30529 0.61612 0.59022 0.0
H858 H 0.32616 0.52977 0.59768 0.0
H859 H 0.34376 0.54346 0.57631 0.0
H860 H 0.30865 0.52047 0.57546 0.0
H861 H 0.35377 0.62333 0.62177 0.0
H862 H 0.34408 0.64173 0.60697 0.0
H863 H 0.37103 0.63678 0.6002 0.0
C864 C 0.81528 0.40641 0.76273 0.0
C865 C 0.81499 0.41396 0.78144 0.0
C866 C 0.799 0.38063 0.75699 0.0
C867 C 0.78138 0.36224 0.7701 0.0
C868 C 0.78163 0.36957 0.78912 0.0
C869 C 0.79854 0.39531 0.79457 0.0
C870 C 0.79963 0.37342 0.73666 0.0
C871 C 0.76283 0.35064 0.80347 0.0
C872 C 0.71498 0.30921 0.75231 0.0
C873 C 0.71795 0.2873 0.7532 0.0
C874 C 0.73572 0.3337 0.75735 0.0
C875 C 0.76016 0.33649 0.76348 0.0
C876 C 0.76363 0.31463 0.76401 0.0
C877 C 0.74242 0.29021 0.75884 0.0
C878 C 0.73123 0.35655 0.75649 0.0
C879 C 0.78951 0.31699 0.77036 0.0
H880 H 0.82779 0.42072 0.75244 0.0
H881 H 0.79819 0.40118 0.80899 0.0
H882 H 0.79984 0.35495 0.73573 0.0
H883 H 0.7815 0.37053 0.72931 0.0
H884 H 0.81721 0.38865 0.7291 0.0
H885 H 0.76727 0.35871 0.818 0.0
H886 H 0.74218 0.34547 0.79986 0.0
H887 H 0.76373 0.33252 0.80322 0.0
H888 H 0.69626 0.30724 0.74778 0.0
H889 H 0.74488 0.27338 0.75951 0.0
H890 H 0.74631 0.37184 0.74732 0.0
H891 H 0.73346 0.36502 0.77078 0.0
H892 H 0.71122 0.35115 0.75099 0.0
H893 H 0.80626 0.3324 0.7623 0.0
H894 H 0.78971 0.29858 0.76859 0.0
H895 H 0.793 0.32265 0.78546 0.0
C896 C 0.46191 0.8265 0.92795 0.0
C897 C 0.44428 0.83274 0.919 0.0
C898 C 0.45766 0.8012 0.9274 0.0
C899 C 0.43581 0.78191 0.91712 0.0
C900 C 0.41821 0.78815 0.90782 0.0
C901 C 0.42259 0.81345 0.90897 0.0
C902 C 0.47661 0.79515 0.93774 0.0
C903 C 0.39498 0.7682 0.89643 0.0
C904 C 0.43972 0.72349 0.9003 0.0
C905 C 0.42312 0.70454 0.91319 0.0
C906 C 0.44395 0.74876 0.90137 0.0
C907 C 0.43159 0.75527 0.91586 0.0
C908 C 0.41506 0.73629 0.92906 0.0
C909 C 0.41087 0.71108 0.92748 0.0
C910 C 0.46143 0.76843 0.8869 0.0
C911 C 0.40187 0.74262 0.94487 0.0
H912 H 0.47906 0.84136 0.9354 0.0
H913 H 0.40925 0.81836 0.90176 0.0
H914 H 0.46552 0.77889 0.94766 0.0
H915 H 0.48677 0.78892 0.92755 0.0
H916 H 0.49189 0.81204 0.94581 0.0
H917 H 0.38321 0.77622 0.89 0.0
H918 H 0.40218 0.76054 0.88501 0.0
H919 H 0.38171 0.75162 0.90551 0.0
H920 H 0.44915 0.71849 0.88919 0.0
H921 H 0.39812 0.69652 0.93755 0.0
H922 H 0.47838 0.78511 0.89398 0.0
H923 H 0.45006 0.77602 0.87932 0.0
H924 H 0.46934 0.76019 0.87641 0.0
H925 H 0.41708 0.75878 0.95351 0.0
H926 H 0.3901 0.72579 0.95422 0.0
H927 H 0.38852 0.74913 0.93897 0.0
C928 C 0.65884 0.45563 0.10435 0.0
C929 C 0.63776 0.44611 0.09134 0.0
C930 C 0.67975 0.45055 0.10212 0.0
C931 C 0.68011 0.43648 0.08615 0.0
C932 C 0.65899 0.42689 0.07296 0.0
C933 C 0.63796 0.43162 0.07583 0.0
C934 C 0.70165 0.46057 0.11668 0.0
C935 C 0.65896 0.41227 0.05555 0.0
C936 C 0.74633 0.44668 0.06896 0.0
C937 C 0.74533 0.42378 0.07481 0.0
C938 C 0.72533 0.45118 0.07274 0.0
C939 C 0.703 0.4325 0.08285 0.0
C940 C 0.7022 0.40969 0.08928 0.0
C941 C 0.7233 0.40552 0.08507 0.0
C942 C 0.72672 0.47561 0.06548 0.0
C943 C 0.6789 0.38954 0.10037 0.0
H944 H 0.65917 0.46723 0.11622 0.0
H945 H 0.6219 0.42456 0.06565 0.0
H946 H 0.70455 0.44458 0.1218 0.0
H947 H 0.7206 0.47525 0.11024 0.0
H948 H 0.69743 0.46949 0.12898 0.0
H949 H 0.64091 0.40593 0.04677 0.0
H950 H 0.67665 0.4247 0.04685 0.0
H951 H 0.66021 0.39496 0.05959 0.0
H952 H 0.76324 0.46083 0.06097 0.0
H953 H 0.72246 0.38784 0.08976 0.0
H954 H 0.72462 0.48662 0.07731 0.0
H955 H 0.71005 0.47058 0.05556 0.0
H956 H 0.74566 0.48837 0.05808 0.0
H957 H 0.6753 0.39859 0.11286 0.0
H958 H 0.682 0.37355 0.10522 0.0
H959 H 0.6607 0.38119 0.09154 0.0
C960 C 0.36472 0.8167 0.54546 0.0
C961 C 0.3896 0.8243 0.55358 0.0
C962 C 0.34414 0.79086 0.54621 0.0
C963 C 0.34831 0.77237 0.55575 0.0
C964 C 0.37313 0.78005 0.56436 0.0
C965 C 0.39347 0.80591 0.56314 0.0
C966 C 0.31799 0.78332 0.53673 0.0
C967 C 0.37818 0.76095 0.5749 0.0
C968 C 0.28911 0.70988 0.57279 0.0
C969 C 0.28793 0.69213 0.55931 0.0
C970 C 0.30845 0.73619 0.57167 0.0
C971 C 0.32683 0.74489 0.55662 0.0
C972 C 0.3253 0.72716 0.54271 0.0
C973 C 0.30594 0.70097 0.54427 0.0
C974 C 0.3096 0.75454 0.58682 0.0
C975 C 0.34439 0.73579 0.52635 0.0
H976 H 0.36136 0.83095 0.53848 0.0
H977 H 0.41247 0.81188 0.56979 0.0
H978 H 0.31336 0.76801 0.52605 0.0
H979 H 0.30177 0.77517 0.54726 0.0
H980 H 0.31808 0.79997 0.52968 0.0
H981 H 0.39843 0.77017 0.58112 0.0
H982 H 0.36348 0.75186 0.58639 0.0
H983 H 0.3757 0.74523 0.56526 0.0
H984 H 0.27525 0.70315 0.58444 0.0
H985 H 0.30505 0.68737 0.53374 0.0
H986 H 0.30833 0.77082 0.5804 0.0
H987 H 0.32888 0.76297 0.59437 0.0
H988 H 0.29337 0.74485 0.59726 0.0
H989 H 0.34392 0.75173 0.51865 0.0
H990 H 0.33975 0.71979 0.51627 0.0
H991 H 0.36492 0.74342 0.53166 0.0
C992 C 0.61533 0.39829 0.71111 0.0
C993 C 0.59073 0.39687 0.70868 0.0
C994 C 0.61699 0.37597 0.71437 0.0
C995 C 0.59344 0.35159 0.71516 0.0
C996 C 0.56852 0.34997 0.71271 0.0
C997 C 0.56743 0.37267 0.70976 0.0
C998 C 0.64393 0.37853 0.71723 0.0
C999 C 0.54302 0.32429 0.71333 0.0
C1000 C 0.6027 0.29371 0.70727 0.0
C1001 C 0.60248 0.28544 0.72578 0.0
C1002 C 0.59867 0.31458 0.70355 0.0
C1003 C 0.59503 0.32787 0.71876 0.0
C1004 C 0.59426 0.31926 0.73747 0.0
C1005 C 0.59767 0.29791 0.74074 0.0
C1006 C 0.59899 0.32281 0.68338 0.0
C1007 C 0.59093 0.33325 0.75408 0.0
H1008 H 0.6333 0.41702 0.71073 0.0
H1009 H 0.54831 0.37151 0.7084 0.0
H1010 H 0.64483 0.37074 0.73123 0.0
H1011 H 0.64728 0.36699 0.70644 0.0
H1012 H 0.66028 0.39894 0.71633 0.0
H1013 H 0.52533 0.32625 0.71047 0.0
H1014 H 0.54362 0.31083 0.70279 0.0
H1015 H 0.5407 0.3153 0.72739 0.0
H1016 H 0.60625 0.28397 0.69567 0.0
H1017 H 0.5977 0.29166 0.75508 0.0
H1018 H 0.61642 0.34231 0.68113 0.0
H1019 H 0.58099 0.32415 0.68038 0.0
H1020 H 0.5999 0.30918 0.67312 0.0
H1021 H 0.608 0.35329 0.7548 0.0
H1022 H 0.58967 0.32346 0.76767 0.0
H1023 H 0.57277 0.33466 0.75233 0.0
C1024 C 0.20378 0.57108 0.89906 0.0
C1025 C 0.18477 0.55191 0.88722 0.0
C1026 C 0.2298 0.57557 0.89984 0.0
C1027 C 0.23716 0.561 0.88812 0.0
C1028 C 0.21846 0.54243 0.87552 0.0
C1029 C 0.19234 0.53772 0.87546 0.0
C1030 C 0.24909 0.59519 0.91376 0.0
C1031 C 0.22587 0.52707 0.86242 0.0
C1032 C 0.31117 0.58747 0.88344 0.0
C1033 C 0.31517 0.57191 0.89627 0.0
C1034 C 0.28563 0.58343 0.87997 0.0
C1035 C 0.26388 0.56394 0.89007 0.0
C1036 C 0.26779 0.54788 0.90279 0.0
C1037 C 0.29338 0.55183 0.90552 0.0
C1038 C 0.28202 0.60033 0.86584 0.0
C1039 C 0.24514 0.52725 0.9141 0.0
H1040 H 0.19799 0.58204 0.90813 0.0
H1041 H 0.1779 0.52275 0.86629 0.0
H1042 H 0.25541 0.58539 0.92412 0.0
H1043 H 0.26716 0.60984 0.90637 0.0
H1044 H 0.24038 0.60531 0.92155 0.0
H1045 H 0.20996 0.51562 0.85199 0.0
H1046 H 0.24436 0.54019 0.85471 0.0
H1047 H 0.22976 0.51357 0.87072 0.0
H1048 H 0.32803 0.60289 0.87618 0.0
H1049 H 0.2965 0.53992 0.91557 0.0
H1050 H 0.27617 0.61309 0.87325 0.0
H1051 H 0.26585 0.58823 0.85579 0.0
H1052 H 0.30043 0.61265 0.85775 0.0
H1053 H 0.23646 0.53629 0.92315 0.0
H1054 H 0.25152 0.51623 0.92324 0.0
H1055 H 0.2292 0.51345 0.90455 0.0
C1056 C 0.60769 0.19922 0.01434 0.0
C1057 C 0.58495 0.19342 0.02476 0.0
C1058 C 0.63306 0.21685 0.02118 0.0
C1059 C 0.63567 0.22933 0.0387 0.0
C1060 C 0.61288 0.22243 0.04977 0.0
C1061 C 0.58776 0.20446 0.04268 0.0
C1062 C 0.65689 0.22343 0.00905 0.0
C1063 C 0.61481 0.23541 0.06846 0.0
C1064 C 0.70462 0.27279 0.05935 0.0
C1065 C 0.71018 0.29704 0.05253 0.0
C1066 C 0.68036 0.25039 0.05506 0.0
C1067 C 0.66137 0.25247 0.04382 0.0
C1068 C 0.66689 0.27695 0.03706 0.0
C1069 C 0.69118 0.29884 0.04145 0.0
C1070 C 0.67511 0.22453 0.0624 0.0
C1071 C 0.64716 0.28008 0.02506 0.0
H1072 H 0.60557 0.19058 0.00052 0.0
H1073 H 0.57017 0.19987 0.05078 0.0
H1074 H 0.66438 0.24288 0.00279 0.0
H1075 H 0.67317 0.22411 0.01765 0.0
H1076 H 0.65202 0.20924 0.99741 0.0
H1077 H 0.59595 0.22536 0.07649 0.0
H1078 H 0.63096 0.23611 0.07722 0.0
H1079 H 0.61965 0.25567 0.06598 0.0
H1080 H 0.71924 0.2713 0.06791 0.0
H1081 H 0.69524 0.3175 0.03616 0.0
H1082 H 0.672 0.21132 0.05041 0.0
H1083 H 0.65668 0.21541 0.07089 0.0
H1084 H 0.6917 0.22624 0.07123 0.0
H1085 H 0.6431 0.2687 0.01185 0.0
H1086 H 0.65435 0.30059 0.02128 0.0
H1087 H 0.62807 0.2725 0.03267 0.0
C1088 C 0.44302 0.64057 0.17763 0.0
C1089 C 0.42777 0.61617 0.18589 0.0
C1090 C 0.44496 0.66278 0.18599 0.0
C1091 C 0.43117 0.66046 0.20295 0.0
C1092 C 0.41692 0.63609 0.21189 0.0
C1093 C 0.41518 0.61417 0.20316 0.0
C1094 C 0.46026 0.68839 0.17596 0.0
C1095 C 0.40205 0.63285 0.23003 0.0
C1096 C 0.44404 0.72196 0.22843 0.0
C1097 C 0.42318 0.72502 0.22152 0.0
C1098 C 0.44686 0.70086 0.22272 0.0
C1099 C 0.42843 0.68258 0.20977 0.0
C1100 C 0.40721 0.68549 0.20293 0.0
C1101 C 0.40483 0.7066 0.20891 0.0
C1102 C 0.46963 0.69825 0.23035 0.0
C1103 C 0.38716 0.66648 0.18906 0.0
H1104 H 0.45251 0.6421 0.16418 0.0
H1105 H 0.40308 0.5953 0.20947 0.0
H1106 H 0.44617 0.69392 0.16997 0.0
H1107 H 0.47336 0.70385 0.18598 0.0
H1108 H 0.47255 0.68759 0.1643 0.0
H1109 H 0.39519 0.6136 0.23652 0.0
H1110 H 0.41472 0.64809 0.24034 0.0
H1111 H 0.38446 0.63492 0.22716 0.0
H1112 H 0.45829 0.73614 0.23817 0.0
H1113 H 0.38864 0.70879 0.20349 0.0
H1114 H 0.48268 0.69926 0.21861 0.0
H1115 H 0.46201 0.67911 0.23715 0.0
H1116 H 0.48174 0.71362 0.24078 0.0
H1117 H 0.39733 0.66598 0.17598 0.0
H1118 H 0.37172 0.67144 0.18523 0.0
H1119 H 0.37722 0.6467 0.19509 0.0
C1120 C 0.81306 0.41357 0.37212 0.0
C1121 C 0.81779 0.41711 0.35267 0.0
C1122 C 0.79589 0.42039 0.381 0.0
C1123 C 0.78263 0.43035 0.37008 0.0
C1124 C 0.78842 0.43522 0.35064 0.0
C1125 C 0.80593 0.42853 0.34218 0.0
C1126 C 0.79043 0.41511 0.4018 0.0
C1127 C 0.77452 0.44554 0.33844 0.0
C1128 C 0.71234 0.40935 0.38482 0.0
C1129 C 0.71495 0.43182 0.39325 0.0
C1130 C 0.73421 0.40881 0.37724 0.0
C1131 C 0.75956 0.43127 0.37816 0.0
C1132 C 0.76253 0.45407 0.38668 0.0
C1133 C 0.74011 0.45412 0.3941 0.0
C1134 C 0.73008 0.3841 0.36816 0.0
C1135 C 0.78932 0.47832 0.38796 0.0
H1136 H 0.82191 0.40447 0.38028 0.0
H1137 H 0.80936 0.43103 0.32711 0.0
H1138 H 0.79031 0.43161 0.40893 0.0
H1139 H 0.77054 0.39781 0.40374 0.0
H1140 H 0.80534 0.41147 0.40881 0.0
H1141 H 0.78401 0.45184 0.3244 0.0
H1142 H 0.75356 0.43018 0.3363 0.0
H1143 H 0.77435 0.46211 0.34541 0.0
H1144 H 0.69302 0.392 0.38399 0.0
H1145 H 0.74231 0.47156 0.40057 0.0
H1146 H 0.74213 0.37716 0.37558 0.0
H1147 H 0.73679 0.38778 0.35328 0.0
H1148 H 0.70898 0.36844 0.36841 0.0
H1149 H 0.80331 0.47429 0.39589 0.0
H1150 H 0.78832 0.49443 0.39503 0.0
H1151 H 0.79765 0.48465 0.37364 0.0
C1152 C 0.08935 0.57353 0.45545 0.0
C1153 C 0.10199 0.58791 0.43926 0.0
C1154 C 0.10403 0.57107 0.47019 0.0
C1155 C 0.13204 0.58401 0.469 0.0
C1156 C 0.14483 0.59776 0.45245 0.0
C1157 C 0.12961 0.59931 0.43771 0.0
C1158 C 0.08965 0.55573 0.48746 0.0
C1159 C 0.17469 0.61227 0.45077 0.0
C1160 C 0.1692 0.6079 0.5152 0.0
C1161 C 0.17877 0.59079 0.51805 0.0
C1162 C 0.15421 0.60597 0.49919 0.0
C1163 C 0.14805 0.58599 0.48592 0.0
C1164 C 0.15731 0.56837 0.48882 0.0
C1165 C 0.17292 0.57119 0.50479 0.0
C1166 C 0.14521 0.62551 0.49642 0.0
C1167 C 0.15055 0.54648 0.47518 0.0
H1168 H 0.06804 0.56468 0.45688 0.0
H1169 H 0.1394 0.61046 0.42523 0.0
H1170 H 0.09746 0.54294 0.49182 0.0
H1171 H 0.093 0.56915 0.49934 0.0
H1172 H 0.06793 0.54367 0.48502 0.0
H1173 H 0.18138 0.6199 0.43633 0.0
H1174 H 0.18321 0.62878 0.46082 0.0
H1175 H 0.18285 0.59958 0.45454 0.0
H1176 H 0.17389 0.62323 0.52534 0.0
H1177 H 0.1802 0.55786 0.50705 0.0
H1178 H 0.12323 0.61556 0.49605 0.0
H1179 H 0.15248 0.63547 0.48269 0.0
H1180 H 0.15242 0.64035 0.50778 0.0
H1181 H 0.12869 0.53422 0.47385 0.0
H1182 H 0.15884 0.53412 0.47967 0.0
H1183 H 0.15831 0.5543 0.46097 0.0
C1184 C 0.51006 0.09825 0.62133 0.0
C1185 C 0.53023 0.09527 0.60226 0.0
C1186 C 0.52879 0.11621 0.64166 0.0
C1187 C 0.56461 0.13397 0.64114 0.0
C1188 C 0.5831 0.13616 0.62014 0.0
C1189 C 0.56618 0.11885 0.59906 0.0
C1190 C 0.51457 0.11617 0.65912 0.0
C1191 C 0.61255 0.15255 0.62018 0.0
C1192 C 0.59346 0.18834 0.67662 0.0
C1193 C 0.6017 0.17777 0.69089 0.0
C1194 C 0.58223 0.17454 0.65994 0.0
C1195 C 0.57885 0.14952 0.65775 0.0
C1196 C 0.58769 0.13901 0.67199 0.0
C1197 C 0.59919 0.15339 0.68849 0.0
C1198 C 0.5734 0.18645 0.64486 0.0
C1199 C 0.58417 0.1123 0.67007 0.0
H1200 H 0.48878 0.08568 0.622 0.0
H1201 H 0.577 0.11838 0.58682 0.0
H1202 H 0.5221 0.10988 0.67121 0.0
H1203 H 0.51883 0.13613 0.66214 0.0
H1204 H 0.49287 0.10311 0.65747 0.0
H1205 H 0.62079 0.15157 0.60631 0.0
H1206 H 0.61814 0.17284 0.62345 0.0
H1207 H 0.62089 0.14586 0.63148 0.0
H1208 H 0.59543 0.20724 0.67869 0.0
H1209 H 0.60545 0.14531 0.69972 0.0
H1210 H 0.55152 0.17495 0.64322 0.0
H1211 H 0.58225 0.18603 0.6311 0.0
H1212 H 0.57907 0.20678 0.6482 0.0
H1213 H 0.56269 0.09779 0.66948 0.0
H1214 H 0.59328 0.10743 0.68199 0.0
H1215 H 0.59321 0.11082 0.65669 0.0
C1216 C 0.4221 0.53855 0.76848 0.0
C1217 C 0.45598 0.55223 0.75855 0.0
C1218 C 0.42096 0.54921 0.79202 0.0
C1219 C 0.45039 0.57513 0.8029 0.0
C1220 C 0.48145 0.59272 0.79041 0.0
C1221 C 0.4846 0.58353 0.76672 0.0
C1222 C 0.39549 0.53647 0.80261 0.0
C1223 C 0.50483 0.61458 0.79985 0.0
C1224 C 0.4342 0.60667 0.84281 0.0
C1225 C 0.4345 0.59221 0.85828 0.0
C1226 C 0.44056 0.60209 0.82468 0.0
C1227 C 0.44794 0.58305 0.8221 0.0
C1228 C 0.44987 0.56954 0.83781 0.0
C1229 C 0.44284 0.57408 0.85573 0.0
C1230 C 0.43782 0.61649 0.80815 0.0
C1231 C 0.45838 0.5496 0.83564 0.0
H1232 H 0.40527 0.52163 0.76244 0.0
H1233 H 0.50356 0.59244 0.75962 0.0
H1234 H 0.39799 0.52751 0.81557 0.0
H1235 H 0.3904 0.5513 0.80705 0.0
H1236 H 0.37933 0.5215 0.79378 0.0
H1237 H 0.52277 0.62163 0.79095 0.0
H1238 H 0.5007 0.63055 0.80248 0.0
H1239 H 0.5081 0.60806 0.81373 0.0
H1240 H 0.42769 0.62067 0.84468 0.0
H1241 H 0.44341 0.56307 0.86769 0.0
H1242 H 0.42124 0.6027 0.79897 0.0
H1243 H 0.45613 0.62517 0.79952 0.0
H1244 H 0.43382 0.63206 0.81265 0.0
H1245 H 0.44258 0.53239 0.8282 0.0
H1246 H 0.46215 0.54327 0.84946 0.0
H1247 H 0.4767 0.55754 0.82705 0.0
C1248 C 0.92699 0.48364 0.96838 0.0
C1249 C 0.94542 0.47809 0.96009 0.0
C1250 C 0.90623 0.46522 0.97944 0.0
C1251 C 0.90337 0.44037 0.98178 0.0
C1252 C 0.92107 0.43419 0.97263 0.0
C1253 C 0.94208 0.45324 0.96203 0.0
C1254 C 0.88786 0.47263 0.9891 0.0
C1255 C 0.91811 0.40765 0.97432 0.0
C1256 C 0.86774 0.40584 0.0264 0.0
C1257 C 0.84151 0.39184 0.02001 0.0
C1258 C 0.88836 0.42103 0.01391 0.0
C1259 C 0.88253 0.42145 0.99455 0.0
C1260 C 0.85625 0.40573 0.98787 0.0
C1261 C 0.83589 0.39154 0.0008 0.0
C1262 C 0.91598 0.43806 0.02167 0.0
C1263 C 0.84942 0.4049 0.96724 0.0
H1264 H 0.92925 0.50267 0.96659 0.0
H1265 H 0.95609 0.44877 0.9554 0.0
H1266 H 0.86705 0.45931 0.98474 0.0
H1267 H 0.88895 0.47081 0.00461 0.0
H1268 H 0.89283 0.49276 0.98583 0.0
H1269 H 0.93188 0.4052 0.96485 0.0
H1270 H 0.92213 0.40438 0.98905 0.0
H1271 H 0.89746 0.39252 0.9709 0.0
H1272 H 0.87185 0.40633 0.04137 0.0
H1273 H 0.81547 0.38071 0.99599 0.0
H1274 H 0.92161 0.45868 0.02006 0.0
H1275 H 0.93057 0.43508 0.01365 0.0
H1276 H 0.9175 0.43428 0.03683 0.0
H1277 H 0.85013 0.42321 0.96329 0.0
H1278 H 0.82926 0.38858 0.96396 0.0
H1279 H 0.86405 0.40305 0.95835 0.0
C1280 C 0.50786 0.92109 0.11674 0.0
C1281 C 0.49355 0.90973 0.10013 0.0
C1282 C 0.49802 0.90973 0.13436 0.0
C1283 C 0.47373 0.88606 0.1353 0.0
C1284 C 0.45893 0.8748 0.11865 0.0
C1285 C 0.46901 0.88682 0.10126 0.0
C1286 C 0.5141 0.92255 0.15187 0.0
C1287 C 0.43312 0.84937 0.11905 0.0
C1288 C 0.46543 0.84115 0.1757 0.0
C1289 C 0.44679 0.84315 0.18689 0.0
C1290 C 0.47423 0.85495 0.15878 0.0
C1291 C 0.46494 0.8719 0.15343 0.0
C1292 C 0.44682 0.87469 0.16512 0.0
C1293 C 0.43748 0.85978 0.18156 0.0
C1294 C 0.49287 0.85081 0.14639 0.0
C1295 C 0.43726 0.89328 0.16022 0.0
H1296 H 0.52706 0.93856 0.11594 0.0
H1297 H 0.45814 0.87784 0.08841 0.0
H1298 H 0.5013 0.92371 0.16295 0.0
H1299 H 0.52243 0.91081 0.15759 0.0
H1300 H 0.53076 0.94236 0.14901 0.0
H1301 H 0.42326 0.84403 0.10503 0.0
H1302 H 0.43691 0.83377 0.12373 0.0
H1303 H 0.41927 0.85026 0.12933 0.0
H1304 H 0.47235 0.82803 0.17983 0.0
H1305 H 0.42315 0.86133 0.19039 0.0
H1306 H 0.51154 0.86939 0.14424 0.0
H1307 H 0.48372 0.84375 0.1323 0.0
H1308 H 0.49785 0.8366 0.15246 0.0
H1309 H 0.45446 0.91289 0.15775 0.0
H1310 H 0.42476 0.89455 0.17152 0.0
H1311 H 0.42552 0.88705 0.14698 0.0
C1312 C 0.56476 0.44678 0.27471 0.0
C1313 C 0.58532 0.47003 0.26745 0.0
C1314 C 0.5672 0.43759 0.29235 0.0
C1315 C 0.59089 0.45189 0.30285 0.0
C1316 C 0.61159 0.47554 0.29571 0.0
C1317 C 0.60835 0.48455 0.27825 0.0
C1318 C 0.54441 0.41271 0.29981 0.0
C1319 C 0.63722 0.49127 0.30648 0.0
C1320 C 0.5945 0.4447 0.35561 0.0
C1321 C 0.6058 0.4288 0.35663 0.0
C1322 C 0.58815 0.45121 0.33816 0.0
C1323 C 0.59415 0.44233 0.32139 0.0
C1324 C 0.60497 0.42573 0.32238 0.0
C1325 C 0.6103 0.41881 0.34006 0.0
C1326 C 0.57581 0.46826 0.33767 0.0
C1327 C 0.6122 0.41639 0.30477 0.0
H1328 H 0.54666 0.43583 0.2666 0.0
H1329 H 0.62394 0.50293 0.27299 0.0
H1330 H 0.55085 0.39827 0.30199 0.0
H1331 H 0.53805 0.41622 0.31371 0.0
H1332 H 0.52706 0.40429 0.2901 0.0
H1333 H 0.65174 0.50871 0.2986 0.0
H1334 H 0.6332 0.49756 0.3202 0.0
H1335 H 0.64638 0.47922 0.30956 0.0
H1336 H 0.59084 0.45222 0.36849 0.0
H1337 H 0.61925 0.40668 0.34091 0.0
H1338 H 0.55835 0.45991 0.32811 0.0
H1339 H 0.59034 0.48759 0.33209 0.0
H1340 H 0.56945 0.47086 0.35188 0.0
H1341 H 0.59489 0.40685 0.29513 0.0
H1342 H 0.61923 0.40258 0.30795 0.0
H1343 H 0.62814 0.43319 0.29714 0.0
C1344 C 0.42123 0.89808 0.36166 0.0
C1345 C 0.43811 0.90068 0.37666 0.0
C1346 C 0.42332 0.88828 0.3442 0.0
C1347 C 0.44329 0.88162 0.34151 0.0
C1348 C 0.46128 0.88547 0.35628 0.0
C1349 C 0.45831 0.89475 0.37378 0.0
C1350 C 0.40365 0.88436 0.3288 0.0
C1351 C 0.48333 0.8794 0.35371 0.0
C1352 C 0.4265 0.83123 0.30346 0.0
C1353 C 0.43734 0.8469 0.28759 0.0
C1354 C 0.4294 0.84227 0.3214 0.0
C1355 C 0.44428 0.86954 0.32345 0.0
C1356 C 0.45727 0.88523 0.30765 0.0
C1357 C 0.4531 0.87373 0.28977 0.0
C1358 C 0.41468 0.82493 0.33781 0.0
C1359 C 0.47419 0.91425 0.3094 0.0
H1360 H 0.40599 0.90321 0.36375 0.0
H1361 H 0.47167 0.89716 0.38527 0.0
H1362 H 0.41424 0.89564 0.31614 0.0
H1363 H 0.39251 0.86366 0.32461 0.0
H1364 H 0.38922 0.89035 0.33326 0.0
H1365 H 0.49726 0.88601 0.36589 0.0
H1366 H 0.47483 0.85822 0.35203 0.0
H1367 H 0.49466 0.88869 0.34071 0.0
H1368 H 0.41403 0.81048 0.30165 0.0
H1369 H 0.46151 0.88576 0.27741 0.0
H1370 H 0.39853 0.82856 0.34223 0.0
H1371 H 0.42812 0.82932 0.35007 0.0
H1372 H 0.4058 0.8041 0.3342 0.0
H1373 H 0.46125 0.92286 0.31094 0.0
H1374 H 0.48692 0.92291 0.29681 0.0
H1375 H 0.48704 0.91962 0.32211 0.0
C1376 C 0.51854 0.41495 0.52539 0.0
C1377 C 0.51179 0.4341 0.52201 0.0
C1378 C 0.53414 0.41052 0.51253 0.0
C1379 C 0.54293 0.42543 0.49585 0.0
C1380 C 0.53643 0.44497 0.49247 0.0
C1381 C 0.52095 0.44907 0.50559 0.0
C1382 C 0.54076 0.38955 0.5166 0.0
C1383 C 0.5453 0.46114 0.47477 0.0
C1384 C 0.59883 0.42727 0.46705 0.0
C1385 C 0.58463 0.40959 0.45261 0.0
C1386 C 0.58553 0.43243 0.48142 0.0
C1387 C 0.55745 0.41952 0.48131 0.0
C1388 C 0.54305 0.40139 0.46693 0.0
C1389 C 0.55681 0.39669 0.45274 0.0
C1390 C 0.60148 0.45193 0.49655 0.0
C1391 C 0.51309 0.38716 0.46637 0.0
H1392 H 0.51145 0.40332 0.53804 0.0
H1393 H 0.51573 0.46387 0.50296 0.0
H1394 H 0.5314 0.37403 0.50582 0.0
H1395 H 0.56251 0.39747 0.51577 0.0
H1396 H 0.53383 0.38081 0.53075 0.0
H1397 H 0.53965 0.47638 0.47472 0.0
H1398 H 0.56714 0.47051 0.47326 0.0
H1399 H 0.53627 0.44854 0.46225 0.0
H1400 H 0.62032 0.43728 0.46701 0.0
H1401 H 0.54569 0.3829 0.44168 0.0
H1402 H 0.59536 0.44293 0.51068 0.0
H1403 H 0.59755 0.46829 0.49609 0.0
H1404 H 0.62315 0.45971 0.49494 0.0
H1405 H 0.50499 0.3765 0.47975 0.0
H1406 H 0.50488 0.37318 0.45447 0.0
H1407 H 0.50597 0.40122 0.465 0.0
C1408 C 0.12799 0.51882 0.69851 0.0
C1409 C 0.11623 0.53198 0.70683 0.0
C1410 C 0.13947 0.52565 0.68056 0.0
C1411 C 0.13819 0.54536 0.67035 0.0
C1412 C 0.12515 0.55779 0.67823 0.0
C1413 C 0.11441 0.551 0.6964 0.0
C1414 C 0.15338 0.51207 0.67265 0.0
C1415 C 0.12266 0.57833 0.66752 0.0
C1416 C 0.1898 0.57988 0.63235 0.0
C1417 C 0.17632 0.56585 0.61621 0.0
C1418 C 0.17752 0.57355 0.65006 0.0
C1419 C 0.15091 0.55319 0.65154 0.0
C1420 C 0.13687 0.53966 0.63515 0.0
C1421 C 0.1499 0.54589 0.6177 0.0
C1422 C 0.1933 0.58807 0.66728 0.0
C1423 C 0.10823 0.51838 0.63608 0.0
H1424 H 0.12858 0.50339 0.70608 0.0
H1425 H 0.1046 0.56066 0.70253 0.0
H1426 H 0.14385 0.50221 0.65923 0.0
H1427 H 0.17434 0.52646 0.66945 0.0
H1428 H 0.15305 0.4975 0.68254 0.0
H1429 H 0.1107 0.58514 0.67525 0.0
H1430 H 0.14264 0.59518 0.6649 0.0
H1431 H 0.1133 0.57071 0.65357 0.0
H1432 H 0.21029 0.59522 0.63123 0.0
H1433 H 0.13937 0.5352 0.60518 0.0
H1434 H 0.19486 0.57444 0.67712 0.0
H1435 H 0.183 0.59675 0.67489 0.0
H1436 H 0.21363 0.60369 0.66368 0.0
H1437 H 0.10667 0.5018 0.64418 0.0
H1438 H 0.0995 0.51136 0.62186 0.0
H1439 H 0.09622 0.52531 0.64357 0.0
C1440 C 0.51492 0.1033 0.85696 0.0
C1441 C 0.50764 0.07737 0.8537 0.0
C1442 C 0.53503 0.1233 0.84633 0.0
C1443 C 0.54753 0.11712 0.83175 0.0
C1444 C 0.54092 0.09108 0.82888 0.0
C1445 C 0.52112 0.07156 0.83993 0.0
C1446 C 0.54194 0.15089 0.85008 0.0
C1447 C 0.55348 0.0836 0.8133 0.0
C1448 C 0.56988 0.15972 0.78839 0.0
C1449 C 0.5975 0.17174 0.78991 0.0
C1450 C 0.55344 0.14209 0.80205 0.0
C1451 C 0.56496 0.13721 0.818 0.0
C1452 C 0.59292 0.15037 0.82007 0.0
C1453 C 0.60894 0.16707 0.80571 0.0
C1454 C 0.52376 0.12783 0.79896 0.0
C1455 C 0.60588 0.14645 0.83722 0.0
H1456 H 0.50435 0.10791 0.86741 0.0
H1457 H 0.51528 0.05151 0.83724 0.0
H1458 H 0.56379 0.16385 0.85034 0.0
H1459 H 0.53392 0.15759 0.83858 0.0
H1460 H 0.53362 0.15287 0.86366 0.0
H1461 H 0.5477 0.06282 0.81389 0.0
H1462 H 0.54733 0.08745 0.79942 0.0
H1463 H 0.57541 0.09542 0.8141 0.0
H1464 H 0.56113 0.16315 0.776 0.0
H1465 H 0.63036 0.17651 0.80684 0.0
H1466 H 0.51374 0.13117 0.81102 0.0
H1467 H 0.51624 0.10671 0.79814 0.0
H1468 H 0.51802 0.13392 0.78582 0.0
H1469 H 0.59655 0.14844 0.85027 0.0
H1470 H 0.62752 0.16048 0.8378 0.0
H1471 H 0.60294 0.12659 0.83708 0.0
C1472 C 0.45123 0.55003 0.04415 0.0
C1473 C 0.4789 0.57801 0.05672 0.0
C1474 C 0.44321 0.55772 0.02141 0.0
C1475 C 0.45758 0.59104 0.01399 0.0
C1476 C 0.47871 0.61781 0.02926 0.0
C1477 C 0.48799 0.61211 0.0522 0.0
C1478 C 0.4252 0.53632 0.00848 0.0
C1479 C 0.4881 0.64486 0.02304 0.0
C1480 C 0.45986 0.60904 0.96265 0.0
C1481 C 0.43559 0.60836 0.9607 0.0
C1482 C 0.46712 0.60288 0.97993 0.0
C1483 C 0.45002 0.59672 0.99561 0.0
C1484 C 0.42579 0.59658 0.99378 0.0
C1485 C 0.41865 0.602 0.97624 0.0
C1486 C 0.49279 0.60252 0.98132 0.0
C1487 C 0.40763 0.59119 0.01043 0.0
H1488 H 0.44455 0.53023 0.04818 0.0
H1489 H 0.5023 0.62789 0.06086 0.0
H1490 H 0.40497 0.53367 0.00935 0.0
H1491 H 0.43215 0.54134 0.99372 0.0
H1492 H 0.42432 0.518 0.01265 0.0
H1493 H 0.49847 0.65869 0.03473 0.0
H1494 H 0.50179 0.64948 0.01096 0.0
H1495 H 0.47092 0.64654 0.0181 0.0
H1496 H 0.47283 0.61373 0.95056 0.0
H1497 H 0.39995 0.6017 0.97475 0.0
H1498 H 0.48877 0.5833 0.98637 0.0
H1499 H 0.50613 0.61721 0.99171 0.0
H1500 H 0.50324 0.60658 0.96758 0.0
H1501 H 0.40042 0.57125 0.0156 0.0
H1502 H 0.39019 0.59326 0.00687 0.0
H1503 H 0.41874 0.60467 0.02217 0.0
C1504 C 0.90064 0.42277 0.20888 0.0
C1505 C 0.90237 0.45378 0.21576 0.0
C1506 C 0.88795 0.41157 0.18543 0.0
C1507 C 0.87326 0.42697 0.17198 0.0
C1508 C 0.86889 0.45261 0.18169 0.0
C1509 C 0.88095 0.46518 0.20494 0.0
C1510 C 0.89014 0.38986 0.17695 0.0
C1511 C 0.85532 0.46361 0.17032 0.0
C1512 C 0.86679 0.42383 0.11898 0.0
C1513 C 0.8401 0.4048 0.11655 0.0
C1514 C 0.87836 0.43018 0.13697 0.0
C1515 C 0.86278 0.41748 0.15292 0.0
C1516 C 0.83617 0.39751 0.15053 0.0
C1517 C 0.82516 0.39121 0.13232 0.0
C1518 C 0.90697 0.45117 0.13891 0.0
C1519 C 0.81892 0.38381 0.16729 0.0
H1520 H 0.91142 0.41521 0.2165 0.0
H1521 H 0.88055 0.48201 0.21022 0.0
H1522 H 0.86998 0.37317 0.1745 0.0
H1523 H 0.90007 0.39594 0.16306 0.0
H1524 H 0.90145 0.38403 0.1864 0.0
H1525 H 0.8538 0.47872 0.17845 0.0
H1526 H 0.86664 0.472 0.15716 0.0
H1527 H 0.83526 0.44786 0.16624 0.0
H1528 H 0.87854 0.4342 0.10682 0.0
H1529 H 0.8045 0.37653 0.13054 0.0
H1530 H 0.91782 0.4445 0.1481 0.0
H1531 H 0.90793 0.46845 0.14559 0.0
H1532 H 0.91718 0.457 0.12508 0.0
H1533 H 0.82894 0.37633 0.17656 0.0
H1534 H 0.79925 0.36745 0.16304 0.0
H1535 H 0.81581 0.39776 0.17572 0.0
loop_
_geom_bond_atom_site_label_1
_geom_bond_atom_site_label_2
_geom_bond_distance
_geom_bond_site_symmetry_2
_ccdc_geom_bond_type
C0 C1 1.560 . S
C0 H61 0.959 . S
C0 H62 0.959 . S
C0 H63 0.960 . S
C1 C0 1.560 . S
C1 O56 1.426 . S
C1 H60 0.980 . S
C2 C3 1.407 . S
C2 C7 1.418 . S
C2 O56 1.334 . S
C3 C2 1.407 . S
C3 C4 1.360 . S
C3 H64 0.929 . S
C4 C3 1.360 . S
C4 C5 1.401 . S
C4 C8 1.527 . S
C5 C4 1.401 . S
C5 C6 1.405 . S
C5 C38 1.587 . S
C6 C5 1.405 . S
C6 C7 1.332 . S
C6 C9 1.496 . S
C7 C2 1.418 . S
C7 C6 1.332 . S
C7 H65 0.929 . S
C8 C4 1.527 . S
C8 H66 0.959 . S
C8 H67 0.961 . S
C8 H68 0.961 . S
C9 C6 1.496 . S
C9 H69 0.960 . S
C9 H70 0.960 . S
C9 H71 0.961 . S
C10 C11 1.517 . S
C10 H73 0.961 . S
C10 H74 0.960 . S
C10 H75 0.959 . S
C11 C10 1.517 . S
C11 O59 1.468 . S
C11 H72 0.980 . S
C12 C13 1.349 . S
C12 C17 1.367 . S
C12 O59 1.408 . S
C13 C12 1.349 . S
C13 C14 1.407 . S
C13 H76 0.930 . S
C14 C13 1.407 . S
C14 C15 1.449 . S
C14 C18 1.535 . S
C15 C14 1.449 . S
C15 C16 1.384 . S
C15 C40 1.553 1_655 S
C16 C15 1.384 . S
C16 C17 1.364 . S
C16 C19 1.450 . S
C17 C12 1.367 . S
C17 C16 1.364 . S
C17 H77 0.931 . S
C18 C14 1.535 . S
C18 H78 0.959 1_655 S
C18 H79 0.961 1_655 S
C18 H80 0.959 . S
C19 C16 1.450 . S
C19 H81 0.960 . S
C19 H82 0.960 1_655 S
C19 H83 0.960 . S
C20 C21 1.309 . S
C20 C25 1.304 . S
C20 O58 1.435 . S
C21 C20 1.309 . S
C21 C22 1.476 . S
C21 H85 0.930 . S
C22 C21 1.476 . S
C22 C23 1.400 . S
C22 C26 1.567 . S
C23 C22 1.400 . S
C23 C24 1.373 . S
C23 C45 1.432 . S
C24 C23 1.373 . S
C24 C25 1.339 . S
C24 C27 1.530 . S
C25 C20 1.304 . S
C25 C24 1.339 . S
C25 H86 0.930 . S
C26 C22 1.567 . S
C26 H87 0.961 . S
C26 H88 0.960 . S
C26 H89 0.958 . S
C27 C24 1.530 . S
C27 H90 0.961 . S
C27 H91 0.960 . S
C27 H92 0.960 . S
C28 C29 1.530 . S
C28 H94 0.961 . S
C28 H95 0.961 . S
C28 H96 0.959 . S
C29 C28 1.530 . S
C29 O57 1.412 . S
C29 H93 0.980 . S
C30 C31 1.288 . S
C30 C35 1.377 . S
C30 O57 1.393 . S
C31 C30 1.288 . S
C31 C32 1.369 . S
C31 H97 0.932 . S
C32 C31 1.369 . S
C32 C33 1.398 . S
C32 C36 1.527 . S
C33 C32 1.398 . S
C33 C34 1.380 . S
C33 C47 1.497 . S
C34 C33 1.380 . S
C34 C35 1.383 . S
C34 C37 1.603 . S
C35 C30 1.377 . S
C35 C34 1.383 . S
C35 H98 0.929 . S
C36 C32 1.527 . S
C36 H99 0.961 . S
C36 H100 0.996 . S
C36 H101 0.959 . S
C37 C34 1.603 . S
C37 H102 0.960 . S
C37 H103 0.962 . S
C37 H104 0.961 . S
C38 C5 1.587 . S
C38 C39 1.360 . S
C38 C51 1.412 . S
C39 C38 1.360 . S
C39 C40 1.365 . S
C39 H105 0.929 . S
C40 C15 1.553 1_455 S
C40 C39 1.365 . S
C40 C41 1.404 . S
C41 C40 1.404 . S
C41 C42 1.395 1_455 S
C41 C52 1.451 . S
C42 C41 1.395 1_655 S
C42 C43 1.322 . S
C42 H106 0.930 . S
C43 C42 1.322 . S
C43 C44 1.459 . S
C43 H107 0.929 . S
C44 C43 1.459 . S
C44 C45 1.445 . S
C44 C53 1.395 1_655 S
C45 C23 1.432 . S
C45 C44 1.445 . S
C45 C46 1.370 . S
C46 C45 1.370 . S
C46 C47 1.438 1_655 S
C46 H108 0.930 . S
C47 C33 1.497 . S
C47 C46 1.438 1_455 S
C47 C48 1.360 . S
C48 C47 1.360 . S
C48 C49 1.401 . S
C48 C53 1.446 . S
C49 C48 1.401 . S
C49 C50 1.347 . S
C49 H109 0.929 . S
C50 C49 1.347 . S
C50 C51 1.455 . S
C50 H110 0.930 . S
C51 C38 1.412 . S
C51 C50 1.455 . S
C51 C52 1.331 . S
C52 C41 1.451 . S
C52 C51 1.331 . S
C52 C53 1.497 . S
C53 C44 1.395 1_455 S
C53 C48 1.446 . S
C53 C52 1.497 . S
C54 C55 1.582 . S
C54 H111 0.962 . S
C54 H112 0.959 . S
C54 H113 0.958 . S
C55 C54 1.582 . S
C55 O58 1.458 . S
C55 H84 0.980 . S
O56 C1 1.426 . S
O56 C2 1.334 . S
O57 C29 1.412 . S
O57 C30 1.393 . S
O58 C20 1.435 . S
O58 C55 1.458 . S
O59 C11 1.468 . S
O59 C12 1.408 . S
H60 C1 0.980 . S
H61 C0 0.959 . S
H62 C0 0.959 . S
H63 C0 0.960 . S
H64 C3 0.929 . S
H65 C7 0.929 . S
H66 C8 0.959 . S
H67 C8 0.961 . S
H68 C8 0.961 . S
H69 C9 0.960 . S
H70 C9 0.960 . S
H71 C9 0.961 . S
H72 C11 0.980 . S
H73 C10 0.961 . S
H74 C10 0.960 . S
H75 C10 0.959 . S
H76 C13 0.930 . S
H77 C17 0.931 . S
H78 C18 0.959 1_455 S
H79 C18 0.961 1_455 S
H80 C18 0.959 . S
H81 C19 0.960 . S
H82 C19 0.960 1_455 S
H83 C19 0.960 . S
H84 C55 0.980 . S
H85 C21 0.930 . S
H86 C25 0.930 . S
H87 C26 0.961 . S
H88 C26 0.960 . S
H89 C26 0.958 . S
H90 C27 0.961 . S
H91 C27 0.960 . S
H92 C27 0.960 . S
H93 C29 0.980 . S
H94 C28 0.961 . S
H95 C28 0.961 . S
H96 C28 0.959 . S
H97 C31 0.932 . S
H98 C35 0.929 . S
H99 C36 0.961 . S
H100 C36 0.996 . S
H101 C36 0.959 . S
H102 C37 0.960 . S
H103 C37 0.962 . S
H104 C37 0.961 . S
H105 C39 0.929 . S
H106 C42 0.930 . S
H107 C43 0.929 . S
H108 C46 0.930 . S
H109 C49 0.929 . S
H110 C50 0.930 . S
H111 C54 0.962 . S
H112 C54 0.959 . S
H113 C54 0.958 . S
C114 C115 1.560 . S
C114 H175 0.959 . S
C114 H176 0.959 . S
C114 H177 0.960 . S
C115 C114 1.560 . S
C115 O170 1.426 . S
C115 H174 0.980 . S
C116 C117 1.407 . S
C116 C121 1.418 . S
C116 O170 1.334 . S
C117 C116 1.407 . S
C117 C118 1.360 . S
C117 H178 0.929 . S
C118 C117 1.360 . S
C118 C119 1.401 . S
C118 C122 1.527 . S
C119 C118 1.401 . S
C119 C120 1.405 . S
C119 C152 1.587 . S
C120 C119 1.405 . S
C120 C121 1.332 . S
C120 C123 1.496 . S
C121 C116 1.418 . S
C121 C120 1.332 . S
C121 H179 0.929 . S
C122 C118 1.527 . S
C122 H180 0.959 . S
C122 H181 0.961 . S
C122 H182 0.961 . S
C123 C120 1.496 . S
C123 H183 0.960 . S
C123 H184 0.960 . S
C123 H185 0.961 . S
C124 C125 1.517 . S
C124 H187 0.961 . S
C124 H188 0.960 . S
C124 H189 0.959 . S
C125 C124 1.517 . S
C125 O173 1.468 . S
C125 H186 0.980 . S
C126 C127 1.349 . S
C126 C131 1.367 . S
C126 O173 1.408 . S
C127 C126 1.349 . S
C127 C128 1.407 . S
C127 H190 0.930 . S
C128 C127 1.407 . S
C128 C129 1.449 . S
C128 C132 1.535 . S
C129 C128 1.449 . S
C129 C130 1.384 . S
C129 C154 1.553 . S
C130 C129 1.384 . S
C130 C131 1.364 . S
C130 C133 1.450 . S
C131 C126 1.367 . S
C131 C130 1.364 . S
C131 H191 0.931 . S
C132 C128 1.535 . S
C132 H192 0.959 . S
C132 H193 0.961 . S
C132 H194 0.959 . S
C133 C130 1.450 . S
C133 H195 0.960 . S
C133 H196 0.960 . S
C133 H197 0.960 . S
C134 C135 1.309 . S
C134 C139 1.304 . S
C134 O172 1.435 . S
C135 C134 1.309 . S
C135 C136 1.476 . S
C135 H199 0.930 . S
C136 C135 1.476 . S
C136 C137 1.400 . S
C136 C140 1.567 . S
C137 C136 1.400 . S
C137 C138 1.373 . S
C137 C159 1.432 . S
C138 C137 1.373 . S
C138 C139 1.339 . S
C138 C141 1.530 . S
C139 C134 1.304 . S
C139 C138 1.339 . S
C139 H200 0.930 . S
C140 C136 1.567 . S
C140 H201 0.961 . S
C140 H202 0.960 . S
C140 H203 0.958 . S
C141 C138 1.530 . S
C141 H204 0.961 . S
C141 H205 0.960 . S
C141 H206 0.960 . S
C142 C143 1.530 . S
C142 H208 0.961 . S
C142 H209 0.961 . S
C142 H210 0.959 . S
C143 C142 1.530 . S
C143 O171 1.412 . S
C143 H207 0.980 . S
C144 C145 1.288 . S
C144 C149 1.377 . S
C144 O171 1.393 . S
C145 C144 1.288 . S
C145 C146 1.369 . S
C145 H211 0.932 . S
C146 C145 1.369 . S
C146 C147 1.398 . S
C146 C150 1.527 1_565 S
C147 C146 1.398 . S
C147 C148 1.380 . S
C147 C161 1.497 1_565 S
C148 C147 1.380 . S
C148 C149 1.383 . S
C148 C151 1.603 . S
C149 C144 1.377 . S
C149 C148 1.383 . S
C149 H212 0.929 . S
C150 C146 1.527 1_545 S
C150 H213 0.961 . S
C150 H214 0.959 . S
C150 H215 0.959 1_545 S
C151 C148 1.603 . S
C151 H216 0.960 . S
C151 H217 0.962 . S
C151 H218 0.961 . S
C152 C119 1.587 . S
C152 C153 1.360 . S
C152 C165 1.412 . S
C153 C152 1.360 . S
C153 C154 1.365 1_565 S
C153 H219 0.929 . S
C154 C129 1.553 . S
C154 C153 1.365 1_545 S
C154 C155 1.404 . S
C155 C154 1.404 . S
C155 C156 1.395 . S
C155 C166 1.451 . S
C156 C155 1.395 . S
C156 C157 1.322 . S
C156 H220 0.930 . S
C157 C156 1.322 . S
C157 C158 1.459 . S
C157 H221 0.929 . S
C158 C157 1.459 . S
C158 C159 1.445 . S
C158 C167 1.395 . S
C159 C137 1.432 . S
C159 C158 1.445 . S
C159 C160 1.370 . S
C160 C159 1.370 . S
C160 C161 1.438 . S
C160 H222 0.930 . S
C161 C147 1.497 1_545 S
C161 C160 1.438 . S
C161 C162 1.360 1_545 S
C162 C161 1.360 1_565 S
C162 C163 1.401 . S
C162 C167 1.446 1_565 S
C163 C162 1.401 . S
C163 C164 1.347 . S
C163 H223 0.929 . S
C164 C163 1.347 . S
C164 C165 1.455 . S
C164 H224 0.930 . S
C165 C152 1.412 . S
C165 C164 1.455 . S
C165 C166 1.331 1_565 S
C166 C155 1.451 . S
C166 C165 1.331 1_545 S
C166 C167 1.497 . S
C167 C158 1.395 . S
C167 C162 1.446 1_545 S
C167 C166 1.497 . S
C168 C169 1.582 . S
C168 H225 0.962 . S
C168 H226 0.959 . S
C168 H227 0.958 . S
C169 C168 1.582 . S
C169 O172 1.458 . S
C169 H198 0.980 . S
O170 C115 1.426 . S
O170 C116 1.334 . S
O171 C143 1.412 . S
O171 C144 1.393 . S
O172 C134 1.435 . S
O172 C169 1.458 . S
O173 C125 1.468 . S
O173 C126 1.408 . S
H174 C115 0.980 . S
H175 C114 0.959 . S
H176 C114 0.959 . S
H177 C114 0.960 . S
H178 C117 0.929 . S
H179 C121 0.929 . S
H180 C122 0.959 . S
H181 C122 0.961 . S
H182 C122 0.961 . S
H183 C123 0.960 . S
H184 C123 0.960 . S
H185 C123 0.961 . S
H186 C125 0.980 . S
H187 C124 0.961 . S
H188 C124 0.960 . S
H189 C124 0.959 . S
H190 C127 0.930 . S
H191 C131 0.931 . S
H192 C132 0.959 . S
H193 C132 0.961 . S
H194 C132 0.959 . S
H195 C133 0.960 . S
H196 C133 0.960 . S
H197 C133 0.960 . S
H198 C169 0.980 . S
H199 C135 0.930 . S
H200 C139 0.930 . S
H201 C140 0.961 . S
H202 C140 0.960 . S
H203 C140 0.958 . S
H204 C141 0.961 . S
H205 C141 0.960 . S
H206 C141 0.960 . S
H207 C143 0.980 . S
H208 C142 0.961 . S
H209 C142 0.961 . S
H210 C142 0.959 . S
H211 C145 0.932 . S
H212 C149 0.929 . S
H213 C150 0.961 . S
H214 C150 0.959 . S
H215 C150 0.959 1_565 S
H216 C151 0.960 . S
H217 C151 0.962 . S
H218 C151 0.961 . S
H219 C153 0.929 . S
H220 C156 0.930 . S
H221 C157 0.929 . S
H222 C160 0.930 . S
H223 C163 0.929 . S
H224 C164 0.930 . S
H225 C168 0.962 . S
H226 C168 0.959 . S
H227 C168 0.958 . S
C228 C229 1.560 . S
C228 H289 0.959 . S
C228 H290 0.959 . S
C228 H291 0.960 . S
C229 C228 1.560 . S
C229 O284 1.426 . S
C229 H288 0.980 . S
C230 C231 1.407 . S
C230 C235 1.418 . S
C230 O284 1.334 . S
C231 C230 1.407 . S
C231 C232 1.360 . S
C231 H292 0.929 . S
C232 C231 1.360 . S
C232 C233 1.401 . S
C232 C236 1.527 . S
C233 C232 1.401 . S
C233 C234 1.405 . S
C233 C266 1.587 . S
C234 C233 1.405 . S
C234 C235 1.332 . S
C234 C237 1.496 . S
C235 C230 1.418 . S
C235 C234 1.332 . S
C235 H293 0.929 . S
C236 C232 1.527 . S
C236 H294 0.959 . S
C236 H295 0.961 . S
C236 H296 0.961 . S
C237 C234 1.496 . S
C237 H297 0.960 . S
C237 H298 0.960 . S
C237 H299 0.961 . S
C238 C239 1.517 . S
C238 H301 0.961 . S
C238 H302 0.960 . S
C238 H303 0.959 . S
C239 C238 1.517 . S
C239 O287 1.468 . S
C239 H300 0.980 . S
C240 C241 1.349 . S
C240 C245 1.367 . S
C240 O287 1.408 . S
C241 C240 1.349 . S
C241 C242 1.407 . S
C241 H304 0.930 . S
C242 C241 1.407 . S
C242 C243 1.449 . S
C242 C246 1.535 . S
C243 C242 1.449 . S
C243 C244 1.384 . S
C243 C268 1.553 . S
C244 C243 1.384 . S
C244 C245 1.364 . S
C244 C247 1.450 . S
C245 C240 1.367 . S
C245 C244 1.364 . S
C245 H305 0.931 . S
C246 C242 1.535 . S
C246 H306 0.959 . S
C246 H307 0.961 . S
C246 H308 0.959 . S
C247 C244 1.450 . S
C247 H309 0.960 . S
C247 H310 0.960 . S
C247 H311 0.960 . S
C248 C249 1.309 . S
C248 C253 1.304 . S
C248 O286 1.435 . S
C249 C248 1.309 . S
C249 C250 1.476 . S
C249 H313 0.930 . S
C250 C249 1.476 . S
C250 C251 1.400 . S
C250 C254 1.567 . S
C251 C250 1.400 . S
C251 C252 1.373 . S
C251 C273 1.432 . S
C252 C251 1.373 . S
C252 C253 1.339 . S
C252 C255 1.530 . S
C253 C248 1.304 . S
C253 C252 1.339 . S
C253 H314 0.930 . S
C254 C250 1.567 . S
C254 H315 0.961 . S
C254 H316 0.960 . S
C254 H317 0.958 . S
C255 C252 1.530 . S
C255 H318 0.961 . S
C255 H319 0.960 . S
C255 H320 0.960 . S
C256 C257 1.530 . S
C256 H322 0.961 . S
C256 H323 0.961 . S
C256 H324 0.959 . S
C257 C256 1.530 . S
C257 O285 1.412 . S
C257 H321 0.980 . S
C258 C259 1.288 . S
C258 C263 1.377 . S
C258 O285 1.393 . S
C259 C258 1.288 . S
C259 C260 1.369 . S
C259 H325 0.932 . S
C260 C259 1.369 . S
C260 C261 1.398 . S
C260 C264 1.527 . S
C261 C260 1.398 . S
C261 C262 1.380 . S
C261 C275 1.497 . S
C262 C261 1.380 . S
C262 C263 1.383 . S
C262 C265 1.603 . S
C263 C258 1.377 . S
C263 C262 1.383 . S
C263 H326 0.929 . S
C264 C260 1.527 . S
C264 H327 0.961 . S
C264 H328 0.959 . S
C264 H329 0.959 . S
C265 C262 1.603 . S
C265 H330 0.960 . S
C265 H331 0.962 . S
C265 H332 0.961 . S
C266 C233 1.587 . S
C266 C267 1.360 . S
C266 C279 1.412 . S
C267 C266 1.360 . S
C267 C268 1.365 . S
C267 H333 0.929 . S
C268 C243 1.553 . S
C268 C267 1.365 . S
C268 C269 1.404 . S
C269 C268 1.404 . S
C269 C270 1.395 . S
C269 C280 1.451 . S
C270 C269 1.395 . S
C270 C271 1.322 . S
C270 H334 0.930 . S
C271 C270 1.322 . S
C271 C272 1.459 . S
C271 H335 0.929 . S
C272 C271 1.459 . S
C272 C273 1.445 . S
C272 C281 1.395 . S
C273 C251 1.432 . S
C273 C272 1.445 . S
C273 C274 1.370 . S
C274 C273 1.370 . S
C274 C275 1.438 . S
C274 H336 0.930 . S
C275 C261 1.497 . S
C275 C274 1.438 . S
C275 C276 1.360 . S
C276 C275 1.360 . S
C276 C277 1.401 . S
C276 C281 1.446 . S
C277 C276 1.401 . S
C277 C278 1.347 . S
C277 H337 0.929 . S
C278 C277 1.347 . S
C278 C279 1.455 . S
C278 H338 0.930 . S
C279 C266 1.412 . S
C279 C278 1.455 . S
C279 C280 1.331 . S
C280 C269 1.451 . S
C280 C279 1.331 . S
C280 C281 1.497 . S
C281 C272 1.395 . S
C281 C276 1.446 . S
C281 C280 1.497 . S
C282 C283 1.582 . S
C282 H339 0.962 . S
C282 H340 0.959 . S
C282 H341 0.958 . S
C283 C282 1.582 . S
C283 O286 1.458 . S
C283 H312 0.980 . S
O284 C229 1.426 . S
O284 C230 1.334 . S
O285 C257 1.412 . S
O285 C258 1.393 . S
O286 C248 1.435 . S
O286 C283 1.458 . S
O287 C239 1.468 . S
O287 C240 1.408 . S
H288 C229 0.980 . S
H289 C228 0.959 . S
H290 C228 0.959 . S
H291 C228 0.960 . S
H292 C231 0.929 . S
H293 C235 0.929 . S
H294 C236 0.959 . S
H295 C236 0.961 . S
H296 C236 0.961 . S
H297 C237 0.960 . S
H298 C237 0.960 . S
H299 C237 0.961 . S
H300 C239 0.980 . S
H301 C238 0.961 . S
H302 C238 0.960 . S
H303 C238 0.959 . S
H304 C241 0.930 . S
H305 C245 0.931 . S
H306 C246 0.959 . S
H307 C246 0.961 . S
H308 C246 0.959 . S
H309 C247 0.960 . S
H310 C247 0.960 . S
H311 C247 0.960 . S
H312 C283 0.980 . S
H313 C249 0.930 . S
H314 C253 0.930 . S
H315 C254 0.961 . S
H316 C254 0.960 . S
H317 C254 0.958 . S
H318 C255 0.961 . S
H319 C255 0.960 . S
H320 C255 0.960 . S
H321 C257 0.980 . S
H322 C256 0.961 . S
H323 C256 0.961 . S
H324 C256 0.959 . S
H325 C259 0.932 . S
H326 C263 0.929 . S
H327 C264 0.961 . S
H328 C264 0.959 . S
H329 C264 0.959 . S
H330 C265 0.960 . S
H331 C265 0.962 . S
H332 C265 0.961 . S
H333 C267 0.929 . S
H334 C270 0.930 . S
H335 C271 0.929 . S
H336 C274 0.930 . S
H337 C277 0.929 . S
H338 C278 0.930 . S
H339 C282 0.962 . S
H340 C282 0.959 . S
H341 C282 0.958 . S
C342 C343 1.560 . S
C342 H403 0.959 . S
C342 H404 0.959 . S
C342 H405 0.960 . S
C343 C342 1.560 . S
C343 O398 1.426 . S
C343 H402 0.980 . S
C344 C345 1.407 . S
C344 C349 1.418 . S
C344 O398 1.334 . S
C345 C344 1.407 . S
C345 C346 1.360 . S
C345 H406 0.929 . S
C346 C345 1.360 . S
C346 C347 1.401 . S
C346 C350 1.527 . S
C347 C346 1.401 . S
C347 C348 1.405 . S
C347 C380 1.587 . S
C348 C347 1.405 . S
C348 C349 1.332 . S
C348 C351 1.496 . S
C349 C344 1.418 . S
C349 C348 1.332 . S
C349 H407 0.929 . S
C350 C346 1.527 . S
C350 H408 0.959 . S
C350 H409 0.961 . S
C350 H410 0.961 . S
C351 C348 1.496 . S
C351 H411 0.960 . S
C351 H412 0.960 . S
C351 H413 0.961 . S
C352 C353 1.517 . S
C352 H415 0.961 . S
C352 H416 0.960 . S
C352 H417 0.959 . S
C353 C352 1.517 . S
C353 O401 1.468 . S
C353 H414 0.980 . S
C354 C355 1.349 . S
C354 C359 1.367 . S
C354 O401 1.408 . S
C355 C354 1.349 . S
C355 C356 1.407 . S
C355 H418 0.930 . S
C356 C355 1.407 . S
C356 C357 1.449 . S
C356 C360 1.535 . S
C357 C356 1.449 . S
C357 C358 1.384 . S
C357 C382 1.553 1_655 S
C358 C357 1.384 . S
C358 C359 1.364 . S
C358 C361 1.450 . S
C359 C354 1.367 . S
C359 C358 1.364 . S
C359 H419 0.931 . S
C360 C356 1.535 . S
C360 H420 0.959 1_655 S
C360 H421 0.961 1_655 S
C360 H422 0.959 . S
C361 C358 1.450 . S
C361 H423 0.960 . S
C361 H424 0.960 1_655 S
C361 H425 0.960 . S
C362 C363 1.309 . S
C362 C367 1.304 . S
C362 O400 1.435 . S
C363 C362 1.309 . S
C363 C364 1.476 . S
C363 H427 0.930 . S
C364 C363 1.476 . S
C364 C365 1.400 . S
C364 C368 1.567 . S
C365 C364 1.400 . S
C365 C366 1.373 . S
C365 C387 1.432 . S
C366 C365 1.373 . S
C366 C367 1.339 . S
C366 C369 1.530 . S
C367 C362 1.304 . S
C367 C366 1.339 . S
C367 H428 0.930 . S
C368 C364 1.567 . S
C368 H429 0.961 . S
C368 H430 0.960 . S
C368 H431 0.958 . S
C369 C366 1.530 . S
C369 H432 0.961 . S
C369 H433 0.960 . S
C369 H434 0.960 . S
C370 C371 1.530 . S
C370 H436 0.961 . S
C370 H437 0.961 . S
C370 H438 0.959 . S
C371 C370 1.530 . S
C371 O399 1.412 . S
C371 H435 0.980 . S
C372 C373 1.288 . S
C372 C377 1.377 . S
C372 O399 1.393 . S
C373 C372 1.288 . S
C373 C374 1.369 . S
C373 H439 0.932 . S
C374 C373 1.369 . S
C374 C375 1.398 . S
C374 C378 1.527 . S
C375 C374 1.398 . S
C375 C376 1.380 . S
C375 C389 1.497 . S
C376 C375 1.380 . S
C376 C377 1.383 . S
C376 C379 1.603 . S
C377 C372 1.377 . S
C377 C376 1.383 . S
C377 H440 0.929 . S
C378 C374 1.527 . S
C378 H441 0.961 . S
C378 H442 0.919 1_455 S
C378 H443 0.959 . S
C379 C376 1.603 . S
C379 H444 0.960 . S
C379 H445 0.962 . S
C379 H446 0.961 . S
C380 C347 1.587 . S
C380 C381 1.360 . S
C380 C393 1.412 . S
C381 C380 1.360 . S
C381 C382 1.365 . S
C381 H447 0.929 . S
C382 C357 1.553 1_455 S
C382 C381 1.365 . S
C382 C383 1.404 1_455 S
C383 C382 1.404 1_655 S
C383 C384 1.397 . S
C383 C394 1.449 1_655 S
C384 C383 1.397 . S
C384 C385 1.322 . S
C384 H448 0.930 . S
C385 C384 1.322 . S
C385 C386 1.459 . S
C385 H449 0.929 . S
C386 C385 1.459 . S
C386 C387 1.445 . S
C386 C395 1.395 1_655 S
C387 C365 1.432 . S
C387 C386 1.445 . S
C387 C388 1.370 . S
C388 C387 1.370 . S
C388 C389 1.438 1_655 S
C388 H450 0.930 . S
C389 C375 1.497 . S
C389 C388 1.438 1_455 S
C389 C390 1.360 . S
C390 C389 1.360 . S
C390 C391 1.401 . S
C390 C395 1.446 . S
C391 C390 1.401 . S
C391 C392 1.347 . S
C391 H451 0.929 . S
C392 C391 1.347 . S
C392 C393 1.455 . S
C392 H452 0.930 . S
C393 C380 1.412 . S
C393 C392 1.455 . S
C393 C394 1.331 . S
C394 C383 1.449 1_455 S
C394 C393 1.331 . S
C394 C395 1.497 . S
C395 C386 1.395 1_455 S
C395 C390 1.446 . S
C395 C394 1.497 . S
C396 C397 1.582 . S
C396 H453 0.962 . S
C396 H454 0.959 . S
C396 H455 0.958 . S
C397 C396 1.582 . S
C397 O400 1.458 . S
C397 H426 0.980 . S
O398 C343 1.426 . S
O398 C344 1.334 . S
O399 C371 1.412 . S
O399 C372 1.393 . S
O400 C362 1.435 . S
O400 C397 1.458 . S
O401 C353 1.468 . S
O401 C354 1.408 . S
H402 C343 0.980 . S
H403 C342 0.959 . S
H404 C342 0.959 . S
H405 C342 0.960 . S
H406 C345 0.929 . S
H407 C349 0.929 . S
H408 C350 0.959 . S
H409 C350 0.961 . S
H410 C350 0.961 . S
H411 C351 0.960 . S
H412 C351 0.960 . S
H413 C351 0.961 . S
H414 C353 0.980 . S
H415 C352 0.961 . S
H416 C352 0.960 . S
H417 C352 0.959 . S
H418 C355 0.930 . S
H419 C359 0.931 . S
H420 C360 0.959 1_455 S
H421 C360 0.961 1_455 S
H422 C360 0.959 . S
H423 C361 0.960 . S
H424 C361 0.960 1_455 S
H425 C361 0.960 . S
H426 C397 0.980 . S
H427 C363 0.930 . S
H428 C367 0.930 . S
H429 C368 0.961 . S
H430 C368 0.960 . S
H431 C368 0.958 . S
H432 C369 0.961 . S
H433 C369 0.960 . S
H434 C369 0.960 . S
H435 C371 0.980 . S
H436 C370 0.961 . S
H437 C370 0.961 . S
H438 C370 0.959 . S
H439 C373 0.932 . S
H440 C377 0.929 . S
H441 C378 0.961 . S
H442 C378 0.919 1_655 S
H443 C378 0.959 . S
H444 C379 0.960 . S
H445 C379 0.962 . S
H446 C379 0.961 . S
H447 C381 0.929 . S
H448 C384 0.930 . S
H449 C385 0.929 . S
H450 C388 0.930 . S
H451 C391 0.929 . S
H452 C392 0.930 . S
H453 C396 0.962 . S
H454 C396 0.959 . S
H455 C396 0.958 . S
C456 C457 1.560 . S
C456 H517 0.959 . S
C456 H518 0.959 . S
C456 H519 0.960 . S
C457 C456 1.560 . S
C457 O512 1.426 . S
C457 H516 0.980 . S
C458 C459 1.407 . S
C458 C463 1.418 . S
C458 O512 1.334 . S
C459 C458 1.407 . S
C459 C460 1.360 . S
C459 H520 0.929 . S
C460 C459 1.360 . S
C460 C461 1.401 . S
C460 C464 1.527 . S
C461 C460 1.401 . S
C461 C462 1.405 . S
C461 C494 1.587 . S
C462 C461 1.405 . S
C462 C463 1.332 . S
C462 C465 1.496 . S
C463 C458 1.418 . S
C463 C462 1.332 . S
C463 H521 0.929 . S
C464 C460 1.527 . S
C464 H522 0.959 . S
C464 H523 0.961 . S
C464 H524 0.961 . S
C465 C462 1.496 . S
C465 H525 0.960 . S
C465 H526 0.960 . S
C465 H527 0.961 . S
C466 C467 1.517 . S
C466 H529 0.961 . S
C466 H530 0.960 . S
C466 H531 0.959 . S
C467 C466 1.517 . S
C467 O515 1.468 . S
C467 H528 0.980 . S
C468 C469 1.349 . S
C468 C473 1.367 . S
C468 O515 1.408 . S
C469 C468 1.349 . S
C469 C470 1.407 . S
C469 H532 0.930 . S
C470 C469 1.407 . S
C470 C471 1.449 . S
C470 C474 1.535 . S
C471 C470 1.449 . S
C471 C472 1.384 . S
C471 C496 1.553 . S
C472 C471 1.384 . S
C472 C473 1.364 . S
C472 C475 1.450 . S
C473 C468 1.367 . S
C473 C472 1.364 . S
C473 H533 0.931 . S
C474 C470 1.535 . S
C474 H534 0.959 . S
C474 H535 0.961 . S
C474 H536 0.959 . S
C475 C472 1.450 . S
C475 H537 0.960 . S
C475 H538 0.960 . S
C475 H539 0.960 . S
C476 C477 1.309 . S
C476 C481 1.304 . S
C476 O514 1.435 . S
C477 C476 1.309 . S
C477 C478 1.476 . S
C477 H541 0.930 . S
C478 C477 1.476 . S
C478 C479 1.400 . S
C478 C482 1.567 . S
C479 C478 1.400 . S
C479 C480 1.373 . S
C479 C501 1.432 . S
C480 C479 1.373 . S
C480 C481 1.339 . S
C480 C483 1.530 . S
C481 C476 1.304 . S
C481 C480 1.339 . S
C481 H542 0.930 . S
C482 C478 1.567 . S
C482 H543 0.961 . S
C482 H544 0.960 . S
C482 H545 0.958 . S
C483 C480 1.530 . S
C483 H546 0.961 . S
C483 H547 0.960 . S
C483 H548 0.960 . S
C484 C485 1.530 . S
C484 H550 0.961 . S
C484 H551 0.961 . S
C484 H552 0.959 . S
C485 C484 1.530 . S
C485 O513 1.412 . S
C485 H549 0.980 . S
C486 C487 1.288 . S
C486 C491 1.377 . S
C486 O513 1.393 . S
C487 C486 1.288 . S
C487 C488 1.369 . S
C487 H553 0.932 . S
C488 C487 1.369 . S
C488 C489 1.398 . S
C488 C492 1.527 1_565 S
C489 C488 1.398 . S
C489 C490 1.380 . S
C489 C503 1.497 1_565 S
C490 C489 1.380 . S
C490 C491 1.383 . S
C490 C493 1.603 . S
C491 C486 1.377 . S
C491 C490 1.383 . S
C491 H554 0.929 . S
C492 C488 1.527 1_545 S
C492 H555 0.961 1_545 S
C492 H556 0.959 . S
C492 H557 0.959 1_545 S
C493 C490 1.603 . S
C493 H558 0.960 . S
C493 H559 0.962 . S
C493 H560 0.961 . S
C494 C461 1.587 . S
C494 C495 1.360 . S
C494 C507 1.412 . S
C495 C494 1.360 . S
C495 C496 1.365 1_565 S
C495 H561 0.929 . S
C496 C471 1.553 . S
C496 C495 1.365 1_545 S
C496 C497 1.404 . S
C497 C496 1.404 . S
C497 C498 1.395 . S
C497 C508 1.418 1_545 S
C498 C497 1.395 . S
C498 C499 1.322 . S
C498 H562 0.930 . S
C499 C498 1.322 . S
C499 C500 1.459 . S
C499 H563 0.929 . S
C500 C499 1.459 . S
C500 C501 1.445 1_556 S
C500 C509 1.395 . S
C501 C479 1.432 . S
C501 C500 1.445 1_554 S
C501 C502 1.370 . S
C502 C501 1.370 . S
C502 C503 1.438 . S
C502 H564 0.930 . S
C503 C489 1.497 1_545 S
C503 C502 1.438 . S
C503 C504 1.360 1_545 S
C504 C503 1.360 1_565 S
C504 C505 1.401 . S
C504 C509 1.446 1_564 S
C505 C504 1.401 . S
C505 C506 1.347 1_554 S
C505 H565 0.929 . S
C506 C505 1.347 1_556 S
C506 C507 1.455 . S
C506 H566 0.930 . S
C507 C494 1.412 . S
C507 C506 1.455 . S
C507 C508 1.377 . S
C508 C497 1.418 1_565 S
C508 C507 1.377 . S
C508 C509 1.481 1_565 S
C509 C500 1.395 . S
C509 C504 1.446 1_546 S
C509 C508 1.481 1_545 S
C510 C511 1.582 . S
C510 H567 0.962 . S
C510 H568 0.959 . S
C510 H569 0.958 . S
C511 C510 1.582 . S
C511 O514 1.458 . S
C511 H540 0.980 . S
O512 C457 1.426 . S
O512 C458 1.334 . S
O513 C485 1.412 . S
O513 C486 1.393 . S
O514 C476 1.435 . S
O514 C511 1.458 . S
O515 C467 1.468 . S
O515 C468 1.408 . S
H516 C457 0.980 . S
H517 C456 0.959 . S
H518 C456 0.959 . S
H519 C456 0.960 . S
H520 C459 0.929 . S
H521 C463 0.929 . S
H522 C464 0.959 . S
H523 C464 0.961 . S
H524 C464 0.961 . S
H525 C465 0.960 . S
H526 C465 0.960 . S
H527 C465 0.961 . S
H528 C467 0.980 . S
H529 C466 0.961 . S
H530 C466 0.960 . S
H531 C466 0.959 . S
H532 C469 0.930 . S
H533 C473 0.931 . S
H534 C474 0.959 . S
H535 C474 0.961 . S
H536 C474 0.959 . S
H537 C475 0.960 . S
H538 C475 0.960 . S
H539 C475 0.960 . S
H540 C511 0.980 . S
H541 C477 0.930 . S
H542 C481 0.930 . S
H543 C482 0.961 . S
H544 C482 0.960 . S
H545 C482 0.958 . S
H546 C483 0.961 . S
H547 C483 0.960 . S
H548 C483 0.960 . S
H549 C485 0.980 . S
H550 C484 0.961 . S
H551 C484 0.961 . S
H552 C484 0.959 . S
H553 C487 0.932 . S
H554 C491 0.929 . S
H555 C492 0.961 1_565 S
H556 C492 0.959 . S
H557 C492 0.959 1_565 S
H558 C493 0.960 . S
H559 C493 0.962 . S
H560 C493 0.961 . S
H561 C495 0.929 . S
H562 C498 0.930 . S
H563 C499 0.929 . S
H564 C502 0.930 . S
H565 C505 0.929 . S
H566 C506 0.930 . S
H567 C510 0.962 . S
H568 C510 0.959 . S
H569 C510 0.958 . S
C570 C571 1.560 . S
C570 H631 0.959 . S
C570 H632 0.959 . S
C570 H633 0.960 . S
C571 C570 1.560 . S
C571 O626 1.426 . S
C571 H630 0.980 . S
C572 C573 1.407 . S
C572 C577 1.418 . S
C572 O626 1.334 . S
C573 C572 1.407 . S
C573 C574 1.360 . S
C573 H634 0.929 . S
C574 C573 1.360 . S
C574 C575 1.401 . S
C574 C578 1.527 . S
C575 C574 1.401 . S
C575 C576 1.405 . S
C575 C608 1.587 . S
C576 C575 1.405 . S
C576 C577 1.332 . S
C576 C579 1.496 . S
C577 C572 1.418 . S
C577 C576 1.332 . S
C577 H635 0.929 . S
C578 C574 1.527 . S
C578 H636 0.959 . S
C578 H637 0.961 . S
C578 H638 0.961 . S
C579 C576 1.496 . S
C579 H639 0.960 . S
C579 H640 0.960 . S
C579 H641 0.961 . S
C580 C581 1.517 . S
C580 H643 0.961 . S
C580 H644 0.960 . S
C580 H645 0.959 . S
C581 C580 1.517 . S
C581 O629 1.468 . S
C581 H642 0.980 . S
C582 C583 1.349 . S
C582 C587 1.367 . S
C582 O629 1.408 . S
C583 C582 1.349 . S
C583 C584 1.407 . S
C583 H646 0.930 . S
C584 C583 1.407 . S
C584 C585 1.449 . S
C584 C588 1.535 . S
C585 C584 1.449 . S
C585 C586 1.384 . S
C585 C610 1.553 . S
C586 C585 1.384 . S
C586 C587 1.364 . S
C586 C589 1.450 . S
C587 C582 1.367 . S
C587 C586 1.364 . S
C587 H647 0.931 . S
C588 C584 1.535 . S
C588 H648 0.959 . S
C588 H649 0.961 . S
C588 H650 0.959 . S
C589 C586 1.450 . S
C589 H651 0.960 . S
C589 H652 0.960 . S
C589 H653 0.960 . S
C590 C591 1.309 . S
C590 C595 1.304 . S
C590 O628 1.435 . S
C591 C590 1.309 . S
C591 C592 1.476 . S
C591 H655 0.930 . S
C592 C591 1.476 . S
C592 C593 1.400 . S
C592 C596 1.567 . S
C593 C592 1.400 . S
C593 C594 1.373 . S
C593 C615 1.432 . S
C594 C593 1.373 . S
C594 C595 1.339 . S
C594 C597 1.530 . S
C595 C590 1.304 . S
C595 C594 1.339 . S
C595 H656 0.930 . S
C596 C592 1.567 . S
C596 H657 0.961 . S
C596 H658 0.960 . S
C596 H659 0.958 . S
C597 C594 1.530 . S
C597 H660 0.961 . S
C597 H661 0.960 . S
C597 H662 0.960 . S
C598 C599 1.530 . S
C598 H664 0.961 . S
C598 H665 0.961 . S
C598 H666 0.959 . S
C599 C598 1.530 . S
C599 O627 1.412 . S
C599 H663 0.980 . S
C600 C601 1.288 . S
C600 C605 1.377 . S
C600 O627 1.393 . S
C601 C600 1.288 . S
C601 C602 1.369 . S
C601 H667 0.932 . S
C602 C601 1.369 . S
C602 C603 1.398 . S
C602 C606 1.527 . S
C603 C602 1.398 . S
C603 C604 1.380 . S
C603 C617 1.497 . S
C604 C603 1.380 . S
C604 C605 1.383 . S
C604 C607 1.603 . S
C605 C600 1.377 . S
C605 C604 1.383 . S
C605 H668 0.929 . S
C606 C602 1.527 . S
C606 H669 0.961 . S
C606 H670 0.959 . S
C606 H671 0.959 . S
C607 C604 1.603 . S
C607 H672 0.960 . S
C607 H673 0.962 . S
C607 H674 0.961 . S
C608 C575 1.587 . S
C608 C609 1.360 . S
C608 C621 1.412 . S
C609 C608 1.360 . S
C609 C610 1.365 . S
C609 H675 0.929 . S
C610 C585 1.553 . S
C610 C609 1.365 . S
C610 C611 1.404 . S
C611 C610 1.404 . S
C611 C612 1.395 . S
C611 C622 1.451 . S
C612 C611 1.395 . S
C612 C613 1.322 . S
C612 H676 0.930 . S
C613 C612 1.322 . S
C613 C614 1.459 . S
C613 H677 0.929 . S
C614 C613 1.459 . S
C614 C615 1.445 . S
C614 C623 1.395 . S
C615 C593 1.432 . S
C615 C614 1.445 . S
C615 C616 1.370 . S
C616 C615 1.370 . S
C616 C617 1.438 . S
C616 H678 0.930 . S
C617 C603 1.497 . S
C617 C616 1.438 . S
C617 C618 1.360 . S
C618 C617 1.360 . S
C618 C619 1.401 . S
C618 C623 1.446 . S
C619 C618 1.401 . S
C619 C620 1.347 . S
C619 H679 0.929 . S
C620 C619 1.347 . S
C620 C621 1.455 . S
C620 H680 0.930 . S
C621 C608 1.412 . S
C621 C620 1.455 . S
C621 C622 1.331 . S
C622 C611 1.451 . S
C622 C621 1.331 . S
C622 C623 1.497 . S
C623 C614 1.395 . S
C623 C618 1.446 . S
C623 C622 1.497 . S
C624 C625 1.582 . S
C624 H681 0.962 . S
C624 H682 0.959 . S
C624 H683 0.958 . S
C625 C624 1.582 . S
C625 O628 1.458 . S
C625 H654 0.980 . S
O626 C571 1.426 . S
O626 C572 1.334 . S
O627 C599 1.412 . S
O627 C600 1.393 . S
O628 C590 1.435 . S
O628 C625 1.458 . S
O629 C581 1.468 . S
O629 C582 1.408 . S
H630 C571 0.980 . S
H631 C570 0.959 . S
H632 C570 0.959 . S
H633 C570 0.960 . S
H634 C573 0.929 . S
H635 C577 0.929 . S
H636 C578 0.959 . S
H637 C578 0.961 . S
H638 C578 0.961 . S
H639 C579 0.960 . S
H640 C579 0.960 . S
H641 C579 0.961 . S
H642 C581 0.980 . S
H643 C580 0.961 . S
H644 C580 0.960 . S
H645 C580 0.959 . S
H646 C583 0.930 . S
H647 C587 0.931 . S
H648 C588 0.959 . S
H649 C588 0.961 . S
H650 C588 0.959 . S
H651 C589 0.960 . S
H652 C589 0.960 . S
H653 C589 0.960 . S
H654 C625 0.980 . S
H655 C591 0.930 . S
H656 C595 0.930 . S
H657 C596 0.961 . S
H658 C596 0.960 . S
H659 C596 0.958 . S
H660 C597 0.961 . S
H661 C597 0.960 . S
H662 C597 0.960 . S
H663 C599 0.980 . S
H664 C598 0.961 . S
H665 C598 0.961 . S
H666 C598 0.959 . S
H667 C601 0.932 . S
H668 C605 0.929 . S
H669 C606 0.961 . S
H670 C606 0.959 . S
H671 C606 0.959 . S
H672 C607 0.960 . S
H673 C607 0.962 . S
H674 C607 0.961 . S
H675 C609 0.929 . S
H676 C612 0.930 . S
H677 C613 0.929 . S
H678 C616 0.930 . S
H679 C619 0.929 . S
H680 C620 0.930 . S
H681 C624 0.962 . S
H682 C624 0.959 . S
H683 C624 0.958 . S
C684 O685 1.306 . S
C684 O687 1.160 . S
O685 C684 1.306 . S
O685 Cd686 2.228 . S
Cd686 O685 2.228 . S
Cd686 O690 2.273 . S
Cd686 O694 2.277 . S
O687 C684 1.160 . S
O687 Cd688 2.203 . S
Cd688 O687 2.203 . S
Cd688 O690 2.411 . S
Cd688 O691 2.333 . S
Cd688 O692 2.352 . S
Cd688 O696 2.277 . S
Cd688 O697 2.356 . S
C689 O694 1.209 . S
C689 O696 1.226 . S
O690 Cd686 2.273 . S
O690 Cd688 2.411 . S
O690 C693 1.320 . S
O691 Cd688 2.333 . S
O691 C693 1.214 . S
O692 Cd688 2.352 . S
O692 C695 1.258 . S
C693 O690 1.320 . S
C693 O691 1.214 . S
O694 Cd686 2.277 . S
O694 C689 1.209 . S
C695 O692 1.258 . S
C695 O697 1.282 . S
O696 Cd688 2.277 . S
O696 C689 1.226 . S
O697 Cd688 2.356 . S
O697 C695 1.282 . S
C698 O699 1.306 . S
C698 O701 1.160 . S
O699 C698 1.306 . S
O699 Cd700 2.228 . S
Cd700 O699 2.228 . S
Cd700 O704 2.273 . S
Cd700 O708 2.277 . S
O701 C698 1.160 . S
O701 Cd702 2.203 . S
Cd702 O701 2.203 . S
Cd702 O704 2.411 . S
Cd702 O705 2.333 . S
Cd702 O706 2.352 . S
Cd702 O710 2.277 . S
Cd702 O711 2.356 . S
C703 O708 1.209 . S
C703 O710 1.226 . S
O704 Cd700 2.273 . S
O704 Cd702 2.411 . S
O704 C707 1.320 . S
O705 Cd702 2.333 . S
O705 C707 1.214 . S
O706 Cd702 2.352 . S
O706 C709 1.258 . S
C707 O704 1.320 . S
C707 O705 1.214 . S
O708 Cd700 2.277 . S
O708 C703 1.209 . S
C709 O706 1.258 . S
C709 O711 1.282 . S
O710 Cd702 2.277 . S
O710 C703 1.226 . S
O711 Cd702 2.356 . S
O711 C709 1.282 . S
C712 O713 1.306 . S
C712 O715 1.160 . S
O713 C712 1.306 . S
O713 Cd714 2.228 . S
Cd714 O713 2.228 . S
Cd714 O718 2.273 . S
Cd714 O722 2.277 . S
O715 C712 1.160 . S
O715 Cd716 2.203 . S
Cd716 O715 2.203 . S
Cd716 O718 2.411 . S
Cd716 O719 2.333 . S
Cd716 O720 2.352 . S
Cd716 O724 2.277 . S
Cd716 O725 2.356 . S
C717 O722 1.209 . S
C717 O724 1.226 . S
O718 Cd714 2.273 . S
O718 Cd716 2.411 . S
O718 C721 1.320 . S
O719 Cd716 2.333 . S
O719 C721 1.214 . S
O720 Cd716 2.352 . S
O720 C723 1.258 . S
C721 O718 1.320 . S
C721 O719 1.214 . S
O722 Cd714 2.277 . S
O722 C717 1.209 . S
C723 O720 1.258 . S
C723 O725 1.282 . S
O724 Cd716 2.277 . S
O724 C717 1.226 . S
O725 Cd716 2.356 . S
O725 C723 1.282 . S
C726 O727 1.306 . S
C726 O729 1.160 . S
O727 C726 1.306 . S
O727 Cd728 2.228 . S
Cd728 O727 2.228 . S
Cd728 O732 2.273 . S
Cd728 O736 2.277 . S
O729 C726 1.160 . S
O729 Cd730 2.203 . S
Cd730 O729 2.203 . S
Cd730 O732 2.411 . S
Cd730 O733 2.333 . S
Cd730 O734 2.352 . S
Cd730 O738 2.277 . S
Cd730 O739 2.356 . S
C731 O736 1.209 . S
C731 O738 1.226 . S
O732 Cd728 2.273 . S
O732 Cd730 2.411 . S
O732 C735 1.320 . S
O733 Cd730 2.333 . S
O733 C735 1.214 . S
O734 Cd730 2.352 . S
O734 C737 1.258 . S
C735 O732 1.320 . S
C735 O733 1.214 . S
O736 Cd728 2.277 . S
O736 C731 1.209 . S
C737 O734 1.258 . S
C737 O739 1.282 . S
O738 Cd730 2.277 . S
O738 C731 1.226 . S
O739 Cd730 2.356 . S
O739 C737 1.282 . S
C740 O741 1.306 . S
C740 O743 1.160 . S
O741 C740 1.306 . S
O741 Cd742 2.228 . S
Cd742 O741 2.228 . S
Cd742 O746 2.273 . S
Cd742 O750 2.277 . S
O743 C740 1.160 . S
O743 Cd744 2.203 . S
Cd744 O743 2.203 . S
Cd744 O746 2.411 . S
Cd744 O747 2.333 . S
Cd744 O748 2.352 . S
Cd744 O752 2.277 . S
Cd744 O753 2.356 . S
C745 O750 1.209 . S
C745 O752 1.226 . S
O746 Cd742 2.273 . S
O746 Cd744 2.411 . S
O746 C749 1.320 . S
O747 Cd744 2.333 . S
O747 C749 1.214 . S
O748 Cd744 2.352 . S
O748 C751 1.258 . S
C749 O746 1.320 . S
C749 O747 1.214 . S
O750 Cd742 2.277 . S
O750 C745 1.209 . S
C751 O748 1.258 . S
C751 O753 1.282 . S
O752 Cd744 2.277 . S
O752 C745 1.226 . S
O753 Cd744 2.356 . S
O753 C751 1.282 . S
C754 O755 1.306 . S
C754 O757 1.160 . S
O755 C754 1.306 . S
O755 Cd756 2.228 . S
Cd756 O755 2.228 . S
Cd756 O760 2.273 . S
Cd756 O764 2.277 . S
O757 C754 1.160 . S
O757 Cd758 2.203 . S
Cd758 O757 2.203 . S
Cd758 O760 2.411 . S
Cd758 O761 2.333 . S
Cd758 O762 2.352 . S
Cd758 O766 2.277 . S
Cd758 O767 2.356 . S
C759 O764 1.209 . S
C759 O766 1.226 . S
O760 Cd756 2.273 . S
O760 Cd758 2.411 . S
O760 C763 1.320 . S
O761 Cd758 2.333 . S
O761 C763 1.214 . S
O762 Cd758 2.352 . S
O762 C765 1.258 . S
C763 O760 1.320 . S
C763 O761 1.214 . S
O764 Cd756 2.277 . S
O764 C759 1.209 . S
C765 O762 1.258 . S
C765 O767 1.282 . S
O766 Cd758 2.277 . S
O766 C759 1.226 . S
O767 Cd758 2.356 . S
O767 C765 1.282 . S
C768 C769 1.391 . S
C768 C770 1.394 . S
C768 H784 0.931 . S
C769 C768 1.391 . S
C769 C773 1.376 . S
C770 C768 1.394 . S
C770 C771 1.369 . S
C770 C774 1.531 . S
C771 C770 1.369 . S
C771 C772 1.410 . S
C771 C779 1.503 . S
C772 C771 1.410 . S
C772 C773 1.392 . S
C772 C775 1.511 . S
C773 C769 1.376 . S
C773 C772 1.392 . S
C773 H785 0.929 . S
C774 C770 1.531 . S
C774 H786 0.960 . S
C774 H787 0.962 . S
C774 H788 0.960 . S
C775 C772 1.511 . S
C775 H789 0.961 . S
C775 H790 0.961 . S
C775 H791 0.961 . S
C776 C777 1.370 . S
C776 C778 1.363 . S
C776 H792 0.931 . S
C777 C776 1.370 . S
C777 C781 1.408 . S
C778 C776 1.363 . S
C778 C779 1.370 . S
C778 C782 1.524 . S
C779 C771 1.503 . S
C779 C778 1.370 . S
C779 C780 1.403 . S
C780 C779 1.403 . S
C780 C781 1.404 . S
C780 C783 1.539 . S
C781 C777 1.408 . S
C781 C780 1.404 . S
C781 H793 0.930 . S
C782 C778 1.524 . S
C782 H794 0.956 . S
C782 H795 0.961 . S
C782 H796 0.961 . S
C783 C780 1.539 . S
C783 H797 0.958 . S
C783 H798 0.961 . S
C783 H799 0.960 . S
H784 C768 0.931 . S
H785 C773 0.929 . S
H786 C774 0.960 . S
H787 C774 0.962 . S
H788 C774 0.960 . S
H789 C775 0.961 . S
H790 C775 0.961 . S
H791 C775 0.961 . S
H792 C776 0.931 . S
H793 C781 0.930 . S
H794 C782 0.956 . S
H795 C782 0.961 . S
H796 C782 0.961 . S
H797 C783 0.958 . S
H798 C783 0.961 . S
H799 C783 0.960 . S
C800 C801 1.391 . S
C800 C802 1.394 . S
C800 H816 0.931 . S
C801 C800 1.391 . S
C801 C805 1.376 . S
C802 C800 1.394 . S
C802 C803 1.369 . S
C802 C806 1.531 . S
C803 C802 1.369 . S
C803 C804 1.410 . S
C803 C811 1.503 . S
C804 C803 1.410 . S
C804 C805 1.392 . S
C804 C807 1.511 . S
C805 C801 1.376 . S
C805 C804 1.392 . S
C805 H817 0.929 . S
C806 C802 1.531 . S
C806 H818 0.960 . S
C806 H819 0.962 . S
C806 H820 0.960 . S
C807 C804 1.511 . S
C807 H821 0.961 . S
C807 H822 0.961 . S
C807 H823 0.961 . S
C808 C809 1.370 . S
C808 C810 1.363 . S
C808 H824 0.931 . S
C809 C808 1.370 . S
C809 C813 1.408 . S
C810 C808 1.363 . S
C810 C811 1.370 . S
C810 C814 1.524 . S
C811 C803 1.503 . S
C811 C810 1.370 . S
C811 C812 1.403 . S
C812 C811 1.403 . S
C812 C813 1.404 . S
C812 C815 1.539 . S
C813 C809 1.408 . S
C813 C812 1.404 . S
C813 H825 0.930 . S
C814 C810 1.524 . S
C814 H826 0.956 . S
C814 H827 0.961 . S
C814 H828 0.961 . S
C815 C812 1.539 . S
C815 H829 0.958 . S
C815 H830 0.961 . S
C815 H831 0.960 . S
H816 C800 0.931 . S
H817 C805 0.929 . S
H818 C806 0.960 . S
H819 C806 0.962 . S
H820 C806 0.960 . S
H821 C807 0.961 . S
H822 C807 0.961 . S
H823 C807 0.961 . S
H824 C808 0.931 . S
H825 C813 0.930 . S
H826 C814 0.956 . S
H827 C814 0.961 . S
H828 C814 0.961 . S
H829 C815 0.958 . S
H830 C815 0.961 . S
H831 C815 0.960 . S
C832 C833 1.391 . S
C832 C834 1.394 . S
C832 H848 0.931 . S
C833 C832 1.391 . S
C833 C837 1.376 . S
C834 C832 1.394 . S
C834 C835 1.369 . S
C834 C838 1.531 . S
C835 C834 1.369 . S
C835 C836 1.410 . S
C835 C843 1.503 . S
C836 C835 1.410 . S
C836 C837 1.392 . S
C836 C839 1.511 . S
C837 C833 1.376 . S
C837 C836 1.392 . S
C837 H849 0.929 . S
C838 C834 1.531 . S
C838 H850 0.960 . S
C838 H851 0.962 . S
C838 H852 0.960 . S
C839 C836 1.511 . S
C839 H853 0.961 . S
C839 H854 0.961 . S
C839 H855 0.961 . S
C840 C841 1.370 . S
C840 C842 1.363 . S
C840 H856 0.931 . S
C841 C840 1.370 . S
C841 C845 1.408 . S
C842 C840 1.363 . S
C842 C843 1.370 . S
C842 C846 1.524 . S
C843 C835 1.503 . S
C843 C842 1.370 . S
C843 C844 1.403 . S
C844 C843 1.403 . S
C844 C845 1.404 . S
C844 C847 1.539 . S
C845 C841 1.408 . S
C845 C844 1.404 . S
C845 H857 0.930 . S
C846 C842 1.524 . S
C846 H858 0.956 . S
C846 H859 0.961 . S
C846 H860 0.961 . S
C847 C844 1.539 . S
C847 H861 0.958 . S
C847 H862 0.961 . S
C847 H863 0.960 . S
H848 C832 0.931 . S
H849 C837 0.929 . S
H850 C838 0.960 . S
H851 C838 0.962 . S
H852 C838 0.960 . S
H853 C839 0.961 . S
H854 C839 0.961 . S
H855 C839 0.961 . S
H856 C840 0.931 . S
H857 C845 0.930 . S
H858 C846 0.956 . S
H859 C846 0.961 . S
H860 C846 0.961 . S
H861 C847 0.958 . S
H862 C847 0.961 . S
H863 C847 0.960 . S
C864 C865 1.391 . S
C864 C866 1.394 . S
C864 H880 0.931 . S
C865 C864 1.391 . S
C865 C869 1.376 . S
C866 C864 1.394 . S
C866 C867 1.369 . S
C866 C870 1.531 . S
C867 C866 1.369 . S
C867 C868 1.410 . S
C867 C875 1.503 . S
C868 C867 1.410 . S
C868 C869 1.392 . S
C868 C871 1.511 . S
C869 C865 1.376 . S
C869 C868 1.392 . S
C869 H881 0.929 . S
C870 C866 1.531 . S
C870 H882 0.960 . S
C870 H883 0.962 . S
C870 H884 0.960 . S
C871 C868 1.511 . S
C871 H885 0.961 . S
C871 H886 0.961 . S
C871 H887 0.961 . S
C872 C873 1.370 . S
C872 C874 1.363 . S
C872 H888 0.931 . S
C873 C872 1.370 . S
C873 C877 1.408 . S
C874 C872 1.363 . S
C874 C875 1.370 . S
C874 C878 1.524 . S
C875 C867 1.503 . S
C875 C874 1.370 . S
C875 C876 1.403 . S
C876 C875 1.403 . S
C876 C877 1.404 . S
C876 C879 1.539 . S
C877 C873 1.408 . S
C877 C876 1.404 . S
C877 H889 0.930 . S
C878 C874 1.524 . S
C878 H890 0.956 . S
C878 H891 0.961 . S
C878 H892 0.961 . S
C879 C876 1.539 . S
C879 H893 0.958 . S
C879 H894 0.961 . S
C879 H895 0.960 . S
H880 C864 0.931 . S
H881 C869 0.929 . S
H882 C870 0.960 . S
H883 C870 0.962 . S
H884 C870 0.960 . S
H885 C871 0.961 . S
H886 C871 0.961 . S
H887 C871 0.961 . S
H888 C872 0.931 . S
H889 C877 0.930 . S
H890 C878 0.956 . S
H891 C878 0.961 . S
H892 C878 0.961 . S
H893 C879 0.958 . S
H894 C879 0.961 . S
H895 C879 0.960 . S
C896 C897 1.391 . S
C896 C898 1.394 . S
C896 H912 0.931 . S
C897 C896 1.391 . S
C897 C901 1.376 . S
C898 C896 1.394 . S
C898 C899 1.369 . S
C898 C902 1.531 . S
C899 C898 1.369 . S
C899 C900 1.410 . S
C899 C907 1.503 . S
C900 C899 1.410 . S
C900 C901 1.392 . S
C900 C903 1.511 . S
C901 C897 1.376 . S
C901 C900 1.392 . S
C901 H913 0.929 . S
C902 C898 1.531 . S
C902 H914 0.960 . S
C902 H915 0.962 . S
C902 H916 0.960 . S
C903 C900 1.511 . S
C903 H917 0.961 . S
C903 H918 0.961 . S
C903 H919 0.961 . S
C904 C905 1.370 . S
C904 C906 1.363 . S
C904 H920 0.931 . S
C905 C904 1.370 . S
C905 C909 1.408 . S
C906 C904 1.363 . S
C906 C907 1.370 . S
C906 C910 1.524 . S
C907 C899 1.503 . S
C907 C906 1.370 . S
C907 C908 1.403 . S
C908 C907 1.403 . S
C908 C909 1.404 . S
C908 C911 1.539 . S
C909 C905 1.408 . S
C909 C908 1.404 . S
C909 H921 0.930 . S
C910 C906 1.524 . S
C910 H922 0.956 . S
C910 H923 0.961 . S
C910 H924 0.961 . S
C911 C908 1.539 . S
C911 H925 0.958 . S
C911 H926 0.961 . S
C911 H927 0.960 . S
H912 C896 0.931 . S
H913 C901 0.929 . S
H914 C902 0.960 . S
H915 C902 0.962 . S
H916 C902 0.960 . S
H917 C903 0.961 . S
H918 C903 0.961 . S
H919 C903 0.961 . S
H920 C904 0.931 . S
H921 C909 0.930 . S
H922 C910 0.956 . S
H923 C910 0.961 . S
H924 C910 0.961 . S
H925 C911 0.958 . S
H926 C911 0.961 . S
H927 C911 0.960 . S
C928 C929 1.391 . S
C928 C930 1.394 . S
C928 H944 0.931 . S
C929 C928 1.391 . S
C929 C933 1.376 . S
C930 C928 1.394 . S
C930 C931 1.369 . S
C930 C934 1.531 . S
C931 C930 1.369 . S
C931 C932 1.410 . S
C931 C939 1.503 . S
C932 C931 1.410 . S
C932 C933 1.392 . S
C932 C935 1.511 . S
C933 C929 1.376 . S
C933 C932 1.392 . S
C933 H945 0.929 . S
C934 C930 1.531 . S
C934 H946 0.960 . S
C934 H947 0.962 . S
C934 H948 0.960 . S
C935 C932 1.511 . S
C935 H949 0.961 . S
C935 H950 0.961 . S
C935 H951 0.961 . S
C936 C937 1.370 . S
C936 C938 1.363 . S
C936 H952 0.931 . S
C937 C936 1.370 . S
C937 C941 1.408 . S
C938 C936 1.363 . S
C938 C939 1.370 . S
C938 C942 1.524 . S
C939 C931 1.503 . S
C939 C938 1.370 . S
C939 C940 1.403 . S
C940 C939 1.403 . S
C940 C941 1.404 . S
C940 C943 1.539 . S
C941 C937 1.408 . S
C941 C940 1.404 . S
C941 H953 0.930 . S
C942 C938 1.524 . S
C942 H954 0.956 . S
C942 H955 0.961 . S
C942 H956 0.961 . S
C943 C940 1.539 . S
C943 H957 0.958 . S
C943 H958 0.961 . S
C943 H959 0.960 . S
H944 C928 0.931 . S
H945 C933 0.929 . S
H946 C934 0.960 . S
H947 C934 0.962 . S
H948 C934 0.960 . S
H949 C935 0.961 . S
H950 C935 0.961 . S
H951 C935 0.961 . S
H952 C936 0.931 . S
H953 C941 0.930 . S
H954 C942 0.956 . S
H955 C942 0.961 . S
H956 C942 0.961 . S
H957 C943 0.958 . S
H958 C943 0.961 . S
H959 C943 0.960 . S
C960 C961 1.391 . S
C960 C962 1.394 . S
C960 H976 0.931 . S
C961 C960 1.391 . S
C961 C965 1.376 . S
C962 C960 1.394 . S
C962 C963 1.369 . S
C962 C966 1.531 . S
C963 C962 1.369 . S
C963 C964 1.410 . S
C963 C971 1.503 . S
C964 C963 1.410 . S
C964 C965 1.392 . S
C964 C967 1.511 . S
C965 C961 1.376 . S
C965 C964 1.392 . S
C965 H977 0.929 . S
C966 C962 1.531 . S
C966 H978 0.960 . S
C966 H979 0.962 . S
C966 H980 0.960 . S
C967 C964 1.511 . S
C967 H981 0.961 . S
C967 H982 0.961 . S
C967 H983 0.961 . S
C968 C969 1.370 . S
C968 C970 1.363 . S
C968 H984 0.931 . S
C969 C968 1.370 . S
C969 C973 1.408 . S
C970 C968 1.363 . S
C970 C971 1.370 . S
C970 C974 1.524 . S
C971 C963 1.503 . S
C971 C970 1.370 . S
C971 C972 1.403 . S
C972 C971 1.403 . S
C972 C973 1.404 . S
C972 C975 1.539 . S
C973 C969 1.408 . S
C973 C972 1.404 . S
C973 H985 0.930 . S
C974 C970 1.524 . S
C974 H986 0.956 . S
C974 H987 0.961 . S
C974 H988 0.961 . S
C975 C972 1.539 . S
C975 H989 0.958 . S
C975 H990 0.961 . S
C975 H991 0.960 . S
H976 C960 0.931 . S
H977 C965 0.929 . S
H978 C966 0.960 . S
H979 C966 0.962 . S
H980 C966 0.960 . S
H981 C967 0.961 . S
H982 C967 0.961 . S
H983 C967 0.961 . S
H984 C968 0.931 . S
H985 C973 0.930 . S
H986 C974 0.956 . S
H987 C974 0.961 . S
H988 C974 0.961 . S
H989 C975 0.958 . S
H990 C975 0.961 . S
H991 C975 0.960 . S
C992 C993 1.391 . S
C992 C994 1.394 . S
C992 H1008 0.931 . S
C993 C992 1.391 . S
C993 C997 1.376 . S
C994 C992 1.394 . S
C994 C995 1.369 . S
C994 C998 1.531 . S
C995 C994 1.369 . S
C995 C996 1.410 . S
C995 C1003 1.503 . S
C996 C995 1.410 . S
C996 C997 1.392 . S
C996 C999 1.511 . S
C997 C993 1.376 . S
C997 C996 1.392 . S
C997 H1009 0.929 . S
C998 C994 1.531 . S
C998 H1010 0.960 . S
C998 H1011 0.962 . S
C998 H1012 0.960 . S
C999 C996 1.511 . S
C999 H1013 0.961 . S
C999 H1014 0.961 . S
C999 H1015 0.961 . S
C1000 C1001 1.370 . S
C1000 C1002 1.363 . S
C1000 H1016 0.931 . S
C1001 C1000 1.370 . S
C1001 C1005 1.408 . S
C1002 C1000 1.363 . S
C1002 C1003 1.370 . S
C1002 C1006 1.524 . S
C1003 C995 1.503 . S
C1003 C1002 1.370 . S
C1003 C1004 1.403 . S
C1004 C1003 1.403 . S
C1004 C1005 1.404 . S
C1004 C1007 1.539 . S
C1005 C1001 1.408 . S
C1005 C1004 1.404 . S
C1005 H1017 0.930 . S
C1006 C1002 1.524 . S
C1006 H1018 0.956 . S
C1006 H1019 0.961 . S
C1006 H1020 0.961 . S
C1007 C1004 1.539 . S
C1007 H1021 0.958 . S
C1007 H1022 0.961 . S
C1007 H1023 0.960 . S
H1008 C992 0.931 . S
H1009 C997 0.929 . S
H1010 C998 0.960 . S
H1011 C998 0.962 . S
H1012 C998 0.960 . S
H1013 C999 0.961 . S
H1014 C999 0.961 . S
H1015 C999 0.961 . S
H1016 C1000 0.931 . S
H1017 C1005 0.930 . S
H1018 C1006 0.956 . S
H1019 C1006 0.961 . S
H1020 C1006 0.961 . S
H1021 C1007 0.958 . S
H1022 C1007 0.961 . S
H1023 C1007 0.960 . S
C1024 C1025 1.391 . S
C1024 C1026 1.394 . S
C1024 H1040 0.931 . S
C1025 C1024 1.391 . S
C1025 C1029 1.376 . S
C1026 C1024 1.394 . S
C1026 C1027 1.369 . S
C1026 C1030 1.531 . S
C1027 C1026 1.369 . S
C1027 C1028 1.410 . S
C1027 C1035 1.503 . S
C1028 C1027 1.410 . S
C1028 C1029 1.392 . S
C1028 C1031 1.511 . S
C1029 C1025 1.376 . S
C1029 C1028 1.392 . S
C1029 H1041 0.929 . S
C1030 C1026 1.531 . S
C1030 H1042 0.960 . S
C1030 H1043 0.962 . S
C1030 H1044 0.960 . S
C1031 C1028 1.511 . S
C1031 H1045 0.961 . S
C1031 H1046 0.961 . S
C1031 H1047 0.961 . S
C1032 C1033 1.370 . S
C1032 C1034 1.363 . S
C1032 H1048 0.931 . S
C1033 C1032 1.370 . S
C1033 C1037 1.408 . S
C1034 C1032 1.363 . S
C1034 C1035 1.370 . S
C1034 C1038 1.524 . S
C1035 C1027 1.503 . S
C1035 C1034 1.370 . S
C1035 C1036 1.403 . S
C1036 C1035 1.403 . S
C1036 C1037 1.404 . S
C1036 C1039 1.539 . S
C1037 C1033 1.408 . S
C1037 C1036 1.404 . S
C1037 H1049 0.930 . S
C1038 C1034 1.524 . S
C1038 H1050 0.956 . S
C1038 H1051 0.961 . S
C1038 H1052 0.961 . S
C1039 C1036 1.539 . S
C1039 H1053 0.958 . S
C1039 H1054 0.961 . S
C1039 H1055 0.960 . S
H1040 C1024 0.931 . S
H1041 C1029 0.929 . S
H1042 C1030 0.960 . S
H1043 C1030 0.962 . S
H1044 C1030 0.960 . S
H1045 C1031 0.961 . S
H1046 C1031 0.961 . S
H1047 C1031 0.961 . S
H1048 C1032 0.931 . S
H1049 C1037 0.930 . S
H1050 C1038 0.956 . S
H1051 C1038 0.961 . S
H1052 C1038 0.961 . S
H1053 C1039 0.958 . S
H1054 C1039 0.961 . S
H1055 C1039 0.960 . S
C1056 C1057 1.391 . S
C1056 C1058 1.394 . S
C1056 H1072 0.931 . S
C1057 C1056 1.391 . S
C1057 C1061 1.376 . S
C1058 C1056 1.394 . S
C1058 C1059 1.369 . S
C1058 C1062 1.531 . S
C1059 C1058 1.369 . S
C1059 C1060 1.410 . S
C1059 C1067 1.503 . S
C1060 C1059 1.410 . S
C1060 C1061 1.392 . S
C1060 C1063 1.511 . S
C1061 C1057 1.376 . S
C1061 C1060 1.392 . S
C1061 H1073 0.929 . S
C1062 C1058 1.531 . S
C1062 H1074 0.960 . S
C1062 H1075 0.962 . S
C1062 H1076 0.960 . S
C1063 C1060 1.511 . S
C1063 H1077 0.961 . S
C1063 H1078 0.961 . S
C1063 H1079 0.961 . S
C1064 C1065 1.370 . S
C1064 C1066 1.363 . S
C1064 H1080 0.931 . S
C1065 C1064 1.370 . S
C1065 C1069 1.408 . S
C1066 C1064 1.363 . S
C1066 C1067 1.370 . S
C1066 C1070 1.524 . S
C1067 C1059 1.503 . S
C1067 C1066 1.370 . S
C1067 C1068 1.403 . S
C1068 C1067 1.403 . S
C1068 C1069 1.404 . S
C1068 C1071 1.539 . S
C1069 C1065 1.408 . S
C1069 C1068 1.404 . S
C1069 H1081 0.930 . S
C1070 C1066 1.524 . S
C1070 H1082 0.956 . S
C1070 H1083 0.961 . S
C1070 H1084 0.961 . S
C1071 C1068 1.539 . S
C1071 H1085 0.958 . S
C1071 H1086 0.961 . S
C1071 H1087 0.960 . S
H1072 C1056 0.931 . S
H1073 C1061 0.929 . S
H1074 C1062 0.960 . S
H1075 C1062 0.962 . S
H1076 C1062 0.960 . S
H1077 C1063 0.961 . S
H1078 C1063 0.961 . S
H1079 C1063 0.961 . S
H1080 C1064 0.931 . S
H1081 C1069 0.930 . S
H1082 C1070 0.956 . S
H1083 C1070 0.961 . S
H1084 C1070 0.961 . S
H1085 C1071 0.958 . S
H1086 C1071 0.961 . S
H1087 C1071 0.960 . S
C1088 C1089 1.391 . S
C1088 C1090 1.394 . S
C1088 H1104 0.931 . S
C1089 C1088 1.391 . S
C1089 C1093 1.376 . S
C1090 C1088 1.394 . S
C1090 C1091 1.369 . S
C1090 C1094 1.531 . S
C1091 C1090 1.369 . S
C1091 C1092 1.410 . S
C1091 C1099 1.503 . S
C1092 C1091 1.410 . S
C1092 C1093 1.392 . S
C1092 C1095 1.511 . S
C1093 C1089 1.376 . S
C1093 C1092 1.392 . S
C1093 H1105 0.929 . S
C1094 C1090 1.531 . S
C1094 H1106 0.960 . S
C1094 H1107 0.962 . S
C1094 H1108 0.960 . S
C1095 C1092 1.511 . S
C1095 H1109 0.961 . S
C1095 H1110 0.961 . S
C1095 H1111 0.961 . S
C1096 C1097 1.370 . S
C1096 C1098 1.363 . S
C1096 H1112 0.931 . S
C1097 C1096 1.370 . S
C1097 C1101 1.408 . S
C1098 C1096 1.363 . S
C1098 C1099 1.370 . S
C1098 C1102 1.524 . S
C1099 C1091 1.503 . S
C1099 C1098 1.370 . S
C1099 C1100 1.403 . S
C1100 C1099 1.403 . S
C1100 C1101 1.404 . S
C1100 C1103 1.539 . S
C1101 C1097 1.408 . S
C1101 C1100 1.404 . S
C1101 H1113 0.930 . S
C1102 C1098 1.524 . S
C1102 H1114 0.956 . S
C1102 H1115 0.961 . S
C1102 H1116 0.961 . S
C1103 C1100 1.539 . S
C1103 H1117 0.958 . S
C1103 H1118 0.961 . S
C1103 H1119 0.960 . S
H1104 C1088 0.931 . S
H1105 C1093 0.929 . S
H1106 C1094 0.960 . S
H1107 C1094 0.962 . S
H1108 C1094 0.960 . S
H1109 C1095 0.961 . S
H1110 C1095 0.961 . S
H1111 C1095 0.961 . S
H1112 C1096 0.931 . S
H1113 C1101 0.930 . S
H1114 C1102 0.956 . S
H1115 C1102 0.961 . S
H1116 C1102 0.961 . S
H1117 C1103 0.958 . S
H1118 C1103 0.961 . S
H1119 C1103 0.960 . S
C1120 C1121 1.391 . S
C1120 C1122 1.394 . S
C1120 H1136 0.931 . S
C1121 C1120 1.391 . S
C1121 C1125 1.376 . S
C1122 C1120 1.394 . S
C1122 C1123 1.369 . S
C1122 C1126 1.531 . S
C1123 C1122 1.369 . S
C1123 C1124 1.410 . S
C1123 C1131 1.503 . S
C1124 C1123 1.410 . S
C1124 C1125 1.392 . S
C1124 C1127 1.511 . S
C1125 C1121 1.376 . S
C1125 C1124 1.392 . S
C1125 H1137 0.929 . S
C1126 C1122 1.531 . S
C1126 H1138 0.960 . S
C1126 H1139 0.962 . S
C1126 H1140 0.960 . S
C1127 C1124 1.511 . S
C1127 H1141 0.961 . S
C1127 H1142 0.961 . S
C1127 H1143 0.961 . S
C1128 C1129 1.370 . S
C1128 C1130 1.363 . S
C1128 H1144 0.931 . S
C1129 C1128 1.370 . S
C1129 C1133 1.408 . S
C1130 C1128 1.363 . S
C1130 C1131 1.370 . S
C1130 C1134 1.524 . S
C1131 C1123 1.503 . S
C1131 C1130 1.370 . S
C1131 C1132 1.403 . S
C1132 C1131 1.403 . S
C1132 C1133 1.404 . S
C1132 C1135 1.539 . S
C1133 C1129 1.408 . S
C1133 C1132 1.404 . S
C1133 H1145 0.930 . S
C1134 C1130 1.524 . S
C1134 H1146 0.956 . S
C1134 H1147 0.961 . S
C1134 H1148 0.961 . S
C1135 C1132 1.539 . S
C1135 H1149 0.958 . S
C1135 H1150 0.961 . S
C1135 H1151 0.960 . S
H1136 C1120 0.931 . S
H1137 C1125 0.929 . S
H1138 C1126 0.960 . S
H1139 C1126 0.962 . S
H1140 C1126 0.960 . S
H1141 C1127 0.961 . S
H1142 C1127 0.961 . S
H1143 C1127 0.961 . S
H1144 C1128 0.931 . S
H1145 C1133 0.930 . S
H1146 C1134 0.956 . S
H1147 C1134 0.961 . S
H1148 C1134 0.961 . S
H1149 C1135 0.958 . S
H1150 C1135 0.961 . S
H1151 C1135 0.960 . S
C1152 C1153 1.391 . S
C1152 C1154 1.394 . S
C1152 H1168 0.931 . S
C1153 C1152 1.391 . S
C1153 C1157 1.376 . S
C1154 C1152 1.394 . S
C1154 C1155 1.369 . S
C1154 C1158 1.531 . S
C1155 C1154 1.369 . S
C1155 C1156 1.410 . S
C1155 C1163 1.503 . S
C1156 C1155 1.410 . S
C1156 C1157 1.392 . S
C1156 C1159 1.511 . S
C1157 C1153 1.376 . S
C1157 C1156 1.392 . S
C1157 H1169 0.929 . S
C1158 C1154 1.531 . S
C1158 H1170 0.960 . S
C1158 H1171 0.962 . S
C1158 H1172 0.960 . S
C1159 C1156 1.511 . S
C1159 H1173 0.961 . S
C1159 H1174 0.961 . S
C1159 H1175 0.961 . S
C1160 C1161 1.370 . S
C1160 C1162 1.363 . S
C1160 H1176 0.931 . S
C1161 C1160 1.370 . S
C1161 C1165 1.408 . S
C1162 C1160 1.363 . S
C1162 C1163 1.370 . S
C1162 C1166 1.524 . S
C1163 C1155 1.503 . S
C1163 C1162 1.370 . S
C1163 C1164 1.403 . S
C1164 C1163 1.403 . S
C1164 C1165 1.404 . S
C1164 C1167 1.539 . S
C1165 C1161 1.408 . S
C1165 C1164 1.404 . S
C1165 H1177 0.930 . S
C1166 C1162 1.524 . S
C1166 H1178 0.956 . S
C1166 H1179 0.961 . S
C1166 H1180 0.961 . S
C1167 C1164 1.539 . S
C1167 H1181 0.958 . S
C1167 H1182 0.961 . S
C1167 H1183 0.960 . S
H1168 C1152 0.931 . S
H1169 C1157 0.929 . S
H1170 C1158 0.960 . S
H1171 C1158 0.962 . S
H1172 C1158 0.960 . S
H1173 C1159 0.961 . S
H1174 C1159 0.961 . S
H1175 C1159 0.961 . S
H1176 C1160 0.931 . S
H1177 C1165 0.930 . S
H1178 C1166 0.956 . S
H1179 C1166 0.961 . S
H1180 C1166 0.961 . S
H1181 C1167 0.958 . S
H1182 C1167 0.961 . S
H1183 C1167 0.960 . S
C1184 C1185 1.391 . S
C1184 C1186 1.394 . S
C1184 H1200 0.931 . S
C1185 C1184 1.391 . S
C1185 C1189 1.376 . S
C1186 C1184 1.394 . S
C1186 C1187 1.369 . S
C1186 C1190 1.531 . S
C1187 C1186 1.369 . S
C1187 C1188 1.410 . S
C1187 C1195 1.503 . S
C1188 C1187 1.410 . S
C1188 C1189 1.392 . S
C1188 C1191 1.511 . S
C1189 C1185 1.376 . S
C1189 C1188 1.392 . S
C1189 H1201 0.929 . S
C1190 C1186 1.531 . S
C1190 H1202 0.960 . S
C1190 H1203 0.962 . S
C1190 H1204 0.960 . S
C1191 C1188 1.511 . S
C1191 H1205 0.961 . S
C1191 H1206 0.961 . S
C1191 H1207 0.961 . S
C1192 C1193 1.370 . S
C1192 C1194 1.363 . S
C1192 H1208 0.931 . S
C1193 C1192 1.370 . S
C1193 C1197 1.408 . S
C1194 C1192 1.363 . S
C1194 C1195 1.370 . S
C1194 C1198 1.524 . S
C1195 C1187 1.503 . S
C1195 C1194 1.370 . S
C1195 C1196 1.403 . S
C1196 C1195 1.403 . S
C1196 C1197 1.404 . S
C1196 C1199 1.539 . S
C1197 C1193 1.408 . S
C1197 C1196 1.404 . S
C1197 H1209 0.930 . S
C1198 C1194 1.524 . S
C1198 H1210 0.956 . S
C1198 H1211 0.961 . S
C1198 H1212 0.961 . S
C1199 C1196 1.539 . S
C1199 H1213 0.958 . S
C1199 H1214 0.961 . S
C1199 H1215 0.960 . S
H1200 C1184 0.931 . S
H1201 C1189 0.929 . S
H1202 C1190 0.960 . S
H1203 C1190 0.962 . S
H1204 C1190 0.960 . S
H1205 C1191 0.961 . S
H1206 C1191 0.961 . S
H1207 C1191 0.961 . S
H1208 C1192 0.931 . S
H1209 C1197 0.930 . S
H1210 C1198 0.956 . S
H1211 C1198 0.961 . S
H1212 C1198 0.961 . S
H1213 C1199 0.958 . S
H1214 C1199 0.961 . S
H1215 C1199 0.960 . S
C1216 C1217 1.391 . S
C1216 C1218 1.394 . S
C1216 H1232 0.931 . S
C1217 C1216 1.391 . S
C1217 C1221 1.376 . S
C1218 C1216 1.394 . S
C1218 C1219 1.369 . S
C1218 C1222 1.531 . S
C1219 C1218 1.369 . S
C1219 C1220 1.410 . S
C1219 C1227 1.503 . S
C1220 C1219 1.410 . S
C1220 C1221 1.392 . S
C1220 C1223 1.511 . S
C1221 C1217 1.376 . S
C1221 C1220 1.392 . S
C1221 H1233 0.929 . S
C1222 C1218 1.531 . S
C1222 H1234 0.960 . S
C1222 H1235 0.962 . S
C1222 H1236 0.960 . S
C1223 C1220 1.511 . S
C1223 H1237 0.961 . S
C1223 H1238 0.961 . S
C1223 H1239 0.961 . S
C1224 C1225 1.370 . S
C1224 C1226 1.363 . S
C1224 H1240 0.931 . S
C1225 C1224 1.370 . S
C1225 C1229 1.408 . S
C1226 C1224 1.363 . S
C1226 C1227 1.370 . S
C1226 C1230 1.524 . S
C1227 C1219 1.503 . S
C1227 C1226 1.370 . S
C1227 C1228 1.403 . S
C1228 C1227 1.403 . S
C1228 C1229 1.404 . S
C1228 C1231 1.539 . S
C1229 C1225 1.408 . S
C1229 C1228 1.404 . S
C1229 H1241 0.930 . S
C1230 C1226 1.524 . S
C1230 H1242 0.956 . S
C1230 H1243 0.961 . S
C1230 H1244 0.961 . S
C1231 C1228 1.539 . S
C1231 H1245 0.958 . S
C1231 H1246 0.961 . S
C1231 H1247 0.960 . S
H1232 C1216 0.931 . S
H1233 C1221 0.929 . S
H1234 C1222 0.960 . S
H1235 C1222 0.962 . S
H1236 C1222 0.960 . S
H1237 C1223 0.961 . S
H1238 C1223 0.961 . S
H1239 C1223 0.961 . S
H1240 C1224 0.931 . S
H1241 C1229 0.930 . S
H1242 C1230 0.956 . S
H1243 C1230 0.961 . S
H1244 C1230 0.961 . S
H1245 C1231 0.958 . S
H1246 C1231 0.961 . S
H1247 C1231 0.960 . S
C1248 C1249 1.391 . S
C1248 C1250 1.394 . S
C1248 H1264 0.931 . S
C1249 C1248 1.391 . S
C1249 C1253 1.376 . S
C1250 C1248 1.394 . S
C1250 C1251 1.369 . S
C1250 C1254 1.531 . S
C1251 C1250 1.369 . S
C1251 C1252 1.410 . S
C1251 C1259 1.503 . S
C1252 C1251 1.410 . S
C1252 C1253 1.392 . S
C1252 C1255 1.511 . S
C1253 C1249 1.376 . S
C1253 C1252 1.392 . S
C1253 H1265 0.929 . S
C1254 C1250 1.531 . S
C1254 H1266 0.960 . S
C1254 H1267 0.962 . S
C1254 H1268 0.960 . S
C1255 C1252 1.511 . S
C1255 H1269 0.961 . S
C1255 H1270 0.961 . S
C1255 H1271 0.961 . S
C1256 C1257 1.370 . S
C1256 C1258 1.363 . S
C1256 H1272 0.931 . S
C1257 C1256 1.370 . S
C1257 C1261 1.408 . S
C1258 C1256 1.363 . S
C1258 C1259 1.370 1_554 S
C1258 C1262 1.524 . S
C1259 C1251 1.503 . S
C1259 C1258 1.370 1_556 S
C1259 C1260 1.403 . S
C1260 C1259 1.403 . S
C1260 C1261 1.404 1_556 S
C1260 C1263 1.539 . S
C1261 C1257 1.408 . S
C1261 C1260 1.404 1_554 S
C1261 H1273 0.930 . S
C1262 C1258 1.524 . S
C1262 H1274 0.956 1_554 S
C1262 H1275 0.961 . S
C1262 H1276 0.961 . S
C1263 C1260 1.539 . S
C1263 H1277 0.958 . S
C1263 H1278 0.961 . S
C1263 H1279 0.960 . S
H1264 C1248 0.931 . S
H1265 C1253 0.929 . S
H1266 C1254 0.960 . S
H1267 C1254 0.962 . S
H1268 C1254 0.960 . S
H1269 C1255 0.961 . S
H1270 C1255 0.961 . S
H1271 C1255 0.961 . S
H1272 C1256 0.931 . S
H1273 C1261 0.930 . S
H1274 C1262 0.956 1_556 S
H1275 C1262 0.961 . S
H1276 C1262 0.961 . S
H1277 C1263 0.958 . S
H1278 C1263 0.961 . S
H1279 C1263 0.960 . S
C1280 C1281 1.391 . S
C1280 C1282 1.394 . S
C1280 H1296 0.931 . S
C1281 C1280 1.391 . S
C1281 C1285 1.376 . S
C1282 C1280 1.394 . S
C1282 C1283 1.369 . S
C1282 C1286 1.531 . S
C1283 C1282 1.369 . S
C1283 C1284 1.410 . S
C1283 C1291 1.503 . S
C1284 C1283 1.410 . S
C1284 C1285 1.392 . S
C1284 C1287 1.511 . S
C1285 C1281 1.376 . S
C1285 C1284 1.392 . S
C1285 H1297 0.929 . S
C1286 C1282 1.531 . S
C1286 H1298 0.960 . S
C1286 H1299 0.962 . S
C1286 H1300 0.960 . S
C1287 C1284 1.511 . S
C1287 H1301 0.961 . S
C1287 H1302 0.961 . S
C1287 H1303 0.961 . S
C1288 C1289 1.370 . S
C1288 C1290 1.363 . S
C1288 H1304 0.931 . S
C1289 C1288 1.370 . S
C1289 C1293 1.408 . S
C1290 C1288 1.363 . S
C1290 C1291 1.370 . S
C1290 C1294 1.524 . S
C1291 C1283 1.503 . S
C1291 C1290 1.370 . S
C1291 C1292 1.403 . S
C1292 C1291 1.403 . S
C1292 C1293 1.404 . S
C1292 C1295 1.539 . S
C1293 C1289 1.408 . S
C1293 C1292 1.404 . S
C1293 H1305 0.930 . S
C1294 C1290 1.524 . S
C1294 H1306 0.956 . S
C1294 H1307 0.961 . S
C1294 H1308 0.961 . S
C1295 C1292 1.539 . S
C1295 H1309 0.958 . S
C1295 H1310 0.961 . S
C1295 H1311 0.960 . S
H1296 C1280 0.931 . S
H1297 C1285 0.929 . S
H1298 C1286 0.960 . S
H1299 C1286 0.962 . S
H1300 C1286 0.960 . S
H1301 C1287 0.961 . S
H1302 C1287 0.961 . S
H1303 C1287 0.961 . S
H1304 C1288 0.931 . S
H1305 C1293 0.930 . S
H1306 C1294 0.956 . S
H1307 C1294 0.961 . S
H1308 C1294 0.961 . S
H1309 C1295 0.958 . S
H1310 C1295 0.961 . S
H1311 C1295 0.960 . S
C1312 C1313 1.391 . S
C1312 C1314 1.394 . S
C1312 H1328 0.931 . S
C1313 C1312 1.391 . S
C1313 C1317 1.376 . S
C1314 C1312 1.394 . S
C1314 C1315 1.369 . S
C1314 C1318 1.531 . S
C1315 C1314 1.369 . S
C1315 C1316 1.410 . S
C1315 C1323 1.503 . S
C1316 C1315 1.410 . S
C1316 C1317 1.392 . S
C1316 C1319 1.511 . S
C1317 C1313 1.376 . S
C1317 C1316 1.392 . S
C1317 H1329 0.929 . S
C1318 C1314 1.531 . S
C1318 H1330 0.960 . S
C1318 H1331 0.962 . S
C1318 H1332 0.960 . S
C1319 C1316 1.511 . S
C1319 H1333 0.961 . S
C1319 H1334 0.961 . S
C1319 H1335 0.961 . S
C1320 C1321 1.370 . S
C1320 C1322 1.363 . S
C1320 H1336 0.931 . S
C1321 C1320 1.370 . S
C1321 C1325 1.408 . S
C1322 C1320 1.363 . S
C1322 C1323 1.370 . S
C1322 C1326 1.524 . S
C1323 C1315 1.503 . S
C1323 C1322 1.370 . S
C1323 C1324 1.403 . S
C1324 C1323 1.403 . S
C1324 C1325 1.404 . S
C1324 C1327 1.539 . S
C1325 C1321 1.408 . S
C1325 C1324 1.404 . S
C1325 H1337 0.930 . S
C1326 C1322 1.524 . S
C1326 H1338 0.956 . S
C1326 H1339 0.961 . S
C1326 H1340 0.961 . S
C1327 C1324 1.539 . S
C1327 H1341 0.958 . S
C1327 H1342 0.961 . S
C1327 H1343 0.960 . S
H1328 C1312 0.931 . S
H1329 C1317 0.929 . S
H1330 C1318 0.960 . S
H1331 C1318 0.962 . S
H1332 C1318 0.960 . S
H1333 C1319 0.961 . S
H1334 C1319 0.961 . S
H1335 C1319 0.961 . S
H1336 C1320 0.931 . S
H1337 C1325 0.930 . S
H1338 C1326 0.956 . S
H1339 C1326 0.961 . S
H1340 C1326 0.961 . S
H1341 C1327 0.958 . S
H1342 C1327 0.961 . S
H1343 C1327 0.960 . S
C1344 C1345 1.391 . S
C1344 C1346 1.394 . S
C1344 H1360 0.931 . S
C1345 C1344 1.391 . S
C1345 C1349 1.376 . S
C1346 C1344 1.394 . S
C1346 C1347 1.369 . S
C1346 C1350 1.531 . S
C1347 C1346 1.369 . S
C1347 C1348 1.410 . S
C1347 C1355 1.503 . S
C1348 C1347 1.410 . S
C1348 C1349 1.392 . S
C1348 C1351 1.511 . S
C1349 C1345 1.376 . S
C1349 C1348 1.392 . S
C1349 H1361 0.929 . S
C1350 C1346 1.531 . S
C1350 H1362 0.960 . S
C1350 H1363 0.962 . S
C1350 H1364 0.960 . S
C1351 C1348 1.511 . S
C1351 H1365 0.961 . S
C1351 H1366 0.961 . S
C1351 H1367 0.961 . S
C1352 C1353 1.370 . S
C1352 C1354 1.363 . S
C1352 H1368 0.931 . S
C1353 C1352 1.370 . S
C1353 C1357 1.408 . S
C1354 C1352 1.363 . S
C1354 C1355 1.370 . S
C1354 C1358 1.524 . S
C1355 C1347 1.503 . S
C1355 C1354 1.370 . S
C1355 C1356 1.403 . S
C1356 C1355 1.403 . S
C1356 C1357 1.404 . S
C1356 C1359 1.539 . S
C1357 C1353 1.408 . S
C1357 C1356 1.404 . S
C1357 H1369 0.930 . S
C1358 C1354 1.524 . S
C1358 H1370 0.956 . S
C1358 H1371 0.961 . S
C1358 H1372 0.961 . S
C1359 C1356 1.539 . S
C1359 H1373 0.958 . S
C1359 H1374 0.961 . S
C1359 H1375 0.960 . S
H1360 C1344 0.931 . S
H1361 C1349 0.929 . S
H1362 C1350 0.960 . S
H1363 C1350 0.962 . S
H1364 C1350 0.960 . S
H1365 C1351 0.961 . S
H1366 C1351 0.961 . S
H1367 C1351 0.961 . S
H1368 C1352 0.931 . S
H1369 C1357 0.930 . S
H1370 C1358 0.956 . S
H1371 C1358 0.961 . S
H1372 C1358 0.961 . S
H1373 C1359 0.958 . S
H1374 C1359 0.961 . S
H1375 C1359 0.960 . S
C1376 C1377 1.391 . S
C1376 C1378 1.394 . S
C1376 H1392 0.931 . S
C1377 C1376 1.391 . S
C1377 C1381 1.376 . S
C1378 C1376 1.394 . S
C1378 C1379 1.369 . S
C1378 C1382 1.531 . S
C1379 C1378 1.369 . S
C1379 C1380 1.410 . S
C1379 C1387 1.503 . S
C1380 C1379 1.410 . S
C1380 C1381 1.392 . S
C1380 C1383 1.511 . S
C1381 C1377 1.376 . S
C1381 C1380 1.392 . S
C1381 H1393 0.929 . S
C1382 C1378 1.531 . S
C1382 H1394 0.960 . S
C1382 H1395 0.962 . S
C1382 H1396 0.960 . S
C1383 C1380 1.511 . S
C1383 H1397 0.961 . S
C1383 H1398 0.961 . S
C1383 H1399 0.961 . S
C1384 C1385 1.370 . S
C1384 C1386 1.363 . S
C1384 H1400 0.931 . S
C1385 C1384 1.370 . S
C1385 C1389 1.408 . S
C1386 C1384 1.363 . S
C1386 C1387 1.370 . S
C1386 C1390 1.524 . S
C1387 C1379 1.503 . S
C1387 C1386 1.370 . S
C1387 C1388 1.403 . S
C1388 C1387 1.403 . S
C1388 C1389 1.404 . S
C1388 C1391 1.539 . S
C1389 C1385 1.408 . S
C1389 C1388 1.404 . S
C1389 H1401 0.930 . S
C1390 C1386 1.524 . S
C1390 H1402 0.956 . S
C1390 H1403 0.961 . S
C1390 H1404 0.961 . S
C1391 C1388 1.539 . S
C1391 H1405 0.958 . S
C1391 H1406 0.961 . S
C1391 H1407 0.960 . S
H1392 C1376 0.931 . S
H1393 C1381 0.929 . S
H1394 C1382 0.960 . S
H1395 C1382 0.962 . S
H1396 C1382 0.960 . S
H1397 C1383 0.961 . S
H1398 C1383 0.961 . S
H1399 C1383 0.961 . S
H1400 C1384 0.931 . S
H1401 C1389 0.930 . S
H1402 C1390 0.956 . S
H1403 C1390 0.961 . S
H1404 C1390 0.961 . S
H1405 C1391 0.958 . S
H1406 C1391 0.961 . S
H1407 C1391 0.960 . S
C1408 C1409 1.391 . S
C1408 C1410 1.394 . S
C1408 H1424 0.931 . S
C1409 C1408 1.391 . S
C1409 C1413 1.376 . S
C1410 C1408 1.394 . S
C1410 C1411 1.369 . S
C1410 C1414 1.531 . S
C1411 C1410 1.369 . S
C1411 C1412 1.410 . S
C1411 C1419 1.503 . S
C1412 C1411 1.410 . S
C1412 C1413 1.392 . S
C1412 C1415 1.511 . S
C1413 C1409 1.376 . S
C1413 C1412 1.392 . S
C1413 H1425 0.929 . S
C1414 C1410 1.531 . S
C1414 H1426 0.960 . S
C1414 H1427 0.962 . S
C1414 H1428 0.960 . S
C1415 C1412 1.511 . S
C1415 H1429 0.961 . S
C1415 H1430 0.961 . S
C1415 H1431 0.961 . S
C1416 C1417 1.370 . S
C1416 C1418 1.363 . S
C1416 H1432 0.931 . S
C1417 C1416 1.370 . S
C1417 C1421 1.408 . S
C1418 C1416 1.363 . S
C1418 C1419 1.370 . S
C1418 C1422 1.524 . S
C1419 C1411 1.503 . S
C1419 C1418 1.370 . S
C1419 C1420 1.403 . S
C1420 C1419 1.403 . S
C1420 C1421 1.404 . S
C1420 C1423 1.539 . S
C1421 C1417 1.408 . S
C1421 C1420 1.404 . S
C1421 H1433 0.930 . S
C1422 C1418 1.524 . S
C1422 H1434 0.956 . S
C1422 H1435 0.961 . S
C1422 H1436 0.961 . S
C1423 C1420 1.539 . S
C1423 H1437 0.958 . S
C1423 H1438 0.961 . S
C1423 H1439 0.960 . S
H1424 C1408 0.931 . S
H1425 C1413 0.929 . S
H1426 C1414 0.960 . S
H1427 C1414 0.962 . S
H1428 C1414 0.960 . S
H1429 C1415 0.961 . S
H1430 C1415 0.961 . S
H1431 C1415 0.961 . S
H1432 C1416 0.931 . S
H1433 C1421 0.930 . S
H1434 C1422 0.956 . S
H1435 C1422 0.961 . S
H1436 C1422 0.961 . S
H1437 C1423 0.958 . S
H1438 C1423 0.961 . S
H1439 C1423 0.960 . S
C1440 C1441 1.391 . S
C1440 C1442 1.394 . S
C1440 H1456 0.931 . S
C1441 C1440 1.391 . S
C1441 C1445 1.376 . S
C1442 C1440 1.394 . S
C1442 C1443 1.369 . S
C1442 C1446 1.531 . S
C1443 C1442 1.369 . S
C1443 C1444 1.410 . S
C1443 C1451 1.503 . S
C1444 C1443 1.410 . S
C1444 C1445 1.392 . S
C1444 C1447 1.511 . S
C1445 C1441 1.376 . S
C1445 C1444 1.392 . S
C1445 H1457 0.929 . S
C1446 C1442 1.531 . S
C1446 H1458 0.960 . S
C1446 H1459 0.962 . S
C1446 H1460 0.960 . S
C1447 C1444 1.511 . S
C1447 H1461 0.961 . S
C1447 H1462 0.961 . S
C1447 H1463 0.961 . S
C1448 C1449 1.370 . S
C1448 C1450 1.363 . S
C1448 H1464 0.931 . S
C1449 C1448 1.370 . S
C1449 C1453 1.408 . S
C1450 C1448 1.363 . S
C1450 C1451 1.370 . S
C1450 C1454 1.524 . S
C1451 C1443 1.503 . S
C1451 C1450 1.370 . S
C1451 C1452 1.403 . S
C1452 C1451 1.403 . S
C1452 C1453 1.404 . S
C1452 C1455 1.539 . S
C1453 C1449 1.408 . S
C1453 C1452 1.404 . S
C1453 H1465 0.930 . S
C1454 C1450 1.524 . S
C1454 H1466 0.956 . S
C1454 H1467 0.961 . S
C1454 H1468 0.961 . S
C1455 C1452 1.539 . S
C1455 H1469 0.958 . S
C1455 H1470 0.961 . S
C1455 H1471 0.960 . S
H1456 C1440 0.931 . S
H1457 C1445 0.929 . S
H1458 C1446 0.960 . S
H1459 C1446 0.962 . S
H1460 C1446 0.960 . S
H1461 C1447 0.961 . S
H1462 C1447 0.961 . S
H1463 C1447 0.961 . S
H1464 C1448 0.931 . S
H1465 C1453 0.930 . S
H1466 C1454 0.956 . S
H1467 C1454 0.961 . S
H1468 C1454 0.961 . S
H1469 C1455 0.958 . S
H1470 C1455 0.961 . S
H1471 C1455 0.960 . S
C1472 C1473 1.391 . S
C1472 C1474 1.394 . S
C1472 H1488 0.931 . S
C1473 C1472 1.391 . S
C1473 C1477 1.376 . S
C1474 C1472 1.394 . S
C1474 C1475 1.369 . S
C1474 C1478 1.531 1_554 S
C1475 C1474 1.369 . S
C1475 C1476 1.410 . S
C1475 C1483 1.503 1_554 S
C1476 C1475 1.410 . S
C1476 C1477 1.392 . S
C1476 C1479 1.511 . S
C1477 C1473 1.376 . S
C1477 C1476 1.392 . S
C1477 H1489 0.929 . S
C1478 C1474 1.531 1_556 S
C1478 H1490 0.960 . S
C1478 H1491 0.962 . S
C1478 H1492 0.961 1_556 S
C1479 C1476 1.511 . S
C1479 H1493 0.961 . S
C1479 H1494 0.967 . S
C1479 H1495 0.961 . S
C1480 C1481 1.370 . S
C1480 C1482 1.363 . S
C1480 H1496 0.931 . S
C1481 C1480 1.370 . S
C1481 C1485 1.408 . S
C1482 C1480 1.363 . S
C1482 C1483 1.370 . S
C1482 C1486 1.524 . S
C1483 C1475 1.503 1_556 S
C1483 C1482 1.370 . S
C1483 C1484 1.403 . S
C1484 C1483 1.403 . S
C1484 C1485 1.404 . S
C1484 C1487 1.540 1_556 S
C1485 C1481 1.408 . S
C1485 C1484 1.404 . S
C1485 H1497 0.930 . S
C1486 C1482 1.524 . S
C1486 H1498 0.956 . S
C1486 H1499 0.961 . S
C1486 H1500 0.961 . S
C1487 C1484 1.540 1_554 S
C1487 H1501 0.958 . S
C1487 H1502 0.961 1_554 S
C1487 H1503 0.959 . S
H1488 C1472 0.931 . S
H1489 C1477 0.929 . S
H1490 C1478 0.960 . S
H1491 C1478 0.962 . S
H1492 C1478 0.961 1_554 S
H1493 C1479 0.961 . S
H1494 C1479 0.967 . S
H1495 C1479 0.961 . S
H1496 C1480 0.931 . S
H1497 C1485 0.930 . S
H1498 C1486 0.956 . S
H1499 C1486 0.961 . S
H1500 C1486 0.961 . S
H1501 C1487 0.958 . S
H1502 C1487 0.961 1_556 S
H1503 C1487 0.959 . S
C1504 C1505 1.391 . S
C1504 C1506 1.394 . S
C1504 H1520 0.931 . S
C1505 C1504 1.391 . S
C1505 C1509 1.376 . S
C1506 C1504 1.394 . S
C1506 C1507 1.369 . S
C1506 C1510 1.531 . S
C1507 C1506 1.369 . S
C1507 C1508 1.410 . S
C1507 C1515 1.503 . S
C1508 C1507 1.410 . S
C1508 C1509 1.392 . S
C1508 C1511 1.511 . S
C1509 C1505 1.376 . S
C1509 C1508 1.392 . S
C1509 H1521 0.929 . S
C1510 C1506 1.531 . S
C1510 H1522 0.960 . S
C1510 H1523 0.962 . S
C1510 H1524 0.960 . S
C1511 C1508 1.511 . S
C1511 H1525 0.961 . S
C1511 H1526 0.961 . S
C1511 H1527 0.961 . S
C1512 C1513 1.370 . S
C1512 C1514 1.363 . S
C1512 H1528 0.931 . S
C1513 C1512 1.370 . S
C1513 C1517 1.408 . S
C1514 C1512 1.363 . S
C1514 C1515 1.370 . S
C1514 C1518 1.524 . S
C1515 C1507 1.503 . S
C1515 C1514 1.370 . S
C1515 C1516 1.403 . S
C1516 C1515 1.403 . S
C1516 C1517 1.404 . S
C1516 C1519 1.539 . S
C1517 C1513 1.408 . S
C1517 C1516 1.404 . S
C1517 H1529 0.930 . S
C1518 C1514 1.524 . S
C1518 H1530 0.956 . S
C1518 H1531 0.961 . S
C1518 H1532 0.961 . S
C1519 C1516 1.539 . S
C1519 H1533 0.958 . S
C1519 H1534 0.961 . S
C1519 H1535 0.960 . S
H1520 C1504 0.931 . S
H1521 C1509 0.929 . S
H1522 C1510 0.960 . S
H1523 C1510 0.962 . S
H1524 C1510 0.960 . S
H1525 C1511 0.961 . S
H1526 C1511 0.961 . S
H1527 C1511 0.961 . S
H1528 C1512 0.931 . S
H1529 C1517 0.930 . S
H1530 C1518 0.956 . S
H1531 C1518 0.961 . S
H1532 C1518 0.961 . S
H1533 C1519 0.958 . S
H1534 C1519 0.961 . S
H1535 C1519 0.960 . S
C777 C754 1.733 . S
C769 C1 1.341 . S
C801 C169 1.535 . S
C809 C695 1.802 . S
C833 C283 1.441 . S
C841 C698 1.824 . S
C865 C397 1.273 . S
C873 C712 1.618 . S
C905 C737 1.603 . S
C897 C457 1.267 . S
C929 C571 1.198 . S
C937 C740 1.517 . S
C961 C115 1.291 . S
C969 C709 1.627 . S
C993 C229 1.155 . S
C1001 C723 1.577 . S
C1025 C343 1.033 . S
C1033 C726 1.450 . S
C1065 C751 1.680 . S
C1057 C511 1.327 . S
C1097 C765 1.730 . S
C1089 C625 1.347 . S
C1129 C684 1.810 . S
C1121 C55 1.531 . S
C1153 C29 1.165 . S
C1161 C707 1.412 . S
C1185 C125 0.853 . S
C1193 C721 1.528 . S
C1225 C731 1.470 . S
C1217 C239 0.848 . S
C1249 C353 0.970 . S
C1257 C749 1.424 . S
C1289 C763 1.391 . S
C1281 C485 1.161 . S
C1321 C689 1.443 . S
C1313 C599 1.095 . S
C1353 C759 1.485 . S
C1345 C143 1.250 . S
C1377 C257 1.125 . S
C1385 C693 1.451 . S
C1417 C703 1.395 . S
C1409 C371 1.156 . S
C1441 C467 1.051 . S
C1449 C717 1.497 . S
C1473 C581 0.936 . S
C1481 C735 1.463 . S
C1505 C11 0.996 . S
C1513 C745 1.530 . S
