# Generated by pormake.
# Topology rtl, (3,6)-cn, num edge types: 1
# Building blocks:
#     Node 0, Type 0, BuildingBlock: BETDAH_clean_linker_0, # of connection points: 3
#     Node 1, Type 0, BuildingBlock: BETDAH_clean_linker_0, # of connection points: 3
#     Node 2, Type 0, BuildingBlock: BETDAH_clean_linker_0, # of connection points: 3
#     Node 3, Type 0, BuildingBlock: BETDAH_clean_linker_0, # of connection points: 3
#     Node 4, Type 1, BuildingBlock: CIFDUS_clean_sbu_1, # of connection points: 6
#     Node 5, Type 1, BuildingBlock: CIFDUS_clean_sbu_1, # of connection points: 6
#     Edge 6, Type (0, 1), BuildingBlock: EZIPEK_clean_linker_0, # of connection points: 2
#     Edge 7, Type (0, 1), BuildingBlock: EZIPEK_clean_linker_0, # of connection points: 2
#     Edge 8, Type (0, 1), BuildingBlock: EZIPEK_clean_linker_0, # of connection points: 2
#     Edge 9, Type (0, 1), BuildingBlock: EZIPEK_clean_linker_0, # of connection points: 2
#     Edge 10, Type (0, 1), BuildingBlock: EZIPEK_clean_linker_0, # of connection points: 2
#     Edge 11, Type (0, 1), BuildingBlock: EZIPEK_clean_linker_0, # of connection points: 2
#     Edge 12, Type (0, 1), BuildingBlock: EZIPEK_clean_linker_0, # of connection points: 2
#     Edge 13, Type (0, 1), BuildingBlock: EZIPEK_clean_linker_0, # of connection points: 2
#     Edge 14, Type (0, 1), BuildingBlock: EZIPEK_clean_linker_0, # of connection points: 2
#     Edge 15, Type (0, 1), BuildingBlock: EZIPEK_clean_linker_0, # of connection points: 2
#     Edge 16, Type (0, 1), BuildingBlock: EZIPEK_clean_linker_0, # of connection points: 2
#     Edge 17, Type (0, 1), BuildingBlock: EZIPEK_clean_linker_0, # of connection points: 2
# Relax obj value: 0.017
# Max RMSD: 0.108
# Mean RMSD: 0.082
data_MOF--net-rtl--node1-CIFDUS_clean_sbu_1--node2-BETDAH_clean_linker_0--edge1-EZIPEK_clean_linker_0
_symmetry_space_group_name_H-M    P1
_symmetry_Int_Tables_number       1
_symmetry_cell_setting            triclinic
loop_
_symmetry_equiv_pos_as_xyz
'x, y, z'
_cell_length_a     26.174709
_cell_length_b     25.96029
_cell_length_c     16.021052
_cell_angle_alpha  91.198027
_cell_angle_beta   101.89303
_cell_angle_gamma 90.570898
loop_
_atom_site_label
_atom_site_type_symbol
_atom_site_fract_x
_atom_site_fract_y
_atom_site_fract_z
_atom_type_partial_charge
H0 H 0.11739 0.92606 0.0652 0.0
H1 H 0.23784 0.86168 0.25592 0.0
H2 H 0.23545 0.83046 0.99061 0.0
C3 C 0.15143 0.90197 0.08163 0.0
C4 C 0.17347 0.87956 0.01637 0.0
C5 C 0.17367 0.89447 0.16808 0.0
C6 C 0.21912 0.86551 0.18939 0.0
C7 C 0.24093 0.84137 0.12643 0.0
C8 C 0.21741 0.84735 0.03959 0.0
N9 N 0.29136 0.8201 0.15247 0.0
C10 C 0.30573 0.76987 0.13668 0.0
H11 H 0.62226 0.62853 0.55693 0.0
H12 H 0.7245 0.74861 0.50068 0.0
H13 H 0.69288 0.73663 0.75337 0.0
C14 C 0.64719 0.66206 0.57694 0.0
C15 C 0.65521 0.67921 0.66222 0.0
C16 C 0.67033 0.68746 0.51684 0.0
C17 C 0.70468 0.72982 0.545 0.0
C18 C 0.71301 0.74716 0.63145 0.0
C19 C 0.68715 0.72244 0.68789 0.0
N20 N 0.74649 0.78911 0.66653 0.0
C21 C 0.78143 0.81618 0.62883 0.0
H22 H 0.88053 0.11672 0.04588 0.0
H23 H 0.81924 0.26149 0.11396 0.0
H24 H 0.83391 0.23118 0.85578 0.0
C25 C 0.86305 0.15353 0.02721 0.0
C26 C 0.85823 0.16923 0.94227 0.0
C27 C 0.85179 0.18744 0.09052 0.0
C28 C 0.8279 0.23484 0.06598 0.0
C29 C 0.81905 0.2493 0.97981 0.0
C30 C 0.83647 0.21752 0.91997 0.0
N31 N 0.8011 0.29909 0.95416 0.0
C32 C 0.75193 0.31771 0.95824 0.0
H33 H 0.408 0.42262 0.53304 0.0
H34 H 0.28915 0.31713 0.58132 0.0
H35 H 0.30865 0.34167 0.3245 0.0
C36 C 0.37599 0.39568 0.51011 0.0
C37 C 0.36154 0.3843 0.42262 0.0
C38 C 0.35009 0.37207 0.56836 0.0
C39 C 0.30917 0.33588 0.53722 0.0
C40 C 0.29366 0.32563 0.44831 0.0
C41 C 0.32 0.35016 0.39243 0.0
N42 N 0.25167 0.29194 0.41033 0.0
C43 C 0.2241 0.25777 0.45078 0.0
O44 O 0.97252 0.0827 0.45646 0.0
Mn45 Mn 0.01132 0.03077 0.54967 0.0
O46 O 0.92219 0.03462 0.35205 0.0
Mn47 Mn 0.94788 0.97253 0.39396 0.0
O48 O 0.05013 0.97943 0.64382 0.0
O49 O 0.06684 0.08697 0.59057 0.0
Mn50 Mn 0.07419 0.09194 0.7021 0.0
O51 O 0.96395 0.05544 0.63588 0.0
O52 O 0.09796 0.02994 0.74785 0.0
O53 O 0.05941 1.00428 0.46633 0.0
O54 O 0.00952 0.9532 0.36623 0.0
O55 O 0.12043 0.13928 0.67902 0.0
O56 O 0.01212 0.1133 0.72535 0.0
C57 C 0.9198 0.93897 0.49392 0.0
C58 C 0.93882 0.07808 0.38506 0.0
C59 C 0.08241 0.98572 0.71647 0.0
C60 C 0.10281 0.12312 0.60127 0.0
C61 C 0.96957 0.08878 0.69814 0.0
C62 C 0.05334 0.97323 0.40095 0.0
O63 O 0.95598 0.97487 0.5065 0.0
O64 O 0.90263 0.92375 0.41554 0.0
O65 O 0.55293 0.57283 0.14947 0.0
Mn66 Mn 0.51092 0.52495 0.04436 0.0
O67 O 0.6254 0.53062 0.19731 0.0
Mn68 Mn 0.58875 0.47051 0.16793 0.0
O69 O 0.46838 0.47702 0.94445 0.0
O70 O 0.4512 0.57966 0.03094 0.0
Mn71 Mn 0.44197 0.58755 0.91854 0.0
O72 O 0.55113 0.56002 0.95746 0.0
O73 O 0.4171 0.52899 0.85575 0.0
O74 O 0.47193 0.48852 0.12835 0.0
O75 O 0.53591 0.45404 0.22442 0.0
O76 O 0.39448 0.62972 0.94422 0.0
O77 O 0.49826 0.61918 0.89025 0.0
C78 C 0.603 0.43103 0.06422 0.0
C79 C 0.59847 0.57027 0.19947 0.0
C80 C 0.43399 0.48443 0.87592 0.0
C81 C 0.41352 0.61412 0.02058 0.0
C82 C 0.54171 0.5969 0.90436 0.0
C83 C 0.48804 0.46399 0.19716 0.0
O84 O 0.5673 0.46731 0.05554 0.0
O85 O 0.6265 0.41891 0.14052 0.0
C86 C 0.13561 0.22432 0.45693 0.0
C87 C 0.19066 0.21837 0.47594 0.0
C88 C 0.17963 0.13436 0.53723 0.0
C89 C 0.12638 0.14523 0.53367 0.0
N90 N 0.05239 0.19952 0.49008 0.0
N91 N 0.26602 0.16768 0.53248 0.0
C92 C 0.10368 0.1894 0.49167 0.0
C93 C 0.21297 0.17296 0.5146 0.0
N94 N 0.11393 0.26317 0.40564 0.0
N95 N 0.19801 0.08715 0.56399 0.0
H96 H 0.29141 0.19492 0.51549 0.0
H97 H 0.28513 0.13803 0.56851 0.0
H98 H 0.17352 0.05862 0.58006 0.0
H99 H 0.23552 0.07468 0.56283 0.0
H100 H 0.07391 0.2663 0.38238 0.0
H101 H 0.13626 0.29006 0.38068 0.0
H102 H 0.0347 0.2341 0.46985 0.0
H103 H 0.02793 0.17345 0.51226 0.0
C104 C 0.38637 0.71804 0.16743 0.0
C105 C 0.33214 0.72092 0.13169 0.0
C106 C 0.33402 0.6333 0.07322 0.0
C107 C 0.38929 0.63645 0.08893 0.0
N108 N 0.46892 0.67819 0.15972 0.0
N109 N 0.25232 0.67953 0.05864 0.0
C110 C 0.41572 0.67702 0.14115 0.0
C111 C 0.30505 0.67751 0.08841 0.0
N112 N 0.4097 0.75477 0.22562 0.0
N113 N 0.30993 0.5884 0.03984 0.0
H114 H 0.23028 0.711 0.07112 0.0
H115 H 0.2308 0.65125 0.01908 0.0
H116 H 0.33148 0.55629 0.02835 0.0
H117 H 0.26987 0.58162 0.0306 0.0
H118 H 0.44809 0.75264 0.2594 0.0
H119 H 0.38906 0.78517 0.24579 0.0
H120 H 0.49124 0.70962 0.18843 0.0
H121 H 0.49048 0.64751 0.14329 0.0
C122 C 0.87378 0.83971 0.62784 0.0
C123 C 0.8198 0.85151 0.60688 0.0
C124 C 0.8411 0.93512 0.55382 0.0
C125 C 0.89304 0.91897 0.55914 0.0
N126 N 0.96103 0.85832 0.60437 0.0
N127 N 0.7511 0.91033 0.55088 0.0
C128 C 0.91031 0.87236 0.59887 0.0
C129 C 0.80319 0.89957 0.57118 0.0
N130 N 0.88995 0.79757 0.67541 0.0
N131 N 0.82836 0.9844 0.53031 0.0
H132 H 0.72229 0.88538 0.56362 0.0
H133 H 0.73605 0.94233 0.51662 0.0
H134 H 0.85625 0.01063 0.51791 0.0
H135 H 0.7922 1.00056 0.53083 0.0
H136 H 0.92902 0.78961 0.69974 0.0
H137 H 0.864 0.77228 0.69571 0.0
H138 H 0.97535 0.82225 0.62353 0.0
H139 H 0.9886 0.88304 0.58699 0.0
C140 C 0.66136 0.31894 0.98541 0.0
C141 C 0.70275 0.34399 0.95702 0.0
C142 C 0.65769 0.42653 0.95471 0.0
C143 C 0.61994 0.40276 0.99355 0.0
N144 N 0.57438 0.32589 0.01685 0.0
N145 N 0.73188 0.41629 0.88635 0.0
C146 C 0.61765 0.34839 0.99734 0.0
C147 C 0.69781 0.39606 0.93151 0.0
N148 N 0.66513 0.26793 1.0048 0.0
N149 N 0.65748 0.47874 0.94681 0.0
H150 H 0.76162 0.39469 0.86898 0.0
H151 H 0.72803 0.4527 0.85993 0.0
H152 H 0.62744 0.50097 0.96131 0.0
H153 H 0.68721 0.49991 0.9287 0.0
H154 H 0.63887 0.24844 0.03401 0.0
H155 H 0.69612 0.24538 0.99432 0.0
H156 H 0.56803 0.28625 0.01669 0.0
H157 H 0.54277 0.34795 0.02628 0.0
C158 C 0.12724 0.88269 0.28942 0.0
C159 C 0.14943 0.91646 0.23747 0.0
C160 C 0.12014 0.99114 0.31162 0.0
C161 C 0.09792 0.95701 0.36279 0.0
N162 N 0.09461 0.87245 0.41935 0.0
N163 N 0.17856 1.00227 0.21323 0.0
C164 C 0.1067 0.90344 0.35808 0.0
C165 C 0.14959 0.97064 0.25312 0.0
N166 N 0.12274 0.83107 0.27006 0.0
N167 N 0.11103 0.04273 0.31607 0.0
H168 H 0.20065 0.98845 0.17051 0.0
H169 H 0.18425 0.04145 0.22776 0.0
H170 H 0.09204 0.05895 0.36119 0.0
H171 H 0.12038 0.06903 0.27318 0.0
H172 H 0.10187 0.80555 0.30016 0.0
H173 H 0.13563 0.81425 0.21859 0.0
H174 H 0.10418 0.83362 0.42416 0.0
H175 H 0.07988 0.88718 0.47068 0.0
C176 C 0.57387 0.64412 0.70274 0.0
C177 C 0.62856 0.65287 0.72412 0.0
C178 C 0.62968 0.61962 0.86755 0.0
C179 C 0.57564 0.60782 0.84256 0.0
N180 N 0.50399 0.58836 0.72406 0.0
N181 N 0.71044 0.63369 0.819 0.0
C182 C 0.55037 0.61321 0.75594 0.0
C183 C 0.65726 0.63592 0.80428 0.0
N184 N 0.54348 0.6676 0.63487 0.0
N185 N 0.65429 0.6173 0.95117 0.0
H186 H 0.73168 0.6427 0.77274 0.0
H187 H 0.73269 0.61755 0.87343 0.0
H188 H 0.63533 0.60559 0.9989 0.0
H189 H 0.69247 0.63053 0.97363 0.0
H190 H 0.50281 0.66494 0.62198 0.0
H191 H 0.55807 0.69455 0.59812 0.0
H192 H 0.48613 0.58865 0.65953 0.0
H193 H 0.48721 0.56245 0.7599 0.0
C194 C 0.92737 0.17932 0.21491 0.0
C195 C 0.87267 0.1751 0.18232 0.0
C196 C 0.86347 0.12958 0.31144 0.0
C197 C 0.91846 0.1235 0.33323 0.0
N198 N 0.00362 0.14335 0.30631 0.0
N199 N 0.78752 0.14914 0.20155 0.0
C200 C 0.9508 0.14977 0.28649 0.0
C201 C 0.8402 0.152 0.23214 0.0
N202 N 0.9568 0.21142 0.17671 0.0
N203 N 0.83378 0.11296 0.36664 0.0
H204 H 0.7695 0.16653 0.14513 0.0
H205 H 0.76203 0.12783 0.22977 0.0
H206 H 0.85051 0.0969 0.42501 0.0
H207 H 0.79388 0.11931 0.35865 0.0
H208 H 0.99607 0.21977 0.20138 0.0
H209 H 0.94045 0.23361 0.12461 0.0
H210 H 0.02882 0.15597 0.26825 0.0
H211 H 0.0221 0.12301 0.35917 0.0
C212 C 0.33522 0.41697 0.70373 0.0
C213 C 0.36747 0.38684 0.6612 0.0
C214 C 0.44385 0.40992 0.77445 0.0
C215 C 0.41166 0.44115 0.81558 0.0
N216 N 0.32499 0.45887 0.83602 0.0
N217 N 0.44802 0.34139 0.67036 0.0
C218 C 0.35666 0.43908 0.78575 0.0
C219 C 0.42031 0.3787 0.70196 0.0
N220 N 0.28531 0.42782 0.66373 0.0
N221 N 0.49695 0.41263 0.80016 0.0
H222 H 0.43143 0.31791 0.61786 0.0
H223 H 0.4852 0.33037 0.70104 0.0
H224 H 0.51598 0.43446 0.85286 0.0
H225 H 0.5224 0.39566 0.76594 0.0
H226 H 0.26236 0.45464 0.6877 0.0
H227 H 0.26798 0.41309 0.60349 0.0
H228 H 0.28447 0.45475 0.8213 0.0
H229 H 0.33982 0.47445 0.89693 0.0
C230 C 0.63055 0.68857 0.35552 0.0
C231 C 0.66072 0.66408 0.42798 0.0
C232 C 0.64068 0.58109 0.35485 0.0
C233 C 0.61603 0.6048 0.27756 0.0
N234 N 0.59771 0.68393 0.20162 0.0
N235 N 0.70913 0.58906 0.48075 0.0
C236 C 0.61392 0.65956 0.2768 0.0
C237 C 0.67132 0.6112 0.42124 0.0
N238 N 0.61607 0.73853 0.36232 0.0
N239 N 0.63157 0.53038 0.36862 0.0
H240 H 0.73278 0.61054 0.53004 0.0
H241 H 0.72025 0.55087 0.47508 0.0
H242 H 0.60352 0.50806 0.32764 0.0
H243 H 0.64616 0.51298 0.42663 0.0
H244 H 0.5897 0.75651 0.31443 0.0
H245 H 0.62784 0.76071 0.41811 0.0
H246 H 0.59962 0.72382 0.19645 0.0
H247 H 0.58647 0.66387 0.14353 0.0
C248 C 0.9332 0.11952 0.90254 0.0
C249 C 0.88148 0.13834 0.87902 0.0
C250 C 0.88094 0.11261 0.72949 0.0
C251 C 0.93165 0.09259 0.7556 0.0
N252 N 0.994 0.05653 0.87058 0.0
N253 N 0.80073 0.13646 0.77324 0.0
C254 C 0.95292 0.0883 0.84372 0.0
C255 C 0.85342 0.12959 0.79328 0.0
N256 N 0.96593 0.1355 0.97658 0.0
N257 N 0.85998 0.11733 0.64478 0.0
H258 H 0.77922 0.14619 0.81919 0.0
H259 H 0.77801 0.12711 0.71333 0.0
H260 H 0.87889 0.10399 0.59741 0.0
H261 H 0.82539 0.13673 0.62226 0.0
H262 H 0.00506 0.12506 0.99202 0.0
H263 H 0.95667 0.16459 0.01635 0.0
H264 H 0.00886 0.04992 0.93498 0.0
H265 H 0.00881 0.0328 0.82802 0.0
C266 C 0.38558 0.45713 0.33559 0.0
C267 C 0.39204 0.40534 0.36211 0.0
C268 C 0.45109 0.39048 0.26414 0.0
C269 C 0.45033 0.4438 0.24632 0.0
N270 N 0.42128 0.52962 0.27207 0.0
N271 N 0.437 0.32462 0.36189 0.0
C272 C 0.4184 0.47768 0.28328 0.0
C273 C 0.42643 0.37248 0.32909 0.0
N274 N 0.34749 0.48629 0.35914 0.0
N275 N 0.47412 0.35675 0.21699 0.0
H276 H 0.42002 0.30996 0.41006 0.0
H277 H 0.46616 0.3013 0.3469 0.0
H278 H 0.49113 0.36835 0.16684 0.0
H279 H 0.47149 0.31688 0.22147 0.0
H280 H 0.33706 0.52237 0.33441 0.0
H281 H 0.32333 0.47264 0.39834 0.0
H282 H 0.40328 0.55663 0.30493 0.0
H283 H 0.44491 0.5463 0.23469 0.0
C284 C 0.18282 0.92138 0.87729 0.0
C285 C 0.15175 0.89369 0.92502 0.0
C286 C 0.07309 0.9134 0.81646 0.0
C287 C 0.10438 0.9415 0.77019 0.0
N288 N 0.1893 0.95635 0.74031 0.0
N289 N 0.06997 0.85028 0.92538 0.0
C290 C 0.15944 0.93934 0.79497 0.0
C291 C 0.0977 0.88521 0.88934 0.0
N292 N 0.23335 0.93484 0.91287 0.0
N293 N 0.01998 0.91627 0.79436 0.0
H294 H 0.08722 0.82861 0.97763 0.0
H295 H 0.03165 0.83921 0.89853 0.0
H296 H 1.00089 0.93554 0.7406 0.0
H297 H 0.9951 0.9019 0.83164 0.0
H298 H 0.25564 0.95966 0.88403 0.0
H299 H 0.25169 0.92565 0.97463 0.0
H300 H 0.22964 0.95196 0.75118 0.0
H301 H 0.17263 0.96979 0.67991 0.0
loop_
_geom_bond_atom_site_label_1
_geom_bond_atom_site_label_2
_geom_bond_distance
_geom_bond_site_symmetry_2
_ccdc_geom_bond_type
H0 C3 0.929 . S
H1 C6 0.929 . S
H2 C8 0.930 . S
C3 H0 0.929 . S
C3 C4 1.398 1_554 S
C3 C5 1.396 . S
C4 C3 1.398 1_556 S
C4 C8 1.407 . S
C5 C3 1.396 . S
C5 C6 1.394 . S
C6 H1 0.929 . S
C6 C5 1.394 . S
C6 C7 1.382 . S
C7 C6 1.382 . S
C7 C8 1.392 1_554 S
C7 N9 1.420 . S
C8 H2 0.930 . S
C8 C4 1.407 . S
C8 C7 1.392 1_556 S
N9 C7 1.420 . S
N9 C10 1.244 . S
C10 N9 1.244 . S
H11 C14 0.929 . S
H12 C17 0.929 . S
H13 C19 0.930 . S
C14 H11 0.929 . S
C14 C15 1.398 . S
C14 C16 1.396 . S
C15 C14 1.398 . S
C15 C19 1.407 . S
C16 C14 1.396 . S
C16 C17 1.394 . S
C17 H12 0.929 . S
C17 C16 1.394 . S
C17 C18 1.382 . S
C18 C17 1.382 . S
C18 C19 1.392 . S
C18 N20 1.420 . S
C19 H13 0.930 . S
C19 C15 1.407 . S
C19 C18 1.392 . S
N20 C18 1.420 . S
N20 C21 1.244 . S
C21 N20 1.244 . S
H22 C25 0.929 . S
H23 C28 0.929 . S
H24 C30 0.930 . S
C25 H22 0.929 . S
C25 C26 1.398 1_554 S
C25 C27 1.396 . S
C26 C25 1.398 1_556 S
C26 C30 1.407 . S
C27 C25 1.396 . S
C27 C28 1.394 . S
C28 H23 0.929 . S
C28 C27 1.394 . S
C28 C29 1.382 1_554 S
C29 C28 1.382 1_556 S
C29 C30 1.392 . S
C29 N31 1.420 . S
C30 H24 0.930 . S
C30 C26 1.407 . S
C30 C29 1.392 . S
N31 C29 1.420 . S
N31 C32 1.244 1_556 S
C32 N31 1.244 1_554 S
H33 C36 0.929 . S
H34 C39 0.929 . S
H35 C41 0.930 . S
C36 H33 0.929 . S
C36 C37 1.398 . S
C36 C38 1.396 . S
C37 C36 1.398 . S
C37 C41 1.407 . S
C38 C36 1.396 . S
C38 C39 1.394 . S
C39 H34 0.929 . S
C39 C38 1.394 . S
C39 C40 1.382 . S
C40 C39 1.382 . S
C40 C41 1.392 . S
C40 N42 1.420 . S
C41 H35 0.930 . S
C41 C37 1.407 . S
C41 C40 1.392 . S
N42 C40 1.420 . S
N42 C43 1.244 . S
C43 N42 1.244 . S
O44 Mn45 2.163 1_655 S
O44 C58 1.244 . S
Mn45 O44 2.163 1_455 S
Mn45 O48 2.160 1_545 S
Mn45 O49 2.221 . S
Mn45 O51 2.163 1_455 S
Mn45 O53 2.160 1_545 S
Mn45 O63 2.221 1_445 S
O46 Mn47 2.087 1_545 S
O46 C58 1.256 . S
Mn47 O46 2.087 1_565 S
Mn47 O54 2.089 1_655 S
Mn47 O63 2.290 . S
Mn47 O64 2.251 . S
O48 Mn45 2.160 1_565 S
O48 C59 1.239 . S
O49 Mn45 2.221 . S
O49 Mn50 2.290 . S
O49 C60 1.278 . S
Mn50 O49 2.290 . S
Mn50 O52 2.089 . S
Mn50 O55 2.251 . S
Mn50 O56 2.087 . S
O51 Mn45 2.163 1_655 S
O51 C61 1.244 . S
O52 Mn50 2.089 . S
O52 C59 1.256 1_545 S
O53 Mn45 2.160 1_565 S
O53 C62 1.239 . S
O54 Mn47 2.089 1_455 S
O54 C62 1.256 . S
O55 Mn50 2.251 . S
O55 C60 1.241 . S
O56 Mn50 2.087 . S
O56 C61 1.256 1_455 S
C57 O63 1.278 . S
C57 O64 1.241 . S
C58 O44 1.244 . S
C58 O46 1.256 . S
C59 O48 1.239 . S
C59 O52 1.256 1_565 S
C60 O49 1.278 . S
C60 O55 1.241 . S
C61 O51 1.244 . S
C61 O56 1.256 1_655 S
C62 O53 1.239 . S
C62 O54 1.256 . S
O63 Mn45 2.221 1_665 S
O63 Mn47 2.290 . S
O63 C57 1.278 . S
O64 Mn47 2.251 . S
O64 C57 1.241 . S
O65 Mn66 2.163 . S
O65 C79 1.244 . S
Mn66 O65 2.163 . S
Mn66 O69 2.160 1_554 S
Mn66 O70 2.221 . S
Mn66 O72 2.163 1_554 S
Mn66 O74 2.160 . S
Mn66 O84 2.221 . S
O67 Mn68 2.087 . S
O67 C79 1.256 . S
Mn68 O67 2.087 . S
Mn68 O75 2.089 . S
Mn68 O84 2.290 . S
Mn68 O85 2.251 . S
O69 Mn66 2.160 1_556 S
O69 C80 1.239 . S
O70 Mn66 2.221 . S
O70 Mn71 2.290 1_554 S
O70 C81 1.278 . S
Mn71 O70 2.290 1_556 S
Mn71 O73 2.089 . S
Mn71 O76 2.251 . S
Mn71 O77 2.087 . S
O72 Mn66 2.163 1_556 S
O72 C82 1.244 . S
O73 Mn71 2.089 . S
O73 C80 1.256 . S
O74 Mn66 2.160 . S
O74 C83 1.239 . S
O75 Mn68 2.089 . S
O75 C83 1.256 . S
O76 Mn71 2.251 . S
O76 C81 1.241 1_556 S
O77 Mn71 2.087 . S
O77 C82 1.256 . S
C78 O84 1.278 . S
C78 O85 1.241 . S
C79 O65 1.244 . S
C79 O67 1.256 . S
C80 O69 1.239 . S
C80 O73 1.256 . S
C81 O70 1.278 . S
C81 O76 1.241 1_554 S
C82 O72 1.244 . S
C82 O77 1.256 . S
C83 O74 1.239 . S
C83 O75 1.256 . S
O84 Mn66 2.221 . S
O84 Mn68 2.290 . S
O84 C78 1.278 . S
O85 Mn68 2.251 . S
O85 C78 1.241 . S
C86 C87 1.363 . S
C86 C92 1.379 . S
C86 N94 1.356 . S
C87 C86 1.363 . S
C87 C93 1.363 . S
C88 C89 1.363 . S
C88 C93 1.379 . S
C88 N95 1.356 . S
C89 C88 1.363 . S
C89 C92 1.363 . S
N90 C92 1.356 . S
N90 H102 0.984 . S
N90 H103 0.985 . S
N91 C93 1.356 . S
N91 H96 0.984 . S
N91 H97 0.985 . S
C92 C86 1.379 . S
C92 C89 1.363 . S
C92 N90 1.356 . S
C93 C87 1.363 . S
C93 C88 1.379 . S
C93 N91 1.356 . S
N94 C86 1.356 . S
N94 H100 0.984 . S
N94 H101 0.984 . S
N95 C88 1.356 . S
N95 H98 0.984 . S
N95 H99 0.985 . S
H96 N91 0.984 . S
H97 N91 0.985 . S
H98 N95 0.984 . S
H99 N95 0.985 . S
H100 N94 0.984 . S
H101 N94 0.984 . S
H102 N90 0.984 . S
H103 N90 0.985 . S
C104 C105 1.363 . S
C104 C110 1.379 . S
C104 N112 1.356 . S
C105 C104 1.363 . S
C105 C111 1.363 . S
C106 C107 1.363 . S
C106 C111 1.379 . S
C106 N113 1.356 1_554 S
C107 C106 1.363 . S
C107 C110 1.363 . S
N108 C110 1.356 . S
N108 H120 0.984 . S
N108 H121 0.985 . S
N109 C111 1.356 1_556 S
N109 H114 0.984 1_556 S
N109 H115 0.985 . S
C110 C104 1.379 . S
C110 C107 1.363 . S
C110 N108 1.356 . S
C111 C105 1.363 . S
C111 C106 1.379 . S
C111 N109 1.356 1_554 S
N112 C104 1.356 . S
N112 H118 0.984 . S
N112 H119 0.984 . S
N113 C106 1.356 1_556 S
N113 H116 0.984 . S
N113 H117 0.985 . S
H114 N109 0.984 1_554 S
H115 N109 0.985 . S
H116 N113 0.984 . S
H117 N113 0.985 . S
H118 N112 0.984 . S
H119 N112 0.984 . S
H120 N108 0.984 . S
H121 N108 0.985 . S
C122 C123 1.363 . S
C122 C128 1.379 . S
C122 N130 1.356 . S
C123 C122 1.363 . S
C123 C129 1.363 . S
C124 C125 1.363 . S
C124 C129 1.379 . S
C124 N131 1.356 . S
C125 C124 1.363 . S
C125 C128 1.363 . S
N126 C128 1.356 . S
N126 H138 0.984 . S
N126 H139 0.985 . S
N127 C129 1.356 . S
N127 H132 0.984 . S
N127 H133 0.985 . S
C128 C122 1.379 . S
C128 C125 1.363 . S
C128 N126 1.356 . S
C129 C123 1.363 . S
C129 C124 1.379 . S
C129 N127 1.356 . S
N130 C122 1.356 . S
N130 H136 0.984 . S
N130 H137 0.984 . S
N131 C124 1.356 . S
N131 H134 0.984 . S
N131 H135 0.985 . S
H132 N127 0.984 . S
H133 N127 0.985 . S
H134 N131 0.984 . S
H135 N131 0.985 . S
H136 N130 0.984 . S
H137 N130 0.984 . S
H138 N126 0.984 . S
H139 N126 0.985 . S
C140 C141 1.363 . S
C140 C146 1.379 . S
C140 N148 1.356 . S
C141 C140 1.363 . S
C141 C147 1.363 1_554 S
C142 C143 1.363 1_556 S
C142 C147 1.379 . S
C142 N149 1.356 . S
C143 C142 1.363 1_554 S
C143 C146 1.363 . S
N144 C146 1.356 . S
N144 H156 0.984 . S
N144 H157 0.985 . S
N145 C147 1.356 . S
N145 H150 0.984 . S
N145 H151 0.985 . S
C146 C140 1.379 . S
C146 C143 1.363 . S
C146 N144 1.356 . S
C147 C141 1.363 1_556 S
C147 C142 1.379 . S
C147 N145 1.356 . S
N148 C140 1.356 . S
N148 H154 0.984 . S
N148 H155 0.984 . S
N149 C142 1.356 . S
N149 H152 0.984 . S
N149 H153 0.985 . S
H150 N145 0.984 . S
H151 N145 0.985 . S
H152 N149 0.984 . S
H153 N149 0.985 . S
H154 N148 0.984 . S
H155 N148 0.984 . S
H156 N144 0.984 . S
H157 N144 0.985 . S
C158 C159 1.363 . S
C158 C164 1.379 . S
C158 N166 1.356 . S
C159 C158 1.363 . S
C159 C165 1.363 . S
C160 C161 1.363 . S
C160 C165 1.379 . S
C160 N167 1.356 1_565 S
C161 C160 1.363 . S
C161 C164 1.363 . S
N162 C164 1.356 . S
N162 H174 0.984 . S
N162 H175 0.985 . S
N163 C165 1.356 . S
N163 H168 0.984 . S
N163 H169 0.985 . S
C164 C158 1.379 . S
C164 C161 1.363 . S
C164 N162 1.356 . S
C165 C159 1.363 . S
C165 C160 1.379 . S
C165 N163 1.356 . S
N166 C158 1.356 . S
N166 H172 0.984 . S
N166 H173 0.984 . S
N167 C160 1.356 1_545 S
N167 H170 0.984 . S
N167 H171 0.985 . S
H168 N163 0.984 . S
H169 N163 0.985 . S
H170 N167 0.984 . S
H171 N167 0.985 . S
H172 N166 0.984 . S
H173 N166 0.984 . S
H174 N162 0.984 . S
H175 N162 0.985 . S
C176 C177 1.363 . S
C176 C182 1.379 . S
C176 N184 1.356 . S
C177 C176 1.363 . S
C177 C183 1.363 . S
C178 C179 1.363 . S
C178 C183 1.379 . S
C178 N185 1.356 . S
C179 C178 1.363 . S
C179 C182 1.363 . S
N180 C182 1.356 . S
N180 H192 0.984 . S
N180 H193 0.985 . S
N181 C183 1.356 . S
N181 H186 0.984 . S
N181 H187 0.985 . S
C182 C176 1.379 . S
C182 C179 1.363 . S
C182 N180 1.356 . S
C183 C177 1.363 . S
C183 C178 1.379 . S
C183 N181 1.356 . S
N184 C176 1.356 . S
N184 H190 0.984 . S
N184 H191 0.984 . S
N185 C178 1.356 . S
N185 H188 0.984 . S
N185 H189 0.985 . S
H186 N181 0.984 . S
H187 N181 0.985 . S
H188 N185 0.984 . S
H189 N185 0.985 . S
H190 N184 0.984 . S
H191 N184 0.984 . S
H192 N180 0.984 . S
H193 N180 0.985 . S
C194 C195 1.363 . S
C194 C200 1.379 . S
C194 N202 1.356 . S
C195 C194 1.363 . S
C195 C201 1.363 . S
C196 C197 1.363 . S
C196 C201 1.379 . S
C196 N203 1.356 . S
C197 C196 1.363 . S
C197 C200 1.363 . S
N198 C200 1.356 . S
N198 H210 0.984 . S
N198 H211 0.985 . S
N199 C201 1.356 . S
N199 H204 0.984 . S
N199 H205 0.985 . S
C200 C194 1.379 . S
C200 C197 1.363 . S
C200 N198 1.356 . S
C201 C195 1.363 . S
C201 C196 1.379 . S
C201 N199 1.356 . S
N202 C194 1.356 . S
N202 H208 0.984 . S
N202 H209 0.984 . S
N203 C196 1.356 . S
N203 H206 0.984 . S
N203 H207 0.985 . S
H204 N199 0.984 . S
H205 N199 0.985 . S
H206 N203 0.984 . S
H207 N203 0.985 . S
H208 N202 0.984 . S
H209 N202 0.984 . S
H210 N198 0.984 . S
H211 N198 0.985 . S
C212 C213 1.363 . S
C212 C218 1.379 . S
C212 N220 1.356 . S
C213 C212 1.363 . S
C213 C219 1.363 . S
C214 C215 1.363 . S
C214 C219 1.379 . S
C214 N221 1.356 . S
C215 C214 1.363 . S
C215 C218 1.363 . S
N216 C218 1.356 . S
N216 H228 0.984 . S
N216 H229 0.985 . S
N217 C219 1.356 . S
N217 H222 0.984 . S
N217 H223 0.985 . S
C218 C212 1.379 . S
C218 C215 1.363 . S
C218 N216 1.356 . S
C219 C213 1.363 . S
C219 C214 1.379 . S
C219 N217 1.356 . S
N220 C212 1.356 . S
N220 H226 0.984 . S
N220 H227 0.984 . S
N221 C214 1.356 . S
N221 H224 0.984 . S
N221 H225 0.985 . S
H222 N217 0.984 . S
H223 N217 0.985 . S
H224 N221 0.984 . S
H225 N221 0.985 . S
H226 N220 0.984 . S
H227 N220 0.984 . S
H228 N216 0.984 . S
H229 N216 0.985 . S
C230 C231 1.363 . S
C230 C236 1.379 . S
C230 N238 1.356 . S
C231 C230 1.363 . S
C231 C237 1.363 . S
C232 C233 1.363 . S
C232 C237 1.379 . S
C232 N239 1.356 . S
C233 C232 1.363 . S
C233 C236 1.363 . S
N234 C236 1.356 . S
N234 H246 0.984 . S
N234 H247 0.985 . S
N235 C237 1.356 . S
N235 H240 0.984 . S
N235 H241 0.985 . S
C236 C230 1.379 . S
C236 C233 1.363 . S
C236 N234 1.356 . S
C237 C231 1.363 . S
C237 C232 1.379 . S
C237 N235 1.356 . S
N238 C230 1.356 . S
N238 H244 0.984 . S
N238 H245 0.984 . S
N239 C232 1.356 . S
N239 H242 0.984 . S
N239 H243 0.985 . S
H240 N235 0.984 . S
H241 N235 0.985 . S
H242 N239 0.984 . S
H243 N239 0.985 . S
H244 N238 0.984 . S
H245 N238 0.984 . S
H246 N234 0.984 . S
H247 N234 0.985 . S
C248 C249 1.363 . S
C248 C254 1.379 . S
C248 N256 1.356 . S
C249 C248 1.363 . S
C249 C255 1.363 . S
C250 C251 1.363 . S
C250 C255 1.379 . S
C250 N257 1.356 . S
C251 C250 1.363 . S
C251 C254 1.363 . S
N252 C254 1.356 . S
N252 H264 0.984 . S
N252 H265 0.985 . S
N253 C255 1.356 . S
N253 H258 0.984 . S
N253 H259 0.985 . S
C254 C248 1.379 . S
C254 C251 1.363 . S
C254 N252 1.356 . S
C255 C249 1.363 . S
C255 C250 1.379 . S
C255 N253 1.356 . S
N256 C248 1.356 . S
N256 H262 0.984 . S
N256 H263 0.984 . S
N257 C250 1.356 . S
N257 H260 0.984 . S
N257 H261 0.985 . S
H258 N253 0.984 . S
H259 N253 0.985 . S
H260 N257 0.984 . S
H261 N257 0.985 . S
H262 N256 0.984 . S
H263 N256 0.984 . S
H264 N252 0.984 . S
H265 N252 0.985 . S
C266 C267 1.363 . S
C266 C272 1.379 . S
C266 N274 1.356 . S
C267 C266 1.363 . S
C267 C273 1.363 . S
C268 C269 1.363 . S
C268 C273 1.379 . S
C268 N275 1.356 . S
C269 C268 1.363 . S
C269 C272 1.363 . S
N270 C272 1.356 . S
N270 H282 0.984 . S
N270 H283 0.985 . S
N271 C273 1.356 . S
N271 H276 0.984 . S
N271 H277 0.985 . S
C272 C266 1.379 . S
C272 C269 1.363 . S
C272 N270 1.356 . S
C273 C267 1.363 . S
C273 C268 1.379 . S
C273 N271 1.356 . S
N274 C266 1.356 . S
N274 H280 0.984 . S
N274 H281 0.984 . S
N275 C268 1.356 . S
N275 H278 0.984 . S
N275 H279 0.985 . S
H276 N271 0.984 . S
H277 N271 0.985 . S
H278 N275 0.984 . S
H279 N275 0.985 . S
H280 N274 0.984 . S
H281 N274 0.984 . S
H282 N270 0.984 . S
H283 N270 0.985 . S
C284 C285 1.363 . S
C284 C290 1.379 . S
C284 N292 1.356 . S
C285 C284 1.363 . S
C285 C291 1.363 . S
C286 C287 1.363 . S
C286 C291 1.379 . S
C286 N293 1.356 . S
C287 C286 1.363 . S
C287 C290 1.363 . S
N288 C290 1.356 . S
N288 H300 0.984 . S
N288 H301 0.985 . S
N289 C291 1.356 . S
N289 H294 0.984 1_556 S
N289 H295 0.985 1_556 S
C290 C284 1.379 . S
C290 C287 1.363 . S
C290 N288 1.356 . S
C291 C285 1.363 . S
C291 C286 1.379 . S
C291 N289 1.356 . S
N292 C284 1.356 . S
N292 H298 0.984 . S
N292 H299 0.984 . S
N293 C286 1.356 . S
N293 H296 0.984 . S
N293 H297 0.985 . S
H294 N289 0.984 1_554 S
H295 N289 0.985 1_554 S
H296 N293 0.984 . S
H297 N293 0.985 . S
H298 N292 0.984 . S
H299 N292 0.984 . S
H300 N288 0.984 . S
H301 N288 0.985 . S
C89 C60 1.263 . S
C87 C43 1.451 . S
C105 C10 1.486 . S
C107 C81 1.309 . S
C123 C21 1.574 . S
C125 C57 1.395 . S
C141 C32 1.575 . S
C143 C78 1.368 . S
C161 C62 1.502 . S
C159 C5 1.498 . S
C179 C82 1.525 . S
C177 C15 1.589 . S
C195 C27 1.577 . S
C197 C58 1.544 . S
C213 C38 1.510 . S
C215 C80 1.454 . S
C233 C79 1.476 . S
C231 C16 1.513 . S
C251 C61 1.463 . S
C249 C26 1.522 . S
C269 C83 1.427 . S
C267 C37 1.455 . S
C285 C4 1.462 . S
C287 C59 1.399 . S
