# Generated by pormake.
# Topology the, (3,8)-cn, num edge types: 1
# Building blocks:
#     Node 0, Type 0, BuildingBlock: BELTOD_clean_linker_0, # of connection points: 3
#     Node 1, Type 0, BuildingBlock: BELTOD_clean_linker_0, # of connection points: 3
#     Node 2, Type 0, BuildingBlock: BELTOD_clean_linker_0, # of connection points: 3
#     Node 3, Type 0, BuildingBlock: BELTOD_clean_linker_0, # of connection points: 3
#     Node 4, Type 0, BuildingBlock: BELTOD_clean_linker_0, # of connection points: 3
#     Node 5, Type 0, BuildingBlock: BELTOD_clean_linker_0, # of connection points: 3
#     Node 6, Type 0, BuildingBlock: BELTOD_clean_linker_0, # of connection points: 3
#     Node 7, Type 0, BuildingBlock: BELTOD_clean_linker_0, # of connection points: 3
#     Node 8, Type 1, BuildingBlock: GIZVER_clean_sbu_0, # of connection points: 8
#     Node 9, Type 1, BuildingBlock: GIZVER_clean_sbu_0, # of connection points: 8
#     Node 10, Type 1, BuildingBlock: GIZVER_clean_sbu_0, # of connection points: 8
#     Edge 11, Type (0, 1), BuildingBlock: CIFDUS_clean_linker_0, # of connection points: 2
#     Edge 12, Type (0, 1), BuildingBlock: CIFDUS_clean_linker_0, # of connection points: 2
#     Edge 13, Type (0, 1), BuildingBlock: CIFDUS_clean_linker_0, # of connection points: 2
#     Edge 14, Type (0, 1), BuildingBlock: CIFDUS_clean_linker_0, # of connection points: 2
#     Edge 15, Type (0, 1), BuildingBlock: CIFDUS_clean_linker_0, # of connection points: 2
#     Edge 16, Type (0, 1), BuildingBlock: CIFDUS_clean_linker_0, # of connection points: 2
#     Edge 17, Type (0, 1), BuildingBlock: CIFDUS_clean_linker_0, # of connection points: 2
#     Edge 18, Type (0, 1), BuildingBlock: CIFDUS_clean_linker_0, # of connection points: 2
#     Edge 19, Type (0, 1), BuildingBlock: CIFDUS_clean_linker_0, # of connection points: 2
#     Edge 20, Type (0, 1), BuildingBlock: CIFDUS_clean_linker_0, # of connection points: 2
#     Edge 21, Type (0, 1), BuildingBlock: CIFDUS_clean_linker_0, # of connection points: 2
#     Edge 22, Type (0, 1), BuildingBlock: CIFDUS_clean_linker_0, # of connection points: 2
#     Edge 23, Type (0, 1), BuildingBlock: CIFDUS_clean_linker_0, # of connection points: 2
#     Edge 24, Type (0, 1), BuildingBlock: CIFDUS_clean_linker_0, # of connection points: 2
#     Edge 25, Type (0, 1), BuildingBlock: CIFDUS_clean_linker_0, # of connection points: 2
#     Edge 26, Type (0, 1), BuildingBlock: CIFDUS_clean_linker_0, # of connection points: 2
#     Edge 27, Type (0, 1), BuildingBlock: CIFDUS_clean_linker_0, # of connection points: 2
#     Edge 28, Type (0, 1), BuildingBlock: CIFDUS_clean_linker_0, # of connection points: 2
#     Edge 29, Type (0, 1), BuildingBlock: CIFDUS_clean_linker_0, # of connection points: 2
#     Edge 30, Type (0, 1), BuildingBlock: CIFDUS_clean_linker_0, # of connection points: 2
#     Edge 31, Type (0, 1), BuildingBlock: CIFDUS_clean_linker_0, # of connection points: 2
#     Edge 32, Type (0, 1), BuildingBlock: CIFDUS_clean_linker_0, # of connection points: 2
#     Edge 33, Type (0, 1), BuildingBlock: CIFDUS_clean_linker_0, # of connection points: 2
#     Edge 34, Type (0, 1), BuildingBlock: CIFDUS_clean_linker_0, # of connection points: 2
# Relax obj value: 0.047
# Max RMSD: 0.141
# Mean RMSD: 0.074
data_MOF--net-the--node1-GIZVER_clean_sbu_0--node2-BELTOD_clean_linker_0--edge1-CIFDUS_clean_linker_0
_symmetry_space_group_name_H-M    P1
_symmetry_Int_Tables_number       1
_symmetry_cell_setting            triclinic
loop_
_symmetry_equiv_pos_as_xyz
'x, y, z'
_cell_length_a     41.970262
_cell_length_b     39.823287
_cell_length_c     36.065915
_cell_angle_alpha  86.416615
_cell_angle_beta   94.780697
_cell_angle_gamma 103.52655
loop_
_atom_site_label
_atom_site_type_symbol
_atom_site_fract_x
_atom_site_fract_y
_atom_site_fract_z
_atom_type_partial_charge
P0 P 0.33951 0.35919 0.44811 0.0
H1 H 0.3137 0.38151 0.51278 0.0
H2 H 0.25808 0.38289 0.5271 0.0
H3 H 0.2193 0.33234 0.42495 0.0
H4 H 0.27482 0.33064 0.41106 0.0
H5 H 0.387 0.33477 0.50114 0.0
H6 H 0.40051 0.27825 0.5124 0.0
H7 H 0.32392 0.23519 0.42957 0.0
H8 H 0.31093 0.29173 0.41798 0.0
H9 H 0.30409 0.39542 0.39017 0.0
H10 H 0.38902 0.35101 0.39978 0.0
O11 O 0.36582 0.38873 0.47326 0.0
H12 H 0.31332 0.41175 0.3246 0.0
H13 H 0.39892 0.36843 0.33468 0.0
C14 C 0.29841 0.35711 0.4602 0.0
C15 C 0.29321 0.37053 0.4936 0.0
C16 C 0.26144 0.37113 0.50186 0.0
C17 C 0.23444 0.35811 0.4769 0.0
C18 C 0.23959 0.34238 0.44481 0.0
C19 C 0.27137 0.34174 0.43664 0.0
C20 C 0.34799 0.31737 0.45868 0.0
C21 C 0.37297 0.31313 0.4856 0.0
C22 C 0.38065 0.28087 0.49205 0.0
C23 C 0.36312 0.25238 0.47198 0.0
C24 C 0.33744 0.25657 0.44587 0.0
C25 C 0.33008 0.28889 0.43913 0.0
C26 C 0.34525 0.37091 0.39958 0.0
C27 C 0.32439 0.38866 0.37814 0.0
C28 C 0.32973 0.39816 0.34072 0.0
C29 C 0.35667 0.39112 0.32465 0.0
C30 C 0.37793 0.37408 0.34644 0.0
C31 C 0.3722 0.36401 0.38355 0.0
P32 P 0.70534 0.30445 0.27525 0.0
H33 H 0.76538 0.29309 0.31496 0.0
H34 H 0.80593 0.32696 0.35893 0.0
H35 H 0.74977 0.40562 0.35217 0.0
H36 H 0.70885 0.37098 0.3091 0.0
H37 H 0.69122 0.22932 0.26776 0.0
H38 H 0.65239 0.18123 0.29663 0.0
H39 H 0.62246 0.25267 0.36412 0.0
H40 H 0.6618 0.30079 0.33542 0.0
H41 H 0.72341 0.36697 0.22758 0.0
H42 H 0.63381 0.29703 0.25904 0.0
O43 O 0.72679 0.28888 0.24629 0.0
H44 H 0.69139 0.3989 0.18495 0.0
H45 H 0.60184 0.3294 0.21812 0.0
C46 C 0.73443 0.32979 0.30825 0.0
C47 C 0.76184 0.31766 0.32296 0.0
C48 C 0.78514 0.33719 0.34795 0.0
C49 C 0.78141 0.36927 0.35893 0.0
C50 C 0.75341 0.38097 0.34461 0.0
C51 C 0.73006 0.36131 0.31968 0.0
C52 C 0.6794 0.26865 0.29949 0.0
C53 C 0.67669 0.23466 0.28914 0.0
C54 C 0.65451 0.20714 0.30569 0.0
C55 C 0.63427 0.21321 0.33246 0.0
C56 C 0.63754 0.24727 0.3433 0.0
C57 C 0.66011 0.27472 0.32714 0.0
C58 C 0.68115 0.32985 0.24697 0.0
C59 C 0.69685 0.35883 0.2258 0.0
C60 C 0.67847 0.37712 0.2015 0.0
C61 C 0.64393 0.3667 0.19783 0.0
C62 C 0.62836 0.33788 0.21959 0.0
C63 C 0.64675 0.31952 0.2436 0.0
P64 P 0.73402 0.75819 0.27302 0.0
H65 H 0.73297 0.83155 0.27202 0.0
H66 H 0.70713 0.86478 0.30993 0.0
H67 H 0.66702 0.77177 0.3748 0.0
H68 H 0.69261 0.73847 0.33601 0.0
H69 H 0.80129 0.78246 0.30386 0.0
H70 H 0.83934 0.75438 0.34181 0.0
H71 H 0.76409 0.65938 0.3452 0.0
H72 H 0.72575 0.68844 0.30917 0.0
H73 H 0.66594 0.75644 0.2448 0.0
H74 H 0.73746 0.69575 0.23616 0.0
O75 O 0.75704 0.78553 0.24352 0.0
H76 H 0.62725 0.71854 0.20223 0.0
H77 H 0.69867 0.65743 0.19418 0.0
C78 C 0.71479 0.78253 0.30128 0.0
C79 C 0.71867 0.81824 0.2944 0.0
C80 C 0.70403 0.83732 0.31633 0.0
C81 C 0.6851 0.82105 0.34562 0.0
C82 C 0.68117 0.78512 0.3523 0.0
C83 C 0.6959 0.76605 0.3303 0.0
C84 C 0.76105 0.73723 0.30268 0.0
C85 C 0.793 0.7556 0.31291 0.0
C86 C 0.81484 0.73938 0.33446 0.0
C87 C 0.80517 0.70431 0.34619 0.0
C88 C 0.77255 0.68641 0.33699 0.0
C89 C 0.7506 0.70288 0.31589 0.0
C90 C 0.7042 0.72822 0.24482 0.0
C91 C 0.67314 0.73461 0.23435 0.0
C92 C 0.65115 0.71314 0.20971 0.0
C93 C 0.65986 0.68487 0.19505 0.0
C94 C 0.69107 0.67866 0.20547 0.0
C95 C 0.71319 0.70045 0.22966 0.0
P96 P 0.28224 0.71159 0.29248 0.0
H97 H 0.32442 0.77986 0.27809 0.0
H98 H 0.36375 0.82008 0.31756 0.0
H99 H 0.34528 0.74664 0.41113 0.0
H100 H 0.30654 0.70625 0.3711 0.0
H101 H 0.28795 0.70354 0.21336 0.0
H102 H 0.31274 0.66596 0.18016 0.0
H103 H 0.34341 0.62047 0.28513 0.0
H104 H 0.31925 0.6593 0.31831 0.0
H105 H 0.24215 0.73158 0.3454 0.0
H106 H 0.24776 0.63773 0.29547 0.0
O107 O 0.26549 0.73605 0.26094 0.0
H108 H 0.19413 0.70023 0.37719 0.0
H109 H 0.2006 0.60591 0.32819 0.0
C110 C 0.31216 0.74031 0.3218 0.0
C111 C 0.32882 0.77244 0.30712 0.0
C112 C 0.35116 0.79555 0.32983 0.0
C113 C 0.3575 0.78687 0.36771 0.0
C114 C 0.34119 0.7542 0.38208 0.0
C115 C 0.31887 0.73109 0.35928 0.0
C116 C 0.30174 0.68425 0.26836 0.0
C117 C 0.3001 0.68562 0.22934 0.0
C118 C 0.31407 0.66377 0.2103 0.0
C119 C 0.32988 0.6398 0.22983 0.0
C120 C 0.33173 0.63875 0.26909 0.0
C121 C 0.31785 0.66085 0.28816 0.0
C122 C 0.24903 0.68695 0.31868 0.0
C123 C 0.23341 0.70406 0.34184 0.0
C124 C 0.20594 0.68604 0.36007 0.0
C125 C 0.19339 0.65042 0.3554 0.0
C126 C 0.20925 0.63336 0.33214 0.0
C127 C 0.23663 0.6515 0.31375 0.0
P128 P 0.33985 0.68281 0.69351 0.0
H129 H 0.30724 0.61567 0.66606 0.0
H130 H 0.25286 0.5931 0.63576 0.0
H131 H 0.22372 0.68632 0.65832 0.0
H132 H 0.27879 0.70919 0.68874 0.0
H133 H 0.38638 0.7396 0.73288 0.0
H134 H 0.4083 0.79961 0.71538 0.0
H135 H 0.34818 0.78663 0.61146 0.0
H136 H 0.32371 0.72757 0.63142 0.0
H137 H 0.35967 0.62006 0.72103 0.0
H138 H 0.3422 0.71001 0.76909 0.0
O139 O 0.36212 0.66733 0.6654 0.0
H140 H 0.38321 0.60234 0.7812 0.0
H141 H 0.36751 0.69315 0.8293 0.0
C142 C 0.29737 0.66445 0.67884 0.0
C143 C 0.2891 0.63115 0.66511 0.0
C144 C 0.25799 0.61822 0.64782 0.0
C145 C 0.23425 0.63814 0.64434 0.0
C146 C 0.2416 0.67047 0.66067 0.0
C147 C 0.27306 0.68357 0.67787 0.0
C148 C 0.35189 0.72918 0.68452 0.0
C149 C 0.37639 0.75002 0.70735 0.0
C150 C 0.3898 0.78447 0.69658 0.0
C151 C 0.3805 0.79856 0.66161 0.0
C152 C 0.35567 0.77754 0.63896 0.0
C153 C 0.34153 0.74342 0.65037 0.0
C154 C 0.35055 0.66722 0.74008 0.0
C155 C 0.36068 0.63594 0.74459 0.0
C156 C 0.37403 0.6257 0.77907 0.0
C157 C 0.37772 0.64668 0.80974 0.0
C158 C 0.36539 0.67678 0.80592 0.0
C159 C 0.35113 0.68651 0.77151 0.0
P160 P 0.34179 0.33491 0.6604 0.0
H161 H 0.39163 0.32239 0.71823 0.0
H162 H 0.40851 0.34697 0.77945 0.0
H163 H 0.32431 0.39244 0.7707 0.0
H164 H 0.30727 0.36761 0.71018 0.0
H165 H 0.35036 0.31157 0.58872 0.0
H166 H 0.36382 0.25936 0.56878 0.0
H167 H 0.35645 0.21498 0.68083 0.0
H168 H 0.34266 0.26759 0.70088 0.0
H169 H 0.3235 0.39487 0.62211 0.0
H170 H 0.27439 0.2917 0.65776 0.0
O171 O 0.37121 0.36454 0.64062 0.0
H172 H 0.27079 0.4076 0.60095 0.0
H173 H 0.22098 0.30456 0.6367 0.0
C174 C 0.34788 0.34257 0.70967 0.0
C175 C 0.376 0.33633 0.73021 0.0
C176 C 0.38569 0.35047 0.76518 0.0
C177 C 0.36777 0.37172 0.77975 0.0
C178 C 0.3386 0.3762 0.76012 0.0
C179 C 0.32876 0.36179 0.72546 0.0
C180 C 0.3464 0.29377 0.64644 0.0
C181 C 0.35122 0.29048 0.60899 0.0
C182 C 0.35888 0.26068 0.59757 0.0
C183 C 0.36158 0.23342 0.62335 0.0
C184 C 0.35448 0.23568 0.66044 0.0
C185 C 0.34691 0.26578 0.67195 0.0
C186 C 0.30285 0.34227 0.64128 0.0
C187 C 0.30138 0.37475 0.62495 0.0
C188 C 0.27119 0.38209 0.61304 0.0
C189 C 0.24179 0.35715 0.61747 0.0
C190 C 0.2433 0.32415 0.63276 0.0
C191 C 0.2737 0.31685 0.64487 0.0
P192 P 0.72483 0.30733 0.73272 0.0
H193 H 0.72603 0.23571 0.72047 0.0
H194 H 0.69511 0.19323 0.67716 0.0
H195 H 0.64022 0.26754 0.63159 0.0
H196 H 0.67272 0.31037 0.67361 0.0
H197 H 0.78495 0.28993 0.71457 0.0
H198 H 0.83306 0.32179 0.68285 0.0
H199 H 0.78985 0.41032 0.6664 0.0
H200 H 0.74114 0.37789 0.69698 0.0
H201 H 0.65429 0.29596 0.74304 0.0
H202 H 0.74217 0.37412 0.76875 0.0
O203 O 0.7392 0.28584 0.76907 0.0
H204 H 0.622 0.32854 0.77294 0.0
H205 H 0.70982 0.40733 0.79842 0.0
C206 C 0.70105 0.27593 0.70101 0.0
C207 C 0.70722 0.24279 0.70124 0.0
C208 C 0.68931 0.21837 0.67649 0.0
C209 C 0.66475 0.22655 0.65088 0.0
C210 C 0.65908 0.26016 0.65047 0.0
C211 C 0.67739 0.28469 0.67486 0.0
C212 C 0.75986 0.33184 0.70918 0.0
C213 C 0.78582 0.31624 0.70424 0.0
C214 C 0.81325 0.33439 0.68601 0.0
C215 C 0.81537 0.36866 0.67261 0.0
C216 C 0.78909 0.38413 0.67706 0.0
C217 C 0.76131 0.36565 0.69466 0.0
C218 C 0.7005 0.33341 0.7517 0.0
C219 C 0.66658 0.32068 0.75404 0.0
C220 C 0.64808 0.33935 0.77143 0.0
C221 C 0.66314 0.37094 0.78766 0.0
C222 C 0.69733 0.38319 0.78617 0.0
C223 C 0.71582 0.36445 0.76867 0.0
P224 P 0.76944 0.75067 0.71066 0.0
H225 H 0.83656 0.74222 0.72376 0.0
H226 H 0.87089 0.71715 0.68725 0.0
H227 H 0.78942 0.68761 0.60525 0.0
H228 H 0.75501 0.71232 0.64234 0.0
H229 H 0.78546 0.79216 0.64311 0.0
H230 H 0.75501 0.82556 0.60082 0.0
H231 H 0.67027 0.79117 0.66558 0.0
H232 H 0.70066 0.75691 0.70723 0.0
H233 H 0.73178 0.67887 0.70305 0.0
H234 H 0.75295 0.75558 0.78646 0.0
O235 O 0.79478 0.78125 0.73545 0.0
H236 H 0.70124 0.63668 0.74732 0.0
H237 H 0.72219 0.71401 0.8304 0.0
C238 C 0.79356 0.72965 0.68531 0.0
C239 C 0.82609 0.73029 0.69799 0.0
C240 C 0.8457 0.71617 0.67698 0.0
C241 C 0.83294 0.70101 0.64309 0.0
C242 C 0.79988 0.6992 0.63122 0.0
C243 C 0.78028 0.71338 0.65229 0.0
C244 C 0.74518 0.77183 0.67799 0.0
C245 C 0.7601 0.79124 0.64776 0.0
C246 C 0.74275 0.81045 0.62372 0.0
C247 C 0.71029 0.81103 0.62992 0.0
C248 C 0.69508 0.79078 0.65976 0.0
C249 C 0.71249 0.77139 0.68375 0.0
C250 C 0.74526 0.72004 0.74185 0.0
C251 C 0.72987 0.68662 0.73085 0.0
C252 C 0.7123 0.66261 0.75607 0.0
C253 C 0.70986 0.67186 0.79254 0.0
C254 C 0.72439 0.70581 0.80283 0.0
C255 C 0.74185 0.72968 0.77768 0.0
Co256 Co 0.06706 0.48041 0.53737 0.0
Co257 Co 0.03386 0.45855 0.47379 0.0
Co258 Co 1.00059 0.5117 0.51026 0.0
O259 O 0.02131 0.47108 0.51941 0.0
H260 H 1.00768 0.45171 0.53236 0.0
O261 O 0.98082 0.55239 0.50035 0.0
Co262 Co 0.93524 0.54821 0.48501 0.0
Co263 Co 0.97178 0.56405 0.54648 0.0
H264 H 0.99517 0.57173 0.48816 0.0
O265 O 0.05056 0.41839 0.46847 0.0
O266 O 0.07835 0.4694 0.48885 0.0
O267 O 0.03058 0.4904 0.43147 0.0
O268 O 0.02971 0.53265 0.4686 0.0
O269 O 0.96684 0.48464 0.47415 0.0
O270 O 0.89394 0.54819 0.46975 0.0
O271 O 0.93837 0.59266 0.46796 0.0
O272 O 0.92618 0.50036 0.49845 0.0
O273 O 0.97102 0.49034 0.55151 0.0
O274 O 0.97476 0.53289 0.58919 0.0
O275 O 0.9274 0.56073 0.53556 0.0
O276 O 0.9666 0.60723 0.55379 0.0
C277 C 0.09769 0.45315 0.56579 0.0
C278 C 0.06417 0.54561 0.54188 0.0
C279 C 0.03683 0.52232 0.43809 0.0
C280 C 0.07824 0.43869 0.47924 0.0
C281 C 0.90682 0.58045 0.46122 0.0
C282 C 0.93605 0.48087 0.47739 0.0
C283 C 0.96584 0.50106 0.58263 0.0
C284 C 0.93581 0.59209 0.54744 0.0
O285 O 0.1079 0.48551 0.5557 0.0
O286 O 0.0674 0.43701 0.5567 0.0
O287 O 0.03372 0.53974 0.54723 0.0
O288 O 0.07336 0.52643 0.52045 0.0
Co289 Co 0.54487 0.93766 0.48329 0.0
Co290 Co 0.56602 0.96757 0.54546 0.0
Co291 Co 0.51503 1.00564 0.50713 0.0
O292 O 0.55191 0.98369 0.49973 0.0
H293 H 0.56997 0.99944 0.48837 0.0
O294 O 0.47862 0.02916 0.51384 0.0
Co295 Co 0.48994 0.07662 0.52946 0.0
Co296 Co 0.4642 0.0462 0.46667 0.0
H297 H 0.46069 0.01453 0.52652 0.0
O298 O 0.60748 0.96066 0.55349 0.0
O299 O 0.5616 0.92218 0.53323 0.0
O300 O 0.53976 0.96656 0.58694 0.0
O301 O 0.4967 0.97212 0.54926 0.0
O302 O 0.54525 0.0368 0.54355 0.0
O303 O 0.49683 0.11908 0.54464 0.0
O304 O 0.45031 0.0774 0.54651 0.0
O305 O 0.53282 0.08252 0.515 0.0
O306 O 0.53321 0.03852 0.46477 0.0
O307 O 0.49129 0.04635 0.42594 0.0
O308 O 0.47605 0.09197 0.47931 0.0
O309 O 0.42573 0.06376 0.4589 0.0
C310 C 0.57135 0.90978 0.4572 0.0
C311 C 0.48091 0.94063 0.47621 0.0
C312 C 0.50893 0.96159 0.58028 0.0
C313 C 0.5925 0.92928 0.54542 0.0
C314 C 0.46638 0.10911 0.55281 0.0
C315 C 0.55154 0.06952 0.53798 0.0
C316 C 0.52189 0.0495 0.4335 0.0
C317 C 0.44599 0.09231 0.46835 0.0
O318 O 0.54161 0.89603 0.46632 0.0
O319 O 0.58493 0.94166 0.46563 0.0
O320 O 0.48514 0.97349 0.47156 0.0
O321 O 0.50131 0.92797 0.49756 0.0
Co322 Co 0.46767 0.51681 0.09841 0.0
Co323 Co 0.44893 0.45396 0.0731 0.0
Co324 Co 0.49958 0.50337 0.01907 0.0
O325 O 0.4606 0.49796 0.04938 0.0
H326 H 0.44188 0.5036 0.03509 0.0
O327 O 0.53938 0.50925 0.99082 0.0
Co328 Co 0.53889 0.48984 0.94397 0.0
Co329 Co 0.54854 0.55167 0.96597 0.0
H330 H 0.5583 0.50665 1.00697 0.0
O331 O 0.41004 0.43679 0.09927 0.0
O332 O 0.45736 0.47005 0.12122 0.0
O333 O 0.47978 0.42545 0.06874 0.0
O334 O 0.52019 0.47007 0.05281 0.0
O335 O 0.47499 0.46469 0.98679 0.0
O336 O 0.54184 0.47058 0.90136 0.0
O337 O 0.58072 0.48437 0.94825 0.0
O338 O 0.49423 0.49142 0.9345 0.0
O339 O 0.47794 0.5355 0.98499 0.0
O340 O 0.51501 0.57777 0.9592 0.0
O341 O 0.55392 0.53696 0.9198 0.0
O342 O 0.59095 0.57208 0.95796 0.0
C343 C 0.43952 0.53537 0.13264 0.0
C344 C 0.53134 0.53844 0.08407 0.0
C345 C 0.51011 0.43909 0.06605 0.0
C346 C 0.42832 0.45175 0.12705 0.0
C347 C 0.57133 0.47081 0.91593 0.0
C348 C 0.47286 0.46873 0.95116 0.0
C349 C 0.48546 0.56371 0.9653 0.0
C350 C 0.58259 0.55811 0.92591 0.0
O351 O 0.46994 0.53493 0.14258 0.0
O352 O 0.42614 0.52211 0.1012 0.0
O353 O 0.52493 0.54298 0.04929 0.0
O354 O 0.51231 0.51505 0.10225 0.0
H355 H 0.22282 0.41856 0.49423 0.0
H356 H 0.17341 0.31424 0.46806 0.0
H357 H 0.12005 0.32965 0.4669 0.0
H358 H 0.08789 0.37407 0.47006 0.0
H359 H 0.13929 0.47877 0.49339 0.0
H360 H 0.19134 0.46174 0.49929 0.0
C361 C 0.20037 0.39895 0.48908 0.0
C362 C 0.20198 0.36533 0.48136 0.0
C363 C 0.17013 0.40818 0.48754 0.0
C364 C 0.1727 0.34039 0.47393 0.0
C365 C 0.14227 0.34922 0.47314 0.0
C366 C 0.1105 0.39311 0.47627 0.0
C367 C 0.10958 0.42758 0.48142 0.0
C368 C 0.14073 0.38327 0.47914 0.0
C369 C 0.13914 0.45197 0.48955 0.0
C370 C 0.16903 0.44232 0.49295 0.0
H371 H 0.64187 0.15012 0.36051 0.0
H372 H 0.56978 0.21162 0.33884 0.0
H373 H 0.52771 0.16461 0.36429 0.0
H374 H 0.51197 0.10721 0.3953 0.0
H375 H 0.58469 0.04712 0.42157 0.0
H376 H 0.62579 0.09196 0.39104 0.0
C377 C 0.61688 0.15304 0.36114 0.0
C378 C 0.60896 0.18433 0.34793 0.0
C379 C 0.59289 0.12604 0.37632 0.0
C380 C 0.57657 0.18796 0.34926 0.0
C381 C 0.55246 0.16101 0.36357 0.0
C382 C 0.53661 0.10355 0.39354 0.0
C383 C 0.54516 0.07361 0.41004 0.0
C384 C 0.56038 0.13004 0.3774 0.0
C385 C 0.57746 0.06976 0.40863 0.0
C386 C 0.60099 0.09549 0.39143 0.0
H387 H 0.79371 0.6539 0.40187 0.0
H388 H 0.8711 0.71383 0.33705 0.0
H389 H 0.91002 0.68323 0.36919 0.0
H390 H 0.92166 0.63686 0.41333 0.0
H391 H 0.84293 0.57395 0.4738 0.0
H392 H 0.80511 0.60791 0.44551 0.0
C393 C 0.81899 0.66015 0.39441 0.0
C394 C 0.8292 0.68628 0.36691 0.0
C395 C 0.84114 0.64172 0.41221 0.0
C396 C 0.8624 0.69433 0.35846 0.0
C397 C 0.88475 0.6766 0.37663 0.0
C398 C 0.89629 0.63086 0.42047 0.0
C399 C 0.88507 0.60289 0.44547 0.0
C400 C 0.87434 0.64998 0.4033 0.0
C401 C 0.85208 0.59518 0.45434 0.0
C402 C 0.83043 0.61461 0.43822 0.0
H403 H 0.36624 0.85728 0.36882 0.0
H404 H 0.40297 0.77193 0.4211 0.0
H405 H 0.44278 0.8117 0.46021 0.0
H406 H 0.46841 0.87049 0.47832 0.0
H407 H 0.43351 0.95665 0.42532 0.0
H408 H 0.39187 0.91672 0.38766 0.0
C409 C 0.38309 0.84737 0.38859 0.0
C410 C 0.38145 0.8115 0.3919 0.0
C411 C 0.40629 0.87052 0.41088 0.0
C412 C 0.40322 0.79922 0.41819 0.0
C413 C 0.4262 0.82201 0.44046 0.0
C414 C 0.45166 0.88069 0.45867 0.0
C415 C 0.45425 0.91666 0.45467 0.0
C416 C 0.42806 0.85768 0.43692 0.0
C417 C 0.43217 0.92916 0.42903 0.0
C418 C 0.40838 0.90632 0.40741 0.0
H419 H 0.16945 0.62553 0.66129 0.0
H420 H 0.23141 0.62459 0.57195 0.0
H421 H 0.18348 0.59995 0.53115 0.0
H422 H 0.12521 0.57389 0.52237 0.0
H423 H 0.06173 0.57115 0.61104 0.0
H424 H 0.10866 0.60258 0.65034 0.0
C425 C 0.17222 0.62028 0.63275 0.0
C426 C 0.20394 0.6265 0.6197 0.0
C427 C 0.14434 0.60537 0.60941 0.0
C428 C 0.2073 0.61961 0.58269 0.0
C429 C 0.17992 0.60557 0.55934 0.0
C430 C 0.12146 0.58047 0.55019 0.0
C431 C 0.09008 0.56987 0.56389 0.0
C432 C 0.1485 0.5976 0.57266 0.0
C433 C 0.08562 0.57906 0.59978 0.0
C434 C 0.11254 0.59677 0.62233 0.0
H435 H 0.41838 0.24029 0.59175 0.0
H436 H 0.33643 0.16316 0.63046 0.0
H437 H 0.36087 0.11712 0.61111 0.0
H438 H 0.40646 0.09922 0.58325 0.0
H439 H 0.48967 0.1784 0.54973 0.0
H440 H 0.46377 0.223 0.56667 0.0
C441 C 0.40579 0.21337 0.59577 0.0
C442 C 0.37561 0.20502 0.61214 0.0
C443 C 0.4203 0.18737 0.58554 0.0
C444 C 0.35975 0.1701 0.61786 0.0
C445 C 0.37371 0.14386 0.60676 0.0
C446 C 0.41891 0.12622 0.57989 0.0
C447 C 0.45004 0.13527 0.56527 0.0
C448 C 0.40413 0.15219 0.59064 0.0
C449 C 0.46587 0.17046 0.56119 0.0
C450 C 0.45104 0.19616 0.57074 0.0
H451 H 0.8535 0.43208 0.68819 0.0
H452 H 0.84328 0.34823 0.61488 0.0
H453 H 0.89082 0.3804 0.58244 0.0
H454 H 0.9335 0.43371 0.57286 0.0
H455 H 0.94431 0.51705 0.64742 0.0
H456 H 0.8989 0.48355 0.68167 0.0
C457 C 0.86176 0.42093 0.6651 0.0
C458 C 0.84476 0.38801 0.65369 0.0
C459 C 0.88939 0.43938 0.64694 0.0
C460 C 0.85598 0.37355 0.62415 0.0
C461 C 0.88315 0.39194 0.6056 0.0
C462 C 0.92636 0.44437 0.59699 0.0
C463 C 0.94238 0.47806 0.60727 0.0
C464 C 0.8999 0.42502 0.61654 0.0
C465 C 0.93257 0.49128 0.63869 0.0
C466 C 0.90638 0.4722 0.65824 0.0
H467 H 0.64657 0.79911 0.60117 0.0
H468 H 0.7368 0.8779 0.6096 0.0
H469 H 0.70879 0.92045 0.57963 0.0
H470 H 0.65795 0.93674 0.55749 0.0
H471 H 0.56679 0.85936 0.55045 0.0
H472 H 0.59594 0.81469 0.57303 0.0
C473 C 0.66006 0.82556 0.59619 0.0
C474 C 0.69364 0.83536 0.60779 0.0
C475 C 0.64365 0.85015 0.57943 0.0
C476 C 0.71101 0.86957 0.60064 0.0
C477 C 0.69497 0.89402 0.58375 0.0
C478 C 0.64444 0.91005 0.56057 0.0
C479 C 0.61022 0.90144 0.55314 0.0
C480 C 0.66119 0.88479 0.57398 0.0
C481 C 0.59316 0.86667 0.55639 0.0
C482 C 0.60978 0.84116 0.56945 0.0
H483 H 0.4247 0.24322 0.47118 0.0
H484 H 0.32425 0.18727 0.48009 0.0
H485 H 0.34088 0.1323 0.47952 0.0
H486 H 0.38395 0.10041 0.47392 0.0
H487 H 0.48416 0.15724 0.4643 0.0
H488 H 0.46763 0.21167 0.46743 0.0
C489 C 0.40654 0.21897 0.47359 0.0
C490 C 0.37335 0.21917 0.47567 0.0
C491 C 0.41617 0.1877 0.47251 0.0
C492 C 0.34995 0.18763 0.47823 0.0
C493 C 0.35943 0.15628 0.47784 0.0
C494 C 0.40204 0.12475 0.47221 0.0
C495 C 0.43512 0.12489 0.46856 0.0
C496 C 0.39241 0.15602 0.47433 0.0
C497 C 0.45848 0.15653 0.46694 0.0
C498 C 0.44909 0.18765 0.46881 0.0
H499 H 0.84837 0.37908 0.3613 0.0
H500 H 0.77115 0.4071 0.41584 0.0
H501 H 0.81199 0.44304 0.4576 0.0
H502 H 0.86945 0.4674 0.47804 0.0
H503 H 0.94698 0.43909 0.42438 0.0
H504 H 0.9061 0.40176 0.38355 0.0
C505 C 0.84039 0.39267 0.38262 0.0
C506 C 0.80657 0.39042 0.38512 0.0
C507 C 0.86407 0.41318 0.40685 0.0
C508 C 0.79691 0.40873 0.41268 0.0
C509 C 0.82028 0.42914 0.43682 0.0
C510 C 0.87752 0.45296 0.45757 0.0
C511 C 0.91136 0.45623 0.4543 0.0
C512 C 0.85391 0.43173 0.43401 0.0
C513 C 0.92117 0.43714 0.42761 0.0
C514 C 0.89778 0.41584 0.40414 0.0
H515 H 0.62355 0.80281 0.37047 0.0
H516 H 0.71076 0.88559 0.37223 0.0
H517 H 0.68374 0.92029 0.40715 0.0
H518 H 0.6347 0.92768 0.43626 0.0
H519 H 0.548 0.84407 0.43464 0.0
H520 H 0.57563 0.80923 0.40128 0.0
C521 C 0.63685 0.82824 0.37891 0.0
C522 C 0.66913 0.84152 0.36852 0.0
C523 C 0.62121 0.84807 0.39906 0.0
C524 C 0.68573 0.87483 0.3793 0.0
C525 C 0.67034 0.89468 0.39946 0.0
C526 C 0.6219 0.90182 0.42867 0.0
C527 C 0.58922 0.88872 0.43786 0.0
C528 C 0.63796 0.8817 0.40926 0.0
C529 C 0.5731 0.85502 0.42793 0.0
C530 C 0.58888 0.83495 0.40877 0.0
H531 H 0.14268 0.59919 0.32848 0.0
H532 H 0.17774 0.65834 0.42607 0.0
H533 H 0.13012 0.62689 0.45818 0.0
H534 H 0.08034 0.58054 0.46006 0.0
H535 H 0.04744 0.51774 0.36485 0.0
H536 H 0.09227 0.55286 0.33024 0.0
C537 C 0.14007 0.6051 0.35685 0.0
C538 C 0.16394 0.63125 0.37469 0.0
C539 C 0.11285 0.58641 0.37552 0.0
C540 C 0.15966 0.63881 0.41131 0.0
C541 C 0.13246 0.62069 0.42983 0.0
C542 C 0.08251 0.57489 0.43147 0.0
C543 C 0.06033 0.54668 0.41495 0.0
C544 C 0.10902 0.59431 0.4123 0.0
C545 C 0.06403 0.53941 0.37813 0.0
C546 C 0.08979 0.55935 0.35843 0.0
H547 H 0.44482 0.83178 0.67808 0.0
H548 H 0.35715 0.84522 0.61277 0.0
H549 H 0.38844 0.89824 0.58373 0.0
H550 H 0.44181 0.93846 0.57323 0.0
H551 H 0.52788 0.9264 0.64247 0.0
H552 H 0.49544 0.8762 0.6747 0.0
C553 C 0.43197 0.84656 0.65842 0.0
C554 C 0.39846 0.83362 0.64748 0.0
C555 C 0.44987 0.87763 0.64245 0.0
C556 C 0.38303 0.85351 0.62117 0.0
C557 C 0.40088 0.8842 0.60469 0.0
C558 C 0.45337 0.92533 0.5959 0.0
C559 C 0.48747 0.93616 0.60489 0.0
C560 C 0.43452 0.89613 0.61452 0.0
C561 C 0.50182 0.91876 0.63458 0.0
C562 C 0.48329 0.88978 0.653 0.0
H563 H 0.22503 0.4138 0.63861 0.0
H564 H 0.18713 0.32221 0.57652 0.0
H565 H 0.13615 0.34141 0.55901 0.0
H566 H 0.10454 0.38728 0.55726 0.0
H567 H 0.14589 0.48014 0.61644 0.0
H568 H 0.19302 0.45722 0.63976 0.0
C569 C 0.20561 0.39803 0.6212 0.0
C570 C 0.2099 0.3669 0.60851 0.0
C571 C 0.1769 0.40945 0.6109 0.0
C572 C 0.18429 0.34631 0.58666 0.0
C573 C 0.15525 0.35735 0.57657 0.0
C574 C 0.12361 0.40206 0.57583 0.0
C575 C 0.1219 0.43538 0.58505 0.0
C576 C 0.15148 0.38922 0.58803 0.0
C577 C 0.1468 0.45447 0.60891 0.0
C578 C 0.17384 0.44149 0.62208 0.0
H579 H 0.64407 0.15603 0.66288 0.0
H580 H 0.64182 0.23784 0.57877 0.0
H581 H 0.60779 0.19642 0.53672 0.0
H582 H 0.57725 0.13756 0.52407 0.0
H583 H 0.58109 0.05474 0.60611 0.0
H584 H 0.61688 0.09586 0.64813 0.0
C585 C 0.63666 0.16486 0.63518 0.0
C586 C 0.64531 0.20042 0.62453 0.0
C587 C 0.61749 0.14065 0.61057 0.0
C588 C 0.63495 0.21102 0.58845 0.0
C589 C 0.61569 0.18723 0.56409 0.0
C590 C 0.58609 0.12838 0.55106 0.0
C591 C 0.57628 0.09312 0.56201 0.0
C592 C 0.60654 0.1521 0.57498 0.0
C593 C 0.58828 0.08169 0.59691 0.0
C594 C 0.60859 0.10526 0.62104 0.0
H595 H 0.8185 0.63994 0.60843 0.0
H596 H 0.89531 0.73181 0.62656 0.0
H597 H 0.93297 0.70734 0.59459 0.0
H598 H 0.9454 0.65822 0.56687 0.0
H599 H 0.8695 0.56549 0.54937 0.0
H600 H 0.82973 0.59245 0.57465 0.0
C601 C 0.84331 0.65478 0.60478 0.0
C602 C 0.85435 0.68733 0.62036 0.0
C603 C 0.86492 0.64046 0.58656 0.0
C604 C 0.88654 0.70633 0.61554 0.0
C605 C 0.90801 0.69247 0.59711 0.0
C606 C 0.9201 0.64393 0.56824 0.0
C607 C 0.91056 0.60969 0.557 0.0
C608 C 0.89769 0.65925 0.58341 0.0
C609 C 0.87754 0.5918 0.55826 0.0
C610 C 0.85483 0.60713 0.57284 0.0
H611 H 0.41293 0.4303 0.29981 0.0
H612 H 0.31519 0.37683 0.2622 0.0
H613 H 0.32795 0.39189 0.19718 0.0
H614 H 0.36831 0.41787 0.15104 0.0
H615 H 0.46548 0.47269 0.19032 0.0
H616 H 0.45144 0.45981 0.25443 0.0
C617 C 0.39444 0.42207 0.2773 0.0
C618 C 0.36336 0.40221 0.28554 0.0
C619 C 0.40187 0.43104 0.24027 0.0
C620 C 0.33934 0.39214 0.25634 0.0
C621 C 0.34667 0.40064 0.21925 0.0
C622 C 0.3863 0.42714 0.17364 0.0
C623 C 0.41802 0.44587 0.16572 0.0
C624 C 0.37805 0.41972 0.21083 0.0
C625 C 0.44093 0.45804 0.19541 0.0
C626 C 0.43299 0.45065 0.23223 0.0
H627 H 0.36891 0.58645 0.852 0.0
H628 H 0.43126 0.68887 0.84342 0.0
H629 H 0.46924 0.6734 0.89324 0.0
H630 H 0.48746 0.62882 0.93485 0.0
H631 H 0.42377 0.52701 0.94505 0.0
H632 H 0.38359 0.54421 0.89955 0.0
C633 C 0.39054 0.60549 0.86156 0.0
C634 C 0.39737 0.63869 0.84399 0.0
C635 C 0.41217 0.59645 0.89041 0.0
C636 C 0.42538 0.66322 0.8567 0.0
C637 C 0.44721 0.65431 0.88501 0.0
C638 C 0.4645 0.61061 0.92764 0.0
C639 C 0.45883 0.5766 0.94327 0.0
C640 C 0.44127 0.62074 0.90147 0.0
C641 C 0.42882 0.55341 0.93372 0.0
C642 C 0.40585 0.56314 0.90741 0.0
H643 H 0.39074 0.35147 0.84919 0.0
H644 H 0.37726 0.44107 0.78169 0.0
H645 H 0.40578 0.47889 0.83054 0.0
H646 H 0.43898 0.48697 0.88976 0.0
H647 H 0.45138 0.39842 0.95939 0.0
H648 H 0.41849 0.35967 0.91291 0.0
C649 C 0.39378 0.37924 0.84551 0.0
C650 C 0.382 0.39346 0.81182 0.0
C651 C 0.41002 0.40099 0.87406 0.0
C652 C 0.38587 0.42948 0.80744 0.0
C653 C 0.40232 0.45116 0.83528 0.0
C654 C 0.43389 0.45916 0.89505 0.0
C655 C 0.44762 0.44548 0.92774 0.0
C656 C 0.41504 0.43727 0.86834 0.0
C657 C 0.4408 0.40948 0.93449 0.0
C658 C 0.42229 0.38738 0.90774 0.0
H659 H 0.67857 0.40498 0.85301 0.0
H660 H 0.60241 0.38117 0.76418 0.0
H661 H 0.56796 0.41038 0.79549 0.0
H662 H 0.55863 0.44135 0.84862 0.0
H663 H 0.63443 0.46584 0.93766 0.0
H664 H 0.66993 0.43825 0.90545 0.0
C665 C 0.65461 0.40654 0.84025 0.0
C666 C 0.6431 0.39055 0.8063 0.0
C667 C 0.63479 0.42352 0.85846 0.0
C668 C 0.61177 0.39262 0.79052 0.0
C669 C 0.59206 0.40952 0.80833 0.0
C670 C 0.58296 0.44084 0.86102 0.0
C671 C 0.5937 0.45558 0.89569 0.0
C672 C 0.60317 0.42478 0.84245 0.0
C673 C 0.62541 0.45466 0.9111 0.0
C674 C 0.64574 0.43883 0.89268 0.0
H675 H 0.65074 0.62574 0.7821 0.0
H676 H 0.7299 0.66107 0.86498 0.0
H677 H 0.69859 0.62546 0.91297 0.0
H678 H 0.64692 0.58945 0.93244 0.0
H679 H 0.56699 0.55388 0.85066 0.0
H680 H 0.60083 0.58354 0.80093 0.0
C681 C 0.66134 0.62509 0.81053 0.0
C682 C 0.6923 0.64657 0.82014 0.0
C683 C 0.64308 0.60462 0.83814 0.0
C684 C 0.70576 0.64545 0.85708 0.0
C685 C 0.68796 0.62498 0.88451 0.0
C686 C 0.63697 0.58783 0.90368 0.0
C687 C 0.60432 0.57015 0.89528 0.0
C688 C 0.65627 0.60532 0.87553 0.0
C689 C 0.59202 0.5676 0.85786 0.0
C690 C 0.61128 0.58473 0.82946 0.0
H691 H 0.64303 0.61468 0.19769 0.0
H692 H 0.62436 0.70401 0.13365 0.0
H693 H 0.58516 0.66653 0.09118 0.0
H694 H 0.55421 0.60808 0.07386 0.0
H695 H 0.57037 0.51939 0.14105 0.0
H696 H 0.61287 0.55662 0.1801 0.0
C697 C 0.63059 0.62589 0.17422 0.0
C698 C 0.63657 0.66204 0.16884 0.0
C699 C 0.6077 0.60421 0.15034 0.0
C700 C 0.61994 0.67624 0.13859 0.0
C701 C 0.59765 0.65483 0.1142 0.0
C702 C 0.56748 0.59699 0.0967 0.0
C703 C 0.55942 0.56108 0.10446 0.0
C704 C 0.59109 0.61875 0.11996 0.0
C705 C 0.57625 0.54699 0.13455 0.0
C706 C 0.60047 0.56826 0.15696 0.0
H707 H 0.38747 0.61959 0.24747 0.0
H708 H 0.30524 0.60716 0.16525 0.0
H709 H 0.3309 0.57255 0.12875 0.0
H710 H 0.37805 0.5479 0.11852 0.0
H711 H 0.45957 0.55967 0.2017 0.0
H712 H 0.43247 0.59153 0.2396 0.0
C713 C 0.37483 0.60887 0.22191 0.0
C714 C 0.34456 0.61646 0.20908 0.0
C715 C 0.38964 0.58874 0.20105 0.0
C716 C 0.32888 0.60251 0.17554 0.0
C717 C 0.34344 0.58245 0.15468 0.0
C718 C 0.38973 0.55712 0.14511 0.0
C719 C 0.42099 0.55159 0.15694 0.0
C720 C 0.37406 0.57577 0.16688 0.0
C721 C 0.43566 0.56372 0.1916 0.0
C722 C 0.42019 0.58204 0.21339 0.0
H723 H 0.58893 0.33915 0.15403 0.0
H724 H 0.65428 0.43664 0.18169 0.0
H725 H 0.62063 0.46732 0.14006 0.0
H726 H 0.57056 0.46677 0.09895 0.0
H727 H 0.50322 0.36945 0.07545 0.0
H728 H 0.53966 0.33848 0.11235 0.0
C729 C 0.59576 0.36713 0.15126 0.0
C730 C 0.6241 0.38545 0.17132 0.0
C731 C 0.57591 0.38469 0.12791 0.0
C732 C 0.63286 0.42171 0.16646 0.0
C733 C 0.61349 0.43935 0.14277 0.0
C734 C 0.56415 0.43875 0.10141 0.0
C735 C 0.53425 0.42042 0.08436 0.0
C736 C 0.58475 0.42114 0.12367 0.0
C737 C 0.52606 0.38415 0.0883 0.0
C738 C 0.54684 0.36643 0.10949 0.0
loop_
_geom_bond_atom_site_label_1
_geom_bond_atom_site_label_2
_geom_bond_distance
_geom_bond_site_symmetry_2
_ccdc_geom_bond_type
P0 O11 1.490 . S
P0 C14 1.812 . S
P0 C20 1.803 . S
P0 C26 1.819 . S
H1 C15 0.941 . S
H2 C16 0.939 . S
H3 C18 0.940 . S
H4 C19 0.940 . S
H5 C21 0.939 . S
H6 C22 0.942 . S
H7 C24 0.940 . S
H8 C25 0.939 . S
H9 C27 0.941 . S
H10 C31 0.939 . S
O11 P0 1.490 . S
H12 C28 0.939 . S
H13 C30 0.940 . S
C14 P0 1.812 . S
C14 C15 1.389 . S
C14 C19 1.391 . S
C15 H1 0.941 . S
C15 C14 1.389 . S
C15 C16 1.397 . S
C16 H2 0.939 . S
C16 C15 1.397 . S
C16 C17 1.378 . S
C17 C16 1.378 . S
C17 C18 1.378 . S
C18 H3 0.940 . S
C18 C17 1.378 . S
C18 C19 1.396 . S
C19 H4 0.940 . S
C19 C14 1.391 . S
C19 C18 1.396 . S
C20 P0 1.803 . S
C20 C21 1.378 . S
C20 C25 1.400 . S
C21 H5 0.939 . S
C21 C20 1.378 . S
C21 C22 1.361 . S
C22 H6 0.942 . S
C22 C21 1.361 . S
C22 C23 1.369 . S
C23 C22 1.369 . S
C23 C24 1.404 . S
C24 H7 0.940 . S
C24 C23 1.404 . S
C24 C25 1.389 . S
C25 H8 0.939 . S
C25 C20 1.400 . S
C25 C24 1.389 . S
C26 P0 1.819 . S
C26 C27 1.391 . S
C26 C31 1.391 . S
C27 H9 0.941 . S
C27 C26 1.391 . S
C27 C28 1.396 . S
C28 H12 0.939 . S
C28 C27 1.396 . S
C28 C29 1.397 . S
C29 C28 1.397 . S
C29 C30 1.385 . S
C30 H13 0.940 . S
C30 C29 1.385 . S
C30 C31 1.388 . S
C31 H10 0.939 . S
C31 C26 1.391 . S
C31 C30 1.388 . S
P32 O43 1.490 . S
P32 C46 1.812 . S
P32 C52 1.803 . S
P32 C58 1.819 . S
H33 C47 0.941 . S
H34 C48 0.939 . S
H35 C50 0.940 . S
H36 C51 0.940 . S
H37 C53 0.939 . S
H38 C54 0.942 . S
H39 C56 0.940 . S
H40 C57 0.939 . S
H41 C59 0.941 . S
H42 C63 0.939 . S
O43 P32 1.490 . S
H44 C60 0.939 . S
H45 C62 0.940 . S
C46 P32 1.812 . S
C46 C47 1.389 . S
C46 C51 1.391 . S
C47 H33 0.941 . S
C47 C46 1.389 . S
C47 C48 1.397 . S
C48 H34 0.939 . S
C48 C47 1.397 . S
C48 C49 1.378 . S
C49 C48 1.378 . S
C49 C50 1.378 . S
C50 H35 0.940 . S
C50 C49 1.378 . S
C50 C51 1.396 . S
C51 H36 0.940 . S
C51 C46 1.391 . S
C51 C50 1.396 . S
C52 P32 1.803 . S
C52 C53 1.378 . S
C52 C57 1.400 . S
C53 H37 0.939 . S
C53 C52 1.378 . S
C53 C54 1.361 . S
C54 H38 0.942 . S
C54 C53 1.361 . S
C54 C55 1.369 . S
C55 C54 1.369 . S
C55 C56 1.404 . S
C56 H39 0.940 . S
C56 C55 1.404 . S
C56 C57 1.389 . S
C57 H40 0.939 . S
C57 C52 1.400 . S
C57 C56 1.389 . S
C58 P32 1.819 . S
C58 C59 1.391 . S
C58 C63 1.391 . S
C59 H41 0.941 . S
C59 C58 1.391 . S
C59 C60 1.396 . S
C60 H44 0.939 . S
C60 C59 1.396 . S
C60 C61 1.397 . S
C61 C60 1.397 . S
C61 C62 1.385 . S
C62 H45 0.940 . S
C62 C61 1.385 . S
C62 C63 1.388 . S
C63 H42 0.939 . S
C63 C58 1.391 . S
C63 C62 1.388 . S
P64 O75 1.490 . S
P64 C78 1.812 . S
P64 C84 1.803 . S
P64 C90 1.819 . S
H65 C79 0.941 . S
H66 C80 0.939 . S
H67 C82 0.940 . S
H68 C83 0.940 . S
H69 C85 0.939 . S
H70 C86 0.942 . S
H71 C88 0.940 . S
H72 C89 0.939 . S
H73 C91 0.941 . S
H74 C95 0.939 . S
O75 P64 1.490 . S
H76 C92 0.939 . S
H77 C94 0.940 . S
C78 P64 1.812 . S
C78 C79 1.389 . S
C78 C83 1.391 . S
C79 H65 0.941 . S
C79 C78 1.389 . S
C79 C80 1.397 . S
C80 H66 0.939 . S
C80 C79 1.397 . S
C80 C81 1.378 . S
C81 C80 1.378 . S
C81 C82 1.378 . S
C82 H67 0.940 . S
C82 C81 1.378 . S
C82 C83 1.396 . S
C83 H68 0.940 . S
C83 C78 1.391 . S
C83 C82 1.396 . S
C84 P64 1.803 . S
C84 C85 1.378 . S
C84 C89 1.400 . S
C85 H69 0.939 . S
C85 C84 1.378 . S
C85 C86 1.361 . S
C86 H70 0.942 . S
C86 C85 1.361 . S
C86 C87 1.369 . S
C87 C86 1.369 . S
C87 C88 1.404 . S
C88 H71 0.940 . S
C88 C87 1.404 . S
C88 C89 1.389 . S
C89 H72 0.939 . S
C89 C84 1.400 . S
C89 C88 1.389 . S
C90 P64 1.819 . S
C90 C91 1.391 . S
C90 C95 1.391 . S
C91 H73 0.941 . S
C91 C90 1.391 . S
C91 C92 1.396 . S
C92 H76 0.939 . S
C92 C91 1.396 . S
C92 C93 1.397 . S
C93 C92 1.397 . S
C93 C94 1.385 . S
C94 H77 0.940 . S
C94 C93 1.385 . S
C94 C95 1.388 . S
C95 H74 0.939 . S
C95 C90 1.391 . S
C95 C94 1.388 . S
P96 O107 1.490 . S
P96 C110 1.812 . S
P96 C116 1.803 . S
P96 C122 1.819 . S
H97 C111 0.941 . S
H98 C112 0.939 . S
H99 C114 0.940 . S
H100 C115 0.940 . S
H101 C117 0.939 . S
H102 C118 0.942 . S
H103 C120 0.940 . S
H104 C121 0.939 . S
H105 C123 0.941 . S
H106 C127 0.939 . S
O107 P96 1.490 . S
H108 C124 0.939 . S
H109 C126 0.940 . S
C110 P96 1.812 . S
C110 C111 1.389 . S
C110 C115 1.391 . S
C111 H97 0.941 . S
C111 C110 1.389 . S
C111 C112 1.397 . S
C112 H98 0.939 . S
C112 C111 1.397 . S
C112 C113 1.378 . S
C113 C112 1.378 . S
C113 C114 1.378 . S
C114 H99 0.940 . S
C114 C113 1.378 . S
C114 C115 1.396 . S
C115 H100 0.940 . S
C115 C110 1.391 . S
C115 C114 1.396 . S
C116 P96 1.803 . S
C116 C117 1.378 . S
C116 C121 1.400 . S
C117 H101 0.939 . S
C117 C116 1.378 . S
C117 C118 1.361 . S
C118 H102 0.942 . S
C118 C117 1.361 . S
C118 C119 1.369 . S
C119 C118 1.369 . S
C119 C120 1.404 . S
C120 H103 0.940 . S
C120 C119 1.404 . S
C120 C121 1.389 . S
C121 H104 0.939 . S
C121 C116 1.400 . S
C121 C120 1.389 . S
C122 P96 1.819 . S
C122 C123 1.391 . S
C122 C127 1.391 . S
C123 H105 0.941 . S
C123 C122 1.391 . S
C123 C124 1.396 . S
C124 H108 0.939 . S
C124 C123 1.396 . S
C124 C125 1.397 . S
C125 C124 1.397 . S
C125 C126 1.385 . S
C126 H109 0.940 . S
C126 C125 1.385 . S
C126 C127 1.388 . S
C127 H106 0.939 . S
C127 C122 1.391 . S
C127 C126 1.388 . S
P128 O139 1.490 . S
P128 C142 1.812 . S
P128 C148 1.803 . S
P128 C154 1.819 . S
H129 C143 0.941 . S
H130 C144 0.939 . S
H131 C146 0.940 . S
H132 C147 0.940 . S
H133 C149 0.939 . S
H134 C150 0.942 . S
H135 C152 0.940 . S
H136 C153 0.939 . S
H137 C155 0.941 . S
H138 C159 0.939 . S
O139 P128 1.490 . S
H140 C156 0.939 . S
H141 C158 0.940 . S
C142 P128 1.812 . S
C142 C143 1.389 . S
C142 C147 1.391 . S
C143 H129 0.941 . S
C143 C142 1.389 . S
C143 C144 1.397 . S
C144 H130 0.939 . S
C144 C143 1.397 . S
C144 C145 1.378 . S
C145 C144 1.378 . S
C145 C146 1.378 . S
C146 H131 0.940 . S
C146 C145 1.378 . S
C146 C147 1.396 . S
C147 H132 0.940 . S
C147 C142 1.391 . S
C147 C146 1.396 . S
C148 P128 1.803 . S
C148 C149 1.378 . S
C148 C153 1.400 . S
C149 H133 0.939 . S
C149 C148 1.378 . S
C149 C150 1.361 . S
C150 H134 0.942 . S
C150 C149 1.361 . S
C150 C151 1.369 . S
C151 C150 1.369 . S
C151 C152 1.404 . S
C152 H135 0.940 . S
C152 C151 1.404 . S
C152 C153 1.389 . S
C153 H136 0.939 . S
C153 C148 1.400 . S
C153 C152 1.389 . S
C154 P128 1.819 . S
C154 C155 1.391 . S
C154 C159 1.391 . S
C155 H137 0.941 . S
C155 C154 1.391 . S
C155 C156 1.396 . S
C156 H140 0.939 . S
C156 C155 1.396 . S
C156 C157 1.397 . S
C157 C156 1.397 . S
C157 C158 1.385 . S
C158 H141 0.940 . S
C158 C157 1.385 . S
C158 C159 1.388 . S
C159 H138 0.939 . S
C159 C154 1.391 . S
C159 C158 1.388 . S
P160 O171 1.490 . S
P160 C174 1.812 . S
P160 C180 1.803 . S
P160 C186 1.819 . S
H161 C175 0.941 . S
H162 C176 0.939 . S
H163 C178 0.940 . S
H164 C179 0.940 . S
H165 C181 0.939 . S
H166 C182 0.942 . S
H167 C184 0.940 . S
H168 C185 0.939 . S
H169 C187 0.941 . S
H170 C191 0.939 . S
O171 P160 1.490 . S
H172 C188 0.939 . S
H173 C190 0.940 . S
C174 P160 1.812 . S
C174 C175 1.389 . S
C174 C179 1.391 . S
C175 H161 0.941 . S
C175 C174 1.389 . S
C175 C176 1.397 . S
C176 H162 0.939 . S
C176 C175 1.397 . S
C176 C177 1.378 . S
C177 C176 1.378 . S
C177 C178 1.378 . S
C178 H163 0.940 . S
C178 C177 1.378 . S
C178 C179 1.396 . S
C179 H164 0.940 . S
C179 C174 1.391 . S
C179 C178 1.396 . S
C180 P160 1.803 . S
C180 C181 1.378 . S
C180 C185 1.400 . S
C181 H165 0.939 . S
C181 C180 1.378 . S
C181 C182 1.361 . S
C182 H166 0.942 . S
C182 C181 1.361 . S
C182 C183 1.369 . S
C183 C182 1.369 . S
C183 C184 1.404 . S
C184 H167 0.940 . S
C184 C183 1.404 . S
C184 C185 1.389 . S
C185 H168 0.939 . S
C185 C180 1.400 . S
C185 C184 1.389 . S
C186 P160 1.819 . S
C186 C187 1.391 . S
C186 C191 1.391 . S
C187 H169 0.941 . S
C187 C186 1.391 . S
C187 C188 1.396 . S
C188 H172 0.939 . S
C188 C187 1.396 . S
C188 C189 1.397 . S
C189 C188 1.397 . S
C189 C190 1.385 . S
C190 H173 0.940 . S
C190 C189 1.385 . S
C190 C191 1.388 . S
C191 H170 0.939 . S
C191 C186 1.391 . S
C191 C190 1.388 . S
P192 O203 1.490 . S
P192 C206 1.812 . S
P192 C212 1.803 . S
P192 C218 1.819 . S
H193 C207 0.941 . S
H194 C208 0.939 . S
H195 C210 0.940 . S
H196 C211 0.940 . S
H197 C213 0.939 . S
H198 C214 0.942 . S
H199 C216 0.940 . S
H200 C217 0.939 . S
H201 C219 0.941 . S
H202 C223 0.939 . S
O203 P192 1.490 . S
H204 C220 0.939 . S
H205 C222 0.940 . S
C206 P192 1.812 . S
C206 C207 1.389 . S
C206 C211 1.391 . S
C207 H193 0.941 . S
C207 C206 1.389 . S
C207 C208 1.397 . S
C208 H194 0.939 . S
C208 C207 1.397 . S
C208 C209 1.378 . S
C209 C208 1.378 . S
C209 C210 1.378 . S
C210 H195 0.940 . S
C210 C209 1.378 . S
C210 C211 1.396 . S
C211 H196 0.940 . S
C211 C206 1.391 . S
C211 C210 1.396 . S
C212 P192 1.803 . S
C212 C213 1.378 . S
C212 C217 1.400 . S
C213 H197 0.939 . S
C213 C212 1.378 . S
C213 C214 1.361 . S
C214 H198 0.942 . S
C214 C213 1.361 . S
C214 C215 1.369 . S
C215 C214 1.369 . S
C215 C216 1.404 . S
C216 H199 0.940 . S
C216 C215 1.404 . S
C216 C217 1.389 . S
C217 H200 0.939 . S
C217 C212 1.400 . S
C217 C216 1.389 . S
C218 P192 1.819 . S
C218 C219 1.391 . S
C218 C223 1.391 . S
C219 H201 0.941 . S
C219 C218 1.391 . S
C219 C220 1.396 . S
C220 H204 0.939 . S
C220 C219 1.396 . S
C220 C221 1.397 . S
C221 C220 1.397 . S
C221 C222 1.385 . S
C222 H205 0.940 . S
C222 C221 1.385 . S
C222 C223 1.388 . S
C223 H202 0.939 . S
C223 C218 1.391 . S
C223 C222 1.388 . S
P224 O235 1.490 . S
P224 C238 1.812 . S
P224 C244 1.803 . S
P224 C250 1.819 . S
H225 C239 0.941 . S
H226 C240 0.939 . S
H227 C242 0.940 . S
H228 C243 0.940 . S
H229 C245 0.939 . S
H230 C246 0.942 . S
H231 C248 0.940 . S
H232 C249 0.939 . S
H233 C251 0.941 . S
H234 C255 0.939 . S
O235 P224 1.490 . S
H236 C252 0.939 . S
H237 C254 0.940 . S
C238 P224 1.812 . S
C238 C239 1.389 . S
C238 C243 1.391 . S
C239 H225 0.941 . S
C239 C238 1.389 . S
C239 C240 1.397 . S
C240 H226 0.939 . S
C240 C239 1.397 . S
C240 C241 1.378 . S
C241 C240 1.378 . S
C241 C242 1.378 . S
C242 H227 0.940 . S
C242 C241 1.378 . S
C242 C243 1.396 . S
C243 H228 0.940 . S
C243 C238 1.391 . S
C243 C242 1.396 . S
C244 P224 1.803 . S
C244 C245 1.378 . S
C244 C249 1.400 . S
C245 H229 0.939 . S
C245 C244 1.378 . S
C245 C246 1.361 . S
C246 H230 0.942 . S
C246 C245 1.361 . S
C246 C247 1.369 . S
C247 C246 1.369 . S
C247 C248 1.404 . S
C248 H231 0.940 . S
C248 C247 1.404 . S
C248 C249 1.389 . S
C249 H232 0.939 . S
C249 C244 1.400 . S
C249 C248 1.389 . S
C250 P224 1.819 . S
C250 C251 1.391 . S
C250 C255 1.391 . S
C251 H233 0.941 . S
C251 C250 1.391 . S
C251 C252 1.396 . S
C252 H236 0.939 . S
C252 C251 1.396 . S
C252 C253 1.397 . S
C253 C252 1.397 . S
C253 C254 1.385 . S
C254 H237 0.940 . S
C254 C253 1.385 . S
C254 C255 1.388 . S
C255 H234 0.939 . S
C255 C250 1.391 . S
C255 C254 1.388 . S
Co256 O259 2.042 . S
Co256 O266 2.264 . S
Co256 O285 2.286 . S
Co256 O286 2.069 . S
Co256 O288 2.015 . S
Co257 O259 2.122 . S
Co257 O265 2.073 . S
Co257 O266 2.327 . S
Co257 O267 1.976 . S
Co258 O259 2.087 . S
Co258 O261 2.087 1_455 S
Co258 O268 2.111 . S
Co258 O269 2.143 1_455 S
Co258 O273 2.111 1_455 S
Co258 O287 2.143 . S
O259 Co256 2.042 . S
O259 Co257 2.122 . S
O259 Co258 2.087 . S
O259 H260 0.980 . S
H260 O259 0.980 . S
O261 Co258 2.087 1_655 S
O261 Co262 2.042 . S
O261 Co263 2.122 . S
O261 H264 0.980 . S
Co262 O261 2.042 . S
Co262 O270 2.286 . S
Co262 O271 2.069 . S
Co262 O272 2.015 . S
Co262 O275 2.264 . S
Co263 O261 2.122 . S
Co263 O274 1.976 . S
Co263 O275 2.327 . S
Co263 O276 2.073 . S
H264 O261 0.980 . S
O265 Co257 2.073 . S
O265 C280 1.245 . S
O266 Co256 2.264 . S
O266 Co257 2.327 . S
O266 C280 1.257 . S
O267 Co257 1.976 . S
O267 C279 1.251 . S
O268 Co258 2.111 . S
O268 C279 1.274 . S
O269 Co258 2.143 1_655 S
O269 C282 1.246 . S
O270 Co262 2.286 . S
O270 C281 1.259 . S
O271 Co262 2.069 . S
O271 C281 1.289 . S
O272 Co262 2.015 . S
O272 C282 1.257 . S
O273 Co258 2.111 1_655 S
O273 C283 1.274 . S
O274 Co263 1.976 . S
O274 C283 1.251 . S
O275 Co262 2.264 . S
O275 Co263 2.327 . S
O275 C284 1.257 . S
O276 Co263 2.073 . S
O276 C284 1.245 . S
C277 O285 1.259 . S
C277 O286 1.289 . S
C278 O287 1.246 . S
C278 O288 1.257 . S
C279 O267 1.251 . S
C279 O268 1.274 . S
C280 O265 1.245 . S
C280 O266 1.257 . S
C281 O270 1.259 . S
C281 O271 1.289 . S
C282 O269 1.246 . S
C282 O272 1.257 . S
C283 O273 1.274 . S
C283 O274 1.251 . S
C284 O275 1.257 . S
C284 O276 1.245 . S
O285 Co256 2.286 . S
O285 C277 1.259 . S
O286 Co256 2.069 . S
O286 C277 1.289 . S
O287 Co258 2.143 . S
O287 C278 1.246 . S
O288 Co256 2.015 . S
O288 C278 1.257 . S
Co289 O292 2.042 . S
Co289 O299 2.264 . S
Co289 O318 2.286 . S
Co289 O319 2.069 . S
Co289 O321 2.015 . S
Co290 O292 2.122 . S
Co290 O298 2.073 . S
Co290 O299 2.327 . S
Co290 O300 1.976 . S
Co291 O292 2.087 1_545 S
Co291 O294 2.087 . S
Co291 O301 2.111 1_545 S
Co291 O302 2.143 . S
Co291 O306 2.111 . S
Co291 O320 2.143 1_545 S
O292 Co289 2.042 . S
O292 Co290 2.122 . S
O292 Co291 2.087 1_565 S
O292 H293 0.980 . S
H293 O292 0.980 . S
O294 Co291 2.087 . S
O294 Co295 2.042 . S
O294 Co296 2.122 . S
O294 H297 0.980 . S
Co295 O294 2.042 . S
Co295 O303 2.286 . S
Co295 O304 2.069 . S
Co295 O305 2.015 . S
Co295 O308 2.264 . S
Co296 O294 2.122 . S
Co296 O307 1.976 . S
Co296 O308 2.327 . S
Co296 O309 2.073 . S
H297 O294 0.980 . S
O298 Co290 2.073 . S
O298 C313 1.245 . S
O299 Co289 2.264 . S
O299 Co290 2.327 . S
O299 C313 1.257 . S
O300 Co290 1.976 . S
O300 C312 1.251 . S
O301 Co291 2.111 1_565 S
O301 C312 1.274 . S
O302 Co291 2.143 . S
O302 C315 1.246 . S
O303 Co295 2.286 . S
O303 C314 1.259 . S
O304 Co295 2.069 . S
O304 C314 1.289 . S
O305 Co295 2.015 . S
O305 C315 1.257 . S
O306 Co291 2.111 . S
O306 C316 1.274 . S
O307 Co296 1.976 . S
O307 C316 1.251 . S
O308 Co295 2.264 . S
O308 Co296 2.327 . S
O308 C317 1.257 . S
O309 Co296 2.073 . S
O309 C317 1.245 . S
C310 O318 1.259 . S
C310 O319 1.289 . S
C311 O320 1.246 . S
C311 O321 1.257 . S
C312 O300 1.251 . S
C312 O301 1.274 . S
C313 O298 1.245 . S
C313 O299 1.257 . S
C314 O303 1.259 . S
C314 O304 1.289 . S
C315 O302 1.246 . S
C315 O305 1.257 . S
C316 O306 1.274 . S
C316 O307 1.251 . S
C317 O308 1.257 . S
C317 O309 1.245 . S
O318 Co289 2.286 . S
O318 C310 1.259 . S
O319 Co289 2.069 . S
O319 C310 1.289 . S
O320 Co291 2.143 1_565 S
O320 C311 1.246 . S
O321 Co289 2.015 . S
O321 C311 1.257 . S
Co322 O325 2.042 . S
Co322 O332 2.264 . S
Co322 O351 2.286 . S
Co322 O352 2.069 . S
Co322 O354 2.015 . S
Co323 O325 2.122 . S
Co323 O331 2.073 . S
Co323 O332 2.327 . S
Co323 O333 1.976 . S
Co324 O325 2.087 . S
Co324 O327 2.087 1_554 S
Co324 O334 2.111 . S
Co324 O335 2.143 1_554 S
Co324 O339 2.111 1_554 S
Co324 O353 2.143 . S
O325 Co322 2.042 . S
O325 Co323 2.122 . S
O325 Co324 2.087 . S
O325 H326 0.980 . S
H326 O325 0.980 . S
O327 Co324 2.087 1_556 S
O327 Co328 2.042 . S
O327 Co329 2.122 . S
O327 H330 0.980 . S
Co328 O327 2.042 . S
Co328 O336 2.286 . S
Co328 O337 2.069 . S
Co328 O338 2.015 . S
Co328 O341 2.264 . S
Co329 O327 2.122 . S
Co329 O340 1.976 . S
Co329 O341 2.327 . S
Co329 O342 2.073 . S
H330 O327 0.980 . S
O331 Co323 2.073 . S
O331 C346 1.245 . S
O332 Co322 2.264 . S
O332 Co323 2.327 . S
O332 C346 1.257 . S
O333 Co323 1.976 . S
O333 C345 1.251 . S
O334 Co324 2.111 . S
O334 C345 1.274 . S
O335 Co324 2.143 1_556 S
O335 C348 1.246 . S
O336 Co328 2.286 . S
O336 C347 1.259 . S
O337 Co328 2.069 . S
O337 C347 1.289 . S
O338 Co328 2.015 . S
O338 C348 1.257 . S
O339 Co324 2.111 1_556 S
O339 C349 1.274 . S
O340 Co329 1.976 . S
O340 C349 1.251 . S
O341 Co328 2.264 . S
O341 Co329 2.327 . S
O341 C350 1.257 . S
O342 Co329 2.073 . S
O342 C350 1.245 . S
C343 O351 1.259 . S
C343 O352 1.289 . S
C344 O353 1.246 . S
C344 O354 1.257 . S
C345 O333 1.251 . S
C345 O334 1.274 . S
C346 O331 1.245 . S
C346 O332 1.257 . S
C347 O336 1.259 . S
C347 O337 1.289 . S
C348 O335 1.246 . S
C348 O338 1.257 . S
C349 O339 1.274 . S
C349 O340 1.251 . S
C350 O341 1.257 . S
C350 O342 1.245 . S
O351 Co322 2.286 . S
O351 C343 1.259 . S
O352 Co322 2.069 . S
O352 C343 1.289 . S
O353 Co324 2.143 . S
O353 C344 1.246 . S
O354 Co322 2.015 . S
O354 C344 1.257 . S
H355 C361 0.930 . S
H356 C364 0.930 . S
H357 C365 0.930 . S
H358 C366 0.930 . S
H359 C369 0.930 . S
H360 C370 0.930 . S
C361 H355 0.930 . S
C361 C362 1.355 . S
C361 C363 1.415 . S
C362 C361 1.355 . S
C362 C364 1.419 . S
C363 C361 1.415 . S
C363 C368 1.425 . S
C363 C370 1.409 . S
C364 H356 0.930 . S
C364 C362 1.419 . S
C364 C365 1.362 . S
C365 H357 0.930 . S
C365 C364 1.362 . S
C365 C368 1.409 . S
C366 H358 0.930 . S
C366 C367 1.355 . S
C366 C368 1.415 . S
C367 C366 1.355 . S
C367 C369 1.419 . S
C368 C363 1.425 . S
C368 C365 1.409 . S
C368 C366 1.415 . S
C369 H359 0.930 . S
C369 C367 1.419 . S
C369 C370 1.362 . S
C370 H360 0.930 . S
C370 C363 1.409 . S
C370 C369 1.362 . S
H371 C377 0.930 . S
H372 C380 0.930 . S
H373 C381 0.930 . S
H374 C382 0.930 . S
H375 C385 0.930 . S
H376 C386 0.930 . S
C377 H371 0.930 . S
C377 C378 1.355 . S
C377 C379 1.415 . S
C378 C377 1.355 . S
C378 C380 1.419 . S
C379 C377 1.415 . S
C379 C384 1.425 . S
C379 C386 1.409 . S
C380 H372 0.930 . S
C380 C378 1.419 . S
C380 C381 1.362 . S
C381 H373 0.930 . S
C381 C380 1.362 . S
C381 C384 1.409 . S
C382 H374 0.930 . S
C382 C383 1.355 . S
C382 C384 1.415 . S
C383 C382 1.355 . S
C383 C385 1.419 . S
C384 C379 1.425 . S
C384 C381 1.409 . S
C384 C382 1.415 . S
C385 H375 0.930 . S
C385 C383 1.419 . S
C385 C386 1.362 . S
C386 H376 0.930 . S
C386 C379 1.409 . S
C386 C385 1.362 . S
H387 C393 0.930 . S
H388 C396 0.930 . S
H389 C397 0.930 . S
H390 C398 0.930 . S
H391 C401 0.930 . S
H392 C402 0.930 . S
C393 H387 0.930 . S
C393 C394 1.355 . S
C393 C395 1.415 . S
C394 C393 1.355 . S
C394 C396 1.419 . S
C395 C393 1.415 . S
C395 C400 1.425 . S
C395 C402 1.409 . S
C396 H388 0.930 . S
C396 C394 1.419 . S
C396 C397 1.362 . S
C397 H389 0.930 . S
C397 C396 1.362 . S
C397 C400 1.409 . S
C398 H390 0.930 . S
C398 C399 1.355 . S
C398 C400 1.415 . S
C399 C398 1.355 . S
C399 C401 1.419 . S
C400 C395 1.425 . S
C400 C397 1.409 . S
C400 C398 1.415 . S
C401 H391 0.930 . S
C401 C399 1.419 . S
C401 C402 1.362 . S
C402 H392 0.930 . S
C402 C395 1.409 . S
C402 C401 1.362 . S
H403 C409 0.930 . S
H404 C412 0.930 . S
H405 C413 0.930 . S
H406 C414 0.930 . S
H407 C417 0.930 . S
H408 C418 0.930 . S
C409 H403 0.930 . S
C409 C410 1.355 . S
C409 C411 1.415 . S
C410 C409 1.355 . S
C410 C412 1.419 . S
C411 C409 1.415 . S
C411 C416 1.425 . S
C411 C418 1.409 . S
C412 H404 0.930 . S
C412 C410 1.419 . S
C412 C413 1.362 . S
C413 H405 0.930 . S
C413 C412 1.362 . S
C413 C416 1.409 . S
C414 H406 0.930 . S
C414 C415 1.355 . S
C414 C416 1.415 . S
C415 C414 1.355 . S
C415 C417 1.419 . S
C416 C411 1.425 . S
C416 C413 1.409 . S
C416 C414 1.415 . S
C417 H407 0.930 . S
C417 C415 1.419 . S
C417 C418 1.362 . S
C418 H408 0.930 . S
C418 C411 1.409 . S
C418 C417 1.362 . S
H419 C425 0.930 . S
H420 C428 0.930 . S
H421 C429 0.930 . S
H422 C430 0.930 . S
H423 C433 0.930 . S
H424 C434 0.930 . S
C425 H419 0.930 . S
C425 C426 1.355 . S
C425 C427 1.415 . S
C426 C425 1.355 . S
C426 C428 1.419 . S
C427 C425 1.415 . S
C427 C432 1.425 . S
C427 C434 1.409 . S
C428 H420 0.930 . S
C428 C426 1.419 . S
C428 C429 1.362 . S
C429 H421 0.930 . S
C429 C428 1.362 . S
C429 C432 1.409 . S
C430 H422 0.930 . S
C430 C431 1.355 . S
C430 C432 1.415 . S
C431 C430 1.355 . S
C431 C433 1.419 . S
C432 C427 1.425 . S
C432 C429 1.409 . S
C432 C430 1.415 . S
C433 H423 0.930 . S
C433 C431 1.419 . S
C433 C434 1.362 . S
C434 H424 0.930 . S
C434 C427 1.409 . S
C434 C433 1.362 . S
H435 C441 0.930 . S
H436 C444 0.930 . S
H437 C445 0.930 . S
H438 C446 0.930 . S
H439 C449 0.930 . S
H440 C450 0.930 . S
C441 H435 0.930 . S
C441 C442 1.355 . S
C441 C443 1.415 . S
C442 C441 1.355 . S
C442 C444 1.419 . S
C443 C441 1.415 . S
C443 C448 1.425 . S
C443 C450 1.409 . S
C444 H436 0.930 . S
C444 C442 1.419 . S
C444 C445 1.362 . S
C445 H437 0.930 . S
C445 C444 1.362 . S
C445 C448 1.409 . S
C446 H438 0.930 . S
C446 C447 1.355 . S
C446 C448 1.415 . S
C447 C446 1.355 . S
C447 C449 1.419 . S
C448 C443 1.425 . S
C448 C445 1.409 . S
C448 C446 1.415 . S
C449 H439 0.930 . S
C449 C447 1.419 . S
C449 C450 1.362 . S
C450 H440 0.930 . S
C450 C443 1.409 . S
C450 C449 1.362 . S
H451 C457 0.930 . S
H452 C460 0.930 . S
H453 C461 0.930 . S
H454 C462 0.930 . S
H455 C465 0.930 . S
H456 C466 0.930 . S
C457 H451 0.930 . S
C457 C458 1.355 . S
C457 C459 1.415 . S
C458 C457 1.355 . S
C458 C460 1.419 . S
C459 C457 1.415 . S
C459 C464 1.425 . S
C459 C466 1.409 . S
C460 H452 0.930 . S
C460 C458 1.419 . S
C460 C461 1.362 . S
C461 H453 0.930 . S
C461 C460 1.362 . S
C461 C464 1.409 . S
C462 H454 0.930 . S
C462 C463 1.355 . S
C462 C464 1.415 . S
C463 C462 1.355 . S
C463 C465 1.419 . S
C464 C459 1.425 . S
C464 C461 1.409 . S
C464 C462 1.415 . S
C465 H455 0.930 . S
C465 C463 1.419 . S
C465 C466 1.362 . S
C466 H456 0.930 . S
C466 C459 1.409 . S
C466 C465 1.362 . S
H467 C473 0.930 . S
H468 C476 0.930 . S
H469 C477 0.930 . S
H470 C478 0.930 . S
H471 C481 0.930 . S
H472 C482 0.930 . S
C473 H467 0.930 . S
C473 C474 1.355 . S
C473 C475 1.415 . S
C474 C473 1.355 . S
C474 C476 1.419 . S
C475 C473 1.415 . S
C475 C480 1.425 . S
C475 C482 1.409 . S
C476 H468 0.930 . S
C476 C474 1.419 . S
C476 C477 1.362 . S
C477 H469 0.930 . S
C477 C476 1.362 . S
C477 C480 1.409 . S
C478 H470 0.930 . S
C478 C479 1.355 . S
C478 C480 1.415 . S
C479 C478 1.355 . S
C479 C481 1.419 . S
C480 C475 1.425 . S
C480 C477 1.409 . S
C480 C478 1.415 . S
C481 H471 0.930 . S
C481 C479 1.419 . S
C481 C482 1.362 . S
C482 H472 0.930 . S
C482 C475 1.409 . S
C482 C481 1.362 . S
H483 C489 0.930 . S
H484 C492 0.930 . S
H485 C493 0.930 . S
H486 C494 0.930 . S
H487 C497 0.930 . S
H488 C498 0.930 . S
C489 H483 0.930 . S
C489 C490 1.355 . S
C489 C491 1.415 . S
C490 C489 1.355 . S
C490 C492 1.419 . S
C491 C489 1.415 . S
C491 C496 1.425 . S
C491 C498 1.409 . S
C492 H484 0.930 . S
C492 C490 1.419 . S
C492 C493 1.362 . S
C493 H485 0.930 . S
C493 C492 1.362 . S
C493 C496 1.409 . S
C494 H486 0.930 . S
C494 C495 1.355 . S
C494 C496 1.415 . S
C495 C494 1.355 . S
C495 C497 1.419 . S
C496 C491 1.425 . S
C496 C493 1.409 . S
C496 C494 1.415 . S
C497 H487 0.930 . S
C497 C495 1.419 . S
C497 C498 1.362 . S
C498 H488 0.930 . S
C498 C491 1.409 . S
C498 C497 1.362 . S
H499 C505 0.930 . S
H500 C508 0.930 . S
H501 C509 0.930 . S
H502 C510 0.930 . S
H503 C513 0.930 . S
H504 C514 0.930 . S
C505 H499 0.930 . S
C505 C506 1.355 . S
C505 C507 1.415 . S
C506 C505 1.355 . S
C506 C508 1.419 . S
C507 C505 1.415 . S
C507 C512 1.425 . S
C507 C514 1.409 . S
C508 H500 0.930 . S
C508 C506 1.419 . S
C508 C509 1.362 . S
C509 H501 0.930 . S
C509 C508 1.362 . S
C509 C512 1.409 . S
C510 H502 0.930 . S
C510 C511 1.355 . S
C510 C512 1.415 . S
C511 C510 1.355 . S
C511 C513 1.419 . S
C512 C507 1.425 . S
C512 C509 1.409 . S
C512 C510 1.415 . S
C513 H503 0.930 . S
C513 C511 1.419 . S
C513 C514 1.362 . S
C514 H504 0.930 . S
C514 C507 1.409 . S
C514 C513 1.362 . S
H515 C521 0.930 . S
H516 C524 0.930 . S
H517 C525 0.930 . S
H518 C526 0.930 . S
H519 C529 0.930 . S
H520 C530 0.930 . S
C521 H515 0.930 . S
C521 C522 1.355 . S
C521 C523 1.415 . S
C522 C521 1.355 . S
C522 C524 1.419 . S
C523 C521 1.415 . S
C523 C528 1.425 . S
C523 C530 1.409 . S
C524 H516 0.930 . S
C524 C522 1.419 . S
C524 C525 1.362 . S
C525 H517 0.930 . S
C525 C524 1.362 . S
C525 C528 1.409 . S
C526 H518 0.930 . S
C526 C527 1.355 . S
C526 C528 1.415 . S
C527 C526 1.355 . S
C527 C529 1.419 . S
C528 C523 1.425 . S
C528 C525 1.409 . S
C528 C526 1.415 . S
C529 H519 0.930 . S
C529 C527 1.419 . S
C529 C530 1.362 . S
C530 H520 0.930 . S
C530 C523 1.409 . S
C530 C529 1.362 . S
H531 C537 0.930 . S
H532 C540 0.930 . S
H533 C541 0.930 . S
H534 C542 0.930 . S
H535 C545 0.930 . S
H536 C546 0.930 . S
C537 H531 0.930 . S
C537 C538 1.355 . S
C537 C539 1.415 . S
C538 C537 1.355 . S
C538 C540 1.419 . S
C539 C537 1.415 . S
C539 C544 1.425 . S
C539 C546 1.409 . S
C540 H532 0.930 . S
C540 C538 1.419 . S
C540 C541 1.362 . S
C541 H533 0.930 . S
C541 C540 1.362 . S
C541 C544 1.409 . S
C542 H534 0.930 . S
C542 C543 1.355 . S
C542 C544 1.415 . S
C543 C542 1.355 . S
C543 C545 1.419 . S
C544 C539 1.425 . S
C544 C541 1.409 . S
C544 C542 1.415 . S
C545 H535 0.930 . S
C545 C543 1.419 . S
C545 C546 1.362 . S
C546 H536 0.930 . S
C546 C539 1.409 . S
C546 C545 1.362 . S
H547 C553 0.930 . S
H548 C556 0.930 . S
H549 C557 0.930 . S
H550 C558 0.930 . S
H551 C561 0.930 . S
H552 C562 0.930 . S
C553 H547 0.930 . S
C553 C554 1.355 . S
C553 C555 1.415 . S
C554 C553 1.355 . S
C554 C556 1.419 . S
C555 C553 1.415 . S
C555 C560 1.425 . S
C555 C562 1.409 . S
C556 H548 0.930 . S
C556 C554 1.419 . S
C556 C557 1.362 . S
C557 H549 0.930 . S
C557 C556 1.362 . S
C557 C560 1.409 . S
C558 H550 0.930 . S
C558 C559 1.355 . S
C558 C560 1.415 . S
C559 C558 1.355 . S
C559 C561 1.419 . S
C560 C555 1.425 . S
C560 C557 1.409 . S
C560 C558 1.415 . S
C561 H551 0.930 . S
C561 C559 1.419 . S
C561 C562 1.362 . S
C562 H552 0.930 . S
C562 C555 1.409 . S
C562 C561 1.362 . S
H563 C569 0.930 . S
H564 C572 0.930 . S
H565 C573 0.930 . S
H566 C574 0.930 . S
H567 C577 0.930 . S
H568 C578 0.930 . S
C569 H563 0.930 . S
C569 C570 1.355 . S
C569 C571 1.415 . S
C570 C569 1.355 . S
C570 C572 1.419 . S
C571 C569 1.415 . S
C571 C576 1.425 . S
C571 C578 1.409 . S
C572 H564 0.930 . S
C572 C570 1.419 . S
C572 C573 1.362 . S
C573 H565 0.930 . S
C573 C572 1.362 . S
C573 C576 1.409 . S
C574 H566 0.930 . S
C574 C575 1.355 . S
C574 C576 1.415 . S
C575 C574 1.355 . S
C575 C577 1.419 . S
C576 C571 1.425 . S
C576 C573 1.409 . S
C576 C574 1.415 . S
C577 H567 0.930 . S
C577 C575 1.419 . S
C577 C578 1.362 . S
C578 H568 0.930 . S
C578 C571 1.409 . S
C578 C577 1.362 . S
H579 C585 0.930 . S
H580 C588 0.930 . S
H581 C589 0.930 . S
H582 C590 0.930 . S
H583 C593 0.930 . S
H584 C594 0.930 . S
C585 H579 0.930 . S
C585 C586 1.355 . S
C585 C587 1.415 . S
C586 C585 1.355 . S
C586 C588 1.419 . S
C587 C585 1.415 . S
C587 C592 1.425 . S
C587 C594 1.409 . S
C588 H580 0.930 . S
C588 C586 1.419 . S
C588 C589 1.362 . S
C589 H581 0.930 . S
C589 C588 1.362 . S
C589 C592 1.409 . S
C590 H582 0.930 . S
C590 C591 1.355 . S
C590 C592 1.415 . S
C591 C590 1.355 . S
C591 C593 1.419 . S
C592 C587 1.425 . S
C592 C589 1.409 . S
C592 C590 1.415 . S
C593 H583 0.930 . S
C593 C591 1.419 . S
C593 C594 1.362 . S
C594 H584 0.930 . S
C594 C587 1.409 . S
C594 C593 1.362 . S
H595 C601 0.930 . S
H596 C604 0.930 . S
H597 C605 0.930 . S
H598 C606 0.930 . S
H599 C609 0.930 . S
H600 C610 0.930 . S
C601 H595 0.930 . S
C601 C602 1.355 . S
C601 C603 1.415 . S
C602 C601 1.355 . S
C602 C604 1.419 . S
C603 C601 1.415 . S
C603 C608 1.425 . S
C603 C610 1.409 . S
C604 H596 0.930 . S
C604 C602 1.419 . S
C604 C605 1.362 . S
C605 H597 0.930 . S
C605 C604 1.362 . S
C605 C608 1.409 . S
C606 H598 0.930 . S
C606 C607 1.355 . S
C606 C608 1.415 . S
C607 C606 1.355 . S
C607 C609 1.419 . S
C608 C603 1.425 . S
C608 C605 1.409 . S
C608 C606 1.415 . S
C609 H599 0.930 . S
C609 C607 1.419 . S
C609 C610 1.362 . S
C610 H600 0.930 . S
C610 C603 1.409 . S
C610 C609 1.362 . S
H611 C617 0.930 . S
H612 C620 0.930 . S
H613 C621 0.930 . S
H614 C622 0.930 . S
H615 C625 0.930 . S
H616 C626 0.930 . S
C617 H611 0.930 . S
C617 C618 1.355 . S
C617 C619 1.415 . S
C618 C617 1.355 . S
C618 C620 1.419 . S
C619 C617 1.415 . S
C619 C624 1.425 . S
C619 C626 1.409 . S
C620 H612 0.930 . S
C620 C618 1.419 . S
C620 C621 1.362 . S
C621 H613 0.930 . S
C621 C620 1.362 . S
C621 C624 1.409 . S
C622 H614 0.930 . S
C622 C623 1.355 . S
C622 C624 1.415 . S
C623 C622 1.355 . S
C623 C625 1.419 . S
C624 C619 1.425 . S
C624 C621 1.409 . S
C624 C622 1.415 . S
C625 H615 0.930 . S
C625 C623 1.419 . S
C625 C626 1.362 . S
C626 H616 0.930 . S
C626 C619 1.409 . S
C626 C625 1.362 . S
H627 C633 0.930 . S
H628 C636 0.930 . S
H629 C637 0.930 . S
H630 C638 0.930 . S
H631 C641 0.930 . S
H632 C642 0.930 . S
C633 H627 0.930 . S
C633 C634 1.355 . S
C633 C635 1.415 . S
C634 C633 1.355 . S
C634 C636 1.419 . S
C635 C633 1.415 . S
C635 C640 1.425 . S
C635 C642 1.409 . S
C636 H628 0.930 . S
C636 C634 1.419 . S
C636 C637 1.362 . S
C637 H629 0.930 . S
C637 C636 1.362 . S
C637 C640 1.409 . S
C638 H630 0.930 . S
C638 C639 1.355 . S
C638 C640 1.415 . S
C639 C638 1.355 . S
C639 C641 1.419 . S
C640 C635 1.425 . S
C640 C637 1.409 . S
C640 C638 1.415 . S
C641 H631 0.930 . S
C641 C639 1.419 . S
C641 C642 1.362 . S
C642 H632 0.930 . S
C642 C635 1.409 . S
C642 C641 1.362 . S
H643 C649 0.930 . S
H644 C652 0.930 . S
H645 C653 0.930 . S
H646 C654 0.930 . S
H647 C657 0.930 . S
H648 C658 0.930 . S
C649 H643 0.930 . S
C649 C650 1.355 . S
C649 C651 1.415 . S
C650 C649 1.355 . S
C650 C652 1.419 . S
C651 C649 1.415 . S
C651 C656 1.425 . S
C651 C658 1.409 . S
C652 H644 0.930 . S
C652 C650 1.419 . S
C652 C653 1.362 . S
C653 H645 0.930 . S
C653 C652 1.362 . S
C653 C656 1.409 . S
C654 H646 0.930 . S
C654 C655 1.355 . S
C654 C656 1.415 . S
C655 C654 1.355 . S
C655 C657 1.419 . S
C656 C651 1.425 . S
C656 C653 1.409 . S
C656 C654 1.415 . S
C657 H647 0.930 . S
C657 C655 1.419 . S
C657 C658 1.362 . S
C658 H648 0.930 . S
C658 C651 1.409 . S
C658 C657 1.362 . S
H659 C665 0.930 . S
H660 C668 0.930 . S
H661 C669 0.930 . S
H662 C670 0.930 . S
H663 C673 0.930 . S
H664 C674 0.930 . S
C665 H659 0.930 . S
C665 C666 1.355 . S
C665 C667 1.415 . S
C666 C665 1.355 . S
C666 C668 1.419 . S
C667 C665 1.415 . S
C667 C672 1.425 . S
C667 C674 1.409 . S
C668 H660 0.930 . S
C668 C666 1.419 . S
C668 C669 1.362 . S
C669 H661 0.930 . S
C669 C668 1.362 . S
C669 C672 1.409 . S
C670 H662 0.930 . S
C670 C671 1.355 . S
C670 C672 1.415 . S
C671 C670 1.355 . S
C671 C673 1.419 . S
C672 C667 1.425 . S
C672 C669 1.409 . S
C672 C670 1.415 . S
C673 H663 0.930 . S
C673 C671 1.419 . S
C673 C674 1.362 . S
C674 H664 0.930 . S
C674 C667 1.409 . S
C674 C673 1.362 . S
H675 C681 0.930 . S
H676 C684 0.930 . S
H677 C685 0.930 . S
H678 C686 0.930 . S
H679 C689 0.930 . S
H680 C690 0.930 . S
C681 H675 0.930 . S
C681 C682 1.355 . S
C681 C683 1.415 . S
C682 C681 1.355 . S
C682 C684 1.419 . S
C683 C681 1.415 . S
C683 C688 1.425 . S
C683 C690 1.409 . S
C684 H676 0.930 . S
C684 C682 1.419 . S
C684 C685 1.362 . S
C685 H677 0.930 . S
C685 C684 1.362 . S
C685 C688 1.409 . S
C686 H678 0.930 . S
C686 C687 1.355 . S
C686 C688 1.415 . S
C687 C686 1.355 . S
C687 C689 1.419 . S
C688 C683 1.425 . S
C688 C685 1.409 . S
C688 C686 1.415 . S
C689 H679 0.930 . S
C689 C687 1.419 . S
C689 C690 1.362 . S
C690 H680 0.930 . S
C690 C683 1.409 . S
C690 C689 1.362 . S
H691 C697 0.930 . S
H692 C700 0.930 . S
H693 C701 0.930 . S
H694 C702 0.930 . S
H695 C705 0.930 . S
H696 C706 0.930 . S
C697 H691 0.930 . S
C697 C698 1.355 . S
C697 C699 1.415 . S
C698 C697 1.355 . S
C698 C700 1.419 . S
C699 C697 1.415 . S
C699 C704 1.425 . S
C699 C706 1.409 . S
C700 H692 0.930 . S
C700 C698 1.419 . S
C700 C701 1.362 . S
C701 H693 0.930 . S
C701 C700 1.362 . S
C701 C704 1.409 . S
C702 H694 0.930 . S
C702 C703 1.355 . S
C702 C704 1.415 . S
C703 C702 1.355 . S
C703 C705 1.419 . S
C704 C699 1.425 . S
C704 C701 1.409 . S
C704 C702 1.415 . S
C705 H695 0.930 . S
C705 C703 1.419 . S
C705 C706 1.362 . S
C706 H696 0.930 . S
C706 C699 1.409 . S
C706 C705 1.362 . S
H707 C713 0.930 . S
H708 C716 0.930 . S
H709 C717 0.930 . S
H710 C718 0.930 . S
H711 C721 0.930 . S
H712 C722 0.930 . S
C713 H707 0.930 . S
C713 C714 1.355 . S
C713 C715 1.415 . S
C714 C713 1.355 . S
C714 C716 1.419 . S
C715 C713 1.415 . S
C715 C720 1.425 . S
C715 C722 1.409 . S
C716 H708 0.930 . S
C716 C714 1.419 . S
C716 C717 1.362 . S
C717 H709 0.930 . S
C717 C716 1.362 . S
C717 C720 1.409 . S
C718 H710 0.930 . S
C718 C719 1.355 . S
C718 C720 1.415 . S
C719 C718 1.355 . S
C719 C721 1.419 . S
C720 C715 1.425 . S
C720 C717 1.409 . S
C720 C718 1.415 . S
C721 H711 0.930 . S
C721 C719 1.419 . S
C721 C722 1.362 . S
C722 H712 0.930 . S
C722 C715 1.409 . S
C722 C721 1.362 . S
H723 C729 0.930 . S
H724 C732 0.930 . S
H725 C733 0.930 . S
H726 C734 0.930 . S
H727 C737 0.930 . S
H728 C738 0.930 . S
C729 H723 0.930 . S
C729 C730 1.355 . S
C729 C731 1.415 . S
C730 C729 1.355 . S
C730 C732 1.419 . S
C731 C729 1.415 . S
C731 C736 1.425 . S
C731 C738 1.409 . S
C732 H724 0.930 . S
C732 C730 1.419 . S
C732 C733 1.362 . S
C733 H725 0.930 . S
C733 C732 1.362 . S
C733 C736 1.409 . S
C734 H726 0.930 . S
C734 C735 1.355 . S
C734 C736 1.415 . S
C735 C734 1.355 . S
C735 C737 1.419 . S
C736 C731 1.425 . S
C736 C733 1.409 . S
C736 C734 1.415 . S
C737 H727 0.930 . S
C737 C735 1.419 . S
C737 C738 1.362 . S
C738 H728 0.930 . S
C738 C731 1.409 . S
C738 C737 1.362 . S
C367 C280 1.073 . S
C362 C17 1.132 . S
C383 C316 1.656 . S
C378 C55 1.736 . S
C399 C281 1.362 . S
C394 C87 1.375 . S
C415 C311 1.528 . S
C410 C113 1.517 . S
C431 C278 1.398 . S
C426 C145 1.409 . S
C442 C183 1.564 . S
C447 C314 1.617 . S
C458 C215 1.225 . S
C463 C283 1.098 . S
C479 C313 1.430 . S
C474 C247 1.409 . S
C495 C317 1.373 . S
C490 C23 1.403 . S
C511 C282 1.476 . S
C506 C49 1.562 . S
C527 C310 1.662 . S
C522 C81 1.685 . S
C543 C279 1.096 . S
C538 C125 1.274 . S
C559 C312 1.567 . S
C554 C151 1.638 . S
C570 C189 1.365 . S
C575 C277 1.387 . S
C586 C209 1.587 . S
C591 C315 1.541 . S
C607 C284 1.102 . S
C602 C241 1.195 . S
C623 C346 1.593 . S
C618 C29 1.679 . S
C634 C157 1.907 . S
C639 C349 1.919 . S
C655 C348 1.593 . S
C650 C177 1.614 . S
C666 C221 2.061 . S
C671 C347 2.046 . S
C687 C350 1.676 . S
C682 C253 1.718 . S
C698 C93 1.761 . S
C703 C344 1.664 . S
C719 C343 1.930 . S
C714 C119 1.957 . S
C730 C61 2.053 . S
C735 C345 1.873 . S
