# Generated by pormake.
# Topology ana-f, (3,3)-cn, num edge types: 1
# Building blocks:
#     Node 0, Type 0, BuildingBlock: OLANEW_clean_sbu_2, # of connection points: 3
#     Node 1, Type 0, BuildingBlock: OLANEW_clean_sbu_2, # of connection points: 3
#     Node 2, Type 0, BuildingBlock: OLANEW_clean_sbu_2, # of connection points: 3
#     Node 3, Type 0, BuildingBlock: OLANEW_clean_sbu_2, # of connection points: 3
#     Node 4, Type 0, BuildingBlock: OLANEW_clean_sbu_2, # of connection points: 3
#     Node 5, Type 0, BuildingBlock: OLANEW_clean_sbu_2, # of connection points: 3
#     Node 6, Type 0, BuildingBlock: OLANEW_clean_sbu_2, # of connection points: 3
#     Node 7, Type 0, BuildingBlock: OLANEW_clean_sbu_2, # of connection points: 3
#     Node 8, Type 0, BuildingBlock: OLANEW_clean_sbu_2, # of connection points: 3
#     Node 9, Type 0, BuildingBlock: OLANEW_clean_sbu_2, # of connection points: 3
#     Node 10, Type 0, BuildingBlock: OLANEW_clean_sbu_2, # of connection points: 3
#     Node 11, Type 0, BuildingBlock: OLANEW_clean_sbu_2, # of connection points: 3
#     Node 12, Type 0, BuildingBlock: OLANEW_clean_sbu_2, # of connection points: 3
#     Node 13, Type 0, BuildingBlock: OLANEW_clean_sbu_2, # of connection points: 3
#     Node 14, Type 0, BuildingBlock: OLANEW_clean_sbu_2, # of connection points: 3
#     Node 15, Type 0, BuildingBlock: OLANEW_clean_sbu_2, # of connection points: 3
#     Node 16, Type 0, BuildingBlock: OLANEW_clean_sbu_2, # of connection points: 3
#     Node 17, Type 0, BuildingBlock: OLANEW_clean_sbu_2, # of connection points: 3
#     Node 18, Type 0, BuildingBlock: OLANEW_clean_sbu_2, # of connection points: 3
#     Node 19, Type 0, BuildingBlock: OLANEW_clean_sbu_2, # of connection points: 3
#     Node 20, Type 0, BuildingBlock: OLANEW_clean_sbu_2, # of connection points: 3
#     Node 21, Type 0, BuildingBlock: OLANEW_clean_sbu_2, # of connection points: 3
#     Node 22, Type 0, BuildingBlock: OLANEW_clean_sbu_2, # of connection points: 3
#     Node 23, Type 0, BuildingBlock: OLANEW_clean_sbu_2, # of connection points: 3
#     Node 24, Type 0, BuildingBlock: OLANEW_clean_sbu_2, # of connection points: 3
#     Node 25, Type 0, BuildingBlock: OLANEW_clean_sbu_2, # of connection points: 3
#     Node 26, Type 0, BuildingBlock: OLANEW_clean_sbu_2, # of connection points: 3
#     Node 27, Type 0, BuildingBlock: OLANEW_clean_sbu_2, # of connection points: 3
#     Node 28, Type 0, BuildingBlock: OLANEW_clean_sbu_2, # of connection points: 3
#     Node 29, Type 0, BuildingBlock: OLANEW_clean_sbu_2, # of connection points: 3
#     Node 30, Type 0, BuildingBlock: OLANEW_clean_sbu_2, # of connection points: 3
#     Node 31, Type 0, BuildingBlock: OLANEW_clean_sbu_2, # of connection points: 3
#     Node 32, Type 0, BuildingBlock: OLANEW_clean_sbu_2, # of connection points: 3
#     Node 33, Type 0, BuildingBlock: OLANEW_clean_sbu_2, # of connection points: 3
#     Node 34, Type 0, BuildingBlock: OLANEW_clean_sbu_2, # of connection points: 3
#     Node 35, Type 0, BuildingBlock: OLANEW_clean_sbu_2, # of connection points: 3
#     Node 36, Type 0, BuildingBlock: OLANEW_clean_sbu_2, # of connection points: 3
#     Node 37, Type 0, BuildingBlock: OLANEW_clean_sbu_2, # of connection points: 3
#     Node 38, Type 0, BuildingBlock: OLANEW_clean_sbu_2, # of connection points: 3
#     Node 39, Type 0, BuildingBlock: OLANEW_clean_sbu_2, # of connection points: 3
#     Node 40, Type 0, BuildingBlock: OLANEW_clean_sbu_2, # of connection points: 3
#     Node 41, Type 0, BuildingBlock: OLANEW_clean_sbu_2, # of connection points: 3
#     Node 42, Type 0, BuildingBlock: OLANEW_clean_sbu_2, # of connection points: 3
#     Node 43, Type 0, BuildingBlock: OLANEW_clean_sbu_2, # of connection points: 3
#     Node 44, Type 0, BuildingBlock: OLANEW_clean_sbu_2, # of connection points: 3
#     Node 45, Type 0, BuildingBlock: OLANEW_clean_sbu_2, # of connection points: 3
#     Node 46, Type 0, BuildingBlock: OLANEW_clean_sbu_2, # of connection points: 3
#     Node 47, Type 0, BuildingBlock: OLANEW_clean_sbu_2, # of connection points: 3
#     Node 48, Type 0, BuildingBlock: OLANEW_clean_sbu_2, # of connection points: 3
#     Node 49, Type 0, BuildingBlock: OLANEW_clean_sbu_2, # of connection points: 3
#     Node 50, Type 0, BuildingBlock: OLANEW_clean_sbu_2, # of connection points: 3
#     Node 51, Type 0, BuildingBlock: OLANEW_clean_sbu_2, # of connection points: 3
#     Node 52, Type 0, BuildingBlock: OLANEW_clean_sbu_2, # of connection points: 3
#     Node 53, Type 0, BuildingBlock: OLANEW_clean_sbu_2, # of connection points: 3
#     Node 54, Type 0, BuildingBlock: OLANEW_clean_sbu_2, # of connection points: 3
#     Node 55, Type 0, BuildingBlock: OLANEW_clean_sbu_2, # of connection points: 3
#     Node 56, Type 0, BuildingBlock: OLANEW_clean_sbu_2, # of connection points: 3
#     Node 57, Type 0, BuildingBlock: OLANEW_clean_sbu_2, # of connection points: 3
#     Node 58, Type 0, BuildingBlock: OLANEW_clean_sbu_2, # of connection points: 3
#     Node 59, Type 0, BuildingBlock: OLANEW_clean_sbu_2, # of connection points: 3
#     Node 60, Type 0, BuildingBlock: OLANEW_clean_sbu_2, # of connection points: 3
#     Node 61, Type 0, BuildingBlock: OLANEW_clean_sbu_2, # of connection points: 3
#     Node 62, Type 0, BuildingBlock: OLANEW_clean_sbu_2, # of connection points: 3
#     Node 63, Type 0, BuildingBlock: OLANEW_clean_sbu_2, # of connection points: 3
#     Node 64, Type 0, BuildingBlock: OLANEW_clean_sbu_2, # of connection points: 3
#     Node 65, Type 0, BuildingBlock: OLANEW_clean_sbu_2, # of connection points: 3
#     Node 66, Type 0, BuildingBlock: OLANEW_clean_sbu_2, # of connection points: 3
#     Node 67, Type 0, BuildingBlock: OLANEW_clean_sbu_2, # of connection points: 3
#     Node 68, Type 0, BuildingBlock: OLANEW_clean_sbu_2, # of connection points: 3
#     Node 69, Type 0, BuildingBlock: OLANEW_clean_sbu_2, # of connection points: 3
#     Node 70, Type 0, BuildingBlock: OLANEW_clean_sbu_2, # of connection points: 3
#     Node 71, Type 0, BuildingBlock: OLANEW_clean_sbu_2, # of connection points: 3
#     Node 72, Type 0, BuildingBlock: OLANEW_clean_sbu_2, # of connection points: 3
#     Node 73, Type 0, BuildingBlock: OLANEW_clean_sbu_2, # of connection points: 3
#     Node 74, Type 0, BuildingBlock: OLANEW_clean_sbu_2, # of connection points: 3
#     Node 75, Type 0, BuildingBlock: OLANEW_clean_sbu_2, # of connection points: 3
#     Node 76, Type 0, BuildingBlock: OLANEW_clean_sbu_2, # of connection points: 3
#     Node 77, Type 0, BuildingBlock: OLANEW_clean_sbu_2, # of connection points: 3
#     Node 78, Type 0, BuildingBlock: OLANEW_clean_sbu_2, # of connection points: 3
#     Node 79, Type 0, BuildingBlock: OLANEW_clean_sbu_2, # of connection points: 3
#     Node 80, Type 0, BuildingBlock: OLANEW_clean_sbu_2, # of connection points: 3
#     Node 81, Type 0, BuildingBlock: OLANEW_clean_sbu_2, # of connection points: 3
#     Node 82, Type 0, BuildingBlock: OLANEW_clean_sbu_2, # of connection points: 3
#     Node 83, Type 0, BuildingBlock: OLANEW_clean_sbu_2, # of connection points: 3
#     Node 84, Type 0, BuildingBlock: OLANEW_clean_sbu_2, # of connection points: 3
#     Node 85, Type 0, BuildingBlock: OLANEW_clean_sbu_2, # of connection points: 3
#     Node 86, Type 0, BuildingBlock: OLANEW_clean_sbu_2, # of connection points: 3
#     Node 87, Type 0, BuildingBlock: OLANEW_clean_sbu_2, # of connection points: 3
#     Node 88, Type 0, BuildingBlock: OLANEW_clean_sbu_2, # of connection points: 3
#     Node 89, Type 0, BuildingBlock: OLANEW_clean_sbu_2, # of connection points: 3
#     Node 90, Type 0, BuildingBlock: OLANEW_clean_sbu_2, # of connection points: 3
#     Node 91, Type 0, BuildingBlock: OLANEW_clean_sbu_2, # of connection points: 3
#     Node 92, Type 0, BuildingBlock: OLANEW_clean_sbu_2, # of connection points: 3
#     Node 93, Type 0, BuildingBlock: OLANEW_clean_sbu_2, # of connection points: 3
#     Node 94, Type 0, BuildingBlock: OLANEW_clean_sbu_2, # of connection points: 3
#     Node 95, Type 0, BuildingBlock: OLANEW_clean_sbu_2, # of connection points: 3
#     Node 96, Type 1, BuildingBlock: PAMTOO_clean_linker_0, # of connection points: 3
#     Node 97, Type 1, BuildingBlock: PAMTOO_clean_linker_0, # of connection points: 3
#     Node 98, Type 1, BuildingBlock: PAMTOO_clean_linker_0, # of connection points: 3
#     Node 99, Type 1, BuildingBlock: PAMTOO_clean_linker_0, # of connection points: 3
#     Node 100, Type 1, BuildingBlock: PAMTOO_clean_linker_0, # of connection points: 3
#     Node 101, Type 1, BuildingBlock: PAMTOO_clean_linker_0, # of connection points: 3
#     Node 102, Type 1, BuildingBlock: PAMTOO_clean_linker_0, # of connection points: 3
#     Node 103, Type 1, BuildingBlock: PAMTOO_clean_linker_0, # of connection points: 3
#     Node 104, Type 1, BuildingBlock: PAMTOO_clean_linker_0, # of connection points: 3
#     Node 105, Type 1, BuildingBlock: PAMTOO_clean_linker_0, # of connection points: 3
#     Node 106, Type 1, BuildingBlock: PAMTOO_clean_linker_0, # of connection points: 3
#     Node 107, Type 1, BuildingBlock: PAMTOO_clean_linker_0, # of connection points: 3
#     Node 108, Type 1, BuildingBlock: PAMTOO_clean_linker_0, # of connection points: 3
#     Node 109, Type 1, BuildingBlock: PAMTOO_clean_linker_0, # of connection points: 3
#     Node 110, Type 1, BuildingBlock: PAMTOO_clean_linker_0, # of connection points: 3
#     Node 111, Type 1, BuildingBlock: PAMTOO_clean_linker_0, # of connection points: 3
#     Node 112, Type 1, BuildingBlock: PAMTOO_clean_linker_0, # of connection points: 3
#     Node 113, Type 1, BuildingBlock: PAMTOO_clean_linker_0, # of connection points: 3
#     Node 114, Type 1, BuildingBlock: PAMTOO_clean_linker_0, # of connection points: 3
#     Node 115, Type 1, BuildingBlock: PAMTOO_clean_linker_0, # of connection points: 3
#     Node 116, Type 1, BuildingBlock: PAMTOO_clean_linker_0, # of connection points: 3
#     Node 117, Type 1, BuildingBlock: PAMTOO_clean_linker_0, # of connection points: 3
#     Node 118, Type 1, BuildingBlock: PAMTOO_clean_linker_0, # of connection points: 3
#     Node 119, Type 1, BuildingBlock: PAMTOO_clean_linker_0, # of connection points: 3
#     Node 120, Type 1, BuildingBlock: PAMTOO_clean_linker_0, # of connection points: 3
#     Node 121, Type 1, BuildingBlock: PAMTOO_clean_linker_0, # of connection points: 3
#     Node 122, Type 1, BuildingBlock: PAMTOO_clean_linker_0, # of connection points: 3
#     Node 123, Type 1, BuildingBlock: PAMTOO_clean_linker_0, # of connection points: 3
#     Node 124, Type 1, BuildingBlock: PAMTOO_clean_linker_0, # of connection points: 3
#     Node 125, Type 1, BuildingBlock: PAMTOO_clean_linker_0, # of connection points: 3
#     Node 126, Type 1, BuildingBlock: PAMTOO_clean_linker_0, # of connection points: 3
#     Node 127, Type 1, BuildingBlock: PAMTOO_clean_linker_0, # of connection points: 3
#     Node 128, Type 1, BuildingBlock: PAMTOO_clean_linker_0, # of connection points: 3
#     Node 129, Type 1, BuildingBlock: PAMTOO_clean_linker_0, # of connection points: 3
#     Node 130, Type 1, BuildingBlock: PAMTOO_clean_linker_0, # of connection points: 3
#     Node 131, Type 1, BuildingBlock: PAMTOO_clean_linker_0, # of connection points: 3
#     Node 132, Type 1, BuildingBlock: PAMTOO_clean_linker_0, # of connection points: 3
#     Node 133, Type 1, BuildingBlock: PAMTOO_clean_linker_0, # of connection points: 3
#     Node 134, Type 1, BuildingBlock: PAMTOO_clean_linker_0, # of connection points: 3
#     Node 135, Type 1, BuildingBlock: PAMTOO_clean_linker_0, # of connection points: 3
#     Node 136, Type 1, BuildingBlock: PAMTOO_clean_linker_0, # of connection points: 3
#     Node 137, Type 1, BuildingBlock: PAMTOO_clean_linker_0, # of connection points: 3
#     Node 138, Type 1, BuildingBlock: PAMTOO_clean_linker_0, # of connection points: 3
#     Node 139, Type 1, BuildingBlock: PAMTOO_clean_linker_0, # of connection points: 3
#     Node 140, Type 1, BuildingBlock: PAMTOO_clean_linker_0, # of connection points: 3
#     Node 141, Type 1, BuildingBlock: PAMTOO_clean_linker_0, # of connection points: 3
#     Node 142, Type 1, BuildingBlock: PAMTOO_clean_linker_0, # of connection points: 3
#     Node 143, Type 1, BuildingBlock: PAMTOO_clean_linker_0, # of connection points: 3
#     Node 144, Type 1, BuildingBlock: PAMTOO_clean_linker_0, # of connection points: 3
#     Node 145, Type 1, BuildingBlock: PAMTOO_clean_linker_0, # of connection points: 3
#     Node 146, Type 1, BuildingBlock: PAMTOO_clean_linker_0, # of connection points: 3
#     Node 147, Type 1, BuildingBlock: PAMTOO_clean_linker_0, # of connection points: 3
#     Node 148, Type 1, BuildingBlock: PAMTOO_clean_linker_0, # of connection points: 3
#     Node 149, Type 1, BuildingBlock: PAMTOO_clean_linker_0, # of connection points: 3
#     Node 150, Type 1, BuildingBlock: PAMTOO_clean_linker_0, # of connection points: 3
#     Node 151, Type 1, BuildingBlock: PAMTOO_clean_linker_0, # of connection points: 3
#     Node 152, Type 1, BuildingBlock: PAMTOO_clean_linker_0, # of connection points: 3
#     Node 153, Type 1, BuildingBlock: PAMTOO_clean_linker_0, # of connection points: 3
#     Node 154, Type 1, BuildingBlock: PAMTOO_clean_linker_0, # of connection points: 3
#     Node 155, Type 1, BuildingBlock: PAMTOO_clean_linker_0, # of connection points: 3
#     Node 156, Type 1, BuildingBlock: PAMTOO_clean_linker_0, # of connection points: 3
#     Node 157, Type 1, BuildingBlock: PAMTOO_clean_linker_0, # of connection points: 3
#     Node 158, Type 1, BuildingBlock: PAMTOO_clean_linker_0, # of connection points: 3
#     Node 159, Type 1, BuildingBlock: PAMTOO_clean_linker_0, # of connection points: 3
#     Node 160, Type 1, BuildingBlock: PAMTOO_clean_linker_0, # of connection points: 3
#     Node 161, Type 1, BuildingBlock: PAMTOO_clean_linker_0, # of connection points: 3
#     Node 162, Type 1, BuildingBlock: PAMTOO_clean_linker_0, # of connection points: 3
#     Node 163, Type 1, BuildingBlock: PAMTOO_clean_linker_0, # of connection points: 3
#     Node 164, Type 1, BuildingBlock: PAMTOO_clean_linker_0, # of connection points: 3
#     Node 165, Type 1, BuildingBlock: PAMTOO_clean_linker_0, # of connection points: 3
#     Node 166, Type 1, BuildingBlock: PAMTOO_clean_linker_0, # of connection points: 3
#     Node 167, Type 1, BuildingBlock: PAMTOO_clean_linker_0, # of connection points: 3
#     Node 168, Type 1, BuildingBlock: PAMTOO_clean_linker_0, # of connection points: 3
#     Node 169, Type 1, BuildingBlock: PAMTOO_clean_linker_0, # of connection points: 3
#     Node 170, Type 1, BuildingBlock: PAMTOO_clean_linker_0, # of connection points: 3
#     Node 171, Type 1, BuildingBlock: PAMTOO_clean_linker_0, # of connection points: 3
#     Node 172, Type 1, BuildingBlock: PAMTOO_clean_linker_0, # of connection points: 3
#     Node 173, Type 1, BuildingBlock: PAMTOO_clean_linker_0, # of connection points: 3
#     Node 174, Type 1, BuildingBlock: PAMTOO_clean_linker_0, # of connection points: 3
#     Node 175, Type 1, BuildingBlock: PAMTOO_clean_linker_0, # of connection points: 3
#     Node 176, Type 1, BuildingBlock: PAMTOO_clean_linker_0, # of connection points: 3
#     Node 177, Type 1, BuildingBlock: PAMTOO_clean_linker_0, # of connection points: 3
#     Node 178, Type 1, BuildingBlock: PAMTOO_clean_linker_0, # of connection points: 3
#     Node 179, Type 1, BuildingBlock: PAMTOO_clean_linker_0, # of connection points: 3
#     Node 180, Type 1, BuildingBlock: PAMTOO_clean_linker_0, # of connection points: 3
#     Node 181, Type 1, BuildingBlock: PAMTOO_clean_linker_0, # of connection points: 3
#     Node 182, Type 1, BuildingBlock: PAMTOO_clean_linker_0, # of connection points: 3
#     Node 183, Type 1, BuildingBlock: PAMTOO_clean_linker_0, # of connection points: 3
#     Node 184, Type 1, BuildingBlock: PAMTOO_clean_linker_0, # of connection points: 3
#     Node 185, Type 1, BuildingBlock: PAMTOO_clean_linker_0, # of connection points: 3
#     Node 186, Type 1, BuildingBlock: PAMTOO_clean_linker_0, # of connection points: 3
#     Node 187, Type 1, BuildingBlock: PAMTOO_clean_linker_0, # of connection points: 3
#     Node 188, Type 1, BuildingBlock: PAMTOO_clean_linker_0, # of connection points: 3
#     Node 189, Type 1, BuildingBlock: PAMTOO_clean_linker_0, # of connection points: 3
#     Node 190, Type 1, BuildingBlock: PAMTOO_clean_linker_0, # of connection points: 3
#     Node 191, Type 1, BuildingBlock: PAMTOO_clean_linker_0, # of connection points: 3
#     Edge 192, Type (0, 1), None
#     Edge 193, Type (0, 1), None
#     Edge 194, Type (0, 1), None
#     Edge 195, Type (0, 1), None
#     Edge 196, Type (0, 1), None
#     Edge 197, Type (0, 1), None
#     Edge 198, Type (0, 1), None
#     Edge 199, Type (0, 1), None
#     Edge 200, Type (0, 1), None
#     Edge 201, Type (0, 1), None
#     Edge 202, Type (0, 1), None
#     Edge 203, Type (0, 1), None
#     Edge 204, Type (0, 1), None
#     Edge 205, Type (0, 1), None
#     Edge 206, Type (0, 1), None
#     Edge 207, Type (0, 1), None
#     Edge 208, Type (0, 1), None
#     Edge 209, Type (0, 1), None
#     Edge 210, Type (0, 1), None
#     Edge 211, Type (0, 1), None
#     Edge 212, Type (0, 1), None
#     Edge 213, Type (0, 1), None
#     Edge 214, Type (0, 1), None
#     Edge 215, Type (0, 1), None
#     Edge 216, Type (0, 1), None
#     Edge 217, Type (0, 1), None
#     Edge 218, Type (0, 1), None
#     Edge 219, Type (0, 1), None
#     Edge 220, Type (0, 1), None
#     Edge 221, Type (0, 1), None
#     Edge 222, Type (0, 1), None
#     Edge 223, Type (0, 1), None
#     Edge 224, Type (0, 1), None
#     Edge 225, Type (0, 1), None
#     Edge 226, Type (0, 1), None
#     Edge 227, Type (0, 1), None
#     Edge 228, Type (0, 1), None
#     Edge 229, Type (0, 1), None
#     Edge 230, Type (0, 1), None
#     Edge 231, Type (0, 1), None
#     Edge 232, Type (0, 1), None
#     Edge 233, Type (0, 1), None
#     Edge 234, Type (0, 1), None
#     Edge 235, Type (0, 1), None
#     Edge 236, Type (0, 1), None
#     Edge 237, Type (0, 1), None
#     Edge 238, Type (0, 1), None
#     Edge 239, Type (0, 1), None
#     Edge 240, Type (0, 1), None
#     Edge 241, Type (0, 1), None
#     Edge 242, Type (0, 1), None
#     Edge 243, Type (0, 1), None
#     Edge 244, Type (0, 1), None
#     Edge 245, Type (0, 1), None
#     Edge 246, Type (0, 1), None
#     Edge 247, Type (0, 1), None
#     Edge 248, Type (0, 1), None
#     Edge 249, Type (0, 1), None
#     Edge 250, Type (0, 1), None
#     Edge 251, Type (0, 1), None
#     Edge 252, Type (0, 1), None
#     Edge 253, Type (0, 1), None
#     Edge 254, Type (0, 1), None
#     Edge 255, Type (0, 1), None
#     Edge 256, Type (0, 1), None
#     Edge 257, Type (0, 1), None
#     Edge 258, Type (0, 1), None
#     Edge 259, Type (0, 1), None
#     Edge 260, Type (0, 1), None
#     Edge 261, Type (0, 1), None
#     Edge 262, Type (0, 1), None
#     Edge 263, Type (0, 1), None
#     Edge 264, Type (0, 1), None
#     Edge 265, Type (0, 1), None
#     Edge 266, Type (0, 1), None
#     Edge 267, Type (0, 1), None
#     Edge 268, Type (0, 1), None
#     Edge 269, Type (0, 1), None
#     Edge 270, Type (0, 1), None
#     Edge 271, Type (0, 1), None
#     Edge 272, Type (0, 1), None
#     Edge 273, Type (0, 1), None
#     Edge 274, Type (0, 1), None
#     Edge 275, Type (0, 1), None
#     Edge 276, Type (0, 1), None
#     Edge 277, Type (0, 1), None
#     Edge 278, Type (0, 1), None
#     Edge 279, Type (0, 1), None
#     Edge 280, Type (0, 1), None
#     Edge 281, Type (0, 1), None
#     Edge 282, Type (0, 1), None
#     Edge 283, Type (0, 1), None
#     Edge 284, Type (0, 1), None
#     Edge 285, Type (0, 1), None
#     Edge 286, Type (0, 1), None
#     Edge 287, Type (0, 1), None
#     Edge 288, Type (0, 1), None
#     Edge 289, Type (0, 1), None
#     Edge 290, Type (0, 1), None
#     Edge 291, Type (0, 1), None
#     Edge 292, Type (0, 1), None
#     Edge 293, Type (0, 1), None
#     Edge 294, Type (0, 1), None
#     Edge 295, Type (0, 1), None
#     Edge 296, Type (0, 1), None
#     Edge 297, Type (0, 1), None
#     Edge 298, Type (0, 1), None
#     Edge 299, Type (0, 1), None
#     Edge 300, Type (0, 1), None
#     Edge 301, Type (0, 1), None
#     Edge 302, Type (0, 1), None
#     Edge 303, Type (0, 1), None
#     Edge 304, Type (0, 1), None
#     Edge 305, Type (0, 1), None
#     Edge 306, Type (0, 1), None
#     Edge 307, Type (0, 1), None
#     Edge 308, Type (0, 1), None
#     Edge 309, Type (0, 1), None
#     Edge 310, Type (0, 1), None
#     Edge 311, Type (0, 1), None
#     Edge 312, Type (0, 1), None
#     Edge 313, Type (0, 1), None
#     Edge 314, Type (0, 1), None
#     Edge 315, Type (0, 1), None
#     Edge 316, Type (0, 1), None
#     Edge 317, Type (0, 1), None
#     Edge 318, Type (0, 1), None
#     Edge 319, Type (0, 1), None
#     Edge 320, Type (0, 1), None
#     Edge 321, Type (0, 1), None
#     Edge 322, Type (0, 1), None
#     Edge 323, Type (0, 1), None
#     Edge 324, Type (0, 1), None
#     Edge 325, Type (0, 1), None
#     Edge 326, Type (0, 1), None
#     Edge 327, Type (0, 1), None
#     Edge 328, Type (0, 1), None
#     Edge 329, Type (0, 1), None
#     Edge 330, Type (0, 1), None
#     Edge 331, Type (0, 1), None
#     Edge 332, Type (0, 1), None
#     Edge 333, Type (0, 1), None
#     Edge 334, Type (0, 1), None
#     Edge 335, Type (0, 1), None
#     Edge 336, Type (0, 1), None
#     Edge 337, Type (0, 1), None
#     Edge 338, Type (0, 1), None
#     Edge 339, Type (0, 1), None
#     Edge 340, Type (0, 1), None
#     Edge 341, Type (0, 1), None
#     Edge 342, Type (0, 1), None
#     Edge 343, Type (0, 1), None
#     Edge 344, Type (0, 1), None
#     Edge 345, Type (0, 1), None
#     Edge 346, Type (0, 1), None
#     Edge 347, Type (0, 1), None
#     Edge 348, Type (0, 1), None
#     Edge 349, Type (0, 1), None
#     Edge 350, Type (0, 1), None
#     Edge 351, Type (0, 1), None
#     Edge 352, Type (0, 1), None
#     Edge 353, Type (0, 1), None
#     Edge 354, Type (0, 1), None
#     Edge 355, Type (0, 1), None
#     Edge 356, Type (0, 1), None
#     Edge 357, Type (0, 1), None
#     Edge 358, Type (0, 1), None
#     Edge 359, Type (0, 1), None
#     Edge 360, Type (0, 1), None
#     Edge 361, Type (0, 1), None
#     Edge 362, Type (0, 1), None
#     Edge 363, Type (0, 1), None
#     Edge 364, Type (0, 1), None
#     Edge 365, Type (0, 1), None
#     Edge 366, Type (0, 1), None
#     Edge 367, Type (0, 1), None
#     Edge 368, Type (0, 1), None
#     Edge 369, Type (0, 1), None
#     Edge 370, Type (0, 1), None
#     Edge 371, Type (0, 1), None
#     Edge 372, Type (0, 1), None
#     Edge 373, Type (0, 1), None
#     Edge 374, Type (0, 1), None
#     Edge 375, Type (0, 1), None
#     Edge 376, Type (0, 1), None
#     Edge 377, Type (0, 1), None
#     Edge 378, Type (0, 1), None
#     Edge 379, Type (0, 1), None
#     Edge 380, Type (0, 1), None
#     Edge 381, Type (0, 1), None
#     Edge 382, Type (0, 1), None
#     Edge 383, Type (0, 1), None
#     Edge 384, Type (0, 1), None
#     Edge 385, Type (0, 1), None
#     Edge 386, Type (0, 1), None
#     Edge 387, Type (0, 1), None
#     Edge 388, Type (0, 1), None
#     Edge 389, Type (0, 1), None
#     Edge 390, Type (0, 1), None
#     Edge 391, Type (0, 1), None
#     Edge 392, Type (0, 1), None
#     Edge 393, Type (0, 1), None
#     Edge 394, Type (0, 1), None
#     Edge 395, Type (0, 1), None
#     Edge 396, Type (0, 1), None
#     Edge 397, Type (0, 1), None
#     Edge 398, Type (0, 1), None
#     Edge 399, Type (0, 1), None
#     Edge 400, Type (0, 1), None
#     Edge 401, Type (0, 1), None
#     Edge 402, Type (0, 1), None
#     Edge 403, Type (0, 1), None
#     Edge 404, Type (0, 1), None
#     Edge 405, Type (0, 1), None
#     Edge 406, Type (0, 1), None
#     Edge 407, Type (0, 1), None
#     Edge 408, Type (0, 1), None
#     Edge 409, Type (0, 1), None
#     Edge 410, Type (0, 1), None
#     Edge 411, Type (0, 1), None
#     Edge 412, Type (0, 1), None
#     Edge 413, Type (0, 1), None
#     Edge 414, Type (0, 1), None
#     Edge 415, Type (0, 1), None
#     Edge 416, Type (0, 1), None
#     Edge 417, Type (0, 1), None
#     Edge 418, Type (0, 1), None
#     Edge 419, Type (0, 1), None
#     Edge 420, Type (0, 1), None
#     Edge 421, Type (0, 1), None
#     Edge 422, Type (0, 1), None
#     Edge 423, Type (0, 1), None
#     Edge 424, Type (0, 1), None
#     Edge 425, Type (0, 1), None
#     Edge 426, Type (0, 1), None
#     Edge 427, Type (0, 1), None
#     Edge 428, Type (0, 1), None
#     Edge 429, Type (0, 1), None
#     Edge 430, Type (0, 1), None
#     Edge 431, Type (0, 1), None
#     Edge 432, Type (0, 1), None
#     Edge 433, Type (0, 1), None
#     Edge 434, Type (0, 1), None
#     Edge 435, Type (0, 1), None
#     Edge 436, Type (0, 1), None
#     Edge 437, Type (0, 1), None
#     Edge 438, Type (0, 1), None
#     Edge 439, Type (0, 1), None
#     Edge 440, Type (0, 1), None
#     Edge 441, Type (0, 1), None
#     Edge 442, Type (0, 1), None
#     Edge 443, Type (0, 1), None
#     Edge 444, Type (0, 1), None
#     Edge 445, Type (0, 1), None
#     Edge 446, Type (0, 1), None
#     Edge 447, Type (0, 1), None
#     Edge 448, Type (0, 1), None
#     Edge 449, Type (0, 1), None
#     Edge 450, Type (0, 1), None
#     Edge 451, Type (0, 1), None
#     Edge 452, Type (0, 1), None
#     Edge 453, Type (0, 1), None
#     Edge 454, Type (0, 1), None
#     Edge 455, Type (0, 1), None
#     Edge 456, Type (0, 1), None
#     Edge 457, Type (0, 1), None
#     Edge 458, Type (0, 1), None
#     Edge 459, Type (0, 1), None
#     Edge 460, Type (0, 1), None
#     Edge 461, Type (0, 1), None
#     Edge 462, Type (0, 1), None
#     Edge 463, Type (0, 1), None
#     Edge 464, Type (0, 1), None
#     Edge 465, Type (0, 1), None
#     Edge 466, Type (0, 1), None
#     Edge 467, Type (0, 1), None
#     Edge 468, Type (0, 1), None
#     Edge 469, Type (0, 1), None
#     Edge 470, Type (0, 1), None
#     Edge 471, Type (0, 1), None
#     Edge 472, Type (0, 1), None
#     Edge 473, Type (0, 1), None
#     Edge 474, Type (0, 1), None
#     Edge 475, Type (0, 1), None
#     Edge 476, Type (0, 1), None
#     Edge 477, Type (0, 1), None
#     Edge 478, Type (0, 1), None
#     Edge 479, Type (0, 1), None
# Relax obj value: 0.002
# Max RMSD: 0.025
# Mean RMSD: 0.022
data_MOF--net-ana-f--node1-OLANEW_clean_sbu_2--node2-PAMTOO_clean_linker_0--edge1-none
_symmetry_space_group_name_H-M    P1
_symmetry_Int_Tables_number       1
_symmetry_cell_setting            triclinic
loop_
_symmetry_equiv_pos_as_xyz
'x, y, z'
_cell_length_a     70.694675
_cell_length_b     70.695086
_cell_length_c     70.694496
_cell_angle_alpha  89.995131
_cell_angle_beta   89.994788
_cell_angle_gamma 89.990928
loop_
_atom_site_label
_atom_site_type_symbol
_atom_site_fract_x
_atom_site_fract_y
_atom_site_fract_z
_atom_type_partial_charge
O0 O 0.04441 0.20425 0.40542 0.0
Cd1 Cd 0.01739 0.19061 0.42214 0.0
O2 O 0.06236 0.18339 0.41946 0.0
Cd3 Cd 0.08719 0.16681 0.42803 0.0
O4 O 0.11534 0.15787 0.43717 0.0
C5 C 0.11806 0.14539 0.44983 0.0
O6 O 0.1034 0.13704 0.45763 0.0
C7 C 0.06079 0.19732 0.40808 0.0
C8 C 0.00096 0.16144 0.40148 0.0
O9 O 0.99531 0.17854 0.39947 0.0
O10 O 0.01434 0.15804 0.41322 0.0
O11 O 0.044 0.79423 0.65412 0.0
Cd12 Cd 0.05678 0.76704 0.67122 0.0
O13 O 0.06341 0.81203 0.67019 0.0
Cd14 Cd 0.07918 0.83636 0.68135 0.0
O15 O 0.08789 0.86464 0.69024 0.0
C16 C 0.10086 0.86749 0.70236 0.0
O17 O 0.10967 0.85292 0.70981 0.0
C18 C 0.0505 0.81062 0.65764 0.0
C19 C 0.08697 0.75104 0.65173 0.0
O20 O 0.07002 0.74532 0.64887 0.0
O21 O 0.08975 0.76426 0.66382 0.0
O22 O 0.45535 0.79456 0.90974 0.0
Cd23 Cd 0.4821 0.81011 0.92519 0.0
O24 O 0.43708 0.81735 0.92003 0.0
Cd25 Cd 0.4109 0.83359 0.92414 0.0
O26 O 0.38234 0.84208 0.93252 0.0
C27 C 0.37962 0.85462 0.94511 0.0
O28 O 0.39431 0.86311 0.95269 0.0
C29 C 0.43896 0.80182 0.91106 0.0
C30 C 0.49793 0.83837 0.90289 0.0
O31 O 0.50392 0.82129 0.90185 0.0
O32 O 0.48442 0.84215 0.91436 0.0
O33 O 0.45454 0.20434 0.15643 0.0
Cd34 Cd 0.44055 0.23132 0.17292 0.0
O35 O 0.43294 0.18642 0.16939 0.0
Cd36 Cd 0.41612 0.16131 0.17659 0.0
O37 O 0.40701 0.13317 0.18563 0.0
C38 C 0.39442 0.13057 0.19821 0.0
O39 O 0.38609 0.14531 0.20587 0.0
C40 C 0.44736 0.18801 0.15865 0.0
C41 C 0.41153 0.24766 0.15197 0.0
O42 O 0.42864 0.25337 0.15013 0.0
O43 O 0.40806 0.23426 0.16366 0.0
O44 O 0.04388 0.79462 0.08995 0.0
Cd45 Cd 0.01692 0.80974 0.07444 0.0
O46 O 0.06191 0.81736 0.07915 0.0
Cd47 Cd 0.08787 0.83382 0.07448 0.0
O48 O 0.1163 0.84249 0.06578 0.0
C49 C 0.11887 0.85508 0.0532 0.0
O50 O 0.10409 0.86354 0.04575 0.0
C51 C 0.0602 0.80198 0.08842 0.0
C52 C 0.00137 0.83842 0.09638 0.0
O53 O 0.99539 0.82138 0.09783 0.0
O54 O 0.01471 0.84198 0.08465 0.0
O55 O 0.45195 0.79368 0.34534 0.0
Cd56 Cd 0.44016 0.76664 0.32739 0.0
O57 O 0.4361 0.81189 0.32612 0.0
Cd58 Cd 0.42428 0.8367 0.31166 0.0
O59 O 0.41489 0.86495 0.30345 0.0
C60 C 0.40042 0.86782 0.29318 0.0
O61 O 0.39068 0.85326 0.28697 0.0
C62 C 0.44691 0.81024 0.34049 0.0
C63 C 0.41033 0.74962 0.34646 0.0
O64 O 0.4274 0.74421 0.34925 0.0
O65 O 0.40729 0.76309 0.33473 0.0
O66 O 0.45465 0.20423 0.59244 0.0
Cd67 Cd 0.48152 0.19069 0.57538 0.0
O68 O 0.43656 0.1838 0.57801 0.0
Cd69 Cd 0.4118 0.16745 0.56885 0.0
O70 O 0.38353 0.15872 0.55993 0.0
C71 C 0.38064 0.14623 0.54732 0.0
O72 O 0.39519 0.13778 0.53942 0.0
C73 C 0.43823 0.19747 0.58968 0.0
C74 C 0.49759 0.16084 0.59535 0.0
O75 O 0.50347 0.17781 0.59774 0.0
O76 O 0.48417 0.15788 0.58355 0.0
O77 O 0.04568 0.20474 0.84477 0.0
Cd78 Cd 0.05812 0.23177 0.82719 0.0
O79 O 0.06323 0.18661 0.82703 0.0
Cd80 Cd 0.07706 0.16214 0.8138 0.0
O81 O 0.0858 0.13372 0.80545 0.0
C82 C 0.09954 0.13064 0.79428 0.0
O83 O 0.10901 0.14506 0.78737 0.0
C84 C 0.05136 0.18822 0.84055 0.0
C85 C 0.08809 0.24822 0.84656 0.0
O86 O 0.07109 0.25387 0.84927 0.0
O87 O 0.09102 0.23489 0.83464 0.0
O88 O 0.40305 0.04402 0.20268 0.0
Cd89 Cd 0.42098 0.01687 0.19107 0.0
O90 O 0.42192 0.06208 0.18627 0.0
Cd91 Cd 0.43612 0.08665 0.17365 0.0
O92 O 0.44439 0.11492 0.16437 0.0
C93 C 0.45499 0.11781 0.15014 0.0
O94 O 0.46146 0.10326 0.14056 0.0
C95 C 0.40771 0.06053 0.19732 0.0
C96 C 0.40205 0.00011 0.16101 0.0
O97 O 0.39908 0.99464 0.17803 0.0
O98 O 0.41406 0.01336 0.1581 0.0
O99 O 0.2047 0.15376 0.45313 0.0
Cd100 Cd 0.23178 0.17121 0.4406 0.0
O101 O 0.18672 0.17097 0.43491 0.0
Cd102 Cd 0.16238 0.18361 0.42031 0.0
O103 O 0.134 0.19206 0.41153 0.0
C104 C 0.13101 0.20352 0.398 0.0
O105 O 0.1455 0.21062 0.38877 0.0
C106 C 0.18823 0.15776 0.44714 0.0
C107 C 0.24838 0.15181 0.4107 0.0
O108 O 0.25393 0.14909 0.42774 0.0
O109 O 0.23491 0.16357 0.40773 0.0
O110 O 0.09313 0.95412 0.70437 0.0
Cd111 Cd 0.07638 0.98127 0.69106 0.0
O112 O 0.07831 0.93631 0.68397 0.0
Cd113 Cd 0.06873 0.91174 0.66756 0.0
O114 O 0.05959 0.88358 0.65872 0.0
C115 C 0.04715 0.88086 0.64603 0.0
O116 O 0.03957 0.89551 0.63746 0.0
C117 C 0.09012 0.93776 0.69755 0.0
C118 C 0.09659 0.99726 0.66134 0.0
O119 O 0.09904 0.003 0.67835 0.0
O120 O 0.0846 0.98403 0.65828 0.0
O121 O 0.29337 0.84553 0.94891 0.0
Cd122 Cd 0.26652 0.82705 0.93746 0.0
O123 O 0.31207 0.82387 0.93723 0.0
Cd124 Cd 0.33818 0.80861 0.93047 0.0
O125 O 0.36649 0.80052 0.92123 0.0
C126 C 0.36912 0.79024 0.90673 0.0
O127 O 0.35439 0.78383 0.89738 0.0
C128 C 0.31006 0.8396 0.94582 0.0
C129 C 0.24861 0.84594 0.90802 0.0
O130 O 0.24342 0.84851 0.92519 0.0
O131 O 0.26227 0.83451 0.90469 0.0
O132 O 0.40644 0.95432 0.29404 0.0
Cd133 Cd 0.4229 0.98126 0.30812 0.0
O134 O 0.41928 0.93633 0.31567 0.0
Cd135 Cd 0.42625 0.91107 0.3324 0.0
O136 O 0.43524 0.88288 0.34145 0.0
C137 C 0.44795 0.88024 0.3539 0.0
O138 O 0.45576 0.89497 0.36212 0.0
C139 C 0.40862 0.93797 0.30119 0.0
C140 C 0.40208 0.99732 0.33738 0.0
O141 O 0.40011 0.00314 0.32034 0.0
O142 O 0.41383 0.98393 0.34068 0.0
O143 O 0.29399 0.15462 0.54518 0.0
Cd144 Cd 0.26697 0.17176 0.55826 0.0
O145 O 0.31209 0.17085 0.56416 0.0
Cd146 Cd 0.33659 0.18236 0.57942 0.0
O147 O 0.36501 0.19103 0.58788 0.0
C148 C 0.36809 0.20302 0.60091 0.0
O149 O 0.35366 0.21051 0.60993 0.0
C150 C 0.31048 0.1582 0.55137 0.0
C151 C 0.25053 0.15166 0.58781 0.0
O152 O 0.24488 0.14935 0.57075 0.0
O153 O 0.26389 0.16348 0.591 0.0
O154 O 0.09181 0.04412 0.79395 0.0
Cd155 Cd 0.07504 0.01721 0.80773 0.0
O156 O 0.07827 0.06215 0.81507 0.0
Cd157 Cd 0.07032 0.08713 0.83176 0.0
O158 O 0.06137 0.11532 0.84077 0.0
C159 C 0.04867 0.11809 0.85319 0.0
O160 O 0.04073 0.10345 0.86145 0.0
C161 C 0.08943 0.06049 0.80098 0.0
C162 C 0.09561 0.00104 0.83709 0.0
O163 O 0.09767 0.99524 0.82005 0.0
O164 O 0.08385 0.01444 0.84035 0.0
O165 O 0.20515 0.84615 0.04847 0.0
Cd166 Cd 0.23209 0.82765 0.05969 0.0
O167 O 0.18665 0.82475 0.06088 0.0
Cd168 Cd 0.16081 0.80946 0.06857 0.0
O169 O 0.13266 0.80129 0.07817 0.0
C170 C 0.13016 0.79118 0.09282 0.0
O171 O 0.14498 0.78501 0.1022 0.0
C172 C 0.18851 0.84034 0.052 0.0
C173 C 0.24939 0.84585 0.0899 0.0
O174 O 0.25479 0.84896 0.07288 0.0
O175 O 0.23582 0.83419 0.09271 0.0
O176 O 0.20321 0.4031 0.04418 0.0
Cd177 Cd 0.19149 0.42093 0.01701 0.0
O178 O 0.18616 0.42154 0.0621 0.0
Cd179 Cd 0.17274 0.43539 0.08645 0.0
O180 O 0.16345 0.44375 0.1147 0.0
C181 C 0.14937 0.45456 0.11754 0.0
O182 O 0.13992 0.46116 0.10296 0.0
C183 C 0.19755 0.40759 0.06064 0.0
C184 C 0.16148 0.40205 8e-05 0.0
O185 O 0.17853 0.39907 0.9947 0.0
O186 O 0.15855 0.41386 0.01351 0.0
O187 O 0.70431 0.09133 0.95477 0.0
Cd188 Cd 0.69002 0.07519 0.9818 0.0
O189 O 0.68221 0.07913 0.9369 0.0
Cd190 Cd 0.66538 0.07288 0.91152 0.0
O191 O 0.65626 0.06392 0.88333 0.0
C192 C 0.64363 0.05137 0.88081 0.0
O193 O 0.63529 0.04383 0.89561 0.0
C194 C 0.697 0.08935 0.93847 0.0
C195 C 0.66068 0.09618 0.99749 0.0
O196 O 0.6777 0.0982 0.00339 0.0
O197 O 0.65745 0.08431 0.98419 0.0
O198 O 0.15563 0.45466 0.20413 0.0
Cd199 Cd 0.17209 0.44084 0.23121 0.0
O200 O 0.16901 0.43324 0.18631 0.0
Cd201 Cd 0.17672 0.41642 0.16135 0.0
O202 O 0.18595 0.40725 0.1333 0.0
C203 C 0.1985 0.39462 0.13075 0.0
O204 O 0.20607 0.38625 0.14552 0.0
C205 C 0.15806 0.44752 0.18781 0.0
C206 C 0.15149 0.41136 0.24715 0.0
O207 O 0.14928 0.42839 0.25294 0.0
O208 O 0.16338 0.40818 0.23386 0.0
O209 O 0.79377 0.90714 0.45457 0.0
Cd210 Cd 0.80826 0.92317 0.48157 0.0
O211 O 0.81617 0.91881 0.43669 0.0
Cd212 Cd 0.83294 0.92441 0.41111 0.0
O213 O 0.84195 0.9333 0.38285 0.0
C214 C 0.85459 0.94584 0.38035 0.0
O215 O 0.86296 0.95331 0.39517 0.0
C216 C 0.80115 0.90894 0.43828 0.0
C217 C 0.8376 0.90215 0.49719 0.0
O218 O 0.8206 0.90016 0.50313 0.0
O219 O 0.84082 0.91399 0.48386 0.0
O220 O 0.8434 0.04412 0.20457 0.0
Cd221 Cd 0.82622 0.05741 0.23148 0.0
O222 O 0.82831 0.0641 0.18653 0.0
Cd223 Cd 0.81827 0.08019 0.16192 0.0
O224 O 0.80936 0.08883 0.13362 0.0
C225 C 0.79692 0.10148 0.1307 0.0
O226 O 0.78916 0.1101 0.14522 0.0
C227 C 0.84036 0.05074 0.18814 0.0
C228 C 0.846 0.08718 0.24791 0.0
O229 O 0.84845 0.07016 0.25361 0.0
O230 O 0.83438 0.0902 0.23433 0.0
O231 O 0.29484 0.58943 0.54342 0.0
Cd232 Cd 0.31031 0.57399 0.51661 0.0
O233 O 0.31757 0.57897 0.56168 0.0
Cd234 Cd 0.33378 0.57468 0.58785 0.0
O235 O 0.34221 0.56622 0.61642 0.0
C236 C 0.35467 0.55354 0.61914 0.0
O237 O 0.36312 0.54591 0.60444 0.0
C238 C 0.30208 0.58802 0.55982 0.0
C239 C 0.3389 0.59604 0.50101 0.0
O240 O 0.32186 0.59735 0.49498 0.0
O241 O 0.34248 0.58443 0.51446 0.0
O242 O 0.15592 0.54401 0.29417 0.0
Cd243 Cd 0.1726 0.55768 0.26714 0.0
O244 O 0.16975 0.56502 0.3121 0.0
Cd245 Cd 0.17809 0.58167 0.33695 0.0
O246 O 0.18721 0.59067 0.36508 0.0
C247 C 0.19983 0.6032 0.36777 0.0
O248 O 0.20759 0.61156 0.35309 0.0
C249 C 0.1585 0.55099 0.31053 0.0
C250 C 0.15199 0.58692 0.25074 0.0
O251 O 0.14994 0.56983 0.24508 0.0
O252 O 0.16374 0.59028 0.26412 0.0
O253 O 0.3454 0.44976 0.79276 0.0
Cd254 Cd 0.32699 0.43825 0.76588 0.0
O255 O 0.32419 0.43713 0.81132 0.0
Cd256 Cd 0.30899 0.4293 0.83718 0.0
O257 O 0.30091 0.41977 0.86538 0.0
C258 C 0.29097 0.40501 0.86795 0.0
O259 O 0.28493 0.39548 0.85319 0.0
C260 C 0.33966 0.44621 0.80941 0.0
C261 C 0.34528 0.40784 0.74901 0.0
O262 O 0.34841 0.42479 0.74343 0.0
O263 O 0.33355 0.40519 0.76257 0.0
O264 O 0.93742 0.7887 0.5786 0.0
Cd265 Cd 0.96263 0.80821 0.56525 0.0
O266 O 0.91761 0.79647 0.55584 0.0
Cd267 Cd 0.9324 0.81718 0.53827 0.0
O268 O 0.90987 0.83386 0.52494 0.0
C269 C 0.8957 0.82361 0.52075 0.0
O270 O 0.89726 0.80517 0.5225 0.0
C271 C 0.92125 0.78731 0.57087 0.0
C272 C 0.98206 0.82709 0.59383 0.0
O273 O 0.96765 0.83465 0.58585 0.0
O274 O 0.98731 0.81061 0.5884 0.0
O275 O 0.9603 0.18757 0.32859 0.0
Cd276 Cd 0.94096 0.21299 0.31536 0.0
O277 O 0.95146 0.16752 0.30644 0.0
Cd278 Cd 0.93082 0.18241 0.28887 0.0
O279 O 0.9141 0.15992 0.27553 0.0
C280 C 0.92435 0.14575 0.27131 0.0
O281 O 0.94279 0.1473 0.27303 0.0
C282 C 0.96109 0.17123 0.32116 0.0
C283 C 0.92213 0.23216 0.34415 0.0
O284 O 0.91453 0.21788 0.33599 0.0
O285 O 0.93861 0.23744 0.33877 0.0
O286 O 0.56108 0.2104 0.07899 0.0
Cd287 Cd 0.53537 0.19123 0.06606 0.0
O288 O 0.58102 0.2014 0.05678 0.0
Cd289 Cd 0.56605 0.18085 0.03918 0.0
O290 O 0.58855 0.16431 0.0256 0.0
C291 C 0.60267 0.17463 0.02139 0.0
O292 O 0.60108 0.19305 0.02327 0.0
C293 C 0.5774 0.21109 0.07149 0.0
C294 C 0.51644 0.17264 0.09517 0.0
O295 O 0.53047 0.16485 0.08676 0.0
O296 O 0.51119 0.18913 0.08979 0.0
O297 O 0.54242 0.81233 0.83144 0.0
Cd298 Cd 0.56297 0.78776 0.81843 0.0
O299 O 0.54695 0.83073 0.80671 0.0
Cd300 Cd 0.56829 0.8162 0.78969 0.0
O301 O 0.58455 0.83883 0.77602 0.0
C302 C 0.57403 0.85272 0.77153 0.0
O303 O 0.55562 0.85084 0.77322 0.0
C304 C 0.5391 0.82761 0.82258 0.0
C305 C 0.58006 0.76668 0.84701 0.0
O306 O 0.58809 0.78151 0.84039 0.0
O307 O 0.5639 0.76188 0.84034 0.0
O308 O 0.93622 0.20966 0.91852 0.0
Cd309 Cd 0.96175 0.19033 0.93154 0.0
O310 O 0.91686 0.2018 0.94163 0.0
Cd311 Cd 0.93203 0.18115 0.95895 0.0
O312 O 0.90964 0.16447 0.97252 0.0
C313 C 0.8955 0.17471 0.97684 0.0
O314 O 0.897 0.19315 0.97506 0.0
C315 C 0.92018 0.21097 0.92654 0.0
C316 C 0.98129 0.17195 0.9027 0.0
O317 O 0.96711 0.16407 0.91078 0.0
O318 O 0.98633 0.18845 0.90825 0.0
O319 O 0.54148 0.18584 0.66588 0.0
Cd320 Cd 0.56156 0.21061 0.67923 0.0
O321 O 0.54621 0.16751 0.69061 0.0
Cd322 Cd 0.56721 0.18243 0.70769 0.0
O323 O 0.58364 0.15987 0.72123 0.0
C324 C 0.57328 0.14579 0.72549 0.0
O325 O 0.55486 0.14742 0.72368 0.0
C326 C 0.53838 0.1705 0.67471 0.0
C327 C 0.57922 0.23166 0.65099 0.0
O328 O 0.58718 0.2169 0.65788 0.0
O329 O 0.56288 0.23639 0.65725 0.0
O330 O 0.56195 0.78835 0.41735 0.0
Cd331 Cd 0.53664 0.80793 0.43043 0.0
O332 O 0.58075 0.795 0.44127 0.0
Cd333 Cd 0.56545 0.81588 0.45816 0.0
O334 O 0.58782 0.83287 0.47134 0.0
C335 C 0.60206 0.82279 0.47572 0.0
O336 O 0.60069 0.80431 0.47423 0.0
C337 C 0.57767 0.78634 0.42583 0.0
C338 C 0.51718 0.82679 0.40185 0.0
O339 O 0.53148 0.83445 0.40992 0.0
O340 O 0.51202 0.81028 0.40724 0.0
O341 O 0.96059 0.81042 0.16849 0.0
Cd342 Cd 0.94108 0.78465 0.18085 0.0
O343 O 0.95189 0.82989 0.19121 0.0
Cd344 Cd 0.93103 0.81471 0.20824 0.0
O345 O 0.91433 0.83721 0.2216 0.0
C346 C 0.92459 0.85132 0.22601 0.0
O347 O 0.94304 0.84973 0.22446 0.0
C348 C 0.96152 0.82653 0.17641 0.0
C349 C 0.92251 0.76645 0.15128 0.0
O350 O 0.91479 0.78039 0.1599 0.0
O351 O 0.9389 0.76092 0.15667 0.0
O352 O 0.57988 0.93658 0.79035 0.0
Cd353 Cd 0.56671 0.96154 0.81031 0.0
O354 O 0.55594 0.91747 0.79606 0.0
Cd355 Cd 0.5385 0.9321 0.817 0.0
O356 O 0.52527 0.90955 0.83374 0.0
C357 C 0.52108 0.89535 0.82352 0.0
O358 O 0.52277 0.89687 0.80508 0.0
C359 C 0.57153 0.92088 0.78778 0.0
C360 C 0.59532 0.9815 0.82864 0.0
O361 O 0.58779 0.96694 0.83635 0.0
O362 O 0.58948 0.9866 0.81225 0.0
O363 O 0.81231 0.83106 0.54107 0.0
Cd364 Cd 0.7875 0.81813 0.56137 0.0
O365 O 0.83103 0.8067 0.54635 0.0
Cd366 Cd 0.81643 0.78954 0.56752 0.0
O367 O 0.83905 0.77584 0.58379 0.0
C368 C 0.85298 0.77143 0.57331 0.0
O369 O 0.85116 0.77321 0.5549 0.0
C370 C 0.8278 0.82239 0.53819 0.0
C371 C 0.76703 0.84693 0.57884 0.0
O372 O 0.78161 0.83975 0.58687 0.0
O373 O 0.76208 0.84056 0.56261 0.0
O374 O 0.91735 0.062 0.2906 0.0
Cd375 Cd 0.93047 0.03708 0.31065 0.0
O376 O 0.94125 0.08104 0.2967 0.0
Cd377 Cd 0.9585 0.06633 0.31773 0.0
O378 O 0.97219 0.08889 0.33408 0.0
C379 C 0.97656 0.10285 0.32361 0.0
O380 O 0.97475 0.10106 0.3052 0.0
C381 C 0.92576 0.0777 0.28821 0.0
C382 C 0.90194 0.01676 0.32871 0.0
O383 O 0.90925 0.03139 0.33652 0.0
O384 O 0.90794 0.01179 0.31235 0.0
O385 O 0.68723 0.16864 0.03817 0.0
Cd386 Cd 0.71266 0.1818 0.05753 0.0
O387 O 0.66745 0.19117 0.04665 0.0
Cd388 Cd 0.68244 0.20862 0.06731 0.0
O389 O 0.65993 0.22219 0.08382 0.0
C390 C 0.64584 0.22644 0.07347 0.0
O391 O 0.64748 0.22461 0.05504 0.0
C392 C 0.67101 0.17631 0.03718 0.0
C393 C 0.73202 0.15298 0.07612 0.0
O394 O 0.71782 0.16113 0.08389 0.0
O395 O 0.7372 0.15846 0.05964 0.0
O396 O 0.57922 0.06108 0.70956 0.0
Cd397 Cd 0.56692 0.03508 0.69035 0.0
O398 O 0.55659 0.08072 0.70097 0.0
Cd399 Cd 0.53911 0.06574 0.68033 0.0
O400 O 0.52579 0.08821 0.66352 0.0
C401 C 0.52157 0.10243 0.67369 0.0
O402 O 0.52328 0.10098 0.69214 0.0
C403 C 0.57145 0.07726 0.71048 0.0
C404 C 0.5967 0.01653 0.6724 0.0
O405 O 0.58818 0.03037 0.66437 0.0
O406 O 0.59108 0.01125 0.6888 0.0
O407 O 0.68675 0.82939 0.45979 0.0
Cd408 Cd 0.71287 0.81672 0.44093 0.0
O409 O 0.66736 0.80638 0.45161 0.0
Cd410 Cd 0.68259 0.78867 0.43136 0.0
O411 O 0.66025 0.77486 0.41479 0.0
C412 C 0.64604 0.77068 0.425 0.0
O413 O 0.64744 0.77272 0.44342 0.0
C414 C 0.67064 0.82147 0.46082 0.0
C415 C 0.73173 0.84597 0.42243 0.0
O416 O 0.71778 0.83747 0.41458 0.0
O417 O 0.73688 0.84067 0.43897 0.0
O418 O 0.9189 0.93607 0.2102 0.0
Cd419 Cd 0.93227 0.96184 0.1914 0.0
O420 O 0.94182 0.91651 0.20225 0.0
Cd421 Cd 0.95971 0.93164 0.18209 0.0
O422 O 0.97336 0.90919 0.16554 0.0
C423 C 0.9773 0.8949 0.17574 0.0
O424 O 0.97516 0.89627 0.19415 0.0
C425 C 0.92668 0.91991 0.21133 0.0
C426 C 0.90376 0.9815 0.17261 0.0
O427 O 0.91193 0.96732 0.16484 0.0
O428 O 0.90898 0.98645 0.18924 0.0
O429 O 0.81075 0.1686 0.96099 0.0
Cd430 Cd 0.78489 0.18147 0.94194 0.0
O431 O 0.83042 0.19112 0.95221 0.0
Cd432 Cd 0.8152 0.20861 0.93175 0.0
O433 O 0.83757 0.22217 0.91505 0.0
C434 C 0.85176 0.22642 0.92525 0.0
O435 O 0.8503 0.2246 0.94369 0.0
C436 C 0.82698 0.17628 0.96176 0.0
C437 C 0.76623 0.15238 0.92305 0.0
O438 O 0.78018 0.161 0.91535 0.0
O439 O 0.76092 0.15754 0.93959 0.0
O440 O 0.79124 0.58045 0.93638 0.0
Cd441 Cd 0.81154 0.5674 0.96114 0.0
O442 O 0.7964 0.55607 0.91768 0.0
Cd443 Cd 0.81768 0.53905 0.93231 0.0
O444 O 0.8345 0.52588 0.9098 0.0
C445 C 0.82427 0.52146 0.89568 0.0
O446 O 0.80581 0.52294 0.89728 0.0
C447 C 0.7883 0.57179 0.92091 0.0
C448 C 0.82927 0.59599 0.98166 0.0
O449 O 0.83713 0.58891 0.96694 0.0
O450 O 0.81299 0.58976 0.98661 0.0
O451 O 0.292 0.91562 0.064 0.0
Cd452 Cd 0.31178 0.9284 0.03868 0.0
O453 O 0.29673 0.94078 0.08175 0.0
Cd454 Cd 0.31766 0.95754 0.06639 0.0
O455 O 0.33423 0.97138 0.08868 0.0
C456 C 0.32394 0.97597 0.1027 0.0
O457 O 0.3055 0.97426 0.10115 0.0
C458 C 0.28894 0.92479 0.07916 0.0
C459 C 0.3285 0.89963 0.01756 0.0
O460 O 0.33695 0.90662 0.03199 0.0
O461 O 0.31219 0.90615 0.01308 0.0
O462 O 0.83156 0.54221 0.81247 0.0
Cd463 Cd 0.81842 0.56254 0.7878 0.0
O464 O 0.80684 0.54662 0.83093 0.0
Cd465 Cd 0.78956 0.5677 0.81634 0.0
O466 O 0.77583 0.584 0.83891 0.0
C467 C 0.77147 0.57356 0.85289 0.0
O468 O 0.77332 0.55515 0.85114 0.0
C469 C 0.82277 0.53889 0.8278 0.0
C470 C 0.84695 0.57961 0.76664 0.0
O471 O 0.84028 0.5877 0.78142 0.0
O472 O 0.84033 0.56341 0.76193 0.0
O473 O 0.20957 0.07954 0.56167 0.0
Cd474 Cd 0.19017 0.06639 0.53628 0.0
O475 O 0.20146 0.05675 0.58131 0.0
Cd476 Cd 0.1808 0.03933 0.56628 0.0
O477 O 0.16427 0.02567 0.58872 0.0
C478 C 0.17462 0.02134 0.60278 0.0
O479 O 0.19305 0.02316 0.60115 0.0
C480 C 0.21077 0.07173 0.57781 0.0
C481 C 0.17173 0.09518 0.51675 0.0
O482 O 0.16389 0.08715 0.53097 0.0
O483 O 0.1882 0.08961 0.51164 0.0
O484 O 0.16826 0.96152 0.81029 0.0
Cd485 Cd 0.18187 0.94264 0.78472 0.0
O486 O 0.19126 0.95358 0.82972 0.0
Cd487 Cd 0.2086 0.93321 0.8142 0.0
O488 O 0.22153 0.91578 0.83638 0.0
C489 C 0.22574 0.92561 0.85085 0.0
O490 O 0.22428 0.9441 0.84977 0.0
C491 C 0.17612 0.96267 0.8264 0.0
C492 C 0.15378 0.92252 0.76586 0.0
O493 O 0.16238 0.91531 0.78009 0.0
O494 O 0.15835 0.93922 0.76052 0.0
O495 O 0.71158 0.41706 0.43757 0.0
Cd496 Cd 0.69233 0.42924 0.46358 0.0
O497 O 0.70307 0.44018 0.41849 0.0
Cd498 Cd 0.68244 0.4571 0.43412 0.0
O499 O 0.66539 0.47058 0.41196 0.0
C500 C 0.67543 0.4751 0.39773 0.0
O501 O 0.69391 0.47356 0.39903 0.0
C502 C 0.71253 0.42521 0.42158 0.0
C503 C 0.67369 0.39951 0.48144 0.0
O504 O 0.66594 0.40838 0.46766 0.0
O505 O 0.69013 0.40474 0.48696 0.0
O506 O 0.82927 0.46001 0.68559 0.0
Cd507 Cd 0.81647 0.44136 0.71177 0.0
O508 O 0.80611 0.4519 0.66637 0.0
Cd509 Cd 0.78851 0.43177 0.68188 0.0
O510 O 0.7746 0.41504 0.65973 0.0
C511 C 0.77029 0.42518 0.64551 0.0
O512 O 0.77227 0.44361 0.64682 0.0
C513 C 0.82128 0.46104 0.66953 0.0
C514 C 0.84566 0.42345 0.73124 0.0
O515 O 0.83735 0.41526 0.71738 0.0
O516 O 0.84015 0.44003 0.73606 0.0
O517 O 0.66554 0.54087 0.18553 0.0
Cd518 Cd 0.67861 0.56088 0.21051 0.0
O519 O 0.6905 0.54556 0.1675 0.0
Cd520 Cd 0.7073 0.56663 0.18263 0.0
O521 O 0.72075 0.58336 0.16023 0.0
C522 C 0.72516 0.57316 0.14608 0.0
O523 O 0.72353 0.55471 0.14757 0.0
C524 C 0.67455 0.53775 0.17029 0.0
C525 C 0.65009 0.5784 0.23129 0.0
O526 O 0.65724 0.5865 0.21674 0.0
O527 O 0.65634 0.56207 0.23605 0.0
O528 O 0.54401 0.69975 0.90212 0.0
Cd529 Cd 0.51686 0.68885 0.9205 0.0
O530 O 0.56236 0.68764 0.92383 0.0
Cd531 Cd 0.58815 0.68018 0.93931 0.0
O532 O 0.61625 0.67048 0.9476 0.0
C533 C 0.61861 0.65577 0.95766 0.0
O534 O 0.60371 0.64645 0.9637 0.0
C535 C 0.5606 0.69628 0.90809 0.0
C536 C 0.49954 0.65867 0.90227 0.0
O537 O 0.49428 0.67571 0.89903 0.0
O538 O 0.51297 0.65583 0.91409 0.0
O539 O 0.54509 0.29461 0.15396 0.0
Cd540 Cd 0.55769 0.26747 0.17126 0.0
O541 O 0.56364 0.31257 0.17083 0.0
Cd542 Cd 0.57859 0.33692 0.18305 0.0
O543 O 0.58727 0.36529 0.19169 0.0
C544 C 0.60046 0.36828 0.20353 0.0
O545 O 0.60948 0.3538 0.21091 0.0
C546 C 0.5512 0.31106 0.15781 0.0
C547 C 0.58727 0.25079 0.15143 0.0
O548 O 0.57019 0.24529 0.14896 0.0
O549 O 0.59047 0.2641 0.16331 0.0
O550 O 0.95391 0.29392 0.40548 0.0
Cd551 Cd 0.98091 0.3075 0.42228 0.0
O552 O 0.93594 0.31463 0.41969 0.0
Cd553 Cd 0.91112 0.33112 0.42847 0.0
O554 O 0.88293 0.33991 0.43762 0.0
C555 C 0.88016 0.35239 0.45027 0.0
O556 O 0.89478 0.36082 0.45805 0.0
C557 C 0.93753 0.3008 0.40819 0.0
C558 C 0.99734 0.33675 0.40175 0.0
O559 O 0.00301 0.31966 0.39969 0.0
O560 O 0.98395 0.3401 0.41349 0.0
O561 O 0.95421 0.70494 0.65887 0.0
Cd562 Cd 0.93897 0.73197 0.67414 0.0
O563 O 0.93124 0.687 0.66931 0.0
Cd564 Cd 0.91478 0.66098 0.67356 0.0
O565 O 0.90605 0.63253 0.68206 0.0
C566 C 0.89331 0.62999 0.69449 0.0
O567 O 0.88478 0.6448 0.70182 0.0
C568 C 0.94678 0.68864 0.66031 0.0
C569 C 0.91065 0.74777 0.65189 0.0
O570 O 0.92776 0.75362 0.65064 0.0
O571 O 0.90687 0.73442 0.66354 0.0
O572 O 0.54384 0.29904 0.59614 0.0
Cd573 Cd 0.51678 0.30996 0.57763 0.0
O574 O 0.56236 0.31063 0.57429 0.0
Cd575 Cd 0.58837 0.31746 0.55889 0.0
O576 O 0.61658 0.3269 0.55071 0.0
C577 C 0.61904 0.34149 0.5405 0.0
O578 O 0.6042 0.35077 0.53425 0.0
C579 C 0.56047 0.30223 0.59014 0.0
C580 C 0.49889 0.33965 0.59611 0.0
O581 O 0.49382 0.3225 0.59906 0.0
O582 O 0.51242 0.34283 0.58449 0.0
O583 O 0.95198 0.29419 0.84503 0.0
Cd584 Cd 0.93966 0.26717 0.82737 0.0
O585 O 0.93502 0.31241 0.8268 0.0
Cd586 Cd 0.92188 0.337 0.81309 0.0
O587 O 0.91298 0.36539 0.80477 0.0
C588 C 0.89912 0.36846 0.79374 0.0
O589 O 0.88961 0.35404 0.7869 0.0
C590 C 0.94656 0.31075 0.8406 0.0
C591 C 0.9099 0.25049 0.84686 0.0
O592 O 0.92695 0.24492 0.84946 0.0
O593 O 0.90682 0.26383 0.835 0.0
O594 O 0.95457 0.7043 0.09045 0.0
Cd595 Cd 0.98165 0.68951 0.07483 0.0
O596 O 0.93674 0.68159 0.0793 0.0
Cd597 Cd 0.91098 0.66491 0.07429 0.0
O598 O 0.88267 0.65601 0.06548 0.0
C599 C 0.8802 0.64326 0.05305 0.0
O600 O 0.89504 0.63476 0.04576 0.0
C601 C 0.9383 0.69685 0.08879 0.0
C602 C 0.99727 0.66065 0.0965 0.0
O603 O 0.00316 0.6777 0.09816 0.0
O604 O 0.98398 0.65716 0.08468 0.0
O605 O 0.54451 0.70506 0.33983 0.0
Cd606 Cd 0.55976 0.73197 0.32434 0.0
O607 O 0.56728 0.68696 0.32921 0.0
Cd608 Cd 0.58367 0.66092 0.32476 0.0
O609 O 0.59227 0.63244 0.31621 0.0
C610 C 0.6048 0.62981 0.30359 0.0
O611 O 0.61323 0.64456 0.29604 0.0
C612 C 0.55184 0.68872 0.33837 0.0
C613 C 0.58904 0.74696 0.34588 0.0
O614 O 0.5721 0.75314 0.3477 0.0
O615 O 0.59221 0.73366 0.33399 0.0
O616 O 0.90182 0.54373 0.69916 0.0
Cd617 Cd 0.92016 0.51662 0.6881 0.0
O618 O 0.92373 0.56217 0.68756 0.0
Cd619 Cd 0.93925 0.5881 0.6807 0.0
O620 O 0.94753 0.61627 0.6712 0.0
C621 C 0.95774 0.61867 0.6566 0.0
O622 O 0.96394 0.6038 0.64734 0.0
C623 C 0.90789 0.56034 0.69599 0.0
C624 C 0.90145 0.4988 0.65851 0.0
O625 O 0.8986 0.49373 0.67567 0.0
O626 O 0.91309 0.5123 0.65527 0.0
O627 O 0.7049 0.65817 0.95461 0.0
Cd628 Cd 0.73196 0.67366 0.93965 0.0
O629 O 0.68704 0.66888 0.93169 0.0
Cd630 Cd 0.66113 0.67337 0.91513 0.0
O631 O 0.63274 0.68204 0.90632 0.0
C632 C 0.63027 0.69446 0.89356 0.0
O633 O 0.64511 0.7017 0.88502 0.0
C634 C 0.68863 0.65969 0.94713 0.0
C635 C 0.74756 0.65197 0.91078 0.0
O636 O 0.75347 0.65032 0.92783 0.0
O637 O 0.73425 0.66377 0.9073 0.0
O638 O 0.59273 0.45489 0.20441 0.0
Cd639 Cd 0.5759 0.48183 0.19071 0.0
O640 O 0.57867 0.43691 0.18361 0.0
Cd641 Cd 0.56991 0.41215 0.16704 0.0
O642 O 0.56082 0.38399 0.15814 0.0
C643 C 0.54826 0.38124 0.14557 0.0
O644 O 0.54053 0.39588 0.13712 0.0
C645 C 0.59008 0.4385 0.19752 0.0
C646 C 0.59565 0.4972 0.16034 0.0
O647 O 0.59837 0.50328 0.1772 0.0
O648 O 0.58362 0.4839 0.15775 0.0
O649 O 0.79354 0.34381 0.45346 0.0
Cd650 Cd 0.76648 0.3265 0.44071 0.0
O651 O 0.81153 0.32704 0.43484 0.0
Cd652 Cd 0.83589 0.31491 0.41986 0.0
O653 O 0.8643 0.30645 0.41117 0.0
C654 C 0.86732 0.29482 0.3978 0.0
O655 O 0.85285 0.28757 0.38866 0.0
C656 C 0.81 0.34001 0.44732 0.0
C657 C 0.75061 0.34578 0.41034 0.0
O658 O 0.74479 0.34873 0.42725 0.0
O659 O 0.76399 0.33384 0.40772 0.0
O660 O 0.90649 0.45499 0.7941 0.0
Cd661 Cd 0.92332 0.48175 0.8081 0.0
O662 O 0.9197 0.43686 0.81536 0.0
Cd663 Cd 0.92733 0.41179 0.83205 0.0
O664 O 0.93624 0.38358 0.84108 0.0
C665 C 0.94894 0.38082 0.85352 0.0
O666 O 0.95689 0.39546 0.86176 0.0
C667 C 0.90874 0.43859 0.80111 0.0
C668 C 0.90288 0.49826 0.83738 0.0
O669 O 0.90089 0.504 0.82031 0.0
O670 O 0.91431 0.48459 0.84066 0.0
O671 O 0.79389 0.65194 0.04759 0.0
Cd672 Cd 0.76674 0.67034 0.05842 0.0
O673 O 0.81219 0.67317 0.06054 0.0
Cd674 Cd 0.83772 0.68856 0.06905 0.0
O675 O 0.86579 0.69685 0.07882 0.0
C676 C 0.86823 0.70686 0.09355 0.0
O677 O 0.85338 0.71284 0.103 0.0
C678 C 0.81048 0.65766 0.05149 0.0
C679 C 0.74882 0.65173 0.088 0.0
O680 O 0.74381 0.64881 0.07083 0.0
O681 O 0.7623 0.66339 0.09125 0.0
O682 O 0.59598 0.54353 0.29935 0.0
Cd683 Cd 0.57763 0.51651 0.31061 0.0
O684 O 0.57441 0.56208 0.31142 0.0
Cd685 Cd 0.55909 0.58803 0.31867 0.0
O686 O 0.55094 0.61625 0.32811 0.0
C687 C 0.54077 0.61879 0.34272 0.0
O688 O 0.53452 0.60401 0.35209 0.0
C689 C 0.59008 0.56018 0.30268 0.0
C690 C 0.5964 0.4987 0.34017 0.0
O691 O 0.59918 0.49358 0.32301 0.0
O692 O 0.58483 0.51225 0.34342 0.0
O693 O 0.70529 0.33908 0.54431 0.0
Cd694 Cd 0.73227 0.3239 0.55971 0.0
O695 O 0.68725 0.32879 0.56729 0.0
Cd696 Cd 0.66115 0.3247 0.58366 0.0
O697 O 0.63265 0.31624 0.59228 0.0
C698 C 0.63006 0.30382 0.60502 0.0
O699 O 0.64483 0.2965 0.61361 0.0
C700 C 0.68896 0.33771 0.55171 0.0
C701 C 0.74691 0.34568 0.58899 0.0
O702 O 0.75316 0.3475 0.57207 0.0
O703 O 0.73372 0.33366 0.59213 0.0
O704 O 0.70039 0.90225 0.54371 0.0
Cd705 Cd 0.68933 0.9206 0.5166 0.0
O706 O 0.68735 0.92339 0.56207 0.0
Cd707 Cd 0.67885 0.9387 0.58766 0.0
O708 O 0.66916 0.94694 0.61577 0.0
C709 C 0.65442 0.95693 0.61827 0.0
O710 O 0.64491 0.96293 0.60347 0.0
C711 C 0.69652 0.90794 0.56031 0.0
C712 C 0.65984 0.90179 0.49875 0.0
O713 O 0.67702 0.899 0.49369 0.0
O714 O 0.65654 0.91341 0.51225 0.0
O715 O 0.20329 0.59491 0.45442 0.0
Cd716 Cd 0.19092 0.57745 0.48156 0.0
O717 O 0.18541 0.57734 0.43645 0.0
Cd718 Cd 0.17114 0.56433 0.41211 0.0
O719 O 0.1623 0.55589 0.38375 0.0
C720 C 0.14871 0.54451 0.38077 0.0
O721 O 0.13946 0.53746 0.39526 0.0
C722 C 0.19743 0.59075 0.43795 0.0
C723 C 0.1607 0.59668 0.49777 0.0
O724 O 0.17766 0.5996 0.50345 0.0
O725 O 0.15793 0.58463 0.48453 0.0
O726 O 0.65791 0.9543 0.7046 0.0
Cd727 Cd 0.6738 0.93961 0.73158 0.0
O728 O 0.66907 0.93166 0.68669 0.0
Cd729 Cd 0.67407 0.91501 0.6609 0.0
O730 O 0.68282 0.90616 0.63256 0.0
C731 C 0.69536 0.89351 0.63003 0.0
O732 O 0.70277 0.88507 0.64484 0.0
C733 C 0.65952 0.94687 0.68831 0.0
C734 C 0.65223 0.91098 0.74773 0.0
O735 O 0.65072 0.92809 0.7535 0.0
O736 O 0.66385 0.90733 0.73431 0.0
O737 O 0.29429 0.40838 0.95425 0.0
Cd738 Cd 0.30925 0.42416 0.98114 0.0
O739 O 0.31685 0.41944 0.93615 0.0
Cd740 Cd 0.33327 0.4243 0.91019 0.0
O741 O 0.34188 0.43296 0.88173 0.0
C742 C 0.35435 0.44564 0.87908 0.0
O743 O 0.36274 0.45326 0.89381 0.0
C744 C 0.3016 0.40997 0.9379 0.0
C745 C 0.33759 0.40223 0.99737 0.0
O746 O 0.32046 0.401 0.00315 0.0
O747 O 0.34139 0.41373 0.98389 0.0
O748 O 0.34553 0.54978 0.70539 0.0
Cd749 Cd 0.32702 0.56127 0.73222 0.0
O750 O 0.32393 0.56156 0.68669 0.0
Cd751 Cd 0.30872 0.56837 0.66056 0.0
O752 O 0.3007 0.57767 0.63226 0.0
C753 C 0.29045 0.59221 0.62966 0.0
O754 O 0.28406 0.60154 0.64441 0.0
C755 C 0.33963 0.55291 0.6887 0.0
C756 C 0.34532 0.59148 0.74944 0.0
O757 O 0.34835 0.57447 0.75491 0.0
O758 O 0.3337 0.59428 0.73581 0.0
O759 O 0.7949 0.09305 0.04409 0.0
Cd760 Cd 0.80813 0.07599 0.0171 0.0
O761 O 0.81465 0.07766 0.06213 0.0
Cd762 Cd 0.83057 0.06722 0.08669 0.0
O763 O 0.83916 0.05834 0.11502 0.0
C764 C 0.85195 0.04606 0.11798 0.0
O765 O 0.86073 0.03842 0.10349 0.0
C766 C 0.80142 0.08985 0.06053 0.0
C767 C 0.83765 0.09604 0.00056 0.0
O768 O 0.82058 0.09838 0.99496 0.0
O769 O 0.84083 0.0844 0.01408 0.0
O770 O 0.65217 0.04648 0.79434 0.0
Cd771 Cd 0.67032 0.05771 0.76719 0.0
O772 O 0.67223 0.06129 0.81252 0.0
Cd773 Cd 0.68721 0.07199 0.83751 0.0
O774 O 0.69553 0.08162 0.86563 0.0
C775 C 0.70566 0.09623 0.86831 0.0
O776 O 0.71172 0.10588 0.85362 0.0
C777 C 0.65738 0.05116 0.81089 0.0
C778 C 0.65129 0.08732 0.74977 0.0
O779 O 0.64852 0.07019 0.74456 0.0
O780 O 0.66317 0.09055 0.76306 0.0
O781 O 0.84603 0.95089 0.29395 0.0
Cd782 Cd 0.82775 0.93985 0.26681 0.0
O783 O 0.82534 0.93705 0.31222 0.0
Cd784 Cd 0.81012 0.92754 0.33752 0.0
O785 O 0.8018 0.91779 0.36561 0.0
C786 C 0.79183 0.90305 0.36817 0.0
O787 O 0.7859 0.89345 0.35341 0.0
C788 C 0.84054 0.94664 0.31053 0.0
C789 C 0.8463 0.91003 0.2492 0.0
O790 O 0.84932 0.92714 0.24406 0.0
O791 O 0.83458 0.90694 0.26267 0.0
O792 O 0.43726 0.28936 0.07929 0.0
Cd793 Cd 0.46234 0.30906 0.06597 0.0
O794 O 0.41742 0.297 0.0565 0.0
Cd795 Cd 0.43209 0.31776 0.03889 0.0
O796 O 0.40944 0.33412 0.02536 0.0
C797 C 0.39541 0.32368 0.02115 0.0
O798 O 0.39717 0.30527 0.02299 0.0
C799 C 0.42111 0.28786 0.07154 0.0
C800 C 0.48203 0.32759 0.0946 0.0
O801 O 0.46755 0.33525 0.08685 0.0
O802 O 0.48722 0.31118 0.08894 0.0
O803 O 0.46125 0.68655 0.83146 0.0
Cd804 Cd 0.44257 0.71307 0.81945 0.0
O805 O 0.45339 0.66812 0.8076 0.0
Cd806 Cd 0.43314 0.68428 0.79074 0.0
O807 O 0.41553 0.66253 0.77732 0.0
C808 C 0.42519 0.64806 0.77276 0.0
O809 O 0.4437 0.6489 0.77422 0.0
C810 C 0.46241 0.67078 0.82292 0.0
C811 C 0.42426 0.73114 0.84929 0.0
O812 O 0.41624 0.71759 0.84032 0.0
O813 O 0.44082 0.73635 0.8441 0.0
O814 O 0.06095 0.71017 0.58035 0.0
Cd815 Cd 0.03509 0.69067 0.56826 0.0
O816 O 0.08057 0.70133 0.55779 0.0
Cd817 Cd 0.06554 0.68066 0.54041 0.0
O818 O 0.08799 0.66418 0.52668 0.0
C819 C 0.10212 0.67449 0.52247 0.0
O820 O 0.10059 0.69291 0.52444 0.0
C821 C 0.07713 0.711 0.57255 0.0
C822 C 0.01698 0.6727 0.59827 0.0
O823 O 0.03082 0.66476 0.58969 0.0
O824 O 0.01148 0.68901 0.5926 0.0
O825 O 0.03801 0.31074 0.32882 0.0
Cd826 Cd 0.05734 0.28534 0.31553 0.0
O827 O 0.04698 0.33089 0.3068 0.0
Cd828 Cd 0.06757 0.31609 0.28909 0.0
O829 O 0.08397 0.33869 0.27551 0.0
C830 C 0.07356 0.35276 0.27137 0.0
O831 O 0.05515 0.35107 0.27331 0.0
C832 C 0.03729 0.32713 0.32147 0.0
C833 C 0.07622 0.26612 0.34425 0.0
O834 O 0.08381 0.28042 0.3361 0.0
O835 O 0.05974 0.26084 0.33889 0.0
O836 O 0.43691 0.71 0.41847 0.0
Cd837 Cd 0.46291 0.69064 0.43054 0.0
O838 O 0.41748 0.70174 0.44141 0.0
Cd839 Cd 0.4325 0.68112 0.45888 0.0
O840 O 0.41008 0.66467 0.47269 0.0
C841 C 0.39599 0.67499 0.477 0.0
O842 O 0.39756 0.69341 0.47507 0.0
C843 C 0.42084 0.71111 0.42644 0.0
C844 C 0.48139 0.67307 0.40051 0.0
O845 O 0.46756 0.66494 0.40895 0.0
O846 O 0.48669 0.68939 0.40633 0.0
O847 O 0.0387 0.68765 0.16875 0.0
Cd848 Cd 0.05851 0.71331 0.18079 0.0
O849 O 0.04752 0.66782 0.19113 0.0
Cd850 Cd 0.06855 0.68244 0.20843 0.0
O851 O 0.08481 0.65975 0.22205 0.0
C852 C 0.0743 0.64581 0.22638 0.0
O853 O 0.0559 0.64765 0.22457 0.0
C854 C 0.03776 0.67145 0.17647 0.0
C855 C 0.07607 0.73176 0.15074 0.0
O856 O 0.08409 0.71777 0.15902 0.0
O857 O 0.05987 0.73722 0.15672 0.0
O858 O 0.06222 0.28941 0.91803 0.0
Cd859 Cd 0.03682 0.30887 0.93115 0.0
O860 O 0.0815 0.29682 0.94135 0.0
Cd861 Cd 0.0664 0.31748 0.9587 0.0
O862 O 0.0889 0.33406 0.9722 0.0
C863 C 0.10306 0.32379 0.97639 0.0
O864 O 0.10155 0.30536 0.97456 0.0
C865 C 0.07818 0.28784 0.92613 0.0
C866 C 0.01694 0.32719 0.9025 0.0
O867 O 0.03132 0.33502 0.91027 0.0
O868 O 0.01196 0.31071 0.90815 0.0
O869 O 0.46095 0.31214 0.66811 0.0
Cd870 Cd 0.4427 0.28596 0.68143 0.0
O871 O 0.45341 0.33091 0.6918 0.0
Cd872 Cd 0.43346 0.3148 0.70906 0.0
O873 O 0.41577 0.33663 0.72224 0.0
C874 C 0.42538 0.35121 0.72656 0.0
O875 O 0.44389 0.35043 0.72505 0.0
C876 C 0.46218 0.32806 0.67636 0.0
C877 C 0.4234 0.26667 0.65305 0.0
O878 O 0.4157 0.28063 0.66166 0.0
O879 O 0.44019 0.26176 0.65779 0.0
O880 O 0.07892 0.4374 0.28806 0.0
Cd881 Cd 0.06591 0.46285 0.30752 0.0
O882 O 0.05688 0.41731 0.2971 0.0
Cd883 Cd 0.03935 0.43209 0.31785 0.0
O884 O 0.02582 0.40949 0.33428 0.0
C885 C 0.02157 0.39546 0.32385 0.0
O886 O 0.02338 0.39721 0.30544 0.0
C887 C 0.0715 0.42105 0.28733 0.0
C888 C 0.09497 0.48192 0.326 0.0
O889 O 0.08675 0.46776 0.33377 0.0
O890 O 0.08943 0.48722 0.30958 0.0
O891 O 0.31124 0.32945 0.03944 0.0
Cd892 Cd 0.28627 0.31615 0.05929 0.0
O893 O 0.33095 0.30648 0.04684 0.0
Cd894 Cd 0.31629 0.28908 0.06778 0.0
O895 O 0.33894 0.27569 0.08425 0.0
C896 C 0.35297 0.27141 0.07384 0.0
O897 O 0.35121 0.27311 0.05542 0.0
C898 C 0.32731 0.32157 0.03777 0.0
C899 C 0.26657 0.34469 0.07796 0.0
O900 O 0.2811 0.33697 0.08554 0.0
O901 O 0.26135 0.33905 0.06154 0.0
O902 O 0.41498 0.56454 0.79078 0.0
Cd903 Cd 0.42786 0.53876 0.80992 0.0
O904 O 0.44065 0.58168 0.79496 0.0
Cd905 Cd 0.45731 0.56572 0.81553 0.0
O906 O 0.47109 0.58754 0.83275 0.0
C907 C 0.47568 0.60186 0.82287 0.0
O908 O 0.474 0.60084 0.80439 0.0
C909 C 0.4244 0.57951 0.78758 0.0
C910 C 0.39931 0.51797 0.8274 0.0
O911 O 0.40682 0.5322 0.83574 0.0
O912 O 0.4052 0.51355 0.81085 0.0
O913 O 0.18681 0.6681 0.53838 0.0
Cd914 Cd 0.21278 0.68008 0.55781 0.0
O915 O 0.16719 0.69064 0.54728 0.0
Cd916 Cd 0.18219 0.70807 0.56795 0.0
O917 O 0.15973 0.72187 0.58438 0.0
C918 C 0.14563 0.72609 0.57404 0.0
O919 O 0.14719 0.72408 0.55563 0.0
C920 C 0.17063 0.67589 0.53759 0.0
C921 C 0.23124 0.64993 0.57518 0.0
O922 O 0.21742 0.65832 0.58337 0.0
O923 O 0.23655 0.65587 0.55891 0.0
O924 O 0.07896 0.56104 0.21022 0.0
Cd925 Cd 0.06569 0.53551 0.19103 0.0
O926 O 0.0567 0.58111 0.20165 0.0
Cd927 Cd 0.03876 0.56639 0.18123 0.0
O928 O 0.02521 0.58905 0.16489 0.0
C929 C 0.02133 0.60325 0.17523 0.0
O930 O 0.02347 0.60168 0.19363 0.0
C931 C 0.07153 0.57738 0.21111 0.0
C932 C 0.09443 0.51634 0.17209 0.0
O933 O 0.0862 0.53058 0.1645 0.0
O934 O 0.08914 0.51107 0.18861 0.0
O935 O 0.18776 0.33003 0.9604 0.0
Cd936 Cd 0.21362 0.31756 0.94108 0.0
O937 O 0.16813 0.30745 0.95167 0.0
Cd938 Cd 0.18321 0.29002 0.93106 0.0
O939 O 0.16074 0.2765 0.91443 0.0
C940 C 0.14658 0.27228 0.92469 0.0
O941 O 0.14809 0.27409 0.94312 0.0
C942 C 0.17157 0.32227 0.96125 0.0
C943 C 0.23197 0.34709 0.92254 0.0
O944 O 0.21797 0.33854 0.91483 0.0
O945 O 0.23743 0.34168 0.93895 0.0
O946 O 0.4148 0.43441 0.70735 0.0
Cd947 Cd 0.42771 0.45991 0.68786 0.0
O948 O 0.44055 0.41734 0.70342 0.0
Cd949 Cd 0.45696 0.43312 0.68251 0.0
O950 O 0.47057 0.41116 0.66532 0.0
C951 C 0.47534 0.39698 0.6753 0.0
O952 O 0.47391 0.39822 0.69379 0.0
C953 C 0.42429 0.41954 0.71077 0.0
C954 C 0.39918 0.48093 0.67065 0.0
O955 O 0.4064 0.46657 0.6623 0.0
O956 O 0.40534 0.48538 0.6871 0.0
O957 O 0.31161 0.66849 0.45998 0.0
Cd958 Cd 0.28631 0.68183 0.44056 0.0
O959 O 0.33092 0.69178 0.45257 0.0
Cd960 Cd 0.31573 0.70905 0.43192 0.0
O961 O 0.33816 0.72238 0.41513 0.0
C962 C 0.3524 0.72659 0.42529 0.0
O963 O 0.35098 0.72488 0.44374 0.0
C964 C 0.32759 0.67656 0.46153 0.0
C965 C 0.26678 0.65342 0.42154 0.0
O966 O 0.28117 0.66142 0.41399 0.0
O967 O 0.26161 0.65873 0.43808 0.0
O968 O 0.2887 0.0796 0.43664 0.0
Cd969 Cd 0.30808 0.06652 0.4621 0.0
O970 O 0.29678 0.05679 0.417 0.0
Cd971 Cd 0.31744 0.03935 0.43202 0.0
O972 O 0.33404 0.02571 0.40961 0.0
C973 C 0.32372 0.02135 0.39554 0.0
O974 O 0.30529 0.02313 0.39715 0.0
C975 C 0.28749 0.07178 0.4205 0.0
C976 C 0.32636 0.09543 0.4816 0.0
O977 O 0.33425 0.08739 0.46741 0.0
O978 O 0.3099 0.0898 0.4867 0.0
O979 O 0.78674 0.41766 0.56108 0.0
Cd980 Cd 0.8059 0.43097 0.53556 0.0
O981 O 0.79439 0.44109 0.5801 0.0
Cd982 Cd 0.81503 0.45799 0.56448 0.0
O983 O 0.83226 0.47122 0.58663 0.0
C984 C 0.82228 0.47571 0.60091 0.0
O985 O 0.80379 0.47429 0.59964 0.0
C986 C 0.78535 0.42587 0.577 0.0
C987 C 0.82552 0.40263 0.51655 0.0
O988 O 0.83295 0.41112 0.53072 0.0
O989 O 0.80888 0.4075 0.51128 0.0
O990 O 0.32998 0.03885 0.31124 0.0
Cd991 Cd 0.31666 0.05846 0.2861 0.0
O992 O 0.30679 0.04625 0.33068 0.0
Cd993 Cd 0.28951 0.06701 0.31563 0.0
O994 O 0.27606 0.08373 0.33805 0.0
C995 C 0.27171 0.07348 0.35217 0.0
O996 O 0.27339 0.05503 0.35061 0.0
C997 C 0.32197 0.03724 0.32725 0.0
C998 C 0.34511 0.07742 0.26656 0.0
O999 O 0.33719 0.08496 0.28101 0.0
O1000 O 0.33972 0.06092 0.26136 0.0
O1001 O 0.70948 0.57963 0.06139 0.0
Cd1002 Cd 0.69034 0.5674 0.03531 0.0
O1003 O 0.70117 0.55666 0.08077 0.0
Cd1004 Cd 0.68071 0.53917 0.06557 0.0
O1005 O 0.66388 0.52561 0.08787 0.0
C1006 C 0.674 0.52136 0.10212 0.0
O1007 O 0.69244 0.52319 0.10078 0.0
C1008 C 0.71051 0.57167 0.07747 0.0
C1009 C 0.67229 0.5972 0.01691 0.0
O1010 O 0.66434 0.58865 0.03078 0.0
O1011 O 0.68869 0.59165 0.01158 0.0
O1012 O 0.66861 0.46 0.31292 0.0
Cd1013 Cd 0.68174 0.44144 0.28685 0.0
O1014 O 0.69173 0.45179 0.33213 0.0
Cd1015 Cd 0.70928 0.43171 0.31651 0.0
O1016 O 0.72302 0.41482 0.33864 0.0
C1017 C 0.72723 0.42486 0.35296 0.0
O1018 O 0.72527 0.44331 0.35176 0.0
C1019 C 0.67657 0.46095 0.329 0.0
C1020 C 0.65303 0.42297 0.26721 0.0
O1021 O 0.66128 0.41501 0.28125 0.0
O1022 O 0.65829 0.43962 0.26238 0.0
O1023 O 0.20604 0.91655 0.93424 0.0
Cd1024 Cd 0.18625 0.92943 0.95951 0.0
O1025 O 0.20106 0.94144 0.91617 0.0
Cd1026 Cd 0.18014 0.95842 0.93134 0.0
O1027 O 0.16365 0.97234 0.90904 0.0
C1028 C 0.174 0.97693 0.89506 0.0
O1029 O 0.19243 0.97516 0.8967 0.0
C1030 C 0.20897 0.92553 0.91895 0.0
C1031 C 0.16946 0.9008 0.98077 0.0
O1032 O 0.1611 0.90765 0.96622 0.0
O1033 O 0.18578 0.90729 0.98521 0.0
O1034 O 0.32986 0.96154 0.18769 0.0
Cd1035 Cd 0.31658 0.94296 0.21369 0.0
O1036 O 0.30694 0.95316 0.16832 0.0
Cd1037 Cd 0.28952 0.93298 0.18397 0.0
O1038 O 0.27653 0.91552 0.16185 0.0
C1039 C 0.27239 0.92528 0.14732 0.0
O1040 O 0.27394 0.94378 0.14829 0.0
C1041 C 0.32202 0.9624 0.17153 0.0
C1042 C 0.34506 0.92322 0.23244 0.0
O1043 O 0.33629 0.9158 0.21842 0.0
O1044 O 0.34042 0.93994 0.23768 0.0
O1045 O 0.1691 0.03736 0.68754 0.0
Cd1046 Cd 0.18219 0.05656 0.71314 0.0
O1047 O 0.19132 0.04634 0.66761 0.0
Cd1048 Cd 0.20881 0.06691 0.68269 0.0
O1049 O 0.22231 0.08361 0.66027 0.0
C1050 C 0.22659 0.07335 0.64613 0.0
O1051 O 0.22484 0.05491 0.64768 0.0
C1052 C 0.1766 0.03667 0.67122 0.0
C1053 C 0.15324 0.07537 0.73207 0.0
O1054 O 0.16166 0.08307 0.71799 0.0
O1055 O 0.15853 0.05886 0.73736 0.0
H1056 H 0.09869 0.19319 0.41549 0.0
H1057 H 0.05987 0.22115 0.37782 0.0
H1058 H 0.11949 0.22626 0.36895 0.0
H1059 H 0.10061 0.2619 0.36177 0.0
C1060 C 0.08585 0.25661 0.36047 0.0
O1061 O 0.08614 0.23729 0.35768 0.0
H1062 H 0.07798 0.26019 0.37364 0.0
C1063 C 0.09595 0.20138 0.40298 0.0
C1064 C 0.11138 0.2085 0.39258 0.0
C1065 C 0.07722 0.20534 0.39762 0.0
C1066 C 0.07412 0.21749 0.38214 0.0
C1067 C 0.08935 0.22515 0.37209 0.0
C1068 C 0.10789 0.22039 0.37706 0.0
H1069 H 0.05685 0.84857 0.66363 0.0
H1070 H 0.02619 0.81013 0.62773 0.0
H1071 H 0.02339 0.8697 0.61763 0.0
H1072 H 0.98684 0.85166 0.61095 0.0
C1073 C 0.99178 0.83677 0.6099 0.0
O1074 O 0.01109 0.83655 0.60707 0.0
H1075 H 0.98803 0.82919 0.62318 0.0
C1076 C 0.04804 0.84586 0.65161 0.0
C1077 C 0.04131 0.86135 0.64106 0.0
C1078 C 0.04305 0.82719 0.64691 0.0
C1079 C 0.03054 0.82429 0.63168 0.0
C1080 C 0.02338 0.8396 0.62138 0.0
C1081 C 0.02892 0.85804 0.62589 0.0
H1082 H 0.40197 0.80289 0.92172 0.0
H1083 H 0.43958 0.77766 0.88106 0.0
H1084 H 0.37994 0.76792 0.87703 0.0
H1085 H 0.40074 0.73364 0.86838 0.0
C1086 C 0.41491 0.74003 0.86602 0.0
O1087 O 0.41306 0.75925 0.86317 0.0
H1088 H 0.42401 0.73734 0.8786 0.0
C1089 C 0.40418 0.79478 0.90898 0.0
C1090 C 0.38857 0.78643 0.8999 0.0
C1091 C 0.42262 0.79229 0.902 0.0
C1092 C 0.42546 0.7802 0.88647 0.0
C1093 C 0.4101 0.77128 0.87773 0.0
C1094 C 0.39169 0.77471 0.88416 0.0
H1095 H 0.44418 0.15033 0.16703 0.0
H1096 H 0.47103 0.18883 0.12827 0.0
H1097 H 0.47732 0.12912 0.12067 0.0
H1098 H 0.51268 0.14854 0.11331 0.0
C1099 C 0.50704 0.16312 0.11153 0.0
O1100 O 0.48774 0.16245 0.10869 0.0
H1101 H 0.51026 0.17153 0.12445 0.0
C1102 C 0.45219 0.1529 0.15434 0.0
C1103 C 0.45954 0.1374 0.14424 0.0
C1104 C 0.45568 0.17158 0.14849 0.0
C1105 C 0.46769 0.1746 0.1329 0.0
C1106 C 0.47563 0.15931 0.12315 0.0
C1107 C 0.47124 0.14078 0.12854 0.0
H1108 H 0.09719 0.80336 0.07776 0.0
H1109 H 0.05986 0.77808 0.11864 0.0
H1110 H 0.11961 0.76904 0.12275 0.0
H1111 H 0.09917 0.7346 0.13118 0.0
C1112 C 0.08496 0.74081 0.13384 0.0
O1113 O 0.08658 0.76006 0.13664 0.0
H1114 H 0.07566 0.73798 0.12145 0.0
C1115 C 0.09506 0.79536 0.09058 0.0
C1116 C 0.11077 0.78727 0.09973 0.0
C1117 C 0.07666 0.79273 0.09757 0.0
C1118 C 0.07395 0.78074 0.11322 0.0
C1119 C 0.08942 0.77206 0.12203 0.0
C1120 C 0.10778 0.77565 0.11557 0.0
H1121 H 0.43613 0.8476 0.33823 0.0
H1122 H 0.47324 0.81007 0.3686 0.0
H1123 H 0.47414 0.86941 0.38025 0.0
H1124 H 0.51203 0.85154 0.3849 0.0
C1125 C 0.50702 0.83668 0.38617 0.0
O1126 O 0.48783 0.83642 0.38965 0.0
H1127 H 0.51016 0.82899 0.37279 0.0
C1128 C 0.44722 0.84522 0.34829 0.0
C1129 C 0.45453 0.86081 0.3583 0.0
C1130 C 0.45403 0.8268 0.35145 0.0
C1131 C 0.46783 0.82408 0.36555 0.0
C1132 C 0.4749 0.8394 0.3759 0.0
C1133 C 0.46838 0.85771 0.3722 0.0
H1134 H 0.40019 0.19272 0.58311 0.0
H1135 H 0.43935 0.22168 0.61965 0.0
H1136 H 0.37984 0.2263 0.62944 0.0
H1137 H 0.39865 0.26227 0.63607 0.0
C1138 C 0.41345 0.25702 0.6371 0.0
O1139 O 0.41328 0.23773 0.64006 0.0
H1140 H 0.42103 0.26052 0.62375 0.0
C1141 C 0.40308 0.20117 0.59539 0.0
C1142 C 0.38775 0.20828 0.60594 0.0
C1143 C 0.42186 0.20543 0.60033 0.0
C1144 C 0.42508 0.2178 0.6156 0.0
C1145 C 0.40994 0.22544 0.62582 0.0
C1146 C 0.39137 0.22044 0.62121 0.0
H1147 H 0.05999 0.1504 0.83672 0.0
H1148 H 0.02573 0.18874 0.86934 0.0
H1149 H 0.02344 0.12931 0.88031 0.0
H1150 H 0.98626 0.14759 0.88519 0.0
C1151 C 0.99134 0.16239 0.88676 0.0
O1152 O 0.01056 0.16249 0.89011 0.0
H1153 H 0.98816 0.1704 0.87358 0.0
C1154 C 0.04981 0.15308 0.8476 0.0
C1155 C 0.04254 0.13761 0.85782 0.0
C1156 C 0.04392 0.17169 0.85139 0.0
C1157 C 0.0306 0.17462 0.86592 0.0
C1158 C 0.02329 0.15936 0.87621 0.0
C1159 C 0.02926 0.14094 0.8722 0.0
H1160 H 0.41056 0.09799 0.18699 0.0
H1161 H 0.37903 0.0604 0.22306 0.0
H1162 H 0.36747 0.11975 0.22378 0.0
H1163 H 0.36187 0.10218 0.26136 0.0
C1164 C 0.36095 0.08722 0.25656 0.0
O1165 O 0.3578 0.08679 0.23731 0.0
H1166 H 0.37438 0.07984 0.26017 0.0
C1167 C 0.40009 0.09556 0.19768 0.0
C1168 C 0.38989 0.11115 0.20472 0.0
C1169 C 0.39668 0.07711 0.20428 0.0
C1170 C 0.38226 0.07441 0.21776 0.0
C1171 C 0.3718 0.08974 0.22464 0.0
C1172 C 0.37565 0.10805 0.21821 0.0
H1173 H 0.15036 0.16228 0.43912 0.0
H1174 H 0.18869 0.12863 0.47239 0.0
H1175 H 0.12921 0.1179 0.47467 0.0
H1176 H 0.14732 0.11265 0.51177 0.0
C1177 C 0.16215 0.11115 0.50674 0.0
O1178 O 0.16235 0.10792 0.4875 0.0
H1179 H 0.1701 0.12433 0.51004 0.0
C1180 C 0.15305 0.15102 0.44888 0.0
C1181 C 0.13756 0.14068 0.45594 0.0
C1182 C 0.17167 0.14696 0.45454 0.0
C1183 C 0.17456 0.13221 0.46764 0.0
C1184 C 0.15928 0.12192 0.47486 0.0
C1185 C 0.14086 0.12607 0.46897 0.0
H1186 H 0.08319 0.89981 0.69254 0.0
H1187 H 0.12029 0.93843 0.72151 0.0
H1188 H 0.12965 0.87881 0.72553 0.0
H1189 H 0.13742 0.89732 0.76166 0.0
C1190 C 0.13797 0.91215 0.75644 0.0
O1191 O 0.14067 0.91207 0.73711 0.0
H1192 H 0.12447 0.91936 0.76015 0.0
C1193 C 0.09556 0.90253 0.70091 0.0
C1194 C 0.10606 0.88706 0.70778 0.0
C1195 C 0.10067 0.92124 0.7053 0.0
C1196 C 0.11609 0.92423 0.71756 0.0
C1197 C 0.12625 0.90894 0.72496 0.0
C1198 C 0.12145 0.89045 0.71986 0.0
H1199 H 0.34672 0.83906 0.93316 0.0
H1200 H 0.30995 0.86676 0.97304 0.0
H1201 H 0.36899 0.87993 0.97234 0.0
H1202 H 0.35226 0.88189 0.01075 0.0
C1203 C 0.33727 0.88393 0.00645 0.0
O1204 O 0.33629 0.88808 0.98741 0.0
H1205 H 0.32917 0.87077 0.00946 0.0
C1206 C 0.34465 0.84844 0.94499 0.0
C1207 C 0.36025 0.8585 0.9522 0.0
C1208 C 0.32646 0.8508 0.9527 0.0
C1209 C 0.32384 0.86435 0.96703 0.0
C1210 C 0.33913 0.87486 0.97391 0.0
C1211 C 0.35728 0.87184 0.96664 0.0
H1212 H 0.41724 0.90036 0.30401 0.0
H1213 H 0.37809 0.93882 0.2777 0.0
H1214 H 0.37071 0.87911 0.27114 0.0
H1215 H 0.36217 0.89844 0.23605 0.0
C1216 C 0.36116 0.9131 0.24165 0.0
O1217 O 0.35851 0.91245 0.26098 0.0
H1218 H 0.37444 0.92079 0.23811 0.0
C1219 C 0.40447 0.90291 0.29612 0.0
C1220 C 0.39438 0.8874 0.28876 0.0
C1221 C 0.39849 0.92157 0.2928 0.0
C1222 C 0.38281 0.9246 0.28091 0.0
C1223 C 0.37307 0.9093 0.27296 0.0
C1224 C 0.37857 0.89078 0.27721 0.0
H1225 H 0.34851 0.16355 0.55792 0.0
H1226 H 0.30967 0.12882 0.52643 0.0
H1227 H 0.36916 0.11843 0.52301 0.0
H1228 H 0.35057 0.11319 0.48635 0.0
C1229 C 0.33581 0.1115 0.49153 0.0
O1230 O 0.33585 0.10828 0.51077 0.0
H1231 H 0.32766 0.12459 0.48831 0.0
C1232 C 0.34567 0.15188 0.5487 0.0
C1233 C 0.36106 0.14144 0.54156 0.0
C1234 C 0.32695 0.14749 0.54364 0.0
C1235 C 0.32387 0.13256 0.53081 0.0
C1236 C 0.33907 0.12232 0.52333 0.0
C1237 C 0.35758 0.12661 0.52883 0.0
H1238 H 0.08201 0.09839 0.8048 0.0
H1239 H 0.11972 0.05937 0.7772 0.0
H1240 H 0.12863 0.11894 0.77166 0.0
H1241 H 0.13544 0.0997 0.73602 0.0
C1242 C 0.13701 0.08505 0.74153 0.0
O1243 O 0.13985 0.0855 0.76084 0.0
H1244 H 0.12398 0.07685 0.73823 0.0
C1245 C 0.09455 0.09561 0.79666 0.0
C1246 C 0.10497 0.11097 0.78945 0.0
C1247 C 0.09992 0.07684 0.79286 0.0
C1248 C 0.11541 0.07364 0.78075 0.0
C1249 C 0.12547 0.08881 0.77298 0.0
C1250 C 0.12051 0.10739 0.77761 0.0
H1251 H 0.15189 0.83958 0.06485 0.0
H1252 H 0.18832 0.86766 0.02492 0.0
H1253 H 0.12923 0.88059 0.02605 0.0
H1254 H 0.14569 0.88324 0.98766 0.0
C1255 C 0.16076 0.885 0.99181 0.0
O1256 O 0.16182 0.88899 0.01087 0.0
H1257 H 0.1686 0.87175 0.9885 0.0
C1258 C 0.15386 0.84903 0.05307 0.0
C1259 C 0.13817 0.85907 0.046 0.0
C1260 C 0.172 0.85151 0.04528 0.0
C1261 C 0.17447 0.86515 0.031 0.0
C1262 C 0.1591 0.87564 0.02427 0.0
C1263 C 0.141 0.8725 0.03162 0.0
H1264 H 0.18769 0.41099 0.09819 0.0
H1265 H 0.22304 0.37867 0.06059 0.0
H1266 H 0.22381 0.36738 0.12 0.0
H1267 H 0.26127 0.36166 0.10254 0.0
C1268 C 0.25655 0.36063 0.08757 0.0
O1269 O 0.23729 0.35754 0.08707 0.0
H1270 H 0.26023 0.37399 0.0801 0.0
C1271 C 0.19808 0.40025 0.09574 0.0
C1272 C 0.20499 0.38999 0.11134 0.0
C1273 C 0.2045 0.39661 0.07728 0.0
C1274 C 0.21783 0.38203 0.0746 0.0
C1275 C 0.22467 0.3716 0.08997 0.0
C1276 C 0.21831 0.37557 0.10827 0.0
H1277 H 0.69451 0.08002 0.90107 0.0
H1278 H 0.72062 0.11978 0.93902 0.0
H1279 H 0.72777 0.12603 0.87923 0.0
H1280 H 0.76284 0.13427 0.89887 0.0
C1281 C 0.75701 0.13601 0.91337 0.0
O1282 O 0.73771 0.13879 0.91244 0.0
H1283 H 0.76017 0.12309 0.9218 0.0
C1284 C 0.70244 0.09282 0.90343 0.0
C1285 C 0.70997 0.10259 0.88781 0.0
C1286 C 0.70559 0.09916 0.922 0.0
C1287 C 0.71752 0.11483 0.92485 0.0
C1288 C 0.72566 0.12424 0.90945 0.0
C1289 C 0.72156 0.11841 0.89099 0.0
H1290 H 0.16633 0.44401 0.15011 0.0
H1291 H 0.12765 0.47118 0.18848 0.0
H1292 H 0.1199 0.47694 0.12874 0.0
H1293 H 0.11205 0.51231 0.14774 0.0
C1294 C 0.11071 0.50691 0.16245 0.0
O1295 O 0.10797 0.48759 0.16201 0.0
H1296 H 0.12383 0.51047 0.17039 0.0
C1297 C 0.15366 0.45204 0.15266 0.0
C1298 C 0.14351 0.45926 0.13711 0.0
C1299 C 0.14786 0.4557 0.17132 0.0
C1300 C 0.13226 0.46772 0.17427 0.0
C1301 C 0.12246 0.47551 0.15894 0.0
C1302 C 0.12782 0.47098 0.14044 0.0
H1303 H 0.80322 0.91883 0.40106 0.0
H1304 H 0.77753 0.87849 0.43869 0.0
H1305 H 0.76984 0.87307 0.37887 0.0
H1306 H 0.73513 0.86431 0.39851 0.0
C1307 C 0.74092 0.86252 0.41303 0.0
O1308 O 0.76022 0.85982 0.41199 0.0
H1309 H 0.73756 0.87541 0.42143 0.0
C1310 C 0.79533 0.90598 0.4033 0.0
C1311 C 0.78766 0.89643 0.38761 0.0
C1312 C 0.79237 0.89935 0.4218 0.0
C1313 C 0.78047 0.88364 0.42456 0.0
C1314 C 0.7722 0.87443 0.4091 0.0
C1315 C 0.77614 0.88053 0.39068 0.0
H1316 H 0.83419 0.0562 0.1501 0.0
H1317 H 0.8702 0.02636 0.1891 0.0
H1318 H 0.8803 0.02245 0.12959 0.0
H1319 H 0.88649 0.98623 0.14813 0.0
C1320 C 0.88772 0.99131 0.16296 0.0
O1321 O 0.89073 0.0106 0.16295 0.0
H1322 H 0.87445 0.98779 0.17068 0.0
C1323 C 0.84632 0.04754 0.15296 0.0
C1324 C 0.85689 0.04054 0.13761 0.0
C1325 C 0.85107 0.04295 0.17172 0.0
C1326 C 0.86627 0.03046 0.17487 0.0
C1327 C 0.87654 0.02297 0.15969 0.0
C1328 C 0.87205 0.02821 0.14115 0.0
H1329 H 0.30311 0.57728 0.59679 0.0
H1330 H 0.27795 0.61805 0.55926 0.0
H1331 H 0.26818 0.62195 0.6189 0.0
H1332 H 0.23396 0.63013 0.59808 0.0
C1333 C 0.24029 0.63298 0.58396 0.0
O1334 O 0.2595 0.63587 0.58582 0.0
H1335 H 0.23765 0.62068 0.57449 0.0
C1336 C 0.29502 0.59003 0.5946 0.0
C1337 C 0.28668 0.59909 0.61023 0.0
C1338 C 0.29256 0.59706 0.57618 0.0
C1339 C 0.28048 0.61262 0.57337 0.0
C1340 C 0.27156 0.62133 0.58875 0.0
C1341 C 0.27497 0.61485 0.60714 0.0
H1342 H 0.16604 0.55501 0.34841 0.0
H1343 H 0.12829 0.5271 0.30965 0.0
H1344 H 0.11969 0.52171 0.36928 0.0
H1345 H 0.11299 0.48598 0.35014 0.0
C1346 C 0.11125 0.49146 0.3355 0.0
O1347 O 0.10835 0.51076 0.33593 0.0
H1348 H 0.12422 0.48819 0.32718 0.0
C1349 C 0.15354 0.5468 0.3457 0.0
C1350 C 0.14322 0.53959 0.36114 0.0
C1351 C 0.14811 0.5429 0.32697 0.0
C1352 C 0.13266 0.53072 0.32388 0.0
C1353 C 0.1227 0.52296 0.33913 0.0
C1354 C 0.12773 0.52766 0.35767 0.0
H1355 H 0.33899 0.43362 0.84614 0.0
H1356 H 0.36676 0.4735 0.80942 0.0
H1357 H 0.3796 0.47296 0.86853 0.0
H1358 H 0.38201 0.51148 0.85159 0.0
C1359 C 0.38377 0.50699 0.83662 0.0
O1360 O 0.38792 0.48794 0.83582 0.0
H1361 H 0.37047 0.5099 0.82872 0.0
C1362 C 0.34833 0.44546 0.84408 0.0
C1363 C 0.35829 0.45274 0.85973 0.0
C1364 C 0.35076 0.45313 0.82589 0.0
C1365 C 0.36428 0.46751 0.82332 0.0
C1366 C 0.37469 0.47445 0.83864 0.0
C1367 C 0.37158 0.46723 0.8568 0.0
H1368 H 0.88509 0.78484 0.55914 0.0
H1369 H 0.92256 0.76541 0.60312 0.0
H1370 H 0.86316 0.75276 0.60588 0.0
H1371 H 0.88139 0.75355 0.6462 0.0
C1372 C 0.89552 0.75623 0.63984 0.0
O1373 O 0.89618 0.74793 0.62219 0.0
H1374 H 0.89798 0.77177 0.6388 0.0
C1375 C 0.88752 0.77703 0.57212 0.0
C1376 C 0.87204 0.76878 0.58139 0.0
C1377 C 0.9058 0.77634 0.57992 0.0
C1378 C 0.90861 0.76632 0.59684 0.0
C1379 C 0.89326 0.7577 0.60604 0.0
C1380 C 0.87496 0.75919 0.5985 0.0
H1381 H 0.96322 0.13501 0.30951 0.0
H1382 H 0.9832 0.17245 0.35326 0.0
H1383 H 0.99532 0.11294 0.35617 0.0
H1384 H 0.99513 0.132 0.39684 0.0
C1385 C 0.9924 0.1459 0.39004 0.0
O1386 O 0.00057 0.14598 0.37231 0.0
H1387 H 0.97686 0.14833 0.38906 0.0
C1388 C 0.97108 0.13741 0.32246 0.0
C1389 C 0.97927 0.12189 0.33173 0.0
C1390 C 0.97196 0.1557 0.3302 0.0
C1391 C 0.98212 0.15848 0.34704 0.0
C1392 C 0.99062 0.14308 0.35627 0.0
C1393 C 0.98894 0.12477 0.3488 0.0
H1394 H 0.61356 0.21313 0.0596 0.0
H1395 H 0.57646 0.23318 0.10361 0.0
H1396 H 0.63601 0.24511 0.10615 0.0
H1397 H 0.61681 0.24509 0.1472 0.0
C1398 C 0.60301 0.24229 0.14023 0.0
O1399 O 0.6031 0.25046 0.1225 0.0
H1400 H 0.60067 0.22673 0.13922 0.0
C1401 C 0.61127 0.22098 0.07257 0.0
C1402 C 0.62687 0.22913 0.08174 0.0
C1403 C 0.59302 0.2219 0.08044 0.0
C1404 C 0.59038 0.23206 0.09731 0.0
C1405 C 0.60587 0.24049 0.10645 0.0
C1406 C 0.62412 0.23876 0.09886 0.0
H1407 H 0.53559 0.86341 0.81011 0.0
H1408 H 0.51701 0.82623 0.85468 0.0
H1409 H 0.50242 0.88524 0.85613 0.0
H1410 H 0.50336 0.86763 0.89684 0.0
C1411 C 0.50636 0.85345 0.89076 0.0
O1412 O 0.49837 0.85238 0.87299 0.0
H1413 H 0.52194 0.8512 0.89001 0.0
C1414 C 0.52773 0.86099 0.82306 0.0
C1415 C 0.51894 0.87639 0.83197 0.0
C1416 C 0.52758 0.84287 0.83124 0.0
C1417 C 0.51753 0.84008 0.84815 0.0
C1418 C 0.50832 0.85532 0.85695 0.0
C1419 C 0.5093 0.87351 0.84906 0.0
H1420 H 0.88418 0.21315 0.93884 0.0
H1421 H 0.92083 0.23301 0.89437 0.0
H1422 H 0.86126 0.245 0.89243 0.0
H1423 H 0.88031 0.24497 0.85101 0.0
C1424 C 0.89408 0.24209 0.85802 0.0
O1425 O 0.894 0.25029 0.87573 0.0
H1426 H 0.89631 0.22652 0.85905 0.0
C1427 C 0.88635 0.22096 0.92582 0.0
C1428 C 0.87065 0.22909 0.91679 0.0
C1429 C 0.9045 0.22182 0.91775 0.0
C1430 C 0.90697 0.23192 0.90082 0.0
C1431 C 0.8914 0.24035 0.89183 0.0
C1432 C 0.87322 0.23866 0.89961 0.0
H1433 H 0.53562 0.13459 0.68706 0.0
H1434 H 0.51619 0.17156 0.64268 0.0
H1435 H 0.50283 0.11226 0.64102 0.0
H1436 H 0.50266 0.13118 0.59965 0.0
C1437 C 0.50589 0.14495 0.60651 0.0
O1438 O 0.49799 0.14512 0.62436 0.0
H1439 H 0.52151 0.14691 0.60727 0.0
C1440 C 0.52771 0.13689 0.67412 0.0
C1441 C 0.5192 0.12135 0.66519 0.0
C1442 C 0.52719 0.15504 0.666 0.0
C1443 C 0.51704 0.15768 0.64914 0.0
C1444 C 0.50814 0.1423 0.64029 0.0
C1445 C 0.50952 0.1241 0.6481 0.0
H1446 H 0.61356 0.78405 0.43838 0.0
H1447 H 0.57714 0.76425 0.39371 0.0
H1448 H 0.63664 0.75183 0.3923 0.0
H1449 H 0.61859 0.75168 0.35107 0.0
C1450 C 0.60468 0.75491 0.35763 0.0
O1451 O 0.60399 0.74673 0.37533 0.0
H1452 H 0.60282 0.77053 0.35858 0.0
C1453 C 0.61145 0.77616 0.4254 0.0
C1454 C 0.62717 0.76793 0.4165 0.0
C1455 C 0.59335 0.77537 0.41719 0.0
C1456 C 0.59095 0.76525 0.40027 0.0
C1457 C 0.60653 0.75665 0.39146 0.0
C1458 C 0.62466 0.75825 0.39938 0.0
H1459 H 0.96376 0.86243 0.189 0.0
H1460 H 0.98375 0.82603 0.14438 0.0
H1461 H 0.99622 0.88551 0.14308 0.0
H1462 H 0.99613 0.8678 0.10203 0.0
C1463 C 0.99313 0.85373 0.10836 0.0
O1464 O 0.00129 0.8529 0.12607 0.0
H1465 H 0.97754 0.85159 0.10927 0.0
C1466 C 0.97169 0.86033 0.17604 0.0
C1467 C 0.98 0.87604 0.16721 0.0
C1468 C 0.97252 0.84223 0.16783 0.0
C1469 C 0.98273 0.83983 0.15096 0.0
C1470 C 0.99136 0.85541 0.14219 0.0
C1471 C 0.98975 0.87353 0.15013 0.0
H1472 H 0.55981 0.88474 0.78508 0.0
H1473 H 0.60371 0.92237 0.76581 0.0
H1474 H 0.60655 0.86304 0.75285 0.0
H1475 H 0.64696 0.88165 0.75358 0.0
C1476 C 0.64044 0.89569 0.75628 0.0
O1477 O 0.62274 0.89613 0.74807 0.0
H1478 H 0.63946 0.89816 0.77182 0.0
C1479 C 0.57276 0.88723 0.77725 0.0
C1480 C 0.58207 0.87181 0.76893 0.0
C1481 C 0.58055 0.90552 0.77667 0.0
C1482 C 0.59746 0.9084 0.76666 0.0
C1483 C 0.60666 0.89312 0.75793 0.0
C1484 C 0.59916 0.8748 0.75935 0.0
H1485 H 0.86372 0.81012 0.53508 0.0
H1486 H 0.82644 0.85438 0.51593 0.0
H1487 H 0.8856 0.85615 0.50196 0.0
H1488 H 0.86716 0.89716 0.50216 0.0
C1489 C 0.85325 0.89059 0.50541 0.0
O1490 O 0.85267 0.87277 0.49748 0.0
H1491 H 0.85129 0.88984 0.52103 0.0
C1492 C 0.8613 0.82303 0.52716 0.0
C1493 C 0.87673 0.83199 0.51848 0.0
C1494 C 0.84313 0.8311 0.5268 0.0
C1495 C 0.84034 0.84795 0.51664 0.0
C1496 C 0.85561 0.85681 0.50756 0.0
C1497 C 0.87384 0.84904 0.50876 0.0
H1498 H 0.93796 0.11367 0.28531 0.0
H1499 H 0.89369 0.07647 0.26606 0.0
H1500 H 0.89166 0.13576 0.25272 0.0
H1501 H 0.8504 0.11675 0.25314 0.0
C1502 C 0.85735 0.10297 0.25612 0.0
O1503 O 0.8751 0.10284 0.24801 0.0
H1504 H 0.85812 0.10109 0.27175 0.0
C1505 C 0.925 0.11129 0.27746 0.0
C1506 C 0.91596 0.12678 0.26896 0.0
C1507 C 0.91697 0.09311 0.27697 0.0
C1508 C 0.90009 0.09037 0.26687 0.0
C1509 C 0.89112 0.10572 0.25802 0.0
C1510 C 0.89884 0.12396 0.25936 0.0
H1511 H 0.63492 0.18834 0.03491 0.0
H1512 H 0.67198 0.1442 0.01508 0.0
H1513 H 0.61251 0.14198 0.00264 0.0
H1514 H 0.63115 0.10102 0.00271 0.0
C1515 C 0.64504 0.10773 0.00572 0.0
O1516 O 0.64539 0.12546 0.99756 0.0
H1517 H 0.64714 0.10869 0.02132 0.0
C1518 C 0.63722 0.17538 0.02705 0.0
C1519 C 0.62164 0.1663 0.01877 0.0
C1520 C 0.65543 0.16743 0.02625 0.0
C1521 C 0.65807 0.15057 0.01609 0.0
C1522 C 0.64262 0.14153 0.0075 0.0
C1523 C 0.62438 0.14921 0.0091 0.0
H1524 H 0.55935 0.11337 0.7125 0.0
H1525 H 0.60363 0.07653 0.73248 0.0
H1526 H 0.60607 0.13616 0.744 0.0
H1527 H 0.64731 0.11682 0.74375 0.0
C1528 C 0.6402 0.10305 0.74114 0.0
O1529 O 0.62254 0.10336 0.74945 0.0
H1530 H 0.63907 0.10055 0.72562 0.0
C1531 C 0.57238 0.11116 0.72029 0.0
C1532 C 0.58157 0.12684 0.72827 0.0
C1533 C 0.58032 0.09295 0.72125 0.0
C1534 C 0.59726 0.09043 0.73132 0.0
C1535 C 0.60641 0.10599 0.73958 0.0
C1536 C 0.59876 0.12421 0.73778 0.0
H1537 H 0.63466 0.80904 0.46298 0.0
H1538 H 0.67095 0.85405 0.48225 0.0
H1539 H 0.61127 0.85605 0.49359 0.0
H1540 H 0.63044 0.89765 0.4925 0.0
C1541 C 0.64423 0.89046 0.49023 0.0
O1542 O 0.64386 0.87295 0.49885 0.0
H1543 H 0.64669 0.88922 0.47471 0.0
C1544 C 0.6367 0.82223 0.47052 0.0
C1545 C 0.6209 0.83138 0.47832 0.0
C1546 C 0.65482 0.83039 0.47138 0.0
C1547 C 0.65713 0.84753 0.48116 0.0
C1548 C 0.64143 0.85665 0.48921 0.0
C1549 C 0.62331 0.84877 0.48751 0.0
H1550 H 0.93868 0.88379 0.21335 0.0
H1551 H 0.89411 0.92056 0.23278 0.0
H1552 H 0.89146 0.86087 0.24399 0.0
H1553 H 0.85004 0.88054 0.24311 0.0
C1554 C 0.85742 0.89422 0.24075 0.0
O1555 O 0.87493 0.89365 0.24935 0.0
H1556 H 0.85866 0.89658 0.22522 0.0
C1557 C 0.92552 0.88596 0.22093 0.0
C1558 C 0.91621 0.87025 0.2287 0.0
C1559 C 0.91757 0.90417 0.22184 0.0
C1560 C 0.90048 0.90666 0.23165 0.0
C1561 C 0.89119 0.89106 0.23969 0.0
C1562 C 0.89886 0.87284 0.23793 0.0
H1563 H 0.86304 0.18845 0.96377 0.0
H1564 H 0.82637 0.14401 0.98365 0.0
H1565 H 0.88599 0.14185 0.99535 0.0
H1566 H 0.86713 0.1006 0.99501 0.0
C1567 C 0.8533 0.10756 0.99232 0.0
O1568 O 0.85324 0.12519 0.00068 0.0
H1569 H 0.85123 0.10855 0.97672 0.0
C1570 C 0.86088 0.1754 0.97154 0.0
C1571 C 0.87659 0.1663 0.97957 0.0
C1572 C 0.8427 0.16739 0.97247 0.0
C1573 C 0.84024 0.15043 0.98253 0.0
C1574 C 0.85582 0.14136 0.99084 0.0
C1575 C 0.87401 0.1491 0.9891 0.0
H1576 H 0.7854 0.55973 0.88491 0.0
H1577 H 0.76605 0.60378 0.92233 0.0
H1578 H 0.75252 0.60596 0.86309 0.0
H1579 H 0.75279 0.64659 0.88135 0.0
C1580 C 0.75587 0.64018 0.89536 0.0
O1581 O 0.74786 0.6224 0.89608 0.0
H1582 H 0.77147 0.63938 0.89748 0.0
C1583 C 0.77746 0.57262 0.88736 0.0
C1584 C 0.76892 0.58172 0.87193 0.0
C1585 C 0.77697 0.58057 0.90558 0.0
C1586 C 0.76682 0.59742 0.90841 0.0
C1587 C 0.75786 0.60639 0.89312 0.0
C1588 C 0.75919 0.59874 0.87486 0.0
H1589 H 0.2861 0.93807 0.11474 0.0
H1590 H 0.2671 0.8925 0.07903 0.0
H1591 H 0.25426 0.89205 0.13845 0.0
H1592 H 0.25471 0.84964 0.11954 0.0
C1593 C 0.25763 0.85687 0.10589 0.0
O1594 O 0.2494 0.87456 0.10609 0.0
H1595 H 0.27325 0.85775 0.10399 0.0
C1596 C 0.27839 0.92495 0.11282 0.0
C1597 C 0.27012 0.91627 0.12863 0.0
C1598 C 0.27789 0.91636 0.09489 0.0
C1599 C 0.26796 0.8993 0.09273 0.0
C1600 C 0.25935 0.89068 0.10842 0.0
C1601 C 0.26075 0.89895 0.1264 0.0
H1602 H 0.81059 0.53567 0.86372 0.0
H1603 H 0.85492 0.51688 0.82636 0.0
H1604 H 0.85695 0.50295 0.88552 0.0
H1605 H 0.89798 0.50372 0.86683 0.0
C1606 C 0.89126 0.50661 0.85292 0.0
O1607 O 0.8735 0.49855 0.85254 0.0
H1608 H 0.89055 0.52222 0.8509 0.0
C1609 C 0.82356 0.52785 0.86128 0.0
C1610 C 0.83264 0.51926 0.87669 0.0
C1611 C 0.8316 0.52755 0.84309 0.0
C1612 C 0.84852 0.51754 0.84027 0.0
C1613 C 0.8575 0.50854 0.85553 0.0
C1614 C 0.84976 0.50969 0.87378 0.0
H1615 H 0.2131 0.05964 0.61387 0.0
H1616 H 0.23281 0.10388 0.57687 0.0
H1617 H 0.24518 0.10611 0.63635 0.0
H1618 H 0.24499 0.14726 0.61735 0.0
C1619 C 0.24211 0.14036 0.60352 0.0
O1620 O 0.25029 0.12263 0.60348 0.0
H1621 H 0.22654 0.13937 0.60126 0.0
C1622 C 0.22092 0.07264 0.61159 0.0
C1623 C 0.22916 0.08173 0.62718 0.0
C1624 C 0.22168 0.08061 0.59339 0.0
C1625 C 0.23179 0.09751 0.59077 0.0
C1626 C 0.24034 0.10657 0.60624 0.0
C1627 C 0.23875 0.09887 0.62447 0.0
H1628 H 0.18806 0.96437 0.86255 0.0
H1629 H 0.14373 0.98439 0.82581 0.0
H1630 H 0.14115 0.99546 0.88553 0.0
H1631 H 0.10015 0.99537 0.86658 0.0
C1632 C 0.10706 0.99267 0.85273 0.0
O1633 O 0.12468 0.00107 0.85272 0.0
H1634 H 0.10825 0.97713 0.85038 0.0
C1635 C 0.175 0.97212 0.86039 0.0
C1636 C 0.16574 0.9799 0.87612 0.0
C1637 C 0.16709 0.97319 0.84217 0.0
C1638 C 0.15008 0.98316 0.83971 0.0
C1639 C 0.14088 0.99128 0.85532 0.0
C1640 C 0.14852 0.98939 0.87354 0.0
H1641 H 0.71443 0.43809 0.38575 0.0
H1642 H 0.7345 0.393 0.42152 0.0
H1643 H 0.74574 0.39182 0.3618 0.0
H1644 H 0.74592 0.34978 0.38063 0.0
C1645 C 0.74285 0.35701 0.39424 0.0
O1646 O 0.75128 0.37461 0.39422 0.0
H1647 H 0.7272 0.35807 0.39583 0.0
C1648 C 0.72221 0.42501 0.38763 0.0
C1649 C 0.7301 0.41615 0.37171 0.0
C1650 C 0.72324 0.41667 0.40566 0.0
C1651 C 0.7333 0.39967 0.40777 0.0
C1652 C 0.74147 0.39084 0.39198 0.0
C1653 C 0.7396 0.39889 0.37393 0.0
H1654 H 0.80869 0.46307 0.6336 0.0
H1655 H 0.85389 0.4824 0.66962 0.0
H1656 H 0.85564 0.49353 0.60989 0.0
H1657 H 0.89745 0.49258 0.62908 0.0
C1658 C 0.89019 0.49029 0.64284 0.0
O1659 O 0.87269 0.4989 0.6424 0.0
H1660 H 0.88896 0.47476 0.64527 0.0
C1661 C 0.82191 0.4706 0.63555 0.0
C1662 C 0.83099 0.47833 0.61969 0.0
C1663 C 0.83015 0.4715 0.65363 0.0
C1664 C 0.84731 0.48126 0.65583 0.0
C1665 C 0.85638 0.48925 0.64007 0.0
C1666 C 0.84841 0.4875 0.62198 0.0
H1667 H 0.68714 0.53525 0.13445 0.0
H1668 H 0.64263 0.51541 0.17104 0.0
H1669 H 0.64136 0.50242 0.11165 0.0
H1670 H 0.59968 0.5016 0.13054 0.0
C1671 C 0.60665 0.50515 0.14417 0.0
O1672 O 0.62453 0.49731 0.14437 0.0
H1673 H 0.60737 0.52082 0.14576 0.0
C1674 C 0.67423 0.52727 0.13663 0.0
C1675 C 0.66542 0.51882 0.12098 0.0
C1676 C 0.666 0.5266 0.15472 0.0
C1677 C 0.64916 0.51637 0.1572 0.0
C1678 C 0.64044 0.50752 0.14171 0.0
C1679 C 0.64835 0.50905 0.12356 0.0
H1680 H 0.59713 0.6832 0.90911 0.0
H1681 H 0.56104 0.72305 0.88049 0.0
H1682 H 0.62014 0.72137 0.86771 0.0
H1683 H 0.60398 0.75986 0.86439 0.0
C1684 C 0.58887 0.75577 0.86284 0.0
O1685 O 0.58768 0.73667 0.85906 0.0
H1686 H 0.58119 0.75927 0.87613 0.0
C1687 C 0.59526 0.69488 0.89952 0.0
C1688 C 0.61102 0.70173 0.88944 0.0
C1689 C 0.57718 0.70277 0.89691 0.0
C1690 C 0.57484 0.71691 0.8831 0.0
C1691 C 0.59028 0.7234 0.87257 0.0
C1692 C 0.60832 0.71597 0.87583 0.0
H1693 H 0.55862 0.34899 0.16278 0.0
H1694 H 0.52629 0.31053 0.12839 0.0
H1695 H 0.52384 0.37002 0.11775 0.0
H1696 H 0.48705 0.35198 0.11191 0.0
C1697 C 0.49195 0.33709 0.11067 0.0
O1698 O 0.51122 0.33686 0.10761 0.0
H1699 H 0.48835 0.32939 0.12392 0.0
C1700 C 0.5492 0.34626 0.15125 0.0
C1701 C 0.54226 0.36172 0.14079 0.0
C1702 C 0.54378 0.32761 0.147 0.0
C1703 C 0.5309 0.32468 0.13207 0.0
C1704 C 0.52371 0.33995 0.12173 0.0
C1705 C 0.52947 0.35839 0.12598 0.0
H1706 H 0.89958 0.30505 0.41543 0.0
H1707 H 0.93849 0.277 0.37791 0.0
H1708 H 0.8789 0.27205 0.3688 0.0
H1709 H 0.89776 0.23638 0.3617 0.0
C1710 C 0.91253 0.24164 0.3604 0.0
O1711 O 0.91227 0.26096 0.35765 0.0
H1712 H 0.9204 0.23802 0.37355 0.0
C1713 C 0.90236 0.29685 0.40294 0.0
C1714 C 0.88696 0.28978 0.39247 0.0
C1715 C 0.92111 0.29283 0.39767 0.0
C1716 C 0.92424 0.28069 0.38219 0.0
C1717 C 0.90903 0.27308 0.37207 0.0
C1718 C 0.89048 0.27788 0.37697 0.0
H1719 H 0.94546 0.65178 0.67135 0.0
H1720 H 0.97077 0.68876 0.63018 0.0
H1721 H 0.97997 0.629 0.62667 0.0
H1722 H 0.01437 0.64937 0.61759 0.0
C1723 C 0.00809 0.66358 0.61513 0.0
O1724 O 0.98883 0.66189 0.61242 0.0
H1725 H 0.01096 0.67275 0.62761 0.0
C1726 C 0.95352 0.65379 0.65855 0.0
C1727 C 0.96168 0.63802 0.64957 0.0
C1728 C 0.95612 0.67213 0.65137 0.0
C1729 C 0.96815 0.67472 0.63574 0.0
C1730 C 0.97687 0.65919 0.62709 0.0
C1731 C 0.97333 0.64088 0.63373 0.0
H1732 H 0.59702 0.31523 0.58932 0.0
H1733 H 0.56069 0.27543 0.6177 0.0
H1734 H 0.61973 0.27691 0.63077 0.0
H1735 H 0.60348 0.23843 0.63407 0.0
C1736 C 0.58837 0.24258 0.63537 0.0
O1737 O 0.5872 0.26167 0.63921 0.0
H1738 H 0.58091 0.23917 0.62193 0.0
C1739 C 0.59509 0.30353 0.59889 0.0
C1740 C 0.61077 0.29662 0.60904 0.0
C1741 C 0.57697 0.29569 0.6014 0.0
C1742 C 0.57452 0.28154 0.61517 0.0
C1743 C 0.58989 0.27498 0.62576 0.0
C1744 C 0.60796 0.28236 0.6226 0.0
H1745 H 0.93727 0.34845 0.83737 0.0
H1746 H 0.97253 0.31025 0.86909 0.0
H1747 H 0.97452 0.36964 0.88032 0.0
H1748 H 0.01171 0.35152 0.88513 0.0
C1749 C 0.0068 0.33664 0.88654 0.0
O1750 O 0.98759 0.33648 0.88996 0.0
H1751 H 0.01013 0.32886 0.87327 0.0
C1752 C 0.94781 0.34583 0.84792 0.0
C1753 C 0.95517 0.36131 0.85805 0.0
C1754 C 0.95398 0.32725 0.85146 0.0
C1755 C 0.9675 0.32435 0.86581 0.0
C1756 C 0.97479 0.3396 0.87612 0.0
C1757 C 0.96867 0.35801 0.87224 0.0
H1758 H 0.90127 0.69511 0.07829 0.0
H1759 H 0.93849 0.72057 0.11914 0.0
H1760 H 0.87867 0.7289 0.12358 0.0
H1761 H 0.89867 0.76359 0.13262 0.0
C1762 C 0.91302 0.75748 0.13466 0.0
O1763 O 0.91166 0.73819 0.13735 0.0
H1764 H 0.9218 0.76051 0.12194 0.0
C1765 C 0.90336 0.70305 0.09114 0.0
C1766 C 0.88761 0.71091 0.10041 0.0
C1767 C 0.92177 0.70585 0.09807 0.0
C1768 C 0.92441 0.71777 0.11377 0.0
C1769 C 0.90889 0.72623 0.1227 0.0
C1770 C 0.89053 0.72247 0.11632 0.0
H1771 H 0.55312 0.65173 0.32769 0.0
H1772 H 0.52784 0.68914 0.3685 0.0
H1773 H 0.51856 0.62943 0.37256 0.0
H1774 H 0.48419 0.64998 0.38093 0.0
C1775 C 0.49043 0.66417 0.38361 0.0
O1776 O 0.50967 0.66248 0.38645 0.0
H1777 H 0.48767 0.6735 0.37122 0.0
C1778 C 0.54508 0.65388 0.34048 0.0
C1779 C 0.53689 0.6382 0.3496 0.0
C1780 C 0.54249 0.6723 0.34748 0.0
C1781 C 0.53046 0.67504 0.36308 0.0
C1782 C 0.5217 0.65961 0.37186 0.0
C1783 C 0.52523 0.64123 0.36541 0.0
H1784 H 0.90887 0.59691 0.68306 0.0
H1785 H 0.88035 0.56064 0.72283 0.0
H1786 H 0.86752 0.61974 0.7214 0.0
H1787 H 0.86435 0.6035 0.7598 0.0
C1788 C 0.86276 0.5884 0.7557 0.0
O1789 O 0.85894 0.58723 0.73661 0.0
H1790 H 0.87605 0.58069 0.75916 0.0
C1791 C 0.8993 0.595 0.69476 0.0
C1792 C 0.88921 0.61072 0.70169 0.0
C1793 C 0.89671 0.57689 0.70258 0.0
C1794 C 0.88293 0.57447 0.71674 0.0
C1795 C 0.8724 0.58988 0.72331 0.0
C1796 C 0.87564 0.60795 0.71594 0.0
H1797 H 0.65175 0.67066 0.94568 0.0
H1798 H 0.68867 0.62938 0.97092 0.0
H1799 H 0.62886 0.62565 0.97967 0.0
H1800 H 0.64879 0.61616 0.01401 0.0
C1801 C 0.66316 0.61403 0.00797 0.0
O1802 O 0.66173 0.61143 0.98868 0.0
H1803 H 0.67194 0.62669 0.01123 0.0
C1804 C 0.65374 0.65779 0.95364 0.0
C1805 C 0.63794 0.64872 0.96162 0.0
C1806 C 0.67209 0.65063 0.9563 0.0
C1807 C 0.67463 0.63492 0.96823 0.0
C1808 C 0.65906 0.62616 0.97679 0.0
C1809 C 0.64076 0.63278 0.97316 0.0
H1810 H 0.58303 0.40055 0.19301 0.0
H1811 H 0.61996 0.43944 0.22182 0.0
H1812 H 0.62906 0.37985 0.22682 0.0
H1813 H 0.63536 0.39874 0.26267 0.0
C1814 C 0.63688 0.4135 0.25742 0.0
O1815 O 0.63998 0.41322 0.23816 0.0
H1816 H 0.62373 0.42148 0.2608 0.0
C1817 C 0.59535 0.40333 0.20145 0.0
C1818 C 0.60571 0.38792 0.20868 0.0
C1819 C 0.60052 0.42208 0.2056 0.0
C1820 C 0.61578 0.4252 0.21801 0.0
C1821 C 0.62579 0.40998 0.22578 0.0
C1822 C 0.62099 0.39143 0.22086 0.0
H1823 H 0.84795 0.33516 0.43984 0.0
H1824 H 0.80942 0.36933 0.47234 0.0
H1825 H 0.86888 0.38005 0.47485 0.0
H1826 H 0.85059 0.38602 0.51195 0.0
C1827 C 0.83577 0.38696 0.50676 0.0
O1828 O 0.83568 0.39008 0.4875 0.0
H1829 H 0.82827 0.37351 0.51007 0.0
C1830 C 0.84519 0.34663 0.44932 0.0
C1831 C 0.86063 0.35708 0.45631 0.0
C1832 C 0.82653 0.35082 0.45477 0.0
C1833 C 0.82357 0.36568 0.46771 0.0
C1834 C 0.83882 0.37601 0.47496 0.0
C1835 C 0.85726 0.37182 0.46918 0.0
H1836 H 0.91633 0.40073 0.8047 0.0
H1837 H 0.87868 0.43976 0.77704 0.0
H1838 H 0.87018 0.38017 0.77092 0.0
H1839 H 0.86417 0.3997 0.73541 0.0
C1840 C 0.86204 0.41427 0.74094 0.0
O1841 O 0.85891 0.41364 0.7602 0.0
H1842 H 0.87486 0.4229 0.7379 0.0
C1843 C 0.90385 0.4035 0.79647 0.0
C1844 C 0.8936 0.38813 0.78903 0.0
C1845 C 0.8984 0.42226 0.79277 0.0
C1846 C 0.88302 0.42548 0.78053 0.0
C1847 C 0.87313 0.41032 0.77252 0.0
C1848 C 0.87815 0.39173 0.77706 0.0
H1849 H 0.84714 0.65887 0.06429 0.0
H1850 H 0.81085 0.6298 0.02496 0.0
H1851 H 0.86999 0.61718 0.02639 0.0
H1852 H 0.85351 0.61312 0.98796 0.0
C1853 C 0.83844 0.61182 0.99226 0.0
O1854 O 0.83744 0.60829 0.01141 0.0
H1855 H 0.8309 0.62518 0.98869 0.0
C1856 C 0.8452 0.64918 0.05273 0.0
C1857 C 0.86093 0.63906 0.04588 0.0
C1858 C 0.82707 0.64646 0.04499 0.0
C1859 C 0.82468 0.63252 0.03099 0.0
C1860 C 0.8401 0.62196 0.02449 0.0
C1861 C 0.85818 0.62534 0.03177 0.0
H1862 H 0.58934 0.59683 0.31541 0.0
H1863 H 0.61732 0.56026 0.27554 0.0
H1864 H 0.63022 0.61935 0.27639 0.0
H1865 H 0.63285 0.60262 0.23783 0.0
C1866 C 0.63454 0.58762 0.24226 0.0
O1867 O 0.63859 0.58671 0.26132 0.0
H1868 H 0.62122 0.57979 0.23923 0.0
C1869 C 0.59875 0.59483 0.30361 0.0
C1870 C 0.60877 0.61048 0.29645 0.0
C1871 C 0.60122 0.57666 0.29587 0.0
C1872 C 0.61482 0.57413 0.28157 0.0
C1873 C 0.62528 0.58948 0.27475 0.0
C1874 C 0.62215 0.6076 0.28203 0.0
H1875 H 0.65208 0.32671 0.55293 0.0
H1876 H 0.6892 0.36778 0.52765 0.0
H1877 H 0.62948 0.37137 0.51826 0.0
H1878 H 0.64994 0.38068 0.48387 0.0
C1879 C 0.66417 0.38283 0.49023 0.0
O1880 O 0.66242 0.38555 0.50948 0.0
H1881 H 0.67309 0.37016 0.48739 0.0
C1882 C 0.65414 0.3395 0.54485 0.0
C1883 C 0.6384 0.34848 0.53662 0.0
C1884 C 0.6725 0.34665 0.54228 0.0
C1885 C 0.67515 0.36225 0.53024 0.0
C1886 C 0.65966 0.3709 0.52145 0.0
C1887 C 0.64132 0.3643 0.52495 0.0
H1888 H 0.68383 0.90902 0.59701 0.0
H1889 H 0.7233 0.88032 0.56056 0.0
H1890 H 0.72223 0.86768 0.6197 0.0
H1891 H 0.76075 0.86435 0.60299 0.0
C1892 C 0.7563 0.86268 0.58799 0.0
O1893 O 0.73717 0.85894 0.58709 0.0
H1894 H 0.75954 0.87593 0.58013 0.0
C1895 C 0.69548 0.89943 0.59503 0.0
C1896 C 0.70249 0.88938 0.61073 0.0
C1897 C 0.70317 0.89679 0.57687 0.0
C1898 C 0.7173 0.88298 0.57442 0.0
C1899 C 0.72395 0.87248 0.58981 0.0
C1900 C 0.71671 0.87578 0.60792 0.0
H1901 H 0.18907 0.58644 0.40012 0.0
H1902 H 0.2227 0.61986 0.43832 0.0
H1903 H 0.22471 0.63067 0.37885 0.0
H1904 H 0.26179 0.63655 0.39683 0.0
C1905 C 0.25685 0.63755 0.41173 0.0
O1906 O 0.2376 0.64068 0.41196 0.0
H1907 H 0.26039 0.62415 0.41921 0.0
C1908 C 0.19895 0.59759 0.40277 0.0
C1909 C 0.20599 0.60791 0.38726 0.0
C1910 C 0.20475 0.60158 0.42137 0.0
C1911 C 0.21787 0.6163 0.42422 0.0
C1912 C 0.22502 0.62663 0.40892 0.0
C1913 C 0.21906 0.6225 0.39052 0.0
H1914 H 0.66983 0.94518 0.65123 0.0
H1915 H 0.62911 0.97054 0.68867 0.0
H1916 H 0.62438 0.97892 0.62887 0.0
H1917 H 0.61582 0.01352 0.64895 0.0
C1918 C 0.61347 0.00746 0.66328 0.0
O1919 O 0.61076 0.98818 0.66193 0.0
H1920 H 0.62603 0.01047 0.6723 0.0
C1921 C 0.65697 0.95309 0.65339 0.0
C1922 C 0.64762 0.96095 0.63769 0.0
C1923 C 0.65012 0.95586 0.67184 0.0
C1924 C 0.63441 0.96776 0.67456 0.0
C1925 C 0.6254 0.97621 0.65908 0.0
C1926 C 0.63171 0.97248 0.6407 0.0
H1927 H 0.30292 0.42041 0.90084 0.0
H1928 H 0.27795 0.37955 0.9384 0.0
H1929 H 0.26913 0.37493 0.87866 0.0
H1930 H 0.23485 0.36568 0.89876 0.0
C1931 C 0.24089 0.36379 0.91315 0.0
O1932 O 0.26019 0.36119 0.91175 0.0
H1933 H 0.23762 0.37657 0.92175 0.0
C1934 C 0.29505 0.40753 0.90304 0.0
C1935 C 0.28709 0.3982 0.88738 0.0
C1936 C 0.29245 0.40063 0.92149 0.0
C1937 C 0.2806 0.3849 0.92428 0.0
C1938 C 0.27205 0.37589 0.90885 0.0
C1939 C 0.27563 0.38225 0.89045 0.0
H1940 H 0.33917 0.56559 0.65204 0.0
H1941 H 0.36666 0.52557 0.68881 0.0
H1942 H 0.37982 0.52616 0.62977 0.0
H1943 H 0.38181 0.48766 0.64659 0.0
C1944 C 0.38365 0.49205 0.66158 0.0
O1945 O 0.3879 0.51107 0.66247 0.0
H1946 H 0.37037 0.48917 0.66952 0.0
C1947 C 0.34848 0.55371 0.6541 0.0
C1948 C 0.35851 0.54643 0.6385 0.0
C1949 C 0.35081 0.54599 0.6723 0.0
C1950 C 0.36428 0.53159 0.67491 0.0
C1951 C 0.37474 0.52464 0.65962 0.0
C1952 C 0.37176 0.53191 0.64147 0.0
H1953 H 0.80717 0.08385 0.09857 0.0
H1954 H 0.77688 0.11956 0.05964 0.0
H1955 H 0.77307 0.12965 0.11916 0.0
H1956 H 0.7366 0.13537 0.10048 0.0
C1957 C 0.74184 0.13693 0.08573 0.0
O1958 O 0.7611 0.14003 0.08582 0.0
H1959 H 0.73857 0.1238 0.07767 0.0
C1960 C 0.79836 0.09586 0.09572 0.0
C1961 C 0.79132 0.10638 0.11109 0.0
C1962 C 0.79365 0.10054 0.07697 0.0
C1963 C 0.78105 0.11566 0.07386 0.0
C1964 C 0.77354 0.12589 0.08906 0.0
C1965 C 0.77886 0.12144 0.10759 0.0
H1966 H 0.65925 0.06286 0.84796 0.0
H1967 H 0.62921 0.02491 0.81102 0.0
H1968 H 0.61721 0.02513 0.8703 0.0
H1969 H 0.61238 0.98713 0.8531 0.0
C1970 C 0.6112 0.99175 0.83811 0.0
O1971 O 0.60786 0.01096 0.8375 0.0
H1972 H 0.62456 0.9882 0.83057 0.0
C1973 C 0.64931 0.0516 0.84579 0.0
C1974 C 0.63924 0.04454 0.86146 0.0
C1975 C 0.64629 0.04439 0.82749 0.0
C1976 C 0.63218 0.03057 0.82495 0.0
C1977 C 0.6217 0.02383 0.84033 0.0
C1978 C 0.62533 0.03066 0.85853 0.0
H1979 H 0.83913 0.93431 0.34738 0.0
H1980 H 0.86837 0.97322 0.31077 0.0
H1981 H 0.88066 0.97248 0.36999 0.0
H1982 H 0.88489 0.01074 0.35309 0.0
C1983 C 0.88615 0.00626 0.33806 0.0
O1984 O 0.88971 0.9871 0.33731 0.0
H1985 H 0.87277 0.00972 0.33052 0.0
C1986 C 0.84883 0.94582 0.34533 0.0
C1987 C 0.85885 0.95286 0.36104 0.0
C1988 C 0.85164 0.95333 0.32712 0.0
C1989 C 0.86557 0.96734 0.32465 0.0
C1990 C 0.87603 0.97403 0.34006 0.0
C1991 C 0.87257 0.96696 0.3582 0.0
H1992 H 0.38496 0.2852 0.05981 0.0
H1993 H 0.42258 0.26584 0.10369 0.0
H1994 H 0.36326 0.25282 0.10644 0.0
H1995 H 0.38212 0.25344 0.14708 0.0
C1996 C 0.39608 0.2562 0.1404 0.0
O1997 O 0.39633 0.24805 0.12267 0.0
H1998 H 0.39848 0.27175 0.13944 0.0
C1999 C 0.38744 0.27738 0.07277 0.0
C2000 C 0.37202 0.26898 0.08201 0.0
C2001 C 0.40573 0.27679 0.08057 0.0
C2002 C 0.40861 0.2667 0.09744 0.0
C2003 C 0.39332 0.25797 0.10662 0.0
C2004 C 0.375 0.25938 0.0991 0.0
H2005 H 0.46377 0.63503 0.80972 0.0
H2006 H 0.48399 0.66999 0.85536 0.0
H2007 H 0.49384 0.61001 0.85625 0.0
H2008 H 0.49388 0.62908 0.89869 0.0
C2009 C 0.49132 0.64268 0.89124 0.0
O2010 O 0.49993 0.64215 0.87374 0.0
H2011 H 0.47575 0.64477 0.89 0.0
C2012 C 0.47141 0.63664 0.82292 0.0
C2013 C 0.4788 0.62048 0.83177 0.0
C2014 C 0.4727 0.65457 0.83143 0.0
C2015 C 0.48256 0.65632 0.84858 0.0
C2016 C 0.49024 0.64027 0.8574 0.0
C2017 C 0.48807 0.62234 0.84919 0.0
H2018 H 0.11323 0.7128 0.56044 0.0
H2019 H 0.0764 0.73349 0.60439 0.0
H2020 H 0.13602 0.74516 0.60656 0.0
H2021 H 0.1167 0.74602 0.64792 0.0
C2022 C 0.10306 0.74283 0.6408 0.0
O2023 O 0.10319 0.75084 0.62299 0.0
H2024 H 0.10112 0.72721 0.63992 0.0
C2025 C 0.11102 0.72081 0.57334 0.0
C2026 C 0.1267 0.72897 0.58236 0.0
C2027 C 0.09282 0.72189 0.58127 0.0
C2028 C 0.09029 0.73224 0.59804 0.0
C2029 C 0.10585 0.7407 0.60702 0.0
C2030 C 0.12407 0.73879 0.59938 0.0
H2031 H 0.03507 0.36334 0.30981 0.0
H2032 H 0.0152 0.32586 0.35359 0.0
H2033 H 0.00287 0.38533 0.35645 0.0
H2034 H 0.00312 0.36622 0.39718 0.0
C2035 C 0.00589 0.35234 0.39035 0.0
O2036 O 0.99773 0.35228 0.37262 0.0
H2037 H 0.02144 0.34994 0.38937 0.0
C2038 C 0.02722 0.36092 0.32277 0.0
C2039 C 0.01896 0.37642 0.33201 0.0
C2040 C 0.0264 0.34263 0.33052 0.0
C2041 C 0.01624 0.33983 0.34737 0.0
C2042 C 0.00769 0.3552 0.35658 0.0
C2043 C 0.00931 0.37352 0.34909 0.0
H2044 H 0.38489 0.71348 0.43893 0.0
H2045 H 0.42135 0.7329 0.39411 0.0
H2046 H 0.36177 0.74481 0.39225 0.0
H2047 H 0.3808 0.74408 0.35065 0.0
C2048 C 0.39454 0.74142 0.3578 0.0
O2049 O 0.39441 0.74991 0.37536 0.0
H2050 H 0.39662 0.72583 0.35891 0.0
C2051 C 0.387 0.72116 0.42582 0.0
C2052 C 0.37127 0.72919 0.41676 0.0
C2053 C 0.40512 0.72194 0.41767 0.0
C2054 C 0.40752 0.73189 0.40063 0.0
C2055 C 0.39191 0.74019 0.3916 0.0
C2056 C 0.37376 0.73857 0.39947 0.0
H2057 H 0.03522 0.63544 0.18873 0.0
H2058 H 0.01535 0.67248 0.14458 0.0
H2059 H 0.00233 0.61313 0.14275 0.0
H2060 H 0.00248 0.63122 0.10192 0.0
C2061 C 0.00553 0.64524 0.10833 0.0
O2062 O 0.99747 0.64596 0.12609 0.0
H2063 H 0.02113 0.64736 0.10917 0.0
C2064 C 0.02725 0.63776 0.17583 0.0
C2065 C 0.01875 0.62221 0.16689 0.0
C2066 C 0.02656 0.65594 0.16781 0.0
C2067 C 0.01628 0.6586 0.15102 0.0
C2068 C 0.00746 0.64319 0.14213 0.0
C2069 C 0.00895 0.62498 0.14988 0.0
H2070 H 0.11422 0.28564 0.93833 0.0
H2071 H 0.07741 0.26576 0.89401 0.0
H2072 H 0.13695 0.25365 0.89192 0.0
H2073 H 0.11774 0.25353 0.85052 0.0
C2074 C 0.10403 0.25653 0.85761 0.0
O2075 O 0.10416 0.24837 0.87534 0.0
H2076 H 0.10192 0.27212 0.85861 0.0
C2077 C 0.112 0.2778 0.92534 0.0
C2078 C 0.12766 0.26963 0.91628 0.0
C2079 C 0.09382 0.27696 0.91731 0.0
C2080 C 0.09129 0.26684 0.90041 0.0
C2081 C 0.10682 0.25836 0.8914 0.0
C2082 C 0.12503 0.26003 0.89913 0.0
H2083 H 0.46357 0.36399 0.689 0.0
H2084 H 0.48332 0.32844 0.64361 0.0
H2085 H 0.49314 0.3884 0.64183 0.0
H2086 H 0.49253 0.36907 0.59989 0.0
C2087 C 0.49036 0.35538 0.60729 0.0
O2088 O 0.4991 0.35603 0.62472 0.0
H2089 H 0.47486 0.35289 0.60865 0.0
C2090 C 0.47106 0.36221 0.67573 0.0
C2091 C 0.47835 0.37825 0.6666 0.0
C2092 C 0.47228 0.34417 0.66746 0.0
C2093 C 0.48195 0.34219 0.65021 0.0
C2094 C 0.48953 0.35813 0.64111 0.0
C2095 C 0.48744 0.37616 0.6491 0.0
H2096 H 0.0597 0.38489 0.28505 0.0
H2097 H 0.10349 0.42227 0.26506 0.0
H2098 H 0.10607 0.36284 0.25252 0.0
H2099 H 0.14692 0.3818 0.25248 0.0
C2100 C 0.14011 0.39564 0.25548 0.0
O2101 O 0.12234 0.39584 0.24741 0.0
H2102 H 0.13921 0.39778 0.27108 0.0
C2103 C 0.07262 0.38729 0.27713 0.0
C2104 C 0.08176 0.37178 0.26877 0.0
C2105 C 0.08043 0.40555 0.27633 0.0
C2106 C 0.09723 0.40833 0.26609 0.0
C2107 C 0.10634 0.39295 0.25743 0.0
C2108 C 0.09879 0.37466 0.25903 0.0
H2109 H 0.36341 0.30972 0.03499 0.0
H2110 H 0.32586 0.35369 0.0157 0.0
H2111 H 0.38515 0.35622 0.00245 0.0
H2112 H 0.36684 0.39665 0.00331 0.0
C2113 C 0.35271 0.39029 0.00598 0.0
O2114 O 0.35211 0.37257 0.99781 0.0
H2115 H 0.35018 0.38936 0.02152 0.0
C2116 C 0.36094 0.32266 0.02715 0.0
C2117 C 0.37636 0.33185 0.01868 0.0
C2118 C 0.34267 0.33052 0.0266 0.0
C2119 C 0.33981 0.34739 0.01651 0.0
C2120 C 0.35509 0.3565 0.00769 0.0
C2121 C 0.37339 0.34892 0.00904 0.0
H2122 H 0.43793 0.61505 0.78547 0.0
H2123 H 0.39191 0.58014 0.76607 0.0
H2124 H 0.39174 0.63986 0.75471 0.0
H2125 H 0.34907 0.6211 0.75483 0.0
C2126 C 0.35637 0.60747 0.75763 0.0
O2127 O 0.37398 0.60775 0.74922 0.0
H2128 H 0.35741 0.60552 0.77323 0.0
C2129 C 0.42472 0.61341 0.77784 0.0
C2130 C 0.41606 0.62949 0.77007 0.0
C2131 C 0.416 0.59556 0.77698 0.0
C2132 C 0.39881 0.59377 0.76719 0.0
C2133 C 0.39022 0.60972 0.75906 0.0
C2134 C 0.39862 0.62761 0.76082 0.0
H2135 H 0.13455 0.68809 0.53572 0.0
H2136 H 0.17129 0.64399 0.51519 0.0
H2137 H 0.11167 0.64189 0.50353 0.0
H2138 H 0.13099 0.60045 0.50285 0.0
C2139 C 0.14462 0.60761 0.50599 0.0
O2140 O 0.14445 0.62538 0.49792 0.0
H2141 H 0.14659 0.60854 0.5216 0.0
C2142 C 0.13673 0.67516 0.52776 0.0
C2143 C 0.12104 0.66614 0.51963 0.0
C2144 C 0.15492 0.66718 0.52672 0.0
C2145 C 0.15741 0.65037 0.51642 0.0
C2146 C 0.14184 0.64139 0.508 0.0
C2147 C 0.12363 0.64907 0.50987 0.0
H2148 H 0.06006 0.61367 0.21314 0.0
H2149 H 0.10369 0.57609 0.23312 0.0
H2150 H 0.10687 0.63561 0.24508 0.0
H2151 H 0.14748 0.61638 0.24488 0.0
C2152 C 0.14061 0.6025 0.24218 0.0
O2153 O 0.12289 0.60252 0.25038 0.0
H2154 H 0.13958 0.60006 0.22664 0.0
C2155 C 0.07301 0.61123 0.22098 0.0
C2156 C 0.08236 0.62674 0.22911 0.0
C2157 C 0.08068 0.5929 0.22189 0.0
C2158 C 0.09754 0.59008 0.23201 0.0
C2159 C 0.10684 0.60546 0.24045 0.0
C2160 C 0.09944 0.6238 0.23874 0.0
H2161 H 0.13552 0.31004 0.96332 0.0
H2162 H 0.1722 0.35446 0.98324 0.0
H2163 H 0.11257 0.35665 0.99487 0.0
H2164 H 0.13189 0.39815 0.99461 0.0
C2165 C 0.14557 0.3909 0.99187 0.0
O2166 O 0.14531 0.37328 0.00024 0.0
H2167 H 0.14759 0.38987 0.97627 0.0
C2168 C 0.13769 0.32308 0.97111 0.0
C2169 C 0.12198 0.33219 0.97912 0.0
C2170 C 0.15586 0.33109 0.97203 0.0
C2171 C 0.15833 0.34804 0.98211 0.0
C2172 C 0.14273 0.35712 0.9904 0.0
C2173 C 0.12454 0.34939 0.98863 0.0
H2174 H 0.43799 0.3841 0.71341 0.0
H2175 H 0.39179 0.41908 0.73227 0.0
H2176 H 0.39188 0.35951 0.74446 0.0
H2177 H 0.34909 0.37815 0.74402 0.0
C2178 C 0.35637 0.39176 0.74105 0.0
O2179 O 0.37396 0.39162 0.74948 0.0
H2180 H 0.35743 0.3935 0.72542 0.0
C2181 C 0.42477 0.38579 0.72101 0.0
C2182 C 0.41618 0.36978 0.72899 0.0
C2183 C 0.41596 0.40361 0.7216 0.0
C2184 C 0.39876 0.40546 0.73135 0.0
C2185 C 0.39023 0.38959 0.73969 0.0
C2186 C 0.39872 0.37171 0.73819 0.0
H2187 H 0.36363 0.68871 0.46372 0.0
H2188 H 0.3268 0.64436 0.48352 0.0
H2189 H 0.38631 0.64234 0.49581 0.0
H2190 H 0.36824 0.60158 0.49553 0.0
C2191 C 0.35418 0.60799 0.49268 0.0
O2192 O 0.35351 0.62567 0.50092 0.0
H2193 H 0.3519 0.60897 0.47711 0.0
C2194 C 0.3614 0.67573 0.47158 0.0
C2195 C 0.37705 0.66667 0.47977 0.0
C2196 C 0.34322 0.66771 0.47241 0.0
C2197 C 0.34067 0.65079 0.4825 0.0
C2198 C 0.35618 0.6418 0.49105 0.0
C2199 C 0.37438 0.64955 0.48942 0.0
H2200 H 0.2851 0.05967 0.38445 0.0
H2201 H 0.26556 0.10402 0.42142 0.0
H2202 H 0.25329 0.10632 0.36193 0.0
H2203 H 0.25374 0.14764 0.38113 0.0
C2204 C 0.25655 0.14052 0.39485 0.0
O2205 O 0.24823 0.12287 0.39477 0.0
H2206 H 0.27216 0.13955 0.39681 0.0
C2207 C 0.27734 0.07271 0.38672 0.0
C2208 C 0.26916 0.08185 0.37112 0.0
C2209 C 0.27659 0.08069 0.40492 0.0
C2210 C 0.26656 0.09764 0.40753 0.0
C2211 C 0.25808 0.10674 0.39204 0.0
C2212 C 0.25966 0.09905 0.37382 0.0
H2213 H 0.7833 0.43852 0.61288 0.0
H2214 H 0.76348 0.39358 0.57678 0.0
H2215 H 0.75158 0.39231 0.63639 0.0
H2216 H 0.75145 0.35099 0.61855 0.0
C2217 C 0.75469 0.35754 0.60463 0.0
O2218 O 0.74635 0.37517 0.60386 0.0
H2219 H 0.77031 0.35862 0.60285 0.0
C2220 C 0.77549 0.42547 0.61088 0.0
C2221 C 0.76744 0.41659 0.62669 0.0
C2222 C 0.77459 0.4172 0.59281 0.0
C2223 C 0.76456 0.40021 0.59056 0.0
C2224 C 0.75615 0.39139 0.60624 0.0
C2225 C 0.75785 0.3994 0.62433 0.0
H2226 H 0.30994 0.03487 0.36332 0.0
H2227 H 0.35409 0.01515 0.32621 0.0
H2228 H 0.35638 0.00264 0.38566 0.0
H2229 H 0.39733 0.00281 0.36688 0.0
C2230 C 0.39058 0.00571 0.35298 0.0
O2231 O 0.37285 0.99757 0.35274 0.0
H2232 H 0.38963 0.02129 0.35074 0.0
C2233 C 0.32291 0.02701 0.361 0.0
C2234 C 0.33202 0.01873 0.37657 0.0
C2235 C 0.33085 0.02626 0.34278 0.0
C2236 C 0.34774 0.01614 0.34012 0.0
C2237 C 0.35679 0.00753 0.35555 0.0
C2238 C 0.34913 0.0091 0.3738 0.0
H2239 H 0.71252 0.55931 0.11349 0.0
H2240 H 0.73221 0.60406 0.07708 0.0
H2241 H 0.74331 0.60624 0.1368 0.0
H2242 H 0.74254 0.64778 0.11742 0.0
C2243 C 0.74025 0.64052 0.10368 0.0
O2244 O 0.74879 0.62298 0.10415 0.0
H2245 H 0.72472 0.63933 0.10122 0.0
C2246 C 0.72017 0.57244 0.11142 0.0
C2247 C 0.72794 0.58161 0.12721 0.0
C2248 C 0.72113 0.58053 0.09327 0.0
C2249 C 0.73103 0.59759 0.09093 0.0
C2250 C 0.73908 0.60673 0.10661 0.0
C2251 C 0.73726 0.59894 0.12476 0.0
H2252 H 0.68908 0.46269 0.36497 0.0
H2253 H 0.644 0.48238 0.32898 0.0
H2254 H 0.64215 0.4931 0.38879 0.0
H2255 H 0.60041 0.49242 0.36958 0.0
C2256 C 0.60766 0.49014 0.35582 0.0
O2257 O 0.62518 0.49873 0.35628 0.0
H2258 H 0.60888 0.47462 0.35337 0.0
C2259 C 0.67588 0.47027 0.36304 0.0
C2260 C 0.66679 0.4779 0.37894 0.0
C2261 C 0.66768 0.47132 0.34495 0.0
C2262 C 0.65055 0.48114 0.34278 0.0
C2263 C 0.64147 0.48905 0.35858 0.0
C2264 C 0.64939 0.48714 0.37667 0.0
H2265 H 0.21201 0.93864 0.88331 0.0
H2266 H 0.23065 0.89313 0.91931 0.0
H2267 H 0.24371 0.89234 0.85994 0.0
H2268 H 0.24258 0.85034 0.87861 0.0
C2269 C 0.24004 0.85732 0.89246 0.0
O2270 O 0.24835 0.87497 0.89241 0.0
H2271 H 0.22448 0.85826 0.89479 0.0
C2272 C 0.21964 0.92548 0.88533 0.0
C2273 C 0.22793 0.91669 0.86958 0.0
C2274 C 0.22004 0.91698 0.9033 0.0
C2275 C 0.22987 0.89987 0.90558 0.0
C2276 C 0.2385 0.89114 0.88996 0.0
C2277 C 0.23722 0.89933 0.87194 0.0
H2278 H 0.30993 0.96379 0.13541 0.0
H2279 H 0.35445 0.98403 0.17177 0.0
H2280 H 0.35693 0.99433 0.11191 0.0
H2281 H 0.3984 0.99449 0.13139 0.0
C2282 C 0.39108 0.99178 0.14503 0.0
O2283 O 0.37351 0.00027 0.14457 0.0
H2284 H 0.38978 0.97624 0.14732 0.0
C2285 C 0.32304 0.97148 0.13744 0.0
C2286 C 0.33228 0.97905 0.12158 0.0
C2287 C 0.33101 0.97273 0.15562 0.0
C2288 C 0.34806 0.98266 0.15791 0.0
C2289 C 0.35727 0.99051 0.14216 0.0
C2290 C 0.34958 0.98843 0.124 0.0
H2291 H 0.1885 0.03462 0.63507 0.0
H2292 H 0.14447 0.01459 0.67216 0.0
H2293 H 0.14194 0.00265 0.61261 0.0
H2294 H 0.10089 0.00256 0.63173 0.0
C2295 C 0.10785 0.00553 0.6455 0.0
O2296 O 0.12557 0.99733 0.64552 0.0
H2297 H 0.10887 0.02112 0.64763 0.0
C2298 C 0.17552 0.02677 0.63736 0.0
C2299 C 0.16635 0.01863 0.62176 0.0
C2300 C 0.16765 0.02586 0.6556 0.0
C2301 C 0.15078 0.01571 0.65824 0.0
C2302 C 0.14164 0.00727 0.64276 0.0
C2303 C 0.14924 0.009 0.6245 0.0
loop_
_geom_bond_atom_site_label_1
_geom_bond_atom_site_label_2
_geom_bond_distance
_geom_bond_site_symmetry_2
_ccdc_geom_bond_type
O0 Cd1 2.300 . S
O0 C7 1.275 . S
Cd1 O0 2.300 . S
Cd1 O9 2.381 . S
Cd1 O10 2.378 . S
O2 Cd3 2.385 . S
O2 C7 1.255 . S
Cd3 O2 2.385 . S
Cd3 O4 2.317 . S
O4 Cd3 2.317 . S
O4 C5 1.232 . S
C5 O4 1.232 . S
C5 O6 1.218 . S
O6 C5 1.218 . S
C7 O0 1.275 . S
C7 O2 1.255 . S
C8 O9 1.258 . S
C8 O10 1.256 . S
O9 Cd1 2.381 . S
O9 C8 1.258 . S
O10 Cd1 2.378 . S
O10 C8 1.256 . S
O11 Cd12 2.300 . S
O11 C18 1.275 . S
Cd12 O11 2.300 . S
Cd12 O20 2.381 . S
Cd12 O21 2.378 . S
O13 Cd14 2.385 . S
O13 C18 1.255 . S
Cd14 O13 2.385 . S
Cd14 O15 2.317 . S
O15 Cd14 2.317 . S
O15 C16 1.232 . S
C16 O15 1.232 . S
C16 O17 1.218 . S
O17 C16 1.218 . S
C18 O11 1.275 . S
C18 O13 1.255 . S
C19 O20 1.258 . S
C19 O21 1.256 . S
O20 Cd12 2.381 . S
O20 C19 1.258 . S
O21 Cd12 2.378 . S
O21 C19 1.256 . S
O22 Cd23 2.300 . S
O22 C29 1.275 . S
Cd23 O22 2.300 . S
Cd23 O31 2.381 . S
Cd23 O32 2.378 . S
O24 Cd25 2.385 . S
O24 C29 1.255 . S
Cd25 O24 2.385 . S
Cd25 O26 2.317 . S
O26 Cd25 2.317 . S
O26 C27 1.232 . S
C27 O26 1.232 . S
C27 O28 1.218 . S
O28 C27 1.218 . S
C29 O22 1.275 . S
C29 O24 1.255 . S
C30 O31 1.258 . S
C30 O32 1.256 . S
O31 Cd23 2.381 . S
O31 C30 1.258 . S
O32 Cd23 2.378 . S
O32 C30 1.256 . S
O33 Cd34 2.300 . S
O33 C40 1.275 . S
Cd34 O33 2.300 . S
Cd34 O42 2.381 . S
Cd34 O43 2.378 . S
O35 Cd36 2.385 . S
O35 C40 1.255 . S
Cd36 O35 2.385 . S
Cd36 O37 2.317 . S
O37 Cd36 2.317 . S
O37 C38 1.232 . S
C38 O37 1.232 . S
C38 O39 1.218 . S
O39 C38 1.218 . S
C40 O33 1.275 . S
C40 O35 1.255 . S
C41 O42 1.258 . S
C41 O43 1.256 . S
O42 Cd34 2.381 . S
O42 C41 1.258 . S
O43 Cd34 2.378 . S
O43 C41 1.256 . S
O44 Cd45 2.300 . S
O44 C51 1.275 . S
Cd45 O44 2.300 . S
Cd45 O53 2.381 . S
Cd45 O54 2.378 . S
O46 Cd47 2.385 . S
O46 C51 1.255 . S
Cd47 O46 2.385 . S
Cd47 O48 2.317 . S
O48 Cd47 2.317 . S
O48 C49 1.232 . S
C49 O48 1.232 . S
C49 O50 1.218 . S
O50 C49 1.218 . S
C51 O44 1.275 . S
C51 O46 1.255 . S
C52 O53 1.258 . S
C52 O54 1.256 . S
O53 Cd45 2.381 . S
O53 C52 1.258 . S
O54 Cd45 2.378 . S
O54 C52 1.256 . S
O55 Cd56 2.300 . S
O55 C62 1.275 . S
Cd56 O55 2.300 . S
Cd56 O64 2.381 . S
Cd56 O65 2.378 . S
O57 Cd58 2.385 . S
O57 C62 1.255 . S
Cd58 O57 2.385 . S
Cd58 O59 2.317 . S
O59 Cd58 2.317 . S
O59 C60 1.232 . S
C60 O59 1.232 . S
C60 O61 1.218 . S
O61 C60 1.218 . S
C62 O55 1.275 . S
C62 O57 1.255 . S
C63 O64 1.258 . S
C63 O65 1.256 . S
O64 Cd56 2.381 . S
O64 C63 1.258 . S
O65 Cd56 2.378 . S
O65 C63 1.256 . S
O66 Cd67 2.300 . S
O66 C73 1.275 . S
Cd67 O66 2.300 . S
Cd67 O75 2.381 . S
Cd67 O76 2.378 . S
O68 Cd69 2.385 . S
O68 C73 1.255 . S
Cd69 O68 2.385 . S
Cd69 O70 2.317 . S
O70 Cd69 2.317 . S
O70 C71 1.232 . S
C71 O70 1.232 . S
C71 O72 1.218 . S
O72 C71 1.218 . S
C73 O66 1.275 . S
C73 O68 1.255 . S
C74 O75 1.258 . S
C74 O76 1.256 . S
O75 Cd67 2.381 . S
O75 C74 1.258 . S
O76 Cd67 2.378 . S
O76 C74 1.256 . S
O77 Cd78 2.300 . S
O77 C84 1.275 . S
Cd78 O77 2.300 . S
Cd78 O86 2.381 . S
Cd78 O87 2.378 . S
O79 Cd80 2.385 . S
O79 C84 1.255 . S
Cd80 O79 2.385 . S
Cd80 O81 2.317 . S
O81 Cd80 2.317 . S
O81 C82 1.232 . S
C82 O81 1.232 . S
C82 O83 1.218 . S
O83 C82 1.218 . S
C84 O77 1.275 . S
C84 O79 1.255 . S
C85 O86 1.258 . S
C85 O87 1.256 . S
O86 Cd78 2.381 . S
O86 C85 1.258 . S
O87 Cd78 2.378 . S
O87 C85 1.256 . S
O88 Cd89 2.300 . S
O88 C95 1.275 . S
Cd89 O88 2.300 . S
Cd89 O97 2.381 . S
Cd89 O98 2.378 . S
O90 Cd91 2.385 . S
O90 C95 1.255 . S
Cd91 O90 2.385 . S
Cd91 O92 2.317 . S
O92 Cd91 2.317 . S
O92 C93 1.232 . S
C93 O92 1.232 . S
C93 O94 1.218 . S
O94 C93 1.218 . S
C95 O88 1.275 . S
C95 O90 1.255 . S
C96 O97 1.258 . S
C96 O98 1.256 . S
O97 Cd89 2.381 . S
O97 C96 1.258 . S
O98 Cd89 2.378 . S
O98 C96 1.256 . S
O99 Cd100 2.300 . S
O99 C106 1.275 . S
Cd100 O99 2.300 . S
Cd100 O108 2.381 . S
Cd100 O109 2.378 . S
O101 Cd102 2.385 . S
O101 C106 1.255 . S
Cd102 O101 2.385 . S
Cd102 O103 2.317 . S
O103 Cd102 2.317 . S
O103 C104 1.232 . S
C104 O103 1.232 . S
C104 O105 1.218 . S
O105 C104 1.218 . S
C106 O99 1.275 . S
C106 O101 1.255 . S
C107 O108 1.258 . S
C107 O109 1.256 . S
O108 Cd100 2.381 . S
O108 C107 1.258 . S
O109 Cd100 2.378 . S
O109 C107 1.256 . S
O110 Cd111 2.300 . S
O110 C117 1.275 . S
Cd111 O110 2.300 . S
Cd111 O119 2.381 . S
Cd111 O120 2.378 . S
O112 Cd113 2.385 . S
O112 C117 1.255 . S
Cd113 O112 2.385 . S
Cd113 O114 2.317 . S
O114 Cd113 2.317 . S
O114 C115 1.232 . S
C115 O114 1.232 . S
C115 O116 1.218 . S
O116 C115 1.218 . S
C117 O110 1.275 . S
C117 O112 1.255 . S
C118 O119 1.258 . S
C118 O120 1.256 . S
O119 Cd111 2.381 . S
O119 C118 1.258 . S
O120 Cd111 2.378 . S
O120 C118 1.256 . S
O121 Cd122 2.300 . S
O121 C128 1.275 . S
Cd122 O121 2.300 . S
Cd122 O130 2.381 . S
Cd122 O131 2.378 . S
O123 Cd124 2.385 . S
O123 C128 1.255 . S
Cd124 O123 2.385 . S
Cd124 O125 2.317 . S
O125 Cd124 2.317 . S
O125 C126 1.232 . S
C126 O125 1.232 . S
C126 O127 1.218 . S
O127 C126 1.218 . S
C128 O121 1.275 . S
C128 O123 1.255 . S
C129 O130 1.258 . S
C129 O131 1.256 . S
O130 Cd122 2.381 . S
O130 C129 1.258 . S
O131 Cd122 2.378 . S
O131 C129 1.256 . S
O132 Cd133 2.300 . S
O132 C139 1.275 . S
Cd133 O132 2.300 . S
Cd133 O141 2.381 . S
Cd133 O142 2.378 . S
O134 Cd135 2.385 . S
O134 C139 1.255 . S
Cd135 O134 2.385 . S
Cd135 O136 2.317 . S
O136 Cd135 2.317 . S
O136 C137 1.232 . S
C137 O136 1.232 . S
C137 O138 1.218 . S
O138 C137 1.218 . S
C139 O132 1.275 . S
C139 O134 1.255 . S
C140 O141 1.258 . S
C140 O142 1.256 . S
O141 Cd133 2.381 . S
O141 C140 1.258 . S
O142 Cd133 2.378 . S
O142 C140 1.256 . S
O143 Cd144 2.300 . S
O143 C150 1.275 . S
Cd144 O143 2.300 . S
Cd144 O152 2.381 . S
Cd144 O153 2.378 . S
O145 Cd146 2.385 . S
O145 C150 1.255 . S
Cd146 O145 2.385 . S
Cd146 O147 2.317 . S
O147 Cd146 2.317 . S
O147 C148 1.232 . S
C148 O147 1.232 . S
C148 O149 1.218 . S
O149 C148 1.218 . S
C150 O143 1.275 . S
C150 O145 1.255 . S
C151 O152 1.258 . S
C151 O153 1.256 . S
O152 Cd144 2.381 . S
O152 C151 1.258 . S
O153 Cd144 2.378 . S
O153 C151 1.256 . S
O154 Cd155 2.300 . S
O154 C161 1.275 . S
Cd155 O154 2.300 . S
Cd155 O163 2.381 . S
Cd155 O164 2.378 . S
O156 Cd157 2.385 . S
O156 C161 1.255 . S
Cd157 O156 2.385 . S
Cd157 O158 2.317 . S
O158 Cd157 2.317 . S
O158 C159 1.232 . S
C159 O158 1.232 . S
C159 O160 1.218 . S
O160 C159 1.218 . S
C161 O154 1.275 . S
C161 O156 1.255 . S
C162 O163 1.258 . S
C162 O164 1.256 . S
O163 Cd155 2.381 . S
O163 C162 1.258 . S
O164 Cd155 2.378 . S
O164 C162 1.256 . S
O165 Cd166 2.300 . S
O165 C172 1.275 . S
Cd166 O165 2.300 . S
Cd166 O174 2.381 . S
Cd166 O175 2.378 . S
O167 Cd168 2.385 . S
O167 C172 1.255 . S
Cd168 O167 2.385 . S
Cd168 O169 2.317 . S
O169 Cd168 2.317 . S
O169 C170 1.232 . S
C170 O169 1.232 . S
C170 O171 1.218 . S
O171 C170 1.218 . S
C172 O165 1.275 . S
C172 O167 1.255 . S
C173 O174 1.258 . S
C173 O175 1.256 . S
O174 Cd166 2.381 . S
O174 C173 1.258 . S
O175 Cd166 2.378 . S
O175 C173 1.256 . S
O176 Cd177 2.300 . S
O176 C183 1.275 . S
Cd177 O176 2.300 . S
Cd177 O185 2.381 . S
Cd177 O186 2.378 . S
O178 Cd179 2.385 . S
O178 C183 1.255 . S
Cd179 O178 2.385 . S
Cd179 O180 2.317 . S
O180 Cd179 2.317 . S
O180 C181 1.232 . S
C181 O180 1.232 . S
C181 O182 1.218 . S
O182 C181 1.218 . S
C183 O176 1.275 . S
C183 O178 1.255 . S
C184 O185 1.258 . S
C184 O186 1.256 . S
O185 Cd177 2.381 . S
O185 C184 1.258 . S
O186 Cd177 2.378 . S
O186 C184 1.256 . S
O187 Cd188 2.300 . S
O187 C194 1.275 . S
Cd188 O187 2.300 . S
Cd188 O196 2.381 . S
Cd188 O197 2.378 . S
O189 Cd190 2.385 . S
O189 C194 1.255 . S
Cd190 O189 2.385 . S
Cd190 O191 2.317 . S
O191 Cd190 2.317 . S
O191 C192 1.232 . S
C192 O191 1.232 . S
C192 O193 1.218 . S
O193 C192 1.218 . S
C194 O187 1.275 . S
C194 O189 1.255 . S
C195 O196 1.258 . S
C195 O197 1.256 . S
O196 Cd188 2.381 . S
O196 C195 1.258 . S
O197 Cd188 2.378 . S
O197 C195 1.256 . S
O198 Cd199 2.300 . S
O198 C205 1.275 . S
Cd199 O198 2.300 . S
Cd199 O207 2.381 . S
Cd199 O208 2.378 . S
O200 Cd201 2.385 . S
O200 C205 1.255 . S
Cd201 O200 2.385 . S
Cd201 O202 2.317 . S
O202 Cd201 2.317 . S
O202 C203 1.232 . S
C203 O202 1.232 . S
C203 O204 1.218 . S
O204 C203 1.218 . S
C205 O198 1.275 . S
C205 O200 1.255 . S
C206 O207 1.258 . S
C206 O208 1.256 . S
O207 Cd199 2.381 . S
O207 C206 1.258 . S
O208 Cd199 2.378 . S
O208 C206 1.256 . S
O209 Cd210 2.300 . S
O209 C216 1.275 . S
Cd210 O209 2.300 . S
Cd210 O218 2.381 . S
Cd210 O219 2.378 . S
O211 Cd212 2.385 . S
O211 C216 1.255 . S
Cd212 O211 2.385 . S
Cd212 O213 2.317 . S
O213 Cd212 2.317 . S
O213 C214 1.232 . S
C214 O213 1.232 . S
C214 O215 1.218 . S
O215 C214 1.218 . S
C216 O209 1.275 . S
C216 O211 1.255 . S
C217 O218 1.258 . S
C217 O219 1.256 . S
O218 Cd210 2.381 . S
O218 C217 1.258 . S
O219 Cd210 2.378 . S
O219 C217 1.256 . S
O220 Cd221 2.300 . S
O220 C227 1.275 . S
Cd221 O220 2.300 . S
Cd221 O229 2.381 . S
Cd221 O230 2.378 . S
O222 Cd223 2.385 . S
O222 C227 1.255 . S
Cd223 O222 2.385 . S
Cd223 O224 2.317 . S
O224 Cd223 2.317 . S
O224 C225 1.232 . S
C225 O224 1.232 . S
C225 O226 1.218 . S
O226 C225 1.218 . S
C227 O220 1.275 . S
C227 O222 1.255 . S
C228 O229 1.258 . S
C228 O230 1.256 . S
O229 Cd221 2.381 . S
O229 C228 1.258 . S
O230 Cd221 2.378 . S
O230 C228 1.256 . S
O231 Cd232 2.300 . S
O231 C238 1.275 . S
Cd232 O231 2.300 . S
Cd232 O240 2.381 . S
Cd232 O241 2.378 . S
O233 Cd234 2.385 . S
O233 C238 1.255 . S
Cd234 O233 2.385 . S
Cd234 O235 2.317 . S
O235 Cd234 2.317 . S
O235 C236 1.232 . S
C236 O235 1.232 . S
C236 O237 1.218 . S
O237 C236 1.218 . S
C238 O231 1.275 . S
C238 O233 1.255 . S
C239 O240 1.258 . S
C239 O241 1.256 . S
O240 Cd232 2.381 . S
O240 C239 1.258 . S
O241 Cd232 2.378 . S
O241 C239 1.256 . S
O242 Cd243 2.300 . S
O242 C249 1.275 . S
Cd243 O242 2.300 . S
Cd243 O251 2.381 . S
Cd243 O252 2.378 . S
O244 Cd245 2.385 . S
O244 C249 1.255 . S
Cd245 O244 2.385 . S
Cd245 O246 2.317 . S
O246 Cd245 2.317 . S
O246 C247 1.232 . S
C247 O246 1.232 . S
C247 O248 1.218 . S
O248 C247 1.218 . S
C249 O242 1.275 . S
C249 O244 1.255 . S
C250 O251 1.258 . S
C250 O252 1.256 . S
O251 Cd243 2.381 . S
O251 C250 1.258 . S
O252 Cd243 2.378 . S
O252 C250 1.256 . S
O253 Cd254 2.300 . S
O253 C260 1.275 . S
Cd254 O253 2.300 . S
Cd254 O262 2.381 . S
Cd254 O263 2.378 . S
O255 Cd256 2.385 . S
O255 C260 1.255 . S
Cd256 O255 2.385 . S
Cd256 O257 2.317 . S
O257 Cd256 2.317 . S
O257 C258 1.232 . S
C258 O257 1.232 . S
C258 O259 1.218 . S
O259 C258 1.218 . S
C260 O253 1.275 . S
C260 O255 1.255 . S
C261 O262 1.258 . S
C261 O263 1.256 . S
O262 Cd254 2.381 . S
O262 C261 1.258 . S
O263 Cd254 2.378 . S
O263 C261 1.256 . S
O264 Cd265 2.300 . S
O264 C271 1.275 . S
Cd265 O264 2.300 . S
Cd265 O273 2.381 . S
Cd265 O274 2.378 . S
O266 Cd267 2.385 . S
O266 C271 1.255 . S
Cd267 O266 2.385 . S
Cd267 O268 2.317 . S
O268 Cd267 2.317 . S
O268 C269 1.232 . S
C269 O268 1.232 . S
C269 O270 1.218 . S
O270 C269 1.218 . S
C271 O264 1.275 . S
C271 O266 1.255 . S
C272 O273 1.258 . S
C272 O274 1.256 . S
O273 Cd265 2.381 . S
O273 C272 1.258 . S
O274 Cd265 2.378 . S
O274 C272 1.256 . S
O275 Cd276 2.300 . S
O275 C282 1.275 . S
Cd276 O275 2.300 . S
Cd276 O284 2.381 . S
Cd276 O285 2.378 . S
O277 Cd278 2.385 . S
O277 C282 1.255 . S
Cd278 O277 2.385 . S
Cd278 O279 2.317 . S
O279 Cd278 2.317 . S
O279 C280 1.232 . S
C280 O279 1.232 . S
C280 O281 1.218 . S
O281 C280 1.218 . S
C282 O275 1.275 . S
C282 O277 1.255 . S
C283 O284 1.258 . S
C283 O285 1.256 . S
O284 Cd276 2.381 . S
O284 C283 1.258 . S
O285 Cd276 2.378 . S
O285 C283 1.256 . S
O286 Cd287 2.300 . S
O286 C293 1.275 . S
Cd287 O286 2.300 . S
Cd287 O295 2.381 . S
Cd287 O296 2.378 . S
O288 Cd289 2.385 . S
O288 C293 1.255 . S
Cd289 O288 2.385 . S
Cd289 O290 2.317 . S
O290 Cd289 2.317 . S
O290 C291 1.232 . S
C291 O290 1.232 . S
C291 O292 1.218 . S
O292 C291 1.218 . S
C293 O286 1.275 . S
C293 O288 1.255 . S
C294 O295 1.258 . S
C294 O296 1.256 . S
O295 Cd287 2.381 . S
O295 C294 1.258 . S
O296 Cd287 2.378 . S
O296 C294 1.256 . S
O297 Cd298 2.300 . S
O297 C304 1.275 . S
Cd298 O297 2.300 . S
Cd298 O306 2.381 . S
Cd298 O307 2.378 . S
O299 Cd300 2.385 . S
O299 C304 1.255 . S
Cd300 O299 2.385 . S
Cd300 O301 2.317 . S
O301 Cd300 2.317 . S
O301 C302 1.232 . S
C302 O301 1.232 . S
C302 O303 1.218 . S
O303 C302 1.218 . S
C304 O297 1.275 . S
C304 O299 1.255 . S
C305 O306 1.258 . S
C305 O307 1.256 . S
O306 Cd298 2.381 . S
O306 C305 1.258 . S
O307 Cd298 2.378 . S
O307 C305 1.256 . S
O308 Cd309 2.300 . S
O308 C315 1.275 . S
Cd309 O308 2.300 . S
Cd309 O317 2.381 . S
Cd309 O318 2.378 . S
O310 Cd311 2.385 . S
O310 C315 1.255 . S
Cd311 O310 2.385 . S
Cd311 O312 2.317 . S
O312 Cd311 2.317 . S
O312 C313 1.232 . S
C313 O312 1.232 . S
C313 O314 1.218 . S
O314 C313 1.218 . S
C315 O308 1.275 . S
C315 O310 1.255 . S
C316 O317 1.258 . S
C316 O318 1.256 . S
O317 Cd309 2.381 . S
O317 C316 1.258 . S
O318 Cd309 2.378 . S
O318 C316 1.256 . S
O319 Cd320 2.300 . S
O319 C326 1.275 . S
Cd320 O319 2.300 . S
Cd320 O328 2.381 . S
Cd320 O329 2.378 . S
O321 Cd322 2.385 . S
O321 C326 1.255 . S
Cd322 O321 2.385 . S
Cd322 O323 2.317 . S
O323 Cd322 2.317 . S
O323 C324 1.232 . S
C324 O323 1.232 . S
C324 O325 1.218 . S
O325 C324 1.218 . S
C326 O319 1.275 . S
C326 O321 1.255 . S
C327 O328 1.258 . S
C327 O329 1.256 . S
O328 Cd320 2.381 . S
O328 C327 1.258 . S
O329 Cd320 2.378 . S
O329 C327 1.256 . S
O330 Cd331 2.300 . S
O330 C337 1.275 . S
Cd331 O330 2.300 . S
Cd331 O339 2.381 . S
Cd331 O340 2.378 . S
O332 Cd333 2.385 . S
O332 C337 1.255 . S
Cd333 O332 2.385 . S
Cd333 O334 2.317 . S
O334 Cd333 2.317 . S
O334 C335 1.232 . S
C335 O334 1.232 . S
C335 O336 1.218 . S
O336 C335 1.218 . S
C337 O330 1.275 . S
C337 O332 1.255 . S
C338 O339 1.258 . S
C338 O340 1.256 . S
O339 Cd331 2.381 . S
O339 C338 1.258 . S
O340 Cd331 2.378 . S
O340 C338 1.256 . S
O341 Cd342 2.300 . S
O341 C348 1.275 . S
Cd342 O341 2.300 . S
Cd342 O350 2.381 . S
Cd342 O351 2.378 . S
O343 Cd344 2.385 . S
O343 C348 1.255 . S
Cd344 O343 2.385 . S
Cd344 O345 2.317 . S
O345 Cd344 2.317 . S
O345 C346 1.232 . S
C346 O345 1.232 . S
C346 O347 1.218 . S
O347 C346 1.218 . S
C348 O341 1.275 . S
C348 O343 1.255 . S
C349 O350 1.258 . S
C349 O351 1.256 . S
O350 Cd342 2.381 . S
O350 C349 1.258 . S
O351 Cd342 2.378 . S
O351 C349 1.256 . S
O352 Cd353 2.300 . S
O352 C359 1.275 . S
Cd353 O352 2.300 . S
Cd353 O361 2.381 . S
Cd353 O362 2.378 . S
O354 Cd355 2.385 . S
O354 C359 1.255 . S
Cd355 O354 2.385 . S
Cd355 O356 2.317 . S
O356 Cd355 2.317 . S
O356 C357 1.232 . S
C357 O356 1.232 . S
C357 O358 1.218 . S
O358 C357 1.218 . S
C359 O352 1.275 . S
C359 O354 1.255 . S
C360 O361 1.258 . S
C360 O362 1.256 . S
O361 Cd353 2.381 . S
O361 C360 1.258 . S
O362 Cd353 2.378 . S
O362 C360 1.256 . S
O363 Cd364 2.300 . S
O363 C370 1.275 . S
Cd364 O363 2.300 . S
Cd364 O372 2.381 . S
Cd364 O373 2.378 . S
O365 Cd366 2.385 . S
O365 C370 1.255 . S
Cd366 O365 2.385 . S
Cd366 O367 2.317 . S
O367 Cd366 2.317 . S
O367 C368 1.232 . S
C368 O367 1.232 . S
C368 O369 1.218 . S
O369 C368 1.218 . S
C370 O363 1.275 . S
C370 O365 1.255 . S
C371 O372 1.258 . S
C371 O373 1.256 . S
O372 Cd364 2.381 . S
O372 C371 1.258 . S
O373 Cd364 2.378 . S
O373 C371 1.256 . S
O374 Cd375 2.300 . S
O374 C381 1.275 . S
Cd375 O374 2.300 . S
Cd375 O383 2.381 . S
Cd375 O384 2.378 . S
O376 Cd377 2.385 . S
O376 C381 1.255 . S
Cd377 O376 2.385 . S
Cd377 O378 2.317 . S
O378 Cd377 2.317 . S
O378 C379 1.232 . S
C379 O378 1.232 . S
C379 O380 1.218 . S
O380 C379 1.218 . S
C381 O374 1.275 . S
C381 O376 1.255 . S
C382 O383 1.258 . S
C382 O384 1.256 . S
O383 Cd375 2.381 . S
O383 C382 1.258 . S
O384 Cd375 2.378 . S
O384 C382 1.256 . S
O385 Cd386 2.300 . S
O385 C392 1.275 . S
Cd386 O385 2.300 . S
Cd386 O394 2.381 . S
Cd386 O395 2.378 . S
O387 Cd388 2.385 . S
O387 C392 1.255 . S
Cd388 O387 2.385 . S
Cd388 O389 2.317 . S
O389 Cd388 2.317 . S
O389 C390 1.232 . S
C390 O389 1.232 . S
C390 O391 1.218 . S
O391 C390 1.218 . S
C392 O385 1.275 . S
C392 O387 1.255 . S
C393 O394 1.258 . S
C393 O395 1.256 . S
O394 Cd386 2.381 . S
O394 C393 1.258 . S
O395 Cd386 2.378 . S
O395 C393 1.256 . S
O396 Cd397 2.300 . S
O396 C403 1.275 . S
Cd397 O396 2.300 . S
Cd397 O405 2.381 . S
Cd397 O406 2.378 . S
O398 Cd399 2.385 . S
O398 C403 1.255 . S
Cd399 O398 2.385 . S
Cd399 O400 2.317 . S
O400 Cd399 2.317 . S
O400 C401 1.232 . S
C401 O400 1.232 . S
C401 O402 1.218 . S
O402 C401 1.218 . S
C403 O396 1.275 . S
C403 O398 1.255 . S
C404 O405 1.258 . S
C404 O406 1.256 . S
O405 Cd397 2.381 . S
O405 C404 1.258 . S
O406 Cd397 2.378 . S
O406 C404 1.256 . S
O407 Cd408 2.300 . S
O407 C414 1.275 . S
Cd408 O407 2.300 . S
Cd408 O416 2.381 . S
Cd408 O417 2.378 . S
O409 Cd410 2.385 . S
O409 C414 1.255 . S
Cd410 O409 2.385 . S
Cd410 O411 2.317 . S
O411 Cd410 2.317 . S
O411 C412 1.232 . S
C412 O411 1.232 . S
C412 O413 1.218 . S
O413 C412 1.218 . S
C414 O407 1.275 . S
C414 O409 1.255 . S
C415 O416 1.258 . S
C415 O417 1.256 . S
O416 Cd408 2.381 . S
O416 C415 1.258 . S
O417 Cd408 2.378 . S
O417 C415 1.256 . S
O418 Cd419 2.300 . S
O418 C425 1.275 . S
Cd419 O418 2.300 . S
Cd419 O427 2.381 . S
Cd419 O428 2.378 . S
O420 Cd421 2.385 . S
O420 C425 1.255 . S
Cd421 O420 2.385 . S
Cd421 O422 2.317 . S
O422 Cd421 2.317 . S
O422 C423 1.232 . S
C423 O422 1.232 . S
C423 O424 1.218 . S
O424 C423 1.218 . S
C425 O418 1.275 . S
C425 O420 1.255 . S
C426 O427 1.258 . S
C426 O428 1.256 . S
O427 Cd419 2.381 . S
O427 C426 1.258 . S
O428 Cd419 2.378 . S
O428 C426 1.256 . S
O429 Cd430 2.300 . S
O429 C436 1.275 . S
Cd430 O429 2.300 . S
Cd430 O438 2.381 . S
Cd430 O439 2.378 . S
O431 Cd432 2.385 . S
O431 C436 1.255 . S
Cd432 O431 2.385 . S
Cd432 O433 2.317 . S
O433 Cd432 2.317 . S
O433 C434 1.232 . S
C434 O433 1.232 . S
C434 O435 1.218 . S
O435 C434 1.218 . S
C436 O429 1.275 . S
C436 O431 1.255 . S
C437 O438 1.258 . S
C437 O439 1.256 . S
O438 Cd430 2.381 . S
O438 C437 1.258 . S
O439 Cd430 2.378 . S
O439 C437 1.256 . S
O440 Cd441 2.300 . S
O440 C447 1.275 . S
Cd441 O440 2.300 . S
Cd441 O449 2.381 . S
Cd441 O450 2.378 . S
O442 Cd443 2.385 . S
O442 C447 1.255 . S
Cd443 O442 2.385 . S
Cd443 O444 2.317 . S
O444 Cd443 2.317 . S
O444 C445 1.232 . S
C445 O444 1.232 . S
C445 O446 1.218 . S
O446 C445 1.218 . S
C447 O440 1.275 . S
C447 O442 1.255 . S
C448 O449 1.258 . S
C448 O450 1.256 . S
O449 Cd441 2.381 . S
O449 C448 1.258 . S
O450 Cd441 2.378 . S
O450 C448 1.256 . S
O451 Cd452 2.300 . S
O451 C458 1.275 . S
Cd452 O451 2.300 . S
Cd452 O460 2.381 . S
Cd452 O461 2.378 . S
O453 Cd454 2.385 . S
O453 C458 1.255 . S
Cd454 O453 2.385 . S
Cd454 O455 2.317 . S
O455 Cd454 2.317 . S
O455 C456 1.232 . S
C456 O455 1.232 . S
C456 O457 1.218 . S
O457 C456 1.218 . S
C458 O451 1.275 . S
C458 O453 1.255 . S
C459 O460 1.258 . S
C459 O461 1.256 . S
O460 Cd452 2.381 . S
O460 C459 1.258 . S
O461 Cd452 2.378 . S
O461 C459 1.256 . S
O462 Cd463 2.300 . S
O462 C469 1.275 . S
Cd463 O462 2.300 . S
Cd463 O471 2.381 . S
Cd463 O472 2.378 . S
O464 Cd465 2.385 . S
O464 C469 1.255 . S
Cd465 O464 2.385 . S
Cd465 O466 2.317 . S
O466 Cd465 2.317 . S
O466 C467 1.232 . S
C467 O466 1.232 . S
C467 O468 1.218 . S
O468 C467 1.218 . S
C469 O462 1.275 . S
C469 O464 1.255 . S
C470 O471 1.258 . S
C470 O472 1.256 . S
O471 Cd463 2.381 . S
O471 C470 1.258 . S
O472 Cd463 2.378 . S
O472 C470 1.256 . S
O473 Cd474 2.300 . S
O473 C480 1.275 . S
Cd474 O473 2.300 . S
Cd474 O482 2.381 . S
Cd474 O483 2.378 . S
O475 Cd476 2.385 . S
O475 C480 1.255 . S
Cd476 O475 2.385 . S
Cd476 O477 2.317 . S
O477 Cd476 2.317 . S
O477 C478 1.232 . S
C478 O477 1.232 . S
C478 O479 1.218 . S
O479 C478 1.218 . S
C480 O473 1.275 . S
C480 O475 1.255 . S
C481 O482 1.258 . S
C481 O483 1.256 . S
O482 Cd474 2.381 . S
O482 C481 1.258 . S
O483 Cd474 2.378 . S
O483 C481 1.256 . S
O484 Cd485 2.300 . S
O484 C491 1.275 . S
Cd485 O484 2.300 . S
Cd485 O493 2.381 . S
Cd485 O494 2.378 . S
O486 Cd487 2.385 . S
O486 C491 1.255 . S
Cd487 O486 2.385 . S
Cd487 O488 2.317 . S
O488 Cd487 2.317 . S
O488 C489 1.232 . S
C489 O488 1.232 . S
C489 O490 1.218 . S
O490 C489 1.218 . S
C491 O484 1.275 . S
C491 O486 1.255 . S
C492 O493 1.258 . S
C492 O494 1.256 . S
O493 Cd485 2.381 . S
O493 C492 1.258 . S
O494 Cd485 2.378 . S
O494 C492 1.256 . S
O495 Cd496 2.300 . S
O495 C502 1.275 . S
Cd496 O495 2.300 . S
Cd496 O504 2.381 . S
Cd496 O505 2.378 . S
O497 Cd498 2.385 . S
O497 C502 1.255 . S
Cd498 O497 2.385 . S
Cd498 O499 2.317 . S
O499 Cd498 2.317 . S
O499 C500 1.232 . S
C500 O499 1.232 . S
C500 O501 1.218 . S
O501 C500 1.218 . S
C502 O495 1.275 . S
C502 O497 1.255 . S
C503 O504 1.258 . S
C503 O505 1.256 . S
O504 Cd496 2.381 . S
O504 C503 1.258 . S
O505 Cd496 2.378 . S
O505 C503 1.256 . S
O506 Cd507 2.300 . S
O506 C513 1.275 . S
Cd507 O506 2.300 . S
Cd507 O515 2.381 . S
Cd507 O516 2.378 . S
O508 Cd509 2.385 . S
O508 C513 1.255 . S
Cd509 O508 2.385 . S
Cd509 O510 2.317 . S
O510 Cd509 2.317 . S
O510 C511 1.232 . S
C511 O510 1.232 . S
C511 O512 1.218 . S
O512 C511 1.218 . S
C513 O506 1.275 . S
C513 O508 1.255 . S
C514 O515 1.258 . S
C514 O516 1.256 . S
O515 Cd507 2.381 . S
O515 C514 1.258 . S
O516 Cd507 2.378 . S
O516 C514 1.256 . S
O517 Cd518 2.300 . S
O517 C524 1.275 . S
Cd518 O517 2.300 . S
Cd518 O526 2.381 . S
Cd518 O527 2.378 . S
O519 Cd520 2.385 . S
O519 C524 1.255 . S
Cd520 O519 2.385 . S
Cd520 O521 2.317 . S
O521 Cd520 2.317 . S
O521 C522 1.232 . S
C522 O521 1.232 . S
C522 O523 1.218 . S
O523 C522 1.218 . S
C524 O517 1.275 . S
C524 O519 1.255 . S
C525 O526 1.258 . S
C525 O527 1.256 . S
O526 Cd518 2.381 . S
O526 C525 1.258 . S
O527 Cd518 2.378 . S
O527 C525 1.256 . S
O528 Cd529 2.300 . S
O528 C535 1.275 . S
Cd529 O528 2.300 . S
Cd529 O537 2.381 . S
Cd529 O538 2.378 . S
O530 Cd531 2.385 . S
O530 C535 1.255 . S
Cd531 O530 2.385 . S
Cd531 O532 2.317 . S
O532 Cd531 2.317 . S
O532 C533 1.232 . S
C533 O532 1.232 . S
C533 O534 1.218 . S
O534 C533 1.218 . S
C535 O528 1.275 . S
C535 O530 1.255 . S
C536 O537 1.258 . S
C536 O538 1.256 . S
O537 Cd529 2.381 . S
O537 C536 1.258 . S
O538 Cd529 2.378 . S
O538 C536 1.256 . S
O539 Cd540 2.300 . S
O539 C546 1.275 . S
Cd540 O539 2.300 . S
Cd540 O548 2.381 . S
Cd540 O549 2.378 . S
O541 Cd542 2.385 . S
O541 C546 1.255 . S
Cd542 O541 2.385 . S
Cd542 O543 2.317 . S
O543 Cd542 2.317 . S
O543 C544 1.232 . S
C544 O543 1.232 . S
C544 O545 1.218 . S
O545 C544 1.218 . S
C546 O539 1.275 . S
C546 O541 1.255 . S
C547 O548 1.258 . S
C547 O549 1.256 . S
O548 Cd540 2.381 . S
O548 C547 1.258 . S
O549 Cd540 2.378 . S
O549 C547 1.256 . S
O550 Cd551 2.300 . S
O550 C557 1.275 . S
Cd551 O550 2.300 . S
Cd551 O559 2.381 . S
Cd551 O560 2.378 . S
O552 Cd553 2.385 . S
O552 C557 1.255 . S
Cd553 O552 2.385 . S
Cd553 O554 2.317 . S
O554 Cd553 2.317 . S
O554 C555 1.232 . S
C555 O554 1.232 . S
C555 O556 1.218 . S
O556 C555 1.218 . S
C557 O550 1.275 . S
C557 O552 1.255 . S
C558 O559 1.258 . S
C558 O560 1.256 . S
O559 Cd551 2.381 . S
O559 C558 1.258 . S
O560 Cd551 2.378 . S
O560 C558 1.256 . S
O561 Cd562 2.300 . S
O561 C568 1.275 . S
Cd562 O561 2.300 . S
Cd562 O570 2.381 . S
Cd562 O571 2.378 . S
O563 Cd564 2.385 . S
O563 C568 1.255 . S
Cd564 O563 2.385 . S
Cd564 O565 2.317 . S
O565 Cd564 2.317 . S
O565 C566 1.232 . S
C566 O565 1.232 . S
C566 O567 1.218 . S
O567 C566 1.218 . S
C568 O561 1.275 . S
C568 O563 1.255 . S
C569 O570 1.258 . S
C569 O571 1.256 . S
O570 Cd562 2.381 . S
O570 C569 1.258 . S
O571 Cd562 2.378 . S
O571 C569 1.256 . S
O572 Cd573 2.300 . S
O572 C579 1.275 . S
Cd573 O572 2.300 . S
Cd573 O581 2.381 . S
Cd573 O582 2.378 . S
O574 Cd575 2.385 . S
O574 C579 1.255 . S
Cd575 O574 2.385 . S
Cd575 O576 2.317 . S
O576 Cd575 2.317 . S
O576 C577 1.232 . S
C577 O576 1.232 . S
C577 O578 1.218 . S
O578 C577 1.218 . S
C579 O572 1.275 . S
C579 O574 1.255 . S
C580 O581 1.258 . S
C580 O582 1.256 . S
O581 Cd573 2.381 . S
O581 C580 1.258 . S
O582 Cd573 2.378 . S
O582 C580 1.256 . S
O583 Cd584 2.300 . S
O583 C590 1.275 . S
Cd584 O583 2.300 . S
Cd584 O592 2.381 . S
Cd584 O593 2.378 . S
O585 Cd586 2.385 . S
O585 C590 1.255 . S
Cd586 O585 2.385 . S
Cd586 O587 2.317 . S
O587 Cd586 2.317 . S
O587 C588 1.232 . S
C588 O587 1.232 . S
C588 O589 1.218 . S
O589 C588 1.218 . S
C590 O583 1.275 . S
C590 O585 1.255 . S
C591 O592 1.258 . S
C591 O593 1.256 . S
O592 Cd584 2.381 . S
O592 C591 1.258 . S
O593 Cd584 2.378 . S
O593 C591 1.256 . S
O594 Cd595 2.300 . S
O594 C601 1.275 . S
Cd595 O594 2.300 . S
Cd595 O603 2.381 . S
Cd595 O604 2.378 . S
O596 Cd597 2.385 . S
O596 C601 1.255 . S
Cd597 O596 2.385 . S
Cd597 O598 2.317 . S
O598 Cd597 2.317 . S
O598 C599 1.232 . S
C599 O598 1.232 . S
C599 O600 1.218 . S
O600 C599 1.218 . S
C601 O594 1.275 . S
C601 O596 1.255 . S
C602 O603 1.258 . S
C602 O604 1.256 . S
O603 Cd595 2.381 . S
O603 C602 1.258 . S
O604 Cd595 2.378 . S
O604 C602 1.256 . S
O605 Cd606 2.300 . S
O605 C612 1.275 . S
Cd606 O605 2.300 . S
Cd606 O614 2.381 . S
Cd606 O615 2.378 . S
O607 Cd608 2.385 . S
O607 C612 1.255 . S
Cd608 O607 2.385 . S
Cd608 O609 2.317 . S
O609 Cd608 2.317 . S
O609 C610 1.232 . S
C610 O609 1.232 . S
C610 O611 1.218 . S
O611 C610 1.218 . S
C612 O605 1.275 . S
C612 O607 1.255 . S
C613 O614 1.258 . S
C613 O615 1.256 . S
O614 Cd606 2.381 . S
O614 C613 1.258 . S
O615 Cd606 2.378 . S
O615 C613 1.256 . S
O616 Cd617 2.300 . S
O616 C623 1.275 . S
Cd617 O616 2.300 . S
Cd617 O625 2.381 . S
Cd617 O626 2.378 . S
O618 Cd619 2.385 . S
O618 C623 1.255 . S
Cd619 O618 2.385 . S
Cd619 O620 2.317 . S
O620 Cd619 2.317 . S
O620 C621 1.232 . S
C621 O620 1.232 . S
C621 O622 1.218 . S
O622 C621 1.218 . S
C623 O616 1.275 . S
C623 O618 1.255 . S
C624 O625 1.258 . S
C624 O626 1.256 . S
O625 Cd617 2.381 . S
O625 C624 1.258 . S
O626 Cd617 2.378 . S
O626 C624 1.256 . S
O627 Cd628 2.300 . S
O627 C634 1.275 . S
Cd628 O627 2.300 . S
Cd628 O636 2.381 . S
Cd628 O637 2.378 . S
O629 Cd630 2.385 . S
O629 C634 1.255 . S
Cd630 O629 2.385 . S
Cd630 O631 2.317 . S
O631 Cd630 2.317 . S
O631 C632 1.232 . S
C632 O631 1.232 . S
C632 O633 1.218 . S
O633 C632 1.218 . S
C634 O627 1.275 . S
C634 O629 1.255 . S
C635 O636 1.258 . S
C635 O637 1.256 . S
O636 Cd628 2.381 . S
O636 C635 1.258 . S
O637 Cd628 2.378 . S
O637 C635 1.256 . S
O638 Cd639 2.300 . S
O638 C645 1.275 . S
Cd639 O638 2.300 . S
Cd639 O647 2.381 . S
Cd639 O648 2.378 . S
O640 Cd641 2.385 . S
O640 C645 1.255 . S
Cd641 O640 2.385 . S
Cd641 O642 2.317 . S
O642 Cd641 2.317 . S
O642 C643 1.232 . S
C643 O642 1.232 . S
C643 O644 1.218 . S
O644 C643 1.218 . S
C645 O638 1.275 . S
C645 O640 1.255 . S
C646 O647 1.258 . S
C646 O648 1.256 . S
O647 Cd639 2.381 . S
O647 C646 1.258 . S
O648 Cd639 2.378 . S
O648 C646 1.256 . S
O649 Cd650 2.300 . S
O649 C656 1.275 . S
Cd650 O649 2.300 . S
Cd650 O658 2.381 . S
Cd650 O659 2.378 . S
O651 Cd652 2.385 . S
O651 C656 1.255 . S
Cd652 O651 2.385 . S
Cd652 O653 2.317 . S
O653 Cd652 2.317 . S
O653 C654 1.232 . S
C654 O653 1.232 . S
C654 O655 1.218 . S
O655 C654 1.218 . S
C656 O649 1.275 . S
C656 O651 1.255 . S
C657 O658 1.258 . S
C657 O659 1.256 . S
O658 Cd650 2.381 . S
O658 C657 1.258 . S
O659 Cd650 2.378 . S
O659 C657 1.256 . S
O660 Cd661 2.300 . S
O660 C667 1.275 . S
Cd661 O660 2.300 . S
Cd661 O669 2.381 . S
Cd661 O670 2.378 . S
O662 Cd663 2.385 . S
O662 C667 1.255 . S
Cd663 O662 2.385 . S
Cd663 O664 2.317 . S
O664 Cd663 2.317 . S
O664 C665 1.232 . S
C665 O664 1.232 . S
C665 O666 1.218 . S
O666 C665 1.218 . S
C667 O660 1.275 . S
C667 O662 1.255 . S
C668 O669 1.258 . S
C668 O670 1.256 . S
O669 Cd661 2.381 . S
O669 C668 1.258 . S
O670 Cd661 2.378 . S
O670 C668 1.256 . S
O671 Cd672 2.300 . S
O671 C678 1.275 . S
Cd672 O671 2.300 . S
Cd672 O680 2.381 . S
Cd672 O681 2.378 . S
O673 Cd674 2.385 . S
O673 C678 1.255 . S
Cd674 O673 2.385 . S
Cd674 O675 2.317 . S
O675 Cd674 2.317 . S
O675 C676 1.232 . S
C676 O675 1.232 . S
C676 O677 1.218 . S
O677 C676 1.218 . S
C678 O671 1.275 . S
C678 O673 1.255 . S
C679 O680 1.258 . S
C679 O681 1.256 . S
O680 Cd672 2.381 . S
O680 C679 1.258 . S
O681 Cd672 2.378 . S
O681 C679 1.256 . S
O682 Cd683 2.300 . S
O682 C689 1.275 . S
Cd683 O682 2.300 . S
Cd683 O691 2.381 . S
Cd683 O692 2.378 . S
O684 Cd685 2.385 . S
O684 C689 1.255 . S
Cd685 O684 2.385 . S
Cd685 O686 2.317 . S
O686 Cd685 2.317 . S
O686 C687 1.232 . S
C687 O686 1.232 . S
C687 O688 1.218 . S
O688 C687 1.218 . S
C689 O682 1.275 . S
C689 O684 1.255 . S
C690 O691 1.258 . S
C690 O692 1.256 . S
O691 Cd683 2.381 . S
O691 C690 1.258 . S
O692 Cd683 2.378 . S
O692 C690 1.256 . S
O693 Cd694 2.300 . S
O693 C700 1.275 . S
Cd694 O693 2.300 . S
Cd694 O702 2.381 . S
Cd694 O703 2.378 . S
O695 Cd696 2.385 . S
O695 C700 1.255 . S
Cd696 O695 2.385 . S
Cd696 O697 2.317 . S
O697 Cd696 2.317 . S
O697 C698 1.232 . S
C698 O697 1.232 . S
C698 O699 1.218 . S
O699 C698 1.218 . S
C700 O693 1.275 . S
C700 O695 1.255 . S
C701 O702 1.258 . S
C701 O703 1.256 . S
O702 Cd694 2.381 . S
O702 C701 1.258 . S
O703 Cd694 2.378 . S
O703 C701 1.256 . S
O704 Cd705 2.300 . S
O704 C711 1.275 . S
Cd705 O704 2.300 . S
Cd705 O713 2.381 . S
Cd705 O714 2.378 . S
O706 Cd707 2.385 . S
O706 C711 1.255 . S
Cd707 O706 2.385 . S
Cd707 O708 2.317 . S
O708 Cd707 2.317 . S
O708 C709 1.232 . S
C709 O708 1.232 . S
C709 O710 1.218 . S
O710 C709 1.218 . S
C711 O704 1.275 . S
C711 O706 1.255 . S
C712 O713 1.258 . S
C712 O714 1.256 . S
O713 Cd705 2.381 . S
O713 C712 1.258 . S
O714 Cd705 2.378 . S
O714 C712 1.256 . S
O715 Cd716 2.300 . S
O715 C722 1.275 . S
Cd716 O715 2.300 . S
Cd716 O724 2.381 . S
Cd716 O725 2.378 . S
O717 Cd718 2.385 . S
O717 C722 1.255 . S
Cd718 O717 2.385 . S
Cd718 O719 2.317 . S
O719 Cd718 2.317 . S
O719 C720 1.232 . S
C720 O719 1.232 . S
C720 O721 1.218 . S
O721 C720 1.218 . S
C722 O715 1.275 . S
C722 O717 1.255 . S
C723 O724 1.258 . S
C723 O725 1.256 . S
O724 Cd716 2.381 . S
O724 C723 1.258 . S
O725 Cd716 2.378 . S
O725 C723 1.256 . S
O726 Cd727 2.300 . S
O726 C733 1.275 . S
Cd727 O726 2.300 . S
Cd727 O735 2.381 . S
Cd727 O736 2.378 . S
O728 Cd729 2.385 . S
O728 C733 1.255 . S
Cd729 O728 2.385 . S
Cd729 O730 2.317 . S
O730 Cd729 2.317 . S
O730 C731 1.232 . S
C731 O730 1.232 . S
C731 O732 1.218 . S
O732 C731 1.218 . S
C733 O726 1.275 . S
C733 O728 1.255 . S
C734 O735 1.258 . S
C734 O736 1.256 . S
O735 Cd727 2.381 . S
O735 C734 1.258 . S
O736 Cd727 2.378 . S
O736 C734 1.256 . S
O737 Cd738 2.300 . S
O737 C744 1.275 . S
Cd738 O737 2.300 . S
Cd738 O746 2.381 . S
Cd738 O747 2.378 . S
O739 Cd740 2.385 . S
O739 C744 1.255 . S
Cd740 O739 2.385 . S
Cd740 O741 2.317 . S
O741 Cd740 2.317 . S
O741 C742 1.232 . S
C742 O741 1.232 . S
C742 O743 1.218 . S
O743 C742 1.218 . S
C744 O737 1.275 . S
C744 O739 1.255 . S
C745 O746 1.258 . S
C745 O747 1.256 . S
O746 Cd738 2.381 . S
O746 C745 1.258 . S
O747 Cd738 2.378 . S
O747 C745 1.256 . S
O748 Cd749 2.300 . S
O748 C755 1.275 . S
Cd749 O748 2.300 . S
Cd749 O757 2.381 . S
Cd749 O758 2.378 . S
O750 Cd751 2.385 . S
O750 C755 1.255 . S
Cd751 O750 2.385 . S
Cd751 O752 2.317 . S
O752 Cd751 2.317 . S
O752 C753 1.232 . S
C753 O752 1.232 . S
C753 O754 1.218 . S
O754 C753 1.218 . S
C755 O748 1.275 . S
C755 O750 1.255 . S
C756 O757 1.258 . S
C756 O758 1.256 . S
O757 Cd749 2.381 . S
O757 C756 1.258 . S
O758 Cd749 2.378 . S
O758 C756 1.256 . S
O759 Cd760 2.300 . S
O759 C766 1.275 . S
Cd760 O759 2.300 . S
Cd760 O768 2.381 . S
Cd760 O769 2.378 . S
O761 Cd762 2.385 . S
O761 C766 1.255 . S
Cd762 O761 2.385 . S
Cd762 O763 2.317 . S
O763 Cd762 2.317 . S
O763 C764 1.232 . S
C764 O763 1.232 . S
C764 O765 1.218 . S
O765 C764 1.218 . S
C766 O759 1.275 . S
C766 O761 1.255 . S
C767 O768 1.258 . S
C767 O769 1.256 . S
O768 Cd760 2.381 . S
O768 C767 1.258 . S
O769 Cd760 2.378 . S
O769 C767 1.256 . S
O770 Cd771 2.300 . S
O770 C777 1.275 . S
Cd771 O770 2.300 . S
Cd771 O779 2.381 . S
Cd771 O780 2.378 . S
O772 Cd773 2.385 . S
O772 C777 1.255 . S
Cd773 O772 2.385 . S
Cd773 O774 2.317 . S
O774 Cd773 2.317 . S
O774 C775 1.232 . S
C775 O774 1.232 . S
C775 O776 1.218 . S
O776 C775 1.218 . S
C777 O770 1.275 . S
C777 O772 1.255 . S
C778 O779 1.258 . S
C778 O780 1.256 . S
O779 Cd771 2.381 . S
O779 C778 1.258 . S
O780 Cd771 2.378 . S
O780 C778 1.256 . S
O781 Cd782 2.300 . S
O781 C788 1.275 . S
Cd782 O781 2.300 . S
Cd782 O790 2.381 . S
Cd782 O791 2.378 . S
O783 Cd784 2.385 . S
O783 C788 1.255 . S
Cd784 O783 2.385 . S
Cd784 O785 2.317 . S
O785 Cd784 2.317 . S
O785 C786 1.232 . S
C786 O785 1.232 . S
C786 O787 1.218 . S
O787 C786 1.218 . S
C788 O781 1.275 . S
C788 O783 1.255 . S
C789 O790 1.258 . S
C789 O791 1.256 . S
O790 Cd782 2.381 . S
O790 C789 1.258 . S
O791 Cd782 2.378 . S
O791 C789 1.256 . S
O792 Cd793 2.300 . S
O792 C799 1.275 . S
Cd793 O792 2.300 . S
Cd793 O801 2.381 . S
Cd793 O802 2.378 . S
O794 Cd795 2.385 . S
O794 C799 1.255 . S
Cd795 O794 2.385 . S
Cd795 O796 2.317 . S
O796 Cd795 2.317 . S
O796 C797 1.232 . S
C797 O796 1.232 . S
C797 O798 1.218 . S
O798 C797 1.218 . S
C799 O792 1.275 . S
C799 O794 1.255 . S
C800 O801 1.258 . S
C800 O802 1.256 . S
O801 Cd793 2.381 . S
O801 C800 1.258 . S
O802 Cd793 2.378 . S
O802 C800 1.256 . S
O803 Cd804 2.300 . S
O803 C810 1.275 . S
Cd804 O803 2.300 . S
Cd804 O812 2.381 . S
Cd804 O813 2.378 . S
O805 Cd806 2.385 . S
O805 C810 1.255 . S
Cd806 O805 2.385 . S
Cd806 O807 2.317 . S
O807 Cd806 2.317 . S
O807 C808 1.232 . S
C808 O807 1.232 . S
C808 O809 1.218 . S
O809 C808 1.218 . S
C810 O803 1.275 . S
C810 O805 1.255 . S
C811 O812 1.258 . S
C811 O813 1.256 . S
O812 Cd804 2.381 . S
O812 C811 1.258 . S
O813 Cd804 2.378 . S
O813 C811 1.256 . S
O814 Cd815 2.300 . S
O814 C821 1.275 . S
Cd815 O814 2.300 . S
Cd815 O823 2.381 . S
Cd815 O824 2.378 . S
O816 Cd817 2.385 . S
O816 C821 1.255 . S
Cd817 O816 2.385 . S
Cd817 O818 2.317 . S
O818 Cd817 2.317 . S
O818 C819 1.232 . S
C819 O818 1.232 . S
C819 O820 1.218 . S
O820 C819 1.218 . S
C821 O814 1.275 . S
C821 O816 1.255 . S
C822 O823 1.258 . S
C822 O824 1.256 . S
O823 Cd815 2.381 . S
O823 C822 1.258 . S
O824 Cd815 2.378 . S
O824 C822 1.256 . S
O825 Cd826 2.300 . S
O825 C832 1.275 . S
Cd826 O825 2.300 . S
Cd826 O834 2.381 . S
Cd826 O835 2.378 . S
O827 Cd828 2.385 . S
O827 C832 1.255 . S
Cd828 O827 2.385 . S
Cd828 O829 2.317 . S
O829 Cd828 2.317 . S
O829 C830 1.232 . S
C830 O829 1.232 . S
C830 O831 1.218 . S
O831 C830 1.218 . S
C832 O825 1.275 . S
C832 O827 1.255 . S
C833 O834 1.258 . S
C833 O835 1.256 . S
O834 Cd826 2.381 . S
O834 C833 1.258 . S
O835 Cd826 2.378 . S
O835 C833 1.256 . S
O836 Cd837 2.300 . S
O836 C843 1.275 . S
Cd837 O836 2.300 . S
Cd837 O845 2.381 . S
Cd837 O846 2.378 . S
O838 Cd839 2.385 . S
O838 C843 1.255 . S
Cd839 O838 2.385 . S
Cd839 O840 2.317 . S
O840 Cd839 2.317 . S
O840 C841 1.232 . S
C841 O840 1.232 . S
C841 O842 1.218 . S
O842 C841 1.218 . S
C843 O836 1.275 . S
C843 O838 1.255 . S
C844 O845 1.258 . S
C844 O846 1.256 . S
O845 Cd837 2.381 . S
O845 C844 1.258 . S
O846 Cd837 2.378 . S
O846 C844 1.256 . S
O847 Cd848 2.300 . S
O847 C854 1.275 . S
Cd848 O847 2.300 . S
Cd848 O856 2.381 . S
Cd848 O857 2.378 . S
O849 Cd850 2.385 . S
O849 C854 1.255 . S
Cd850 O849 2.385 . S
Cd850 O851 2.317 . S
O851 Cd850 2.317 . S
O851 C852 1.232 . S
C852 O851 1.232 . S
C852 O853 1.218 . S
O853 C852 1.218 . S
C854 O847 1.275 . S
C854 O849 1.255 . S
C855 O856 1.258 . S
C855 O857 1.256 . S
O856 Cd848 2.381 . S
O856 C855 1.258 . S
O857 Cd848 2.378 . S
O857 C855 1.256 . S
O858 Cd859 2.300 . S
O858 C865 1.275 . S
Cd859 O858 2.300 . S
Cd859 O867 2.381 . S
Cd859 O868 2.378 . S
O860 Cd861 2.385 . S
O860 C865 1.255 . S
Cd861 O860 2.385 . S
Cd861 O862 2.317 . S
O862 Cd861 2.317 . S
O862 C863 1.232 . S
C863 O862 1.232 . S
C863 O864 1.218 . S
O864 C863 1.218 . S
C865 O858 1.275 . S
C865 O860 1.255 . S
C866 O867 1.258 . S
C866 O868 1.256 . S
O867 Cd859 2.381 . S
O867 C866 1.258 . S
O868 Cd859 2.378 . S
O868 C866 1.256 . S
O869 Cd870 2.300 . S
O869 C876 1.275 . S
Cd870 O869 2.300 . S
Cd870 O878 2.381 . S
Cd870 O879 2.378 . S
O871 Cd872 2.385 . S
O871 C876 1.255 . S
Cd872 O871 2.385 . S
Cd872 O873 2.317 . S
O873 Cd872 2.317 . S
O873 C874 1.232 . S
C874 O873 1.232 . S
C874 O875 1.218 . S
O875 C874 1.218 . S
C876 O869 1.275 . S
C876 O871 1.255 . S
C877 O878 1.258 . S
C877 O879 1.256 . S
O878 Cd870 2.381 . S
O878 C877 1.258 . S
O879 Cd870 2.378 . S
O879 C877 1.256 . S
O880 Cd881 2.300 . S
O880 C887 1.275 . S
Cd881 O880 2.300 . S
Cd881 O889 2.381 . S
Cd881 O890 2.378 . S
O882 Cd883 2.385 . S
O882 C887 1.255 . S
Cd883 O882 2.385 . S
Cd883 O884 2.317 . S
O884 Cd883 2.317 . S
O884 C885 1.232 . S
C885 O884 1.232 . S
C885 O886 1.218 . S
O886 C885 1.218 . S
C887 O880 1.275 . S
C887 O882 1.255 . S
C888 O889 1.258 . S
C888 O890 1.256 . S
O889 Cd881 2.381 . S
O889 C888 1.258 . S
O890 Cd881 2.378 . S
O890 C888 1.256 . S
O891 Cd892 2.300 . S
O891 C898 1.275 . S
Cd892 O891 2.300 . S
Cd892 O900 2.381 . S
Cd892 O901 2.378 . S
O893 Cd894 2.385 . S
O893 C898 1.255 . S
Cd894 O893 2.385 . S
Cd894 O895 2.317 . S
O895 Cd894 2.317 . S
O895 C896 1.232 . S
C896 O895 1.232 . S
C896 O897 1.218 . S
O897 C896 1.218 . S
C898 O891 1.275 . S
C898 O893 1.255 . S
C899 O900 1.258 . S
C899 O901 1.256 . S
O900 Cd892 2.381 . S
O900 C899 1.258 . S
O901 Cd892 2.378 . S
O901 C899 1.256 . S
O902 Cd903 2.300 . S
O902 C909 1.275 . S
Cd903 O902 2.300 . S
Cd903 O911 2.381 . S
Cd903 O912 2.378 . S
O904 Cd905 2.385 . S
O904 C909 1.255 . S
Cd905 O904 2.385 . S
Cd905 O906 2.317 . S
O906 Cd905 2.317 . S
O906 C907 1.232 . S
C907 O906 1.232 . S
C907 O908 1.218 . S
O908 C907 1.218 . S
C909 O902 1.275 . S
C909 O904 1.255 . S
C910 O911 1.258 . S
C910 O912 1.256 . S
O911 Cd903 2.381 . S
O911 C910 1.258 . S
O912 Cd903 2.378 . S
O912 C910 1.256 . S
O913 Cd914 2.300 . S
O913 C920 1.275 . S
Cd914 O913 2.300 . S
Cd914 O922 2.381 . S
Cd914 O923 2.378 . S
O915 Cd916 2.385 . S
O915 C920 1.255 . S
Cd916 O915 2.385 . S
Cd916 O917 2.317 . S
O917 Cd916 2.317 . S
O917 C918 1.232 . S
C918 O917 1.232 . S
C918 O919 1.218 . S
O919 C918 1.218 . S
C920 O913 1.275 . S
C920 O915 1.255 . S
C921 O922 1.258 . S
C921 O923 1.256 . S
O922 Cd914 2.381 . S
O922 C921 1.258 . S
O923 Cd914 2.378 . S
O923 C921 1.256 . S
O924 Cd925 2.300 . S
O924 C931 1.275 . S
Cd925 O924 2.300 . S
Cd925 O933 2.381 . S
Cd925 O934 2.378 . S
O926 Cd927 2.385 . S
O926 C931 1.255 . S
Cd927 O926 2.385 . S
Cd927 O928 2.317 . S
O928 Cd927 2.317 . S
O928 C929 1.232 . S
C929 O928 1.232 . S
C929 O930 1.218 . S
O930 C929 1.218 . S
C931 O924 1.275 . S
C931 O926 1.255 . S
C932 O933 1.258 . S
C932 O934 1.256 . S
O933 Cd925 2.381 . S
O933 C932 1.258 . S
O934 Cd925 2.378 . S
O934 C932 1.256 . S
O935 Cd936 2.300 . S
O935 C942 1.275 . S
Cd936 O935 2.300 . S
Cd936 O944 2.381 . S
Cd936 O945 2.378 . S
O937 Cd938 2.385 . S
O937 C942 1.255 . S
Cd938 O937 2.385 . S
Cd938 O939 2.317 . S
O939 Cd938 2.317 . S
O939 C940 1.232 . S
C940 O939 1.232 . S
C940 O941 1.218 . S
O941 C940 1.218 . S
C942 O935 1.275 . S
C942 O937 1.255 . S
C943 O944 1.258 . S
C943 O945 1.256 . S
O944 Cd936 2.381 . S
O944 C943 1.258 . S
O945 Cd936 2.378 . S
O945 C943 1.256 . S
O946 Cd947 2.300 . S
O946 C953 1.275 . S
Cd947 O946 2.300 . S
Cd947 O955 2.381 . S
Cd947 O956 2.378 . S
O948 Cd949 2.385 . S
O948 C953 1.255 . S
Cd949 O948 2.385 . S
Cd949 O950 2.317 . S
O950 Cd949 2.317 . S
O950 C951 1.232 . S
C951 O950 1.232 . S
C951 O952 1.218 . S
O952 C951 1.218 . S
C953 O946 1.275 . S
C953 O948 1.255 . S
C954 O955 1.258 . S
C954 O956 1.256 . S
O955 Cd947 2.381 . S
O955 C954 1.258 . S
O956 Cd947 2.378 . S
O956 C954 1.256 . S
O957 Cd958 2.300 . S
O957 C964 1.275 . S
Cd958 O957 2.300 . S
Cd958 O966 2.381 . S
Cd958 O967 2.378 . S
O959 Cd960 2.385 . S
O959 C964 1.255 . S
Cd960 O959 2.385 . S
Cd960 O961 2.317 . S
O961 Cd960 2.317 . S
O961 C962 1.232 . S
C962 O961 1.232 . S
C962 O963 1.218 . S
O963 C962 1.218 . S
C964 O957 1.275 . S
C964 O959 1.255 . S
C965 O966 1.258 . S
C965 O967 1.256 . S
O966 Cd958 2.381 . S
O966 C965 1.258 . S
O967 Cd958 2.378 . S
O967 C965 1.256 . S
O968 Cd969 2.300 . S
O968 C975 1.275 . S
Cd969 O968 2.300 . S
Cd969 O977 2.381 . S
Cd969 O978 2.378 . S
O970 Cd971 2.385 . S
O970 C975 1.255 . S
Cd971 O970 2.385 . S
Cd971 O972 2.317 . S
O972 Cd971 2.317 . S
O972 C973 1.232 . S
C973 O972 1.232 . S
C973 O974 1.218 . S
O974 C973 1.218 . S
C975 O968 1.275 . S
C975 O970 1.255 . S
C976 O977 1.258 . S
C976 O978 1.256 . S
O977 Cd969 2.381 . S
O977 C976 1.258 . S
O978 Cd969 2.378 . S
O978 C976 1.256 . S
O979 Cd980 2.300 . S
O979 C986 1.275 . S
Cd980 O979 2.300 . S
Cd980 O988 2.381 . S
Cd980 O989 2.378 . S
O981 Cd982 2.385 . S
O981 C986 1.255 . S
Cd982 O981 2.385 . S
Cd982 O983 2.317 . S
O983 Cd982 2.317 . S
O983 C984 1.232 . S
C984 O983 1.232 . S
C984 O985 1.218 . S
O985 C984 1.218 . S
C986 O979 1.275 . S
C986 O981 1.255 . S
C987 O988 1.258 . S
C987 O989 1.256 . S
O988 Cd980 2.381 . S
O988 C987 1.258 . S
O989 Cd980 2.378 . S
O989 C987 1.256 . S
O990 Cd991 2.300 . S
O990 C997 1.275 . S
Cd991 O990 2.300 . S
Cd991 O999 2.381 . S
Cd991 O1000 2.378 . S
O992 Cd993 2.385 . S
O992 C997 1.255 . S
Cd993 O992 2.385 . S
Cd993 O994 2.317 . S
O994 Cd993 2.317 . S
O994 C995 1.232 . S
C995 O994 1.232 . S
C995 O996 1.218 . S
O996 C995 1.218 . S
C997 O990 1.275 . S
C997 O992 1.255 . S
C998 O999 1.258 . S
C998 O1000 1.256 . S
O999 Cd991 2.381 . S
O999 C998 1.258 . S
O1000 Cd991 2.378 . S
O1000 C998 1.256 . S
O1001 Cd1002 2.300 . S
O1001 C1008 1.275 . S
Cd1002 O1001 2.300 . S
Cd1002 O1010 2.381 . S
Cd1002 O1011 2.378 . S
O1003 Cd1004 2.385 . S
O1003 C1008 1.255 . S
Cd1004 O1003 2.385 . S
Cd1004 O1005 2.317 . S
O1005 Cd1004 2.317 . S
O1005 C1006 1.232 . S
C1006 O1005 1.232 . S
C1006 O1007 1.218 . S
O1007 C1006 1.218 . S
C1008 O1001 1.275 . S
C1008 O1003 1.255 . S
C1009 O1010 1.258 . S
C1009 O1011 1.256 . S
O1010 Cd1002 2.381 . S
O1010 C1009 1.258 . S
O1011 Cd1002 2.378 . S
O1011 C1009 1.256 . S
O1012 Cd1013 2.300 . S
O1012 C1019 1.275 . S
Cd1013 O1012 2.300 . S
Cd1013 O1021 2.381 . S
Cd1013 O1022 2.378 . S
O1014 Cd1015 2.385 . S
O1014 C1019 1.255 . S
Cd1015 O1014 2.385 . S
Cd1015 O1016 2.317 . S
O1016 Cd1015 2.317 . S
O1016 C1017 1.232 . S
C1017 O1016 1.232 . S
C1017 O1018 1.218 . S
O1018 C1017 1.218 . S
C1019 O1012 1.275 . S
C1019 O1014 1.255 . S
C1020 O1021 1.258 . S
C1020 O1022 1.256 . S
O1021 Cd1013 2.381 . S
O1021 C1020 1.258 . S
O1022 Cd1013 2.378 . S
O1022 C1020 1.256 . S
O1023 Cd1024 2.300 . S
O1023 C1030 1.275 . S
Cd1024 O1023 2.300 . S
Cd1024 O1032 2.381 . S
Cd1024 O1033 2.378 . S
O1025 Cd1026 2.385 . S
O1025 C1030 1.255 . S
Cd1026 O1025 2.385 . S
Cd1026 O1027 2.317 . S
O1027 Cd1026 2.317 . S
O1027 C1028 1.232 . S
C1028 O1027 1.232 . S
C1028 O1029 1.218 . S
O1029 C1028 1.218 . S
C1030 O1023 1.275 . S
C1030 O1025 1.255 . S
C1031 O1032 1.258 . S
C1031 O1033 1.256 . S
O1032 Cd1024 2.381 . S
O1032 C1031 1.258 . S
O1033 Cd1024 2.378 . S
O1033 C1031 1.256 . S
O1034 Cd1035 2.300 . S
O1034 C1041 1.275 . S
Cd1035 O1034 2.300 . S
Cd1035 O1043 2.381 . S
Cd1035 O1044 2.378 . S
O1036 Cd1037 2.385 . S
O1036 C1041 1.255 . S
Cd1037 O1036 2.385 . S
Cd1037 O1038 2.317 . S
O1038 Cd1037 2.317 . S
O1038 C1039 1.232 . S
C1039 O1038 1.232 . S
C1039 O1040 1.218 . S
O1040 C1039 1.218 . S
C1041 O1034 1.275 . S
C1041 O1036 1.255 . S
C1042 O1043 1.258 . S
C1042 O1044 1.256 . S
O1043 Cd1035 2.381 . S
O1043 C1042 1.258 . S
O1044 Cd1035 2.378 . S
O1044 C1042 1.256 . S
O1045 Cd1046 2.300 . S
O1045 C1052 1.275 . S
Cd1046 O1045 2.300 . S
Cd1046 O1054 2.381 . S
Cd1046 O1055 2.378 . S
O1047 Cd1048 2.385 . S
O1047 C1052 1.255 . S
Cd1048 O1047 2.385 . S
Cd1048 O1049 2.317 . S
O1049 Cd1048 2.317 . S
O1049 C1050 1.232 . S
C1050 O1049 1.232 . S
C1050 O1051 1.218 . S
O1051 C1050 1.218 . S
C1052 O1045 1.275 . S
C1052 O1047 1.255 . S
C1053 O1054 1.258 . S
C1053 O1055 1.256 . S
O1054 Cd1046 2.381 . S
O1054 C1053 1.258 . S
O1055 Cd1046 2.378 . S
O1055 C1053 1.256 . S
H1056 C1063 0.929 . S
H1057 C1066 0.930 . S
H1058 C1068 0.929 . S
H1059 C1060 0.969 . S
C1060 H1059 0.969 . S
C1060 O1061 1.550 . S
C1060 H1062 0.973 . S
O1061 C1060 1.550 . S
O1061 C1067 1.412 . S
H1062 C1060 0.973 . S
C1063 H1056 0.929 . S
C1063 C1064 1.400 . S
C1063 C1065 1.364 . S
C1064 C1063 1.400 . S
C1064 C1068 1.377 . S
C1065 C1063 1.364 . S
C1065 C1066 1.374 . S
C1066 H1057 0.930 . S
C1066 C1065 1.374 . S
C1066 C1067 1.383 . S
C1067 O1061 1.412 . S
C1067 C1066 1.383 . S
C1067 C1068 1.394 . S
C1068 H1058 0.929 . S
C1068 C1064 1.377 . S
C1068 C1067 1.394 . S
H1069 C1076 0.929 . S
H1070 C1079 0.930 . S
H1071 C1081 0.929 . S
H1072 C1073 0.969 1_655 S
C1073 H1072 0.969 1_455 S
C1073 O1074 1.550 . S
C1073 H1075 0.973 . S
O1074 C1073 1.550 . S
O1074 C1080 1.412 . S
H1075 C1073 0.973 . S
C1076 H1069 0.929 . S
C1076 C1077 1.400 . S
C1076 C1078 1.364 . S
C1077 C1076 1.400 . S
C1077 C1081 1.377 . S
C1078 C1076 1.364 . S
C1078 C1079 1.374 . S
C1079 H1070 0.930 . S
C1079 C1078 1.374 . S
C1079 C1080 1.383 . S
C1080 O1074 1.412 . S
C1080 C1079 1.383 . S
C1080 C1081 1.394 . S
C1081 H1071 0.929 . S
C1081 C1077 1.377 . S
C1081 C1080 1.394 . S
H1082 C1089 0.929 . S
H1083 C1092 0.930 . S
H1084 C1094 0.929 . S
H1085 C1086 0.969 . S
C1086 H1085 0.969 . S
C1086 O1087 1.550 . S
C1086 H1088 0.973 . S
O1087 C1086 1.550 . S
O1087 C1093 1.412 . S
H1088 C1086 0.973 . S
C1089 H1082 0.929 . S
C1089 C1090 1.400 . S
C1089 C1091 1.364 . S
C1090 C1089 1.400 . S
C1090 C1094 1.377 . S
C1091 C1089 1.364 . S
C1091 C1092 1.374 . S
C1092 H1083 0.930 . S
C1092 C1091 1.374 . S
C1092 C1093 1.383 . S
C1093 O1087 1.412 . S
C1093 C1092 1.383 . S
C1093 C1094 1.394 . S
C1094 H1084 0.929 . S
C1094 C1090 1.377 . S
C1094 C1093 1.394 . S
H1095 C1102 0.929 . S
H1096 C1105 0.930 . S
H1097 C1107 0.929 . S
H1098 C1099 0.969 . S
C1099 H1098 0.969 . S
C1099 O1100 1.550 . S
C1099 H1101 0.973 . S
O1100 C1099 1.550 . S
O1100 C1106 1.412 . S
H1101 C1099 0.973 . S
C1102 H1095 0.929 . S
C1102 C1103 1.400 . S
C1102 C1104 1.364 . S
C1103 C1102 1.400 . S
C1103 C1107 1.377 . S
C1104 C1102 1.364 . S
C1104 C1105 1.374 . S
C1105 H1096 0.930 . S
C1105 C1104 1.374 . S
C1105 C1106 1.383 . S
C1106 O1100 1.412 . S
C1106 C1105 1.383 . S
C1106 C1107 1.394 . S
C1107 H1097 0.929 . S
C1107 C1103 1.377 . S
C1107 C1106 1.394 . S
H1108 C1115 0.929 . S
H1109 C1118 0.930 . S
H1110 C1120 0.929 . S
H1111 C1112 0.969 . S
C1112 H1111 0.969 . S
C1112 O1113 1.550 . S
C1112 H1114 0.973 . S
O1113 C1112 1.550 . S
O1113 C1119 1.412 . S
H1114 C1112 0.973 . S
C1115 H1108 0.929 . S
C1115 C1116 1.400 . S
C1115 C1117 1.364 . S
C1116 C1115 1.400 . S
C1116 C1120 1.377 . S
C1117 C1115 1.364 . S
C1117 C1118 1.374 . S
C1118 H1109 0.930 . S
C1118 C1117 1.374 . S
C1118 C1119 1.383 . S
C1119 O1113 1.412 . S
C1119 C1118 1.383 . S
C1119 C1120 1.394 . S
C1120 H1110 0.929 . S
C1120 C1116 1.377 . S
C1120 C1119 1.394 . S
H1121 C1128 0.929 . S
H1122 C1131 0.930 . S
H1123 C1133 0.929 . S
H1124 C1125 0.969 . S
C1125 H1124 0.969 . S
C1125 O1126 1.550 . S
C1125 H1127 0.973 . S
O1126 C1125 1.550 . S
O1126 C1132 1.412 . S
H1127 C1125 0.973 . S
C1128 H1121 0.929 . S
C1128 C1129 1.400 . S
C1128 C1130 1.364 . S
C1129 C1128 1.400 . S
C1129 C1133 1.377 . S
C1130 C1128 1.364 . S
C1130 C1131 1.374 . S
C1131 H1122 0.930 . S
C1131 C1130 1.374 . S
C1131 C1132 1.383 . S
C1132 O1126 1.412 . S
C1132 C1131 1.383 . S
C1132 C1133 1.394 . S
C1133 H1123 0.929 . S
C1133 C1129 1.377 . S
C1133 C1132 1.394 . S
H1134 C1141 0.929 . S
H1135 C1144 0.930 . S
H1136 C1146 0.929 . S
H1137 C1138 0.969 . S
C1138 H1137 0.969 . S
C1138 O1139 1.550 . S
C1138 H1140 0.973 . S
O1139 C1138 1.550 . S
O1139 C1145 1.412 . S
H1140 C1138 0.973 . S
C1141 H1134 0.929 . S
C1141 C1142 1.400 . S
C1141 C1143 1.364 . S
C1142 C1141 1.400 . S
C1142 C1146 1.377 . S
C1143 C1141 1.364 . S
C1143 C1144 1.374 . S
C1144 H1135 0.930 . S
C1144 C1143 1.374 . S
C1144 C1145 1.383 . S
C1145 O1139 1.412 . S
C1145 C1144 1.383 . S
C1145 C1146 1.394 . S
C1146 H1136 0.929 . S
C1146 C1142 1.377 . S
C1146 C1145 1.394 . S
H1147 C1154 0.929 . S
H1148 C1157 0.930 . S
H1149 C1159 0.929 . S
H1150 C1151 0.969 1_655 S
C1151 H1150 0.969 1_455 S
C1151 O1152 1.550 . S
C1151 H1153 0.973 . S
O1152 C1151 1.550 . S
O1152 C1158 1.412 . S
H1153 C1151 0.973 . S
C1154 H1147 0.929 . S
C1154 C1155 1.400 . S
C1154 C1156 1.364 . S
C1155 C1154 1.400 . S
C1155 C1159 1.377 . S
C1156 C1154 1.364 . S
C1156 C1157 1.374 . S
C1157 H1148 0.930 . S
C1157 C1156 1.374 . S
C1157 C1158 1.383 . S
C1158 O1152 1.412 . S
C1158 C1157 1.383 . S
C1158 C1159 1.394 . S
C1159 H1149 0.929 . S
C1159 C1155 1.377 . S
C1159 C1158 1.394 . S
H1160 C1167 0.929 . S
H1161 C1170 0.930 . S
H1162 C1172 0.929 . S
H1163 C1164 0.969 . S
C1164 H1163 0.969 . S
C1164 O1165 1.550 . S
C1164 H1166 0.973 . S
O1165 C1164 1.550 . S
O1165 C1171 1.412 . S
H1166 C1164 0.973 . S
C1167 H1160 0.929 . S
C1167 C1168 1.400 . S
C1167 C1169 1.364 . S
C1168 C1167 1.400 . S
C1168 C1172 1.377 . S
C1169 C1167 1.364 . S
C1169 C1170 1.374 . S
C1170 H1161 0.930 . S
C1170 C1169 1.374 . S
C1170 C1171 1.383 . S
C1171 O1165 1.412 . S
C1171 C1170 1.383 . S
C1171 C1172 1.394 . S
C1172 H1162 0.929 . S
C1172 C1168 1.377 . S
C1172 C1171 1.394 . S
H1173 C1180 0.929 . S
H1174 C1183 0.930 . S
H1175 C1185 0.929 . S
H1176 C1177 0.969 . S
C1177 H1176 0.969 . S
C1177 O1178 1.550 . S
C1177 H1179 0.973 . S
O1178 C1177 1.550 . S
O1178 C1184 1.412 . S
H1179 C1177 0.973 . S
C1180 H1173 0.929 . S
C1180 C1181 1.400 . S
C1180 C1182 1.364 . S
C1181 C1180 1.400 . S
C1181 C1185 1.377 . S
C1182 C1180 1.364 . S
C1182 C1183 1.374 . S
C1183 H1174 0.930 . S
C1183 C1182 1.374 . S
C1183 C1184 1.383 . S
C1184 O1178 1.412 . S
C1184 C1183 1.383 . S
C1184 C1185 1.394 . S
C1185 H1175 0.929 . S
C1185 C1181 1.377 . S
C1185 C1184 1.394 . S
H1186 C1193 0.929 . S
H1187 C1196 0.930 . S
H1188 C1198 0.929 . S
H1189 C1190 0.969 . S
C1190 H1189 0.969 . S
C1190 O1191 1.550 . S
C1190 H1192 0.973 . S
O1191 C1190 1.550 . S
O1191 C1197 1.412 . S
H1192 C1190 0.973 . S
C1193 H1186 0.929 . S
C1193 C1194 1.400 . S
C1193 C1195 1.364 . S
C1194 C1193 1.400 . S
C1194 C1198 1.377 . S
C1195 C1193 1.364 . S
C1195 C1196 1.374 . S
C1196 H1187 0.930 . S
C1196 C1195 1.374 . S
C1196 C1197 1.383 . S
C1197 O1191 1.412 . S
C1197 C1196 1.383 . S
C1197 C1198 1.394 . S
C1198 H1188 0.929 . S
C1198 C1194 1.377 . S
C1198 C1197 1.394 . S
H1199 C1206 0.929 . S
H1200 C1209 0.930 . S
H1201 C1211 0.929 . S
H1202 C1203 0.969 1_554 S
C1203 H1202 0.969 1_556 S
C1203 O1204 1.550 . S
C1203 H1205 0.973 . S
O1204 C1203 1.550 . S
O1204 C1210 1.412 . S
H1205 C1203 0.973 . S
C1206 H1199 0.929 . S
C1206 C1207 1.400 . S
C1206 C1208 1.364 . S
C1207 C1206 1.400 . S
C1207 C1211 1.377 . S
C1208 C1206 1.364 . S
C1208 C1209 1.374 . S
C1209 H1200 0.930 . S
C1209 C1208 1.374 . S
C1209 C1210 1.383 . S
C1210 O1204 1.412 . S
C1210 C1209 1.383 . S
C1210 C1211 1.394 . S
C1211 H1201 0.929 . S
C1211 C1207 1.377 . S
C1211 C1210 1.394 . S
H1212 C1219 0.929 . S
H1213 C1222 0.930 . S
H1214 C1224 0.929 . S
H1215 C1216 0.969 . S
C1216 H1215 0.969 . S
C1216 O1217 1.550 . S
C1216 H1218 0.973 . S
O1217 C1216 1.550 . S
O1217 C1223 1.412 . S
H1218 C1216 0.973 . S
C1219 H1212 0.929 . S
C1219 C1220 1.400 . S
C1219 C1221 1.364 . S
C1220 C1219 1.400 . S
C1220 C1224 1.377 . S
C1221 C1219 1.364 . S
C1221 C1222 1.374 . S
C1222 H1213 0.930 . S
C1222 C1221 1.374 . S
C1222 C1223 1.383 . S
C1223 O1217 1.412 . S
C1223 C1222 1.383 . S
C1223 C1224 1.394 . S
C1224 H1214 0.929 . S
C1224 C1220 1.377 . S
C1224 C1223 1.394 . S
H1225 C1232 0.929 . S
H1226 C1235 0.930 . S
H1227 C1237 0.929 . S
H1228 C1229 0.969 . S
C1229 H1228 0.969 . S
C1229 O1230 1.550 . S
C1229 H1231 0.973 . S
O1230 C1229 1.550 . S
O1230 C1236 1.412 . S
H1231 C1229 0.973 . S
C1232 H1225 0.929 . S
C1232 C1233 1.400 . S
C1232 C1234 1.364 . S
C1233 C1232 1.400 . S
C1233 C1237 1.377 . S
C1234 C1232 1.364 . S
C1234 C1235 1.374 . S
C1235 H1226 0.930 . S
C1235 C1234 1.374 . S
C1235 C1236 1.383 . S
C1236 O1230 1.412 . S
C1236 C1235 1.383 . S
C1236 C1237 1.394 . S
C1237 H1227 0.929 . S
C1237 C1233 1.377 . S
C1237 C1236 1.394 . S
H1238 C1245 0.929 . S
H1239 C1248 0.930 . S
H1240 C1250 0.929 . S
H1241 C1242 0.969 . S
C1242 H1241 0.969 . S
C1242 O1243 1.550 . S
C1242 H1244 0.973 . S
O1243 C1242 1.550 . S
O1243 C1249 1.412 . S
H1244 C1242 0.973 . S
C1245 H1238 0.929 . S
C1245 C1246 1.400 . S
C1245 C1247 1.364 . S
C1246 C1245 1.400 . S
C1246 C1250 1.377 . S
C1247 C1245 1.364 . S
C1247 C1248 1.374 . S
C1248 H1239 0.930 . S
C1248 C1247 1.374 . S
C1248 C1249 1.383 . S
C1249 O1243 1.412 . S
C1249 C1248 1.383 . S
C1249 C1250 1.394 . S
C1250 H1240 0.929 . S
C1250 C1246 1.377 . S
C1250 C1249 1.394 . S
H1251 C1258 0.929 . S
H1252 C1261 0.930 . S
H1253 C1263 0.929 . S
H1254 C1255 0.969 1_556 S
C1255 H1254 0.969 1_554 S
C1255 O1256 1.550 . S
C1255 H1257 0.973 . S
O1256 C1255 1.550 . S
O1256 C1262 1.412 . S
H1257 C1255 0.973 . S
C1258 H1251 0.929 . S
C1258 C1259 1.400 . S
C1258 C1260 1.364 . S
C1259 C1258 1.400 . S
C1259 C1263 1.377 . S
C1260 C1258 1.364 . S
C1260 C1261 1.374 . S
C1261 H1252 0.930 . S
C1261 C1260 1.374 . S
C1261 C1262 1.383 . S
C1262 O1256 1.412 . S
C1262 C1261 1.383 . S
C1262 C1263 1.394 . S
C1263 H1253 0.929 . S
C1263 C1259 1.377 . S
C1263 C1262 1.394 . S
H1264 C1271 0.929 . S
H1265 C1274 0.930 . S
H1266 C1276 0.929 . S
H1267 C1268 0.969 . S
C1268 H1267 0.969 . S
C1268 O1269 1.550 . S
C1268 H1270 0.973 . S
O1269 C1268 1.550 . S
O1269 C1275 1.412 . S
H1270 C1268 0.973 . S
C1271 H1264 0.929 . S
C1271 C1272 1.400 . S
C1271 C1273 1.364 . S
C1272 C1271 1.400 . S
C1272 C1276 1.377 . S
C1273 C1271 1.364 . S
C1273 C1274 1.374 . S
C1274 H1265 0.930 . S
C1274 C1273 1.374 . S
C1274 C1275 1.383 . S
C1275 O1269 1.412 . S
C1275 C1274 1.383 . S
C1275 C1276 1.394 . S
C1276 H1266 0.929 . S
C1276 C1272 1.377 . S
C1276 C1275 1.394 . S
H1277 C1284 0.929 . S
H1278 C1287 0.930 . S
H1279 C1289 0.929 . S
H1280 C1281 0.969 . S
C1281 H1280 0.969 . S
C1281 O1282 1.550 . S
C1281 H1283 0.973 . S
O1282 C1281 1.550 . S
O1282 C1288 1.412 . S
H1283 C1281 0.973 . S
C1284 H1277 0.929 . S
C1284 C1285 1.400 . S
C1284 C1286 1.364 . S
C1285 C1284 1.400 . S
C1285 C1289 1.377 . S
C1286 C1284 1.364 . S
C1286 C1287 1.374 . S
C1287 H1278 0.930 . S
C1287 C1286 1.374 . S
C1287 C1288 1.383 . S
C1288 O1282 1.412 . S
C1288 C1287 1.383 . S
C1288 C1289 1.394 . S
C1289 H1279 0.929 . S
C1289 C1285 1.377 . S
C1289 C1288 1.394 . S
H1290 C1297 0.929 . S
H1291 C1300 0.930 . S
H1292 C1302 0.929 . S
H1293 C1294 0.969 . S
C1294 H1293 0.969 . S
C1294 O1295 1.550 . S
C1294 H1296 0.973 . S
O1295 C1294 1.550 . S
O1295 C1301 1.412 . S
H1296 C1294 0.973 . S
C1297 H1290 0.929 . S
C1297 C1298 1.400 . S
C1297 C1299 1.364 . S
C1298 C1297 1.400 . S
C1298 C1302 1.377 . S
C1299 C1297 1.364 . S
C1299 C1300 1.374 . S
C1300 H1291 0.930 . S
C1300 C1299 1.374 . S
C1300 C1301 1.383 . S
C1301 O1295 1.412 . S
C1301 C1300 1.383 . S
C1301 C1302 1.394 . S
C1302 H1292 0.929 . S
C1302 C1298 1.377 . S
C1302 C1301 1.394 . S
H1303 C1310 0.929 . S
H1304 C1313 0.930 . S
H1305 C1315 0.929 . S
H1306 C1307 0.969 . S
C1307 H1306 0.969 . S
C1307 O1308 1.550 . S
C1307 H1309 0.973 . S
O1308 C1307 1.550 . S
O1308 C1314 1.412 . S
H1309 C1307 0.973 . S
C1310 H1303 0.929 . S
C1310 C1311 1.400 . S
C1310 C1312 1.364 . S
C1311 C1310 1.400 . S
C1311 C1315 1.377 . S
C1312 C1310 1.364 . S
C1312 C1313 1.374 . S
C1313 H1304 0.930 . S
C1313 C1312 1.374 . S
C1313 C1314 1.383 . S
C1314 O1308 1.412 . S
C1314 C1313 1.383 . S
C1314 C1315 1.394 . S
C1315 H1305 0.929 . S
C1315 C1311 1.377 . S
C1315 C1314 1.394 . S
H1316 C1323 0.929 . S
H1317 C1326 0.930 . S
H1318 C1328 0.929 . S
H1319 C1320 0.969 1_565 S
C1320 H1319 0.969 1_545 S
C1320 O1321 1.550 . S
C1320 H1322 0.973 . S
O1321 C1320 1.550 . S
O1321 C1327 1.412 . S
H1322 C1320 0.973 . S
C1323 H1316 0.929 . S
C1323 C1324 1.400 . S
C1323 C1325 1.364 . S
C1324 C1323 1.400 . S
C1324 C1328 1.377 . S
C1325 C1323 1.364 . S
C1325 C1326 1.374 . S
C1326 H1317 0.930 . S
C1326 C1325 1.374 . S
C1326 C1327 1.383 . S
C1327 O1321 1.412 . S
C1327 C1326 1.383 . S
C1327 C1328 1.394 . S
C1328 H1318 0.929 . S
C1328 C1324 1.377 . S
C1328 C1327 1.394 . S
H1329 C1336 0.929 . S
H1330 C1339 0.930 . S
H1331 C1341 0.929 . S
H1332 C1333 0.969 . S
C1333 H1332 0.969 . S
C1333 O1334 1.550 . S
C1333 H1335 0.973 . S
O1334 C1333 1.550 . S
O1334 C1340 1.412 . S
H1335 C1333 0.973 . S
C1336 H1329 0.929 . S
C1336 C1337 1.400 . S
C1336 C1338 1.364 . S
C1337 C1336 1.400 . S
C1337 C1341 1.377 . S
C1338 C1336 1.364 . S
C1338 C1339 1.374 . S
C1339 H1330 0.930 . S
C1339 C1338 1.374 . S
C1339 C1340 1.383 . S
C1340 O1334 1.412 . S
C1340 C1339 1.383 . S
C1340 C1341 1.394 . S
C1341 H1331 0.929 . S
C1341 C1337 1.377 . S
C1341 C1340 1.394 . S
H1342 C1349 0.929 . S
H1343 C1352 0.930 . S
H1344 C1354 0.929 . S
H1345 C1346 0.969 . S
C1346 H1345 0.969 . S
C1346 O1347 1.550 . S
C1346 H1348 0.973 . S
O1347 C1346 1.550 . S
O1347 C1353 1.412 . S
H1348 C1346 0.973 . S
C1349 H1342 0.929 . S
C1349 C1350 1.400 . S
C1349 C1351 1.364 . S
C1350 C1349 1.400 . S
C1350 C1354 1.377 . S
C1351 C1349 1.364 . S
C1351 C1352 1.374 . S
C1352 H1343 0.930 . S
C1352 C1351 1.374 . S
C1352 C1353 1.383 . S
C1353 O1347 1.412 . S
C1353 C1352 1.383 . S
C1353 C1354 1.394 . S
C1354 H1344 0.929 . S
C1354 C1350 1.377 . S
C1354 C1353 1.394 . S
H1355 C1362 0.929 . S
H1356 C1365 0.930 . S
H1357 C1367 0.929 . S
H1358 C1359 0.969 . S
C1359 H1358 0.969 . S
C1359 O1360 1.550 . S
C1359 H1361 0.973 . S
O1360 C1359 1.550 . S
O1360 C1366 1.412 . S
H1361 C1359 0.973 . S
C1362 H1355 0.929 . S
C1362 C1363 1.400 . S
C1362 C1364 1.364 . S
C1363 C1362 1.400 . S
C1363 C1367 1.377 . S
C1364 C1362 1.364 . S
C1364 C1365 1.374 . S
C1365 H1356 0.930 . S
C1365 C1364 1.374 . S
C1365 C1366 1.383 . S
C1366 O1360 1.412 . S
C1366 C1365 1.383 . S
C1366 C1367 1.394 . S
C1367 H1357 0.929 . S
C1367 C1363 1.377 . S
C1367 C1366 1.394 . S
H1368 C1375 0.929 . S
H1369 C1378 0.930 . S
H1370 C1380 0.929 . S
H1371 C1372 0.969 . S
C1372 H1371 0.969 . S
C1372 O1373 1.550 . S
C1372 H1374 0.973 . S
O1373 C1372 1.550 . S
O1373 C1379 1.412 . S
H1374 C1372 0.973 . S
C1375 H1368 0.929 . S
C1375 C1376 1.400 . S
C1375 C1377 1.364 . S
C1376 C1375 1.400 . S
C1376 C1380 1.377 . S
C1377 C1375 1.364 . S
C1377 C1378 1.374 . S
C1378 H1369 0.930 . S
C1378 C1377 1.374 . S
C1378 C1379 1.383 . S
C1379 O1373 1.412 . S
C1379 C1378 1.383 . S
C1379 C1380 1.394 . S
C1380 H1370 0.929 . S
C1380 C1376 1.377 . S
C1380 C1379 1.394 . S
H1381 C1388 0.929 . S
H1382 C1391 0.930 . S
H1383 C1393 0.929 . S
H1384 C1385 0.969 . S
C1385 H1384 0.969 . S
C1385 O1386 1.550 . S
C1385 H1387 0.973 . S
O1386 C1385 1.550 . S
O1386 C1392 1.412 . S
H1387 C1385 0.973 . S
C1388 H1381 0.929 . S
C1388 C1389 1.400 . S
C1388 C1390 1.364 . S
C1389 C1388 1.400 . S
C1389 C1393 1.377 . S
C1390 C1388 1.364 . S
C1390 C1391 1.374 . S
C1391 H1382 0.930 . S
C1391 C1390 1.374 . S
C1391 C1392 1.383 . S
C1392 O1386 1.412 . S
C1392 C1391 1.383 . S
C1392 C1393 1.394 . S
C1393 H1383 0.929 . S
C1393 C1389 1.377 . S
C1393 C1392 1.394 . S
H1394 C1401 0.929 . S
H1395 C1404 0.930 . S
H1396 C1406 0.929 . S
H1397 C1398 0.969 . S
C1398 H1397 0.969 . S
C1398 O1399 1.550 . S
C1398 H1400 0.973 . S
O1399 C1398 1.550 . S
O1399 C1405 1.412 . S
H1400 C1398 0.973 . S
C1401 H1394 0.929 . S
C1401 C1402 1.400 . S
C1401 C1403 1.364 . S
C1402 C1401 1.400 . S
C1402 C1406 1.377 . S
C1403 C1401 1.364 . S
C1403 C1404 1.374 . S
C1404 H1395 0.930 . S
C1404 C1403 1.374 . S
C1404 C1405 1.383 . S
C1405 O1399 1.412 . S
C1405 C1404 1.383 . S
C1405 C1406 1.394 . S
C1406 H1396 0.929 . S
C1406 C1402 1.377 . S
C1406 C1405 1.394 . S
H1407 C1414 0.929 . S
H1408 C1417 0.930 . S
H1409 C1419 0.929 . S
H1410 C1411 0.969 . S
C1411 H1410 0.969 . S
C1411 O1412 1.550 . S
C1411 H1413 0.973 . S
O1412 C1411 1.550 . S
O1412 C1418 1.412 . S
H1413 C1411 0.973 . S
C1414 H1407 0.929 . S
C1414 C1415 1.400 . S
C1414 C1416 1.364 . S
C1415 C1414 1.400 . S
C1415 C1419 1.377 . S
C1416 C1414 1.364 . S
C1416 C1417 1.374 . S
C1417 H1408 0.930 . S
C1417 C1416 1.374 . S
C1417 C1418 1.383 . S
C1418 O1412 1.412 . S
C1418 C1417 1.383 . S
C1418 C1419 1.394 . S
C1419 H1409 0.929 . S
C1419 C1415 1.377 . S
C1419 C1418 1.394 . S
H1420 C1427 0.929 . S
H1421 C1430 0.930 . S
H1422 C1432 0.929 . S
H1423 C1424 0.969 . S
C1424 H1423 0.969 . S
C1424 O1425 1.550 . S
C1424 H1426 0.973 . S
O1425 C1424 1.550 . S
O1425 C1431 1.412 . S
H1426 C1424 0.973 . S
C1427 H1420 0.929 . S
C1427 C1428 1.400 . S
C1427 C1429 1.364 . S
C1428 C1427 1.400 . S
C1428 C1432 1.377 . S
C1429 C1427 1.364 . S
C1429 C1430 1.374 . S
C1430 H1421 0.930 . S
C1430 C1429 1.374 . S
C1430 C1431 1.383 . S
C1431 O1425 1.412 . S
C1431 C1430 1.383 . S
C1431 C1432 1.394 . S
C1432 H1422 0.929 . S
C1432 C1428 1.377 . S
C1432 C1431 1.394 . S
H1433 C1440 0.929 . S
H1434 C1443 0.930 . S
H1435 C1445 0.929 . S
H1436 C1437 0.969 . S
C1437 H1436 0.969 . S
C1437 O1438 1.550 . S
C1437 H1439 0.973 . S
O1438 C1437 1.550 . S
O1438 C1444 1.412 . S
H1439 C1437 0.973 . S
C1440 H1433 0.929 . S
C1440 C1441 1.400 . S
C1440 C1442 1.364 . S
C1441 C1440 1.400 . S
C1441 C1445 1.377 . S
C1442 C1440 1.364 . S
C1442 C1443 1.374 . S
C1443 H1434 0.930 . S
C1443 C1442 1.374 . S
C1443 C1444 1.383 . S
C1444 O1438 1.412 . S
C1444 C1443 1.383 . S
C1444 C1445 1.394 . S
C1445 H1435 0.929 . S
C1445 C1441 1.377 . S
C1445 C1444 1.394 . S
H1446 C1453 0.929 . S
H1447 C1456 0.930 . S
H1448 C1458 0.929 . S
H1449 C1450 0.969 . S
C1450 H1449 0.969 . S
C1450 O1451 1.550 . S
C1450 H1452 0.973 . S
O1451 C1450 1.550 . S
O1451 C1457 1.412 . S
H1452 C1450 0.973 . S
C1453 H1446 0.929 . S
C1453 C1454 1.400 . S
C1453 C1455 1.364 . S
C1454 C1453 1.400 . S
C1454 C1458 1.377 . S
C1455 C1453 1.364 . S
C1455 C1456 1.374 . S
C1456 H1447 0.930 . S
C1456 C1455 1.374 . S
C1456 C1457 1.383 . S
C1457 O1451 1.412 . S
C1457 C1456 1.383 . S
C1457 C1458 1.394 . S
C1458 H1448 0.929 . S
C1458 C1454 1.377 . S
C1458 C1457 1.394 . S
H1459 C1466 0.929 . S
H1460 C1469 0.930 . S
H1461 C1471 0.929 . S
H1462 C1463 0.969 . S
C1463 H1462 0.969 . S
C1463 O1464 1.550 . S
C1463 H1465 0.973 . S
O1464 C1463 1.550 . S
O1464 C1470 1.412 . S
H1465 C1463 0.973 . S
C1466 H1459 0.929 . S
C1466 C1467 1.400 . S
C1466 C1468 1.364 . S
C1467 C1466 1.400 . S
C1467 C1471 1.377 . S
C1468 C1466 1.364 . S
C1468 C1469 1.374 . S
C1469 H1460 0.930 . S
C1469 C1468 1.374 . S
C1469 C1470 1.383 . S
C1470 O1464 1.412 . S
C1470 C1469 1.383 . S
C1470 C1471 1.394 . S
C1471 H1461 0.929 . S
C1471 C1467 1.377 . S
C1471 C1470 1.394 . S
H1472 C1479 0.929 . S
H1473 C1482 0.930 . S
H1474 C1484 0.929 . S
H1475 C1476 0.969 . S
C1476 H1475 0.969 . S
C1476 O1477 1.550 . S
C1476 H1478 0.973 . S
O1477 C1476 1.550 . S
O1477 C1483 1.412 . S
H1478 C1476 0.973 . S
C1479 H1472 0.929 . S
C1479 C1480 1.400 . S
C1479 C1481 1.364 . S
C1480 C1479 1.400 . S
C1480 C1484 1.377 . S
C1481 C1479 1.364 . S
C1481 C1482 1.374 . S
C1482 H1473 0.930 . S
C1482 C1481 1.374 . S
C1482 C1483 1.383 . S
C1483 O1477 1.412 . S
C1483 C1482 1.383 . S
C1483 C1484 1.394 . S
C1484 H1474 0.929 . S
C1484 C1480 1.377 . S
C1484 C1483 1.394 . S
H1485 C1492 0.929 . S
H1486 C1495 0.930 . S
H1487 C1497 0.929 . S
H1488 C1489 0.969 . S
C1489 H1488 0.969 . S
C1489 O1490 1.550 . S
C1489 H1491 0.973 . S
O1490 C1489 1.550 . S
O1490 C1496 1.412 . S
H1491 C1489 0.973 . S
C1492 H1485 0.929 . S
C1492 C1493 1.400 . S
C1492 C1494 1.364 . S
C1493 C1492 1.400 . S
C1493 C1497 1.377 . S
C1494 C1492 1.364 . S
C1494 C1495 1.374 . S
C1495 H1486 0.930 . S
C1495 C1494 1.374 . S
C1495 C1496 1.383 . S
C1496 O1490 1.412 . S
C1496 C1495 1.383 . S
C1496 C1497 1.394 . S
C1497 H1487 0.929 . S
C1497 C1493 1.377 . S
C1497 C1496 1.394 . S
H1498 C1505 0.929 . S
H1499 C1508 0.930 . S
H1500 C1510 0.929 . S
H1501 C1502 0.969 . S
C1502 H1501 0.969 . S
C1502 O1503 1.550 . S
C1502 H1504 0.973 . S
O1503 C1502 1.550 . S
O1503 C1509 1.412 . S
H1504 C1502 0.973 . S
C1505 H1498 0.929 . S
C1505 C1506 1.400 . S
C1505 C1507 1.364 . S
C1506 C1505 1.400 . S
C1506 C1510 1.377 . S
C1507 C1505 1.364 . S
C1507 C1508 1.374 . S
C1508 H1499 0.930 . S
C1508 C1507 1.374 . S
C1508 C1509 1.383 . S
C1509 O1503 1.412 . S
C1509 C1508 1.383 . S
C1509 C1510 1.394 . S
C1510 H1500 0.929 . S
C1510 C1506 1.377 . S
C1510 C1509 1.394 . S
H1511 C1518 0.929 . S
H1512 C1521 0.930 . S
H1513 C1523 0.929 . S
H1514 C1515 0.969 . S
C1515 H1514 0.969 . S
C1515 O1516 1.550 . S
C1515 H1517 0.973 . S
O1516 C1515 1.550 . S
O1516 C1522 1.412 . S
H1517 C1515 0.973 . S
C1518 H1511 0.929 . S
C1518 C1519 1.400 . S
C1518 C1520 1.364 . S
C1519 C1518 1.400 . S
C1519 C1523 1.377 . S
C1520 C1518 1.364 . S
C1520 C1521 1.374 . S
C1521 H1512 0.930 . S
C1521 C1520 1.374 . S
C1521 C1522 1.383 . S
C1522 O1516 1.412 . S
C1522 C1521 1.383 . S
C1522 C1523 1.394 . S
C1523 H1513 0.929 . S
C1523 C1519 1.377 . S
C1523 C1522 1.394 . S
H1524 C1531 0.929 . S
H1525 C1534 0.930 . S
H1526 C1536 0.929 . S
H1527 C1528 0.969 . S
C1528 H1527 0.969 . S
C1528 O1529 1.550 . S
C1528 H1530 0.973 . S
O1529 C1528 1.550 . S
O1529 C1535 1.412 . S
H1530 C1528 0.973 . S
C1531 H1524 0.929 . S
C1531 C1532 1.400 . S
C1531 C1533 1.364 . S
C1532 C1531 1.400 . S
C1532 C1536 1.377 . S
C1533 C1531 1.364 . S
C1533 C1534 1.374 . S
C1534 H1525 0.930 . S
C1534 C1533 1.374 . S
C1534 C1535 1.383 . S
C1535 O1529 1.412 . S
C1535 C1534 1.383 . S
C1535 C1536 1.394 . S
C1536 H1526 0.929 . S
C1536 C1532 1.377 . S
C1536 C1535 1.394 . S
H1537 C1544 0.929 . S
H1538 C1547 0.930 . S
H1539 C1549 0.929 . S
H1540 C1541 0.969 . S
C1541 H1540 0.969 . S
C1541 O1542 1.550 . S
C1541 H1543 0.973 . S
O1542 C1541 1.550 . S
O1542 C1548 1.412 . S
H1543 C1541 0.973 . S
C1544 H1537 0.929 . S
C1544 C1545 1.400 . S
C1544 C1546 1.364 . S
C1545 C1544 1.400 . S
C1545 C1549 1.377 . S
C1546 C1544 1.364 . S
C1546 C1547 1.374 . S
C1547 H1538 0.930 . S
C1547 C1546 1.374 . S
C1547 C1548 1.383 . S
C1548 O1542 1.412 . S
C1548 C1547 1.383 . S
C1548 C1549 1.394 . S
C1549 H1539 0.929 . S
C1549 C1545 1.377 . S
C1549 C1548 1.394 . S
H1550 C1557 0.929 . S
H1551 C1560 0.930 . S
H1552 C1562 0.929 . S
H1553 C1554 0.969 . S
C1554 H1553 0.969 . S
C1554 O1555 1.550 . S
C1554 H1556 0.973 . S
O1555 C1554 1.550 . S
O1555 C1561 1.412 . S
H1556 C1554 0.973 . S
C1557 H1550 0.929 . S
C1557 C1558 1.400 . S
C1557 C1559 1.364 . S
C1558 C1557 1.400 . S
C1558 C1562 1.377 . S
C1559 C1557 1.364 . S
C1559 C1560 1.374 . S
C1560 H1551 0.930 . S
C1560 C1559 1.374 . S
C1560 C1561 1.383 . S
C1561 O1555 1.412 . S
C1561 C1560 1.383 . S
C1561 C1562 1.394 . S
C1562 H1552 0.929 . S
C1562 C1558 1.377 . S
C1562 C1561 1.394 . S
H1563 C1570 0.929 . S
H1564 C1573 0.930 . S
H1565 C1575 0.929 . S
H1566 C1567 0.969 . S
C1567 H1566 0.969 . S
C1567 O1568 1.550 . S
C1567 H1569 0.973 . S
O1568 C1567 1.550 . S
O1568 C1574 1.412 . S
H1569 C1567 0.973 . S
C1570 H1563 0.929 . S
C1570 C1571 1.400 . S
C1570 C1572 1.364 . S
C1571 C1570 1.400 . S
C1571 C1575 1.377 . S
C1572 C1570 1.364 . S
C1572 C1573 1.374 . S
C1573 H1564 0.930 . S
C1573 C1572 1.374 . S
C1573 C1574 1.383 . S
C1574 O1568 1.412 . S
C1574 C1573 1.383 . S
C1574 C1575 1.394 . S
C1575 H1565 0.929 . S
C1575 C1571 1.377 . S
C1575 C1574 1.394 . S
H1576 C1583 0.929 . S
H1577 C1586 0.930 . S
H1578 C1588 0.929 . S
H1579 C1580 0.969 . S
C1580 H1579 0.969 . S
C1580 O1581 1.550 . S
C1580 H1582 0.973 . S
O1581 C1580 1.550 . S
O1581 C1587 1.412 . S
H1582 C1580 0.973 . S
C1583 H1576 0.929 . S
C1583 C1584 1.400 . S
C1583 C1585 1.364 . S
C1584 C1583 1.400 . S
C1584 C1588 1.377 . S
C1585 C1583 1.364 . S
C1585 C1586 1.374 . S
C1586 H1577 0.930 . S
C1586 C1585 1.374 . S
C1586 C1587 1.383 . S
C1587 O1581 1.412 . S
C1587 C1586 1.383 . S
C1587 C1588 1.394 . S
C1588 H1578 0.929 . S
C1588 C1584 1.377 . S
C1588 C1587 1.394 . S
H1589 C1596 0.929 . S
H1590 C1599 0.930 . S
H1591 C1601 0.929 . S
H1592 C1593 0.969 . S
C1593 H1592 0.969 . S
C1593 O1594 1.550 . S
C1593 H1595 0.973 . S
O1594 C1593 1.550 . S
O1594 C1600 1.412 . S
H1595 C1593 0.973 . S
C1596 H1589 0.929 . S
C1596 C1597 1.400 . S
C1596 C1598 1.364 . S
C1597 C1596 1.400 . S
C1597 C1601 1.377 . S
C1598 C1596 1.364 . S
C1598 C1599 1.374 . S
C1599 H1590 0.930 . S
C1599 C1598 1.374 . S
C1599 C1600 1.383 . S
C1600 O1594 1.412 . S
C1600 C1599 1.383 . S
C1600 C1601 1.394 . S
C1601 H1591 0.929 . S
C1601 C1597 1.377 . S
C1601 C1600 1.394 . S
H1602 C1609 0.929 . S
H1603 C1612 0.930 . S
H1604 C1614 0.929 . S
H1605 C1606 0.969 . S
C1606 H1605 0.969 . S
C1606 O1607 1.550 . S
C1606 H1608 0.973 . S
O1607 C1606 1.550 . S
O1607 C1613 1.412 . S
H1608 C1606 0.973 . S
C1609 H1602 0.929 . S
C1609 C1610 1.400 . S
C1609 C1611 1.364 . S
C1610 C1609 1.400 . S
C1610 C1614 1.377 . S
C1611 C1609 1.364 . S
C1611 C1612 1.374 . S
C1612 H1603 0.930 . S
C1612 C1611 1.374 . S
C1612 C1613 1.383 . S
C1613 O1607 1.412 . S
C1613 C1612 1.383 . S
C1613 C1614 1.394 . S
C1614 H1604 0.929 . S
C1614 C1610 1.377 . S
C1614 C1613 1.394 . S
H1615 C1622 0.929 . S
H1616 C1625 0.930 . S
H1617 C1627 0.929 . S
H1618 C1619 0.969 . S
C1619 H1618 0.969 . S
C1619 O1620 1.550 . S
C1619 H1621 0.973 . S
O1620 C1619 1.550 . S
O1620 C1626 1.412 . S
H1621 C1619 0.973 . S
C1622 H1615 0.929 . S
C1622 C1623 1.400 . S
C1622 C1624 1.364 . S
C1623 C1622 1.400 . S
C1623 C1627 1.377 . S
C1624 C1622 1.364 . S
C1624 C1625 1.374 . S
C1625 H1616 0.930 . S
C1625 C1624 1.374 . S
C1625 C1626 1.383 . S
C1626 O1620 1.412 . S
C1626 C1625 1.383 . S
C1626 C1627 1.394 . S
C1627 H1617 0.929 . S
C1627 C1623 1.377 . S
C1627 C1626 1.394 . S
H1628 C1635 0.929 . S
H1629 C1638 0.930 . S
H1630 C1640 0.929 . S
H1631 C1632 0.969 . S
C1632 H1631 0.969 . S
C1632 O1633 1.550 . S
C1632 H1634 0.973 . S
O1633 C1632 1.550 . S
O1633 C1639 1.412 . S
H1634 C1632 0.973 . S
C1635 H1628 0.929 . S
C1635 C1636 1.400 . S
C1635 C1637 1.364 . S
C1636 C1635 1.400 . S
C1636 C1640 1.377 . S
C1637 C1635 1.364 . S
C1637 C1638 1.374 . S
C1638 H1629 0.930 . S
C1638 C1637 1.374 . S
C1638 C1639 1.383 . S
C1639 O1633 1.412 . S
C1639 C1638 1.383 . S
C1639 C1640 1.394 . S
C1640 H1630 0.929 . S
C1640 C1636 1.377 . S
C1640 C1639 1.394 . S
H1641 C1648 0.929 . S
H1642 C1651 0.930 . S
H1643 C1653 0.929 . S
H1644 C1645 0.969 . S
C1645 H1644 0.969 . S
C1645 O1646 1.550 . S
C1645 H1647 0.973 . S
O1646 C1645 1.550 . S
O1646 C1652 1.412 . S
H1647 C1645 0.973 . S
C1648 H1641 0.929 . S
C1648 C1649 1.400 . S
C1648 C1650 1.364 . S
C1649 C1648 1.400 . S
C1649 C1653 1.377 . S
C1650 C1648 1.364 . S
C1650 C1651 1.374 . S
C1651 H1642 0.930 . S
C1651 C1650 1.374 . S
C1651 C1652 1.383 . S
C1652 O1646 1.412 . S
C1652 C1651 1.383 . S
C1652 C1653 1.394 . S
C1653 H1643 0.929 . S
C1653 C1649 1.377 . S
C1653 C1652 1.394 . S
H1654 C1661 0.929 . S
H1655 C1664 0.930 . S
H1656 C1666 0.929 . S
H1657 C1658 0.969 . S
C1658 H1657 0.969 . S
C1658 O1659 1.550 . S
C1658 H1660 0.973 . S
O1659 C1658 1.550 . S
O1659 C1665 1.412 . S
H1660 C1658 0.973 . S
C1661 H1654 0.929 . S
C1661 C1662 1.400 . S
C1661 C1663 1.364 . S
C1662 C1661 1.400 . S
C1662 C1666 1.377 . S
C1663 C1661 1.364 . S
C1663 C1664 1.374 . S
C1664 H1655 0.930 . S
C1664 C1663 1.374 . S
C1664 C1665 1.383 . S
C1665 O1659 1.412 . S
C1665 C1664 1.383 . S
C1665 C1666 1.394 . S
C1666 H1656 0.929 . S
C1666 C1662 1.377 . S
C1666 C1665 1.394 . S
H1667 C1674 0.929 . S
H1668 C1677 0.930 . S
H1669 C1679 0.929 . S
H1670 C1671 0.969 . S
C1671 H1670 0.969 . S
C1671 O1672 1.550 . S
C1671 H1673 0.973 . S
O1672 C1671 1.550 . S
O1672 C1678 1.412 . S
H1673 C1671 0.973 . S
C1674 H1667 0.929 . S
C1674 C1675 1.400 . S
C1674 C1676 1.364 . S
C1675 C1674 1.400 . S
C1675 C1679 1.377 . S
C1676 C1674 1.364 . S
C1676 C1677 1.374 . S
C1677 H1668 0.930 . S
C1677 C1676 1.374 . S
C1677 C1678 1.383 . S
C1678 O1672 1.412 . S
C1678 C1677 1.383 . S
C1678 C1679 1.394 . S
C1679 H1669 0.929 . S
C1679 C1675 1.377 . S
C1679 C1678 1.394 . S
H1680 C1687 0.929 . S
H1681 C1690 0.930 . S
H1682 C1692 0.929 . S
H1683 C1684 0.969 . S
C1684 H1683 0.969 . S
C1684 O1685 1.550 . S
C1684 H1686 0.973 . S
O1685 C1684 1.550 . S
O1685 C1691 1.412 . S
H1686 C1684 0.973 . S
C1687 H1680 0.929 . S
C1687 C1688 1.400 . S
C1687 C1689 1.364 . S
C1688 C1687 1.400 . S
C1688 C1692 1.377 . S
C1689 C1687 1.364 . S
C1689 C1690 1.374 . S
C1690 H1681 0.930 . S
C1690 C1689 1.374 . S
C1690 C1691 1.383 . S
C1691 O1685 1.412 . S
C1691 C1690 1.383 . S
C1691 C1692 1.394 . S
C1692 H1682 0.929 . S
C1692 C1688 1.377 . S
C1692 C1691 1.394 . S
H1693 C1700 0.929 . S
H1694 C1703 0.930 . S
H1695 C1705 0.929 . S
H1696 C1697 0.969 . S
C1697 H1696 0.969 . S
C1697 O1698 1.550 . S
C1697 H1699 0.973 . S
O1698 C1697 1.550 . S
O1698 C1704 1.412 . S
H1699 C1697 0.973 . S
C1700 H1693 0.929 . S
C1700 C1701 1.400 . S
C1700 C1702 1.364 . S
C1701 C1700 1.400 . S
C1701 C1705 1.377 . S
C1702 C1700 1.364 . S
C1702 C1703 1.374 . S
C1703 H1694 0.930 . S
C1703 C1702 1.374 . S
C1703 C1704 1.383 . S
C1704 O1698 1.412 . S
C1704 C1703 1.383 . S
C1704 C1705 1.394 . S
C1705 H1695 0.929 . S
C1705 C1701 1.377 . S
C1705 C1704 1.394 . S
H1706 C1713 0.929 . S
H1707 C1716 0.930 . S
H1708 C1718 0.929 . S
H1709 C1710 0.969 . S
C1710 H1709 0.969 . S
C1710 O1711 1.550 . S
C1710 H1712 0.973 . S
O1711 C1710 1.550 . S
O1711 C1717 1.412 . S
H1712 C1710 0.973 . S
C1713 H1706 0.929 . S
C1713 C1714 1.400 . S
C1713 C1715 1.364 . S
C1714 C1713 1.400 . S
C1714 C1718 1.377 . S
C1715 C1713 1.364 . S
C1715 C1716 1.374 . S
C1716 H1707 0.930 . S
C1716 C1715 1.374 . S
C1716 C1717 1.383 . S
C1717 O1711 1.412 . S
C1717 C1716 1.383 . S
C1717 C1718 1.394 . S
C1718 H1708 0.929 . S
C1718 C1714 1.377 . S
C1718 C1717 1.394 . S
H1719 C1726 0.929 . S
H1720 C1729 0.930 . S
H1721 C1731 0.929 . S
H1722 C1723 0.969 1_455 S
C1723 H1722 0.969 1_655 S
C1723 O1724 1.550 . S
C1723 H1725 0.973 . S
O1724 C1723 1.550 . S
O1724 C1730 1.412 . S
H1725 C1723 0.973 . S
C1726 H1719 0.929 . S
C1726 C1727 1.400 . S
C1726 C1728 1.364 . S
C1727 C1726 1.400 . S
C1727 C1731 1.377 . S
C1728 C1726 1.364 . S
C1728 C1729 1.374 . S
C1729 H1720 0.930 . S
C1729 C1728 1.374 . S
C1729 C1730 1.383 . S
C1730 O1724 1.412 . S
C1730 C1729 1.383 . S
C1730 C1731 1.394 . S
C1731 H1721 0.929 . S
C1731 C1727 1.377 . S
C1731 C1730 1.394 . S
H1732 C1739 0.929 . S
H1733 C1742 0.930 . S
H1734 C1744 0.929 . S
H1735 C1736 0.969 . S
C1736 H1735 0.969 . S
C1736 O1737 1.550 . S
C1736 H1738 0.973 . S
O1737 C1736 1.550 . S
O1737 C1743 1.412 . S
H1738 C1736 0.973 . S
C1739 H1732 0.929 . S
C1739 C1740 1.400 . S
C1739 C1741 1.364 . S
C1740 C1739 1.400 . S
C1740 C1744 1.377 . S
C1741 C1739 1.364 . S
C1741 C1742 1.374 . S
C1742 H1733 0.930 . S
C1742 C1741 1.374 . S
C1742 C1743 1.383 . S
C1743 O1737 1.412 . S
C1743 C1742 1.383 . S
C1743 C1744 1.394 . S
C1744 H1734 0.929 . S
C1744 C1740 1.377 . S
C1744 C1743 1.394 . S
H1745 C1752 0.929 . S
H1746 C1755 0.930 . S
H1747 C1757 0.929 . S
H1748 C1749 0.969 1_455 S
C1749 H1748 0.969 1_655 S
C1749 O1750 1.550 . S
C1749 H1751 0.973 . S
O1750 C1749 1.550 . S
O1750 C1756 1.412 . S
H1751 C1749 0.973 . S
C1752 H1745 0.929 . S
C1752 C1753 1.400 . S
C1752 C1754 1.364 . S
C1753 C1752 1.400 . S
C1753 C1757 1.377 . S
C1754 C1752 1.364 . S
C1754 C1755 1.374 . S
C1755 H1746 0.930 . S
C1755 C1754 1.374 . S
C1755 C1756 1.383 . S
C1756 O1750 1.412 . S
C1756 C1755 1.383 . S
C1756 C1757 1.394 . S
C1757 H1747 0.929 . S
C1757 C1753 1.377 . S
C1757 C1756 1.394 . S
H1758 C1765 0.929 . S
H1759 C1768 0.930 . S
H1760 C1770 0.929 . S
H1761 C1762 0.969 . S
C1762 H1761 0.969 . S
C1762 O1763 1.550 . S
C1762 H1764 0.973 . S
O1763 C1762 1.550 . S
O1763 C1769 1.412 . S
H1764 C1762 0.973 . S
C1765 H1758 0.929 . S
C1765 C1766 1.400 . S
C1765 C1767 1.364 . S
C1766 C1765 1.400 . S
C1766 C1770 1.377 . S
C1767 C1765 1.364 . S
C1767 C1768 1.374 . S
C1768 H1759 0.930 . S
C1768 C1767 1.374 . S
C1768 C1769 1.383 . S
C1769 O1763 1.412 . S
C1769 C1768 1.383 . S
C1769 C1770 1.394 . S
C1770 H1760 0.929 . S
C1770 C1766 1.377 . S
C1770 C1769 1.394 . S
H1771 C1778 0.929 . S
H1772 C1781 0.930 . S
H1773 C1783 0.929 . S
H1774 C1775 0.969 . S
C1775 H1774 0.969 . S
C1775 O1776 1.550 . S
C1775 H1777 0.973 . S
O1776 C1775 1.550 . S
O1776 C1782 1.412 . S
H1777 C1775 0.973 . S
C1778 H1771 0.929 . S
C1778 C1779 1.400 . S
C1778 C1780 1.364 . S
C1779 C1778 1.400 . S
C1779 C1783 1.377 . S
C1780 C1778 1.364 . S
C1780 C1781 1.374 . S
C1781 H1772 0.930 . S
C1781 C1780 1.374 . S
C1781 C1782 1.383 . S
C1782 O1776 1.412 . S
C1782 C1781 1.383 . S
C1782 C1783 1.394 . S
C1783 H1773 0.929 . S
C1783 C1779 1.377 . S
C1783 C1782 1.394 . S
H1784 C1791 0.929 . S
H1785 C1794 0.930 . S
H1786 C1796 0.929 . S
H1787 C1788 0.969 . S
C1788 H1787 0.969 . S
C1788 O1789 1.550 . S
C1788 H1790 0.973 . S
O1789 C1788 1.550 . S
O1789 C1795 1.412 . S
H1790 C1788 0.973 . S
C1791 H1784 0.929 . S
C1791 C1792 1.400 . S
C1791 C1793 1.364 . S
C1792 C1791 1.400 . S
C1792 C1796 1.377 . S
C1793 C1791 1.364 . S
C1793 C1794 1.374 . S
C1794 H1785 0.930 . S
C1794 C1793 1.374 . S
C1794 C1795 1.383 . S
C1795 O1789 1.412 . S
C1795 C1794 1.383 . S
C1795 C1796 1.394 . S
C1796 H1786 0.929 . S
C1796 C1792 1.377 . S
C1796 C1795 1.394 . S
H1797 C1804 0.929 . S
H1798 C1807 0.930 . S
H1799 C1809 0.929 . S
H1800 C1801 0.969 1_554 S
C1801 H1800 0.969 1_556 S
C1801 O1802 1.550 . S
C1801 H1803 0.973 . S
O1802 C1801 1.550 . S
O1802 C1808 1.412 . S
H1803 C1801 0.973 . S
C1804 H1797 0.929 . S
C1804 C1805 1.400 . S
C1804 C1806 1.364 . S
C1805 C1804 1.400 . S
C1805 C1809 1.377 . S
C1806 C1804 1.364 . S
C1806 C1807 1.374 . S
C1807 H1798 0.930 . S
C1807 C1806 1.374 . S
C1807 C1808 1.383 . S
C1808 O1802 1.412 . S
C1808 C1807 1.383 . S
C1808 C1809 1.394 . S
C1809 H1799 0.929 . S
C1809 C1805 1.377 . S
C1809 C1808 1.394 . S
H1810 C1817 0.929 . S
H1811 C1820 0.930 . S
H1812 C1822 0.929 . S
H1813 C1814 0.969 . S
C1814 H1813 0.969 . S
C1814 O1815 1.550 . S
C1814 H1816 0.973 . S
O1815 C1814 1.550 . S
O1815 C1821 1.412 . S
H1816 C1814 0.973 . S
C1817 H1810 0.929 . S
C1817 C1818 1.400 . S
C1817 C1819 1.364 . S
C1818 C1817 1.400 . S
C1818 C1822 1.377 . S
C1819 C1817 1.364 . S
C1819 C1820 1.374 . S
C1820 H1811 0.930 . S
C1820 C1819 1.374 . S
C1820 C1821 1.383 . S
C1821 O1815 1.412 . S
C1821 C1820 1.383 . S
C1821 C1822 1.394 . S
C1822 H1812 0.929 . S
C1822 C1818 1.377 . S
C1822 C1821 1.394 . S
H1823 C1830 0.929 . S
H1824 C1833 0.930 . S
H1825 C1835 0.929 . S
H1826 C1827 0.969 . S
C1827 H1826 0.969 . S
C1827 O1828 1.550 . S
C1827 H1829 0.973 . S
O1828 C1827 1.550 . S
O1828 C1834 1.412 . S
H1829 C1827 0.973 . S
C1830 H1823 0.929 . S
C1830 C1831 1.400 . S
C1830 C1832 1.364 . S
C1831 C1830 1.400 . S
C1831 C1835 1.377 . S
C1832 C1830 1.364 . S
C1832 C1833 1.374 . S
C1833 H1824 0.930 . S
C1833 C1832 1.374 . S
C1833 C1834 1.383 . S
C1834 O1828 1.412 . S
C1834 C1833 1.383 . S
C1834 C1835 1.394 . S
C1835 H1825 0.929 . S
C1835 C1831 1.377 . S
C1835 C1834 1.394 . S
H1836 C1843 0.929 . S
H1837 C1846 0.930 . S
H1838 C1848 0.929 . S
H1839 C1840 0.969 . S
C1840 H1839 0.969 . S
C1840 O1841 1.550 . S
C1840 H1842 0.973 . S
O1841 C1840 1.550 . S
O1841 C1847 1.412 . S
H1842 C1840 0.973 . S
C1843 H1836 0.929 . S
C1843 C1844 1.400 . S
C1843 C1845 1.364 . S
C1844 C1843 1.400 . S
C1844 C1848 1.377 . S
C1845 C1843 1.364 . S
C1845 C1846 1.374 . S
C1846 H1837 0.930 . S
C1846 C1845 1.374 . S
C1846 C1847 1.383 . S
C1847 O1841 1.412 . S
C1847 C1846 1.383 . S
C1847 C1848 1.394 . S
C1848 H1838 0.929 . S
C1848 C1844 1.377 . S
C1848 C1847 1.394 . S
H1849 C1856 0.929 . S
H1850 C1859 0.930 . S
H1851 C1861 0.929 . S
H1852 C1853 0.969 1_556 S
C1853 H1852 0.969 1_554 S
C1853 O1854 1.550 . S
C1853 H1855 0.973 . S
O1854 C1853 1.550 . S
O1854 C1860 1.412 . S
H1855 C1853 0.973 . S
C1856 H1849 0.929 . S
C1856 C1857 1.400 . S
C1856 C1858 1.364 . S
C1857 C1856 1.400 . S
C1857 C1861 1.377 . S
C1858 C1856 1.364 . S
C1858 C1859 1.374 . S
C1859 H1850 0.930 . S
C1859 C1858 1.374 . S
C1859 C1860 1.383 . S
C1860 O1854 1.412 . S
C1860 C1859 1.383 . S
C1860 C1861 1.394 . S
C1861 H1851 0.929 . S
C1861 C1857 1.377 . S
C1861 C1860 1.394 . S
H1862 C1869 0.929 . S
H1863 C1872 0.930 . S
H1864 C1874 0.929 . S
H1865 C1866 0.969 . S
C1866 H1865 0.969 . S
C1866 O1867 1.550 . S
C1866 H1868 0.973 . S
O1867 C1866 1.550 . S
O1867 C1873 1.412 . S
H1868 C1866 0.973 . S
C1869 H1862 0.929 . S
C1869 C1870 1.400 . S
C1869 C1871 1.364 . S
C1870 C1869 1.400 . S
C1870 C1874 1.377 . S
C1871 C1869 1.364 . S
C1871 C1872 1.374 . S
C1872 H1863 0.930 . S
C1872 C1871 1.374 . S
C1872 C1873 1.383 . S
C1873 O1867 1.412 . S
C1873 C1872 1.383 . S
C1873 C1874 1.394 . S
C1874 H1864 0.929 . S
C1874 C1870 1.377 . S
C1874 C1873 1.394 . S
H1875 C1882 0.929 . S
H1876 C1885 0.930 . S
H1877 C1887 0.929 . S
H1878 C1879 0.969 . S
C1879 H1878 0.969 . S
C1879 O1880 1.550 . S
C1879 H1881 0.973 . S
O1880 C1879 1.550 . S
O1880 C1886 1.412 . S
H1881 C1879 0.973 . S
C1882 H1875 0.929 . S
C1882 C1883 1.400 . S
C1882 C1884 1.364 . S
C1883 C1882 1.400 . S
C1883 C1887 1.377 . S
C1884 C1882 1.364 . S
C1884 C1885 1.374 . S
C1885 H1876 0.930 . S
C1885 C1884 1.374 . S
C1885 C1886 1.383 . S
C1886 O1880 1.412 . S
C1886 C1885 1.383 . S
C1886 C1887 1.394 . S
C1887 H1877 0.929 . S
C1887 C1883 1.377 . S
C1887 C1886 1.394 . S
H1888 C1895 0.929 . S
H1889 C1898 0.930 . S
H1890 C1900 0.929 . S
H1891 C1892 0.969 . S
C1892 H1891 0.969 . S
C1892 O1893 1.550 . S
C1892 H1894 0.973 . S
O1893 C1892 1.550 . S
O1893 C1899 1.412 . S
H1894 C1892 0.973 . S
C1895 H1888 0.929 . S
C1895 C1896 1.400 . S
C1895 C1897 1.364 . S
C1896 C1895 1.400 . S
C1896 C1900 1.377 . S
C1897 C1895 1.364 . S
C1897 C1898 1.374 . S
C1898 H1889 0.930 . S
C1898 C1897 1.374 . S
C1898 C1899 1.383 . S
C1899 O1893 1.412 . S
C1899 C1898 1.383 . S
C1899 C1900 1.394 . S
C1900 H1890 0.929 . S
C1900 C1896 1.377 . S
C1900 C1899 1.394 . S
H1901 C1908 0.929 . S
H1902 C1911 0.930 . S
H1903 C1913 0.929 . S
H1904 C1905 0.969 . S
C1905 H1904 0.969 . S
C1905 O1906 1.550 . S
C1905 H1907 0.973 . S
O1906 C1905 1.550 . S
O1906 C1912 1.412 . S
H1907 C1905 0.973 . S
C1908 H1901 0.929 . S
C1908 C1909 1.400 . S
C1908 C1910 1.364 . S
C1909 C1908 1.400 . S
C1909 C1913 1.377 . S
C1910 C1908 1.364 . S
C1910 C1911 1.374 . S
C1911 H1902 0.930 . S
C1911 C1910 1.374 . S
C1911 C1912 1.383 . S
C1912 O1906 1.412 . S
C1912 C1911 1.383 . S
C1912 C1913 1.394 . S
C1913 H1903 0.929 . S
C1913 C1909 1.377 . S
C1913 C1912 1.394 . S
H1914 C1921 0.929 . S
H1915 C1924 0.930 . S
H1916 C1926 0.929 . S
H1917 C1918 0.969 1_545 S
C1918 H1917 0.969 1_565 S
C1918 O1919 1.550 . S
C1918 H1920 0.973 . S
O1919 C1918 1.550 . S
O1919 C1925 1.412 . S
H1920 C1918 0.973 . S
C1921 H1914 0.929 . S
C1921 C1922 1.400 . S
C1921 C1923 1.364 . S
C1922 C1921 1.400 . S
C1922 C1926 1.377 . S
C1923 C1921 1.364 . S
C1923 C1924 1.374 . S
C1924 H1915 0.930 . S
C1924 C1923 1.374 . S
C1924 C1925 1.383 . S
C1925 O1919 1.412 . S
C1925 C1924 1.383 . S
C1925 C1926 1.394 . S
C1926 H1916 0.929 . S
C1926 C1922 1.377 . S
C1926 C1925 1.394 . S
H1927 C1934 0.929 . S
H1928 C1937 0.930 . S
H1929 C1939 0.929 . S
H1930 C1931 0.969 . S
C1931 H1930 0.969 . S
C1931 O1932 1.550 . S
C1931 H1933 0.973 . S
O1932 C1931 1.550 . S
O1932 C1938 1.412 . S
H1933 C1931 0.973 . S
C1934 H1927 0.929 . S
C1934 C1935 1.400 . S
C1934 C1936 1.364 . S
C1935 C1934 1.400 . S
C1935 C1939 1.377 . S
C1936 C1934 1.364 . S
C1936 C1937 1.374 . S
C1937 H1928 0.930 . S
C1937 C1936 1.374 . S
C1937 C1938 1.383 . S
C1938 O1932 1.412 . S
C1938 C1937 1.383 . S
C1938 C1939 1.394 . S
C1939 H1929 0.929 . S
C1939 C1935 1.377 . S
C1939 C1938 1.394 . S
H1940 C1947 0.929 . S
H1941 C1950 0.930 . S
H1942 C1952 0.929 . S
H1943 C1944 0.969 . S
C1944 H1943 0.969 . S
C1944 O1945 1.550 . S
C1944 H1946 0.973 . S
O1945 C1944 1.550 . S
O1945 C1951 1.412 . S
H1946 C1944 0.973 . S
C1947 H1940 0.929 . S
C1947 C1948 1.400 . S
C1947 C1949 1.364 . S
C1948 C1947 1.400 . S
C1948 C1952 1.377 . S
C1949 C1947 1.364 . S
C1949 C1950 1.374 . S
C1950 H1941 0.930 . S
C1950 C1949 1.374 . S
C1950 C1951 1.383 . S
C1951 O1945 1.412 . S
C1951 C1950 1.383 . S
C1951 C1952 1.394 . S
C1952 H1942 0.929 . S
C1952 C1948 1.377 . S
C1952 C1951 1.394 . S
H1953 C1960 0.929 . S
H1954 C1963 0.930 . S
H1955 C1965 0.929 . S
H1956 C1957 0.969 . S
C1957 H1956 0.969 . S
C1957 O1958 1.550 . S
C1957 H1959 0.973 . S
O1958 C1957 1.550 . S
O1958 C1964 1.412 . S
H1959 C1957 0.973 . S
C1960 H1953 0.929 . S
C1960 C1961 1.400 . S
C1960 C1962 1.364 . S
C1961 C1960 1.400 . S
C1961 C1965 1.377 . S
C1962 C1960 1.364 . S
C1962 C1963 1.374 . S
C1963 H1954 0.930 . S
C1963 C1962 1.374 . S
C1963 C1964 1.383 . S
C1964 O1958 1.412 . S
C1964 C1963 1.383 . S
C1964 C1965 1.394 . S
C1965 H1955 0.929 . S
C1965 C1961 1.377 . S
C1965 C1964 1.394 . S
H1966 C1973 0.929 . S
H1967 C1976 0.930 . S
H1968 C1978 0.929 . S
H1969 C1970 0.969 1_565 S
C1970 H1969 0.969 1_545 S
C1970 O1971 1.550 . S
C1970 H1972 0.973 . S
O1971 C1970 1.550 . S
O1971 C1977 1.412 . S
H1972 C1970 0.973 . S
C1973 H1966 0.929 . S
C1973 C1974 1.400 . S
C1973 C1975 1.364 . S
C1974 C1973 1.400 . S
C1974 C1978 1.377 . S
C1975 C1973 1.364 . S
C1975 C1976 1.374 . S
C1976 H1967 0.930 . S
C1976 C1975 1.374 . S
C1976 C1977 1.383 . S
C1977 O1971 1.412 . S
C1977 C1976 1.383 . S
C1977 C1978 1.394 . S
C1978 H1968 0.929 . S
C1978 C1974 1.377 . S
C1978 C1977 1.394 . S
H1979 C1986 0.929 . S
H1980 C1989 0.930 . S
H1981 C1991 0.929 . S
H1982 C1983 0.969 1_545 S
C1983 H1982 0.969 1_565 S
C1983 O1984 1.550 . S
C1983 H1985 0.973 . S
O1984 C1983 1.550 . S
O1984 C1990 1.412 . S
H1985 C1983 0.973 . S
C1986 H1979 0.929 . S
C1986 C1987 1.400 . S
C1986 C1988 1.364 . S
C1987 C1986 1.400 . S
C1987 C1991 1.377 . S
C1988 C1986 1.364 . S
C1988 C1989 1.374 . S
C1989 H1980 0.930 . S
C1989 C1988 1.374 . S
C1989 C1990 1.383 . S
C1990 O1984 1.412 . S
C1990 C1989 1.383 . S
C1990 C1991 1.394 . S
C1991 H1981 0.929 . S
C1991 C1987 1.377 . S
C1991 C1990 1.394 . S
H1992 C1999 0.929 . S
H1993 C2002 0.930 . S
H1994 C2004 0.929 . S
H1995 C1996 0.969 . S
C1996 H1995 0.969 . S
C1996 O1997 1.550 . S
C1996 H1998 0.973 . S
O1997 C1996 1.550 . S
O1997 C2003 1.412 . S
H1998 C1996 0.973 . S
C1999 H1992 0.929 . S
C1999 C2000 1.400 . S
C1999 C2001 1.364 . S
C2000 C1999 1.400 . S
C2000 C2004 1.377 . S
C2001 C1999 1.364 . S
C2001 C2002 1.374 . S
C2002 H1993 0.930 . S
C2002 C2001 1.374 . S
C2002 C2003 1.383 . S
C2003 O1997 1.412 . S
C2003 C2002 1.383 . S
C2003 C2004 1.394 . S
C2004 H1994 0.929 . S
C2004 C2000 1.377 . S
C2004 C2003 1.394 . S
H2005 C2012 0.929 . S
H2006 C2015 0.930 . S
H2007 C2017 0.929 . S
H2008 C2009 0.969 . S
C2009 H2008 0.969 . S
C2009 O2010 1.550 . S
C2009 H2011 0.973 . S
O2010 C2009 1.550 . S
O2010 C2016 1.412 . S
H2011 C2009 0.973 . S
C2012 H2005 0.929 . S
C2012 C2013 1.400 . S
C2012 C2014 1.364 . S
C2013 C2012 1.400 . S
C2013 C2017 1.377 . S
C2014 C2012 1.364 . S
C2014 C2015 1.374 . S
C2015 H2006 0.930 . S
C2015 C2014 1.374 . S
C2015 C2016 1.383 . S
C2016 O2010 1.412 . S
C2016 C2015 1.383 . S
C2016 C2017 1.394 . S
C2017 H2007 0.929 . S
C2017 C2013 1.377 . S
C2017 C2016 1.394 . S
H2018 C2025 0.929 . S
H2019 C2028 0.930 . S
H2020 C2030 0.929 . S
H2021 C2022 0.969 . S
C2022 H2021 0.969 . S
C2022 O2023 1.550 . S
C2022 H2024 0.973 . S
O2023 C2022 1.550 . S
O2023 C2029 1.412 . S
H2024 C2022 0.973 . S
C2025 H2018 0.929 . S
C2025 C2026 1.400 . S
C2025 C2027 1.364 . S
C2026 C2025 1.400 . S
C2026 C2030 1.377 . S
C2027 C2025 1.364 . S
C2027 C2028 1.374 . S
C2028 H2019 0.930 . S
C2028 C2027 1.374 . S
C2028 C2029 1.383 . S
C2029 O2023 1.412 . S
C2029 C2028 1.383 . S
C2029 C2030 1.394 . S
C2030 H2020 0.929 . S
C2030 C2026 1.377 . S
C2030 C2029 1.394 . S
H2031 C2038 0.929 . S
H2032 C2041 0.930 . S
H2033 C2043 0.929 . S
H2034 C2035 0.969 . S
C2035 H2034 0.969 . S
C2035 O2036 1.550 . S
C2035 H2037 0.973 . S
O2036 C2035 1.550 . S
O2036 C2042 1.412 . S
H2037 C2035 0.973 . S
C2038 H2031 0.929 . S
C2038 C2039 1.400 . S
C2038 C2040 1.364 . S
C2039 C2038 1.400 . S
C2039 C2043 1.377 . S
C2040 C2038 1.364 . S
C2040 C2041 1.374 . S
C2041 H2032 0.930 . S
C2041 C2040 1.374 . S
C2041 C2042 1.383 . S
C2042 O2036 1.412 . S
C2042 C2041 1.383 . S
C2042 C2043 1.394 . S
C2043 H2033 0.929 . S
C2043 C2039 1.377 . S
C2043 C2042 1.394 . S
H2044 C2051 0.929 . S
H2045 C2054 0.930 . S
H2046 C2056 0.929 . S
H2047 C2048 0.969 . S
C2048 H2047 0.969 . S
C2048 O2049 1.550 . S
C2048 H2050 0.973 . S
O2049 C2048 1.550 . S
O2049 C2055 1.412 . S
H2050 C2048 0.973 . S
C2051 H2044 0.929 . S
C2051 C2052 1.400 . S
C2051 C2053 1.364 . S
C2052 C2051 1.400 . S
C2052 C2056 1.377 . S
C2053 C2051 1.364 . S
C2053 C2054 1.374 . S
C2054 H2045 0.930 . S
C2054 C2053 1.374 . S
C2054 C2055 1.383 . S
C2055 O2049 1.412 . S
C2055 C2054 1.383 . S
C2055 C2056 1.394 . S
C2056 H2046 0.929 . S
C2056 C2052 1.377 . S
C2056 C2055 1.394 . S
H2057 C2064 0.929 . S
H2058 C2067 0.930 . S
H2059 C2069 0.929 . S
H2060 C2061 0.969 . S
C2061 H2060 0.969 . S
C2061 O2062 1.550 . S
C2061 H2063 0.973 . S
O2062 C2061 1.550 . S
O2062 C2068 1.412 . S
H2063 C2061 0.973 . S
C2064 H2057 0.929 . S
C2064 C2065 1.400 . S
C2064 C2066 1.364 . S
C2065 C2064 1.400 . S
C2065 C2069 1.377 . S
C2066 C2064 1.364 . S
C2066 C2067 1.374 . S
C2067 H2058 0.930 . S
C2067 C2066 1.374 . S
C2067 C2068 1.383 . S
C2068 O2062 1.412 . S
C2068 C2067 1.383 . S
C2068 C2069 1.394 . S
C2069 H2059 0.929 . S
C2069 C2065 1.377 . S
C2069 C2068 1.394 . S
H2070 C2077 0.929 . S
H2071 C2080 0.930 . S
H2072 C2082 0.929 . S
H2073 C2074 0.969 . S
C2074 H2073 0.969 . S
C2074 O2075 1.550 . S
C2074 H2076 0.973 . S
O2075 C2074 1.550 . S
O2075 C2081 1.412 . S
H2076 C2074 0.973 . S
C2077 H2070 0.929 . S
C2077 C2078 1.400 . S
C2077 C2079 1.364 . S
C2078 C2077 1.400 . S
C2078 C2082 1.377 . S
C2079 C2077 1.364 . S
C2079 C2080 1.374 . S
C2080 H2071 0.930 . S
C2080 C2079 1.374 . S
C2080 C2081 1.383 . S
C2081 O2075 1.412 . S
C2081 C2080 1.383 . S
C2081 C2082 1.394 . S
C2082 H2072 0.929 . S
C2082 C2078 1.377 . S
C2082 C2081 1.394 . S
H2083 C2090 0.929 . S
H2084 C2093 0.930 . S
H2085 C2095 0.929 . S
H2086 C2087 0.969 . S
C2087 H2086 0.969 . S
C2087 O2088 1.550 . S
C2087 H2089 0.973 . S
O2088 C2087 1.550 . S
O2088 C2094 1.412 . S
H2089 C2087 0.973 . S
C2090 H2083 0.929 . S
C2090 C2091 1.400 . S
C2090 C2092 1.364 . S
C2091 C2090 1.400 . S
C2091 C2095 1.377 . S
C2092 C2090 1.364 . S
C2092 C2093 1.374 . S
C2093 H2084 0.930 . S
C2093 C2092 1.374 . S
C2093 C2094 1.383 . S
C2094 O2088 1.412 . S
C2094 C2093 1.383 . S
C2094 C2095 1.394 . S
C2095 H2085 0.929 . S
C2095 C2091 1.377 . S
C2095 C2094 1.394 . S
H2096 C2103 0.929 . S
H2097 C2106 0.930 . S
H2098 C2108 0.929 . S
H2099 C2100 0.969 . S
C2100 H2099 0.969 . S
C2100 O2101 1.550 . S
C2100 H2102 0.973 . S
O2101 C2100 1.550 . S
O2101 C2107 1.412 . S
H2102 C2100 0.973 . S
C2103 H2096 0.929 . S
C2103 C2104 1.400 . S
C2103 C2105 1.364 . S
C2104 C2103 1.400 . S
C2104 C2108 1.377 . S
C2105 C2103 1.364 . S
C2105 C2106 1.374 . S
C2106 H2097 0.930 . S
C2106 C2105 1.374 . S
C2106 C2107 1.383 . S
C2107 O2101 1.412 . S
C2107 C2106 1.383 . S
C2107 C2108 1.394 . S
C2108 H2098 0.929 . S
C2108 C2104 1.377 . S
C2108 C2107 1.394 . S
H2109 C2116 0.929 . S
H2110 C2119 0.930 . S
H2111 C2121 0.929 . S
H2112 C2113 0.969 . S
C2113 H2112 0.969 . S
C2113 O2114 1.550 . S
C2113 H2115 0.973 . S
O2114 C2113 1.550 . S
O2114 C2120 1.412 . S
H2115 C2113 0.973 . S
C2116 H2109 0.929 . S
C2116 C2117 1.400 . S
C2116 C2118 1.364 . S
C2117 C2116 1.400 . S
C2117 C2121 1.377 . S
C2118 C2116 1.364 . S
C2118 C2119 1.374 . S
C2119 H2110 0.930 . S
C2119 C2118 1.374 . S
C2119 C2120 1.383 . S
C2120 O2114 1.412 . S
C2120 C2119 1.383 . S
C2120 C2121 1.394 . S
C2121 H2111 0.929 . S
C2121 C2117 1.377 . S
C2121 C2120 1.394 . S
H2122 C2129 0.929 . S
H2123 C2132 0.930 . S
H2124 C2134 0.929 . S
H2125 C2126 0.969 . S
C2126 H2125 0.969 . S
C2126 O2127 1.550 . S
C2126 H2128 0.973 . S
O2127 C2126 1.550 . S
O2127 C2133 1.412 . S
H2128 C2126 0.973 . S
C2129 H2122 0.929 . S
C2129 C2130 1.400 . S
C2129 C2131 1.364 . S
C2130 C2129 1.400 . S
C2130 C2134 1.377 . S
C2131 C2129 1.364 . S
C2131 C2132 1.374 . S
C2132 H2123 0.930 . S
C2132 C2131 1.374 . S
C2132 C2133 1.383 . S
C2133 O2127 1.412 . S
C2133 C2132 1.383 . S
C2133 C2134 1.394 . S
C2134 H2124 0.929 . S
C2134 C2130 1.377 . S
C2134 C2133 1.394 . S
H2135 C2142 0.929 . S
H2136 C2145 0.930 . S
H2137 C2147 0.929 . S
H2138 C2139 0.969 . S
C2139 H2138 0.969 . S
C2139 O2140 1.550 . S
C2139 H2141 0.973 . S
O2140 C2139 1.550 . S
O2140 C2146 1.412 . S
H2141 C2139 0.973 . S
C2142 H2135 0.929 . S
C2142 C2143 1.400 . S
C2142 C2144 1.364 . S
C2143 C2142 1.400 . S
C2143 C2147 1.377 . S
C2144 C2142 1.364 . S
C2144 C2145 1.374 . S
C2145 H2136 0.930 . S
C2145 C2144 1.374 . S
C2145 C2146 1.383 . S
C2146 O2140 1.412 . S
C2146 C2145 1.383 . S
C2146 C2147 1.394 . S
C2147 H2137 0.929 . S
C2147 C2143 1.377 . S
C2147 C2146 1.394 . S
H2148 C2155 0.929 . S
H2149 C2158 0.930 . S
H2150 C2160 0.929 . S
H2151 C2152 0.969 . S
C2152 H2151 0.969 . S
C2152 O2153 1.550 . S
C2152 H2154 0.973 . S
O2153 C2152 1.550 . S
O2153 C2159 1.412 . S
H2154 C2152 0.973 . S
C2155 H2148 0.929 . S
C2155 C2156 1.400 . S
C2155 C2157 1.364 . S
C2156 C2155 1.400 . S
C2156 C2160 1.377 . S
C2157 C2155 1.364 . S
C2157 C2158 1.374 . S
C2158 H2149 0.930 . S
C2158 C2157 1.374 . S
C2158 C2159 1.383 . S
C2159 O2153 1.412 . S
C2159 C2158 1.383 . S
C2159 C2160 1.394 . S
C2160 H2150 0.929 . S
C2160 C2156 1.377 . S
C2160 C2159 1.394 . S
H2161 C2168 0.929 . S
H2162 C2171 0.930 . S
H2163 C2173 0.929 . S
H2164 C2165 0.969 . S
C2165 H2164 0.969 . S
C2165 O2166 1.550 . S
C2165 H2167 0.973 . S
O2166 C2165 1.550 . S
O2166 C2172 1.412 . S
H2167 C2165 0.973 . S
C2168 H2161 0.929 . S
C2168 C2169 1.400 . S
C2168 C2170 1.364 . S
C2169 C2168 1.400 . S
C2169 C2173 1.377 . S
C2170 C2168 1.364 . S
C2170 C2171 1.374 . S
C2171 H2162 0.930 . S
C2171 C2170 1.374 . S
C2171 C2172 1.383 . S
C2172 O2166 1.412 . S
C2172 C2171 1.383 . S
C2172 C2173 1.394 . S
C2173 H2163 0.929 . S
C2173 C2169 1.377 . S
C2173 C2172 1.394 . S
H2174 C2181 0.929 . S
H2175 C2184 0.930 . S
H2176 C2186 0.929 . S
H2177 C2178 0.969 . S
C2178 H2177 0.969 . S
C2178 O2179 1.550 . S
C2178 H2180 0.973 . S
O2179 C2178 1.550 . S
O2179 C2185 1.412 . S
H2180 C2178 0.973 . S
C2181 H2174 0.929 . S
C2181 C2182 1.400 . S
C2181 C2183 1.364 . S
C2182 C2181 1.400 . S
C2182 C2186 1.377 . S
C2183 C2181 1.364 . S
C2183 C2184 1.374 . S
C2184 H2175 0.930 . S
C2184 C2183 1.374 . S
C2184 C2185 1.383 . S
C2185 O2179 1.412 . S
C2185 C2184 1.383 . S
C2185 C2186 1.394 . S
C2186 H2176 0.929 . S
C2186 C2182 1.377 . S
C2186 C2185 1.394 . S
H2187 C2194 0.929 . S
H2188 C2197 0.930 . S
H2189 C2199 0.929 . S
H2190 C2191 0.969 . S
C2191 H2190 0.969 . S
C2191 O2192 1.550 . S
C2191 H2193 0.973 . S
O2192 C2191 1.550 . S
O2192 C2198 1.412 . S
H2193 C2191 0.973 . S
C2194 H2187 0.929 . S
C2194 C2195 1.400 . S
C2194 C2196 1.364 . S
C2195 C2194 1.400 . S
C2195 C2199 1.377 . S
C2196 C2194 1.364 . S
C2196 C2197 1.374 . S
C2197 H2188 0.930 . S
C2197 C2196 1.374 . S
C2197 C2198 1.383 . S
C2198 O2192 1.412 . S
C2198 C2197 1.383 . S
C2198 C2199 1.394 . S
C2199 H2189 0.929 . S
C2199 C2195 1.377 . S
C2199 C2198 1.394 . S
H2200 C2207 0.929 . S
H2201 C2210 0.930 . S
H2202 C2212 0.929 . S
H2203 C2204 0.969 . S
C2204 H2203 0.969 . S
C2204 O2205 1.550 . S
C2204 H2206 0.973 . S
O2205 C2204 1.550 . S
O2205 C2211 1.412 . S
H2206 C2204 0.973 . S
C2207 H2200 0.929 . S
C2207 C2208 1.400 . S
C2207 C2209 1.364 . S
C2208 C2207 1.400 . S
C2208 C2212 1.377 . S
C2209 C2207 1.364 . S
C2209 C2210 1.374 . S
C2210 H2201 0.930 . S
C2210 C2209 1.374 . S
C2210 C2211 1.383 . S
C2211 O2205 1.412 . S
C2211 C2210 1.383 . S
C2211 C2212 1.394 . S
C2212 H2202 0.929 . S
C2212 C2208 1.377 . S
C2212 C2211 1.394 . S
H2213 C2220 0.929 . S
H2214 C2223 0.930 . S
H2215 C2225 0.929 . S
H2216 C2217 0.969 . S
C2217 H2216 0.969 . S
C2217 O2218 1.550 . S
C2217 H2219 0.973 . S
O2218 C2217 1.550 . S
O2218 C2224 1.412 . S
H2219 C2217 0.973 . S
C2220 H2213 0.929 . S
C2220 C2221 1.400 . S
C2220 C2222 1.364 . S
C2221 C2220 1.400 . S
C2221 C2225 1.377 . S
C2222 C2220 1.364 . S
C2222 C2223 1.374 . S
C2223 H2214 0.930 . S
C2223 C2222 1.374 . S
C2223 C2224 1.383 . S
C2224 O2218 1.412 . S
C2224 C2223 1.383 . S
C2224 C2225 1.394 . S
C2225 H2215 0.929 . S
C2225 C2221 1.377 . S
C2225 C2224 1.394 . S
H2226 C2233 0.929 . S
H2227 C2236 0.930 . S
H2228 C2238 0.929 . S
H2229 C2230 0.969 . S
C2230 H2229 0.969 . S
C2230 O2231 1.550 . S
C2230 H2232 0.973 . S
O2231 C2230 1.550 . S
O2231 C2237 1.412 . S
H2232 C2230 0.973 . S
C2233 H2226 0.929 . S
C2233 C2234 1.400 . S
C2233 C2235 1.364 . S
C2234 C2233 1.400 . S
C2234 C2238 1.377 . S
C2235 C2233 1.364 . S
C2235 C2236 1.374 . S
C2236 H2227 0.930 . S
C2236 C2235 1.374 . S
C2236 C2237 1.383 . S
C2237 O2231 1.412 . S
C2237 C2236 1.383 . S
C2237 C2238 1.394 . S
C2238 H2228 0.929 . S
C2238 C2234 1.377 . S
C2238 C2237 1.394 . S
H2239 C2246 0.929 . S
H2240 C2249 0.930 . S
H2241 C2251 0.929 . S
H2242 C2243 0.969 . S
C2243 H2242 0.969 . S
C2243 O2244 1.550 . S
C2243 H2245 0.973 . S
O2244 C2243 1.550 . S
O2244 C2250 1.412 . S
H2245 C2243 0.973 . S
C2246 H2239 0.929 . S
C2246 C2247 1.400 . S
C2246 C2248 1.364 . S
C2247 C2246 1.400 . S
C2247 C2251 1.377 . S
C2248 C2246 1.364 . S
C2248 C2249 1.374 . S
C2249 H2240 0.930 . S
C2249 C2248 1.374 . S
C2249 C2250 1.383 . S
C2250 O2244 1.412 . S
C2250 C2249 1.383 . S
C2250 C2251 1.394 . S
C2251 H2241 0.929 . S
C2251 C2247 1.377 . S
C2251 C2250 1.394 . S
H2252 C2259 0.929 . S
H2253 C2262 0.930 . S
H2254 C2264 0.929 . S
H2255 C2256 0.969 . S
C2256 H2255 0.969 . S
C2256 O2257 1.550 . S
C2256 H2258 0.973 . S
O2257 C2256 1.550 . S
O2257 C2263 1.412 . S
H2258 C2256 0.973 . S
C2259 H2252 0.929 . S
C2259 C2260 1.400 . S
C2259 C2261 1.364 . S
C2260 C2259 1.400 . S
C2260 C2264 1.377 . S
C2261 C2259 1.364 . S
C2261 C2262 1.374 . S
C2262 H2253 0.930 . S
C2262 C2261 1.374 . S
C2262 C2263 1.383 . S
C2263 O2257 1.412 . S
C2263 C2262 1.383 . S
C2263 C2264 1.394 . S
C2264 H2254 0.929 . S
C2264 C2260 1.377 . S
C2264 C2263 1.394 . S
H2265 C2272 0.929 . S
H2266 C2275 0.930 . S
H2267 C2277 0.929 . S
H2268 C2269 0.969 . S
C2269 H2268 0.969 . S
C2269 O2270 1.550 . S
C2269 H2271 0.973 . S
O2270 C2269 1.550 . S
O2270 C2276 1.412 . S
H2271 C2269 0.973 . S
C2272 H2265 0.929 . S
C2272 C2273 1.400 . S
C2272 C2274 1.364 . S
C2273 C2272 1.400 . S
C2273 C2277 1.377 . S
C2274 C2272 1.364 . S
C2274 C2275 1.374 . S
C2275 H2266 0.930 . S
C2275 C2274 1.374 . S
C2275 C2276 1.383 . S
C2276 O2270 1.412 . S
C2276 C2275 1.383 . S
C2276 C2277 1.394 . S
C2277 H2267 0.929 . S
C2277 C2273 1.377 . S
C2277 C2276 1.394 . S
H2278 C2285 0.929 . S
H2279 C2288 0.930 . S
H2280 C2290 0.929 . S
H2281 C2282 0.969 . S
C2282 H2281 0.969 . S
C2282 O2283 1.550 . S
C2282 H2284 0.973 . S
O2283 C2282 1.550 . S
O2283 C2289 1.412 . S
H2284 C2282 0.973 . S
C2285 H2278 0.929 . S
C2285 C2286 1.400 . S
C2285 C2287 1.364 . S
C2286 C2285 1.400 . S
C2286 C2290 1.377 . S
C2287 C2285 1.364 . S
C2287 C2288 1.374 . S
C2288 H2279 0.930 . S
C2288 C2287 1.374 . S
C2288 C2289 1.383 . S
C2289 O2283 1.412 . S
C2289 C2288 1.383 . S
C2289 C2290 1.394 . S
C2290 H2280 0.929 . S
C2290 C2286 1.377 . S
C2290 C2289 1.394 . S
H2291 C2298 0.929 . S
H2292 C2301 0.930 . S
H2293 C2303 0.929 . S
H2294 C2295 0.969 . S
C2295 H2294 0.969 . S
C2295 O2296 1.550 . S
C2295 H2297 0.973 . S
O2296 C2295 1.550 . S
O2296 C2302 1.412 . S
H2297 C2295 0.973 . S
C2298 H2291 0.929 . S
C2298 C2299 1.400 . S
C2298 C2300 1.364 . S
C2299 C2298 1.400 . S
C2299 C2303 1.377 . S
C2300 C2298 1.364 . S
C2300 C2301 1.374 . S
C2301 H2292 0.930 . S
C2301 C2300 1.374 . S
C2301 C2302 1.383 . S
C2302 O2296 1.412 . S
C2302 C2301 1.383 . S
C2302 C2303 1.394 . S
C2303 H2293 0.929 . S
C2303 C2299 1.377 . S
C2303 C2302 1.394 . S
C1385 C8 1.481 1_655 S
C2022 C19 1.481 . S
C1411 C30 1.481 . S
C1996 C41 1.481 . S
C1463 C52 1.481 1_655 S
C63 C2048 1.481 . S
C1437 C74 1.481 . S
C2074 C85 1.481 . S
C2282 C96 1.481 1_565 S
C107 C2204 1.481 . S
C2295 C118 1.481 1_545 S
C129 C2269 1.481 . S
C2230 C140 1.481 1_545 S
C1619 C151 1.481 . S
C1632 C162 1.481 1_565 S
C173 C1593 1.481 . S
C184 C2165 1.481 1_554 S
C1515 C195 1.481 1_554 S
C2100 C206 1.481 . S
C1489 C217 1.481 . S
C228 C1502 1.481 . S
C2191 C239 1.481 . S
C2152 C250 1.481 . S
C261 C2178 1.481 . S
C272 C1073 1.434 1_655 S
C283 C1710 1.434 . S
C1099 C294 1.434 . S
C305 C1684 1.434 . S
C1151 C316 1.434 1_455 S
C327 C1736 1.434 . S
C1125 C338 1.434 . S
C1762 C349 1.434 . S
C360 C1970 1.434 1_565 S
C1892 C371 1.434 . S
C382 C1983 1.434 1_545 S
C1957 C393 1.434 . S
C1918 C404 1.434 1_565 S
C415 C1307 1.434 . S
C426 C1320 1.434 1_565 S
C1281 C437 1.434 . S
C448 C1853 1.434 1_556 S
C1203 C459 1.434 1_556 S
C470 C1788 1.434 . S
C1177 C481 1.434 . S
C492 C1190 1.434 . S
C1879 C503 1.434 . S
C1840 C514 1.434 . S
C1866 C525 1.434 . S
C536 C2009 1.481 . S
C1398 C547 1.481 . S
C2035 C558 1.481 1_455 S
C1372 C569 1.481 . S
C580 C2087 1.481 . S
C1424 C591 1.481 . S
C2061 C602 1.481 1_455 S
C1450 C613 1.481 . S
C624 C1658 1.481 . S
C1580 C635 1.481 . S
C1671 C646 1.481 . S
C657 C1645 1.481 . S
C668 C1606 1.481 . S
C679 C2243 1.481 . S
C690 C2256 1.481 . S
C2217 C701 1.481 . S
C712 C1541 1.481 . S
C2139 C723 1.481 . S
C1476 C734 1.481 . S
C2113 C745 1.481 1_554 S
C756 C2126 1.481 . S
C767 C1567 1.481 1_554 S
C1528 C778 1.481 . S
C789 C1554 1.481 . S
C800 C1697 1.434 . S
C1086 C811 1.434 . S
C1723 C822 1.434 1_655 S
C833 C1060 1.434 . S
C1775 C844 1.434 . S
C1112 C855 1.434 . S
C866 C1749 1.434 1_455 S
C877 C1138 1.434 . S
C1346 C888 1.434 . S
C899 C1268 1.434 . S
C1359 C910 1.434 . S
C1333 C921 1.434 . S
C932 C1294 1.434 . S
C943 C1931 1.434 . S
C1944 C954 1.434 . S
C965 C1905 1.434 . S
C1229 C976 1.434 . S
C1827 C987 1.434 . S
C998 C1164 1.434 . S
C1009 C1801 1.434 1_554 S
C1020 C1814 1.434 . S
C1031 C1255 1.434 1_556 S
C1042 C1216 1.434 . S
C1242 C1053 1.434 . S
C1181 C5 1.095 . S
C1194 C16 1.095 . S
C27 C1207 1.095 . S
C38 C1168 1.095 . S
C49 C1259 1.095 . S
C1220 C60 1.095 . S
C1233 C71 1.095 . S
C82 C1246 1.095 . S
C93 C1103 1.096 . S
C104 C1064 1.095 . S
C115 C1077 1.096 . S
C1090 C126 1.095 . S
C137 C1129 1.095 . S
C148 C1142 1.096 . S
C159 C1155 1.095 . S
C170 C1116 1.096 . S
C1298 C181 1.095 . S
C192 C1974 1.095 . S
C1272 C203 1.095 . S
C1987 C214 1.095 . S
C225 C1961 1.095 . S
C236 C1948 1.095 . S
C1909 C247 1.095 . S
C1935 C258 1.095 . S
C1493 C269 1.864 . S
C1506 C280 1.864 . S
C1519 C291 1.864 . S
C302 C1480 1.863 . S
C313 C1571 1.863 . S
C1532 C324 1.864 . S
C335 C1545 1.864 . S
C1558 C346 1.864 . S
C357 C1415 1.864 . S
C1376 C368 1.863 . S
C379 C1389 1.864 . S
C1402 C390 1.864 . S
C1441 C401 1.864 . S
C412 C1454 1.864 . S
C1467 C423 1.863 . S
C1428 C434 1.864 . S
C1610 C445 1.864 . S
C2286 C456 1.864 . S
C1584 C467 1.863 . S
C478 C2299 1.864 . S
C489 C2273 1.864 . S
C2260 C500 1.863 . S
C2221 C511 1.864 . S
C2247 C522 1.864 . S
C533 C1805 1.095 . S
C1818 C544 1.095 . S
C555 C1831 1.095 . S
C1792 C566 1.095 . S
C577 C1883 1.095 . S
C588 C1844 1.095 . S
C599 C1857 1.095 . S
C610 C1870 1.095 . S
C621 C1727 1.096 . S
C1688 C632 1.095 . S
C1701 C643 1.096 . S
C654 C1714 1.095 . S
C665 C1753 1.095 . S
C676 C1766 1.096 . S
C687 C1779 1.095 . S
C698 C1740 1.096 . S
C1922 C709 1.095 . S
C1350 C720 1.095 . S
C1896 C731 1.095 . S
C1363 C742 1.095 . S
C1337 C753 1.095 . S
C1324 C764 1.095 . S
C775 C1285 1.095 . S
C1311 C786 1.095 . S
C797 C2117 1.864 . S
C808 C2130 1.864 . S
C2143 C819 1.864 . S
C830 C2104 1.863 . S
C2195 C841 1.863 . S
C852 C2156 1.864 . S
C863 C2169 1.864 . S
C2182 C874 1.864 . S
C2039 C885 1.864 . S
C2000 C896 1.863 . S
C2013 C907 1.864 . S
C2026 C918 1.864 . S
C929 C2065 1.864 . S
C2078 C940 1.864 . S
C951 C2091 1.863 . S
C962 C2052 1.864 . S
C973 C2234 1.864 . S
C984 C1662 1.864 . S
C995 C2208 1.863 . S
C1675 C1006 1.864 . S
C1017 C1649 1.864 . S
C1028 C1636 1.863 . S
C1039 C1597 1.864 . S
C1623 C1050 1.864 . S
C7 C1065 1.532 . S
C18 C1078 1.532 . S
C29 C1091 1.532 . S
C1104 C40 1.532 . S
C1117 C51 1.532 . S
C62 C1130 1.532 . S
C73 C1143 1.532 . S
C84 C1156 1.532 . S
C1169 C95 1.532 . S
C1182 C106 1.532 . S
C117 C1195 1.532 . S
C1208 C128 1.532 . S
C139 C1221 1.532 . S
C150 C1234 1.532 . S
C161 C1247 1.532 . S
C172 C1260 1.532 . S
C183 C1273 1.532 . S
C194 C1286 1.532 . S
C1299 C205 1.532 . S
C1312 C216 1.532 . S
C1325 C227 1.532 . S
C1338 C238 1.532 . S
C249 C1351 1.532 . S
C1364 C260 1.532 . S
C271 C1377 1.817 . S
C282 C1390 1.818 . S
C293 C1403 1.817 . S
C1416 C304 1.818 . S
C315 C1429 1.818 . S
C1442 C326 1.817 . S
C337 C1455 1.818 . S
C348 C1468 1.817 . S
C1481 C359 1.817 . S
C370 C1494 1.818 . S
C1507 C381 1.818 . S
C392 C1520 1.818 . S
C1533 C403 1.818 . S
C1546 C414 1.818 . S
C1559 C425 1.818 . S
C436 C1572 1.817 . S
C447 C1585 1.817 . S
C458 C1598 1.818 . S
C469 C1611 1.818 . S
C480 C1624 1.818 . S
C491 C1637 1.817 . S
C1650 C502 1.818 . S
C513 C1663 1.818 . S
C1676 C524 1.818 . S
C535 C1689 1.532 . S
C1702 C546 1.532 . S
C1715 C557 1.532 . S
C1728 C568 1.532 . S
C579 C1741 1.532 . S
C590 C1754 1.532 . S
C1767 C601 1.532 . S
C1780 C612 1.532 . S
C623 C1793 1.532 . S
C634 C1806 1.532 . S
C645 C1819 1.532 . S
C656 C1832 1.532 . S
C667 C1845 1.532 . S
C1858 C678 1.532 . S
C1871 C689 1.532 . S
C1884 C700 1.532 . S
C1897 C711 1.532 . S
C722 C1910 1.532 . S
C733 C1923 1.532 . S
C1936 C744 1.532 . S
C755 C1949 1.532 . S
C1962 C766 1.532 . S
C1975 C777 1.532 . S
C1988 C788 1.532 . S
C799 C2001 1.817 . S
C810 C2014 1.818 . S
C821 C2027 1.817 . S
C832 C2040 1.818 . S
C2053 C843 1.818 . S
C2066 C854 1.817 . S
C2079 C865 1.818 . S
C876 C2092 1.817 . S
C887 C2105 1.817 . S
C2118 C898 1.818 . S
C2131 C909 1.818 . S
C2144 C920 1.818 . S
C2157 C931 1.818 . S
C2170 C942 1.818 . S
C2183 C953 1.818 . S
C2196 C964 1.817 . S
C2209 C975 1.817 . S
C2222 C986 1.818 . S
C2235 C997 1.818 . S
C1008 C2248 1.818 . S
C2261 C1019 1.817 . S
C1030 C2274 1.818 . S
C2287 C1041 1.818 . S
C2300 C1052 1.818 . S
