# Generated by pormake.
# Topology zzz, (3,6)-cn, num edge types: 1
# Building blocks:
#     Node 0, Type 0, BuildingBlock: BETDIP_clean_linker_0, # of connection points: 3
#     Node 1, Type 0, BuildingBlock: BETDIP_clean_linker_0, # of connection points: 3
#     Node 2, Type 0, BuildingBlock: BETDIP_clean_linker_0, # of connection points: 3
#     Node 3, Type 0, BuildingBlock: BETDIP_clean_linker_0, # of connection points: 3
#     Node 4, Type 0, BuildingBlock: BETDIP_clean_linker_0, # of connection points: 3
#     Node 5, Type 0, BuildingBlock: BETDIP_clean_linker_0, # of connection points: 3
#     Node 6, Type 0, BuildingBlock: BETDIP_clean_linker_0, # of connection points: 3
#     Node 7, Type 0, BuildingBlock: BETDIP_clean_linker_0, # of connection points: 3
#     Node 8, Type 1, BuildingBlock: BETFAJ_clean_sbu_0, # of connection points: 6
#     Node 9, Type 1, BuildingBlock: BETFAJ_clean_sbu_0, # of connection points: 6
#     Node 10, Type 1, BuildingBlock: BETFAJ_clean_sbu_0, # of connection points: 6
#     Node 11, Type 1, BuildingBlock: BETFAJ_clean_sbu_0, # of connection points: 6
#     Edge 12, Type (0, 1), BuildingBlock: AJUNOK_clean_linker_0, # of connection points: 2
#     Edge 13, Type (0, 1), BuildingBlock: AJUNOK_clean_linker_0, # of connection points: 2
#     Edge 14, Type (0, 1), BuildingBlock: AJUNOK_clean_linker_0, # of connection points: 2
#     Edge 15, Type (0, 1), BuildingBlock: AJUNOK_clean_linker_0, # of connection points: 2
#     Edge 16, Type (0, 1), BuildingBlock: AJUNOK_clean_linker_0, # of connection points: 2
#     Edge 17, Type (0, 1), BuildingBlock: AJUNOK_clean_linker_0, # of connection points: 2
#     Edge 18, Type (0, 1), BuildingBlock: AJUNOK_clean_linker_0, # of connection points: 2
#     Edge 19, Type (0, 1), BuildingBlock: AJUNOK_clean_linker_0, # of connection points: 2
#     Edge 20, Type (0, 1), BuildingBlock: AJUNOK_clean_linker_0, # of connection points: 2
#     Edge 21, Type (0, 1), BuildingBlock: AJUNOK_clean_linker_0, # of connection points: 2
#     Edge 22, Type (0, 1), BuildingBlock: AJUNOK_clean_linker_0, # of connection points: 2
#     Edge 23, Type (0, 1), BuildingBlock: AJUNOK_clean_linker_0, # of connection points: 2
#     Edge 24, Type (0, 1), BuildingBlock: AJUNOK_clean_linker_0, # of connection points: 2
#     Edge 25, Type (0, 1), BuildingBlock: AJUNOK_clean_linker_0, # of connection points: 2
#     Edge 26, Type (0, 1), BuildingBlock: AJUNOK_clean_linker_0, # of connection points: 2
#     Edge 27, Type (0, 1), BuildingBlock: AJUNOK_clean_linker_0, # of connection points: 2
#     Edge 28, Type (0, 1), BuildingBlock: AJUNOK_clean_linker_0, # of connection points: 2
#     Edge 29, Type (0, 1), BuildingBlock: AJUNOK_clean_linker_0, # of connection points: 2
#     Edge 30, Type (0, 1), BuildingBlock: AJUNOK_clean_linker_0, # of connection points: 2
#     Edge 31, Type (0, 1), BuildingBlock: AJUNOK_clean_linker_0, # of connection points: 2
#     Edge 32, Type (0, 1), BuildingBlock: AJUNOK_clean_linker_0, # of connection points: 2
#     Edge 33, Type (0, 1), BuildingBlock: AJUNOK_clean_linker_0, # of connection points: 2
#     Edge 34, Type (0, 1), BuildingBlock: AJUNOK_clean_linker_0, # of connection points: 2
#     Edge 35, Type (0, 1), BuildingBlock: AJUNOK_clean_linker_0, # of connection points: 2
# Relax obj value: 0.368
# Max RMSD: 0.211
# Mean RMSD: 0.160
data_MOF--net-zzz--node1-BETFAJ_clean_sbu_0--node2-BETDIP_clean_linker_0--edge1-AJUNOK_clean_linker_0
_symmetry_space_group_name_H-M    P1
_symmetry_Int_Tables_number       1
_symmetry_cell_setting            triclinic
loop_
_symmetry_equiv_pos_as_xyz
'x, y, z'
_cell_length_a     38.368778
_cell_length_b     38.430394
_cell_length_c     10.029174
_cell_angle_alpha  89.849816
_cell_angle_beta   89.997888
_cell_angle_gamma 90.040233
loop_
_atom_site_label
_atom_site_type_symbol
_atom_site_fract_x
_atom_site_fract_y
_atom_site_fract_z
_atom_type_partial_charge
H0 H 0.77988 0.54254 0.49723 0.0
H1 H 0.74626 0.44448 0.32612 0.0
H2 H 0.843 0.45084 0.53426 0.0
H3 H 0.71861 0.47637 0.18662 0.0
C4 C 0.70827 0.49837 0.24115 0.0
C5 C 0.7835 0.51495 0.48071 0.0
C6 C 0.81376 0.49811 0.5315 0.0
C7 C 0.75835 0.49593 0.40533 0.0
C8 C 0.76436 0.4601 0.38276 0.0
C9 C 0.79499 0.44397 0.42649 0.0
C10 C 0.8186 0.46284 0.50436 0.0
N11 N 0.72819 0.51297 0.34894 0.0
H12 H 1.00148 0.77748 0.51887 0.0
H13 H 0.09521 0.73824 0.33433 0.0
H14 H 0.09554 0.8378 0.52701 0.0
H15 H 0.04561 0.73149 0.17109 0.0
C16 C 0.03428 0.71248 0.23906 0.0
C17 C 0.02907 0.77986 0.49819 0.0
C18 C 0.04733 0.81037 0.53726 0.0
C19 C 0.04649 0.75333 0.42499 0.0
C20 C 0.08196 0.75781 0.39288 0.0
C21 C 0.09982 0.78826 0.42709 0.0
C22 C 0.08252 0.81351 0.5036 0.0
N23 N 0.02833 0.72356 0.3735 0.0
H24 H 0.77184 1.00479 0.49447 0.0
H25 H 0.81623 0.09507 0.30115 0.0
H26 H 0.71593 0.10141 0.48767 0.0
H27 H 0.86694 0.0681 0.40334 0.0
C28 C 0.86223 0.04446 0.34675 0.0
C29 C 0.77084 0.03225 0.4703 0.0
C30 C 0.74119 0.05214 0.50597 0.0
C31 C 0.79905 0.04812 0.40146 0.0
C32 C 0.79623 0.08331 0.36288 0.0
C33 C 0.76625 0.10253 0.39155 0.0
C34 C 0.7398 0.08714 0.46843 0.0
N35 N 0.82879 0.02837 0.36024 0.0
H36 H 0.54705 0.77472 0.48485 0.0
H37 H 0.45447 0.80928 0.27854 0.0
H38 H 0.4534 0.71376 0.50017 0.0
H39 H 0.47752 0.86309 0.36257 0.0
C40 C 0.50244 0.85943 0.31283 0.0
C41 C 0.5197 0.77157 0.46117 0.0
C42 C 0.50141 0.74187 0.5074 0.0
C43 C 0.5023 0.79721 0.38383 0.0
C44 C 0.46728 0.79154 0.34689 0.0
C45 C 0.4494 0.76166 0.38854 0.0
C46 C 0.4664 0.73779 0.47229 0.0
N47 N 0.52038 0.82735 0.33539 0.0
H48 H 0.2742 0.50824 0.11514 0.0
H49 H 0.30245 0.60664 0.29391 0.0
H50 H 0.20447 0.59505 0.09449 0.0
H51 H 0.35624 0.58857 0.26702 0.0
C52 C 0.35506 0.5613 0.29506 0.0
C53 C 0.26895 0.53549 0.1334 0.0
C54 C 0.23691 0.55021 0.09052 0.0
C55 C 0.29389 0.55611 0.20287 0.0
C56 C 0.28523 0.59099 0.23355 0.0
C57 C 0.25296 0.60522 0.19659 0.0
C58 C 0.23001 0.58495 0.12026 0.0
N59 N 0.32574 0.54092 0.25226 0.0
H60 H 0.06073 0.26432 0.15294 0.0
H61 H 0.96882 0.31038 0.32558 0.0
H62 H 0.96188 0.21373 0.1119 0.0
H63 H 1.01177 0.36443 0.20519 0.0
C64 C 1.02618 0.35512 0.29144 0.0
C65 C 0.03274 0.26445 0.16676 0.0
C66 C 1.01235 0.2367 0.11594 0.0
C67 C 1.01664 0.29234 0.23635 0.0
C68 C 0.98063 0.29087 0.26209 0.0
C69 C 0.96073 0.2622 0.22102 0.0
C70 C 0.97657 0.23654 0.14162 0.0
N71 N 0.03687 0.31949 0.29555 0.0
H72 H 0.28669 0.0502 0.14677 0.0
H73 H 0.24855 0.95631 0.33373 0.0
H74 H 0.34634 0.95598 0.12698 0.0
H75 H 0.19574 0.98059 0.24311 0.0
C76 C 0.19932 1.00467 0.29815 0.0
C77 C 0.28917 1.02261 0.16677 0.0
C78 C 0.31923 1.00444 0.12335 0.0
C79 C 0.26231 1.00476 0.23646 0.0
C80 C 0.26718 0.96945 0.26986 0.0
C81 C 0.29745 0.95171 0.23238 0.0
C82 C 0.32229 0.96904 0.15356 0.0
N83 N 0.23179 1.02259 0.28248 0.0
H84 H 0.50124 0.29266 0.15068 0.0
H85 H 0.59279 0.25196 0.34537 0.0
H86 H 0.59783 0.34834 0.12742 0.0
H87 H 0.5586 0.19766 0.23182 0.0
C88 C 0.53923 0.20486 0.30612 0.0
C89 C 0.52891 0.29414 0.17123 0.0
C90 C 0.54861 0.32255 0.12222 0.0
C91 C 0.54524 0.26761 0.24715 0.0
C92 C 0.58081 0.27085 0.27934 0.0
C93 C 0.60004 0.30009 0.23858 0.0
C94 C 0.58391 0.32488 0.1557 0.0
N95 N 0.52552 0.23938 0.30179 0.0
Sm96 Sm 0.05198 1.01613 0.92091 0.0
Sm97 Sm 1.00669 0.03197 0.71398 0.0
C98 C 0.08653 0.98862 0.12333 0.0
C99 C 0.10597 0.95628 0.14934 0.0
C100 C 0.09329 0.93343 0.24683 0.0
C101 C 0.11091 0.90271 0.27487 0.0
C102 C 0.14155 0.89402 0.20573 0.0
C103 C 0.15427 0.91649 0.10687 0.0
C104 C 0.13667 0.94767 0.07928 0.0
C105 C 0.08882 0.03076 0.68901 0.0
C106 C 1.02399 0.95099 0.7319 0.0
C107 C 0.97267 0.06013 0.51147 0.0
C108 C 0.95344 0.09269 0.48726 0.0
C109 C 0.96486 0.11472 0.38483 0.0
C110 C 0.9475 0.14575 0.35902 0.0
C111 C 0.91862 0.15571 0.43627 0.0
C112 C 0.90737 0.13415 0.54056 0.0
C113 C 0.92452 0.10257 0.56531 0.0
C114 C 0.96998 1.01757 0.94622 0.0
C115 C 0.03407 0.09694 0.90579 0.0
O116 O 0.05286 0.98524 0.1079 0.0
O117 O 0.10033 1.01105 0.04085 0.0
O118 O 0.06205 1.01161 0.69719 0.0
O119 O 0.09567 0.04427 0.80414 0.0
O120 O 0.03492 0.96022 0.85191 0.0
O121 O 1.01543 0.97551 0.64621 0.0
O122 O 1.00632 0.06332 0.52794 0.0
O123 O 0.95864 0.03743 0.59238 0.0
O124 O 0.99676 0.03665 0.93726 0.0
O125 O 0.96282 1.00412 0.8312 0.0
O126 O 1.02316 0.08787 0.78555 0.0
O127 O 0.04297 0.07233 0.99043 0.0
H128 H 0.06975 0.93941 0.30197 0.0
H129 H 0.10015 0.88527 0.34933 0.0
H130 H 0.17743 0.90981 0.05081 0.0
H131 H 0.1469 0.96477 1.00274 0.0
H132 H 0.98717 0.10782 0.32409 0.0
H133 H 0.95726 0.16255 0.28046 0.0
H134 H 0.88578 0.14192 0.60334 0.0
H135 H 0.91548 0.08623 0.64635 0.0
Sm136 Sm 0.53862 0.05355 0.92162 0.0
Sm137 Sm 0.5206 1.01154 0.71177 0.0
C138 C 0.56814 0.08434 0.12778 0.0
C139 C 0.59788 0.10767 0.14768 0.0
C140 C 0.61445 0.10794 0.27154 0.0
C141 C 0.6444 0.12773 0.29013 0.0
C142 C 0.65858 0.14749 0.18455 0.0
C143 C 0.64068 0.14877 0.06239 0.0
C144 C 0.6105 0.12887 0.04393 0.0
C145 C 0.52086 0.09493 0.70508 0.0
C146 C 0.60119 0.02998 0.71452 0.0
C147 C 0.49277 0.97789 0.50881 0.0
C148 C 0.46256 0.95503 0.4888 0.0
C149 C 0.43743 0.96521 0.39586 0.0
C150 C 0.40788 0.94504 0.37664 0.0
C151 C 0.40275 0.91424 0.45009 0.0
C152 C 0.42767 0.90387 0.54401 0.0
C153 C 0.45767 0.92413 0.56288 0.0
C154 C 0.53581 0.97188 0.93769 0.0
C155 C 0.45725 0.0355 0.91287 0.0
O156 O 0.57562 0.05255 0.09205 0.0
O157 O 0.54162 0.09737 0.0633 0.0
O158 O 0.53951 0.06771 0.69902 0.0
O159 O 0.51053 0.10008 0.82605 0.0
O160 O 0.59381 0.03825 0.83915 0.0
O161 O 0.57537 1.0232 0.63301 0.0
O162 O 0.48562 1.01037 0.53597 0.0
O163 O 0.51866 0.96558 0.57882 0.0
O164 O 0.51723 0.99889 0.93375 0.0
O165 O 0.54888 0.9662 0.82085 0.0
O166 O 0.46513 1.02694 0.78895 0.0
O167 O 0.48284 0.04243 0.99618 0.0
H168 H 0.60496 0.0918 0.35261 0.0
H169 H 0.65784 0.12543 0.38471 0.0
H170 H 0.65105 0.1636 0.9794 0.0
H171 H 0.59777 0.12903 0.94748 0.0
H172 H 0.44064 0.98883 0.33792 0.0
H173 H 0.38853 0.95394 0.30585 0.0
H174 H 0.42372 0.8806 0.60328 0.0
H175 H 0.47663 0.91595 0.63653 0.0
Sm176 Sm 0.50063 0.53843 0.90416 0.0
Sm177 Sm 0.5504 0.52515 0.71247 0.0
C178 C 0.46068 0.56149 0.10005 0.0
C179 C 0.43831 0.59155 0.12791 0.0
C180 C 0.44202 0.60803 0.25087 0.0
C181 C 0.42352 0.63823 0.27832 0.0
C182 C 0.40107 0.65294 0.18254 0.0
C183 C 0.39689 0.63614 0.05933 0.0
C184 C 0.41526 0.60541 0.03236 0.0
C185 C 0.46845 0.52416 0.66092 0.0
C186 C 0.52973 0.60531 0.72815 0.0
C187 C 0.5916 0.50051 0.52231 0.0
C188 C 0.61012 0.46728 0.4997 0.0
C189 C 0.59133 0.43771 0.46071 0.0
C190 C 0.60812 0.40604 0.44463 0.0
C191 C 0.64412 0.40286 0.46742 0.0
C192 C 0.66344 0.4324 0.50269 0.0
C193 C 0.64646 0.4645 0.5191 0.0
C194 C 0.58218 0.53857 0.95679 0.0
C195 C 0.52145 0.45858 0.89062 0.0
O196 O 0.49407 0.56796 0.09225 0.0
O197 O 0.4499 0.5394 1.01044 0.0
O198 O 0.49458 0.54386 0.67804 0.0
O199 O 0.46038 0.50969 0.77335 0.0
O200 O 0.51624 0.59529 0.84337 0.0
O201 O 0.54172 0.58159 0.64602 0.0
O202 O 0.55754 0.49967 0.51644 0.0
O203 O 0.60292 0.51982 0.61987 0.0
O204 O 0.55599 0.51915 0.93777 0.0
O205 O 0.58982 0.55439 0.84637 0.0
O206 O 0.53378 0.46825 0.77289 0.0
O207 O 0.5109 0.4827 0.97364 0.0
H208 H 0.46011 0.59807 0.32469 0.0
H209 H 0.42855 0.65123 0.37214 0.0
H210 H 0.38068 0.64756 0.98243 0.0
H211 H 0.41249 0.59333 0.93548 0.0
H212 H 0.56352 0.43882 0.4427 0.0
H213 H 0.59285 0.38382 0.41274 0.0
H214 H 0.69135 0.43064 0.5174 0.0
H215 H 0.66166 0.48708 0.5472 0.0
Sm216 Sm 1.01785 0.49983 0.92859 0.0
Sm217 Sm 0.03419 0.5438 0.71783 0.0
C218 C 0.99529 0.46403 0.1386 0.0
C219 C 0.96747 0.43911 0.16886 0.0
C220 C 0.95631 0.43533 0.30057 0.0
C221 C 0.92702 0.41523 0.32961 0.0
C222 C 0.9084 0.39828 0.22713 0.0
C223 C 0.92168 0.39975 0.0964 0.0
C224 C 0.95087 0.42025 0.06727 0.0
C225 C 0.03666 0.46155 0.70454 0.0
C226 C 0.95122 0.52506 0.74866 0.0
C227 C 0.04921 0.57969 0.50028 0.0
C228 C 0.08058 0.59981 0.46256 0.0
C229 C 0.11212 0.58241 0.43852 0.0
C230 C 0.14252 0.60107 0.41583 0.0
C231 C 0.14233 0.63761 0.41631 0.0
C232 C 0.11085 0.65532 0.43563 0.0
C233 C 0.0801 0.63648 0.45959 0.0
C234 C 0.04042 0.58022 0.95606 0.0
C235 C 0.09893 0.51651 0.89503 0.0
O236 O 0.98583 0.49602 0.11396 0.0
O237 O 1.01931 0.45317 0.05745 0.0
O238 O 1.01659 0.48764 0.70465 0.0
O239 O 0.04776 0.45554 0.82386 0.0
O240 O 0.96171 0.50391 0.84441 0.0
O241 O 0.97421 0.54464 0.68574 0.0
O242 O 0.05314 0.54594 0.50973 0.0
O243 O 0.03041 0.59245 0.59721 0.0
O244 O 1.01547 0.55963 0.9281 0.0
O245 O 0.06298 0.5801 0.86051 0.0
O246 O 0.08923 0.52153 0.76984 0.0
O247 O 0.07442 0.51374 0.98651 0.0
H248 H 0.96908 0.44947 0.38019 0.0
H249 H 0.91737 0.41573 0.43099 0.0
H250 H 0.90807 0.38708 0.0153 0.0
H251 H 0.95948 0.42265 0.96475 0.0
H252 H 0.11365 0.55426 0.43916 0.0
H253 H 0.16641 0.58683 0.39707 0.0
H254 H 0.11017 0.68344 0.43396 0.0
H255 H 0.0561 0.65051 0.47769 0.0
C256 C 0.14624 0.98843 0.42627 0.0
C257 C 0.1718 1.01368 0.39804 0.0
C258 C 0.11879 0.99471 0.51556 0.0
C259 C 0.11634 1.02629 0.58525 0.0
H260 H 0.14801 0.96307 0.3807 0.0
H261 H 0.10007 0.9741 0.53355 0.0
S262 S 0.17725 0.10097 0.55341 0.0
N263 N 0.19295 0.07177 0.44867 0.0
N264 N 0.14237 0.08314 0.62219 0.0
C265 C 0.14212 0.05171 0.56062 0.0
C266 C 0.16969 0.04553 0.46635 0.0
C267 C 0.53534 0.1428 0.37613 0.0
C268 C 0.52921 0.17787 0.40691 0.0
C269 C 0.53185 0.11608 0.47127 0.0
C270 C 0.52141 0.12334 0.60255 0.0
H271 H 0.54345 0.13623 0.2767 0.0
H272 H 0.53785 0.08966 0.4422 0.0
S273 S 0.49949 0.21111 0.73427 0.0
N274 N 0.51056 0.21846 0.57749 0.0
N275 N 0.50292 0.16865 0.75687 0.0
C276 C 0.51341 0.15835 0.63374 0.0
C277 C 0.51743 0.18556 0.53613 0.0
C278 C 0.39646 0.57367 0.48106 0.0
C279 C 0.38245 0.54923 0.39114 0.0
C280 C 0.4248 0.56556 0.56456 0.0
C281 C 0.44023 0.5324 0.56338 0.0
H282 H 0.38562 0.59967 0.48577 0.0
H283 H 0.43448 0.58537 0.63182 0.0
S284 S 0.41351 0.45859 0.34884 0.0
N285 N 0.38643 0.49022 0.30658 0.0
N286 N 0.439 0.47457 0.46674 0.0
C287 C 0.42609 0.50734 0.47647 0.0
C288 C 0.39734 0.51578 0.38985 0.0
C289 C 1.02054 0.37452 0.53052 0.0
C290 C 0.03338 0.38039 0.40092 0.0
C291 C 1.02201 0.40077 0.62878 0.0
C292 C 0.036 0.43394 0.60045 0.0
H293 H 1.00812 0.34997 0.55468 0.0
H294 H 1.01129 0.39538 0.72663 0.0
S295 S 0.07803 0.4604 0.28415 0.0
N296 N 0.0641 0.42042 0.25512 0.0
N297 N 0.06615 0.4697 0.43821 0.0
C298 C 0.05004 0.43957 0.47316 0.0
C299 C 0.04886 0.41283 0.37383 0.0
C300 C 0.9131 0.0611 0.2074 0.0
C301 C 0.88849 0.03551 0.24219 0.0
C302 C 0.93997 0.05464 0.11589 0.0
C303 C 0.94268 1.02248 0.05038 0.0
H304 H 0.91103 0.08681 0.2499 0.0
H305 H 0.95809 0.07548 0.09329 0.0
S306 S 0.88362 0.94691 0.09791 0.0
N307 N 0.86812 0.97664 0.20092 0.0
N308 N 0.91755 0.96487 0.02284 0.0
C309 C 0.91758 0.9968 0.08047 0.0
C310 C 0.89063 1.00321 0.17713 0.0
C311 C 0.49031 0.91491 0.19455 0.0
C312 C 0.51364 0.88735 0.21762 0.0
C313 C 0.49836 0.94259 0.10861 0.0
C314 C 0.5298 0.9434 0.03669 0.0
H315 H 0.46502 0.91461 0.2416 0.0
H316 H 0.47911 0.96292 0.09512 0.0
S317 S 0.59976 0.87688 0.05454 0.0
N318 N 0.56982 0.86243 0.15959 0.0
N319 N 0.58442 0.91364 0.99188 0.0
C320 C 0.55333 0.91566 0.05607 0.0
C321 C 0.5454 0.88777 0.14735 0.0
C322 C 0.66558 0.54529 0.16702 0.0
C323 C 0.67292 0.51022 0.19682 0.0
C324 C 0.63521 0.55469 0.09485 0.0
C325 C 0.61059 0.52953 0.05355 0.0
H326 H 0.68447 0.56524 0.19132 0.0
H327 H 0.6316 0.5817 0.06694 0.0
S328 S 0.61709 0.43439 0.11285 0.0
N329 N 0.65269 0.45056 0.18139 0.0
N330 N 0.59539 0.46817 0.05441 0.0
C331 C 0.61683 0.49473 0.09017 0.0
C332 C 0.64803 0.48513 0.15933 0.0
C333 C 0.06566 0.66619 0.11607 0.0
C334 C 0.03677 0.67542 0.19441 0.0
C335 C 0.06715 0.6344 0.048 0.0
C336 C 0.03934 0.61037 0.05133 0.0
H337 H 0.08705 0.68436 0.10355 0.0
H338 H 0.08987 0.62949 0.98677 0.0
S339 S 0.95916 0.62002 0.25512 0.0
N340 N 0.981 0.65641 0.28305 0.0
N341 N 0.98324 0.59675 0.15167 0.0
C342 C 1.01105 0.61822 0.13603 0.0
C343 C 1.00986 0.6507 0.20805 0.0
C344 C 0.93133 0.24816 0.43188 0.0
C345 C 0.92818 0.25241 0.2927 0.0
C346 C 0.91962 0.21746 0.49293 0.0
C347 C 0.90461 0.19102 0.41551 0.0
H348 H 0.94875 0.26467 0.48858 0.0
H349 H 0.92823 0.21186 0.59354 0.0
S350 S 0.87282 0.1997 0.06931 0.0
N351 N 0.89489 0.23593 0.09681 0.0
N352 N 0.87417 0.17739 0.21033 0.0
C353 C 0.89235 0.19986 0.2882 0.0
C354 C 0.9036 0.23141 0.22701 0.0
C355 C 0.31161 0.92274 0.44462 0.0
C356 C 0.30864 0.91985 0.30499 0.0
C357 C 0.34167 0.91077 0.50937 0.0
C358 C 0.36903 0.89646 0.43442 0.0
H359 H 0.29455 0.93997 0.49959 0.0
H360 H 0.34649 0.91963 0.61024 0.0
S361 S 0.36374 0.8653 0.08721 0.0
N362 N 0.32736 0.88755 0.10979 0.0
N363 N 0.38445 0.866 0.23167 0.0
C364 C 0.36118 0.88399 0.3067 0.0
C365 C 0.3305 0.89579 0.24088 0.0
C366 C 0.6309 0.31224 0.45007 0.0
C367 C 0.63247 0.31051 0.30981 0.0
C368 C 0.64537 0.34075 0.51723 0.0
C369 C 0.66 0.36841 0.44408 0.0
H370 H 0.6134 0.29546 0.50553 0.0
H371 H 0.63822 0.34466 0.62059 0.0
S372 S 0.68934 0.36429 0.09376 0.0
N373 N 0.66481 0.32927 0.11378 0.0
N374 N 0.69038 0.38382 0.24035 0.0
C375 C 0.67095 0.3613 0.31376 0.0
C376 C 0.65708 0.33192 0.24555 0.0
C377 C 0.21322 0.65637 0.19144 0.0
C378 C 0.23846 0.63694 0.26211 0.0
C379 C 0.18134 0.66464 0.25224 0.0
C380 C 0.17543 0.6555 0.38594 0.0
H381 H 0.21486 0.65835 0.08381 0.0
H382 H 0.15968 0.67223 0.1892 0.0
S383 S 0.24172 0.62686 0.62976 0.0
N384 N 0.26146 0.62444 0.48376 0.0
N385 N 0.20234 0.64219 0.59861 0.0
C386 C 0.20444 0.64705 0.4646 0.0
C387 C 0.23632 0.6374 0.40224 0.0
C388 C 0.1554 0.82136 0.42522 0.0
C389 C 0.13251 0.79878 0.35745 0.0
C390 C 0.1668 0.85203 0.36301 0.0
C391 C 0.15672 0.85943 0.23116 0.0
H392 H 0.15812 0.81935 0.53252 0.0
H393 H 0.17753 0.87249 0.42486 0.0
S394 S 0.11897 0.79708 0.99147 0.0
N395 N 0.11572 0.77752 0.13776 0.0
N396 N 0.13843 0.83468 0.02038 0.0
C397 C 0.14421 0.83188 0.15363 0.0
C398 C 0.13188 0.8011 0.21731 0.0
C399 C 0.73757 0.16011 0.37739 0.0
C400 C 0.75706 0.13404 0.31314 0.0
C401 C 0.70667 0.17236 0.31927 0.0
C402 C 0.69539 0.15887 0.19613 0.0
H403 H 0.742 0.16541 0.4821 0.0
H404 H 0.68866 0.18678 0.38133 0.0
S405 S 0.74902 0.10816 0.95917 0.0
N406 N 0.77187 0.10869 0.09858 0.0
N407 N 0.71389 0.13163 0.98927 0.0
C408 C 0.72021 0.14186 0.11663 0.0
C409 C 0.75157 0.12946 0.17575 0.0
C410 C 0.41989 0.74462 0.18051 0.0
C411 C 0.41735 0.74983 0.31911 0.0
C412 C 0.4058 0.7146 0.12261 0.0
C413 C 0.3897 0.68931 0.2032 0.0
H414 H 0.43786 0.75998 0.12136 0.0
H415 H 0.41336 0.70831 0.02151 0.0
S416 S 0.3604 0.70104 0.55119 0.0
N417 N 0.38492 0.7355 0.51997 0.0
N418 N 0.35918 0.67852 0.41113 0.0
C419 C 0.37854 0.69943 0.33061 0.0
C420 C 0.39249 0.73011 0.38931 0.0
C421 C 0.81432 0.41467 0.22281 0.0
C422 C 0.80821 0.41205 0.36074 0.0
C423 C 0.84581 0.4029 0.16885 0.0
C424 C 0.87149 0.38813 0.25196 0.0
H425 H 0.79824 0.43147 0.16147 0.0
H426 H 0.85206 0.41087 0.0681 0.0
S427 S 0.85795 0.3576 0.59838 0.0
N428 N 0.82271 0.3806 0.56351 0.0
N429 N 0.8818 0.3577 0.46112 0.0
C430 C 0.86091 0.37653 0.37875 0.0
C431 C 0.82891 0.38863 0.4337 0.0
C432 C 0.03972 0.17743 0.13181 0.0
C433 C 1.02688 0.20464 0.05142 0.0
C434 C 0.04326 0.14322 0.08235 0.0
C435 C 0.03388 0.13446 0.95019 0.0
H436 H 0.04494 0.18212 0.2364 0.0
H437 H 0.05204 0.12319 0.15063 0.0
S438 S 1.00091 0.19694 0.69637 0.0
N439 N 1.00618 0.22086 0.83151 0.0
N440 N 1.01316 0.15716 0.73776 0.0
C441 C 1.02253 0.16191 0.86709 0.0
C442 C 1.01889 0.1967 0.91783 0.0
C443 C 0.3601 1.01222 0.92977 0.0
C444 C 0.35042 1.02132 0.06069 0.0
C445 C 0.39401 1.01853 0.88074 0.0
C446 C 0.42013 0.03358 0.96137 0.0
H447 H 0.34183 0.99831 0.8671 0.0
H448 H 0.4002 1.00985 0.78085 0.0
S449 S 0.40766 0.06335 0.3108 0.0
N450 N 0.36931 0.04726 0.26842 0.0
N451 N 0.43279 0.05912 0.17809 0.0
C452 C 0.41027 0.04407 0.09099 0.0
C453 C 0.3756 0.03792 0.1401 0.0
C454 C 0.51723 0.37965 0.124 0.0
C455 C 0.53321 0.353 0.05039 0.0
C456 C 0.51202 0.41301 0.06889 0.0
C457 C 0.52281 0.4214 0.93776 0.0
H458 H 0.51077 0.37537 0.22793 0.0
H459 H 0.50087 0.43283 0.13249 0.0
S460 S 0.56299 0.35942 0.69962 0.0
N461 N 0.5577 0.33631 0.83723 0.0
N462 N 0.54769 0.39863 0.73265 0.0
C463 C 0.53708 0.39426 0.86079 0.0
C464 C 0.5424 0.36029 0.91736 0.0
C465 C 0.17999 0.51965 0.11867 0.0
C466 C 0.20694 0.53028 0.03232 0.0
C467 C 0.14583 0.5137 0.0721 0.0
C468 C 0.13675 0.51795 0.93653 0.0
H469 H 0.18465 0.51876 0.22521 0.0
H470 H 0.12599 0.50761 0.14499 0.0
S471 S 0.19842 0.5428 0.66681 0.0
N472 N 0.2226 0.54314 0.8032 0.0
N473 N 0.15893 0.53103 0.71468 0.0
C474 C 0.16401 0.52649 0.84762 0.0
C475 C 0.19883 0.53288 0.89564 0.0
C476 C 1.02231 0.87005 0.50783 0.0
C477 C 0.03081 0.84243 0.5947 0.0
C478 C 1.01865 0.90455 0.55393 0.0
C479 C 1.02373 0.91331 0.68931 0.0
H480 H 1.02088 0.86536 0.40147 0.0
H481 H 1.01352 0.92475 0.48107 0.0
S482 S 0.04319 0.85011 0.9603 0.0
N483 N 0.04202 0.82596 0.82421 0.0
N484 N 0.03485 0.89032 0.91149 0.0
C485 C 0.0304 0.88558 0.77841 0.0
C486 C 0.03406 0.85041 0.7311 0.0
C487 C 0.7005 0.04292 0.69971 0.0
C488 C 0.70856 0.03723 0.56447 0.0
C489 C 0.66615 0.03924 0.74864 0.0
C490 C 0.63817 0.03024 0.66385 0.0
H491 H 0.72061 0.05207 0.76674 0.0
H492 H 0.66132 0.04492 0.85275 0.0
S493 S 0.64581 1.01251 0.3002 0.0
N494 N 0.68598 1.02184 0.34704 0.0
N495 N 0.62183 1.01476 0.43662 0.0
C496 C 0.6463 1.0234 0.52883 0.0
C497 C 0.68127 1.02698 0.47986 0.0
C498 C 0.53459 0.68588 0.503 0.0
C499 C 0.51798 0.71187 0.57819 0.0
C500 C 0.53987 0.65216 0.55491 0.0
C501 C 0.52853 0.64277 0.68424 0.0
H502 H 0.54131 0.6909 0.39978 0.0
H503 H 0.55139 0.63284 0.49004 0.0
S504 S 0.48687 0.70272 0.92655 0.0
N505 N 0.49251 0.72683 0.79166 0.0
N506 N 0.50271 0.66394 0.89032 0.0
C507 C 0.51383 0.66929 0.7633 0.0
C508 C 0.50845 0.7036 0.71003 0.0
C509 C 0.86989 0.53207 0.52542 0.0
C510 C 0.84361 0.51568 0.60124 0.0
C511 C 0.904 0.53682 0.57626 0.0
C512 C 0.91359 0.52479 0.70451 0.0
H513 H 0.86483 0.53888 0.42234 0.0
H514 H 0.92351 0.54808 0.51108 0.0
S515 S 0.85335 0.48356 0.94841 0.0
N516 N 0.82891 0.49011 0.81514 0.0
N517 N 0.89238 0.49878 0.91047 0.0
C518 C 0.88688 0.51033 0.78404 0.0
C519 C 0.8522 0.50586 0.73263 0.0
loop_
_geom_bond_atom_site_label_1
_geom_bond_atom_site_label_2
_geom_bond_distance
_geom_bond_site_symmetry_2
_ccdc_geom_bond_type
H0 C5 0.930 . S
H1 C8 0.930 . S
H2 C10 0.930 . S
H3 C4 1.016 . S
C4 H3 1.016 . S
C4 N11 1.286 . S
C5 H0 0.930 . S
C5 C6 1.397 . S
C5 C7 1.361 . S
C6 C5 1.397 . S
C6 C10 1.390 . S
C7 C5 1.361 . S
C7 C8 1.393 . S
C7 N11 1.413 . S
C8 H1 0.930 . S
C8 C7 1.393 . S
C8 C9 1.399 . S
C9 C8 1.399 . S
C9 C10 1.381 . S
C10 H2 0.930 . S
C10 C6 1.390 . S
C10 C9 1.381 . S
N11 C4 1.286 . S
N11 C7 1.413 . S
H12 C17 0.930 . S
H13 C20 0.930 . S
H14 C22 0.930 . S
H15 C16 1.016 . S
C16 H15 1.016 . S
C16 N23 1.286 1_655 S
C17 H12 0.930 . S
C17 C18 1.397 . S
C17 C19 1.361 . S
C18 C17 1.397 . S
C18 C22 1.390 1_455 S
C19 C17 1.361 . S
C19 C20 1.393 . S
C19 N23 1.413 . S
C20 H13 0.930 . S
C20 C19 1.393 . S
C20 C21 1.403 . S
C21 C20 1.403 . S
C21 C22 1.379 1_455 S
C22 H14 0.930 . S
C22 C18 1.390 1_655 S
C22 C21 1.379 1_655 S
N23 C16 1.286 1_455 S
N23 C19 1.413 . S
H24 C29 0.930 . S
H25 C32 0.930 . S
H26 C34 0.930 . S
H27 C28 1.016 . S
C28 H27 1.016 . S
C28 N35 1.286 1_565 S
C29 H24 0.930 . S
C29 C30 1.397 . S
C29 C31 1.361 . S
C30 C29 1.397 . S
C30 C34 1.390 1_545 S
C31 C29 1.361 . S
C31 C32 1.393 . S
C31 N35 1.413 . S
C32 H25 0.930 . S
C32 C31 1.393 . S
C32 C33 1.403 . S
C33 C32 1.403 . S
C33 C34 1.379 1_545 S
C34 H26 0.930 . S
C34 C30 1.390 1_565 S
C34 C33 1.379 1_565 S
N35 C28 1.286 1_545 S
N35 C31 1.413 . S
H36 C41 0.930 . S
H37 C44 0.930 . S
H38 C46 0.930 . S
H39 C40 1.016 . S
C40 H39 1.016 . S
C40 N47 1.286 . S
C41 H36 0.930 . S
C41 C42 1.397 . S
C41 C43 1.361 . S
C42 C41 1.397 . S
C42 C46 1.390 . S
C43 C41 1.361 . S
C43 C44 1.393 . S
C43 N47 1.413 . S
C44 H37 0.930 . S
C44 C43 1.393 . S
C44 C45 1.399 . S
C45 C44 1.399 . S
C45 C46 1.381 . S
C46 H38 0.930 . S
C46 C42 1.390 . S
C46 C45 1.381 . S
N47 C40 1.286 . S
N47 C43 1.413 . S
H48 C53 0.930 . S
H49 C56 0.930 . S
H50 C58 0.930 1_556 S
H51 C52 1.016 . S
C52 H51 1.016 . S
C52 N59 1.286 . S
C53 H48 0.930 . S
C53 C54 1.397 . S
C53 C55 1.361 1_556 S
C54 C53 1.397 . S
C54 C58 1.390 1_556 S
C55 C53 1.361 1_554 S
C55 C56 1.393 . S
C55 N59 1.413 . S
C56 H49 0.930 . S
C56 C55 1.393 . S
C56 C57 1.399 . S
C57 C56 1.399 . S
C57 C58 1.381 . S
C58 H50 0.930 1_554 S
C58 C54 1.390 1_554 S
C58 C57 1.381 . S
N59 C52 1.286 . S
N59 C55 1.413 . S
H60 C65 0.930 . S
H61 C68 0.930 . S
H62 C70 0.930 . S
H63 C64 1.026 . S
C64 H63 1.026 . S
C64 N71 1.272 1_655 S
C65 H60 0.930 . S
C65 C66 1.397 . S
C65 C67 1.361 1_556 S
C66 C65 1.397 . S
C66 C70 1.390 1_456 S
C67 C65 1.361 1_554 S
C67 C68 1.393 . S
C67 N71 1.413 . S
C68 H61 0.930 . S
C68 C67 1.393 . S
C68 C69 1.404 . S
C69 C68 1.404 . S
C69 C70 1.378 1_455 S
C70 H62 0.930 . S
C70 C66 1.390 1_654 S
C70 C69 1.378 1_655 S
N71 C64 1.272 1_455 S
N71 C67 1.413 . S
H72 C77 0.930 . S
H73 C80 0.930 . S
H74 C82 0.930 1_556 S
H75 C76 1.026 . S
C76 H75 1.026 . S
C76 N83 1.272 1_565 S
C77 H72 0.930 . S
C77 C78 1.397 . S
C77 C79 1.361 1_556 S
C78 C77 1.397 . S
C78 C82 1.390 1_546 S
C79 C77 1.361 1_554 S
C79 C80 1.393 . S
C79 N83 1.413 . S
C80 H73 0.930 . S
C80 C79 1.393 . S
C80 C81 1.404 . S
C81 C80 1.404 . S
C81 C82 1.378 1_545 S
C82 H74 0.930 1_554 S
C82 C78 1.390 1_564 S
C82 C81 1.378 1_565 S
N83 C76 1.272 1_545 S
N83 C79 1.413 . S
H84 C89 0.930 . S
H85 C92 0.930 . S
H86 C94 0.930 1_556 S
H87 C88 1.016 . S
C88 H87 1.016 . S
C88 N95 1.286 . S
C89 H84 0.930 . S
C89 C90 1.397 . S
C89 C91 1.361 1_556 S
C90 C89 1.397 . S
C90 C94 1.390 1_556 S
C91 C89 1.361 1_554 S
C91 C92 1.393 . S
C91 N95 1.413 . S
C92 H85 0.930 . S
C92 C91 1.393 . S
C92 C93 1.399 . S
C93 C92 1.399 . S
C93 C94 1.381 . S
C94 H86 0.930 1_554 S
C94 C90 1.390 1_554 S
C94 C93 1.381 . S
N95 C88 1.286 . S
N95 C91 1.413 . S
Sm96 C98 2.846 1_556 S
Sm96 O116 2.543 1_556 S
Sm96 O117 2.450 1_556 S
Sm96 O118 2.681 1_565 S
Sm96 O119 2.464 . S
Sm96 O120 2.396 . S
Sm96 O124 2.386 1_455 S
Sm96 O127 2.408 1_565 S
Sm97 C107 2.846 . S
Sm97 O118 2.386 1_655 S
Sm97 O121 2.408 1_545 S
Sm97 O122 2.543 . S
Sm97 O123 2.450 . S
Sm97 O124 2.681 1_545 S
Sm97 O125 2.464 . S
Sm97 O126 2.396 . S
C98 Sm96 2.846 1_554 S
C98 C99 1.506 . S
C98 O116 1.261 . S
C98 O117 1.242 . S
C99 C98 1.506 . S
C99 C100 1.358 . S
C99 C104 1.382 . S
C100 C99 1.358 . S
C100 C101 1.385 . S
C100 H128 0.930 1_455 S
C101 C100 1.385 . S
C101 C102 1.395 . S
C101 H129 0.947 . S
C102 C101 1.395 . S
C102 C103 1.335 . S
C103 C102 1.335 . S
C103 C104 1.398 . S
C103 H130 0.930 . S
C104 C99 1.382 . S
C104 C103 1.398 . S
C104 H131 0.929 . S
C105 O118 1.271 1_565 S
C105 O119 1.251 . S
C106 O120 1.252 1_655 S
C106 O121 1.272 . S
C107 Sm97 2.846 . S
C107 C108 1.506 . S
C107 O122 1.261 . S
C107 O123 1.242 . S
C108 C107 1.506 . S
C108 C109 1.358 . S
C108 C113 1.382 . S
C109 C108 1.358 . S
C109 C110 1.385 . S
C109 H132 0.930 1_655 S
C110 C109 1.385 . S
C110 C111 1.395 . S
C110 H133 0.941 . S
C111 C110 1.395 . S
C111 C112 1.335 . S
C112 C111 1.335 . S
C112 C113 1.398 . S
C112 H134 0.930 . S
C113 C108 1.382 . S
C113 C112 1.398 . S
C113 H135 0.929 . S
C114 O124 1.271 1_545 S
C114 O125 1.251 . S
C115 O126 1.252 1_455 S
C115 O127 1.272 . S
O116 Sm96 2.543 1_554 S
O116 C98 1.261 . S
O117 Sm96 2.450 1_554 S
O117 C98 1.242 . S
O118 Sm96 2.681 1_545 S
O118 Sm97 2.386 1_455 S
O118 C105 1.271 1_545 S
O119 Sm96 2.464 . S
O119 C105 1.251 . S
O120 Sm96 2.396 . S
O120 C106 1.252 1_455 S
O121 Sm97 2.408 1_565 S
O121 C106 1.272 . S
O122 Sm97 2.543 . S
O122 C107 1.261 . S
O123 Sm97 2.450 . S
O123 C107 1.242 . S
O124 Sm96 2.386 1_655 S
O124 Sm97 2.681 1_565 S
O124 C114 1.271 1_565 S
O125 Sm97 2.464 . S
O125 C114 1.251 . S
O126 Sm97 2.396 . S
O126 C115 1.252 1_655 S
O127 Sm96 2.408 1_545 S
O127 C115 1.272 . S
H128 C100 0.930 1_655 S
H129 C101 0.947 . S
H130 C103 0.930 . S
H131 C104 0.929 . S
H132 C109 0.930 1_455 S
H133 C110 0.941 . S
H134 C112 0.930 . S
H135 C113 0.929 . S
Sm136 C138 2.846 1_556 S
Sm136 O156 2.543 1_556 S
Sm136 O157 2.450 1_556 S
Sm136 O158 2.681 . S
Sm136 O159 2.464 . S
Sm136 O160 2.396 . S
Sm136 O164 2.386 1_545 S
Sm136 O167 2.408 . S
Sm137 C147 2.846 . S
Sm137 O158 2.386 1_565 S
Sm137 O161 2.408 . S
Sm137 O162 2.543 . S
Sm137 O163 2.450 . S
Sm137 O164 2.681 . S
Sm137 O165 2.464 . S
Sm137 O166 2.396 . S
C138 Sm136 2.846 1_554 S
C138 C139 1.506 . S
C138 O156 1.261 . S
C138 O157 1.242 . S
C139 C138 1.506 . S
C139 C140 1.358 . S
C139 C144 1.382 . S
C140 C139 1.358 . S
C140 C141 1.385 . S
C140 H168 0.930 1_545 S
C141 C140 1.385 . S
C141 C142 1.395 . S
C141 H169 0.929 1_545 S
C142 C141 1.395 . S
C142 C143 1.335 . S
C143 C142 1.335 . S
C143 C144 1.398 . S
C143 H170 0.930 . S
C144 C139 1.382 . S
C144 C143 1.398 . S
C144 H171 0.929 . S
C145 O158 1.271 . S
C145 O159 1.251 . S
C146 O160 1.252 1_565 S
C146 O161 1.272 . S
C147 Sm137 2.846 . S
C147 C148 1.506 . S
C147 O162 1.261 . S
C147 O163 1.242 . S
C148 C147 1.506 . S
C148 C149 1.358 . S
C148 C153 1.382 . S
C149 C148 1.358 . S
C149 C150 1.385 . S
C149 H172 0.930 1_565 S
C150 C149 1.385 . S
C150 C151 1.395 . S
C150 H173 0.929 1_565 S
C151 C150 1.395 . S
C151 C152 1.335 . S
C152 C151 1.335 . S
C152 C153 1.398 . S
C152 H174 0.930 . S
C153 C148 1.382 . S
C153 C152 1.398 . S
C153 H175 0.929 . S
C154 O164 1.271 . S
C154 O165 1.251 . S
C155 O166 1.252 1_545 S
C155 O167 1.272 . S
O156 Sm136 2.543 1_554 S
O156 C138 1.261 . S
O157 Sm136 2.450 1_554 S
O157 C138 1.242 . S
O158 Sm136 2.681 . S
O158 Sm137 2.386 1_545 S
O158 C145 1.271 . S
O159 Sm136 2.464 . S
O159 C145 1.251 . S
O160 Sm136 2.396 . S
O160 C146 1.252 1_545 S
O161 Sm137 2.408 . S
O161 C146 1.272 . S
O162 Sm137 2.543 . S
O162 C147 1.261 . S
O163 Sm137 2.450 . S
O163 C147 1.242 . S
O164 Sm136 2.386 1_565 S
O164 Sm137 2.681 . S
O164 C154 1.271 . S
O165 Sm137 2.464 . S
O165 C154 1.251 . S
O166 Sm137 2.396 . S
O166 C155 1.252 1_565 S
O167 Sm136 2.408 . S
O167 C155 1.272 . S
H168 C140 0.930 1_565 S
H169 C141 0.929 1_565 S
H170 C143 0.930 . S
H171 C144 0.929 . S
H172 C149 0.930 1_545 S
H173 C150 0.929 1_545 S
H174 C152 0.930 . S
H175 C153 0.929 . S
Sm176 C178 2.846 1_556 S
Sm176 O196 2.543 1_556 S
Sm176 O197 2.450 1_556 S
Sm176 O198 2.681 . S
Sm176 O199 2.464 . S
Sm176 O200 2.396 . S
Sm176 O204 2.386 . S
Sm176 O207 2.408 . S
Sm177 C187 2.846 . S
Sm177 O198 2.386 . S
Sm177 O201 2.408 . S
Sm177 O202 2.543 . S
Sm177 O203 2.450 . S
Sm177 O204 2.681 . S
Sm177 O205 2.464 . S
Sm177 O206 2.396 . S
C178 Sm176 2.846 1_554 S
C178 C179 1.506 . S
C178 O196 1.261 . S
C178 O197 1.242 . S
C179 C178 1.506 . S
C179 C180 1.358 . S
C179 C184 1.382 . S
C180 C179 1.358 . S
C180 C181 1.385 . S
C180 H208 0.930 . S
C181 C180 1.385 . S
C181 C182 1.395 . S
C181 H209 0.929 . S
C182 C181 1.395 . S
C182 C183 1.335 . S
C183 C182 1.335 . S
C183 C184 1.398 . S
C183 H210 0.930 . S
C184 C179 1.382 . S
C184 C183 1.398 . S
C184 H211 0.929 . S
C185 O198 1.271 . S
C185 O199 1.251 . S
C186 O200 1.252 . S
C186 O201 1.272 . S
C187 Sm177 2.846 . S
C187 C188 1.506 . S
C187 O202 1.261 . S
C187 O203 1.242 . S
C188 C187 1.506 . S
C188 C189 1.358 . S
C188 C193 1.382 . S
C189 C188 1.358 . S
C189 C190 1.385 . S
C189 H212 0.930 . S
C190 C189 1.385 . S
C190 C191 1.395 . S
C190 H213 0.929 . S
C191 C190 1.395 . S
C191 C192 1.335 . S
C192 C191 1.335 . S
C192 C193 1.398 . S
C192 H214 0.930 . S
C193 C188 1.382 . S
C193 C192 1.398 . S
C193 H215 0.929 . S
C194 O204 1.271 . S
C194 O205 1.251 . S
C195 O206 1.252 . S
C195 O207 1.272 . S
O196 Sm176 2.543 1_554 S
O196 C178 1.261 . S
O197 Sm176 2.450 1_554 S
O197 C178 1.242 . S
O198 Sm176 2.681 . S
O198 Sm177 2.386 . S
O198 C185 1.271 . S
O199 Sm176 2.464 . S
O199 C185 1.251 . S
O200 Sm176 2.396 . S
O200 C186 1.252 . S
O201 Sm177 2.408 . S
O201 C186 1.272 . S
O202 Sm177 2.543 . S
O202 C187 1.261 . S
O203 Sm177 2.450 . S
O203 C187 1.242 . S
O204 Sm176 2.386 . S
O204 Sm177 2.681 . S
O204 C194 1.271 . S
O205 Sm177 2.464 . S
O205 C194 1.251 . S
O206 Sm177 2.396 . S
O206 C195 1.252 . S
O207 Sm176 2.408 . S
O207 C195 1.272 . S
H208 C180 0.930 . S
H209 C181 0.929 . S
H210 C183 0.930 . S
H211 C184 0.929 . S
H212 C189 0.930 . S
H213 C190 0.929 . S
H214 C192 0.930 . S
H215 C193 0.929 . S
Sm216 C218 2.846 1_556 S
Sm216 O236 2.543 1_556 S
Sm216 O237 2.450 1_556 S
Sm216 O238 2.681 1_655 S
Sm216 O239 2.464 . S
Sm216 O240 2.396 . S
Sm216 O244 2.386 . S
Sm216 O247 2.408 1_655 S
Sm217 C227 2.846 . S
Sm217 O238 2.386 . S
Sm217 O241 2.408 1_455 S
Sm217 O242 2.543 . S
Sm217 O243 2.450 . S
Sm217 O244 2.681 1_455 S
Sm217 O245 2.464 . S
Sm217 O246 2.396 . S
C218 Sm216 2.846 1_554 S
C218 C219 1.506 . S
C218 O236 1.261 . S
C218 O237 1.242 . S
C219 C218 1.506 . S
C219 C220 1.358 . S
C219 C224 1.382 . S
C220 C219 1.358 . S
C220 C221 1.385 . S
C220 H248 0.930 . S
C221 C220 1.385 . S
C221 C222 1.395 . S
C221 H249 0.929 . S
C222 C221 1.395 . S
C222 C223 1.335 . S
C223 C222 1.335 . S
C223 C224 1.398 . S
C223 H250 0.930 . S
C224 C219 1.382 . S
C224 C223 1.398 . S
C224 H251 0.929 . S
C225 O238 1.265 1_655 S
C225 O239 1.261 . S
C226 O240 1.252 . S
C226 O241 1.272 . S
C227 Sm217 2.846 . S
C227 C228 1.506 . S
C227 O242 1.261 . S
C227 O243 1.242 . S
C228 C227 1.506 . S
C228 C229 1.358 . S
C228 C233 1.382 . S
C229 C228 1.358 . S
C229 C230 1.385 . S
C229 H252 0.930 . S
C230 C229 1.385 . S
C230 C231 1.395 . S
C230 H253 0.929 . S
C231 C230 1.395 . S
C231 C232 1.335 . S
C232 C231 1.335 . S
C232 C233 1.398 . S
C232 H254 0.930 . S
C233 C228 1.382 . S
C233 C232 1.398 . S
C233 H255 0.929 . S
C234 O244 1.263 1_455 S
C234 O245 1.265 . S
C235 O246 1.252 . S
C235 O247 1.272 . S
O236 Sm216 2.543 1_554 S
O236 C218 1.261 . S
O237 Sm216 2.450 1_554 S
O237 C218 1.242 . S
O238 Sm216 2.681 1_455 S
O238 Sm217 2.386 . S
O238 C225 1.265 1_455 S
O239 Sm216 2.464 . S
O239 C225 1.261 . S
O240 Sm216 2.396 . S
O240 C226 1.252 . S
O241 Sm217 2.408 1_655 S
O241 C226 1.272 . S
O242 Sm217 2.543 . S
O242 C227 1.261 . S
O243 Sm217 2.450 . S
O243 C227 1.242 . S
O244 Sm216 2.386 . S
O244 Sm217 2.681 1_655 S
O244 C234 1.263 1_655 S
O245 Sm217 2.464 . S
O245 C234 1.265 . S
O246 Sm217 2.396 . S
O246 C235 1.252 . S
O247 Sm216 2.408 1_455 S
O247 C235 1.272 . S
H248 C220 0.930 . S
H249 C221 0.929 . S
H250 C223 0.930 . S
H251 C224 0.929 . S
H252 C229 0.930 . S
H253 C230 0.929 . S
H254 C232 0.930 . S
H255 C233 0.929 . S
C256 C257 1.351 1_565 S
C256 C258 1.419 . S
C256 H260 0.930 . S
C257 C256 1.351 1_545 S
C257 C266 1.448 . S
C258 C256 1.419 . S
C258 C259 1.335 1_565 S
C258 H261 0.929 . S
C259 C258 1.335 1_545 S
C259 C265 1.456 . S
H260 C256 0.930 . S
H261 C258 0.929 . S
S262 N263 1.613 . S
S262 N264 1.610 . S
N263 S262 1.613 . S
N263 C266 1.350 . S
N264 S262 1.610 . S
N264 C265 1.351 . S
C265 C259 1.456 . S
C265 N264 1.351 . S
C265 C266 1.434 . S
C266 C257 1.448 . S
C266 N263 1.350 . S
C266 C265 1.434 . S
C267 C268 1.369 . S
C267 C269 1.419 . S
C267 H271 0.930 . S
C268 C267 1.369 . S
C268 C277 1.429 . S
C269 C267 1.419 . S
C269 C270 1.363 . S
C269 H272 0.929 . S
C270 C269 1.363 . S
C270 C276 1.428 . S
H271 C267 0.930 . S
H272 C269 0.929 . S
S273 N274 1.613 . S
S273 N275 1.610 . S
N274 S273 1.613 . S
N274 C277 1.350 . S
N275 S273 1.610 . S
N275 C276 1.351 . S
C276 C270 1.428 . S
C276 N275 1.351 . S
C276 C277 1.434 . S
C277 C268 1.429 . S
C277 N274 1.350 . S
C277 C276 1.434 . S
C278 C279 1.369 . S
C278 C280 1.419 . S
C278 H282 0.930 . S
C279 C278 1.369 . S
C279 C288 1.429 . S
C280 C278 1.419 . S
C280 C281 1.363 . S
C280 H283 0.929 . S
C281 C280 1.363 . S
C281 C287 1.428 . S
H282 C278 0.930 . S
H283 C280 0.929 . S
S284 N285 1.613 . S
S284 N286 1.610 . S
N285 S284 1.613 . S
N285 C288 1.350 . S
N286 S284 1.610 . S
N286 C287 1.351 . S
C287 C281 1.428 . S
C287 N286 1.351 . S
C287 C288 1.434 . S
C288 C279 1.429 . S
C288 N285 1.350 . S
C288 C287 1.434 . S
C289 C290 1.369 1_655 S
C289 C291 1.419 . S
C289 H293 0.930 . S
C290 C289 1.369 1_455 S
C290 C299 1.429 . S
C291 C289 1.419 . S
C291 C292 1.363 1_655 S
C291 H294 0.929 . S
C292 C291 1.363 1_455 S
C292 C298 1.428 . S
H293 C289 0.930 . S
H294 C291 0.929 . S
S295 N296 1.613 . S
S295 N297 1.610 . S
N296 S295 1.613 . S
N296 C299 1.350 . S
N297 S295 1.610 . S
N297 C298 1.351 . S
C298 C292 1.428 . S
C298 N297 1.351 . S
C298 C299 1.434 . S
C299 C290 1.429 . S
C299 N296 1.350 . S
C299 C298 1.434 . S
C300 C301 1.361 1_545 S
C300 C302 1.419 . S
C300 H304 0.930 . S
C301 C300 1.361 1_565 S
C301 C310 1.437 . S
C302 C300 1.419 . S
C302 C303 1.349 1_545 S
C302 H305 0.929 . S
C303 C302 1.349 1_565 S
C303 C309 1.442 . S
H304 C300 0.930 . S
H305 C302 0.929 . S
S306 N307 1.613 . S
S306 N308 1.610 . S
N307 S306 1.613 . S
N307 C310 1.350 . S
N308 S306 1.610 . S
N308 C309 1.351 . S
C309 C303 1.442 . S
C309 N308 1.351 . S
C309 C310 1.434 . S
C310 C301 1.437 . S
C310 N307 1.350 . S
C310 C309 1.434 . S
C311 C312 1.369 . S
C311 C313 1.419 . S
C311 H315 0.930 . S
C312 C311 1.369 . S
C312 C321 1.429 . S
C313 C311 1.419 . S
C313 C314 1.363 . S
C313 H316 0.929 . S
C314 C313 1.363 . S
C314 C320 1.428 . S
H315 C311 0.930 . S
H316 C313 0.929 . S
S317 N318 1.613 . S
S317 N319 1.610 . S
N318 S317 1.613 . S
N318 C321 1.350 . S
N319 S317 1.610 . S
N319 C320 1.351 . S
C320 C314 1.428 . S
C320 N319 1.351 . S
C320 C321 1.434 . S
C321 C312 1.429 . S
C321 N318 1.350 . S
C321 C320 1.434 . S
C322 C323 1.369 . S
C322 C324 1.419 . S
C322 H326 0.930 . S
C323 C322 1.369 . S
C323 C332 1.429 . S
C324 C322 1.419 . S
C324 C325 1.363 . S
C324 H327 0.929 . S
C325 C324 1.363 . S
C325 C331 1.428 . S
H326 C322 0.930 . S
H327 C324 0.929 . S
S328 N329 1.613 . S
S328 N330 1.610 . S
N329 S328 1.613 . S
N329 C332 1.350 . S
N330 S328 1.610 . S
N330 C331 1.351 . S
C331 C325 1.428 . S
C331 N330 1.351 . S
C331 C332 1.434 . S
C332 C323 1.429 . S
C332 N329 1.350 . S
C332 C331 1.434 . S
C333 C334 1.344 1_455 S
C333 C335 1.419 . S
C333 H337 0.930 . S
C334 C333 1.344 1_655 S
C334 C343 1.455 . S
C335 C333 1.419 . S
C335 C336 1.363 1_455 S
C335 H338 0.929 . S
C336 C335 1.363 1_655 S
C336 C342 1.428 . S
H337 C333 0.930 . S
H338 C335 0.929 . S
S339 N340 1.613 . S
S339 N341 1.610 . S
N340 S339 1.613 . S
N340 C343 1.350 . S
N341 S339 1.610 . S
N341 C342 1.351 . S
C342 C336 1.428 . S
C342 N341 1.351 . S
C342 C343 1.434 . S
C343 C334 1.455 . S
C343 N340 1.350 . S
C343 C342 1.434 . S
C344 C345 1.369 . S
C344 C346 1.419 . S
C344 H348 0.930 . S
C345 C344 1.369 . S
C345 C354 1.429 . S
C346 C344 1.419 . S
C346 C347 1.363 . S
C346 H349 0.929 . S
C347 C346 1.363 . S
C347 C353 1.428 . S
H348 C344 0.930 . S
H349 C346 0.929 . S
S350 N351 1.613 . S
S350 N352 1.610 1_556 S
N351 S350 1.613 . S
N351 C354 1.350 1_556 S
N352 S350 1.610 1_554 S
N352 C353 1.351 . S
C353 C347 1.428 . S
C353 N352 1.351 . S
C353 C354 1.434 . S
C354 C345 1.429 . S
C354 N351 1.350 1_554 S
C354 C353 1.434 . S
C355 C356 1.369 . S
C355 C357 1.419 . S
C355 H359 0.930 . S
C356 C355 1.369 . S
C356 C365 1.429 . S
C357 C355 1.419 . S
C357 C358 1.363 . S
C357 H360 0.929 . S
C358 C357 1.363 . S
C358 C364 1.428 . S
H359 C355 0.930 . S
H360 C357 0.929 . S
S361 N362 1.613 . S
S361 N363 1.610 1_556 S
N362 S361 1.613 . S
N362 C365 1.350 1_556 S
N363 S361 1.610 1_554 S
N363 C364 1.351 . S
C364 C358 1.428 . S
C364 N363 1.351 . S
C364 C365 1.434 . S
C365 C356 1.429 . S
C365 N362 1.350 1_554 S
C365 C364 1.434 . S
C366 C367 1.369 . S
C366 C368 1.419 . S
C366 H370 0.930 . S
C367 C366 1.369 . S
C367 C376 1.429 . S
C368 C366 1.419 . S
C368 C369 1.363 . S
C368 H371 0.929 . S
C369 C368 1.363 . S
C369 C375 1.428 . S
H370 C366 0.930 . S
H371 C368 0.929 . S
S372 N373 1.613 1_556 S
S372 N374 1.610 1_556 S
N373 S372 1.613 1_554 S
N373 C376 1.350 . S
N374 S372 1.610 1_554 S
N374 C375 1.351 . S
C375 C369 1.428 . S
C375 N374 1.351 . S
C375 C376 1.434 . S
C376 C367 1.429 . S
C376 N373 1.350 . S
C376 C375 1.434 . S
C377 C378 1.369 . S
C377 C379 1.419 . S
C377 H381 0.930 . S
C378 C377 1.369 . S
C378 C387 1.429 . S
C379 C377 1.419 . S
C379 C380 1.363 . S
C379 H382 0.929 . S
C380 C379 1.363 . S
C380 C386 1.428 . S
H381 C377 0.930 . S
H382 C379 0.929 . S
S383 N384 1.613 . S
S383 N385 1.610 . S
N384 S383 1.613 . S
N384 C387 1.350 . S
N385 S383 1.610 . S
N385 C386 1.351 . S
C386 C380 1.428 . S
C386 N385 1.351 . S
C386 C387 1.434 . S
C387 C378 1.429 . S
C387 N384 1.350 . S
C387 C386 1.434 . S
C388 C389 1.369 . S
C388 C390 1.419 . S
C388 H392 0.930 . S
C389 C388 1.369 . S
C389 C398 1.429 . S
C390 C388 1.419 . S
C390 C391 1.363 . S
C390 H393 0.929 . S
C391 C390 1.363 . S
C391 C397 1.428 . S
H392 C388 0.930 . S
H393 C390 0.929 . S
S394 N395 1.613 1_455 S
S394 N396 1.610 . S
N395 S394 1.613 1_655 S
N395 C398 1.350 1_655 S
N396 S394 1.610 . S
N396 C397 1.351 . S
C397 C391 1.428 . S
C397 N396 1.351 . S
C397 C398 1.434 . S
C398 C389 1.429 . S
C398 N395 1.350 1_455 S
C398 C397 1.434 . S
C399 C400 1.369 . S
C399 C401 1.419 . S
C399 H403 0.930 . S
C400 C399 1.369 . S
C400 C409 1.429 1_545 S
C401 C399 1.419 . S
C401 C402 1.363 . S
C401 H404 0.929 . S
C402 C401 1.363 . S
C402 C408 1.428 . S
H403 C399 0.930 . S
H404 C401 0.929 . S
S405 N406 1.613 . S
S405 N407 1.610 1_565 S
N406 S405 1.613 . S
N406 C409 1.350 . S
N407 S405 1.610 1_545 S
N407 C408 1.351 . S
C408 C402 1.428 . S
C408 N407 1.351 . S
C408 C409 1.434 1_545 S
C409 C400 1.429 1_565 S
C409 N406 1.350 . S
C409 C408 1.434 1_565 S
C410 C411 1.369 . S
C410 C412 1.419 . S
C410 H414 0.930 . S
C411 C410 1.369 . S
C411 C420 1.429 . S
C412 C410 1.419 . S
C412 C413 1.363 . S
C412 H415 0.929 . S
C413 C412 1.363 . S
C413 C419 1.428 . S
H414 C410 0.930 . S
H415 C412 0.929 . S
S416 N417 1.613 . S
S416 N418 1.610 . S
N417 S416 1.613 . S
N417 C420 1.350 . S
N418 S416 1.610 . S
N418 C419 1.351 . S
C419 C413 1.428 . S
C419 N418 1.351 . S
C419 C420 1.434 . S
C420 C411 1.429 . S
C420 N417 1.350 . S
C420 C419 1.434 . S
C421 C422 1.369 . S
C421 C423 1.419 . S
C421 H425 0.930 . S
C422 C421 1.369 . S
C422 C431 1.429 . S
C423 C421 1.419 . S
C423 C424 1.363 . S
C423 H426 0.929 . S
C424 C423 1.363 . S
C424 C430 1.428 . S
H425 C421 0.930 . S
H426 C423 0.929 . S
S427 N428 1.613 . S
S427 N429 1.610 . S
N428 S427 1.613 . S
N428 C431 1.350 . S
N429 S427 1.610 . S
N429 C430 1.351 . S
C430 C424 1.428 . S
C430 N429 1.351 . S
C430 C431 1.434 . S
C431 C422 1.429 . S
C431 N428 1.350 . S
C431 C430 1.434 . S
C432 C433 1.369 . S
C432 C434 1.419 . S
C432 H436 0.930 . S
C433 C432 1.369 . S
C433 C442 1.429 1_455 S
C434 C432 1.419 . S
C434 C435 1.363 . S
C434 H437 0.929 1_556 S
C435 C434 1.363 . S
C435 C441 1.428 1_455 S
H436 C432 0.930 . S
H437 C434 0.929 1_554 S
S438 N439 1.613 . S
S438 N440 1.610 . S
N439 S438 1.613 . S
N439 C442 1.350 . S
N440 S438 1.610 . S
N440 C441 1.351 . S
C441 C435 1.428 1_655 S
C441 N440 1.351 . S
C441 C442 1.434 . S
C442 C433 1.429 1_655 S
C442 N439 1.350 . S
C442 C441 1.434 . S
C443 C444 1.369 1_565 S
C443 C445 1.419 . S
C443 H447 0.930 . S
C444 C443 1.369 1_545 S
C444 C453 1.429 . S
C445 C443 1.419 . S
C445 C446 1.363 1_565 S
C445 H448 0.929 . S
C446 C445 1.363 1_545 S
C446 C452 1.428 . S
H447 C443 0.930 . S
H448 C445 0.929 . S
S449 N450 1.613 . S
S449 N451 1.610 . S
N450 S449 1.613 . S
N450 C453 1.350 . S
N451 S449 1.610 . S
N451 C452 1.351 . S
C452 C446 1.428 . S
C452 N451 1.351 . S
C452 C453 1.434 . S
C453 C444 1.429 . S
C453 N450 1.350 . S
C453 C452 1.434 . S
C454 C455 1.369 . S
C454 C456 1.419 . S
C454 H458 0.930 . S
C455 C454 1.369 . S
C455 C464 1.429 . S
C456 C454 1.419 . S
C456 C457 1.363 . S
C456 H459 0.929 . S
C457 C456 1.363 . S
C457 C463 1.428 . S
H458 C454 0.930 . S
H459 C456 0.929 . S
S460 N461 1.613 . S
S460 N462 1.610 . S
N461 S460 1.613 . S
N461 C464 1.350 . S
N462 S460 1.610 . S
N462 C463 1.351 . S
C463 C457 1.428 . S
C463 N462 1.351 . S
C463 C464 1.434 . S
C464 C455 1.429 . S
C464 N461 1.350 . S
C464 C463 1.434 . S
C465 C466 1.369 . S
C465 C467 1.419 . S
C465 H469 0.930 1_556 S
C466 C465 1.369 . S
C466 C475 1.429 . S
C467 C465 1.419 . S
C467 C468 1.363 . S
C467 H470 0.929 1_556 S
C468 C467 1.363 . S
C468 C474 1.428 . S
H469 C465 0.930 1_554 S
H470 C467 0.929 1_554 S
S471 N472 1.613 . S
S471 N473 1.610 . S
N472 S471 1.613 . S
N472 C475 1.350 . S
N473 S471 1.610 . S
N473 C474 1.351 . S
C474 C468 1.428 . S
C474 N473 1.351 . S
C474 C475 1.434 . S
C475 C466 1.429 . S
C475 N472 1.350 . S
C475 C474 1.434 . S
C476 C477 1.369 . S
C476 C478 1.419 . S
C476 H480 0.930 . S
C477 C476 1.369 . S
C477 C486 1.429 . S
C478 C476 1.419 . S
C478 C479 1.363 . S
C478 H481 0.929 . S
C479 C478 1.363 . S
C479 C485 1.428 . S
H480 C476 0.930 . S
H481 C478 0.929 . S
S482 N483 1.613 . S
S482 N484 1.610 . S
N483 S482 1.613 . S
N483 C486 1.350 . S
N484 S482 1.610 . S
N484 C485 1.351 . S
C485 C479 1.428 . S
C485 N484 1.351 . S
C485 C486 1.434 . S
C486 C477 1.429 . S
C486 N483 1.350 . S
C486 C485 1.434 . S
C487 C488 1.369 1_545 S
C487 C489 1.419 . S
C487 H491 0.930 . S
C488 C487 1.369 1_565 S
C488 C497 1.429 . S
C489 C487 1.419 . S
C489 C490 1.363 1_545 S
C489 H492 0.929 . S
C490 C489 1.363 1_565 S
C490 C496 1.428 . S
H491 C487 0.930 . S
H492 C489 0.929 . S
S493 N494 1.613 . S
S493 N495 1.610 . S
N494 S493 1.613 . S
N494 C497 1.350 . S
N495 S493 1.610 . S
N495 C496 1.351 . S
C496 C490 1.428 . S
C496 N495 1.351 . S
C496 C497 1.434 . S
C497 C488 1.429 . S
C497 N494 1.350 . S
C497 C496 1.434 . S
C498 C499 1.369 . S
C498 C500 1.419 . S
C498 H502 0.930 . S
C499 C498 1.369 . S
C499 C508 1.429 . S
C500 C498 1.419 . S
C500 C501 1.363 . S
C500 H503 0.929 . S
C501 C500 1.363 . S
C501 C507 1.428 . S
H502 C498 0.930 . S
H503 C500 0.929 . S
S504 N505 1.613 . S
S504 N506 1.610 . S
N505 S504 1.613 . S
N505 C508 1.350 . S
N506 S504 1.610 . S
N506 C507 1.351 . S
C507 C501 1.428 . S
C507 N506 1.351 . S
C507 C508 1.434 . S
C508 C499 1.429 . S
C508 N505 1.350 . S
C508 C507 1.434 . S
C509 C510 1.369 . S
C509 C511 1.419 . S
C509 H513 0.930 . S
C510 C509 1.369 . S
C510 C519 1.429 . S
C511 C509 1.419 . S
C511 C512 1.363 . S
C511 H514 0.929 . S
C512 C511 1.363 . S
C512 C518 1.428 . S
H513 C509 0.930 . S
H514 C511 0.929 . S
S515 N516 1.613 . S
S515 N517 1.610 . S
N516 S515 1.613 . S
N516 C519 1.350 . S
N517 S515 1.610 . S
N517 C518 1.351 . S
C518 C512 1.428 . S
C518 N517 1.351 . S
C518 C519 1.434 . S
C519 C510 1.429 . S
C519 N516 1.350 . S
C519 C518 1.434 . S
C257 C76 1.915 1_545 S
C259 C105 2.194 1_545 S
C270 C145 2.214 . S
C268 C88 1.932 . S
C281 C185 2.224 . S
C279 C52 1.960 . S
C292 C225 2.206 1_455 S
C290 C64 1.935 1_455 S
C303 C114 2.197 1_564 S
C301 C28 1.919 . S
C312 C40 1.930 . S
C314 C154 2.216 1_554 S
C323 C4 1.950 . S
C325 C194 2.221 1_554 S
C334 C16 1.936 . S
C336 C234 2.206 1_654 S
C347 C111 0.820 . S
C345 C69 0.808 1_655 S
C358 C151 0.819 . S
C356 C81 0.807 1_565 S
C369 C191 0.813 . S
C367 C93 0.800 . S
C378 C57 0.822 . S
C380 C231 0.796 . S
C389 C21 0.826 . S
C391 C102 0.817 . S
C402 C142 0.805 . S
C400 C33 0.826 . S
C413 C182 0.800 . S
C411 C45 0.808 . S
C422 C9 0.796 . S
C424 C222 0.815 . S
C433 C66 2.259 . S
C435 C115 2.573 . S
C444 C78 2.220 . S
C446 C155 2.540 . S
C457 C195 2.524 . S
C455 C90 2.204 . S
C468 C235 2.565 . S
C466 C54 2.243 . S
C477 C18 2.263 1_655 S
C479 C106 2.584 . S
C490 C146 2.540 . S
C488 C30 2.223 1_565 S
C501 C186 2.524 . S
C499 C42 2.225 . S
C510 C6 2.262 . S
C512 C226 2.568 . S
