# Generated by pormake.
# Topology pyr, (3,6)-cn, num edge types: 1
# Building blocks:
#     Node 0, Type 0, BuildingBlock: KAKCAD_clean_linker_0, # of connection points: 3
#     Node 1, Type 0, BuildingBlock: KAKCAD_clean_linker_0, # of connection points: 3
#     Node 2, Type 0, BuildingBlock: KAKCAD_clean_linker_0, # of connection points: 3
#     Node 3, Type 0, BuildingBlock: KAKCAD_clean_linker_0, # of connection points: 3
#     Node 4, Type 0, BuildingBlock: KAKCAD_clean_linker_0, # of connection points: 3
#     Node 5, Type 0, BuildingBlock: KAKCAD_clean_linker_0, # of connection points: 3
#     Node 6, Type 0, BuildingBlock: KAKCAD_clean_linker_0, # of connection points: 3
#     Node 7, Type 0, BuildingBlock: KAKCAD_clean_linker_0, # of connection points: 3
#     Node 8, Type 1, BuildingBlock: BETFEN_clean_sbu_0, # of connection points: 6
#     Node 9, Type 1, BuildingBlock: BETFEN_clean_sbu_0, # of connection points: 6
#     Node 10, Type 1, BuildingBlock: BETFEN_clean_sbu_0, # of connection points: 6
#     Node 11, Type 1, BuildingBlock: BETFEN_clean_sbu_0, # of connection points: 6
#     Edge 12, Type (0, 1), BuildingBlock: XUDNAN_clean_linker_2, # of connection points: 2
#     Edge 13, Type (0, 1), BuildingBlock: XUDNAN_clean_linker_2, # of connection points: 2
#     Edge 14, Type (0, 1), BuildingBlock: XUDNAN_clean_linker_2, # of connection points: 2
#     Edge 15, Type (0, 1), BuildingBlock: XUDNAN_clean_linker_2, # of connection points: 2
#     Edge 16, Type (0, 1), BuildingBlock: XUDNAN_clean_linker_2, # of connection points: 2
#     Edge 17, Type (0, 1), BuildingBlock: XUDNAN_clean_linker_2, # of connection points: 2
#     Edge 18, Type (0, 1), BuildingBlock: XUDNAN_clean_linker_2, # of connection points: 2
#     Edge 19, Type (0, 1), BuildingBlock: XUDNAN_clean_linker_2, # of connection points: 2
#     Edge 20, Type (0, 1), BuildingBlock: XUDNAN_clean_linker_2, # of connection points: 2
#     Edge 21, Type (0, 1), BuildingBlock: XUDNAN_clean_linker_2, # of connection points: 2
#     Edge 22, Type (0, 1), BuildingBlock: XUDNAN_clean_linker_2, # of connection points: 2
#     Edge 23, Type (0, 1), BuildingBlock: XUDNAN_clean_linker_2, # of connection points: 2
#     Edge 24, Type (0, 1), BuildingBlock: XUDNAN_clean_linker_2, # of connection points: 2
#     Edge 25, Type (0, 1), BuildingBlock: XUDNAN_clean_linker_2, # of connection points: 2
#     Edge 26, Type (0, 1), BuildingBlock: XUDNAN_clean_linker_2, # of connection points: 2
#     Edge 27, Type (0, 1), BuildingBlock: XUDNAN_clean_linker_2, # of connection points: 2
#     Edge 28, Type (0, 1), BuildingBlock: XUDNAN_clean_linker_2, # of connection points: 2
#     Edge 29, Type (0, 1), BuildingBlock: XUDNAN_clean_linker_2, # of connection points: 2
#     Edge 30, Type (0, 1), BuildingBlock: XUDNAN_clean_linker_2, # of connection points: 2
#     Edge 31, Type (0, 1), BuildingBlock: XUDNAN_clean_linker_2, # of connection points: 2
#     Edge 32, Type (0, 1), BuildingBlock: XUDNAN_clean_linker_2, # of connection points: 2
#     Edge 33, Type (0, 1), BuildingBlock: XUDNAN_clean_linker_2, # of connection points: 2
#     Edge 34, Type (0, 1), BuildingBlock: XUDNAN_clean_linker_2, # of connection points: 2
#     Edge 35, Type (0, 1), BuildingBlock: XUDNAN_clean_linker_2, # of connection points: 2
# Relax obj value: 0.132
# Max RMSD: 0.234
# Mean RMSD: 0.113
data_MOF--net-pyr--node1-BETFEN_clean_sbu_0--node2-KAKCAD_clean_linker_0--edge1-XUDNAN_clean_linker_2
_symmetry_space_group_name_H-M    P1
_symmetry_Int_Tables_number       1
_symmetry_cell_setting            triclinic
loop_
_symmetry_equiv_pos_as_xyz
'x, y, z'
_cell_length_a     44.956258
_cell_length_b     49.041928
_cell_length_c     46.305807
_cell_angle_alpha  91.389756
_cell_angle_beta   98.340885
_cell_angle_gamma 107.13235
loop_
_atom_site_label
_atom_site_type_symbol
_atom_site_fract_x
_atom_site_fract_y
_atom_site_fract_z
_atom_type_partial_charge
C0 C 0.2926 0.29898 0.35654 0.0
C1 C 0.30712 0.28667 0.37933 0.0
C2 C 0.30864 0.31025 0.33379 0.0
C3 C 0.33982 0.3099 0.33356 0.0
C4 C 0.35484 0.29889 0.35731 0.0
C5 C 0.33853 0.28711 0.37978 0.0
C6 C 0.35546 0.3187 0.30753 0.0
C7 C 0.3493 0.34067 0.29094 0.0
C8 C 0.36042 0.34628 0.26419 0.0
C9 C 0.37923 0.33061 0.25474 0.0
C10 C 0.38593 0.30879 0.27106 0.0
C11 C 0.37404 0.30305 0.29741 0.0
C12 C 0.40269 0.29014 0.25928 0.0
C13 C 0.39492 0.2799 0.2297 0.0
C14 C 0.4253 0.28124 0.27768 0.0
C15 C 0.4394 0.2621 0.26681 0.0
C16 C 0.43102 0.25136 0.23738 0.0
C17 C 0.34938 0.36612 0.24463 0.0
C18 C 0.33865 0.3579 0.21473 0.0
C19 C 0.34706 0.39215 0.25589 0.0
C20 C 0.3332 0.40904 0.23787 0.0
C21 C 0.32129 0.4002 0.20823 0.0
C22 C 0.32478 0.37472 0.19676 0.0
C23 C 0.40893 0.26076 0.21889 0.0
H24 H 0.26821 0.29852 0.35548 0.0
H25 H 0.29593 0.31793 0.31572 0.0
H26 H 0.379 0.29875 0.35822 0.0
H27 H 0.35025 0.27785 0.39726 0.0
H28 H 0.33458 0.35257 0.29816 0.0
H29 H 0.37764 0.2851 0.30906 0.0
H30 H 0.38815 0.33503 0.23428 0.0
H31 H 0.37731 0.28604 0.21503 0.0
H32 H 0.43189 0.28891 0.30053 0.0
H33 H 0.45624 0.25514 0.28162 0.0
H34 H 0.33956 0.33773 0.20544 0.0
H35 H 0.35547 0.39922 0.27876 0.0
H36 H 0.4023 0.25318 0.19601 0.0
H37 H 0.3154 0.36698 0.17419 0.0
H38 H 0.33126 0.42876 0.24728 0.0
C39 C 0.33888 0.87417 0.80284 0.0
C40 C 0.37068 0.87488 0.80646 0.0
C41 C 0.31763 0.85875 0.77861 0.0
C42 C 0.32789 0.84384 0.75763 0.0
C43 C 0.35933 0.84327 0.7625 0.0
C44 C 0.3803 0.85835 0.78668 0.0
C45 C 0.30754 0.83163 0.72917 0.0
C46 C 0.2883 0.84646 0.71435 0.0
C47 C 0.27434 0.83852 0.68499 0.0
C48 C 0.28021 0.81569 0.67023 0.0
C49 C 0.29929 0.80053 0.68478 0.0
C50 C 0.31129 0.8077 0.71462 0.0
C51 C 0.31033 0.77992 0.66834 0.0
C52 C 0.29035 0.76094 0.64543 0.0
C53 C 0.34198 0.78021 0.67487 0.0
C54 C 0.3533 0.76183 0.65931 0.0
C55 C 0.33344 0.74285 0.63652 0.0
C56 C 0.25635 0.85609 0.66921 0.0
C57 C 0.23432 0.8651 0.68247 0.0
C58 C 0.26244 0.86542 0.64159 0.0
C59 C 0.24734 0.8839 0.62784 0.0
C60 C 0.22574 0.89333 0.64135 0.0
C61 C 0.21912 0.88346 0.66866 0.0
C62 C 0.30186 0.74263 0.62957 0.0
H63 H 0.33082 0.88668 0.81784 0.0
H64 H 0.29349 0.85932 0.7758 0.0
H65 H 0.36847 0.83253 0.74679 0.0
H66 H 0.40454 0.85805 0.78922 0.0
H67 H 0.28597 0.86553 0.72488 0.0
H68 H 0.32525 0.79555 0.72617 0.0
H69 H 0.27098 0.81054 0.64716 0.0
H70 H 0.26586 0.76017 0.63986 0.0
H71 H 0.35842 0.79517 0.69162 0.0
H72 H 0.37794 0.76301 0.66468 0.0
H73 H 0.22909 0.85816 0.7037 0.0
H74 H 0.27958 0.85912 0.63098 0.0
H75 H 0.28608 0.72816 0.61205 0.0
H76 H 0.20277 0.89052 0.67974 0.0
H77 H 0.25267 0.8909 0.60666 0.0
C78 C 0.73915 0.41687 0.8931 0.0
C79 C 0.76587 0.40732 0.89871 0.0
C80 C 0.71231 0.40072 0.87396 0.0
C81 C 0.71146 0.37442 0.8606 0.0
C82 C 0.73837 0.36512 0.8658 0.0
C83 C 0.76544 0.38156 0.88444 0.0
C84 C 0.68198 0.35592 0.8427 0.0
C85 C 0.66653 0.36641 0.81901 0.0
C86 C 0.63837 0.34895 0.80204 0.0
C87 C 0.62536 0.32061 0.80987 0.0
C88 C 0.64074 0.30994 0.83376 0.0
C89 C 0.6691 0.32769 0.84969 0.0
C90 C 0.6282 0.2804 0.84297 0.0
C91 C 0.60115 0.27254 0.8565 0.0
C92 C 0.6466 0.26172 0.84302 0.0
C93 C 0.63925 0.23655 0.85766 0.0
C94 C 0.61354 0.22953 0.87313 0.0
C95 C 0.62386 0.36046 0.77569 0.0
C96 C 0.62371 0.38916 0.77641 0.0
C97 C 0.61251 0.3438 0.74898 0.0
C98 C 0.60264 0.35586 0.72349 0.0
C99 C 0.60376 0.38492 0.72398 0.0
C100 C 0.6139 0.4012 0.75099 0.0
C101 C 0.59386 0.24733 0.87145 0.0
H102 H 0.73893 0.43668 0.90381 0.0
H103 H 0.69181 0.40827 0.87041 0.0
H104 H 0.73831 0.34495 0.85569 0.0
H105 H 0.78563 0.37362 0.88856 0.0
H106 H 0.67718 0.38801 0.81325 0.0
H107 H 0.68087 0.31964 0.86819 0.0
H108 H 0.60358 0.3069 0.79741 0.0
H109 H 0.58682 0.28679 0.85714 0.0
H110 H 0.66764 0.26731 0.83284 0.0
H111 H 0.65452 0.2231 0.85778 0.0
H112 H 0.63183 0.40262 0.79661 0.0
H113 H 0.61238 0.32169 0.74748 0.0
H114 H 0.57395 0.24273 0.88313 0.0
H115 H 0.61539 0.42365 0.75242 0.0
H116 H 0.59447 0.34242 0.70329 0.0
C117 C 0.87438 0.61989 0.23449 0.0
C118 C 0.90645 0.62718 0.23109 0.0
C119 C 0.86482 0.62998 0.25932 0.0
C120 C 0.88686 0.64809 0.28179 0.0
C121 C 0.91902 0.65517 0.2786 0.0
C122 C 0.92865 0.64473 0.25386 0.0
C123 C 0.87618 0.65977 0.30794 0.0
C124 C 0.85079 0.6425 0.32087 0.0
C125 C 0.84017 0.65325 0.34489 0.0
C126 C 0.85517 0.6819 0.35543 0.0
C127 C 0.87989 0.70004 0.343 0.0
C128 C 0.89062 0.68855 0.31956 0.0
C129 C 0.89297 0.73109 0.35454 0.0
C130 C 0.87257 0.74544 0.3635 0.0
C131 C 0.92543 0.74625 0.35851 0.0
C132 C 0.93697 0.77448 0.37177 0.0
C133 C 0.9164 0.78841 0.38152 0.0
C134 C 0.81294 0.6356 0.35898 0.0
C135 C 0.78637 0.61551 0.34244 0.0
C136 C 0.81235 0.64013 0.38918 0.0
C137 C 0.78594 0.62613 0.40203 0.0
C138 C 0.75931 0.60644 0.38541 0.0
C139 C 0.76012 0.60106 0.35547 0.0
C140 C 0.88401 0.7731 0.3771 0.0
H141 H 0.85641 0.60625 0.21781 0.0
H142 H 0.83987 0.62405 0.2605 0.0
H143 H 0.93692 0.66878 0.29535 0.0
H144 H 0.95351 0.65106 0.25223 0.0
H145 H 0.83973 0.62044 0.31261 0.0
H146 H 0.9093 0.70238 0.30956 0.0
H147 H 0.84708 0.6905 0.37347 0.0
H148 H 0.84735 0.73513 0.36034 0.0
H149 H 0.94202 0.73609 0.35201 0.0
H150 H 0.96202 0.78534 0.37428 0.0
H151 H 0.78542 0.61142 0.31919 0.0
H152 H 0.83245 0.65461 0.4032 0.0
H153 H 0.86704 0.78213 0.38468 0.0
H154 H 0.74008 0.58603 0.34189 0.0
H155 H 0.78664 0.63038 0.42522 0.0
C156 C 0.71637 0.73572 0.65787 0.0
C157 C 0.72645 0.76568 0.6626 0.0
C158 C 0.69746 0.7188 0.67628 0.0
C159 C 0.68822 0.7316 0.69959 0.0
C160 C 0.69691 0.76165 0.70301 0.0
C161 C 0.71561 0.77841 0.6847 0.0
C162 C 0.67307 0.71442 0.72256 0.0
C163 C 0.68406 0.69218 0.73377 0.0
C164 C 0.67607 0.68084 0.76017 0.0
C165 C 0.65685 0.69191 0.7754 0.0
C166 C 0.64526 0.71387 0.7643 0.0
C167 C 0.65212 0.72377 0.73707 0.0
C168 C 0.63099 0.72985 0.78321 0.0
C169 C 0.61132 0.71594 0.80285 0.0
C170 C 0.63972 0.75989 0.78369 0.0
C171 C 0.62986 0.77563 0.80368 0.0
C172 C 0.61125 0.76188 0.82402 0.0
C173 C 0.69193 0.66076 0.77388 0.0
C174 C 0.69294 0.63658 0.75767 0.0
C175 C 0.70854 0.66712 0.80254 0.0
C176 C 0.72703 0.65041 0.8143 0.0
C177 C 0.72908 0.62676 0.79776 0.0
C178 C 0.71108 0.6196 0.76958 0.0
C179 C 0.60166 0.73183 0.82317 0.0
H180 H 0.7244 0.72537 0.64094 0.0
H181 H 0.69098 0.69574 0.67288 0.0
H182 H 0.69083 0.77244 0.72093 0.0
H183 H 0.72263 0.80147 0.68858 0.0
H184 H 0.70113 0.68541 0.72348 0.0
H185 H 0.64296 0.74044 0.72815 0.0
H186 H 0.65257 0.68454 0.79672 0.0
H187 H 0.60395 0.69284 0.80293 0.0
H188 H 0.65559 0.77154 0.76963 0.0
H189 H 0.63828 0.79876 0.80418 0.0
H190 H 0.68015 0.63116 0.73558 0.0
H191 H 0.70856 0.6859 0.81535 0.0
H192 H 0.58717 0.72068 0.83854 0.0
H193 H 0.71156 0.60124 0.75641 0.0
H194 H 0.74091 0.65698 0.83581 0.0
C195 C 0.69565 0.14985 0.28134 0.0
C196 C 0.69687 0.17072 0.26095 0.0
C197 C 0.70885 0.15773 0.31056 0.0
C198 C 0.72325 0.18665 0.32004 0.0
C199 C 0.72395 0.20765 0.29985 0.0
C200 C 0.71112 0.19971 0.2704 0.0
C201 C 0.73758 0.19452 0.35101 0.0
C202 C 0.75831 0.18055 0.36452 0.0
C203 C 0.76973 0.18552 0.3946 0.0
C204 C 0.76078 0.20531 0.41112 0.0
C205 C 0.73974 0.21939 0.3979 0.0
C206 C 0.72859 0.21407 0.36765 0.0
C207 C 0.72662 0.23719 0.41583 0.0
C208 C 0.71813 0.22855 0.443 0.0
C209 C 0.71969 0.26141 0.40469 0.0
C210 C 0.70287 0.27551 0.41939 0.0
C211 C 0.69293 0.26597 0.44582 0.0
C212 C 0.78884 0.16817 0.40887 0.0
C213 C 0.77962 0.13853 0.40186 0.0
C214 C 0.8161 0.18078 0.42939 0.0
C215 C 0.83401 0.16401 0.44236 0.0
C216 C 0.82472 0.13435 0.43523 0.0
C217 C 0.79736 0.12184 0.41485 0.0
C218 C 0.70164 0.24288 0.4579 0.0
H219 H 0.68508 0.12734 0.27454 0.0
H220 H 0.70778 0.14119 0.32583 0.0
H221 H 0.73496 0.23008 0.30675 0.0
H222 H 0.71226 0.21615 0.25503 0.0
H223 H 0.76519 0.16538 0.35158 0.0
H224 H 0.71134 0.22372 0.35728 0.0
H225 H 0.76923 0.20889 0.43444 0.0
H226 H 0.72282 0.20986 0.45218 0.0
H227 H 0.72634 0.26893 0.38406 0.0
H228 H 0.69642 0.29304 0.40923 0.0
H229 H 0.75848 0.12815 0.38643 0.0
H230 H 0.82374 0.2036 0.43511 0.0
H231 H 0.69492 0.2353 0.47848 0.0
H232 H 0.78981 0.09911 0.40865 0.0
H233 H 0.8549 0.17417 0.45816 0.0
C234 C 0.2906 0.6577 0.17268 0.0
C235 C 0.29124 0.64951 0.14345 0.0
C236 C 0.31874 0.67067 0.1919 0.0
C237 C 0.34796 0.676 0.18215 0.0
C238 C 0.34868 0.6668 0.15343 0.0
C239 C 0.32074 0.65346 0.13442 0.0
C240 C 0.37767 0.69248 0.20115 0.0
C241 C 0.38655 0.68373 0.22885 0.0
C242 C 0.41557 0.6986 0.24624 0.0
C243 C 0.43532 0.72323 0.23573 0.0
C244 C 0.42619 0.73249 0.20813 0.0
C245 C 0.39763 0.71677 0.191 0.0
C246 C 0.4462 0.758 0.19596 0.0
C247 C 0.44718 0.78579 0.20529 0.0
C248 C 0.46074 0.75436 0.17191 0.0
C249 C 0.47598 0.77796 0.15745 0.0
C250 C 0.47664 0.80583 0.16635 0.0
C251 C 0.42514 0.68732 0.27469 0.0
C252 C 0.40335 0.67828 0.29408 0.0
C253 C 0.45498 0.6832 0.28161 0.0
C254 C 0.46239 0.66951 0.30678 0.0
C255 C 0.44033 0.65999 0.32588 0.0
C256 C 0.41088 0.66495 0.31934 0.0
C257 C 0.46211 0.80948 0.19053 0.0
H258 H 0.26841 0.65518 0.18041 0.0
H259 H 0.31761 0.67762 0.21399 0.0
H260 H 0.37097 0.67024 0.14555 0.0
H261 H 0.32231 0.64668 0.11242 0.0
H262 H 0.37135 0.66457 0.23633 0.0
H263 H 0.39074 0.72368 0.16965 0.0
H264 H 0.45764 0.73503 0.24883 0.0
H265 H 0.43555 0.78905 0.22341 0.0
H266 H 0.4597 0.73311 0.1639 0.0
H267 H 0.48661 0.77429 0.13876 0.0
H268 H 0.3802 0.68118 0.28947 0.0
H269 H 0.47219 0.68966 0.26702 0.0
H270 H 0.46237 0.83065 0.19805 0.0
H271 H 0.39317 0.65775 0.33333 0.0
H272 H 0.48539 0.66628 0.31126 0.0
C273 C 0.17471 0.27922 0.68213 0.0
C274 C 0.14293 0.2622 0.67867 0.0
C275 C 0.18454 0.3072 0.69494 0.0
C276 C 0.163 0.32017 0.704 0.0
C277 C 0.13111 0.30334 0.70079 0.0
C278 C 0.12124 0.2748 0.68836 0.0
C279 C 0.17436 0.35136 0.71541 0.0
C280 C 0.19904 0.37035 0.70371 0.0
C281 C 0.21302 0.39883 0.71495 0.0
C282 C 0.20053 0.40937 0.73767 0.0
C283 C 0.17504 0.39123 0.74983 0.0
C284 C 0.16229 0.36219 0.7383 0.0
C285 C 0.16284 0.40196 0.77552 0.0
C286 C 0.15994 0.42986 0.77777 0.0
C287 C 0.1542 0.38433 0.79843 0.0
C288 C 0.14359 0.39419 0.82268 0.0
C289 C 0.14095 0.42211 0.82516 0.0
C290 C 0.24217 0.41571 0.70349 0.0
C291 C 0.26744 0.40415 0.70417 0.0
C292 C 0.24316 0.44 0.68753 0.0
C293 C 0.26779 0.45113 0.67112 0.0
C294 C 0.29179 0.4381 0.67029 0.0
C295 C 0.29172 0.41509 0.68785 0.0
C296 C 0.14896 0.43967 0.80201 0.0
H297 H 0.19243 0.27125 0.67452 0.0
H298 H 0.20945 0.31872 0.69757 0.0
H299 H 0.11363 0.31233 0.70735 0.0
H300 H 0.0966 0.26264 0.68654 0.0
H301 H 0.20803 0.36287 0.68557 0.0
H302 H 0.14325 0.34786 0.74746 0.0
H303 H 0.21154 0.43121 0.7467 0.0
H304 H 0.16602 0.44417 0.76066 0.0
H305 H 0.15627 0.36289 0.79806 0.0
H306 H 0.13742 0.37972 0.83965 0.0
H307 H 0.26747 0.38544 0.71613 0.0
H308 H 0.22391 0.44921 0.68619 0.0
H309 H 0.14752 0.46131 0.80296 0.0
H310 H 0.30976 0.40452 0.68779 0.0
H311 H 0.26691 0.46868 0.6576 0.0
Pr312 Pr 1.01758 1.01102 0.55671 0.0
Pr313 Pr 0.05143 0.03349 0.51357 0.0
C314 C 0.98696 0.97973 0.59652 0.0
C315 C 0.95779 0.95619 0.59693 0.0
C316 C 0.93785 0.95848 0.61685 0.0
C317 C 0.91039 0.93623 0.61814 0.0
C318 C 0.90243 0.91106 0.59968 0.0
C319 C 0.9222 0.90906 0.5793 0.0
C320 C 0.94957 0.93146 0.57787 0.0
C321 C 0.05103 0.06961 0.57195 0.0
C322 C 0.08845 1.00503 0.56041 0.0
C323 C 0.08053 0.06536 0.47318 0.0
C324 C 0.10785 0.09033 0.47165 0.0
C325 C 0.12207 0.09308 0.44647 0.0
C326 C 0.14683 0.11746 0.44372 0.0
C327 C 0.15775 0.1396 0.46613 0.0
C328 C 0.14388 0.13646 0.49169 0.0
C329 C 0.11919 0.11195 0.49448 0.0
C330 C 1.01716 0.97518 0.49763 0.0
C331 C 0.97965 0.03743 0.50955 0.0
O332 O 0.98362 1.00439 0.58951 0.0
O333 O 1.00943 0.97364 0.58525 0.0
O334 O 0.06246 0.05134 0.56198 0.0
O335 O 1.02155 0.05803 0.57351 0.0
O336 O 0.09363 0.028 0.54569 0.0
O337 O 0.05941 0.99121 0.56357 0.0
O338 O 0.08636 0.04199 0.48152 0.0
O339 O 0.05731 0.07017 0.48422 0.0
O340 O 1.00636 0.99361 0.50815 0.0
O341 O 0.04658 0.98652 0.49567 0.0
O342 O 0.97549 1.01402 0.52341 0.0
O343 O 1.00854 0.05262 0.50716 0.0
H344 H 0.9436 0.97748 0.63154 0.0
H345 H 0.89539 0.93879 0.63366 0.0
H346 H 0.91695 0.88993 0.56493 0.0
H347 H 0.96445 0.92926 0.56208 0.0
H348 H 0.11357 0.0766 0.42865 0.0
H349 H 0.1567 0.11939 0.42361 0.0
H350 H 0.15199 0.15304 0.50941 0.0
H351 H 0.10861 0.11009 0.51422 0.0
Pr352 Pr 0.5249 0.02682 0.03651 0.0
Pr353 Pr 0.58067 1.01847 1.02045 0.0
C354 C 0.4805 0.0341 0.06662 0.0
C355 C 0.48007 0.05643 0.08806 0.0
C356 C 0.5049 0.08211 0.09291 0.0
C357 C 0.50465 0.10338 0.11339 0.0
C358 C 0.4796 0.09929 0.12947 0.0
C359 C 0.45504 0.07323 0.12482 0.0
C360 C 0.45529 0.05199 0.10424 0.0
C361 C 0.55146 0.06747 0.99812 0.0
C362 C 0.59438 0.06235 0.07548 0.0
C363 C 0.62464 1.00617 0.9934 0.0
C364 C 0.62367 0.97992 0.97655 0.0
C365 C 0.64675 0.9663 0.98449 0.0
C366 C 0.64382 0.93952 0.9712 0.0
C367 C 0.61777 0.92596 0.94966 0.0
C368 C 0.59513 0.93998 0.94121 0.0
C369 C 0.59797 0.96662 0.95458 0.0
C370 C 0.55519 0.97882 0.05993 0.0
C371 C 0.51253 0.98913 0.97702 0.0
O372 O 0.49903 1.01882 0.07537 0.0
O373 O 0.48235 0.04169 0.03993 0.0
O374 O 0.5666 0.05966 1.01978 0.0
O375 O 0.52143 0.05472 0.99591 0.0
O376 O 0.60668 0.05811 0.05237 0.0
O377 O 0.56449 0.04901 0.07654 0.0
O378 O 0.60652 0.02082 0.9817 0.0
O379 O 0.62412 1.0038 1.02135 0.0
O380 O 0.53909 0.98514 0.03772 0.0
O381 O 0.58447 0.99398 0.0625 0.0
O382 O 0.49855 0.99132 0.99958 0.0
O383 O 0.54302 1.00129 0.97864 0.0
H384 H 0.52437 0.08577 0.08069 0.0
H385 H 0.52375 0.12325 0.11613 0.0
H386 H 0.43568 0.06918 0.13717 0.0
H387 H 0.43616 0.03211 0.10098 0.0
H388 H 0.66662 0.97605 1.00152 0.0
H389 H 0.66184 0.92935 0.97787 0.0
H390 H 0.57465 0.92996 0.92489 0.0
H391 H 0.57953 0.97636 0.94825 0.0
Pr392 Pr 0.52786 0.54498 0.53536 0.0
Pr393 Pr 0.51107 0.4885 0.50363 0.0
C394 C 0.53827 0.6006 0.55049 0.0
C395 C 0.51688 0.61636 0.5581 0.0
C396 C 0.49484 0.60504 0.57667 0.0
C397 C 0.47222 0.61834 0.58112 0.0
C398 C 0.47092 0.643 0.5668 0.0
C399 C 0.49317 0.65446 0.54845 0.0
C400 C 0.51601 0.64127 0.54421 0.0
C401 C 0.54741 0.50504 0.56932 0.0
C402 C 0.46214 0.49937 0.54815 0.0
C403 C 0.49642 0.43258 0.48668 0.0
C404 C 0.51509 0.41273 0.486 0.0
C405 C 0.50037 0.38383 0.47706 0.0
C406 C 0.51823 0.36482 0.47726 0.0
C407 C 0.55108 0.37449 0.48657 0.0
C408 C 0.56563 0.40357 0.49557 0.0
C409 C 0.54778 0.42253 0.49518 0.0
C410 C 0.4908 0.52887 0.47083 0.0
C411 C 0.57852 0.53139 0.49387 0.0
O412 O 0.53264 0.59031 0.52328 0.0
O413 O 0.54474 0.58269 0.56909 0.0
O414 O 0.55022 0.50799 0.54265 0.0
O415 O 0.53587 0.52395 0.5795 0.0
O416 O 0.47202 0.48088 0.53398 0.0
O417 O 0.47742 0.527 0.54947 0.0
O418 O 0.49455 0.44188 0.51282 0.0
O419 O 0.50162 0.45277 0.46846 0.0
O420 O 0.48816 0.52497 0.49732 0.0
O421 O 0.50288 0.51073 0.46004 0.0
O422 O 0.56849 0.55152 0.50525 0.0
O423 O 0.56313 0.50425 0.49555 0.0
H424 H 0.49452 0.58547 0.58718 0.0
H425 H 0.45514 0.60885 0.5951 0.0
H426 H 0.49287 0.67359 0.53735 0.0
H427 H 0.53252 0.65011 0.5295 0.0
H428 H 0.47511 0.376 0.46993 0.0
H429 H 0.50639 0.34266 0.46977 0.0
H430 H 0.59077 0.41165 0.50321 0.0
H431 H 0.55945 0.44484 0.50219 0.0
Pr432 Pr 1.01571 0.54559 1.00222 0.0
Pr433 Pr 0.03421 0.51201 0.05048 0.0
C434 C 0.98904 0.57182 0.95995 0.0
C435 C 0.95963 0.57533 0.9447 0.0
C436 C 0.96152 0.59381 0.92204 0.0
C437 C 0.93426 0.59474 0.90401 0.0
C438 C 0.90457 0.57729 0.90844 0.0
C439 C 0.9025 0.55968 0.93206 0.0
C440 C 0.93 0.55847 0.94997 0.0
C441 C 0.07916 0.56814 0.02746 0.0
C442 C 0.99501 0.55445 0.0686 0.0
C443 C 0.06251 0.48537 0.09107 0.0
C444 C 0.09259 0.47915 0.09805 0.0
C445 C 0.11826 0.49244 0.08408 0.0
C446 C 0.14722 0.4872 0.09202 0.0
C447 C 0.15089 0.46866 0.11406 0.0
C448 C 0.1248 0.45509 0.12756 0.0
C449 C 0.09595 0.46035 0.11965 0.0
C450 C 0.97105 0.49011 1.02405 0.0
C451 C 0.05441 0.50231 0.9844 0.0
O452 O 0.99306 0.54682 0.95586 0.0
O453 O 0.99969 0.58341 0.98661 0.0
O454 O 0.05679 0.55874 0.04164 0.0
O455 O 0.06882 0.56808 0.99989 0.0
O456 O 1.01639 0.54227 0.07932 0.0
O457 O 0.98747 0.55475 0.03975 0.0
O458 O 0.06388 0.51228 0.09421 0.0
O459 O 0.0436 0.4719 0.06756 0.0
O460 O 0.99411 0.49889 1.01064 0.0
O461 O 0.98018 0.49121 0.05205 0.0
O462 O 0.03332 0.51479 0.97364 0.0
O463 O 0.06181 0.50197 1.01317 0.0
H464 H 0.98423 0.60681 0.9176 0.0
H465 H 0.9364 0.60874 0.88617 0.0
H466 H 0.87982 0.54604 0.93583 0.0
H467 H 0.92822 0.54381 0.96723 0.0
H468 H 0.11602 0.50714 0.06739 0.0
H469 H 0.16687 0.49812 0.08133 0.0
H470 H 0.12659 0.44022 0.14416 0.0
H471 H 0.07629 0.44988 0.13055 0.0
H472 H 0.30004 0.23175 0.39296 0.0
H473 H 0.27046 0.30575 0.4123 0.0
H474 H 0.23342 0.27708 0.44273 0.0
H475 H 0.22597 0.18356 0.38205 0.0
H476 H 0.23717 0.15403 0.39769 0.0
H477 H 0.26535 0.18141 0.38219 0.0
H478 H 0.30409 0.19069 0.43114 0.0
H479 H 0.27607 0.16311 0.44678 0.0
H480 H 0.29111 0.19868 0.46452 0.0
H481 H 0.19552 0.23909 0.46604 0.0
H482 H 0.15826 0.1946 0.47863 0.0
H483 H 0.21193 0.14512 0.44309 0.0
C484 C 0.28657 0.24213 0.4045 0.0
C485 C 0.28837 0.27101 0.40079 0.0
C486 C 0.26952 0.28368 0.41518 0.0
C487 C 0.24857 0.2676 0.43256 0.0
C488 C 0.24674 0.2389 0.43518 0.0
C489 C 0.26529 0.22629 0.42156 0.0
C490 C 0.25626 0.19439 0.42494 0.0
C491 C 0.24555 0.17737 0.39494 0.0
C492 C 0.28351 0.18625 0.44293 0.0
C493 C 0.22904 0.19085 0.44173 0.0
C494 C 0.22431 0.21683 0.44794 0.0
C495 C 0.19933 0.21869 0.46173 0.0
C496 C 0.17835 0.19331 0.46889 0.0
C497 C 0.18226 0.16642 0.46192 0.0
C498 C 0.20833 0.16537 0.44867 0.0
H499 H 0.36795 0.88534 0.86494 0.0
H500 H 0.42755 0.90977 0.79816 0.0
H501 H 0.46919 0.94169 0.8346 0.0
H502 H 0.39207 0.95617 0.90393 0.0
H503 H 0.39128 0.94233 0.93961 0.0
H504 H 0.36535 0.92154 0.90821 0.0
H505 H 0.38753 0.8792 0.91978 0.0
H506 H 0.41359 0.89988 0.95114 0.0
H507 H 0.42941 0.88485 0.92323 0.0
H508 H 0.50483 0.96917 0.87721 0.0
H509 H 0.53315 0.99295 0.92467 0.0
H510 H 0.45133 0.9526 0.96537 0.0
C511 C 0.38967 0.89763 0.85805 0.0
C512 C 0.39471 0.89476 0.82881 0.0
C513 C 0.42346 0.91113 0.82056 0.0
C514 C 0.44718 0.92948 0.84104 0.0
C515 C 0.44177 0.93146 0.86968 0.0
C516 C 0.41379 0.91622 0.87833 0.0
C517 C 0.41463 0.92232 0.9108 0.0
C518 C 0.38933 0.93643 0.91593 0.0
C519 C 0.41109 0.89493 0.9272 0.0
C520 C 0.44757 0.94315 0.91892 0.0
C521 C 0.46261 0.94798 0.89472 0.0
C522 C 0.49333 0.96572 0.89637 0.0
C523 C 0.50926 0.97902 0.92354 0.0
C524 C 0.49451 0.97458 0.94881 0.0
C525 C 0.46314 0.95648 0.94642 0.0
H526 H 0.57358 0.42668 0.7163 0.0
H527 H 0.61644 0.37477 0.66892 0.0
H528 H 0.6057 0.3987 0.62403 0.0
H529 H 0.51226 0.42868 0.65697 0.0
H530 H 0.51488 0.46527 0.66646 0.0
H531 H 0.52463 0.44306 0.69446 0.0
H532 H 0.57959 0.48035 0.70956 0.0
H533 H 0.57004 0.50263 0.68157 0.0
H534 H 0.60486 0.49138 0.6824 0.0
H535 H 0.59176 0.42999 0.58409 0.0
H536 H 0.5753 0.46528 0.55326 0.0
H537 H 0.54259 0.49705 0.62698 0.0
C538 C 0.58082 0.4203 0.69656 0.0
C539 C 0.5958 0.39858 0.69639 0.0
C540 C 0.60443 0.39087 0.66975 0.0
C541 C 0.59863 0.40454 0.64409 0.0
C542 C 0.58414 0.42599 0.64517 0.0
C543 C 0.57527 0.43376 0.67075 0.0
C544 C 0.56055 0.4578 0.6663 0.0
C545 C 0.52603 0.44812 0.67134 0.0
C546 C 0.57992 0.48462 0.68613 0.0
C547 C 0.56278 0.46256 0.63432 0.0
C548 C 0.57636 0.44396 0.62243 0.0
C549 C 0.58105 0.44458 0.59324 0.0
C550 C 0.57162 0.46468 0.57584 0.0
C551 C 0.55768 0.48393 0.58764 0.0
C552 C 0.55324 0.48269 0.61728 0.0
H553 H 0.95784 0.6072 0.22404 0.0
H554 H 0.87714 0.62539 0.17444 0.0
H555 H 0.89111 0.60957 0.1287 0.0
H556 H 1.01109 0.62964 0.1708 0.0
H557 H 0.02902 0.60145 0.17681 0.0
H558 H 1.01322 0.61465 0.20593 0.0
H559 H 0.978 0.56334 0.21113 0.0
H560 H 0.99369 0.55 0.18203 0.0
H561 H 0.95172 0.54318 0.17957 0.0
H562 H 0.91407 0.59208 0.08734 0.0
H563 H 0.94286 0.57283 0.05451 0.0
H564 H 1.00846 0.56415 0.12968 0.0
C565 C 0.94319 0.60803 0.20356 0.0
C566 C 0.91609 0.61759 0.20329 0.0
C567 C 0.89764 0.61791 0.17572 0.0
C568 C 0.90554 0.60906 0.14941 0.0
C569 C 0.93207 0.59961 0.15047 0.0
C570 C 0.95059 0.59889 0.17685 0.0
C571 C 0.97747 0.5871 0.1717 0.0
C572 C 1.00961 0.60955 0.18192 0.0
C573 C 0.97507 0.55925 0.18702 0.0
C574 C 0.97121 0.58143 0.13841 0.0
C575 C 0.94496 0.58899 0.12664 0.0
C576 C 0.93461 0.58605 0.09644 0.0
C577 C 0.95126 0.57508 0.07783 0.0
C578 C 0.97812 0.56678 0.08912 0.0
C579 C 0.98806 0.57011 0.12005 0.0
H580 H 0.39986 0.20326 0.20151 0.0
H581 H 0.49263 0.25091 0.24749 0.0
H582 H 0.51501 0.21562 0.22705 0.0
H583 H 0.40853 0.13234 0.2096 0.0
H584 H 0.38685 0.11881 0.1737 0.0
H585 H 0.37804 0.14686 0.19341 0.0
H586 H 0.38749 0.17879 0.14978 0.0
H587 H 0.39622 0.15085 0.12994 0.0
H588 H 0.42443 0.18603 0.13614 0.0
H589 H 0.52742 0.1762 0.19945 0.0
H590 H 0.5289 0.136 0.16714 0.0
H591 H 0.42803 0.11545 0.13845 0.0
C592 C 0.42491 0.20633 0.20726 0.0
C593 C 0.44455 0.22987 0.22601 0.0
C594 C 0.47712 0.23287 0.23337 0.0
C595 C 0.49003 0.213 0.22181 0.0
C596 C 0.46999 0.1902 0.20312 0.0
C597 C 0.43811 0.18675 0.19599 0.0
C598 C 0.42176 0.16095 0.1748 0.0
C599 C 0.39736 0.13841 0.18872 0.0
C600 C 0.4066 0.16969 0.14596 0.0
C601 C 0.44953 0.15072 0.17057 0.0
C602 C 0.47711 0.16769 0.18725 0.0
C603 C 0.50593 0.16272 0.18638 0.0
C604 C 0.50657 0.13993 0.16781 0.0
C605 C 0.47859 0.12247 0.15025 0.0
C606 C 0.44975 0.12799 0.15193 0.0
H607 H 0.16385 0.89194 0.63698 0.0
H608 H 0.25362 0.94121 0.61433 0.0
H609 H 0.22867 0.97594 0.59191 0.0
H610 H 0.11562 0.90198 0.57189 0.0
H611 H 0.08397 0.90457 0.59058 0.0
H612 H 0.10908 0.8838 0.60484 0.0
H613 H 0.12223 0.91346 0.65468 0.0
H614 H 0.09724 0.93438 0.64051 0.0
H615 H 0.1379 0.95187 0.65579 0.0
H616 H 0.1937 1.00547 0.57221 0.0
H617 H 0.15102 0.02639 0.55518 0.0
H618 H 0.08461 0.95765 0.59125 0.0
C619 C 0.17831 0.91014 0.62748 0.0
C620 C 0.21067 0.91389 0.62739 0.0
C621 C 0.2287 0.93775 0.61434 0.0
C622 C 0.21479 0.95768 0.60174 0.0
C623 C 0.18286 0.9534 0.60235 0.0
C624 C 0.16483 0.93015 0.61478 0.0
C625 C 0.13092 0.93019 0.61222 0.0
C626 C 0.10859 0.90356 0.59378 0.0
C627 C 0.12154 0.93263 0.64261 0.0
C628 C 0.13266 0.9571 0.59641 0.0
C629 C 0.16281 0.97027 0.59097 0.0
C630 C 0.17 0.99535 0.57638 0.0
C631 C 0.14563 1.0071 0.56683 0.0
C632 C 0.1145 0.99368 0.5719 0.0
C633 C 0.10816 0.96849 0.58708 0.0
H634 H 0.82851 0.42539 0.89264 0.0
H635 H 0.76493 0.42411 0.95495 0.0
H636 H 0.81048 0.44683 0.99348 0.0
H637 H 0.88878 0.40945 0.94012 0.0
H638 H 0.92099 0.43351 0.92566 0.0
H639 H 0.88342 0.41851 0.90261 0.0
H640 H 0.88147 0.46942 0.89138 0.0
H641 H 0.91892 0.48486 0.91463 0.0
H642 H 0.88502 0.49516 0.9211 0.0
H643 H 0.86296 0.4655 1.02616 0.0
H644 H 0.91876 0.48264 0.04988 0.0
H645 H 0.94843 0.4747 0.96584 0.0
C646 C 0.82427 0.43019 0.91435 0.0
C647 C 0.79326 0.42304 0.92091 0.0
C648 C 0.78851 0.42967 0.94948 0.0
C649 C 0.81422 0.44247 0.97149 0.0
C650 C 0.84453 0.44896 0.96444 0.0
C651 C 0.84968 0.44349 0.93645 0.0
C652 C 0.88465 0.45257 0.93473 0.0
C653 C 0.89506 0.42698 0.92523 0.0
C654 C 0.89301 0.47695 0.91424 0.0
C655 C 0.89835 0.46303 0.96632 0.0
C656 C 0.87479 0.46077 0.98309 0.0
C657 C 0.8816 0.46772 1.01319 0.0
C658 C 0.91332 0.47728 1.02649 0.0
C659 C 0.9378 0.47999 1.00968 0.0
C660 C 0.93015 0.473 0.97917 0.0
H661 H 0.7281 0.62786 0.42424 0.0
H662 H 0.72735 0.54919 0.37882 0.0
H663 H 0.68271 0.52238 0.40234 0.0
H664 H 0.70787 0.59794 0.49222 0.0
H665 H 0.68247 0.61934 0.49775 0.0
H666 H 0.71479 0.6327 0.47783 0.0
H667 H 0.67616 0.6401 0.43374 0.0
H668 H 0.64375 0.62686 0.45356 0.0
H669 H 0.6427 0.61044 0.41803 0.0
H670 H 0.63931 0.50351 0.43173 0.0
H671 H 0.59712 0.49393 0.4617 0.0
H672 H 0.62233 0.58464 0.48745 0.0
C673 C 0.71857 0.60497 0.41932 0.0
C674 C 0.7315 0.5907 0.39951 0.0
C675 C 0.71793 0.56075 0.39355 0.0
C676 C 0.69259 0.54527 0.407 0.0
C677 C 0.68051 0.5599 0.42632 0.0
C678 C 0.69275 0.58913 0.43228 0.0
C679 C 0.67446 0.59954 0.45329 0.0
C680 C 0.6962 0.61319 0.48197 0.0
C681 C 0.65831 0.62048 0.43878 0.0
C682 C 0.65021 0.57158 0.45833 0.0
C683 C 0.6545 0.54904 0.44267 0.0
C684 C 0.63567 0.52104 0.44393 0.0
C685 C 0.61166 0.51583 0.46124 0.0
C686 C 0.60597 0.53842 0.4772 0.0
C687 C 0.6258 0.56679 0.47565 0.0
H688 H 0.27759 0.42378 0.22442 0.0
H689 H 0.32232 0.41118 0.15031 0.0
H690 H 0.28634 0.43154 0.11855 0.0
H691 H 0.20143 0.4034 0.18827 0.0
H692 H 0.18874 0.42948 0.20718 0.0
H693 H 0.22053 0.41752 0.22481 0.0
H694 H 0.25706 0.46986 0.23313 0.0
H695 H 0.22522 0.48208 0.21578 0.0
H696 H 0.2624 0.49172 0.20242 0.0
H697 H 0.2416 0.44833 0.09398 0.0
H698 H 0.19242 0.46075 0.07893 0.0
H699 H 0.17863 0.46388 0.16965 0.0
C700 C 0.2806 0.42617 0.20174 0.0
C701 C 0.30288 0.41597 0.1899 0.0
C702 C 0.30529 0.41868 0.15985 0.0
C703 C 0.2851 0.43038 0.14168 0.0
C704 C 0.26284 0.43953 0.15395 0.0
C705 C 0.26073 0.43783 0.18337 0.0
C706 C 0.23341 0.44723 0.19081 0.0
C707 C 0.20963 0.42296 0.2035 0.0
C708 C 0.24523 0.47434 0.21178 0.0
C709 C 0.21976 0.45349 0.16081 0.0
C710 C 0.23724 0.44928 0.13985 0.0
C711 C 0.22805 0.45218 0.11029 0.0
C712 C 0.20013 0.45932 0.10195 0.0
C713 C 0.18164 0.46328 0.12309 0.0
C714 C 0.19205 0.46076 0.15291 0.0
H715 H 0.55807 0.18966 0.8836 0.0
H716 H 0.65986 0.21515 0.90862 0.0
H717 H 0.65468 0.17628 0.94181 0.0
H718 H 0.53967 0.17153 0.95551 0.0
H719 H 0.50594 0.14115 0.94231 0.0
H720 H 0.51729 0.17067 0.9197 0.0
H721 H 0.52065 0.13595 0.87813 0.0
H722 H 0.50934 0.10632 0.90063 0.0
H723 H 0.54536 0.11308 0.88548 0.0
H724 H 0.63919 0.13551 0.97318 0.0
H725 H 0.61397 0.09492 1.00069 0.0
H726 H 0.52192 0.09466 0.95642 0.0
C727 C 0.57925 0.18707 0.89607 0.0
C728 C 0.60946 0.20542 0.89299 0.0
C729 C 0.63651 0.20113 0.90985 0.0
C730 C 0.63382 0.17916 0.92902 0.0
C731 C 0.60389 0.16143 0.93138 0.0
C732 C 0.57702 0.16503 0.91541 0.0
C733 C 0.54772 0.14289 0.92241 0.0
C734 C 0.52639 0.15743 0.93578 0.0
C735 C 0.52971 0.12341 0.89503 0.0
C736 C 0.56239 0.12649 0.94487 0.0
C737 C 0.59486 0.13765 0.94964 0.0
C738 C 0.61378 0.12654 0.96958 0.0
C739 C 0.59922 0.10346 0.98514 0.0
C740 C 0.56599 0.09157 0.98076 0.0
C741 C 0.54738 0.10323 0.9602 0.0
H742 H 0.97481 0.81767 0.41597 0.0
H743 H 0.88467 0.82894 0.3799 0.0
H744 H 0.89973 0.87549 0.40732 0.0
H745 H 0.98446 0.85287 0.48686 0.0
H746 H 0.02602 0.87087 0.48902 0.0
H747 H 1.00824 0.8374 0.46744 0.0
H748 H 0.02888 0.86091 0.42188 0.0
H749 H 0.04699 0.89438 0.4434 0.0
H750 H 1.01963 0.89273 0.41036 0.0
H751 H 0.92256 0.91989 0.44125 0.0
H752 H 0.95528 0.96248 0.47304 0.0
H753 H 0.03355 0.92695 0.48293 0.0
C754 C 0.95825 0.82992 0.41347 0.0
C755 C 0.92784 0.81847 0.39621 0.0
C756 C 0.90742 0.83593 0.39379 0.0
C757 C 0.91589 0.86283 0.40916 0.0
C758 C 0.94539 0.87291 0.42652 0.0
C759 C 0.96666 0.85739 0.42822 0.0
C760 C 0.99752 0.87415 0.44745 0.0
C761 C 1.00446 0.85784 0.47428 0.0
C762 C 1.02488 0.88095 0.42971 0.0
C763 C 0.99005 0.90126 0.45639 0.0
C764 C 0.95959 0.89977 0.4444 0.0
C765 C 0.94661 0.92146 0.45042 0.0
C766 C 0.96534 0.94556 0.46867 0.0
C767 C 0.99707 0.94827 0.48033 0.0
C768 C 1.00947 0.92565 0.47412 0.0
H769 H 0.37038 0.7106 0.65854 0.0
H770 H 0.32687 0.73398 0.57694 0.0
H771 H 0.35507 0.7083 0.5495 0.0
H772 H 0.44481 0.72153 0.63977 0.0
H773 H 0.45276 0.69186 0.65817 0.0
H774 H 0.42634 0.70897 0.671 0.0
H775 H 0.38228 0.66034 0.66584 0.0
H776 H 0.40869 0.64297 0.65326 0.0
H777 H 0.37104 0.6394 0.63128 0.0
H778 H 0.3928 0.6847 0.53167 0.0
H779 H 0.43391 0.66203 0.52461 0.0
H780 H 0.45237 0.65454 0.61819 0.0
C781 C 0.3664 0.70991 0.63485 0.0
C782 C 0.34649 0.72422 0.61979 0.0
C783 C 0.34176 0.72283 0.58883 0.0
C784 C 0.3578 0.70845 0.57312 0.0
C785 C 0.3781 0.69535 0.58875 0.0
C786 C 0.38206 0.69562 0.61893 0.0
C787 C 0.4063 0.68119 0.63072 0.0
C788 C 0.4342 0.70214 0.65111 0.0
C789 C 0.39116 0.65438 0.64618 0.0
C790 C 0.41603 0.67337 0.60253 0.0
C791 C 0.39947 0.6816 0.57852 0.0
C792 C 0.40561 0.67786 0.55028 0.0
C793 C 0.42915 0.6652 0.54651 0.0
C794 C 0.44619 0.65646 0.57085 0.0
C795 C 0.43937 0.66058 0.59914 0.0
H796 H 0.77905 0.80824 0.68613 0.0
H797 H 0.72817 0.76384 0.60329 0.0
H798 H 0.76817 0.79578 0.57748 0.0
H799 H 0.80071 0.87835 0.66132 0.0
H800 H 0.8389 0.88924 0.68404 0.0
H801 H 0.80674 0.86241 0.6955 0.0
H802 H 0.84015 0.82725 0.70014 0.0
H803 H 0.87247 0.85401 0.68879 0.0
H804 H 0.85709 0.81929 0.66919 0.0
H805 H 0.81344 0.83449 0.56108 0.0
H806 H 0.86014 0.87492 0.5557 0.0
H807 H 0.88086 0.892 0.65007 0.0
C808 C 0.77617 0.8053 0.66252 0.0
C809 C 0.75038 0.78382 0.64661 0.0
C810 C 0.74783 0.78021 0.61583 0.0
C811 C 0.77034 0.79828 0.60104 0.0
C812 C 0.79529 0.81956 0.61747 0.0
C813 C 0.79834 0.82293 0.64757 0.0
C814 C 0.8271 0.84723 0.6604 0.0
C815 C 0.81779 0.87069 0.67624 0.0
C816 C 0.85059 0.83628 0.68083 0.0
C817 C 0.83977 0.85734 0.63281 0.0
C818 C 0.8212 0.84122 0.60822 0.0
C819 C 0.82822 0.84709 0.58024 0.0
C820 C 0.85488 0.87002 0.57742 0.0
C821 C 0.8742 0.88675 0.60245 0.0
C822 C 0.86641 0.88003 0.63043 0.0
H823 H 0.63946 0.13359 0.23808 0.0
H824 H 0.72654 0.187 0.21395 0.0
H825 H 0.70834 0.16706 0.16262 0.0
H826 H 0.63327 0.07262 0.19533 0.0
H827 H 0.59104 0.06214 0.18487 0.0
H828 H 0.60916 0.0829 0.21884 0.0
H829 H 0.58246 0.12163 0.20326 0.0
H830 H 0.564 0.10081 0.1693 0.0
H831 H 0.58788 0.13741 0.1689 0.0
H832 H 0.68342 0.13711 0.11565 0.0
H833 H 0.65161 0.10221 0.07525 0.0
H834 H 0.5802 0.0694 0.13005 0.0
C835 C 0.65441 0.14142 0.22183 0.0
C836 C 0.68434 0.16179 0.22978 0.0
C837 C 0.70336 0.17161 0.2081 0.0
C838 C 0.69329 0.16034 0.17899 0.0
C839 C 0.66398 0.13964 0.17201 0.0
C840 C 0.64458 0.13063 0.19271 0.0
C841 C 0.61479 0.10731 0.17987 0.0
C842 C 0.61192 0.07961 0.19567 0.0
C843 C 0.58556 0.1174 0.18037 0.0
C844 C 0.62094 0.10391 0.14896 0.0
C845 C 0.64937 0.1228 0.14481 0.0
C846 C 0.66089 0.12252 0.11849 0.0
C847 C 0.64276 0.10251 0.09576 0.0
C848 C 0.61344 0.08317 0.09954 0.0
C849 C 0.60241 0.08408 0.12645 0.0
H850 H 0.4691 0.6173 0.33005 0.0
H851 H 0.42721 0.66698 0.38123 0.0
H852 H 0.43611 0.63955 0.424 0.0
H853 H 0.43636 0.55054 0.35927 0.0
H854 H 0.47076 0.53879 0.35929 0.0
H855 H 0.46248 0.56319 0.33311 0.0
H856 H 0.51775 0.59915 0.35078 0.0
H857 H 0.52627 0.57477 0.37691 0.0
H858 H 0.52954 0.61089 0.38905 0.0
H859 H 0.4489 0.60578 0.46138 0.0
H860 H 0.46399 0.56831 0.4896 0.0
H861 H 0.49689 0.54033 0.41394 0.0
C862 C 0.46223 0.62272 0.35037 0.0
C863 C 0.44745 0.64441 0.35217 0.0
C864 C 0.43831 0.65036 0.37913 0.0
C865 C 0.4434 0.63495 0.40362 0.0
C866 C 0.45764 0.6135 0.40098 0.0
C867 C 0.46696 0.60741 0.37502 0.0
C868 C 0.48093 0.58274 0.37768 0.0
C869 C 0.46146 0.55731 0.35606 0.0
C870 C 0.51569 0.59248 0.37335 0.0
C871 C 0.47785 0.5758 0.40908 0.0
C872 C 0.46452 0.59388 0.42224 0.0
C873 C 0.45931 0.59151 0.45122 0.0
C874 C 0.46789 0.57012 0.4671 0.0
C875 C 0.48142 0.55126 0.45396 0.0
C876 C 0.48645 0.55431 0.42458 0.0
H877 H 0.10121 0.45636 0.83067 0.0
H878 H 0.15912 0.41256 0.88223 0.0
H879 H 0.14362 0.42819 0.92718 0.0
H880 H 0.11711 0.51754 0.88352 0.0
H881 H 0.07754 0.52005 0.87654 0.0
H882 H 0.09337 0.5059 0.84805 0.0
H883 H 0.04616 0.45965 0.84221 0.0
H884 H 0.03022 0.47364 0.87071 0.0
H885 H 0.0376 0.43955 0.87367 0.0
H886 H 0.12212 0.44863 0.96741 0.0
H887 H 0.09558 0.47141 0.99934 0.0
H888 H 0.05008 0.50206 0.92322 0.0
C889 C 0.11081 0.4502 0.85142 0.0
C890 C 0.13141 0.43285 0.85245 0.0
C891 C 0.14302 0.42529 0.88034 0.0
C892 C 0.13445 0.43427 0.90622 0.0
C893 C 0.11398 0.45095 0.90441 0.0
C894 C 0.10221 0.45886 0.87773 0.0
C895 C 0.08011 0.47656 0.88215 0.0
C896 C 0.09279 0.50681 0.87196 0.0
C897 C 0.04653 0.46145 0.86623 0.0
C898 C 0.08136 0.47734 0.91537 0.0
C899 C 0.10121 0.46249 0.92769 0.0
C900 C 0.10649 0.46025 0.95789 0.0
C901 C 0.0912 0.47337 0.97598 0.0
C902 C 0.07045 0.48866 0.96417 0.0
C903 C 0.06561 0.49055 0.93322 0.0
H904 H 0.59267 0.81008 0.81842 0.0
H905 H 0.61675 0.75393 0.88261 0.0
H906 H 0.61604 0.78813 0.92238 0.0
H907 H 0.64209 0.87259 0.85351 0.0
H908 H 0.61639 0.89425 0.8442 0.0
H909 H 0.61293 0.86328 0.82086 0.0
H910 H 0.55386 0.84273 0.82556 0.0
H911 H 0.55698 0.87391 0.84863 0.0
H912 H 0.54252 0.83872 0.86137 0.0
H913 H 0.62082 0.83163 0.95476 0.0
H914 H 0.62657 0.8795 0.97734 0.0
H915 H 0.6004 0.90737 0.89173 0.0
C916 C 0.597 0.80466 0.84085 0.0
C917 C 0.60466 0.77934 0.84746 0.0
C918 C 0.61032 0.77299 0.87706 0.0
C919 C 0.61015 0.79237 0.89978 0.0
C920 C 0.60393 0.81778 0.89249 0.0
C921 C 0.59693 0.82373 0.86371 0.0
C922 C 0.59361 0.85347 0.8616 0.0
C923 C 0.61769 0.87197 0.84401 0.0
C924 C 0.55972 0.85211 0.84852 0.0
C925 C 0.60109 0.86378 0.89362 0.0
C926 C 0.60667 0.84282 0.91113 0.0
C927 C 0.616 0.84805 0.9413 0.0
C928 C 0.61953 0.87536 0.95388 0.0
C929 C 0.61385 0.89709 0.93628 0.0
C930 C 0.60435 0.89104 0.9058 0.0
H931 H 0.88909 0.14555 0.44391 0.0
H932 H 0.80231 0.08222 0.45682 0.0
H933 H 0.83266 0.05039 0.47632 0.0
H934 H 0.92738 0.09654 0.42107 0.0
H935 H 0.96599 0.11648 0.43988 0.0
H936 H 0.93771 0.13484 0.42751 0.0
H937 H 0.94331 0.15691 0.48018 0.0
H938 H 0.97185 0.13884 0.49267 0.0
H939 H 0.93726 0.13373 0.50981 0.0
H940 H 0.8717 0.02514 0.49328 0.0
H941 H 0.91769 1.00845 0.50889 0.0
H942 H 0.97963 0.08819 0.48556 0.0
C943 C 0.87655 0.12515 0.45122 0.0
C944 C 0.84334 0.11626 0.44874 0.0
C945 C 0.82771 0.08926 0.45818 0.0
C946 C 0.84473 0.07109 0.46937 0.0
C947 C 0.87735 0.08028 0.47105 0.0
C948 C 0.89319 0.10671 0.46245 0.0
C949 C 0.92841 0.1112 0.46644 0.0
C950 C 0.94057 0.11498 0.43697 0.0
C951 C 0.94625 0.13668 0.4886 0.0
C952 C 0.9298 0.08312 0.47855 0.0
C953 C 0.90005 0.06563 0.48097 0.0
C954 C 0.89515 0.03863 0.49159 0.0
C955 C 0.92145 0.02935 0.50035 0.0
C956 C 0.95224 0.04703 0.49844 0.0
C957 C 0.95638 0.07417 0.48716 0.0
H958 H 0.2327 0.61387 0.15181 0.0
H959 H 0.28212 0.66137 0.08602 0.0
H960 H 0.234 0.64417 0.04973 0.0
H961 H 0.18337 0.55282 0.10341 0.0
H962 H 0.14914 0.54906 0.12081 0.0
H963 H 0.18804 0.5637 0.14168 0.0
H964 H 0.17382 0.60899 0.15678 0.0
H965 H 0.13495 0.59443 0.13581 0.0
H966 H 0.15964 0.62912 0.12881 0.0
H967 H 0.18136 0.6227 1.02041 0.0
H968 H 0.12565 0.59934 0.99986 0.0
H969 H 0.10802 0.56729 0.0843 0.0
C970 C 0.23341 0.62071 0.1298 0.0
C971 C 0.26161 0.63866 0.12181 0.0
C972 C 0.26131 0.647 0.09266 0.0
C973 C 0.23395 0.63752 0.07185 0.0
C974 C 0.20678 0.61985 0.08039 0.0
C975 C 0.20609 0.61157 0.10864 0.0
C976 C 0.17324 0.59309 0.11201 0.0
C977 C 0.17347 0.56287 0.11994 0.0
C978 C 0.15961 0.60726 0.1347 0.0
C979 C 0.15567 0.5926 0.08131 0.0
C980 C 0.17569 0.608 0.06346 0.0
C981 C 0.16538 0.61064 0.03415 0.0
C982 C 0.13367 0.59729 1.02269 0.0
C983 C 0.11248 0.58173 0.04053 0.0
C984 C 0.12367 0.57928 0.07024 0.0
H985 H 0.33758 0.48961 0.66229 0.0
H986 H 0.29631 0.40117 0.62827 0.0
H987 H 0.33328 0.40859 0.59279 0.0
H988 H 0.35423 0.51973 0.59168 0.0
H989 H 0.39157 0.545 0.60717 0.0
H990 H 0.36069 0.53385 0.62915 0.0
H991 H 0.39848 0.51796 0.66799 0.0
H992 H 0.42943 0.52905 0.64611 0.0
H993 H 0.41788 0.49291 0.65713 0.0
H994 H 0.375 0.42392 0.5623 0.0
H995 H 0.42041 0.44607 0.53831 0.0
H996 H 0.43823 0.52563 0.5907 0.0
C997 C 0.33616 0.47201 0.64707 0.0
C998 C 0.31381 0.4447 0.64809 0.0
C999 C 0.3131 0.42215 0.62804 0.0
C1000 C 0.33402 0.42619 0.60771 0.0
C1001 C 0.35596 0.453 0.60745 0.0
C1002 C 0.35738 0.47563 0.62652 0.0
C1003 C 0.38451 0.50182 0.62196 0.0
C1004 C 0.372 0.52657 0.61189 0.0
C1005 C 0.40903 0.51097 0.64997 0.0
C1006 C 0.39804 0.49017 0.59759 0.0
C1007 C 0.38085 0.46196 0.58965 0.0
C1008 C 0.38859 0.44602 0.56827 0.0
C1009 C 0.41468 0.45893 0.55474 0.0
C1010 C 0.4333 0.48775 0.56237 0.0
C1011 C 0.42452 0.50368 0.58406 0.0
H1012 H 0.74589 0.61428 0.8546 0.0
H1013 H 0.76561 0.60568 0.76627 0.0
H1014 H 0.80803 0.58558 0.78499 0.0
H1015 H 0.82386 0.63993 0.88739 0.0
H1016 H 0.81897 0.62196 0.92067 0.0
H1017 H 0.78632 0.63075 0.9001 0.0
H1018 H 0.75243 0.57759 0.89689 0.0
H1019 H 0.78502 0.56863 0.91758 0.0
H1020 H 0.76688 0.55041 0.88227 0.0
H1021 H 0.85264 0.57298 0.8132 0.0
H1022 H 0.8966 0.56839 0.84943 0.0
H1023 H 0.84972 0.5861 0.91994 0.0
C1024 C 0.75877 0.60778 0.8391 0.0
C1025 C 0.75202 0.61138 0.80884 0.0
C1026 C 0.76959 0.60254 0.7894 0.0
C1027 C 0.79394 0.5912 0.79986 0.0
C1028 C 0.80049 0.58871 0.82982 0.0
C1029 C 0.78335 0.59659 0.8492 0.0
C1030 C 0.79722 0.59431 0.8806 0.0
C1031 C 0.80719 0.62347 0.89821 0.0
C1032 C 0.774 0.57136 0.89519 0.0
C1033 C 0.82556 0.58504 0.87585 0.0
C1034 C 0.82666 0.58153 0.84633 0.0
C1035 C 0.85178 0.57517 0.83635 0.0
C1036 C 0.87667 0.57276 0.85704 0.0
C1037 C 0.87635 0.57678 0.88735 0.0
C1038 C 0.85016 0.58241 0.89687 0.0
H1039 H 0.45573 0.85124 0.14688 0.0
H1040 H 0.53451 0.81669 0.14978 0.0
H1041 H 0.56151 0.85622 0.12202 0.0
H1042 H 0.45702 0.87437 0.07329 0.0
H1043 H 0.44738 0.90669 0.081 0.0
H1044 H 0.43396 0.87602 0.1017 0.0
H1045 H 0.46078 0.90678 0.14992 0.0
H1046 H 0.47412 0.93758 0.12938 0.0
H1047 H 0.50215 0.92638 0.15443 0.0
H1048 H 0.58079 0.89934 0.09524 0.0
H1049 H 0.59142 0.94393 0.06997 0.0
H1050 H 0.49993 0.95127 0.08144 0.0
C1051 C 0.47878 0.85218 0.14184 0.0
C1052 C 0.49298 0.83073 0.15053 0.0
C1053 C 0.523 0.83261 0.14319 0.0
C1054 C 0.53858 0.85506 0.12747 0.0
C1055 C 0.52387 0.87557 0.11896 0.0
C1056 C 0.49465 0.87445 0.12577 0.0
C1057 C 0.48421 0.89933 0.11349 0.0
C1058 C 0.45384 0.88845 0.09103 0.0
C1059 C 0.48007 0.91866 0.13829 0.0
C1060 C 0.5122 0.91458 0.09884 0.0
C1061 C 0.53477 0.90041 0.10253 0.0
C1062 C 0.56323 0.91053 0.09207 0.0
C1063 C 0.56905 0.93594 0.07775 0.0
C1064 C 0.54646 0.951 0.07354 0.0
C1065 C 0.51742 0.93997 0.08396 0.0
H1066 H 0.08495 0.22897 0.64617 0.0
H1067 H 0.17851 0.22467 0.68108 0.0
H1068 H 0.16599 0.17736 0.65576 0.0
H1069 H 0.04566 0.15359 0.65583 0.0
H1070 H 1.01691 0.14909 0.62322 0.0
H1071 H 0.03343 0.18363 0.643 0.0
H1072 H 0.05094 0.20584 0.59577 0.0
H1073 H 0.03474 0.1713 0.57592 0.0
H1074 H 0.07553 0.19126 0.5765 0.0
H1075 H 0.14494 0.13111 0.62417 0.0
H1076 H 0.11378 0.08631 0.59489 0.0
H1077 H 0.03161 0.11648 0.5848 0.0
C1078 C 0.10281 0.21812 0.64884 0.0
C1079 C 0.13332 0.23172 0.66515 0.0
C1080 C 0.15552 0.216 0.66785 0.0
C1081 C 0.14853 0.18869 0.65368 0.0
C1082 C 0.11881 0.17644 0.63725 0.0
C1083 C 0.09598 0.19029 0.6353 0.0
C1084 C 0.06533 0.17141 0.61731 0.0
C1085 C 0.03876 0.16399 0.63596 0.0
C1086 C 0.0561 0.18582 0.58974 0.0
C1087 C 0.07468 0.14502 0.6094 0.0
C1088 C 0.10585 0.14867 0.62077 0.0
C1089 C 0.12038 0.12788 0.6155 0.0
C1090 C 0.10252 0.1025 0.59869 0.0
C1091 C 0.07018 0.09766 0.58772 0.0
C1092 C 0.05621 0.1194 0.59311 0.0
H1093 H 0.69347 0.32229 0.44885 0.0
H1094 H 0.64273 0.23788 0.47218 0.0
H1095 H 0.60358 0.25758 0.48959 0.0
H1096 H 0.6764 0.36421 0.50806 0.0
H1097 H 0.67141 0.39173 0.48442 0.0
H1098 H 0.69806 0.37192 0.47786 0.0
H1099 H 0.66844 0.35769 0.42477 0.0
H1100 H 0.64168 0.37733 0.43119 0.0
H1101 H 0.62655 0.33999 0.41873 0.0
H1102 H 0.56703 0.28525 0.49987 0.0
H1103 H 0.53618 0.31913 0.50263 0.0
H1104 H 0.60909 0.3845 0.46964 0.0
C1105 C 0.67434 0.30795 0.4579 0.0
C1106 C 0.67143 0.27853 0.4593 0.0
C1107 C 0.64602 0.26061 0.47145 0.0
C1108 C 0.62347 0.27156 0.48124 0.0
C1109 C 0.62662 0.30046 0.47876 0.0
C1110 C 0.65148 0.31844 0.46749 0.0
C1111 C 0.64808 0.34812 0.46501 0.0
C1112 C 0.67509 0.3703 0.48504 0.0
C1113 C 0.64606 0.35624 0.43303 0.0
C1114 C 0.61701 0.3438 0.47592 0.0
C1115 C 0.60519 0.31628 0.48409 0.0
C1116 C 0.57615 0.30694 0.49375 0.0
C1117 C 0.55868 0.32625 0.49498 0.0
C1118 C 0.5702 0.35448 0.48636 0.0
C1119 C 0.59987 0.36327 0.47691 0.0
loop_
_geom_bond_atom_site_label_1
_geom_bond_atom_site_label_2
_geom_bond_distance
_geom_bond_site_symmetry_2
_ccdc_geom_bond_type
C0 C1 1.386 . S
C0 C2 1.397 . S
C0 H24 0.931 . S
C1 C0 1.386 . S
C1 C5 1.397 . S
C2 C0 1.397 . S
C2 C3 1.384 . S
C2 H25 0.930 . S
C3 C2 1.384 . S
C3 C4 1.377 . S
C3 C6 1.481 . S
C4 C3 1.377 . S
C4 C5 1.389 . S
C4 H26 0.929 . S
C5 C1 1.397 . S
C5 C4 1.389 . S
C5 H27 0.931 . S
C6 C3 1.481 . S
C6 C7 1.387 . S
C6 C11 1.390 . S
C7 C6 1.387 . S
C7 C8 1.401 . S
C7 H28 0.930 . S
C8 C7 1.401 . S
C8 C9 1.376 . S
C8 C17 1.511 . S
C9 C8 1.376 . S
C9 C10 1.392 . S
C9 H30 0.931 . S
C10 C9 1.392 . S
C10 C11 1.361 . S
C10 C12 1.500 . S
C11 C6 1.390 . S
C11 C10 1.361 . S
C11 H29 0.931 . S
C12 C10 1.500 . S
C12 C13 1.371 . S
C12 C14 1.365 . S
C13 C12 1.371 . S
C13 C23 1.386 . S
C13 H31 0.931 . S
C14 C12 1.365 . S
C14 C15 1.409 . S
C14 H32 0.929 . S
C15 C14 1.409 . S
C15 C16 1.380 . S
C15 H33 0.930 . S
C16 C15 1.380 . S
C16 C23 1.357 . S
C17 C8 1.511 . S
C17 C18 1.341 . S
C17 C19 1.371 . S
C18 C17 1.341 . S
C18 C22 1.394 . S
C18 H34 0.930 . S
C19 C17 1.371 . S
C19 C20 1.392 . S
C19 H35 0.931 . S
C20 C19 1.392 . S
C20 C21 1.331 . S
C20 H38 0.932 . S
C21 C20 1.331 . S
C21 C22 1.336 . S
C22 C18 1.394 . S
C22 C21 1.336 . S
C22 H37 0.929 . S
C23 C13 1.386 . S
C23 C16 1.357 . S
C23 H36 0.928 . S
H24 C0 0.931 . S
H25 C2 0.930 . S
H26 C4 0.929 . S
H27 C5 0.931 . S
H28 C7 0.930 . S
H29 C11 0.931 . S
H30 C9 0.931 . S
H31 C13 0.931 . S
H32 C14 0.929 . S
H33 C15 0.930 . S
H34 C18 0.930 . S
H35 C19 0.931 . S
H36 C23 0.928 . S
H37 C22 0.929 . S
H38 C20 0.932 . S
C39 C40 1.386 . S
C39 C41 1.397 . S
C39 H63 0.931 . S
C40 C39 1.386 . S
C40 C44 1.397 . S
C41 C39 1.397 . S
C41 C42 1.384 . S
C41 H64 0.930 . S
C42 C41 1.384 . S
C42 C43 1.377 . S
C42 C45 1.481 . S
C43 C42 1.377 . S
C43 C44 1.389 . S
C43 H65 0.929 . S
C44 C40 1.397 . S
C44 C43 1.389 . S
C44 H66 0.931 . S
C45 C42 1.481 . S
C45 C46 1.387 . S
C45 C50 1.390 . S
C46 C45 1.387 . S
C46 C47 1.401 . S
C46 H67 0.930 . S
C47 C46 1.401 . S
C47 C48 1.376 . S
C47 C56 1.511 . S
C48 C47 1.376 . S
C48 C49 1.392 . S
C48 H69 0.931 . S
C49 C48 1.392 . S
C49 C50 1.361 . S
C49 C51 1.500 . S
C50 C45 1.390 . S
C50 C49 1.361 . S
C50 H68 0.931 . S
C51 C49 1.500 . S
C51 C52 1.371 . S
C51 C53 1.365 . S
C52 C51 1.371 . S
C52 C62 1.386 . S
C52 H70 0.931 . S
C53 C51 1.365 . S
C53 C54 1.409 . S
C53 H71 0.929 . S
C54 C53 1.409 . S
C54 C55 1.380 . S
C54 H72 0.930 . S
C55 C54 1.380 . S
C55 C62 1.357 . S
C56 C47 1.511 . S
C56 C57 1.341 . S
C56 C58 1.371 . S
C57 C56 1.341 . S
C57 C61 1.394 . S
C57 H73 0.930 . S
C58 C56 1.371 . S
C58 C59 1.392 . S
C58 H74 0.931 . S
C59 C58 1.392 . S
C59 C60 1.331 . S
C59 H77 0.932 . S
C60 C59 1.331 . S
C60 C61 1.336 . S
C61 C57 1.394 . S
C61 C60 1.336 . S
C61 H76 0.929 . S
C62 C52 1.386 . S
C62 C55 1.357 . S
C62 H75 0.928 . S
H63 C39 0.931 . S
H64 C41 0.930 . S
H65 C43 0.929 . S
H66 C44 0.931 . S
H67 C46 0.930 . S
H68 C50 0.931 . S
H69 C48 0.931 . S
H70 C52 0.931 . S
H71 C53 0.929 . S
H72 C54 0.930 . S
H73 C57 0.930 . S
H74 C58 0.931 . S
H75 C62 0.928 . S
H76 C61 0.929 . S
H77 C59 0.932 . S
C78 C79 1.386 . S
C78 C80 1.397 . S
C78 H102 0.931 . S
C79 C78 1.386 . S
C79 C83 1.397 . S
C80 C78 1.397 . S
C80 C81 1.384 . S
C80 H103 0.930 . S
C81 C80 1.384 . S
C81 C82 1.377 . S
C81 C84 1.481 . S
C82 C81 1.377 . S
C82 C83 1.389 . S
C82 H104 0.929 . S
C83 C79 1.397 . S
C83 C82 1.389 . S
C83 H105 0.931 . S
C84 C81 1.481 . S
C84 C85 1.387 . S
C84 C89 1.390 . S
C85 C84 1.387 . S
C85 C86 1.401 . S
C85 H106 0.930 . S
C86 C85 1.401 . S
C86 C87 1.376 . S
C86 C95 1.511 . S
C87 C86 1.376 . S
C87 C88 1.392 . S
C87 H108 0.931 . S
C88 C87 1.392 . S
C88 C89 1.361 . S
C88 C90 1.500 . S
C89 C84 1.390 . S
C89 C88 1.361 . S
C89 H107 0.931 . S
C90 C88 1.500 . S
C90 C91 1.371 . S
C90 C92 1.365 . S
C91 C90 1.371 . S
C91 C101 1.386 . S
C91 H109 0.931 . S
C92 C90 1.365 . S
C92 C93 1.409 . S
C92 H110 0.929 . S
C93 C92 1.409 . S
C93 C94 1.380 . S
C93 H111 0.930 . S
C94 C93 1.380 . S
C94 C101 1.357 . S
C95 C86 1.511 . S
C95 C96 1.341 . S
C95 C97 1.371 . S
C96 C95 1.341 . S
C96 C100 1.394 . S
C96 H112 0.930 . S
C97 C95 1.371 . S
C97 C98 1.392 . S
C97 H113 0.931 . S
C98 C97 1.392 . S
C98 C99 1.331 . S
C98 H116 0.932 . S
C99 C98 1.331 . S
C99 C100 1.336 . S
C100 C96 1.394 . S
C100 C99 1.336 . S
C100 H115 0.929 . S
C101 C91 1.386 . S
C101 C94 1.357 . S
C101 H114 0.928 . S
H102 C78 0.931 . S
H103 C80 0.930 . S
H104 C82 0.929 . S
H105 C83 0.931 . S
H106 C85 0.930 . S
H107 C89 0.931 . S
H108 C87 0.931 . S
H109 C91 0.931 . S
H110 C92 0.929 . S
H111 C93 0.930 . S
H112 C96 0.930 . S
H113 C97 0.931 . S
H114 C101 0.928 . S
H115 C100 0.929 . S
H116 C98 0.932 . S
C117 C118 1.386 . S
C117 C119 1.397 . S
C117 H141 0.931 . S
C118 C117 1.386 . S
C118 C122 1.397 . S
C119 C117 1.397 . S
C119 C120 1.384 . S
C119 H142 0.930 . S
C120 C119 1.384 . S
C120 C121 1.377 . S
C120 C123 1.481 . S
C121 C120 1.377 . S
C121 C122 1.389 . S
C121 H143 0.929 . S
C122 C118 1.397 . S
C122 C121 1.389 . S
C122 H144 0.931 . S
C123 C120 1.481 . S
C123 C124 1.387 . S
C123 C128 1.390 . S
C124 C123 1.387 . S
C124 C125 1.401 . S
C124 H145 0.930 . S
C125 C124 1.401 . S
C125 C126 1.376 . S
C125 C134 1.511 . S
C126 C125 1.376 . S
C126 C127 1.392 . S
C126 H147 0.931 . S
C127 C126 1.392 . S
C127 C128 1.361 . S
C127 C129 1.500 . S
C128 C123 1.390 . S
C128 C127 1.361 . S
C128 H146 0.931 . S
C129 C127 1.500 . S
C129 C130 1.371 . S
C129 C131 1.365 . S
C130 C129 1.371 . S
C130 C140 1.386 . S
C130 H148 0.931 . S
C131 C129 1.365 . S
C131 C132 1.409 . S
C131 H149 0.929 . S
C132 C131 1.409 . S
C132 C133 1.380 . S
C132 H150 0.930 . S
C133 C132 1.380 . S
C133 C140 1.357 . S
C134 C125 1.511 . S
C134 C135 1.341 . S
C134 C136 1.371 . S
C135 C134 1.341 . S
C135 C139 1.394 . S
C135 H151 0.930 . S
C136 C134 1.371 . S
C136 C137 1.392 . S
C136 H152 0.931 . S
C137 C136 1.392 . S
C137 C138 1.331 . S
C137 H155 0.932 . S
C138 C137 1.331 . S
C138 C139 1.336 . S
C139 C135 1.394 . S
C139 C138 1.336 . S
C139 H154 0.929 . S
C140 C130 1.386 . S
C140 C133 1.357 . S
C140 H153 0.928 . S
H141 C117 0.931 . S
H142 C119 0.930 . S
H143 C121 0.929 . S
H144 C122 0.931 . S
H145 C124 0.930 . S
H146 C128 0.931 . S
H147 C126 0.931 . S
H148 C130 0.931 . S
H149 C131 0.929 . S
H150 C132 0.930 . S
H151 C135 0.930 . S
H152 C136 0.931 . S
H153 C140 0.928 . S
H154 C139 0.929 . S
H155 C137 0.932 . S
C156 C157 1.386 . S
C156 C158 1.397 . S
C156 H180 0.931 . S
C157 C156 1.386 . S
C157 C161 1.397 . S
C158 C156 1.397 . S
C158 C159 1.384 . S
C158 H181 0.930 . S
C159 C158 1.384 . S
C159 C160 1.377 . S
C159 C162 1.481 . S
C160 C159 1.377 . S
C160 C161 1.389 . S
C160 H182 0.929 . S
C161 C157 1.397 . S
C161 C160 1.389 . S
C161 H183 0.931 . S
C162 C159 1.481 . S
C162 C163 1.387 . S
C162 C167 1.390 . S
C163 C162 1.387 . S
C163 C164 1.401 . S
C163 H184 0.930 . S
C164 C163 1.401 . S
C164 C165 1.376 . S
C164 C173 1.511 . S
C165 C164 1.376 . S
C165 C166 1.392 . S
C165 H186 0.931 . S
C166 C165 1.392 . S
C166 C167 1.361 . S
C166 C168 1.500 . S
C167 C162 1.390 . S
C167 C166 1.361 . S
C167 H185 0.931 . S
C168 C166 1.500 . S
C168 C169 1.371 . S
C168 C170 1.365 . S
C169 C168 1.371 . S
C169 C179 1.386 . S
C169 H187 0.931 . S
C170 C168 1.365 . S
C170 C171 1.409 . S
C170 H188 0.929 . S
C171 C170 1.409 . S
C171 C172 1.380 . S
C171 H189 0.930 . S
C172 C171 1.380 . S
C172 C179 1.357 . S
C173 C164 1.511 . S
C173 C174 1.341 . S
C173 C175 1.371 . S
C174 C173 1.341 . S
C174 C178 1.394 . S
C174 H190 0.930 . S
C175 C173 1.371 . S
C175 C176 1.392 . S
C175 H191 0.931 . S
C176 C175 1.392 . S
C176 C177 1.331 . S
C176 H194 0.932 . S
C177 C176 1.331 . S
C177 C178 1.336 . S
C178 C174 1.394 . S
C178 C177 1.336 . S
C178 H193 0.929 . S
C179 C169 1.386 . S
C179 C172 1.357 . S
C179 H192 0.928 . S
H180 C156 0.931 . S
H181 C158 0.930 . S
H182 C160 0.929 . S
H183 C161 0.931 . S
H184 C163 0.930 . S
H185 C167 0.931 . S
H186 C165 0.931 . S
H187 C169 0.931 . S
H188 C170 0.929 . S
H189 C171 0.930 . S
H190 C174 0.930 . S
H191 C175 0.931 . S
H192 C179 0.928 . S
H193 C178 0.929 . S
H194 C176 0.932 . S
C195 C196 1.386 . S
C195 C197 1.397 . S
C195 H219 0.931 . S
C196 C195 1.386 . S
C196 C200 1.397 . S
C197 C195 1.397 . S
C197 C198 1.384 . S
C197 H220 0.930 . S
C198 C197 1.384 . S
C198 C199 1.377 . S
C198 C201 1.481 . S
C199 C198 1.377 . S
C199 C200 1.389 . S
C199 H221 0.929 . S
C200 C196 1.397 . S
C200 C199 1.389 . S
C200 H222 0.931 . S
C201 C198 1.481 . S
C201 C202 1.387 . S
C201 C206 1.390 . S
C202 C201 1.387 . S
C202 C203 1.401 . S
C202 H223 0.930 . S
C203 C202 1.401 . S
C203 C204 1.376 . S
C203 C212 1.511 . S
C204 C203 1.376 . S
C204 C205 1.392 . S
C204 H225 0.931 . S
C205 C204 1.392 . S
C205 C206 1.361 . S
C205 C207 1.500 . S
C206 C201 1.390 . S
C206 C205 1.361 . S
C206 H224 0.931 . S
C207 C205 1.500 . S
C207 C208 1.371 . S
C207 C209 1.365 . S
C208 C207 1.371 . S
C208 C218 1.386 . S
C208 H226 0.931 . S
C209 C207 1.365 . S
C209 C210 1.409 . S
C209 H227 0.929 . S
C210 C209 1.409 . S
C210 C211 1.380 . S
C210 H228 0.930 . S
C211 C210 1.380 . S
C211 C218 1.357 . S
C212 C203 1.511 . S
C212 C213 1.341 . S
C212 C214 1.371 . S
C213 C212 1.341 . S
C213 C217 1.394 . S
C213 H229 0.930 . S
C214 C212 1.371 . S
C214 C215 1.392 . S
C214 H230 0.931 . S
C215 C214 1.392 . S
C215 C216 1.331 . S
C215 H233 0.932 . S
C216 C215 1.331 . S
C216 C217 1.336 . S
C217 C213 1.394 . S
C217 C216 1.336 . S
C217 H232 0.929 . S
C218 C208 1.386 . S
C218 C211 1.357 . S
C218 H231 0.928 . S
H219 C195 0.931 . S
H220 C197 0.930 . S
H221 C199 0.929 . S
H222 C200 0.931 . S
H223 C202 0.930 . S
H224 C206 0.931 . S
H225 C204 0.931 . S
H226 C208 0.931 . S
H227 C209 0.929 . S
H228 C210 0.930 . S
H229 C213 0.930 . S
H230 C214 0.931 . S
H231 C218 0.928 . S
H232 C217 0.929 . S
H233 C215 0.932 . S
C234 C235 1.386 . S
C234 C236 1.397 . S
C234 H258 0.931 . S
C235 C234 1.386 . S
C235 C239 1.397 . S
C236 C234 1.397 . S
C236 C237 1.384 . S
C236 H259 0.930 . S
C237 C236 1.384 . S
C237 C238 1.377 . S
C237 C240 1.481 . S
C238 C237 1.377 . S
C238 C239 1.389 . S
C238 H260 0.929 . S
C239 C235 1.397 . S
C239 C238 1.389 . S
C239 H261 0.931 . S
C240 C237 1.481 . S
C240 C241 1.387 . S
C240 C245 1.390 . S
C241 C240 1.387 . S
C241 C242 1.401 . S
C241 H262 0.930 . S
C242 C241 1.401 . S
C242 C243 1.376 . S
C242 C251 1.511 . S
C243 C242 1.376 . S
C243 C244 1.392 . S
C243 H264 0.931 . S
C244 C243 1.392 . S
C244 C245 1.361 . S
C244 C246 1.500 . S
C245 C240 1.390 . S
C245 C244 1.361 . S
C245 H263 0.931 . S
C246 C244 1.500 . S
C246 C247 1.371 . S
C246 C248 1.365 . S
C247 C246 1.371 . S
C247 C257 1.386 . S
C247 H265 0.931 . S
C248 C246 1.365 . S
C248 C249 1.409 . S
C248 H266 0.929 . S
C249 C248 1.409 . S
C249 C250 1.380 . S
C249 H267 0.930 . S
C250 C249 1.380 . S
C250 C257 1.357 . S
C251 C242 1.511 . S
C251 C252 1.341 . S
C251 C253 1.371 . S
C252 C251 1.341 . S
C252 C256 1.394 . S
C252 H268 0.930 . S
C253 C251 1.371 . S
C253 C254 1.392 . S
C253 H269 0.931 . S
C254 C253 1.392 . S
C254 C255 1.331 . S
C254 H272 0.932 . S
C255 C254 1.331 . S
C255 C256 1.336 . S
C256 C252 1.394 . S
C256 C255 1.336 . S
C256 H271 0.929 . S
C257 C247 1.386 . S
C257 C250 1.357 . S
C257 H270 0.928 . S
H258 C234 0.931 . S
H259 C236 0.930 . S
H260 C238 0.929 . S
H261 C239 0.931 . S
H262 C241 0.930 . S
H263 C245 0.931 . S
H264 C243 0.931 . S
H265 C247 0.931 . S
H266 C248 0.929 . S
H267 C249 0.930 . S
H268 C252 0.930 . S
H269 C253 0.931 . S
H270 C257 0.928 . S
H271 C256 0.929 . S
H272 C254 0.932 . S
C273 C274 1.386 . S
C273 C275 1.397 . S
C273 H297 0.931 . S
C274 C273 1.386 . S
C274 C278 1.397 . S
C275 C273 1.397 . S
C275 C276 1.384 . S
C275 H298 0.930 . S
C276 C275 1.384 . S
C276 C277 1.377 . S
C276 C279 1.481 . S
C277 C276 1.377 . S
C277 C278 1.389 . S
C277 H299 0.929 . S
C278 C274 1.397 . S
C278 C277 1.389 . S
C278 H300 0.931 . S
C279 C276 1.481 . S
C279 C280 1.387 . S
C279 C284 1.390 . S
C280 C279 1.387 . S
C280 C281 1.401 . S
C280 H301 0.930 . S
C281 C280 1.401 . S
C281 C282 1.376 . S
C281 C290 1.511 . S
C282 C281 1.376 . S
C282 C283 1.392 . S
C282 H303 0.931 . S
C283 C282 1.392 . S
C283 C284 1.361 . S
C283 C285 1.500 . S
C284 C279 1.390 . S
C284 C283 1.361 . S
C284 H302 0.931 . S
C285 C283 1.500 . S
C285 C286 1.371 . S
C285 C287 1.365 . S
C286 C285 1.371 . S
C286 C296 1.386 . S
C286 H304 0.931 . S
C287 C285 1.365 . S
C287 C288 1.409 . S
C287 H305 0.929 . S
C288 C287 1.409 . S
C288 C289 1.380 . S
C288 H306 0.930 . S
C289 C288 1.380 . S
C289 C296 1.357 . S
C290 C281 1.511 . S
C290 C291 1.341 . S
C290 C292 1.371 . S
C291 C290 1.341 . S
C291 C295 1.394 . S
C291 H307 0.930 . S
C292 C290 1.371 . S
C292 C293 1.392 . S
C292 H308 0.931 . S
C293 C292 1.392 . S
C293 C294 1.331 . S
C293 H311 0.932 . S
C294 C293 1.331 . S
C294 C295 1.336 . S
C295 C291 1.394 . S
C295 C294 1.336 . S
C295 H310 0.929 . S
C296 C286 1.386 . S
C296 C289 1.357 . S
C296 H309 0.928 . S
H297 C273 0.931 . S
H298 C275 0.930 . S
H299 C277 0.929 . S
H300 C278 0.931 . S
H301 C280 0.930 . S
H302 C284 0.931 . S
H303 C282 0.931 . S
H304 C286 0.931 . S
H305 C287 0.929 . S
H306 C288 0.930 . S
H307 C291 0.930 . S
H308 C292 0.931 . S
H309 C296 0.928 . S
H310 C295 0.929 . S
H311 C293 0.932 . S
Pr312 C314 2.880 . S
Pr312 O332 2.562 . S
Pr312 O333 2.490 . S
Pr312 O334 2.695 1_665 S
Pr312 O335 2.512 1_665 S
Pr312 O337 2.437 1_655 S
Pr312 O340 2.436 . S
Pr312 O342 2.438 1_565 S
Pr313 C323 2.880 . S
Pr313 O334 2.436 . S
Pr313 O336 2.438 1_545 S
Pr313 O338 2.562 . S
Pr313 O339 2.490 . S
Pr313 O340 2.695 1_445 S
Pr313 O341 2.522 1_545 S
Pr313 O343 2.437 1_455 S
C314 Pr312 2.880 . S
C314 C315 1.491 . S
C314 O332 1.254 . S
C314 O333 1.225 . S
C315 C314 1.491 . S
C315 C316 1.392 . S
C315 C320 1.356 . S
C316 C315 1.392 . S
C316 C317 1.368 . S
C316 H344 0.929 . S
C317 C316 1.368 . S
C317 C318 1.386 . S
C317 H345 0.929 . S
C318 C317 1.386 . S
C318 C319 1.373 . S
C319 C318 1.373 . S
C319 C320 1.409 . S
C319 H346 0.931 . S
C320 C315 1.356 . S
C320 C319 1.409 . S
C320 H347 0.930 . S
C321 O334 1.270 . S
C321 O335 1.248 . S
C322 O336 1.267 . S
C322 O337 1.278 . S
C323 Pr313 2.880 . S
C323 C324 1.491 . S
C323 O338 1.254 . S
C323 O339 1.225 . S
C324 C323 1.491 . S
C324 C325 1.392 . S
C324 C329 1.356 . S
C325 C324 1.392 . S
C325 C326 1.368 . S
C325 H348 0.929 . S
C326 C325 1.368 . S
C326 C327 1.386 . S
C326 H349 0.929 . S
C327 C326 1.386 . S
C327 C328 1.373 . S
C328 C327 1.373 . S
C328 C329 1.409 . S
C328 H350 0.931 . S
C329 C324 1.356 . S
C329 C328 1.409 . S
C329 H351 0.930 . S
C330 O340 1.270 . S
C330 O341 1.223 1_655 S
C331 O342 1.267 . S
C331 O343 1.278 . S
O332 Pr312 2.562 . S
O332 C314 1.254 . S
O333 Pr312 2.490 . S
O333 C314 1.225 . S
O334 Pr312 2.695 1_445 S
O334 Pr313 2.436 . S
O334 C321 1.270 . S
O335 Pr312 2.512 1_445 S
O335 C321 1.248 . S
O336 Pr313 2.438 1_565 S
O336 C322 1.267 . S
O337 Pr312 2.437 1_455 S
O337 C322 1.278 . S
O338 Pr313 2.562 . S
O338 C323 1.254 . S
O339 Pr313 2.490 . S
O339 C323 1.225 . S
O340 Pr312 2.436 . S
O340 Pr313 2.695 1_665 S
O340 C330 1.270 . S
O341 Pr313 2.522 1_565 S
O341 C330 1.223 1_455 S
O342 Pr312 2.438 1_545 S
O342 C331 1.267 . S
O343 Pr313 2.437 1_655 S
O343 C331 1.278 . S
H344 C316 0.929 . S
H345 C317 0.929 . S
H346 C319 0.931 . S
H347 C320 0.930 . S
H348 C325 0.929 . S
H349 C326 0.929 . S
H350 C328 0.931 . S
H351 C329 0.930 . S
Pr352 C354 2.881 . S
Pr352 O372 2.563 . S
Pr352 O373 2.490 . S
Pr352 O374 2.694 1_554 S
Pr352 O375 2.512 1_554 S
Pr352 O377 2.437 . S
Pr352 O380 2.436 1_545 S
Pr352 O382 2.437 1_544 S
Pr353 C363 2.864 1_554 S
Pr353 O374 2.427 1_564 S
Pr353 O376 2.454 1_565 S
Pr353 O378 2.541 1_554 S
Pr353 O379 2.482 1_554 S
Pr353 O380 2.709 . S
Pr353 O381 2.528 . S
Pr353 O383 2.427 1_554 S
C354 Pr352 2.881 . S
C354 C355 1.491 . S
C354 O372 1.254 . S
C354 O373 1.225 . S
C355 C354 1.491 . S
C355 C356 1.392 . S
C355 C360 1.356 . S
C356 C355 1.392 . S
C356 C357 1.368 . S
C356 H384 0.929 . S
C357 C356 1.368 . S
C357 C358 1.386 . S
C357 H385 0.929 . S
C358 C357 1.386 . S
C358 C359 1.373 . S
C359 C358 1.373 . S
C359 C360 1.409 . S
C359 H386 0.931 . S
C360 C355 1.356 . S
C360 C359 1.409 . S
C360 H387 0.930 . S
C361 O374 1.270 . S
C361 O375 1.248 . S
C362 O376 1.267 . S
C362 O377 1.278 . S
C363 Pr353 2.864 1_556 S
C363 C364 1.491 . S
C363 O378 1.254 . S
C363 O379 1.225 . S
C364 C363 1.491 . S
C364 C365 1.392 . S
C364 C369 1.356 . S
C365 C364 1.392 . S
C365 C366 1.368 . S
C365 H388 0.929 . S
C366 C365 1.368 . S
C366 C367 1.386 . S
C366 H389 0.929 . S
C367 C366 1.386 . S
C367 C368 1.373 . S
C368 C367 1.373 . S
C368 C369 1.409 . S
C368 H390 0.931 . S
C369 C364 1.356 . S
C369 C368 1.409 . S
C369 H391 0.930 . S
C370 O380 1.270 . S
C370 O381 1.248 . S
C371 O382 1.267 . S
C371 O383 1.278 . S
O372 Pr352 2.563 . S
O372 C354 1.254 . S
O373 Pr352 2.490 . S
O373 C354 1.225 . S
O374 Pr352 2.694 1_556 S
O374 Pr353 2.427 1_546 S
O374 C361 1.270 . S
O375 Pr352 2.512 1_556 S
O375 C361 1.248 . S
O376 Pr353 2.454 1_545 S
O376 C362 1.267 . S
O377 Pr352 2.437 . S
O377 C362 1.278 . S
O378 Pr353 2.541 1_556 S
O378 C363 1.254 . S
O379 Pr353 2.482 1_556 S
O379 C363 1.225 . S
O380 Pr352 2.436 1_565 S
O380 Pr353 2.709 . S
O380 C370 1.270 . S
O381 Pr353 2.528 . S
O381 C370 1.248 . S
O382 Pr352 2.437 1_566 S
O382 C371 1.267 . S
O383 Pr353 2.427 1_556 S
O383 C371 1.278 . S
H384 C356 0.929 . S
H385 C357 0.929 . S
H386 C359 0.931 . S
H387 C360 0.930 . S
H388 C365 0.929 . S
H389 C366 0.929 . S
H390 C368 0.931 . S
H391 C369 0.930 . S
Pr392 C394 2.880 . S
Pr392 O412 2.562 . S
Pr392 O413 2.490 . S
Pr392 O414 2.695 . S
Pr392 O415 2.512 . S
Pr392 O417 2.437 . S
Pr392 O420 2.436 . S
Pr392 O422 2.438 . S
Pr393 C403 2.880 . S
Pr393 O414 2.436 . S
Pr393 O416 2.438 . S
Pr393 O418 2.562 . S
Pr393 O419 2.490 . S
Pr393 O420 2.695 . S
Pr393 O421 2.512 . S
Pr393 O423 2.437 . S
C394 Pr392 2.880 . S
C394 C395 1.491 . S
C394 O412 1.254 . S
C394 O413 1.225 . S
C395 C394 1.491 . S
C395 C396 1.392 . S
C395 C400 1.356 . S
C396 C395 1.392 . S
C396 C397 1.368 . S
C396 H424 0.929 . S
C397 C396 1.368 . S
C397 C398 1.386 . S
C397 H425 0.929 . S
C398 C397 1.386 . S
C398 C399 1.373 . S
C399 C398 1.373 . S
C399 C400 1.409 . S
C399 H426 0.931 . S
C400 C395 1.356 . S
C400 C399 1.409 . S
C400 H427 0.930 . S
C401 O414 1.270 . S
C401 O415 1.248 . S
C402 O416 1.267 . S
C402 O417 1.278 . S
C403 Pr393 2.880 . S
C403 C404 1.491 . S
C403 O418 1.254 . S
C403 O419 1.225 . S
C404 C403 1.491 . S
C404 C405 1.392 . S
C404 C409 1.356 . S
C405 C404 1.392 . S
C405 C406 1.368 . S
C405 H428 0.929 . S
C406 C405 1.368 . S
C406 C407 1.386 . S
C406 H429 0.929 . S
C407 C406 1.386 . S
C407 C408 1.373 . S
C408 C407 1.373 . S
C408 C409 1.409 . S
C408 H430 0.931 . S
C409 C404 1.356 . S
C409 C408 1.409 . S
C409 H431 0.930 . S
C410 O420 1.270 . S
C410 O421 1.248 . S
C411 O422 1.267 . S
C411 O423 1.278 . S
O412 Pr392 2.562 . S
O412 C394 1.254 . S
O413 Pr392 2.490 . S
O413 C394 1.225 . S
O414 Pr392 2.695 . S
O414 Pr393 2.436 . S
O414 C401 1.270 . S
O415 Pr392 2.512 . S
O415 C401 1.248 . S
O416 Pr393 2.438 . S
O416 C402 1.267 . S
O417 Pr392 2.437 . S
O417 C402 1.278 . S
O418 Pr393 2.562 . S
O418 C403 1.254 . S
O419 Pr393 2.490 . S
O419 C403 1.225 . S
O420 Pr392 2.436 . S
O420 Pr393 2.695 . S
O420 C410 1.270 . S
O421 Pr393 2.512 . S
O421 C410 1.248 . S
O422 Pr392 2.438 . S
O422 C411 1.267 . S
O423 Pr393 2.437 . S
O423 C411 1.278 . S
H424 C396 0.929 . S
H425 C397 0.929 . S
H426 C399 0.931 . S
H427 C400 0.930 . S
H428 C405 0.929 . S
H429 C406 0.929 . S
H430 C408 0.931 . S
H431 C409 0.930 . S
Pr432 C434 2.905 . S
Pr432 O452 2.594 . S
Pr432 O453 2.504 . S
Pr432 O454 2.678 1_656 S
Pr432 O455 2.494 1_656 S
Pr432 O457 2.455 1_556 S
Pr432 O460 2.448 . S
Pr432 O462 2.412 1_655 S
Pr433 C443 2.880 . S
Pr433 O454 2.436 . S
Pr433 O456 2.438 1_455 S
Pr433 O458 2.562 . S
Pr433 O459 2.490 . S
Pr433 O460 2.695 1_454 S
Pr433 O461 2.512 1_454 S
Pr433 O463 2.437 1_554 S
C434 Pr432 2.905 . S
C434 C435 1.491 . S
C434 O452 1.254 . S
C434 O453 1.225 . S
C435 C434 1.491 . S
C435 C436 1.392 . S
C435 C440 1.356 . S
C436 C435 1.392 . S
C436 C437 1.368 . S
C436 H464 0.929 . S
C437 C436 1.368 . S
C437 C438 1.386 . S
C437 H465 0.929 . S
C438 C437 1.386 . S
C438 C439 1.373 . S
C439 C438 1.373 . S
C439 C440 1.409 . S
C439 H466 0.931 . S
C440 C435 1.356 . S
C440 C439 1.409 . S
C440 H467 0.930 . S
C441 O454 1.270 . S
C441 O455 1.248 . S
C442 O456 1.267 . S
C442 O457 1.278 . S
C443 Pr433 2.880 . S
C443 C444 1.491 . S
C443 O458 1.254 . S
C443 O459 1.225 . S
C444 C443 1.491 . S
C444 C445 1.392 . S
C444 C449 1.356 . S
C445 C444 1.392 . S
C445 C446 1.368 . S
C445 H468 0.929 . S
C446 C445 1.368 . S
C446 C447 1.386 . S
C446 H469 0.929 . S
C447 C446 1.386 . S
C447 C448 1.373 . S
C448 C447 1.373 . S
C448 C449 1.409 . S
C448 H470 0.931 . S
C449 C444 1.356 . S
C449 C448 1.409 . S
C449 H471 0.930 . S
C450 O460 1.270 . S
C450 O461 1.248 . S
C451 O462 1.267 . S
C451 O463 1.278 . S
O452 Pr432 2.594 . S
O452 C434 1.254 . S
O453 Pr432 2.504 . S
O453 C434 1.225 . S
O454 Pr432 2.678 1_454 S
O454 Pr433 2.436 . S
O454 C441 1.270 . S
O455 Pr432 2.494 1_454 S
O455 C441 1.248 . S
O456 Pr433 2.438 1_655 S
O456 C442 1.267 . S
O457 Pr432 2.455 1_554 S
O457 C442 1.278 . S
O458 Pr433 2.562 . S
O458 C443 1.254 . S
O459 Pr433 2.490 . S
O459 C443 1.225 . S
O460 Pr432 2.448 . S
O460 Pr433 2.695 1_656 S
O460 C450 1.270 . S
O461 Pr433 2.512 1_656 S
O461 C450 1.248 . S
O462 Pr432 2.412 1_455 S
O462 C451 1.267 . S
O463 Pr433 2.437 1_556 S
O463 C451 1.278 . S
H464 C436 0.929 . S
H465 C437 0.929 . S
H466 C439 0.931 . S
H467 C440 0.930 . S
H468 C445 0.929 . S
H469 C446 0.929 . S
H470 C448 0.931 . S
H471 C449 0.930 . S
H472 C484 0.930 . S
H473 C486 0.930 . S
H474 C487 0.930 . S
H475 C491 0.959 . S
H476 C491 0.959 . S
H477 C491 0.961 . S
H478 C492 0.960 . S
H479 C492 0.961 . S
H480 C492 0.959 . S
H481 C495 0.929 . S
H482 C496 0.931 . S
H483 C498 0.930 . S
C484 H472 0.930 . S
C484 C485 1.399 . S
C484 C489 1.399 . S
C485 C484 1.399 . S
C485 C486 1.376 . S
C486 H473 0.930 . S
C486 C485 1.376 . S
C486 C487 1.388 . S
C487 H474 0.930 . S
C487 C486 1.388 . S
C487 C488 1.390 . S
C488 C487 1.390 . S
C488 C489 1.394 . S
C488 C494 1.465 . S
C489 C484 1.399 . S
C489 C488 1.394 . S
C489 C490 1.516 . S
C490 C489 1.516 . S
C490 C491 1.502 . S
C490 C492 1.561 . S
C490 C493 1.526 . S
C491 H475 0.959 . S
C491 H476 0.959 . S
C491 H477 0.961 . S
C491 C490 1.502 . S
C492 H478 0.960 . S
C492 H479 0.961 . S
C492 H480 0.959 . S
C492 C490 1.561 . S
C493 C490 1.526 . S
C493 C494 1.396 . S
C493 C498 1.390 . S
C494 C488 1.465 . S
C494 C493 1.396 . S
C494 C495 1.399 . S
C495 H481 0.929 . S
C495 C494 1.399 . S
C495 C496 1.385 . S
C496 H482 0.931 . S
C496 C495 1.385 . S
C496 C497 1.389 . S
C497 C496 1.389 . S
C497 C498 1.387 . S
C498 H483 0.930 . S
C498 C493 1.390 . S
C498 C497 1.387 . S
H499 C511 0.930 . S
H500 C513 0.930 . S
H501 C514 0.930 . S
H502 C518 0.959 . S
H503 C518 0.959 . S
H504 C518 0.961 . S
H505 C519 0.960 . S
H506 C519 0.961 . S
H507 C519 0.959 . S
H508 C522 0.929 . S
H509 C523 0.931 . S
H510 C525 0.930 . S
C511 H499 0.930 . S
C511 C512 1.399 . S
C511 C516 1.399 . S
C512 C511 1.399 . S
C512 C513 1.376 . S
C513 H500 0.930 . S
C513 C512 1.376 . S
C513 C514 1.388 . S
C514 H501 0.930 . S
C514 C513 1.388 . S
C514 C515 1.390 . S
C515 C514 1.390 . S
C515 C516 1.394 . S
C515 C521 1.465 . S
C516 C511 1.399 . S
C516 C515 1.394 . S
C516 C517 1.516 . S
C517 C516 1.516 . S
C517 C518 1.502 . S
C517 C519 1.561 . S
C517 C520 1.526 . S
C518 H502 0.959 . S
C518 H503 0.959 . S
C518 H504 0.961 . S
C518 C517 1.502 . S
C519 H505 0.960 . S
C519 H506 0.961 . S
C519 H507 0.959 . S
C519 C517 1.561 . S
C520 C517 1.526 . S
C520 C521 1.396 . S
C520 C525 1.390 . S
C521 C515 1.465 . S
C521 C520 1.396 . S
C521 C522 1.399 . S
C522 H508 0.929 . S
C522 C521 1.399 . S
C522 C523 1.385 . S
C523 H509 0.931 . S
C523 C522 1.385 . S
C523 C524 1.389 . S
C524 C523 1.389 . S
C524 C525 1.387 . S
C525 H510 0.930 . S
C525 C520 1.390 . S
C525 C524 1.387 . S
H526 C538 0.930 . S
H527 C540 0.930 . S
H528 C541 0.930 . S
H529 C545 0.959 . S
H530 C545 0.959 . S
H531 C545 0.961 . S
H532 C546 0.960 . S
H533 C546 0.961 . S
H534 C546 0.959 . S
H535 C549 0.929 . S
H536 C550 0.931 . S
H537 C552 0.930 . S
C538 H526 0.930 . S
C538 C539 1.399 . S
C538 C543 1.399 . S
C539 C538 1.399 . S
C539 C540 1.376 . S
C540 H527 0.930 . S
C540 C539 1.376 . S
C540 C541 1.388 . S
C541 H528 0.930 . S
C541 C540 1.388 . S
C541 C542 1.390 . S
C542 C541 1.390 . S
C542 C543 1.394 . S
C542 C548 1.465 . S
C543 C538 1.399 . S
C543 C542 1.394 . S
C543 C544 1.516 . S
C544 C543 1.516 . S
C544 C545 1.502 . S
C544 C546 1.561 . S
C544 C547 1.526 . S
C545 H529 0.959 . S
C545 H530 0.959 . S
C545 H531 0.961 . S
C545 C544 1.502 . S
C546 H532 0.960 . S
C546 H533 0.961 . S
C546 H534 0.959 . S
C546 C544 1.561 . S
C547 C544 1.526 . S
C547 C548 1.396 . S
C547 C552 1.390 . S
C548 C542 1.465 . S
C548 C547 1.396 . S
C548 C549 1.399 . S
C549 H535 0.929 . S
C549 C548 1.399 . S
C549 C550 1.385 . S
C550 H536 0.931 . S
C550 C549 1.385 . S
C550 C551 1.389 . S
C551 C550 1.389 . S
C551 C552 1.387 . S
C552 H537 0.930 . S
C552 C547 1.390 . S
C552 C551 1.387 . S
H553 C565 0.930 . S
H554 C567 0.930 . S
H555 C568 0.930 . S
H556 C572 0.959 . S
H557 C572 0.959 . S
H558 C572 0.961 . S
H559 C573 0.960 . S
H560 C573 0.961 . S
H561 C573 0.959 . S
H562 C576 0.929 . S
H563 C577 0.931 . S
H564 C579 0.930 . S
C565 H553 0.930 . S
C565 C566 1.399 . S
C565 C570 1.399 . S
C566 C565 1.399 . S
C566 C567 1.376 . S
C567 H554 0.930 . S
C567 C566 1.376 . S
C567 C568 1.388 . S
C568 H555 0.930 . S
C568 C567 1.388 . S
C568 C569 1.390 . S
C569 C568 1.390 . S
C569 C570 1.394 . S
C569 C575 1.465 . S
C570 C565 1.399 . S
C570 C569 1.394 . S
C570 C571 1.516 . S
C571 C570 1.516 . S
C571 C572 1.502 . S
C571 C573 1.561 . S
C571 C574 1.526 . S
C572 H556 0.959 . S
C572 H557 0.959 . S
C572 H558 0.961 . S
C572 C571 1.502 . S
C573 H559 0.960 . S
C573 H560 0.961 . S
C573 H561 0.959 . S
C573 C571 1.561 . S
C574 C571 1.526 . S
C574 C575 1.396 . S
C574 C579 1.390 . S
C575 C569 1.465 . S
C575 C574 1.396 . S
C575 C576 1.399 . S
C576 H562 0.929 . S
C576 C575 1.399 . S
C576 C577 1.385 . S
C577 H563 0.931 . S
C577 C576 1.385 . S
C577 C578 1.389 . S
C578 C577 1.389 . S
C578 C579 1.387 . S
C579 H564 0.930 . S
C579 C574 1.390 . S
C579 C578 1.387 . S
H580 C592 0.930 . S
H581 C594 0.930 . S
H582 C595 0.930 . S
H583 C599 0.959 . S
H584 C599 0.959 . S
H585 C599 0.961 . S
H586 C600 0.960 . S
H587 C600 0.961 . S
H588 C600 0.959 . S
H589 C603 0.929 . S
H590 C604 0.931 . S
H591 C606 0.930 . S
C592 H580 0.930 . S
C592 C593 1.399 . S
C592 C597 1.399 . S
C593 C592 1.399 . S
C593 C594 1.376 . S
C594 H581 0.930 . S
C594 C593 1.376 . S
C594 C595 1.388 . S
C595 H582 0.930 . S
C595 C594 1.388 . S
C595 C596 1.390 . S
C596 C595 1.390 . S
C596 C597 1.394 . S
C596 C602 1.465 . S
C597 C592 1.399 . S
C597 C596 1.394 . S
C597 C598 1.516 . S
C598 C597 1.516 . S
C598 C599 1.502 . S
C598 C600 1.561 . S
C598 C601 1.526 . S
C599 H583 0.959 . S
C599 H584 0.959 . S
C599 H585 0.961 . S
C599 C598 1.502 . S
C600 H586 0.960 . S
C600 H587 0.961 . S
C600 H588 0.959 . S
C600 C598 1.561 . S
C601 C598 1.526 . S
C601 C602 1.396 . S
C601 C606 1.390 . S
C602 C596 1.465 . S
C602 C601 1.396 . S
C602 C603 1.399 . S
C603 H589 0.929 . S
C603 C602 1.399 . S
C603 C604 1.385 . S
C604 H590 0.931 . S
C604 C603 1.385 . S
C604 C605 1.389 . S
C605 C604 1.389 . S
C605 C606 1.387 . S
C606 H591 0.930 . S
C606 C601 1.390 . S
C606 C605 1.387 . S
H607 C619 0.930 . S
H608 C621 0.930 . S
H609 C622 0.930 . S
H610 C626 0.959 . S
H611 C626 0.959 . S
H612 C626 0.961 . S
H613 C627 0.960 . S
H614 C627 0.961 . S
H615 C627 0.959 . S
H616 C630 0.929 . S
H617 C631 0.931 . S
H618 C633 0.930 . S
C619 H607 0.930 . S
C619 C620 1.399 . S
C619 C624 1.399 . S
C620 C619 1.399 . S
C620 C621 1.376 . S
C621 H608 0.930 . S
C621 C620 1.376 . S
C621 C622 1.388 . S
C622 H609 0.930 . S
C622 C621 1.388 . S
C622 C623 1.390 . S
C623 C622 1.390 . S
C623 C624 1.394 . S
C623 C629 1.465 . S
C624 C619 1.399 . S
C624 C623 1.394 . S
C624 C625 1.516 . S
C625 C624 1.516 . S
C625 C626 1.502 . S
C625 C627 1.561 . S
C625 C628 1.526 . S
C626 H610 0.959 . S
C626 H611 0.959 . S
C626 H612 0.961 . S
C626 C625 1.502 . S
C627 H613 0.960 . S
C627 H614 0.961 . S
C627 H615 0.959 . S
C627 C625 1.561 . S
C628 C625 1.526 . S
C628 C629 1.396 . S
C628 C633 1.390 . S
C629 C623 1.465 . S
C629 C628 1.396 . S
C629 C630 1.399 . S
C630 H616 0.929 . S
C630 C629 1.399 . S
C630 C631 1.385 . S
C631 H617 0.931 . S
C631 C630 1.385 . S
C631 C632 1.389 . S
C632 C631 1.389 . S
C632 C633 1.387 . S
C633 H618 0.930 . S
C633 C628 1.390 . S
C633 C632 1.387 . S
H634 C646 0.930 . S
H635 C648 0.930 . S
H636 C649 0.930 . S
H637 C653 0.959 . S
H638 C653 0.959 . S
H639 C653 0.961 . S
H640 C654 0.960 . S
H641 C654 0.961 . S
H642 C654 0.959 . S
H643 C657 0.929 . S
H644 C658 0.931 . S
H645 C660 0.930 . S
C646 H634 0.930 . S
C646 C647 1.399 . S
C646 C651 1.399 . S
C647 C646 1.399 . S
C647 C648 1.376 . S
C648 H635 0.930 . S
C648 C647 1.376 . S
C648 C649 1.388 . S
C649 H636 0.930 . S
C649 C648 1.388 . S
C649 C650 1.390 . S
C650 C649 1.390 . S
C650 C651 1.394 . S
C650 C656 1.465 . S
C651 C646 1.399 . S
C651 C650 1.394 . S
C651 C652 1.516 . S
C652 C651 1.516 . S
C652 C653 1.502 . S
C652 C654 1.561 . S
C652 C655 1.526 . S
C653 H637 0.959 . S
C653 H638 0.959 . S
C653 H639 0.961 . S
C653 C652 1.502 . S
C654 H640 0.960 . S
C654 H641 0.961 . S
C654 H642 0.959 . S
C654 C652 1.561 . S
C655 C652 1.526 . S
C655 C656 1.396 . S
C655 C660 1.390 . S
C656 C650 1.465 . S
C656 C655 1.396 . S
C656 C657 1.399 . S
C657 H643 0.929 . S
C657 C656 1.399 . S
C657 C658 1.385 . S
C658 H644 0.931 . S
C658 C657 1.385 . S
C658 C659 1.389 . S
C659 C658 1.389 . S
C659 C660 1.387 . S
C660 H645 0.930 . S
C660 C655 1.390 . S
C660 C659 1.387 . S
H661 C673 0.930 . S
H662 C675 0.930 . S
H663 C676 0.930 . S
H664 C680 0.959 . S
H665 C680 0.959 . S
H666 C680 0.961 . S
H667 C681 0.960 . S
H668 C681 0.961 . S
H669 C681 0.959 . S
H670 C684 0.929 . S
H671 C685 0.931 . S
H672 C687 0.930 . S
C673 H661 0.930 . S
C673 C674 1.399 . S
C673 C678 1.399 . S
C674 C673 1.399 . S
C674 C675 1.376 . S
C675 H662 0.930 . S
C675 C674 1.376 . S
C675 C676 1.388 . S
C676 H663 0.930 . S
C676 C675 1.388 . S
C676 C677 1.390 . S
C677 C676 1.390 . S
C677 C678 1.394 . S
C677 C683 1.465 . S
C678 C673 1.399 . S
C678 C677 1.394 . S
C678 C679 1.516 . S
C679 C678 1.516 . S
C679 C680 1.502 . S
C679 C681 1.561 . S
C679 C682 1.526 . S
C680 H664 0.959 . S
C680 H665 0.959 . S
C680 H666 0.961 . S
C680 C679 1.502 . S
C681 H667 0.960 . S
C681 H668 0.961 . S
C681 H669 0.959 . S
C681 C679 1.561 . S
C682 C679 1.526 . S
C682 C683 1.396 . S
C682 C687 1.390 . S
C683 C677 1.465 . S
C683 C682 1.396 . S
C683 C684 1.399 . S
C684 H670 0.929 . S
C684 C683 1.399 . S
C684 C685 1.385 . S
C685 H671 0.931 . S
C685 C684 1.385 . S
C685 C686 1.389 . S
C686 C685 1.389 . S
C686 C687 1.387 . S
C687 H672 0.930 . S
C687 C682 1.390 . S
C687 C686 1.387 . S
H688 C700 0.930 . S
H689 C702 0.930 . S
H690 C703 0.930 . S
H691 C707 0.959 . S
H692 C707 0.959 . S
H693 C707 0.961 . S
H694 C708 0.960 . S
H695 C708 0.961 . S
H696 C708 0.959 . S
H697 C711 0.929 . S
H698 C712 0.931 . S
H699 C714 0.930 . S
C700 H688 0.930 . S
C700 C701 1.399 . S
C700 C705 1.399 . S
C701 C700 1.399 . S
C701 C702 1.376 . S
C702 H689 0.930 . S
C702 C701 1.376 . S
C702 C703 1.388 . S
C703 H690 0.930 . S
C703 C702 1.388 . S
C703 C704 1.390 . S
C704 C703 1.390 . S
C704 C705 1.394 . S
C704 C710 1.465 . S
C705 C700 1.399 . S
C705 C704 1.394 . S
C705 C706 1.516 . S
C706 C705 1.516 . S
C706 C707 1.502 . S
C706 C708 1.561 . S
C706 C709 1.526 . S
C707 H691 0.959 . S
C707 H692 0.959 . S
C707 H693 0.961 . S
C707 C706 1.502 . S
C708 H694 0.960 . S
C708 H695 0.961 . S
C708 H696 0.959 . S
C708 C706 1.561 . S
C709 C706 1.526 . S
C709 C710 1.396 . S
C709 C714 1.390 . S
C710 C704 1.465 . S
C710 C709 1.396 . S
C710 C711 1.399 . S
C711 H697 0.929 . S
C711 C710 1.399 . S
C711 C712 1.385 . S
C712 H698 0.931 . S
C712 C711 1.385 . S
C712 C713 1.389 . S
C713 C712 1.389 . S
C713 C714 1.387 . S
C714 H699 0.930 . S
C714 C709 1.390 . S
C714 C713 1.387 . S
H715 C727 0.930 . S
H716 C729 0.930 . S
H717 C730 0.930 . S
H718 C734 0.959 . S
H719 C734 0.959 . S
H720 C734 0.961 . S
H721 C735 0.960 . S
H722 C735 0.961 . S
H723 C735 0.959 . S
H724 C738 0.929 . S
H725 C739 0.931 . S
H726 C741 0.930 . S
C727 H715 0.930 . S
C727 C728 1.399 . S
C727 C732 1.399 . S
C728 C727 1.399 . S
C728 C729 1.376 . S
C729 H716 0.930 . S
C729 C728 1.376 . S
C729 C730 1.388 . S
C730 H717 0.930 . S
C730 C729 1.388 . S
C730 C731 1.390 . S
C731 C730 1.390 . S
C731 C732 1.394 . S
C731 C737 1.465 . S
C732 C727 1.399 . S
C732 C731 1.394 . S
C732 C733 1.516 . S
C733 C732 1.516 . S
C733 C734 1.502 . S
C733 C735 1.561 . S
C733 C736 1.526 . S
C734 H718 0.959 . S
C734 H719 0.959 . S
C734 H720 0.961 . S
C734 C733 1.502 . S
C735 H721 0.960 . S
C735 H722 0.961 . S
C735 H723 0.959 . S
C735 C733 1.561 . S
C736 C733 1.526 . S
C736 C737 1.396 . S
C736 C741 1.390 . S
C737 C731 1.465 . S
C737 C736 1.396 . S
C737 C738 1.399 . S
C738 H724 0.929 . S
C738 C737 1.399 . S
C738 C739 1.385 . S
C739 H725 0.931 . S
C739 C738 1.385 . S
C739 C740 1.389 . S
C740 C739 1.389 . S
C740 C741 1.387 . S
C741 H726 0.930 . S
C741 C736 1.390 . S
C741 C740 1.387 . S
H742 C754 0.930 . S
H743 C756 0.930 . S
H744 C757 0.930 . S
H745 C761 0.959 . S
H746 C761 0.959 . S
H747 C761 0.961 . S
H748 C762 0.960 . S
H749 C762 0.960 . S
H750 C762 0.959 . S
H751 C765 0.929 . S
H752 C766 0.931 . S
H753 C768 0.930 . S
C754 H742 0.930 . S
C754 C755 1.399 . S
C754 C759 1.399 . S
C755 C754 1.399 . S
C755 C756 1.376 . S
C756 H743 0.930 . S
C756 C755 1.376 . S
C756 C757 1.388 . S
C757 H744 0.930 . S
C757 C756 1.388 . S
C757 C758 1.390 . S
C758 C757 1.390 . S
C758 C759 1.394 . S
C758 C764 1.465 . S
C759 C754 1.399 . S
C759 C758 1.394 . S
C759 C760 1.516 . S
C760 C759 1.516 . S
C760 C761 1.502 . S
C760 C762 1.561 . S
C760 C763 1.526 . S
C761 H745 0.959 . S
C761 H746 0.959 . S
C761 H747 0.961 . S
C761 C760 1.502 . S
C762 H748 0.960 . S
C762 H749 0.960 . S
C762 H750 0.959 . S
C762 C760 1.561 . S
C763 C760 1.526 . S
C763 C764 1.396 . S
C763 C768 1.390 . S
C764 C758 1.465 . S
C764 C763 1.396 . S
C764 C765 1.399 . S
C765 H751 0.929 . S
C765 C764 1.399 . S
C765 C766 1.385 . S
C766 H752 0.931 . S
C766 C765 1.385 . S
C766 C767 1.389 . S
C767 C766 1.389 . S
C767 C768 1.387 . S
C768 H753 0.930 . S
C768 C763 1.390 . S
C768 C767 1.387 . S
H769 C781 0.930 . S
H770 C783 0.930 . S
H771 C784 0.930 . S
H772 C788 0.959 . S
H773 C788 0.959 . S
H774 C788 0.961 . S
H775 C789 0.960 . S
H776 C789 0.961 . S
H777 C789 0.959 . S
H778 C792 0.929 . S
H779 C793 0.931 . S
H780 C795 0.930 . S
C781 H769 0.930 . S
C781 C782 1.399 . S
C781 C786 1.399 . S
C782 C781 1.399 . S
C782 C783 1.376 . S
C783 H770 0.930 . S
C783 C782 1.376 . S
C783 C784 1.388 . S
C784 H771 0.930 . S
C784 C783 1.388 . S
C784 C785 1.390 . S
C785 C784 1.390 . S
C785 C786 1.394 . S
C785 C791 1.465 . S
C786 C781 1.399 . S
C786 C785 1.394 . S
C786 C787 1.516 . S
C787 C786 1.516 . S
C787 C788 1.502 . S
C787 C789 1.561 . S
C787 C790 1.526 . S
C788 H772 0.959 . S
C788 H773 0.959 . S
C788 H774 0.961 . S
C788 C787 1.502 . S
C789 H775 0.960 . S
C789 H776 0.961 . S
C789 H777 0.959 . S
C789 C787 1.561 . S
C790 C787 1.526 . S
C790 C791 1.396 . S
C790 C795 1.390 . S
C791 C785 1.465 . S
C791 C790 1.396 . S
C791 C792 1.399 . S
C792 H778 0.929 . S
C792 C791 1.399 . S
C792 C793 1.385 . S
C793 H779 0.931 . S
C793 C792 1.385 . S
C793 C794 1.389 . S
C794 C793 1.389 . S
C794 C795 1.387 . S
C795 H780 0.930 . S
C795 C790 1.390 . S
C795 C794 1.387 . S
H796 C808 0.930 . S
H797 C810 0.930 . S
H798 C811 0.930 . S
H799 C815 0.959 . S
H800 C815 0.959 . S
H801 C815 0.961 . S
H802 C816 0.960 . S
H803 C816 0.961 . S
H804 C816 0.959 . S
H805 C819 0.929 . S
H806 C820 0.931 . S
H807 C822 0.930 . S
C808 H796 0.930 . S
C808 C809 1.399 . S
C808 C813 1.399 . S
C809 C808 1.399 . S
C809 C810 1.376 . S
C810 H797 0.930 . S
C810 C809 1.376 . S
C810 C811 1.388 . S
C811 H798 0.930 . S
C811 C810 1.388 . S
C811 C812 1.390 . S
C812 C811 1.390 . S
C812 C813 1.394 . S
C812 C818 1.465 . S
C813 C808 1.399 . S
C813 C812 1.394 . S
C813 C814 1.516 . S
C814 C813 1.516 . S
C814 C815 1.502 . S
C814 C816 1.561 . S
C814 C817 1.526 . S
C815 H799 0.959 . S
C815 H800 0.959 . S
C815 H801 0.961 . S
C815 C814 1.502 . S
C816 H802 0.960 . S
C816 H803 0.961 . S
C816 H804 0.959 . S
C816 C814 1.561 . S
C817 C814 1.526 . S
C817 C818 1.396 . S
C817 C822 1.390 . S
C818 C812 1.465 . S
C818 C817 1.396 . S
C818 C819 1.399 . S
C819 H805 0.929 . S
C819 C818 1.399 . S
C819 C820 1.385 . S
C820 H806 0.931 . S
C820 C819 1.385 . S
C820 C821 1.389 . S
C821 C820 1.389 . S
C821 C822 1.387 . S
C822 H807 0.930 . S
C822 C817 1.390 . S
C822 C821 1.387 . S
H823 C835 0.930 . S
H824 C837 0.930 . S
H825 C838 0.930 . S
H826 C842 0.959 . S
H827 C842 0.959 . S
H828 C842 0.961 . S
H829 C843 0.960 . S
H830 C843 0.961 . S
H831 C843 0.959 . S
H832 C846 0.929 . S
H833 C847 0.931 . S
H834 C849 0.930 . S
C835 H823 0.930 . S
C835 C836 1.399 . S
C835 C840 1.399 . S
C836 C835 1.399 . S
C836 C837 1.376 . S
C837 H824 0.930 . S
C837 C836 1.376 . S
C837 C838 1.388 . S
C838 H825 0.930 . S
C838 C837 1.388 . S
C838 C839 1.390 . S
C839 C838 1.390 . S
C839 C840 1.394 . S
C839 C845 1.465 . S
C840 C835 1.399 . S
C840 C839 1.394 . S
C840 C841 1.516 . S
C841 C840 1.516 . S
C841 C842 1.502 . S
C841 C843 1.561 . S
C841 C844 1.526 . S
C842 H826 0.959 . S
C842 H827 0.959 . S
C842 H828 0.961 . S
C842 C841 1.502 . S
C843 H829 0.960 . S
C843 H830 0.961 . S
C843 H831 0.959 . S
C843 C841 1.561 . S
C844 C841 1.526 . S
C844 C845 1.396 . S
C844 C849 1.390 . S
C845 C839 1.465 . S
C845 C844 1.396 . S
C845 C846 1.399 . S
C846 H832 0.929 . S
C846 C845 1.399 . S
C846 C847 1.385 . S
C847 H833 0.931 . S
C847 C846 1.385 . S
C847 C848 1.389 . S
C848 C847 1.389 . S
C848 C849 1.387 . S
C849 H834 0.930 . S
C849 C844 1.390 . S
C849 C848 1.387 . S
H850 C862 0.930 . S
H851 C864 0.930 . S
H852 C865 0.930 . S
H853 C869 0.959 . S
H854 C869 0.959 . S
H855 C869 0.961 . S
H856 C870 0.960 . S
H857 C870 0.961 . S
H858 C870 0.959 . S
H859 C873 0.929 . S
H860 C874 0.931 . S
H861 C876 0.930 . S
C862 H850 0.930 . S
C862 C863 1.399 . S
C862 C867 1.399 . S
C863 C862 1.399 . S
C863 C864 1.376 . S
C864 H851 0.930 . S
C864 C863 1.376 . S
C864 C865 1.388 . S
C865 H852 0.930 . S
C865 C864 1.388 . S
C865 C866 1.390 . S
C866 C865 1.390 . S
C866 C867 1.394 . S
C866 C872 1.465 . S
C867 C862 1.399 . S
C867 C866 1.394 . S
C867 C868 1.516 . S
C868 C867 1.516 . S
C868 C869 1.502 . S
C868 C870 1.561 . S
C868 C871 1.526 . S
C869 H853 0.959 . S
C869 H854 0.959 . S
C869 H855 0.961 . S
C869 C868 1.502 . S
C870 H856 0.960 . S
C870 H857 0.961 . S
C870 H858 0.959 . S
C870 C868 1.561 . S
C871 C868 1.526 . S
C871 C872 1.396 . S
C871 C876 1.390 . S
C872 C866 1.465 . S
C872 C871 1.396 . S
C872 C873 1.399 . S
C873 H859 0.929 . S
C873 C872 1.399 . S
C873 C874 1.385 . S
C874 H860 0.931 . S
C874 C873 1.385 . S
C874 C875 1.389 . S
C875 C874 1.389 . S
C875 C876 1.387 . S
C876 H861 0.930 . S
C876 C871 1.390 . S
C876 C875 1.387 . S
H877 C889 0.930 . S
H878 C891 0.930 . S
H879 C892 0.930 . S
H880 C896 0.959 . S
H881 C896 0.959 . S
H882 C896 0.961 . S
H883 C897 0.960 . S
H884 C897 0.961 . S
H885 C897 0.959 . S
H886 C900 0.929 . S
H887 C901 0.931 . S
H888 C903 0.930 . S
C889 H877 0.930 . S
C889 C890 1.399 . S
C889 C894 1.399 . S
C890 C889 1.399 . S
C890 C891 1.376 . S
C891 H878 0.930 . S
C891 C890 1.376 . S
C891 C892 1.388 . S
C892 H879 0.930 . S
C892 C891 1.388 . S
C892 C893 1.390 . S
C893 C892 1.390 . S
C893 C894 1.394 . S
C893 C899 1.465 . S
C894 C889 1.399 . S
C894 C893 1.394 . S
C894 C895 1.516 . S
C895 C894 1.516 . S
C895 C896 1.502 . S
C895 C897 1.561 . S
C895 C898 1.526 . S
C896 H880 0.959 . S
C896 H881 0.959 . S
C896 H882 0.961 . S
C896 C895 1.502 . S
C897 H883 0.960 . S
C897 H884 0.961 . S
C897 H885 0.959 . S
C897 C895 1.561 . S
C898 C895 1.526 . S
C898 C899 1.396 . S
C898 C903 1.390 . S
C899 C893 1.465 . S
C899 C898 1.396 . S
C899 C900 1.399 . S
C900 H886 0.929 . S
C900 C899 1.399 . S
C900 C901 1.385 . S
C901 H887 0.931 . S
C901 C900 1.385 . S
C901 C902 1.389 . S
C902 C901 1.389 . S
C902 C903 1.387 . S
C903 H888 0.930 . S
C903 C898 1.390 . S
C903 C902 1.387 . S
H904 C916 0.930 . S
H905 C918 0.930 . S
H906 C919 0.930 . S
H907 C923 0.959 . S
H908 C923 0.959 . S
H909 C923 0.961 . S
H910 C924 0.960 . S
H911 C924 0.961 . S
H912 C924 0.959 . S
H913 C927 0.929 . S
H914 C928 0.931 . S
H915 C930 0.930 . S
C916 H904 0.930 . S
C916 C917 1.399 . S
C916 C921 1.399 . S
C917 C916 1.399 . S
C917 C918 1.376 . S
C918 H905 0.930 . S
C918 C917 1.376 . S
C918 C919 1.388 . S
C919 H906 0.930 . S
C919 C918 1.388 . S
C919 C920 1.390 . S
C920 C919 1.390 . S
C920 C921 1.394 . S
C920 C926 1.465 . S
C921 C916 1.399 . S
C921 C920 1.394 . S
C921 C922 1.516 . S
C922 C921 1.516 . S
C922 C923 1.502 . S
C922 C924 1.561 . S
C922 C925 1.526 . S
C923 H907 0.959 . S
C923 H908 0.959 . S
C923 H909 0.961 . S
C923 C922 1.502 . S
C924 H910 0.960 . S
C924 H911 0.961 . S
C924 H912 0.959 . S
C924 C922 1.561 . S
C925 C922 1.526 . S
C925 C926 1.396 . S
C925 C930 1.390 . S
C926 C920 1.465 . S
C926 C925 1.396 . S
C926 C927 1.399 . S
C927 H913 0.929 . S
C927 C926 1.399 . S
C927 C928 1.385 . S
C928 H914 0.931 . S
C928 C927 1.385 . S
C928 C929 1.389 . S
C929 C928 1.389 . S
C929 C930 1.387 . S
C930 H915 0.930 . S
C930 C925 1.390 . S
C930 C929 1.387 . S
H931 C943 0.930 . S
H932 C945 0.930 . S
H933 C946 0.930 . S
H934 C950 0.959 . S
H935 C950 0.959 . S
H936 C950 0.961 . S
H937 C951 0.960 . S
H938 C951 0.961 . S
H939 C951 0.959 . S
H940 C954 0.929 . S
H941 C955 0.931 . S
H942 C957 0.930 . S
C943 H931 0.930 . S
C943 C944 1.399 . S
C943 C948 1.399 . S
C944 C943 1.399 . S
C944 C945 1.376 . S
C945 H932 0.930 . S
C945 C944 1.376 . S
C945 C946 1.388 . S
C946 H933 0.930 . S
C946 C945 1.388 . S
C946 C947 1.390 . S
C947 C946 1.390 . S
C947 C948 1.394 . S
C947 C953 1.465 . S
C948 C943 1.399 . S
C948 C947 1.394 . S
C948 C949 1.516 . S
C949 C948 1.516 . S
C949 C950 1.502 . S
C949 C951 1.561 . S
C949 C952 1.526 . S
C950 H934 0.959 . S
C950 H935 0.959 . S
C950 H936 0.961 . S
C950 C949 1.502 . S
C951 H937 0.960 . S
C951 H938 0.961 . S
C951 H939 0.959 . S
C951 C949 1.561 . S
C952 C949 1.526 . S
C952 C953 1.396 . S
C952 C957 1.390 . S
C953 C947 1.465 . S
C953 C952 1.396 . S
C953 C954 1.399 . S
C954 H940 0.929 . S
C954 C953 1.399 . S
C954 C955 1.385 . S
C955 H941 0.931 . S
C955 C954 1.385 . S
C955 C956 1.389 . S
C956 C955 1.389 . S
C956 C957 1.387 . S
C957 H942 0.930 . S
C957 C952 1.390 . S
C957 C956 1.387 . S
H958 C970 0.930 . S
H959 C972 0.930 . S
H960 C973 0.930 . S
H961 C977 0.959 . S
H962 C977 0.959 . S
H963 C977 0.961 . S
H964 C978 0.960 . S
H965 C978 0.961 . S
H966 C978 0.959 . S
H967 C981 0.929 . S
H968 C982 0.931 . S
H969 C984 0.930 . S
C970 H958 0.930 . S
C970 C971 1.399 . S
C970 C975 1.399 . S
C971 C970 1.399 . S
C971 C972 1.376 . S
C972 H959 0.930 . S
C972 C971 1.376 . S
C972 C973 1.388 . S
C973 H960 0.930 . S
C973 C972 1.388 . S
C973 C974 1.390 . S
C974 C973 1.390 . S
C974 C975 1.394 . S
C974 C980 1.465 . S
C975 C970 1.399 . S
C975 C974 1.394 . S
C975 C976 1.516 . S
C976 C975 1.516 . S
C976 C977 1.502 . S
C976 C978 1.561 . S
C976 C979 1.526 . S
C977 H961 0.959 . S
C977 H962 0.959 . S
C977 H963 0.961 . S
C977 C976 1.502 . S
C978 H964 0.960 . S
C978 H965 0.961 . S
C978 H966 0.959 . S
C978 C976 1.561 . S
C979 C976 1.526 . S
C979 C980 1.396 . S
C979 C984 1.390 . S
C980 C974 1.465 . S
C980 C979 1.396 . S
C980 C981 1.399 . S
C981 H967 0.929 . S
C981 C980 1.399 . S
C981 C982 1.385 . S
C982 H968 0.931 . S
C982 C981 1.385 . S
C982 C983 1.389 . S
C983 C982 1.389 . S
C983 C984 1.387 . S
C984 H969 0.930 . S
C984 C979 1.390 . S
C984 C983 1.387 . S
H985 C997 0.930 . S
H986 C999 0.930 . S
H987 C1000 0.930 . S
H988 C1004 0.959 . S
H989 C1004 0.959 . S
H990 C1004 0.961 . S
H991 C1005 0.960 . S
H992 C1005 0.961 . S
H993 C1005 0.959 . S
H994 C1008 0.929 . S
H995 C1009 0.931 . S
H996 C1011 0.930 . S
C997 H985 0.930 . S
C997 C998 1.399 . S
C997 C1002 1.399 . S
C998 C997 1.399 . S
C998 C999 1.376 . S
C999 H986 0.930 . S
C999 C998 1.376 . S
C999 C1000 1.388 . S
C1000 H987 0.930 . S
C1000 C999 1.388 . S
C1000 C1001 1.390 . S
C1001 C1000 1.390 . S
C1001 C1002 1.394 . S
C1001 C1007 1.465 . S
C1002 C997 1.399 . S
C1002 C1001 1.394 . S
C1002 C1003 1.516 . S
C1003 C1002 1.516 . S
C1003 C1004 1.502 . S
C1003 C1005 1.561 . S
C1003 C1006 1.526 . S
C1004 H988 0.959 . S
C1004 H989 0.959 . S
C1004 H990 0.961 . S
C1004 C1003 1.502 . S
C1005 H991 0.960 . S
C1005 H992 0.961 . S
C1005 H993 0.959 . S
C1005 C1003 1.561 . S
C1006 C1003 1.526 . S
C1006 C1007 1.396 . S
C1006 C1011 1.390 . S
C1007 C1001 1.465 . S
C1007 C1006 1.396 . S
C1007 C1008 1.399 . S
C1008 H994 0.929 . S
C1008 C1007 1.399 . S
C1008 C1009 1.385 . S
C1009 H995 0.931 . S
C1009 C1008 1.385 . S
C1009 C1010 1.389 . S
C1010 C1009 1.389 . S
C1010 C1011 1.387 . S
C1011 H996 0.930 . S
C1011 C1006 1.390 . S
C1011 C1010 1.387 . S
H1012 C1024 0.930 . S
H1013 C1026 0.930 . S
H1014 C1027 0.930 . S
H1015 C1031 0.959 . S
H1016 C1031 0.959 . S
H1017 C1031 0.961 . S
H1018 C1032 0.960 . S
H1019 C1032 0.961 . S
H1020 C1032 0.959 . S
H1021 C1035 0.929 . S
H1022 C1036 0.931 . S
H1023 C1038 0.930 . S
C1024 H1012 0.930 . S
C1024 C1025 1.399 . S
C1024 C1029 1.399 . S
C1025 C1024 1.399 . S
C1025 C1026 1.376 . S
C1026 H1013 0.930 . S
C1026 C1025 1.376 . S
C1026 C1027 1.388 . S
C1027 H1014 0.930 . S
C1027 C1026 1.388 . S
C1027 C1028 1.390 . S
C1028 C1027 1.390 . S
C1028 C1029 1.394 . S
C1028 C1034 1.465 . S
C1029 C1024 1.399 . S
C1029 C1028 1.394 . S
C1029 C1030 1.516 . S
C1030 C1029 1.516 . S
C1030 C1031 1.502 . S
C1030 C1032 1.561 . S
C1030 C1033 1.526 . S
C1031 H1015 0.959 . S
C1031 H1016 0.959 . S
C1031 H1017 0.961 . S
C1031 C1030 1.502 . S
C1032 H1018 0.960 . S
C1032 H1019 0.961 . S
C1032 H1020 0.959 . S
C1032 C1030 1.561 . S
C1033 C1030 1.526 . S
C1033 C1034 1.396 . S
C1033 C1038 1.390 . S
C1034 C1028 1.465 . S
C1034 C1033 1.396 . S
C1034 C1035 1.399 . S
C1035 H1021 0.929 . S
C1035 C1034 1.399 . S
C1035 C1036 1.385 . S
C1036 H1022 0.931 . S
C1036 C1035 1.385 . S
C1036 C1037 1.389 . S
C1037 C1036 1.389 . S
C1037 C1038 1.387 . S
C1038 H1023 0.930 . S
C1038 C1033 1.390 . S
C1038 C1037 1.387 . S
H1039 C1051 0.930 . S
H1040 C1053 0.930 . S
H1041 C1054 0.930 . S
H1042 C1058 0.959 . S
H1043 C1058 0.959 . S
H1044 C1058 0.961 . S
H1045 C1059 0.960 . S
H1046 C1059 0.961 . S
H1047 C1059 0.959 . S
H1048 C1062 0.929 . S
H1049 C1063 0.931 . S
H1050 C1065 0.930 . S
C1051 H1039 0.930 . S
C1051 C1052 1.399 . S
C1051 C1056 1.399 . S
C1052 C1051 1.399 . S
C1052 C1053 1.376 . S
C1053 H1040 0.930 . S
C1053 C1052 1.376 . S
C1053 C1054 1.388 . S
C1054 H1041 0.930 . S
C1054 C1053 1.388 . S
C1054 C1055 1.390 . S
C1055 C1054 1.390 . S
C1055 C1056 1.394 . S
C1055 C1061 1.465 . S
C1056 C1051 1.399 . S
C1056 C1055 1.394 . S
C1056 C1057 1.516 . S
C1057 C1056 1.516 . S
C1057 C1058 1.502 . S
C1057 C1059 1.561 . S
C1057 C1060 1.526 . S
C1058 H1042 0.959 . S
C1058 H1043 0.959 . S
C1058 H1044 0.961 . S
C1058 C1057 1.502 . S
C1059 H1045 0.960 . S
C1059 H1046 0.961 . S
C1059 H1047 0.959 . S
C1059 C1057 1.561 . S
C1060 C1057 1.526 . S
C1060 C1061 1.396 . S
C1060 C1065 1.390 . S
C1061 C1055 1.465 . S
C1061 C1060 1.396 . S
C1061 C1062 1.399 . S
C1062 H1048 0.929 . S
C1062 C1061 1.399 . S
C1062 C1063 1.385 . S
C1063 H1049 0.931 . S
C1063 C1062 1.385 . S
C1063 C1064 1.389 . S
C1064 C1063 1.389 . S
C1064 C1065 1.387 . S
C1065 H1050 0.930 . S
C1065 C1060 1.390 . S
C1065 C1064 1.387 . S
H1066 C1078 0.930 . S
H1067 C1080 0.930 . S
H1068 C1081 0.930 . S
H1069 C1085 0.959 . S
H1070 C1085 0.959 . S
H1071 C1085 0.961 . S
H1072 C1086 0.960 . S
H1073 C1086 0.961 . S
H1074 C1086 0.959 . S
H1075 C1089 0.929 . S
H1076 C1090 0.931 . S
H1077 C1092 0.930 . S
C1078 H1066 0.930 . S
C1078 C1079 1.399 . S
C1078 C1083 1.399 . S
C1079 C1078 1.399 . S
C1079 C1080 1.376 . S
C1080 H1067 0.930 . S
C1080 C1079 1.376 . S
C1080 C1081 1.388 . S
C1081 H1068 0.930 . S
C1081 C1080 1.388 . S
C1081 C1082 1.390 . S
C1082 C1081 1.390 . S
C1082 C1083 1.394 . S
C1082 C1088 1.465 . S
C1083 C1078 1.399 . S
C1083 C1082 1.394 . S
C1083 C1084 1.516 . S
C1084 C1083 1.516 . S
C1084 C1085 1.502 . S
C1084 C1086 1.561 . S
C1084 C1087 1.526 . S
C1085 H1069 0.959 . S
C1085 H1070 0.959 . S
C1085 H1071 0.961 . S
C1085 C1084 1.502 . S
C1086 H1072 0.960 . S
C1086 H1073 0.961 . S
C1086 H1074 0.959 . S
C1086 C1084 1.561 . S
C1087 C1084 1.526 . S
C1087 C1088 1.396 . S
C1087 C1092 1.390 . S
C1088 C1082 1.465 . S
C1088 C1087 1.396 . S
C1088 C1089 1.399 . S
C1089 H1075 0.929 . S
C1089 C1088 1.399 . S
C1089 C1090 1.385 . S
C1090 H1076 0.931 . S
C1090 C1089 1.385 . S
C1090 C1091 1.389 . S
C1091 C1090 1.389 . S
C1091 C1092 1.387 . S
C1092 H1077 0.930 . S
C1092 C1087 1.390 . S
C1092 C1091 1.387 . S
H1093 C1105 0.930 . S
H1094 C1107 0.930 . S
H1095 C1108 0.930 . S
H1096 C1112 0.959 . S
H1097 C1112 0.959 . S
H1098 C1112 0.961 . S
H1099 C1113 0.960 . S
H1100 C1113 0.961 . S
H1101 C1113 0.959 . S
H1102 C1116 0.929 . S
H1103 C1117 0.931 . S
H1104 C1119 0.930 . S
C1105 H1093 0.930 . S
C1105 C1106 1.399 . S
C1105 C1110 1.399 . S
C1106 C1105 1.399 . S
C1106 C1107 1.376 . S
C1107 H1094 0.930 . S
C1107 C1106 1.376 . S
C1107 C1108 1.388 . S
C1108 H1095 0.930 . S
C1108 C1107 1.388 . S
C1108 C1109 1.390 . S
C1109 C1108 1.390 . S
C1109 C1110 1.394 . S
C1109 C1115 1.465 . S
C1110 C1105 1.399 . S
C1110 C1109 1.394 . S
C1110 C1111 1.516 . S
C1111 C1110 1.516 . S
C1111 C1112 1.502 . S
C1111 C1113 1.561 . S
C1111 C1114 1.526 . S
C1112 H1096 0.959 . S
C1112 H1097 0.959 . S
C1112 H1098 0.961 . S
C1112 C1111 1.502 . S
C1113 H1099 0.960 . S
C1113 H1100 0.961 . S
C1113 H1101 0.959 . S
C1113 C1111 1.561 . S
C1114 C1111 1.526 . S
C1114 C1115 1.396 . S
C1114 C1119 1.390 . S
C1115 C1109 1.465 . S
C1115 C1114 1.396 . S
C1115 C1116 1.399 . S
C1116 H1102 0.929 . S
C1116 C1115 1.399 . S
C1116 C1117 1.385 . S
C1117 H1103 0.931 . S
C1117 C1116 1.385 . S
C1117 C1118 1.389 . S
C1118 C1117 1.389 . S
C1118 C1119 1.387 . S
C1119 H1104 0.930 . S
C1119 C1114 1.390 . S
C1119 C1118 1.387 . S
C485 C1 1.102 . S
C497 C327 1.068 . S
C512 C40 1.587 . S
C524 C371 1.646 . S
C551 C401 2.186 . S
C539 C99 2.160 . S
C566 C118 2.781 . S
C578 C442 2.753 . S
C605 C358 0.746 . S
C593 C16 0.768 . S
C632 C322 2.543 . S
C620 C60 2.501 . S
C659 C450 1.148 . S
C647 C79 1.148 . S
C686 C411 2.227 . S
C674 C138 2.308 . S
C701 C21 0.932 . S
C713 C447 1.080 . S
C740 C361 2.056 . S
C728 C94 2.073 . S
C755 C133 2.104 . S
C767 C330 2.052 . S
C782 C55 1.946 . S
C794 C398 1.916 . S
C821 C318 1.024 . S
C809 C157 1.124 . S
C836 C196 1.639 . S
C848 C362 1.587 . S
C863 C255 2.168 . S
C875 C410 2.185 . S
C890 C289 2.770 . S
C902 C451 2.731 . S
C917 C172 0.818 . S
C929 C367 0.745 . S
C956 C331 2.545 . S
C944 C216 2.475 . S
C983 C441 1.140 . S
C971 C235 1.184 . S
C1010 C402 2.209 . S
C998 C294 2.303 . S
C1025 C177 1.052 . S
C1037 C438 0.999 . S
C1064 C370 2.039 . S
C1052 C250 2.076 . S
C1091 C321 2.054 . S
C1079 C274 2.098 . S
C1106 C211 1.900 . S
C1118 C407 1.941 . S
