# Generated by pormake.
# Topology tbo, (3,4)-cn, num edge types: 1
# Building blocks:
#     Node 0, Type 0, BuildingBlock: BETDAH_clean_linker_0, # of connection points: 3
#     Node 1, Type 0, BuildingBlock: BETDAH_clean_linker_0, # of connection points: 3
#     Node 2, Type 0, BuildingBlock: BETDAH_clean_linker_0, # of connection points: 3
#     Node 3, Type 0, BuildingBlock: BETDAH_clean_linker_0, # of connection points: 3
#     Node 4, Type 0, BuildingBlock: BETDAH_clean_linker_0, # of connection points: 3
#     Node 5, Type 0, BuildingBlock: BETDAH_clean_linker_0, # of connection points: 3
#     Node 6, Type 0, BuildingBlock: BETDAH_clean_linker_0, # of connection points: 3
#     Node 7, Type 0, BuildingBlock: BETDAH_clean_linker_0, # of connection points: 3
#     Node 8, Type 0, BuildingBlock: BETDAH_clean_linker_0, # of connection points: 3
#     Node 9, Type 0, BuildingBlock: BETDAH_clean_linker_0, # of connection points: 3
#     Node 10, Type 0, BuildingBlock: BETDAH_clean_linker_0, # of connection points: 3
#     Node 11, Type 0, BuildingBlock: BETDAH_clean_linker_0, # of connection points: 3
#     Node 12, Type 0, BuildingBlock: BETDAH_clean_linker_0, # of connection points: 3
#     Node 13, Type 0, BuildingBlock: BETDAH_clean_linker_0, # of connection points: 3
#     Node 14, Type 0, BuildingBlock: BETDAH_clean_linker_0, # of connection points: 3
#     Node 15, Type 0, BuildingBlock: BETDAH_clean_linker_0, # of connection points: 3
#     Node 16, Type 0, BuildingBlock: BETDAH_clean_linker_0, # of connection points: 3
#     Node 17, Type 0, BuildingBlock: BETDAH_clean_linker_0, # of connection points: 3
#     Node 18, Type 0, BuildingBlock: BETDAH_clean_linker_0, # of connection points: 3
#     Node 19, Type 0, BuildingBlock: BETDAH_clean_linker_0, # of connection points: 3
#     Node 20, Type 0, BuildingBlock: BETDAH_clean_linker_0, # of connection points: 3
#     Node 21, Type 0, BuildingBlock: BETDAH_clean_linker_0, # of connection points: 3
#     Node 22, Type 0, BuildingBlock: BETDAH_clean_linker_0, # of connection points: 3
#     Node 23, Type 0, BuildingBlock: BETDAH_clean_linker_0, # of connection points: 3
#     Node 24, Type 0, BuildingBlock: BETDAH_clean_linker_0, # of connection points: 3
#     Node 25, Type 0, BuildingBlock: BETDAH_clean_linker_0, # of connection points: 3
#     Node 26, Type 0, BuildingBlock: BETDAH_clean_linker_0, # of connection points: 3
#     Node 27, Type 0, BuildingBlock: BETDAH_clean_linker_0, # of connection points: 3
#     Node 28, Type 0, BuildingBlock: BETDAH_clean_linker_0, # of connection points: 3
#     Node 29, Type 0, BuildingBlock: BETDAH_clean_linker_0, # of connection points: 3
#     Node 30, Type 0, BuildingBlock: BETDAH_clean_linker_0, # of connection points: 3
#     Node 31, Type 0, BuildingBlock: BETDAH_clean_linker_0, # of connection points: 3
#     Node 32, Type 1, BuildingBlock: ESEHIV_clean_sbu_0, # of connection points: 4
#     Node 33, Type 1, BuildingBlock: ESEHIV_clean_sbu_0, # of connection points: 4
#     Node 34, Type 1, BuildingBlock: ESEHIV_clean_sbu_0, # of connection points: 4
#     Node 35, Type 1, BuildingBlock: ESEHIV_clean_sbu_0, # of connection points: 4
#     Node 36, Type 1, BuildingBlock: ESEHIV_clean_sbu_0, # of connection points: 4
#     Node 37, Type 1, BuildingBlock: ESEHIV_clean_sbu_0, # of connection points: 4
#     Node 38, Type 1, BuildingBlock: ESEHIV_clean_sbu_0, # of connection points: 4
#     Node 39, Type 1, BuildingBlock: ESEHIV_clean_sbu_0, # of connection points: 4
#     Node 40, Type 1, BuildingBlock: ESEHIV_clean_sbu_0, # of connection points: 4
#     Node 41, Type 1, BuildingBlock: ESEHIV_clean_sbu_0, # of connection points: 4
#     Node 42, Type 1, BuildingBlock: ESEHIV_clean_sbu_0, # of connection points: 4
#     Node 43, Type 1, BuildingBlock: ESEHIV_clean_sbu_0, # of connection points: 4
#     Node 44, Type 1, BuildingBlock: ESEHIV_clean_sbu_0, # of connection points: 4
#     Node 45, Type 1, BuildingBlock: ESEHIV_clean_sbu_0, # of connection points: 4
#     Node 46, Type 1, BuildingBlock: ESEHIV_clean_sbu_0, # of connection points: 4
#     Node 47, Type 1, BuildingBlock: ESEHIV_clean_sbu_0, # of connection points: 4
#     Node 48, Type 1, BuildingBlock: ESEHIV_clean_sbu_0, # of connection points: 4
#     Node 49, Type 1, BuildingBlock: ESEHIV_clean_sbu_0, # of connection points: 4
#     Node 50, Type 1, BuildingBlock: ESEHIV_clean_sbu_0, # of connection points: 4
#     Node 51, Type 1, BuildingBlock: ESEHIV_clean_sbu_0, # of connection points: 4
#     Node 52, Type 1, BuildingBlock: ESEHIV_clean_sbu_0, # of connection points: 4
#     Node 53, Type 1, BuildingBlock: ESEHIV_clean_sbu_0, # of connection points: 4
#     Node 54, Type 1, BuildingBlock: ESEHIV_clean_sbu_0, # of connection points: 4
#     Node 55, Type 1, BuildingBlock: ESEHIV_clean_sbu_0, # of connection points: 4
#     Edge 56, Type (0, 1), BuildingBlock: XIVTED_clean_linker_0, # of connection points: 2
#     Edge 57, Type (0, 1), BuildingBlock: XIVTED_clean_linker_0, # of connection points: 2
#     Edge 58, Type (0, 1), BuildingBlock: XIVTED_clean_linker_0, # of connection points: 2
#     Edge 59, Type (0, 1), BuildingBlock: XIVTED_clean_linker_0, # of connection points: 2
#     Edge 60, Type (0, 1), BuildingBlock: XIVTED_clean_linker_0, # of connection points: 2
#     Edge 61, Type (0, 1), BuildingBlock: XIVTED_clean_linker_0, # of connection points: 2
#     Edge 62, Type (0, 1), BuildingBlock: XIVTED_clean_linker_0, # of connection points: 2
#     Edge 63, Type (0, 1), BuildingBlock: XIVTED_clean_linker_0, # of connection points: 2
#     Edge 64, Type (0, 1), BuildingBlock: XIVTED_clean_linker_0, # of connection points: 2
#     Edge 65, Type (0, 1), BuildingBlock: XIVTED_clean_linker_0, # of connection points: 2
#     Edge 66, Type (0, 1), BuildingBlock: XIVTED_clean_linker_0, # of connection points: 2
#     Edge 67, Type (0, 1), BuildingBlock: XIVTED_clean_linker_0, # of connection points: 2
#     Edge 68, Type (0, 1), BuildingBlock: XIVTED_clean_linker_0, # of connection points: 2
#     Edge 69, Type (0, 1), BuildingBlock: XIVTED_clean_linker_0, # of connection points: 2
#     Edge 70, Type (0, 1), BuildingBlock: XIVTED_clean_linker_0, # of connection points: 2
#     Edge 71, Type (0, 1), BuildingBlock: XIVTED_clean_linker_0, # of connection points: 2
#     Edge 72, Type (0, 1), BuildingBlock: XIVTED_clean_linker_0, # of connection points: 2
#     Edge 73, Type (0, 1), BuildingBlock: XIVTED_clean_linker_0, # of connection points: 2
#     Edge 74, Type (0, 1), BuildingBlock: XIVTED_clean_linker_0, # of connection points: 2
#     Edge 75, Type (0, 1), BuildingBlock: XIVTED_clean_linker_0, # of connection points: 2
#     Edge 76, Type (0, 1), BuildingBlock: XIVTED_clean_linker_0, # of connection points: 2
#     Edge 77, Type (0, 1), BuildingBlock: XIVTED_clean_linker_0, # of connection points: 2
#     Edge 78, Type (0, 1), BuildingBlock: XIVTED_clean_linker_0, # of connection points: 2
#     Edge 79, Type (0, 1), BuildingBlock: XIVTED_clean_linker_0, # of connection points: 2
#     Edge 80, Type (0, 1), BuildingBlock: XIVTED_clean_linker_0, # of connection points: 2
#     Edge 81, Type (0, 1), BuildingBlock: XIVTED_clean_linker_0, # of connection points: 2
#     Edge 82, Type (0, 1), BuildingBlock: XIVTED_clean_linker_0, # of connection points: 2
#     Edge 83, Type (0, 1), BuildingBlock: XIVTED_clean_linker_0, # of connection points: 2
#     Edge 84, Type (0, 1), BuildingBlock: XIVTED_clean_linker_0, # of connection points: 2
#     Edge 85, Type (0, 1), BuildingBlock: XIVTED_clean_linker_0, # of connection points: 2
#     Edge 86, Type (0, 1), BuildingBlock: XIVTED_clean_linker_0, # of connection points: 2
#     Edge 87, Type (0, 1), BuildingBlock: XIVTED_clean_linker_0, # of connection points: 2
#     Edge 88, Type (0, 1), BuildingBlock: XIVTED_clean_linker_0, # of connection points: 2
#     Edge 89, Type (0, 1), BuildingBlock: XIVTED_clean_linker_0, # of connection points: 2
#     Edge 90, Type (0, 1), BuildingBlock: XIVTED_clean_linker_0, # of connection points: 2
#     Edge 91, Type (0, 1), BuildingBlock: XIVTED_clean_linker_0, # of connection points: 2
#     Edge 92, Type (0, 1), BuildingBlock: XIVTED_clean_linker_0, # of connection points: 2
#     Edge 93, Type (0, 1), BuildingBlock: XIVTED_clean_linker_0, # of connection points: 2
#     Edge 94, Type (0, 1), BuildingBlock: XIVTED_clean_linker_0, # of connection points: 2
#     Edge 95, Type (0, 1), BuildingBlock: XIVTED_clean_linker_0, # of connection points: 2
#     Edge 96, Type (0, 1), BuildingBlock: XIVTED_clean_linker_0, # of connection points: 2
#     Edge 97, Type (0, 1), BuildingBlock: XIVTED_clean_linker_0, # of connection points: 2
#     Edge 98, Type (0, 1), BuildingBlock: XIVTED_clean_linker_0, # of connection points: 2
#     Edge 99, Type (0, 1), BuildingBlock: XIVTED_clean_linker_0, # of connection points: 2
#     Edge 100, Type (0, 1), BuildingBlock: XIVTED_clean_linker_0, # of connection points: 2
#     Edge 101, Type (0, 1), BuildingBlock: XIVTED_clean_linker_0, # of connection points: 2
#     Edge 102, Type (0, 1), BuildingBlock: XIVTED_clean_linker_0, # of connection points: 2
#     Edge 103, Type (0, 1), BuildingBlock: XIVTED_clean_linker_0, # of connection points: 2
#     Edge 104, Type (0, 1), BuildingBlock: XIVTED_clean_linker_0, # of connection points: 2
#     Edge 105, Type (0, 1), BuildingBlock: XIVTED_clean_linker_0, # of connection points: 2
#     Edge 106, Type (0, 1), BuildingBlock: XIVTED_clean_linker_0, # of connection points: 2
#     Edge 107, Type (0, 1), BuildingBlock: XIVTED_clean_linker_0, # of connection points: 2
#     Edge 108, Type (0, 1), BuildingBlock: XIVTED_clean_linker_0, # of connection points: 2
#     Edge 109, Type (0, 1), BuildingBlock: XIVTED_clean_linker_0, # of connection points: 2
#     Edge 110, Type (0, 1), BuildingBlock: XIVTED_clean_linker_0, # of connection points: 2
#     Edge 111, Type (0, 1), BuildingBlock: XIVTED_clean_linker_0, # of connection points: 2
#     Edge 112, Type (0, 1), BuildingBlock: XIVTED_clean_linker_0, # of connection points: 2
#     Edge 113, Type (0, 1), BuildingBlock: XIVTED_clean_linker_0, # of connection points: 2
#     Edge 114, Type (0, 1), BuildingBlock: XIVTED_clean_linker_0, # of connection points: 2
#     Edge 115, Type (0, 1), BuildingBlock: XIVTED_clean_linker_0, # of connection points: 2
#     Edge 116, Type (0, 1), BuildingBlock: XIVTED_clean_linker_0, # of connection points: 2
#     Edge 117, Type (0, 1), BuildingBlock: XIVTED_clean_linker_0, # of connection points: 2
#     Edge 118, Type (0, 1), BuildingBlock: XIVTED_clean_linker_0, # of connection points: 2
#     Edge 119, Type (0, 1), BuildingBlock: XIVTED_clean_linker_0, # of connection points: 2
#     Edge 120, Type (0, 1), BuildingBlock: XIVTED_clean_linker_0, # of connection points: 2
#     Edge 121, Type (0, 1), BuildingBlock: XIVTED_clean_linker_0, # of connection points: 2
#     Edge 122, Type (0, 1), BuildingBlock: XIVTED_clean_linker_0, # of connection points: 2
#     Edge 123, Type (0, 1), BuildingBlock: XIVTED_clean_linker_0, # of connection points: 2
#     Edge 124, Type (0, 1), BuildingBlock: XIVTED_clean_linker_0, # of connection points: 2
#     Edge 125, Type (0, 1), BuildingBlock: XIVTED_clean_linker_0, # of connection points: 2
#     Edge 126, Type (0, 1), BuildingBlock: XIVTED_clean_linker_0, # of connection points: 2
#     Edge 127, Type (0, 1), BuildingBlock: XIVTED_clean_linker_0, # of connection points: 2
#     Edge 128, Type (0, 1), BuildingBlock: XIVTED_clean_linker_0, # of connection points: 2
#     Edge 129, Type (0, 1), BuildingBlock: XIVTED_clean_linker_0, # of connection points: 2
#     Edge 130, Type (0, 1), BuildingBlock: XIVTED_clean_linker_0, # of connection points: 2
#     Edge 131, Type (0, 1), BuildingBlock: XIVTED_clean_linker_0, # of connection points: 2
#     Edge 132, Type (0, 1), BuildingBlock: XIVTED_clean_linker_0, # of connection points: 2
#     Edge 133, Type (0, 1), BuildingBlock: XIVTED_clean_linker_0, # of connection points: 2
#     Edge 134, Type (0, 1), BuildingBlock: XIVTED_clean_linker_0, # of connection points: 2
#     Edge 135, Type (0, 1), BuildingBlock: XIVTED_clean_linker_0, # of connection points: 2
#     Edge 136, Type (0, 1), BuildingBlock: XIVTED_clean_linker_0, # of connection points: 2
#     Edge 137, Type (0, 1), BuildingBlock: XIVTED_clean_linker_0, # of connection points: 2
#     Edge 138, Type (0, 1), BuildingBlock: XIVTED_clean_linker_0, # of connection points: 2
#     Edge 139, Type (0, 1), BuildingBlock: XIVTED_clean_linker_0, # of connection points: 2
#     Edge 140, Type (0, 1), BuildingBlock: XIVTED_clean_linker_0, # of connection points: 2
#     Edge 141, Type (0, 1), BuildingBlock: XIVTED_clean_linker_0, # of connection points: 2
#     Edge 142, Type (0, 1), BuildingBlock: XIVTED_clean_linker_0, # of connection points: 2
#     Edge 143, Type (0, 1), BuildingBlock: XIVTED_clean_linker_0, # of connection points: 2
#     Edge 144, Type (0, 1), BuildingBlock: XIVTED_clean_linker_0, # of connection points: 2
#     Edge 145, Type (0, 1), BuildingBlock: XIVTED_clean_linker_0, # of connection points: 2
#     Edge 146, Type (0, 1), BuildingBlock: XIVTED_clean_linker_0, # of connection points: 2
#     Edge 147, Type (0, 1), BuildingBlock: XIVTED_clean_linker_0, # of connection points: 2
#     Edge 148, Type (0, 1), BuildingBlock: XIVTED_clean_linker_0, # of connection points: 2
#     Edge 149, Type (0, 1), BuildingBlock: XIVTED_clean_linker_0, # of connection points: 2
#     Edge 150, Type (0, 1), BuildingBlock: XIVTED_clean_linker_0, # of connection points: 2
#     Edge 151, Type (0, 1), BuildingBlock: XIVTED_clean_linker_0, # of connection points: 2
# Relax obj value: 0.024
# Max RMSD: 0.143
# Mean RMSD: 0.107
data_MOF--net-tbo--node1-ESEHIV_clean_sbu_0--node2-BETDAH_clean_linker_0--edge1-XIVTED_clean_linker_0
_symmetry_space_group_name_H-M    P1
_symmetry_Int_Tables_number       1
_symmetry_cell_setting            triclinic
loop_
_symmetry_equiv_pos_as_xyz
'x, y, z'
_cell_length_a     70.617605
_cell_length_b     72.310681
_cell_length_c     76.911351
_cell_angle_alpha  90.256552
_cell_angle_beta   93.695731
_cell_angle_gamma 101.32136
loop_
_atom_site_label
_atom_site_type_symbol
_atom_site_fract_x
_atom_site_fract_y
_atom_site_fract_z
_atom_type_partial_charge
H0 H 0.22792 0.14504 0.18642 0.0
H1 H 0.18275 0.1513 0.22009 0.0
H2 H 0.19595 0.18927 0.17779 0.0
C3 C 0.21681 0.15241 0.19015 0.0
C4 C 0.2135 0.16802 0.18041 0.0
C5 C 0.20597 0.14616 0.20458 0.0
C6 C 0.19122 0.1558 0.20908 0.0
C7 C 0.18768 0.17146 0.19939 0.0
C8 C 0.19892 0.17737 0.18526 0.0
N9 N 0.17312 0.1819 0.203 0.0
C10 C 0.15998 0.17945 0.21606 0.0
H11 H 0.89688 0.17399 0.18956 0.0
H12 H 0.90415 0.20345 0.14116 0.0
H13 H 0.86642 0.14917 0.14223 0.0
C14 C 0.89316 0.1748 0.17572 0.0
C15 C 0.88044 0.15966 0.16714 0.0
C16 C 0.90188 0.19059 0.16646 0.0
C17 C 0.89744 0.19136 0.1484 0.0
C18 C 0.88455 0.17633 0.13974 0.0
C19 C 0.8764 0.16057 0.1491 0.0
N20 N 0.87972 0.17627 0.12156 0.0
C21 C 0.87975 0.19243 0.1119 0.0
H22 H 0.89638 0.82213 0.16592 0.0
H23 H 0.88519 0.86025 0.20578 0.0
H24 H 0.84888 0.85104 0.15832 0.0
C25 C 0.88788 0.83186 0.17058 0.0
C26 C 0.87214 0.83561 0.15996 0.0
C27 C 0.8928 0.84069 0.18716 0.0
C28 C 0.8816 0.85341 0.19311 0.0
C29 C 0.86579 0.85721 0.18254 0.0
C30 C 0.86124 0.8482 0.16622 0.0
N31 N 0.85353 0.86947 0.18766 0.0
C32 C 0.85658 0.8827 0.20132 0.0
H33 H 0.13867 0.84003 0.19353 0.0
H34 H 0.16961 0.87334 0.15432 0.0
H35 H 0.1385 0.81708 0.1418 0.0
C36 C 0.14327 0.84156 0.18034 0.0
C37 C 0.13718 0.82663 0.16824 0.0
C38 C 0.155 0.85849 0.17553 0.0
C39 C 0.16071 0.86031 0.15836 0.0
C40 C 0.15518 0.84537 0.14628 0.0
C41 C 0.14324 0.82853 0.1512 0.0
N42 N 0.16152 0.8479 0.12919 0.0
C43 C 0.16551 0.83338 0.11904 0.0
H44 H 0.18393 0.87246 0.8336 0.0
H45 H 0.17386 0.81245 0.84092 0.0
H46 H 0.22534 0.84776 0.86438 0.0
C47 C 0.18824 0.86018 0.83946 0.0
C48 C 0.20598 0.86221 0.84938 0.0
C49 C 0.17664 0.84227 0.83617 0.0
C50 C 0.18275 0.82637 0.84324 0.0
C51 C 0.19993 0.82828 0.85379 0.0
C52 C 0.21167 0.84623 0.85673 0.0
N53 N 0.20518 0.81179 0.86089 0.0
C54 C 0.21652 0.81166 0.87632 0.0
H55 H 0.25035 0.17127 0.89351 0.0
H56 H 0.21102 0.20933 0.88258 0.0
H57 H 0.21578 0.16725 0.845 0.0
C58 C 0.23975 0.17625 0.88497 0.0
C59 C 0.23485 0.16763 0.86828 0.0
C60 C 0.23113 0.19124 0.89065 0.0
C61 C 0.21734 0.19749 0.87908 0.0
C62 C 0.21194 0.18876 0.86267 0.0
C63 C 0.22058 0.17395 0.85756 0.0
N64 N 0.19815 0.1945 0.85056 0.0
C65 C 0.1864 0.2075 0.85335 0.0
H66 H 0.90277 0.15725 0.82529 0.0
H67 H 0.89808 0.19691 0.8658 0.0
H68 H 0.85349 0.14742 0.85649 0.0
C69 C 0.89504 0.1615 0.83587 0.0
C70 C 0.87729 0.15032 0.83972 0.0
C71 C 0.9026 0.17838 0.84512 0.0
C72 C 0.89243 0.18378 0.85878 0.0
C73 C 0.87475 0.17256 0.86301 0.0
C74 C 0.86724 0.15593 0.85337 0.0
N75 N 0.86405 0.1778 0.87661 0.0
C76 C 0.86933 0.19472 0.88601 0.0
H77 H 0.87157 0.82312 0.87085 0.0
H78 H 0.87217 0.85304 0.82266 0.0
H79 H 0.83071 0.85956 0.8594 0.0
C80 C 0.86561 0.83255 0.86213 0.0
C81 C 0.84985 0.84041 0.86717 0.0
C82 C 0.87411 0.83712 0.84619 0.0
C83 C 0.8664 0.84974 0.83524 0.0
C84 C 0.85109 0.8581 0.83992 0.0
C85 C 0.84285 0.8535 0.85597 0.0
N86 N 0.84425 0.87032 0.82749 0.0
C87 C 0.83153 0.88268 0.82932 0.0
H88 H 0.23142 0.66524 0.6655 0.0
H89 H 0.19471 0.6492 0.7076 0.0
H90 H 0.18437 0.6938 0.67372 0.0
C91 C 0.21924 0.66694 0.67282 0.0
C92 C 0.20849 0.68082 0.66772 0.0
C93 C 0.21455 0.65535 0.68722 0.0
C94 C 0.19883 0.65805 0.6966 0.0
C95 C 0.18794 0.67184 0.69203 0.0
C96 C 0.19265 0.68314 0.67738 0.0
N97 N 0.17256 0.67343 0.70282 0.0
C98 C 0.1597 0.6859 0.70203 0.0
H99 H 0.88436 0.67525 0.68091 0.0
H100 H 0.90042 0.70309 0.63338 0.0
H101 H 0.86038 0.64995 0.63147 0.0
C102 C 0.88278 0.6757 0.66682 0.0
C103 C 0.87061 0.66075 0.65742 0.0
C104 C 0.89344 0.69106 0.65829 0.0
C105 C 0.8922 0.6913 0.64003 0.0
C106 C 0.88036 0.67632 0.63039 0.0
C107 C 0.86976 0.66113 0.63911 0.0
N108 N 0.87871 0.67619 0.61192 0.0
C109 C 0.88194 0.69254 0.60224 0.0
H110 H 0.89792 0.33448 0.67883 0.0
H111 H 0.88892 0.37817 0.71402 0.0
H112 H 0.8524 0.36506 0.66701 0.0
C113 C 0.89002 0.34524 0.68222 0.0
C114 C 0.87443 0.34827 0.67094 0.0
C115 C 0.89543 0.35585 0.69787 0.0
C116 C 0.88512 0.37002 0.70202 0.0
C117 C 0.86953 0.37328 0.69088 0.0
C118 C 0.86431 0.36232 0.67554 0.0
N119 N 0.85841 0.38715 0.69451 0.0
C120 C 0.86174 0.4005 0.70812 0.0
H121 H 0.18151 0.35358 0.70842 0.0
H122 H 0.23485 0.33647 0.69819 0.0
H123 H 0.18335 0.29479 0.70165 0.0
C124 C 0.18941 0.34263 0.7058 0.0
C125 C 0.17956 0.32366 0.70481 0.0
C126 C 0.20949 0.34756 0.70401 0.0
C127 C 0.21951 0.33318 0.70015 0.0
C128 C 0.20992 0.3143 0.69917 0.0
C129 C 0.19019 0.30957 0.7018 0.0
N130 N 0.22025 0.29984 0.69628 0.0
C131 C 0.22522 0.29614 0.67967 0.0
H132 H 0.1795 0.36702 0.34339 0.0
H133 H 0.15581 0.33728 0.38788 0.0
H134 H 0.20944 0.37695 0.39435 0.0
C135 C 0.18046 0.36424 0.35721 0.0
C136 C 0.19617 0.37407 0.36805 0.0
C137 C 0.16604 0.35061 0.36422 0.0
C138 C 0.16703 0.34743 0.38222 0.0
C139 C 0.18261 0.35675 0.39303 0.0
C140 C 0.19726 0.3699 0.38592 0.0
N141 N 0.18308 0.35257 0.41102 0.0
C142 C 0.20007 0.35424 0.42155 0.0
H143 H 0.24181 0.64059 0.37351 0.0
H144 H 0.19937 0.67627 0.36969 0.0
H145 H 0.20091 0.63593 0.32902 0.0
C146 C 0.22962 0.64493 0.36657 0.0
C147 C 0.22258 0.63641 0.35026 0.0
C148 C 0.22137 0.65925 0.3739 0.0
C149 C 0.2061 0.66551 0.36427 0.0
C150 C 0.19888 0.65711 0.34798 0.0
C151 C 0.20705 0.6426 0.34129 0.0
N152 N 0.18275 0.66184 0.33813 0.0
C153 C 0.17468 0.67787 0.33972 0.0
H154 H 0.88489 0.6437 0.30028 0.0
H155 H 0.8763 0.67481 0.34622 0.0
H156 H 0.83549 0.6246 0.32976 0.0
C157 C 0.87658 0.64551 0.31132 0.0
C158 C 0.8597 0.63234 0.31381 0.0
C159 C 0.88293 0.66077 0.32308 0.0
C160 C 0.8716 0.66311 0.33709 0.0
C161 C 0.85436 0.65002 0.33941 0.0
C162 C 0.84871 0.63469 0.32785 0.0
N163 N 0.84222 0.65152 0.35312 0.0
C164 C 0.84568 0.66523 0.36624 0.0
H165 H 0.86164 0.30222 0.38293 0.0
H166 H 0.86896 0.33789 0.33822 0.0
H167 H 0.82684 0.34469 0.37428 0.0
C168 C 0.85744 0.31325 0.37497 0.0
C169 C 0.84287 0.32254 0.38044 0.0
C170 C 0.8673 0.31878 0.35984 0.0
C171 C 0.86189 0.33353 0.35004 0.0
C172 C 0.8473 0.34281 0.35493 0.0
C173 C 0.83785 0.33737 0.37024 0.0
N174 N 0.84366 0.35809 0.34433 0.0
C175 C 0.82779 0.36708 0.34353 0.0
H176 H 0.72941 0.14555 0.65637 0.0
H177 H 0.68519 0.14723 0.69241 0.0
H178 H 0.69496 0.18857 0.65259 0.0
C179 C 0.71809 0.15209 0.66101 0.0
C180 C 0.71369 0.16826 0.65258 0.0
C181 C 0.70783 0.14423 0.67539 0.0
C182 C 0.69304 0.15289 0.68135 0.0
C183 C 0.68873 0.1691 0.67319 0.0
C184 C 0.69894 0.17641 0.65894 0.0
N185 N 0.67448 0.17897 0.67866 0.0
C186 C 0.66155 0.17448 0.69168 0.0
H187 H 0.37587 0.19334 0.7089 0.0
H188 H 0.36761 0.2415 0.679 0.0
H189 H 0.3184 0.20352 0.69727 0.0
C190 C 0.36625 0.20178 0.70285 0.0
C191 C 0.34621 0.19634 0.70419 0.0
C192 C 0.37407 0.21808 0.69386 0.0
C193 C 0.36161 0.22891 0.68593 0.0
C194 C 0.34146 0.22355 0.68703 0.0
C195 C 0.33391 0.20744 0.69632 0.0
N196 N 0.32848 0.23406 0.67891 0.0
C197 C 0.33316 0.24558 0.66479 0.0
H198 H 0.38963 0.82849 0.68965 0.0
H199 H 0.38254 0.87207 0.72595 0.0
H200 H 0.34376 0.85904 0.68027 0.0
C201 C 0.38227 0.83956 0.69335 0.0
C202 C 0.36618 0.8426 0.6828 0.0
C203 C 0.38848 0.85004 0.70897 0.0
C204 C 0.37808 0.86387 0.71405 0.0
C205 C 0.36184 0.86701 0.70365 0.0
C206 C 0.35612 0.85633 0.68822 0.0
N207 N 0.35025 0.88023 0.70808 0.0
C208 C 0.35376 0.89442 0.72096 0.0
H209 H 0.66435 0.83724 0.69137 0.0
H210 H 0.70873 0.82499 0.65976 0.0
H211 H 0.65937 0.78184 0.66889 0.0
C212 C 0.67004 0.82747 0.68341 0.0
C213 C 0.6596 0.80889 0.68099 0.0
C214 C 0.68791 0.83347 0.67602 0.0
C215 C 0.69492 0.82071 0.66542 0.0
C216 C 0.68457 0.80205 0.66293 0.0
C217 C 0.66719 0.79624 0.67092 0.0
N218 N 0.69145 0.78851 0.65298 0.0
C219 C 0.70368 0.79285 0.63952 0.0
H220 H 0.66923 0.86452 0.33412 0.0
H221 H 0.665 0.80979 0.35719 0.0
H222 H 0.71933 0.849 0.36039 0.0
C223 C 0.67584 0.85431 0.34133 0.0
C224 C 0.69562 0.85874 0.34671 0.0
C225 C 0.66461 0.8367 0.34513 0.0
C226 C 0.6734 0.82354 0.35435 0.0
C227 C 0.69297 0.82792 0.36006 0.0
C228 C 0.70409 0.84554 0.35616 0.0
N229 N 0.70103 0.81429 0.36962 0.0
C230 C 0.7179 0.81874 0.38038 0.0
H231 H 0.74323 0.15606 0.3594 0.0
H232 H 0.69659 0.18679 0.35962 0.0
H233 H 0.69739 0.14603 0.319 0.0
C234 C 0.73018 0.15956 0.35326 0.0
C235 C 0.72186 0.14979 0.33792 0.0
C236 C 0.72137 0.173 0.36132 0.0
C237 C 0.70377 0.17675 0.35357 0.0
C238 C 0.69513 0.16692 0.33826 0.0
C239 C 0.7042 0.1535 0.33073 0.0
N240 N 0.67646 0.16847 0.33085 0.0
C241 C 0.66805 0.18443 0.32992 0.0
H242 H 0.36206 0.14733 0.3202 0.0
H243 H 0.38066 0.20674 0.33142 0.0
H244 H 0.33391 0.17463 0.35808 0.0
C245 C 0.36092 0.15984 0.32756 0.0
C246 C 0.34648 0.1589 0.33951 0.0
C247 C 0.37319 0.1771 0.32437 0.0
C248 C 0.37116 0.19334 0.33356 0.0
C249 C 0.35739 0.19251 0.34591 0.0
C250 C 0.34493 0.17528 0.34881 0.0
N251 N 0.35631 0.2094 0.3549 0.0
C252 C 0.348 0.20996 0.37071 0.0
H253 H 0.35726 0.81105 0.38607 0.0
H254 H 0.36449 0.85785 0.3508 0.0
H255 H 0.33015 0.85833 0.39468 0.0
C256 C 0.35382 0.82434 0.38185 0.0
C257 C 0.34206 0.83316 0.39201 0.0
C258 C 0.36212 0.83297 0.36689 0.0
C259 C 0.35815 0.85076 0.36202 0.0
C260 C 0.34663 0.85986 0.37212 0.0
C261 C 0.33885 0.85105 0.38702 0.0
N262 N 0.34502 0.87895 0.36931 0.0
C263 C 0.33844 0.88638 0.35385 0.0
H264 H 0.70346 0.65671 0.16643 0.0
H265 H 0.66269 0.66126 0.20528 0.0
H266 H 0.67035 0.70065 0.16367 0.0
C267 C 0.69297 0.66383 0.17183 0.0
C268 C 0.688 0.67948 0.16302 0.0
C269 C 0.68386 0.65684 0.1871 0.0
C270 C 0.66967 0.66609 0.19355 0.0
C271 C 0.66484 0.68191 0.18499 0.0
C272 C 0.67408 0.68834 0.16996 0.0
N273 N 0.65105 0.69223 0.19076 0.0
C274 C 0.63892 0.68876 0.20453 0.0
H275 H 0.3888 0.67783 0.19836 0.0
H276 H 0.38623 0.69603 0.14519 0.0
H277 H 0.35984 0.63931 0.15797 0.0
C278 C 0.38379 0.67505 0.18479 0.0
C279 C 0.37353 0.65705 0.17971 0.0
C280 C 0.38874 0.68909 0.17239 0.0
C281 C 0.38247 0.68525 0.1548 0.0
C282 C 0.37176 0.66732 0.14963 0.0
C283 C 0.36782 0.65319 0.16204 0.0
N284 N 0.36506 0.66294 0.13203 0.0
C285 C 0.36094 0.67629 0.12019 0.0
H286 H 0.39048 0.3154 0.17234 0.0
H287 H 0.39832 0.34776 0.22026 0.0
H288 H 0.35254 0.35371 0.18246 0.0
C289 C 0.38642 0.32592 0.18063 0.0
C290 C 0.37041 0.33407 0.17519 0.0
C291 C 0.39676 0.33065 0.19689 0.0
C292 C 0.39058 0.34369 0.20778 0.0
C293 C 0.37479 0.35209 0.20272 0.0
C294 C 0.36472 0.34727 0.18639 0.0
N295 N 0.36944 0.36489 0.2148 0.0
C296 C 0.35709 0.37761 0.21173 0.0
H297 H 0.68946 0.3535 0.17528 0.0
H298 H 0.73507 0.35976 0.14004 0.0
H299 H 0.69323 0.30783 0.14045 0.0
C300 C 0.69657 0.34777 0.16504 0.0
C301 C 0.68921 0.32935 0.15868 0.0
C302 C 0.71312 0.35882 0.15842 0.0
C303 C 0.72235 0.35128 0.14521 0.0
C304 C 0.71505 0.33289 0.13862 0.0
C305 C 0.69857 0.32208 0.14541 0.0
N306 N 0.72394 0.32473 0.12529 0.0
C307 C 0.73942 0.33425 0.11647 0.0
H308 H 0.68501 0.36115 0.82651 0.0
H309 H 0.6885 0.306 0.84538 0.0
H310 H 0.73872 0.35063 0.85035 0.0
C311 C 0.69328 0.35168 0.83291 0.0
C312 C 0.71292 0.3582 0.83809 0.0
C313 C 0.68429 0.33296 0.83562 0.0
C314 C 0.69515 0.32064 0.84352 0.0
C315 C 0.71458 0.32697 0.84911 0.0
C316 C 0.72354 0.3458 0.84638 0.0
N317 N 0.72486 0.31379 0.85677 0.0
C318 C 0.73814 0.31807 0.871 0.0
H319 H 0.75563 0.65926 0.87672 0.0
H320 H 0.70765 0.68846 0.87127 0.0
H321 H 0.71876 0.65338 0.82957 0.0
C322 C 0.74309 0.66242 0.86935 0.0
C323 C 0.73835 0.6546 0.85245 0.0
C324 C 0.73239 0.675 0.87631 0.0
C325 C 0.71637 0.67924 0.86611 0.0
C326 C 0.71149 0.67148 0.84922 0.0
C327 C 0.72258 0.65932 0.84259 0.0
N328 N 0.6957 0.67544 0.8383 0.0
C329 C 0.68315 0.68751 0.84182 0.0
H330 H 0.38152 0.64323 0.83489 0.0
H331 H 0.40124 0.67801 0.88069 0.0
H332 H 0.35197 0.63299 0.88228 0.0
C333 C 0.3801 0.64685 0.84837 0.0
C334 C 0.3654 0.63601 0.85771 0.0
C335 C 0.39299 0.66229 0.85644 0.0
C336 C 0.39118 0.6665 0.87405 0.0
C337 C 0.37628 0.6563 0.88326 0.0
C338 C 0.3634 0.64106 0.87508 0.0
N339 N 0.3748 0.66161 0.90081 0.0
C340 C 0.35736 0.65912 0.90871 0.0
H341 H 0.39197 0.30131 0.87799 0.0
H342 H 0.38861 0.34488 0.84048 0.0
H343 H 0.35899 0.34386 0.88773 0.0
C344 C 0.38635 0.31361 0.87388 0.0
C345 C 0.37468 0.32131 0.88494 0.0
C346 C 0.3914 0.3218 0.85779 0.0
C347 C 0.38482 0.33841 0.85278 0.0
C348 C 0.3731 0.34639 0.8637 0.0
C349 C 0.36823 0.33775 0.87961 0.0
N350 N 0.3658 0.36305 0.85961 0.0
C351 C 0.36682 0.3734 0.84425 0.0
Cu352 Cu 0.30165 0.24975 0.03748 0.0
N353 N 0.32208 0.25096 0.02254 0.0
N354 N 0.33883 0.2595 0.99895 0.0
C355 C 0.32592 0.26376 0.00982 0.0
C356 C 0.34359 0.24351 1.00532 0.0
C357 C 0.33332 0.23833 0.01983 0.0
O358 O 0.27859 0.24435 0.02127 0.0
C359 C 0.29802 0.27811 0.0638 0.0
O360 O 0.2795 0.27062 0.06376 0.0
H361 H 0.31862 0.27548 1.00804 0.0
H362 H 0.33352 0.22582 0.02739 0.0
N363 N 0.29885 0.22897 0.05269 0.0
N364 N 0.28771 0.21045 0.07486 0.0
C365 C 0.29103 0.22811 0.06837 0.0
C366 C 0.30051 0.21116 0.04912 0.0
C367 C 0.29386 0.1998 0.06273 0.0
C368 C 0.27449 0.2539 1.00815 0.0
O369 O 0.28227 0.27191 1.00755 0.0
H370 H 0.28685 0.24001 0.07444 0.0
H371 H 0.3052 0.20647 0.03705 0.0
O372 O 0.30815 0.27258 0.05241 0.0
H373 H 0.35346 0.23583 0.99969 0.0
H374 H 0.29309 0.18474 0.06325 0.0
Cu375 Cu 0.85297 0.31597 1.00228 0.0
N376 N 0.85416 0.33745 0.01612 0.0
N377 N 0.84275 0.35414 0.03608 0.0
C378 C 0.83835 0.34085 0.02336 0.0
C379 C 0.86221 0.35949 0.03685 0.0
C380 C 0.86924 0.34923 0.02437 0.0
O381 O 0.8523 0.29473 0.01773 0.0
C382 C 0.82885 0.32735 0.97696 0.0
O383 O 0.84258 0.34253 0.97886 0.0
H384 H 0.82404 0.33235 0.0205 0.0
H385 H 0.88429 0.34928 0.02246 0.0
N386 N 0.87331 0.31632 0.98792 0.0
N387 N 0.88711 0.30444 0.96622 0.0
C388 C 0.87042 0.30671 0.97268 0.0
C389 C 0.89264 0.32056 0.99125 0.0
C390 C 0.90122 0.31314 0.97786 0.0
C391 C 0.86637 0.29576 0.02914 0.0
O392 O 0.88024 0.31082 0.02976 0.0
H393 H 0.85621 0.29982 0.96734 0.0
H394 H 0.89991 0.32721 1.00313 0.0
O395 O 0.82991 0.31334 0.98668 0.0
H396 H 0.87077 0.36925 0.04638 0.0
H397 H 0.9165 0.31318 0.97726 0.0
Cu398 Cu 0.78377 0.76146 0.02116 0.0
N399 N 0.78541 0.7822 1.00578 0.0
N400 N 0.79334 0.79919 0.98181 0.0
C401 C 0.79509 0.7836 0.99104 0.0
C402 C 0.78208 0.80796 0.99125 0.0
C403 C 0.77719 0.79748 1.00589 0.0
O404 O 0.78066 0.74009 1.00454 0.0
C405 C 0.80822 0.78245 0.04615 0.0
O406 O 0.79572 0.7932 0.04196 0.0
H407 H 0.80323 0.77322 0.98719 0.0
H408 H 0.76813 0.80076 0.01581 0.0
N409 N 0.76226 0.75733 0.03525 0.0
N410 N 0.74299 0.74546 0.05648 0.0
C411 C 0.75995 0.74568 0.04906 0.0
C412 C 0.74625 0.76483 0.03398 0.0
C413 C 0.73442 0.75757 0.04694 0.0
C414 C 0.76544 0.73929 0.99436 0.0
O415 O 0.75359 0.75052 0.99787 0.0
H416 H 0.77044 0.73732 0.05338 0.0
H417 H 0.74326 0.77477 0.02423 0.0
O418 O 0.8065 0.76667 0.03802 0.0
H419 H 0.77729 0.82083 0.98769 0.0
H420 H 0.7206 0.76115 0.0492 0.0
Cu421 Cu 0.25353 0.73292 0.01079 0.0
N422 N 0.23077 0.73507 0.0209 0.0
N423 N 0.2109 0.74624 0.03787 0.0
C424 C 0.22947 0.74652 0.0344 0.0
C425 C 0.20014 0.73386 0.02616 0.0
C426 C 0.21246 0.72703 0.01568 0.0
O427 O 0.27437 0.73585 0.02885 0.0
C428 C 0.25348 0.7669 0.99189 0.0
O429 O 0.24597 0.77278 1.00557 0.0
H430 H 0.24198 0.75518 0.04125 0.0
H431 H 0.20836 0.71733 1.00472 0.0
N432 N 0.25128 0.7091 1.00071 0.0
N433 N 0.25864 0.68718 0.98323 0.0
C434 C 0.25902 0.70572 0.98579 0.0
C435 C 0.24559 0.69213 1.00783 0.0
C436 C 0.25016 0.67853 0.99706 0.0
C437 C 0.29082 0.73239 0.02579 0.0
O438 O 0.29434 0.72879 0.00968 0.0
H439 H 0.2663 0.7168 0.97776 0.0
H440 H 0.23967 0.68993 0.02046 0.0
O441 O 0.25853 0.75095 0.99222 0.0
H442 H 0.18449 0.73055 0.02477 0.0
H443 H 0.24825 0.66359 0.99963 0.0
Cu444 Cu 0.01597 0.25351 0.28486 0.0
N445 N 0.0267 0.2318 0.28127 0.0
N446 N 0.04737 0.21389 0.27272 0.0
C447 C 0.04458 0.23161 0.27592 0.0
C448 C 0.03052 0.20254 0.27635 0.0
C449 C 0.01788 0.21356 0.28155 0.0
O450 O 0.03746 0.27374 0.29228 0.0
C451 C 1.00707 0.25506 0.24816 0.0
O452 O 0.02414 0.25088 0.24647 0.0
H453 H 0.05503 0.24433 0.2737 0.0
H454 H 1.0031 0.20862 0.28484 0.0
N455 N 0.99744 0.25085 0.30193 0.0
N456 N 0.97301 0.25659 0.31737 0.0
C457 C 0.98483 0.2624 0.30439 0.0
C458 C 0.99352 0.23729 0.31381 0.0
C459 C 0.97855 0.24075 0.32329 0.0
C460 C 0.04717 0.27001 0.30589 0.0
O461 O 0.04131 0.25392 0.31362 0.0
H462 H 0.98417 0.27468 0.29655 0.0
H463 H 1.00102 0.22567 0.31549 0.0
O464 O 1.00204 0.25829 0.26329 0.0
H465 H 0.02737 0.18731 0.2752 0.0
H466 H 0.97241 0.2323 0.33387 0.0
Cu467 Cu 0.79199 0.01601 0.27106 0.0
N468 N 0.79689 0.02843 0.2489 0.0
N469 N 0.80936 0.04854 0.22883 0.0
C470 C 0.80939 0.04453 0.24597 0.0
C471 C 0.79636 0.0344 0.22078 0.0
C472 C 0.78867 0.02202 0.23322 0.0
O473 O 0.77971 0.03781 0.27934 0.0
C474 C 0.82045 0.99433 0.25853 0.0
O475 O 0.83269 0.01056 0.25998 0.0
H476 H 0.81859 0.05288 0.2561 0.0
H477 H 0.77794 0.00918 0.23103 0.0
N478 N 0.7866 1.0032 0.29297 0.0
N479 N 0.7745 0.98077 0.31117 0.0
C480 C 0.77754 0.98518 0.29444 0.0
C481 C 0.7895 0.01048 0.30928 0.0
C482 C 0.7819 0.99662 0.32059 0.0
C483 C 0.78936 0.05268 0.28706 0.0
O484 O 0.80822 0.05457 0.28961 0.0
H485 H 0.77266 0.9757 0.28341 0.0
H486 H 0.79628 0.02488 0.3127 0.0
O487 O 0.80303 0.99349 0.26248 0.0
H488 H 0.79253 0.03318 0.20691 0.0
H489 H 0.78173 0.99807 0.33459 0.0
Cu490 Cu 0.03374 0.76365 0.27202 0.0
N491 N 0.02537 0.78634 0.26692 0.0
N492 N 1.00665 0.80532 0.25495 0.0
C493 C 1.00736 0.78782 0.26077 0.0
C494 C 0.02492 0.81524 0.25766 0.0
C495 C 0.0364 0.80353 0.26503 0.0
O496 O 0.01176 0.74533 0.27871 0.0
C497 C 0.03824 0.75799 0.23596 0.0
O498 O 0.02136 0.76291 0.23334 0.0
H499 H 0.99533 0.77594 0.25941 0.0
H500 H 0.0519 0.807 0.26789 0.0
N501 N 0.05343 0.76555 0.29 0.0
N502 N 0.0781 0.75752 0.30621 0.0
C503 C 0.06716 0.75488 0.29097 0.0
C504 C 0.05577 0.77537 0.30514 0.0
C505 C 0.07095 0.77044 0.31517 0.0
C506 C 1.00204 0.75016 0.29074 0.0
O507 O 1.00736 0.76707 0.29788 0.0
H508 H 0.06851 0.74474 0.28096 0.0
H509 H 0.04674 0.78501 0.30884 0.0
O510 O 0.04483 0.75598 0.25146 0.0
H511 H 0.02979 0.82976 0.25403 0.0
H512 H 0.07616 0.77581 0.32812 0.0
Cu513 Cu 0.24518 1.00206 0.28536 0.0
N514 N 0.24571 0.01327 0.30732 0.0
N515 N 0.25629 0.03611 0.32726 0.0
C516 C 0.25162 0.03191 0.31026 0.0
C517 C 0.25314 0.01944 0.33545 0.0
C518 C 0.24648 1.00533 0.32309 0.0
O519 O 0.2455 0.0228 0.26858 0.0
C520 C 0.26249 0.97138 0.29377 0.0
O521 O 0.24507 0.96556 0.2991 0.0
H522 H 0.25459 0.042 0.29995 0.0
H523 H 0.24412 0.99032 0.32528 0.0
N524 N 0.22227 0.98469 0.27972 0.0
N525 N 0.2025 0.96116 0.26485 0.0
C526 C 0.21949 0.97361 0.26535 0.0
C527 C 0.20643 0.9793 0.28868 0.0
C528 C 0.19414 0.96478 0.27949 0.0
C529 C 0.23007 0.02968 0.26813 0.0
O530 O 0.21638 0.02226 0.27824 0.0
H531 H 0.23001 0.97457 0.25561 0.0
H532 H 0.20425 0.98513 0.30121 0.0
O533 O 0.2664 0.98757 0.28664 0.0
H534 H 0.2567 0.01751 0.34914 0.0
H535 H 0.18049 0.95707 0.28361 0.0
Cu536 Cu 0.02033 0.77235 0.76726 0.0
N537 N 0.03248 0.75141 0.76543 0.0
N538 N 0.05273 0.73381 0.7556 0.0
C539 C 0.0487 0.75131 0.75696 0.0
C540 C 0.03846 0.7225 0.76365 0.0
C541 C 0.02604 0.73334 0.76965 0.0
O542 O 0.04166 0.79391 0.76818 0.0
C543 C 0.98688 0.75974 0.74704 0.0
O544 O 0.98337 0.74976 0.76111 0.0
H545 H 0.05686 0.76374 0.75116 0.0
H546 H 0.01288 0.72829 0.77609 0.0
N547 N 1.00544 0.77256 0.78697 0.0
N548 N 0.98274 0.77923 0.80403 0.0
C549 C 0.99134 0.7826 0.78877 0.0
C550 C 1.0058 0.76251 0.80162 0.0
C551 C 0.99187 0.76655 0.8121 0.0
C552 C 0.04446 0.80716 0.77956 0.0
O553 O 0.03059 0.80876 0.7897 0.0
H554 H 0.98724 0.79193 0.77887 0.0
H555 H 0.01542 0.75281 0.80444 0.0
O556 O 1.0029 0.77136 0.74653 0.0
H557 H 0.03691 0.70739 0.76493 0.0
H558 H 0.98886 0.76068 0.82478 0.0
Cu559 Cu 0.29803 0.031 0.79705 0.0
N560 N 0.30112 0.0462 0.77609 0.0
N561 N 0.30591 0.07057 0.75809 0.0
C562 C 0.30754 0.06493 0.77477 0.0
C563 C 0.29833 0.05474 0.74866 0.0
C564 C 0.29535 0.03977 0.7598 0.0
O565 O 0.28641 0.05163 0.80885 0.0
C566 C 0.32223 1.00209 0.78998 0.0
O567 O 0.33141 0.00745 0.80511 0.0
H568 H 0.31267 0.07428 0.78583 0.0
H569 H 0.28907 0.02525 0.75633 0.0
N570 N 0.29402 0.01519 0.81761 0.0
N571 N 0.28371 0.98997 0.83351 0.0
C572 C 0.28522 0.99691 0.81732 0.0
C573 C 0.29829 0.01996 0.83458 0.0
C574 C 0.29177 1.00439 0.84445 0.0
C575 C 0.29582 0.0644 0.81937 0.0
O576 O 0.31426 0.06482 0.8234 0.0
H577 H 0.27965 0.98898 0.80549 0.0
H578 H 0.30546 0.03371 0.83952 0.0
O579 O 0.30839 0.01002 0.78441 0.0
H580 H 0.29511 0.05399 0.7347 0.0
H581 H 0.29293 1.00367 0.85853 0.0
Cu582 Cu 0.04301 0.28924 0.78487 0.0
N583 N 0.03119 0.31028 0.78181 0.0
N584 N 1.00898 0.32637 0.77105 0.0
C585 C 0.01268 0.3093 0.77565 0.0
C586 C 0.02588 0.33859 0.77484 0.0
C587 C 0.03953 0.32864 0.78135 0.0
O588 O 0.02348 0.26842 0.79139 0.0
C589 C 0.05041 0.29093 0.74879 0.0
O590 O 0.03676 0.30088 0.74705 0.0
H591 H 1.00252 0.29606 0.77361 0.0
H592 H 0.05476 0.33423 0.78431 0.0
N593 N 0.06364 0.29234 0.80203 0.0
N594 N 0.08855 0.28493 0.8183 0.0
C595 C 0.07372 0.2788 0.80634 0.0
C596 C 0.07231 0.30761 0.81164 0.0
C597 C 0.08771 0.3031 0.82165 0.0
C598 C 0.01802 0.26862 0.80681 0.0
O599 O 0.02608 0.28263 0.81745 0.0
H600 H 0.07052 0.26485 0.80038 0.0
H601 H 0.06793 0.32111 0.81129 0.0
O602 O 0.0539 0.28373 0.76342 0.0
H603 H 0.02867 0.35348 0.77201 0.0
H604 H 0.09747 0.31248 0.83071 0.0
Cu605 Cu 0.772 0.00694 0.74382 0.0
N606 N 0.79705 0.0211 0.74585 0.0
N607 N 0.82068 0.04415 0.75681 0.0
C608 C 0.80143 0.03805 0.75392 0.0
C609 C 0.82877 0.0305 0.75002 0.0
C610 C 0.8141 0.01625 0.74323 0.0
O611 O 0.75566 0.02632 0.74122 0.0
C612 C 0.78115 0.99101 0.77718 0.0
O613 O 0.79296 0.00726 0.78037 0.0
H614 H 0.79057 0.04493 0.75893 0.0
H615 H 0.8157 1.00288 0.73776 0.0
N616 N 0.76829 0.99134 0.72401 0.0
N617 N 0.75734 0.96524 0.70771 0.0
C618 C 0.75868 0.97334 0.72372 0.0
C619 C 0.77345 0.99489 0.70765 0.0
C620 C 0.76672 0.97879 0.69754 0.0
C621 C 0.74256 0.02653 0.72896 0.0
O622 O 0.73643 0.01131 0.71922 0.0
H623 H 0.75283 0.96641 0.73518 0.0
H624 H 0.78128 0.00829 0.70334 0.0
O625 O 0.76941 0.98924 0.7636 0.0
H626 H 0.8441 0.03042 0.75056 0.0
H627 H 0.76827 0.97737 0.68372 0.0
Cu628 Cu 0.28328 0.75086 0.53117 0.0
N629 N 0.30574 0.75673 0.54644 0.0
N630 N 0.32438 0.76925 0.57009 0.0
C631 C 0.30713 0.76776 0.56089 0.0
C632 C 0.33426 0.75871 0.56094 0.0
C633 C 0.32274 0.75098 0.54644 0.0
O634 O 0.26211 0.7474 0.54724 0.0
C635 C 0.29876 0.7698 0.50309 0.0
O636 O 0.31015 0.75777 0.50662 0.0
H637 H 0.29557 0.77454 0.56453 0.0
H638 H 0.32642 0.74165 0.53674 0.0
N639 N 0.28085 0.72845 0.51774 0.0
N640 N 0.27287 0.70913 0.49425 0.0
C641 C 0.27108 0.72552 0.50195 0.0
C642 C 0.28911 0.71334 0.52022 0.0
C643 C 0.28416 0.7014 0.50583 0.0
C644 C 0.26351 0.73482 0.55868 0.0
O645 O 0.27734 0.72517 0.55767 0.0
H646 H 0.26305 0.73548 0.49613 0.0
H647 H 0.29849 0.71137 0.53145 0.0
O648 O 0.28523 0.77057 0.51324 0.0
H649 H 0.34864 0.75637 0.56462 0.0
H650 H 0.28908 0.68833 0.50386 0.0
Cu651 Cu 0.80989 0.77624 0.49951 0.0
N652 N 0.80945 0.7528 0.4893 0.0
N653 N 0.81514 0.73097 0.4708 0.0
C654 C 0.816 0.74955 0.47376 0.0
C655 C 0.80765 0.72226 0.48502 0.0
C656 C 0.80415 0.73578 0.49642 0.0
O657 O 0.81173 0.79436 0.48102 0.0
C658 C 0.84736 0.77692 0.51414 0.0
O659 O 0.85084 0.77348 0.49799 0.0
H660 H 0.82197 0.76066 0.46513 0.0
H661 H 0.79853 0.73344 0.50915 0.0
N662 N 0.78677 0.77551 0.51004 0.0
N663 N 0.7656 0.7791 0.52952 0.0
C664 C 0.78448 0.78059 0.52651 0.0
C665 C 0.76882 0.77056 0.50236 0.0
C666 C 0.75572 0.77276 0.51434 0.0
C667 C 0.80425 0.80894 0.48168 0.0
O668 O 0.79816 0.81374 0.49652 0.0
H669 H 0.79644 0.78571 0.53593 0.0
H670 H 0.76556 0.76585 0.48894 0.0
O671 O 0.83103 0.78068 0.51719 0.0
H672 H 0.80495 0.7072 0.4871 0.0
H673 H 0.74012 0.76978 0.51207 0.0
Cu674 Cu 0.79298 0.25056 0.52073 0.0
N675 N 0.79424 0.23133 0.50454 0.0
N676 N 0.78658 0.21547 0.47904 0.0
C677 C 0.78157 0.22764 0.49045 0.0
C678 C 0.80309 0.21121 0.48636 0.0
C679 C 0.80777 0.221 0.50207 0.0
O680 O 0.7888 0.2705 0.50417 0.0
C681 C 0.77533 0.22488 0.54434 0.0
O682 O 0.78936 0.21692 0.53942 0.0
H683 H 0.76948 0.23467 0.48817 0.0
H684 H 0.82047 0.22103 0.51071 0.0
N685 N 0.81548 0.25903 0.53553 0.0
N686 N 0.83362 0.27331 0.55882 0.0
C687 C 0.81572 0.26883 0.55059 0.0
C688 C 0.8339 0.25717 0.53412 0.0
C689 C 0.84507 0.26592 0.54839 0.0
C690 C 0.80284 0.28348 0.50006 0.0
O691 O 0.81866 0.28711 0.51043 0.0
H692 H 0.8029 0.27278 0.55521 0.0
H693 H 0.83893 0.25013 0.52342 0.0
O694 O 0.77303 0.24028 0.53705 0.0
H695 H 0.81142 0.20196 0.48065 0.0
H696 H 0.86044 0.2666 0.55086 0.0
Cu697 Cu 0.29491 0.27635 0.5214 0.0
N698 N 0.27367 0.27152 0.53503 0.0
N699 N 0.25687 0.27112 0.5587 0.0
C700 C 0.27454 0.27265 0.55252 0.0
C701 C 0.24432 0.26853 0.54447 0.0
C702 C 0.25476 0.26881 0.52987 0.0
O703 O 0.31788 0.28025 0.53724 0.0
C704 C 0.28429 0.31065 0.51089 0.0
O705 O 0.27866 0.31116 0.52681 0.0
H706 H 0.28796 0.27506 0.56051 0.0
H707 H 0.24908 0.26803 0.51643 0.0
N708 N 0.2947 0.25545 0.50722 0.0
N709 N 0.30067 0.23809 0.48491 0.0
C710 C 0.3044 0.25528 0.49277 0.0
C711 C 0.28448 0.23782 0.50863 0.0
C712 C 0.28811 0.22705 0.49484 0.0
C713 C 0.32209 0.29419 0.54788 0.0
O714 O 0.31298 0.30828 0.54582 0.0
H715 H 0.3136 0.26767 0.48791 0.0
H716 H 0.27492 0.23319 0.51888 0.0
O717 O 0.29273 0.2975 0.50647 0.0
H718 H 0.22883 0.26751 0.5445 0.0
H719 H 0.28203 0.21226 0.49236 0.0
Cu720 Cu 0.79661 0.52777 0.77229 0.0
N721 N 0.79256 0.53929 0.75102 0.0
N722 N 0.79902 0.55741 0.72788 0.0
C723 C 0.80621 0.55106 0.74284 0.0
C724 C 0.78019 0.54896 0.72625 0.0
C725 C 0.77623 0.53773 0.74057 0.0
O726 O 0.79862 0.54657 0.79149 0.0
C727 C 0.82431 0.50242 0.77808 0.0
O728 O 0.81884 0.49984 0.79404 0.0
H729 H 0.82113 0.55513 0.74789 0.0
H730 H 0.76238 0.52925 0.74327 0.0
N731 N 0.77446 0.50989 0.77626 0.0
N732 N 0.75557 0.48422 0.78634 0.0
C733 C 0.77333 0.49191 0.7813 0.0
C734 C 0.75673 0.51361 0.77791 0.0
C735 C 0.74503 0.49781 0.78405 0.0
C736 C 0.80364 0.56439 0.78976 0.0
O737 O 0.81193 0.57087 0.77565 0.0
H738 H 0.78553 0.48495 0.78224 0.0
H739 H 0.7529 0.52721 0.77569 0.0
O740 O 0.81802 0.51467 0.76864 0.0
H741 H 0.76992 0.5513 0.71582 0.0
H742 H 0.73013 0.4967 0.78717 0.0
Cu743 Cu 0.29342 0.50985 0.75736 0.0
N744 N 0.31612 0.50004 0.76235 0.0
N745 N 0.33443 0.47993 0.77317 0.0
C746 C 0.31629 0.48279 0.76906 0.0
C747 C 0.34614 0.4961 0.76867 0.0
C748 C 0.33485 0.50842 0.76204 0.0
O749 O 0.27359 0.48833 0.74966 0.0
C750 C 0.29546 0.52102 0.79322 0.0
O751 O 0.30319 0.50622 0.79656 0.0
H752 H 0.30321 0.4729 0.77165 0.0
H753 H 0.33994 0.52266 0.75777 0.0
N754 N 0.2947 0.52836 0.74 0.0
N755 N 0.28631 0.55254 0.72497 0.0
C756 C 0.28325 0.54133 0.73899 0.0
C757 C 0.30551 0.53147 0.72614 0.0
C758 C 0.30036 0.5463 0.71685 0.0
C759 C 0.27843 0.47903 0.73714 0.0
O760 O 0.29493 0.48545 0.73023 0.0
H761 H 0.2725 0.54218 0.74822 0.0
H762 H 0.31625 0.52342 0.72292 0.0
O763 O 0.28814 0.52301 0.77797 0.0
H764 H 0.36179 0.499 0.77023 0.0
H765 H 0.3066 0.55208 0.70508 0.0
Cu766 Cu 0.30424 0.5126 0.28217 0.0
N767 N 0.30639 0.49758 0.30155 0.0
N768 N 0.29654 0.47405 0.31958 0.0
C769 C 0.29355 0.48159 0.3039 0.0
C770 C 0.31199 0.48577 0.32745 0.0
C771 C 0.31815 0.50027 0.31622 0.0
O772 O 0.30062 0.49453 0.26225 0.0
C773 C 0.28743 0.53694 0.30072 0.0
O774 O 0.30343 0.53635 0.31022 0.0
H775 H 0.28155 0.47617 0.2946 0.0
H776 H 0.32978 0.5123 0.31888 0.0
N777 N 0.32649 0.53081 0.27917 0.0
N778 N 0.34473 0.55547 0.26703 0.0
C779 C 0.3267 0.54546 0.26843 0.0
C780 C 0.34506 0.53172 0.28501 0.0
C781 C 0.35641 0.54687 0.27737 0.0
C782 C 0.31571 0.48796 0.25929 0.0
O783 O 0.33177 0.49422 0.26885 0.0
H784 H 0.31393 0.54817 0.26111 0.0
H785 H 0.3501 0.52164 0.29359 0.0
O786 O 0.28391 0.52705 0.2866 0.0
H787 H 0.31809 0.48423 0.34052 0.0
H788 H 0.37201 0.55105 0.27901 0.0
Cu789 Cu 0.7486 0.50058 0.25592 0.0
N790 N 0.74741 0.4849 0.27567 0.0
N791 N 0.75555 0.46358 0.29464 0.0
C792 C 0.75658 0.47022 0.27819 0.0
C793 C 0.74523 0.47453 0.30274 0.0
C794 C 0.74034 0.48763 0.2911 0.0
O795 O 0.7443 0.48451 0.23531 0.0
C796 C 0.7828 0.52636 0.24641 0.0
O797 O 0.77436 0.52698 0.23076 0.0
H798 H 0.76473 0.46516 0.26839 0.0
H799 H 0.73288 0.49887 0.29397 0.0
N800 N 0.7305 0.51691 0.25472 0.0
N801 N 0.71543 0.54064 0.24653 0.0
C802 C 0.73131 0.53284 0.2453 0.0
C803 C 0.7135 0.51455 0.26216 0.0
C804 C 0.70427 0.52906 0.25724 0.0
C805 C 0.75723 0.4765 0.22963 0.0
O806 O 0.77475 0.48003 0.23733 0.0
H807 H 0.7431 0.53833 0.23731 0.0
H808 H 0.70799 0.5029 0.27038 0.0
O809 O 0.77427 0.51583 0.25787 0.0
H810 H 0.74174 0.47346 0.31623 0.0
H811 H 0.69035 0.53083 0.26131 0.0
Cu812 Cu 0.52584 0.24715 0.77151 0.0
N813 N 0.50567 0.24429 0.78675 0.0
N814 N 0.48145 0.25161 0.80132 0.0
C815 C 0.49626 0.25801 0.79117 0.0
C816 C 0.48168 0.23308 0.80332 0.0
C817 C 0.49652 0.22861 0.7943 0.0
O818 O 0.51382 0.25069 0.74874 0.0
C819 C 0.55073 0.26946 0.79536 0.0
O820 O 0.54207 0.25645 0.80564 0.0
H821 H 0.49989 0.2723 0.78655 0.0
H822 H 0.50011 0.21482 0.79306 0.0
N823 N 0.53904 0.22686 0.77094 0.0
N824 N 0.56013 0.20954 0.76251 0.0
C825 C 0.55039 0.22344 0.75829 0.0
C826 C 0.54183 0.21481 0.7837 0.0
C827 C 0.55476 0.2041 0.77854 0.0
C828 C 0.50623 0.23627 0.73936 0.0
O829 O 0.50868 0.21955 0.7445 0.0
H830 H 0.55209 0.23157 0.74651 0.0
H831 H 0.53552 0.21433 0.79617 0.0
O832 O 0.54521 0.26879 0.77926 0.0
H833 H 0.47181 0.22331 0.81073 0.0
H834 H 0.55997 0.19333 0.78611 0.0
Cu835 Cu 0.53137 0.76726 0.78587 0.0
N836 N 0.55309 0.76945 0.80193 0.0
N837 N 0.57967 0.762 0.81562 0.0
C838 C 0.56323 0.75571 0.80546 0.0
C839 C 0.57976 0.78046 0.81859 0.0
C840 C 0.56347 0.785 0.81011 0.0
O841 O 0.54166 0.7663 0.7631 0.0
C842 C 0.5066 0.74579 0.80676 0.0
O843 O 0.51481 0.76008 0.81704 0.0
H844 H 0.55907 0.74161 0.79991 0.0
H845 H 0.55991 0.79887 0.80938 0.0
N846 N 0.51806 0.78755 0.78638 0.0
N847 N 0.49647 0.80555 0.77836 0.0
C848 C 0.50516 0.7913 0.77377 0.0
C849 C 0.51748 0.79985 0.79944 0.0
C850 C 0.50424 0.81094 0.79454 0.0
C851 C 0.54963 0.78211 0.75708 0.0
O852 O 0.54924 0.79763 0.76588 0.0
H853 H 0.50176 0.78326 0.76169 0.0
H854 H 0.52567 0.80037 0.81186 0.0
O855 O 0.51246 0.74504 0.7915 0.0
H856 H 0.59096 0.79016 0.8261 0.0
H857 H 0.50057 0.82203 0.80237 0.0
Cu858 Cu 0.50024 0.76305 0.27974 0.0
N859 N 0.48166 0.76058 0.29667 0.0
N860 N 0.45801 0.76716 0.31253 0.0
C861 C 0.47046 0.77318 0.30009 0.0
C862 C 0.46167 0.75011 0.3171 0.0
C863 C 0.47619 0.74612 0.30736 0.0
O864 O 0.4867 0.7686 0.25832 0.0
C865 C 0.52906 0.78166 0.30267 0.0
O866 O 0.52058 0.76818 0.31258 0.0
H867 H 0.47119 0.78635 0.2933 0.0
H868 H 0.48232 0.73354 0.30803 0.0
N869 N 0.51024 0.74104 0.27595 0.0
N870 N 0.5301 0.72269 0.26669 0.0
C871 C 0.52805 0.74046 0.27068 0.0
C872 C 0.5007 0.72301 0.27538 0.0
C873 C 0.51285 0.7117 0.26976 0.0
C874 C 0.49178 0.76564 0.24317 0.0
O875 O 0.50873 0.76118 0.24146 0.0
H876 H 0.53892 0.753 0.2689 0.0
H877 H 0.48571 0.71845 0.27819 0.0
O878 O 0.52204 0.78277 0.28714 0.0
H879 H 0.45452 0.74115 0.32693 0.0
H880 H 0.50906 0.69657 0.26781 0.0
Cu881 Cu 0.53418 0.24601 0.2471 0.0
N882 N 0.51667 0.22327 0.24893 0.0
N883 N 0.48989 0.2037 0.25628 0.0
C884 C 0.499 0.22182 0.25495 0.0
C885 C 0.5024 0.19328 0.2509 0.0
C886 C 0.51892 0.20543 0.24632 0.0
O887 O 0.51815 0.26571 0.24544 0.0
C888 C 0.567 0.23697 0.2646 0.0
O889 O 0.5658 0.22678 0.25026 0.0
H890 H 0.49328 0.23388 0.25897 0.0
H891 H 0.5318 0.20151 0.2418 0.0
N892 N 0.54696 0.24661 0.22648 0.0
N893 N 0.56976 0.25555 0.20769 0.0
C894 C 0.56295 0.25921 0.22308 0.0
C895 C 0.54341 0.23453 0.21276 0.0
C896 C 0.55742 0.24006 0.2011 0.0
C897 C 0.50718 0.26485 0.23139 0.0
O898 O 0.50796 0.25172 0.21976 0.0
H899 H 0.56951 0.27072 0.2319 0.0
H900 H 0.53168 0.22239 0.21148 0.0
O901 O 0.55433 0.24718 0.26656 0.0
H902 H 0.49987 0.17803 0.25048 0.0
H903 H 0.55872 0.23289 0.18898 0.0
H904 H 0.22846 0.20442 0.17086 0.0
H905 H 0.27184 0.17421 0.08352 0.0
H906 H 0.2252 0.14656 0.15489 0.0
H907 H 0.28064 0.23183 0.10237 0.0
H908 H 0.25458 0.16397 0.10928 0.0
H909 H 0.24691 0.21475 0.14558 0.0
C910 C 0.23153 0.19385 0.16202 0.0
C911 C 0.22514 0.17453 0.16511 0.0
C912 C 0.26032 0.17886 0.1078 0.0
C913 C 0.24652 0.18636 0.13599 0.0
C914 C 0.27034 0.18479 0.09302 0.0
C915 C 0.27786 0.20405 0.09047 0.0
C916 C 0.25759 0.19219 0.12026 0.0
C917 C 0.27501 0.2169 0.10343 0.0
C918 C 0.2422 0.19978 0.14761 0.0
C919 C 0.22993 0.16158 0.15324 0.0
N920 N 0.26511 0.21076 0.11765 0.0
N921 N 0.24021 0.1677 0.13924 0.0
H922 H 0.90378 0.22651 0.111 0.0
H923 H 0.84107 0.26182 0.03161 0.0
H924 H 0.85119 0.19297 0.08729 0.0
H925 H 0.89433 0.29476 0.05507 0.0
H926 H 0.84395 0.23668 0.05228 0.0
H927 H 0.90011 0.25215 0.09099 0.0
C928 C 0.89146 0.22465 0.10156 0.0
C929 C 0.87776 0.20782 0.10062 0.0
C930 C 0.85499 0.24944 0.0529 0.0
C931 C 0.8734 0.23676 0.0778 0.0
C932 C 0.85334 0.26378 0.0411 0.0
C933 C 0.86749 0.2804 0.04157 0.0
C934 C 0.8709 0.25175 0.06524 0.0
C935 C 0.88308 0.28218 0.05418 0.0
C936 C 0.88933 0.2392 0.09016 0.0
C937 C 0.86202 0.20588 0.08829 0.0
N938 N 0.88437 0.26805 0.06547 0.0
N939 N 0.86025 0.22019 0.0773 0.0
H940 H 0.86762 0.79811 0.1498 0.0
H941 H 0.82634 0.81828 0.05356 0.0
H942 H 0.86444 0.85303 0.12966 0.0
H943 H 0.82273 0.76177 0.07244 0.0
H944 H 0.84506 0.83061 0.08018 0.0
H945 H 0.85556 0.78407 0.12091 0.0
C946 C 0.86465 0.80723 0.13926 0.0
C947 C 0.86687 0.82678 0.14223 0.0
C948 C 0.84044 0.81548 0.07855 0.0
C949 C 0.85311 0.81084 0.10918 0.0
C950 C 0.8298 0.8084 0.06324 0.0
C951 C 0.82292 0.78896 0.06074 0.0
C952 C 0.84412 0.80311 0.09181 0.0
C953 C 0.82789 0.77685 0.07378 0.0
C954 C 0.85769 0.7992 0.12281 0.0
C955 C 0.8627 0.83789 0.1281 0.0
N956 N 0.83797 0.78414 0.08889 0.0
N957 N 0.856 0.82979 0.11234 0.0
H958 H 0.20091 0.83683 0.10748 0.0
H959 H 0.17593 0.73984 0.0522 0.0
H960 H 0.14498 0.79988 0.10591 0.0
H961 H 0.23014 0.77972 0.05209 0.0
H962 H 0.16449 0.76056 0.07268 0.0
H963 H 0.21222 0.81489 0.0882 0.0
C964 C 0.19106 0.82399 0.10305 0.0
C965 C 0.17208 0.82002 0.10813 0.0
C966 C 0.17891 0.7647 0.06819 0.0
C967 C 0.18473 0.79489 0.08608 0.0
C968 C 0.18543 0.75291 0.05643 0.0
C969 C 0.20407 0.75795 0.05036 0.0
C970 C 0.19111 0.78167 0.07392 0.0
C971 C 0.21581 0.775 0.05653 0.0
C972 C 0.19747 0.81148 0.09204 0.0
C973 C 0.15976 0.80331 0.10215 0.0
N974 N 0.20912 0.7862 0.0679 0.0
N975 N 0.1663 0.79129 0.09137 0.0
H976 H 0.2134 0.82915 0.90678 0.0
H977 H 0.26732 0.75841 0.96098 0.0
H978 H 0.24136 0.78836 0.88336 0.0
H979 H 0.23857 0.79855 0.98477 0.0
H980 H 0.26218 0.77248 0.93273 0.0
H981 H 0.22653 0.82143 0.9356 0.0
C982 C 0.22263 0.81882 0.90776 0.0
C983 C 0.22642 0.80934 0.89289 0.0
C984 C 0.25718 0.77837 0.94414 0.0
C985 C 0.24117 0.80021 0.92557 0.0
C986 C 0.26015 0.77035 0.96032 0.0
C987 C 0.25314 0.77714 0.97527 0.0
C988 C 0.24703 0.79323 0.94284 0.0
C989 C 0.24408 0.79274 0.97359 0.0
C990 C 0.23006 0.81436 0.92416 0.0
C991 C 0.23824 0.79596 0.89465 0.0
N992 N 0.24108 0.80011 0.95764 0.0
N993 N 0.24508 0.79165 0.91074 0.0
H994 H 0.20923 0.20945 0.91141 0.0
H995 H 0.27748 0.21869 0.99726 0.0
H996 H 0.26558 0.19437 0.91134 0.0
H997 H 0.25212 0.26611 0.9815 0.0
H998 H 0.26657 0.20347 0.96884 0.0
H999 H 0.21873 0.2249 0.93979 0.0
C1000 C 0.22362 0.20938 0.91708 0.0
C1001 C 0.23655 0.20044 0.90847 0.0
C1002 C 0.26322 0.2171 0.97171 0.0
C1003 C 0.24702 0.2175 0.94173 0.0
C1004 C 0.26924 0.22574 0.98798 0.0
C1005 C 0.26557 0.24368 0.99186 0.0
C1006 C 0.25296 0.22617 0.95932 0.0
C1007 C 0.25518 0.25226 0.9791 0.0
C1008 C 0.22891 0.21814 0.93346 0.0
C1009 C 0.25475 0.20052 0.91727 0.0
N1010 N 0.24907 0.24336 0.96345 0.0
N1011 N 0.25931 0.20869 0.93339 0.0
H1012 H 0.85195 0.22455 0.88217 0.0
H1013 H 0.91285 0.28115 0.96405 0.0
H1014 H 0.89768 0.20468 0.91165 0.0
H1015 H 0.86405 0.29808 0.93657 0.0
H1016 H 0.91086 0.25561 0.94251 0.0
H1017 H 0.85909 0.2538 0.8997 0.0
C1018 C 0.86358 0.22648 0.89232 0.0
C1019 C 0.87419 0.21234 0.89567 0.0
C1020 C 0.90075 0.26507 0.94107 0.0
C1021 C 0.88247 0.24555 0.91577 0.0
C1022 C 0.90201 0.27976 0.95326 0.0
C1023 C 0.88848 0.29164 0.95215 0.0
C1024 C 0.88589 0.26231 0.92767 0.0
C1025 C 0.87458 0.28905 0.93802 0.0
C1026 C 0.86768 0.24313 0.90231 0.0
C1027 C 0.88916 0.21536 0.90883 0.0
N1028 N 0.87354 0.2746 0.92644 0.0
N1029 N 0.89281 0.23163 0.91852 0.0
H1030 H 0.83556 0.86221 0.89101 0.0
H1031 H 0.80605 0.77739 0.95762 0.0
H1032 H 0.84314 0.80525 0.88203 0.0
H1033 H 0.79899 0.83435 0.96756 0.0
H1034 H 0.8194 0.78742 0.92991 0.0
H1035 H 0.82154 0.85233 0.91866 0.0
C1036 C 0.83421 0.84761 0.89473 0.0
C1037 C 0.84075 0.83464 0.88403 0.0
C1038 C 0.81494 0.79775 0.93814 0.0
C1039 C 0.82473 0.82319 0.91599 0.0
C1040 C 0.80737 0.79203 0.95412 0.0
C1041 C 0.80133 0.80498 0.96522 0.0
C1042 C 0.81658 0.81662 0.933 0.0
C1043 C 0.80321 0.82373 0.95954 0.0
C1044 C 0.82628 0.84199 0.91063 0.0
C1045 C 0.83871 0.81593 0.88985 0.0
N1046 N 0.81065 0.82895 0.94393 0.0
N1047 N 0.83095 0.81083 0.90532 0.0
H1048 H 0.12413 0.15722 0.21741 0.0
H1049 H 0.08466 0.23374 0.27417 0.0
H1050 H 0.16038 0.20812 0.23886 0.0
H1051 H 0.04902 0.1811 0.25548 0.0
H1052 H 0.11261 0.22424 0.26207 0.0
H1053 H 0.09678 0.1649 0.23236 0.0
C1054 C 0.12642 0.16979 0.2256 0.0
C1055 C 0.1446 0.18189 0.22717 0.0
C1056 C 0.09868 0.21472 0.26067 0.0
C1057 C 0.11324 0.19115 0.24391 0.0
C1058 C 0.08262 0.22021 0.26752 0.0
C1059 C 0.06424 0.2083 0.26591 0.0
C1060 C 0.09652 0.19717 0.252 0.0
C1061 C 0.06278 0.19077 0.25728 0.0
C1062 C 0.11077 0.17428 0.23403 0.0
C1063 C 0.14666 0.19826 0.23756 0.0
N1064 N 0.07859 0.18583 0.25064 0.0
N1065 N 0.1312 0.20246 0.24544 0.0
H1066 H 0.87437 0.12243 0.15705 0.0
H1067 H 0.82283 0.0835 0.24295 0.0
H1068 H 0.86594 0.15857 0.19952 0.0
H1069 H 0.82201 0.05 0.19626 0.0
H1070 H 0.84154 0.1106 0.22859 0.0
H1071 H 0.85795 0.09519 0.17254 0.0
C1072 C 0.86901 0.12466 0.16961 0.0
C1073 C 0.87139 0.14288 0.1769 0.0
C1074 C 0.83728 0.0973 0.22151 0.0
C1075 C 0.85278 0.11163 0.19485 0.0
C1076 C 0.8267 0.08181 0.22973 0.0
C1077 C 0.82078 0.06449 0.22075 0.0
C1078 C 0.84209 0.09541 0.20424 0.0
C1079 C 0.82602 0.06315 0.20357 0.0
C1080 C 0.85971 0.10907 0.17849 0.0
C1081 C 0.86455 0.1448 0.19344 0.0
N1082 N 0.83638 0.07839 0.19589 0.0
N1083 N 0.8555 0.12938 0.20183 0.0
H1084 H 0.8943 0.82992 0.22141 0.0
H1085 H 1.00774 0.82944 0.2279 0.0
H1086 H 0.92974 0.84185 0.1777 0.0
H1087 H 0.96846 0.79488 0.26077 0.0
H1088 H 0.98008 0.83882 0.21188 0.0
H1089 H 0.92205 0.82166 0.23853 0.0
C1090 C 0.90796 0.83096 0.21548 0.0
C1091 C 0.90969 0.83654 0.19808 0.0
C1092 C 0.97751 0.82922 0.22263 0.0
C1093 C 0.94151 0.82728 0.21762 0.0
C1094 C 0.9933 0.82396 0.23187 0.0
C1095 C 0.99043 0.81136 0.24573 0.0
C1096 C 0.95863 0.82213 0.22745 0.0
C1097 C 0.97132 0.80452 0.25011 0.0
C1098 C 0.92373 0.82613 0.22521 0.0
C1099 C 0.92772 0.8375 0.19102 0.0
N1100 N 0.95616 0.81008 0.24109 0.0
N1101 N 0.94291 0.83303 0.20081 0.0
H1102 H 0.13355 0.87191 0.19945 0.0
H1103 H 0.22388 0.94542 0.24294 0.0
H1104 H 0.19109 0.88063 0.1812 0.0
H1105 H 0.16527 0.94287 0.25716 0.0
H1106 H 0.21205 0.921 0.22093 0.0
H1107 H 0.14482 0.89701 0.22134 0.0
C1108 C 0.14856 0.87908 0.20007 0.0
C1109 C 0.16141 0.87414 0.18849 0.0
C1110 C 0.20173 0.9258 0.22881 0.0
C1111 C 0.17438 0.90291 0.21346 0.0
C1112 C 0.20848 0.9399 0.24137 0.0
C1113 C 0.19556 0.94645 0.25191 0.0
C1114 C 0.18189 0.91801 0.22672 0.0
C1115 C 0.1758 0.93823 0.24946 0.0
C1116 C 0.15496 0.89347 0.21251 0.0
C1117 C 0.18064 0.88409 0.18973 0.0
N1118 N 0.16957 0.92445 0.23712 0.0
N1119 N 0.18654 0.89792 0.20202 0.0
H1120 H 0.16401 0.81739 0.80913 0.0
H1121 H 0.05674 0.8355 0.80397 0.0
H1122 H 0.14755 0.8621 0.83833 0.0
H1123 H 0.07794 0.80166 0.7661 0.0
H1124 H 0.09004 0.84709 0.81559 0.0
H1125 H 0.13273 0.81243 0.79245 0.0
C1126 C 0.15379 0.82619 0.81198 0.0
C1127 C 0.15825 0.84004 0.82523 0.0
C1128 C 0.08742 0.83738 0.80455 0.0
C1129 C 0.12242 0.83447 0.80622 0.0
C1130 C 0.0684 0.83078 0.79787 0.0
C1131 C 0.06448 0.81737 0.78419 0.0
C1132 C 0.10258 0.83033 0.79764 0.0
C1133 C 0.08021 0.81185 0.77676 0.0
C1134 C 0.136 0.82347 0.80238 0.0
C1135 C 0.14464 0.85127 0.82821 0.0
N1136 N 0.09851 0.81811 0.78377 0.0
N1137 N 0.12721 0.84809 0.81893 0.0
H1138 H 0.25042 0.14049 0.88707 0.0
H1139 H 0.26531 0.07891 0.80503 0.0
H1140 H 0.24178 0.15918 0.83434 0.0
H1141 H 0.30453 0.08317 0.85085 0.0
H1142 H 0.25074 0.10393 0.81723 0.0
H1143 H 0.26535 0.11547 0.87565 0.0
C1144 C 0.25163 0.13955 0.87316 0.0
C1145 C 0.24446 0.15219 0.86178 0.0
C1146 C 0.26249 0.09931 0.82462 0.0
C1147 C 0.26102 0.12284 0.8486 0.0
C1148 C 0.27074 0.08497 0.81772 0.0
C1149 C 0.28621 0.07895 0.8269 0.0
C1150 C 0.26937 0.10737 0.84107 0.0
C1151 C 0.29272 0.08745 0.84327 0.0
C1152 C 0.26007 0.12508 0.86666 0.0
C1153 C 0.24635 0.14965 0.84378 0.0
N1154 N 0.28418 0.10108 0.8499 0.0
N1155 N 0.25418 0.13525 0.83781 0.0
H1156 H 0.93249 0.19852 0.86628 0.0
H1157 H 0.99421 0.24094 0.78692 0.0
H1158 H 0.91371 0.18659 0.81212 0.0
H1159 H 1.00576 0.26289 0.83966 0.0
H1160 H 0.96689 0.21788 0.79648 0.0
H1161 H 0.96155 0.21957 0.8572 0.0
C1162 C 0.93445 0.20033 0.85249 0.0
C1163 C 0.92063 0.19076 0.83995 0.0
C1164 C 0.97545 0.22772 0.80596 0.0
C1165 C 0.95393 0.21458 0.82951 0.0
C1166 C 0.99107 0.24083 0.80052 0.0
C1167 C 1.00218 0.25392 0.8125 0.0
C1168 C 0.97099 0.22763 0.8235 0.0
C1169 C 0.99748 0.25314 0.82997 0.0
C1170 C 0.95108 0.21227 0.84733 0.0
C1171 C 0.9241 0.19342 0.82227 0.0
N1172 N 0.98221 0.24023 0.83495 0.0
N1173 N 0.94039 0.20508 0.81759 0.0
H1174 H 0.83831 0.91842 0.84276 0.0
H1175 H 0.76601 0.95312 0.77051 0.0
H1176 H 0.80021 0.88061 0.80661 0.0
H1177 H 0.8041 0.99043 0.80726 0.0
H1178 H 0.77553 0.92607 0.78545 0.0
H1179 H 0.82325 0.94447 0.83206 0.0
C1180 C 0.82641 0.91553 0.83288 0.0
C1181 C 0.82027 0.89731 0.82575 0.0
C1182 C 0.78163 0.94017 0.79037 0.0
C1183 C 0.8033 0.92716 0.81297 0.0
C1184 C 0.7761 0.95566 0.78188 0.0
C1185 C 0.78426 0.97421 0.78753 0.0
C1186 C 0.79548 0.94315 0.80465 0.0
C1187 C 0.79743 0.97648 0.80231 0.0
C1188 C 0.81791 0.93044 0.82664 0.0
C1189 C 0.80515 0.89442 0.81264 0.0
N1190 N 0.80269 0.96124 0.81021 0.0
N1191 N 0.79729 0.90917 0.80659 0.0
H1192 H 0.24136 0.13671 0.21347 0.0
H1193 H 0.19603 0.04057 0.25979 0.0
H1194 H 0.18022 0.11711 0.21847 0.0
H1195 H 0.25702 0.05669 0.25224 0.0
H1196 H 0.19047 0.06866 0.24474 0.0
H1197 H 0.24772 0.1082 0.2278 0.0
C1198 C 0.22922 0.12642 0.21751 0.0
C1199 C 0.21014 0.12941 0.21455 0.0
C1200 C 0.20509 0.06613 0.24626 0.0
C1201 C 0.21747 0.09658 0.23126 0.0
C1202 C 0.20833 0.04999 0.25488 0.0
C1203 C 0.22708 0.04616 0.25739 0.0
C1204 C 0.2207 0.07887 0.24002 0.0
C1205 C 0.24232 0.05897 0.25057 0.0
C1206 C 0.23292 0.11013 0.22577 0.0
C1207 C 0.19515 0.11564 0.22053 0.0
N1208 N 0.23881 0.0748 0.24229 0.0
N1209 N 0.19914 0.0999 0.2285 0.0
H1210 H 0.19819 0.89573 0.86051 0.0
H1211 H 0.28648 0.95755 0.81735 0.0
H1212 H 0.24334 0.87093 0.84057 0.0
H1213 H 0.2602 0.97985 0.8597 0.0
H1214 H 0.26917 0.92576 0.82388 0.0
H1215 H 0.21908 0.92706 0.85896 0.0
C1216 C 0.21261 0.89692 0.85603 0.0
C1217 C 0.21914 0.88083 0.85068 0.0
C1218 C 0.26735 0.93758 0.83186 0.0
C1219 C 0.24279 0.9164 0.84851 0.0
C1220 C 0.2771 0.95566 0.82807 0.0
C1221 C 0.27465 0.97121 0.838 0.0
C1222 C 0.25471 0.93514 0.84539 0.0
C1223 C 0.26248 0.96813 0.85184 0.0
C1224 C 0.2245 0.91472 0.85519 0.0
C1225 C 0.23788 0.88302 0.84493 0.0
N1226 N 0.2527 0.95044 0.85499 0.0
N1227 N 0.24896 0.90053 0.84373 0.0
H1228 H 0.14771 0.19591 0.85166 0.0
H1229 H 0.12582 0.29869 0.83048 0.0
H1230 H 0.19246 0.24578 0.85113 0.0
H1231 H 0.08365 0.24699 0.82248 0.0
H1232 H 0.14967 0.28038 0.84152 0.0
H1233 H 0.12335 0.21519 0.84478 0.0
C1234 C 0.15233 0.21103 0.85044 0.0
C1235 C 0.17201 0.21936 0.85213 0.0
C1236 C 0.13517 0.27305 0.8374 0.0
C1237 C 0.14433 0.24151 0.84389 0.0
C1238 C 0.1215 0.28352 0.83117 0.0
C1239 C 0.10265 0.2744 0.82542 0.0
C1240 C 0.12998 0.25329 0.83808 0.0
C1241 C 0.09802 0.25464 0.82649 0.0
C1242 C 0.13846 0.22201 0.84636 0.0
C1243 C 0.17735 0.23891 0.85011 0.0
N1244 N 0.11154 0.2448 0.83267 0.0
N1245 N 0.16359 0.24934 0.84603 0.0
H1246 H 0.89524 0.12229 0.82913 0.0
H1247 H 0.80707 0.07604 0.7625 0.0
H1248 H 0.8405 0.14044 0.82473 0.0
H1249 H 0.85527 0.04906 0.77593 0.0
H1250 H 0.82068 0.10136 0.78335 0.0
H1251 H 0.8821 0.09656 0.80826 0.0
C1252 C 0.88041 0.12076 0.82384 0.0
C1253 C 0.86892 0.1335 0.82865 0.0
C1254 C 0.8283 0.08991 0.78174 0.0
C1255 C 0.85391 0.10428 0.80466 0.0
C1256 C 0.82053 0.07542 0.76982 0.0
C1257 C 0.82988 0.06022 0.76756 0.0
C1258 C 0.84568 0.08937 0.79145 0.0
C1259 C 0.84757 0.06049 0.77714 0.0
C1260 C 0.87293 0.10609 0.81196 0.0
C1261 C 0.84978 0.13083 0.82151 0.0
N1262 N 0.85487 0.0748 0.78872 0.0
N1263 N 0.84292 0.11661 0.80977 0.0
H1264 H 0.90522 0.85392 0.82791 0.0
H1265 H 0.95635 0.76404 0.82708 0.0
H1266 H 0.88168 0.80124 0.85185 0.0
H1267 H 0.97306 0.81302 0.79562 0.0
H1268 H 0.93037 0.77805 0.83787 0.0
H1269 H 0.93125 0.83985 0.81765 0.0
C1270 C 0.90537 0.83935 0.83097 0.0
C1271 C 0.89087 0.8288 0.84069 0.0
C1272 C 0.9397 0.78574 0.8286 0.0
C1273 C 0.92129 0.81256 0.82909 0.0
C1274 C 0.95467 0.77777 0.82247 0.0
C1275 C 0.96709 0.7873 0.81037 0.0
C1276 C 0.93708 0.80352 0.82277 0.0
C1277 C 0.96385 0.805 0.80477 0.0
C1278 C 0.92041 0.83134 0.82514 0.0
C1279 C 0.89246 0.8101 0.84456 0.0
N1280 N 0.94929 0.81252 0.81104 0.0
N1281 N 0.90729 0.80263 0.83875 0.0
H1282 H 0.87947 0.91765 0.20527 0.0
H1283 H 0.80023 0.95765 0.25672 0.0
H1284 H 0.82786 0.88267 0.22275 0.0
H1285 H 0.85509 0.99183 0.24513 0.0
H1286 H 0.81056 0.92997 0.24503 0.0
H1287 H 0.8717 0.94477 0.2208 0.0
C1288 C 0.86676 0.91561 0.21275 0.0
C1289 C 0.85444 0.8979 0.21301 0.0
C1290 C 0.8204 0.9435 0.24511 0.0
C1291 C 0.84506 0.92889 0.23032 0.0
C1292 C 0.81447 0.95937 0.25175 0.0
C1293 C 0.82675 0.9772 0.25189 0.0
C1294 C 0.83873 0.94538 0.23838 0.0
C1295 C 0.84509 0.97842 0.24531 0.0
C1296 C 0.86222 0.9311 0.2215 0.0
C1297 C 0.83788 0.89607 0.22249 0.0
N1298 N 0.85045 0.9628 0.23876 0.0
N1299 N 0.8336 0.91136 0.23064 0.0
H1300 H 0.10146 0.81131 0.15312 0.0
H1301 H 0.07471 0.75024 0.23721 0.0
H1302 H 0.14192 0.80393 0.19568 0.0
H1303 H 0.03265 0.7699 0.20248 0.0
H1304 H 0.09937 0.76087 0.21672 0.0
H1305 H 0.07658 0.78769 0.16593 0.0
C1306 C 0.10522 0.8043 0.16489 0.0
C1307 C 0.12361 0.80965 0.17352 0.0
C1308 C 0.08466 0.76253 0.21343 0.0
C1309 C 0.0954 0.78286 0.18822 0.0
C1310 C 0.07053 0.75641 0.2251 0.0
C1311 C 0.05167 0.75964 0.22178 0.0
C1312 C 0.07994 0.77199 0.19835 0.0
C1313 C 0.04707 0.76742 0.20573 0.0
C1314 C 0.09103 0.79093 0.17223 0.0
C1315 C 0.1278 0.80029 0.18878 0.0
N1316 N 0.06121 0.77367 0.19474 0.0
N1317 N 0.11373 0.7875 0.19575 0.0
H1318 H 0.89807 0.20936 0.19648 0.0
H1319 H 0.01114 0.24452 0.21444 0.0
H1320 H 0.93873 0.20543 0.15782 0.0
H1321 H 0.96895 0.25791 0.24815 0.0
H1322 H 0.98508 0.23333 0.19213 0.0
H1323 H 0.92367 0.23006 0.21421 0.0
C1324 C 0.91237 0.21311 0.19163 0.0
C1325 C 0.91637 0.20558 0.17576 0.0
C1326 C 0.98157 0.23902 0.2043 0.0
C1327 C 0.94587 0.22903 0.19609 0.0
C1328 C 0.99647 0.24545 0.21705 0.0
C1329 C 0.99223 0.2519 0.23333 0.0
C1330 C 0.96228 0.23886 0.20791 0.0
C1331 C 0.97292 0.25286 0.23589 0.0
C1332 C 0.92699 0.22495 0.20173 0.0
C1333 C 0.93508 0.21098 0.16999 0.0
N1334 N 0.95866 0.24612 0.22345 0.0
N1335 N 0.94924 0.22213 0.18029 0.0
H1336 H 0.18622 0.68807 0.63852 0.0
H1337 H 0.27916 0.74229 0.59136 0.0
H1338 H 0.24453 0.70064 0.66185 0.0
H1339 H 0.22448 0.72168 0.56293 0.0
H1340 H 0.26446 0.73227 0.6185 0.0
H1341 H 0.19779 0.70476 0.6121 0.0
C1342 C 0.20137 0.6946 0.6382 0.0
C1343 C 0.21444 0.69284 0.65241 0.0
C1344 C 0.25548 0.73017 0.60643 0.0
C1345 C 0.22777 0.71195 0.62226 0.0
C1346 C 0.26385 0.73608 0.59092 0.0
C1347 C 0.25298 0.73305 0.57489 0.0
C1348 C 0.23603 0.72079 0.60605 0.0
C1349 C 0.23329 0.72459 0.57505 0.0
C1350 C 0.20798 0.70401 0.62308 0.0
C1351 C 0.23394 0.70145 0.65119 0.0
N1352 N 0.22547 0.71857 0.59037 0.0
N1353 N 0.23996 0.71052 0.63646 0.0
H1354 H 0.86896 0.72399 0.60986 0.0
H1355 H 0.87859 0.75985 0.51239 0.0
H1356 H 0.89698 0.69822 0.57087 0.0
H1357 H 0.84338 0.78016 0.54917 0.0
H1358 H 0.89254 0.74308 0.53587 0.0
H1359 H 0.86628 0.74995 0.58999 0.0
C1360 C 0.87486 0.72407 0.59719 0.0
C1361 C 0.88308 0.70911 0.5918 0.0
C1362 C 0.88202 0.75149 0.53886 0.0
C1363 C 0.87994 0.73838 0.56903 0.0
C1364 C 0.87411 0.76118 0.52547 0.0
C1365 C 0.85945 0.77109 0.52873 0.0
C1366 C 0.87522 0.75172 0.55561 0.0
C1367 C 0.85439 0.77242 0.54599 0.0
C1368 C 0.87332 0.73881 0.58586 0.0
C1369 C 0.8905 0.70962 0.57536 0.0
N1370 N 0.86202 0.76257 0.55872 0.0
N1371 N 0.88857 0.72395 0.56443 0.0
H1372 H 0.89793 0.33681 0.6474 0.0
H1373 H 0.81021 0.28137 0.58373 0.0
H1374 H 0.83773 0.33351 0.65652 0.0
H1375 H 0.87019 0.28965 0.5718 0.0
H1376 H 0.82007 0.29938 0.61079 0.0
H1377 H 0.88814 0.31836 0.6204 0.0
C1378 C 0.88265 0.33214 0.64383 0.0
C1379 C 0.86868 0.33683 0.65439 0.0
C1380 C 0.83108 0.29726 0.60224 0.0
C1381 C 0.8573 0.31567 0.62319 0.0
C1382 C 0.82544 0.28698 0.58663 0.0
C1383 C 0.8393 0.28385 0.57515 0.0
C1384 C 0.85078 0.30454 0.60664 0.0
C1385 C 0.85888 0.2914 0.5801 0.0
C1386 C 0.87706 0.32167 0.6283 0.0
C1387 C 0.84907 0.33051 0.64879 0.0
N1388 N 0.86398 0.30132 0.59538 0.0
N1389 N 0.84401 0.32028 0.63368 0.0
H1390 H 0.20075 0.27686 0.65461 0.0
H1391 H 0.28133 0.28976 0.58473 0.0
H1392 H 0.25968 0.30594 0.66554 0.0
H1393 H 0.22274 0.25926 0.5736 0.0
H1394 H 0.27378 0.29511 0.61445 0.0
H1395 H 0.20846 0.26986 0.62491 0.0
C1396 C 0.21532 0.28172 0.65066 0.0
C1397 C 0.22966 0.29194 0.66229 0.0
C1398 C 0.26256 0.2872 0.60554 0.0
C1399 C 0.23862 0.2841 0.62862 0.0
C1400 C 0.2669 0.28398 0.58851 0.0
C1401 C 0.25266 0.27394 0.57652 0.0
C1402 C 0.2438 0.28043 0.61072 0.0
C1403 C 0.23412 0.26722 0.58228 0.0
C1404 C 0.21974 0.27775 0.63378 0.0
C1405 C 0.2483 0.29801 0.65679 0.0
N1406 N 0.23022 0.27061 0.59895 0.0
N1407 N 0.25228 0.29401 0.64029 0.0
H1408 H 0.23112 0.33968 0.41458 0.0
H1409 H 0.26478 0.33928 0.51549 0.0
H1410 H 0.2061 0.36661 0.45492 0.0
H1411 H 0.28776 0.3095 0.47559 0.0
H1412 H 0.24808 0.35479 0.49285 0.0
H1413 H 0.2565 0.33375 0.43595 0.0
C1414 C 0.23129 0.34466 0.42791 0.0
C1415 C 0.21668 0.35356 0.43318 0.0
C1416 C 0.25699 0.34506 0.48903 0.0
C1417 C 0.24522 0.34665 0.45764 0.0
C1418 C 0.26659 0.33623 0.50196 0.0
C1419 C 0.2774 0.32279 0.49744 0.0
C1420 C 0.2581 0.34036 0.47143 0.0
C1421 C 0.27938 0.31958 0.47969 0.0
C1422 C 0.24568 0.34125 0.4401 0.0
C1423 C 0.21725 0.35969 0.45049 0.0
N1424 N 0.26957 0.32808 0.46734 0.0
N1425 N 0.2312 0.35594 0.4622 0.0
H1426 H 0.22656 0.6961 0.38622 0.0
H1427 H 0.26638 0.67268 0.48234 0.0
H1428 H 0.23229 0.64039 0.4027 0.0
H1429 H 0.2615 0.7288 0.46644 0.0
H1430 H 0.2537 0.66077 0.45328 0.0
H1431 H 0.23864 0.70837 0.41549 0.0
C1432 C 0.23025 0.68641 0.39596 0.0
C1433 C 0.22846 0.66714 0.39179 0.0
C1434 C 0.25537 0.6757 0.45613 0.0
C1435 C 0.2425 0.6812 0.42548 0.0
C1436 C 0.26273 0.68256 0.47278 0.0
C1437 C 0.26508 0.70185 0.47705 0.0
C1438 C 0.25027 0.68814 0.44345 0.0
C1439 C 0.25976 0.71382 0.46398 0.0
C1440 C 0.23726 0.69346 0.41269 0.0
C1441 C 0.23371 0.65538 0.40506 0.0
N1442 N 0.25267 0.70679 0.44785 0.0
N1443 N 0.24046 0.66257 0.42119 0.0
H1444 H 0.83734 0.70017 0.36665 0.0
H1445 H 0.82834 0.69819 0.46979 0.0
H1446 H 0.85298 0.65685 0.39966 0.0
H1447 H 0.81704 0.74419 0.4378 0.0
H1448 H 0.8388 0.68362 0.44438 0.0
H1449 H 0.83189 0.71775 0.39267 0.0
C1450 C 0.84002 0.69463 0.37945 0.0
C1451 C 0.84574 0.67725 0.38121 0.0
C1452 C 0.83412 0.69695 0.44291 0.0
C1453 C 0.83912 0.69681 0.41084 0.0
C1454 C 0.82798 0.7052 0.45741 0.0
C1455 C 0.82166 0.72239 0.45593 0.0
C1456 C 0.83384 0.70585 0.42672 0.0
C1457 C 0.8219 0.73101 0.43958 0.0
C1458 C 0.8368 0.70455 0.39426 0.0
C1459 C 0.84873 0.67036 0.39791 0.0
N1460 N 0.82777 0.72259 0.4256 0.0
N1461 N 0.84523 0.6801 0.41211 0.0
H1462 H 0.82736 0.28708 0.39182 0.0
H1463 H 0.82131 0.31822 0.49002 0.0
H1464 H 0.83769 0.34566 0.40757 0.0
H1465 H 0.78799 0.26562 0.46897 0.0
H1466 H 0.82857 0.32835 0.46037 0.0
H1467 H 0.81439 0.27843 0.42021 0.0
C1468 C 0.82681 0.29814 0.40122 0.0
C1469 C 0.83365 0.31715 0.39723 0.0
C1470 C 0.81939 0.31472 0.46218 0.0
C1471 C 0.81902 0.30729 0.42998 0.0
C1472 C 0.81515 0.30896 0.47912 0.0
C1473 C 0.80379 0.29113 0.48205 0.0
C1474 C 0.81275 0.30237 0.44795 0.0
C1475 C 0.79651 0.27961 0.46737 0.0
C1476 C 0.81932 0.29319 0.4174 0.0
C1477 C 0.83248 0.33085 0.40996 0.0
N1478 N 0.80137 0.28528 0.45104 0.0
N1479 N 0.82558 0.32565 0.42578 0.0
H1480 H 0.12153 0.67119 0.69764 0.0
H1481 H 0.08839 0.75483 0.75007 0.0
H1482 H 0.16179 0.72074 0.71691 0.0
H1483 H 0.05261 0.69979 0.74012 0.0
H1484 H 0.11435 0.74465 0.73497 0.0
H1485 H 0.09507 0.68366 0.70956 0.0
C1486 C 0.1247 0.68495 0.70402 0.0
C1487 C 0.1438 0.69509 0.70604 0.0
C1488 C 0.1008 0.73482 0.73607 0.0
C1489 C 0.11361 0.70934 0.7202 0.0
C1490 C 0.08591 0.74065 0.74465 0.0
C1491 C 0.06821 0.72815 0.74653 0.0
C1492 C 0.09797 0.7164 0.72906 0.0
C1493 C 0.06601 0.70988 0.73929 0.0
C1494 C 0.10962 0.69199 0.71101 0.0
C1495 C 0.14719 0.71263 0.71481 0.0
N1496 N 0.08061 0.70462 0.7309 0.0
N1497 N 0.13228 0.71918 0.72161 0.0
H1498 H 0.86011 0.62293 0.64794 0.0
H1499 H 0.82289 0.58945 0.73926 0.0
H1500 H 0.85372 0.66247 0.68845 0.0
H1501 H 0.79743 0.5588 0.69259 0.0
H1502 H 0.83954 0.61466 0.72133 0.0
H1503 H 0.84145 0.59749 0.66439 0.0
C1504 C 0.85473 0.62637 0.66017 0.0
C1505 C 0.85878 0.645 0.66684 0.0
C1506 C 0.83031 0.60242 0.71501 0.0
C1507 C 0.83794 0.61578 0.68585 0.0
C1508 C 0.82095 0.58803 0.7252 0.0
C1509 C 0.80887 0.5721 0.71732 0.0
C1510 C 0.82791 0.60069 0.69679 0.0
C1511 C 0.8066 0.57096 0.69907 0.0
C1512 C 0.84416 0.61179 0.66955 0.0
C1513 C 0.85157 0.64837 0.68294 0.0
N1514 N 0.81621 0.58502 0.68935 0.0
N1515 N 0.84173 0.6339 0.69196 0.0
H1516 H 0.92381 0.38106 0.71687 0.0
H1517 H 0.98003 0.30147 0.7531 0.0
H1518 H 0.90425 0.32145 0.70639 0.0
H1519 H 0.99805 0.36047 0.76725 0.0
H1520 H 0.95204 0.30868 0.73643 0.0
H1521 H 0.95074 0.374 0.7357 0.0
C1522 C 0.92506 0.36648 0.71859 0.0
C1523 C 0.9117 0.35187 0.70985 0.0
C1524 C 0.96207 0.32007 0.74323 0.0
C1525 C 0.94276 0.34368 0.73135 0.0
C1526 C 0.97812 0.31594 0.75292 0.0
C1527 C 0.99169 0.33035 0.76173 0.0
C1528 C 0.95939 0.33879 0.74216 0.0
C1529 C 0.98826 0.34887 0.76057 0.0
C1530 C 0.94053 0.36247 0.7293 0.0
C1531 C 0.91431 0.33326 0.71252 0.0
N1532 N 0.97255 0.35254 0.75096 0.0
N1533 N 0.92949 0.32974 0.72294 0.0
H1534 H 0.24641 0.35969 0.71882 0.0
H1535 H 0.23925 0.46506 0.73773 0.0
H1536 H 0.1968 0.38102 0.69761 0.0
H1537 H 0.29284 0.45 0.72465 0.0
H1538 H 0.22202 0.4331 0.7285 0.0
H1539 H 0.26275 0.3919 0.72614 0.0
C1540 C 0.23896 0.37104 0.71545 0.0
C1541 C 0.22007 0.36738 0.70749 0.0
C1542 C 0.23755 0.43694 0.72763 0.0
C1543 C 0.23858 0.40435 0.71669 0.0
C1544 C 0.24734 0.45504 0.73295 0.0
C1545 C 0.26743 0.46013 0.73184 0.0
C1546 C 0.24808 0.42385 0.7217 0.0
C1547 C 0.2773 0.44669 0.72556 0.0
C1548 C 0.24829 0.38943 0.71984 0.0
C1549 C 0.21113 0.38291 0.70406 0.0
N1550 N 0.26757 0.42911 0.7209 0.0
N1551 N 0.22038 0.4007 0.70885 0.0
H1552 H 0.15466 0.31257 0.36437 0.0
H1553 H 0.06259 0.30653 0.2964 0.0
H1554 H 0.14157 0.36187 0.33865 0.0
H1555 H 0.07322 0.26214 0.33081 0.0
H1556 H 0.09288 0.3266 0.30866 0.0
H1557 H 0.1267 0.29328 0.34863 0.0
C1558 C 0.14586 0.31933 0.35533 0.0
C1559 C 0.15024 0.33888 0.35302 0.0
C1560 C 0.08851 0.31244 0.31344 0.0
C1561 C 0.11798 0.31681 0.33486 0.0
C1562 C 0.07127 0.301 0.30647 0.0
C1563 C 0.06529 0.28266 0.31266 0.0
C1564 C 0.09985 0.30535 0.32652 0.0
C1565 C 0.0771 0.2762 0.32569 0.0
C1566 C 0.12987 0.3083 0.34632 0.0
C1567 C 0.13861 0.34683 0.34083 0.0
N1568 N 0.09372 0.28748 0.33213 0.0
N1569 N 0.12283 0.33577 0.3323 0.0
H1570 H 0.23681 0.60804 0.36747 0.0
H1571 H 0.26306 0.55653 0.28171 0.0
H1572 H 0.22758 0.62872 0.31565 0.0
H1573 H 0.28316 0.5461 0.33419 0.0
H1574 H 0.24606 0.58021 0.29338 0.0
H1575 H 0.25047 0.58289 0.35503 0.0
C1576 C 0.23774 0.60746 0.35349 0.0
C1577 C 0.23104 0.6208 0.34271 0.0
C1578 C 0.25408 0.57258 0.3023 0.0
C1579 C 0.24646 0.59142 0.3282 0.0
C1580 C 0.26362 0.55896 0.29565 0.0
C1581 C 0.2746 0.54933 0.30697 0.0
C1582 C 0.25534 0.57639 0.3204 0.0
C1583 C 0.27499 0.55323 0.32493 0.0
C1584 C 0.24544 0.59291 0.34635 0.0
C1585 C 0.23229 0.61875 0.32457 0.0
N1586 N 0.2656 0.56638 0.33103 0.0
N1587 N 0.23982 0.60442 0.31793 0.0
H1588 H 0.91685 0.65202 0.31375 0.0
H1589 H 0.97445 0.75846 0.31114 0.0
H1590 H 0.89134 0.69949 0.32664 0.0
H1591 H 0.99054 0.71232 0.28362 0.0
H1592 H 0.946 0.73681 0.3206 0.0
H1593 H 0.94619 0.67375 0.30665 0.0
C1594 C 0.9174 0.66704 0.31507 0.0
C1595 C 0.90146 0.67395 0.32052 0.0
C1596 C 0.95577 0.73145 0.31251 0.0
C1597 C 0.93521 0.69891 0.31264 0.0
C1598 C 0.97204 0.74376 0.30712 0.0
C1599 C 0.98487 0.73717 0.29654 0.0
C1600 C 0.95245 0.71237 0.30744 0.0
C1601 C 0.98099 0.71801 0.2917 0.0
C1602 C 0.93419 0.67942 0.31105 0.0
C1603 C 0.90327 0.69354 0.32251 0.0
N1604 N 0.96515 0.70627 0.29724 0.0
N1605 N 0.91983 0.70537 0.31848 0.0
H1606 H 0.80769 0.36536 0.31239 0.0
H1607 H 0.76673 0.45975 0.32891 0.0
H1608 H 0.81793 0.3965 0.36103 0.0
H1609 H 0.76561 0.43369 0.27821 0.0
H1610 H 0.78241 0.43517 0.3416 0.0
H1611 H 0.78899 0.38826 0.3006 0.0
C1612 C 0.80562 0.37683 0.32071 0.0
C1613 C 0.8141 0.37889 0.33779 0.0
C1614 C 0.7787 0.43478 0.3277 0.0
C1615 C 0.79303 0.40551 0.32426 0.0
C1616 C 0.76961 0.44881 0.32041 0.0
C1617 C 0.76473 0.44892 0.30236 0.0
C1618 C 0.7829 0.42051 0.31698 0.0
C1619 C 0.7692 0.43439 0.29211 0.0
C1620 C 0.7951 0.39002 0.31392 0.0
C1621 C 0.81137 0.39425 0.34788 0.0
N1622 N 0.77794 0.42083 0.29954 0.0
N1623 N 0.80111 0.40697 0.34098 0.0
H1624 H 0.2311 0.6324 0.66629 0.0
H1625 H 0.26818 0.57356 0.74552 0.0
H1626 H 0.22423 0.64398 0.72038 0.0
H1627 H 0.28162 0.56642 0.69229 0.0
H1628 H 0.25117 0.59862 0.73635 0.0
H1629 H 0.24902 0.60793 0.67533 0.0
C1630 C 0.23343 0.62997 0.68007 0.0
C1631 C 0.22595 0.64044 0.69252 0.0
C1632 C 0.25786 0.5916 0.72665 0.0
C1633 C 0.24638 0.61195 0.703 0.0
C1634 C 0.26752 0.57715 0.73188 0.0
C1635 C 0.27641 0.56768 0.7197 0.0
C1636 C 0.25686 0.59671 0.70904 0.0
C1637 C 0.27521 0.57333 0.70222 0.0
C1638 C 0.24361 0.61584 0.68522 0.0
C1639 C 0.2293 0.6362 0.71019 0.0
N1640 N 0.2656 0.58735 0.69744 0.0
N1641 N 0.23916 0.62234 0.71485 0.0
H1642 H 0.21466 0.40772 0.38326 0.0
H1643 H 0.27642 0.44293 0.30232 0.0
H1644 H 0.21279 0.3738 0.33659 0.0
H1645 H 0.28781 0.46926 0.35332 0.0
H1646 H 0.25244 0.41788 0.31417 0.0
H1647 H 0.2406 0.43095 0.37203 0.0
C1648 C 0.21977 0.40505 0.37069 0.0
C1649 C 0.21153 0.38864 0.36092 0.0
C1650 C 0.26029 0.42904 0.32281 0.0
C1651 C 0.24115 0.41551 0.34783 0.0
C1652 C 0.27393 0.44336 0.31605 0.0
C1653 C 0.28403 0.45823 0.32685 0.0
C1654 C 0.25654 0.42972 0.34048 0.0
C1655 C 0.28044 0.458 0.34458 0.0
C1656 C 0.23458 0.4184 0.36426 0.0
C1657 C 0.2185 0.38629 0.34451 0.0
N1658 N 0.26684 0.44407 0.35081 0.0
N1659 N 0.23287 0.39959 0.33847 0.0
H1660 H 0.17273 0.69739 0.3103 0.0
H1661 H 0.08883 0.7492 0.33953 0.0
H1662 H 0.15039 0.6907 0.36116 0.0
H1663 H 0.10238 0.74329 0.28618 0.0
H1664 H 0.11407 0.73165 0.34881 0.0
H1665 H 0.15022 0.71832 0.30253 0.0
C1666 C 0.16331 0.70067 0.31996 0.0
C1667 C 0.16352 0.69253 0.33644 0.0
C1668 C 0.11155 0.73425 0.33508 0.0
C1669 C 0.13739 0.71621 0.32757 0.0
C1670 C 0.0972 0.74437 0.32977 0.0
C1671 C 0.09337 0.74772 0.312 0.0
C1672 C 0.12238 0.72759 0.32258 0.0
C1673 C 0.10461 0.74089 0.29996 0.0
C1674 C 0.15034 0.71249 0.31547 0.0
C1675 C 0.15079 0.69692 0.34837 0.0
N1676 N 0.11857 0.73123 0.30546 0.0
N1677 N 0.1382 0.70845 0.3437 0.0
H1678 H 0.85248 0.59548 0.32257 0.0
H1679 H 0.79698 0.5608 0.23239 0.0
H1680 H 0.85305 0.63192 0.27834 0.0
H1681 H 0.80813 0.52362 0.27389 0.0
H1682 H 0.82091 0.58629 0.24691 0.0
H1683 H 0.8393 0.56836 0.30349 0.0
C1684 C 0.84992 0.59768 0.30876 0.0
C1685 C 0.85356 0.61586 0.30198 0.0
C1686 C 0.81842 0.57243 0.25262 0.0
C1687 C 0.83831 0.58501 0.28003 0.0
C1688 C 0.80485 0.55786 0.24429 0.0
C1689 C 0.80031 0.54023 0.25218 0.0
C1690 C 0.82733 0.56923 0.26891 0.0
C1691 C 0.81092 0.53715 0.26757 0.0
C1692 C 0.84251 0.58222 0.29783 0.0
C1693 C 0.8503 0.61805 0.28399 0.0
N1694 N 0.82368 0.55158 0.27558 0.0
N1695 N 0.84251 0.6028 0.27363 0.0
H1696 H 0.9011 0.33538 0.34523 0.0
H1697 H 0.94185 0.23989 0.33498 0.0
H1698 H 0.87088 0.28121 0.36173 0.0
H1699 H 0.96874 0.29328 0.31428 0.0
H1700 H 0.91657 0.2548 0.34581 0.0
H1701 H 0.92641 0.32033 0.33488 0.0
C1702 C 0.89963 0.32028 0.34661 0.0
C1703 C 0.88348 0.30962 0.35427 0.0
C1704 C 0.92799 0.26327 0.3389 0.0
C1705 C 0.91303 0.29217 0.34253 0.0
C1706 C 0.94258 0.25477 0.33275 0.0
C1707 C 0.95769 0.26526 0.32365 0.0
C1708 C 0.92837 0.28254 0.3361 0.0
C1709 C 0.95743 0.28448 0.32103 0.0
C1710 C 0.91426 0.31169 0.34075 0.0
C1711 C 0.88297 0.29014 0.35606 0.0
N1712 N 0.94313 0.29244 0.32723 0.0
N1713 N 0.89742 0.28209 0.35021 0.0
H1714 H 0.86958 0.4376 0.70107 0.0
H1715 H 0.83128 0.46865 0.79079 0.0
H1716 H 0.85183 0.39868 0.74185 0.0
H1717 H 0.83986 0.50444 0.7461 0.0
H1718 H 0.84361 0.44437 0.77512 0.0
H1719 H 0.86375 0.46353 0.71938 0.0
C1720 C 0.86484 0.43461 0.71406 0.0
C1721 C 0.86136 0.41607 0.72006 0.0
C1722 C 0.84299 0.45761 0.76882 0.0
C1723 C 0.85425 0.44558 0.74102 0.0
C1724 C 0.83605 0.47158 0.77781 0.0
C1725 C 0.83443 0.48869 0.76978 0.0
C1726 C 0.84849 0.46074 0.75166 0.0
C1727 C 0.84075 0.4915 0.75285 0.0
C1728 C 0.86136 0.44938 0.72447 0.0
C1729 C 0.85488 0.41285 0.73685 0.0
N1730 N 0.84738 0.47769 0.74437 0.0
N1731 N 0.85144 0.42744 0.74672 0.0
H1732 H 0.15826 0.34195 0.72557 0.0
H1733 H 0.07363 0.26607 0.74173 0.0
H1734 H 0.1523 0.29339 0.69103 0.0
H1735 H 0.06163 0.32051 0.72765 0.0
H1736 H 0.10361 0.27341 0.72636 0.0
H1737 H 0.1241 0.33306 0.73049 0.0
C1738 C 0.14988 0.32964 0.71871 0.0
C1739 C 0.15846 0.31855 0.70769 0.0
C1740 C 0.09404 0.28344 0.72625 0.0
C1741 C 0.11936 0.30791 0.71415 0.0
C1742 C 0.07703 0.2793 0.73498 0.0
C1743 C 0.06526 0.29276 0.736 0.0
C1744 C 0.09948 0.30134 0.7191 0.0
C1745 C 0.0703 0.30975 0.72713 0.0
C1746 C 0.13035 0.32455 0.72168 0.0
C1747 C 0.14661 0.30224 0.69991 0.0
N1748 N 0.08738 0.31382 0.71949 0.0
N1749 N 0.12772 0.29719 0.70356 0.0
H1750 H 0.88431 0.70934 0.68667 0.0
H1751 H 0.99353 0.76099 0.71217 0.0
H1752 H 0.93115 0.70794 0.65368 0.0
H1753 H 0.94805 0.74962 0.74774 0.0
H1754 H 0.9697 0.74872 0.68801 0.0
H1755 H 0.90632 0.73135 0.70636 0.0
C1756 C 0.89923 0.71382 0.68352 0.0
C1757 C 0.90603 0.70654 0.66873 0.0
C1758 C 0.96494 0.74925 0.70108 0.0
C1759 C 0.93137 0.73171 0.69124 0.0
C1760 C 0.97847 0.75635 0.7148 0.0
C1761 C 0.97271 0.75607 0.73193 0.0
C1762 C 0.94559 0.74212 0.70461 0.0
C1763 C 0.9531 0.74983 0.73473 0.0
C1764 C 0.91179 0.72641 0.69473 0.0
C1765 C 0.92538 0.71315 0.66502 0.0
N1766 N 0.94029 0.74299 0.72125 0.0
N1767 N 0.93749 0.72517 0.67636 0.0
H1768 H 0.72438 0.20589 0.64445 0.0
H1769 H 0.76941 0.18826 0.55434 0.0
H1770 H 0.72623 0.15036 0.62474 0.0
H1771 H 0.75611 0.24182 0.56847 0.0
H1772 H 0.75481 0.17449 0.58041 0.0
H1773 H 0.73753 0.21946 0.61772 0.0
C1774 C 0.72747 0.19646 0.63452 0.0
C1775 C 0.72383 0.17678 0.63696 0.0
C1776 C 0.7549 0.18921 0.57781 0.0
C1777 C 0.73937 0.19254 0.60608 0.0
C1778 C 0.76323 0.19714 0.56285 0.0
C1779 C 0.76399 0.21629 0.55908 0.0
C1780 C 0.74742 0.20049 0.58945 0.0
C1781 C 0.75571 0.22698 0.5707 0.0
C1782 C 0.73506 0.20431 0.6192 0.0
C1783 C 0.7288 0.16554 0.62365 0.0
N1784 N 0.74795 0.21899 0.58541 0.0
N1785 N 0.73624 0.17356 0.60886 0.0
H1786 H 0.35982 0.24161 0.64225 0.0
H1787 H 0.34337 0.26744 0.55685 0.0
H1788 H 0.31564 0.27308 0.65201 0.0
H1789 H 0.32188 0.314 0.57825 0.0
H1790 H 0.35131 0.25786 0.58627 0.0
H1791 H 0.36398 0.25691 0.61397 0.0
C1792 C 0.35112 0.25189 0.63839 0.0
C1793 C 0.33727 0.25608 0.64918 0.0
C1794 C 0.34552 0.27057 0.58463 0.0
C1795 C 0.34139 0.27313 0.61685 0.0
C1796 C 0.34089 0.27601 0.56775 0.0
C1797 C 0.33176 0.29143 0.56505 0.0
C1798 C 0.34085 0.28057 0.59895 0.0
C1799 C 0.32885 0.30198 0.57968 0.0
C1800 C 0.35333 0.26047 0.62221 0.0
C1801 C 0.32639 0.26949 0.64387 0.0
N1802 N 0.33297 0.2961 0.59599 0.0
N1803 N 0.32859 0.27747 0.62798 0.0
H1804 H 0.32898 0.82839 0.66918 0.0
H1805 H 0.36143 0.78217 0.58347 0.0
H1806 H 0.38865 0.83101 0.65837 0.0
H1807 H 0.30187 0.78012 0.5943 0.0
H1808 H 0.37167 0.7996 0.6109 0.0
H1809 H 0.31888 0.81065 0.64192 0.0
C1810 C 0.34001 0.82536 0.66107 0.0
C1811 C 0.35977 0.83137 0.66621 0.0
C1812 C 0.35636 0.79535 0.60728 0.0
C1813 C 0.34817 0.81068 0.6348 0.0
C1814 C 0.35046 0.78527 0.59159 0.0
C1815 C 0.33069 0.7796 0.58637 0.0
C1816 C 0.34243 0.79984 0.61799 0.0
C1817 C 0.31725 0.78435 0.59751 0.0
C1818 C 0.3342 0.81508 0.64549 0.0
C1819 C 0.37327 0.82657 0.65516 0.0
N1820 N 0.32335 0.79413 0.61271 0.0
N1821 N 0.36724 0.81659 0.64004 0.0
H1822 H 0.74028 0.78749 0.63721 0.0
H1823 H 0.73136 0.78998 0.53301 0.0
H1824 H 0.69154 0.80154 0.6073 0.0
H1825 H 0.78157 0.77829 0.56258 0.0
H1826 H 0.71745 0.79605 0.56017 0.0
H1827 H 0.75685 0.78631 0.61022 0.0
C1828 C 0.73327 0.79065 0.62494 0.0
C1829 C 0.71469 0.79472 0.62429 0.0
C1830 C 0.73156 0.79225 0.56075 0.0
C1831 C 0.73317 0.79304 0.5935 0.0
C1832 C 0.73945 0.78864 0.54522 0.0
C1833 C 0.75761 0.78345 0.54549 0.0
C1834 C 0.7418 0.79057 0.57674 0.0
C1835 C 0.7676 0.78234 0.56173 0.0
C1836 C 0.74264 0.78989 0.60956 0.0
C1837 C 0.70598 0.79847 0.6082 0.0
N1838 N 0.75951 0.78574 0.5767 0.0
N1839 N 0.71525 0.79742 0.59339 0.0
H1840 H 0.72302 0.84275 0.40789 0.0
H1841 H 0.81166 0.80019 0.44841 0.0
H1842 H 0.74962 0.80309 0.38114 0.0
H1843 H 0.78131 0.83529 0.47723 0.0
H1844 H 0.7942 0.80721 0.42164 0.0
H1845 H 0.74885 0.84582 0.43127 0.0
C1846 C 0.73455 0.83495 0.40687 0.0
C1847 C 0.73434 0.82259 0.39281 0.0
C1848 C 0.79159 0.81364 0.43377 0.0
C1849 C 0.76364 0.8258 0.41934 0.0
C1850 C 0.80164 0.80971 0.44908 0.0
C1851 C 0.79765 0.81684 0.46518 0.0
C1852 C 0.77739 0.82471 0.43455 0.0
C1853 C 0.78466 0.82926 0.46517 0.0
C1854 C 0.74924 0.83667 0.42017 0.0
C1855 C 0.7494 0.81273 0.39191 0.0
N1856 N 0.77474 0.83254 0.45013 0.0
N1857 N 0.7634 0.81439 0.40513 0.0
H1858 H 0.70355 0.18083 0.39078 0.0
H1859 H 0.80307 0.20543 0.45029 0.0
H1860 H 0.76001 0.18561 0.37084 0.0
H1861 H 0.74848 0.21266 0.46856 0.0
H1862 H 0.78706 0.19668 0.42146 0.0
H1863 H 0.71919 0.19196 0.41939 0.0
C1864 C 0.71919 0.18445 0.39229 0.0
C1865 C 0.7304 0.18203 0.37829 0.0
C1866 C 0.77856 0.2002 0.43175 0.0
C1867 C 0.74845 0.19442 0.41123 0.0
C1868 C 0.78769 0.20505 0.44831 0.0
C1869 C 0.77716 0.20978 0.46198 0.0
C1870 C 0.75862 0.19986 0.42874 0.0
C1871 C 0.75725 0.20929 0.45843 0.0
C1872 C 0.72813 0.19066 0.40871 0.0
C1873 C 0.75068 0.1868 0.38124 0.0
N1874 N 0.74864 0.20435 0.44223 0.0
N1875 N 0.75898 0.19257 0.39732 0.0
H1876 H 0.31466 0.19172 0.38366 0.0
H1877 H 0.3348 0.25383 0.47194 0.0
H1878 H 0.36591 0.23412 0.39578 0.0
H1879 H 0.28372 0.21059 0.46143 0.0
H1880 H 0.34665 0.24605 0.44432 0.0
H1881 H 0.30319 0.19753 0.41237 0.0
C1882 C 0.32346 0.20219 0.39246 0.0
C1883 C 0.34114 0.21253 0.38758 0.0
C1884 C 0.33286 0.2382 0.44804 0.0
C1885 C 0.32832 0.21928 0.42011 0.0
C1886 C 0.32603 0.24273 0.46379 0.0
C1887 C 0.30816 0.23296 0.46897 0.0
C1888 C 0.32173 0.22382 0.43727 0.0
C1889 C 0.29762 0.21841 0.45801 0.0
C1890 C 0.31698 0.20551 0.40878 0.0
C1891 C 0.35215 0.22592 0.39922 0.0
N1892 N 0.30452 0.21434 0.44263 0.0
N1893 N 0.34554 0.22896 0.41496 0.0
H1894 H 0.32802 0.79541 0.39737 0.0
H1895 H 0.29871 0.80743 0.49571 0.0
H1896 H 0.33639 0.84968 0.42344 0.0
H1897 H 0.3041 0.7547 0.47214 0.0
H1898 H 0.30764 0.82338 0.46818 0.0
H1899 H 0.31497 0.78051 0.4236 0.0
C1900 C 0.32723 0.80425 0.40859 0.0
C1901 C 0.33355 0.82392 0.40803 0.0
C1902 C 0.30664 0.80829 0.46902 0.0
C1903 C 0.31809 0.80679 0.43833 0.0
C1904 C 0.30136 0.79918 0.48466 0.0
C1905 C 0.30069 0.77973 0.48621 0.0
C1906 C 0.31102 0.79778 0.45484 0.0
C1907 C 0.30455 0.76975 0.47156 0.0
C1908 C 0.3196 0.79571 0.42359 0.0
C1909 C 0.33158 0.83453 0.42303 0.0
N1910 N 0.30954 0.77883 0.4566 0.0
N1911 N 0.3241 0.82585 0.43752 0.0
H1912 H 0.66297 0.17577 0.7273 0.0
H1913 H 0.56091 0.20835 0.72727 0.0
H1914 H 0.62499 0.17624 0.68129 0.0
H1915 H 0.59126 0.19502 0.77455 0.0
H1916 H 0.58485 0.19733 0.71036 0.0
H1917 H 0.63737 0.18279 0.74515 0.0
C1918 C 0.64907 0.17692 0.72104 0.0
C1919 C 0.64589 0.17516 0.70288 0.0
C1920 C 0.58625 0.19672 0.72444 0.0
C1921 C 0.61687 0.18379 0.723 0.0
C1922 C 0.57263 0.20315 0.73411 0.0
C1923 C 0.57403 0.20268 0.75239 0.0
C1924 C 0.60165 0.18994 0.73304 0.0
C1925 C 0.58947 0.19552 0.7605 0.0
C1926 C 0.63452 0.18105 0.73118 0.0
C1927 C 0.62786 0.17724 0.6953 0.0
N1928 N 0.60273 0.18958 0.75081 0.0
N1929 N 0.61412 0.18159 0.70535 0.0
H1930 H 0.31471 0.16892 0.69408 0.0
H1931 H 0.33256 0.10004 0.77218 0.0
H1932 H 0.35977 0.18366 0.73524 0.0
H1933 H 0.28991 0.08449 0.7292 0.0
H1934 H 0.34098 0.1317 0.76028 0.0
H1935 H 0.30352 0.13895 0.70828 0.0
C1936 C 0.32211 0.16596 0.70622 0.0
C1937 C 0.33829 0.17877 0.71341 0.0
C1938 C 0.32974 0.12136 0.75348 0.0
C1939 C 0.32572 0.14435 0.72964 0.0
C1940 C 0.32487 0.1033 0.76032 0.0
C1941 C 0.31062 0.08949 0.75161 0.0
C1942 C 0.32025 0.12568 0.73784 0.0
C1943 C 0.30124 0.09452 0.73619 0.0
C1944 C 0.3158 0.14878 0.71426 0.0
C1945 C 0.34744 0.17406 0.72908 0.0
N1946 N 0.30625 0.11215 0.7298 0.0
N1947 N 0.34109 0.15722 0.73662 0.0
H1948 H 0.39379 0.8488 0.74492 0.0
H1949 H 0.49012 0.80573 0.74308 0.0
H1950 H 0.4222 0.84155 0.69805 0.0
H1951 H 0.46851 0.82237 0.79071 0.0
H1952 H 0.46461 0.8179 0.72649 0.0
H1953 H 0.42057 0.83905 0.76206 0.0
C1954 C 0.4057 0.84538 0.73821 0.0
C1955 C 0.40549 0.84585 0.71991 0.0
C1956 C 0.46546 0.81896 0.74058 0.0
C1957 C 0.43616 0.8343 0.73953 0.0
C1958 C 0.47999 0.81187 0.75008 0.0
C1959 C 0.48155 0.81295 0.76838 0.0
C1960 C 0.45215 0.82709 0.74936 0.0
C1961 C 0.46806 0.82136 0.77666 0.0
C1962 C 0.42096 0.83967 0.74802 0.0
C1963 C 0.42138 0.84103 0.71205 0.0
N1964 N 0.45392 0.82798 0.76712 0.0
N1965 N 0.43589 0.83536 0.72184 0.0
H1966 H 0.70961 0.85836 0.65428 0.0
H1967 H 0.73015 0.94197 0.72525 0.0
H1968 H 0.69268 0.85263 0.70724 0.0
H1969 H 0.76148 0.94484 0.67858 0.0
H1970 H 0.71436 0.90998 0.71732 0.0
H1971 H 0.72721 0.89056 0.66155 0.0
C1972 C 0.70965 0.86379 0.66743 0.0
C1973 C 0.69938 0.85279 0.68009 0.0
C1974 C 0.72475 0.91755 0.70881 0.0
C1975 C 0.71925 0.88964 0.68839 0.0
C1976 C 0.73393 0.93592 0.71339 0.0
C1977 C 0.74748 0.94628 0.70272 0.0
C1978 C 0.72889 0.90929 0.69333 0.0
C1979 C 0.75113 0.93755 0.68722 0.0
C1980 C 0.71963 0.88219 0.67154 0.0
C1981 C 0.6999 0.86067 0.69689 0.0
N1982 N 0.74189 0.91956 0.68298 0.0
N1983 N 0.70952 0.87856 0.70049 0.0
H1984 H 0.63489 0.8205 0.36442 0.0
H1985 H 0.55551 0.8053 0.28401 0.0
H1986 H 0.64685 0.84191 0.31319 0.0
H1987 H 0.54499 0.7852 0.33595 0.0
H1988 H 0.58794 0.82174 0.29476 0.0
H1989 H 0.60093 0.81021 0.35457 0.0
C1990 C 0.63032 0.82306 0.35108 0.0
C1991 C 0.64372 0.83186 0.33954 0.0
C1992 C 0.57843 0.81389 0.30382 0.0
C1993 C 0.60479 0.82013 0.32811 0.0
C1994 C 0.55991 0.80457 0.2977 0.0
C1995 C 0.54762 0.7937 0.30907 0.0
C1996 C 0.58462 0.81231 0.3214 0.0
C1997 C 0.55405 0.79322 0.32667 0.0
C1998 C 0.6109 0.81726 0.34546 0.0
C1999 C 0.63696 0.83518 0.3225 0.0
N2000 N 0.57212 0.80225 0.33224 0.0
N2001 N 0.61797 0.82913 0.31722 0.0
H2002 H 0.70492 0.11549 0.32227 0.0
H2003 H 0.80582 0.08663 0.30289 0.0
H2004 H 0.76079 0.15113 0.33478 0.0
H2005 H 0.75019 0.05236 0.28687 0.0
H2006 H 0.78946 0.11022 0.31471 0.0
H2007 H 0.72102 0.09227 0.30927 0.0
C2008 C 0.72055 0.11856 0.3222 0.0
C2009 C 0.73144 0.13543 0.32971 0.0
C2010 C 0.78079 0.09758 0.30858 0.0
C2011 C 0.75006 0.10858 0.31496 0.0
C2012 C 0.79015 0.08404 0.3018 0.0
C2013 C 0.77942 0.06739 0.29383 0.0
C2014 C 0.76046 0.09452 0.30751 0.0
C2015 C 0.75911 0.06495 0.29286 0.0
C2016 C 0.72975 0.10519 0.31484 0.0
C2017 C 0.75172 0.13829 0.32943 0.0
N2018 N 0.75032 0.0783 0.29964 0.0
N2019 N 0.76031 0.12506 0.32222 0.0
H2020 H 0.3811 0.20348 0.29924 0.0
H2021 H 0.47802 0.17133 0.27386 0.0
H2022 H 0.39928 0.15405 0.32016 0.0
H2023 H 0.45943 0.22136 0.25491 0.0
H2024 H 0.44761 0.16246 0.28821 0.0
H2025 H 0.40795 0.20797 0.28031 0.0
C2026 C 0.39073 0.19351 0.29978 0.0
C2027 C 0.38813 0.17852 0.31146 0.0
C2028 C 0.45014 0.17529 0.28078 0.0
C2029 C 0.41902 0.18357 0.28979 0.0
C2030 C 0.46745 0.18031 0.27251 0.0
C2031 C 0.47138 0.19724 0.26335 0.0
C2032 C 0.43666 0.18727 0.27981 0.0
C2033 C 0.4572 0.2084 0.26213 0.0
C2034 C 0.40605 0.19605 0.28893 0.0
C2035 C 0.4008 0.1658 0.31135 0.0
N2036 N 0.44057 0.20328 0.27035 0.0
N2037 N 0.41586 0.16874 0.30083 0.0
H2038 H 0.30602 0.87539 0.33246 0.0
H2039 H 0.3019 0.9813 0.30301 0.0
H2040 H 0.35172 0.92295 0.34619 0.0
H2041 H 0.2554 0.93325 0.29354 0.0
H2042 H 0.32272 0.95993 0.31471 0.0
H2043 H 0.2896 0.89592 0.3141 0.0
C2044 C 0.31278 0.8901 0.33128 0.0
C2045 C 0.33028 0.89749 0.34067 0.0
C2046 C 0.30805 0.95406 0.30979 0.0
C2047 C 0.31141 0.92129 0.32004 0.0
C2048 C 0.29624 0.96625 0.30296 0.0
C2049 C 0.27686 0.95907 0.29734 0.0
C2050 C 0.30042 0.93457 0.3109 0.0
C2051 C 0.27021 0.93945 0.29784 0.0
C2052 C 0.30337 0.90188 0.32089 0.0
C2053 C 0.33829 0.91671 0.33897 0.0
N2054 N 0.28185 0.92799 0.30458 0.0
N2055 N 0.32875 0.92799 0.32899 0.0
H2056 H 0.68274 0.112 0.68408 0.0
H2057 H 0.76244 0.06314 0.73459 0.0
H2058 H 0.74349 0.13712 0.68694 0.0
H2059 H 0.70919 0.03104 0.71055 0.0
H2060 H 0.75399 0.09202 0.72222 0.0
H2061 H 0.69054 0.08388 0.69843 0.0
C2062 C 0.69772 0.11165 0.6878 0.0
C2063 C 0.71247 0.12699 0.6842 0.0
C2064 C 0.74409 0.07867 0.71979 0.0
C2065 C 0.72151 0.09481 0.70095 0.0
C2066 C 0.74881 0.06217 0.727 0.0
C2067 C 0.73649 0.04454 0.72369 0.0
C2068 C 0.72673 0.07767 0.70945 0.0
C2069 C 0.71915 0.04425 0.71349 0.0
C2070 C 0.70217 0.09555 0.69594 0.0
C2071 C 0.73165 0.12561 0.68929 0.0
N2072 N 0.71477 0.06049 0.70683 0.0
N2073 N 0.73559 0.10992 0.69748 0.0
H2074 H 0.68829 0.89405 0.3518 0.0
H2075 H 0.77583 0.94603 0.29901 0.0
H2076 H 0.73004 0.86485 0.3315 0.0
H2077 H 0.74991 0.97532 0.33709 0.0
H2078 H 0.75697 0.91605 0.30839 0.0
H2079 H 0.70843 0.92419 0.34406 0.0
C2080 C 0.70168 0.89403 0.34568 0.0
C2081 C 0.70758 0.87704 0.34226 0.0
C2082 C 0.7555 0.92903 0.31477 0.0
C2083 C 0.7305 0.91121 0.33334 0.0
C2084 C 0.76617 0.94609 0.30938 0.0
C2085 C 0.76436 0.96308 0.31731 0.0
C2086 C 0.74267 0.92902 0.32796 0.0
C2087 C 0.75179 0.96247 0.33078 0.0
C2088 C 0.7132 0.91117 0.34139 0.0
C2089 C 0.72509 0.8777 0.33444 0.0
N2090 N 0.74124 0.94569 0.33559 0.0
N2091 N 0.73588 0.89451 0.33011 0.0
H2092 H 0.63367 0.18748 0.34254 0.0
H2093 H 0.60492 0.24283 0.25855 0.0
H2094 H 0.67355 0.21022 0.30442 0.0
H2095 H 0.56619 0.22763 0.29943 0.0
H2096 H 0.63112 0.23414 0.27702 0.0
H2097 H 0.60986 0.20475 0.32913 0.0
C2098 C 0.6376 0.19656 0.33165 0.0
C2099 C 0.65568 0.19766 0.32471 0.0
C2100 C 0.61704 0.233 0.28219 0.0
C2101 C 0.62834 0.21703 0.30893 0.0
C2102 C 0.60208 0.23811 0.27166 0.0
C2103 C 0.5834 0.23619 0.27753 0.0
C2104 C 0.61331 0.22537 0.29869 0.0
C2105 C 0.58046 0.22965 0.29451 0.0
C2106 C 0.62396 0.20632 0.32391 0.0
C2107 C 0.65987 0.20921 0.31032 0.0
N2108 N 0.59517 0.2242 0.30439 0.0
N2109 N 0.64628 0.21827 0.30283 0.0
H2110 H 0.30712 0.1541 0.33829 0.0
H2111 H 0.28891 0.04211 0.34873 0.0
H2112 H 0.35352 0.12334 0.34489 0.0
H2113 H 0.24906 0.07054 0.31997 0.0
H2114 H 0.31056 0.07273 0.35506 0.0
H2115 H 0.28365 0.12429 0.33901 0.0
C2116 C 0.31234 0.14108 0.34015 0.0
C2117 C 0.33226 0.14112 0.34144 0.0
C2118 C 0.29691 0.07226 0.34762 0.0
C2119 C 0.30555 0.10709 0.34234 0.0
C2120 C 0.28451 0.05487 0.34419 0.0
C2121 C 0.26723 0.05392 0.33384 0.0
C2122 C 0.29181 0.08876 0.34088 0.0
C2123 C 0.2623 0.07079 0.32797 0.0
C2124 C 0.29897 0.12411 0.34048 0.0
C2125 C 0.33827 0.12385 0.34368 0.0
N2126 N 0.27456 0.08753 0.33151 0.0
N2127 N 0.32496 0.1075 0.34405 0.0
H2128 H 0.39573 0.84954 0.35173 0.0
H2129 H 0.42484 0.75111 0.32738 0.0
H2130 H 0.35982 0.79507 0.35977 0.0
H2131 H 0.45804 0.80501 0.31348 0.0
H2132 H 0.40124 0.76719 0.33955 0.0
H2133 H 0.41857 0.83386 0.33759 0.0
C2134 C 0.39246 0.83432 0.35039 0.0
C2135 C 0.37569 0.82371 0.35712 0.0
C2136 C 0.41365 0.77555 0.33382 0.0
C2137 C 0.4022 0.80554 0.3411 0.0
C2138 C 0.42727 0.76634 0.32693 0.0
C2139 C 0.44365 0.77664 0.3194 0.0
C2140 C 0.41631 0.79532 0.33336 0.0
C2141 C 0.44565 0.7964 0.319 0.0
C2142 C 0.40565 0.82534 0.34239 0.0
C2143 C 0.37262 0.80395 0.35514 0.0
N2144 N 0.43225 0.80506 0.32593 0.0
N2145 N 0.38571 0.79558 0.34743 0.0
H2146 H 0.36635 0.90375 0.75514 0.0
H2147 H 0.30928 0.98979 0.7566 0.0
H2148 H 0.33555 0.92189 0.71031 0.0
H2149 H 0.34752 0.97876 0.79965 0.0
H2150 H 0.31812 0.96422 0.73997 0.0
H2151 H 0.3594 0.93044 0.77215 0.0
C2152 C 0.35833 0.91348 0.74886 0.0
C2153 C 0.35164 0.91078 0.73129 0.0
C2154 C 0.32464 0.96738 0.75304 0.0
C2155 C 0.34331 0.94104 0.75062 0.0
C2156 C 0.31954 0.98202 0.76259 0.0
C2157 C 0.32764 0.98656 0.77961 0.0
C2158 C 0.33787 0.95696 0.76051 0.0
C2159 C 0.34091 0.97587 0.78658 0.0
C2160 C 0.3543 0.92866 0.75855 0.0
C2161 C 0.34109 0.9236 0.7238 0.0
N2162 N 0.34554 0.96158 0.77707 0.0
N2163 N 0.33719 0.93805 0.73348 0.0
H2164 H 0.64663 0.77549 0.69739 0.0
H2165 H 0.5581 0.81174 0.73555 0.0
H2166 H 0.6301 0.82816 0.68355 0.0
H2167 H 0.56898 0.75582 0.74463 0.0
H2168 H 0.5826 0.81656 0.71425 0.0
H2169 H 0.61692 0.76667 0.71267 0.0
C2170 C 0.63665 0.7851 0.69737 0.0
C2171 C 0.641 0.80271 0.68932 0.0
C2172 C 0.5795 0.80311 0.72068 0.0
C2173 C 0.60705 0.79276 0.70695 0.0
C2174 C 0.56547 0.80034 0.73283 0.0
C2175 C 0.56163 0.78341 0.74194 0.0
C2176 C 0.59007 0.78897 0.71779 0.0
C2177 C 0.57151 0.76908 0.73785 0.0
C2178 C 0.61971 0.78007 0.70615 0.0
C2179 C 0.62758 0.81464 0.68988 0.0
N2180 N 0.58554 0.7723 0.72625 0.0
N2181 N 0.61133 0.80951 0.69864 0.0
H2182 H 0.39628 0.25308 0.70111 0.0
H2183 H 0.49096 0.20989 0.71426 0.0
H2184 H 0.4002 0.19647 0.68618 0.0
H2185 H 0.48673 0.26513 0.73313 0.0
H2186 H 0.46062 0.20829 0.69676 0.0
H2187 H 0.43159 0.26092 0.7059 0.0
C2188 C 0.40462 0.24244 0.69845 0.0
C2189 C 0.39534 0.224 0.69358 0.0
C2190 C 0.46648 0.22093 0.70446 0.0
C2191 C 0.4356 0.23277 0.69918 0.0
C2192 C 0.48385 0.22187 0.71442 0.0
C2193 C 0.49112 0.23747 0.72547 0.0
C2194 C 0.45618 0.23558 0.70576 0.0
C2195 C 0.48149 0.25272 0.72496 0.0
C2196 C 0.42475 0.24689 0.70126 0.0
C2197 C 0.4068 0.21073 0.69033 0.0
N2198 N 0.46426 0.25122 0.71557 0.0
N2199 N 0.4263 0.2153 0.69342 0.0
H2200 H 0.72638 0.6851 0.15453 0.0
H2201 H 0.70522 0.73523 0.06404 0.0
H2202 H 0.66976 0.69082 0.13353 0.0
H2203 H 0.76287 0.73037 0.08291 0.0
H2204 H 0.69241 0.71798 0.08918 0.0
H2205 H 0.74027 0.70002 0.12823 0.0
C2206 C 0.71683 0.68928 0.14436 0.0
C2207 C 0.69683 0.68682 0.14646 0.0
C2208 C 0.70788 0.72062 0.08789 0.0
C2209 C 0.7127 0.70411 0.11629 0.0
C2210 C 0.71528 0.73065 0.07348 0.0
C2211 C 0.73528 0.73455 0.07124 0.0
C2212 C 0.72044 0.7143 0.10042 0.0
C2213 C 0.74737 0.72771 0.08394 0.0
C2214 C 0.7248 0.69793 0.12938 0.0
C2215 C 0.68527 0.69269 0.13278 0.0
N2216 N 0.7398 0.71804 0.09797 0.0
N2217 N 0.69334 0.70105 0.11846 0.0
H2218 H 0.37241 0.68186 0.08748 0.0
H2219 H 0.28734 0.73673 0.06082 0.0
H2220 H 0.33456 0.6981 0.1239 0.0
H2221 H 0.32513 0.72034 0.02421 0.0
H2222 H 0.30729 0.72664 0.08466 0.0
H2223 H 0.35813 0.69963 0.06474 0.0
C2224 C 0.36129 0.68947 0.09069 0.0
C2225 C 0.35455 0.68865 0.10742 0.0
C2226 C 0.31136 0.72545 0.07143 0.0
C2227 C 0.33798 0.70866 0.08164 0.0
C2228 C 0.29998 0.73125 0.05779 0.0
C2229 C 0.30441 0.72917 0.04044 0.0
C2230 C 0.32724 0.7174 0.06772 0.0
C2231 C 0.32106 0.72208 0.03735 0.0
C2232 C 0.3531 0.69955 0.07775 0.0
C2233 C 0.34007 0.69852 0.11106 0.0
N2234 N 0.33173 0.71625 0.05084 0.0
N2235 N 0.33212 0.70802 0.09822 0.0
H2236 H 0.38524 0.32827 0.14385 0.0
H2237 H 0.28212 0.28919 0.093 0.0
H2238 H 0.33091 0.32684 0.16693 0.0
H2239 H 0.33679 0.29344 0.06977 0.0
H2240 H 0.29936 0.30467 0.11948 0.0
H2241 H 0.36754 0.31698 0.11627 0.0
C2242 C 0.36957 0.32558 0.14315 0.0
C2243 C 0.35962 0.32841 0.1579 0.0
C2244 C 0.30757 0.30238 0.10853 0.0
C2245 C 0.33909 0.31548 0.12605 0.0
C2246 C 0.29771 0.2936 0.09332 0.0
C2247 C 0.30795 0.28991 0.07902 0.0
C2248 C 0.32789 0.30749 0.10958 0.0
C2249 C 0.3282 0.29592 0.08038 0.0
C2250 C 0.35944 0.31921 0.12732 0.0
C2251 C 0.33927 0.325 0.15596 0.0
N2252 N 0.33745 0.30424 0.09536 0.0
N2253 N 0.32971 0.3186 0.14043 0.0
H2254 H 0.73618 0.34784 0.08417 0.0
H2255 H 0.8494 0.35853 0.07118 0.0
H2256 H 0.77787 0.33895 0.12507 0.0
H2257 H 0.80569 0.35751 0.02925 0.0
H2258 H 0.82463 0.35832 0.09221 0.0
H2259 H 0.76259 0.35811 0.06505 0.0
C2260 C 0.75099 0.34836 0.08915 0.0
C2261 C 0.75503 0.34255 0.10605 0.0
C2262 C 0.82053 0.35846 0.07841 0.0
C2263 C 0.78522 0.354 0.08438 0.0
C2264 C 0.83469 0.35877 0.06643 0.0
C2265 C 0.82949 0.35789 0.04848 0.0
C2266 C 0.80112 0.35737 0.07234 0.0
C2267 C 0.81019 0.35799 0.04299 0.0
C2268 C 0.76604 0.35415 0.07827 0.0
C2269 C 0.77432 0.34335 0.11202 0.0
N2270 N 0.79668 0.35753 0.05485 0.0
N2271 N 0.78876 0.34882 0.10112 0.0
H2272 H 0.76261 0.34971 0.8834 0.0
H2273 H 0.8008 0.29679 0.96614 0.0
H2274 H 0.74185 0.29105 0.89398 0.0
H2275 H 0.82262 0.35522 0.95479 0.0
H2276 H 0.77779 0.29482 0.94068 0.0
H2277 H 0.78379 0.35248 0.91032 0.0
C2278 C 0.7626 0.33745 0.89145 0.0
C2279 C 0.75072 0.32014 0.88664 0.0
C2280 C 0.78755 0.3081 0.94382 0.0
C2281 C 0.7746 0.32306 0.91726 0.0
C2282 C 0.80064 0.30924 0.95839 0.0
C2283 C 0.81372 0.32617 0.96256 0.0
C2284 C 0.78754 0.32399 0.93335 0.0
C2285 C 0.81288 0.34185 0.95203 0.0
C2286 C 0.7746 0.33899 0.90679 0.0
C2287 C 0.75098 0.30462 0.89738 0.0
N2288 N 0.8001 0.34036 0.93789 0.0
N2289 N 0.76277 0.30642 0.9122 0.0
H2290 H 0.73035 0.7109 0.88693 0.0
H2291 H 0.78162 0.70952 0.98265 0.0
H2292 H 0.7485 0.66059 0.90599 0.0
H2293 H 0.74115 0.74501 0.96717 0.0
H2294 H 0.77449 0.69323 0.95387 0.0
H2295 H 0.73927 0.72567 0.9155 0.0
C2296 C 0.73601 0.7028 0.8971 0.0
C2297 C 0.7383 0.68424 0.8939 0.0
C2298 C 0.76721 0.70457 0.95693 0.0
C2299 C 0.7492 0.70154 0.9269 0.0
C2300 C 0.7713 0.71388 0.9733 0.0
C2301 C 0.76191 0.7286 0.97746 0.0
C2302 C 0.75401 0.71038 0.94461 0.0
C2303 C 0.74868 0.73367 0.96477 0.0
C2304 C 0.74129 0.71137 0.91346 0.0
C2305 C 0.74651 0.67493 0.90769 0.0
N2306 N 0.74527 0.72471 0.94903 0.0
N2307 N 0.75165 0.68365 0.92356 0.0
H2308 H 0.3462 0.63997 0.93764 0.0
H2309 H 0.26352 0.6989 0.95021 0.0
H2310 H 0.32943 0.67838 0.89972 0.0
H2311 H 0.27724 0.65775 0.98685 0.0
H2312 H 0.28492 0.68878 0.92998 0.0
H2313 H 0.31856 0.64341 0.95436 0.0
C2314 C 0.33644 0.64888 0.93275 0.0
C2315 C 0.33989 0.65894 0.91742 0.0
C2316 C 0.28309 0.68177 0.94234 0.0
C2317 C 0.30862 0.66319 0.9364 0.0
C2318 C 0.2709 0.68757 0.9539 0.0
C2319 C 0.26877 0.67929 0.97029 0.0
C2320 C 0.29344 0.66769 0.94728 0.0
C2321 C 0.27842 0.66448 0.97433 0.0
C2322 C 0.32073 0.65088 0.94226 0.0
C2323 C 0.32709 0.67041 0.91154 0.0
N2324 N 0.29056 0.65933 0.963 0.0
N2325 N 0.31209 0.67237 0.92113 0.0
H2326 H 0.36681 0.28333 0.89241 0.0
H2327 H 0.34062 0.29651 0.99108 0.0
H2328 H 0.36987 0.33799 0.91648 0.0
H2329 H 0.34996 0.24398 0.96986 0.0
H2330 H 0.34924 0.31175 0.96348 0.0
H2331 H 0.35877 0.2686 0.92016 0.0
C2332 C 0.36596 0.29233 0.90351 0.0
C2333 C 0.36923 0.31208 0.90191 0.0
C2334 C 0.34947 0.2969 0.96489 0.0
C2335 C 0.35952 0.29503 0.93397 0.0
C2336 C 0.34446 0.28815 0.98065 0.0
C2337 C 0.34457 0.26888 0.98292 0.0
C2338 C 0.35444 0.28631 0.95112 0.0
C2339 C 0.34988 0.25888 0.96889 0.0
C2340 C 0.36123 0.28383 0.9194 0.0
C2341 C 0.36731 0.32276 0.91685 0.0
N2342 N 0.35448 0.26766 0.95363 0.0
N2343 N 0.36259 0.31413 0.93216 0.0
H2344 H 0.60289 0.66706 0.20589 0.0
H2345 H 0.56788 0.74117 0.26874 0.0
H2346 H 0.6412 0.71558 0.22957 0.0
H2347 H 0.53022 0.6907 0.2476 0.0
H2348 H 0.59507 0.73143 0.2555 0.0
H2349 H 0.5765 0.67436 0.22242 0.0
C2350 C 0.60584 0.67897 0.21492 0.0
C2351 C 0.6243 0.69055 0.21663 0.0
C2352 C 0.58086 0.72243 0.25383 0.0
C2353 C 0.59405 0.69943 0.23518 0.0
C2354 C 0.56524 0.72806 0.26133 0.0
C2355 C 0.54653 0.71683 0.25935 0.0
C2356 C 0.57789 0.70544 0.24412 0.0
C2357 C 0.54428 0.69981 0.24972 0.0
C2358 C 0.59074 0.68327 0.22425 0.0
C2359 C 0.62723 0.70612 0.22813 0.0
N2360 N 0.55966 0.69474 0.24244 0.0
N2361 N 0.61229 0.71018 0.23686 0.0
H2362 H 0.35507 0.65878 0.20956 0.0
H2363 H 0.37563 0.56174 0.24723 0.0
H2364 H 0.38245 0.62193 0.17988 0.0
H2365 H 0.326 0.58404 0.26033 0.0
H2366 H 0.38311 0.5869 0.22587 0.0
H2367 H 0.34868 0.63436 0.23169 0.0
C2368 C 0.35972 0.64553 0.20775 0.0
C2369 C 0.36918 0.64224 0.19289 0.0
C2370 C 0.37064 0.5863 0.23349 0.0
C2371 C 0.36229 0.61454 0.21818 0.0
C2372 C 0.36649 0.5721 0.24574 0.0
C2373 C 0.35019 0.5709 0.25548 0.0
C2374 C 0.35862 0.59956 0.23128 0.0
C2375 C 0.33862 0.58449 0.25296 0.0
C2376 C 0.35606 0.63164 0.22031 0.0
C2377 C 0.37495 0.62488 0.1911 0.0
N2378 N 0.3431 0.59833 0.24116 0.0
N2379 N 0.37154 0.61169 0.20368 0.0
H2380 H 0.42445 0.32136 0.17657 0.0
H2381 H 0.48774 0.28319 0.25438 0.0
H2382 H 0.40894 0.32052 0.22998 0.0
H2383 H 0.49391 0.2748 0.19966 0.0
H2384 H 0.46141 0.3003 0.24657 0.0
H2385 H 0.45209 0.30727 0.18556 0.0
C2386 C 0.42669 0.31813 0.19018 0.0
C2387 C 0.41402 0.32212 0.20243 0.0
C2388 C 0.46868 0.29482 0.23631 0.0
C2389 C 0.44631 0.30613 0.213 0.0
C2390 C 0.48382 0.2852 0.24077 0.0
C2391 C 0.49308 0.2775 0.22767 0.0
C2392 C 0.46294 0.29691 0.21863 0.0
C2393 C 0.48717 0.28036 0.21024 0.0
C2394 C 0.44267 0.31017 0.19536 0.0
C2395 C 0.41827 0.31795 0.22 0.0
N2396 N 0.47259 0.28975 0.20628 0.0
N2397 N 0.43396 0.31019 0.22473 0.0
H2398 H 0.75085 0.37502 0.16798 0.0
H2399 H 0.72242 0.46588 0.211 0.0
H2400 H 0.69299 0.38631 0.16562 0.0
H2401 H 0.77965 0.45308 0.21712 0.0
H2402 H 0.71257 0.43898 0.19098 0.0
H2403 H 0.76276 0.40565 0.18258 0.0
C2404 C 0.7407 0.38405 0.17032 0.0
C2405 C 0.72087 0.37803 0.16574 0.0
C2406 C 0.72733 0.44212 0.19658 0.0
C2407 C 0.73434 0.41298 0.18256 0.0
C2408 C 0.73299 0.45752 0.20801 0.0
C2409 C 0.75185 0.46164 0.21592 0.0
C2410 C 0.74059 0.43066 0.19304 0.0
C2411 C 0.76493 0.45036 0.21142 0.0
C2412 C 0.74748 0.40148 0.17874 0.0
C2413 C 0.70834 0.39025 0.16921 0.0
N2414 N 0.75901 0.43528 0.2004 0.0
N2415 N 0.71526 0.40707 0.17749 0.0
H2416 H 0.66533 0.33905 0.8046 0.0
H2417 H 0.56543 0.27464 0.82904 0.0
H2418 H 0.65632 0.31162 0.85393 0.0
H2419 H 0.57646 0.29405 0.77696 0.0
H2420 H 0.59699 0.29265 0.83947 0.0
H2421 H 0.63132 0.32679 0.79534 0.0
C2422 C 0.65613 0.33058 0.81352 0.0
C2423 C 0.66364 0.32621 0.83 0.0
C2424 C 0.59247 0.29311 0.82579 0.0
C2425 C 0.62485 0.31216 0.81952 0.0
C2426 C 0.57441 0.28287 0.81981 0.0
C2427 C 0.56842 0.28263 0.80205 0.0
C2428 C 0.60469 0.30318 0.81392 0.0
C2429 C 0.58057 0.29373 0.79074 0.0
C2430 C 0.63677 0.32355 0.80822 0.0
C2431 C 0.65117 0.31507 0.84101 0.0
N2432 N 0.59826 0.30342 0.79684 0.0
N2433 N 0.6324 0.30839 0.83555 0.0
H2434 H 0.75442 0.65792 0.82099 0.0
H2435 H 0.78391 0.55708 0.81983 0.0
H2436 H 0.74885 0.62249 0.86602 0.0
H2437 H 0.8076 0.60258 0.78659 0.0
H2438 H 0.76962 0.57943 0.83653 0.0
H2439 H 0.77215 0.63645 0.80743 0.0
C2440 C 0.75698 0.64561 0.82804 0.0
C2441 C 0.75011 0.64199 0.84466 0.0
C2442 C 0.77815 0.5845 0.82569 0.0
C2443 C 0.77032 0.6171 0.82907 0.0
C2444 C 0.78636 0.57176 0.81617 0.0
C2445 C 0.79699 0.57786 0.80169 0.0
C2446 C 0.78031 0.60341 0.82054 0.0
C2447 C 0.79954 0.59709 0.79757 0.0
C2448 C 0.76718 0.63337 0.82032 0.0
C2449 C 0.75397 0.62585 0.85323 0.0
N2450 N 0.7911 0.60904 0.80676 0.0
N2451 N 0.76362 0.61388 0.84527 0.0
H2452 H 0.40374 0.70063 0.85786 0.0
H2453 H 0.48822 0.71121 0.79223 0.0
H2454 H 0.4169 0.65162 0.8327 0.0
H2455 H 0.48608 0.74999 0.83456 0.0
H2456 H 0.45938 0.69019 0.80264 0.0
H2457 H 0.43073 0.72028 0.84451 0.0
C2458 C 0.41235 0.69396 0.84954 0.0
C2459 C 0.40827 0.67435 0.84674 0.0
C2460 C 0.46535 0.70332 0.80958 0.0
C2461 C 0.43921 0.69696 0.83112 0.0
C2462 C 0.48174 0.71529 0.80366 0.0
C2463 C 0.48963 0.73235 0.81257 0.0
C2464 C 0.45668 0.70873 0.82424 0.0
C2465 C 0.48065 0.73697 0.8273 0.0
C2466 C 0.42774 0.70522 0.84187 0.0
C2467 C 0.41957 0.66666 0.83529 0.0
N2468 N 0.46467 0.72532 0.83257 0.0
N2469 N 0.43465 0.67798 0.82795 0.0
H2470 H 0.39137 0.40637 0.83834 0.0
H2471 H 0.31316 0.44407 0.77427 0.0
H2472 H 0.3362 0.37252 0.82091 0.0
H2473 H 0.3684 0.47813 0.79177 0.0
H2474 H 0.32211 0.41728 0.78975 0.0
H2475 H 0.38436 0.432 0.8196 0.0
C2476 C 0.37797 0.4042 0.83023 0.0
C2477 C 0.36448 0.38722 0.83093 0.0
C2478 C 0.33232 0.43059 0.79016 0.0
C2479 C 0.35602 0.41668 0.8098 0.0
C2480 C 0.32716 0.44602 0.78136 0.0
C2481 C 0.33993 0.46363 0.78169 0.0
C2482 C 0.35043 0.43262 0.79949 0.0
C2483 C 0.35805 0.46494 0.79094 0.0
C2484 C 0.37387 0.41889 0.81964 0.0
C2485 C 0.34712 0.38529 0.82052 0.0
N2486 N 0.36267 0.44976 0.79949 0.0
N2487 N 0.34335 0.39984 0.81048 0.0
H2488 H 0.71967 0.6467 0.19187 0.0
H2489 H 0.68 0.55046 0.24129 0.0
H2490 H 0.65991 0.62776 0.20295 0.0
H2491 H 0.74024 0.56946 0.23177 0.0
H2492 H 0.67264 0.57858 0.22726 0.0
H2493 H 0.72752 0.61862 0.20604 0.0
C2494 C 0.70813 0.63665 0.19718 0.0
C2495 C 0.68902 0.6398 0.19609 0.0
C2496 C 0.68749 0.57665 0.22823 0.0
C2497 C 0.69808 0.60739 0.21262 0.0
C2498 C 0.69179 0.56052 0.23639 0.0
C2499 C 0.71088 0.55734 0.23793 0.0
C2500 C 0.70231 0.58996 0.22142 0.0
C2501 C 0.7253 0.57102 0.23087 0.0
C2502 C 0.71269 0.6206 0.20539 0.0
C2503 C 0.67488 0.62624 0.20359 0.0
N2504 N 0.72073 0.58663 0.22299 0.0
N2505 N 0.67968 0.61073 0.21143 0.0
H2506 H 0.74669 0.36992 0.82217 0.0
H2507 H 0.72736 0.47457 0.80897 0.0
H2508 H 0.69974 0.39062 0.84364 0.0
H2509 H 0.77137 0.45299 0.78335 0.0
H2510 H 0.71889 0.44468 0.82371 0.0
H2511 H 0.75849 0.40134 0.8106 0.0
C2512 C 0.73911 0.38119 0.82474 0.0
C2513 C 0.72215 0.37768 0.83374 0.0
C2514 C 0.73042 0.44647 0.81487 0.0
C2515 C 0.73528 0.41345 0.82034 0.0
C2516 C 0.73515 0.46352 0.80629 0.0
C2517 C 0.75004 0.46634 0.79475 0.0
C2518 C 0.7406 0.43202 0.81195 0.0
C2519 C 0.75989 0.45154 0.7922 0.0
C2520 C 0.74572 0.39905 0.818 0.0
C2521 C 0.71274 0.39271 0.83657 0.0
N2522 N 0.75497 0.43501 0.80069 0.0
N2523 N 0.71935 0.40988 0.82979 0.0
H2524 H 0.64459 0.67433 0.84089 0.0
H2525 H 0.61791 0.77617 0.8243 0.0
H2526 H 0.68732 0.72575 0.84064 0.0
H2527 H 0.57602 0.72395 0.81928 0.0
H2528 H 0.64301 0.7584 0.83278 0.0
H2529 H 0.61896 0.6926 0.83575 0.0
C2530 C 0.64852 0.68955 0.84008 0.0
C2531 C 0.66802 0.69861 0.8414 0.0
C2532 C 0.62832 0.75081 0.82987 0.0
C2533 C 0.63883 0.71965 0.83514 0.0
C2534 C 0.61388 0.76099 0.8251 0.0
C2535 C 0.59466 0.75163 0.821 0.0
C2536 C 0.62364 0.73104 0.83068 0.0
C2537 C 0.59058 0.73183 0.82209 0.0
C2538 C 0.63391 0.69997 0.83701 0.0
C2539 C 0.67241 0.71828 0.83991 0.0
N2540 N 0.60489 0.72226 0.82681 0.0
N2541 N 0.65794 0.72814 0.83682 0.0
H2542 H 0.35508 0.60107 0.87164 0.0
H2543 H 0.28975 0.55691 0.78708 0.0
H2544 H 0.34606 0.63259 0.82538 0.0
H2545 H 0.31268 0.52328 0.82638 0.0
H2546 H 0.30429 0.58531 0.80408 0.0
H2547 H 0.33418 0.57312 0.85791 0.0
C2548 C 0.34855 0.60214 0.85864 0.0
C2549 C 0.35237 0.61915 0.84959 0.0
C2550 C 0.30592 0.57169 0.80908 0.0
C2551 C 0.32844 0.58724 0.83384 0.0
C2552 C 0.29748 0.55542 0.79946 0.0
C2553 C 0.30022 0.53764 0.80519 0.0
C2554 C 0.31704 0.5702 0.82461 0.0
C2555 C 0.31035 0.53667 0.82137 0.0
C2556 C 0.33669 0.58618 0.85081 0.0
C2557 C 0.34368 0.6197 0.83272 0.0
N2558 N 0.31856 0.55275 0.83043 0.0
N2559 N 0.33212 0.60396 0.82538 0.0
H2560 H 0.42407 0.33795 0.84114 0.0
H2561 H 0.4454 0.23751 0.81188 0.0
H2562 H 0.38666 0.28439 0.84924 0.0
H2563 H 0.48595 0.28983 0.80618 0.0
H2564 H 0.42297 0.25505 0.82377 0.0
H2565 H 0.44577 0.32136 0.82606 0.0
C2566 C 0.42027 0.32276 0.83952 0.0
C2567 C 0.40357 0.31255 0.84661 0.0
C2568 C 0.43676 0.26275 0.81991 0.0
C2569 C 0.42841 0.29344 0.82952 0.0
C2570 C 0.44971 0.25267 0.81318 0.0
C2571 C 0.46782 0.26207 0.80807 0.0
C2572 C 0.44176 0.28251 0.82164 0.0
C2573 C 0.47219 0.28189 0.80981 0.0
C2574 C 0.43273 0.31327 0.83104 0.0
C2575 C 0.39948 0.29284 0.84423 0.0
N2576 N 0.45932 0.29141 0.81649 0.0
N2577 N 0.41179 0.284 0.83601 0.0
H2578 H 0.36737 0.41304 0.19976 0.0
H2579 H 0.29121 0.45321 0.25543 0.0
H2580 H 0.32379 0.37733 0.22768 0.0
H2581 H 0.34189 0.48721 0.23531 0.0
H2582 H 0.29806 0.42551 0.23999 0.0
H2583 H 0.35344 0.44035 0.20722 0.0
C2584 C 0.35453 0.41091 0.20708 0.0
C2585 C 0.34658 0.39294 0.21298 0.0
C2586 C 0.3074 0.43913 0.23862 0.0
C2587 C 0.33078 0.42419 0.22201 0.0
C2588 C 0.30333 0.45499 0.24724 0.0
C2589 C 0.31589 0.47257 0.24649 0.0
C2590 C 0.3241 0.44096 0.22915 0.0
C2591 C 0.33175 0.47395 0.23612 0.0
C2592 C 0.34666 0.42651 0.21148 0.0
C2593 C 0.3302 0.39097 0.22274 0.0
N2594 N 0.33545 0.45841 0.22799 0.0
N2595 N 0.32292 0.40641 0.22708 0.0
H2596 H 0.68083 0.32594 0.19295 0.0
H2597 H 0.57768 0.25739 0.17349 0.0
H2598 H 0.65811 0.30628 0.14127 0.0
H2599 H 0.60156 0.27666 0.22497 0.0
H2600 H 0.60708 0.27467 0.16136 0.0
H2601 H 0.65187 0.30767 0.20482 0.0
C2602 C 0.6697 0.31783 0.18407 0.0
C2603 C 0.67187 0.31775 0.16606 0.0
C2604 C 0.60587 0.27511 0.17531 0.0
C2605 C 0.63865 0.29658 0.17961 0.0
C2606 C 0.5891 0.26517 0.18226 0.0
C2607 C 0.58703 0.26561 0.2003 0.0
C2608 C 0.62072 0.28557 0.18647 0.0
C2609 C 0.60229 0.27614 0.21098 0.0
C2610 C 0.65319 0.30731 0.19088 0.0
C2611 C 0.65712 0.30666 0.15525 0.0
N2612 N 0.61843 0.28567 0.20391 0.0
N2613 N 0.64111 0.29658 0.16218 0.0
H2614 H 0.42263 0.70528 0.15863 0.0
H2615 H 0.45457 0.77137 0.24278 0.0
H2616 H 0.38519 0.71298 0.19905 0.0
H2617 H 0.49466 0.75225 0.21015 0.0
H2618 H 0.42815 0.75851 0.22145 0.0
H2619 H 0.4477 0.73052 0.17211 0.0
C2620 C 0.4195 0.71268 0.17005 0.0
C2621 C 0.40196 0.70694 0.17791 0.0
C2622 C 0.44278 0.75745 0.2188 0.0
C2623 C 0.4305 0.73559 0.19341 0.0
C2624 C 0.45791 0.76484 0.23095 0.0
C2625 C 0.47683 0.76246 0.22848 0.0
C2626 C 0.44655 0.74757 0.20407 0.0
C2627 C 0.48027 0.75413 0.21276 0.0
C2628 C 0.43383 0.72697 0.17779 0.0
C2629 C 0.39865 0.71686 0.19275 0.0
N2630 N 0.46521 0.74666 0.20129 0.0
N2631 N 0.41288 0.73055 0.20015 0.0
loop_
_geom_bond_atom_site_label_1
_geom_bond_atom_site_label_2
_geom_bond_distance
_geom_bond_site_symmetry_2
_ccdc_geom_bond_type
H0 C3 0.929 . S
H1 C6 0.929 . S
H2 C8 0.930 . S
C3 H0 0.929 . S
C3 C4 1.398 . S
C3 C5 1.396 . S
C4 C3 1.398 . S
C4 C8 1.407 . S
C5 C3 1.396 . S
C5 C6 1.394 . S
C6 H1 0.929 . S
C6 C5 1.394 . S
C6 C7 1.382 . S
C7 C6 1.382 . S
C7 C8 1.392 . S
C7 N9 1.420 . S
C8 H2 0.930 . S
C8 C4 1.407 . S
C8 C7 1.392 . S
N9 C7 1.420 . S
N9 C10 1.244 . S
C10 N9 1.244 . S
H11 C14 0.929 . S
H12 C17 0.929 . S
H13 C19 0.930 . S
C14 H11 0.929 . S
C14 C15 1.398 . S
C14 C16 1.396 . S
C15 C14 1.398 . S
C15 C19 1.407 . S
C16 C14 1.396 . S
C16 C17 1.394 . S
C17 H12 0.929 . S
C17 C16 1.394 . S
C17 C18 1.382 . S
C18 C17 1.382 . S
C18 C19 1.392 . S
C18 N20 1.420 . S
C19 H13 0.930 . S
C19 C15 1.407 . S
C19 C18 1.392 . S
N20 C18 1.420 . S
N20 C21 1.244 . S
C21 N20 1.244 . S
H22 C25 0.929 . S
H23 C28 0.929 . S
H24 C30 0.930 . S
C25 H22 0.929 . S
C25 C26 1.398 . S
C25 C27 1.396 . S
C26 C25 1.398 . S
C26 C30 1.407 . S
C27 C25 1.396 . S
C27 C28 1.394 . S
C28 H23 0.929 . S
C28 C27 1.394 . S
C28 C29 1.382 . S
C29 C28 1.382 . S
C29 C30 1.392 . S
C29 N31 1.420 . S
C30 H24 0.930 . S
C30 C26 1.407 . S
C30 C29 1.392 . S
N31 C29 1.420 . S
N31 C32 1.244 . S
C32 N31 1.244 . S
H33 C36 0.929 . S
H34 C39 0.929 . S
H35 C41 0.930 . S
C36 H33 0.929 . S
C36 C37 1.398 . S
C36 C38 1.396 . S
C37 C36 1.398 . S
C37 C41 1.407 . S
C38 C36 1.396 . S
C38 C39 1.394 . S
C39 H34 0.929 . S
C39 C38 1.394 . S
C39 C40 1.382 . S
C40 C39 1.382 . S
C40 C41 1.392 . S
C40 N42 1.420 . S
C41 H35 0.930 . S
C41 C37 1.407 . S
C41 C40 1.392 . S
N42 C40 1.420 . S
N42 C43 1.244 . S
C43 N42 1.244 . S
H44 C47 0.929 . S
H45 C50 0.929 . S
H46 C52 0.930 . S
C47 H44 0.929 . S
C47 C48 1.398 . S
C47 C49 1.396 . S
C48 C47 1.398 . S
C48 C52 1.407 . S
C49 C47 1.396 . S
C49 C50 1.394 . S
C50 H45 0.929 . S
C50 C49 1.394 . S
C50 C51 1.382 . S
C51 C50 1.382 . S
C51 C52 1.392 . S
C51 N53 1.420 . S
C52 H46 0.930 . S
C52 C48 1.407 . S
C52 C51 1.392 . S
N53 C51 1.420 . S
N53 C54 1.244 . S
C54 N53 1.244 . S
H55 C58 0.929 . S
H56 C61 0.929 . S
H57 C63 0.930 . S
C58 H55 0.929 . S
C58 C59 1.398 . S
C58 C60 1.396 . S
C59 C58 1.398 . S
C59 C63 1.407 . S
C60 C58 1.396 . S
C60 C61 1.394 . S
C61 H56 0.929 . S
C61 C60 1.394 . S
C61 C62 1.382 . S
C62 C61 1.382 . S
C62 C63 1.392 . S
C62 N64 1.420 . S
C63 H57 0.930 . S
C63 C59 1.407 . S
C63 C62 1.392 . S
N64 C62 1.420 . S
N64 C65 1.244 . S
C65 N64 1.244 . S
H66 C69 0.929 . S
H67 C72 0.929 . S
H68 C74 0.930 . S
C69 H66 0.929 . S
C69 C70 1.398 . S
C69 C71 1.396 . S
C70 C69 1.398 . S
C70 C74 1.407 . S
C71 C69 1.396 . S
C71 C72 1.394 . S
C72 H67 0.929 . S
C72 C71 1.394 . S
C72 C73 1.382 . S
C73 C72 1.382 . S
C73 C74 1.392 . S
C73 N75 1.420 . S
C74 H68 0.930 . S
C74 C70 1.407 . S
C74 C73 1.392 . S
N75 C73 1.420 . S
N75 C76 1.244 . S
C76 N75 1.244 . S
H77 C80 0.929 . S
H78 C83 0.929 . S
H79 C85 0.930 . S
C80 H77 0.929 . S
C80 C81 1.398 . S
C80 C82 1.396 . S
C81 C80 1.398 . S
C81 C85 1.407 . S
C82 C80 1.396 . S
C82 C83 1.394 . S
C83 H78 0.929 . S
C83 C82 1.394 . S
C83 C84 1.382 . S
C84 C83 1.382 . S
C84 C85 1.392 . S
C84 N86 1.420 . S
C85 H79 0.930 . S
C85 C81 1.407 . S
C85 C84 1.392 . S
N86 C84 1.420 . S
N86 C87 1.244 . S
C87 N86 1.244 . S
H88 C91 0.929 . S
H89 C94 0.929 . S
H90 C96 0.930 . S
C91 H88 0.929 . S
C91 C92 1.398 . S
C91 C93 1.396 . S
C92 C91 1.398 . S
C92 C96 1.407 . S
C93 C91 1.396 . S
C93 C94 1.394 . S
C94 H89 0.929 . S
C94 C93 1.394 . S
C94 C95 1.382 . S
C95 C94 1.382 . S
C95 C96 1.392 . S
C95 N97 1.420 . S
C96 H90 0.930 . S
C96 C92 1.407 . S
C96 C95 1.392 . S
N97 C95 1.420 . S
N97 C98 1.244 . S
C98 N97 1.244 . S
H99 C102 0.929 . S
H100 C105 0.929 . S
H101 C107 0.930 . S
C102 H99 0.929 . S
C102 C103 1.398 . S
C102 C104 1.396 . S
C103 C102 1.398 . S
C103 C107 1.407 . S
C104 C102 1.396 . S
C104 C105 1.394 . S
C105 H100 0.929 . S
C105 C104 1.394 . S
C105 C106 1.382 . S
C106 C105 1.382 . S
C106 C107 1.392 . S
C106 N108 1.420 . S
C107 H101 0.930 . S
C107 C103 1.407 . S
C107 C106 1.392 . S
N108 C106 1.420 . S
N108 C109 1.244 . S
C109 N108 1.244 . S
H110 C113 0.929 . S
H111 C116 0.929 . S
H112 C118 0.930 . S
C113 H110 0.929 . S
C113 C114 1.398 . S
C113 C115 1.396 . S
C114 C113 1.398 . S
C114 C118 1.407 . S
C115 C113 1.396 . S
C115 C116 1.394 . S
C116 H111 0.929 . S
C116 C115 1.394 . S
C116 C117 1.382 . S
C117 C116 1.382 . S
C117 C118 1.392 . S
C117 N119 1.420 . S
C118 H112 0.930 . S
C118 C114 1.407 . S
C118 C117 1.392 . S
N119 C117 1.420 . S
N119 C120 1.244 . S
C120 N119 1.244 . S
H121 C124 0.929 . S
H122 C127 0.929 . S
H123 C129 0.930 . S
C124 H121 0.929 . S
C124 C125 1.398 . S
C124 C126 1.396 . S
C125 C124 1.398 . S
C125 C129 1.407 . S
C126 C124 1.396 . S
C126 C127 1.394 . S
C127 H122 0.929 . S
C127 C126 1.394 . S
C127 C128 1.382 . S
C128 C127 1.382 . S
C128 C129 1.392 . S
C128 N130 1.420 . S
C129 H123 0.930 . S
C129 C125 1.407 . S
C129 C128 1.392 . S
N130 C128 1.420 . S
N130 C131 1.244 . S
C131 N130 1.244 . S
H132 C135 0.929 . S
H133 C138 0.929 . S
H134 C140 0.930 . S
C135 H132 0.929 . S
C135 C136 1.398 . S
C135 C137 1.396 . S
C136 C135 1.398 . S
C136 C140 1.407 . S
C137 C135 1.396 . S
C137 C138 1.394 . S
C138 H133 0.929 . S
C138 C137 1.394 . S
C138 C139 1.382 . S
C139 C138 1.382 . S
C139 C140 1.392 . S
C139 N141 1.420 . S
C140 H134 0.930 . S
C140 C136 1.407 . S
C140 C139 1.392 . S
N141 C139 1.420 . S
N141 C142 1.244 . S
C142 N141 1.244 . S
H143 C146 0.929 . S
H144 C149 0.929 . S
H145 C151 0.930 . S
C146 H143 0.929 . S
C146 C147 1.398 . S
C146 C148 1.396 . S
C147 C146 1.398 . S
C147 C151 1.407 . S
C148 C146 1.396 . S
C148 C149 1.394 . S
C149 H144 0.929 . S
C149 C148 1.394 . S
C149 C150 1.382 . S
C150 C149 1.382 . S
C150 C151 1.392 . S
C150 N152 1.420 . S
C151 H145 0.930 . S
C151 C147 1.407 . S
C151 C150 1.392 . S
N152 C150 1.420 . S
N152 C153 1.244 . S
C153 N152 1.244 . S
H154 C157 0.929 . S
H155 C160 0.929 . S
H156 C162 0.930 . S
C157 H154 0.929 . S
C157 C158 1.398 . S
C157 C159 1.396 . S
C158 C157 1.398 . S
C158 C162 1.407 . S
C159 C157 1.396 . S
C159 C160 1.394 . S
C160 H155 0.929 . S
C160 C159 1.394 . S
C160 C161 1.382 . S
C161 C160 1.382 . S
C161 C162 1.392 . S
C161 N163 1.420 . S
C162 H156 0.930 . S
C162 C158 1.407 . S
C162 C161 1.392 . S
N163 C161 1.420 . S
N163 C164 1.244 . S
C164 N163 1.244 . S
H165 C168 0.929 . S
H166 C171 0.929 . S
H167 C173 0.930 . S
C168 H165 0.929 . S
C168 C169 1.398 . S
C168 C170 1.396 . S
C169 C168 1.398 . S
C169 C173 1.407 . S
C170 C168 1.396 . S
C170 C171 1.394 . S
C171 H166 0.929 . S
C171 C170 1.394 . S
C171 C172 1.382 . S
C172 C171 1.382 . S
C172 C173 1.392 . S
C172 N174 1.420 . S
C173 H167 0.930 . S
C173 C169 1.407 . S
C173 C172 1.392 . S
N174 C172 1.420 . S
N174 C175 1.244 . S
C175 N174 1.244 . S
H176 C179 0.929 . S
H177 C182 0.929 . S
H178 C184 0.930 . S
C179 H176 0.929 . S
C179 C180 1.398 . S
C179 C181 1.396 . S
C180 C179 1.398 . S
C180 C184 1.407 . S
C181 C179 1.396 . S
C181 C182 1.394 . S
C182 H177 0.929 . S
C182 C181 1.394 . S
C182 C183 1.382 . S
C183 C182 1.382 . S
C183 C184 1.392 . S
C183 N185 1.420 . S
C184 H178 0.930 . S
C184 C180 1.407 . S
C184 C183 1.392 . S
N185 C183 1.420 . S
N185 C186 1.244 . S
C186 N185 1.244 . S
H187 C190 0.929 . S
H188 C193 0.929 . S
H189 C195 0.930 . S
C190 H187 0.929 . S
C190 C191 1.398 . S
C190 C192 1.396 . S
C191 C190 1.398 . S
C191 C195 1.407 . S
C192 C190 1.396 . S
C192 C193 1.394 . S
C193 H188 0.929 . S
C193 C192 1.394 . S
C193 C194 1.382 . S
C194 C193 1.382 . S
C194 C195 1.392 . S
C194 N196 1.420 . S
C195 H189 0.930 . S
C195 C191 1.407 . S
C195 C194 1.392 . S
N196 C194 1.420 . S
N196 C197 1.244 . S
C197 N196 1.244 . S
H198 C201 0.929 . S
H199 C204 0.929 . S
H200 C206 0.930 . S
C201 H198 0.929 . S
C201 C202 1.398 . S
C201 C203 1.396 . S
C202 C201 1.398 . S
C202 C206 1.407 . S
C203 C201 1.396 . S
C203 C204 1.394 . S
C204 H199 0.929 . S
C204 C203 1.394 . S
C204 C205 1.382 . S
C205 C204 1.382 . S
C205 C206 1.392 . S
C205 N207 1.420 . S
C206 H200 0.930 . S
C206 C202 1.407 . S
C206 C205 1.392 . S
N207 C205 1.420 . S
N207 C208 1.244 . S
C208 N207 1.244 . S
H209 C212 0.929 . S
H210 C215 0.929 . S
H211 C217 0.930 . S
C212 H209 0.929 . S
C212 C213 1.398 . S
C212 C214 1.396 . S
C213 C212 1.398 . S
C213 C217 1.407 . S
C214 C212 1.396 . S
C214 C215 1.394 . S
C215 H210 0.929 . S
C215 C214 1.394 . S
C215 C216 1.382 . S
C216 C215 1.382 . S
C216 C217 1.392 . S
C216 N218 1.420 . S
C217 H211 0.930 . S
C217 C213 1.407 . S
C217 C216 1.392 . S
N218 C216 1.420 . S
N218 C219 1.244 . S
C219 N218 1.244 . S
H220 C223 0.929 . S
H221 C226 0.929 . S
H222 C228 0.930 . S
C223 H220 0.929 . S
C223 C224 1.398 . S
C223 C225 1.396 . S
C224 C223 1.398 . S
C224 C228 1.407 . S
C225 C223 1.396 . S
C225 C226 1.394 . S
C226 H221 0.929 . S
C226 C225 1.394 . S
C226 C227 1.382 . S
C227 C226 1.382 . S
C227 C228 1.392 . S
C227 N229 1.420 . S
C228 H222 0.930 . S
C228 C224 1.407 . S
C228 C227 1.392 . S
N229 C227 1.420 . S
N229 C230 1.244 . S
C230 N229 1.244 . S
H231 C234 0.929 . S
H232 C237 0.929 . S
H233 C239 0.930 . S
C234 H231 0.929 . S
C234 C235 1.398 . S
C234 C236 1.396 . S
C235 C234 1.398 . S
C235 C239 1.407 . S
C236 C234 1.396 . S
C236 C237 1.394 . S
C237 H232 0.929 . S
C237 C236 1.394 . S
C237 C238 1.382 . S
C238 C237 1.382 . S
C238 C239 1.392 . S
C238 N240 1.420 . S
C239 H233 0.930 . S
C239 C235 1.407 . S
C239 C238 1.392 . S
N240 C238 1.420 . S
N240 C241 1.244 . S
C241 N240 1.244 . S
H242 C245 0.929 . S
H243 C248 0.929 . S
H244 C250 0.930 . S
C245 H242 0.929 . S
C245 C246 1.398 . S
C245 C247 1.396 . S
C246 C245 1.398 . S
C246 C250 1.407 . S
C247 C245 1.396 . S
C247 C248 1.394 . S
C248 H243 0.929 . S
C248 C247 1.394 . S
C248 C249 1.382 . S
C249 C248 1.382 . S
C249 C250 1.392 . S
C249 N251 1.420 . S
C250 H244 0.930 . S
C250 C246 1.407 . S
C250 C249 1.392 . S
N251 C249 1.420 . S
N251 C252 1.244 . S
C252 N251 1.244 . S
H253 C256 0.929 . S
H254 C259 0.929 . S
H255 C261 0.930 . S
C256 H253 0.929 . S
C256 C257 1.398 . S
C256 C258 1.396 . S
C257 C256 1.398 . S
C257 C261 1.407 . S
C258 C256 1.396 . S
C258 C259 1.394 . S
C259 H254 0.929 . S
C259 C258 1.394 . S
C259 C260 1.382 . S
C260 C259 1.382 . S
C260 C261 1.392 . S
C260 N262 1.420 . S
C261 H255 0.930 . S
C261 C257 1.407 . S
C261 C260 1.392 . S
N262 C260 1.420 . S
N262 C263 1.244 . S
C263 N262 1.244 . S
H264 C267 0.929 . S
H265 C270 0.929 . S
H266 C272 0.930 . S
C267 H264 0.929 . S
C267 C268 1.398 . S
C267 C269 1.396 . S
C268 C267 1.398 . S
C268 C272 1.407 . S
C269 C267 1.396 . S
C269 C270 1.394 . S
C270 H265 0.929 . S
C270 C269 1.394 . S
C270 C271 1.382 . S
C271 C270 1.382 . S
C271 C272 1.392 . S
C271 N273 1.420 . S
C272 H266 0.930 . S
C272 C268 1.407 . S
C272 C271 1.392 . S
N273 C271 1.420 . S
N273 C274 1.244 . S
C274 N273 1.244 . S
H275 C278 0.929 . S
H276 C281 0.929 . S
H277 C283 0.930 . S
C278 H275 0.929 . S
C278 C279 1.398 . S
C278 C280 1.396 . S
C279 C278 1.398 . S
C279 C283 1.407 . S
C280 C278 1.396 . S
C280 C281 1.394 . S
C281 H276 0.929 . S
C281 C280 1.394 . S
C281 C282 1.382 . S
C282 C281 1.382 . S
C282 C283 1.392 . S
C282 N284 1.420 . S
C283 H277 0.930 . S
C283 C279 1.407 . S
C283 C282 1.392 . S
N284 C282 1.420 . S
N284 C285 1.244 . S
C285 N284 1.244 . S
H286 C289 0.929 . S
H287 C292 0.929 . S
H288 C294 0.930 . S
C289 H286 0.929 . S
C289 C290 1.398 . S
C289 C291 1.396 . S
C290 C289 1.398 . S
C290 C294 1.407 . S
C291 C289 1.396 . S
C291 C292 1.394 . S
C292 H287 0.929 . S
C292 C291 1.394 . S
C292 C293 1.382 . S
C293 C292 1.382 . S
C293 C294 1.392 . S
C293 N295 1.420 . S
C294 H288 0.930 . S
C294 C290 1.407 . S
C294 C293 1.392 . S
N295 C293 1.420 . S
N295 C296 1.244 . S
C296 N295 1.244 . S
H297 C300 0.929 . S
H298 C303 0.929 . S
H299 C305 0.930 . S
C300 H297 0.929 . S
C300 C301 1.398 . S
C300 C302 1.396 . S
C301 C300 1.398 . S
C301 C305 1.407 . S
C302 C300 1.396 . S
C302 C303 1.394 . S
C303 H298 0.929 . S
C303 C302 1.394 . S
C303 C304 1.382 . S
C304 C303 1.382 . S
C304 C305 1.392 . S
C304 N306 1.420 . S
C305 H299 0.930 . S
C305 C301 1.407 . S
C305 C304 1.392 . S
N306 C304 1.420 . S
N306 C307 1.244 . S
C307 N306 1.244 . S
H308 C311 0.929 . S
H309 C314 0.929 . S
H310 C316 0.930 . S
C311 H308 0.929 . S
C311 C312 1.398 . S
C311 C313 1.396 . S
C312 C311 1.398 . S
C312 C316 1.407 . S
C313 C311 1.396 . S
C313 C314 1.394 . S
C314 H309 0.929 . S
C314 C313 1.394 . S
C314 C315 1.382 . S
C315 C314 1.382 . S
C315 C316 1.392 . S
C315 N317 1.420 . S
C316 H310 0.930 . S
C316 C312 1.407 . S
C316 C315 1.392 . S
N317 C315 1.420 . S
N317 C318 1.244 . S
C318 N317 1.244 . S
H319 C322 0.929 . S
H320 C325 0.929 . S
H321 C327 0.930 . S
C322 H319 0.929 . S
C322 C323 1.398 . S
C322 C324 1.396 . S
C323 C322 1.398 . S
C323 C327 1.407 . S
C324 C322 1.396 . S
C324 C325 1.394 . S
C325 H320 0.929 . S
C325 C324 1.394 . S
C325 C326 1.382 . S
C326 C325 1.382 . S
C326 C327 1.392 . S
C326 N328 1.420 . S
C327 H321 0.930 . S
C327 C323 1.407 . S
C327 C326 1.392 . S
N328 C326 1.420 . S
N328 C329 1.244 . S
C329 N328 1.244 . S
H330 C333 0.929 . S
H331 C336 0.929 . S
H332 C338 0.930 . S
C333 H330 0.929 . S
C333 C334 1.398 . S
C333 C335 1.396 . S
C334 C333 1.398 . S
C334 C338 1.407 . S
C335 C333 1.396 . S
C335 C336 1.394 . S
C336 H331 0.929 . S
C336 C335 1.394 . S
C336 C337 1.382 . S
C337 C336 1.382 . S
C337 C338 1.392 . S
C337 N339 1.420 . S
C338 H332 0.930 . S
C338 C334 1.407 . S
C338 C337 1.392 . S
N339 C337 1.420 . S
N339 C340 1.244 . S
C340 N339 1.244 . S
H341 C344 0.929 . S
H342 C347 0.929 . S
H343 C349 0.930 . S
C344 H341 0.929 . S
C344 C345 1.398 . S
C344 C346 1.396 . S
C345 C344 1.398 . S
C345 C349 1.407 . S
C346 C344 1.396 . S
C346 C347 1.394 . S
C347 H342 0.929 . S
C347 C346 1.394 . S
C347 C348 1.382 . S
C348 C347 1.382 . S
C348 C349 1.392 . S
C348 N350 1.420 . S
C349 H343 0.930 . S
C349 C345 1.407 . S
C349 C348 1.392 . S
N350 C348 1.420 . S
N350 C351 1.244 . S
C351 N350 1.244 . S
Cu352 N353 1.999 . S
Cu352 O358 1.974 1_554 S
Cu352 N363 1.985 . S
Cu352 O372 1.959 . S
N353 Cu352 1.999 . S
N353 C355 1.263 1_554 S
N353 C357 1.389 . S
N354 C355 1.358 . S
N354 C356 1.400 . S
C355 N353 1.263 1_556 S
C355 N354 1.358 . S
C355 H361 0.930 . S
C356 N354 1.400 . S
C356 C357 1.351 1_556 S
C356 H373 0.930 . S
C357 N353 1.389 . S
C357 C356 1.351 1_554 S
C357 H362 0.930 . S
O358 Cu352 1.974 1_556 S
O358 C368 1.282 . S
C359 O360 1.261 . S
C359 O372 1.251 . S
O360 C359 1.261 . S
H361 C355 0.930 . S
H362 C357 0.930 . S
N363 Cu352 1.985 . S
N363 C365 1.335 . S
N363 C366 1.390 . S
N364 C365 1.345 . S
N364 C367 1.336 . S
C365 N363 1.335 . S
C365 N364 1.345 . S
C365 H370 0.930 . S
C366 N363 1.390 . S
C366 C367 1.346 . S
C366 H371 0.930 . S
C367 N364 1.336 . S
C367 C366 1.346 . S
C367 H374 0.929 . S
C368 O358 1.282 . S
C368 O369 1.216 . S
O369 C368 1.216 . S
H370 C365 0.930 . S
H371 C366 0.930 . S
O372 Cu352 1.959 . S
O372 C359 1.251 . S
H373 C356 0.930 . S
H374 C367 0.929 . S
Cu375 N376 1.999 . S
Cu375 O381 1.974 . S
Cu375 N386 2.024 . S
Cu375 O395 1.959 1_554 S
N376 Cu375 1.999 . S
N376 C378 1.263 . S
N376 C380 1.389 . S
N377 C378 1.358 . S
N377 C379 1.400 . S
C378 N376 1.263 . S
C378 N377 1.358 . S
C378 H384 0.930 . S
C379 N377 1.400 . S
C379 C380 1.351 . S
C379 H396 0.930 . S
C380 N376 1.389 . S
C380 C379 1.351 . S
C380 H385 0.930 . S
O381 Cu375 1.974 . S
O381 C391 1.282 . S
C382 O383 1.264 . S
C382 O395 1.251 . S
O383 C382 1.264 . S
H384 C378 0.930 . S
H385 C380 0.930 . S
N386 Cu375 2.024 . S
N386 C388 1.275 1_554 S
N386 C389 1.405 . S
N387 C388 1.345 . S
N387 C390 1.336 . S
C388 N386 1.275 1_556 S
C388 N387 1.345 . S
C388 H393 0.930 . S
C389 N386 1.405 . S
C389 C390 1.346 1_554 S
C389 H394 0.930 . S
C390 N387 1.336 . S
C390 C389 1.346 1_556 S
C390 H397 0.929 . S
C391 O381 1.282 . S
C391 O392 1.216 . S
O392 C391 1.216 . S
H393 C388 0.930 . S
H394 C389 0.930 . S
O395 Cu375 1.959 1_556 S
O395 C382 1.251 . S
H396 C379 0.930 . S
H397 C390 0.929 . S
Cu398 N399 1.999 1_554 S
Cu398 O404 1.974 1_554 S
Cu398 N409 1.985 . S
Cu398 O418 1.959 . S
N399 Cu398 1.999 1_556 S
N399 C401 1.263 . S
N399 C403 1.389 . S
N400 C401 1.358 . S
N400 C402 1.400 . S
C401 N399 1.263 . S
C401 N400 1.358 . S
C401 H407 0.930 . S
C402 N400 1.400 . S
C402 C403 1.351 . S
C402 H419 0.930 . S
C403 N399 1.389 . S
C403 C402 1.351 . S
C403 H408 0.930 1_556 S
O404 Cu398 1.974 1_556 S
O404 C414 1.282 . S
C405 O406 1.261 . S
C405 O418 1.251 . S
O406 C405 1.261 . S
H407 C401 0.930 . S
H408 C403 0.930 1_554 S
N409 Cu398 1.985 . S
N409 C411 1.335 . S
N409 C412 1.390 . S
N410 C411 1.345 . S
N410 C413 1.336 . S
C411 N409 1.335 . S
C411 N410 1.345 . S
C411 H416 0.930 . S
C412 N409 1.390 . S
C412 C413 1.346 . S
C412 H417 0.930 . S
C413 N410 1.336 . S
C413 C412 1.346 . S
C413 H420 0.929 . S
C414 O404 1.282 . S
C414 O415 1.216 . S
O415 C414 1.216 . S
H416 C411 0.930 . S
H417 C412 0.930 . S
O418 Cu398 1.959 . S
O418 C405 1.251 . S
H419 C402 0.930 . S
H420 C413 0.929 . S
Cu421 N422 1.999 . S
Cu421 O427 1.974 . S
Cu421 N432 1.985 1_554 S
Cu421 O441 1.959 1_554 S
N422 Cu421 1.999 . S
N422 C424 1.263 . S
N422 C426 1.389 . S
N423 C424 1.358 . S
N423 C425 1.400 . S
C424 N422 1.263 . S
C424 N423 1.358 . S
C424 H430 0.930 . S
C425 N423 1.400 . S
C425 C426 1.351 . S
C425 H442 0.930 . S
C426 N422 1.389 . S
C426 C425 1.351 . S
C426 H431 0.930 . S
O427 Cu421 1.974 . S
O427 C437 1.282 . S
C428 O429 1.261 . S
C428 O441 1.251 . S
O429 C428 1.261 . S
H430 C424 0.930 . S
H431 C426 0.930 . S
N432 Cu421 1.985 1_556 S
N432 C434 1.335 . S
N432 C435 1.390 . S
N433 C434 1.345 . S
N433 C436 1.336 . S
C434 N432 1.335 . S
C434 N433 1.345 . S
C434 H439 0.930 . S
C435 N432 1.390 . S
C435 C436 1.346 . S
C435 H440 0.930 1_556 S
C436 N433 1.336 . S
C436 C435 1.346 . S
C436 H443 0.929 . S
C437 O427 1.282 . S
C437 O438 1.216 . S
O438 C437 1.216 . S
H439 C434 0.930 . S
H440 C435 0.930 1_554 S
O441 Cu421 1.959 1_556 S
O441 C428 1.251 . S
H442 C425 0.930 . S
H443 C436 0.929 . S
Cu444 N445 1.999 . S
Cu444 O450 1.974 . S
Cu444 N455 1.985 . S
Cu444 O464 1.959 1_455 S
N445 Cu444 1.999 . S
N445 C447 1.263 . S
N445 C449 1.389 . S
N446 C447 1.358 . S
N446 C448 1.400 . S
C447 N445 1.263 . S
C447 N446 1.358 . S
C447 H453 0.930 . S
C448 N446 1.400 . S
C448 C449 1.351 . S
C448 H465 0.930 . S
C449 N445 1.389 . S
C449 C448 1.351 . S
C449 H454 0.930 . S
O450 Cu444 1.974 . S
O450 C460 1.282 . S
C451 O452 1.261 . S
C451 O464 1.251 . S
O452 C451 1.261 . S
H453 C447 0.930 . S
H454 C449 0.930 . S
N455 Cu444 1.985 . S
N455 C457 1.335 1_455 S
N455 C458 1.390 . S
N456 C457 1.345 . S
N456 C459 1.336 . S
C457 N455 1.335 1_655 S
C457 N456 1.345 . S
C457 H462 0.930 . S
C458 N455 1.390 . S
C458 C459 1.346 1_455 S
C458 H463 0.930 . S
C459 N456 1.336 . S
C459 C458 1.346 1_655 S
C459 H466 0.929 . S
C460 O450 1.282 . S
C460 O461 1.216 . S
O461 C460 1.216 . S
H462 C457 0.930 . S
H463 C458 0.930 . S
O464 Cu444 1.959 1_655 S
O464 C451 1.251 . S
H465 C448 0.930 . S
H466 C459 0.929 . S
Cu467 N468 1.999 . S
Cu467 O473 1.974 . S
Cu467 N478 1.985 1_545 S
Cu467 O487 1.959 1_545 S
N468 Cu467 1.999 . S
N468 C470 1.263 . S
N468 C472 1.389 . S
N469 C470 1.358 . S
N469 C471 1.400 . S
C470 N468 1.263 . S
C470 N469 1.358 . S
C470 H476 0.930 . S
C471 N469 1.400 . S
C471 C472 1.351 . S
C471 H488 0.930 . S
C472 N468 1.389 . S
C472 C471 1.351 . S
C472 H477 0.930 . S
O473 Cu467 1.974 . S
O473 C483 1.282 . S
C474 O475 1.261 . S
C474 O487 1.251 . S
O475 C474 1.261 . S
H476 C470 0.930 . S
H477 C472 0.930 . S
N478 Cu467 1.985 1_565 S
N478 C480 1.335 . S
N478 C481 1.390 . S
N479 C480 1.345 . S
N479 C482 1.336 . S
C480 N478 1.335 . S
C480 N479 1.345 . S
C480 H485 0.930 . S
C481 N478 1.390 . S
C481 C482 1.346 . S
C481 H486 0.911 1_565 S
C482 N479 1.336 . S
C482 C481 1.346 . S
C482 H489 0.929 . S
C483 O473 1.282 . S
C483 O484 1.216 . S
O484 C483 1.216 . S
H485 C480 0.930 . S
H486 C481 0.911 1_545 S
O487 Cu467 1.959 1_565 S
O487 C474 1.251 . S
H488 C471 0.930 . S
H489 C482 0.929 . S
Cu490 N491 1.999 . S
Cu490 O496 1.974 . S
Cu490 N501 1.985 1_655 S
Cu490 O510 1.959 1_655 S
N491 Cu490 1.999 . S
N491 C493 1.263 . S
N491 C495 1.389 . S
N492 C493 1.358 . S
N492 C494 1.400 . S
C493 N491 1.263 . S
C493 N492 1.358 . S
C493 H499 0.930 . S
C494 N492 1.400 . S
C494 C495 1.351 . S
C494 H511 0.930 . S
C495 N491 1.389 . S
C495 C494 1.351 . S
C495 H500 0.930 . S
O496 Cu490 1.974 . S
O496 C506 1.282 . S
C497 O498 1.261 . S
C497 O510 1.251 . S
O498 C497 1.261 . S
H499 C493 0.930 . S
H500 C495 0.930 . S
N501 Cu490 1.985 1_455 S
N501 C503 1.335 . S
N501 C504 1.390 . S
N502 C503 1.345 . S
N502 C505 1.336 . S
C503 N501 1.335 . S
C503 N502 1.345 . S
C503 H508 0.930 . S
C504 N501 1.390 . S
C504 C505 1.346 . S
C504 H509 0.894 1_455 S
C505 N502 1.336 . S
C505 C504 1.346 . S
C505 H512 0.929 . S
C506 O496 1.282 . S
C506 O507 1.216 . S
O507 C506 1.216 . S
H508 C503 0.930 . S
H509 C504 0.894 1_655 S
O510 Cu490 1.959 1_455 S
O510 C497 1.251 . S
H511 C494 0.930 . S
H512 C505 0.929 . S
Cu513 N514 1.999 . S
Cu513 O519 1.974 . S
Cu513 N524 1.985 1_545 S
Cu513 O533 1.959 1_545 S
N514 Cu513 1.999 . S
N514 C516 1.263 . S
N514 C518 1.389 . S
N515 C516 1.358 . S
N515 C517 1.400 . S
C516 N514 1.263 . S
C516 N515 1.358 . S
C516 H522 0.930 . S
C517 N515 1.400 . S
C517 C518 1.351 . S
C517 H534 0.930 . S
C518 N514 1.389 . S
C518 C517 1.351 . S
C518 H523 0.930 . S
O519 Cu513 1.974 . S
O519 C529 1.282 . S
C520 O521 1.261 . S
C520 O533 1.251 . S
O521 C520 1.261 . S
H522 C516 0.930 . S
H523 C518 0.930 . S
N524 Cu513 1.985 1_565 S
N524 C526 1.335 . S
N524 C527 1.390 . S
N525 C526 1.345 . S
N525 C528 1.336 . S
C526 N524 1.335 . S
C526 N525 1.345 . S
C526 H531 0.930 . S
C527 N524 1.390 . S
C527 C528 1.346 . S
C527 H532 0.930 . S
C528 N525 1.336 . S
C528 C527 1.346 . S
C528 H535 0.929 . S
C529 O519 1.282 . S
C529 O530 1.216 . S
O530 C529 1.216 . S
H531 C526 0.930 . S
H532 C527 0.930 . S
O533 Cu513 1.959 1_565 S
O533 C520 1.251 . S
H534 C517 0.930 . S
H535 C528 0.929 . S
Cu536 N537 1.999 . S
Cu536 O542 1.974 . S
Cu536 N547 1.985 . S
Cu536 O556 1.959 1_455 S
N537 Cu536 1.999 . S
N537 C539 1.263 . S
N537 C541 1.389 . S
N538 C539 1.358 . S
N538 C540 1.400 . S
C539 N537 1.263 . S
C539 N538 1.358 . S
C539 H545 0.930 . S
C540 N538 1.400 . S
C540 C541 1.351 . S
C540 H557 0.930 . S
C541 N537 1.389 . S
C541 C540 1.351 . S
C541 H546 0.930 . S
O542 Cu536 1.974 . S
O542 C552 1.282 . S
C543 O544 1.261 . S
C543 O556 1.251 . S
O544 C543 1.261 . S
H545 C539 0.930 . S
H546 C541 0.930 . S
N547 Cu536 1.985 . S
N547 C549 1.335 1_455 S
N547 C550 1.390 . S
N548 C549 1.345 . S
N548 C551 1.336 . S
C549 N547 1.335 1_655 S
C549 N548 1.345 . S
C549 H554 0.930 . S
C550 N547 1.390 . S
C550 C551 1.346 1_455 S
C550 H555 0.930 . S
C551 N548 1.336 . S
C551 C550 1.346 1_655 S
C551 H558 0.929 . S
C552 O542 1.282 . S
C552 O553 1.216 . S
O553 C552 1.216 . S
H554 C549 0.930 . S
H555 C550 0.930 . S
O556 Cu536 1.959 1_655 S
O556 C543 1.251 . S
H557 C540 0.930 . S
H558 C551 0.929 . S
Cu559 N560 1.999 . S
Cu559 O565 1.974 . S
Cu559 N570 1.985 1_545 S
Cu559 O579 1.959 1_545 S
N560 Cu559 1.999 . S
N560 C562 1.263 . S
N560 C564 1.389 . S
N561 C562 1.358 . S
N561 C563 1.400 . S
C562 N560 1.263 . S
C562 N561 1.358 . S
C562 H568 0.930 . S
C563 N561 1.400 . S
C563 C564 1.351 . S
C563 H580 0.930 . S
C564 N560 1.389 . S
C564 C563 1.351 . S
C564 H569 0.930 . S
O565 Cu559 1.974 . S
O565 C575 1.282 . S
C566 O567 1.261 1_565 S
C566 O579 1.251 . S
O567 C566 1.261 1_545 S
H568 C562 0.930 . S
H569 C564 0.930 . S
N570 Cu559 1.985 1_565 S
N570 C572 1.335 . S
N570 C573 1.390 . S
N571 C572 1.345 . S
N571 C574 1.336 . S
C572 N570 1.335 . S
C572 N571 1.345 . S
C572 H577 0.930 . S
C573 N570 1.390 . S
C573 C574 1.346 . S
C573 H578 0.930 1_565 S
C574 N571 1.336 . S
C574 C573 1.346 . S
C574 H581 0.929 . S
C575 O565 1.282 . S
C575 O576 1.216 . S
O576 C575 1.216 . S
H577 C572 0.930 . S
H578 C573 0.930 1_545 S
O579 Cu559 1.959 1_565 S
O579 C566 1.251 . S
H580 C563 0.930 . S
H581 C574 0.929 . S
Cu582 N583 1.999 . S
Cu582 O588 1.974 . S
Cu582 N593 1.985 . S
Cu582 O602 1.959 . S
N583 Cu582 1.999 . S
N583 C585 1.263 1_455 S
N583 C587 1.389 . S
N584 C585 1.358 . S
N584 C586 1.421 . S
C585 N583 1.263 1_655 S
C585 N584 1.358 . S
C585 H591 0.930 . S
C586 N584 1.421 . S
C586 C587 1.323 1_655 S
C586 H603 0.937 . S
C587 N583 1.389 . S
C587 C586 1.323 1_455 S
C587 H592 0.930 . S
O588 Cu582 1.974 . S
O588 C598 1.275 1_455 S
C589 O590 1.261 . S
C589 O602 1.251 . S
O590 C589 1.261 . S
H591 C585 0.930 . S
H592 C587 0.930 . S
N593 Cu582 1.985 . S
N593 C595 1.335 . S
N593 C596 1.390 . S
N594 C595 1.345 . S
N594 C597 1.336 . S
C595 N593 1.335 . S
C595 N594 1.345 . S
C595 H600 0.930 . S
C596 N593 1.390 . S
C596 C597 1.346 . S
C596 H601 0.930 . S
C597 N594 1.336 . S
C597 C596 1.346 . S
C597 H604 0.929 . S
C598 O588 1.275 1_655 S
C598 O599 1.210 1_655 S
O599 C598 1.210 1_455 S
H600 C595 0.930 . S
H601 C596 0.930 . S
O602 Cu582 1.959 . S
O602 C589 1.251 . S
H603 C586 0.937 . S
H604 C597 0.929 . S
Cu605 N606 1.999 . S
Cu605 O611 1.974 . S
Cu605 N616 1.997 . S
Cu605 O625 1.959 . S
N606 Cu605 1.999 . S
N606 C608 1.263 . S
N606 C610 1.389 . S
N607 C608 1.358 . S
N607 C609 1.400 . S
C608 N606 1.263 . S
C608 N607 1.358 . S
C608 H614 0.930 . S
C609 N607 1.400 . S
C609 C610 1.351 . S
C609 H626 0.930 . S
C610 N606 1.389 . S
C610 C609 1.351 . S
C610 H615 0.930 . S
O611 Cu605 1.974 . S
O611 C621 1.282 . S
C612 O613 1.261 1_565 S
C612 O625 1.251 1_565 S
O613 C612 1.261 1_545 S
H614 C608 0.930 . S
H615 C610 0.930 . S
N616 Cu605 1.997 . S
N616 C618 1.316 1_545 S
N616 C619 1.388 . S
N617 C618 1.345 . S
N617 C620 1.336 . S
C618 N616 1.316 1_565 S
C618 N617 1.345 . S
C618 H623 0.930 . S
C619 N616 1.388 . S
C619 C620 1.322 1_545 S
C619 H624 0.956 . S
C620 N617 1.336 . S
C620 C619 1.322 1_565 S
C620 H627 0.929 . S
C621 O611 1.282 . S
C621 O622 1.216 . S
O622 C621 1.216 . S
H623 C618 0.930 . S
H624 C619 0.956 . S
O625 Cu605 1.959 . S
O625 C612 1.251 1_545 S
H626 C609 0.930 . S
H627 C620 0.929 . S
Cu628 N629 1.999 . S
Cu628 O634 1.974 . S
Cu628 N639 1.985 . S
Cu628 O648 1.959 . S
N629 Cu628 1.999 . S
N629 C631 1.263 . S
N629 C633 1.389 . S
N630 C631 1.358 . S
N630 C632 1.400 . S
C631 N629 1.263 . S
C631 N630 1.358 . S
C631 H637 0.930 . S
C632 N630 1.400 . S
C632 C633 1.351 . S
C632 H649 0.930 . S
C633 N629 1.389 . S
C633 C632 1.351 . S
C633 H638 0.930 . S
O634 Cu628 1.974 . S
O634 C644 1.282 . S
C635 O636 1.261 . S
C635 O648 1.251 . S
O636 C635 1.261 . S
H637 C631 0.930 . S
H638 C633 0.930 . S
N639 Cu628 1.985 . S
N639 C641 1.335 . S
N639 C642 1.390 . S
N640 C641 1.345 . S
N640 C643 1.336 . S
C641 N639 1.335 . S
C641 N640 1.345 . S
C641 H646 0.930 . S
C642 N639 1.390 . S
C642 C643 1.346 . S
C642 H647 0.930 . S
C643 N640 1.336 . S
C643 C642 1.346 . S
C643 H650 0.929 . S
C644 O634 1.282 . S
C644 O645 1.216 . S
O645 C644 1.216 . S
H646 C641 0.930 . S
H647 C642 0.930 . S
O648 Cu628 1.959 . S
O648 C635 1.251 . S
H649 C632 0.930 . S
H650 C643 0.929 . S
Cu651 N652 1.999 . S
Cu651 O657 1.974 . S
Cu651 N662 1.985 . S
Cu651 O671 1.959 . S
N652 Cu651 1.999 . S
N652 C654 1.263 . S
N652 C656 1.389 . S
N653 C654 1.358 . S
N653 C655 1.400 . S
C654 N652 1.263 . S
C654 N653 1.358 . S
C654 H660 0.930 . S
C655 N653 1.400 . S
C655 C656 1.351 . S
C655 H672 0.930 . S
C656 N652 1.389 . S
C656 C655 1.351 . S
C656 H661 0.930 . S
O657 Cu651 1.974 . S
O657 C667 1.282 . S
C658 O659 1.261 . S
C658 O671 1.251 . S
O659 C658 1.261 . S
H660 C654 0.930 . S
H661 C656 0.930 . S
N662 Cu651 1.985 . S
N662 C664 1.335 . S
N662 C665 1.390 . S
N663 C664 1.345 . S
N663 C666 1.336 . S
C664 N662 1.335 . S
C664 N663 1.345 . S
C664 H669 0.930 . S
C665 N662 1.390 . S
C665 C666 1.346 . S
C665 H670 0.930 . S
C666 N663 1.336 . S
C666 C665 1.346 . S
C666 H673 0.929 . S
C667 O657 1.282 . S
C667 O668 1.216 . S
O668 C667 1.216 . S
H669 C664 0.930 . S
H670 C665 0.930 . S
O671 Cu651 1.959 . S
O671 C658 1.251 . S
H672 C655 0.930 . S
H673 C666 0.929 . S
Cu674 N675 1.999 . S
Cu674 O680 1.974 . S
Cu674 N685 1.985 . S
Cu674 O694 1.959 . S
N675 Cu674 1.999 . S
N675 C677 1.263 . S
N675 C679 1.389 . S
N676 C677 1.358 . S
N676 C678 1.400 . S
C677 N675 1.263 . S
C677 N676 1.358 . S
C677 H683 0.930 . S
C678 N676 1.400 . S
C678 C679 1.351 . S
C678 H695 0.930 . S
C679 N675 1.389 . S
C679 C678 1.351 . S
C679 H684 0.930 . S
O680 Cu674 1.974 . S
O680 C690 1.282 . S
C681 O682 1.261 . S
C681 O694 1.251 . S
O682 C681 1.261 . S
H683 C677 0.930 . S
H684 C679 0.930 . S
N685 Cu674 1.985 . S
N685 C687 1.335 . S
N685 C688 1.390 . S
N686 C687 1.345 . S
N686 C689 1.336 . S
C687 N685 1.335 . S
C687 N686 1.345 . S
C687 H692 0.930 . S
C688 N685 1.390 . S
C688 C689 1.346 . S
C688 H693 0.930 . S
C689 N686 1.336 . S
C689 C688 1.346 . S
C689 H696 0.929 . S
C690 O680 1.282 . S
C690 O691 1.216 . S
O691 C690 1.216 . S
H692 C687 0.930 . S
H693 C688 0.930 . S
O694 Cu674 1.959 . S
O694 C681 1.251 . S
H695 C678 0.930 . S
H696 C689 0.929 . S
Cu697 N698 1.999 . S
Cu697 O703 1.974 . S
Cu697 N708 1.985 . S
Cu697 O717 1.959 . S
N698 Cu697 1.999 . S
N698 C700 1.263 . S
N698 C702 1.389 . S
N699 C700 1.358 . S
N699 C701 1.400 . S
C700 N698 1.263 . S
C700 N699 1.358 . S
C700 H706 0.930 . S
C701 N699 1.400 . S
C701 C702 1.351 . S
C701 H718 0.930 . S
C702 N698 1.389 . S
C702 C701 1.351 . S
C702 H707 0.930 . S
O703 Cu697 1.974 . S
O703 C713 1.282 . S
C704 O705 1.261 . S
C704 O717 1.251 . S
O705 C704 1.261 . S
H706 C700 0.930 . S
H707 C702 0.930 . S
N708 Cu697 1.985 . S
N708 C710 1.335 . S
N708 C711 1.390 . S
N709 C710 1.345 . S
N709 C712 1.336 . S
C710 N708 1.335 . S
C710 N709 1.345 . S
C710 H715 0.930 . S
C711 N708 1.390 . S
C711 C712 1.346 . S
C711 H716 0.930 . S
C712 N709 1.336 . S
C712 C711 1.346 . S
C712 H719 0.929 . S
C713 O703 1.282 . S
C713 O714 1.216 . S
O714 C713 1.216 . S
H715 C710 0.930 . S
H716 C711 0.930 . S
O717 Cu697 1.959 . S
O717 C704 1.251 . S
H718 C701 0.930 . S
H719 C712 0.929 . S
Cu720 N721 1.999 . S
Cu720 O726 1.974 . S
Cu720 N731 1.985 . S
Cu720 O740 1.959 . S
N721 Cu720 1.999 . S
N721 C723 1.263 . S
N721 C725 1.389 . S
N722 C723 1.358 . S
N722 C724 1.400 . S
C723 N721 1.263 . S
C723 N722 1.358 . S
C723 H729 0.930 . S
C724 N722 1.400 . S
C724 C725 1.351 . S
C724 H741 0.930 . S
C725 N721 1.389 . S
C725 C724 1.351 . S
C725 H730 0.930 . S
O726 Cu720 1.974 . S
O726 C736 1.282 . S
C727 O728 1.261 . S
C727 O740 1.251 . S
O728 C727 1.261 . S
H729 C723 0.930 . S
H730 C725 0.930 . S
N731 Cu720 1.985 . S
N731 C733 1.335 . S
N731 C734 1.390 . S
N732 C733 1.345 . S
N732 C735 1.336 . S
C733 N731 1.335 . S
C733 N732 1.345 . S
C733 H738 0.930 . S
C734 N731 1.390 . S
C734 C735 1.346 . S
C734 H739 0.930 . S
C735 N732 1.336 . S
C735 C734 1.346 . S
C735 H742 0.929 . S
C736 O726 1.282 . S
C736 O737 1.216 . S
O737 C736 1.216 . S
H738 C733 0.930 . S
H739 C734 0.930 . S
O740 Cu720 1.959 . S
O740 C727 1.251 . S
H741 C724 0.930 . S
H742 C735 0.929 . S
Cu743 N744 1.999 . S
Cu743 O749 1.974 . S
Cu743 N754 1.985 . S
Cu743 O763 1.959 . S
N744 Cu743 1.999 . S
N744 C746 1.263 . S
N744 C748 1.389 . S
N745 C746 1.358 . S
N745 C747 1.400 . S
C746 N744 1.263 . S
C746 N745 1.358 . S
C746 H752 0.930 . S
C747 N745 1.400 . S
C747 C748 1.351 . S
C747 H764 0.930 . S
C748 N744 1.389 . S
C748 C747 1.351 . S
C748 H753 0.930 . S
O749 Cu743 1.974 . S
O749 C759 1.282 . S
C750 O751 1.261 . S
C750 O763 1.251 . S
O751 C750 1.261 . S
H752 C746 0.930 . S
H753 C748 0.930 . S
N754 Cu743 1.985 . S
N754 C756 1.335 . S
N754 C757 1.390 . S
N755 C756 1.345 . S
N755 C758 1.336 . S
C756 N754 1.335 . S
C756 N755 1.345 . S
C756 H761 0.930 . S
C757 N754 1.390 . S
C757 C758 1.346 . S
C757 H762 0.930 . S
C758 N755 1.336 . S
C758 C757 1.346 . S
C758 H765 0.929 . S
C759 O749 1.282 . S
C759 O760 1.216 . S
O760 C759 1.216 . S
H761 C756 0.930 . S
H762 C757 0.930 . S
O763 Cu743 1.959 . S
O763 C750 1.251 . S
H764 C747 0.930 . S
H765 C758 0.929 . S
Cu766 N767 1.999 . S
Cu766 O772 1.974 . S
Cu766 N777 1.985 . S
Cu766 O786 1.959 . S
N767 Cu766 1.999 . S
N767 C769 1.263 . S
N767 C771 1.389 . S
N768 C769 1.358 . S
N768 C770 1.400 . S
C769 N767 1.263 . S
C769 N768 1.358 . S
C769 H775 0.930 . S
C770 N768 1.400 . S
C770 C771 1.351 . S
C770 H787 0.930 . S
C771 N767 1.389 . S
C771 C770 1.351 . S
C771 H776 0.930 . S
O772 Cu766 1.974 . S
O772 C782 1.282 . S
C773 O774 1.261 . S
C773 O786 1.251 . S
O774 C773 1.261 . S
H775 C769 0.930 . S
H776 C771 0.930 . S
N777 Cu766 1.985 . S
N777 C779 1.335 . S
N777 C780 1.390 . S
N778 C779 1.345 . S
N778 C781 1.336 . S
C779 N777 1.335 . S
C779 N778 1.345 . S
C779 H784 0.930 . S
C780 N777 1.390 . S
C780 C781 1.346 . S
C780 H785 0.930 . S
C781 N778 1.336 . S
C781 C780 1.346 . S
C781 H788 0.929 . S
C782 O772 1.282 . S
C782 O783 1.216 . S
O783 C782 1.216 . S
H784 C779 0.930 . S
H785 C780 0.930 . S
O786 Cu766 1.959 . S
O786 C773 1.251 . S
H787 C770 0.930 . S
H788 C781 0.929 . S
Cu789 N790 1.999 . S
Cu789 O795 1.974 . S
Cu789 N800 1.985 . S
Cu789 O809 1.959 . S
N790 Cu789 1.999 . S
N790 C792 1.263 . S
N790 C794 1.389 . S
N791 C792 1.358 . S
N791 C793 1.400 . S
C792 N790 1.263 . S
C792 N791 1.358 . S
C792 H798 0.930 . S
C793 N791 1.400 . S
C793 C794 1.351 . S
C793 H810 0.930 . S
C794 N790 1.389 . S
C794 C793 1.351 . S
C794 H799 0.930 . S
O795 Cu789 1.974 . S
O795 C805 1.282 . S
C796 O797 1.261 . S
C796 O809 1.251 . S
O797 C796 1.261 . S
H798 C792 0.930 . S
H799 C794 0.930 . S
N800 Cu789 1.985 . S
N800 C802 1.335 . S
N800 C803 1.390 . S
N801 C802 1.345 . S
N801 C804 1.336 . S
C802 N800 1.335 . S
C802 N801 1.345 . S
C802 H807 0.930 . S
C803 N800 1.390 . S
C803 C804 1.346 . S
C803 H808 0.930 . S
C804 N801 1.336 . S
C804 C803 1.346 . S
C804 H811 0.929 . S
C805 O795 1.282 . S
C805 O806 1.216 . S
O806 C805 1.216 . S
H807 C802 0.930 . S
H808 C803 0.930 . S
O809 Cu789 1.959 . S
O809 C796 1.251 . S
H810 C793 0.930 . S
H811 C804 0.929 . S
Cu812 N813 1.999 . S
Cu812 O818 1.974 . S
Cu812 N823 1.985 . S
Cu812 O832 1.959 . S
N813 Cu812 1.999 . S
N813 C815 1.263 . S
N813 C817 1.389 . S
N814 C815 1.358 . S
N814 C816 1.400 . S
C815 N813 1.263 . S
C815 N814 1.358 . S
C815 H821 0.930 . S
C816 N814 1.400 . S
C816 C817 1.351 . S
C816 H833 0.930 . S
C817 N813 1.389 . S
C817 C816 1.351 . S
C817 H822 0.930 . S
O818 Cu812 1.974 . S
O818 C828 1.282 . S
C819 O820 1.261 . S
C819 O832 1.251 . S
O820 C819 1.261 . S
H821 C815 0.930 . S
H822 C817 0.930 . S
N823 Cu812 1.985 . S
N823 C825 1.335 . S
N823 C826 1.390 . S
N824 C825 1.345 . S
N824 C827 1.336 . S
C825 N823 1.335 . S
C825 N824 1.345 . S
C825 H830 0.930 . S
C826 N823 1.390 . S
C826 C827 1.346 . S
C826 H831 0.930 . S
C827 N824 1.336 . S
C827 C826 1.346 . S
C827 H834 0.929 . S
C828 O818 1.282 . S
C828 O829 1.216 . S
O829 C828 1.216 . S
H830 C825 0.930 . S
H831 C826 0.930 . S
O832 Cu812 1.959 . S
O832 C819 1.251 . S
H833 C816 0.930 . S
H834 C827 0.929 . S
Cu835 N836 1.999 . S
Cu835 O841 1.974 . S
Cu835 N846 1.985 . S
Cu835 O855 1.959 . S
N836 Cu835 1.999 . S
N836 C838 1.263 . S
N836 C840 1.389 . S
N837 C838 1.358 . S
N837 C839 1.400 . S
C838 N836 1.263 . S
C838 N837 1.358 . S
C838 H844 0.930 . S
C839 N837 1.400 . S
C839 C840 1.351 . S
C839 H856 0.930 . S
C840 N836 1.389 . S
C840 C839 1.351 . S
C840 H845 0.930 . S
O841 Cu835 1.974 . S
O841 C851 1.282 . S
C842 O843 1.261 . S
C842 O855 1.251 . S
O843 C842 1.261 . S
H844 C838 0.930 . S
H845 C840 0.930 . S
N846 Cu835 1.985 . S
N846 C848 1.335 . S
N846 C849 1.390 . S
N847 C848 1.345 . S
N847 C850 1.336 . S
C848 N846 1.335 . S
C848 N847 1.345 . S
C848 H853 0.930 . S
C849 N846 1.390 . S
C849 C850 1.346 . S
C849 H854 0.930 . S
C850 N847 1.336 . S
C850 C849 1.346 . S
C850 H857 0.929 . S
C851 O841 1.282 . S
C851 O852 1.216 . S
O852 C851 1.216 . S
H853 C848 0.930 . S
H854 C849 0.930 . S
O855 Cu835 1.959 . S
O855 C842 1.251 . S
H856 C839 0.930 . S
H857 C850 0.929 . S
Cu858 N859 1.999 . S
Cu858 O864 1.974 . S
Cu858 N869 1.985 . S
Cu858 O878 1.959 . S
N859 Cu858 1.999 . S
N859 C861 1.263 . S
N859 C863 1.389 . S
N860 C861 1.358 . S
N860 C862 1.400 . S
C861 N859 1.263 . S
C861 N860 1.358 . S
C861 H867 0.930 . S
C862 N860 1.400 . S
C862 C863 1.351 . S
C862 H879 0.930 . S
C863 N859 1.389 . S
C863 C862 1.351 . S
C863 H868 0.930 . S
O864 Cu858 1.974 . S
O864 C874 1.282 . S
C865 O866 1.261 . S
C865 O878 1.251 . S
O866 C865 1.261 . S
H867 C861 0.930 . S
H868 C863 0.930 . S
N869 Cu858 1.985 . S
N869 C871 1.335 . S
N869 C872 1.390 . S
N870 C871 1.345 . S
N870 C873 1.336 . S
C871 N869 1.335 . S
C871 N870 1.345 . S
C871 H876 0.930 . S
C872 N869 1.390 . S
C872 C873 1.346 . S
C872 H877 0.930 . S
C873 N870 1.336 . S
C873 C872 1.346 . S
C873 H880 0.929 . S
C874 O864 1.282 . S
C874 O875 1.216 . S
O875 C874 1.216 . S
H876 C871 0.930 . S
H877 C872 0.930 . S
O878 Cu858 1.959 . S
O878 C865 1.251 . S
H879 C862 0.930 . S
H880 C873 0.929 . S
Cu881 N882 1.999 . S
Cu881 O887 1.974 . S
Cu881 N892 1.985 . S
Cu881 O901 1.959 . S
N882 Cu881 1.999 . S
N882 C884 1.263 . S
N882 C886 1.389 . S
N883 C884 1.358 . S
N883 C885 1.400 . S
C884 N882 1.263 . S
C884 N883 1.358 . S
C884 H890 0.930 . S
C885 N883 1.400 . S
C885 C886 1.351 . S
C885 H902 0.930 . S
C886 N882 1.389 . S
C886 C885 1.351 . S
C886 H891 0.930 . S
O887 Cu881 1.974 . S
O887 C897 1.282 . S
C888 O889 1.261 . S
C888 O901 1.251 . S
O889 C888 1.261 . S
H890 C884 0.930 . S
H891 C886 0.930 . S
N892 Cu881 1.985 . S
N892 C894 1.335 . S
N892 C895 1.390 . S
N893 C894 1.345 . S
N893 C896 1.336 . S
C894 N892 1.335 . S
C894 N893 1.345 . S
C894 H899 0.930 . S
C895 N892 1.390 . S
C895 C896 1.346 . S
C895 H900 0.930 . S
C896 N893 1.336 . S
C896 C895 1.346 . S
C896 H903 0.929 . S
C897 O887 1.282 . S
C897 O898 1.216 . S
O898 C897 1.216 . S
H899 C894 0.930 . S
H900 C895 0.930 . S
O901 Cu881 1.959 . S
O901 C888 1.251 . S
H902 C885 0.930 . S
H903 C896 0.929 . S
H904 C910 0.930 . S
H905 C914 0.930 . S
H906 C919 0.929 . S
H907 C917 0.929 . S
H908 C912 0.929 . S
H909 C918 0.929 . S
C910 H904 0.930 . S
C910 C911 1.367 . S
C910 C918 1.378 . S
C911 C910 1.367 . S
C911 C919 1.433 . S
C912 H908 0.929 . S
C912 C914 1.378 . S
C912 C916 1.350 . S
C913 C916 1.463 . S
C913 C918 1.350 . S
C913 N921 1.427 . S
C914 H905 0.930 . S
C914 C912 1.378 . S
C914 C915 1.367 . S
C915 C914 1.367 . S
C915 C917 1.433 . S
C916 C912 1.350 . S
C916 C913 1.463 . S
C916 N920 1.427 . S
C917 H907 0.929 . S
C917 C915 1.433 . S
C917 N920 1.384 . S
C918 H909 0.929 . S
C918 C910 1.378 . S
C918 C913 1.350 . S
C919 H906 0.929 . S
C919 C911 1.433 . S
C919 N921 1.384 . S
N920 C916 1.427 . S
N920 C917 1.384 . S
N921 C913 1.427 . S
N921 C919 1.384 . S
H922 C928 0.930 . S
H923 C932 0.930 . S
H924 C937 0.929 . S
H925 C935 0.929 . S
H926 C930 0.929 . S
H927 C936 0.929 . S
C928 H922 0.930 . S
C928 C929 1.367 . S
C928 C936 1.378 . S
C929 C928 1.367 . S
C929 C937 1.433 . S
C930 H926 0.929 . S
C930 C932 1.378 . S
C930 C934 1.350 . S
C931 C934 1.463 . S
C931 C936 1.350 . S
C931 N939 1.427 . S
C932 H923 0.930 . S
C932 C930 1.378 . S
C932 C933 1.367 . S
C933 C932 1.367 . S
C933 C935 1.433 . S
C934 C930 1.350 . S
C934 C931 1.463 . S
C934 N938 1.427 . S
C935 H925 0.929 . S
C935 C933 1.433 . S
C935 N938 1.384 . S
C936 H927 0.929 . S
C936 C928 1.378 . S
C936 C931 1.350 . S
C937 H924 0.929 . S
C937 C929 1.433 . S
C937 N939 1.384 . S
N938 C934 1.427 . S
N938 C935 1.384 . S
N939 C931 1.427 . S
N939 C937 1.384 . S
H940 C946 0.930 . S
H941 C950 0.930 . S
H942 C955 0.929 . S
H943 C953 0.929 . S
H944 C948 0.929 . S
H945 C954 0.929 . S
C946 H940 0.930 . S
C946 C947 1.367 . S
C946 C954 1.378 . S
C947 C946 1.367 . S
C947 C955 1.433 . S
C948 H944 0.929 . S
C948 C950 1.378 . S
C948 C952 1.350 . S
C949 C952 1.463 . S
C949 C954 1.350 . S
C949 N957 1.427 . S
C950 H941 0.930 . S
C950 C948 1.378 . S
C950 C951 1.367 . S
C951 C950 1.367 . S
C951 C953 1.433 . S
C952 C948 1.350 . S
C952 C949 1.463 . S
C952 N956 1.427 . S
C953 H943 0.929 . S
C953 C951 1.433 . S
C953 N956 1.384 . S
C954 H945 0.929 . S
C954 C946 1.378 . S
C954 C949 1.350 . S
C955 H942 0.929 . S
C955 C947 1.433 . S
C955 N957 1.384 . S
N956 C952 1.427 . S
N956 C953 1.384 . S
N957 C949 1.427 . S
N957 C955 1.384 . S
H958 C964 0.930 . S
H959 C968 0.930 . S
H960 C973 0.929 . S
H961 C971 0.929 . S
H962 C966 0.929 . S
H963 C972 0.929 . S
C964 H958 0.930 . S
C964 C965 1.367 . S
C964 C972 1.378 . S
C965 C964 1.367 . S
C965 C973 1.433 . S
C966 H962 0.929 . S
C966 C968 1.378 . S
C966 C970 1.350 . S
C967 C970 1.463 . S
C967 C972 1.350 . S
C967 N975 1.427 . S
C968 H959 0.930 . S
C968 C966 1.378 . S
C968 C969 1.367 . S
C969 C968 1.367 . S
C969 C971 1.433 . S
C970 C966 1.350 . S
C970 C967 1.463 . S
C970 N974 1.427 . S
C971 H961 0.929 . S
C971 C969 1.433 . S
C971 N974 1.384 . S
C972 H963 0.929 . S
C972 C964 1.378 . S
C972 C967 1.350 . S
C973 H960 0.929 . S
C973 C965 1.433 . S
C973 N975 1.384 . S
N974 C970 1.427 . S
N974 C971 1.384 . S
N975 C967 1.427 . S
N975 C973 1.384 . S
H976 C982 0.930 . S
H977 C986 0.930 . S
H978 C991 0.929 . S
H979 C989 0.929 . S
H980 C984 0.929 . S
H981 C990 0.929 . S
C982 H976 0.930 . S
C982 C983 1.367 . S
C982 C990 1.378 . S
C983 C982 1.367 . S
C983 C991 1.433 . S
C984 H980 0.929 . S
C984 C986 1.378 . S
C984 C988 1.350 . S
C985 C988 1.463 . S
C985 C990 1.350 . S
C985 N993 1.427 . S
C986 H977 0.930 . S
C986 C984 1.378 . S
C986 C987 1.367 . S
C987 C986 1.367 . S
C987 C989 1.433 . S
C988 C984 1.350 . S
C988 C985 1.463 . S
C988 N992 1.427 . S
C989 H979 0.929 . S
C989 C987 1.433 . S
C989 N992 1.384 . S
C990 H981 0.929 . S
C990 C982 1.378 . S
C990 C985 1.350 . S
C991 H978 0.929 . S
C991 C983 1.433 . S
C991 N993 1.384 . S
N992 C988 1.427 . S
N992 C989 1.384 . S
N993 C985 1.427 . S
N993 C991 1.384 . S
H994 C1000 0.930 . S
H995 C1004 0.930 . S
H996 C1009 0.929 . S
H997 C1007 0.929 . S
H998 C1002 0.929 . S
H999 C1008 0.929 . S
C1000 H994 0.930 . S
C1000 C1001 1.367 . S
C1000 C1008 1.378 . S
C1001 C1000 1.367 . S
C1001 C1009 1.433 . S
C1002 H998 0.929 . S
C1002 C1004 1.378 . S
C1002 C1006 1.350 . S
C1003 C1006 1.463 . S
C1003 C1008 1.350 . S
C1003 N1011 1.427 . S
C1004 H995 0.930 . S
C1004 C1002 1.378 . S
C1004 C1005 1.367 . S
C1005 C1004 1.367 . S
C1005 C1007 1.433 . S
C1006 C1002 1.350 . S
C1006 C1003 1.463 . S
C1006 N1010 1.427 . S
C1007 H997 0.929 . S
C1007 C1005 1.433 . S
C1007 N1010 1.384 . S
C1008 H999 0.929 . S
C1008 C1000 1.378 . S
C1008 C1003 1.350 . S
C1009 H996 0.929 . S
C1009 C1001 1.433 . S
C1009 N1011 1.384 . S
N1010 C1006 1.427 . S
N1010 C1007 1.384 . S
N1011 C1003 1.427 . S
N1011 C1009 1.384 . S
H1012 C1018 0.930 . S
H1013 C1022 0.930 . S
H1014 C1027 0.929 . S
H1015 C1025 0.929 . S
H1016 C1020 0.929 . S
H1017 C1026 0.929 . S
C1018 H1012 0.930 . S
C1018 C1019 1.367 . S
C1018 C1026 1.378 . S
C1019 C1018 1.367 . S
C1019 C1027 1.433 . S
C1020 H1016 0.929 . S
C1020 C1022 1.378 . S
C1020 C1024 1.350 . S
C1021 C1024 1.463 . S
C1021 C1026 1.350 . S
C1021 N1029 1.427 . S
C1022 H1013 0.930 . S
C1022 C1020 1.378 . S
C1022 C1023 1.367 . S
C1023 C1022 1.367 . S
C1023 C1025 1.433 . S
C1024 C1020 1.350 . S
C1024 C1021 1.463 . S
C1024 N1028 1.427 . S
C1025 H1015 0.929 . S
C1025 C1023 1.433 . S
C1025 N1028 1.384 . S
C1026 H1017 0.929 . S
C1026 C1018 1.378 . S
C1026 C1021 1.350 . S
C1027 H1014 0.929 . S
C1027 C1019 1.433 . S
C1027 N1029 1.384 . S
N1028 C1024 1.427 . S
N1028 C1025 1.384 . S
N1029 C1021 1.427 . S
N1029 C1027 1.384 . S
H1030 C1036 0.930 . S
H1031 C1040 0.930 . S
H1032 C1045 0.929 . S
H1033 C1043 0.929 . S
H1034 C1038 0.929 . S
H1035 C1044 0.929 . S
C1036 H1030 0.930 . S
C1036 C1037 1.367 . S
C1036 C1044 1.378 . S
C1037 C1036 1.367 . S
C1037 C1045 1.433 . S
C1038 H1034 0.929 . S
C1038 C1040 1.378 . S
C1038 C1042 1.350 . S
C1039 C1042 1.463 . S
C1039 C1044 1.350 . S
C1039 N1047 1.427 . S
C1040 H1031 0.930 . S
C1040 C1038 1.378 . S
C1040 C1041 1.367 . S
C1041 C1040 1.367 . S
C1041 C1043 1.433 . S
C1042 C1038 1.350 . S
C1042 C1039 1.463 . S
C1042 N1046 1.427 . S
C1043 H1033 0.929 . S
C1043 C1041 1.433 . S
C1043 N1046 1.384 . S
C1044 H1035 0.929 . S
C1044 C1036 1.378 . S
C1044 C1039 1.350 . S
C1045 H1032 0.929 . S
C1045 C1037 1.433 . S
C1045 N1047 1.384 . S
N1046 C1042 1.427 . S
N1046 C1043 1.384 . S
N1047 C1039 1.427 . S
N1047 C1045 1.384 . S
H1048 C1054 0.930 . S
H1049 C1058 0.930 . S
H1050 C1063 0.929 . S
H1051 C1061 0.929 . S
H1052 C1056 0.929 . S
H1053 C1062 0.929 . S
C1054 H1048 0.930 . S
C1054 C1055 1.367 . S
C1054 C1062 1.378 . S
C1055 C1054 1.367 . S
C1055 C1063 1.433 . S
C1056 H1052 0.929 . S
C1056 C1058 1.378 . S
C1056 C1060 1.350 . S
C1057 C1060 1.463 . S
C1057 C1062 1.350 . S
C1057 N1065 1.427 . S
C1058 H1049 0.930 . S
C1058 C1056 1.378 . S
C1058 C1059 1.367 . S
C1059 C1058 1.367 . S
C1059 C1061 1.433 . S
C1060 C1056 1.350 . S
C1060 C1057 1.463 . S
C1060 N1064 1.427 . S
C1061 H1051 0.929 . S
C1061 C1059 1.433 . S
C1061 N1064 1.384 . S
C1062 H1053 0.929 . S
C1062 C1054 1.378 . S
C1062 C1057 1.350 . S
C1063 H1050 0.929 . S
C1063 C1055 1.433 . S
C1063 N1065 1.384 . S
N1064 C1060 1.427 . S
N1064 C1061 1.384 . S
N1065 C1057 1.427 . S
N1065 C1063 1.384 . S
H1066 C1072 0.930 . S
H1067 C1076 0.930 . S
H1068 C1081 0.929 . S
H1069 C1079 0.929 . S
H1070 C1074 0.929 . S
H1071 C1080 0.929 . S
C1072 H1066 0.930 . S
C1072 C1073 1.367 . S
C1072 C1080 1.378 . S
C1073 C1072 1.367 . S
C1073 C1081 1.433 . S
C1074 H1070 0.929 . S
C1074 C1076 1.378 . S
C1074 C1078 1.350 . S
C1075 C1078 1.463 . S
C1075 C1080 1.350 . S
C1075 N1083 1.427 . S
C1076 H1067 0.930 . S
C1076 C1074 1.378 . S
C1076 C1077 1.367 . S
C1077 C1076 1.367 . S
C1077 C1079 1.433 . S
C1078 C1074 1.350 . S
C1078 C1075 1.463 . S
C1078 N1082 1.427 . S
C1079 H1069 0.929 . S
C1079 C1077 1.433 . S
C1079 N1082 1.384 . S
C1080 H1071 0.929 . S
C1080 C1072 1.378 . S
C1080 C1075 1.350 . S
C1081 H1068 0.929 . S
C1081 C1073 1.433 . S
C1081 N1083 1.384 . S
N1082 C1078 1.427 . S
N1082 C1079 1.384 . S
N1083 C1075 1.427 . S
N1083 C1081 1.384 . S
H1084 C1090 0.930 . S
H1085 C1094 0.930 . S
H1086 C1099 0.929 . S
H1087 C1097 0.929 . S
H1088 C1092 0.929 . S
H1089 C1098 0.929 . S
C1090 H1084 0.930 . S
C1090 C1091 1.367 . S
C1090 C1098 1.378 . S
C1091 C1090 1.367 . S
C1091 C1099 1.433 . S
C1092 H1088 0.929 . S
C1092 C1094 1.378 . S
C1092 C1096 1.350 . S
C1093 C1096 1.463 . S
C1093 C1098 1.350 . S
C1093 N1101 1.427 . S
C1094 H1085 0.930 . S
C1094 C1092 1.378 . S
C1094 C1095 1.367 . S
C1095 C1094 1.367 . S
C1095 C1097 1.433 . S
C1096 C1092 1.350 . S
C1096 C1093 1.463 . S
C1096 N1100 1.427 . S
C1097 H1087 0.929 . S
C1097 C1095 1.433 . S
C1097 N1100 1.384 . S
C1098 H1089 0.929 . S
C1098 C1090 1.378 . S
C1098 C1093 1.350 . S
C1099 H1086 0.929 . S
C1099 C1091 1.433 . S
C1099 N1101 1.384 . S
N1100 C1096 1.427 . S
N1100 C1097 1.384 . S
N1101 C1093 1.427 . S
N1101 C1099 1.384 . S
H1102 C1108 0.930 . S
H1103 C1112 0.930 . S
H1104 C1117 0.929 . S
H1105 C1115 0.929 . S
H1106 C1110 0.929 . S
H1107 C1116 0.929 . S
C1108 H1102 0.930 . S
C1108 C1109 1.367 . S
C1108 C1116 1.378 . S
C1109 C1108 1.367 . S
C1109 C1117 1.433 . S
C1110 H1106 0.929 . S
C1110 C1112 1.378 . S
C1110 C1114 1.350 . S
C1111 C1114 1.463 . S
C1111 C1116 1.350 . S
C1111 N1119 1.427 . S
C1112 H1103 0.930 . S
C1112 C1110 1.378 . S
C1112 C1113 1.367 . S
C1113 C1112 1.367 . S
C1113 C1115 1.433 . S
C1114 C1110 1.350 . S
C1114 C1111 1.463 . S
C1114 N1118 1.427 . S
C1115 H1105 0.929 . S
C1115 C1113 1.433 . S
C1115 N1118 1.384 . S
C1116 H1107 0.929 . S
C1116 C1108 1.378 . S
C1116 C1111 1.350 . S
C1117 H1104 0.929 . S
C1117 C1109 1.433 . S
C1117 N1119 1.384 . S
N1118 C1114 1.427 . S
N1118 C1115 1.384 . S
N1119 C1111 1.427 . S
N1119 C1117 1.384 . S
H1120 C1126 0.930 . S
H1121 C1130 0.930 . S
H1122 C1135 0.929 . S
H1123 C1133 0.929 . S
H1124 C1128 0.929 . S
H1125 C1134 0.929 . S
C1126 H1120 0.930 . S
C1126 C1127 1.367 . S
C1126 C1134 1.378 . S
C1127 C1126 1.367 . S
C1127 C1135 1.433 . S
C1128 H1124 0.929 . S
C1128 C1130 1.378 . S
C1128 C1132 1.350 . S
C1129 C1132 1.463 . S
C1129 C1134 1.350 . S
C1129 N1137 1.427 . S
C1130 H1121 0.930 . S
C1130 C1128 1.378 . S
C1130 C1131 1.367 . S
C1131 C1130 1.367 . S
C1131 C1133 1.433 . S
C1132 C1128 1.350 . S
C1132 C1129 1.463 . S
C1132 N1136 1.427 . S
C1133 H1123 0.929 . S
C1133 C1131 1.433 . S
C1133 N1136 1.384 . S
C1134 H1125 0.929 . S
C1134 C1126 1.378 . S
C1134 C1129 1.350 . S
C1135 H1122 0.929 . S
C1135 C1127 1.433 . S
C1135 N1137 1.384 . S
N1136 C1132 1.427 . S
N1136 C1133 1.384 . S
N1137 C1129 1.427 . S
N1137 C1135 1.384 . S
H1138 C1144 0.930 . S
H1139 C1148 0.930 . S
H1140 C1153 0.929 . S
H1141 C1151 0.929 . S
H1142 C1146 0.929 . S
H1143 C1152 0.929 . S
C1144 H1138 0.930 . S
C1144 C1145 1.367 . S
C1144 C1152 1.378 . S
C1145 C1144 1.367 . S
C1145 C1153 1.433 . S
C1146 H1142 0.929 . S
C1146 C1148 1.378 . S
C1146 C1150 1.350 . S
C1147 C1150 1.463 . S
C1147 C1152 1.350 . S
C1147 N1155 1.427 . S
C1148 H1139 0.930 . S
C1148 C1146 1.378 . S
C1148 C1149 1.367 . S
C1149 C1148 1.367 . S
C1149 C1151 1.433 . S
C1150 C1146 1.350 . S
C1150 C1147 1.463 . S
C1150 N1154 1.427 . S
C1151 H1141 0.929 . S
C1151 C1149 1.433 . S
C1151 N1154 1.384 . S
C1152 H1143 0.929 . S
C1152 C1144 1.378 . S
C1152 C1147 1.350 . S
C1153 H1140 0.929 . S
C1153 C1145 1.433 . S
C1153 N1155 1.384 . S
N1154 C1150 1.427 . S
N1154 C1151 1.384 . S
N1155 C1147 1.427 . S
N1155 C1153 1.384 . S
H1156 C1162 0.930 . S
H1157 C1166 0.930 . S
H1158 C1171 0.929 . S
H1159 C1169 0.929 . S
H1160 C1164 0.929 . S
H1161 C1170 0.929 . S
C1162 H1156 0.930 . S
C1162 C1163 1.367 . S
C1162 C1170 1.378 . S
C1163 C1162 1.367 . S
C1163 C1171 1.433 . S
C1164 H1160 0.929 . S
C1164 C1166 1.378 . S
C1164 C1168 1.350 . S
C1165 C1168 1.463 . S
C1165 C1170 1.350 . S
C1165 N1173 1.427 . S
C1166 H1157 0.930 . S
C1166 C1164 1.378 . S
C1166 C1167 1.367 . S
C1167 C1166 1.367 . S
C1167 C1169 1.433 . S
C1168 C1164 1.350 . S
C1168 C1165 1.463 . S
C1168 N1172 1.427 . S
C1169 H1159 0.929 . S
C1169 C1167 1.433 . S
C1169 N1172 1.384 . S
C1170 H1161 0.929 . S
C1170 C1162 1.378 . S
C1170 C1165 1.350 . S
C1171 H1158 0.929 . S
C1171 C1163 1.433 . S
C1171 N1173 1.384 . S
N1172 C1168 1.427 . S
N1172 C1169 1.384 . S
N1173 C1165 1.427 . S
N1173 C1171 1.384 . S
H1174 C1180 0.930 . S
H1175 C1184 0.930 . S
H1176 C1189 0.929 . S
H1177 C1187 0.929 . S
H1178 C1182 0.929 . S
H1179 C1188 0.929 . S
C1180 H1174 0.930 . S
C1180 C1181 1.367 . S
C1180 C1188 1.378 . S
C1181 C1180 1.367 . S
C1181 C1189 1.433 . S
C1182 H1178 0.929 . S
C1182 C1184 1.378 . S
C1182 C1186 1.350 . S
C1183 C1186 1.463 . S
C1183 C1188 1.350 . S
C1183 N1191 1.427 . S
C1184 H1175 0.930 . S
C1184 C1182 1.378 . S
C1184 C1185 1.367 . S
C1185 C1184 1.367 . S
C1185 C1187 1.433 . S
C1186 C1182 1.350 . S
C1186 C1183 1.463 . S
C1186 N1190 1.427 . S
C1187 H1177 0.929 . S
C1187 C1185 1.433 . S
C1187 N1190 1.384 . S
C1188 H1179 0.929 . S
C1188 C1180 1.378 . S
C1188 C1183 1.350 . S
C1189 H1176 0.929 . S
C1189 C1181 1.433 . S
C1189 N1191 1.384 . S
N1190 C1186 1.427 . S
N1190 C1187 1.384 . S
N1191 C1183 1.427 . S
N1191 C1189 1.384 . S
H1192 C1198 0.930 . S
H1193 C1202 0.930 . S
H1194 C1207 0.929 . S
H1195 C1205 0.929 . S
H1196 C1200 0.929 . S
H1197 C1206 0.929 . S
C1198 H1192 0.930 . S
C1198 C1199 1.367 . S
C1198 C1206 1.378 . S
C1199 C1198 1.367 . S
C1199 C1207 1.433 . S
C1200 H1196 0.929 . S
C1200 C1202 1.378 . S
C1200 C1204 1.350 . S
C1201 C1204 1.463 . S
C1201 C1206 1.350 . S
C1201 N1209 1.427 . S
C1202 H1193 0.930 . S
C1202 C1200 1.378 . S
C1202 C1203 1.367 . S
C1203 C1202 1.367 . S
C1203 C1205 1.433 . S
C1204 C1200 1.350 . S
C1204 C1201 1.463 . S
C1204 N1208 1.427 . S
C1205 H1195 0.929 . S
C1205 C1203 1.433 . S
C1205 N1208 1.384 . S
C1206 H1197 0.929 . S
C1206 C1198 1.378 . S
C1206 C1201 1.350 . S
C1207 H1194 0.929 . S
C1207 C1199 1.433 . S
C1207 N1209 1.384 . S
N1208 C1204 1.427 . S
N1208 C1205 1.384 . S
N1209 C1201 1.427 . S
N1209 C1207 1.384 . S
H1210 C1216 0.930 . S
H1211 C1220 0.930 . S
H1212 C1225 0.929 . S
H1213 C1223 0.929 . S
H1214 C1218 0.929 . S
H1215 C1224 0.929 . S
C1216 H1210 0.930 . S
C1216 C1217 1.367 . S
C1216 C1224 1.378 . S
C1217 C1216 1.367 . S
C1217 C1225 1.433 . S
C1218 H1214 0.929 . S
C1218 C1220 1.378 . S
C1218 C1222 1.350 . S
C1219 C1222 1.463 . S
C1219 C1224 1.350 . S
C1219 N1227 1.427 . S
C1220 H1211 0.930 . S
C1220 C1218 1.378 . S
C1220 C1221 1.367 . S
C1221 C1220 1.367 . S
C1221 C1223 1.433 . S
C1222 C1218 1.350 . S
C1222 C1219 1.463 . S
C1222 N1226 1.427 . S
C1223 H1213 0.929 . S
C1223 C1221 1.433 . S
C1223 N1226 1.384 . S
C1224 H1215 0.929 . S
C1224 C1216 1.378 . S
C1224 C1219 1.350 . S
C1225 H1212 0.929 . S
C1225 C1217 1.433 . S
C1225 N1227 1.384 . S
N1226 C1222 1.427 . S
N1226 C1223 1.384 . S
N1227 C1219 1.427 . S
N1227 C1225 1.384 . S
H1228 C1234 0.930 . S
H1229 C1238 0.930 . S
H1230 C1243 0.929 . S
H1231 C1241 0.929 . S
H1232 C1236 0.929 . S
H1233 C1242 0.929 . S
C1234 H1228 0.930 . S
C1234 C1235 1.367 . S
C1234 C1242 1.378 . S
C1235 C1234 1.367 . S
C1235 C1243 1.433 . S
C1236 H1232 0.929 . S
C1236 C1238 1.378 . S
C1236 C1240 1.350 . S
C1237 C1240 1.463 . S
C1237 C1242 1.350 . S
C1237 N1245 1.427 . S
C1238 H1229 0.930 . S
C1238 C1236 1.378 . S
C1238 C1239 1.367 . S
C1239 C1238 1.367 . S
C1239 C1241 1.433 . S
C1240 C1236 1.350 . S
C1240 C1237 1.463 . S
C1240 N1244 1.427 . S
C1241 H1231 0.929 . S
C1241 C1239 1.433 . S
C1241 N1244 1.384 . S
C1242 H1233 0.929 . S
C1242 C1234 1.378 . S
C1242 C1237 1.350 . S
C1243 H1230 0.929 . S
C1243 C1235 1.433 . S
C1243 N1245 1.384 . S
N1244 C1240 1.427 . S
N1244 C1241 1.384 . S
N1245 C1237 1.427 . S
N1245 C1243 1.384 . S
H1246 C1252 0.930 . S
H1247 C1256 0.930 . S
H1248 C1261 0.929 . S
H1249 C1259 0.929 . S
H1250 C1254 0.929 . S
H1251 C1260 0.929 . S
C1252 H1246 0.930 . S
C1252 C1253 1.367 . S
C1252 C1260 1.378 . S
C1253 C1252 1.367 . S
C1253 C1261 1.433 . S
C1254 H1250 0.929 . S
C1254 C1256 1.378 . S
C1254 C1258 1.350 . S
C1255 C1258 1.463 . S
C1255 C1260 1.350 . S
C1255 N1263 1.427 . S
C1256 H1247 0.930 . S
C1256 C1254 1.378 . S
C1256 C1257 1.367 . S
C1257 C1256 1.367 . S
C1257 C1259 1.433 . S
C1258 C1254 1.350 . S
C1258 C1255 1.463 . S
C1258 N1262 1.427 . S
C1259 H1249 0.929 . S
C1259 C1257 1.433 . S
C1259 N1262 1.384 . S
C1260 H1251 0.929 . S
C1260 C1252 1.378 . S
C1260 C1255 1.350 . S
C1261 H1248 0.929 . S
C1261 C1253 1.433 . S
C1261 N1263 1.384 . S
N1262 C1258 1.427 . S
N1262 C1259 1.384 . S
N1263 C1255 1.427 . S
N1263 C1261 1.384 . S
H1264 C1270 0.930 . S
H1265 C1274 0.930 . S
H1266 C1279 0.929 . S
H1267 C1277 0.929 . S
H1268 C1272 0.929 . S
H1269 C1278 0.929 . S
C1270 H1264 0.930 . S
C1270 C1271 1.367 . S
C1270 C1278 1.378 . S
C1271 C1270 1.367 . S
C1271 C1279 1.433 . S
C1272 H1268 0.929 . S
C1272 C1274 1.378 . S
C1272 C1276 1.350 . S
C1273 C1276 1.463 . S
C1273 C1278 1.350 . S
C1273 N1281 1.427 . S
C1274 H1265 0.930 . S
C1274 C1272 1.378 . S
C1274 C1275 1.367 . S
C1275 C1274 1.367 . S
C1275 C1277 1.433 . S
C1276 C1272 1.350 . S
C1276 C1273 1.463 . S
C1276 N1280 1.427 . S
C1277 H1267 0.929 . S
C1277 C1275 1.433 . S
C1277 N1280 1.384 . S
C1278 H1269 0.929 . S
C1278 C1270 1.378 . S
C1278 C1273 1.350 . S
C1279 H1266 0.929 . S
C1279 C1271 1.433 . S
C1279 N1281 1.384 . S
N1280 C1276 1.427 . S
N1280 C1277 1.384 . S
N1281 C1273 1.427 . S
N1281 C1279 1.384 . S
H1282 C1288 0.930 . S
H1283 C1292 0.930 . S
H1284 C1297 0.929 . S
H1285 C1295 0.929 . S
H1286 C1290 0.929 . S
H1287 C1296 0.929 . S
C1288 H1282 0.930 . S
C1288 C1289 1.367 . S
C1288 C1296 1.378 . S
C1289 C1288 1.367 . S
C1289 C1297 1.433 . S
C1290 H1286 0.929 . S
C1290 C1292 1.378 . S
C1290 C1294 1.350 . S
C1291 C1294 1.463 . S
C1291 C1296 1.350 . S
C1291 N1299 1.427 . S
C1292 H1283 0.930 . S
C1292 C1290 1.378 . S
C1292 C1293 1.367 . S
C1293 C1292 1.367 . S
C1293 C1295 1.433 . S
C1294 C1290 1.350 . S
C1294 C1291 1.463 . S
C1294 N1298 1.427 . S
C1295 H1285 0.929 . S
C1295 C1293 1.433 . S
C1295 N1298 1.384 . S
C1296 H1287 0.929 . S
C1296 C1288 1.378 . S
C1296 C1291 1.350 . S
C1297 H1284 0.929 . S
C1297 C1289 1.433 . S
C1297 N1299 1.384 . S
N1298 C1294 1.427 . S
N1298 C1295 1.384 . S
N1299 C1291 1.427 . S
N1299 C1297 1.384 . S
H1300 C1306 0.930 . S
H1301 C1310 0.930 . S
H1302 C1315 0.929 . S
H1303 C1313 0.929 . S
H1304 C1308 0.929 . S
H1305 C1314 0.929 . S
C1306 H1300 0.930 . S
C1306 C1307 1.367 . S
C1306 C1314 1.378 . S
C1307 C1306 1.367 . S
C1307 C1315 1.433 . S
C1308 H1304 0.929 . S
C1308 C1310 1.378 . S
C1308 C1312 1.350 . S
C1309 C1312 1.463 . S
C1309 C1314 1.350 . S
C1309 N1317 1.427 . S
C1310 H1301 0.930 . S
C1310 C1308 1.378 . S
C1310 C1311 1.367 . S
C1311 C1310 1.367 . S
C1311 C1313 1.433 . S
C1312 C1308 1.350 . S
C1312 C1309 1.463 . S
C1312 N1316 1.427 . S
C1313 H1303 0.929 . S
C1313 C1311 1.433 . S
C1313 N1316 1.384 . S
C1314 H1305 0.929 . S
C1314 C1306 1.378 . S
C1314 C1309 1.350 . S
C1315 H1302 0.929 . S
C1315 C1307 1.433 . S
C1315 N1317 1.384 . S
N1316 C1312 1.427 . S
N1316 C1313 1.384 . S
N1317 C1309 1.427 . S
N1317 C1315 1.384 . S
H1318 C1324 0.930 . S
H1319 C1328 0.930 . S
H1320 C1333 0.929 . S
H1321 C1331 0.929 . S
H1322 C1326 0.929 . S
H1323 C1332 0.929 . S
C1324 H1318 0.930 . S
C1324 C1325 1.367 . S
C1324 C1332 1.378 . S
C1325 C1324 1.367 . S
C1325 C1333 1.433 . S
C1326 H1322 0.929 . S
C1326 C1328 1.378 . S
C1326 C1330 1.350 . S
C1327 C1330 1.463 . S
C1327 C1332 1.350 . S
C1327 N1335 1.427 . S
C1328 H1319 0.930 . S
C1328 C1326 1.378 . S
C1328 C1329 1.367 . S
C1329 C1328 1.367 . S
C1329 C1331 1.433 . S
C1330 C1326 1.350 . S
C1330 C1327 1.463 . S
C1330 N1334 1.427 . S
C1331 H1321 0.929 . S
C1331 C1329 1.433 . S
C1331 N1334 1.384 . S
C1332 H1323 0.929 . S
C1332 C1324 1.378 . S
C1332 C1327 1.350 . S
C1333 H1320 0.929 . S
C1333 C1325 1.433 . S
C1333 N1335 1.384 . S
N1334 C1330 1.427 . S
N1334 C1331 1.384 . S
N1335 C1327 1.427 . S
N1335 C1333 1.384 . S
H1336 C1342 0.930 . S
H1337 C1346 0.930 . S
H1338 C1351 0.929 . S
H1339 C1349 0.929 . S
H1340 C1344 0.929 . S
H1341 C1350 0.929 . S
C1342 H1336 0.930 . S
C1342 C1343 1.367 . S
C1342 C1350 1.378 . S
C1343 C1342 1.367 . S
C1343 C1351 1.433 . S
C1344 H1340 0.929 . S
C1344 C1346 1.378 . S
C1344 C1348 1.350 . S
C1345 C1348 1.463 . S
C1345 C1350 1.350 . S
C1345 N1353 1.427 . S
C1346 H1337 0.930 . S
C1346 C1344 1.378 . S
C1346 C1347 1.367 . S
C1347 C1346 1.367 . S
C1347 C1349 1.433 . S
C1348 C1344 1.350 . S
C1348 C1345 1.463 . S
C1348 N1352 1.427 . S
C1349 H1339 0.929 . S
C1349 C1347 1.433 . S
C1349 N1352 1.384 . S
C1350 H1341 0.929 . S
C1350 C1342 1.378 . S
C1350 C1345 1.350 . S
C1351 H1338 0.929 . S
C1351 C1343 1.433 . S
C1351 N1353 1.384 . S
N1352 C1348 1.427 . S
N1352 C1349 1.384 . S
N1353 C1345 1.427 . S
N1353 C1351 1.384 . S
H1354 C1360 0.930 . S
H1355 C1364 0.930 . S
H1356 C1369 0.929 . S
H1357 C1367 0.929 . S
H1358 C1362 0.929 . S
H1359 C1368 0.929 . S
C1360 H1354 0.930 . S
C1360 C1361 1.367 . S
C1360 C1368 1.378 . S
C1361 C1360 1.367 . S
C1361 C1369 1.433 . S
C1362 H1358 0.929 . S
C1362 C1364 1.378 . S
C1362 C1366 1.350 . S
C1363 C1366 1.463 . S
C1363 C1368 1.350 . S
C1363 N1371 1.427 . S
C1364 H1355 0.930 . S
C1364 C1362 1.378 . S
C1364 C1365 1.367 . S
C1365 C1364 1.367 . S
C1365 C1367 1.433 . S
C1366 C1362 1.350 . S
C1366 C1363 1.463 . S
C1366 N1370 1.427 . S
C1367 H1357 0.929 . S
C1367 C1365 1.433 . S
C1367 N1370 1.384 . S
C1368 H1359 0.929 . S
C1368 C1360 1.378 . S
C1368 C1363 1.350 . S
C1369 H1356 0.929 . S
C1369 C1361 1.433 . S
C1369 N1371 1.384 . S
N1370 C1366 1.427 . S
N1370 C1367 1.384 . S
N1371 C1363 1.427 . S
N1371 C1369 1.384 . S
H1372 C1378 0.930 . S
H1373 C1382 0.930 . S
H1374 C1387 0.929 . S
H1375 C1385 0.929 . S
H1376 C1380 0.929 . S
H1377 C1386 0.929 . S
C1378 H1372 0.930 . S
C1378 C1379 1.367 . S
C1378 C1386 1.378 . S
C1379 C1378 1.367 . S
C1379 C1387 1.433 . S
C1380 H1376 0.929 . S
C1380 C1382 1.378 . S
C1380 C1384 1.350 . S
C1381 C1384 1.463 . S
C1381 C1386 1.350 . S
C1381 N1389 1.427 . S
C1382 H1373 0.930 . S
C1382 C1380 1.378 . S
C1382 C1383 1.367 . S
C1383 C1382 1.367 . S
C1383 C1385 1.433 . S
C1384 C1380 1.350 . S
C1384 C1381 1.463 . S
C1384 N1388 1.427 . S
C1385 H1375 0.929 . S
C1385 C1383 1.433 . S
C1385 N1388 1.384 . S
C1386 H1377 0.929 . S
C1386 C1378 1.378 . S
C1386 C1381 1.350 . S
C1387 H1374 0.929 . S
C1387 C1379 1.433 . S
C1387 N1389 1.384 . S
N1388 C1384 1.427 . S
N1388 C1385 1.384 . S
N1389 C1381 1.427 . S
N1389 C1387 1.384 . S
H1390 C1396 0.930 . S
H1391 C1400 0.930 . S
H1392 C1405 0.929 . S
H1393 C1403 0.929 . S
H1394 C1398 0.929 . S
H1395 C1404 0.929 . S
C1396 H1390 0.930 . S
C1396 C1397 1.367 . S
C1396 C1404 1.378 . S
C1397 C1396 1.367 . S
C1397 C1405 1.433 . S
C1398 H1394 0.929 . S
C1398 C1400 1.378 . S
C1398 C1402 1.350 . S
C1399 C1402 1.463 . S
C1399 C1404 1.350 . S
C1399 N1407 1.427 . S
C1400 H1391 0.930 . S
C1400 C1398 1.378 . S
C1400 C1401 1.367 . S
C1401 C1400 1.367 . S
C1401 C1403 1.433 . S
C1402 C1398 1.350 . S
C1402 C1399 1.463 . S
C1402 N1406 1.427 . S
C1403 H1393 0.929 . S
C1403 C1401 1.433 . S
C1403 N1406 1.384 . S
C1404 H1395 0.929 . S
C1404 C1396 1.378 . S
C1404 C1399 1.350 . S
C1405 H1392 0.929 . S
C1405 C1397 1.433 . S
C1405 N1407 1.384 . S
N1406 C1402 1.427 . S
N1406 C1403 1.384 . S
N1407 C1399 1.427 . S
N1407 C1405 1.384 . S
H1408 C1414 0.930 . S
H1409 C1418 0.930 . S
H1410 C1423 0.929 . S
H1411 C1421 0.929 . S
H1412 C1416 0.929 . S
H1413 C1422 0.929 . S
C1414 H1408 0.930 . S
C1414 C1415 1.367 . S
C1414 C1422 1.378 . S
C1415 C1414 1.367 . S
C1415 C1423 1.433 . S
C1416 H1412 0.929 . S
C1416 C1418 1.378 . S
C1416 C1420 1.350 . S
C1417 C1420 1.463 . S
C1417 C1422 1.350 . S
C1417 N1425 1.427 . S
C1418 H1409 0.930 . S
C1418 C1416 1.378 . S
C1418 C1419 1.367 . S
C1419 C1418 1.367 . S
C1419 C1421 1.433 . S
C1420 C1416 1.350 . S
C1420 C1417 1.463 . S
C1420 N1424 1.427 . S
C1421 H1411 0.929 . S
C1421 C1419 1.433 . S
C1421 N1424 1.384 . S
C1422 H1413 0.929 . S
C1422 C1414 1.378 . S
C1422 C1417 1.350 . S
C1423 H1410 0.929 . S
C1423 C1415 1.433 . S
C1423 N1425 1.384 . S
N1424 C1420 1.427 . S
N1424 C1421 1.384 . S
N1425 C1417 1.427 . S
N1425 C1423 1.384 . S
H1426 C1432 0.930 . S
H1427 C1436 0.930 . S
H1428 C1441 0.929 . S
H1429 C1439 0.929 . S
H1430 C1434 0.929 . S
H1431 C1440 0.929 . S
C1432 H1426 0.930 . S
C1432 C1433 1.367 . S
C1432 C1440 1.378 . S
C1433 C1432 1.367 . S
C1433 C1441 1.433 . S
C1434 H1430 0.929 . S
C1434 C1436 1.378 . S
C1434 C1438 1.350 . S
C1435 C1438 1.463 . S
C1435 C1440 1.350 . S
C1435 N1443 1.427 . S
C1436 H1427 0.930 . S
C1436 C1434 1.378 . S
C1436 C1437 1.367 . S
C1437 C1436 1.367 . S
C1437 C1439 1.433 . S
C1438 C1434 1.350 . S
C1438 C1435 1.463 . S
C1438 N1442 1.427 . S
C1439 H1429 0.929 . S
C1439 C1437 1.433 . S
C1439 N1442 1.384 . S
C1440 H1431 0.929 . S
C1440 C1432 1.378 . S
C1440 C1435 1.350 . S
C1441 H1428 0.929 . S
C1441 C1433 1.433 . S
C1441 N1443 1.384 . S
N1442 C1438 1.427 . S
N1442 C1439 1.384 . S
N1443 C1435 1.427 . S
N1443 C1441 1.384 . S
H1444 C1450 0.930 . S
H1445 C1454 0.930 . S
H1446 C1459 0.929 . S
H1447 C1457 0.929 . S
H1448 C1452 0.929 . S
H1449 C1458 0.929 . S
C1450 H1444 0.930 . S
C1450 C1451 1.367 . S
C1450 C1458 1.378 . S
C1451 C1450 1.367 . S
C1451 C1459 1.433 . S
C1452 H1448 0.929 . S
C1452 C1454 1.378 . S
C1452 C1456 1.350 . S
C1453 C1456 1.463 . S
C1453 C1458 1.350 . S
C1453 N1461 1.427 . S
C1454 H1445 0.930 . S
C1454 C1452 1.378 . S
C1454 C1455 1.367 . S
C1455 C1454 1.367 . S
C1455 C1457 1.433 . S
C1456 C1452 1.350 . S
C1456 C1453 1.463 . S
C1456 N1460 1.427 . S
C1457 H1447 0.929 . S
C1457 C1455 1.433 . S
C1457 N1460 1.384 . S
C1458 H1449 0.929 . S
C1458 C1450 1.378 . S
C1458 C1453 1.350 . S
C1459 H1446 0.929 . S
C1459 C1451 1.433 . S
C1459 N1461 1.384 . S
N1460 C1456 1.427 . S
N1460 C1457 1.384 . S
N1461 C1453 1.427 . S
N1461 C1459 1.384 . S
H1462 C1468 0.930 . S
H1463 C1472 0.930 . S
H1464 C1477 0.929 . S
H1465 C1475 0.929 . S
H1466 C1470 0.929 . S
H1467 C1476 0.929 . S
C1468 H1462 0.930 . S
C1468 C1469 1.367 . S
C1468 C1476 1.378 . S
C1469 C1468 1.367 . S
C1469 C1477 1.433 . S
C1470 H1466 0.929 . S
C1470 C1472 1.378 . S
C1470 C1474 1.350 . S
C1471 C1474 1.463 . S
C1471 C1476 1.350 . S
C1471 N1479 1.427 . S
C1472 H1463 0.930 . S
C1472 C1470 1.378 . S
C1472 C1473 1.367 . S
C1473 C1472 1.367 . S
C1473 C1475 1.433 . S
C1474 C1470 1.350 . S
C1474 C1471 1.463 . S
C1474 N1478 1.427 . S
C1475 H1465 0.929 . S
C1475 C1473 1.433 . S
C1475 N1478 1.384 . S
C1476 H1467 0.929 . S
C1476 C1468 1.378 . S
C1476 C1471 1.350 . S
C1477 H1464 0.929 . S
C1477 C1469 1.433 . S
C1477 N1479 1.384 . S
N1478 C1474 1.427 . S
N1478 C1475 1.384 . S
N1479 C1471 1.427 . S
N1479 C1477 1.384 . S
H1480 C1486 0.930 . S
H1481 C1490 0.930 . S
H1482 C1495 0.929 . S
H1483 C1493 0.929 . S
H1484 C1488 0.929 . S
H1485 C1494 0.929 . S
C1486 H1480 0.930 . S
C1486 C1487 1.367 . S
C1486 C1494 1.378 . S
C1487 C1486 1.367 . S
C1487 C1495 1.433 . S
C1488 H1484 0.929 . S
C1488 C1490 1.378 . S
C1488 C1492 1.350 . S
C1489 C1492 1.463 . S
C1489 C1494 1.350 . S
C1489 N1497 1.427 . S
C1490 H1481 0.930 . S
C1490 C1488 1.378 . S
C1490 C1491 1.367 . S
C1491 C1490 1.367 . S
C1491 C1493 1.433 . S
C1492 C1488 1.350 . S
C1492 C1489 1.463 . S
C1492 N1496 1.427 . S
C1493 H1483 0.929 . S
C1493 C1491 1.433 . S
C1493 N1496 1.384 . S
C1494 H1485 0.929 . S
C1494 C1486 1.378 . S
C1494 C1489 1.350 . S
C1495 H1482 0.929 . S
C1495 C1487 1.433 . S
C1495 N1497 1.384 . S
N1496 C1492 1.427 . S
N1496 C1493 1.384 . S
N1497 C1489 1.427 . S
N1497 C1495 1.384 . S
H1498 C1504 0.930 . S
H1499 C1508 0.930 . S
H1500 C1513 0.929 . S
H1501 C1511 0.929 . S
H1502 C1506 0.929 . S
H1503 C1512 0.929 . S
C1504 H1498 0.930 . S
C1504 C1505 1.367 . S
C1504 C1512 1.378 . S
C1505 C1504 1.367 . S
C1505 C1513 1.433 . S
C1506 H1502 0.929 . S
C1506 C1508 1.378 . S
C1506 C1510 1.350 . S
C1507 C1510 1.463 . S
C1507 C1512 1.350 . S
C1507 N1515 1.427 . S
C1508 H1499 0.930 . S
C1508 C1506 1.378 . S
C1508 C1509 1.367 . S
C1509 C1508 1.367 . S
C1509 C1511 1.433 . S
C1510 C1506 1.350 . S
C1510 C1507 1.463 . S
C1510 N1514 1.427 . S
C1511 H1501 0.929 . S
C1511 C1509 1.433 . S
C1511 N1514 1.384 . S
C1512 H1503 0.929 . S
C1512 C1504 1.378 . S
C1512 C1507 1.350 . S
C1513 H1500 0.929 . S
C1513 C1505 1.433 . S
C1513 N1515 1.384 . S
N1514 C1510 1.427 . S
N1514 C1511 1.384 . S
N1515 C1507 1.427 . S
N1515 C1513 1.384 . S
H1516 C1522 0.930 . S
H1517 C1526 0.930 . S
H1518 C1531 0.929 . S
H1519 C1529 0.929 . S
H1520 C1524 0.929 . S
H1521 C1530 0.929 . S
C1522 H1516 0.930 . S
C1522 C1523 1.367 . S
C1522 C1530 1.378 . S
C1523 C1522 1.367 . S
C1523 C1531 1.433 . S
C1524 H1520 0.929 . S
C1524 C1526 1.378 . S
C1524 C1528 1.350 . S
C1525 C1528 1.463 . S
C1525 C1530 1.350 . S
C1525 N1533 1.427 . S
C1526 H1517 0.930 . S
C1526 C1524 1.378 . S
C1526 C1527 1.367 . S
C1527 C1526 1.367 . S
C1527 C1529 1.433 . S
C1528 C1524 1.350 . S
C1528 C1525 1.463 . S
C1528 N1532 1.427 . S
C1529 H1519 0.929 . S
C1529 C1527 1.433 . S
C1529 N1532 1.384 . S
C1530 H1521 0.929 . S
C1530 C1522 1.378 . S
C1530 C1525 1.350 . S
C1531 H1518 0.929 . S
C1531 C1523 1.433 . S
C1531 N1533 1.384 . S
N1532 C1528 1.427 . S
N1532 C1529 1.384 . S
N1533 C1525 1.427 . S
N1533 C1531 1.384 . S
H1534 C1540 0.930 . S
H1535 C1544 0.930 . S
H1536 C1549 0.929 . S
H1537 C1547 0.929 . S
H1538 C1542 0.929 . S
H1539 C1548 0.929 . S
C1540 H1534 0.930 . S
C1540 C1541 1.367 . S
C1540 C1548 1.378 . S
C1541 C1540 1.367 . S
C1541 C1549 1.433 . S
C1542 H1538 0.929 . S
C1542 C1544 1.378 . S
C1542 C1546 1.350 . S
C1543 C1546 1.463 . S
C1543 C1548 1.350 . S
C1543 N1551 1.427 . S
C1544 H1535 0.930 . S
C1544 C1542 1.378 . S
C1544 C1545 1.367 . S
C1545 C1544 1.367 . S
C1545 C1547 1.433 . S
C1546 C1542 1.350 . S
C1546 C1543 1.463 . S
C1546 N1550 1.427 . S
C1547 H1537 0.929 . S
C1547 C1545 1.433 . S
C1547 N1550 1.384 . S
C1548 H1539 0.929 . S
C1548 C1540 1.378 . S
C1548 C1543 1.350 . S
C1549 H1536 0.929 . S
C1549 C1541 1.433 . S
C1549 N1551 1.384 . S
N1550 C1546 1.427 . S
N1550 C1547 1.384 . S
N1551 C1543 1.427 . S
N1551 C1549 1.384 . S
H1552 C1558 0.930 . S
H1553 C1562 0.930 . S
H1554 C1567 0.929 . S
H1555 C1565 0.929 . S
H1556 C1560 0.929 . S
H1557 C1566 0.929 . S
C1558 H1552 0.930 . S
C1558 C1559 1.367 . S
C1558 C1566 1.378 . S
C1559 C1558 1.367 . S
C1559 C1567 1.433 . S
C1560 H1556 0.929 . S
C1560 C1562 1.378 . S
C1560 C1564 1.350 . S
C1561 C1564 1.463 . S
C1561 C1566 1.350 . S
C1561 N1569 1.427 . S
C1562 H1553 0.930 . S
C1562 C1560 1.378 . S
C1562 C1563 1.367 . S
C1563 C1562 1.367 . S
C1563 C1565 1.433 . S
C1564 C1560 1.350 . S
C1564 C1561 1.463 . S
C1564 N1568 1.427 . S
C1565 H1555 0.929 . S
C1565 C1563 1.433 . S
C1565 N1568 1.384 . S
C1566 H1557 0.929 . S
C1566 C1558 1.378 . S
C1566 C1561 1.350 . S
C1567 H1554 0.929 . S
C1567 C1559 1.433 . S
C1567 N1569 1.384 . S
N1568 C1564 1.427 . S
N1568 C1565 1.384 . S
N1569 C1561 1.427 . S
N1569 C1567 1.384 . S
H1570 C1576 0.930 . S
H1571 C1580 0.930 . S
H1572 C1585 0.929 . S
H1573 C1583 0.929 . S
H1574 C1578 0.929 . S
H1575 C1584 0.929 . S
C1576 H1570 0.930 . S
C1576 C1577 1.367 . S
C1576 C1584 1.378 . S
C1577 C1576 1.367 . S
C1577 C1585 1.433 . S
C1578 H1574 0.929 . S
C1578 C1580 1.378 . S
C1578 C1582 1.350 . S
C1579 C1582 1.463 . S
C1579 C1584 1.350 . S
C1579 N1587 1.427 . S
C1580 H1571 0.930 . S
C1580 C1578 1.378 . S
C1580 C1581 1.367 . S
C1581 C1580 1.367 . S
C1581 C1583 1.433 . S
C1582 C1578 1.350 . S
C1582 C1579 1.463 . S
C1582 N1586 1.427 . S
C1583 H1573 0.929 . S
C1583 C1581 1.433 . S
C1583 N1586 1.384 . S
C1584 H1575 0.929 . S
C1584 C1576 1.378 . S
C1584 C1579 1.350 . S
C1585 H1572 0.929 . S
C1585 C1577 1.433 . S
C1585 N1587 1.384 . S
N1586 C1582 1.427 . S
N1586 C1583 1.384 . S
N1587 C1579 1.427 . S
N1587 C1585 1.384 . S
H1588 C1594 0.930 . S
H1589 C1598 0.930 . S
H1590 C1603 0.929 . S
H1591 C1601 0.929 . S
H1592 C1596 0.929 . S
H1593 C1602 0.929 . S
C1594 H1588 0.930 . S
C1594 C1595 1.367 . S
C1594 C1602 1.378 . S
C1595 C1594 1.367 . S
C1595 C1603 1.433 . S
C1596 H1592 0.929 . S
C1596 C1598 1.378 . S
C1596 C1600 1.350 . S
C1597 C1600 1.463 . S
C1597 C1602 1.350 . S
C1597 N1605 1.427 . S
C1598 H1589 0.930 . S
C1598 C1596 1.378 . S
C1598 C1599 1.367 . S
C1599 C1598 1.367 . S
C1599 C1601 1.433 . S
C1600 C1596 1.350 . S
C1600 C1597 1.463 . S
C1600 N1604 1.427 . S
C1601 H1591 0.929 . S
C1601 C1599 1.433 . S
C1601 N1604 1.384 . S
C1602 H1593 0.929 . S
C1602 C1594 1.378 . S
C1602 C1597 1.350 . S
C1603 H1590 0.929 . S
C1603 C1595 1.433 . S
C1603 N1605 1.384 . S
N1604 C1600 1.427 . S
N1604 C1601 1.384 . S
N1605 C1597 1.427 . S
N1605 C1603 1.384 . S
H1606 C1612 0.930 . S
H1607 C1616 0.930 . S
H1608 C1621 0.929 . S
H1609 C1619 0.929 . S
H1610 C1614 0.929 . S
H1611 C1620 0.929 . S
C1612 H1606 0.930 . S
C1612 C1613 1.367 . S
C1612 C1620 1.378 . S
C1613 C1612 1.367 . S
C1613 C1621 1.433 . S
C1614 H1610 0.929 . S
C1614 C1616 1.378 . S
C1614 C1618 1.350 . S
C1615 C1618 1.463 . S
C1615 C1620 1.350 . S
C1615 N1623 1.427 . S
C1616 H1607 0.930 . S
C1616 C1614 1.378 . S
C1616 C1617 1.367 . S
C1617 C1616 1.367 . S
C1617 C1619 1.433 . S
C1618 C1614 1.350 . S
C1618 C1615 1.463 . S
C1618 N1622 1.427 . S
C1619 H1609 0.929 . S
C1619 C1617 1.433 . S
C1619 N1622 1.384 . S
C1620 H1611 0.929 . S
C1620 C1612 1.378 . S
C1620 C1615 1.350 . S
C1621 H1608 0.929 . S
C1621 C1613 1.433 . S
C1621 N1623 1.384 . S
N1622 C1618 1.427 . S
N1622 C1619 1.384 . S
N1623 C1615 1.427 . S
N1623 C1621 1.384 . S
H1624 C1630 0.930 . S
H1625 C1634 0.930 . S
H1626 C1639 0.929 . S
H1627 C1637 0.929 . S
H1628 C1632 0.929 . S
H1629 C1638 0.929 . S
C1630 H1624 0.930 . S
C1630 C1631 1.367 . S
C1630 C1638 1.378 . S
C1631 C1630 1.367 . S
C1631 C1639 1.433 . S
C1632 H1628 0.929 . S
C1632 C1634 1.378 . S
C1632 C1636 1.350 . S
C1633 C1636 1.463 . S
C1633 C1638 1.350 . S
C1633 N1641 1.427 . S
C1634 H1625 0.930 . S
C1634 C1632 1.378 . S
C1634 C1635 1.367 . S
C1635 C1634 1.367 . S
C1635 C1637 1.433 . S
C1636 C1632 1.350 . S
C1636 C1633 1.463 . S
C1636 N1640 1.427 . S
C1637 H1627 0.929 . S
C1637 C1635 1.433 . S
C1637 N1640 1.384 . S
C1638 H1629 0.929 . S
C1638 C1630 1.378 . S
C1638 C1633 1.350 . S
C1639 H1626 0.929 . S
C1639 C1631 1.433 . S
C1639 N1641 1.384 . S
N1640 C1636 1.427 . S
N1640 C1637 1.384 . S
N1641 C1633 1.427 . S
N1641 C1639 1.384 . S
H1642 C1648 0.930 . S
H1643 C1652 0.930 . S
H1644 C1657 0.929 . S
H1645 C1655 0.929 . S
H1646 C1650 0.929 . S
H1647 C1656 0.929 . S
C1648 H1642 0.930 . S
C1648 C1649 1.367 . S
C1648 C1656 1.378 . S
C1649 C1648 1.367 . S
C1649 C1657 1.433 . S
C1650 H1646 0.929 . S
C1650 C1652 1.378 . S
C1650 C1654 1.350 . S
C1651 C1654 1.463 . S
C1651 C1656 1.350 . S
C1651 N1659 1.427 . S
C1652 H1643 0.930 . S
C1652 C1650 1.378 . S
C1652 C1653 1.367 . S
C1653 C1652 1.367 . S
C1653 C1655 1.433 . S
C1654 C1650 1.350 . S
C1654 C1651 1.463 . S
C1654 N1658 1.427 . S
C1655 H1645 0.929 . S
C1655 C1653 1.433 . S
C1655 N1658 1.384 . S
C1656 H1647 0.929 . S
C1656 C1648 1.378 . S
C1656 C1651 1.350 . S
C1657 H1644 0.929 . S
C1657 C1649 1.433 . S
C1657 N1659 1.384 . S
N1658 C1654 1.427 . S
N1658 C1655 1.384 . S
N1659 C1651 1.427 . S
N1659 C1657 1.384 . S
H1660 C1666 0.930 . S
H1661 C1670 0.930 . S
H1662 C1675 0.929 . S
H1663 C1673 0.929 . S
H1664 C1668 0.929 . S
H1665 C1674 0.929 . S
C1666 H1660 0.930 . S
C1666 C1667 1.367 . S
C1666 C1674 1.378 . S
C1667 C1666 1.367 . S
C1667 C1675 1.433 . S
C1668 H1664 0.929 . S
C1668 C1670 1.378 . S
C1668 C1672 1.350 . S
C1669 C1672 1.463 . S
C1669 C1674 1.350 . S
C1669 N1677 1.427 . S
C1670 H1661 0.930 . S
C1670 C1668 1.378 . S
C1670 C1671 1.367 . S
C1671 C1670 1.367 . S
C1671 C1673 1.433 . S
C1672 C1668 1.350 . S
C1672 C1669 1.463 . S
C1672 N1676 1.427 . S
C1673 H1663 0.929 . S
C1673 C1671 1.433 . S
C1673 N1676 1.384 . S
C1674 H1665 0.929 . S
C1674 C1666 1.378 . S
C1674 C1669 1.350 . S
C1675 H1662 0.929 . S
C1675 C1667 1.433 . S
C1675 N1677 1.384 . S
N1676 C1672 1.427 . S
N1676 C1673 1.384 . S
N1677 C1669 1.427 . S
N1677 C1675 1.384 . S
H1678 C1684 0.930 . S
H1679 C1688 0.930 . S
H1680 C1693 0.929 . S
H1681 C1691 0.929 . S
H1682 C1686 0.929 . S
H1683 C1692 0.929 . S
C1684 H1678 0.930 . S
C1684 C1685 1.367 . S
C1684 C1692 1.378 . S
C1685 C1684 1.367 . S
C1685 C1693 1.433 . S
C1686 H1682 0.929 . S
C1686 C1688 1.378 . S
C1686 C1690 1.350 . S
C1687 C1690 1.463 . S
C1687 C1692 1.350 . S
C1687 N1695 1.427 . S
C1688 H1679 0.930 . S
C1688 C1686 1.378 . S
C1688 C1689 1.367 . S
C1689 C1688 1.367 . S
C1689 C1691 1.433 . S
C1690 C1686 1.350 . S
C1690 C1687 1.463 . S
C1690 N1694 1.427 . S
C1691 H1681 0.929 . S
C1691 C1689 1.433 . S
C1691 N1694 1.384 . S
C1692 H1683 0.929 . S
C1692 C1684 1.378 . S
C1692 C1687 1.350 . S
C1693 H1680 0.929 . S
C1693 C1685 1.433 . S
C1693 N1695 1.384 . S
N1694 C1690 1.427 . S
N1694 C1691 1.384 . S
N1695 C1687 1.427 . S
N1695 C1693 1.384 . S
H1696 C1702 0.930 . S
H1697 C1706 0.930 . S
H1698 C1711 0.929 . S
H1699 C1709 0.929 . S
H1700 C1704 0.929 . S
H1701 C1710 0.929 . S
C1702 H1696 0.930 . S
C1702 C1703 1.367 . S
C1702 C1710 1.378 . S
C1703 C1702 1.367 . S
C1703 C1711 1.433 . S
C1704 H1700 0.929 . S
C1704 C1706 1.378 . S
C1704 C1708 1.350 . S
C1705 C1708 1.463 . S
C1705 C1710 1.350 . S
C1705 N1713 1.427 . S
C1706 H1697 0.930 . S
C1706 C1704 1.378 . S
C1706 C1707 1.367 . S
C1707 C1706 1.367 . S
C1707 C1709 1.433 . S
C1708 C1704 1.350 . S
C1708 C1705 1.463 . S
C1708 N1712 1.427 . S
C1709 H1699 0.929 . S
C1709 C1707 1.433 . S
C1709 N1712 1.384 . S
C1710 H1701 0.929 . S
C1710 C1702 1.378 . S
C1710 C1705 1.350 . S
C1711 H1698 0.929 . S
C1711 C1703 1.433 . S
C1711 N1713 1.384 . S
N1712 C1708 1.427 . S
N1712 C1709 1.384 . S
N1713 C1705 1.427 . S
N1713 C1711 1.384 . S
H1714 C1720 0.930 . S
H1715 C1724 0.930 . S
H1716 C1729 0.929 . S
H1717 C1727 0.929 . S
H1718 C1722 0.929 . S
H1719 C1728 0.929 . S
C1720 H1714 0.930 . S
C1720 C1721 1.367 . S
C1720 C1728 1.378 . S
C1721 C1720 1.367 . S
C1721 C1729 1.433 . S
C1722 H1718 0.929 . S
C1722 C1724 1.378 . S
C1722 C1726 1.350 . S
C1723 C1726 1.463 . S
C1723 C1728 1.350 . S
C1723 N1731 1.427 . S
C1724 H1715 0.930 . S
C1724 C1722 1.378 . S
C1724 C1725 1.367 . S
C1725 C1724 1.367 . S
C1725 C1727 1.433 . S
C1726 C1722 1.350 . S
C1726 C1723 1.463 . S
C1726 N1730 1.427 . S
C1727 H1717 0.929 . S
C1727 C1725 1.433 . S
C1727 N1730 1.384 . S
C1728 H1719 0.929 . S
C1728 C1720 1.378 . S
C1728 C1723 1.350 . S
C1729 H1716 0.929 . S
C1729 C1721 1.433 . S
C1729 N1731 1.384 . S
N1730 C1726 1.427 . S
N1730 C1727 1.384 . S
N1731 C1723 1.427 . S
N1731 C1729 1.384 . S
H1732 C1738 0.930 . S
H1733 C1742 0.930 . S
H1734 C1747 0.929 . S
H1735 C1745 0.929 . S
H1736 C1740 0.929 . S
H1737 C1746 0.929 . S
C1738 H1732 0.930 . S
C1738 C1739 1.367 . S
C1738 C1746 1.378 . S
C1739 C1738 1.367 . S
C1739 C1747 1.433 . S
C1740 H1736 0.929 . S
C1740 C1742 1.378 . S
C1740 C1744 1.350 . S
C1741 C1744 1.463 . S
C1741 C1746 1.350 . S
C1741 N1749 1.427 . S
C1742 H1733 0.930 . S
C1742 C1740 1.378 . S
C1742 C1743 1.367 . S
C1743 C1742 1.367 . S
C1743 C1745 1.433 . S
C1744 C1740 1.350 . S
C1744 C1741 1.463 . S
C1744 N1748 1.427 . S
C1745 H1735 0.929 . S
C1745 C1743 1.433 . S
C1745 N1748 1.384 . S
C1746 H1737 0.929 . S
C1746 C1738 1.378 . S
C1746 C1741 1.350 . S
C1747 H1734 0.929 . S
C1747 C1739 1.433 . S
C1747 N1749 1.384 . S
N1748 C1744 1.427 . S
N1748 C1745 1.384 . S
N1749 C1741 1.427 . S
N1749 C1747 1.384 . S
H1750 C1756 0.930 . S
H1751 C1760 0.930 . S
H1752 C1765 0.929 . S
H1753 C1763 0.929 . S
H1754 C1758 0.929 . S
H1755 C1764 0.929 . S
C1756 H1750 0.930 . S
C1756 C1757 1.367 . S
C1756 C1764 1.378 . S
C1757 C1756 1.367 . S
C1757 C1765 1.433 . S
C1758 H1754 0.929 . S
C1758 C1760 1.378 . S
C1758 C1762 1.350 . S
C1759 C1762 1.463 . S
C1759 C1764 1.350 . S
C1759 N1767 1.427 . S
C1760 H1751 0.930 . S
C1760 C1758 1.378 . S
C1760 C1761 1.367 . S
C1761 C1760 1.367 . S
C1761 C1763 1.433 . S
C1762 C1758 1.350 . S
C1762 C1759 1.463 . S
C1762 N1766 1.427 . S
C1763 H1753 0.929 . S
C1763 C1761 1.433 . S
C1763 N1766 1.384 . S
C1764 H1755 0.929 . S
C1764 C1756 1.378 . S
C1764 C1759 1.350 . S
C1765 H1752 0.929 . S
C1765 C1757 1.433 . S
C1765 N1767 1.384 . S
N1766 C1762 1.427 . S
N1766 C1763 1.384 . S
N1767 C1759 1.427 . S
N1767 C1765 1.384 . S
H1768 C1774 0.930 . S
H1769 C1778 0.930 . S
H1770 C1783 0.929 . S
H1771 C1781 0.929 . S
H1772 C1776 0.929 . S
H1773 C1782 0.929 . S
C1774 H1768 0.930 . S
C1774 C1775 1.367 . S
C1774 C1782 1.378 . S
C1775 C1774 1.367 . S
C1775 C1783 1.433 . S
C1776 H1772 0.929 . S
C1776 C1778 1.378 . S
C1776 C1780 1.350 . S
C1777 C1780 1.463 . S
C1777 C1782 1.350 . S
C1777 N1785 1.427 . S
C1778 H1769 0.930 . S
C1778 C1776 1.378 . S
C1778 C1779 1.367 . S
C1779 C1778 1.367 . S
C1779 C1781 1.433 . S
C1780 C1776 1.350 . S
C1780 C1777 1.463 . S
C1780 N1784 1.427 . S
C1781 H1771 0.929 . S
C1781 C1779 1.433 . S
C1781 N1784 1.384 . S
C1782 H1773 0.929 . S
C1782 C1774 1.378 . S
C1782 C1777 1.350 . S
C1783 H1770 0.929 . S
C1783 C1775 1.433 . S
C1783 N1785 1.384 . S
N1784 C1780 1.427 . S
N1784 C1781 1.384 . S
N1785 C1777 1.427 . S
N1785 C1783 1.384 . S
H1786 C1792 0.930 . S
H1787 C1796 0.930 . S
H1788 C1801 0.929 . S
H1789 C1799 0.929 . S
H1790 C1794 0.929 . S
H1791 C1800 0.929 . S
C1792 H1786 0.930 . S
C1792 C1793 1.367 . S
C1792 C1800 1.378 . S
C1793 C1792 1.367 . S
C1793 C1801 1.433 . S
C1794 H1790 0.929 . S
C1794 C1796 1.378 . S
C1794 C1798 1.350 . S
C1795 C1798 1.463 . S
C1795 C1800 1.350 . S
C1795 N1803 1.427 . S
C1796 H1787 0.930 . S
C1796 C1794 1.378 . S
C1796 C1797 1.367 . S
C1797 C1796 1.367 . S
C1797 C1799 1.433 . S
C1798 C1794 1.350 . S
C1798 C1795 1.463 . S
C1798 N1802 1.427 . S
C1799 H1789 0.929 . S
C1799 C1797 1.433 . S
C1799 N1802 1.384 . S
C1800 H1791 0.929 . S
C1800 C1792 1.378 . S
C1800 C1795 1.350 . S
C1801 H1788 0.929 . S
C1801 C1793 1.433 . S
C1801 N1803 1.384 . S
N1802 C1798 1.427 . S
N1802 C1799 1.384 . S
N1803 C1795 1.427 . S
N1803 C1801 1.384 . S
H1804 C1810 0.930 . S
H1805 C1814 0.930 . S
H1806 C1819 0.929 . S
H1807 C1817 0.929 . S
H1808 C1812 0.929 . S
H1809 C1818 0.929 . S
C1810 H1804 0.930 . S
C1810 C1811 1.367 . S
C1810 C1818 1.378 . S
C1811 C1810 1.367 . S
C1811 C1819 1.433 . S
C1812 H1808 0.929 . S
C1812 C1814 1.378 . S
C1812 C1816 1.350 . S
C1813 C1816 1.463 . S
C1813 C1818 1.350 . S
C1813 N1821 1.427 . S
C1814 H1805 0.930 . S
C1814 C1812 1.378 . S
C1814 C1815 1.367 . S
C1815 C1814 1.367 . S
C1815 C1817 1.433 . S
C1816 C1812 1.350 . S
C1816 C1813 1.463 . S
C1816 N1820 1.427 . S
C1817 H1807 0.929 . S
C1817 C1815 1.433 . S
C1817 N1820 1.384 . S
C1818 H1809 0.929 . S
C1818 C1810 1.378 . S
C1818 C1813 1.350 . S
C1819 H1806 0.929 . S
C1819 C1811 1.433 . S
C1819 N1821 1.384 . S
N1820 C1816 1.427 . S
N1820 C1817 1.384 . S
N1821 C1813 1.427 . S
N1821 C1819 1.384 . S
H1822 C1828 0.930 . S
H1823 C1832 0.930 . S
H1824 C1837 0.929 . S
H1825 C1835 0.929 . S
H1826 C1830 0.929 . S
H1827 C1836 0.929 . S
C1828 H1822 0.930 . S
C1828 C1829 1.367 . S
C1828 C1836 1.378 . S
C1829 C1828 1.367 . S
C1829 C1837 1.433 . S
C1830 H1826 0.929 . S
C1830 C1832 1.378 . S
C1830 C1834 1.350 . S
C1831 C1834 1.463 . S
C1831 C1836 1.350 . S
C1831 N1839 1.427 . S
C1832 H1823 0.930 . S
C1832 C1830 1.378 . S
C1832 C1833 1.367 . S
C1833 C1832 1.367 . S
C1833 C1835 1.433 . S
C1834 C1830 1.350 . S
C1834 C1831 1.463 . S
C1834 N1838 1.427 . S
C1835 H1825 0.929 . S
C1835 C1833 1.433 . S
C1835 N1838 1.384 . S
C1836 H1827 0.929 . S
C1836 C1828 1.378 . S
C1836 C1831 1.350 . S
C1837 H1824 0.929 . S
C1837 C1829 1.433 . S
C1837 N1839 1.384 . S
N1838 C1834 1.427 . S
N1838 C1835 1.384 . S
N1839 C1831 1.427 . S
N1839 C1837 1.384 . S
H1840 C1846 0.930 . S
H1841 C1850 0.930 . S
H1842 C1855 0.929 . S
H1843 C1853 0.929 . S
H1844 C1848 0.929 . S
H1845 C1854 0.929 . S
C1846 H1840 0.930 . S
C1846 C1847 1.367 . S
C1846 C1854 1.378 . S
C1847 C1846 1.367 . S
C1847 C1855 1.433 . S
C1848 H1844 0.929 . S
C1848 C1850 1.378 . S
C1848 C1852 1.350 . S
C1849 C1852 1.463 . S
C1849 C1854 1.350 . S
C1849 N1857 1.427 . S
C1850 H1841 0.930 . S
C1850 C1848 1.378 . S
C1850 C1851 1.367 . S
C1851 C1850 1.367 . S
C1851 C1853 1.433 . S
C1852 C1848 1.350 . S
C1852 C1849 1.463 . S
C1852 N1856 1.427 . S
C1853 H1843 0.929 . S
C1853 C1851 1.433 . S
C1853 N1856 1.384 . S
C1854 H1845 0.929 . S
C1854 C1846 1.378 . S
C1854 C1849 1.350 . S
C1855 H1842 0.929 . S
C1855 C1847 1.433 . S
C1855 N1857 1.384 . S
N1856 C1852 1.427 . S
N1856 C1853 1.384 . S
N1857 C1849 1.427 . S
N1857 C1855 1.384 . S
H1858 C1864 0.930 . S
H1859 C1868 0.930 . S
H1860 C1873 0.929 . S
H1861 C1871 0.929 . S
H1862 C1866 0.929 . S
H1863 C1872 0.929 . S
C1864 H1858 0.930 . S
C1864 C1865 1.367 . S
C1864 C1872 1.378 . S
C1865 C1864 1.367 . S
C1865 C1873 1.433 . S
C1866 H1862 0.929 . S
C1866 C1868 1.378 . S
C1866 C1870 1.350 . S
C1867 C1870 1.463 . S
C1867 C1872 1.350 . S
C1867 N1875 1.427 . S
C1868 H1859 0.930 . S
C1868 C1866 1.378 . S
C1868 C1869 1.367 . S
C1869 C1868 1.367 . S
C1869 C1871 1.433 . S
C1870 C1866 1.350 . S
C1870 C1867 1.463 . S
C1870 N1874 1.427 . S
C1871 H1861 0.929 . S
C1871 C1869 1.433 . S
C1871 N1874 1.384 . S
C1872 H1863 0.929 . S
C1872 C1864 1.378 . S
C1872 C1867 1.350 . S
C1873 H1860 0.929 . S
C1873 C1865 1.433 . S
C1873 N1875 1.384 . S
N1874 C1870 1.427 . S
N1874 C1871 1.384 . S
N1875 C1867 1.427 . S
N1875 C1873 1.384 . S
H1876 C1882 0.930 . S
H1877 C1886 0.930 . S
H1878 C1891 0.929 . S
H1879 C1889 0.929 . S
H1880 C1884 0.929 . S
H1881 C1890 0.929 . S
C1882 H1876 0.930 . S
C1882 C1883 1.367 . S
C1882 C1890 1.378 . S
C1883 C1882 1.367 . S
C1883 C1891 1.433 . S
C1884 H1880 0.929 . S
C1884 C1886 1.378 . S
C1884 C1888 1.350 . S
C1885 C1888 1.463 . S
C1885 C1890 1.350 . S
C1885 N1893 1.427 . S
C1886 H1877 0.930 . S
C1886 C1884 1.378 . S
C1886 C1887 1.367 . S
C1887 C1886 1.367 . S
C1887 C1889 1.433 . S
C1888 C1884 1.350 . S
C1888 C1885 1.463 . S
C1888 N1892 1.427 . S
C1889 H1879 0.929 . S
C1889 C1887 1.433 . S
C1889 N1892 1.384 . S
C1890 H1881 0.929 . S
C1890 C1882 1.378 . S
C1890 C1885 1.350 . S
C1891 H1878 0.929 . S
C1891 C1883 1.433 . S
C1891 N1893 1.384 . S
N1892 C1888 1.427 . S
N1892 C1889 1.384 . S
N1893 C1885 1.427 . S
N1893 C1891 1.384 . S
H1894 C1900 0.930 . S
H1895 C1904 0.930 . S
H1896 C1909 0.929 . S
H1897 C1907 0.929 . S
H1898 C1902 0.929 . S
H1899 C1908 0.929 . S
C1900 H1894 0.930 . S
C1900 C1901 1.367 . S
C1900 C1908 1.378 . S
C1901 C1900 1.367 . S
C1901 C1909 1.433 . S
C1902 H1898 0.929 . S
C1902 C1904 1.378 . S
C1902 C1906 1.350 . S
C1903 C1906 1.463 . S
C1903 C1908 1.350 . S
C1903 N1911 1.427 . S
C1904 H1895 0.930 . S
C1904 C1902 1.378 . S
C1904 C1905 1.367 . S
C1905 C1904 1.367 . S
C1905 C1907 1.433 . S
C1906 C1902 1.350 . S
C1906 C1903 1.463 . S
C1906 N1910 1.427 . S
C1907 H1897 0.929 . S
C1907 C1905 1.433 . S
C1907 N1910 1.384 . S
C1908 H1899 0.929 . S
C1908 C1900 1.378 . S
C1908 C1903 1.350 . S
C1909 H1896 0.929 . S
C1909 C1901 1.433 . S
C1909 N1911 1.384 . S
N1910 C1906 1.427 . S
N1910 C1907 1.384 . S
N1911 C1903 1.427 . S
N1911 C1909 1.384 . S
H1912 C1918 0.930 . S
H1913 C1922 0.930 . S
H1914 C1927 0.929 . S
H1915 C1925 0.929 . S
H1916 C1920 0.929 . S
H1917 C1926 0.929 . S
C1918 H1912 0.930 . S
C1918 C1919 1.367 . S
C1918 C1926 1.378 . S
C1919 C1918 1.367 . S
C1919 C1927 1.433 . S
C1920 H1916 0.929 . S
C1920 C1922 1.378 . S
C1920 C1924 1.350 . S
C1921 C1924 1.463 . S
C1921 C1926 1.350 . S
C1921 N1929 1.427 . S
C1922 H1913 0.930 . S
C1922 C1920 1.378 . S
C1922 C1923 1.367 . S
C1923 C1922 1.367 . S
C1923 C1925 1.433 . S
C1924 C1920 1.350 . S
C1924 C1921 1.463 . S
C1924 N1928 1.427 . S
C1925 H1915 0.929 . S
C1925 C1923 1.433 . S
C1925 N1928 1.384 . S
C1926 H1917 0.929 . S
C1926 C1918 1.378 . S
C1926 C1921 1.350 . S
C1927 H1914 0.929 . S
C1927 C1919 1.433 . S
C1927 N1929 1.384 . S
N1928 C1924 1.427 . S
N1928 C1925 1.384 . S
N1929 C1921 1.427 . S
N1929 C1927 1.384 . S
H1930 C1936 0.930 . S
H1931 C1940 0.930 . S
H1932 C1945 0.929 . S
H1933 C1943 0.929 . S
H1934 C1938 0.929 . S
H1935 C1944 0.929 . S
C1936 H1930 0.930 . S
C1936 C1937 1.367 . S
C1936 C1944 1.378 . S
C1937 C1936 1.367 . S
C1937 C1945 1.433 . S
C1938 H1934 0.929 . S
C1938 C1940 1.378 . S
C1938 C1942 1.350 . S
C1939 C1942 1.463 . S
C1939 C1944 1.350 . S
C1939 N1947 1.427 . S
C1940 H1931 0.930 . S
C1940 C1938 1.378 . S
C1940 C1941 1.367 . S
C1941 C1940 1.367 . S
C1941 C1943 1.433 . S
C1942 C1938 1.350 . S
C1942 C1939 1.463 . S
C1942 N1946 1.427 . S
C1943 H1933 0.929 . S
C1943 C1941 1.433 . S
C1943 N1946 1.384 . S
C1944 H1935 0.929 . S
C1944 C1936 1.378 . S
C1944 C1939 1.350 . S
C1945 H1932 0.929 . S
C1945 C1937 1.433 . S
C1945 N1947 1.384 . S
N1946 C1942 1.427 . S
N1946 C1943 1.384 . S
N1947 C1939 1.427 . S
N1947 C1945 1.384 . S
H1948 C1954 0.930 . S
H1949 C1958 0.930 . S
H1950 C1963 0.929 . S
H1951 C1961 0.929 . S
H1952 C1956 0.929 . S
H1953 C1962 0.929 . S
C1954 H1948 0.930 . S
C1954 C1955 1.367 . S
C1954 C1962 1.378 . S
C1955 C1954 1.367 . S
C1955 C1963 1.433 . S
C1956 H1952 0.929 . S
C1956 C1958 1.378 . S
C1956 C1960 1.350 . S
C1957 C1960 1.463 . S
C1957 C1962 1.350 . S
C1957 N1965 1.427 . S
C1958 H1949 0.930 . S
C1958 C1956 1.378 . S
C1958 C1959 1.367 . S
C1959 C1958 1.367 . S
C1959 C1961 1.433 . S
C1960 C1956 1.350 . S
C1960 C1957 1.463 . S
C1960 N1964 1.427 . S
C1961 H1951 0.929 . S
C1961 C1959 1.433 . S
C1961 N1964 1.384 . S
C1962 H1953 0.929 . S
C1962 C1954 1.378 . S
C1962 C1957 1.350 . S
C1963 H1950 0.929 . S
C1963 C1955 1.433 . S
C1963 N1965 1.384 . S
N1964 C1960 1.427 . S
N1964 C1961 1.384 . S
N1965 C1957 1.427 . S
N1965 C1963 1.384 . S
H1966 C1972 0.930 . S
H1967 C1976 0.930 . S
H1968 C1981 0.929 . S
H1969 C1979 0.929 . S
H1970 C1974 0.929 . S
H1971 C1980 0.929 . S
C1972 H1966 0.930 . S
C1972 C1973 1.367 . S
C1972 C1980 1.378 . S
C1973 C1972 1.367 . S
C1973 C1981 1.433 . S
C1974 H1970 0.929 . S
C1974 C1976 1.378 . S
C1974 C1978 1.350 . S
C1975 C1978 1.463 . S
C1975 C1980 1.350 . S
C1975 N1983 1.427 . S
C1976 H1967 0.930 . S
C1976 C1974 1.378 . S
C1976 C1977 1.367 . S
C1977 C1976 1.367 . S
C1977 C1979 1.433 . S
C1978 C1974 1.350 . S
C1978 C1975 1.463 . S
C1978 N1982 1.427 . S
C1979 H1969 0.929 . S
C1979 C1977 1.433 . S
C1979 N1982 1.384 . S
C1980 H1971 0.929 . S
C1980 C1972 1.378 . S
C1980 C1975 1.350 . S
C1981 H1968 0.929 . S
C1981 C1973 1.433 . S
C1981 N1983 1.384 . S
N1982 C1978 1.427 . S
N1982 C1979 1.384 . S
N1983 C1975 1.427 . S
N1983 C1981 1.384 . S
H1984 C1990 0.930 . S
H1985 C1994 0.930 . S
H1986 C1999 0.929 . S
H1987 C1997 0.929 . S
H1988 C1992 0.929 . S
H1989 C1998 0.929 . S
C1990 H1984 0.930 . S
C1990 C1991 1.367 . S
C1990 C1998 1.378 . S
C1991 C1990 1.367 . S
C1991 C1999 1.433 . S
C1992 H1988 0.929 . S
C1992 C1994 1.378 . S
C1992 C1996 1.350 . S
C1993 C1996 1.463 . S
C1993 C1998 1.350 . S
C1993 N2001 1.427 . S
C1994 H1985 0.930 . S
C1994 C1992 1.378 . S
C1994 C1995 1.367 . S
C1995 C1994 1.367 . S
C1995 C1997 1.433 . S
C1996 C1992 1.350 . S
C1996 C1993 1.463 . S
C1996 N2000 1.427 . S
C1997 H1987 0.929 . S
C1997 C1995 1.433 . S
C1997 N2000 1.384 . S
C1998 H1989 0.929 . S
C1998 C1990 1.378 . S
C1998 C1993 1.350 . S
C1999 H1986 0.929 . S
C1999 C1991 1.433 . S
C1999 N2001 1.384 . S
N2000 C1996 1.427 . S
N2000 C1997 1.384 . S
N2001 C1993 1.427 . S
N2001 C1999 1.384 . S
H2002 C2008 0.930 . S
H2003 C2012 0.930 . S
H2004 C2017 0.929 . S
H2005 C2015 0.929 . S
H2006 C2010 0.929 . S
H2007 C2016 0.929 . S
C2008 H2002 0.930 . S
C2008 C2009 1.367 . S
C2008 C2016 1.378 . S
C2009 C2008 1.367 . S
C2009 C2017 1.433 . S
C2010 H2006 0.929 . S
C2010 C2012 1.378 . S
C2010 C2014 1.350 . S
C2011 C2014 1.463 . S
C2011 C2016 1.350 . S
C2011 N2019 1.427 . S
C2012 H2003 0.930 . S
C2012 C2010 1.378 . S
C2012 C2013 1.367 . S
C2013 C2012 1.367 . S
C2013 C2015 1.433 . S
C2014 C2010 1.350 . S
C2014 C2011 1.463 . S
C2014 N2018 1.427 . S
C2015 H2005 0.929 . S
C2015 C2013 1.433 . S
C2015 N2018 1.384 . S
C2016 H2007 0.929 . S
C2016 C2008 1.378 . S
C2016 C2011 1.350 . S
C2017 H2004 0.929 . S
C2017 C2009 1.433 . S
C2017 N2019 1.384 . S
N2018 C2014 1.427 . S
N2018 C2015 1.384 . S
N2019 C2011 1.427 . S
N2019 C2017 1.384 . S
H2020 C2026 0.930 . S
H2021 C2030 0.930 . S
H2022 C2035 0.929 . S
H2023 C2033 0.929 . S
H2024 C2028 0.929 . S
H2025 C2034 0.929 . S
C2026 H2020 0.930 . S
C2026 C2027 1.367 . S
C2026 C2034 1.378 . S
C2027 C2026 1.367 . S
C2027 C2035 1.433 . S
C2028 H2024 0.929 . S
C2028 C2030 1.378 . S
C2028 C2032 1.350 . S
C2029 C2032 1.463 . S
C2029 C2034 1.350 . S
C2029 N2037 1.427 . S
C2030 H2021 0.930 . S
C2030 C2028 1.378 . S
C2030 C2031 1.367 . S
C2031 C2030 1.367 . S
C2031 C2033 1.433 . S
C2032 C2028 1.350 . S
C2032 C2029 1.463 . S
C2032 N2036 1.427 . S
C2033 H2023 0.929 . S
C2033 C2031 1.433 . S
C2033 N2036 1.384 . S
C2034 H2025 0.929 . S
C2034 C2026 1.378 . S
C2034 C2029 1.350 . S
C2035 H2022 0.929 . S
C2035 C2027 1.433 . S
C2035 N2037 1.384 . S
N2036 C2032 1.427 . S
N2036 C2033 1.384 . S
N2037 C2029 1.427 . S
N2037 C2035 1.384 . S
H2038 C2044 0.930 . S
H2039 C2048 0.930 . S
H2040 C2053 0.929 . S
H2041 C2051 0.929 . S
H2042 C2046 0.929 . S
H2043 C2052 0.929 . S
C2044 H2038 0.930 . S
C2044 C2045 1.367 . S
C2044 C2052 1.378 . S
C2045 C2044 1.367 . S
C2045 C2053 1.433 . S
C2046 H2042 0.929 . S
C2046 C2048 1.378 . S
C2046 C2050 1.350 . S
C2047 C2050 1.463 . S
C2047 C2052 1.350 . S
C2047 N2055 1.427 . S
C2048 H2039 0.930 . S
C2048 C2046 1.378 . S
C2048 C2049 1.367 . S
C2049 C2048 1.367 . S
C2049 C2051 1.433 . S
C2050 C2046 1.350 . S
C2050 C2047 1.463 . S
C2050 N2054 1.427 . S
C2051 H2041 0.929 . S
C2051 C2049 1.433 . S
C2051 N2054 1.384 . S
C2052 H2043 0.929 . S
C2052 C2044 1.378 . S
C2052 C2047 1.350 . S
C2053 H2040 0.929 . S
C2053 C2045 1.433 . S
C2053 N2055 1.384 . S
N2054 C2050 1.427 . S
N2054 C2051 1.384 . S
N2055 C2047 1.427 . S
N2055 C2053 1.384 . S
H2056 C2062 0.930 . S
H2057 C2066 0.930 . S
H2058 C2071 0.929 . S
H2059 C2069 0.929 . S
H2060 C2064 0.929 . S
H2061 C2070 0.929 . S
C2062 H2056 0.930 . S
C2062 C2063 1.367 . S
C2062 C2070 1.378 . S
C2063 C2062 1.367 . S
C2063 C2071 1.433 . S
C2064 H2060 0.929 . S
C2064 C2066 1.378 . S
C2064 C2068 1.350 . S
C2065 C2068 1.463 . S
C2065 C2070 1.350 . S
C2065 N2073 1.427 . S
C2066 H2057 0.930 . S
C2066 C2064 1.378 . S
C2066 C2067 1.367 . S
C2067 C2066 1.367 . S
C2067 C2069 1.433 . S
C2068 C2064 1.350 . S
C2068 C2065 1.463 . S
C2068 N2072 1.427 . S
C2069 H2059 0.929 . S
C2069 C2067 1.433 . S
C2069 N2072 1.384 . S
C2070 H2061 0.929 . S
C2070 C2062 1.378 . S
C2070 C2065 1.350 . S
C2071 H2058 0.929 . S
C2071 C2063 1.433 . S
C2071 N2073 1.384 . S
N2072 C2068 1.427 . S
N2072 C2069 1.384 . S
N2073 C2065 1.427 . S
N2073 C2071 1.384 . S
H2074 C2080 0.930 . S
H2075 C2084 0.930 . S
H2076 C2089 0.929 . S
H2077 C2087 0.929 . S
H2078 C2082 0.929 . S
H2079 C2088 0.929 . S
C2080 H2074 0.930 . S
C2080 C2081 1.367 . S
C2080 C2088 1.378 . S
C2081 C2080 1.367 . S
C2081 C2089 1.433 . S
C2082 H2078 0.929 . S
C2082 C2084 1.378 . S
C2082 C2086 1.350 . S
C2083 C2086 1.463 . S
C2083 C2088 1.350 . S
C2083 N2091 1.427 . S
C2084 H2075 0.930 . S
C2084 C2082 1.378 . S
C2084 C2085 1.367 . S
C2085 C2084 1.367 . S
C2085 C2087 1.433 . S
C2086 C2082 1.350 . S
C2086 C2083 1.463 . S
C2086 N2090 1.427 . S
C2087 H2077 0.929 . S
C2087 C2085 1.433 . S
C2087 N2090 1.384 . S
C2088 H2079 0.929 . S
C2088 C2080 1.378 . S
C2088 C2083 1.350 . S
C2089 H2076 0.929 . S
C2089 C2081 1.433 . S
C2089 N2091 1.384 . S
N2090 C2086 1.427 . S
N2090 C2087 1.384 . S
N2091 C2083 1.427 . S
N2091 C2089 1.384 . S
H2092 C2098 0.930 . S
H2093 C2102 0.930 . S
H2094 C2107 0.929 . S
H2095 C2105 0.929 . S
H2096 C2100 0.929 . S
H2097 C2106 0.929 . S
C2098 H2092 0.930 . S
C2098 C2099 1.367 . S
C2098 C2106 1.378 . S
C2099 C2098 1.367 . S
C2099 C2107 1.433 . S
C2100 H2096 0.929 . S
C2100 C2102 1.378 . S
C2100 C2104 1.350 . S
C2101 C2104 1.463 . S
C2101 C2106 1.350 . S
C2101 N2109 1.427 . S
C2102 H2093 0.930 . S
C2102 C2100 1.378 . S
C2102 C2103 1.367 . S
C2103 C2102 1.367 . S
C2103 C2105 1.433 . S
C2104 C2100 1.350 . S
C2104 C2101 1.463 . S
C2104 N2108 1.427 . S
C2105 H2095 0.929 . S
C2105 C2103 1.433 . S
C2105 N2108 1.384 . S
C2106 H2097 0.929 . S
C2106 C2098 1.378 . S
C2106 C2101 1.350 . S
C2107 H2094 0.929 . S
C2107 C2099 1.433 . S
C2107 N2109 1.384 . S
N2108 C2104 1.427 . S
N2108 C2105 1.384 . S
N2109 C2101 1.427 . S
N2109 C2107 1.384 . S
H2110 C2116 0.930 . S
H2111 C2120 0.930 . S
H2112 C2125 0.929 . S
H2113 C2123 0.929 . S
H2114 C2118 0.929 . S
H2115 C2124 0.929 . S
C2116 H2110 0.930 . S
C2116 C2117 1.367 . S
C2116 C2124 1.378 . S
C2117 C2116 1.367 . S
C2117 C2125 1.433 . S
C2118 H2114 0.929 . S
C2118 C2120 1.378 . S
C2118 C2122 1.350 . S
C2119 C2122 1.463 . S
C2119 C2124 1.350 . S
C2119 N2127 1.427 . S
C2120 H2111 0.930 . S
C2120 C2118 1.378 . S
C2120 C2121 1.367 . S
C2121 C2120 1.367 . S
C2121 C2123 1.433 . S
C2122 C2118 1.350 . S
C2122 C2119 1.463 . S
C2122 N2126 1.427 . S
C2123 H2113 0.929 . S
C2123 C2121 1.433 . S
C2123 N2126 1.384 . S
C2124 H2115 0.929 . S
C2124 C2116 1.378 . S
C2124 C2119 1.350 . S
C2125 H2112 0.929 . S
C2125 C2117 1.433 . S
C2125 N2127 1.384 . S
N2126 C2122 1.427 . S
N2126 C2123 1.384 . S
N2127 C2119 1.427 . S
N2127 C2125 1.384 . S
H2128 C2134 0.930 . S
H2129 C2138 0.930 . S
H2130 C2143 0.929 . S
H2131 C2141 0.929 . S
H2132 C2136 0.929 . S
H2133 C2142 0.929 . S
C2134 H2128 0.930 . S
C2134 C2135 1.367 . S
C2134 C2142 1.378 . S
C2135 C2134 1.367 . S
C2135 C2143 1.433 . S
C2136 H2132 0.929 . S
C2136 C2138 1.378 . S
C2136 C2140 1.350 . S
C2137 C2140 1.463 . S
C2137 C2142 1.350 . S
C2137 N2145 1.427 . S
C2138 H2129 0.930 . S
C2138 C2136 1.378 . S
C2138 C2139 1.367 . S
C2139 C2138 1.367 . S
C2139 C2141 1.433 . S
C2140 C2136 1.350 . S
C2140 C2137 1.463 . S
C2140 N2144 1.427 . S
C2141 H2131 0.929 . S
C2141 C2139 1.433 . S
C2141 N2144 1.384 . S
C2142 H2133 0.929 . S
C2142 C2134 1.378 . S
C2142 C2137 1.350 . S
C2143 H2130 0.929 . S
C2143 C2135 1.433 . S
C2143 N2145 1.384 . S
N2144 C2140 1.427 . S
N2144 C2141 1.384 . S
N2145 C2137 1.427 . S
N2145 C2143 1.384 . S
H2146 C2152 0.930 . S
H2147 C2156 0.930 . S
H2148 C2161 0.929 . S
H2149 C2159 0.929 . S
H2150 C2154 0.929 . S
H2151 C2160 0.929 . S
C2152 H2146 0.930 . S
C2152 C2153 1.367 . S
C2152 C2160 1.378 . S
C2153 C2152 1.367 . S
C2153 C2161 1.433 . S
C2154 H2150 0.929 . S
C2154 C2156 1.378 . S
C2154 C2158 1.350 . S
C2155 C2158 1.463 . S
C2155 C2160 1.350 . S
C2155 N2163 1.427 . S
C2156 H2147 0.930 . S
C2156 C2154 1.378 . S
C2156 C2157 1.367 . S
C2157 C2156 1.367 . S
C2157 C2159 1.433 . S
C2158 C2154 1.350 . S
C2158 C2155 1.463 . S
C2158 N2162 1.427 . S
C2159 H2149 0.929 . S
C2159 C2157 1.433 . S
C2159 N2162 1.384 . S
C2160 H2151 0.929 . S
C2160 C2152 1.378 . S
C2160 C2155 1.350 . S
C2161 H2148 0.929 . S
C2161 C2153 1.433 . S
C2161 N2163 1.384 . S
N2162 C2158 1.427 . S
N2162 C2159 1.384 . S
N2163 C2155 1.427 . S
N2163 C2161 1.384 . S
H2164 C2170 0.930 . S
H2165 C2174 0.930 . S
H2166 C2179 0.929 . S
H2167 C2177 0.929 . S
H2168 C2172 0.929 . S
H2169 C2178 0.929 . S
C2170 H2164 0.930 . S
C2170 C2171 1.367 . S
C2170 C2178 1.378 . S
C2171 C2170 1.367 . S
C2171 C2179 1.433 . S
C2172 H2168 0.929 . S
C2172 C2174 1.378 . S
C2172 C2176 1.350 . S
C2173 C2176 1.463 . S
C2173 C2178 1.350 . S
C2173 N2181 1.427 . S
C2174 H2165 0.930 . S
C2174 C2172 1.378 . S
C2174 C2175 1.367 . S
C2175 C2174 1.367 . S
C2175 C2177 1.433 . S
C2176 C2172 1.350 . S
C2176 C2173 1.463 . S
C2176 N2180 1.427 . S
C2177 H2167 0.929 . S
C2177 C2175 1.433 . S
C2177 N2180 1.384 . S
C2178 H2169 0.929 . S
C2178 C2170 1.378 . S
C2178 C2173 1.350 . S
C2179 H2166 0.929 . S
C2179 C2171 1.433 . S
C2179 N2181 1.384 . S
N2180 C2176 1.427 . S
N2180 C2177 1.384 . S
N2181 C2173 1.427 . S
N2181 C2179 1.384 . S
H2182 C2188 0.930 . S
H2183 C2192 0.930 . S
H2184 C2197 0.929 . S
H2185 C2195 0.929 . S
H2186 C2190 0.929 . S
H2187 C2196 0.929 . S
C2188 H2182 0.930 . S
C2188 C2189 1.367 . S
C2188 C2196 1.378 . S
C2189 C2188 1.367 . S
C2189 C2197 1.433 . S
C2190 H2186 0.929 . S
C2190 C2192 1.378 . S
C2190 C2194 1.350 . S
C2191 C2194 1.463 . S
C2191 C2196 1.350 . S
C2191 N2199 1.427 . S
C2192 H2183 0.930 . S
C2192 C2190 1.378 . S
C2192 C2193 1.367 . S
C2193 C2192 1.367 . S
C2193 C2195 1.433 . S
C2194 C2190 1.350 . S
C2194 C2191 1.463 . S
C2194 N2198 1.427 . S
C2195 H2185 0.929 . S
C2195 C2193 1.433 . S
C2195 N2198 1.384 . S
C2196 H2187 0.929 . S
C2196 C2188 1.378 . S
C2196 C2191 1.350 . S
C2197 H2184 0.929 . S
C2197 C2189 1.433 . S
C2197 N2199 1.384 . S
N2198 C2194 1.427 . S
N2198 C2195 1.384 . S
N2199 C2191 1.427 . S
N2199 C2197 1.384 . S
H2200 C2206 0.930 . S
H2201 C2210 0.930 . S
H2202 C2215 0.929 . S
H2203 C2213 0.929 . S
H2204 C2208 0.929 . S
H2205 C2214 0.929 . S
C2206 H2200 0.930 . S
C2206 C2207 1.367 . S
C2206 C2214 1.378 . S
C2207 C2206 1.367 . S
C2207 C2215 1.433 . S
C2208 H2204 0.929 . S
C2208 C2210 1.378 . S
C2208 C2212 1.350 . S
C2209 C2212 1.463 . S
C2209 C2214 1.350 . S
C2209 N2217 1.427 . S
C2210 H2201 0.930 . S
C2210 C2208 1.378 . S
C2210 C2211 1.367 . S
C2211 C2210 1.367 . S
C2211 C2213 1.433 . S
C2212 C2208 1.350 . S
C2212 C2209 1.463 . S
C2212 N2216 1.427 . S
C2213 H2203 0.929 . S
C2213 C2211 1.433 . S
C2213 N2216 1.384 . S
C2214 H2205 0.929 . S
C2214 C2206 1.378 . S
C2214 C2209 1.350 . S
C2215 H2202 0.929 . S
C2215 C2207 1.433 . S
C2215 N2217 1.384 . S
N2216 C2212 1.427 . S
N2216 C2213 1.384 . S
N2217 C2209 1.427 . S
N2217 C2215 1.384 . S
H2218 C2224 0.930 . S
H2219 C2228 0.930 . S
H2220 C2233 0.929 . S
H2221 C2231 0.929 . S
H2222 C2226 0.929 . S
H2223 C2232 0.929 . S
C2224 H2218 0.930 . S
C2224 C2225 1.367 . S
C2224 C2232 1.378 . S
C2225 C2224 1.367 . S
C2225 C2233 1.433 . S
C2226 H2222 0.929 . S
C2226 C2228 1.378 . S
C2226 C2230 1.350 . S
C2227 C2230 1.463 . S
C2227 C2232 1.350 . S
C2227 N2235 1.427 . S
C2228 H2219 0.930 . S
C2228 C2226 1.378 . S
C2228 C2229 1.367 . S
C2229 C2228 1.367 . S
C2229 C2231 1.433 . S
C2230 C2226 1.350 . S
C2230 C2227 1.463 . S
C2230 N2234 1.427 . S
C2231 H2221 0.929 . S
C2231 C2229 1.433 . S
C2231 N2234 1.384 . S
C2232 H2223 0.929 . S
C2232 C2224 1.378 . S
C2232 C2227 1.350 . S
C2233 H2220 0.929 . S
C2233 C2225 1.433 . S
C2233 N2235 1.384 . S
N2234 C2230 1.427 . S
N2234 C2231 1.384 . S
N2235 C2227 1.427 . S
N2235 C2233 1.384 . S
H2236 C2242 0.930 . S
H2237 C2246 0.930 . S
H2238 C2251 0.929 . S
H2239 C2249 0.929 . S
H2240 C2244 0.929 . S
H2241 C2250 0.929 . S
C2242 H2236 0.930 . S
C2242 C2243 1.367 . S
C2242 C2250 1.378 . S
C2243 C2242 1.367 . S
C2243 C2251 1.433 . S
C2244 H2240 0.929 . S
C2244 C2246 1.378 . S
C2244 C2248 1.350 . S
C2245 C2248 1.463 . S
C2245 C2250 1.350 . S
C2245 N2253 1.427 . S
C2246 H2237 0.930 . S
C2246 C2244 1.378 . S
C2246 C2247 1.367 . S
C2247 C2246 1.367 . S
C2247 C2249 1.433 . S
C2248 C2244 1.350 . S
C2248 C2245 1.463 . S
C2248 N2252 1.427 . S
C2249 H2239 0.929 . S
C2249 C2247 1.433 . S
C2249 N2252 1.384 . S
C2250 H2241 0.929 . S
C2250 C2242 1.378 . S
C2250 C2245 1.350 . S
C2251 H2238 0.929 . S
C2251 C2243 1.433 . S
C2251 N2253 1.384 . S
N2252 C2248 1.427 . S
N2252 C2249 1.384 . S
N2253 C2245 1.427 . S
N2253 C2251 1.384 . S
H2254 C2260 0.930 . S
H2255 C2264 0.930 . S
H2256 C2269 0.929 . S
H2257 C2267 0.929 . S
H2258 C2262 0.929 . S
H2259 C2268 0.929 . S
C2260 H2254 0.930 . S
C2260 C2261 1.367 . S
C2260 C2268 1.378 . S
C2261 C2260 1.367 . S
C2261 C2269 1.433 . S
C2262 H2258 0.929 . S
C2262 C2264 1.378 . S
C2262 C2266 1.350 . S
C2263 C2266 1.463 . S
C2263 C2268 1.350 . S
C2263 N2271 1.427 . S
C2264 H2255 0.930 . S
C2264 C2262 1.378 . S
C2264 C2265 1.367 . S
C2265 C2264 1.367 . S
C2265 C2267 1.433 . S
C2266 C2262 1.350 . S
C2266 C2263 1.463 . S
C2266 N2270 1.427 . S
C2267 H2257 0.929 . S
C2267 C2265 1.433 . S
C2267 N2270 1.384 . S
C2268 H2259 0.929 . S
C2268 C2260 1.378 . S
C2268 C2263 1.350 . S
C2269 H2256 0.929 . S
C2269 C2261 1.433 . S
C2269 N2271 1.384 . S
N2270 C2266 1.427 . S
N2270 C2267 1.384 . S
N2271 C2263 1.427 . S
N2271 C2269 1.384 . S
H2272 C2278 0.930 . S
H2273 C2282 0.930 . S
H2274 C2287 0.929 . S
H2275 C2285 0.929 . S
H2276 C2280 0.929 . S
H2277 C2286 0.929 . S
C2278 H2272 0.930 . S
C2278 C2279 1.367 . S
C2278 C2286 1.378 . S
C2279 C2278 1.367 . S
C2279 C2287 1.433 . S
C2280 H2276 0.929 . S
C2280 C2282 1.378 . S
C2280 C2284 1.350 . S
C2281 C2284 1.463 . S
C2281 C2286 1.350 . S
C2281 N2289 1.427 . S
C2282 H2273 0.930 . S
C2282 C2280 1.378 . S
C2282 C2283 1.367 . S
C2283 C2282 1.367 . S
C2283 C2285 1.433 . S
C2284 C2280 1.350 . S
C2284 C2281 1.463 . S
C2284 N2288 1.427 . S
C2285 H2275 0.929 . S
C2285 C2283 1.433 . S
C2285 N2288 1.384 . S
C2286 H2277 0.929 . S
C2286 C2278 1.378 . S
C2286 C2281 1.350 . S
C2287 H2274 0.929 . S
C2287 C2279 1.433 . S
C2287 N2289 1.384 . S
N2288 C2284 1.427 . S
N2288 C2285 1.384 . S
N2289 C2281 1.427 . S
N2289 C2287 1.384 . S
H2290 C2296 0.930 . S
H2291 C2300 0.930 . S
H2292 C2305 0.929 . S
H2293 C2303 0.929 . S
H2294 C2298 0.929 . S
H2295 C2304 0.929 . S
C2296 H2290 0.930 . S
C2296 C2297 1.367 . S
C2296 C2304 1.378 . S
C2297 C2296 1.367 . S
C2297 C2305 1.433 . S
C2298 H2294 0.929 . S
C2298 C2300 1.378 . S
C2298 C2302 1.350 . S
C2299 C2302 1.463 . S
C2299 C2304 1.350 . S
C2299 N2307 1.427 . S
C2300 H2291 0.930 . S
C2300 C2298 1.378 . S
C2300 C2301 1.367 . S
C2301 C2300 1.367 . S
C2301 C2303 1.433 . S
C2302 C2298 1.350 . S
C2302 C2299 1.463 . S
C2302 N2306 1.427 . S
C2303 H2293 0.929 . S
C2303 C2301 1.433 . S
C2303 N2306 1.384 . S
C2304 H2295 0.929 . S
C2304 C2296 1.378 . S
C2304 C2299 1.350 . S
C2305 H2292 0.929 . S
C2305 C2297 1.433 . S
C2305 N2307 1.384 . S
N2306 C2302 1.427 . S
N2306 C2303 1.384 . S
N2307 C2299 1.427 . S
N2307 C2305 1.384 . S
H2308 C2314 0.930 . S
H2309 C2318 0.930 . S
H2310 C2323 0.929 . S
H2311 C2321 0.929 . S
H2312 C2316 0.929 . S
H2313 C2322 0.929 . S
C2314 H2308 0.930 . S
C2314 C2315 1.367 . S
C2314 C2322 1.378 . S
C2315 C2314 1.367 . S
C2315 C2323 1.433 . S
C2316 H2312 0.929 . S
C2316 C2318 1.378 . S
C2316 C2320 1.350 . S
C2317 C2320 1.463 . S
C2317 C2322 1.350 . S
C2317 N2325 1.427 . S
C2318 H2309 0.930 . S
C2318 C2316 1.378 . S
C2318 C2319 1.367 . S
C2319 C2318 1.367 . S
C2319 C2321 1.433 . S
C2320 C2316 1.350 . S
C2320 C2317 1.463 . S
C2320 N2324 1.427 . S
C2321 H2311 0.929 . S
C2321 C2319 1.433 . S
C2321 N2324 1.384 . S
C2322 H2313 0.929 . S
C2322 C2314 1.378 . S
C2322 C2317 1.350 . S
C2323 H2310 0.929 . S
C2323 C2315 1.433 . S
C2323 N2325 1.384 . S
N2324 C2320 1.427 . S
N2324 C2321 1.384 . S
N2325 C2317 1.427 . S
N2325 C2323 1.384 . S
H2326 C2332 0.930 . S
H2327 C2336 0.930 . S
H2328 C2341 0.929 . S
H2329 C2339 0.929 . S
H2330 C2334 0.929 . S
H2331 C2340 0.929 . S
C2332 H2326 0.930 . S
C2332 C2333 1.367 . S
C2332 C2340 1.378 . S
C2333 C2332 1.367 . S
C2333 C2341 1.433 . S
C2334 H2330 0.929 . S
C2334 C2336 1.378 . S
C2334 C2338 1.350 . S
C2335 C2338 1.463 . S
C2335 C2340 1.350 . S
C2335 N2343 1.427 . S
C2336 H2327 0.930 . S
C2336 C2334 1.378 . S
C2336 C2337 1.367 . S
C2337 C2336 1.367 . S
C2337 C2339 1.433 . S
C2338 C2334 1.350 . S
C2338 C2335 1.463 . S
C2338 N2342 1.427 . S
C2339 H2329 0.929 . S
C2339 C2337 1.433 . S
C2339 N2342 1.384 . S
C2340 H2331 0.929 . S
C2340 C2332 1.378 . S
C2340 C2335 1.350 . S
C2341 H2328 0.929 . S
C2341 C2333 1.433 . S
C2341 N2343 1.384 . S
N2342 C2338 1.427 . S
N2342 C2339 1.384 . S
N2343 C2335 1.427 . S
N2343 C2341 1.384 . S
H2344 C2350 0.930 . S
H2345 C2354 0.930 . S
H2346 C2359 0.929 . S
H2347 C2357 0.929 . S
H2348 C2352 0.929 . S
H2349 C2358 0.929 . S
C2350 H2344 0.930 . S
C2350 C2351 1.367 . S
C2350 C2358 1.378 . S
C2351 C2350 1.367 . S
C2351 C2359 1.433 . S
C2352 H2348 0.929 . S
C2352 C2354 1.378 . S
C2352 C2356 1.350 . S
C2353 C2356 1.463 . S
C2353 C2358 1.350 . S
C2353 N2361 1.427 . S
C2354 H2345 0.930 . S
C2354 C2352 1.378 . S
C2354 C2355 1.367 . S
C2355 C2354 1.367 . S
C2355 C2357 1.433 . S
C2356 C2352 1.350 . S
C2356 C2353 1.463 . S
C2356 N2360 1.427 . S
C2357 H2347 0.929 . S
C2357 C2355 1.433 . S
C2357 N2360 1.384 . S
C2358 H2349 0.929 . S
C2358 C2350 1.378 . S
C2358 C2353 1.350 . S
C2359 H2346 0.929 . S
C2359 C2351 1.433 . S
C2359 N2361 1.384 . S
N2360 C2356 1.427 . S
N2360 C2357 1.384 . S
N2361 C2353 1.427 . S
N2361 C2359 1.384 . S
H2362 C2368 0.930 . S
H2363 C2372 0.930 . S
H2364 C2377 0.929 . S
H2365 C2375 0.929 . S
H2366 C2370 0.929 . S
H2367 C2376 0.929 . S
C2368 H2362 0.930 . S
C2368 C2369 1.367 . S
C2368 C2376 1.378 . S
C2369 C2368 1.367 . S
C2369 C2377 1.433 . S
C2370 H2366 0.929 . S
C2370 C2372 1.378 . S
C2370 C2374 1.350 . S
C2371 C2374 1.463 . S
C2371 C2376 1.350 . S
C2371 N2379 1.427 . S
C2372 H2363 0.930 . S
C2372 C2370 1.378 . S
C2372 C2373 1.367 . S
C2373 C2372 1.367 . S
C2373 C2375 1.433 . S
C2374 C2370 1.350 . S
C2374 C2371 1.463 . S
C2374 N2378 1.427 . S
C2375 H2365 0.929 . S
C2375 C2373 1.433 . S
C2375 N2378 1.384 . S
C2376 H2367 0.929 . S
C2376 C2368 1.378 . S
C2376 C2371 1.350 . S
C2377 H2364 0.929 . S
C2377 C2369 1.433 . S
C2377 N2379 1.384 . S
N2378 C2374 1.427 . S
N2378 C2375 1.384 . S
N2379 C2371 1.427 . S
N2379 C2377 1.384 . S
H2380 C2386 0.930 . S
H2381 C2390 0.930 . S
H2382 C2395 0.929 . S
H2383 C2393 0.929 . S
H2384 C2388 0.929 . S
H2385 C2394 0.929 . S
C2386 H2380 0.930 . S
C2386 C2387 1.367 . S
C2386 C2394 1.378 . S
C2387 C2386 1.367 . S
C2387 C2395 1.433 . S
C2388 H2384 0.929 . S
C2388 C2390 1.378 . S
C2388 C2392 1.350 . S
C2389 C2392 1.463 . S
C2389 C2394 1.350 . S
C2389 N2397 1.427 . S
C2390 H2381 0.930 . S
C2390 C2388 1.378 . S
C2390 C2391 1.367 . S
C2391 C2390 1.367 . S
C2391 C2393 1.433 . S
C2392 C2388 1.350 . S
C2392 C2389 1.463 . S
C2392 N2396 1.427 . S
C2393 H2383 0.929 . S
C2393 C2391 1.433 . S
C2393 N2396 1.384 . S
C2394 H2385 0.929 . S
C2394 C2386 1.378 . S
C2394 C2389 1.350 . S
C2395 H2382 0.929 . S
C2395 C2387 1.433 . S
C2395 N2397 1.384 . S
N2396 C2392 1.427 . S
N2396 C2393 1.384 . S
N2397 C2389 1.427 . S
N2397 C2395 1.384 . S
H2398 C2404 0.930 . S
H2399 C2408 0.930 . S
H2400 C2413 0.929 . S
H2401 C2411 0.929 . S
H2402 C2406 0.929 . S
H2403 C2412 0.929 . S
C2404 H2398 0.930 . S
C2404 C2405 1.367 . S
C2404 C2412 1.378 . S
C2405 C2404 1.367 . S
C2405 C2413 1.433 . S
C2406 H2402 0.929 . S
C2406 C2408 1.378 . S
C2406 C2410 1.350 . S
C2407 C2410 1.463 . S
C2407 C2412 1.350 . S
C2407 N2415 1.427 . S
C2408 H2399 0.930 . S
C2408 C2406 1.378 . S
C2408 C2409 1.367 . S
C2409 C2408 1.367 . S
C2409 C2411 1.433 . S
C2410 C2406 1.350 . S
C2410 C2407 1.463 . S
C2410 N2414 1.427 . S
C2411 H2401 0.929 . S
C2411 C2409 1.433 . S
C2411 N2414 1.384 . S
C2412 H2403 0.929 . S
C2412 C2404 1.378 . S
C2412 C2407 1.350 . S
C2413 H2400 0.929 . S
C2413 C2405 1.433 . S
C2413 N2415 1.384 . S
N2414 C2410 1.427 . S
N2414 C2411 1.384 . S
N2415 C2407 1.427 . S
N2415 C2413 1.384 . S
H2416 C2422 0.930 . S
H2417 C2426 0.930 . S
H2418 C2431 0.929 . S
H2419 C2429 0.929 . S
H2420 C2424 0.929 . S
H2421 C2430 0.929 . S
C2422 H2416 0.930 . S
C2422 C2423 1.367 . S
C2422 C2430 1.378 . S
C2423 C2422 1.367 . S
C2423 C2431 1.433 . S
C2424 H2420 0.929 . S
C2424 C2426 1.378 . S
C2424 C2428 1.350 . S
C2425 C2428 1.463 . S
C2425 C2430 1.350 . S
C2425 N2433 1.427 . S
C2426 H2417 0.930 . S
C2426 C2424 1.378 . S
C2426 C2427 1.367 . S
C2427 C2426 1.367 . S
C2427 C2429 1.433 . S
C2428 C2424 1.350 . S
C2428 C2425 1.463 . S
C2428 N2432 1.427 . S
C2429 H2419 0.929 . S
C2429 C2427 1.433 . S
C2429 N2432 1.384 . S
C2430 H2421 0.929 . S
C2430 C2422 1.378 . S
C2430 C2425 1.350 . S
C2431 H2418 0.929 . S
C2431 C2423 1.433 . S
C2431 N2433 1.384 . S
N2432 C2428 1.427 . S
N2432 C2429 1.384 . S
N2433 C2425 1.427 . S
N2433 C2431 1.384 . S
H2434 C2440 0.930 . S
H2435 C2444 0.930 . S
H2436 C2449 0.929 . S
H2437 C2447 0.929 . S
H2438 C2442 0.929 . S
H2439 C2448 0.929 . S
C2440 H2434 0.930 . S
C2440 C2441 1.367 . S
C2440 C2448 1.378 . S
C2441 C2440 1.367 . S
C2441 C2449 1.433 . S
C2442 H2438 0.929 . S
C2442 C2444 1.378 . S
C2442 C2446 1.350 . S
C2443 C2446 1.463 . S
C2443 C2448 1.350 . S
C2443 N2451 1.427 . S
C2444 H2435 0.930 . S
C2444 C2442 1.378 . S
C2444 C2445 1.367 . S
C2445 C2444 1.367 . S
C2445 C2447 1.433 . S
C2446 C2442 1.350 . S
C2446 C2443 1.463 . S
C2446 N2450 1.427 . S
C2447 H2437 0.929 . S
C2447 C2445 1.433 . S
C2447 N2450 1.384 . S
C2448 H2439 0.929 . S
C2448 C2440 1.378 . S
C2448 C2443 1.350 . S
C2449 H2436 0.929 . S
C2449 C2441 1.433 . S
C2449 N2451 1.384 . S
N2450 C2446 1.427 . S
N2450 C2447 1.384 . S
N2451 C2443 1.427 . S
N2451 C2449 1.384 . S
H2452 C2458 0.930 . S
H2453 C2462 0.930 . S
H2454 C2467 0.929 . S
H2455 C2465 0.929 . S
H2456 C2460 0.929 . S
H2457 C2466 0.929 . S
C2458 H2452 0.930 . S
C2458 C2459 1.367 . S
C2458 C2466 1.378 . S
C2459 C2458 1.367 . S
C2459 C2467 1.433 . S
C2460 H2456 0.929 . S
C2460 C2462 1.378 . S
C2460 C2464 1.350 . S
C2461 C2464 1.463 . S
C2461 C2466 1.350 . S
C2461 N2469 1.427 . S
C2462 H2453 0.930 . S
C2462 C2460 1.378 . S
C2462 C2463 1.367 . S
C2463 C2462 1.367 . S
C2463 C2465 1.433 . S
C2464 C2460 1.350 . S
C2464 C2461 1.463 . S
C2464 N2468 1.427 . S
C2465 H2455 0.929 . S
C2465 C2463 1.433 . S
C2465 N2468 1.384 . S
C2466 H2457 0.929 . S
C2466 C2458 1.378 . S
C2466 C2461 1.350 . S
C2467 H2454 0.929 . S
C2467 C2459 1.433 . S
C2467 N2469 1.384 . S
N2468 C2464 1.427 . S
N2468 C2465 1.384 . S
N2469 C2461 1.427 . S
N2469 C2467 1.384 . S
H2470 C2476 0.930 . S
H2471 C2480 0.930 . S
H2472 C2485 0.929 . S
H2473 C2483 0.929 . S
H2474 C2478 0.929 . S
H2475 C2484 0.929 . S
C2476 H2470 0.930 . S
C2476 C2477 1.367 . S
C2476 C2484 1.378 . S
C2477 C2476 1.367 . S
C2477 C2485 1.433 . S
C2478 H2474 0.929 . S
C2478 C2480 1.378 . S
C2478 C2482 1.350 . S
C2479 C2482 1.463 . S
C2479 C2484 1.350 . S
C2479 N2487 1.427 . S
C2480 H2471 0.930 . S
C2480 C2478 1.378 . S
C2480 C2481 1.367 . S
C2481 C2480 1.367 . S
C2481 C2483 1.433 . S
C2482 C2478 1.350 . S
C2482 C2479 1.463 . S
C2482 N2486 1.427 . S
C2483 H2473 0.929 . S
C2483 C2481 1.433 . S
C2483 N2486 1.384 . S
C2484 H2475 0.929 . S
C2484 C2476 1.378 . S
C2484 C2479 1.350 . S
C2485 H2472 0.929 . S
C2485 C2477 1.433 . S
C2485 N2487 1.384 . S
N2486 C2482 1.427 . S
N2486 C2483 1.384 . S
N2487 C2479 1.427 . S
N2487 C2485 1.384 . S
H2488 C2494 0.930 . S
H2489 C2498 0.930 . S
H2490 C2503 0.929 . S
H2491 C2501 0.929 . S
H2492 C2496 0.929 . S
H2493 C2502 0.929 . S
C2494 H2488 0.930 . S
C2494 C2495 1.367 . S
C2494 C2502 1.378 . S
C2495 C2494 1.367 . S
C2495 C2503 1.433 . S
C2496 H2492 0.929 . S
C2496 C2498 1.378 . S
C2496 C2500 1.350 . S
C2497 C2500 1.463 . S
C2497 C2502 1.350 . S
C2497 N2505 1.427 . S
C2498 H2489 0.930 . S
C2498 C2496 1.378 . S
C2498 C2499 1.367 . S
C2499 C2498 1.367 . S
C2499 C2501 1.433 . S
C2500 C2496 1.350 . S
C2500 C2497 1.463 . S
C2500 N2504 1.427 . S
C2501 H2491 0.929 . S
C2501 C2499 1.433 . S
C2501 N2504 1.384 . S
C2502 H2493 0.929 . S
C2502 C2494 1.378 . S
C2502 C2497 1.350 . S
C2503 H2490 0.929 . S
C2503 C2495 1.433 . S
C2503 N2505 1.384 . S
N2504 C2500 1.427 . S
N2504 C2501 1.384 . S
N2505 C2497 1.427 . S
N2505 C2503 1.384 . S
H2506 C2512 0.930 . S
H2507 C2516 0.930 . S
H2508 C2521 0.929 . S
H2509 C2519 0.929 . S
H2510 C2514 0.929 . S
H2511 C2520 0.929 . S
C2512 H2506 0.930 . S
C2512 C2513 1.367 . S
C2512 C2520 1.378 . S
C2513 C2512 1.367 . S
C2513 C2521 1.433 . S
C2514 H2510 0.929 . S
C2514 C2516 1.378 . S
C2514 C2518 1.350 . S
C2515 C2518 1.463 . S
C2515 C2520 1.350 . S
C2515 N2523 1.427 . S
C2516 H2507 0.930 . S
C2516 C2514 1.378 . S
C2516 C2517 1.367 . S
C2517 C2516 1.367 . S
C2517 C2519 1.433 . S
C2518 C2514 1.350 . S
C2518 C2515 1.463 . S
C2518 N2522 1.427 . S
C2519 H2509 0.929 . S
C2519 C2517 1.433 . S
C2519 N2522 1.384 . S
C2520 H2511 0.929 . S
C2520 C2512 1.378 . S
C2520 C2515 1.350 . S
C2521 H2508 0.929 . S
C2521 C2513 1.433 . S
C2521 N2523 1.384 . S
N2522 C2518 1.427 . S
N2522 C2519 1.384 . S
N2523 C2515 1.427 . S
N2523 C2521 1.384 . S
H2524 C2530 0.930 . S
H2525 C2534 0.930 . S
H2526 C2539 0.929 . S
H2527 C2537 0.929 . S
H2528 C2532 0.929 . S
H2529 C2538 0.929 . S
C2530 H2524 0.930 . S
C2530 C2531 1.367 . S
C2530 C2538 1.378 . S
C2531 C2530 1.367 . S
C2531 C2539 1.433 . S
C2532 H2528 0.929 . S
C2532 C2534 1.378 . S
C2532 C2536 1.350 . S
C2533 C2536 1.463 . S
C2533 C2538 1.350 . S
C2533 N2541 1.427 . S
C2534 H2525 0.930 . S
C2534 C2532 1.378 . S
C2534 C2535 1.367 . S
C2535 C2534 1.367 . S
C2535 C2537 1.433 . S
C2536 C2532 1.350 . S
C2536 C2533 1.463 . S
C2536 N2540 1.427 . S
C2537 H2527 0.929 . S
C2537 C2535 1.433 . S
C2537 N2540 1.384 . S
C2538 H2529 0.929 . S
C2538 C2530 1.378 . S
C2538 C2533 1.350 . S
C2539 H2526 0.929 . S
C2539 C2531 1.433 . S
C2539 N2541 1.384 . S
N2540 C2536 1.427 . S
N2540 C2537 1.384 . S
N2541 C2533 1.427 . S
N2541 C2539 1.384 . S
H2542 C2548 0.930 . S
H2543 C2552 0.930 . S
H2544 C2557 0.929 . S
H2545 C2555 0.929 . S
H2546 C2550 0.929 . S
H2547 C2556 0.929 . S
C2548 H2542 0.930 . S
C2548 C2549 1.367 . S
C2548 C2556 1.378 . S
C2549 C2548 1.367 . S
C2549 C2557 1.433 . S
C2550 H2546 0.929 . S
C2550 C2552 1.378 . S
C2550 C2554 1.350 . S
C2551 C2554 1.463 . S
C2551 C2556 1.350 . S
C2551 N2559 1.427 . S
C2552 H2543 0.930 . S
C2552 C2550 1.378 . S
C2552 C2553 1.367 . S
C2553 C2552 1.367 . S
C2553 C2555 1.433 . S
C2554 C2550 1.350 . S
C2554 C2551 1.463 . S
C2554 N2558 1.427 . S
C2555 H2545 0.929 . S
C2555 C2553 1.433 . S
C2555 N2558 1.384 . S
C2556 H2547 0.929 . S
C2556 C2548 1.378 . S
C2556 C2551 1.350 . S
C2557 H2544 0.929 . S
C2557 C2549 1.433 . S
C2557 N2559 1.384 . S
N2558 C2554 1.427 . S
N2558 C2555 1.384 . S
N2559 C2551 1.427 . S
N2559 C2557 1.384 . S
H2560 C2566 0.930 . S
H2561 C2570 0.930 . S
H2562 C2575 0.929 . S
H2563 C2573 0.929 . S
H2564 C2568 0.929 . S
H2565 C2574 0.929 . S
C2566 H2560 0.930 . S
C2566 C2567 1.367 . S
C2566 C2574 1.378 . S
C2567 C2566 1.367 . S
C2567 C2575 1.433 . S
C2568 H2564 0.929 . S
C2568 C2570 1.378 . S
C2568 C2572 1.350 . S
C2569 C2572 1.463 . S
C2569 C2574 1.350 . S
C2569 N2577 1.427 . S
C2570 H2561 0.930 . S
C2570 C2568 1.378 . S
C2570 C2571 1.367 . S
C2571 C2570 1.367 . S
C2571 C2573 1.433 . S
C2572 C2568 1.350 . S
C2572 C2569 1.463 . S
C2572 N2576 1.427 . S
C2573 H2563 0.929 . S
C2573 C2571 1.433 . S
C2573 N2576 1.384 . S
C2574 H2565 0.929 . S
C2574 C2566 1.378 . S
C2574 C2569 1.350 . S
C2575 H2562 0.929 . S
C2575 C2567 1.433 . S
C2575 N2577 1.384 . S
N2576 C2572 1.427 . S
N2576 C2573 1.384 . S
N2577 C2569 1.427 . S
N2577 C2575 1.384 . S
H2578 C2584 0.930 . S
H2579 C2588 0.930 . S
H2580 C2593 0.929 . S
H2581 C2591 0.929 . S
H2582 C2586 0.929 . S
H2583 C2592 0.929 . S
C2584 H2578 0.930 . S
C2584 C2585 1.367 . S
C2584 C2592 1.378 . S
C2585 C2584 1.367 . S
C2585 C2593 1.433 . S
C2586 H2582 0.929 . S
C2586 C2588 1.378 . S
C2586 C2590 1.350 . S
C2587 C2590 1.463 . S
C2587 C2592 1.350 . S
C2587 N2595 1.427 . S
C2588 H2579 0.930 . S
C2588 C2586 1.378 . S
C2588 C2589 1.367 . S
C2589 C2588 1.367 . S
C2589 C2591 1.433 . S
C2590 C2586 1.350 . S
C2590 C2587 1.463 . S
C2590 N2594 1.427 . S
C2591 H2581 0.929 . S
C2591 C2589 1.433 . S
C2591 N2594 1.384 . S
C2592 H2583 0.929 . S
C2592 C2584 1.378 . S
C2592 C2587 1.350 . S
C2593 H2580 0.929 . S
C2593 C2585 1.433 . S
C2593 N2595 1.384 . S
N2594 C2590 1.427 . S
N2594 C2591 1.384 . S
N2595 C2587 1.427 . S
N2595 C2593 1.384 . S
H2596 C2602 0.930 . S
H2597 C2606 0.930 . S
H2598 C2611 0.929 . S
H2599 C2609 0.929 . S
H2600 C2604 0.929 . S
H2601 C2610 0.929 . S
C2602 H2596 0.930 . S
C2602 C2603 1.367 . S
C2602 C2610 1.378 . S
C2603 C2602 1.367 . S
C2603 C2611 1.433 . S
C2604 H2600 0.929 . S
C2604 C2606 1.378 . S
C2604 C2608 1.350 . S
C2605 C2608 1.463 . S
C2605 C2610 1.350 . S
C2605 N2613 1.427 . S
C2606 H2597 0.930 . S
C2606 C2604 1.378 . S
C2606 C2607 1.367 . S
C2607 C2606 1.367 . S
C2607 C2609 1.433 . S
C2608 C2604 1.350 . S
C2608 C2605 1.463 . S
C2608 N2612 1.427 . S
C2609 H2599 0.929 . S
C2609 C2607 1.433 . S
C2609 N2612 1.384 . S
C2610 H2601 0.929 . S
C2610 C2602 1.378 . S
C2610 C2605 1.350 . S
C2611 H2598 0.929 . S
C2611 C2603 1.433 . S
C2611 N2613 1.384 . S
N2612 C2608 1.427 . S
N2612 C2609 1.384 . S
N2613 C2605 1.427 . S
N2613 C2611 1.384 . S
H2614 C2620 0.930 . S
H2615 C2624 0.930 . S
H2616 C2629 0.929 . S
H2617 C2627 0.929 . S
H2618 C2622 0.929 . S
H2619 C2628 0.929 . S
C2620 H2614 0.930 . S
C2620 C2621 1.367 . S
C2620 C2628 1.378 . S
C2621 C2620 1.367 . S
C2621 C2629 1.433 . S
C2622 H2618 0.929 . S
C2622 C2624 1.378 . S
C2622 C2626 1.350 . S
C2623 C2626 1.463 . S
C2623 C2628 1.350 . S
C2623 N2631 1.427 . S
C2624 H2615 0.930 . S
C2624 C2622 1.378 . S
C2624 C2625 1.367 . S
C2625 C2624 1.367 . S
C2625 C2627 1.433 . S
C2626 C2622 1.350 . S
C2626 C2623 1.463 . S
C2626 N2630 1.427 . S
C2627 H2617 0.929 . S
C2627 C2625 1.433 . S
C2627 N2630 1.384 . S
C2628 H2619 0.929 . S
C2628 C2620 1.378 . S
C2628 C2623 1.350 . S
C2629 H2616 0.929 . S
C2629 C2621 1.433 . S
C2629 N2631 1.384 . S
N2630 C2626 1.427 . S
N2630 C2627 1.384 . S
N2631 C2623 1.427 . S
N2631 C2629 1.384 . S
C915 N364 1.922 . S
C911 C4 1.989 . S
C933 C391 1.194 . S
C929 C21 1.184 . S
C947 C26 1.898 . S
C951 C405 1.892 . S
C969 N423 1.057 . S
C965 C43 1.072 . S
C983 C54 1.027 . S
C987 C428 1.031 . S
C1001 C60 1.905 . S
C1005 C368 1.876 . S
C1019 C76 1.031 . S
C1023 N387 1.024 . S
C1041 N400 2.055 . S
C1037 C81 2.054 . S
C1059 N446 1.660 . S
C1055 C10 1.726 . S
C1073 C15 1.346 . S
C1077 N469 1.328 . S
C1091 C27 1.723 . S
C1095 N492 1.689 . S
C1113 N525 1.362 . S
C1109 C38 1.409 . S
C1127 C49 1.361 . S
C1131 C552 1.360 . S
C1149 C575 1.809 . S
C1145 C59 1.802 . S
C1163 C71 1.243 . S
C1167 C598 1.257 . S
C1185 C612 1.756 . S
C1181 C87 1.751 . S
C1199 C5 1.775 . S
C1203 C529 1.772 . S
C1217 C48 1.347 . S
C1221 N571 1.329 . S
C1239 N594 1.622 . S
C1235 C65 1.678 . S
C1253 C70 1.327 . S
C1257 N607 1.314 . S
C1275 N548 1.733 . S
C1271 C82 1.768 . S
C1293 C474 1.868 . S
C1289 C32 1.856 . S
C1307 C37 1.302 . S
C1311 C497 1.299 . S
C1329 C451 1.386 . S
C1325 C16 1.373 . S
C1347 C644 2.024 . S
C1343 C92 2.012 . S
C1361 C109 1.125 . S
C1365 C658 1.122 . S
C1379 C114 1.860 . S
C1383 N686 1.831 . S
C1401 N699 0.982 . S
C1397 C131 0.998 . S
C1415 C142 1.082 . S
C1419 C704 1.080 . S
C1433 C148 1.825 . S
C1437 N640 1.801 . S
C1451 C164 1.122 . S
C1455 N653 1.107 . S
C1469 C169 1.955 . S
C1473 C690 1.970 . S
C1491 N538 1.708 . S
C1487 C98 1.752 . S
C1505 C103 1.295 . S
C1509 N722 1.268 . S
C1527 N584 1.655 . S
C1523 C115 1.682 . S
C1541 C126 1.380 . S
C1545 C759 1.376 . S
C1559 C137 1.510 . S
C1563 C460 1.509 . S
C1581 C773 1.887 . S
C1577 C147 1.879 . S
C1595 C159 1.335 . S
C1599 C506 1.346 . S
C1617 N791 1.669 . S
C1613 C175 1.724 . S
C1631 C93 1.747 . S
C1635 N755 1.731 . S
C1653 N768 1.294 . S
C1649 C136 1.335 . S
C1667 C153 1.678 . S
C1671 N502 1.626 . S
C1689 C796 1.213 . S
C1685 C158 1.213 . S
C1703 C170 1.748 . S
C1707 N456 1.724 . S
C1721 C120 1.766 . S
C1725 C727 1.775 . S
C1739 C125 1.346 . S
C1743 C589 1.347 . S
C1757 C104 1.350 . S
C1761 C543 1.374 . S
C1775 C180 2.039 . S
C1779 C681 2.037 . S
C1797 C713 1.114 . S
C1793 C197 1.109 . S
C1811 C202 1.850 . S
C1815 N630 1.764 . S
C1829 C219 1.036 . S
C1833 N663 1.005 . S
C1847 C230 1.057 . S
C1851 C667 1.056 . S
C1865 C236 1.962 . S
C1869 N676 1.878 . S
C1887 N709 0.996 . S
C1883 C252 0.998 . S
C1901 C257 2.094 . S
C1905 C635 2.081 . S
C1923 N824 1.721 . S
C1919 C186 1.769 . S
C1937 C191 1.267 . S
C1941 N561 1.244 . S
C1959 N847 1.577 . S
C1955 C203 1.617 . S
C1973 C214 1.417 . S
C1977 N617 1.365 . S
C1991 C225 1.390 . S
C1995 C865 1.389 . S
C2009 C235 1.897 . S
C2013 C483 1.899 . S
C2031 N883 1.211 . S
C2027 C247 1.247 . S
C2045 C263 1.778 . S
C2049 C520 1.787 . S
C2067 C621 1.813 . S
C2063 C181 1.814 . S
C2085 N479 1.342 . S
C2081 C224 1.370 . S
C2099 C241 1.779 . S
C2103 C888 1.779 . S
C2117 C246 1.239 . S
C2121 N515 1.213 . S
C2139 N860 1.736 . S
C2135 C258 1.774 . S
C2157 C566 1.763 . S
C2153 C208 1.745 . S
C2175 C851 1.346 . S
C2171 C213 1.348 . S
C2193 C828 1.352 . S
C2189 C192 1.333 . S
C2207 C268 1.958 . S
C2211 N410 1.888 . S
C2225 C285 1.099 . S
C2229 C437 1.099 . S
C2247 C359 1.902 . S
C2243 C290 1.914 . S
C2265 N377 0.954 . S
C2261 C307 0.972 . S
C2283 C382 1.153 . S
C2279 C318 1.163 . S
C2301 C414 1.813 . S
C2297 C324 1.843 . S
C2319 N433 1.152 . S
C2315 C340 1.165 . S
C2333 C345 2.017 . S
C2337 N354 2.021 . S
C2351 C274 1.681 . S
C2355 N870 1.639 . S
C2373 N778 1.226 . S
C2369 C279 1.258 . S
C2391 C897 1.831 . S
C2387 C291 1.815 . S
C2409 C805 1.189 . S
C2405 C302 1.190 . S
C2423 C313 1.508 . S
C2427 C819 1.514 . S
C2445 C736 1.826 . S
C2441 C323 1.821 . S
C2463 C842 1.430 . S
C2459 C335 1.436 . S
C2477 C351 1.755 . S
C2481 N745 1.704 . S
C2499 N801 1.672 . S
C2495 C269 1.693 . S
C2517 N732 1.265 . S
C2513 C312 1.292 . S
C2535 N837 1.588 . S
C2531 C329 1.625 . S
C2549 C334 1.286 . S
C2553 C750 1.282 . S
C2567 C346 1.766 . S
C2571 N814 1.731 . S
C2585 C296 1.890 . S
C2589 C782 1.895 . S
C2603 C301 1.305 . S
C2607 N893 1.282 . S
C2625 C874 1.349 . S
C2621 C280 1.332 . S
