# Generated by pormake.
# Topology ssa, (4,4)-cn, num edge types: 1
# Building blocks:
#     Node 0, Type 0, BuildingBlock: IZENUY_clean_linker_0, # of connection points: 4
#     Node 1, Type 0, BuildingBlock: IZENUY_clean_linker_0, # of connection points: 4
#     Node 2, Type 0, BuildingBlock: IZENUY_clean_linker_0, # of connection points: 4
#     Node 3, Type 0, BuildingBlock: IZENUY_clean_linker_0, # of connection points: 4
#     Node 4, Type 0, BuildingBlock: IZENUY_clean_linker_0, # of connection points: 4
#     Node 5, Type 0, BuildingBlock: IZENUY_clean_linker_0, # of connection points: 4
#     Node 6, Type 1, BuildingBlock: NAWXER_clean_sbu_0, # of connection points: 4
#     Node 7, Type 1, BuildingBlock: NAWXER_clean_sbu_0, # of connection points: 4
#     Node 8, Type 1, BuildingBlock: NAWXER_clean_sbu_0, # of connection points: 4
#     Node 9, Type 1, BuildingBlock: NAWXER_clean_sbu_0, # of connection points: 4
#     Node 10, Type 1, BuildingBlock: NAWXER_clean_sbu_0, # of connection points: 4
#     Node 11, Type 1, BuildingBlock: NAWXER_clean_sbu_0, # of connection points: 4
#     Edge 12, Type (0, 1), BuildingBlock: EZIPEK_clean_linker_0, # of connection points: 2
#     Edge 13, Type (0, 1), BuildingBlock: EZIPEK_clean_linker_0, # of connection points: 2
#     Edge 14, Type (0, 1), BuildingBlock: EZIPEK_clean_linker_0, # of connection points: 2
#     Edge 15, Type (0, 1), BuildingBlock: EZIPEK_clean_linker_0, # of connection points: 2
#     Edge 16, Type (0, 1), BuildingBlock: EZIPEK_clean_linker_0, # of connection points: 2
#     Edge 17, Type (0, 1), BuildingBlock: EZIPEK_clean_linker_0, # of connection points: 2
#     Edge 18, Type (0, 1), BuildingBlock: EZIPEK_clean_linker_0, # of connection points: 2
#     Edge 19, Type (0, 1), BuildingBlock: EZIPEK_clean_linker_0, # of connection points: 2
#     Edge 20, Type (0, 1), BuildingBlock: EZIPEK_clean_linker_0, # of connection points: 2
#     Edge 21, Type (0, 1), BuildingBlock: EZIPEK_clean_linker_0, # of connection points: 2
#     Edge 22, Type (0, 1), BuildingBlock: EZIPEK_clean_linker_0, # of connection points: 2
#     Edge 23, Type (0, 1), BuildingBlock: EZIPEK_clean_linker_0, # of connection points: 2
#     Edge 24, Type (0, 1), BuildingBlock: EZIPEK_clean_linker_0, # of connection points: 2
#     Edge 25, Type (0, 1), BuildingBlock: EZIPEK_clean_linker_0, # of connection points: 2
#     Edge 26, Type (0, 1), BuildingBlock: EZIPEK_clean_linker_0, # of connection points: 2
#     Edge 27, Type (0, 1), BuildingBlock: EZIPEK_clean_linker_0, # of connection points: 2
#     Edge 28, Type (0, 1), BuildingBlock: EZIPEK_clean_linker_0, # of connection points: 2
#     Edge 29, Type (0, 1), BuildingBlock: EZIPEK_clean_linker_0, # of connection points: 2
#     Edge 30, Type (0, 1), BuildingBlock: EZIPEK_clean_linker_0, # of connection points: 2
#     Edge 31, Type (0, 1), BuildingBlock: EZIPEK_clean_linker_0, # of connection points: 2
#     Edge 32, Type (0, 1), BuildingBlock: EZIPEK_clean_linker_0, # of connection points: 2
#     Edge 33, Type (0, 1), BuildingBlock: EZIPEK_clean_linker_0, # of connection points: 2
#     Edge 34, Type (0, 1), BuildingBlock: EZIPEK_clean_linker_0, # of connection points: 2
#     Edge 35, Type (0, 1), BuildingBlock: EZIPEK_clean_linker_0, # of connection points: 2
# Relax obj value: 0.000
# Max RMSD: 0.033
# Mean RMSD: 0.016
data_MOF--net-ssa--node1-NAWXER_clean_sbu_0--node2-IZENUY_clean_linker_0--edge1-EZIPEK_clean_linker_0
_symmetry_space_group_name_H-M    P1
_symmetry_Int_Tables_number       1
_symmetry_cell_setting            triclinic
loop_
_symmetry_equiv_pos_as_xyz
'x, y, z'
_cell_length_a     35.679135
_cell_length_b     35.970411
_cell_length_c     30.516316
_cell_angle_alpha  90.762959
_cell_angle_beta   90.866777
_cell_angle_gamma 120.11541
loop_
_atom_site_label
_atom_site_type_symbol
_atom_site_fract_x
_atom_site_fract_y
_atom_site_fract_z
_atom_type_partial_charge
H0 H 0.96536 0.48446 0.98951 0.0
H1 H 0.98667 0.61151 0.9644 0.0
H2 H 0.90248 0.50528 0.87885 0.0
H3 H 0.03839 0.62288 0.08523 0.0
H4 H 0.06972 0.52134 0.08074 0.0
H5 H 0.13073 0.62348 0.17759 0.0
N6 N 1.00772 0.56888 1.01907 0.0
N7 N 0.0226 0.54972 0.04065 0.0
C8 C 0.95958 0.50603 0.96988 0.0
C9 C 0.93154 0.48974 0.9326 0.0
C10 C 0.97968 0.55035 0.98154 0.0
C11 C 0.97153 0.57763 0.95562 0.0
C12 C 0.94376 0.56143 0.91869 0.0
C13 C 0.92406 0.51772 0.90745 0.0
C14 C 0.05629 0.6081 0.09764 0.0
C15 C 0.08506 0.62734 0.13377 0.0
C16 C 0.05078 0.5697 0.07792 0.0
C17 C 0.07399 0.5509 0.09531 0.0
C18 C 0.10317 0.57055 0.13104 0.0
C19 C 0.10841 0.60854 0.14982 0.0
H20 H 0.6181 0.08292 0.54988 0.0
H21 H 0.49914 0.08733 0.54644 0.0
H22 H 0.60207 0.16836 0.63707 0.0
H23 H 0.47068 0.98689 0.46774 0.0
H24 H 0.5947 0.9953 0.45255 0.0
H25 H 0.48263 0.89864 0.38052 0.0
N26 N 0.5368 0.04792 0.51102 0.0
N27 N 0.55605 0.03038 0.49473 0.0
C28 C 0.59885 0.09662 0.561 0.0
C29 C 0.61528 0.12831 0.59485 0.0
C30 C 0.55661 0.08187 0.54303 0.0
C31 C 0.53184 0.09924 0.55911 0.0
C32 C 0.54824 0.13007 0.59327 0.0
C33 C 0.58991 0.14488 0.61011 0.0
C34 C 0.49063 0.97565 0.45275 0.0
C35 C 0.4714 0.94049 0.42275 0.0
C36 C 0.53541 0.99562 0.46364 0.0
C37 C 0.56045 0.98025 0.44415 0.0
C38 C 0.54164 0.9455 0.4141 0.0
C39 C 0.4972 0.92571 0.40358 0.0
H40 H 0.51373 0.43495 1.01258 0.0
H41 H 0.63405 0.552 0.98848 0.0
H42 H 0.5989 0.43617 0.91449 0.0
H43 H 0.57779 0.58376 0.08697 0.0
H44 H 0.44976 0.47215 0.09025 0.0
H45 H 0.48143 0.5847 0.16903 0.0
N46 N 0.56263 0.51939 0.0364 0.0
N47 N 0.52646 0.5026 0.05396 0.0
C48 C 0.54407 0.45226 0.99573 0.0
C49 C 0.55354 0.43093 0.96284 0.0
C50 C 0.57302 0.49626 1.00527 0.0
C51 C 0.61197 0.51806 0.98205 0.0
C52 C 0.62133 0.49611 0.94931 0.0
C53 C 0.59218 0.45279 0.94047 0.0
C54 C 0.54515 0.56742 0.09922 0.0
C55 C 0.533 0.58882 0.12959 0.0
C56 C 0.51519 0.52516 0.08485 0.0
C57 C 0.47292 0.50467 0.1012 0.0
C58 C 0.4604 0.52604 0.13147 0.0
C59 C 0.49075 0.56805 0.1456 0.0
H60 H 0.02822 0.42054 0.45443 0.0
H61 H 0.06316 0.55402 0.46719 0.0
H62 H 0.12201 0.5141 0.36945 0.0
H63 H 0.95719 0.48286 0.5527 0.0
H64 H 0.9842 0.38023 0.57567 0.0
H65 H 0.90158 0.39983 0.66213 0.0
N66 N 1.01517 0.4775 0.50246 0.0
N67 N 1.00114 0.44319 0.52257 0.0
C68 C 0.04675 0.45355 0.44416 0.0
C69 C 0.07544 0.46363 0.40934 0.0
C70 C 0.04243 0.48629 0.46569 0.0
C71 C 0.06642 0.52878 0.45113 0.0
C72 C 0.09543 0.53888 0.41659 0.0
C73 C 0.09964 0.50623 0.39612 0.0
C74 C 0.95333 0.4561 0.57189 0.0
C75 C 0.92682 0.44389 0.60898 0.0
C76 C 0.97433 0.43304 0.55977 0.0
C77 C 0.96846 0.39817 0.58491 0.0
C78 C 0.94247 0.38636 0.62185 0.0
C79 C 0.92195 0.40929 0.63364 0.0
H80 H 0.45958 0.0228 0.95871 0.0
H81 H 0.58976 0.04406 0.96529 0.0
H82 H 0.55938 0.12148 0.88224 0.0
H83 H 0.52492 0.94197 0.04067 0.0
H84 H 0.40105 0.9353 0.05306 0.0
H85 H 0.43276 0.85679 0.13229 0.0
N86 N 0.51174 0.99547 0.99569 0.0
N87 N 0.47464 0.97467 1.01075 0.0
C88 C 0.49289 0.03981 0.94838 0.0
C89 C 0.50594 0.07336 0.91849 0.0
C90 C 0.52317 0.02886 0.96514 0.0
C91 C 0.56633 0.05198 0.95202 0.0
C92 C 0.57952 0.0851 0.92185 0.0
C93 C 0.54915 0.0955 0.9051 0.0
C94 C 0.49314 0.92807 0.05478 0.0
C95 C 0.48159 0.89709 0.08737 0.0
C96 C 0.46373 0.94179 0.04182 0.0
C97 C 0.42321 0.92409 0.06175 0.0
C98 C 0.41232 0.89361 0.09452 0.0
C99 C 0.44114 0.87986 0.10633 0.0
H100 H 0.41862 0.47897 0.49817 0.0
H101 H 0.54446 0.59122 0.47968 0.0
H102 H 0.43379 0.57181 0.40301 0.0
H103 H 0.56655 0.52255 0.57092 0.0
H104 H 0.43926 0.41337 0.58953 0.0
H105 H 0.54887 0.4268 0.66409 0.0
N106 N 0.50337 0.51924 0.52518 0.0
N107 N 0.48173 0.4848 0.54479 0.0
C108 C 0.43938 0.5089 0.48209 0.0
C109 C 0.42157 0.52286 0.44938 0.0
C110 C 0.48406 0.53334 0.49315 0.0
C111 C 0.51017 0.57219 0.47152 0.0
C112 C 0.4918 0.58611 0.43909 0.0
C113 C 0.44781 0.56123 0.42834 0.0
C114 C 0.54526 0.49286 0.58714 0.0
C115 C 0.56269 0.47759 0.61902 0.0
C116 C 0.50052 0.47001 0.57664 0.0
C117 C 0.4736 0.43131 0.59782 0.0
C118 C 0.49088 0.41541 0.62922 0.0
C119 C 0.53537 0.43889 0.63985 0.0
C120 C 0.28316 0.48468 0.33981 0.0
C121 C 0.21266 0.5191 0.22164 0.0
O122 O 0.26221 0.45363 0.31214 0.0
Zn123 Zn 0.22524 0.44084 0.25191 0.0
O124 O 0.28738 0.52126 0.33186 0.0
Zn125 Zn 0.25394 0.50527 0.27774 0.0
O126 O 0.19251 0.46026 0.30278 0.0
O127 O 0.16862 0.39573 0.27241 0.0
O128 O 0.24033 0.54515 0.24979 0.0
O129 O 0.20487 0.48028 0.21876 0.0
O130 O 0.2597 0.42939 0.20975 0.0
O131 O 0.29511 0.49658 0.23432 0.0
C132 C 0.16358 0.42054 0.2989 0.0
C133 C 0.29374 0.4663 0.21062 0.0
C134 C 0.86578 0.27171 0.74977 0.0
C135 C 0.74753 0.19316 0.8504 0.0
O136 O 0.83851 0.28487 0.75146 0.0
Zn137 Zn 0.78182 0.27222 0.78567 0.0
O138 O 0.86252 0.24243 0.77509 0.0
Zn139 Zn 0.81062 0.23492 0.80378 0.0
O140 O 0.76527 0.20993 0.74822 0.0
O141 O 0.74172 0.25534 0.73598 0.0
O142 O 0.78121 0.18991 0.84654 0.0
O143 O 0.74468 0.22263 0.8302 0.0
O144 O 0.79952 0.32584 0.81762 0.0
O145 O 0.83615 0.29505 0.8404 0.0
C146 C 0.74193 0.22101 0.72572 0.0
C147 C 0.82889 0.32655 0.84223 0.0
C148 C 0.60169 0.85291 0.31709 0.0
C149 C 0.60276 0.74848 0.21314 0.0
O150 O 0.63551 0.85383 0.30289 0.0
Zn151 Zn 0.60536 0.80247 0.26464 0.0
O152 O 0.56411 0.82282 0.3045 0.0
Zn153 Zn 0.53566 0.7677 0.26238 0.0
O154 O 0.5043 0.72159 0.30255 0.0
O155 O 0.57543 0.75142 0.31079 0.0
O156 O 0.56509 0.7413 0.22304 0.0
O157 O 0.63648 0.78136 0.2291 0.0
O158 O 0.57622 0.82328 0.21564 0.0
O159 O 0.50506 0.78188 0.21908 0.0
C160 C 0.53705 0.72323 0.32164 0.0
C161 C 0.53798 0.81266 0.20169 0.0
C162 C 0.85973 0.59406 0.7897 0.0
C163 C 0.73596 0.54689 0.68825 0.0
O164 O 0.8336 0.55343 0.78822 0.0
Zn165 Zn 0.77613 0.50697 0.75411 0.0
O166 O 0.85404 0.61855 0.76407 0.0
Zn167 Zn 0.80168 0.57214 0.73531 0.0
O168 O 0.75882 0.55228 0.79056 0.0
O169 O 0.73847 0.48445 0.80377 0.0
O170 O 0.76878 0.58451 0.69195 0.0
O171 O 0.73556 0.51599 0.70893 0.0
O172 O 0.79461 0.47169 0.72291 0.0
O173 O 0.82776 0.53825 0.6996 0.0
C174 C 0.73763 0.51858 0.8134 0.0
C175 C 0.8222 0.50013 0.69828 0.0
C176 C 0.29463 0.80457 0.22693 0.0
C177 C 0.21151 0.70114 0.33795 0.0
O178 O 0.2729 0.81667 0.25024 0.0
Zn179 Zn 0.2309 0.79369 0.30567 0.0
O180 O 0.29511 0.77034 0.23584 0.0
Zn181 Zn 0.25819 0.75544 0.28543 0.0
O182 O 0.1999 0.74263 0.2519 0.0
O183 O 0.17739 0.78585 0.27731 0.0
O184 O 0.24054 0.70166 0.31401 0.0
O185 O 0.20512 0.73318 0.33827 0.0
O186 O 0.26406 0.83917 0.35037 0.0
O187 O 0.29873 0.80547 0.33116 0.0
C188 C 0.17256 0.7557 0.25118 0.0
C189 C 0.29774 0.83559 0.35294 0.0
C190 C 0.49573 0.29113 0.84838 0.0
C191 C 0.50002 0.21122 0.72123 0.0
O192 O 0.52921 0.29559 0.82952 0.0
Zn193 Zn 0.49986 0.2519 0.78494 0.0
O194 O 0.4578 0.26272 0.83439 0.0
Zn195 Zn 0.42995 0.21469 0.7832 0.0
O196 O 0.40221 0.16086 0.81644 0.0
O197 O 0.47368 0.19509 0.82153 0.0
O198 O 0.46139 0.1987 0.73351 0.0
O199 O 0.53244 0.24148 0.74192 0.0
O200 O 0.46951 0.27757 0.74536 0.0
O201 O 0.39838 0.23596 0.74704 0.0
C202 C 0.43698 0.16309 0.83102 0.0
C203 C 0.43164 0.26936 0.73324 0.0
C204 C 0.11737 0.53465 0.19348 0.0
C205 C 0.1281 0.55169 0.15088 0.0
C206 C 0.19215 0.54295 0.15271 0.0
C207 C 0.18417 0.53095 0.19715 0.0
N208 N 0.14166 0.51917 0.2618 0.0
N209 N 0.17784 0.5765 0.09118 0.0
C210 C 0.14741 0.52781 0.21809 0.0
C211 C 0.1659 0.5567 0.13059 0.0
N212 N 0.07794 0.52428 0.20997 0.0
N213 N 0.22468 0.54098 0.13164 0.0
H214 H 0.15916 0.58639 0.07371 0.0
H215 H 0.20756 0.58569 0.07711 0.0
H216 H 0.24543 0.53253 0.14735 0.0
H217 H 0.22922 0.54477 0.09802 0.0
H218 H 0.06621 0.50785 0.23897 0.0
H219 H 0.05505 0.52855 0.19254 0.0
H220 H 0.11844 0.52139 0.2801 0.0
H221 H 0.16218 0.51277 0.28083 0.0
C222 C 0.65461 0.12438 0.66016 0.0
C223 C 0.657 0.14325 0.61921 0.0
C224 C 0.72291 0.20872 0.645 0.0
C225 C 0.71473 0.1931 0.68835 0.0
N226 N 0.67079 0.13677 0.73806 0.0
N227 N 0.69423 0.20199 0.57067 0.0
C228 C 0.68062 0.15069 0.6961 0.0
C229 C 0.6921 0.18476 0.61077 0.0
N230 N 0.62591 0.08164 0.66485 0.0
N231 N 0.76015 0.24616 0.63663 0.0
H232 H 0.67307 0.18404 0.54477 0.0
H233 H 0.7156 0.23399 0.56359 0.0
H234 H 0.78324 0.26434 0.66104 0.0
H235 H 0.76988 0.25737 0.60519 0.0
H236 H 0.62468 0.06485 0.69284 0.0
H237 H 0.60633 0.06223 0.63873 0.0
H238 H 0.64351 0.10793 0.74606 0.0
H239 H 0.68774 0.15582 0.76541 0.0
C240 C 0.5879 0.64061 0.18473 0.0
C241 C 0.56415 0.63356 0.14478 0.0
C242 C 0.58874 0.71045 0.14169 0.0
C243 C 0.60459 0.71553 0.18535 0.0
N244 N 0.62487 0.68856 0.24742 0.0
N245 N 0.54434 0.66128 0.08265 0.0
C246 C 0.60698 0.68176 0.2061 0.0
C247 C 0.56612 0.66859 0.12194 0.0
N248 N 0.5913 0.60765 0.20235 0.0
N249 N 0.59469 0.7459 0.11997 0.0
H250 H 0.52858 0.63119 0.0668 0.0
H251 H 0.54042 0.68438 0.06636 0.0
H252 H 0.61138 0.77661 0.13454 0.0
H253 H 0.5865 0.74566 0.08707 0.0
H254 H 0.61041 0.61096 0.22984 0.0
H255 H 0.57713 0.57715 0.18745 0.0
H256 H 0.62348 0.66447 0.26699 0.0
H257 H 0.64044 0.7189 0.26274 0.0
C258 C 0.85868 0.44845 0.61121 0.0
C259 C 0.90304 0.46602 0.62359 0.0
C260 C 0.8949 0.50763 0.68337 0.0
C261 C 0.85058 0.49037 0.67085 0.0
N262 N 0.7923 0.45126 0.61814 0.0
N263 N 0.96577 0.51889 0.66462 0.0
C264 C 0.83311 0.46293 0.63319 0.0
C265 C 0.92191 0.49801 0.65733 0.0
N266 N 0.84063 0.41659 0.57962 0.0
N267 N 0.91053 0.53101 0.7217 0.0
H268 H 0.98617 0.51211 0.64629 0.0
H269 H 0.98233 0.54539 0.68584 0.0
H270 H 0.89174 0.53835 0.74193 0.0
H271 H 0.94095 0.54024 0.73538 0.0
H272 H 0.80748 0.3985 0.57273 0.0
H273 H 0.8589 0.40684 0.5615 0.0
H274 H 0.77907 0.43487 0.58848 0.0
H275 H 0.77271 0.46095 0.63382 0.0
C276 C 0.33755 0.83639 0.11237 0.0
C277 C 0.37321 0.87806 0.12123 0.0
C278 C 0.35434 0.87356 0.19832 0.0
C279 C 0.31956 0.8311 0.18999 0.0
N280 N 0.27047 0.77664 0.13795 0.0
N281 N 0.40788 0.94127 0.1679 0.0
C282 C 0.30861 0.81395 0.14651 0.0
C283 C 0.37851 0.89845 0.16264 0.0
N284 N 0.3329 0.81764 0.07193 0.0
N285 N 0.36637 0.88892 0.24047 0.0
H286 H 0.42624 0.95987 0.14205 0.0
H287 H 0.41091 0.95905 0.19629 0.0
H288 H 0.3505 0.87109 0.26768 0.0
H289 H 0.39428 0.91783 0.2488 0.0
H290 H 0.3109 0.78542 0.06465 0.0
H291 H 0.35259 0.83442 0.04595 0.0
H292 H 0.25879 0.76454 0.10642 0.0
H293 H 0.24856 0.75961 0.16234 0.0
C294 C 0.44529 0.3728 0.6923 0.0
C295 C 0.46308 0.3735 0.65075 0.0
C296 C 0.44245 0.29762 0.65757 0.0
C297 C 0.42903 0.29854 0.70087 0.0
N298 N 0.4042 0.33033 0.75398 0.0
N299 N 0.47053 0.33517 0.58936 0.0
C300 C 0.42581 0.33402 0.71629 0.0
C301 C 0.45853 0.33514 0.63172 0.0
N302 N 0.44905 0.4098 0.7096 0.0
N303 N 0.44108 0.26106 0.64222 0.0
H304 H 0.48282 0.36233 0.57003 0.0
H305 H 0.46643 0.30815 0.57225 0.0
H306 H 0.42751 0.23287 0.66011 0.0
H307 H 0.45321 0.25822 0.6124 0.0
H308 H 0.44141 0.41303 0.74168 0.0
H309 H 0.46168 0.43819 0.69217 0.0
H310 H 0.39761 0.35363 0.76591 0.0
H311 H 0.38962 0.30189 0.77144 0.0
C312 C 0.58747 0.94471 0.35271 0.0
C313 C 0.56832 0.92903 0.39387 0.0
C314 C 0.59042 0.87455 0.39102 0.0
C315 C 0.60364 0.88623 0.34753 0.0
N316 N 0.62796 0.93912 0.29181 0.0
N317 N 0.55368 0.88157 0.45434 0.0
C318 C 0.60667 0.92381 0.33005 0.0
C319 C 0.57128 0.89523 0.41413 0.0
N320 N 0.58501 0.97796 0.33443 0.0
N321 N 0.59676 0.84385 0.40986 0.0
H322 H 0.54053 0.89684 0.47255 0.0
H323 H 0.55062 0.85441 0.46929 0.0
H324 H 0.61164 0.82935 0.39318 0.0
H325 H 0.59065 0.83504 0.44242 0.0
H326 H 0.59404 0.98825 0.30264 0.0
H327 H 0.57226 0.99464 0.35079 0.0
H328 H 0.63419 0.96791 0.27807 0.0
H329 H 0.64226 0.92404 0.27521 0.0
C330 C 0.65214 0.52825 0.87798 0.0
C331 C 0.65925 0.51698 0.92028 0.0
C332 C 0.72374 0.51628 0.89427 0.0
C333 C 0.71181 0.51981 0.85056 0.0
N334 N 0.66245 0.5256 0.79998 0.0
N335 N 0.7016 0.50061 0.96989 0.0
C336 C 0.67584 0.52564 0.8422 0.0
C337 C 0.69553 0.51183 0.92893 0.0
N338 N 0.62173 0.5403 0.87207 0.0
N339 N 0.76225 0.51781 0.90262 0.0
H340 H 0.68267 0.49935 0.99621 0.0
H341 H 0.724 0.491 0.97737 0.0
H342 H 0.7835 0.52088 0.87797 0.0
H343 H 0.7748 0.51954 0.93409 0.0
H344 H 0.61732 0.55249 0.8429 0.0
H345 H 0.6038 0.54203 0.89792 0.0
H346 H 0.6338 0.52514 0.79169 0.0
H347 H 0.67797 0.52213 0.77288 0.0
C348 C 0.11182 0.59243 0.3579 0.0
C349 C 0.12177 0.58337 0.40021 0.0
C350 C 0.18789 0.65444 0.40421 0.0
C351 C 0.1805 0.66106 0.35996 0.0
N352 N 0.13812 0.63459 0.29254 0.0
N353 N 0.17115 0.60348 0.46243 0.0
C354 C 0.14308 0.62962 0.33623 0.0
C355 C 0.16013 0.61396 0.4233 0.0
N356 N 0.07208 0.56556 0.33874 0.0
N357 N 0.22136 0.68691 0.42795 0.0
H358 H 0.15139 0.57451 0.47775 0.0
H359 H 0.20105 0.62219 0.4784 0.0
H360 H 0.24306 0.71629 0.4144 0.0
H361 H 0.22583 0.68596 0.46162 0.0
H362 H 0.06107 0.57237 0.30984 0.0
H363 H 0.04837 0.53817 0.35394 0.0
H364 H 0.11429 0.61061 0.27225 0.0
H365 H 0.15989 0.66161 0.27553 0.0
C366 C 0.47422 0.1218 0.9241 0.0
C367 C 0.47542 0.08739 0.90202 0.0
C368 C 0.43297 0.09199 0.84012 0.0
C369 C 0.43744 0.13006 0.85946 0.0
N370 N 0.44999 0.17427 0.92356 0.0
N371 N 0.45331 0.03664 0.84149 0.0
C372 C 0.45395 0.14249 0.90294 0.0
C373 C 0.45307 0.07092 0.86111 0.0
N374 N 0.4947 0.13608 0.96414 0.0
N375 N 0.40989 0.07661 0.80155 0.0
H376 H 0.46653 0.01993 0.85684 0.0
H377 H 0.44145 0.02507 0.80993 0.0
H378 H 0.39499 0.09171 0.78613 0.0
H379 H 0.40307 0.04789 0.78607 0.0
H380 H 0.49927 0.16368 0.98041 0.0
H381 H 0.50848 0.12065 0.98102 0.0
H382 H 0.45885 0.18398 0.95614 0.0
H383 H 0.43454 0.18903 0.90843 0.0
C384 C 0.34863 0.51577 0.44537 0.0
C385 C 0.37541 0.49828 0.43522 0.0
C386 C 0.32354 0.45254 0.37795 0.0
C387 C 0.30468 0.47912 0.37957 0.0
N388 N 0.28501 0.52101 0.42546 0.0
N389 N 0.38777 0.44809 0.39369 0.0
C390 C 0.31263 0.506 0.41704 0.0
C391 C 0.36211 0.46523 0.40282 0.0
N392 N 0.35955 0.54349 0.48056 0.0
N393 N 0.30396 0.41459 0.35456 0.0
H394 H 0.41556 0.45555 0.41222 0.0
H395 H 0.3827 0.42831 0.36634 0.0
H396 H 0.27282 0.40132 0.34097 0.0
H397 H 0.31543 0.39307 0.35458 0.0
H398 H 0.34384 0.56029 0.48863 0.0
H399 H 0.38498 0.54947 0.50227 0.0
H400 H 0.28797 0.5405 0.45228 0.0
H401 H 0.25669 0.51097 0.40668 0.0
C402 C 0.86566 0.41547 0.93024 0.0
C403 C 0.9091 0.44356 0.91799 0.0
C404 C 0.90069 0.39371 0.85781 0.0
C405 C 0.85729 0.36538 0.87014 0.0
N406 N 0.80108 0.34474 0.92281 0.0
N407 N 0.97104 0.45547 0.87707 0.0
C408 C 0.84062 0.37485 0.90795 0.0
C409 C 0.92762 0.43112 0.88416 0.0
N410 N 0.84786 0.42854 0.96196 0.0
N411 N 0.91532 0.38635 0.81935 0.0
H412 H 0.99134 0.4832 0.89566 0.0
H413 H 0.98758 0.44622 0.85578 0.0
H414 H 0.89655 0.35967 0.79889 0.0
H415 H 0.94468 0.40832 0.80581 0.0
H416 H 0.815 0.41231 0.96884 0.0
H417 H 0.86592 0.45705 0.98024 0.0
H418 H 0.78873 0.34767 0.95251 0.0
H419 H 0.78188 0.31502 0.9069 0.0
C420 C 0.89904 0.59575 0.90167 0.0
C421 C 0.93383 0.58915 0.89089 0.0
C422 C 0.93307 0.61212 0.81579 0.0
C423 C 0.89363 0.61063 0.82459 0.0
N424 N 0.84646 0.61562 0.87617 0.0
N425 N 0.98849 0.59623 0.84292 0.0
C426 C 0.87961 0.60802 0.86808 0.0
C427 C 0.95306 0.60038 0.84944 0.0
N428 N 0.88284 0.58711 0.94292 0.0
N429 N 0.94963 0.62303 0.77488 0.0
H430 H 1.00455 0.60152 0.81344 0.0
H431 H 1.00455 0.60152 0.81344 0.0
H432 H 0.9345 0.63165 0.75076 0.0
H433 H 0.97873 0.62584 0.76527 0.0
H434 H 0.85516 0.58751 0.95234 0.0
H435 H 0.89707 0.57872 0.9681 0.0
H436 H 0.83485 0.6159 0.90714 0.0
H437 H 0.8324 0.6246 0.85126 0.0
C438 C 0.3953 0.87914 0.43193 0.0
C439 C 0.42398 0.91813 0.41124 0.0
C440 C 0.36419 0.90905 0.36247 0.0
C441 C 0.33754 0.86701 0.37851 0.0
N442 N 0.32628 0.8121 0.42944 0.0
N443 N 0.43694 0.97019 0.35606 0.0
C444 C 0.35263 0.85231 0.41388 0.0
C445 C 0.40855 0.93345 0.37676 0.0
N446 N 0.40898 0.86807 0.46904 0.0
N447 N 0.34728 0.9255 0.3332 0.0
H448 H 0.46921 0.98948 0.36641 0.0
H449 H 0.42945 0.98033 0.32713 0.0
H450 H 0.31554 0.90821 0.32087 0.0
H451 H 0.36349 0.95735 0.32356 0.0
H452 H 0.38886 0.84216 0.48821 0.0
H453 H 0.44007 0.88694 0.48274 0.0
H454 H 0.33655 0.79681 0.4512 0.0
H455 H 0.2939 0.79326 0.41926 0.0
C456 C 0.49466 0.38186 0.9119 0.0
C457 C 0.52271 0.38657 0.94734 0.0
C458 C 0.51996 0.31963 0.92503 0.0
C459 C 0.50029 0.32066 0.88468 0.0
N460 N 0.46977 0.35331 0.8384 0.0
N461 N 0.55865 0.35877 0.99169 0.0
C462 C 0.48676 0.35121 0.87812 0.0
C463 C 0.53335 0.35432 0.95573 0.0
N464 N 0.47724 0.40804 0.90985 0.0
N465 N 0.52593 0.28574 0.9336 0.0
H466 H 0.56696 0.38312 1.01533 0.0
H467 H 0.57222 0.33952 0.99751 0.0
H468 H 0.51686 0.26026 0.91126 0.0
H469 H 0.53685 0.2812 0.96377 0.0
H470 H 0.4537 0.40404 0.88668 0.0
H471 H 0.48321 0.43107 0.93423 0.0
H472 H 0.46408 0.37804 0.83002 0.0
H473 H 0.46459 0.33222 0.81227 0.0
C474 C 0.06712 0.42145 0.34088 0.0
C475 C 0.08169 0.43091 0.38527 0.0
C476 C 0.13198 0.40457 0.37205 0.0
C477 C 0.12523 0.40595 0.32649 0.0
N478 N 0.08337 0.4099 0.26646 0.0
N479 N 0.12423 0.42709 0.44515 0.0
C480 C 0.09075 0.41118 0.31064 0.0
C481 C 0.11204 0.41977 0.40182 0.0
N482 N 0.03187 0.42425 0.32781 0.0
N483 N 0.15935 0.39079 0.38615 0.0
H484 H 0.10933 0.43717 0.46772 0.0
H485 H 0.14975 0.42444 0.45858 0.0
H486 H 0.17432 0.3802 0.36408 0.0
H487 H 0.16437 0.38649 0.41893 0.0
H488 H 0.01779 0.41568 0.29649 0.0
H489 H 1.0146 0.43199 0.3499 0.0
H490 H 0.06239 0.41857 0.25188 0.0
H491 H 0.09969 0.4011 0.24424 0.0
C492 C 0.64187 0.09228 0.87758 0.0
C493 C 0.62568 0.11018 0.90863 0.0
C494 C 0.69576 0.17761 0.91092 0.0
C495 C 0.70966 0.1619 0.8756 0.0
N496 N 0.6972 0.10443 0.82508 0.0
N497 N 0.63665 0.16902 0.95624 0.0
C498 C 0.68346 0.11891 0.8595 0.0
C499 C 0.65267 0.15254 0.926 0.0
N500 N 0.61718 0.04993 0.86498 0.0
N501 N 0.72443 0.21629 0.93052 0.0
H502 H 0.60636 0.15076 0.97015 0.0
H503 H 0.65235 0.20117 0.96636 0.0
H504 H 0.75642 0.23464 0.92061 0.0
H505 H 0.71813 0.22856 0.95873 0.0
H506 H 0.62862 0.03334 0.84654 0.0
H507 H 0.58555 0.0302 0.87516 0.0
H508 H 0.6778 0.07559 0.80799 0.0
H509 H 0.72766 0.12241 0.81158 0.0
C510 C 0.52784 0.62244 0.37086 0.0
C511 C 0.51683 0.62628 0.41441 0.0
C512 C 0.52679 0.69749 0.399 0.0
C513 C 0.53137 0.69059 0.35399 0.0
N514 N 0.53384 0.64585 0.29583 0.0
N515 N 0.5062 0.66678 0.4712 0.0
C516 C 0.53183 0.65311 0.33962 0.0
C517 C 0.51726 0.66408 0.42907 0.0
N518 N 0.53382 0.58892 0.35957 0.0
N519 N 0.5313 0.73587 0.41276 0.0
H520 H 0.50114 0.6437 0.49433 0.0
H521 H 0.50057 0.69079 0.48292 0.0
H522 H 0.5359 0.75991 0.39112 0.0
H523 H 0.53293 0.74496 0.44556 0.0
H524 H 0.5454 0.58582 0.32945 0.0
H525 H 0.53092 0.56612 0.38215 0.0
H526 H 0.52968 0.61715 0.28263 0.0
H527 H 0.53672 0.66756 0.27199 0.0
C528 C 0.53239 0.18842 0.61058 0.0
C529 C 0.52198 0.14524 0.61603 0.0
C530 C 0.49472 0.14472 0.68897 0.0
C531 C 0.50626 0.18835 0.68426 0.0
N532 N 0.5277 0.24951 0.63835 0.0
N533 N 0.48242 0.07864 0.65373 0.0
C534 C 0.52232 0.20951 0.64418 0.0
C535 C 0.49897 0.12208 0.65288 0.0
N536 N 0.55394 0.20958 0.57416 0.0
N537 N 0.4828 0.1259 0.72888 0.0
H538 H 0.48565 0.06136 0.62782 0.0
H539 H 0.46195 0.05923 0.67792 0.0
H540 H 0.4807 0.14189 0.75664 0.0
H541 H 0.47879 0.09584 0.73566 0.0
H542 H 0.56744 0.24251 0.57016 0.0
H543 H 0.55944 0.19384 0.54819 0.0
H544 H 0.53539 0.26507 0.60854 0.0
H545 H 0.52156 0.26616 0.6628 0.0
C546 C 0.38079 0.50297 0.12439 0.0
C547 C 0.41565 0.50465 0.14931 0.0
C548 C 0.36876 0.47646 0.21298 0.0
C549 C 0.33377 0.47433 0.18795 0.0
N550 N 0.30359 0.47813 0.11829 0.0
N551 N 0.44098 0.48543 0.21396 0.0
C552 C 0.33887 0.48502 0.14302 0.0
C553 C 0.40898 0.489 0.19262 0.0
N554 N 0.38834 0.52047 0.08373 0.0
N555 N 0.36383 0.46761 0.25666 0.0
H556 H 0.47081 0.49444 0.20004 0.0
H557 H 0.43696 0.47041 0.24383 0.0
H558 H 0.33422 0.45582 0.27205 0.0
H559 H 0.38932 0.47386 0.27823 0.0
H560 H 0.36591 0.52486 0.06573 0.0
H561 H 0.4183 0.53328 0.06884 0.0
H562 H 0.30385 0.4812 0.08443 0.0
H563 H 0.27285 0.46602 0.13131 0.0
C564 C 0.89915 0.30807 0.63815 0.0
C565 C 0.935 0.34928 0.64879 0.0
C566 C 0.93769 0.32736 0.72389 0.0
C567 C 0.89794 0.28923 0.71492 0.0
N568 N 0.84891 0.23598 0.66286 0.0
N569 N 0.99584 0.39472 0.69633 0.0
C570 C 0.88188 0.27696 0.67139 0.0
C571 C 0.9572 0.35746 0.68988 0.0
N572 N 0.87993 0.30009 0.59739 0.0
N573 N 0.95492 0.33536 0.76552 0.0
H574 H 1.01033 0.41672 0.6714 0.0
H575 H 1.01473 0.40284 0.72496 0.0
H576 H 0.94106 0.31266 0.78999 0.0
H577 H 0.98226 0.36379 0.77602 0.0
H578 H 0.85092 0.27248 0.58865 0.0
H579 H 0.89275 0.32202 0.57218 0.0
H580 H 0.83656 0.22352 0.63161 0.0
H581 H 0.83621 0.21331 0.6875 0.0
C582 C 0.50537 0.84289 0.09455 0.0
C583 C 0.51151 0.88384 0.10647 0.0
C584 C 0.54018 0.88034 0.17863 0.0
C585 C 0.53236 0.83852 0.16758 0.0
N586 N 0.51771 0.78412 0.11238 0.0
N587 N 0.54621 0.94681 0.15335 0.0
C588 C 0.51841 0.82118 0.12448 0.0
C589 C 0.5334 0.90448 0.14623 0.0
N590 N 0.48482 0.82401 0.05559 0.0
N591 N 0.55095 0.89568 0.22089 0.0
H592 H 0.54103 0.96479 0.12998 0.0
H593 H 0.56546 0.96498 0.18011 0.0
H594 H 0.55515 0.87848 0.24581 0.0
H595 H 0.55229 0.92378 0.23214 0.0
H596 H 0.47437 0.79216 0.0468 0.0
H597 H 0.47698 0.84035 0.0325 0.0
H598 H 0.51155 0.7717 0.08041 0.0
H599 H 0.52656 0.76737 0.1339 0.0
C600 C 0.62689 0.53714 0.6604 0.0
C601 C 0.60996 0.5015 0.63048 0.0
C602 C 0.68132 0.50685 0.62826 0.0
C603 C 0.69622 0.53792 0.66298 0.0
N604 N 0.68384 0.583 0.71297 0.0
N605 N 0.6203 0.45236 0.58481 0.0
C606 C 0.66953 0.55391 0.67865 0.0
C607 C 0.63716 0.48663 0.61372 0.0
N608 N 0.60192 0.55457 0.67177 0.0
N609 N 0.70993 0.49737 0.60887 0.0
H610 H 0.58887 0.43837 0.57157 0.0
H611 H 0.63656 0.43644 0.57533 0.0
H612 H 0.7426 0.5125 0.61848 0.0
H613 H 0.7026 0.4777 0.58103 0.0
H614 H 0.61369 0.58341 0.68938 0.0
H615 H 0.56985 0.5418 0.66095 0.0
H616 H 0.66422 0.59179 0.72981 0.0
H617 H 0.71496 0.59669 0.72678 0.0
C618 C 0.12581 0.70754 0.14293 0.0
C619 C 0.09208 0.66721 0.15671 0.0
C620 C 0.0985 0.69626 0.23127 0.0
C621 C 0.13618 0.73422 0.2189 0.0
N622 N 0.17755 0.78232 0.16252 0.0
N623 N 0.03719 0.62677 0.20855 0.0
C624 C 0.14647 0.74212 0.17418 0.0
C625 C 0.07491 0.66319 0.19908 0.0
N626 N 0.14009 0.71146 0.10106 0.0
N627 N 0.08774 0.69073 0.27439 0.0
H628 H 0.02002 0.60241 0.185 0.0
H629 H 0.0213 0.62214 0.23802 0.0
H630 H 0.10411 0.71533 0.29789 0.0
H631 H 0.06375 0.66201 0.28705 0.0
H632 H 0.16768 0.73831 0.0899 0.0
H633 H 0.12446 0.68684 0.07747 0.0
H634 H 0.18569 0.79156 0.1303 0.0
H635 H 0.1929 0.80747 0.18568 0.0
loop_
_geom_bond_atom_site_label_1
_geom_bond_atom_site_label_2
_geom_bond_distance
_geom_bond_site_symmetry_2
_ccdc_geom_bond_type
H0 C8 0.940 . S
H1 C11 0.940 . S
H2 C13 0.940 . S
H3 C14 0.940 . S
H4 C17 0.940 . S
H5 C19 0.940 . S
N6 N7 1.190 . S
N6 C10 1.477 1_554 S
N7 N6 1.190 . S
N7 C16 1.477 1_655 S
C8 H0 0.940 . S
C8 C9 1.390 . S
C8 C10 1.322 . S
C9 C8 1.390 . S
C9 C13 1.370 . S
C10 N6 1.477 1_556 S
C10 C8 1.322 . S
C10 C11 1.447 . S
C11 H1 0.940 . S
C11 C10 1.447 . S
C11 C12 1.373 . S
C12 C11 1.373 . S
C12 C13 1.417 . S
C13 H2 0.940 . S
C13 C9 1.370 . S
C13 C12 1.417 . S
C14 H3 0.940 . S
C14 C15 1.390 . S
C14 C16 1.322 . S
C15 C14 1.390 . S
C15 C19 1.370 . S
C16 N7 1.477 1_455 S
C16 C14 1.322 . S
C16 C17 1.447 . S
C17 H4 0.940 . S
C17 C16 1.447 . S
C17 C18 1.373 . S
C18 C17 1.373 . S
C18 C19 1.417 . S
C19 H5 0.940 . S
C19 C15 1.370 . S
C19 C18 1.417 . S
H20 C28 0.940 . S
H21 C31 0.940 . S
H22 C33 0.940 . S
H23 C34 0.940 . S
H24 C37 0.940 . S
H25 C39 0.940 . S
N26 N27 1.190 . S
N26 C30 1.477 . S
N27 N26 1.190 . S
N27 C36 1.477 1_545 S
C28 H20 0.940 . S
C28 C29 1.390 . S
C28 C30 1.322 . S
C29 C28 1.390 . S
C29 C33 1.370 . S
C30 N26 1.477 . S
C30 C28 1.322 . S
C30 C31 1.447 . S
C31 H21 0.940 . S
C31 C30 1.447 . S
C31 C32 1.373 . S
C32 C31 1.373 . S
C32 C33 1.417 . S
C33 H22 0.940 . S
C33 C29 1.370 . S
C33 C32 1.417 . S
C34 H23 0.940 . S
C34 C35 1.390 . S
C34 C36 1.322 . S
C35 C34 1.390 . S
C35 C39 1.370 . S
C36 N27 1.477 1_565 S
C36 C34 1.322 . S
C36 C37 1.447 . S
C37 H24 0.940 . S
C37 C36 1.447 . S
C37 C38 1.373 . S
C38 C37 1.373 . S
C38 C39 1.417 . S
C39 H25 0.940 . S
C39 C35 1.370 . S
C39 C38 1.417 . S
H40 C48 0.940 . S
H41 C51 0.940 . S
H42 C53 0.940 . S
H43 C54 0.940 . S
H44 C57 0.940 . S
H45 C59 0.940 . S
N46 N47 1.190 . S
N46 C50 1.477 . S
N47 N46 1.190 . S
N47 C56 1.477 1_556 S
C48 H40 0.940 . S
C48 C49 1.390 . S
C48 C50 1.322 . S
C49 C48 1.390 . S
C49 C53 1.370 . S
C50 N46 1.477 . S
C50 C48 1.322 . S
C50 C51 1.447 . S
C51 H41 0.940 . S
C51 C50 1.447 . S
C51 C52 1.373 . S
C52 C51 1.373 . S
C52 C53 1.417 . S
C53 H42 0.940 . S
C53 C49 1.370 . S
C53 C52 1.417 . S
C54 H43 0.940 . S
C54 C55 1.390 . S
C54 C56 1.322 . S
C55 C54 1.390 . S
C55 C59 1.370 . S
C56 N47 1.477 1_554 S
C56 C54 1.322 . S
C56 C57 1.447 . S
C57 H44 0.940 . S
C57 C56 1.447 . S
C57 C58 1.373 . S
C58 C57 1.373 . S
C58 C59 1.417 . S
C59 H45 0.940 . S
C59 C55 1.370 . S
C59 C58 1.417 . S
H60 C68 0.940 . S
H61 C71 0.940 . S
H62 C73 0.940 . S
H63 C74 0.940 . S
H64 C77 0.940 . S
H65 C79 0.940 . S
N66 N67 1.190 . S
N66 C70 1.477 1_655 S
N67 N66 1.190 . S
N67 C76 1.477 . S
C68 H60 0.940 . S
C68 C69 1.390 . S
C68 C70 1.322 . S
C69 C68 1.390 . S
C69 C73 1.370 . S
C70 N66 1.477 1_455 S
C70 C68 1.322 . S
C70 C71 1.447 . S
C71 H61 0.940 . S
C71 C70 1.447 . S
C71 C72 1.373 . S
C72 C71 1.373 . S
C72 C73 1.417 . S
C73 H62 0.940 . S
C73 C69 1.370 . S
C73 C72 1.417 . S
C74 H63 0.940 . S
C74 C75 1.390 . S
C74 C76 1.322 . S
C75 C74 1.390 . S
C75 C79 1.370 . S
C76 N67 1.477 . S
C76 C74 1.322 . S
C76 C77 1.447 . S
C77 H64 0.940 . S
C77 C76 1.447 . S
C77 C78 1.373 . S
C78 C77 1.373 . S
C78 C79 1.417 . S
C79 H65 0.940 . S
C79 C75 1.370 . S
C79 C78 1.417 . S
H80 C88 0.940 . S
H81 C91 0.940 . S
H82 C93 0.940 . S
H83 C94 0.940 . S
H84 C97 0.940 . S
H85 C99 0.940 . S
N86 N87 1.190 . S
N86 C90 1.477 1_554 S
N87 N86 1.190 . S
N87 C96 1.477 1_545 S
C88 H80 0.940 . S
C88 C89 1.390 . S
C88 C90 1.322 . S
C89 C88 1.390 . S
C89 C93 1.370 . S
C90 N86 1.477 1_556 S
C90 C88 1.322 . S
C90 C91 1.447 . S
C91 H81 0.940 . S
C91 C90 1.447 . S
C91 C92 1.373 . S
C92 C91 1.373 . S
C92 C93 1.417 . S
C93 H82 0.940 . S
C93 C89 1.370 . S
C93 C92 1.417 . S
C94 H83 0.940 . S
C94 C95 1.390 . S
C94 C96 1.322 . S
C95 C94 1.390 . S
C95 C99 1.370 . S
C96 N87 1.477 1_565 S
C96 C94 1.322 . S
C96 C97 1.447 . S
C97 H84 0.940 . S
C97 C96 1.447 . S
C97 C98 1.373 . S
C98 C97 1.373 . S
C98 C99 1.417 . S
C99 H85 0.940 . S
C99 C95 1.370 . S
C99 C98 1.417 . S
H100 C108 0.940 . S
H101 C111 0.940 . S
H102 C113 0.940 . S
H103 C114 0.940 . S
H104 C117 0.940 . S
H105 C119 0.940 . S
N106 N107 1.190 . S
N106 C110 1.477 . S
N107 N106 1.190 . S
N107 C116 1.477 . S
C108 H100 0.940 . S
C108 C109 1.390 . S
C108 C110 1.322 . S
C109 C108 1.390 . S
C109 C113 1.370 . S
C110 N106 1.477 . S
C110 C108 1.322 . S
C110 C111 1.447 . S
C111 H101 0.940 . S
C111 C110 1.447 . S
C111 C112 1.373 . S
C112 C111 1.373 . S
C112 C113 1.417 . S
C113 H102 0.940 . S
C113 C109 1.370 . S
C113 C112 1.417 . S
C114 H103 0.940 . S
C114 C115 1.390 . S
C114 C116 1.322 . S
C115 C114 1.390 . S
C115 C119 1.370 . S
C116 N107 1.477 . S
C116 C114 1.322 . S
C116 C117 1.447 . S
C117 H104 0.940 . S
C117 C116 1.447 . S
C117 C118 1.373 . S
C118 C117 1.373 . S
C118 C119 1.417 . S
C119 H105 0.940 . S
C119 C115 1.370 . S
C119 C118 1.417 . S
C120 O122 1.247 . S
C120 O124 1.258 . S
C121 O128 1.247 . S
C121 O129 1.258 . S
O122 C120 1.247 . S
O122 Zn123 2.028 . S
Zn123 O122 2.028 . S
Zn123 O127 2.035 . S
Zn123 O129 2.035 . S
Zn123 O130 2.028 . S
O124 C120 1.258 . S
O124 Zn125 2.035 . S
Zn125 O124 2.035 . S
Zn125 O126 2.028 . S
Zn125 O128 2.028 . S
Zn125 O131 2.035 . S
O126 Zn125 2.028 . S
O126 C132 1.247 . S
O127 Zn123 2.035 . S
O127 C132 1.258 . S
O128 C121 1.247 . S
O128 Zn125 2.028 . S
O129 C121 1.258 . S
O129 Zn123 2.035 . S
O130 Zn123 2.028 . S
O130 C133 1.247 . S
O131 Zn125 2.035 . S
O131 C133 1.258 . S
C132 O126 1.247 . S
C132 O127 1.258 . S
C133 O130 1.247 . S
C133 O131 1.258 . S
C134 O136 1.247 . S
C134 O138 1.258 . S
C135 O142 1.247 . S
C135 O143 1.258 . S
O136 C134 1.247 . S
O136 Zn137 2.028 . S
Zn137 O136 2.028 . S
Zn137 O141 2.035 . S
Zn137 O143 2.035 . S
Zn137 O144 2.028 . S
O138 C134 1.258 . S
O138 Zn139 2.035 . S
Zn139 O138 2.035 . S
Zn139 O140 2.028 . S
Zn139 O142 2.028 . S
Zn139 O145 2.035 . S
O140 Zn139 2.028 . S
O140 C146 1.247 . S
O141 Zn137 2.035 . S
O141 C146 1.258 . S
O142 C135 1.247 . S
O142 Zn139 2.028 . S
O143 C135 1.258 . S
O143 Zn137 2.035 . S
O144 Zn137 2.028 . S
O144 C147 1.247 . S
O145 Zn139 2.035 . S
O145 C147 1.258 . S
C146 O140 1.247 . S
C146 O141 1.258 . S
C147 O144 1.247 . S
C147 O145 1.258 . S
C148 O150 1.247 . S
C148 O152 1.258 . S
C149 O156 1.247 . S
C149 O157 1.258 . S
O150 C148 1.247 . S
O150 Zn151 2.028 . S
Zn151 O150 2.028 . S
Zn151 O155 2.035 . S
Zn151 O157 2.035 . S
Zn151 O158 2.028 . S
O152 C148 1.258 . S
O152 Zn153 2.035 . S
Zn153 O152 2.035 . S
Zn153 O154 2.028 . S
Zn153 O156 2.028 . S
Zn153 O159 2.035 . S
O154 Zn153 2.028 . S
O154 C160 1.247 . S
O155 Zn151 2.035 . S
O155 C160 1.258 . S
O156 C149 1.247 . S
O156 Zn153 2.028 . S
O157 C149 1.258 . S
O157 Zn151 2.035 . S
O158 Zn151 2.028 . S
O158 C161 1.247 . S
O159 Zn153 2.035 . S
O159 C161 1.258 . S
C160 O154 1.247 . S
C160 O155 1.258 . S
C161 O158 1.247 . S
C161 O159 1.258 . S
C162 O164 1.247 . S
C162 O166 1.258 . S
C163 O170 1.247 . S
C163 O171 1.258 . S
O164 C162 1.247 . S
O164 Zn165 2.028 . S
Zn165 O164 2.028 . S
Zn165 O169 2.035 . S
Zn165 O171 2.035 . S
Zn165 O172 2.028 . S
O166 C162 1.258 . S
O166 Zn167 2.035 . S
Zn167 O166 2.035 . S
Zn167 O168 2.028 . S
Zn167 O170 2.028 . S
Zn167 O173 2.035 . S
O168 Zn167 2.028 . S
O168 C174 1.247 . S
O169 Zn165 2.035 . S
O169 C174 1.258 . S
O170 C163 1.247 . S
O170 Zn167 2.028 . S
O171 C163 1.258 . S
O171 Zn165 2.035 . S
O172 Zn165 2.028 . S
O172 C175 1.247 . S
O173 Zn167 2.035 . S
O173 C175 1.258 . S
C174 O168 1.247 . S
C174 O169 1.258 . S
C175 O172 1.247 . S
C175 O173 1.258 . S
C176 O178 1.247 . S
C176 O180 1.258 . S
C177 O184 1.247 . S
C177 O185 1.258 . S
O178 C176 1.247 . S
O178 Zn179 2.028 . S
Zn179 O178 2.028 . S
Zn179 O183 2.035 . S
Zn179 O185 2.035 . S
Zn179 O186 2.028 . S
O180 C176 1.258 . S
O180 Zn181 2.035 . S
Zn181 O180 2.035 . S
Zn181 O182 2.028 . S
Zn181 O184 2.028 . S
Zn181 O187 2.035 . S
O182 Zn181 2.028 . S
O182 C188 1.247 . S
O183 Zn179 2.035 . S
O183 C188 1.258 . S
O184 C177 1.247 . S
O184 Zn181 2.028 . S
O185 C177 1.258 . S
O185 Zn179 2.035 . S
O186 Zn179 2.028 . S
O186 C189 1.247 . S
O187 Zn181 2.035 . S
O187 C189 1.258 . S
C188 O182 1.247 . S
C188 O183 1.258 . S
C189 O186 1.247 . S
C189 O187 1.258 . S
C190 O192 1.247 . S
C190 O194 1.258 . S
C191 O198 1.247 . S
C191 O199 1.258 . S
O192 C190 1.247 . S
O192 Zn193 2.028 . S
Zn193 O192 2.028 . S
Zn193 O197 2.035 . S
Zn193 O199 2.035 . S
Zn193 O200 2.028 . S
O194 C190 1.258 . S
O194 Zn195 2.035 . S
Zn195 O194 2.035 . S
Zn195 O196 2.028 . S
Zn195 O198 2.028 . S
Zn195 O201 2.035 . S
O196 Zn195 2.028 . S
O196 C202 1.247 . S
O197 Zn193 2.035 . S
O197 C202 1.258 . S
O198 C191 1.247 . S
O198 Zn195 2.028 . S
O199 C191 1.258 . S
O199 Zn193 2.035 . S
O200 Zn193 2.028 . S
O200 C203 1.247 . S
O201 Zn195 2.035 . S
O201 C203 1.258 . S
C202 O196 1.247 . S
C202 O197 1.258 . S
C203 O200 1.247 . S
C203 O201 1.258 . S
C204 C205 1.363 . S
C204 C210 1.379 . S
C204 N212 1.356 . S
C205 C204 1.363 . S
C205 C211 1.363 . S
C206 C207 1.363 . S
C206 C211 1.379 . S
C206 N213 1.356 . S
C207 C206 1.363 . S
C207 C210 1.363 . S
N208 C210 1.356 . S
N208 H220 0.984 . S
N208 H221 0.985 . S
N209 C211 1.356 . S
N209 H214 0.984 . S
N209 H215 0.985 . S
C210 C204 1.379 . S
C210 C207 1.363 . S
C210 N208 1.356 . S
C211 C205 1.363 . S
C211 C206 1.379 . S
C211 N209 1.356 . S
N212 C204 1.356 . S
N212 H218 0.984 . S
N212 H219 0.984 . S
N213 C206 1.356 . S
N213 H216 0.984 . S
N213 H217 0.985 . S
H214 N209 0.984 . S
H215 N209 0.985 . S
H216 N213 0.984 . S
H217 N213 0.985 . S
H218 N212 0.984 . S
H219 N212 0.984 . S
H220 N208 0.984 . S
H221 N208 0.985 . S
C222 C223 1.363 . S
C222 C228 1.379 . S
C222 N230 1.356 . S
C223 C222 1.363 . S
C223 C229 1.363 . S
C224 C225 1.363 . S
C224 C229 1.379 . S
C224 N231 1.356 . S
C225 C224 1.363 . S
C225 C228 1.363 . S
N226 C228 1.356 . S
N226 H238 0.984 . S
N226 H239 0.985 . S
N227 C229 1.356 . S
N227 H232 0.984 . S
N227 H233 0.985 . S
C228 C222 1.379 . S
C228 C225 1.363 . S
C228 N226 1.356 . S
C229 C223 1.363 . S
C229 C224 1.379 . S
C229 N227 1.356 . S
N230 C222 1.356 . S
N230 H236 0.984 . S
N230 H237 0.984 . S
N231 C224 1.356 . S
N231 H234 0.984 . S
N231 H235 0.985 . S
H232 N227 0.984 . S
H233 N227 0.985 . S
H234 N231 0.984 . S
H235 N231 0.985 . S
H236 N230 0.984 . S
H237 N230 0.984 . S
H238 N226 0.984 . S
H239 N226 0.985 . S
C240 C241 1.363 . S
C240 C246 1.379 . S
C240 N248 1.356 . S
C241 C240 1.363 . S
C241 C247 1.363 . S
C242 C243 1.363 . S
C242 C247 1.379 . S
C242 N249 1.356 . S
C243 C242 1.363 . S
C243 C246 1.363 . S
N244 C246 1.356 . S
N244 H256 0.984 . S
N244 H257 0.985 . S
N245 C247 1.356 . S
N245 H250 0.984 . S
N245 H251 0.985 . S
C246 C240 1.379 . S
C246 C243 1.363 . S
C246 N244 1.356 . S
C247 C241 1.363 . S
C247 C242 1.379 . S
C247 N245 1.356 . S
N248 C240 1.356 . S
N248 H254 0.984 . S
N248 H255 0.984 . S
N249 C242 1.356 . S
N249 H252 0.984 . S
N249 H253 0.985 . S
H250 N245 0.984 . S
H251 N245 0.985 . S
H252 N249 0.984 . S
H253 N249 0.985 . S
H254 N248 0.984 . S
H255 N248 0.984 . S
H256 N244 0.984 . S
H257 N244 0.985 . S
C258 C259 1.363 . S
C258 C264 1.379 . S
C258 N266 1.356 . S
C259 C258 1.363 . S
C259 C265 1.363 . S
C260 C261 1.363 . S
C260 C265 1.379 . S
C260 N267 1.356 . S
C261 C260 1.363 . S
C261 C264 1.363 . S
N262 C264 1.356 . S
N262 H274 0.984 . S
N262 H275 0.985 . S
N263 C265 1.356 . S
N263 H268 0.984 . S
N263 H269 0.985 . S
C264 C258 1.379 . S
C264 C261 1.363 . S
C264 N262 1.356 . S
C265 C259 1.363 . S
C265 C260 1.379 . S
C265 N263 1.356 . S
N266 C258 1.356 . S
N266 H272 0.984 . S
N266 H273 0.984 . S
N267 C260 1.356 . S
N267 H270 0.984 . S
N267 H271 0.985 . S
H268 N263 0.984 . S
H269 N263 0.985 . S
H270 N267 0.984 . S
H271 N267 0.985 . S
H272 N266 0.984 . S
H273 N266 0.984 . S
H274 N262 0.984 . S
H275 N262 0.985 . S
C276 C277 1.363 . S
C276 C282 1.379 . S
C276 N284 1.356 . S
C277 C276 1.363 . S
C277 C283 1.363 . S
C278 C279 1.363 . S
C278 C283 1.379 . S
C278 N285 1.356 . S
C279 C278 1.363 . S
C279 C282 1.363 . S
N280 C282 1.356 . S
N280 H292 0.984 . S
N280 H293 0.985 . S
N281 C283 1.356 . S
N281 H286 0.984 . S
N281 H287 0.985 . S
C282 C276 1.379 . S
C282 C279 1.363 . S
C282 N280 1.356 . S
C283 C277 1.363 . S
C283 C278 1.379 . S
C283 N281 1.356 . S
N284 C276 1.356 . S
N284 H290 0.984 . S
N284 H291 0.984 . S
N285 C278 1.356 . S
N285 H288 0.984 . S
N285 H289 0.985 . S
H286 N281 0.984 . S
H287 N281 0.985 . S
H288 N285 0.984 . S
H289 N285 0.985 . S
H290 N284 0.984 . S
H291 N284 0.984 . S
H292 N280 0.984 . S
H293 N280 0.985 . S
C294 C295 1.363 . S
C294 C300 1.379 . S
C294 N302 1.356 . S
C295 C294 1.363 . S
C295 C301 1.363 . S
C296 C297 1.363 . S
C296 C301 1.379 . S
C296 N303 1.356 . S
C297 C296 1.363 . S
C297 C300 1.363 . S
N298 C300 1.356 . S
N298 H310 0.984 . S
N298 H311 0.985 . S
N299 C301 1.356 . S
N299 H304 0.984 . S
N299 H305 0.985 . S
C300 C294 1.379 . S
C300 C297 1.363 . S
C300 N298 1.356 . S
C301 C295 1.363 . S
C301 C296 1.379 . S
C301 N299 1.356 . S
N302 C294 1.356 . S
N302 H308 0.984 . S
N302 H309 0.984 . S
N303 C296 1.356 . S
N303 H306 0.984 . S
N303 H307 0.985 . S
H304 N299 0.984 . S
H305 N299 0.985 . S
H306 N303 0.984 . S
H307 N303 0.985 . S
H308 N302 0.984 . S
H309 N302 0.984 . S
H310 N298 0.984 . S
H311 N298 0.985 . S
C312 C313 1.363 . S
C312 C318 1.379 . S
C312 N320 1.356 . S
C313 C312 1.363 . S
C313 C319 1.363 . S
C314 C315 1.363 . S
C314 C319 1.379 . S
C314 N321 1.356 . S
C315 C314 1.363 . S
C315 C318 1.363 . S
N316 C318 1.356 . S
N316 H328 0.984 . S
N316 H329 0.985 . S
N317 C319 1.356 . S
N317 H322 0.984 . S
N317 H323 0.985 . S
C318 C312 1.379 . S
C318 C315 1.363 . S
C318 N316 1.356 . S
C319 C313 1.363 . S
C319 C314 1.379 . S
C319 N317 1.356 . S
N320 C312 1.356 . S
N320 H326 0.984 . S
N320 H327 0.984 . S
N321 C314 1.356 . S
N321 H324 0.984 . S
N321 H325 0.985 . S
H322 N317 0.984 . S
H323 N317 0.985 . S
H324 N321 0.984 . S
H325 N321 0.985 . S
H326 N320 0.984 . S
H327 N320 0.984 . S
H328 N316 0.984 . S
H329 N316 0.985 . S
C330 C331 1.363 . S
C330 C336 1.379 . S
C330 N338 1.356 . S
C331 C330 1.363 . S
C331 C337 1.363 . S
C332 C333 1.363 . S
C332 C337 1.379 . S
C332 N339 1.356 . S
C333 C332 1.363 . S
C333 C336 1.363 . S
N334 C336 1.356 . S
N334 H346 0.984 . S
N334 H347 0.985 . S
N335 C337 1.356 . S
N335 H340 0.984 . S
N335 H341 0.985 . S
C336 C330 1.379 . S
C336 C333 1.363 . S
C336 N334 1.356 . S
C337 C331 1.363 . S
C337 C332 1.379 . S
C337 N335 1.356 . S
N338 C330 1.356 . S
N338 H344 0.984 . S
N338 H345 0.984 . S
N339 C332 1.356 . S
N339 H342 0.984 . S
N339 H343 0.985 . S
H340 N335 0.984 . S
H341 N335 0.985 . S
H342 N339 0.984 . S
H343 N339 0.985 . S
H344 N338 0.984 . S
H345 N338 0.984 . S
H346 N334 0.984 . S
H347 N334 0.985 . S
C348 C349 1.363 . S
C348 C354 1.379 . S
C348 N356 1.356 . S
C349 C348 1.363 . S
C349 C355 1.363 . S
C350 C351 1.363 . S
C350 C355 1.379 . S
C350 N357 1.356 . S
C351 C350 1.363 . S
C351 C354 1.363 . S
N352 C354 1.356 . S
N352 H364 0.984 . S
N352 H365 0.985 . S
N353 C355 1.356 . S
N353 H358 0.984 . S
N353 H359 0.985 . S
C354 C348 1.379 . S
C354 C351 1.363 . S
C354 N352 1.356 . S
C355 C349 1.363 . S
C355 C350 1.379 . S
C355 N353 1.356 . S
N356 C348 1.356 . S
N356 H362 0.984 . S
N356 H363 0.984 . S
N357 C350 1.356 . S
N357 H360 0.984 . S
N357 H361 0.985 . S
H358 N353 0.984 . S
H359 N353 0.985 . S
H360 N357 0.984 . S
H361 N357 0.985 . S
H362 N356 0.984 . S
H363 N356 0.984 . S
H364 N352 0.984 . S
H365 N352 0.985 . S
C366 C367 1.363 . S
C366 C372 1.379 . S
C366 N374 1.356 . S
C367 C366 1.363 . S
C367 C373 1.363 . S
C368 C369 1.363 . S
C368 C373 1.379 . S
C368 N375 1.356 . S
C369 C368 1.363 . S
C369 C372 1.363 . S
N370 C372 1.356 . S
N370 H382 0.984 . S
N370 H383 0.985 . S
N371 C373 1.356 . S
N371 H376 0.984 . S
N371 H377 0.985 . S
C372 C366 1.379 . S
C372 C369 1.363 . S
C372 N370 1.356 . S
C373 C367 1.363 . S
C373 C368 1.379 . S
C373 N371 1.356 . S
N374 C366 1.356 . S
N374 H380 0.984 . S
N374 H381 0.984 . S
N375 C368 1.356 . S
N375 H378 0.984 . S
N375 H379 0.985 . S
H376 N371 0.984 . S
H377 N371 0.985 . S
H378 N375 0.984 . S
H379 N375 0.985 . S
H380 N374 0.984 . S
H381 N374 0.984 . S
H382 N370 0.984 . S
H383 N370 0.985 . S
C384 C385 1.363 . S
C384 C390 1.379 . S
C384 N392 1.356 . S
C385 C384 1.363 . S
C385 C391 1.363 . S
C386 C387 1.363 . S
C386 C391 1.379 . S
C386 N393 1.356 . S
C387 C386 1.363 . S
C387 C390 1.363 . S
N388 C390 1.356 . S
N388 H400 0.984 . S
N388 H401 0.985 . S
N389 C391 1.356 . S
N389 H394 0.984 . S
N389 H395 0.985 . S
C390 C384 1.379 . S
C390 C387 1.363 . S
C390 N388 1.356 . S
C391 C385 1.363 . S
C391 C386 1.379 . S
C391 N389 1.356 . S
N392 C384 1.356 . S
N392 H398 0.984 . S
N392 H399 0.984 . S
N393 C386 1.356 . S
N393 H396 0.984 . S
N393 H397 0.985 . S
H394 N389 0.984 . S
H395 N389 0.985 . S
H396 N393 0.984 . S
H397 N393 0.985 . S
H398 N392 0.984 . S
H399 N392 0.984 . S
H400 N388 0.984 . S
H401 N388 0.985 . S
C402 C403 1.363 . S
C402 C408 1.379 . S
C402 N410 1.356 . S
C403 C402 1.363 . S
C403 C409 1.363 . S
C404 C405 1.363 . S
C404 C409 1.379 . S
C404 N411 1.356 . S
C405 C404 1.363 . S
C405 C408 1.363 . S
N406 C408 1.356 . S
N406 H418 0.984 . S
N406 H419 0.985 . S
N407 C409 1.356 . S
N407 H412 0.984 . S
N407 H413 0.985 . S
C408 C402 1.379 . S
C408 C405 1.363 . S
C408 N406 1.356 . S
C409 C403 1.363 . S
C409 C404 1.379 . S
C409 N407 1.356 . S
N410 C402 1.356 . S
N410 H416 0.984 . S
N410 H417 0.984 . S
N411 C404 1.356 . S
N411 H414 0.984 . S
N411 H415 0.985 . S
H412 N407 0.984 . S
H413 N407 0.985 . S
H414 N411 0.984 . S
H415 N411 0.985 . S
H416 N410 0.984 . S
H417 N410 0.984 . S
H418 N406 0.984 . S
H419 N406 0.985 . S
C420 C421 1.363 . S
C420 C426 1.379 . S
C420 N428 1.356 . S
C421 C420 1.363 . S
C421 C427 1.363 . S
C422 C423 1.363 . S
C422 C427 1.379 . S
C422 N429 1.356 . S
C423 C422 1.363 . S
C423 C426 1.363 . S
N424 C426 1.356 . S
N424 H436 0.984 . S
N424 H437 0.985 . S
N425 C427 1.356 . S
N425 H430 0.984 . S
N425 H431 0.985 . S
C426 C420 1.379 . S
C426 C423 1.363 . S
C426 N424 1.356 . S
C427 C421 1.363 . S
C427 C422 1.379 . S
C427 N425 1.356 . S
N428 C420 1.356 . S
N428 H434 0.984 . S
N428 H435 0.984 . S
N429 C422 1.356 . S
N429 H432 0.984 . S
N429 H433 0.985 . S
H430 N425 0.984 . S
H431 N425 0.985 . S
H432 N429 0.984 . S
H433 N429 0.985 . S
H434 N428 0.984 . S
H435 N428 0.984 . S
H436 N424 0.984 . S
H437 N424 0.985 . S
C438 C439 1.363 . S
C438 C444 1.379 . S
C438 N446 1.356 . S
C439 C438 1.363 . S
C439 C445 1.363 . S
C440 C441 1.363 . S
C440 C445 1.379 . S
C440 N447 1.356 . S
C441 C440 1.363 . S
C441 C444 1.363 . S
N442 C444 1.356 . S
N442 H454 0.984 . S
N442 H455 0.985 . S
N443 C445 1.356 . S
N443 H448 0.984 . S
N443 H449 0.985 . S
C444 C438 1.379 . S
C444 C441 1.363 . S
C444 N442 1.356 . S
C445 C439 1.363 . S
C445 C440 1.379 . S
C445 N443 1.356 . S
N446 C438 1.356 . S
N446 H452 0.984 . S
N446 H453 0.984 . S
N447 C440 1.356 . S
N447 H450 0.984 . S
N447 H451 0.985 . S
H448 N443 0.984 . S
H449 N443 0.985 . S
H450 N447 0.984 . S
H451 N447 0.985 . S
H452 N446 0.984 . S
H453 N446 0.984 . S
H454 N442 0.984 . S
H455 N442 0.985 . S
C456 C457 1.363 . S
C456 C462 1.379 . S
C456 N464 1.356 . S
C457 C456 1.363 . S
C457 C463 1.363 . S
C458 C459 1.363 . S
C458 C463 1.379 . S
C458 N465 1.356 . S
C459 C458 1.363 . S
C459 C462 1.363 . S
N460 C462 1.356 . S
N460 H472 0.984 . S
N460 H473 0.985 . S
N461 C463 1.356 . S
N461 H466 0.984 . S
N461 H467 0.985 . S
C462 C456 1.379 . S
C462 C459 1.363 . S
C462 N460 1.356 . S
C463 C457 1.363 . S
C463 C458 1.379 . S
C463 N461 1.356 . S
N464 C456 1.356 . S
N464 H470 0.984 . S
N464 H471 0.984 . S
N465 C458 1.356 . S
N465 H468 0.984 . S
N465 H469 0.985 . S
H466 N461 0.984 . S
H467 N461 0.985 . S
H468 N465 0.984 . S
H469 N465 0.985 . S
H470 N464 0.984 . S
H471 N464 0.984 . S
H472 N460 0.984 . S
H473 N460 0.985 . S
C474 C475 1.363 . S
C474 C480 1.379 . S
C474 N482 1.356 . S
C475 C474 1.363 . S
C475 C481 1.363 . S
C476 C477 1.363 . S
C476 C481 1.379 . S
C476 N483 1.356 . S
C477 C476 1.363 . S
C477 C480 1.363 . S
N478 C480 1.356 . S
N478 H490 0.984 . S
N478 H491 0.985 . S
N479 C481 1.356 . S
N479 H484 0.984 . S
N479 H485 0.985 . S
C480 C474 1.379 . S
C480 C477 1.363 . S
C480 N478 1.356 . S
C481 C475 1.363 . S
C481 C476 1.379 . S
C481 N479 1.356 . S
N482 C474 1.356 . S
N482 H488 0.984 . S
N482 H489 0.984 . S
N483 C476 1.356 . S
N483 H486 0.984 . S
N483 H487 0.985 . S
H484 N479 0.984 . S
H485 N479 0.985 . S
H486 N483 0.984 . S
H487 N483 0.985 . S
H488 N482 0.984 . S
H489 N482 0.984 . S
H490 N478 0.984 . S
H491 N478 0.985 . S
C492 C493 1.363 . S
C492 C498 1.379 . S
C492 N500 1.356 . S
C493 C492 1.363 . S
C493 C499 1.363 . S
C494 C495 1.363 . S
C494 C499 1.379 . S
C494 N501 1.356 . S
C495 C494 1.363 . S
C495 C498 1.363 . S
N496 C498 1.356 . S
N496 H508 0.984 . S
N496 H509 0.985 . S
N497 C499 1.356 . S
N497 H502 0.984 . S
N497 H503 0.985 . S
C498 C492 1.379 . S
C498 C495 1.363 . S
C498 N496 1.356 . S
C499 C493 1.363 . S
C499 C494 1.379 . S
C499 N497 1.356 . S
N500 C492 1.356 . S
N500 H506 0.984 . S
N500 H507 0.984 . S
N501 C494 1.356 . S
N501 H504 0.984 . S
N501 H505 0.985 . S
H502 N497 0.984 . S
H503 N497 0.985 . S
H504 N501 0.984 . S
H505 N501 0.985 . S
H506 N500 0.984 . S
H507 N500 0.984 . S
H508 N496 0.984 . S
H509 N496 0.985 . S
C510 C511 1.363 . S
C510 C516 1.379 . S
C510 N518 1.356 . S
C511 C510 1.363 . S
C511 C517 1.363 . S
C512 C513 1.363 . S
C512 C517 1.379 . S
C512 N519 1.356 . S
C513 C512 1.363 . S
C513 C516 1.363 . S
N514 C516 1.356 . S
N514 H526 0.984 . S
N514 H527 0.985 . S
N515 C517 1.356 . S
N515 H520 0.984 . S
N515 H521 0.985 . S
C516 C510 1.379 . S
C516 C513 1.363 . S
C516 N514 1.356 . S
C517 C511 1.363 . S
C517 C512 1.379 . S
C517 N515 1.356 . S
N518 C510 1.356 . S
N518 H524 0.984 . S
N518 H525 0.984 . S
N519 C512 1.356 . S
N519 H522 0.984 . S
N519 H523 0.985 . S
H520 N515 0.984 . S
H521 N515 0.985 . S
H522 N519 0.984 . S
H523 N519 0.985 . S
H524 N518 0.984 . S
H525 N518 0.984 . S
H526 N514 0.984 . S
H527 N514 0.985 . S
C528 C529 1.363 . S
C528 C534 1.379 . S
C528 N536 1.356 . S
C529 C528 1.363 . S
C529 C535 1.363 . S
C530 C531 1.363 . S
C530 C535 1.379 . S
C530 N537 1.356 . S
C531 C530 1.363 . S
C531 C534 1.363 . S
N532 C534 1.356 . S
N532 H544 0.984 . S
N532 H545 0.985 . S
N533 C535 1.356 . S
N533 H538 0.984 . S
N533 H539 0.985 . S
C534 C528 1.379 . S
C534 C531 1.363 . S
C534 N532 1.356 . S
C535 C529 1.363 . S
C535 C530 1.379 . S
C535 N533 1.356 . S
N536 C528 1.356 . S
N536 H542 0.984 . S
N536 H543 0.984 . S
N537 C530 1.356 . S
N537 H540 0.984 . S
N537 H541 0.985 . S
H538 N533 0.984 . S
H539 N533 0.985 . S
H540 N537 0.984 . S
H541 N537 0.985 . S
H542 N536 0.984 . S
H543 N536 0.984 . S
H544 N532 0.984 . S
H545 N532 0.985 . S
C546 C547 1.363 . S
C546 C552 1.379 . S
C546 N554 1.356 . S
C547 C546 1.363 . S
C547 C553 1.363 . S
C548 C549 1.363 . S
C548 C553 1.379 . S
C548 N555 1.356 . S
C549 C548 1.363 . S
C549 C552 1.363 . S
N550 C552 1.356 . S
N550 H562 0.984 . S
N550 H563 0.985 . S
N551 C553 1.356 . S
N551 H556 0.984 . S
N551 H557 0.985 . S
C552 C546 1.379 . S
C552 C549 1.363 . S
C552 N550 1.356 . S
C553 C547 1.363 . S
C553 C548 1.379 . S
C553 N551 1.356 . S
N554 C546 1.356 . S
N554 H560 0.984 . S
N554 H561 0.984 . S
N555 C548 1.356 . S
N555 H558 0.984 . S
N555 H559 0.985 . S
H556 N551 0.984 . S
H557 N551 0.985 . S
H558 N555 0.984 . S
H559 N555 0.985 . S
H560 N554 0.984 . S
H561 N554 0.984 . S
H562 N550 0.984 . S
H563 N550 0.985 . S
C564 C565 1.363 . S
C564 C570 1.379 . S
C564 N572 1.356 . S
C565 C564 1.363 . S
C565 C571 1.363 . S
C566 C567 1.363 . S
C566 C571 1.379 . S
C566 N573 1.356 . S
C567 C566 1.363 . S
C567 C570 1.363 . S
N568 C570 1.356 . S
N568 H580 0.984 . S
N568 H581 0.985 . S
N569 C571 1.356 . S
N569 H574 0.984 . S
N569 H575 0.985 . S
C570 C564 1.379 . S
C570 C567 1.363 . S
C570 N568 1.356 . S
C571 C565 1.363 . S
C571 C566 1.379 . S
C571 N569 1.356 . S
N572 C564 1.356 . S
N572 H578 0.984 . S
N572 H579 0.984 . S
N573 C566 1.356 . S
N573 H576 0.984 . S
N573 H577 0.985 . S
H574 N569 0.984 . S
H575 N569 0.985 . S
H576 N573 0.984 . S
H577 N573 0.985 . S
H578 N572 0.984 . S
H579 N572 0.984 . S
H580 N568 0.984 . S
H581 N568 0.985 . S
C582 C583 1.363 . S
C582 C588 1.379 . S
C582 N590 1.356 . S
C583 C582 1.363 . S
C583 C589 1.363 . S
C584 C585 1.363 . S
C584 C589 1.379 . S
C584 N591 1.356 . S
C585 C584 1.363 . S
C585 C588 1.363 . S
N586 C588 1.356 . S
N586 H598 0.984 . S
N586 H599 0.985 . S
N587 C589 1.356 . S
N587 H592 0.984 . S
N587 H593 0.985 . S
C588 C582 1.379 . S
C588 C585 1.363 . S
C588 N586 1.356 . S
C589 C583 1.363 . S
C589 C584 1.379 . S
C589 N587 1.356 . S
N590 C582 1.356 . S
N590 H596 0.984 . S
N590 H597 0.984 . S
N591 C584 1.356 . S
N591 H594 0.984 . S
N591 H595 0.985 . S
H592 N587 0.984 . S
H593 N587 0.985 . S
H594 N591 0.984 . S
H595 N591 0.985 . S
H596 N590 0.984 . S
H597 N590 0.984 . S
H598 N586 0.984 . S
H599 N586 0.985 . S
C600 C601 1.363 . S
C600 C606 1.379 . S
C600 N608 1.356 . S
C601 C600 1.363 . S
C601 C607 1.363 . S
C602 C603 1.363 . S
C602 C607 1.379 . S
C602 N609 1.356 . S
C603 C602 1.363 . S
C603 C606 1.363 . S
N604 C606 1.356 . S
N604 H616 0.984 . S
N604 H617 0.985 . S
N605 C607 1.356 . S
N605 H610 0.984 . S
N605 H611 0.985 . S
C606 C600 1.379 . S
C606 C603 1.363 . S
C606 N604 1.356 . S
C607 C601 1.363 . S
C607 C602 1.379 . S
C607 N605 1.356 . S
N608 C600 1.356 . S
N608 H614 0.984 . S
N608 H615 0.984 . S
N609 C602 1.356 . S
N609 H612 0.984 . S
N609 H613 0.985 . S
H610 N605 0.984 . S
H611 N605 0.985 . S
H612 N609 0.984 . S
H613 N609 0.985 . S
H614 N608 0.984 . S
H615 N608 0.984 . S
H616 N604 0.984 . S
H617 N604 0.985 . S
C618 C619 1.363 . S
C618 C624 1.379 . S
C618 N626 1.356 . S
C619 C618 1.363 . S
C619 C625 1.363 . S
C620 C621 1.363 . S
C620 C625 1.379 . S
C620 N627 1.356 . S
C621 C620 1.363 . S
C621 C624 1.363 . S
N622 C624 1.356 . S
N622 H634 0.984 . S
N622 H635 0.985 . S
N623 C625 1.356 . S
N623 H628 0.984 . S
N623 H629 0.985 . S
C624 C618 1.379 . S
C624 C621 1.363 . S
C624 N622 1.356 . S
C625 C619 1.363 . S
C625 C620 1.379 . S
C625 N623 1.356 . S
N626 C618 1.356 . S
N626 H632 0.984 . S
N626 H633 0.984 . S
N627 C620 1.356 . S
N627 H630 0.984 . S
N627 H631 0.985 . S
H628 N623 0.984 . S
H629 N623 0.985 . S
H630 N627 0.984 . S
H631 N627 0.985 . S
H632 N626 0.984 . S
H633 N626 0.984 . S
H634 N622 0.984 . S
H635 N622 0.985 . S
C205 C18 1.401 . S
C207 C121 1.453 . S
C223 C29 1.434 . S
C225 C146 1.538 . S
C243 C149 1.491 . S
C241 C55 1.389 . S
C261 C175 1.555 . S
C259 C75 1.449 . S
C279 C176 1.469 . S
C277 C98 1.415 . S
C297 C203 1.516 . S
C295 C118 1.461 . S
C313 C38 1.401 . S
C315 C148 1.456 . S
C331 C52 1.460 . S
C333 C174 1.517 . S
C351 C177 1.469 . S
C349 C72 1.415 . S
C369 C202 1.555 . S
C367 C89 1.447 . S
C385 C109 1.390 . S
C387 C120 1.491 . S
C405 C147 1.539 . S
C403 C9 1.435 . S
C423 C162 1.454 . S
C421 C12 1.405 . S
C439 C35 1.435 . S
C441 C189 1.539 . S
C459 C190 1.489 . S
C457 C49 1.390 . S
C475 C69 1.448 . S
C477 C132 1.552 . S
C493 C92 1.417 . S
C495 C135 1.468 . S
C511 C112 1.463 . S
C513 C160 1.516 . S
C529 C32 1.404 . S
C531 C191 1.453 . S
C549 C133 1.516 . S
C547 C58 1.463 . S
C565 C78 1.417 . S
C567 C134 1.468 . S
C583 C95 1.449 . S
C585 C161 1.555 . S
C601 C115 1.389 . S
C603 C163 1.489 . S
C619 C15 1.434 . S
C621 C188 1.537 . S
