# Generated by pormake.
# Topology rtl, (3,6)-cn, num edge types: 1
# Building blocks:
#     Node 0, Type 0, BuildingBlock: BELTOD_clean_linker_0, # of connection points: 3
#     Node 1, Type 0, BuildingBlock: BELTOD_clean_linker_0, # of connection points: 3
#     Node 2, Type 0, BuildingBlock: BELTOD_clean_linker_0, # of connection points: 3
#     Node 3, Type 0, BuildingBlock: BELTOD_clean_linker_0, # of connection points: 3
#     Node 4, Type 1, BuildingBlock: VOLQOD_clean_sbu_1, # of connection points: 6
#     Node 5, Type 1, BuildingBlock: VOLQOD_clean_sbu_1, # of connection points: 6
#     Edge 6, Type (0, 1), BuildingBlock: AJUNOK_clean_linker_0, # of connection points: 2
#     Edge 7, Type (0, 1), BuildingBlock: AJUNOK_clean_linker_0, # of connection points: 2
#     Edge 8, Type (0, 1), BuildingBlock: AJUNOK_clean_linker_0, # of connection points: 2
#     Edge 9, Type (0, 1), BuildingBlock: AJUNOK_clean_linker_0, # of connection points: 2
#     Edge 10, Type (0, 1), BuildingBlock: AJUNOK_clean_linker_0, # of connection points: 2
#     Edge 11, Type (0, 1), BuildingBlock: AJUNOK_clean_linker_0, # of connection points: 2
#     Edge 12, Type (0, 1), BuildingBlock: AJUNOK_clean_linker_0, # of connection points: 2
#     Edge 13, Type (0, 1), BuildingBlock: AJUNOK_clean_linker_0, # of connection points: 2
#     Edge 14, Type (0, 1), BuildingBlock: AJUNOK_clean_linker_0, # of connection points: 2
#     Edge 15, Type (0, 1), BuildingBlock: AJUNOK_clean_linker_0, # of connection points: 2
#     Edge 16, Type (0, 1), BuildingBlock: AJUNOK_clean_linker_0, # of connection points: 2
#     Edge 17, Type (0, 1), BuildingBlock: AJUNOK_clean_linker_0, # of connection points: 2
# Relax obj value: 0.074
# Max RMSD: 0.154
# Mean RMSD: 0.084
data_MOF--net-rtl--node1-VOLQOD_clean_sbu_1--node2-BELTOD_clean_linker_0--edge1-AJUNOK_clean_linker_0
_symmetry_space_group_name_H-M    P1
_symmetry_Int_Tables_number       1
_symmetry_cell_setting            triclinic
loop_
_symmetry_equiv_pos_as_xyz
'x, y, z'
_cell_length_a     32.566946
_cell_length_b     28.325454
_cell_length_c     20.85128
_cell_angle_alpha  89.031178
_cell_angle_beta   90.361103
_cell_angle_gamma 90.314193
loop_
_atom_site_label
_atom_site_type_symbol
_atom_site_fract_x
_atom_site_fract_y
_atom_site_fract_z
_atom_type_partial_charge
P0 P 0.1555 0.75825 0.01526 0.0
H1 H 0.19375 0.78115 0.13696 0.0
H2 H 0.16463 0.81406 0.23412 0.0
H3 H 0.04259 0.78226 0.16493 0.0
H4 H 0.07196 0.74786 0.06835 0.0
H5 H 0.21319 0.72787 0.92025 0.0
H6 H 0.25946 0.66082 0.91721 0.0
H7 H 0.19906 0.59879 0.08245 0.0
H8 H 0.15303 0.66699 0.08598 0.0
H9 H 0.09482 0.83238 0.0103 0.0
H10 H 0.13674 0.72291 0.88536 0.0
O11 O 0.19256 0.79894 0.00848 0.0
H12 H 0.05517 0.86706 0.92272 0.0
H13 H 0.09901 0.75966 0.79597 0.0
C14 C 0.13485 0.76414 0.09448 0.0
C15 C 0.16081 0.77972 0.14362 0.0
C16 C 0.14419 0.79853 0.19901 0.0
C17 C 0.10144 0.80201 0.2056 0.0
C18 C 0.07566 0.78042 0.16039 0.0
C19 C 0.09241 0.76107 0.10513 0.0
C20 C 0.18007 0.70255 0.00366 0.0
C21 C 0.2091 0.69923 0.95477 0.0
C22 C 0.23549 0.66078 0.95299 0.0
C23 C 0.23336 0.62499 0.00032 0.0
C24 C 0.2019 0.62643 0.0462 0.0
C25 C 0.17544 0.66518 0.048 0.0
C26 C 0.1182 0.77444 0.95496 0.0
C27 C 0.09437 0.8147 0.96466 0.0
C28 C 0.07203 0.8349 0.91429 0.0
C29 C 0.07417 0.81621 0.8525 0.0
C30 C 0.09627 0.77438 0.84334 0.0
C31 C 0.11815 0.75357 0.8944 0.0
P32 P 0.66817 0.73046 0.49172 0.0
H33 H 0.6925 0.70173 0.36421 0.0
H34 H 0.65293 0.67436 0.27213 0.0
H35 H 0.54029 0.70901 0.36846 0.0
H36 H 0.58016 0.73643 0.46091 0.0
H37 H 0.70259 0.78439 0.59732 0.0
H38 H 0.74795 0.85351 0.597 0.0
H39 H 0.72632 0.8734 0.39406 0.0
H40 H 0.68059 0.80482 0.39457 0.0
H41 H 0.6448 0.63707 0.5332 0.0
H42 H 0.62108 0.77957 0.59201 0.0
O43 O 0.70927 0.69556 0.49072 0.0
H44 H 0.60027 0.60658 0.61802 0.0
H45 H 0.5766 0.74884 0.67848 0.0
C46 C 0.63921 0.72017 0.41968 0.0
C47 C 0.65934 0.70433 0.36506 0.0
C48 C 0.6367 0.68902 0.31231 0.0
C49 C 0.59356 0.68961 0.31333 0.0
C50 C 0.57351 0.70804 0.36675 0.0
C51 C 0.59626 0.72369 0.41942 0.0
C52 C 0.68761 0.78983 0.49626 0.0
C53 C 0.70587 0.80503 0.55345 0.0
C54 C 0.73183 0.84452 0.55323 0.0
C55 C 0.74043 0.86875 0.49551 0.0
C56 C 0.71987 0.85544 0.43921 0.0
C57 C 0.69364 0.81627 0.43959 0.0
C58 C 0.63707 0.7104 0.5576 0.0
C59 C 0.63021 0.66178 0.56483 0.0
C60 C 0.60434 0.64443 0.61264 0.0
C61 C 0.58469 0.67546 0.65406 0.0
C62 C 0.59138 0.72434 0.64678 0.0
C63 C 0.61702 0.74181 0.59802 0.0
P64 P 0.9083 0.33905 -0.00083 0.0
H65 H 0.92884 0.35561 0.86429 0.0
H66 H 0.94255 0.30177 0.77569 0.0
H67 H 0.92079 0.18243 0.90263 0.0
H68 H 0.90724 0.23577 0.99039 0.0
H69 H 0.86774 0.41942 0.05566 0.0
H70 H 0.7963 0.44612 0.05432 0.0
H71 H 0.763 0.32922 0.93383 0.0
H72 H 0.83403 0.30208 0.93664 0.0
H73 H 0.98296 0.32154 0.07292 0.0
H74 H 0.8542 0.28679 0.08779 0.0
O75 O 0.94001 0.38539 0.99348 0.0
H76 H 0.99769 0.27013 0.16569 0.0
H77 H 0.8689 0.23471 0.17981 0.0
C78 C 0.91832 0.29971 0.93433 0.0
C79 C 0.92729 0.31784 0.87299 0.0
C80 C 0.93478 0.2872 0.82246 0.0
C81 C 0.93335 0.23811 0.83288 0.0
C82 C 0.92293 0.22017 0.89383 0.0
C83 C 0.9153 0.25071 0.94406 0.0
C84 C 0.85629 0.35951 0.99507 0.0
C85 C 0.84509 0.39988 0.02845 0.0
C86 C 0.80439 0.41516 0.02745 0.0
C87 C 0.77433 0.39013 0.99306 0.0
C88 C 0.78562 0.34923 0.9605 0.0
C89 C 0.82628 0.33394 0.96169 0.0
C90 C 0.91749 0.30848 0.0741 0.0
C91 C 0.95779 0.3036 0.09693 0.0
C92 C 0.9662 0.2739 0.14945 0.0
C93 C 0.93445 0.24804 0.17927 0.0
C94 C 0.89386 0.25442 0.15785 0.0
C95 C 0.88547 0.28425 0.10536 0.0
P96 P 0.41646 0.16011 0.50445 0.0
H97 H 0.48359 0.16954 0.59747 0.0
H98 H 0.49471 0.22411 0.68607 0.0
H99 H 0.3727 0.27972 0.65683 0.0
H100 H 0.36215 0.22629 0.56777 0.0
H101 H 0.37363 0.07738 0.5562 0.0
H102 H 0.30101 0.05413 0.55692 0.0
H103 H 0.271 0.17854 0.44401 0.0
H104 H 0.34346 0.20147 0.4431 0.0
H105 H 0.4591 0.25182 0.49324 0.0
H106 H 0.40445 0.14991 0.36635 0.0
O107 O 0.4475 0.11344 0.50707 0.0
H108 H 0.47353 0.3039 0.40215 0.0
H109 H 0.41831 0.20281 0.27458 0.0
C110 C 0.42182 0.19331 0.57675 0.0
C111 C 0.45897 0.19282 0.61103 0.0
C112 C 0.46533 0.22403 0.66143 0.0
C113 C 0.43472 0.25645 0.67762 0.0
C114 C 0.39705 0.25564 0.64457 0.0
C115 C 0.39081 0.22464 0.59416 0.0
C116 C 0.36401 0.14049 0.49836 0.0
C117 C 0.35148 0.09922 0.53077 0.0
C118 C 0.31003 0.08626 0.53173 0.0
C119 C 0.28048 0.11478 0.50086 0.0
C120 C 0.29323 0.15579 0.46773 0.0
C121 C 0.33464 0.16875 0.46693 0.0
C122 C 0.42997 0.19719 0.43675 0.0
C123 C 0.45012 0.24048 0.44591 0.0
C124 C 0.45835 0.27041 0.39375 0.0
C125 C 0.44692 0.25746 0.33143 0.0
C126 C 0.42785 0.21344 0.32207 0.0
C127 C 0.41971 0.18338 0.3744 0.0
O128 O 0.89777 0.01737 0.5043 0.0
Zn129 Zn 0.94859 0.05956 0.50558 0.0
O130 O -0.00124 0.0208 0.50587 0.0
Zn131 Zn 0.0315 0.03446 0.5812 0.0
Zn132 Zn 0.98516 0.9532 0.50599 0.0
Zn133 Zn 0.03182 0.03594 0.43107 0.0
O134 O 0.08883 0.05533 0.56002 0.0
O135 O 0.08823 0.0597 0.45409 0.0
O136 O 0.94653 0.10114 0.58421 0.0
O137 O 0.0055 0.08434 0.63298 0.0
O138 O 0.03616 0.97765 0.63781 0.0
O139 O 0.00309 0.9201 0.58842 0.0
O140 O 0.01202 0.91936 0.43276 0.0
O141 O 0.94692 0.10253 0.42631 0.0
O142 O 0.04125 0.97855 0.37917 0.0
O143 O 0.0044 0.0846 0.37578 0.0
C144 C 0.89355 0.97281 0.49873 0.0
C145 C 0.10694 0.06434 0.50737 0.0
C146 C 0.02374 0.93507 0.63605 0.0
C147 C 0.97199 0.10709 0.63016 0.0
C148 C 0.03308 0.9348 0.38557 0.0
C149 C 0.97131 0.10805 0.37906 0.0
O150 O 0.92434 0.94535 0.49694 0.0
O151 O 0.59384 0.49196 0.99083 0.0
Zn152 Zn 0.54057 0.52688 0.99161 0.0
O153 O 0.49398 0.48384 -0.00362 0.0
Zn154 Zn 0.45831 0.49534 0.92193 0.0
Zn155 Zn 0.51381 0.41878 -0.00408 0.0
Zn156 Zn 0.46418 0.49486 0.07595 0.0
O157 O 0.40201 0.51537 0.94986 0.0
O158 O 0.40637 0.51521 0.05612 0.0
O159 O 0.53874 0.56744 0.91275 0.0
O160 O 0.48153 0.5461 0.86271 0.0
O161 O 0.4527 0.4368 0.86941 0.0
O162 O 0.49242 0.38417 0.91913 0.0
O163 O 0.49548 0.38289 0.07453 0.0
O164 O 0.54235 0.56983 0.06601 0.0
O165 O 0.46153 0.43556 0.13072 0.0
O166 O 0.49097 0.54645 0.12831 0.0
C167 C 0.60324 0.44845 0.99183 0.0
C168 C 0.38589 0.5218 0.00454 0.0
C169 C 0.46835 0.39576 0.87323 0.0
C170 C 0.51387 0.57147 0.86582 0.0
C171 C 0.47515 0.39385 0.12396 0.0
C172 C 0.52138 0.57374 0.11678 0.0
O173 O 0.5756 0.4165 0.99401 0.0
C174 C 0.21269 0.10075 0.44746 0.0
C175 C 0.23629 0.10238 0.504 0.0
C176 C 0.17089 0.08892 0.44918 0.0
C177 C 0.15094 0.07858 0.50761 0.0
H178 H 0.22679 0.10804 0.4014 0.0
H179 H 0.15423 0.08762 0.4041 0.0
S180 S 0.19913 0.08091 0.6697 0.0
N181 N 0.2368 0.09485 0.62017 0.0
N182 N 0.15831 0.07242 0.62392 0.0
C183 C 0.17426 0.08093 0.56472 0.0
C184 C 0.21689 0.0928 0.56278 0.0
C185 C 0.28221 0.56875 0.95041 0.0
C186 C 0.26737 0.59048 0.00572 0.0
C187 C 0.31955 0.54445 0.95132 0.0
C188 C 0.34355 0.5409 0.00762 0.0
H189 H 0.26571 0.57236 0.90534 0.0
H190 H 0.33036 0.52994 0.90678 0.0
S191 S 0.31637 0.58827 0.16692 0.0
N192 N 0.27814 0.6045 0.11931 0.0
N193 N 0.34783 0.55805 0.12164 0.0
C194 C 0.32764 0.55982 0.06437 0.0
C195 C 0.28967 0.58477 0.06328 0.0
C196 C 0.80906 0.88842 0.45128 0.0
C197 C 0.77651 0.90062 0.49162 0.0
C198 C 0.84632 0.9131 0.4527 0.0
C199 C 0.85223 0.95149 0.49365 0.0
H200 H 0.8064 0.85811 0.42047 0.0
H201 H 0.87103 0.90141 0.42235 0.0
S202 S 0.77566 -0.00053 0.60571 0.0
N203 N 0.75181 0.95456 0.57188 0.0
N204 N 0.82183 0.00209 0.57333 0.0
C205 C 0.81933 0.96553 0.53214 0.0
C206 C 0.7815 0.93969 0.53159 0.0
C207 C 0.69934 0.37355 0.00569 0.0
C208 C 0.73106 0.40597 0.99205 0.0
C209 C 0.65819 0.38758 0.00526 0.0
C210 C 0.64712 0.43464 0.99117 0.0
H211 H 0.70643 0.33709 0.01758 0.0
H212 H 0.63496 0.36131 0.01666 0.0
S213 S 0.71885 0.53253 0.94813 0.0
N214 N 0.74885 0.48654 0.96114 0.0
N215 N 0.6716 0.51334 0.96082 0.0
C216 C 0.67867 0.46735 0.97676 0.0
C217 C 0.72058 0.45293 0.97712 0.0
C218 C 0.05466 0.82099 0.29694 0.0
C219 C 0.0843 0.83539 0.252 0.0
C220 C 0.03806 0.85332 0.33997 0.0
C221 C 0.05009 0.90128 0.33868 0.0
H222 H 0.04455 0.78449 0.29919 0.0
H223 H 0.01561 0.8406 0.37432 0.0
S224 S 0.12509 0.95667 0.2261 0.0
N225 N 0.12368 0.90058 0.20624 0.0
N226 N 0.09289 0.96132 0.28638 0.0
C227 C 0.07927 0.91601 0.29272 0.0
C228 C 0.09625 0.88308 0.24958 0.0
C229 C 0.57139 0.66539 0.77087 0.0
C230 C 0.55994 0.65578 0.70742 0.0
C231 C 0.55446 0.63963 0.82223 0.0
C232 C 0.5252 0.60363 0.81197 0.0
H233 H 0.59543 0.69092 0.78065 0.0
H234 H 0.56569 0.6467 0.87015 0.0
S235 S 0.48104 0.5697 0.65468 0.0
N236 N 0.51477 0.61161 0.63701 0.0
N237 N 0.48259 0.56319 0.73352 0.0
C238 C 0.51126 0.59623 0.7489 0.0
C239 C 0.5288 0.62225 0.6966 0.0
C240 C 0.92259 0.21137 0.28806 0.0
C241 C 0.94398 0.21214 0.22967 0.0
C242 C 0.93128 0.17738 0.33595 0.0
C243 C 0.9616 0.14283 0.32708 0.0
H244 H 0.89932 0.2376 0.29707 0.0
H245 H 0.91442 0.17861 0.38049 0.0
S246 S 0.02338 0.12718 0.1796 0.0
N247 N 0.99462 0.17375 0.16364 0.0
N248 N 0.01127 0.11012 0.25317 0.0
C249 C 0.98253 0.14275 0.26806 0.0
C250 C 0.97366 0.17731 0.21953 0.0
C251 C 0.45843 0.27894 0.78742 0.0
C252 C 0.4427 0.29241 0.72698 0.0
C253 C 0.46642 0.31256 0.8345 0.0
C254 C 0.45898 0.36092 0.82286 0.0
H255 H 0.46428 0.24208 0.79857 0.0
H256 H 0.47832 0.30043 0.88049 0.0
S257 S 0.42093 0.4146 0.67008 0.0
N258 N 0.42214 0.35739 0.65646 0.0
N259 N 0.4367 0.42062 0.7449 0.0
C260 C 0.44363 0.37484 0.76218 0.0
C261 C 0.43562 0.34059 0.71428 0.0
C262 C 0.54168 0.63029 0.27745 0.0
C263 C 0.57001 0.66626 0.26174 0.0
C264 C 0.52429 0.60196 0.22985 0.0
C265 C 0.53479 0.60853 0.16494 0.0
H266 H 0.53458 0.62229 0.32716 0.0
H267 H 0.50415 0.57322 0.24448 0.0
S268 S 0.60208 0.70345 0.0983 0.0
N269 N 0.60377 0.71092 0.17663 0.0
N270 N 0.57135 0.65777 0.0869 0.0
C271 C 0.56093 0.64658 0.14836 0.0
C272 C 0.57851 0.67539 0.19683 0.0
C273 C 0.92314 0.20725 0.72187 0.0
C274 C 0.94397 0.20534 0.7811 0.0
C275 C 0.9321 0.17518 0.67333 0.0
C276 C 0.96262 0.14055 0.68208 0.0
H277 H 0.89934 0.23323 0.71342 0.0
H278 H 0.91515 0.17777 0.62856 0.0
S279 S 0.02679 0.12237 0.82859 0.0
N280 N 0.99689 0.16722 0.84564 0.0
N281 N 0.01393 0.10698 0.75515 0.0
C282 C 0.98396 0.13885 0.74118 0.0
C283 C 0.97458 0.17122 0.79048 0.0
C284 C 0.44121 0.33804 0.28199 0.0
C285 C 0.45376 0.29085 0.27702 0.0
C286 C 0.44791 0.37077 0.23209 0.0
C287 C 0.46763 0.35774 0.17518 0.0
H288 H 0.42588 0.34975 0.32481 0.0
H289 H 0.43771 0.4067 0.23862 0.0
S290 S 0.50682 0.23806 0.13901 0.0
N291 N 0.48708 0.23247 0.21148 0.0
N292 N 0.49955 0.29368 0.11708 0.0
C293 C 0.48017 0.31037 0.16954 0.0
C294 C 0.47321 0.27702 0.22051 0.0
C295 C 0.07048 0.8927 0.79314 0.0
C296 C 0.05918 0.84482 0.79711 0.0
C297 C 0.05845 0.92116 0.74129 0.0
C298 C 0.03465 0.90309 0.69062 0.0
H299 H 0.08951 0.90831 0.83004 0.0
H300 H 0.06843 0.95772 0.74101 0.0
S301 S 0.99615 0.77979 0.67886 0.0
N302 N 0.02226 0.78032 0.74704 0.0
N303 N -0.00039 0.83387 0.64839 0.0
C304 C 0.02286 0.85512 0.694 0.0
C305 C 0.03524 0.82598 0.74735 0.0
loop_
_geom_bond_atom_site_label_1
_geom_bond_atom_site_label_2
_geom_bond_distance
_geom_bond_site_symmetry_2
_ccdc_geom_bond_type
P0 O11 1.490 . S
P0 C14 1.812 . S
P0 C20 1.803 . S
P0 C26 1.819 1_554 S
H1 C15 0.941 . S
H2 C16 0.939 . S
H3 C18 0.940 . S
H4 C19 0.940 . S
H5 C21 0.939 . S
H6 C22 0.942 . S
H7 C24 0.940 . S
H8 C25 0.939 . S
H9 C27 0.941 . S
H10 C31 0.939 . S
O11 P0 1.490 . S
H12 C28 0.939 . S
H13 C30 0.940 . S
C14 P0 1.812 . S
C14 C15 1.389 . S
C14 C19 1.391 . S
C15 H1 0.941 . S
C15 C14 1.389 . S
C15 C16 1.397 . S
C16 H2 0.939 . S
C16 C15 1.397 . S
C16 C17 1.378 . S
C17 C16 1.378 . S
C17 C18 1.378 . S
C18 H3 0.940 . S
C18 C17 1.378 . S
C18 C19 1.396 . S
C19 H4 0.940 . S
C19 C14 1.391 . S
C19 C18 1.396 . S
C20 P0 1.803 . S
C20 C21 1.378 1_554 S
C20 C25 1.400 . S
C21 H5 0.939 . S
C21 C20 1.378 1_556 S
C21 C22 1.361 . S
C22 H6 0.942 . S
C22 C21 1.361 . S
C22 C23 1.369 1_556 S
C23 C22 1.369 1_554 S
C23 C24 1.404 . S
C24 H7 0.940 . S
C24 C23 1.404 . S
C24 C25 1.389 . S
C25 H8 0.939 . S
C25 C20 1.400 . S
C25 C24 1.389 . S
C26 P0 1.819 1_556 S
C26 C27 1.391 . S
C26 C31 1.391 . S
C27 H9 0.941 . S
C27 C26 1.391 . S
C27 C28 1.396 . S
C28 H12 0.939 . S
C28 C27 1.396 . S
C28 C29 1.397 . S
C29 C28 1.397 . S
C29 C30 1.385 . S
C30 H13 0.940 . S
C30 C29 1.385 . S
C30 C31 1.388 . S
C31 H10 0.939 . S
C31 C26 1.391 . S
C31 C30 1.388 . S
P32 O43 1.490 . S
P32 C46 1.812 . S
P32 C52 1.803 . S
P32 C58 1.819 . S
H33 C47 0.941 . S
H34 C48 0.939 . S
H35 C50 0.940 . S
H36 C51 0.940 . S
H37 C53 0.939 . S
H38 C54 0.942 . S
H39 C56 0.940 . S
H40 C57 0.939 . S
H41 C59 0.941 . S
H42 C63 0.939 . S
O43 P32 1.490 . S
H44 C60 0.939 . S
H45 C62 0.940 . S
C46 P32 1.812 . S
C46 C47 1.389 . S
C46 C51 1.391 . S
C47 H33 0.941 . S
C47 C46 1.389 . S
C47 C48 1.397 . S
C48 H34 0.939 . S
C48 C47 1.397 . S
C48 C49 1.378 . S
C49 C48 1.378 . S
C49 C50 1.378 . S
C50 H35 0.940 . S
C50 C49 1.378 . S
C50 C51 1.396 . S
C51 H36 0.940 . S
C51 C46 1.391 . S
C51 C50 1.396 . S
C52 P32 1.803 . S
C52 C53 1.378 . S
C52 C57 1.400 . S
C53 H37 0.939 . S
C53 C52 1.378 . S
C53 C54 1.361 . S
C54 H38 0.942 . S
C54 C53 1.361 . S
C54 C55 1.369 . S
C55 C54 1.369 . S
C55 C56 1.404 . S
C56 H39 0.940 . S
C56 C55 1.404 . S
C56 C57 1.389 . S
C57 H40 0.939 . S
C57 C52 1.400 . S
C57 C56 1.389 . S
C58 P32 1.819 . S
C58 C59 1.391 . S
C58 C63 1.391 . S
C59 H41 0.941 . S
C59 C58 1.391 . S
C59 C60 1.396 . S
C60 H44 0.939 . S
C60 C59 1.396 . S
C60 C61 1.397 . S
C61 C60 1.397 . S
C61 C62 1.385 . S
C62 H45 0.940 . S
C62 C61 1.385 . S
C62 C63 1.388 . S
C63 H42 0.939 . S
C63 C58 1.391 . S
C63 C62 1.388 . S
P64 O75 1.490 1_554 S
P64 C78 1.812 1_554 S
P64 C84 1.803 1_554 S
P64 C90 1.818 . S
H65 C79 0.941 . S
H66 C80 0.939 . S
H67 C82 0.940 . S
H68 C83 0.940 . S
H69 C85 0.939 . S
H70 C86 0.942 . S
H71 C88 0.940 . S
H72 C89 0.939 . S
H73 C91 0.941 . S
H74 C95 0.939 . S
O75 P64 1.490 1_556 S
H76 C92 0.939 . S
H77 C94 0.940 . S
C78 P64 1.812 1_556 S
C78 C79 1.389 . S
C78 C83 1.391 . S
C79 H65 0.941 . S
C79 C78 1.389 . S
C79 C80 1.397 . S
C80 H66 0.939 . S
C80 C79 1.397 . S
C80 C81 1.378 . S
C81 C80 1.378 . S
C81 C82 1.378 . S
C82 H67 0.940 . S
C82 C81 1.378 . S
C82 C83 1.396 . S
C83 H68 0.940 . S
C83 C78 1.391 . S
C83 C82 1.396 . S
C84 P64 1.803 1_556 S
C84 C85 1.372 1_556 S
C84 C89 1.405 . S
C85 H69 0.939 . S
C85 C84 1.372 1_554 S
C85 C86 1.361 . S
C86 H70 0.942 . S
C86 C85 1.361 . S
C86 C87 1.369 . S
C87 C86 1.369 . S
C87 C88 1.404 1_554 S
C88 H71 0.940 . S
C88 C87 1.404 1_556 S
C88 C89 1.389 . S
C89 H72 0.939 . S
C89 C84 1.405 . S
C89 C88 1.389 . S
C90 P64 1.818 . S
C90 C91 1.391 . S
C90 C95 1.391 . S
C91 H73 0.941 . S
C91 C90 1.391 . S
C91 C92 1.396 . S
C92 H76 0.939 . S
C92 C91 1.396 . S
C92 C93 1.397 . S
C93 C92 1.397 . S
C93 C94 1.385 . S
C94 H77 0.940 . S
C94 C93 1.385 . S
C94 C95 1.388 . S
C95 H74 0.939 . S
C95 C90 1.391 . S
C95 C94 1.388 . S
P96 O107 1.490 . S
P96 C110 1.812 . S
P96 C116 1.803 . S
P96 C122 1.819 . S
H97 C111 0.941 . S
H98 C112 0.939 . S
H99 C114 0.940 . S
H100 C115 0.940 . S
H101 C117 0.939 . S
H102 C118 0.942 . S
H103 C120 0.940 . S
H104 C121 0.939 . S
H105 C123 0.941 . S
H106 C127 0.939 . S
O107 P96 1.490 . S
H108 C124 0.939 . S
H109 C126 0.940 . S
C110 P96 1.812 . S
C110 C111 1.389 . S
C110 C115 1.391 . S
C111 H97 0.941 . S
C111 C110 1.389 . S
C111 C112 1.397 . S
C112 H98 0.939 . S
C112 C111 1.397 . S
C112 C113 1.378 . S
C113 C112 1.378 . S
C113 C114 1.378 . S
C114 H99 0.940 . S
C114 C113 1.378 . S
C114 C115 1.396 . S
C115 H100 0.940 . S
C115 C110 1.391 . S
C115 C114 1.396 . S
C116 P96 1.803 . S
C116 C117 1.378 . S
C116 C121 1.400 . S
C117 H101 0.939 . S
C117 C116 1.378 . S
C117 C118 1.361 . S
C118 H102 0.942 . S
C118 C117 1.361 . S
C118 C119 1.369 . S
C119 C118 1.369 . S
C119 C120 1.404 . S
C120 H103 0.940 . S
C120 C119 1.404 . S
C120 C121 1.389 . S
C121 H104 0.939 . S
C121 C116 1.400 . S
C121 C120 1.389 . S
C122 P96 1.819 . S
C122 C123 1.391 . S
C122 C127 1.391 . S
C123 H105 0.941 . S
C123 C122 1.391 . S
C123 C124 1.396 . S
C124 H108 0.939 . S
C124 C123 1.396 . S
C124 C125 1.397 . S
C125 C124 1.397 . S
C125 C126 1.385 . S
C126 H109 0.940 . S
C126 C125 1.385 . S
C126 C127 1.388 . S
C127 H106 0.939 . S
C127 C122 1.391 . S
C127 C126 1.388 . S
O128 Zn129 1.953 1_565 S
O128 C144 1.225 . S
Zn129 O128 1.953 1_545 S
Zn129 O130 1.949 1_655 S
Zn129 O136 1.919 . S
Zn129 O141 1.924 . S
O130 Zn129 1.949 1_455 S
O130 Zn131 1.923 . S
O130 Zn132 1.950 1_445 S
O130 Zn133 1.945 . S
Zn131 O130 1.923 . S
Zn131 O134 1.933 . S
Zn131 O137 1.941 . S
Zn131 O138 1.965 1_545 S
Zn132 O130 1.950 1_665 S
Zn132 O139 1.938 1_655 S
Zn132 O140 1.906 1_655 S
Zn132 O150 1.953 . S
Zn133 O130 1.945 . S
Zn133 O135 1.932 . S
Zn133 O142 1.977 1_545 S
Zn133 O143 1.910 1_455 S
O134 Zn131 1.933 . S
O134 C145 1.226 . S
O135 Zn133 1.932 . S
O135 C145 1.307 . S
O136 Zn129 1.919 . S
O136 C147 1.253 . S
O137 Zn131 1.941 . S
O137 C147 1.283 1_455 S
O138 Zn131 1.965 1_565 S
O138 C146 1.303 . S
O139 Zn132 1.938 1_455 S
O139 C146 1.247 . S
O140 Zn132 1.906 1_455 S
O140 C148 1.304 . S
O141 Zn129 1.924 . S
O141 C149 1.311 . S
O142 Zn133 1.977 1_565 S
O142 C148 1.272 . S
O143 Zn133 1.910 1_655 S
O143 C149 1.231 . S
C144 O128 1.225 . S
C144 O150 1.298 . S
C145 O134 1.226 . S
C145 O135 1.307 . S
C146 O138 1.303 . S
C146 O139 1.247 . S
C147 O136 1.253 . S
C147 O137 1.283 1_655 S
C148 O140 1.304 . S
C148 O142 1.272 . S
C149 O141 1.311 . S
C149 O143 1.231 . S
O150 Zn132 1.953 . S
O150 C144 1.298 . S
O151 Zn152 1.953 . S
O151 C167 1.225 1_556 S
Zn152 O151 1.953 . S
Zn152 O153 1.949 1_556 S
Zn152 O159 1.919 . S
Zn152 O164 1.924 1_556 S
O153 Zn152 1.949 1_554 S
O153 Zn154 1.923 1_554 S
O153 Zn155 1.950 . S
O153 Zn156 1.945 . S
Zn154 O153 1.923 1_556 S
Zn154 O157 1.933 . S
Zn154 O160 1.941 . S
Zn154 O161 1.965 . S
Zn155 O153 1.950 . S
Zn155 O162 1.938 1_554 S
Zn155 O163 1.906 . S
Zn155 O173 1.953 . S
Zn156 O153 1.945 . S
Zn156 O158 1.932 . S
Zn156 O165 1.977 . S
Zn156 O166 1.910 . S
O157 Zn154 1.933 . S
O157 C168 1.226 1_556 S
O158 Zn156 1.932 . S
O158 C168 1.307 . S
O159 Zn152 1.919 . S
O159 C170 1.253 . S
O160 Zn154 1.941 . S
O160 C170 1.283 . S
O161 Zn154 1.965 . S
O161 C169 1.303 . S
O162 Zn155 1.938 1_556 S
O162 C169 1.247 . S
O163 Zn155 1.906 . S
O163 C171 1.304 . S
O164 Zn152 1.924 1_554 S
O164 C172 1.311 . S
O165 Zn156 1.977 . S
O165 C171 1.272 . S
O166 Zn156 1.910 . S
O166 C172 1.231 . S
C167 O151 1.225 1_554 S
C167 O173 1.298 . S
C168 O157 1.226 1_554 S
C168 O158 1.307 . S
C169 O161 1.303 . S
C169 O162 1.247 . S
C170 O159 1.253 . S
C170 O160 1.283 . S
C171 O163 1.304 . S
C171 O165 1.272 . S
C172 O164 1.311 . S
C172 O166 1.231 . S
O173 Zn155 1.953 . S
O173 C167 1.298 . S
C174 C175 1.369 . S
C174 C176 1.419 . S
C174 H178 0.930 . S
C175 C174 1.369 . S
C175 C184 1.429 . S
C176 C174 1.419 . S
C176 C177 1.363 . S
C176 H179 0.929 . S
C177 C176 1.363 . S
C177 C183 1.428 . S
H178 C174 0.930 . S
H179 C176 0.929 . S
S180 N181 1.613 1_565 S
S180 N182 1.610 . S
N181 S180 1.613 1_545 S
N181 C184 1.350 . S
N182 S180 1.610 . S
N182 C183 1.351 1_565 S
C183 C177 1.428 . S
C183 N182 1.351 1_545 S
C183 C184 1.434 . S
C184 C175 1.429 . S
C184 N181 1.350 . S
C184 C183 1.434 . S
C185 C186 1.369 1_556 S
C185 C187 1.419 . S
C185 H189 0.930 . S
C186 C185 1.369 1_554 S
C186 C195 1.429 . S
C187 C185 1.419 . S
C187 C188 1.363 1_556 S
C187 H190 0.929 . S
C188 C187 1.363 1_554 S
C188 C194 1.428 . S
H189 C185 0.930 . S
H190 C187 0.929 . S
S191 N192 1.613 . S
S191 N193 1.610 . S
N192 S191 1.613 . S
N192 C195 1.350 . S
N193 S191 1.610 . S
N193 C194 1.351 . S
C194 C188 1.428 . S
C194 N193 1.351 . S
C194 C195 1.434 . S
C195 C186 1.429 . S
C195 N192 1.350 . S
C195 C194 1.434 . S
C196 C197 1.369 . S
C196 C198 1.419 . S
C196 H200 0.930 . S
C197 C196 1.369 . S
C197 C206 1.429 . S
C198 C196 1.419 . S
C198 C199 1.363 . S
C198 H201 0.929 . S
C199 C198 1.363 . S
C199 C205 1.428 . S
H200 C196 0.930 . S
H201 C198 0.929 . S
S202 N203 1.613 . S
S202 N204 1.610 . S
N203 S202 1.613 . S
N203 C206 1.350 . S
N204 S202 1.610 . S
N204 C205 1.351 . S
C205 C199 1.428 . S
C205 N204 1.351 . S
C205 C206 1.434 . S
C206 C197 1.429 . S
C206 N203 1.350 . S
C206 C205 1.434 . S
C207 C208 1.369 . S
C207 C209 1.419 . S
C207 H211 0.930 . S
C208 C207 1.369 . S
C208 C217 1.429 1_554 S
C209 C207 1.419 . S
C209 C210 1.363 . S
C209 H212 0.929 . S
C210 C209 1.363 . S
C210 C216 1.428 1_554 S
H211 C207 0.930 . S
H212 C209 0.929 . S
S213 N214 1.613 . S
S213 N215 1.610 . S
N214 S213 1.613 . S
N214 C217 1.350 . S
N215 S213 1.610 . S
N215 C216 1.351 . S
C216 C210 1.428 1_556 S
C216 N215 1.351 . S
C216 C217 1.434 . S
C217 C208 1.429 1_556 S
C217 N214 1.350 . S
C217 C216 1.434 . S
C218 C219 1.369 . S
C218 C220 1.419 . S
C218 H222 0.930 . S
C219 C218 1.369 . S
C219 C228 1.429 . S
C220 C218 1.419 . S
C220 C221 1.363 . S
C220 H223 0.929 . S
C221 C220 1.363 . S
C221 C227 1.428 . S
H222 C218 0.930 . S
H223 C220 0.929 . S
S224 N225 1.613 . S
S224 N226 1.610 . S
N225 S224 1.613 . S
N225 C228 1.350 . S
N226 S224 1.610 . S
N226 C227 1.351 . S
C227 C221 1.428 . S
C227 N226 1.351 . S
C227 C228 1.434 . S
C228 C219 1.429 . S
C228 N225 1.350 . S
C228 C227 1.434 . S
C229 C230 1.369 . S
C229 C231 1.419 . S
C229 H233 0.930 . S
C230 C229 1.369 . S
C230 C239 1.429 . S
C231 C229 1.419 . S
C231 C232 1.363 . S
C231 H234 0.929 . S
C232 C231 1.363 . S
C232 C238 1.428 . S
H233 C229 0.930 . S
H234 C231 0.929 . S
S235 N236 1.613 . S
S235 N237 1.610 . S
N236 S235 1.613 . S
N236 C239 1.350 . S
N237 S235 1.610 . S
N237 C238 1.351 . S
C238 C232 1.428 . S
C238 N237 1.351 . S
C238 C239 1.434 . S
C239 C230 1.429 . S
C239 N236 1.350 . S
C239 C238 1.434 . S
C240 C241 1.369 . S
C240 C242 1.419 . S
C240 H244 0.930 . S
C241 C240 1.369 . S
C241 C250 1.429 . S
C242 C240 1.419 . S
C242 C243 1.363 . S
C242 H245 0.929 . S
C243 C242 1.363 . S
C243 C249 1.428 . S
H244 C240 0.930 . S
H245 C242 0.929 . S
S246 N247 1.613 . S
S246 N248 1.610 . S
N247 S246 1.613 . S
N247 C250 1.350 . S
N248 S246 1.610 . S
N248 C249 1.351 . S
C249 C243 1.428 . S
C249 N248 1.351 . S
C249 C250 1.434 . S
C250 C241 1.429 . S
C250 N247 1.350 . S
C250 C249 1.434 . S
C251 C252 1.369 . S
C251 C253 1.419 . S
C251 H255 0.930 . S
C252 C251 1.369 . S
C252 C261 1.429 . S
C253 C251 1.419 . S
C253 C254 1.363 . S
C253 H256 0.929 . S
C254 C253 1.363 . S
C254 C260 1.428 . S
H255 C251 0.930 . S
H256 C253 0.929 . S
S257 N258 1.613 . S
S257 N259 1.610 . S
N258 S257 1.613 . S
N258 C261 1.350 . S
N259 S257 1.610 . S
N259 C260 1.351 . S
C260 C254 1.428 . S
C260 N259 1.351 . S
C260 C261 1.434 . S
C261 C252 1.429 . S
C261 N258 1.350 . S
C261 C260 1.434 . S
C262 C263 1.369 . S
C262 C264 1.419 . S
C262 H266 0.930 . S
C263 C262 1.369 . S
C263 C272 1.429 . S
C264 C262 1.419 . S
C264 C265 1.363 . S
C264 H267 0.929 . S
C265 C264 1.363 . S
C265 C271 1.428 . S
H266 C262 0.930 . S
H267 C264 0.929 . S
S268 N269 1.613 . S
S268 N270 1.610 . S
N269 S268 1.613 . S
N269 C272 1.350 . S
N270 S268 1.610 . S
N270 C271 1.351 . S
C271 C265 1.428 . S
C271 N270 1.351 . S
C271 C272 1.434 . S
C272 C263 1.429 . S
C272 N269 1.350 . S
C272 C271 1.434 . S
C273 C274 1.369 . S
C273 C275 1.419 . S
C273 H277 0.930 . S
C274 C273 1.369 . S
C274 C283 1.429 . S
C275 C273 1.419 . S
C275 C276 1.363 . S
C275 H278 0.929 . S
C276 C275 1.363 . S
C276 C282 1.428 . S
H277 C273 0.930 . S
H278 C275 0.929 . S
S279 N280 1.613 . S
S279 N281 1.610 . S
N280 S279 1.613 . S
N280 C283 1.350 . S
N281 S279 1.610 . S
N281 C282 1.351 . S
C282 C276 1.428 . S
C282 N281 1.351 . S
C282 C283 1.434 . S
C283 C274 1.429 . S
C283 N280 1.350 . S
C283 C282 1.434 . S
C284 C285 1.369 . S
C284 C286 1.419 . S
C284 H288 0.930 . S
C285 C284 1.369 . S
C285 C294 1.429 . S
C286 C284 1.419 . S
C286 C287 1.363 . S
C286 H289 0.929 . S
C287 C286 1.363 . S
C287 C293 1.428 . S
H288 C284 0.930 . S
H289 C286 0.929 . S
S290 N291 1.613 . S
S290 N292 1.610 . S
N291 S290 1.613 . S
N291 C294 1.350 . S
N292 S290 1.610 . S
N292 C293 1.351 . S
C293 C287 1.428 . S
C293 N292 1.351 . S
C293 C294 1.434 . S
C294 C285 1.429 . S
C294 N291 1.350 . S
C294 C293 1.434 . S
C295 C296 1.369 . S
C295 C297 1.419 . S
C295 H299 0.930 . S
C296 C295 1.369 . S
C296 C305 1.429 . S
C297 C295 1.419 . S
C297 C298 1.363 . S
C297 H300 0.929 . S
C298 C297 1.363 . S
C298 C304 1.428 . S
H299 C295 0.930 . S
H300 C297 0.929 . S
S301 N302 1.613 1_655 S
S301 N303 1.610 . S
N302 S301 1.613 1_455 S
N302 C305 1.350 . S
N303 S301 1.610 . S
N303 C304 1.351 1_655 S
C304 C298 1.428 . S
C304 N303 1.351 1_455 S
C304 C305 1.434 . S
C305 C296 1.429 . S
C305 N302 1.350 . S
C305 C304 1.434 . S
C177 C145 1.623 . S
C175 C119 1.645 . S
C186 C23 1.490 . S
C188 C168 1.621 . S
C197 C55 1.501 . S
C199 C144 1.631 . S
C208 C87 1.647 . S
C210 C167 1.633 . S
C221 C148 1.616 . S
C219 C17 1.530 . S
C232 C170 1.602 . S
C230 C61 1.527 . S
C241 C93 1.727 . S
C243 C149 1.608 . S
C252 C113 1.609 . S
C254 C169 1.569 . S
C265 C172 1.604 . S
C263 C49 1.550 . S
C276 C147 1.598 . S
C274 C81 1.626 . S
C287 C171 1.615 . S
C285 C125 1.715 . S
C296 C29 1.514 . S
C298 C146 1.567 . S
