# Generated by pormake.
# Topology nom, (4,4)-cn, num edge types: 1
# Building blocks:
#     Node 0, Type 0, BuildingBlock: NAWXER_clean_linker_0, # of connection points: 4
#     Node 1, Type 0, BuildingBlock: NAWXER_clean_linker_0, # of connection points: 4
#     Node 2, Type 0, BuildingBlock: NAWXER_clean_linker_0, # of connection points: 4
#     Node 3, Type 0, BuildingBlock: NAWXER_clean_linker_0, # of connection points: 4
#     Node 4, Type 0, BuildingBlock: NAWXER_clean_linker_0, # of connection points: 4
#     Node 5, Type 0, BuildingBlock: NAWXER_clean_linker_0, # of connection points: 4
#     Node 6, Type 1, BuildingBlock: QUQFOY_clean_sbu_1, # of connection points: 4
#     Node 7, Type 1, BuildingBlock: QUQFOY_clean_sbu_1, # of connection points: 4
#     Node 8, Type 1, BuildingBlock: QUQFOY_clean_sbu_1, # of connection points: 4
#     Node 9, Type 1, BuildingBlock: QUQFOY_clean_sbu_1, # of connection points: 4
#     Node 10, Type 1, BuildingBlock: QUQFOY_clean_sbu_1, # of connection points: 4
#     Node 11, Type 1, BuildingBlock: QUQFOY_clean_sbu_1, # of connection points: 4
#     Edge 12, Type (0, 1), BuildingBlock: MIFKUJ_clean_linker_0, # of connection points: 2
#     Edge 13, Type (0, 1), BuildingBlock: MIFKUJ_clean_linker_0, # of connection points: 2
#     Edge 14, Type (0, 1), BuildingBlock: MIFKUJ_clean_linker_0, # of connection points: 2
#     Edge 15, Type (0, 1), BuildingBlock: MIFKUJ_clean_linker_0, # of connection points: 2
#     Edge 16, Type (0, 1), BuildingBlock: MIFKUJ_clean_linker_0, # of connection points: 2
#     Edge 17, Type (0, 1), BuildingBlock: MIFKUJ_clean_linker_0, # of connection points: 2
#     Edge 18, Type (0, 1), BuildingBlock: MIFKUJ_clean_linker_0, # of connection points: 2
#     Edge 19, Type (0, 1), BuildingBlock: MIFKUJ_clean_linker_0, # of connection points: 2
#     Edge 20, Type (0, 1), BuildingBlock: MIFKUJ_clean_linker_0, # of connection points: 2
#     Edge 21, Type (0, 1), BuildingBlock: MIFKUJ_clean_linker_0, # of connection points: 2
#     Edge 22, Type (0, 1), BuildingBlock: MIFKUJ_clean_linker_0, # of connection points: 2
#     Edge 23, Type (0, 1), BuildingBlock: MIFKUJ_clean_linker_0, # of connection points: 2
#     Edge 24, Type (0, 1), BuildingBlock: MIFKUJ_clean_linker_0, # of connection points: 2
#     Edge 25, Type (0, 1), BuildingBlock: MIFKUJ_clean_linker_0, # of connection points: 2
#     Edge 26, Type (0, 1), BuildingBlock: MIFKUJ_clean_linker_0, # of connection points: 2
#     Edge 27, Type (0, 1), BuildingBlock: MIFKUJ_clean_linker_0, # of connection points: 2
#     Edge 28, Type (0, 1), BuildingBlock: MIFKUJ_clean_linker_0, # of connection points: 2
#     Edge 29, Type (0, 1), BuildingBlock: MIFKUJ_clean_linker_0, # of connection points: 2
#     Edge 30, Type (0, 1), BuildingBlock: MIFKUJ_clean_linker_0, # of connection points: 2
#     Edge 31, Type (0, 1), BuildingBlock: MIFKUJ_clean_linker_0, # of connection points: 2
#     Edge 32, Type (0, 1), BuildingBlock: MIFKUJ_clean_linker_0, # of connection points: 2
#     Edge 33, Type (0, 1), BuildingBlock: MIFKUJ_clean_linker_0, # of connection points: 2
#     Edge 34, Type (0, 1), BuildingBlock: MIFKUJ_clean_linker_0, # of connection points: 2
#     Edge 35, Type (0, 1), BuildingBlock: MIFKUJ_clean_linker_0, # of connection points: 2
# Relax obj value: 0.025
# Max RMSD: 0.129
# Mean RMSD: 0.123
data_MOF--net-nom--node1-QUQFOY_clean_sbu_1--node2-NAWXER_clean_linker_0--edge1-MIFKUJ_clean_linker_0
_symmetry_space_group_name_H-M    P1
_symmetry_Int_Tables_number       1
_symmetry_cell_setting            triclinic
loop_
_symmetry_equiv_pos_as_xyz
'x, y, z'
_cell_length_a     67.865732
_cell_length_b     67.865857
_cell_length_c     68.707356
_cell_angle_alpha  89.979127
_cell_angle_beta   90.003504
_cell_angle_gamma 119.99564
loop_
_atom_site_label
_atom_site_type_symbol
_atom_site_fract_x
_atom_site_fract_y
_atom_site_fract_z
_atom_type_partial_charge
C0 C 0.9293 0.48383 0.33915 0.0
C1 C 0.92055 0.46489 0.35168 0.0
C2 C 0.95164 0.49389 0.33239 0.0
C3 C 0.96575 0.48524 0.33793 0.0
C4 C 0.93489 0.45651 0.35749 0.0
C5 C 0.95735 0.46671 0.35077 0.0
C6 C 0.98941 0.49597 0.33068 0.0
C7 C 0.94426 0.4598 0.27969 0.0
C8 C 0.94338 0.47496 0.26618 0.0
C9 C 0.96091 0.46775 0.29419 0.0
C10 C 0.97714 0.49096 0.29538 0.0
C11 C 0.95977 0.49824 0.26748 0.0
C12 C 0.97663 0.5061 0.2818 0.0
C13 C 0.99474 0.49955 0.3107 0.0
C14 C 0.09722 0.54049 0.31051 0.0
C15 C 0.10279 0.55728 0.29616 0.0
C16 C 0.07492 0.52779 0.31749 0.0
C17 C 0.05786 0.53198 0.31056 0.0
C18 C 0.08537 0.56055 0.28859 0.0
C19 C 0.0632 0.54807 0.29572 0.0
C20 C 0.03432 0.51961 0.31831 0.0
C21 C 0.07993 0.55821 0.36832 0.0
C22 C 0.07829 0.54487 0.38451 0.0
C23 C 0.0638 0.54913 0.35342 0.0
C24 C 0.04627 0.52626 0.3541 0.0
C25 C 0.06031 0.52232 0.38559 0.0
C26 C 0.04448 0.51308 0.37048 0.0
C27 C 0.02898 0.51628 0.33843 0.0
H28 H 0.91902 0.49117 0.3348 0.0
H29 H 0.95798 0.5086 0.32294 0.0
H30 H 0.92869 0.4419 0.36703 0.0
H31 H 0.96805 0.45992 0.35534 0.0
H32 H 0.93229 0.44172 0.27893 0.0
H33 H 0.96126 0.45573 0.30438 0.0
H34 H 0.95946 0.51052 0.25761 0.0
H35 H 0.989 0.5241 0.28253 0.0
H36 H 0.11016 0.5375 0.31669 0.0
H37 H 0.07109 0.51494 0.32849 0.0
H38 H 0.08884 0.57285 0.27715 0.0
H39 H 0.05027 0.55132 0.28985 0.0
H40 H 0.09346 0.57578 0.36739 0.0
H41 H 0.065 0.56005 0.34145 0.0
H42 H 0.05871 0.51177 0.398 0.0
H43 H 0.0309 0.49554 0.37152 0.0
N44 N 0.0067 0.50437 0.34379 0.0
N45 N 0.01693 0.51127 0.30528 0.0
C46 C 0.40896 0.92855 0.51399 0.0
C47 C 0.41918 0.92076 0.52741 0.0
C48 C 0.42098 0.95073 0.50674 0.0
C49 C 0.44345 0.9655 0.51272 0.0
C50 C 0.44149 0.93577 0.53374 0.0
C51 C 0.45344 0.95801 0.52657 0.0
C52 C 0.45665 0.98871 0.50454 0.0
C53 C 0.44705 0.93989 0.45671 0.0
C54 C 0.43641 0.94177 0.43987 0.0
C55 C 0.45448 0.95658 0.47112 0.0
C56 C 0.45069 0.97507 0.4693 0.0
C57 C 0.43311 0.96049 0.43776 0.0
C58 C 0.44013 0.97697 0.45238 0.0
C59 C 0.45892 0.9932 0.4843 0.0
C60 C 0.52735 0.09326 0.48102 0.0
C61 C 0.51665 0.10126 0.4683 0.0
C62 C 0.51559 0.07099 0.48812 0.0
C63 C 0.49287 0.05632 0.48275 0.0
C64 C 0.49407 0.08626 0.46253 0.0
C65 C 0.48236 0.06396 0.46958 0.0
C66 C 0.47996 0.03304 0.49082 0.0
C67 C 0.4933 0.0822 0.53937 0.0
C68 C 0.50804 0.08188 0.55359 0.0
C69 C 0.48323 0.06471 0.52565 0.0
C70 C 0.48782 0.04669 0.52584 0.0
C71 C 0.51207 0.06347 0.55405 0.0
C72 C 0.50195 0.04599 0.54038 0.0
C73 C 0.47803 0.02851 0.511 0.0
H74 H 0.39184 0.91734 0.50879 0.0
H75 H 0.41279 0.95629 0.49631 0.0
H76 H 0.44967 0.93034 0.54428 0.0
H77 H 0.47069 0.96922 0.53151 0.0
H78 H 0.45023 0.92585 0.45844 0.0
H79 H 0.46356 0.95519 0.48352 0.0
H80 H 0.42502 0.96232 0.42484 0.0
H81 H 0.4373 0.99121 0.45048 0.0
H82 H 0.54485 0.10418 0.48546 0.0
H83 H 0.52423 0.06525 0.49789 0.0
H84 H 0.48521 0.09189 0.45293 0.0
H85 H 0.46488 0.05286 0.46517 0.0
H86 H 0.48989 0.09615 0.53864 0.0
H87 H 0.47196 0.06534 0.51481 0.0
H88 H 0.523 0.06254 0.56506 0.0
H89 H 0.50551 0.03211 0.54092 0.0
N90 N 0.46652 0.00652 0.5171 0.0
N91 N 0.47028 0.01523 0.47824 0.0
C92 C 0.56349 0.49908 0.61257 0.0
C93 C 0.54877 0.48285 0.59896 0.0
C94 C 0.55486 0.50661 0.62747 0.0
C95 C 0.53139 0.49827 0.62895 0.0
C96 C 0.52523 0.47469 0.60051 0.0
C97 C 0.51668 0.48255 0.61521 0.0
C98 C 0.52208 0.50587 0.6448 0.0
C99 C 0.5418 0.45786 0.67037 0.0
C100 C 0.55907 0.4673 0.68448 0.0
C101 C 0.53106 0.46966 0.66406 0.0
C102 C 0.53768 0.49143 0.67138 0.0
C103 C 0.56524 0.48879 0.69227 0.0
C104 C 0.5546 0.50074 0.68578 0.0
C105 C 0.5262 0.50392 0.66465 0.0
C106 C 0.46441 0.5302 0.7057 0.0
C107 C 0.47923 0.54499 0.72004 0.0
C108 C 0.47269 0.5225 0.69064 0.0
C109 C 0.496 0.52974 0.68944 0.0
C110 C 0.50243 0.55159 0.7191 0.0
C111 C 0.5107 0.54397 0.704 0.0
C112 C 0.50518 0.52217 0.67341 0.0
C113 C 0.47642 0.5632 0.64692 0.0
C114 C 0.45994 0.55175 0.63238 0.0
C115 C 0.49003 0.5545 0.65362 0.0
C116 C 0.48698 0.53378 0.64638 0.0
C117 C 0.45771 0.53156 0.62458 0.0
C118 C 0.47099 0.52268 0.63153 0.0
C119 C 0.50071 0.52375 0.65349 0.0
H120 H 0.58172 0.50618 0.61163 0.0
H121 H 0.56652 0.51905 0.63778 0.0
H122 H 0.51328 0.46191 0.59059 0.0
H123 H 0.4985 0.47591 0.61616 0.0
H124 H 0.53623 0.44107 0.66449 0.0
H125 H 0.51735 0.46159 0.6536 0.0
H126 H 0.57845 0.49644 0.70321 0.0
H127 H 0.55974 0.51734 0.69186 0.0
H128 H 0.44647 0.52484 0.70594 0.0
H129 H 0.46091 0.51103 0.67985 0.0
H130 H 0.51422 0.56256 0.73013 0.0
H131 H 0.52867 0.54945 0.70354 0.0
H132 H 0.47866 0.57874 0.65337 0.0
H133 H 0.50286 0.56396 0.66452 0.0
H134 H 0.44575 0.52258 0.61297 0.0
H135 H 0.46859 0.50693 0.62539 0.0
N136 N 0.50934 0.51546 0.64 0.0
N137 N 0.51782 0.5124 0.67819 0.0
C138 C 0.92902 0.40532 0.81585 0.0
C139 C 0.92202 0.41535 0.80157 0.0
C140 C 0.95154 0.41632 0.82231 0.0
C141 C 0.96745 0.43779 0.8149 0.0
C142 C 0.93815 0.43641 0.79359 0.0
C143 C 0.96068 0.44751 0.80019 0.0
C144 C 0.99111 0.45011 0.82238 0.0
C145 C 0.94744 0.44867 0.87186 0.0
C146 C 0.94387 0.43194 0.88575 0.0
C147 C 0.96446 0.45533 0.85782 0.0
C148 C 0.97848 0.44564 0.8575 0.0
C149 C 0.95814 0.42239 0.8854 0.0
C150 C 0.97547 0.4294 0.87154 0.0
C151 C 0.99624 0.45259 0.84246 0.0
C152 C 0.09452 0.52248 0.84586 0.0
C153 C 0.10418 0.51199 0.85697 0.0
C154 C 0.0723 0.50984 0.83877 0.0
C155 C 0.05918 0.48652 0.84282 0.0
C156 C 0.09075 0.48858 0.86112 0.0
C157 C 0.06839 0.47607 0.85432 0.0
C158 C 0.03583 0.47302 0.83514 0.0
C159 C 0.08496 0.48851 0.78611 0.0
C160 C 0.0817 0.49935 0.77007 0.0
C161 C 0.06829 0.47872 0.80055 0.0
C162 C 0.04847 0.48042 0.79958 0.0
C163 C 0.06154 0.50024 0.76865 0.0
C164 C 0.04512 0.49095 0.78331 0.0
C165 C 0.03078 0.47077 0.815 0.0
H166 H 0.91711 0.38886 0.82194 0.0
H167 H 0.9565 0.408 0.83311 0.0
H168 H 0.93324 0.44456 0.78258 0.0
H169 H 0.97269 0.46395 0.79411 0.0
H170 H 0.9373 0.45691 0.87191 0.0
H171 H 0.96679 0.46818 0.84726 0.0
H172 H 0.95578 0.40926 0.89564 0.0
H173 H 0.98618 0.42175 0.87147 0.0
H174 H 0.10401 0.54052 0.84271 0.0
H175 H 0.06531 0.51827 0.83015 0.0
H176 H 0.09759 0.47972 0.8693 0.0
H177 H 0.05847 0.45807 0.85761 0.0
H178 H 0.10024 0.4873 0.78729 0.0
H179 H 0.07089 0.4697 0.81234 0.0
H180 H 0.0587 0.50852 0.75635 0.0
H181 H 0.0299 0.49225 0.78204 0.0
N182 N 0.00856 0.45945 0.80943 0.0
N183 N 0.01838 0.46379 0.84811 0.0
C184 C 0.48752 0.93193 0.97992 0.0
C185 C 0.47027 0.92328 0.96575 0.0
C186 C 0.49574 0.95378 0.98744 0.0
C187 C 0.48686 0.96739 0.98094 0.0
C188 C 0.4614 0.93693 0.95926 0.0
C189 C 0.46982 0.95891 0.96666 0.0
C190 C 0.49606 0.99078 0.98846 0.0
C191 C 0.45729 0.94322 0.03739 0.0
C192 C 0.47084 0.94484 0.05348 0.0
C193 C 0.4659 0.95975 0.02276 0.0
C194 C 0.48829 0.97811 0.02385 0.0
C195 C 0.49311 0.96345 0.05467 0.0
C196 C 0.50169 0.97996 0.04005 0.0
C197 C 0.49771 0.99583 0.00852 0.0
C198 C 0.53776 0.0984 0.00859 0.0
C199 C 0.55369 0.10394 0.02371 0.0
C200 C 0.52538 0.07608 0.00158 0.0
C201 C 0.52912 0.059 0.00921 0.0
C202 C 0.55629 0.08644 0.03206 0.0
C203 C 0.5442 0.06428 0.02487 0.0
C204 C 0.51753 0.03556 0.00123 0.0
C205 C 0.55853 0.08253 0.95258 0.0
C206 C 0.54595 0.08079 0.93582 0.0
C207 C 0.54904 0.06603 0.96719 0.0
C208 C 0.52646 0.04802 0.96564 0.0
C209 C 0.52377 0.06231 0.93386 0.0
C210 C 0.51409 0.04611 0.94867 0.0
C211 C 0.5159 0.03049 0.98108 0.0
H212 H 0.49458 0.92175 0.98526 0.0
H213 H 0.50922 0.96014 0.99818 0.0
H214 H 0.44827 0.93077 0.9482 0.0
H215 H 0.46292 0.96925 0.96132 0.0
H216 H 0.4401 0.92906 0.03602 0.0
H217 H 0.455 0.95823 0.01066 0.0
H218 H 0.50385 0.96541 0.06703 0.0
H219 H 0.51892 0.99411 0.04132 0.0
H220 H 0.53525 0.11138 0.0018 0.0
H221 H 0.51324 0.0723 0.98994 0.0
H222 H 0.56786 0.08987 0.04411 0.0
H223 H 0.54705 0.05133 0.0313 0.0
H224 H 0.57581 0.09646 0.95422 0.0
H225 H 0.55938 0.06737 0.97967 0.0
H226 H 0.5138 0.06063 0.921 0.0
H227 H 0.49681 0.03218 0.94695 0.0
N228 N 0.50505 0.00827 0.97553 0.0
N229 N 0.50849 0.01799 0.0141 0.0
C230 C 0.52517 0.60961 0.17458 0.0
C231 C 0.50781 0.59928 0.18854 0.0
C232 C 0.53642 0.59848 0.16778 0.0
C233 C 0.5302 0.57655 0.17445 0.0
C234 C 0.50221 0.57774 0.19583 0.0
C235 C 0.51333 0.56648 0.18884 0.0
C236 C 0.54154 0.56434 0.16671 0.0
C237 C 0.5022 0.56948 0.11652 0.0
C238 C 0.51615 0.58656 0.10317 0.0
C239 C 0.5117 0.56196 0.13065 0.0
C240 C 0.53533 0.57113 0.1316 0.0
C241 C 0.53989 0.59562 0.10419 0.0
C242 C 0.54934 0.58776 0.11813 0.0
C243 C 0.54529 0.5632 0.14663 0.0
C244 C 0.58144 0.49822 0.1434 0.0
C245 C 0.59914 0.50946 0.1298 0.0
C246 C 0.57007 0.50891 0.15099 0.0
C247 C 0.57649 0.53128 0.1455 0.0
C248 C 0.60497 0.53157 0.12384 0.0
C249 C 0.59374 0.54232 0.13159 0.0
C250 C 0.56485 0.54303 0.15355 0.0
C251 C 0.59759 0.52769 0.20357 0.0
C252 C 0.5817 0.5123 0.217 0.0
C253 C 0.591 0.53831 0.18965 0.0
C254 C 0.56835 0.53354 0.18879 0.0
C255 C 0.55923 0.50819 0.21648 0.0
C256 C 0.55267 0.51879 0.20257 0.0
C257 C 0.56072 0.54376 0.17366 0.0
H258 H 0.53024 0.62644 0.16906 0.0
H259 H 0.55004 0.6071 0.15733 0.0
H260 H 0.48891 0.5694 0.20661 0.0
H261 H 0.50844 0.54971 0.1944 0.0
H262 H 0.48385 0.5616 0.11593 0.0
H263 H 0.50058 0.54881 0.14075 0.0
H264 H 0.55125 0.60901 0.0944 0.0
H265 H 0.56763 0.59501 0.11867 0.0
H266 H 0.57653 0.48125 0.14841 0.0
H267 H 0.55628 0.49968 0.16118 0.0
H268 H 0.61812 0.54056 0.11307 0.0
H269 H 0.5987 0.55941 0.12684 0.0
H270 H 0.61501 0.5312 0.20358 0.0
H271 H 0.60354 0.55006 0.17944 0.0
H272 H 0.5467 0.49681 0.22688 0.0
H273 H 0.53519 0.5151 0.20233 0.0
N274 N 0.54917 0.55434 0.17946 0.0
N275 N 0.55699 0.55284 0.14081 0.0
O276 O 0.61322 0.38766 0.42938 0.0
Cd277 Cd 0.61891 0.37245 0.40579 0.0
Cd278 Cd 0.66103 0.40833 0.40904 0.0
O279 O 0.64902 0.41325 0.43517 0.0
O280 O 0.59316 0.3406 0.40618 0.0
O281 O 0.62903 0.34956 0.41031 0.0
C282 C 0.60775 0.33415 0.40967 0.0
C283 C 0.69659 0.41086 0.40798 0.0
C284 C 0.62812 0.4035 0.43988 0.0
C285 C 0.63394 0.40537 0.37314 0.0
O286 O 0.65131 0.41751 0.38363 0.0
O287 O 0.6191 0.38556 0.37873 0.0
O288 O 0.69458 0.42868 0.40971 0.0
O289 O 0.67819 0.39125 0.40741 0.0
O290 O 0.23836 0.59948 0.59895 0.0
Cd291 Cd 0.25967 0.61257 0.57512 0.0
Cd292 Cd 0.25372 0.64754 0.58237 0.0
O293 O 0.24178 0.63189 0.60893 0.0
O294 O 0.27354 0.59294 0.57234 0.0
O295 O 0.29353 0.62956 0.57957 0.0
C296 C 0.29288 0.61043 0.57668 0.0
C297 C 0.2811 0.68597 0.58042 0.0
C298 C 0.23473 0.61089 0.61167 0.0
C299 C 0.23305 0.62122 0.54584 0.0
O300 O 0.23238 0.63445 0.55856 0.0
O301 O 0.24525 0.61212 0.5486 0.0
O302 O 0.26024 0.67944 0.58479 0.0
O303 O 0.28665 0.67052 0.57776 0.0
O304 O 0.63573 0.23759 0.76395 0.0
Cd305 Cd 0.64952 0.25886 0.74033 0.0
Cd306 Cd 0.6142 0.26514 0.74598 0.0
O307 O 0.61165 0.24901 0.77221 0.0
O308 O 0.68122 0.26468 0.73844 0.0
O309 O 0.67292 0.29161 0.74514 0.0
C310 C 0.68809 0.28561 0.7428 0.0
C311 C 0.61347 0.29911 0.74507 0.0
C312 C 0.62119 0.23735 0.77574 0.0
C313 C 0.61437 0.24107 0.70933 0.0
O314 O 0.6026 0.24559 0.72096 0.0
O315 O 0.63471 0.24665 0.71364 0.0
O316 O 0.59535 0.27991 0.74849 0.0
O317 O 0.6324 0.29915 0.74282 0.0
O318 O 0.42403 0.65516 0.93364 0.0
Cd319 Cd 0.41298 0.66392 0.90897 0.0
Cd320 Cd 0.37599 0.62332 0.91461 0.0
O321 O 0.39115 0.62511 0.9412 0.0
O322 O 0.43296 0.69742 0.90656 0.0
O323 O 0.39587 0.68088 0.91168 0.0
C324 C 0.41523 0.69933 0.90957 0.0
C325 C 0.33811 0.61431 0.91305 0.0
C326 C 0.41183 0.63906 0.94527 0.0
C327 C 0.40401 0.62882 0.87899 0.0
O328 O 0.38822 0.615 0.89022 0.0
O329 O 0.41529 0.64986 0.88317 0.0
O330 O 0.34355 0.59912 0.91728 0.0
O331 O 0.35432 0.63496 0.91023 0.0
O332 O 0.77993 0.37143 0.05277 0.0
Cd333 Cd 0.75861 0.36334 0.07657 0.0
Cd334 Cd 0.76576 0.40485 0.07011 0.0
O335 O 0.77875 0.40201 0.04381 0.0
O336 O 0.74366 0.3297 0.07885 0.0
O337 O 0.72474 0.34764 0.07235 0.0
C338 C 0.72462 0.32871 0.0749 0.0
C339 C 0.73844 0.41599 0.07163 0.0
C340 C 0.78484 0.38738 0.04065 0.0
C341 C 0.78539 0.39753 0.10665 0.0
O342 O 0.7861 0.41196 0.09446 0.0
O343 O 0.77335 0.37637 0.1032 0.0
O344 O 0.75951 0.43045 0.06806 0.0
O345 O 0.73269 0.39485 0.0737 0.0
O346 O 0.41114 0.7871 0.2241 0.0
Cd347 Cd 0.40632 0.76834 0.24909 0.0
Cd348 Cd 0.36364 0.76114 0.24641 0.0
O349 O 0.37556 0.77901 0.22069 0.0
O350 O 0.43148 0.76135 0.24983 0.0
O351 O 0.39528 0.73494 0.24634 0.0
C352 C 0.41639 0.74024 0.24732 0.0
C353 C 0.32847 0.72761 0.24677 0.0
C354 C 0.39598 0.78879 0.2146 0.0
C355 C 0.39085 0.78639 0.28173 0.0
O356 O 0.37259 0.77932 0.27206 0.0
O357 O 0.4066 0.78312 0.27545 0.0
O358 O 0.33002 0.74727 0.24533 0.0
O359 O 0.34711 0.72687 0.2475 0.0
H360 H 0.12464 0.60266 0.28748 0.0
H361 H 0.16341 0.62648 0.27578 0.0
H362 H 0.17453 0.56931 0.27857 0.0
H363 H 0.13528 0.54496 0.28976 0.0
H364 H 0.21003 0.60989 0.29514 0.0
H365 H 0.16861 0.58526 0.23561 0.0
H366 H 0.13757 0.5775 0.21272 0.0
H367 H 0.15813 0.64848 0.21185 0.0
H368 H 0.18909 0.65663 0.23497 0.0
H369 H 0.31871 0.68343 0.25171 0.0
H370 H 0.28114 0.64979 0.2569 0.0
H371 H 0.24993 0.69147 0.25138 0.0
H372 H 0.28708 0.72482 0.24583 0.0
H373 H 0.22524 0.65245 0.23304 0.0
H374 H 0.2616 0.67605 0.29621 0.0
H375 H 0.29183 0.6847 0.32029 0.0
H376 H 0.28022 0.61665 0.31515 0.0
H377 H 0.2501 0.60769 0.29084 0.0
C378 C 0.13512 0.59496 0.28532 0.0
C379 C 0.12667 0.57177 0.28937 0.0
C380 C 0.15735 0.60867 0.27872 0.0
C381 C 0.17172 0.59958 0.27609 0.0
C382 C 0.16363 0.5766 0.28046 0.0
C383 C 0.14125 0.56276 0.28694 0.0
C384 C 0.19526 0.61445 0.26901 0.0
C385 C 0.21346 0.61883 0.28136 0.0
C386 C 0.19961 0.62631 0.25116 0.0
C387 C 0.1811 0.62153 0.23713 0.0
C388 C 0.16642 0.59919 0.23065 0.0
C389 C 0.14885 0.59473 0.21761 0.0
C390 C 0.14586 0.61248 0.21086 0.0
C391 C 0.16047 0.63475 0.21709 0.0
C392 C 0.17805 0.6393 0.23015 0.0
C393 C 0.30379 0.68534 0.2514 0.0
C394 C 0.30589 0.70682 0.24846 0.0
C395 C 0.28236 0.66613 0.25445 0.0
C396 C 0.26273 0.66815 0.25475 0.0
C397 C 0.2648 0.68946 0.2512 0.0
C398 C 0.28611 0.70857 0.24809 0.0
C399 C 0.24001 0.64849 0.25945 0.0
C400 C 0.22192 0.64317 0.24663 0.0
C401 C 0.23576 0.63592 0.27694 0.0
C402 C 0.25383 0.64129 0.29154 0.0
C403 C 0.26563 0.66299 0.30011 0.0
C404 C 0.28271 0.66794 0.31381 0.0
C405 C 0.288 0.65126 0.31919 0.0
C406 C 0.27615 0.62957 0.31093 0.0
C407 C 0.25907 0.62454 0.29719 0.0
H408 H 0.30122 0.65512 0.32981 0.0
H409 H 0.13225 0.60899 0.20077 0.0
H410 H 0.54519 0.13952 0.48914 0.0
H411 H 0.5636 0.17907 0.47834 0.0
H412 H 0.53316 0.15719 0.42159 0.0
H413 H 0.51554 0.11751 0.43199 0.0
H414 H 0.57601 0.1916 0.41833 0.0
H415 H 0.50959 0.17575 0.45634 0.0
H416 H 0.48544 0.16301 0.48571 0.0
H417 H 0.53989 0.21506 0.51939 0.0
H418 H 0.56445 0.2279 0.49027 0.0
H419 H 0.56405 0.29927 0.41243 0.0
H420 H 0.55086 0.25986 0.42146 0.0
H421 H 0.62033 0.27458 0.42565 0.0
H422 H 0.63378 0.31429 0.4166 0.0
H423 H 0.55891 0.24405 0.45534 0.0
H424 H 0.61991 0.22467 0.41194 0.0
H425 H 0.64234 0.23659 0.38157 0.0
H426 H 0.59507 0.25405 0.35658 0.0
H427 H 0.57222 0.24195 0.38668 0.0
C428 C 0.54274 0.14305 0.47424 0.0
C429 C 0.52874 0.12529 0.46147 0.0
C430 C 0.55312 0.16571 0.46815 0.0
C431 C 0.54949 0.17111 0.44924 0.0
C432 C 0.53614 0.15343 0.43627 0.0
C433 C 0.52586 0.13075 0.44231 0.0
C434 C 0.55872 0.19516 0.44322 0.0
C435 C 0.57236 0.2031 0.42647 0.0
C436 C 0.5538 0.21013 0.45374 0.0
C437 C 0.53891 0.20265 0.47118 0.0
C438 C 0.51644 0.18439 0.47004 0.0
C439 C 0.50268 0.17716 0.48664 0.0
C440 C 0.51115 0.18817 0.50442 0.0
C441 C 0.53336 0.20651 0.50563 0.0
C442 C 0.5472 0.21379 0.48907 0.0
C443 C 0.57658 0.29416 0.41511 0.0
C444 C 0.59999 0.30994 0.41381 0.0
C445 C 0.56899 0.27162 0.42036 0.0
C446 C 0.5846 0.26431 0.42424 0.0
C447 C 0.608 0.27987 0.4226 0.0
C448 C 0.61565 0.30253 0.41745 0.0
C449 C 0.57619 0.24049 0.43046 0.0
C450 C 0.56273 0.23261 0.4473 0.0
C451 C 0.58106 0.22554 0.41989 0.0
C452 C 0.59453 0.23266 0.40165 0.0
C453 C 0.61429 0.231 0.39994 0.0
C454 C 0.62707 0.23779 0.38278 0.0
C455 C 0.62018 0.24616 0.36719 0.0
C456 C 0.60045 0.24767 0.3687 0.0
C457 C 0.5876 0.24088 0.38582 0.0
H458 H 0.6301 0.25141 0.35392 0.0
H459 H 0.50047 0.18253 0.51726 0.0
H460 H 0.47053 0.59639 0.62787 0.0
H461 H 0.44552 0.61044 0.61679 0.0
H462 H 0.39087 0.5415 0.60923 0.0
H463 H 0.41516 0.52721 0.62123 0.0
H464 H 0.39871 0.57191 0.57661 0.0
H465 H 0.3875 0.56639 0.64639 0.0
H466 H 0.4002 0.57435 0.6805 0.0
H467 H 0.42949 0.64604 0.6702 0.0
H468 H 0.41715 0.63845 0.63587 0.0
H469 H 0.29577 0.57212 0.57206 0.0
H470 H 0.32807 0.56698 0.57903 0.0
H471 H 0.36856 0.63798 0.59419 0.0
H472 H 0.33592 0.64319 0.58758 0.0
H473 H 0.37285 0.61212 0.621 0.0
H474 H 0.3791 0.61725 0.55211 0.0
H475 H 0.36613 0.60906 0.51803 0.0
H476 H 0.34691 0.53895 0.52599 0.0
H477 H 0.35946 0.54662 0.56021 0.0
C478 C 0.45311 0.58416 0.62413 0.0
C479 C 0.44498 0.5606 0.62544 0.0
C480 C 0.43892 0.59226 0.61764 0.0
C481 C 0.41642 0.57698 0.61212 0.0
C482 C 0.40827 0.55354 0.61324 0.0
C483 C 0.42229 0.54543 0.62002 0.0
C484 C 0.40111 0.58527 0.60545 0.0
C485 C 0.39294 0.58062 0.58629 0.0
C486 C 0.39423 0.59725 0.61794 0.0
C487 C 0.40169 0.60187 0.63852 0.0
C488 C 0.39686 0.58386 0.65135 0.0
C489 C 0.40394 0.58831 0.67074 0.0
C490 C 0.41574 0.61071 0.67752 0.0
C491 C 0.4204 0.6287 0.66492 0.0
C492 C 0.41335 0.62433 0.64549 0.0
C493 C 0.3116 0.58675 0.57666 0.0
C494 C 0.31327 0.60808 0.57925 0.0
C495 C 0.33013 0.5838 0.58054 0.0
C496 C 0.35087 0.60215 0.5869 0.0
C497 C 0.35274 0.6236 0.58923 0.0
C498 C 0.33412 0.62656 0.58538 0.0
C499 C 0.36996 0.59838 0.59216 0.0
C500 C 0.37889 0.60383 0.6111 0.0
C501 C 0.37762 0.58722 0.5794 0.0
C502 C 0.3701 0.5825 0.55878 0.0
C503 C 0.37196 0.60005 0.54664 0.0
C504 C 0.36471 0.5955 0.52728 0.0
C505 C 0.35567 0.57349 0.51985 0.0
C506 C 0.35391 0.55599 0.53176 0.0
C507 C 0.36113 0.56044 0.55113 0.0
H508 H 0.35006 0.57001 0.50487 0.0
H509 H 0.4212 0.61413 0.69254 0.0
H510 H 0.90553 0.40948 0.76437 0.0
H511 H 0.86569 0.38972 0.75401 0.0
H512 H 0.84429 0.37584 0.81402 0.0
H513 H 0.88406 0.39528 0.8244 0.0
H514 H 0.82073 0.33928 0.79361 0.0
H515 H 0.84025 0.417 0.78707 0.0
H516 H 0.86282 0.45677 0.77596 0.0
H517 H 0.8488 0.43477 0.71645 0.0
H518 H 0.8264 0.39481 0.7272 0.0
H519 H 0.70789 0.329 0.75735 0.0
H520 H 0.74779 0.35337 0.76677 0.0
H521 H 0.76333 0.3029 0.74544 0.0
H522 H 0.7236 0.2784 0.73629 0.0
H523 H 0.78868 0.37313 0.74844 0.0
H524 H 0.79903 0.29831 0.77685 0.0
H525 H 0.77521 0.2599 0.79063 0.0
H526 H 0.72748 0.27894 0.81164 0.0
H527 H 0.75116 0.31754 0.79824 0.0
C528 C 0.89231 0.40238 0.77534 0.0
C529 C 0.8979 0.40388 0.79519 0.0
C530 C 0.86954 0.39113 0.76942 0.0
C531 C 0.85195 0.38147 0.78324 0.0
C532 C 0.85755 0.38308 0.80308 0.0
C533 C 0.88027 0.39415 0.80899 0.0
C534 C 0.82772 0.36907 0.77706 0.0
C535 C 0.81377 0.34673 0.78374 0.0
C536 C 0.81844 0.37888 0.76446 0.0
C537 C 0.83181 0.40289 0.75794 0.0
C538 C 0.84212 0.42062 0.77161 0.0
C539 C 0.85486 0.44321 0.76538 0.0
C540 C 0.85729 0.44829 0.74551 0.0
C541 C 0.84693 0.4308 0.73184 0.0
C542 C 0.83419 0.40819 0.73799 0.0
C543 C 0.71987 0.32324 0.75445 0.0
C544 C 0.71254 0.30167 0.74627 0.0
C545 C 0.74266 0.33719 0.75981 0.0
C546 C 0.75843 0.32976 0.75711 0.0
C547 C 0.75136 0.30878 0.74799 0.0
C548 C 0.72864 0.29482 0.74271 0.0
C549 C 0.78197 0.34329 0.76471 0.0
C550 C 0.79573 0.36576 0.7583 0.0
C551 C 0.79096 0.33383 0.77796 0.0
C552 C 0.77678 0.31075 0.78636 0.0
C553 C 0.7835 0.29433 0.78449 0.0
C554 C 0.77002 0.27252 0.79222 0.0
C555 C 0.74981 0.26696 0.80195 0.0
C556 C 0.74309 0.28324 0.80404 0.0
C557 C 0.75653 0.30508 0.79636 0.0
H558 H 0.73938 0.25006 0.80791 0.0
H559 H 0.86716 0.46579 0.74072 0.0
H560 H 0.42614 0.88962 0.96022 0.0
H561 H 0.41259 0.8511 0.94761 0.0
H562 H 0.482 0.86654 0.94032 0.0
H563 H 0.4956 0.90497 0.95281 0.0
H564 H 0.45424 0.84388 0.90836 0.0
H565 H 0.45331 0.83713 0.97867 0.0
H566 H 0.44196 0.84107 0.01188 0.0
H567 H 0.3716 0.79831 0.99677 0.0
H568 H 0.38256 0.79437 0.96336 0.0
H569 H 0.45393 0.74052 0.90649 0.0
H570 H 0.45863 0.77793 0.91267 0.0
H571 H 0.38658 0.74746 0.92341 0.0
H572 H 0.38178 0.70965 0.9176 0.0
H573 H 0.41011 0.77703 0.95119 0.0
H574 H 0.41093 0.77942 0.88215 0.0
H575 H 0.42193 0.77522 0.84889 0.0
H576 H 0.49125 0.82582 0.86074 0.0
H577 H 0.48074 0.8301 0.89419 0.0
C578 C 0.43847 0.88481 0.95576 0.0
C579 C 0.46192 0.90022 0.95758 0.0
C580 C 0.43072 0.86282 0.94866 0.0
C581 C 0.44631 0.85597 0.94313 0.0
C582 C 0.46971 0.87151 0.94451 0.0
C583 C 0.47744 0.89337 0.95178 0.0
C584 C 0.43843 0.83245 0.93639 0.0
C585 C 0.44468 0.82923 0.91771 0.0
C586 C 0.42531 0.81334 0.9484 0.0
C587 C 0.41873 0.8157 0.96847 0.0
C588 C 0.43541 0.82874 0.98238 0.0
C589 C 0.42905 0.83093 0.00126 0.0
C590 C 0.40606 0.82 0.00642 0.0
C591 C 0.38939 0.8068 0.99274 0.0
C592 C 0.39567 0.80458 0.97384 0.0
C593 C 0.43899 0.74172 0.90994 0.0
C594 C 0.41747 0.72208 0.91156 0.0
C595 C 0.4417 0.76319 0.91336 0.0
C596 C 0.42292 0.76558 0.91827 0.0
C597 C 0.4013 0.74603 0.91958 0.0
C598 C 0.39858 0.72446 0.91619 0.0
C599 C 0.42634 0.78839 0.92323 0.0
C600 C 0.41929 0.79154 0.94161 0.0
C601 C 0.43862 0.80743 0.91088 0.0
C602 C 0.44505 0.80497 0.89074 0.0
C603 C 0.42855 0.78954 0.87772 0.0
C604 C 0.4347 0.78716 0.85882 0.0
C605 C 0.45728 0.80022 0.85271 0.0
C606 C 0.47376 0.81571 0.86549 0.0
C607 C 0.46771 0.81815 0.88442 0.0
H608 H 0.462 0.79835 0.83807 0.0
H609 H 0.40113 0.8217 0.02103 0.0
H610 H 0.6447 0.52907 0.1219 0.0
H611 H 0.66515 0.51082 0.10907 0.0
H612 H 0.60275 0.44627 0.10782 0.0
H613 H 0.58191 0.46448 0.12009 0.0
H614 H 0.63916 0.44418 0.12486 0.0
H615 H 0.62352 0.47237 0.06633 0.0
H616 H 0.62275 0.50132 0.04516 0.0
H617 H 0.6956 0.54158 0.04782 0.0
H618 H 0.6968 0.51303 0.06925 0.0
H619 H 0.69234 0.39002 0.07721 0.0
H620 H 0.66566 0.40349 0.08423 0.0
H621 H 0.72048 0.47298 0.08001 0.0
H622 H 0.74697 0.4597 0.07244 0.0
H623 H 0.6842 0.46962 0.06384 0.0
H624 H 0.70045 0.44508 0.12454 0.0
H625 H 0.70269 0.41796 0.14705 0.0
H626 H 0.63064 0.37292 0.14178 0.0
H627 H 0.62803 0.39967 0.11902 0.0
C628 C 0.63519 0.51106 0.11861 0.0
C629 C 0.61159 0.4983 0.12197 0.0
C630 C 0.64696 0.50064 0.11136 0.0
C631 C 0.63542 0.47724 0.10735 0.0
C632 C 0.61195 0.46436 0.11083 0.0
C633 C 0.60011 0.4748 0.11795 0.0
C634 C 0.64807 0.46624 0.09993 0.0
C635 C 0.64868 0.44941 0.11133 0.0
C636 C 0.66088 0.47348 0.08252 0.0
C637 C 0.66023 0.49063 0.06953 0.0
C638 C 0.63937 0.48748 0.06253 0.0
C639 C 0.63885 0.5038 0.05045 0.0
C640 C 0.65911 0.5233 0.04518 0.0
C641 C 0.67992 0.52648 0.05193 0.0
C642 C 0.68053 0.51022 0.06402 0.0
C643 C 0.69863 0.40816 0.07759 0.0
C644 C 0.72179 0.42379 0.07438 0.0
C645 C 0.6834 0.41584 0.0817 0.0
C646 C 0.69112 0.43927 0.08297 0.0
C647 C 0.71409 0.45484 0.07913 0.0
C648 C 0.72925 0.4472 0.07485 0.0
C649 C 0.67563 0.44775 0.08892 0.0
C650 C 0.67448 0.46415 0.07725 0.0
C651 C 0.66256 0.44033 0.10623 0.0
C652 C 0.66409 0.42424 0.11991 0.0
C653 C 0.68512 0.42931 0.12807 0.0
C654 C 0.68645 0.41402 0.14089 0.0
C655 C 0.66684 0.39369 0.14579 0.0
C656 C 0.64583 0.38865 0.13793 0.0
C657 C 0.64441 0.40387 0.12508 0.0
H658 H 0.6679 0.38188 0.15573 0.0
H659 H 0.65867 0.53591 0.03583 0.0
H660 H 0.43514 0.89109 0.53113 0.0
H661 H 0.4142 0.85146 0.54212 0.0
H662 H 0.35412 0.85693 0.55051 0.0
H663 H 0.37504 0.89664 0.53979 0.0
H664 H 0.36209 0.83525 0.58114 0.0
H665 H 0.35862 0.83144 0.511 0.0
H666 H 0.37507 0.83961 0.47798 0.0
H667 H 0.41206 0.80521 0.49121 0.0
H668 H 0.39608 0.79712 0.52444 0.0
H669 H 0.27326 0.72152 0.5831 0.0
H670 H 0.29953 0.76147 0.57612 0.0
H671 H 0.35285 0.7461 0.56433 0.0
H672 H 0.32635 0.70575 0.57091 0.0
H673 H 0.35167 0.77304 0.5368 0.0
H674 H 0.35316 0.7743 0.60618 0.0
H675 H 0.33727 0.76654 0.63939 0.0
H676 H 0.30488 0.8059 0.62811 0.0
H677 H 0.32031 0.81364 0.59472 0.0
C678 C 0.41753 0.8839 0.53551 0.0
C679 C 0.4067 0.89694 0.53456 0.0
C680 C 0.40556 0.86124 0.54165 0.0
C681 C 0.38257 0.85123 0.54698 0.0
C682 C 0.37185 0.86433 0.54642 0.0
C683 C 0.38376 0.88694 0.54017 0.0
C684 C 0.36953 0.82699 0.55285 0.0
C685 C 0.35962 0.8216 0.57141 0.0
C686 C 0.36694 0.80929 0.54033 0.0
C687 C 0.37635 0.8139 0.52028 0.0
C688 C 0.3704 0.82577 0.50692 0.0
C689 C 0.37961 0.83036 0.48816 0.0
C690 C 0.39466 0.82299 0.48252 0.0
C691 C 0.40044 0.81094 0.49561 0.0
C692 C 0.39129 0.80633 0.51441 0.0
C693 C 0.29062 0.7266 0.57921 0.0
C694 C 0.29772 0.71043 0.57761 0.0
C695 C 0.30568 0.74952 0.5753 0.0
C696 C 0.32827 0.75688 0.56994 0.0
C697 C 0.33551 0.74082 0.56849 0.0
C698 C 0.32038 0.71779 0.57233 0.0
C699 C 0.3439 0.78118 0.56507 0.0
C700 C 0.35431 0.78663 0.54667 0.0
C701 C 0.34703 0.79896 0.57778 0.0
C702 C 0.33777 0.79441 0.59788 0.0
C703 C 0.34252 0.78117 0.61073 0.0
C704 C 0.33361 0.7768 0.6296 0.0
C705 C 0.32004 0.78568 0.63584 0.0
C706 C 0.31539 0.79901 0.62325 0.0
C707 C 0.32424 0.80343 0.60436 0.0
H708 H 0.31317 0.78228 0.65046 0.0
H709 H 0.40179 0.82659 0.46799 0.0
H710 H 0.56815 0.46051 0.72195 0.0
H711 H 0.58259 0.43579 0.73303 0.0
H712 H 0.58912 0.42006 0.67336 0.0
H713 H 0.5745 0.44453 0.66226 0.0
H714 H 0.5673 0.38265 0.69327 0.0
H715 H 0.63614 0.45318 0.70214 0.0
H716 H 0.66049 0.49238 0.714 0.0
H717 H 0.64532 0.46892 0.77309 0.0
H718 H 0.6206 0.42959 0.76158 0.0
H719 H 0.64653 0.34082 0.73176 0.0
H720 H 0.64176 0.37317 0.72274 0.0
H721 H 0.57242 0.33683 0.74321 0.0
H722 H 0.57691 0.30447 0.752 0.0
H723 H 0.62914 0.40172 0.74104 0.0
H724 H 0.53919 0.3425 0.70988 0.0
H725 H 0.51699 0.30396 0.69593 0.0
H726 H 0.57867 0.30677 0.67706 0.0
H727 H 0.60119 0.34543 0.69063 0.0
C728 C 0.57307 0.4521 0.71121 0.0
C729 C 0.57004 0.45431 0.69125 0.0
C730 C 0.58135 0.438 0.71755 0.0
C731 C 0.58701 0.42609 0.70403 0.0
C732 C 0.58475 0.42896 0.68407 0.0
C733 C 0.57635 0.4429 0.67775 0.0
C734 C 0.59357 0.4093 0.71061 0.0
C735 C 0.58088 0.38691 0.70367 0.0
C736 C 0.61147 0.41484 0.72401 0.0
C737 C 0.62635 0.43846 0.73099 0.0
C738 C 0.63784 0.4564 0.71766 0.0
C739 C 0.65174 0.47864 0.72432 0.0
C740 C 0.65441 0.48314 0.74428 0.0
C741 C 0.64322 0.4654 0.75763 0.0
C742 C 0.62928 0.44313 0.75105 0.0
C743 C 0.6304 0.3399 0.73463 0.0
C744 C 0.612 0.31997 0.74235 0.0
C745 C 0.62772 0.3584 0.72952 0.0
C746 C 0.60663 0.35722 0.73201 0.0
C747 C 0.58874 0.33794 0.74088 0.0
C748 C 0.59135 0.31946 0.74591 0.0
C749 C 0.60256 0.37516 0.72394 0.0
C750 C 0.61564 0.39762 0.7306 0.0
C751 C 0.5853 0.36987 0.70997 0.0
C752 C 0.57187 0.34677 0.70144 0.0
C753 C 0.548 0.33492 0.70267 0.0
C754 C 0.53536 0.31306 0.69484 0.0
C755 C 0.54641 0.3029 0.68567 0.0
C756 C 0.57013 0.31462 0.68423 0.0
C757 C 0.58284 0.33651 0.692 0.0
H758 H 0.5366 0.28596 0.67965 0.0
H759 H 0.66518 0.50038 0.74941 0.0
H760 H 0.12228 0.50664 0.89111 0.0
H761 H 0.16179 0.52695 0.90156 0.0
H762 H 0.17996 0.5691 0.8502 0.0
H763 H 0.14086 0.54749 0.83873 0.0
H764 H 0.21004 0.55833 0.85518 0.0
H765 H 0.17643 0.58814 0.8983 0.0
H766 H 0.1489 0.5872 0.92223 0.0
H767 H 0.16882 0.55236 0.96294 0.0
H768 H 0.19627 0.55281 0.93916 0.0
H769 H 0.32096 0.63629 0.89171 0.0
H770 H 0.28088 0.62236 0.8837 0.0
H771 H 0.26088 0.56364 0.92016 0.0
H772 H 0.30086 0.57712 0.92786 0.0
H773 H 0.23271 0.58631 0.92277 0.0
H774 H 0.26436 0.5548 0.8768 0.0
H775 H 0.29263 0.55808 0.85254 0.0
H776 H 0.2767 0.60008 0.81668 0.0
H777 H 0.24856 0.59732 0.8409 0.0
C778 C 0.13466 0.52001 0.88184 0.0
C779 C 0.12818 0.52529 0.86399 0.0
C780 C 0.15728 0.53196 0.88806 0.0
C781 C 0.17391 0.54994 0.8769 0.0
C782 C 0.16749 0.5554 0.85917 0.0
C783 C 0.14496 0.54316 0.85273 0.0
C784 C 0.19815 0.56231 0.88323 0.0
C785 C 0.21492 0.5648 0.86987 0.0
C786 C 0.20472 0.5706 0.90248 0.0
C787 C 0.18828 0.57035 0.91687 0.0
C788 C 0.17483 0.58014 0.9123 0.0
C789 C 0.15926 0.57972 0.92585 0.0
C790 C 0.15708 0.56969 0.94408 0.0
C791 C 0.17052 0.56011 0.94881 0.0
C792 C 0.1861 0.56047 0.93531 0.0
C793 C 0.30798 0.62061 0.89827 0.0
C794 C 0.314 0.60771 0.91032 0.0
C795 C 0.28515 0.61268 0.89366 0.0
C796 C 0.26802 0.59196 0.90131 0.0
C797 C 0.27389 0.57969 0.91417 0.0
C798 C 0.29671 0.58737 0.91848 0.0
C799 C 0.24418 0.5821 0.89473 0.0
C800 C 0.22762 0.58004 0.90805 0.0
C801 C 0.23781 0.57457 0.87537 0.0
C802 C 0.25458 0.57609 0.86076 0.0
C803 C 0.26705 0.56491 0.86383 0.0
C804 C 0.28301 0.56664 0.85007 0.0
C805 C 0.28652 0.57934 0.83311 0.0
C806 C 0.27401 0.59028 0.82984 0.0
C807 C 0.25804 0.58864 0.84358 0.0
H808 H 0.29888 0.58066 0.82247 0.0
H809 H 0.14501 0.56937 0.95455 0.0
H810 H 0.59846 0.12522 0.03445 0.0
H811 H 0.62216 0.16406 0.04595 0.0
H812 H 0.56624 0.17654 0.03872 0.0
H813 H 0.5419 0.13717 0.02781 0.0
H814 H 0.60887 0.21116 0.02299 0.0
H815 H 0.57858 0.17136 0.08267 0.0
H816 H 0.56809 0.14059 0.10658 0.0
H817 H 0.63826 0.15902 0.11227 0.0
H818 H 0.64915 0.1897 0.08817 0.0
H819 H 0.68154 0.32017 0.0661 0.0
H820 H 0.64769 0.28302 0.06006 0.0
H821 H 0.68674 0.25001 0.0717 0.0
H822 H 0.72027 0.28676 0.07814 0.0
H823 H 0.64624 0.22667 0.08768 0.0
H824 H 0.67573 0.26118 0.02473 0.0
H825 H 0.68734 0.29095 0.99963 0.0
H826 H 0.61996 0.28174 0.99919 0.0
H827 H 0.60804 0.25209 0.02448 0.0
C828 C 0.59096 0.13599 0.0356 0.0
C829 C 0.56811 0.12788 0.03041 0.0
C830 C 0.60462 0.15828 0.04208 0.0
C831 C 0.59586 0.17306 0.04338 0.0
C832 C 0.57326 0.16532 0.03785 0.0
C833 C 0.55944 0.14286 0.03153 0.0
C834 C 0.6107 0.19664 0.05033 0.0
C835 C 0.61667 0.21468 0.0373 0.0
C836 C 0.6211 0.20108 0.06887 0.0
C837 C 0.61466 0.18276 0.08351 0.0
C838 C 0.59176 0.16875 0.08891 0.0
C839 C 0.58575 0.15134 0.10252 0.0
C840 C 0.6025 0.14783 0.11092 0.0
C841 C 0.6253 0.16176 0.10575 0.0
C842 C 0.63141 0.17919 0.09214 0.0
C843 C 0.68282 0.30496 0.06755 0.0
C844 C 0.70362 0.30642 0.07251 0.0
C845 C 0.66349 0.28376 0.06401 0.0
C846 C 0.66474 0.26373 0.0652 0.0
C847 C 0.68533 0.26519 0.07071 0.0
C848 C 0.70454 0.28627 0.07433 0.0
C849 C 0.64502 0.24118 0.06013 0.0
C850 C 0.63811 0.22329 0.07353 0.0
C851 C 0.63394 0.23685 0.04185 0.0
C852 C 0.64109 0.25465 0.02666 0.0
C853 C 0.66345 0.26564 0.01939 0.0
C854 C 0.67008 0.28247 0.00511 0.0
C855 C 0.65442 0.28829 0.99787 0.0
C856 C 0.63209 0.27725 0.00485 0.0
C857 C 0.62539 0.26044 0.01915 0.0
H858 H 0.65958 0.30132 0.98681 0.0
H859 H 0.5978 0.13434 0.12145 0.0
H860 H 0.49771 0.60485 0.226 0.0
H861 H 0.47951 0.62623 0.23708 0.0
H862 H 0.47207 0.64139 0.17742 0.0
H863 H 0.49062 0.62045 0.16637 0.0
H864 H 0.48796 0.67812 0.19771 0.0
H865 H 0.42615 0.60211 0.20542 0.0
H866 H 0.40685 0.56239 0.21697 0.0
H867 H 0.41793 0.58551 0.27624 0.0
H868 H 0.43758 0.62539 0.26504 0.0
H869 H 0.39045 0.69633 0.2345 0.0
H870 H 0.40371 0.66986 0.22584 0.0
H871 H 0.47129 0.71868 0.24529 0.0
H872 H 0.45835 0.74533 0.25353 0.0
H873 H 0.42317 0.64874 0.24393 0.0
H874 H 0.50991 0.71937 0.21432 0.0
H875 H 0.52662 0.7578 0.20005 0.0
H876 H 0.46082 0.74266 0.17934 0.0
H877 H 0.44378 0.70406 0.19325 0.0
C878 C 0.49195 0.61255 0.21528 0.0
C879 C 0.49566 0.61108 0.19534 0.0
C880 C 0.48151 0.62472 0.2216 0.0
C881 C 0.47426 0.63531 0.20808 0.0
C882 C 0.47761 0.63348 0.18814 0.0
C883 C 0.48823 0.62154 0.18184 0.0
C884 C 0.46412 0.64919 0.21463 0.0
C885 C 0.47379 0.67163 0.20782 0.0
C886 C 0.4454 0.6407 0.2276 0.0
C887 C 0.43352 0.61674 0.23438 0.0
C888 C 0.42462 0.59873 0.22091 0.0
C889 C 0.41359 0.57618 0.2274 0.0
C890 C 0.41121 0.57143 0.24733 0.0
C891 C 0.41981 0.58921 0.26081 0.0
C892 C 0.43087 0.61179 0.2544 0.0
C893 C 0.40807 0.70129 0.23714 0.0
C894 C 0.42342 0.72303 0.24446 0.0
C895 C 0.4156 0.68614 0.23223 0.0
C896 C 0.43858 0.69246 0.23458 0.0
C897 C 0.45359 0.71362 0.24298 0.0
C898 C 0.44614 0.72882 0.24772 0.0
C899 C 0.44724 0.67765 0.22718 0.0
C900 C 0.43735 0.65513 0.23385 0.0
C901 C 0.46541 0.68584 0.21368 0.0
C902 C 0.47555 0.70891 0.205 0.0
C903 C 0.49903 0.72422 0.20665 0.0
C904 C 0.50856 0.74603 0.19864 0.0
C905 C 0.49478 0.75269 0.18885 0.0
C906 C 0.47146 0.73752 0.18699 0.0
C907 C 0.46185 0.71568 0.19495 0.0
H908 H 0.50218 0.76959 0.18268 0.0
H909 H 0.40267 0.55396 0.25232 0.0
H910 H 0.88287 0.45778 0.33132 0.0
H911 H 0.84458 0.4442 0.34374 0.0
H912 H 0.86523 0.43309 0.40017 0.0
H913 H 0.90401 0.44794 0.38813 0.0
H914 H 0.8119 0.40668 0.35819 0.0
H915 H 0.83706 0.44459 0.43532 0.0
H916 H 0.8698 0.47566 0.45251 0.0
H917 H 0.89228 0.51388 0.39933 0.0
H918 H 0.85954 0.48318 0.3819 0.0
H919 H 0.70767 0.37707 0.40657 0.0
H920 H 0.7453 0.38156 0.40041 0.0
H921 H 0.77415 0.45438 0.39717 0.0
H922 H 0.73703 0.45009 0.40394 0.0
H923 H 0.80238 0.44603 0.41517 0.0
H924 H 0.75869 0.41908 0.35577 0.0
H925 H 0.72621 0.39228 0.33557 0.0
H926 H 0.74131 0.33924 0.3482 0.0
H927 H 0.77373 0.3657 0.36867 0.0
C928 C 0.87936 0.45261 0.34643 0.0
C929 C 0.89668 0.45435 0.3588 0.0
C930 C 0.85734 0.44455 0.35345 0.0
C931 C 0.85205 0.4379 0.37297 0.0
C932 C 0.86898 0.43848 0.38513 0.0
C933 C 0.89112 0.44677 0.37816 0.0
C934 C 0.82918 0.43163 0.38067 0.0
C935 C 0.80982 0.41514 0.37077 0.0
C936 C 0.82639 0.44282 0.39693 0.0
C937 C 0.84603 0.46146 0.40729 0.0
C938 C 0.84898 0.45965 0.42732 0.0
C939 C 0.86753 0.47719 0.4371 0.0
C940 C 0.88316 0.49669 0.427 0.0
C941 C 0.88022 0.49873 0.40712 0.0
C942 C 0.86168 0.48126 0.39728 0.0
C943 C 0.72211 0.39403 0.40475 0.0
C944 C 0.71935 0.41321 0.40565 0.0
C945 C 0.74358 0.39657 0.40115 0.0
C946 C 0.76254 0.4183 0.39807 0.0
C947 C 0.75984 0.43744 0.39954 0.0
C948 C 0.73853 0.43494 0.40335 0.0
C949 C 0.78509 0.42139 0.39248 0.0
C950 C 0.80441 0.43723 0.40283 0.0
C951 C 0.78787 0.41016 0.37624 0.0
C952 C 0.76843 0.39427 0.36392 0.0
C953 C 0.75497 0.40166 0.35434 0.0
C954 C 0.73659 0.38654 0.34283 0.0
C955 C 0.73165 0.36405 0.34066 0.0
C956 C 0.74512 0.35665 0.34994 0.0
C957 C 0.7635 0.3717 0.36149 0.0
H958 H 0.71742 0.35237 0.33173 0.0
H959 H 0.89751 0.51024 0.4346 0.0
H960 H 0.12424 0.56398 0.38156 0.0
H961 H 0.15226 0.57885 0.40812 0.0
H962 H 0.09844 0.56279 0.44939 0.0
H963 H 0.07031 0.5473 0.42298 0.0
H964 H 0.14271 0.61096 0.44981 0.0
H965 H 0.11268 0.52868 0.45171 0.0
H966 H 0.10349 0.4922 0.43642 0.0
H967 H 0.17351 0.51973 0.42016 0.0
H968 H 0.18303 0.55652 0.4351 0.0
H969 H 0.19369 0.62218 0.54139 0.0
H970 H 0.1691 0.61109 0.51284 0.0
H971 H 0.21629 0.59765 0.48149 0.0
H972 H 0.24027 0.60745 0.51052 0.0
H973 H 0.17704 0.5659 0.47385 0.0
H974 H 0.2094 0.64626 0.47288 0.0
H975 H 0.221 0.68451 0.48559 0.0
H976 H 0.15113 0.66425 0.49665 0.0
H977 H 0.13912 0.62576 0.48425 0.0
C978 C 0.11848 0.56373 0.39631 0.0
C979 C 0.09522 0.55449 0.40034 0.0
C980 C 0.13442 0.57218 0.4114 0.0
C981 C 0.12732 0.57188 0.43061 0.0
C982 C 0.10416 0.56316 0.43461 0.0
C983 C 0.08816 0.55425 0.4196 0.0
C984 C 0.144 0.58011 0.44667 0.0
C985 C 0.15013 0.60111 0.45527 0.0
C986 C 0.15419 0.56755 0.45313 0.0
C987 C 0.1485 0.54541 0.4443 0.0
C988 C 0.12606 0.52702 0.44469 0.0
C989 C 0.12081 0.50628 0.43613 0.0
C990 C 0.1379 0.50367 0.42726 0.0
C991 C 0.16029 0.52179 0.427 0.0
C992 C 0.16562 0.54258 0.43552 0.0
C993 C 0.19889 0.61701 0.52836 0.0
C994 C 0.21891 0.61573 0.52814 0.0
C995 C 0.18489 0.61081 0.51196 0.0
C996 C 0.19099 0.60394 0.49478 0.0
C997 C 0.21116 0.60289 0.49452 0.0
C998 C 0.2249 0.60855 0.51109 0.0
C999 C 0.17582 0.59689 0.47744 0.0
C1000 C 0.16991 0.57603 0.46847 0.0
C1001 C 0.16625 0.6099 0.47034 0.0
C1002 C 0.17338 0.63305 0.47778 0.0
C1003 C 0.19652 0.6499 0.47815 0.0
C1004 C 0.20317 0.67164 0.48528 0.0
C1005 C 0.18682 0.67679 0.49196 0.0
C1006 C 0.16378 0.66023 0.49148 0.0
C1007 C 0.15704 0.63846 0.48438 0.0
H1008 H 0.192 0.69363 0.49748 0.0
H1009 H 0.1338 0.48759 0.42065 0.0
H1010 H 0.4892 0.10301 0.57406 0.0
H1011 H 0.5076 0.13285 0.59868 0.0
H1012 H 0.57063 0.13299 0.58992 0.0
H1013 H 0.55233 0.10317 0.56538 0.0
H1014 H 0.56087 0.1308 0.62746 0.0
H1015 H 0.56272 0.17633 0.57317 0.0
H1016 H 0.54648 0.18748 0.54609 0.0
H1017 H 0.50403 0.19786 0.58622 0.0
H1018 H 0.51974 0.18642 0.61352 0.0
H1019 H 0.63418 0.22725 0.68201 0.0
H1020 H 0.61613 0.20293 0.65384 0.0
H1021 H 0.55314 0.20098 0.6674 0.0
H1022 H 0.57111 0.22552 0.69562 0.0
H1023 H 0.56214 0.20455 0.62751 0.0
H1024 H 0.55936 0.1581 0.68137 0.0
H1025 H 0.57522 0.14672 0.70858 0.0
H1026 H 0.61906 0.13779 0.66895 0.0
H1027 H 0.60368 0.14944 0.64152 0.0
C1028 C 0.50705 0.10963 0.57722 0.0
C1029 C 0.5193 0.10067 0.56788 0.0
C1030 C 0.51755 0.12668 0.59127 0.0
C1031 C 0.54054 0.13525 0.59605 0.0
C1032 C 0.55286 0.12657 0.5865 0.0
C1033 C 0.54237 0.10948 0.57255 0.0
C1034 C 0.55151 0.15237 0.61172 0.0
C1035 C 0.56143 0.14707 0.62729 0.0
C1036 C 0.55165 0.17332 0.61179 0.0
C1037 C 0.54226 0.1803 0.59538 0.0
C1038 C 0.54979 0.18081 0.57621 0.0
C1039 C 0.5407 0.18721 0.56082 0.0
C1040 C 0.5242 0.19332 0.56443 0.0
C1041 C 0.51679 0.19309 0.58344 0.0
C1042 C 0.52579 0.18667 0.59889 0.0
C1043 C 0.61655 0.22188 0.67893 0.0
C1044 C 0.60402 0.22814 0.69122 0.0
C1045 C 0.60626 0.20795 0.66282 0.0
C1046 C 0.58322 0.19991 0.65871 0.0
C1047 C 0.57093 0.20697 0.67036 0.0
C1048 C 0.58121 0.22092 0.68653 0.0
C1049 C 0.57171 0.18302 0.64299 0.0
C1050 C 0.56161 0.18831 0.62755 0.0
C1051 C 0.57134 0.162 0.64298 0.0
C1052 C 0.58053 0.15486 0.65943 0.0
C1053 C 0.57251 0.15388 0.67848 0.0
C1054 C 0.58139 0.14736 0.69394 0.0
C1055 C 0.59818 0.14159 0.69051 0.0
C1056 C 0.60608 0.14229 0.67159 0.0
C1057 C 0.59727 0.14884 0.65608 0.0
H1058 H 0.60503 0.13654 0.70249 0.0
H1059 H 0.51718 0.19829 0.55251 0.0
H1060 H 0.43945 0.52151 0.74061 0.0
H1061 H 0.42551 0.5358 0.76676 0.0
H1062 H 0.48559 0.60197 0.76168 0.0
H1063 H 0.49949 0.58794 0.73535 0.0
H1064 H 0.47626 0.5886 0.79925 0.0
H1065 H 0.43604 0.59335 0.74414 0.0
H1066 H 0.41186 0.57936 0.71497 0.0
H1067 H 0.3564 0.52988 0.74952 0.0
H1068 H 0.38045 0.54335 0.77894 0.0
H1069 H 0.44022 0.65247 0.85462 0.0
H1070 H 0.45161 0.63777 0.82702 0.0
H1071 H 0.39315 0.57124 0.83598 0.0
H1072 H 0.38154 0.58578 0.86368 0.0
H1073 H 0.40108 0.58423 0.79664 0.0
H1074 H 0.44244 0.58051 0.85203 0.0
H1075 H 0.46734 0.59571 0.88077 0.0
H1076 H 0.52138 0.64487 0.84484 0.0
H1077 H 0.49667 0.63017 0.8159 0.0
C1078 C 0.44958 0.53917 0.7449 0.0
C1079 C 0.47059 0.55358 0.73588 0.0
C1080 C 0.44161 0.54729 0.75988 0.0
C1081 C 0.45446 0.56998 0.76607 0.0
C1082 C 0.47546 0.58438 0.75716 0.0
C1083 C 0.48341 0.5763 0.74217 0.0
C1084 C 0.44619 0.57866 0.78205 0.0
C1085 C 0.45995 0.5879 0.79856 0.0
C1086 C 0.4247 0.57732 0.78131 0.0
C1087 C 0.41013 0.56919 0.76371 0.0
C1088 C 0.41875 0.57935 0.7455 0.0
C1089 C 0.40505 0.57154 0.72892 0.0
C1090 C 0.3826 0.55371 0.73036 0.0
C1091 C 0.3738 0.54368 0.74842 0.0
C1092 C 0.38746 0.5514 0.76506 0.0
C1093 C 0.42965 0.63474 0.85067 0.0
C1094 C 0.41003 0.62026 0.86145 0.0
C1095 C 0.43625 0.62637 0.83492 0.0
C1096 C 0.42335 0.60338 0.82963 0.0
C1097 C 0.40334 0.58903 0.83989 0.0
C1098 C 0.39679 0.59736 0.85575 0.0
C1099 C 0.43121 0.59421 0.81375 0.0
C1100 C 0.41736 0.58486 0.79729 0.0
C1101 C 0.45269 0.59558 0.81447 0.0
C1102 C 0.46763 0.60438 0.83183 0.0
C1103 C 0.45957 0.59468 0.85028 0.0
C1104 C 0.47366 0.60319 0.8666 0.0
C1105 C 0.49591 0.62129 0.86464 0.0
C1106 C 0.50413 0.63087 0.84634 0.0
C1107 C 0.4901 0.62245 0.82997 0.0
H1108 H 0.5068 0.62784 0.8773 0.0
H1109 H 0.37202 0.5477 0.71748 0.0
H1110 H 0.94419 0.41953 0.92386 0.0
H1111 H 0.91445 0.40893 0.94833 0.0
H1112 H 0.87288 0.41886 0.90655 0.0
H1113 H 0.90177 0.42809 0.88154 0.0
H1114 H 0.883 0.4433 0.94603 0.0
H1115 H 0.85416 0.36979 0.9151 0.0
H1116 H 0.85741 0.33734 0.903 0.0
H1117 H 0.87396 0.3255 0.96055 0.0
H1118 H 0.87115 0.35813 0.97293 0.0
H1119 H 0.78697 0.40846 0.00617 0.0
H1120 H 0.81139 0.41349 0.97823 0.0
H1121 H 0.83946 0.37748 0.00873 0.0
H1122 H 0.81416 0.3713 0.03616 0.0
H1123 H 0.83549 0.36583 0.97341 0.0
H1124 H 0.86719 0.43822 0.00503 0.0
H1125 H 0.86759 0.4719 0.01899 0.0
H1126 H 0.85048 0.48771 0.96319 0.0
H1127 H 0.84969 0.45395 0.94895 0.0
C1128 C 0.92856 0.41899 0.91965 0.0
C1129 C 0.92554 0.42481 0.90064 0.0
C1130 C 0.91166 0.41309 0.93374 0.0
C1131 C 0.89159 0.41319 0.92918 0.0
C1132 C 0.88837 0.41882 0.9103 0.0
C1133 C 0.90503 0.42429 0.89609 0.0
C1134 C 0.87433 0.40823 0.94437 0.0
C1135 C 0.8723 0.42633 0.95186 0.0
C1136 C 0.86109 0.38623 0.95231 0.0
C1137 C 0.86269 0.36656 0.9449 0.0
C1138 C 0.85872 0.36042 0.92514 0.0
C1139 C 0.86043 0.34195 0.91824 0.0
C1140 C 0.86596 0.3294 0.93099 0.0
C1141 C 0.86972 0.33526 0.95068 0.0
C1142 C 0.86805 0.35372 0.95765 0.0
C1143 C 0.79826 0.4015 0.00682 0.0
C1144 C 0.79876 0.3896 0.02337 0.0
C1145 C 0.81232 0.4045 0.9909 0.0
C1146 C 0.82771 0.39633 0.9915 0.0
C1147 C 0.8278 0.38398 0.00787 0.0
C1148 C 0.81335 0.3805 0.02358 0.0
C1149 C 0.84401 0.40097 0.97529 0.0
C1150 C 0.84599 0.38284 0.9676 0.0
C1151 C 0.85767 0.42311 0.96747 0.0
C1152 C 0.85814 0.44342 0.97598 0.0
C1153 C 0.86335 0.44879 0.99577 0.0
C1154 C 0.86367 0.46791 0.00373 0.0
C1155 C 0.859 0.4819 0.99199 0.0
C1156 C 0.85405 0.47684 0.97227 0.0
C1157 C 0.85368 0.45772 0.96424 0.0
H1158 H 0.85926 0.49669 0.99818 0.0
H1159 H 0.86727 0.31511 0.92562 0.0
H1160 H 0.49269 0.92554 0.07204 0.0
H1161 H 0.47819 0.8975 0.09829 0.0
H1162 H 0.41392 0.896 0.09616 0.0
H1163 H 0.42857 0.9246 0.07026 0.0
H1164 H 0.42818 0.89855 0.13304 0.0
H1165 H 0.41885 0.85274 0.07748 0.0
H1166 H 0.43048 0.84158 0.04742 0.0
H1167 H 0.48014 0.83313 0.07935 0.0
H1168 H 0.46911 0.8447 0.10962 0.0
H1169 H 0.36959 0.80093 0.19332 0.0
H1170 H 0.38081 0.82579 0.1648 0.0
H1171 H 0.44778 0.83338 0.16683 0.0
H1172 H 0.43674 0.80852 0.19534 0.0
H1173 H 0.43027 0.82659 0.12931 0.0
H1174 H 0.44019 0.87436 0.18465 0.0
H1175 H 0.42796 0.88548 0.21446 0.0
H1176 H 0.37585 0.88949 0.18225 0.0
H1177 H 0.38757 0.87806 0.15228 0.0
C1178 C 0.47552 0.91935 0.07723 0.0
C1179 C 0.46178 0.92731 0.06906 0.0
C1180 C 0.46717 0.90316 0.09211 0.0
C1181 C 0.44489 0.89448 0.09905 0.0
C1182 C 0.43114 0.90241 0.09097 0.0
C1183 C 0.43947 0.91861 0.07607 0.0
C1184 C 0.43615 0.87749 0.11503 0.0
C1185 C 0.42829 0.88265 0.13209 0.0
C1186 C 0.43668 0.85692 0.11392 0.0
C1187 C 0.44329 0.8498 0.09579 0.0
C1188 C 0.43239 0.84869 0.07808 0.0
C1189 C 0.43885 0.84225 0.061 0.0
C1190 C 0.45606 0.83667 0.06145 0.0
C1191 C 0.46682 0.83748 0.07902 0.0
C1192 C 0.46046 0.84397 0.09615 0.0
C1193 C 0.38667 0.80776 0.18765 0.0
C1194 C 0.40231 0.80284 0.1967 0.0
C1195 C 0.39306 0.82201 0.17138 0.0
C1196 C 0.41519 0.83158 0.16384 0.0
C1197 C 0.43063 0.82618 0.17246 0.0
C1198 C 0.42431 0.81204 0.18879 0.0
C1199 C 0.42246 0.84775 0.1473 0.0
C1200 C 0.43006 0.84244 0.13017 0.0
C1201 C 0.42158 0.86813 0.14829 0.0
C1202 C 0.4146 0.87512 0.16627 0.0
C1203 C 0.426 0.87743 0.18395 0.0
C1204 C 0.41919 0.88382 0.20087 0.0
C1205 C 0.4011 0.88812 0.20026 0.0
C1206 C 0.38983 0.88611 0.18271 0.0
C1207 C 0.39656 0.87969 0.16575 0.0
H1208 H 0.39585 0.89307 0.21338 0.0
H1209 H 0.46103 0.83169 0.0482 0.0
H1210 H 0.62081 0.53003 0.23868 0.0
H1211 H 0.63099 0.51054 0.26324 0.0
H1212 H 0.56786 0.44837 0.25267 0.0
H1213 H 0.55763 0.46768 0.22805 0.0
H1214 H 0.57492 0.45713 0.2908 0.0
H1215 H 0.61827 0.45494 0.23658 0.0
H1216 H 0.6457 0.47093 0.20952 0.0
H1217 H 0.69881 0.51269 0.24971 0.0
H1218 H 0.67161 0.49719 0.277 0.0
H1219 H 0.59844 0.38473 0.34748 0.0
H1220 H 0.59099 0.40174 0.3191 0.0
H1221 H 0.65349 0.46461 0.32939 0.0
H1222 H 0.66128 0.44767 0.35762 0.0
H1223 H 0.64687 0.45484 0.29082 0.0
H1224 H 0.60353 0.4585 0.34463 0.0
H1225 H 0.57628 0.4431 0.37187 0.0
H1226 H 0.52332 0.39921 0.33242 0.0
H1227 H 0.55035 0.41414 0.30497 0.0
C1228 C 0.60924 0.51213 0.2414 0.0
C1229 C 0.58837 0.50042 0.23147 0.0
C1230 C 0.61508 0.50102 0.25544 0.0
C1231 C 0.60025 0.47796 0.25969 0.0
C1232 C 0.57952 0.46619 0.24966 0.0
C1233 C 0.57366 0.47728 0.23566 0.0
C1234 C 0.60585 0.4663 0.27516 0.0
C1235 C 0.59049 0.45632 0.29063 0.0
C1236 C 0.62643 0.46576 0.2752 0.0
C1237 C 0.64284 0.47506 0.25882 0.0
C1238 C 0.63576 0.46767 0.23963 0.0
C1239 C 0.65127 0.47662 0.22425 0.0
C1240 C 0.67397 0.49285 0.22788 0.0
C1241 C 0.68121 0.50013 0.24691 0.0
C1242 C 0.66576 0.49126 0.26235 0.0
C1243 C 0.61073 0.4021 0.34361 0.0
C1244 C 0.63036 0.4149 0.35495 0.0
C1245 C 0.60641 0.41182 0.32742 0.0
C1246 C 0.62151 0.43455 0.32233 0.0
C1247 C 0.64158 0.44706 0.3331 0.0
C1248 C 0.64596 0.43735 0.34928 0.0
C1249 C 0.61588 0.44562 0.30636 0.0
C1250 C 0.63125 0.45556 0.29088 0.0
C1251 C 0.59532 0.4462 0.30631 0.0
C1252 C 0.57902 0.43726 0.32278 0.0
C1253 C 0.58612 0.44544 0.34179 0.0
C1254 C 0.57071 0.43681 0.35726 0.0
C1255 C 0.5481 0.42014 0.35389 0.0
C1256 C 0.54084 0.4121 0.33502 0.0
C1257 C 0.5562 0.42064 0.31949 0.0
H1258 H 0.53619 0.41349 0.36589 0.0
H1259 H 0.68596 0.49976 0.21596 0.0
H1260 H 0.4101 0.89565 0.44291 0.0
H1261 H 0.40022 0.86741 0.41701 0.0
H1262 H 0.4389 0.92139 0.37593 0.0
H1263 H 0.44782 0.94958 0.4016 0.0
H1264 H 0.40267 0.89173 0.35914 0.0
H1265 H 0.45943 0.88734 0.3983 0.0
H1266 H 0.47538 0.88235 0.42896 0.0
H1267 H 0.4177 0.81525 0.43554 0.0
H1268 H 0.40128 0.81995 0.40503 0.0
H1269 H 0.42942 0.80868 0.30395 0.0
H1270 H 0.43562 0.83324 0.33205 0.0
H1271 H 0.36593 0.81804 0.32882 0.0
H1272 H 0.35967 0.79382 0.30056 0.0
H1273 H 0.41761 0.82777 0.36787 0.0
H1274 H 0.36398 0.86596 0.33868 0.0
H1275 H 0.35126 0.87329 0.30722 0.0
H1276 H 0.40943 0.87704 0.27889 0.0
H1277 H 0.42265 0.87005 0.3102 0.0
C1278 C 0.41635 0.90139 0.42829 0.0
C1279 C 0.42973 0.92471 0.42418 0.0
C1280 C 0.41082 0.88528 0.41354 0.0
C1281 C 0.41916 0.89222 0.39455 0.0
C1282 C 0.43224 0.91558 0.39043 0.0
C1283 C 0.43736 0.93168 0.40508 0.0
C1284 C 0.41453 0.87527 0.37895 0.0
C1285 C 0.4059 0.87773 0.36111 0.0
C1286 C 0.41896 0.85709 0.38136 0.0
C1287 C 0.42905 0.85407 0.39948 0.0
C1288 C 0.45012 0.87156 0.40633 0.0
C1289 C 0.45923 0.86878 0.42368 0.0
C1290 C 0.44753 0.84852 0.43421 0.0
C1291 C 0.42673 0.83095 0.42737 0.0
C1292 C 0.41753 0.83365 0.41005 0.0
C1293 C 0.41535 0.8104 0.30931 0.0
C1294 C 0.39413 0.79949 0.29986 0.0
C1295 C 0.41891 0.82439 0.32542 0.0
C1296 C 0.40133 0.82773 0.33234 0.0
C1297 C 0.37984 0.81602 0.3235 0.0
C1298 C 0.3763 0.80213 0.30736 0.0
C1299 C 0.40579 0.84432 0.34816 0.0
C1300 C 0.41431 0.84173 0.366 0.0
C1301 C 0.40178 0.86272 0.34562 0.0
C1302 C 0.39414 0.86723 0.32675 0.0
C1303 C 0.37408 0.86843 0.32574 0.0
C1304 C 0.36679 0.87251 0.30794 0.0
C1305 C 0.37949 0.87555 0.29106 0.0
C1306 C 0.39956 0.8746 0.29196 0.0
C1307 C 0.40695 0.87055 0.30972 0.0
H1308 H 0.3738 0.87869 0.27729 0.0
H1309 H 0.45459 0.84642 0.44766 0.0
H1310 H 0.58517 0.47558 0.60068 0.0
H1311 H 0.60018 0.46222 0.57468 0.0
H1312 H 0.54749 0.45639 0.53607 0.0
H1313 H 0.53311 0.47103 0.56146 0.0
H1314 H 0.55504 0.41608 0.5398 0.0
H1315 H 0.59344 0.49768 0.52755 0.0
H1316 H 0.61733 0.53784 0.53721 0.0
H1317 H 0.67217 0.52592 0.55121 0.0
H1318 H 0.64845 0.48557 0.5419 0.0
H1319 H 0.58625 0.39788 0.44731 0.0
H1320 H 0.57426 0.41088 0.47558 0.0
H1321 H 0.64128 0.43824 0.50058 0.0
H1322 H 0.65372 0.42622 0.47171 0.0
H1323 H 0.62803 0.46681 0.50631 0.0
H1324 H 0.59309 0.38724 0.51734 0.0
H1325 H 0.57048 0.3463 0.50985 0.0
H1326 H 0.51105 0.35236 0.50137 0.0
H1327 H 0.53337 0.39342 0.50854 0.0
C1328 C 0.57695 0.47187 0.58658 0.0
C1329 C 0.55788 0.47447 0.58325 0.0
C1330 C 0.58546 0.46404 0.57181 0.0
C1331 C 0.57487 0.45832 0.55356 0.0
C1332 C 0.55576 0.46061 0.55017 0.0
C1333 C 0.54749 0.46884 0.56478 0.0
C1334 C 0.58372 0.44998 0.53789 0.0
C1335 C 0.57088 0.42713 0.5323 0.0
C1336 C 0.6048 0.4643 0.52877 0.0
C1337 C 0.61908 0.48856 0.53426 0.0
C1338 C 0.61051 0.50357 0.53288 0.0
C1339 C 0.62404 0.52637 0.53825 0.0
C1340 C 0.64623 0.53441 0.54488 0.0
C1341 C 0.65496 0.51966 0.5461 0.0
C1342 C 0.64149 0.49683 0.54077 0.0
C1343 C 0.59842 0.40657 0.45887 0.0
C1344 C 0.62089 0.41092 0.45735 0.0
C1345 C 0.5915 0.41388 0.47511 0.0
C1346 C 0.60669 0.42511 0.49048 0.0
C1347 C 0.6292 0.42954 0.48897 0.0
C1348 C 0.63629 0.42263 0.47249 0.0
C1349 C 0.59916 0.43277 0.50779 0.0
C1350 C 0.61226 0.45554 0.51381 0.0
C1351 C 0.57851 0.4182 0.51761 0.0
C1352 C 0.56497 0.39347 0.51333 0.0
C1353 C 0.57524 0.37988 0.51374 0.0
C1354 C 0.56247 0.35664 0.50957 0.0
C1355 C 0.53936 0.34674 0.5051 0.0
C1356 C 0.52896 0.36006 0.50483 0.0
C1357 C 0.54166 0.38331 0.50897 0.0
H1358 H 0.5295 0.32875 0.50187 0.0
H1359 H 0.65668 0.55207 0.54903 0.0
H1360 H 0.12583 0.53252 0.77466 0.0
H1361 H 0.15449 0.55164 0.74899 0.0
H1362 H 0.10588 0.50855 0.70582 0.0
H1363 H 0.07699 0.48991 0.73134 0.0
H1364 H 0.15686 0.517 0.70657 0.0
H1365 H 0.10849 0.55202 0.7042 0.0
H1366 H 0.09017 0.57141 0.71993 0.0
H1367 H 0.15538 0.62495 0.73907 0.0
H1368 H 0.17404 0.60565 0.72369 0.0
H1369 H 0.2029 0.56619 0.61579 0.0
H1370 H 0.17944 0.54747 0.64421 0.0
H1371 H 0.21384 0.61069 0.67612 0.0
H1372 H 0.2364 0.6298 0.64717 0.0
H1373 H 0.17247 0.59288 0.68381 0.0
H1374 H 0.22244 0.56294 0.68437 0.0
H1375 H 0.24339 0.54476 0.67153 0.0
H1376 H 0.18031 0.48369 0.6596 0.0
H1377 H 0.15896 0.50161 0.67213 0.0
C1378 C 0.1214 0.52709 0.75969 0.0
C1379 C 0.09931 0.50986 0.75486 0.0
C1380 C 0.13769 0.53797 0.74511 0.0
C1381 C 0.13219 0.53141 0.72561 0.0
C1382 C 0.11036 0.51373 0.72084 0.0
C1383 C 0.09392 0.50321 0.73534 0.0
C1384 C 0.14888 0.54371 0.71004 0.0
C1385 C 0.16023 0.53351 0.70139 0.0
C1386 C 0.1538 0.56557 0.70399 0.0
C1387 C 0.14261 0.57726 0.71302 0.0
C1388 C 0.11889 0.5678 0.71193 0.0
C1389 C 0.10845 0.5788 0.72074 0.0
C1390 C 0.12159 0.59936 0.73055 0.0
C1391 C 0.14521 0.609 0.7315 0.0
C1392 C 0.15572 0.59805 0.72274 0.0
C1393 C 0.20556 0.57606 0.62892 0.0
C1394 C 0.22151 0.59943 0.62931 0.0
C1395 C 0.19225 0.56529 0.64525 0.0
C1396 C 0.19512 0.57749 0.66255 0.0
C1397 C 0.21127 0.60085 0.66299 0.0
C1398 C 0.22419 0.61176 0.64647 0.0
C1399 C 0.18051 0.56611 0.67979 0.0
C1400 C 0.16946 0.57648 0.68891 0.0
C1401 C 0.17633 0.5446 0.68658 0.0
C1402 C 0.1891 0.5337 0.67906 0.0
C1403 C 0.21303 0.54569 0.67889 0.0
C1404 C 0.22498 0.53542 0.67168 0.0
C1405 C 0.21319 0.5131 0.66471 0.0
C1406 C 0.18942 0.50099 0.66499 0.0
C1407 C 0.17739 0.51118 0.67217 0.0
H1408 H 0.22247 0.50518 0.65914 0.0
H1409 H 0.11348 0.60786 0.73736 0.0
H1410 H 0.56263 0.12635 0.93942 0.0
H1411 H 0.57737 0.15506 0.91336 0.0
H1412 H 0.56678 0.10317 0.87169 0.0
H1413 H 0.55137 0.07431 0.89757 0.0
H1414 H 0.61378 0.15063 0.87346 0.0
H1415 H 0.53054 0.11301 0.8672 0.0
H1416 H 0.49237 0.1 0.88084 0.0
H1417 H 0.51283 0.16836 0.89825 0.0
H1418 H 0.55127 0.18169 0.88497 0.0
H1419 H 0.62502 0.19971 0.78131 0.0
H1420 H 0.61401 0.1752 0.80989 0.0
H1421 H 0.59332 0.21837 0.83891 0.0
H1422 H 0.6032 0.2423 0.80979 0.0
H1423 H 0.56376 0.17769 0.84619 0.0
H1424 H 0.6443 0.21752 0.85039 0.0
H1425 H 0.68387 0.23314 0.83919 0.0
H1426 H 0.67181 0.16553 0.82929 0.0
H1427 H 0.63205 0.14949 0.84015 0.0
C1428 C 0.5636 0.12117 0.9247 0.0
C1429 C 0.55587 0.09822 0.92038 0.0
C1430 C 0.57198 0.13751 0.90989 0.0
C1431 C 0.57314 0.13113 0.8907 0.0
C1432 C 0.56603 0.10833 0.88647 0.0
C1433 C 0.55718 0.09192 0.90117 0.0
C1434 C 0.58095 0.1481 0.87487 0.0
C1435 C 0.60288 0.15647 0.8673 0.0
C1436 C 0.56695 0.15627 0.86752 0.0
C1437 C 0.54383 0.14828 0.87533 0.0
C1438 C 0.52697 0.12521 0.87412 0.0
C1439 C 0.50527 0.11779 0.88175 0.0
C1440 C 0.50019 0.13333 0.89047 0.0
C1441 C 0.51679 0.15633 0.89153 0.0
C1442 C 0.53853 0.16383 0.88395 0.0
C1443 C 0.61822 0.20404 0.79382 0.0
C1444 C 0.61505 0.22298 0.79336 0.0
C1445 C 0.61206 0.19009 0.81023 0.0
C1446 C 0.60329 0.19515 0.82681 0.0
C1447 C 0.60012 0.2141 0.82636 0.0
C1448 C 0.60579 0.22779 0.80974 0.0
C1449 C 0.59669 0.18018 0.84426 0.0
C1450 C 0.57493 0.17214 0.85228 0.0
C1451 C 0.61114 0.17277 0.85234 0.0
C1452 C 0.63512 0.18231 0.84595 0.0
C1453 C 0.65004 0.20598 0.84571 0.0
C1454 C 0.67251 0.21491 0.83943 0.0
C1455 C 0.68033 0.20034 0.8335 0.0
C1456 C 0.66572 0.1768 0.83388 0.0
C1457 C 0.64321 0.16777 0.84012 0.0
H1458 H 0.69773 0.20729 0.82863 0.0
H1459 H 0.48339 0.12755 0.89636 0.0
H1460 H 0.47829 0.59124 0.10647 0.0
H1461 H 0.46014 0.60184 0.08107 0.0
H1462 H 0.51306 0.61206 0.04077 0.0
H1463 H 0.53067 0.60011 0.06559 0.0
H1464 H 0.49854 0.64869 0.04415 0.0
H1465 H 0.47118 0.56782 0.03363 0.0
H1466 H 0.45325 0.52799 0.04475 0.0
H1467 H 0.39322 0.52989 0.06135 0.0
H1468 H 0.41097 0.56988 0.05059 0.0
H1469 H 0.45667 0.65428 0.95203 0.0
H1470 H 0.47372 0.64741 0.98053 0.0
H1471 H 0.40761 0.61075 0.00773 0.0
H1472 H 0.39027 0.61655 0.97864 0.0
H1473 H 0.42761 0.58846 0.01355 0.0
H1474 H 0.45109 0.66654 0.02235 0.0
H1475 H 0.46758 0.70701 0.01368 0.0
H1476 H 0.53246 0.7122 0.00369 0.0
H1477 H 0.51629 0.67166 0.01205 0.0
C1478 C 0.486 0.59544 0.09217 0.0
C1479 C 0.50591 0.59456 0.08812 0.0
C1480 C 0.4757 0.60174 0.07775 0.0
C1481 C 0.48532 0.6077 0.05914 0.0
C1482 C 0.50552 0.60763 0.05515 0.0
C1483 C 0.51561 0.6009 0.06943 0.0
C1484 C 0.47374 0.61303 0.04355 0.0
C1485 C 0.48314 0.63559 0.03726 0.0
C1486 C 0.45323 0.59597 0.03524 0.0
C1487 C 0.4425 0.5719 0.04153 0.0
C1488 C 0.45425 0.55981 0.03983 0.0
C1489 C 0.4441 0.53719 0.04603 0.0
C1490 C 0.42214 0.52643 0.05381 0.0
C1491 C 0.41025 0.53825 0.05535 0.0
C1492 C 0.42034 0.56089 0.04919 0.0
C1493 C 0.44577 0.64492 0.96415 0.0
C1494 C 0.42214 0.63601 0.96313 0.0
C1495 C 0.45558 0.64112 0.98053 0.0
C1496 C 0.44207 0.62893 0.99653 0.0
C1497 C 0.41844 0.62024 0.99562 0.0
C1498 C 0.40854 0.6236 0.97902 0.0
C1499 C 0.4525 0.62431 0.0137 0.0
C1500 C 0.44288 0.60179 0.0204 0.0
C1501 C 0.47258 0.64156 0.02268 0.0
C1502 C 0.48241 0.66599 0.01768 0.0
C1503 C 0.46883 0.67626 0.01817 0.0
C1504 C 0.47813 0.69923 0.01333 0.0
C1505 C 0.50104 0.71216 0.0081 0.0
C1506 C 0.51471 0.70216 0.00774 0.0
C1507 C 0.5055 0.67919 0.01255 0.0
H1508 H 0.5082 0.72994 0.00436 0.0
H1509 H 0.41431 0.50892 0.0586 0.0
H1510 H 0.94747 0.49023 0.22854 0.0
H1511 H 0.91813 0.47679 0.20346 0.0
H1512 H 0.86998 0.42645 0.24301 0.0
H1513 H 0.89882 0.44051 0.26865 0.0
H1514 H 0.87382 0.41055 0.20369 0.0
H1515 H 0.86233 0.46715 0.23594 0.0
H1516 H 0.87474 0.50529 0.24933 0.0
H1517 H 0.89775 0.5348 0.19274 0.0
H1518 H 0.8858 0.49685 0.17906 0.0
H1519 H 0.77955 0.37407 0.14052 0.0
H1520 H 0.80395 0.38678 0.16935 0.0
H1521 H 0.84805 0.45106 0.14129 0.0
H1522 H 0.8231 0.43886 0.11291 0.0
H1523 H 0.84464 0.45899 0.1769 0.0
H1524 H 0.86005 0.40555 0.1444 0.0
H1525 H 0.85092 0.36885 0.12957 0.0
H1526 H 0.82456 0.33507 0.18421 0.0
H1527 H 0.83329 0.37155 0.1993 0.0
C1528 C 0.93057 0.47658 0.23212 0.0
C1529 C 0.92558 0.46655 0.25074 0.0
C1530 C 0.91388 0.46882 0.21768 0.0
C1531 C 0.89195 0.45071 0.22146 0.0
C1532 C 0.88688 0.44042 0.23986 0.0
C1533 C 0.90346 0.4484 0.25443 0.0
C1534 C 0.87443 0.44245 0.20605 0.0
C1535 C 0.86709 0.42092 0.198 0.0
C1536 C 0.86631 0.45636 0.19834 0.0
C1537 C 0.87336 0.47917 0.20652 0.0
C1538 C 0.87022 0.48179 0.22638 0.0
C1539 C 0.87714 0.50337 0.23402 0.0
C1540 C 0.88708 0.52247 0.2219 0.0
C1541 C 0.89007 0.52 0.20211 0.0
C1542 C 0.88321 0.49846 0.19441 0.0
C1543 C 0.79439 0.39096 0.14058 0.0
C1544 C 0.79948 0.40543 0.12444 0.0
C1545 C 0.8084 0.39817 0.15701 0.0
C1546 C 0.82815 0.41972 0.15738 0.0
C1547 C 0.83295 0.43435 0.1414 0.0
C1548 C 0.81869 0.42734 0.12515 0.0
C1549 C 0.84403 0.42702 0.17422 0.0
C1550 C 0.85114 0.44844 0.18259 0.0
C1551 C 0.85233 0.41317 0.18195 0.0
C1552 C 0.84709 0.39123 0.17292 0.0
C1553 C 0.85216 0.39026 0.15321 0.0
C1554 C 0.84708 0.36951 0.14477 0.0
C1555 C 0.8371 0.34963 0.15593 0.0
C1556 C 0.83225 0.35047 0.17557 0.0
C1557 C 0.83727 0.37118 0.18408 0.0
H1558 H 0.83319 0.33358 0.14936 0.0
H1559 H 0.89242 0.53916 0.22784 0.0
loop_
_geom_bond_atom_site_label_1
_geom_bond_atom_site_label_2
_geom_bond_distance
_geom_bond_site_symmetry_2
_ccdc_geom_bond_type
C0 C1 1.384 . S
C0 C2 1.384 . S
C0 H28 0.931 . S
C1 C0 1.384 . S
C1 C4 1.382 . S
C2 C0 1.384 . S
C2 C3 1.381 . S
C2 H29 0.930 . S
C3 C2 1.381 . S
C3 C5 1.381 . S
C3 C6 1.487 . S
C4 C1 1.382 . S
C4 C5 1.387 . S
C4 H30 0.930 . S
C5 C3 1.381 . S
C5 C4 1.387 . S
C5 H31 0.931 . S
C6 C3 1.487 . S
C6 C13 1.399 . S
C6 N44 1.343 1_655 S
C7 C8 1.384 . S
C7 C9 1.384 . S
C7 H32 0.931 . S
C8 C7 1.384 . S
C8 C11 1.382 . S
C9 C7 1.384 . S
C9 C10 1.381 . S
C9 H33 0.930 . S
C10 C9 1.381 . S
C10 C12 1.381 . S
C10 C13 1.487 . S
C11 C8 1.382 . S
C11 C12 1.387 . S
C11 H34 0.930 . S
C12 C10 1.381 . S
C12 C11 1.387 . S
C12 H35 0.931 . S
C13 C6 1.399 . S
C13 C10 1.487 . S
C13 N45 1.343 1_655 S
C14 C15 1.384 . S
C14 C16 1.384 . S
C14 H36 0.931 . S
C15 C14 1.384 . S
C15 C18 1.382 . S
C16 C14 1.384 . S
C16 C17 1.381 . S
C16 H37 0.930 . S
C17 C16 1.381 . S
C17 C19 1.381 . S
C17 C20 1.487 . S
C18 C15 1.382 . S
C18 C19 1.387 . S
C18 H38 0.930 . S
C19 C17 1.381 . S
C19 C18 1.387 . S
C19 H39 0.931 . S
C20 C17 1.487 . S
C20 C27 1.399 . S
C20 N45 1.343 . S
C21 C22 1.384 . S
C21 C23 1.384 . S
C21 H40 0.931 . S
C22 C21 1.384 . S
C22 C25 1.382 . S
C23 C21 1.384 . S
C23 C24 1.381 . S
C23 H41 0.930 . S
C24 C23 1.381 . S
C24 C26 1.381 . S
C24 C27 1.487 . S
C25 C22 1.382 . S
C25 C26 1.387 . S
C25 H42 0.930 . S
C26 C24 1.381 . S
C26 C25 1.387 . S
C26 H43 0.931 . S
C27 C20 1.399 . S
C27 C24 1.487 . S
C27 N44 1.343 . S
H28 C0 0.931 . S
H29 C2 0.930 . S
H30 C4 0.930 . S
H31 C5 0.931 . S
H32 C7 0.931 . S
H33 C9 0.930 . S
H34 C11 0.930 . S
H35 C12 0.931 . S
H36 C14 0.931 . S
H37 C16 0.930 . S
H38 C18 0.930 . S
H39 C19 0.931 . S
H40 C21 0.931 . S
H41 C23 0.930 . S
H42 C25 0.930 . S
H43 C26 0.931 . S
N44 C6 1.343 1_455 S
N44 C27 1.343 . S
N45 C13 1.343 1_455 S
N45 C20 1.343 . S
C46 C47 1.384 . S
C46 C48 1.384 . S
C46 H74 0.931 . S
C47 C46 1.384 . S
C47 C50 1.382 . S
C48 C46 1.384 . S
C48 C49 1.381 . S
C48 H75 0.930 . S
C49 C48 1.381 . S
C49 C51 1.381 . S
C49 C52 1.487 . S
C50 C47 1.382 . S
C50 C51 1.387 . S
C50 H76 0.930 . S
C51 C49 1.381 . S
C51 C50 1.387 . S
C51 H77 0.931 . S
C52 C49 1.487 . S
C52 C59 1.399 . S
C52 N90 1.343 1_565 S
C53 C54 1.384 . S
C53 C55 1.384 . S
C53 H78 0.931 . S
C54 C53 1.384 . S
C54 C57 1.382 . S
C55 C53 1.384 . S
C55 C56 1.381 . S
C55 H79 0.930 . S
C56 C55 1.381 . S
C56 C58 1.381 . S
C56 C59 1.487 . S
C57 C54 1.382 . S
C57 C58 1.387 . S
C57 H80 0.930 . S
C58 C56 1.381 . S
C58 C57 1.387 . S
C58 H81 0.931 . S
C59 C52 1.399 . S
C59 C56 1.487 . S
C59 N91 1.343 1_565 S
C60 C61 1.384 . S
C60 C62 1.384 . S
C60 H82 0.931 . S
C61 C60 1.384 . S
C61 C64 1.382 . S
C62 C60 1.384 . S
C62 C63 1.381 . S
C62 H83 0.930 . S
C63 C62 1.381 . S
C63 C65 1.381 . S
C63 C66 1.487 . S
C64 C61 1.382 . S
C64 C65 1.387 . S
C64 H84 0.930 . S
C65 C63 1.381 . S
C65 C64 1.387 . S
C65 H85 0.931 . S
C66 C63 1.487 . S
C66 C73 1.399 . S
C66 N91 1.343 . S
C67 C68 1.384 . S
C67 C69 1.384 . S
C67 H86 0.931 . S
C68 C67 1.384 . S
C68 C71 1.382 . S
C69 C67 1.384 . S
C69 C70 1.381 . S
C69 H87 0.930 . S
C70 C69 1.381 . S
C70 C72 1.381 . S
C70 C73 1.487 . S
C71 C68 1.382 . S
C71 C72 1.387 . S
C71 H88 0.930 . S
C72 C70 1.381 . S
C72 C71 1.387 . S
C72 H89 0.931 . S
C73 C66 1.399 . S
C73 C70 1.487 . S
C73 N90 1.343 . S
H74 C46 0.931 . S
H75 C48 0.930 . S
H76 C50 0.930 . S
H77 C51 0.931 . S
H78 C53 0.931 . S
H79 C55 0.930 . S
H80 C57 0.930 . S
H81 C58 0.931 . S
H82 C60 0.931 . S
H83 C62 0.930 . S
H84 C64 0.930 . S
H85 C65 0.931 . S
H86 C67 0.931 . S
H87 C69 0.930 . S
H88 C71 0.930 . S
H89 C72 0.931 . S
N90 C52 1.343 1_545 S
N90 C73 1.343 . S
N91 C59 1.343 1_545 S
N91 C66 1.343 . S
C92 C93 1.384 . S
C92 C94 1.384 . S
C92 H120 0.931 . S
C93 C92 1.384 . S
C93 C96 1.382 . S
C94 C92 1.384 . S
C94 C95 1.381 . S
C94 H121 0.930 . S
C95 C94 1.381 . S
C95 C97 1.381 . S
C95 C98 1.487 . S
C96 C93 1.382 . S
C96 C97 1.387 . S
C96 H122 0.930 . S
C97 C95 1.381 . S
C97 C96 1.387 . S
C97 H123 0.931 . S
C98 C95 1.487 . S
C98 C105 1.399 . S
C98 N136 1.343 . S
C99 C100 1.384 . S
C99 C101 1.384 . S
C99 H124 0.931 . S
C100 C99 1.384 . S
C100 C103 1.382 . S
C101 C99 1.384 . S
C101 C102 1.381 . S
C101 H125 0.930 . S
C102 C101 1.381 . S
C102 C104 1.381 . S
C102 C105 1.487 . S
C103 C100 1.382 . S
C103 C104 1.387 . S
C103 H126 0.930 . S
C104 C102 1.381 . S
C104 C103 1.387 . S
C104 H127 0.931 . S
C105 C98 1.399 . S
C105 C102 1.487 . S
C105 N137 1.343 . S
C106 C107 1.384 . S
C106 C108 1.384 . S
C106 H128 0.931 . S
C107 C106 1.384 . S
C107 C110 1.382 . S
C108 C106 1.384 . S
C108 C109 1.381 . S
C108 H129 0.930 . S
C109 C108 1.381 . S
C109 C111 1.381 . S
C109 C112 1.487 . S
C110 C107 1.382 . S
C110 C111 1.387 . S
C110 H130 0.930 . S
C111 C109 1.381 . S
C111 C110 1.387 . S
C111 H131 0.931 . S
C112 C109 1.487 . S
C112 C119 1.399 . S
C112 N137 1.343 . S
C113 C114 1.384 . S
C113 C115 1.384 . S
C113 H132 0.931 . S
C114 C113 1.384 . S
C114 C117 1.382 . S
C115 C113 1.384 . S
C115 C116 1.381 . S
C115 H133 0.930 . S
C116 C115 1.381 . S
C116 C118 1.381 . S
C116 C119 1.487 . S
C117 C114 1.382 . S
C117 C118 1.387 . S
C117 H134 0.930 . S
C118 C116 1.381 . S
C118 C117 1.387 . S
C118 H135 0.931 . S
C119 C112 1.399 . S
C119 C116 1.487 . S
C119 N136 1.343 . S
H120 C92 0.931 . S
H121 C94 0.930 . S
H122 C96 0.930 . S
H123 C97 0.931 . S
H124 C99 0.931 . S
H125 C101 0.930 . S
H126 C103 0.930 . S
H127 C104 0.931 . S
H128 C106 0.931 . S
H129 C108 0.930 . S
H130 C110 0.930 . S
H131 C111 0.931 . S
H132 C113 0.931 . S
H133 C115 0.930 . S
H134 C117 0.930 . S
H135 C118 0.931 . S
N136 C98 1.343 . S
N136 C119 1.343 . S
N137 C105 1.343 . S
N137 C112 1.343 . S
C138 C139 1.384 . S
C138 C140 1.384 . S
C138 H166 0.931 . S
C139 C138 1.384 . S
C139 C142 1.382 . S
C140 C138 1.384 . S
C140 C141 1.381 . S
C140 H167 0.930 . S
C141 C140 1.381 . S
C141 C143 1.381 . S
C141 C144 1.487 . S
C142 C139 1.382 . S
C142 C143 1.387 . S
C142 H168 0.930 . S
C143 C141 1.381 . S
C143 C142 1.387 . S
C143 H169 0.931 . S
C144 C141 1.487 . S
C144 C151 1.399 . S
C144 N182 1.343 1_655 S
C145 C146 1.384 . S
C145 C147 1.384 . S
C145 H170 0.931 . S
C146 C145 1.384 . S
C146 C149 1.382 . S
C147 C145 1.384 . S
C147 C148 1.381 . S
C147 H171 0.930 . S
C148 C147 1.381 . S
C148 C150 1.381 . S
C148 C151 1.487 . S
C149 C146 1.382 . S
C149 C150 1.387 . S
C149 H172 0.930 . S
C150 C148 1.381 . S
C150 C149 1.387 . S
C150 H173 0.931 . S
C151 C144 1.399 . S
C151 C148 1.487 . S
C151 N183 1.343 1_655 S
C152 C153 1.384 . S
C152 C154 1.384 . S
C152 H174 0.931 . S
C153 C152 1.384 . S
C153 C156 1.382 . S
C154 C152 1.384 . S
C154 C155 1.381 . S
C154 H175 0.930 . S
C155 C154 1.381 . S
C155 C157 1.381 . S
C155 C158 1.487 . S
C156 C153 1.382 . S
C156 C157 1.387 . S
C156 H176 0.930 . S
C157 C155 1.381 . S
C157 C156 1.387 . S
C157 H177 0.931 . S
C158 C155 1.487 . S
C158 C165 1.399 . S
C158 N183 1.343 . S
C159 C160 1.384 . S
C159 C161 1.384 . S
C159 H178 0.931 . S
C160 C159 1.384 . S
C160 C163 1.382 . S
C161 C159 1.384 . S
C161 C162 1.381 . S
C161 H179 0.930 . S
C162 C161 1.381 . S
C162 C164 1.381 . S
C162 C165 1.487 . S
C163 C160 1.382 . S
C163 C164 1.387 . S
C163 H180 0.930 . S
C164 C162 1.381 . S
C164 C163 1.387 . S
C164 H181 0.931 . S
C165 C158 1.399 . S
C165 C162 1.487 . S
C165 N182 1.343 . S
H166 C138 0.931 . S
H167 C140 0.930 . S
H168 C142 0.930 . S
H169 C143 0.931 . S
H170 C145 0.931 . S
H171 C147 0.930 . S
H172 C149 0.930 . S
H173 C150 0.931 . S
H174 C152 0.931 . S
H175 C154 0.930 . S
H176 C156 0.930 . S
H177 C157 0.931 . S
H178 C159 0.931 . S
H179 C161 0.930 . S
H180 C163 0.930 . S
H181 C164 0.931 . S
N182 C144 1.343 1_455 S
N182 C165 1.343 . S
N183 C151 1.343 1_455 S
N183 C158 1.343 . S
C184 C185 1.384 . S
C184 C186 1.384 . S
C184 H212 0.931 . S
C185 C184 1.384 . S
C185 C188 1.382 . S
C186 C184 1.384 . S
C186 C187 1.381 . S
C186 H213 0.917 1_556 S
C187 C186 1.381 . S
C187 C189 1.381 . S
C187 C190 1.487 . S
C188 C185 1.382 . S
C188 C189 1.387 . S
C188 H214 0.930 . S
C189 C187 1.381 . S
C189 C188 1.387 . S
C189 H215 0.931 . S
C190 C187 1.487 . S
C190 C197 1.399 1_556 S
C190 N228 1.343 1_565 S
C191 C192 1.384 . S
C191 C193 1.384 . S
C191 H216 0.931 . S
C192 C191 1.384 . S
C192 C195 1.382 . S
C193 C191 1.384 . S
C193 C194 1.381 . S
C193 H217 0.930 . S
C194 C193 1.381 . S
C194 C196 1.381 . S
C194 C197 1.487 . S
C195 C192 1.382 . S
C195 C196 1.387 . S
C195 H218 0.930 . S
C196 C194 1.381 . S
C196 C195 1.387 . S
C196 H219 0.931 . S
C197 C190 1.399 1_554 S
C197 C194 1.487 . S
C197 N229 1.343 1_565 S
C198 C199 1.384 . S
C198 C200 1.384 1_554 S
C198 H220 0.928 1_554 S
C199 C198 1.384 . S
C199 C202 1.382 . S
C200 C198 1.384 1_556 S
C200 C201 1.381 1_556 S
C200 H221 0.930 . S
C201 C200 1.381 1_554 S
C201 C203 1.381 . S
C201 C204 1.487 1_554 S
C202 C199 1.382 . S
C202 C203 1.387 . S
C202 H222 0.930 . S
C203 C201 1.381 . S
C203 C202 1.387 . S
C203 H223 0.931 . S
C204 C201 1.487 1_556 S
C204 C211 1.399 . S
C204 N229 1.343 1_556 S
C205 C206 1.384 . S
C205 C207 1.384 . S
C205 H224 0.931 . S
C206 C205 1.384 . S
C206 C209 1.382 . S
C207 C205 1.384 . S
C207 C208 1.381 . S
C207 H225 0.930 . S
C208 C207 1.381 . S
C208 C210 1.381 . S
C208 C211 1.487 . S
C209 C206 1.382 . S
C209 C210 1.387 . S
C209 H226 0.930 . S
C210 C208 1.381 . S
C210 C209 1.387 . S
C210 H227 0.931 . S
C211 C204 1.399 . S
C211 C208 1.487 . S
C211 N228 1.343 . S
H212 C184 0.931 . S
H213 C186 0.917 1_554 S
H214 C188 0.930 . S
H215 C189 0.931 . S
H216 C191 0.931 . S
H217 C193 0.930 . S
H218 C195 0.930 . S
H219 C196 0.931 . S
H220 C198 0.928 1_556 S
H221 C200 0.930 . S
H222 C202 0.930 . S
H223 C203 0.931 . S
H224 C205 0.931 . S
H225 C207 0.930 . S
H226 C209 0.930 . S
H227 C210 0.931 . S
N228 C190 1.343 1_545 S
N228 C211 1.343 . S
N229 C197 1.343 1_545 S
N229 C204 1.343 1_554 S
C230 C231 1.384 . S
C230 C232 1.384 . S
C230 H258 0.931 . S
C231 C230 1.384 . S
C231 C234 1.382 . S
C232 C230 1.384 . S
C232 C233 1.381 . S
C232 H259 0.930 . S
C233 C232 1.381 . S
C233 C235 1.381 . S
C233 C236 1.487 . S
C234 C231 1.382 . S
C234 C235 1.387 . S
C234 H260 0.930 . S
C235 C233 1.381 . S
C235 C234 1.387 . S
C235 H261 0.931 . S
C236 C233 1.487 . S
C236 C243 1.399 . S
C236 N274 1.343 . S
C237 C238 1.384 . S
C237 C239 1.384 . S
C237 H262 0.931 . S
C238 C237 1.384 . S
C238 C241 1.382 . S
C239 C237 1.384 . S
C239 C240 1.381 . S
C239 H263 0.930 . S
C240 C239 1.381 . S
C240 C242 1.381 . S
C240 C243 1.487 . S
C241 C238 1.382 . S
C241 C242 1.387 . S
C241 H264 0.930 . S
C242 C240 1.381 . S
C242 C241 1.387 . S
C242 H265 0.931 . S
C243 C236 1.399 . S
C243 C240 1.487 . S
C243 N275 1.343 . S
C244 C245 1.384 . S
C244 C246 1.384 . S
C244 H266 0.931 . S
C245 C244 1.384 . S
C245 C248 1.382 . S
C246 C244 1.384 . S
C246 C247 1.381 . S
C246 H267 0.930 . S
C247 C246 1.381 . S
C247 C249 1.381 . S
C247 C250 1.487 . S
C248 C245 1.382 . S
C248 C249 1.387 . S
C248 H268 0.930 . S
C249 C247 1.381 . S
C249 C248 1.387 . S
C249 H269 0.931 . S
C250 C247 1.487 . S
C250 C257 1.399 . S
C250 N275 1.343 . S
C251 C252 1.384 . S
C251 C253 1.384 . S
C251 H270 0.931 . S
C252 C251 1.384 . S
C252 C255 1.382 . S
C253 C251 1.384 . S
C253 C254 1.381 . S
C253 H271 0.930 . S
C254 C253 1.381 . S
C254 C256 1.381 . S
C254 C257 1.487 . S
C255 C252 1.382 . S
C255 C256 1.387 . S
C255 H272 0.930 . S
C256 C254 1.381 . S
C256 C255 1.387 . S
C256 H273 0.931 . S
C257 C250 1.399 . S
C257 C254 1.487 . S
C257 N274 1.343 . S
H258 C230 0.931 . S
H259 C232 0.930 . S
H260 C234 0.930 . S
H261 C235 0.931 . S
H262 C237 0.931 . S
H263 C239 0.930 . S
H264 C241 0.930 . S
H265 C242 0.931 . S
H266 C244 0.931 . S
H267 C246 0.930 . S
H268 C248 0.930 . S
H269 C249 0.931 . S
H270 C251 0.931 . S
H271 C253 0.930 . S
H272 C255 0.930 . S
H273 C256 0.931 . S
N274 C236 1.343 . S
N274 C257 1.343 . S
N275 C243 1.343 . S
N275 C250 1.343 . S
O276 Cd277 2.223 . S
O276 C284 1.315 . S
Cd277 O276 2.223 . S
Cd277 O280 2.297 . S
Cd277 O281 2.439 . S
Cd277 O287 2.240 . S
Cd278 O279 2.240 . S
Cd278 O286 2.223 . S
Cd278 O288 2.297 . S
Cd278 O289 2.439 . S
O279 Cd278 2.240 . S
O279 C284 1.279 . S
O280 Cd277 2.297 . S
O280 C282 1.247 . S
O281 Cd277 2.439 . S
O281 C282 1.208 . S
C282 O280 1.247 . S
C282 O281 1.208 . S
C283 O288 1.247 . S
C283 O289 1.208 . S
C284 O276 1.315 . S
C284 O279 1.279 . S
C285 O286 1.315 . S
C285 O287 1.279 . S
O286 Cd278 2.223 . S
O286 C285 1.315 . S
O287 Cd277 2.240 . S
O287 C285 1.279 . S
O288 Cd278 2.297 . S
O288 C283 1.247 . S
O289 Cd278 2.439 . S
O289 C283 1.208 . S
O290 Cd291 2.223 . S
O290 C298 1.315 . S
Cd291 O290 2.223 . S
Cd291 O294 2.297 . S
Cd291 O295 2.439 . S
Cd291 O301 2.240 . S
Cd292 O293 2.240 . S
Cd292 O300 2.223 . S
Cd292 O302 2.297 . S
Cd292 O303 2.439 . S
O293 Cd292 2.240 . S
O293 C298 1.279 . S
O294 Cd291 2.297 . S
O294 C296 1.247 . S
O295 Cd291 2.439 . S
O295 C296 1.208 . S
C296 O294 1.247 . S
C296 O295 1.208 . S
C297 O302 1.247 . S
C297 O303 1.208 . S
C298 O290 1.315 . S
C298 O293 1.279 . S
C299 O300 1.315 . S
C299 O301 1.279 . S
O300 Cd292 2.223 . S
O300 C299 1.315 . S
O301 Cd291 2.240 . S
O301 C299 1.279 . S
O302 Cd292 2.297 . S
O302 C297 1.247 . S
O303 Cd292 2.439 . S
O303 C297 1.208 . S
O304 Cd305 2.223 . S
O304 C312 1.315 . S
Cd305 O304 2.223 . S
Cd305 O308 2.297 . S
Cd305 O309 2.439 . S
Cd305 O315 2.240 . S
Cd306 O307 2.240 . S
Cd306 O314 2.223 . S
Cd306 O316 2.297 . S
Cd306 O317 2.439 . S
O307 Cd306 2.240 . S
O307 C312 1.279 . S
O308 Cd305 2.297 . S
O308 C310 1.247 . S
O309 Cd305 2.439 . S
O309 C310 1.208 . S
C310 O308 1.247 . S
C310 O309 1.208 . S
C311 O316 1.247 . S
C311 O317 1.208 . S
C312 O304 1.315 . S
C312 O307 1.279 . S
C313 O314 1.315 . S
C313 O315 1.279 . S
O314 Cd306 2.223 . S
O314 C313 1.315 . S
O315 Cd305 2.240 . S
O315 C313 1.279 . S
O316 Cd306 2.297 . S
O316 C311 1.247 . S
O317 Cd306 2.439 . S
O317 C311 1.208 . S
O318 Cd319 2.223 . S
O318 C326 1.315 . S
Cd319 O318 2.223 . S
Cd319 O322 2.297 . S
Cd319 O323 2.439 . S
Cd319 O329 2.240 . S
Cd320 O321 2.240 . S
Cd320 O328 2.223 . S
Cd320 O330 2.297 . S
Cd320 O331 2.439 . S
O321 Cd320 2.240 . S
O321 C326 1.279 . S
O322 Cd319 2.297 . S
O322 C324 1.247 . S
O323 Cd319 2.439 . S
O323 C324 1.208 . S
C324 O322 1.247 . S
C324 O323 1.208 . S
C325 O330 1.247 . S
C325 O331 1.208 . S
C326 O318 1.315 . S
C326 O321 1.279 . S
C327 O328 1.315 . S
C327 O329 1.279 . S
O328 Cd320 2.223 . S
O328 C327 1.315 . S
O329 Cd319 2.240 . S
O329 C327 1.279 . S
O330 Cd320 2.297 . S
O330 C325 1.247 . S
O331 Cd320 2.439 . S
O331 C325 1.208 . S
O332 Cd333 2.223 . S
O332 C340 1.315 . S
Cd333 O332 2.223 . S
Cd333 O336 2.297 . S
Cd333 O337 2.439 . S
Cd333 O343 2.240 . S
Cd334 O335 2.240 . S
Cd334 O342 2.223 . S
Cd334 O344 2.297 . S
Cd334 O345 2.439 . S
O335 Cd334 2.240 . S
O335 C340 1.279 . S
O336 Cd333 2.297 . S
O336 C338 1.247 . S
O337 Cd333 2.439 . S
O337 C338 1.208 . S
C338 O336 1.247 . S
C338 O337 1.208 . S
C339 O344 1.247 . S
C339 O345 1.208 . S
C340 O332 1.315 . S
C340 O335 1.279 . S
C341 O342 1.315 . S
C341 O343 1.279 . S
O342 Cd334 2.223 . S
O342 C341 1.315 . S
O343 Cd333 2.240 . S
O343 C341 1.279 . S
O344 Cd334 2.297 . S
O344 C339 1.247 . S
O345 Cd334 2.439 . S
O345 C339 1.208 . S
O346 Cd347 2.223 . S
O346 C354 1.315 . S
Cd347 O346 2.223 . S
Cd347 O350 2.297 . S
Cd347 O351 2.439 . S
Cd347 O357 2.240 . S
Cd348 O349 2.240 . S
Cd348 O356 2.223 . S
Cd348 O358 2.297 . S
Cd348 O359 2.439 . S
O349 Cd348 2.240 . S
O349 C354 1.279 . S
O350 Cd347 2.297 . S
O350 C352 1.247 . S
O351 Cd347 2.439 . S
O351 C352 1.208 . S
C352 O350 1.247 . S
C352 O351 1.208 . S
C353 O358 1.247 . S
C353 O359 1.208 . S
C354 O346 1.315 . S
C354 O349 1.279 . S
C355 O356 1.315 . S
C355 O357 1.279 . S
O356 Cd348 2.223 . S
O356 C355 1.315 . S
O357 Cd347 2.240 . S
O357 C355 1.279 . S
O358 Cd348 2.297 . S
O358 C353 1.247 . S
O359 Cd348 2.439 . S
O359 C353 1.208 . S
H360 C378 0.951 . S
H361 C380 0.951 . S
H362 C382 0.950 . S
H363 C383 0.950 . S
H364 C385 0.950 . S
H365 C388 0.950 . S
H366 C389 0.950 . S
H367 C391 0.950 . S
H368 C392 0.950 . S
H369 C393 0.951 . S
H370 C395 0.951 . S
H371 C397 0.950 . S
H372 C398 0.950 . S
H373 C400 0.950 . S
H374 C403 0.950 . S
H375 C404 0.950 . S
H376 C406 0.950 . S
H377 C407 0.950 . S
C378 H360 0.951 . S
C378 C379 1.366 . S
C378 C380 1.388 . S
C379 C378 1.366 . S
C379 C383 1.385 . S
C380 H361 0.951 . S
C380 C378 1.388 . S
C380 C381 1.366 . S
C381 C380 1.366 . S
C381 C382 1.414 . S
C381 C384 1.499 . S
C382 H362 0.950 . S
C382 C381 1.414 . S
C382 C383 1.374 . S
C383 H363 0.950 . S
C383 C379 1.385 . S
C383 C382 1.374 . S
C384 C381 1.499 . S
C384 C385 1.373 . S
C384 C386 1.389 . S
C385 H364 0.950 . S
C385 C384 1.373 . S
C385 C401 1.377 . S
C386 C384 1.389 . S
C386 C387 1.524 . S
C386 C400 1.377 . S
C387 C386 1.524 . S
C387 C388 1.397 . S
C387 C392 1.363 . S
C388 H365 0.950 . S
C388 C387 1.397 . S
C388 C389 1.334 . S
C389 H366 0.950 . S
C389 C388 1.334 . S
C389 C390 1.287 . S
C390 C389 1.287 . S
C390 C391 1.524 . S
C390 H409 0.913 . S
C391 H367 0.950 . S
C391 C390 1.524 . S
C391 C392 1.415 . S
C392 H368 0.950 . S
C392 C387 1.363 . S
C392 C391 1.415 . S
C393 H369 0.951 . S
C393 C394 1.366 . S
C393 C395 1.388 . S
C394 C393 1.366 . S
C394 C398 1.385 . S
C395 H370 0.951 . S
C395 C393 1.388 . S
C395 C396 1.366 . S
C396 C395 1.366 . S
C396 C397 1.414 . S
C396 C399 1.499 . S
C397 H371 0.950 . S
C397 C396 1.414 . S
C397 C398 1.374 . S
C398 H372 0.950 . S
C398 C394 1.385 . S
C398 C397 1.374 . S
C399 C396 1.499 . S
C399 C400 1.373 . S
C399 C401 1.389 . S
C400 H373 0.950 . S
C400 C386 1.377 . S
C400 C399 1.373 . S
C401 C385 1.377 . S
C401 C399 1.389 . S
C401 C402 1.524 . S
C402 C401 1.524 . S
C402 C403 1.397 . S
C402 C407 1.363 . S
C403 H374 0.950 . S
C403 C402 1.397 . S
C403 C404 1.334 . S
C404 H375 0.950 . S
C404 C403 1.334 . S
C404 C405 1.287 . S
C405 C404 1.287 . S
C405 C406 1.524 . S
C405 H408 0.999 . S
C406 H376 0.950 . S
C406 C405 1.524 . S
C406 C407 1.415 . S
C407 H377 0.950 . S
C407 C402 1.363 . S
C407 C406 1.415 . S
H408 C405 0.999 . S
H409 C390 0.913 . S
H410 C428 0.951 . S
H411 C430 0.951 . S
H412 C432 0.950 . S
H413 C433 0.950 . S
H414 C435 0.950 . S
H415 C438 0.950 . S
H416 C439 0.950 . S
H417 C441 0.950 . S
H418 C442 0.950 . S
H419 C443 0.951 . S
H420 C445 0.951 . S
H421 C447 0.950 . S
H422 C448 0.950 . S
H423 C450 0.950 . S
H424 C453 0.950 . S
H425 C454 0.950 . S
H426 C456 0.950 . S
H427 C457 0.950 . S
C428 H410 0.951 . S
C428 C429 1.366 . S
C428 C430 1.388 . S
C429 C428 1.366 . S
C429 C433 1.385 . S
C430 H411 0.951 . S
C430 C428 1.388 . S
C430 C431 1.366 . S
C431 C430 1.366 . S
C431 C432 1.414 . S
C431 C434 1.499 . S
C432 H412 0.950 . S
C432 C431 1.414 . S
C432 C433 1.374 . S
C433 H413 0.950 . S
C433 C429 1.385 . S
C433 C432 1.374 . S
C434 C431 1.499 . S
C434 C435 1.373 . S
C434 C436 1.389 . S
C435 H414 0.950 . S
C435 C434 1.373 . S
C435 C451 1.377 . S
C436 C434 1.389 . S
C436 C437 1.524 . S
C436 C450 1.377 . S
C437 C436 1.524 . S
C437 C438 1.397 . S
C437 C442 1.363 . S
C438 H415 0.950 . S
C438 C437 1.397 . S
C438 C439 1.334 . S
C439 H416 0.950 . S
C439 C438 1.334 . S
C439 C440 1.287 . S
C440 C439 1.287 . S
C440 C441 1.524 . S
C440 H459 0.913 . S
C441 H417 0.950 . S
C441 C440 1.524 . S
C441 C442 1.415 . S
C442 H418 0.950 . S
C442 C437 1.363 . S
C442 C441 1.415 . S
C443 H419 0.951 . S
C443 C444 1.366 . S
C443 C445 1.388 . S
C444 C443 1.366 . S
C444 C448 1.385 . S
C445 H420 0.951 . S
C445 C443 1.388 . S
C445 C446 1.366 . S
C446 C445 1.366 . S
C446 C447 1.414 . S
C446 C449 1.499 . S
C447 H421 0.950 . S
C447 C446 1.414 . S
C447 C448 1.374 . S
C448 H422 0.950 . S
C448 C444 1.385 . S
C448 C447 1.374 . S
C449 C446 1.499 . S
C449 C450 1.373 . S
C449 C451 1.389 . S
C450 H423 0.950 . S
C450 C436 1.377 . S
C450 C449 1.373 . S
C451 C435 1.377 . S
C451 C449 1.389 . S
C451 C452 1.524 . S
C452 C451 1.524 . S
C452 C453 1.397 . S
C452 C457 1.363 . S
C453 H424 0.950 . S
C453 C452 1.397 . S
C453 C454 1.334 . S
C454 H425 0.950 . S
C454 C453 1.334 . S
C454 C455 1.287 . S
C455 C454 1.287 . S
C455 C456 1.524 . S
C455 H458 0.999 . S
C456 H426 0.950 . S
C456 C455 1.524 . S
C456 C457 1.415 . S
C457 H427 0.950 . S
C457 C452 1.363 . S
C457 C456 1.415 . S
H458 C455 0.999 . S
H459 C440 0.913 . S
H460 C478 0.951 . S
H461 C480 0.951 . S
H462 C482 0.950 . S
H463 C483 0.950 . S
H464 C485 0.950 . S
H465 C488 0.950 . S
H466 C489 0.950 . S
H467 C491 0.950 . S
H468 C492 0.950 . S
H469 C493 0.951 . S
H470 C495 0.951 . S
H471 C497 0.950 . S
H472 C498 0.950 . S
H473 C500 0.950 . S
H474 C503 0.950 . S
H475 C504 0.950 . S
H476 C506 0.950 . S
H477 C507 0.950 . S
C478 H460 0.951 . S
C478 C479 1.366 . S
C478 C480 1.388 . S
C479 C478 1.366 . S
C479 C483 1.385 . S
C480 H461 0.951 . S
C480 C478 1.388 . S
C480 C481 1.366 . S
C481 C480 1.366 . S
C481 C482 1.414 . S
C481 C484 1.499 . S
C482 H462 0.950 . S
C482 C481 1.414 . S
C482 C483 1.374 . S
C483 H463 0.950 . S
C483 C479 1.385 . S
C483 C482 1.374 . S
C484 C481 1.499 . S
C484 C485 1.373 . S
C484 C486 1.389 . S
C485 H464 0.950 . S
C485 C484 1.373 . S
C485 C501 1.377 . S
C486 C484 1.389 . S
C486 C487 1.524 . S
C486 C500 1.377 . S
C487 C486 1.524 . S
C487 C488 1.397 . S
C487 C492 1.363 . S
C488 H465 0.950 . S
C488 C487 1.397 . S
C488 C489 1.334 . S
C489 H466 0.950 . S
C489 C488 1.334 . S
C489 C490 1.287 . S
C490 C489 1.287 . S
C490 C491 1.524 . S
C490 H509 0.913 . S
C491 H467 0.950 . S
C491 C490 1.524 . S
C491 C492 1.415 . S
C492 H468 0.950 . S
C492 C487 1.363 . S
C492 C491 1.415 . S
C493 H469 0.951 . S
C493 C494 1.366 . S
C493 C495 1.388 . S
C494 C493 1.366 . S
C494 C498 1.385 . S
C495 H470 0.951 . S
C495 C493 1.388 . S
C495 C496 1.366 . S
C496 C495 1.366 . S
C496 C497 1.414 . S
C496 C499 1.499 . S
C497 H471 0.950 . S
C497 C496 1.414 . S
C497 C498 1.374 . S
C498 H472 0.950 . S
C498 C494 1.385 . S
C498 C497 1.374 . S
C499 C496 1.499 . S
C499 C500 1.373 . S
C499 C501 1.389 . S
C500 H473 0.950 . S
C500 C486 1.377 . S
C500 C499 1.373 . S
C501 C485 1.377 . S
C501 C499 1.389 . S
C501 C502 1.524 . S
C502 C501 1.524 . S
C502 C503 1.397 . S
C502 C507 1.363 . S
C503 H474 0.950 . S
C503 C502 1.397 . S
C503 C504 1.334 . S
C504 H475 0.950 . S
C504 C503 1.334 . S
C504 C505 1.287 . S
C505 C504 1.287 . S
C505 C506 1.524 . S
C505 H508 0.999 . S
C506 H476 0.950 . S
C506 C505 1.524 . S
C506 C507 1.415 . S
C507 H477 0.950 . S
C507 C502 1.363 . S
C507 C506 1.415 . S
H508 C505 0.999 . S
H509 C490 0.913 . S
H510 C528 0.951 . S
H511 C530 0.951 . S
H512 C532 0.950 . S
H513 C533 0.950 . S
H514 C535 0.950 . S
H515 C538 0.950 . S
H516 C539 0.950 . S
H517 C541 0.950 . S
H518 C542 0.950 . S
H519 C543 0.951 . S
H520 C545 0.951 . S
H521 C547 0.950 . S
H522 C548 0.950 . S
H523 C550 0.950 . S
H524 C553 0.950 . S
H525 C554 0.950 . S
H526 C556 0.950 . S
H527 C557 0.950 . S
C528 H510 0.951 . S
C528 C529 1.366 . S
C528 C530 1.388 . S
C529 C528 1.366 . S
C529 C533 1.385 . S
C530 H511 0.951 . S
C530 C528 1.388 . S
C530 C531 1.366 . S
C531 C530 1.366 . S
C531 C532 1.414 . S
C531 C534 1.499 . S
C532 H512 0.950 . S
C532 C531 1.414 . S
C532 C533 1.374 . S
C533 H513 0.950 . S
C533 C529 1.385 . S
C533 C532 1.374 . S
C534 C531 1.499 . S
C534 C535 1.373 . S
C534 C536 1.389 . S
C535 H514 0.950 . S
C535 C534 1.373 . S
C535 C551 1.377 . S
C536 C534 1.389 . S
C536 C537 1.524 . S
C536 C550 1.377 . S
C537 C536 1.524 . S
C537 C538 1.397 . S
C537 C542 1.363 . S
C538 H515 0.950 . S
C538 C537 1.397 . S
C538 C539 1.334 . S
C539 H516 0.950 . S
C539 C538 1.334 . S
C539 C540 1.287 . S
C540 C539 1.287 . S
C540 C541 1.524 . S
C540 H559 0.913 . S
C541 H517 0.950 . S
C541 C540 1.524 . S
C541 C542 1.415 . S
C542 H518 0.950 . S
C542 C537 1.363 . S
C542 C541 1.415 . S
C543 H519 0.951 . S
C543 C544 1.366 . S
C543 C545 1.388 . S
C544 C543 1.366 . S
C544 C548 1.385 . S
C545 H520 0.951 . S
C545 C543 1.388 . S
C545 C546 1.366 . S
C546 C545 1.366 . S
C546 C547 1.414 . S
C546 C549 1.499 . S
C547 H521 0.950 . S
C547 C546 1.414 . S
C547 C548 1.374 . S
C548 H522 0.950 . S
C548 C544 1.385 . S
C548 C547 1.374 . S
C549 C546 1.499 . S
C549 C550 1.373 . S
C549 C551 1.389 . S
C550 H523 0.950 . S
C550 C536 1.377 . S
C550 C549 1.373 . S
C551 C535 1.377 . S
C551 C549 1.389 . S
C551 C552 1.524 . S
C552 C551 1.524 . S
C552 C553 1.397 . S
C552 C557 1.363 . S
C553 H524 0.950 . S
C553 C552 1.397 . S
C553 C554 1.334 . S
C554 H525 0.950 . S
C554 C553 1.334 . S
C554 C555 1.287 . S
C555 C554 1.287 . S
C555 C556 1.524 . S
C555 H558 0.999 . S
C556 H526 0.950 . S
C556 C555 1.524 . S
C556 C557 1.415 . S
C557 H527 0.950 . S
C557 C552 1.363 . S
C557 C556 1.415 . S
H558 C555 0.999 . S
H559 C540 0.913 . S
H560 C578 0.951 . S
H561 C580 0.951 . S
H562 C582 0.950 . S
H563 C583 0.950 . S
H564 C585 0.950 . S
H565 C588 0.950 . S
H566 C589 0.950 . S
H567 C591 0.950 . S
H568 C592 0.950 . S
H569 C593 0.951 . S
H570 C595 0.951 . S
H571 C597 0.950 . S
H572 C598 0.950 . S
H573 C600 0.950 . S
H574 C603 0.950 . S
H575 C604 0.950 . S
H576 C606 0.950 . S
H577 C607 0.950 . S
C578 H560 0.951 . S
C578 C579 1.366 . S
C578 C580 1.388 . S
C579 C578 1.366 . S
C579 C583 1.385 . S
C580 H561 0.951 . S
C580 C578 1.388 . S
C580 C581 1.366 . S
C581 C580 1.366 . S
C581 C582 1.414 . S
C581 C584 1.499 . S
C582 H562 0.950 . S
C582 C581 1.414 . S
C582 C583 1.374 . S
C583 H563 0.950 . S
C583 C579 1.385 . S
C583 C582 1.374 . S
C584 C581 1.499 . S
C584 C585 1.373 . S
C584 C586 1.389 . S
C585 H564 0.950 . S
C585 C584 1.373 . S
C585 C601 1.377 . S
C586 C584 1.389 . S
C586 C587 1.524 . S
C586 C600 1.377 . S
C587 C586 1.524 . S
C587 C588 1.397 . S
C587 C592 1.363 . S
C588 H565 0.950 . S
C588 C587 1.397 . S
C588 C589 1.334 1_556 S
C589 H566 0.950 . S
C589 C588 1.334 1_554 S
C589 C590 1.287 . S
C590 C589 1.287 . S
C590 C591 1.524 . S
C590 H609 0.913 . S
C591 H567 0.950 . S
C591 C590 1.524 . S
C591 C592 1.415 1_554 S
C592 H568 0.950 . S
C592 C587 1.363 . S
C592 C591 1.415 1_556 S
C593 H569 0.951 . S
C593 C594 1.366 . S
C593 C595 1.388 . S
C594 C593 1.366 . S
C594 C598 1.385 . S
C595 H570 0.951 . S
C595 C593 1.388 . S
C595 C596 1.366 . S
C596 C595 1.366 . S
C596 C597 1.414 . S
C596 C599 1.499 . S
C597 H571 0.950 . S
C597 C596 1.414 . S
C597 C598 1.374 . S
C598 H572 0.950 . S
C598 C594 1.385 . S
C598 C597 1.374 . S
C599 C596 1.499 . S
C599 C600 1.373 . S
C599 C601 1.389 . S
C600 H573 0.950 . S
C600 C586 1.377 . S
C600 C599 1.373 . S
C601 C585 1.377 . S
C601 C599 1.389 . S
C601 C602 1.524 . S
C602 C601 1.524 . S
C602 C603 1.397 . S
C602 C607 1.363 . S
C603 H574 0.950 . S
C603 C602 1.397 . S
C603 C604 1.334 . S
C604 H575 0.950 . S
C604 C603 1.334 . S
C604 C605 1.287 . S
C605 C604 1.287 . S
C605 C606 1.524 . S
C605 H608 0.999 . S
C606 H576 0.950 . S
C606 C605 1.524 . S
C606 C607 1.415 . S
C607 H577 0.950 . S
C607 C602 1.363 . S
C607 C606 1.415 . S
H608 C605 0.999 . S
H609 C590 0.913 . S
H610 C628 0.951 . S
H611 C630 0.951 . S
H612 C632 0.950 . S
H613 C633 0.950 . S
H614 C635 0.950 . S
H615 C638 0.950 . S
H616 C639 0.950 . S
H617 C641 0.950 . S
H618 C642 0.950 . S
H619 C643 0.951 . S
H620 C645 0.951 . S
H621 C647 0.950 . S
H622 C648 0.950 . S
H623 C650 0.950 . S
H624 C653 0.950 . S
H625 C654 0.950 . S
H626 C656 0.950 . S
H627 C657 0.950 . S
C628 H610 0.951 . S
C628 C629 1.366 . S
C628 C630 1.388 . S
C629 C628 1.366 . S
C629 C633 1.385 . S
C630 H611 0.951 . S
C630 C628 1.388 . S
C630 C631 1.366 . S
C631 C630 1.366 . S
C631 C632 1.414 . S
C631 C634 1.499 . S
C632 H612 0.950 . S
C632 C631 1.414 . S
C632 C633 1.374 . S
C633 H613 0.950 . S
C633 C629 1.385 . S
C633 C632 1.374 . S
C634 C631 1.499 . S
C634 C635 1.373 . S
C634 C636 1.389 . S
C635 H614 0.950 . S
C635 C634 1.373 . S
C635 C651 1.377 . S
C636 C634 1.389 . S
C636 C637 1.524 . S
C636 C650 1.377 . S
C637 C636 1.524 . S
C637 C638 1.397 . S
C637 C642 1.363 . S
C638 H615 0.950 . S
C638 C637 1.397 . S
C638 C639 1.334 . S
C639 H616 0.950 . S
C639 C638 1.334 . S
C639 C640 1.287 . S
C640 C639 1.287 . S
C640 C641 1.524 . S
C640 H659 0.913 . S
C641 H617 0.950 . S
C641 C640 1.524 . S
C641 C642 1.415 . S
C642 H618 0.950 . S
C642 C637 1.363 . S
C642 C641 1.415 . S
C643 H619 0.951 . S
C643 C644 1.366 . S
C643 C645 1.388 . S
C644 C643 1.366 . S
C644 C648 1.385 . S
C645 H620 0.951 . S
C645 C643 1.388 . S
C645 C646 1.366 . S
C646 C645 1.366 . S
C646 C647 1.414 . S
C646 C649 1.499 . S
C647 H621 0.950 . S
C647 C646 1.414 . S
C647 C648 1.374 . S
C648 H622 0.950 . S
C648 C644 1.385 . S
C648 C647 1.374 . S
C649 C646 1.499 . S
C649 C650 1.373 . S
C649 C651 1.389 . S
C650 H623 0.950 . S
C650 C636 1.377 . S
C650 C649 1.373 . S
C651 C635 1.377 . S
C651 C649 1.389 . S
C651 C652 1.524 . S
C652 C651 1.524 . S
C652 C653 1.397 . S
C652 C657 1.363 . S
C653 H624 0.950 . S
C653 C652 1.397 . S
C653 C654 1.334 . S
C654 H625 0.950 . S
C654 C653 1.334 . S
C654 C655 1.287 . S
C655 C654 1.287 . S
C655 C656 1.524 . S
C655 H658 0.999 . S
C656 H626 0.950 . S
C656 C655 1.524 . S
C656 C657 1.415 . S
C657 H627 0.950 . S
C657 C652 1.363 . S
C657 C656 1.415 . S
H658 C655 0.999 . S
H659 C640 0.913 . S
H660 C678 0.951 . S
H661 C680 0.951 . S
H662 C682 0.950 . S
H663 C683 0.950 . S
H664 C685 0.950 . S
H665 C688 0.950 . S
H666 C689 0.950 . S
H667 C691 0.950 . S
H668 C692 0.950 . S
H669 C693 0.951 . S
H670 C695 0.951 . S
H671 C697 0.950 . S
H672 C698 0.950 . S
H673 C700 0.950 . S
H674 C703 0.950 . S
H675 C704 0.950 . S
H676 C706 0.950 . S
H677 C707 0.950 . S
C678 H660 0.951 . S
C678 C679 1.366 . S
C678 C680 1.388 . S
C679 C678 1.366 . S
C679 C683 1.385 . S
C680 H661 0.951 . S
C680 C678 1.388 . S
C680 C681 1.366 . S
C681 C680 1.366 . S
C681 C682 1.414 . S
C681 C684 1.499 . S
C682 H662 0.950 . S
C682 C681 1.414 . S
C682 C683 1.374 . S
C683 H663 0.950 . S
C683 C679 1.385 . S
C683 C682 1.374 . S
C684 C681 1.499 . S
C684 C685 1.373 . S
C684 C686 1.389 . S
C685 H664 0.950 . S
C685 C684 1.373 . S
C685 C701 1.377 . S
C686 C684 1.389 . S
C686 C687 1.524 . S
C686 C700 1.377 . S
C687 C686 1.524 . S
C687 C688 1.397 . S
C687 C692 1.363 . S
C688 H665 0.950 . S
C688 C687 1.397 . S
C688 C689 1.334 . S
C689 H666 0.950 . S
C689 C688 1.334 . S
C689 C690 1.287 . S
C690 C689 1.287 . S
C690 C691 1.524 . S
C690 H709 0.913 . S
C691 H667 0.950 . S
C691 C690 1.524 . S
C691 C692 1.415 . S
C692 H668 0.950 . S
C692 C687 1.363 . S
C692 C691 1.415 . S
C693 H669 0.951 . S
C693 C694 1.366 . S
C693 C695 1.388 . S
C694 C693 1.366 . S
C694 C698 1.385 . S
C695 H670 0.951 . S
C695 C693 1.388 . S
C695 C696 1.366 . S
C696 C695 1.366 . S
C696 C697 1.414 . S
C696 C699 1.499 . S
C697 H671 0.950 . S
C697 C696 1.414 . S
C697 C698 1.374 . S
C698 H672 0.950 . S
C698 C694 1.385 . S
C698 C697 1.374 . S
C699 C696 1.499 . S
C699 C700 1.373 . S
C699 C701 1.389 . S
C700 H673 0.950 . S
C700 C686 1.377 . S
C700 C699 1.373 . S
C701 C685 1.377 . S
C701 C699 1.389 . S
C701 C702 1.524 . S
C702 C701 1.524 . S
C702 C703 1.397 . S
C702 C707 1.363 . S
C703 H674 0.950 . S
C703 C702 1.397 . S
C703 C704 1.334 . S
C704 H675 0.950 . S
C704 C703 1.334 . S
C704 C705 1.287 . S
C705 C704 1.287 . S
C705 C706 1.524 . S
C705 H708 0.999 . S
C706 H676 0.950 . S
C706 C705 1.524 . S
C706 C707 1.415 . S
C707 H677 0.950 . S
C707 C702 1.363 . S
C707 C706 1.415 . S
H708 C705 0.999 . S
H709 C690 0.913 . S
H710 C728 0.951 . S
H711 C730 0.951 . S
H712 C732 0.950 . S
H713 C733 0.950 . S
H714 C735 0.950 . S
H715 C738 0.950 . S
H716 C739 0.950 . S
H717 C741 0.950 . S
H718 C742 0.950 . S
H719 C743 0.951 . S
H720 C745 0.951 . S
H721 C747 0.950 . S
H722 C748 0.950 . S
H723 C750 0.950 . S
H724 C753 0.950 . S
H725 C754 0.950 . S
H726 C756 0.950 . S
H727 C757 0.950 . S
C728 H710 0.951 . S
C728 C729 1.366 . S
C728 C730 1.388 . S
C729 C728 1.366 . S
C729 C733 1.385 . S
C730 H711 0.951 . S
C730 C728 1.388 . S
C730 C731 1.366 . S
C731 C730 1.366 . S
C731 C732 1.414 . S
C731 C734 1.499 . S
C732 H712 0.950 . S
C732 C731 1.414 . S
C732 C733 1.374 . S
C733 H713 0.950 . S
C733 C729 1.385 . S
C733 C732 1.374 . S
C734 C731 1.499 . S
C734 C735 1.373 . S
C734 C736 1.389 . S
C735 H714 0.950 . S
C735 C734 1.373 . S
C735 C751 1.377 . S
C736 C734 1.389 . S
C736 C737 1.524 . S
C736 C750 1.377 . S
C737 C736 1.524 . S
C737 C738 1.397 . S
C737 C742 1.363 . S
C738 H715 0.950 . S
C738 C737 1.397 . S
C738 C739 1.334 . S
C739 H716 0.950 . S
C739 C738 1.334 . S
C739 C740 1.287 . S
C740 C739 1.287 . S
C740 C741 1.524 . S
C740 H759 0.913 . S
C741 H717 0.950 . S
C741 C740 1.524 . S
C741 C742 1.415 . S
C742 H718 0.950 . S
C742 C737 1.363 . S
C742 C741 1.415 . S
C743 H719 0.951 . S
C743 C744 1.366 . S
C743 C745 1.388 . S
C744 C743 1.366 . S
C744 C748 1.385 . S
C745 H720 0.951 . S
C745 C743 1.388 . S
C745 C746 1.366 . S
C746 C745 1.366 . S
C746 C747 1.414 . S
C746 C749 1.499 . S
C747 H721 0.950 . S
C747 C746 1.414 . S
C747 C748 1.374 . S
C748 H722 0.950 . S
C748 C744 1.385 . S
C748 C747 1.374 . S
C749 C746 1.499 . S
C749 C750 1.373 . S
C749 C751 1.389 . S
C750 H723 0.950 . S
C750 C736 1.377 . S
C750 C749 1.373 . S
C751 C735 1.377 . S
C751 C749 1.389 . S
C751 C752 1.524 . S
C752 C751 1.524 . S
C752 C753 1.397 . S
C752 C757 1.363 . S
C753 H724 0.950 . S
C753 C752 1.397 . S
C753 C754 1.334 . S
C754 H725 0.950 . S
C754 C753 1.334 . S
C754 C755 1.287 . S
C755 C754 1.287 . S
C755 C756 1.524 . S
C755 H758 0.999 . S
C756 H726 0.950 . S
C756 C755 1.524 . S
C756 C757 1.415 . S
C757 H727 0.950 . S
C757 C752 1.363 . S
C757 C756 1.415 . S
H758 C755 0.999 . S
H759 C740 0.913 . S
H760 C778 0.951 . S
H761 C780 0.951 . S
H762 C782 0.950 . S
H763 C783 0.950 . S
H764 C785 0.950 . S
H765 C788 0.950 . S
H766 C789 0.950 . S
H767 C791 0.950 . S
H768 C792 0.950 . S
H769 C793 0.951 . S
H770 C795 0.951 . S
H771 C797 0.950 . S
H772 C798 0.950 . S
H773 C800 0.950 . S
H774 C803 0.950 . S
H775 C804 0.950 . S
H776 C806 0.950 . S
H777 C807 0.950 . S
C778 H760 0.951 . S
C778 C779 1.366 . S
C778 C780 1.388 . S
C779 C778 1.366 . S
C779 C783 1.385 . S
C780 H761 0.951 . S
C780 C778 1.388 . S
C780 C781 1.366 . S
C781 C780 1.366 . S
C781 C782 1.414 . S
C781 C784 1.499 . S
C782 H762 0.950 . S
C782 C781 1.414 . S
C782 C783 1.374 . S
C783 H763 0.950 . S
C783 C779 1.385 . S
C783 C782 1.374 . S
C784 C781 1.499 . S
C784 C785 1.373 . S
C784 C786 1.389 . S
C785 H764 0.950 . S
C785 C784 1.373 . S
C785 C801 1.377 . S
C786 C784 1.389 . S
C786 C787 1.524 . S
C786 C800 1.377 . S
C787 C786 1.524 . S
C787 C788 1.397 . S
C787 C792 1.363 . S
C788 H765 0.950 . S
C788 C787 1.397 . S
C788 C789 1.334 . S
C789 H766 0.950 . S
C789 C788 1.334 . S
C789 C790 1.287 . S
C790 C789 1.287 . S
C790 C791 1.524 . S
C790 H809 0.913 . S
C791 H767 0.950 . S
C791 C790 1.524 . S
C791 C792 1.415 . S
C792 H768 0.950 . S
C792 C787 1.363 . S
C792 C791 1.415 . S
C793 H769 0.951 . S
C793 C794 1.366 . S
C793 C795 1.388 . S
C794 C793 1.366 . S
C794 C798 1.385 . S
C795 H770 0.951 . S
C795 C793 1.388 . S
C795 C796 1.366 . S
C796 C795 1.366 . S
C796 C797 1.414 . S
C796 C799 1.499 . S
C797 H771 0.950 . S
C797 C796 1.414 . S
C797 C798 1.374 . S
C798 H772 0.950 . S
C798 C794 1.385 . S
C798 C797 1.374 . S
C799 C796 1.499 . S
C799 C800 1.373 . S
C799 C801 1.389 . S
C800 H773 0.950 . S
C800 C786 1.377 . S
C800 C799 1.373 . S
C801 C785 1.377 . S
C801 C799 1.389 . S
C801 C802 1.524 . S
C802 C801 1.524 . S
C802 C803 1.397 . S
C802 C807 1.363 . S
C803 H774 0.950 . S
C803 C802 1.397 . S
C803 C804 1.334 . S
C804 H775 0.950 . S
C804 C803 1.334 . S
C804 C805 1.287 . S
C805 C804 1.287 . S
C805 C806 1.524 . S
C805 H808 0.999 . S
C806 H776 0.950 . S
C806 C805 1.524 . S
C806 C807 1.415 . S
C807 H777 0.950 . S
C807 C802 1.363 . S
C807 C806 1.415 . S
H808 C805 0.999 . S
H809 C790 0.913 . S
H810 C828 0.951 . S
H811 C830 0.951 . S
H812 C832 0.950 . S
H813 C833 0.950 . S
H814 C835 0.950 . S
H815 C838 0.950 . S
H816 C839 0.950 . S
H817 C841 0.950 . S
H818 C842 0.950 . S
H819 C843 0.951 . S
H820 C845 0.951 . S
H821 C847 0.950 . S
H822 C848 0.950 . S
H823 C850 0.950 . S
H824 C853 0.950 . S
H825 C854 0.950 . S
H826 C856 0.950 . S
H827 C857 0.950 . S
C828 H810 0.951 . S
C828 C829 1.366 . S
C828 C830 1.388 . S
C829 C828 1.366 . S
C829 C833 1.385 . S
C830 H811 0.951 . S
C830 C828 1.388 . S
C830 C831 1.366 . S
C831 C830 1.366 . S
C831 C832 1.414 . S
C831 C834 1.499 . S
C832 H812 0.950 . S
C832 C831 1.414 . S
C832 C833 1.374 . S
C833 H813 0.950 . S
C833 C829 1.385 . S
C833 C832 1.374 . S
C834 C831 1.499 . S
C834 C835 1.373 . S
C834 C836 1.389 . S
C835 H814 0.950 . S
C835 C834 1.373 . S
C835 C851 1.377 . S
C836 C834 1.389 . S
C836 C837 1.524 . S
C836 C850 1.377 . S
C837 C836 1.524 . S
C837 C838 1.397 . S
C837 C842 1.363 . S
C838 H815 0.950 . S
C838 C837 1.397 . S
C838 C839 1.334 . S
C839 H816 0.950 . S
C839 C838 1.334 . S
C839 C840 1.287 . S
C840 C839 1.287 . S
C840 C841 1.524 . S
C840 H859 0.913 . S
C841 H817 0.950 . S
C841 C840 1.524 . S
C841 C842 1.415 . S
C842 H818 0.950 . S
C842 C837 1.363 . S
C842 C841 1.415 . S
C843 H819 0.951 . S
C843 C844 1.366 . S
C843 C845 1.388 . S
C844 C843 1.366 . S
C844 C848 1.385 . S
C845 H820 0.951 . S
C845 C843 1.388 . S
C845 C846 1.366 . S
C846 C845 1.366 . S
C846 C847 1.414 . S
C846 C849 1.499 . S
C847 H821 0.950 . S
C847 C846 1.414 . S
C847 C848 1.374 . S
C848 H822 0.950 . S
C848 C844 1.385 . S
C848 C847 1.374 . S
C849 C846 1.499 . S
C849 C850 1.373 . S
C849 C851 1.389 . S
C850 H823 0.950 . S
C850 C836 1.377 . S
C850 C849 1.373 . S
C851 C835 1.377 . S
C851 C849 1.389 . S
C851 C852 1.524 . S
C852 C851 1.524 . S
C852 C853 1.397 . S
C852 C857 1.363 1_554 S
C853 H824 0.950 . S
C853 C852 1.397 . S
C853 C854 1.334 1_554 S
C854 H825 0.950 . S
C854 C853 1.334 1_556 S
C854 C855 1.287 . S
C855 C854 1.287 . S
C855 C856 1.524 . S
C855 H858 0.999 . S
C856 H826 0.950 . S
C856 C855 1.524 . S
C856 C857 1.415 . S
C857 H827 0.950 . S
C857 C852 1.363 1_556 S
C857 C856 1.415 . S
H858 C855 0.999 . S
H859 C840 0.913 . S
H860 C878 0.951 . S
H861 C880 0.951 . S
H862 C882 0.950 . S
H863 C883 0.950 . S
H864 C885 0.950 . S
H865 C888 0.950 . S
H866 C889 0.950 . S
H867 C891 0.950 . S
H868 C892 0.950 . S
H869 C893 0.951 . S
H870 C895 0.951 . S
H871 C897 0.950 . S
H872 C898 0.950 . S
H873 C900 0.950 . S
H874 C903 0.950 . S
H875 C904 0.950 . S
H876 C906 0.950 . S
H877 C907 0.950 . S
C878 H860 0.951 . S
C878 C879 1.366 . S
C878 C880 1.388 . S
C879 C878 1.366 . S
C879 C883 1.385 . S
C880 H861 0.951 . S
C880 C878 1.388 . S
C880 C881 1.366 . S
C881 C880 1.366 . S
C881 C882 1.414 . S
C881 C884 1.499 . S
C882 H862 0.950 . S
C882 C881 1.414 . S
C882 C883 1.374 . S
C883 H863 0.950 . S
C883 C879 1.385 . S
C883 C882 1.374 . S
C884 C881 1.499 . S
C884 C885 1.373 . S
C884 C886 1.389 . S
C885 H864 0.950 . S
C885 C884 1.373 . S
C885 C901 1.377 . S
C886 C884 1.389 . S
C886 C887 1.524 . S
C886 C900 1.377 . S
C887 C886 1.524 . S
C887 C888 1.397 . S
C887 C892 1.363 . S
C888 H865 0.950 . S
C888 C887 1.397 . S
C888 C889 1.334 . S
C889 H866 0.950 . S
C889 C888 1.334 . S
C889 C890 1.287 . S
C890 C889 1.287 . S
C890 C891 1.524 . S
C890 H909 0.913 . S
C891 H867 0.950 . S
C891 C890 1.524 . S
C891 C892 1.415 . S
C892 H868 0.950 . S
C892 C887 1.363 . S
C892 C891 1.415 . S
C893 H869 0.951 . S
C893 C894 1.366 . S
C893 C895 1.388 . S
C894 C893 1.366 . S
C894 C898 1.385 . S
C895 H870 0.951 . S
C895 C893 1.388 . S
C895 C896 1.366 . S
C896 C895 1.366 . S
C896 C897 1.414 . S
C896 C899 1.499 . S
C897 H871 0.950 . S
C897 C896 1.414 . S
C897 C898 1.374 . S
C898 H872 0.950 . S
C898 C894 1.385 . S
C898 C897 1.374 . S
C899 C896 1.499 . S
C899 C900 1.373 . S
C899 C901 1.389 . S
C900 H873 0.950 . S
C900 C886 1.377 . S
C900 C899 1.373 . S
C901 C885 1.377 . S
C901 C899 1.389 . S
C901 C902 1.524 . S
C902 C901 1.524 . S
C902 C903 1.397 . S
C902 C907 1.363 . S
C903 H874 0.950 . S
C903 C902 1.397 . S
C903 C904 1.334 . S
C904 H875 0.950 . S
C904 C903 1.334 . S
C904 C905 1.287 . S
C905 C904 1.287 . S
C905 C906 1.524 . S
C905 H908 0.999 . S
C906 H876 0.950 . S
C906 C905 1.524 . S
C906 C907 1.415 . S
C907 H877 0.950 . S
C907 C902 1.363 . S
C907 C906 1.415 . S
H908 C905 0.999 . S
H909 C890 0.913 . S
H910 C928 0.951 . S
H911 C930 0.951 . S
H912 C932 0.950 . S
H913 C933 0.950 . S
H914 C935 0.950 . S
H915 C938 0.950 . S
H916 C939 0.950 . S
H917 C941 0.950 . S
H918 C942 0.950 . S
H919 C943 0.951 . S
H920 C945 0.951 . S
H921 C947 0.950 . S
H922 C948 0.950 . S
H923 C950 0.950 . S
H924 C953 0.950 . S
H925 C954 0.950 . S
H926 C956 0.950 . S
H927 C957 0.950 . S
C928 H910 0.951 . S
C928 C929 1.366 . S
C928 C930 1.388 . S
C929 C928 1.366 . S
C929 C933 1.385 . S
C930 H911 0.951 . S
C930 C928 1.388 . S
C930 C931 1.366 . S
C931 C930 1.366 . S
C931 C932 1.414 . S
C931 C934 1.499 . S
C932 H912 0.950 . S
C932 C931 1.414 . S
C932 C933 1.374 . S
C933 H913 0.950 . S
C933 C929 1.385 . S
C933 C932 1.374 . S
C934 C931 1.499 . S
C934 C935 1.373 . S
C934 C936 1.389 . S
C935 H914 0.950 . S
C935 C934 1.373 . S
C935 C951 1.377 . S
C936 C934 1.389 . S
C936 C937 1.524 . S
C936 C950 1.377 . S
C937 C936 1.524 . S
C937 C938 1.397 . S
C937 C942 1.363 . S
C938 H915 0.950 . S
C938 C937 1.397 . S
C938 C939 1.334 . S
C939 H916 0.950 . S
C939 C938 1.334 . S
C939 C940 1.287 . S
C940 C939 1.287 . S
C940 C941 1.524 . S
C940 H959 0.913 . S
C941 H917 0.950 . S
C941 C940 1.524 . S
C941 C942 1.415 . S
C942 H918 0.950 . S
C942 C937 1.363 . S
C942 C941 1.415 . S
C943 H919 0.951 . S
C943 C944 1.366 . S
C943 C945 1.388 . S
C944 C943 1.366 . S
C944 C948 1.385 . S
C945 H920 0.951 . S
C945 C943 1.388 . S
C945 C946 1.366 . S
C946 C945 1.366 . S
C946 C947 1.414 . S
C946 C949 1.499 . S
C947 H921 0.950 . S
C947 C946 1.414 . S
C947 C948 1.374 . S
C948 H922 0.950 . S
C948 C944 1.385 . S
C948 C947 1.374 . S
C949 C946 1.499 . S
C949 C950 1.373 . S
C949 C951 1.389 . S
C950 H923 0.950 . S
C950 C936 1.377 . S
C950 C949 1.373 . S
C951 C935 1.377 . S
C951 C949 1.389 . S
C951 C952 1.524 . S
C952 C951 1.524 . S
C952 C953 1.397 . S
C952 C957 1.363 . S
C953 H924 0.950 . S
C953 C952 1.397 . S
C953 C954 1.334 . S
C954 H925 0.950 . S
C954 C953 1.334 . S
C954 C955 1.287 . S
C955 C954 1.287 . S
C955 C956 1.524 . S
C955 H958 0.999 . S
C956 H926 0.950 . S
C956 C955 1.524 . S
C956 C957 1.415 . S
C957 H927 0.950 . S
C957 C952 1.363 . S
C957 C956 1.415 . S
H958 C955 0.999 . S
H959 C940 0.913 . S
H960 C978 0.951 . S
H961 C980 0.951 . S
H962 C982 0.950 . S
H963 C983 0.950 . S
H964 C985 0.950 . S
H965 C988 0.950 . S
H966 C989 0.950 . S
H967 C991 0.950 . S
H968 C992 0.950 . S
H969 C993 0.951 . S
H970 C995 0.951 . S
H971 C997 0.950 . S
H972 C998 0.950 . S
H973 C1000 0.950 . S
H974 C1003 0.950 . S
H975 C1004 0.950 . S
H976 C1006 0.950 . S
H977 C1007 0.950 . S
C978 H960 0.951 . S
C978 C979 1.366 . S
C978 C980 1.388 . S
C979 C978 1.366 . S
C979 C983 1.385 . S
C980 H961 0.951 . S
C980 C978 1.388 . S
C980 C981 1.366 . S
C981 C980 1.366 . S
C981 C982 1.414 . S
C981 C984 1.499 . S
C982 H962 0.950 . S
C982 C981 1.414 . S
C982 C983 1.374 . S
C983 H963 0.950 . S
C983 C979 1.385 . S
C983 C982 1.374 . S
C984 C981 1.499 . S
C984 C985 1.373 . S
C984 C986 1.389 . S
C985 H964 0.950 . S
C985 C984 1.373 . S
C985 C1001 1.377 . S
C986 C984 1.389 . S
C986 C987 1.524 . S
C986 C1000 1.377 . S
C987 C986 1.524 . S
C987 C988 1.397 . S
C987 C992 1.363 . S
C988 H965 0.950 . S
C988 C987 1.397 . S
C988 C989 1.334 . S
C989 H966 0.950 . S
C989 C988 1.334 . S
C989 C990 1.287 . S
C990 C989 1.287 . S
C990 C991 1.524 . S
C990 H1009 0.913 . S
C991 H967 0.950 . S
C991 C990 1.524 . S
C991 C992 1.415 . S
C992 H968 0.950 . S
C992 C987 1.363 . S
C992 C991 1.415 . S
C993 H969 0.951 . S
C993 C994 1.366 . S
C993 C995 1.388 . S
C994 C993 1.366 . S
C994 C998 1.385 . S
C995 H970 0.951 . S
C995 C993 1.388 . S
C995 C996 1.366 . S
C996 C995 1.366 . S
C996 C997 1.414 . S
C996 C999 1.499 . S
C997 H971 0.950 . S
C997 C996 1.414 . S
C997 C998 1.374 . S
C998 H972 0.950 . S
C998 C994 1.385 . S
C998 C997 1.374 . S
C999 C996 1.499 . S
C999 C1000 1.373 . S
C999 C1001 1.389 . S
C1000 H973 0.950 . S
C1000 C986 1.377 . S
C1000 C999 1.373 . S
C1001 C985 1.377 . S
C1001 C999 1.389 . S
C1001 C1002 1.524 . S
C1002 C1001 1.524 . S
C1002 C1003 1.397 . S
C1002 C1007 1.363 . S
C1003 H974 0.950 . S
C1003 C1002 1.397 . S
C1003 C1004 1.334 . S
C1004 H975 0.950 . S
C1004 C1003 1.334 . S
C1004 C1005 1.287 . S
C1005 C1004 1.287 . S
C1005 C1006 1.524 . S
C1005 H1008 0.999 . S
C1006 H976 0.950 . S
C1006 C1005 1.524 . S
C1006 C1007 1.415 . S
C1007 H977 0.950 . S
C1007 C1002 1.363 . S
C1007 C1006 1.415 . S
H1008 C1005 0.999 . S
H1009 C990 0.913 . S
H1010 C1028 0.951 . S
H1011 C1030 0.951 . S
H1012 C1032 0.950 . S
H1013 C1033 0.950 . S
H1014 C1035 0.950 . S
H1015 C1038 0.950 . S
H1016 C1039 0.950 . S
H1017 C1041 0.950 . S
H1018 C1042 0.950 . S
H1019 C1043 0.951 . S
H1020 C1045 0.951 . S
H1021 C1047 0.950 . S
H1022 C1048 0.950 . S
H1023 C1050 0.950 . S
H1024 C1053 0.950 . S
H1025 C1054 0.950 . S
H1026 C1056 0.950 . S
H1027 C1057 0.950 . S
C1028 H1010 0.951 . S
C1028 C1029 1.366 . S
C1028 C1030 1.388 . S
C1029 C1028 1.366 . S
C1029 C1033 1.385 . S
C1030 H1011 0.951 . S
C1030 C1028 1.388 . S
C1030 C1031 1.366 . S
C1031 C1030 1.366 . S
C1031 C1032 1.414 . S
C1031 C1034 1.499 . S
C1032 H1012 0.950 . S
C1032 C1031 1.414 . S
C1032 C1033 1.374 . S
C1033 H1013 0.950 . S
C1033 C1029 1.385 . S
C1033 C1032 1.374 . S
C1034 C1031 1.499 . S
C1034 C1035 1.373 . S
C1034 C1036 1.389 . S
C1035 H1014 0.950 . S
C1035 C1034 1.373 . S
C1035 C1051 1.377 . S
C1036 C1034 1.389 . S
C1036 C1037 1.524 . S
C1036 C1050 1.377 . S
C1037 C1036 1.524 . S
C1037 C1038 1.397 . S
C1037 C1042 1.363 . S
C1038 H1015 0.950 . S
C1038 C1037 1.397 . S
C1038 C1039 1.334 . S
C1039 H1016 0.950 . S
C1039 C1038 1.334 . S
C1039 C1040 1.287 . S
C1040 C1039 1.287 . S
C1040 C1041 1.524 . S
C1040 H1059 0.913 . S
C1041 H1017 0.950 . S
C1041 C1040 1.524 . S
C1041 C1042 1.415 . S
C1042 H1018 0.950 . S
C1042 C1037 1.363 . S
C1042 C1041 1.415 . S
C1043 H1019 0.951 . S
C1043 C1044 1.366 . S
C1043 C1045 1.388 . S
C1044 C1043 1.366 . S
C1044 C1048 1.385 . S
C1045 H1020 0.951 . S
C1045 C1043 1.388 . S
C1045 C1046 1.366 . S
C1046 C1045 1.366 . S
C1046 C1047 1.414 . S
C1046 C1049 1.499 . S
C1047 H1021 0.950 . S
C1047 C1046 1.414 . S
C1047 C1048 1.374 . S
C1048 H1022 0.950 . S
C1048 C1044 1.385 . S
C1048 C1047 1.374 . S
C1049 C1046 1.499 . S
C1049 C1050 1.373 . S
C1049 C1051 1.389 . S
C1050 H1023 0.950 . S
C1050 C1036 1.377 . S
C1050 C1049 1.373 . S
C1051 C1035 1.377 . S
C1051 C1049 1.389 . S
C1051 C1052 1.524 . S
C1052 C1051 1.524 . S
C1052 C1053 1.397 . S
C1052 C1057 1.363 . S
C1053 H1024 0.950 . S
C1053 C1052 1.397 . S
C1053 C1054 1.334 . S
C1054 H1025 0.950 . S
C1054 C1053 1.334 . S
C1054 C1055 1.287 . S
C1055 C1054 1.287 . S
C1055 C1056 1.524 . S
C1055 H1058 0.999 . S
C1056 H1026 0.950 . S
C1056 C1055 1.524 . S
C1056 C1057 1.415 . S
C1057 H1027 0.950 . S
C1057 C1052 1.363 . S
C1057 C1056 1.415 . S
H1058 C1055 0.999 . S
H1059 C1040 0.913 . S
H1060 C1078 0.951 . S
H1061 C1080 0.951 . S
H1062 C1082 0.950 . S
H1063 C1083 0.950 . S
H1064 C1085 0.950 . S
H1065 C1088 0.950 . S
H1066 C1089 0.950 . S
H1067 C1091 0.950 . S
H1068 C1092 0.950 . S
H1069 C1093 0.951 . S
H1070 C1095 0.951 . S
H1071 C1097 0.950 . S
H1072 C1098 0.950 . S
H1073 C1100 0.950 . S
H1074 C1103 0.950 . S
H1075 C1104 0.950 . S
H1076 C1106 0.950 . S
H1077 C1107 0.950 . S
C1078 H1060 0.951 . S
C1078 C1079 1.366 . S
C1078 C1080 1.388 . S
C1079 C1078 1.366 . S
C1079 C1083 1.385 . S
C1080 H1061 0.951 . S
C1080 C1078 1.388 . S
C1080 C1081 1.366 . S
C1081 C1080 1.366 . S
C1081 C1082 1.414 . S
C1081 C1084 1.499 . S
C1082 H1062 0.950 . S
C1082 C1081 1.414 . S
C1082 C1083 1.374 . S
C1083 H1063 0.950 . S
C1083 C1079 1.385 . S
C1083 C1082 1.374 . S
C1084 C1081 1.499 . S
C1084 C1085 1.373 . S
C1084 C1086 1.389 . S
C1085 H1064 0.950 . S
C1085 C1084 1.373 . S
C1085 C1101 1.377 . S
C1086 C1084 1.389 . S
C1086 C1087 1.524 . S
C1086 C1100 1.377 . S
C1087 C1086 1.524 . S
C1087 C1088 1.397 . S
C1087 C1092 1.363 . S
C1088 H1065 0.950 . S
C1088 C1087 1.397 . S
C1088 C1089 1.334 . S
C1089 H1066 0.950 . S
C1089 C1088 1.334 . S
C1089 C1090 1.287 . S
C1090 C1089 1.287 . S
C1090 C1091 1.524 . S
C1090 H1109 0.913 . S
C1091 H1067 0.950 . S
C1091 C1090 1.524 . S
C1091 C1092 1.415 . S
C1092 H1068 0.950 . S
C1092 C1087 1.363 . S
C1092 C1091 1.415 . S
C1093 H1069 0.951 . S
C1093 C1094 1.366 . S
C1093 C1095 1.388 . S
C1094 C1093 1.366 . S
C1094 C1098 1.385 . S
C1095 H1070 0.951 . S
C1095 C1093 1.388 . S
C1095 C1096 1.366 . S
C1096 C1095 1.366 . S
C1096 C1097 1.414 . S
C1096 C1099 1.499 . S
C1097 H1071 0.950 . S
C1097 C1096 1.414 . S
C1097 C1098 1.374 . S
C1098 H1072 0.950 . S
C1098 C1094 1.385 . S
C1098 C1097 1.374 . S
C1099 C1096 1.499 . S
C1099 C1100 1.373 . S
C1099 C1101 1.389 . S
C1100 H1073 0.950 . S
C1100 C1086 1.377 . S
C1100 C1099 1.373 . S
C1101 C1085 1.377 . S
C1101 C1099 1.389 . S
C1101 C1102 1.524 . S
C1102 C1101 1.524 . S
C1102 C1103 1.397 . S
C1102 C1107 1.363 . S
C1103 H1074 0.950 . S
C1103 C1102 1.397 . S
C1103 C1104 1.334 . S
C1104 H1075 0.950 . S
C1104 C1103 1.334 . S
C1104 C1105 1.287 . S
C1105 C1104 1.287 . S
C1105 C1106 1.524 . S
C1105 H1108 0.999 . S
C1106 H1076 0.950 . S
C1106 C1105 1.524 . S
C1106 C1107 1.415 . S
C1107 H1077 0.950 . S
C1107 C1102 1.363 . S
C1107 C1106 1.415 . S
H1108 C1105 0.999 . S
H1109 C1090 0.913 . S
H1110 C1128 0.951 . S
H1111 C1130 0.951 . S
H1112 C1132 0.950 . S
H1113 C1133 0.950 . S
H1114 C1135 0.950 . S
H1115 C1138 0.950 . S
H1116 C1139 0.950 . S
H1117 C1141 0.921 1_554 S
H1118 C1142 0.908 1_554 S
H1119 C1143 0.951 . S
H1120 C1145 0.932 1_556 S
H1121 C1147 0.950 . S
H1122 C1148 0.950 . S
H1123 C1150 0.950 . S
H1124 C1153 0.903 1_554 S
H1125 C1154 0.950 1_554 S
H1126 C1156 0.950 . S
H1127 C1157 0.950 . S
C1128 H1110 0.951 . S
C1128 C1129 1.366 . S
C1128 C1130 1.388 . S
C1129 C1128 1.366 . S
C1129 C1133 1.385 . S
C1130 H1111 0.951 . S
C1130 C1128 1.388 . S
C1130 C1131 1.366 . S
C1131 C1130 1.366 . S
C1131 C1132 1.414 . S
C1131 C1134 1.499 . S
C1132 H1112 0.950 . S
C1132 C1131 1.414 . S
C1132 C1133 1.374 . S
C1133 H1113 0.950 . S
C1133 C1129 1.385 . S
C1133 C1132 1.374 . S
C1134 C1131 1.499 . S
C1134 C1135 1.373 . S
C1134 C1136 1.389 . S
C1135 H1114 0.950 . S
C1135 C1134 1.373 . S
C1135 C1151 1.377 . S
C1136 C1134 1.389 . S
C1136 C1137 1.524 . S
C1136 C1150 1.377 . S
C1137 C1136 1.524 . S
C1137 C1138 1.397 . S
C1137 C1142 1.363 . S
C1138 H1115 0.950 . S
C1138 C1137 1.397 . S
C1138 C1139 1.334 . S
C1139 H1116 0.950 . S
C1139 C1138 1.334 . S
C1139 C1140 1.287 . S
C1140 C1139 1.287 . S
C1140 C1141 1.524 . S
C1140 H1159 0.913 . S
C1141 H1117 0.921 1_556 S
C1141 C1140 1.524 . S
C1141 C1142 1.415 . S
C1142 H1118 0.908 1_556 S
C1142 C1137 1.363 . S
C1142 C1141 1.415 . S
C1143 H1119 0.951 . S
C1143 C1144 1.366 . S
C1143 C1145 1.402 . S
C1144 C1143 1.366 . S
C1144 C1148 1.385 . S
C1145 H1120 0.932 1_554 S
C1145 C1143 1.402 . S
C1145 C1146 1.370 . S
C1146 C1145 1.370 . S
C1146 C1147 1.414 . S
C1146 C1149 1.499 1_554 S
C1147 H1121 0.950 . S
C1147 C1146 1.414 . S
C1147 C1148 1.374 . S
C1148 H1122 0.950 . S
C1148 C1144 1.385 . S
C1148 C1147 1.374 . S
C1149 C1146 1.499 1_556 S
C1149 C1150 1.373 . S
C1149 C1151 1.389 . S
C1150 H1123 0.950 . S
C1150 C1136 1.377 . S
C1150 C1149 1.373 . S
C1151 C1135 1.377 . S
C1151 C1149 1.389 . S
C1151 C1152 1.524 . S
C1152 C1151 1.524 . S
C1152 C1153 1.397 . S
C1152 C1157 1.363 . S
C1153 H1124 0.903 1_556 S
C1153 C1152 1.397 . S
C1153 C1154 1.334 . S
C1154 H1125 0.950 1_556 S
C1154 C1153 1.334 . S
C1154 C1155 1.287 . S
C1155 C1154 1.287 . S
C1155 C1156 1.524 . S
C1155 H1158 0.999 . S
C1156 H1126 0.950 . S
C1156 C1155 1.524 . S
C1156 C1157 1.415 . S
C1157 H1127 0.950 . S
C1157 C1152 1.363 . S
C1157 C1156 1.415 . S
H1158 C1155 0.999 . S
H1159 C1140 0.913 . S
H1160 C1178 0.951 . S
H1161 C1180 0.951 . S
H1162 C1182 0.950 . S
H1163 C1183 0.950 . S
H1164 C1185 0.950 . S
H1165 C1188 0.950 . S
H1166 C1189 0.950 . S
H1167 C1191 0.950 . S
H1168 C1192 0.950 . S
H1169 C1193 0.951 . S
H1170 C1195 0.951 . S
H1171 C1197 0.950 . S
H1172 C1198 0.950 . S
H1173 C1200 0.950 . S
H1174 C1203 0.950 . S
H1175 C1204 0.950 . S
H1176 C1206 0.950 . S
H1177 C1207 0.950 . S
C1178 H1160 0.951 . S
C1178 C1179 1.366 . S
C1178 C1180 1.388 . S
C1179 C1178 1.366 . S
C1179 C1183 1.385 . S
C1180 H1161 0.951 . S
C1180 C1178 1.388 . S
C1180 C1181 1.366 . S
C1181 C1180 1.366 . S
C1181 C1182 1.414 . S
C1181 C1184 1.499 . S
C1182 H1162 0.950 . S
C1182 C1181 1.414 . S
C1182 C1183 1.374 . S
C1183 H1163 0.950 . S
C1183 C1179 1.385 . S
C1183 C1182 1.374 . S
C1184 C1181 1.499 . S
C1184 C1185 1.373 . S
C1184 C1186 1.389 . S
C1185 H1164 0.950 . S
C1185 C1184 1.373 . S
C1185 C1201 1.377 . S
C1186 C1184 1.389 . S
C1186 C1187 1.524 . S
C1186 C1200 1.377 . S
C1187 C1186 1.524 . S
C1187 C1188 1.397 . S
C1187 C1192 1.363 . S
C1188 H1165 0.950 . S
C1188 C1187 1.397 . S
C1188 C1189 1.334 . S
C1189 H1166 0.950 . S
C1189 C1188 1.334 . S
C1189 C1190 1.287 . S
C1190 C1189 1.287 . S
C1190 C1191 1.524 . S
C1190 H1209 0.913 . S
C1191 H1167 0.950 . S
C1191 C1190 1.524 . S
C1191 C1192 1.415 . S
C1192 H1168 0.950 . S
C1192 C1187 1.363 . S
C1192 C1191 1.415 . S
C1193 H1169 0.951 . S
C1193 C1194 1.366 . S
C1193 C1195 1.388 . S
C1194 C1193 1.366 . S
C1194 C1198 1.385 . S
C1195 H1170 0.951 . S
C1195 C1193 1.388 . S
C1195 C1196 1.366 . S
C1196 C1195 1.366 . S
C1196 C1197 1.414 . S
C1196 C1199 1.499 . S
C1197 H1171 0.950 . S
C1197 C1196 1.414 . S
C1197 C1198 1.374 . S
C1198 H1172 0.950 . S
C1198 C1194 1.385 . S
C1198 C1197 1.374 . S
C1199 C1196 1.499 . S
C1199 C1200 1.373 . S
C1199 C1201 1.389 . S
C1200 H1173 0.950 . S
C1200 C1186 1.377 . S
C1200 C1199 1.373 . S
C1201 C1185 1.377 . S
C1201 C1199 1.389 . S
C1201 C1202 1.524 . S
C1202 C1201 1.524 . S
C1202 C1203 1.397 . S
C1202 C1207 1.363 . S
C1203 H1174 0.950 . S
C1203 C1202 1.397 . S
C1203 C1204 1.334 . S
C1204 H1175 0.950 . S
C1204 C1203 1.334 . S
C1204 C1205 1.287 . S
C1205 C1204 1.287 . S
C1205 C1206 1.524 . S
C1205 H1208 0.999 . S
C1206 H1176 0.950 . S
C1206 C1205 1.524 . S
C1206 C1207 1.415 . S
C1207 H1177 0.950 . S
C1207 C1202 1.363 . S
C1207 C1206 1.415 . S
H1208 C1205 0.999 . S
H1209 C1190 0.913 . S
H1210 C1228 0.951 . S
H1211 C1230 0.951 . S
H1212 C1232 0.950 . S
H1213 C1233 0.950 . S
H1214 C1235 0.950 . S
H1215 C1238 0.950 . S
H1216 C1239 0.950 . S
H1217 C1241 0.950 . S
H1218 C1242 0.950 . S
H1219 C1243 0.951 . S
H1220 C1245 0.951 . S
H1221 C1247 0.950 . S
H1222 C1248 0.950 . S
H1223 C1250 0.950 . S
H1224 C1253 0.950 . S
H1225 C1254 0.950 . S
H1226 C1256 0.950 . S
H1227 C1257 0.950 . S
C1228 H1210 0.951 . S
C1228 C1229 1.366 . S
C1228 C1230 1.388 . S
C1229 C1228 1.366 . S
C1229 C1233 1.385 . S
C1230 H1211 0.951 . S
C1230 C1228 1.388 . S
C1230 C1231 1.366 . S
C1231 C1230 1.366 . S
C1231 C1232 1.414 . S
C1231 C1234 1.499 . S
C1232 H1212 0.950 . S
C1232 C1231 1.414 . S
C1232 C1233 1.374 . S
C1233 H1213 0.950 . S
C1233 C1229 1.385 . S
C1233 C1232 1.374 . S
C1234 C1231 1.499 . S
C1234 C1235 1.373 . S
C1234 C1236 1.389 . S
C1235 H1214 0.950 . S
C1235 C1234 1.373 . S
C1235 C1251 1.377 . S
C1236 C1234 1.389 . S
C1236 C1237 1.524 . S
C1236 C1250 1.377 . S
C1237 C1236 1.524 . S
C1237 C1238 1.397 . S
C1237 C1242 1.363 . S
C1238 H1215 0.950 . S
C1238 C1237 1.397 . S
C1238 C1239 1.334 . S
C1239 H1216 0.950 . S
C1239 C1238 1.334 . S
C1239 C1240 1.287 . S
C1240 C1239 1.287 . S
C1240 C1241 1.524 . S
C1240 H1259 0.913 . S
C1241 H1217 0.950 . S
C1241 C1240 1.524 . S
C1241 C1242 1.415 . S
C1242 H1218 0.950 . S
C1242 C1237 1.363 . S
C1242 C1241 1.415 . S
C1243 H1219 0.951 . S
C1243 C1244 1.366 . S
C1243 C1245 1.388 . S
C1244 C1243 1.366 . S
C1244 C1248 1.385 . S
C1245 H1220 0.951 . S
C1245 C1243 1.388 . S
C1245 C1246 1.366 . S
C1246 C1245 1.366 . S
C1246 C1247 1.414 . S
C1246 C1249 1.499 . S
C1247 H1221 0.950 . S
C1247 C1246 1.414 . S
C1247 C1248 1.374 . S
C1248 H1222 0.950 . S
C1248 C1244 1.385 . S
C1248 C1247 1.374 . S
C1249 C1246 1.499 . S
C1249 C1250 1.373 . S
C1249 C1251 1.389 . S
C1250 H1223 0.950 . S
C1250 C1236 1.377 . S
C1250 C1249 1.373 . S
C1251 C1235 1.377 . S
C1251 C1249 1.389 . S
C1251 C1252 1.524 . S
C1252 C1251 1.524 . S
C1252 C1253 1.397 . S
C1252 C1257 1.363 . S
C1253 H1224 0.950 . S
C1253 C1252 1.397 . S
C1253 C1254 1.334 . S
C1254 H1225 0.950 . S
C1254 C1253 1.334 . S
C1254 C1255 1.287 . S
C1255 C1254 1.287 . S
C1255 C1256 1.524 . S
C1255 H1258 0.999 . S
C1256 H1226 0.950 . S
C1256 C1255 1.524 . S
C1256 C1257 1.415 . S
C1257 H1227 0.950 . S
C1257 C1252 1.363 . S
C1257 C1256 1.415 . S
H1258 C1255 0.999 . S
H1259 C1240 0.913 . S
H1260 C1278 0.951 . S
H1261 C1280 0.951 . S
H1262 C1282 0.950 . S
H1263 C1283 0.950 . S
H1264 C1285 0.950 . S
H1265 C1288 0.950 . S
H1266 C1289 0.950 . S
H1267 C1291 0.950 . S
H1268 C1292 0.950 . S
H1269 C1293 0.951 . S
H1270 C1295 0.951 . S
H1271 C1297 0.950 . S
H1272 C1298 0.950 . S
H1273 C1300 0.950 . S
H1274 C1303 0.950 . S
H1275 C1304 0.950 . S
H1276 C1306 0.950 . S
H1277 C1307 0.950 . S
C1278 H1260 0.951 . S
C1278 C1279 1.366 . S
C1278 C1280 1.388 . S
C1279 C1278 1.366 . S
C1279 C1283 1.385 . S
C1280 H1261 0.951 . S
C1280 C1278 1.388 . S
C1280 C1281 1.366 . S
C1281 C1280 1.366 . S
C1281 C1282 1.414 . S
C1281 C1284 1.499 . S
C1282 H1262 0.950 . S
C1282 C1281 1.414 . S
C1282 C1283 1.374 . S
C1283 H1263 0.950 . S
C1283 C1279 1.385 . S
C1283 C1282 1.374 . S
C1284 C1281 1.499 . S
C1284 C1285 1.373 . S
C1284 C1286 1.389 . S
C1285 H1264 0.950 . S
C1285 C1284 1.373 . S
C1285 C1301 1.377 . S
C1286 C1284 1.389 . S
C1286 C1287 1.524 . S
C1286 C1300 1.377 . S
C1287 C1286 1.524 . S
C1287 C1288 1.397 . S
C1287 C1292 1.363 . S
C1288 H1265 0.950 . S
C1288 C1287 1.397 . S
C1288 C1289 1.334 . S
C1289 H1266 0.950 . S
C1289 C1288 1.334 . S
C1289 C1290 1.287 . S
C1290 C1289 1.287 . S
C1290 C1291 1.524 . S
C1290 H1309 0.913 . S
C1291 H1267 0.950 . S
C1291 C1290 1.524 . S
C1291 C1292 1.415 . S
C1292 H1268 0.950 . S
C1292 C1287 1.363 . S
C1292 C1291 1.415 . S
C1293 H1269 0.951 . S
C1293 C1294 1.366 . S
C1293 C1295 1.388 . S
C1294 C1293 1.366 . S
C1294 C1298 1.385 . S
C1295 H1270 0.951 . S
C1295 C1293 1.388 . S
C1295 C1296 1.366 . S
C1296 C1295 1.366 . S
C1296 C1297 1.414 . S
C1296 C1299 1.499 . S
C1297 H1271 0.950 . S
C1297 C1296 1.414 . S
C1297 C1298 1.374 . S
C1298 H1272 0.950 . S
C1298 C1294 1.385 . S
C1298 C1297 1.374 . S
C1299 C1296 1.499 . S
C1299 C1300 1.373 . S
C1299 C1301 1.389 . S
C1300 H1273 0.950 . S
C1300 C1286 1.377 . S
C1300 C1299 1.373 . S
C1301 C1285 1.377 . S
C1301 C1299 1.389 . S
C1301 C1302 1.524 . S
C1302 C1301 1.524 . S
C1302 C1303 1.397 . S
C1302 C1307 1.363 . S
C1303 H1274 0.950 . S
C1303 C1302 1.397 . S
C1303 C1304 1.334 . S
C1304 H1275 0.950 . S
C1304 C1303 1.334 . S
C1304 C1305 1.287 . S
C1305 C1304 1.287 . S
C1305 C1306 1.524 . S
C1305 H1308 0.999 . S
C1306 H1276 0.950 . S
C1306 C1305 1.524 . S
C1306 C1307 1.415 . S
C1307 H1277 0.950 . S
C1307 C1302 1.363 . S
C1307 C1306 1.415 . S
H1308 C1305 0.999 . S
H1309 C1290 0.913 . S
H1310 C1328 0.951 . S
H1311 C1330 0.951 . S
H1312 C1332 0.950 . S
H1313 C1333 0.950 . S
H1314 C1335 0.950 . S
H1315 C1338 0.950 . S
H1316 C1339 0.950 . S
H1317 C1341 0.950 . S
H1318 C1342 0.950 . S
H1319 C1343 0.951 . S
H1320 C1345 0.951 . S
H1321 C1347 0.950 . S
H1322 C1348 0.950 . S
H1323 C1350 0.950 . S
H1324 C1353 0.950 . S
H1325 C1354 0.950 . S
H1326 C1356 0.950 . S
H1327 C1357 0.950 . S
C1328 H1310 0.951 . S
C1328 C1329 1.366 . S
C1328 C1330 1.388 . S
C1329 C1328 1.366 . S
C1329 C1333 1.385 . S
C1330 H1311 0.951 . S
C1330 C1328 1.388 . S
C1330 C1331 1.366 . S
C1331 C1330 1.366 . S
C1331 C1332 1.414 . S
C1331 C1334 1.499 . S
C1332 H1312 0.950 . S
C1332 C1331 1.414 . S
C1332 C1333 1.374 . S
C1333 H1313 0.950 . S
C1333 C1329 1.385 . S
C1333 C1332 1.374 . S
C1334 C1331 1.499 . S
C1334 C1335 1.373 . S
C1334 C1336 1.389 . S
C1335 H1314 0.950 . S
C1335 C1334 1.373 . S
C1335 C1351 1.377 . S
C1336 C1334 1.389 . S
C1336 C1337 1.524 . S
C1336 C1350 1.377 . S
C1337 C1336 1.524 . S
C1337 C1338 1.397 . S
C1337 C1342 1.363 . S
C1338 H1315 0.950 . S
C1338 C1337 1.397 . S
C1338 C1339 1.334 . S
C1339 H1316 0.950 . S
C1339 C1338 1.334 . S
C1339 C1340 1.287 . S
C1340 C1339 1.287 . S
C1340 C1341 1.524 . S
C1340 H1359 0.913 . S
C1341 H1317 0.950 . S
C1341 C1340 1.524 . S
C1341 C1342 1.415 . S
C1342 H1318 0.950 . S
C1342 C1337 1.363 . S
C1342 C1341 1.415 . S
C1343 H1319 0.951 . S
C1343 C1344 1.366 . S
C1343 C1345 1.388 . S
C1344 C1343 1.366 . S
C1344 C1348 1.385 . S
C1345 H1320 0.951 . S
C1345 C1343 1.388 . S
C1345 C1346 1.366 . S
C1346 C1345 1.366 . S
C1346 C1347 1.414 . S
C1346 C1349 1.499 . S
C1347 H1321 0.950 . S
C1347 C1346 1.414 . S
C1347 C1348 1.374 . S
C1348 H1322 0.950 . S
C1348 C1344 1.385 . S
C1348 C1347 1.374 . S
C1349 C1346 1.499 . S
C1349 C1350 1.373 . S
C1349 C1351 1.389 . S
C1350 H1323 0.950 . S
C1350 C1336 1.377 . S
C1350 C1349 1.373 . S
C1351 C1335 1.377 . S
C1351 C1349 1.389 . S
C1351 C1352 1.524 . S
C1352 C1351 1.524 . S
C1352 C1353 1.397 . S
C1352 C1357 1.363 . S
C1353 H1324 0.950 . S
C1353 C1352 1.397 . S
C1353 C1354 1.334 . S
C1354 H1325 0.950 . S
C1354 C1353 1.334 . S
C1354 C1355 1.287 . S
C1355 C1354 1.287 . S
C1355 C1356 1.524 . S
C1355 H1358 0.999 . S
C1356 H1326 0.950 . S
C1356 C1355 1.524 . S
C1356 C1357 1.415 . S
C1357 H1327 0.950 . S
C1357 C1352 1.363 . S
C1357 C1356 1.415 . S
H1358 C1355 0.999 . S
H1359 C1340 0.913 . S
H1360 C1378 0.951 . S
H1361 C1380 0.951 . S
H1362 C1382 0.950 . S
H1363 C1383 0.950 . S
H1364 C1385 0.950 . S
H1365 C1388 0.950 . S
H1366 C1389 0.950 . S
H1367 C1391 0.950 . S
H1368 C1392 0.950 . S
H1369 C1393 0.951 . S
H1370 C1395 0.951 . S
H1371 C1397 0.950 . S
H1372 C1398 0.950 . S
H1373 C1400 0.950 . S
H1374 C1403 0.950 . S
H1375 C1404 0.950 . S
H1376 C1406 0.950 . S
H1377 C1407 0.950 . S
C1378 H1360 0.951 . S
C1378 C1379 1.366 . S
C1378 C1380 1.388 . S
C1379 C1378 1.366 . S
C1379 C1383 1.385 . S
C1380 H1361 0.951 . S
C1380 C1378 1.388 . S
C1380 C1381 1.366 . S
C1381 C1380 1.366 . S
C1381 C1382 1.414 . S
C1381 C1384 1.499 . S
C1382 H1362 0.950 . S
C1382 C1381 1.414 . S
C1382 C1383 1.374 . S
C1383 H1363 0.950 . S
C1383 C1379 1.385 . S
C1383 C1382 1.374 . S
C1384 C1381 1.499 . S
C1384 C1385 1.373 . S
C1384 C1386 1.389 . S
C1385 H1364 0.950 . S
C1385 C1384 1.373 . S
C1385 C1401 1.377 . S
C1386 C1384 1.389 . S
C1386 C1387 1.524 . S
C1386 C1400 1.377 . S
C1387 C1386 1.524 . S
C1387 C1388 1.397 . S
C1387 C1392 1.363 . S
C1388 H1365 0.950 . S
C1388 C1387 1.397 . S
C1388 C1389 1.334 . S
C1389 H1366 0.950 . S
C1389 C1388 1.334 . S
C1389 C1390 1.287 . S
C1390 C1389 1.287 . S
C1390 C1391 1.524 . S
C1390 H1409 0.913 . S
C1391 H1367 0.950 . S
C1391 C1390 1.524 . S
C1391 C1392 1.415 . S
C1392 H1368 0.950 . S
C1392 C1387 1.363 . S
C1392 C1391 1.415 . S
C1393 H1369 0.951 . S
C1393 C1394 1.366 . S
C1393 C1395 1.388 . S
C1394 C1393 1.366 . S
C1394 C1398 1.385 . S
C1395 H1370 0.951 . S
C1395 C1393 1.388 . S
C1395 C1396 1.366 . S
C1396 C1395 1.366 . S
C1396 C1397 1.414 . S
C1396 C1399 1.499 . S
C1397 H1371 0.950 . S
C1397 C1396 1.414 . S
C1397 C1398 1.374 . S
C1398 H1372 0.950 . S
C1398 C1394 1.385 . S
C1398 C1397 1.374 . S
C1399 C1396 1.499 . S
C1399 C1400 1.373 . S
C1399 C1401 1.389 . S
C1400 H1373 0.950 . S
C1400 C1386 1.377 . S
C1400 C1399 1.373 . S
C1401 C1385 1.377 . S
C1401 C1399 1.389 . S
C1401 C1402 1.524 . S
C1402 C1401 1.524 . S
C1402 C1403 1.397 . S
C1402 C1407 1.363 . S
C1403 H1374 0.950 . S
C1403 C1402 1.397 . S
C1403 C1404 1.334 . S
C1404 H1375 0.950 . S
C1404 C1403 1.334 . S
C1404 C1405 1.287 . S
C1405 C1404 1.287 . S
C1405 C1406 1.524 . S
C1405 H1408 0.999 . S
C1406 H1376 0.950 . S
C1406 C1405 1.524 . S
C1406 C1407 1.415 . S
C1407 H1377 0.950 . S
C1407 C1402 1.363 . S
C1407 C1406 1.415 . S
H1408 C1405 0.999 . S
H1409 C1390 0.913 . S
H1410 C1428 0.951 . S
H1411 C1430 0.951 . S
H1412 C1432 0.950 . S
H1413 C1433 0.950 . S
H1414 C1435 0.950 . S
H1415 C1438 0.950 . S
H1416 C1439 0.950 . S
H1417 C1441 0.950 . S
H1418 C1442 0.950 . S
H1419 C1443 0.951 . S
H1420 C1445 0.951 . S
H1421 C1447 0.950 . S
H1422 C1448 0.950 . S
H1423 C1450 0.950 . S
H1424 C1453 0.950 . S
H1425 C1454 0.950 . S
H1426 C1456 0.950 . S
H1427 C1457 0.950 . S
C1428 H1410 0.951 . S
C1428 C1429 1.366 . S
C1428 C1430 1.388 . S
C1429 C1428 1.366 . S
C1429 C1433 1.385 . S
C1430 H1411 0.951 . S
C1430 C1428 1.388 . S
C1430 C1431 1.366 . S
C1431 C1430 1.366 . S
C1431 C1432 1.414 . S
C1431 C1434 1.499 . S
C1432 H1412 0.950 . S
C1432 C1431 1.414 . S
C1432 C1433 1.374 . S
C1433 H1413 0.950 . S
C1433 C1429 1.385 . S
C1433 C1432 1.374 . S
C1434 C1431 1.499 . S
C1434 C1435 1.373 . S
C1434 C1436 1.389 . S
C1435 H1414 0.950 . S
C1435 C1434 1.373 . S
C1435 C1451 1.377 . S
C1436 C1434 1.389 . S
C1436 C1437 1.524 . S
C1436 C1450 1.377 . S
C1437 C1436 1.524 . S
C1437 C1438 1.397 . S
C1437 C1442 1.363 . S
C1438 H1415 0.950 . S
C1438 C1437 1.397 . S
C1438 C1439 1.334 . S
C1439 H1416 0.950 . S
C1439 C1438 1.334 . S
C1439 C1440 1.287 . S
C1440 C1439 1.287 . S
C1440 C1441 1.524 . S
C1440 H1459 0.913 . S
C1441 H1417 0.950 . S
C1441 C1440 1.524 . S
C1441 C1442 1.415 . S
C1442 H1418 0.950 . S
C1442 C1437 1.363 . S
C1442 C1441 1.415 . S
C1443 H1419 0.951 . S
C1443 C1444 1.366 . S
C1443 C1445 1.388 . S
C1444 C1443 1.366 . S
C1444 C1448 1.385 . S
C1445 H1420 0.951 . S
C1445 C1443 1.388 . S
C1445 C1446 1.366 . S
C1446 C1445 1.366 . S
C1446 C1447 1.414 . S
C1446 C1449 1.499 . S
C1447 H1421 0.950 . S
C1447 C1446 1.414 . S
C1447 C1448 1.374 . S
C1448 H1422 0.950 . S
C1448 C1444 1.385 . S
C1448 C1447 1.374 . S
C1449 C1446 1.499 . S
C1449 C1450 1.373 . S
C1449 C1451 1.389 . S
C1450 H1423 0.950 . S
C1450 C1436 1.377 . S
C1450 C1449 1.373 . S
C1451 C1435 1.377 . S
C1451 C1449 1.389 . S
C1451 C1452 1.524 . S
C1452 C1451 1.524 . S
C1452 C1453 1.397 . S
C1452 C1457 1.363 . S
C1453 H1424 0.950 . S
C1453 C1452 1.397 . S
C1453 C1454 1.334 . S
C1454 H1425 0.950 . S
C1454 C1453 1.334 . S
C1454 C1455 1.287 . S
C1455 C1454 1.287 . S
C1455 C1456 1.524 . S
C1455 H1458 0.999 . S
C1456 H1426 0.950 . S
C1456 C1455 1.524 . S
C1456 C1457 1.415 . S
C1457 H1427 0.950 . S
C1457 C1452 1.363 . S
C1457 C1456 1.415 . S
H1458 C1455 0.999 . S
H1459 C1440 0.913 . S
H1460 C1478 0.951 . S
H1461 C1480 0.951 . S
H1462 C1482 0.950 . S
H1463 C1483 0.950 . S
H1464 C1485 0.950 . S
H1465 C1488 0.950 . S
H1466 C1489 0.950 . S
H1467 C1491 0.950 . S
H1468 C1492 0.950 . S
H1469 C1493 0.951 . S
H1470 C1495 0.951 . S
H1471 C1497 0.950 1_554 S
H1472 C1498 0.950 . S
H1473 C1500 0.950 . S
H1474 C1503 0.950 . S
H1475 C1504 0.950 . S
H1476 C1506 0.950 . S
H1477 C1507 0.950 . S
C1478 H1460 0.951 . S
C1478 C1479 1.366 . S
C1478 C1480 1.388 . S
C1479 C1478 1.366 . S
C1479 C1483 1.385 . S
C1480 H1461 0.951 . S
C1480 C1478 1.388 . S
C1480 C1481 1.366 . S
C1481 C1480 1.366 . S
C1481 C1482 1.414 . S
C1481 C1484 1.499 . S
C1482 H1462 0.950 . S
C1482 C1481 1.414 . S
C1482 C1483 1.374 . S
C1483 H1463 0.950 . S
C1483 C1479 1.385 . S
C1483 C1482 1.374 . S
C1484 C1481 1.499 . S
C1484 C1485 1.373 . S
C1484 C1486 1.389 . S
C1485 H1464 0.950 . S
C1485 C1484 1.373 . S
C1485 C1501 1.377 . S
C1486 C1484 1.389 . S
C1486 C1487 1.524 . S
C1486 C1500 1.377 . S
C1487 C1486 1.524 . S
C1487 C1488 1.397 . S
C1487 C1492 1.363 . S
C1488 H1465 0.950 . S
C1488 C1487 1.397 . S
C1488 C1489 1.334 . S
C1489 H1466 0.950 . S
C1489 C1488 1.334 . S
C1489 C1490 1.287 . S
C1490 C1489 1.287 . S
C1490 C1491 1.524 . S
C1490 H1509 0.913 . S
C1491 H1467 0.950 . S
C1491 C1490 1.524 . S
C1491 C1492 1.415 . S
C1492 H1468 0.950 . S
C1492 C1487 1.363 . S
C1492 C1491 1.415 . S
C1493 H1469 0.951 . S
C1493 C1494 1.366 . S
C1493 C1495 1.388 . S
C1494 C1493 1.366 . S
C1494 C1498 1.385 . S
C1495 H1470 0.951 . S
C1495 C1493 1.388 . S
C1495 C1496 1.366 . S
C1496 C1495 1.366 . S
C1496 C1497 1.414 . S
C1496 C1499 1.480 1_556 S
C1497 H1471 0.950 1_556 S
C1497 C1496 1.414 . S
C1497 C1498 1.374 . S
C1498 H1472 0.950 . S
C1498 C1494 1.385 . S
C1498 C1497 1.374 . S
C1499 C1496 1.480 1_554 S
C1499 C1500 1.390 . S
C1499 C1501 1.391 . S
C1500 H1473 0.950 . S
C1500 C1486 1.377 . S
C1500 C1499 1.390 . S
C1501 C1485 1.377 . S
C1501 C1499 1.391 . S
C1501 C1502 1.524 1_554 S
C1502 C1501 1.524 1_556 S
C1502 C1503 1.397 . S
C1502 C1507 1.363 . S
C1503 H1474 0.950 . S
C1503 C1502 1.397 . S
C1503 C1504 1.334 . S
C1504 H1475 0.950 . S
C1504 C1503 1.334 . S
C1504 C1505 1.287 . S
C1505 C1504 1.287 . S
C1505 C1506 1.524 . S
C1505 H1508 0.999 . S
C1506 H1476 0.950 . S
C1506 C1505 1.524 . S
C1506 C1507 1.415 . S
C1507 H1477 0.950 . S
C1507 C1502 1.363 . S
C1507 C1506 1.415 . S
H1508 C1505 0.999 . S
H1509 C1490 0.913 . S
H1510 C1528 0.951 . S
H1511 C1530 0.951 . S
H1512 C1532 0.950 . S
H1513 C1533 0.950 . S
H1514 C1535 0.950 . S
H1515 C1538 0.950 . S
H1516 C1539 0.950 . S
H1517 C1541 0.950 . S
H1518 C1542 0.950 . S
H1519 C1543 0.951 . S
H1520 C1545 0.951 . S
H1521 C1547 0.950 . S
H1522 C1548 0.950 . S
H1523 C1550 0.950 . S
H1524 C1553 0.950 . S
H1525 C1554 0.950 . S
H1526 C1556 0.950 . S
H1527 C1557 0.950 . S
C1528 H1510 0.951 . S
C1528 C1529 1.366 . S
C1528 C1530 1.388 . S
C1529 C1528 1.366 . S
C1529 C1533 1.385 . S
C1530 H1511 0.951 . S
C1530 C1528 1.388 . S
C1530 C1531 1.366 . S
C1531 C1530 1.366 . S
C1531 C1532 1.414 . S
C1531 C1534 1.499 . S
C1532 H1512 0.950 . S
C1532 C1531 1.414 . S
C1532 C1533 1.374 . S
C1533 H1513 0.950 . S
C1533 C1529 1.385 . S
C1533 C1532 1.374 . S
C1534 C1531 1.499 . S
C1534 C1535 1.373 . S
C1534 C1536 1.389 . S
C1535 H1514 0.950 . S
C1535 C1534 1.373 . S
C1535 C1551 1.377 . S
C1536 C1534 1.389 . S
C1536 C1537 1.524 . S
C1536 C1550 1.377 . S
C1537 C1536 1.524 . S
C1537 C1538 1.397 . S
C1537 C1542 1.363 . S
C1538 H1515 0.950 . S
C1538 C1537 1.397 . S
C1538 C1539 1.334 . S
C1539 H1516 0.950 . S
C1539 C1538 1.334 . S
C1539 C1540 1.287 . S
C1540 C1539 1.287 . S
C1540 C1541 1.524 . S
C1540 H1559 0.913 . S
C1541 H1517 0.950 . S
C1541 C1540 1.524 . S
C1541 C1542 1.415 . S
C1542 H1518 0.950 . S
C1542 C1537 1.363 . S
C1542 C1541 1.415 . S
C1543 H1519 0.951 . S
C1543 C1544 1.366 . S
C1543 C1545 1.388 . S
C1544 C1543 1.366 . S
C1544 C1548 1.385 . S
C1545 H1520 0.951 . S
C1545 C1543 1.388 . S
C1545 C1546 1.366 . S
C1546 C1545 1.366 . S
C1546 C1547 1.414 . S
C1546 C1549 1.499 . S
C1547 H1521 0.950 . S
C1547 C1546 1.414 . S
C1547 C1548 1.374 . S
C1548 H1522 0.950 . S
C1548 C1544 1.385 . S
C1548 C1547 1.374 . S
C1549 C1546 1.499 . S
C1549 C1550 1.373 . S
C1549 C1551 1.389 . S
C1550 H1523 0.950 . S
C1550 C1536 1.377 . S
C1550 C1549 1.373 . S
C1551 C1535 1.377 . S
C1551 C1549 1.389 . S
C1551 C1552 1.524 . S
C1552 C1551 1.524 . S
C1552 C1553 1.397 . S
C1552 C1557 1.363 . S
C1553 H1524 0.950 . S
C1553 C1552 1.397 . S
C1553 C1554 1.334 . S
C1554 H1525 0.950 . S
C1554 C1553 1.334 . S
C1554 C1555 1.287 . S
C1555 C1554 1.287 . S
C1555 C1556 1.524 . S
C1555 H1558 0.999 . S
C1556 H1526 0.950 . S
C1556 C1555 1.524 . S
C1556 C1557 1.415 . S
C1557 H1527 0.950 . S
C1557 C1552 1.363 . S
C1557 C1556 1.415 . S
H1558 C1555 0.999 . S
H1559 C1540 0.913 . S
C394 C353 1.570 . S
C379 C15 1.571 . S
C429 C61 1.450 . S
C444 C282 1.422 . S
C479 C114 1.571 . S
C494 C296 1.571 . S
C529 C139 1.449 . S
C544 C310 1.423 . S
C594 C324 1.570 . S
C579 C185 1.583 . S
C629 C245 1.450 . S
C644 C339 1.422 . S
C679 C47 1.449 . S
C694 C297 1.423 . S
C729 C100 1.582 . S
C744 C311 1.571 . S
C779 C153 1.450 . S
C794 C325 1.422 . S
C844 C338 1.570 . S
C829 C199 1.571 . S
C894 C352 1.423 . S
C879 C231 1.449 . S
C944 C283 1.570 . S
C929 C1 1.583 . S
C979 C22 1.467 . S
C994 C299 1.454 . S
C1029 C68 1.699 . S
C1044 C313 1.689 . S
C1094 C327 1.453 . S
C1079 C107 1.467 . S
C1129 C146 1.711 . S
C1144 C340 1.689 . S
C1194 C354 1.453 . S
C1179 C192 1.467 . S
C1244 C285 1.689 . S
C1229 C252 1.698 . S
C1294 C355 1.690 . S
C1279 C54 1.712 . S
C1329 C93 1.467 . S
C1344 C284 1.453 . S
C1394 C298 1.690 . S
C1379 C160 1.699 . S
C1429 C206 1.467 . S
C1444 C312 1.454 . S
C1479 C238 1.712 . S
C1494 C326 1.690 . S
C1529 C8 1.467 . S
C1544 C341 1.453 . S
