# Generated by pormake.
# Topology dag, (6,3)-cn, num edge types: 1
# Building blocks:
#     Node 0, Type 0, BuildingBlock: MIDCAF_clean_sbu_0, # of connection points: 6
#     Node 1, Type 0, BuildingBlock: MIDCAF_clean_sbu_0, # of connection points: 6
#     Node 2, Type 0, BuildingBlock: MIDCAF_clean_sbu_0, # of connection points: 6
#     Node 3, Type 0, BuildingBlock: MIDCAF_clean_sbu_0, # of connection points: 6
#     Node 4, Type 1, BuildingBlock: BETDAH_clean_linker_0, # of connection points: 3
#     Node 5, Type 1, BuildingBlock: BETDAH_clean_linker_0, # of connection points: 3
#     Node 6, Type 1, BuildingBlock: BETDAH_clean_linker_0, # of connection points: 3
#     Node 7, Type 1, BuildingBlock: BETDAH_clean_linker_0, # of connection points: 3
#     Node 8, Type 1, BuildingBlock: BETDAH_clean_linker_0, # of connection points: 3
#     Node 9, Type 1, BuildingBlock: BETDAH_clean_linker_0, # of connection points: 3
#     Node 10, Type 1, BuildingBlock: BETDAH_clean_linker_0, # of connection points: 3
#     Node 11, Type 1, BuildingBlock: BETDAH_clean_linker_0, # of connection points: 3
#     Edge 12, Type (0, 1), BuildingBlock: MIFKUJ_clean_linker_0, # of connection points: 2
#     Edge 13, Type (0, 1), BuildingBlock: MIFKUJ_clean_linker_0, # of connection points: 2
#     Edge 14, Type (0, 1), BuildingBlock: MIFKUJ_clean_linker_0, # of connection points: 2
#     Edge 15, Type (0, 1), BuildingBlock: MIFKUJ_clean_linker_0, # of connection points: 2
#     Edge 16, Type (0, 1), BuildingBlock: MIFKUJ_clean_linker_0, # of connection points: 2
#     Edge 17, Type (0, 1), BuildingBlock: MIFKUJ_clean_linker_0, # of connection points: 2
#     Edge 18, Type (0, 1), BuildingBlock: MIFKUJ_clean_linker_0, # of connection points: 2
#     Edge 19, Type (0, 1), BuildingBlock: MIFKUJ_clean_linker_0, # of connection points: 2
#     Edge 20, Type (0, 1), BuildingBlock: MIFKUJ_clean_linker_0, # of connection points: 2
#     Edge 21, Type (0, 1), BuildingBlock: MIFKUJ_clean_linker_0, # of connection points: 2
#     Edge 22, Type (0, 1), BuildingBlock: MIFKUJ_clean_linker_0, # of connection points: 2
#     Edge 23, Type (0, 1), BuildingBlock: MIFKUJ_clean_linker_0, # of connection points: 2
#     Edge 24, Type (0, 1), BuildingBlock: MIFKUJ_clean_linker_0, # of connection points: 2
#     Edge 25, Type (0, 1), BuildingBlock: MIFKUJ_clean_linker_0, # of connection points: 2
#     Edge 26, Type (0, 1), BuildingBlock: MIFKUJ_clean_linker_0, # of connection points: 2
#     Edge 27, Type (0, 1), BuildingBlock: MIFKUJ_clean_linker_0, # of connection points: 2
#     Edge 28, Type (0, 1), BuildingBlock: MIFKUJ_clean_linker_0, # of connection points: 2
#     Edge 29, Type (0, 1), BuildingBlock: MIFKUJ_clean_linker_0, # of connection points: 2
#     Edge 30, Type (0, 1), BuildingBlock: MIFKUJ_clean_linker_0, # of connection points: 2
#     Edge 31, Type (0, 1), BuildingBlock: MIFKUJ_clean_linker_0, # of connection points: 2
#     Edge 32, Type (0, 1), BuildingBlock: MIFKUJ_clean_linker_0, # of connection points: 2
#     Edge 33, Type (0, 1), BuildingBlock: MIFKUJ_clean_linker_0, # of connection points: 2
#     Edge 34, Type (0, 1), BuildingBlock: MIFKUJ_clean_linker_0, # of connection points: 2
#     Edge 35, Type (0, 1), BuildingBlock: MIFKUJ_clean_linker_0, # of connection points: 2
# Relax obj value: 0.136
# Max RMSD: 0.140
# Mean RMSD: 0.107
data_MOF--net-dag--node1-MIDCAF_clean_sbu_0--node2-BETDAH_clean_linker_0--edge1-MIFKUJ_clean_linker_0
_symmetry_space_group_name_H-M    P1
_symmetry_Int_Tables_number       1
_symmetry_cell_setting            triclinic
loop_
_symmetry_equiv_pos_as_xyz
'x, y, z'
_cell_length_a     51.545956
_cell_length_b     53.700201
_cell_length_c     41.445636
_cell_angle_alpha  92.42878
_cell_angle_beta   89.964241
_cell_angle_gamma 89.987627
loop_
_atom_site_label
_atom_site_type_symbol
_atom_site_fract_x
_atom_site_fract_y
_atom_site_fract_z
_atom_type_partial_charge
Zn0 Zn 0.12955 0.84705 0.12735 0.0
Zn1 Zn 0.14262 0.85461 0.00152 0.0
Zn2 Zn 0.13706 0.85065 0.06417 0.0
C3 C 0.15558 0.90093 0.02876 0.0
C4 C 0.09097 0.84261 0.01158 0.0
O5 O 0.16402 0.822 0.08085 0.0
O6 O 0.15818 0.82344 0.13388 0.0
C7 C 0.14619 0.89534 0.11757 0.0
O8 O 0.14898 0.88968 0.05443 0.0
O9 O 0.1559 0.88915 0.00175 0.0
O10 O 0.10595 0.84905 0.98933 0.0
O11 O 0.09926 0.84182 0.04085 0.0
O12 O 0.13657 0.88246 0.13936 0.0
O13 O 0.14812 0.88646 0.08828 0.0
O14 O 0.09564 0.84179 0.07455 0.0
O15 O 0.09326 0.83507 0.12681 0.0
C16 C 0.0824 0.836 0.09961 0.0
O17 O 0.16638 0.82237 0.04729 0.0
O18 O 0.1668 0.82632 0.99435 0.0
C19 C 0.16996 0.8148 0.10917 0.0
C20 C 0.17471 0.81552 0.01895 0.0
Zn21 Zn 0.63426 0.66168 0.4145 0.0
Zn22 Zn 0.64487 0.64548 0.53853 0.0
Zn23 Zn 0.63636 0.65367 0.47661 0.0
C24 C 0.64951 0.59946 0.50637 0.0
C25 C 0.59361 0.66389 0.53122 0.0
O26 O 0.66484 0.68311 0.46405 0.0
O27 O 0.65847 0.68976 0.41226 0.0
C28 C 0.65039 0.61293 0.41927 0.0
O29 O 0.64395 0.61309 0.48239 0.0
O30 O 0.65205 0.60918 0.53444 0.0
O31 O 0.60986 0.65723 0.55194 0.0
O32 O 0.59941 0.66332 0.50095 0.0
O33 O 0.64798 0.62922 0.39846 0.0
O34 O 0.64551 0.61829 0.4493 0.0
O35 O 0.59582 0.66555 0.46715 0.0
O36 O 0.59631 0.66759 0.41394 0.0
C37 C 0.58397 0.66906 0.4403 0.0
O38 O 0.66773 0.67856 0.49671 0.0
O39 O 0.67318 0.66915 0.54781 0.0
C40 C 0.67026 0.69482 0.43834 0.0
C41 C 0.6792 0.68206 0.52423 0.0
Zn42 Zn 0.89596 0.13484 0.93335 0.0
Zn43 Zn 0.8192 0.14503 0.04681 0.0
Zn44 Zn 0.86273 0.14437 0.96796 0.0
C45 C 0.87661 0.13504 0.04731 0.0
C46 C 0.81697 0.11944 0.97846 0.0
O47 O 0.86019 0.17599 0.93704 0.0
O48 O 0.87356 0.15095 0.8971 0.0
C49 C 0.9077 0.17823 0.96567 0.0
O50 O 0.87757 0.13798 0.01659 0.0
O51 O 0.85532 0.13631 0.06341 0.0
O52 O 0.82129 0.13742 0.99846 0.0
O53 O 0.83168 0.11884 0.95374 0.0
O54 O 0.91835 0.15702 0.96279 0.0
O55 O 0.88325 0.17979 0.96027 0.0
O56 O 0.85531 0.11034 0.93646 0.0
O57 O 0.89582 0.09755 0.93501 0.0
C58 C 0.87206 0.09306 0.93008 0.0
O59 O 0.84862 0.18318 0.96806 0.0
O60 O 0.83178 0.16282 0.00655 0.0
C61 C 0.86115 0.17037 0.90646 0.0
C62 C 0.83494 0.18366 0.99378 0.0
Zn63 Zn 0.4003 0.35069 0.57705 0.0
Zn64 Zn 0.33122 0.33401 0.46234 0.0
Zn65 Zn 0.36634 0.34033 0.54622 0.0
C66 C 0.38799 0.34582 0.46864 0.0
C67 C 0.32232 0.36456 0.52846 0.0
O68 O 0.36229 0.31178 0.58188 0.0
O69 O 0.3789 0.33932 0.6167 0.0
C70 C 0.40815 0.30378 0.55143 0.0
O71 O 0.38612 0.34476 0.49962 0.0
O72 O 0.36845 0.3425 0.44973 0.0
O73 O 0.32975 0.34702 0.50923 0.0
O74 O 0.33452 0.36612 0.55514 0.0
O75 O 0.42014 0.32432 0.55023 0.0
O76 O 0.38382 0.30436 0.55812 0.0
O77 O 0.35887 0.37565 0.57338 0.0
O78 O 0.39947 0.38735 0.56915 0.0
C79 C 0.37614 0.39286 0.5758 0.0
O80 O 0.35117 0.30235 0.54978 0.0
O81 O 0.33897 0.31999 0.50654 0.0
C82 C 0.36476 0.32025 0.61137 0.0
C83 C 0.33965 0.30037 0.52249 0.0
H84 H 0.12057 0.1258 0.20287 0.0
H85 H 0.17212 0.14076 0.28323 0.0
H86 H 0.09676 0.17525 0.28067 0.0
C87 C 0.1255 0.13593 0.22517 0.0
C88 C 0.10683 0.15196 0.23894 0.0
C89 C 0.1493 0.13163 0.24056 0.0
C90 C 0.15397 0.14373 0.27087 0.0
C91 C 0.13482 0.15926 0.28555 0.0
C92 C 0.11139 0.16325 0.26943 0.0
N93 N 0.13804 0.17071 0.31679 0.0
C94 C 0.16089 0.17047 0.3345 0.0
H95 H 0.38151 0.64503 0.70006 0.0
H96 H 0.39496 0.68868 0.78792 0.0
H97 H 0.3588 0.61679 0.79118 0.0
C98 C 0.37883 0.64798 0.72591 0.0
C99 C 0.36831 0.62871 0.74351 0.0
C100 C 0.38877 0.66959 0.74154 0.0
C101 C 0.3864 0.67261 0.77531 0.0
C102 C 0.37477 0.65387 0.79306 0.0
C103 C 0.36598 0.6319 0.77713 0.0
N104 N 0.37581 0.65503 0.82718 0.0
C105 C 0.35985 0.67071 0.84578 0.0
H106 H 0.82288 0.89152 0.13086 0.0
H107 H 0.81758 0.86158 0.22544 0.0
H108 H 0.77084 0.92446 0.20128 0.0
C109 C 0.81362 0.89108 0.15433 0.0
C110 C 0.79536 0.90945 0.16306 0.0
C111 C 0.822 0.87385 0.17672 0.0
C112 C 0.81093 0.87451 0.20787 0.0
C113 C 0.79215 0.89267 0.21655 0.0
C114 C 0.78473 0.91009 0.19417 0.0
N115 N 0.78131 0.89512 0.24799 0.0
C116 C 0.78291 0.87742 0.27137 0.0
H117 H 0.61386 0.34274 0.60882 0.0
H118 H 0.65197 0.30072 0.68141 0.0
H119 H 0.67969 0.37362 0.65977 0.0
C120 C 0.62934 0.34086 0.62624 0.0
C121 C 0.64665 0.36072 0.6318 0.0
C122 C 0.63105 0.31909 0.64393 0.0
C123 C 0.65055 0.31733 0.66756 0.0
C124 C 0.66808 0.33717 0.67317 0.0
C125 C 0.66592 0.3586 0.65536 0.0
N126 N 0.68801 0.33676 0.69671 0.0
C127 C 0.69532 0.31636 0.71406 0.0
H128 H 0.64444 0.38134 0.32377 0.0
H129 H 0.68306 0.37019 0.23231 0.0
H130 H 0.6113 0.33229 0.25045 0.0
C131 C 0.64592 0.3716 0.30039 0.0
C132 C 0.62572 0.35579 0.29005 0.0
C133 C 0.66645 0.37723 0.27963 0.0
C134 C 0.66756 0.36552 0.24866 0.0
C135 C 0.64781 0.34889 0.23835 0.0
C136 C 0.62684 0.3445 0.2589 0.0
N137 N 0.64751 0.33742 0.20686 0.0
C138 C 0.66926 0.33426 0.18727 0.0
H139 H 0.13961 0.16047 0.95209 0.0
H140 H 0.17412 0.20855 0.88311 0.0
H141 H 0.21342 0.1419 0.90965 0.0
C142 C 0.15569 0.16519 0.93663 0.0
C143 C 0.17672 0.14872 0.93341 0.0
C144 C 0.15448 0.1869 0.91873 0.0
C145 C 0.17491 0.19208 0.89729 0.0
C146 C 0.1962 0.17566 0.8942 0.0
C147 C 0.19687 0.15429 0.91225 0.0
N148 N 0.21718 0.17915 0.87272 0.0
C149 C 0.22228 0.20006 0.8552 0.0
H150 H 0.32681 0.60406 0.40996 0.0
H151 H 0.32048 0.64422 0.32247 0.0
H152 H 0.27481 0.57839 0.33483 0.0
C153 C 0.31752 0.60685 0.38693 0.0
C154 C 0.29947 0.58924 0.37503 0.0
C155 C 0.32542 0.62668 0.36809 0.0
C156 C 0.31433 0.62917 0.3373 0.0
C157 C 0.29591 0.61172 0.32544 0.0
C158 C 0.28866 0.59198 0.34439 0.0
N159 N 0.28505 0.61249 0.29405 0.0
C160 C 0.2884 0.63161 0.27294 0.0
H161 H 0.87368 0.84996 0.83438 0.0
H162 H 0.90773 0.79599 0.76783 0.0
H163 H 0.85643 0.85196 0.73287 0.0
C164 C 0.87496 0.84166 0.81011 0.0
C165 C 0.86255 0.85321 0.78452 0.0
C166 C 0.89124 0.82106 0.8044 0.0
C167 C 0.89476 0.81161 0.77266 0.0
C168 C 0.88172 0.82215 0.74694 0.0
C169 C 0.86559 0.84303 0.75287 0.0
N170 N 0.88659 0.81229 0.71525 0.0
C171 C 0.86839 0.81218 0.69057 0.0
H172 H 0.19271 0.91654 0.10332 0.0
H173 H 0.20877 0.95754 0.12328 0.0
H174 H 0.13522 0.97178 0.17049 0.0
H175 H 0.11983 0.93065 0.15201 0.0
H176 H 0.19644 0.00437 0.11784 0.0
H177 H 0.14043 -0.00058 0.24046 0.0
H178 H 0.12818 0.96742 0.27857 0.0
H179 H 0.19057 0.92065 0.24359 0.0
H180 H 0.20347 0.95252 0.2056 0.0
H181 H 0.1574 0.11964 0.17615 0.0
H182 H 0.17147 0.07993 0.15448 0.0
H183 H 0.20265 0.06229 0.24764 0.0
H184 H 0.18305 0.09997 0.2711 0.0
H185 H 0.17955 0.02678 0.23322 0.0
H186 H 0.24047 0.06353 0.16432 0.0
H187 H 0.25747 0.09484 0.12786 0.0
H188 H 0.19681 0.07693 0.05991 0.0
H189 H 0.18002 0.045 0.09519 0.0
C190 C 0.18012 0.92858 0.11796 0.0
C191 C 0.15521 0.92058 0.12653 0.0
C192 C 0.18923 0.95192 0.12925 0.0
C193 C 0.17345 0.96743 0.14913 0.0
C194 C 0.14806 0.95981 0.15611 0.0
C195 C 0.1392 0.93642 0.14543 0.0
C196 C 0.18322 0.9914 0.16344 0.0
C197 C 0.1932 0.00932 0.14318 0.0
C198 C 0.18027 0.99744 0.19677 0.0
C199 C 0.17288 0.97838 0.22009 0.0
C200 C 0.15169 0.98241 0.24107 0.0
C201 C 0.14459 0.96426 0.26261 0.0
C202 C 0.15857 0.942 0.26348 0.0
C203 C 0.17972 0.93788 0.24285 0.0
C204 C 0.18693 0.95597 0.2213 0.0
C205 C 0.16694 0.10726 0.19233 0.0
C206 C 0.16736 0.11249 0.2259 0.0
C207 C 0.17609 0.08459 0.17941 0.0
C208 C 0.18828 0.06743 0.19913 0.0
C209 C 0.19266 0.07463 0.23179 0.0
C210 C 0.18178 0.09661 0.24523 0.0
C211 C 0.19155 0.04084 0.18738 0.0
C212 C 0.18394 0.0221 0.20814 0.0
C213 C 0.19796 0.03386 0.15486 0.0
C214 C 0.20904 0.05185 0.13245 0.0
C215 C 0.23095 0.06611 0.1414 0.0
C216 C 0.24062 0.08388 0.12084 0.0
C217 C 0.22838 0.08772 0.09139 0.0
C218 C 0.2066 0.07362 0.08233 0.0
C219 C 0.19713 0.05552 0.10248 0.0
H220 H 0.2357 0.1017 0.07568 0.0
H221 H 0.15301 0.92796 0.28014 0.0
H222 H 0.58608 0.70464 0.56994 0.0
H223 H 0.54686 0.71552 0.60074 0.0
H224 H 0.50613 0.6549 0.55195 0.0
H225 H 0.54556 0.64367 0.52124 0.0
H226 H 0.49397 0.7264 0.59163 0.0
H227 H 0.47584 0.62331 0.6099 0.0
H228 H 0.49874 0.58298 0.60433 0.0
H229 H 0.57115 0.6195 0.62602 0.0
H230 H 0.54861 0.65997 0.63208 0.0
H231 H 0.37951 0.69086 0.68381 0.0
H232 H 0.41298 0.70121 0.64457 0.0
H233 H 0.47191 0.69199 0.71687 0.0
H234 H 0.43863 0.68164 0.75606 0.0
H235 H 0.47377 0.65739 0.66351 0.0
H236 H 0.46742 0.74584 0.68561 0.0
H237 H 0.44485 0.78628 0.69122 0.0
H238 H 0.4219 0.77989 0.59164 0.0
H239 H 0.44402 0.73921 0.58555 0.0
C240 C 0.56845 0.69416 0.56509 0.0
C241 C 0.56861 0.67345 0.54326 0.0
C242 C 0.54606 0.70045 0.58254 0.0
C243 C 0.52364 0.68587 0.57875 0.0
C244 C 0.52326 0.66628 0.55515 0.0
C245 C 0.5457 0.6599 0.53769 0.0
C246 C 0.50263 0.68853 0.60308 0.0
C247 C 0.48934 0.71129 0.60722 0.0
C248 C 0.4969 0.66893 0.6237 0.0
C249 C 0.51058 0.64464 0.62111 0.0
C250 C 0.49663 0.62268 0.61362 0.0
C251 C 0.50954 0.59982 0.61036 0.0
C252 C 0.53639 0.59869 0.61473 0.0
C253 C 0.55037 0.62041 0.62255 0.0
C254 C 0.53754 0.64331 0.62589 0.0
C255 C 0.39951 0.69224 0.6917 0.0
C256 C 0.40651 0.68525 0.72287 0.0
C257 C 0.41861 0.69809 0.66926 0.0
C258 C 0.4449 0.69702 0.67776 0.0
C259 C 0.45168 0.69284 0.70988 0.0
C260 C 0.43261 0.68717 0.73236 0.0
C261 C 0.46507 0.69532 0.6523 0.0
C262 C 0.47816 0.67254 0.64786 0.0
C263 C 0.47048 0.71491 0.63157 0.0
C264 C 0.45715 0.73934 0.63522 0.0
C265 C 0.45734 0.75293 0.66499 0.0
C266 C 0.44468 0.77593 0.66824 0.0
C267 C 0.43189 0.78561 0.64183 0.0
C268 C 0.43179 0.77235 0.61209 0.0
C269 C 0.4444 0.74933 0.60872 0.0
H270 H 0.42211 0.80343 0.64439 0.0
H271 H 0.54636 0.58097 0.61211 0.0
H272 H 0.78492 0.11496 0.03041 0.0
H273 H 0.77197 0.07606 0.05449 0.0
H274 H 0.80605 0.0342 0.97417 0.0
H275 H 0.81772 0.07289 0.9493 0.0
H276 H 0.74542 0.02838 0.03554 0.0
H277 H 0.84698 0.99541 0.00769 0.0
H278 H 0.88939 0.01233 0.99157 0.0
H279 H 0.87406 0.07996 0.04731 0.0
H280 H 0.83167 0.06337 0.06387 0.0
H281 H 0.78077 0.90527 0.09958 0.0
H282 H 0.77613 0.93927 0.06196 0.0
H283 H 0.79457 0.99284 0.13894 0.0
H284 H 0.79871 0.95918 0.17662 0.0
H285 H 0.82672 0.98981 0.07402 0.0
H286 H 0.74059 0.99749 0.1241 0.0
H287 H 0.69775 0.98076 0.13844 0.0
H288 H 0.68173 0.96368 0.03826 0.0
H289 H 0.72469 0.97998 0.0234 0.0
C290 C 0.78889 0.09749 0.01736 0.0
C291 C 0.80322 0.09691 0.98847 0.0
C292 C 0.78128 0.07529 0.03103 0.0
C293 C 0.78819 0.05232 0.01614 0.0
C294 C 0.8003 0.05176 0.98584 0.0
C295 C 0.80736 0.07392 0.97188 0.0
C296 C 0.78719 0.02959 0.03489 0.0
C297 C 0.76314 0.01977 0.04376 0.0
C298 C 0.81034 0.01843 0.0455 0.0
C299 C 0.83621 0.02818 0.03688 0.0
C300 C 0.85279 0.01381 0.01667 0.0
C301 C 0.87677 0.02337 0.0074 0.0
C302 C 0.88438 0.04724 0.01835 0.0
C303 C 0.8681 0.06154 0.03874 0.0
C304 C 0.84411 0.05206 0.04808 0.0
C305 C 0.7834 0.92436 0.10846 0.0
C306 C 0.78992 0.92971 0.14095 0.0
C307 C 0.78072 0.94366 0.08706 0.0
C308 C 0.78495 0.96842 0.09787 0.0
C309 C 0.79109 0.9738 0.13035 0.0
C310 C 0.7933 0.95462 0.15181 0.0
C311 C 0.78494 0.98871 0.07504 0.0
C312 C 0.80895 0.99808 0.06538 0.0
C313 C 0.76175 -0.00068 0.06373 0.0
C314 C 0.73597 0.98962 0.0727 0.0
C315 C 0.72806 0.98989 0.10517 0.0
C316 C 0.70373 0.98056 0.11339 0.0
C317 C 0.68706 0.97107 0.08929 0.0
C318 C 0.69468 0.97098 0.05691 0.0
C319 C 0.71901 0.98027 0.04858 0.0
H320 H 0.66823 0.96387 0.09569 0.0
H321 H 0.9029 0.05465 0.01104 0.0
H322 H 0.40247 0.26652 0.5937 0.0
H323 H 0.43913 0.24273 0.61398 0.0
H324 H 0.48682 0.26801 0.53634 0.0
H325 H 0.45033 0.29123 0.51582 0.0
H326 H 0.50695 0.22488 0.56261 0.0
H327 H 0.47516 0.31022 0.60039 0.0
H328 H 0.43845 0.33533 0.62206 0.0
H329 H 0.43045 0.28607 0.70044 0.0
H330 H 0.46703 0.26058 0.67898 0.0
H331 H 0.61373 0.2997 0.58612 0.0
H332 H 0.57513 0.27458 0.57633 0.0
H333 H 0.56516 0.26762 0.67898 0.0
H334 H 0.60348 0.2939 0.68892 0.0
H335 H 0.52313 0.28428 0.65539 0.0
H336 H 0.57365 0.21431 0.62541 0.0
H337 H 0.60933 0.18996 0.60007 0.0
H338 H 0.58218 0.20822 0.50606 0.0
H339 H 0.54657 0.233 0.53076 0.0
C340 C 0.42027 0.2656 0.57978 0.0
C341 C 0.42391 0.28111 0.5537 0.0
C342 C 0.44129 0.2521 0.59149 0.0
C343 C 0.46593 0.2543 0.57725 0.0
C344 C 0.46809 0.26616 0.54786 0.0
C345 C 0.4472 0.27955 0.53619 0.0
C346 C 0.48996 0.25156 0.59647 0.0
C347 C 0.51057 0.2374 0.58333 0.0
C348 C 0.49445 0.26744 0.62405 0.0
C349 C 0.47374 0.28359 0.63817 0.0
C350 C 0.46568 0.30492 0.62239 0.0
C351 C 0.44484 0.31913 0.63454 0.0
C352 C 0.43212 0.31229 0.66261 0.0
C353 C 0.44033 0.29133 0.67871 0.0
C354 C 0.46112 0.27702 0.6666 0.0
C355 C 0.60363 0.29241 0.60662 0.0
C356 C 0.6114 0.29912 0.63829 0.0
C357 C 0.58169 0.27767 0.60099 0.0
C358 C 0.56718 0.26891 0.62689 0.0
C359 C 0.57604 0.27405 0.65857 0.0
C360 C 0.59802 0.28898 0.66424 0.0
C361 C 0.54081 0.25842 0.62062 0.0
C362 C 0.51969 0.27045 0.63602 0.0
C363 C 0.536 0.24048 0.59522 0.0
C364 C 0.55736 0.22552 0.58003 0.0
C365 C 0.57534 0.21324 0.59933 0.0
C366 C 0.59556 0.19935 0.58507 0.0
C367 C 0.598 0.19753 0.55148 0.0
C368 C 0.58022 0.20959 0.53208 0.0
C369 C 0.55996 0.22352 0.54621 0.0
H370 H 0.61368 0.18677 0.54049 0.0
H371 H 0.4159 0.32322 0.67188 0.0
H372 H 0.63086 0.56795 0.43495 0.0
H373 H 0.64422 0.52669 0.41315 0.0
H374 H 0.70173 0.56136 0.35403 0.0
H375 H 0.68918 0.6023 0.37708 0.0
H376 H 0.64031 0.51089 0.35164 0.0
H377 H 0.75328 0.51806 0.34089 0.0
H378 H 0.78981 0.53821 0.37015 0.0
H379 H 0.74437 0.543 0.45705 0.0
H380 H 0.70774 0.5227 0.42856 0.0
H381 H 0.67554 0.41794 0.24471 0.0
H382 H 0.68572 0.45931 0.26791 0.0
H383 H 0.70299 0.42755 0.35923 0.0
H384 H 0.69306 0.386 0.33603 0.0
H385 H 0.72952 0.47592 0.34672 0.0
H386 H 0.64433 0.4362 0.35255 0.0
H387 H 0.60815 0.41251 0.32711 0.0
H388 H 0.59746 0.46996 0.25943 0.0
H389 H 0.63371 0.49392 0.28437 0.0
C390 C 0.64707 0.56652 0.41846 0.0
C391 C 0.6595 0.58803 0.40841 0.0
C392 C 0.65437 0.5431 0.40551 0.0
C393 C 0.6741 0.54098 0.38211 0.0
C394 C 0.68675 0.56252 0.37238 0.0
C395 C 0.67949 0.58586 0.38542 0.0
C396 C 0.68015 0.51651 0.3661 0.0
C397 C 0.65985 0.50336 0.35066 0.0
C398 C 0.70566 0.50659 0.36485 0.0
C399 C 0.72761 0.51896 0.38238 0.0
C400 C 0.75109 0.52333 0.36626 0.0
C401 C 0.77183 0.53482 0.38274 0.0
C402 C 0.76939 0.54194 0.41541 0.0
C403 C 0.74622 0.53757 0.43171 0.0
C404 C 0.72543 0.52611 0.41536 0.0
C405 C 0.68303 0.41954 0.26913 0.0
C406 C 0.68307 0.39887 0.28878 0.0
C407 C 0.68876 0.44324 0.28241 0.0
C408 C 0.69459 0.44643 0.3154 0.0
C409 C 0.6985 0.42542 0.33372 0.0
C410 C 0.69274 0.40171 0.32047 0.0
C411 C 0.68978 0.47082 0.33219 0.0
C412 C 0.71017 0.48385 0.34757 0.0
C413 C 0.66429 0.4805 0.33422 0.0
C414 C 0.64184 0.46669 0.32007 0.0
C415 C 0.63433 0.4437 0.33213 0.0
C416 C 0.61391 0.43019 0.31775 0.0
C417 C 0.60073 0.43959 0.29145 0.0
C418 C 0.60778 0.46265 0.2797 0.0
C419 C 0.62823 0.47622 0.29397 0.0
H420 H 0.58493 0.42909 0.28036 0.0
H421 H 0.78548 0.55082 0.42811 0.0
H422 H 0.91182 0.21428 0.92199 0.0
H423 H 0.9524 0.23628 0.9112 0.0
H424 H 0.98433 0.21119 1.00031 0.0
H425 H 0.9441 0.18899 0.01078 0.0
H426 H 0.00708 0.25744 0.97901 0.0
H427 H 0.98639 0.17128 0.93998 0.0
H428 H 0.95764 0.14162 0.9102 0.0
H429 H 0.96566 0.18361 0.82484 0.0
H430 H 0.99416 0.21373 0.85436 0.0
H431 H 0.12907 0.20239 0.9737 0.0
H432 H 0.08542 0.21932 0.97796 0.0
H433 H 0.08244 0.22481 0.87442 0.0
H434 H 0.12598 0.20661 0.86998 0.0
H435 H 0.04281 0.20071 0.89237 0.0
H436 H 0.0772 0.27798 0.92875 0.0
H437 H 0.10526 0.30771 0.95929 0.0
H438 H 0.07202 0.28494 0.04836 0.0
H439 H 0.04402 0.25479 0.01844 0.0
C440 C 0.92691 0.21482 0.94019 0.0
C441 C 0.92499 0.19997 0.96716 0.0
C442 C 0.95016 0.22725 0.93392 0.0
C443 C 0.97152 0.22499 0.9547 0.0
C444 C 0.96813 0.21322 0.98398 0.0
C445 C 0.94509 0.20056 0.99001 0.0
C446 C 0.99838 0.22876 0.9429 0.0
C447 C 0.015 0.24531 0.95987 0.0
C448 C 0.0085 0.21332 0.91739 0.0
C449 C 0.99215 0.19482 0.89938 0.0
C450 C 0.98194 0.17419 0.91488 0.0
C451 C 0.96568 0.15733 0.89808 0.0
C452 C 0.95977 0.16077 0.86567 0.0
C453 C 0.97021 0.18101 0.84997 0.0
C454 C 0.98641 0.19798 0.86671 0.0
C455 C 0.11933 0.20764 0.95185 0.0
C456 C 0.13084 0.20278 0.92146 0.0
C457 C 0.0944 0.21768 0.95434 0.0
C458 C 0.08048 0.22356 0.92654 0.0
C459 C 0.09272 0.22047 0.89626 0.0
C460 C 0.1177 0.21022 0.89374 0.0
C461 C 0.05215 0.22902 0.92905 0.0
C462 C 0.0351 0.21383 0.91055 0.0
C463 C 0.04177 0.24588 0.95301 0.0
C464 C 0.05852 0.26404 0.97128 0.0
C465 C 0.07597 0.27918 0.95486 0.0
C466 C 0.09186 0.29614 0.97207 0.0
C467 C 0.09043 0.2982 0.00574 0.0
C468 C 0.07308 0.28334 0.02227 0.0
C469 C 0.05715 0.26635 0.00518 0.0
H470 H 0.10275 0.31134 0.01902 0.0
H471 H 0.94715 0.14772 0.85271 0.0
H472 H 0.30442 0.37107 0.46756 0.0
H473 H 0.28967 0.41009 0.44601 0.0
H474 H 0.29018 0.44474 0.54175 0.0
H475 H 0.30459 0.4054 0.56367 0.0
H476 H 0.24898 0.46212 0.48935 0.0
H477 H 0.34132 0.45231 0.51475 0.0
H478 H 0.38074 0.42629 0.51482 0.0
H479 H 0.37706 0.41675 0.41157 0.0
H480 H 0.33735 0.44248 0.41091 0.0
H481 H 0.2874 0.58593 0.43918 0.0
H482 H 0.28221 0.54764 0.46915 0.0
H483 H 0.29513 0.50342 0.38132 0.0
H484 H 0.30023 0.54132 0.3514 0.0
H485 H 0.32791 0.49219 0.43425 0.0
H486 H 0.23795 0.50551 0.40855 0.0
H487 H 0.19699 0.52916 0.4081 0.0
H488 H 0.19498 0.53144 0.51175 0.0
H489 H 0.23612 0.50811 0.51286 0.0
C490 C 0.30063 0.38668 0.48425 0.0
C491 C 0.30669 0.38552 0.51719 0.0
C492 C 0.29199 0.40892 0.47189 0.0
C493 C 0.2892 0.43024 0.49229 0.0
C494 C 0.29224 0.42841 0.52569 0.0
C495 C 0.30089 0.40607 0.53809 0.0
C496 C 0.28908 0.45486 0.47794 0.0
C497 C 0.26623 0.46899 0.47766 0.0
C498 C 0.31164 0.46348 0.46258 0.0
C499 C 0.3363 0.44921 0.46279 0.0
C500 C 0.34888 0.44465 0.49206 0.0
C501 C 0.37126 0.42992 0.49222 0.0
C502 C 0.38136 0.41983 0.46324 0.0
C503 C 0.3692 0.42458 0.434 0.0
C504 C 0.34679 0.43928 0.43371 0.0
C505 C 0.28884 0.568 0.42632 0.0
C506 C 0.29412 0.56654 0.39299 0.0
C507 C 0.28575 0.54624 0.44336 0.0
C508 C 0.28822 0.52282 0.42732 0.0
C509 C 0.29306 0.52137 0.39402 0.0
C510 C 0.29582 0.54301 0.37696 0.0
C511 C 0.28772 0.49971 0.44537 0.0
C512 C 0.31062 0.48567 0.44623 0.0
C513 C 0.26524 0.49144 0.4614 0.0
C514 C 0.24043 0.50543 0.46078 0.0
C515 C 0.22898 0.51133 0.43127 0.0
C516 C 0.20566 0.52461 0.43089 0.0
C517 C 0.19346 0.53191 0.45988 0.0
C518 C 0.2045 0.52586 0.48931 0.0
C519 C 0.22784 0.5126 0.48982 0.0
H520 H 0.17539 0.54218 0.45954 0.0
H521 H 0.39863 0.40836 0.46342 0.0
H522 H 0.06052 0.86534 0.96903 0.0
H523 H 0.0186 0.85141 0.94806 0.0
H524 H 0.01883 0.79055 0.01254 0.0
H525 H 0.06157 0.80414 0.03326 0.0
H526 H 0.01419 0.7814 0.93824 0.0
H527 H 0.93765 0.81454 0.0162 0.0
H528 H 0.92464 0.84482 0.05962 0.0
H529 H 0.96981 0.90161 0.01615 0.0
H530 H 0.98202 0.87196 0.97169 0.0
H531 H 0.87429 0.80847 0.86408 0.0
H532 H 0.90106 0.79945 0.91105 0.0
H533 H 0.96998 0.80551 0.85259 0.0
H534 H 0.94332 0.81356 0.80575 0.0
H535 H 0.93147 0.82863 0.94097 0.0
H536 H 0.02076 0.77743 0.87877 0.0
H537 H 0.02828 0.74334 0.83817 0.0
H538 H 0.95205 0.71453 0.85535 0.0
H539 H 0.94418 0.74821 0.89644 0.0
C540 C 0.05137 0.84934 0.97934 0.0
C541 C 0.06405 0.83599 0.00303 0.0
C542 C 0.02726 0.84161 0.96767 0.0
C543 C 0.01517 0.82053 0.97964 0.0
C544 C 0.02751 0.80731 0.00377 0.0
C545 C 0.05184 0.81505 0.0155 0.0
C546 C 0.9921 0.81057 0.96246 0.0
C547 C 0.99588 0.79137 0.93895 0.0
C548 C 0.96791 0.82282 0.96449 0.0
C549 C 0.96148 0.84081 0.99129 0.0
C550 C 0.94496 0.83345 0.01609 0.0
C551 C 0.93757 0.85054 0.04075 0.0
C552 C 0.94671 0.87504 0.04094 0.0
C553 C 0.96299 0.88255 0.01619 0.0
C554 C 0.97015 0.86559 0.99122 0.0
C555 C 0.89514 0.80718 0.86123 0.0
C556 C 0.90678 0.81161 0.83132 0.0
C557 C 0.91041 0.80207 0.88803 0.0
C558 C 0.93759 0.80151 0.88545 0.0
C559 C 0.94908 0.80504 0.85519 0.0
C560 C 0.93383 0.80978 0.82835 0.0
C561 C 0.95421 0.80065 0.91471 0.0
C562 C 0.94924 0.81779 0.94056 0.0
C563 C 0.97705 0.78598 0.91518 0.0
C564 C 0.98186 0.76544 0.89072 0.0
C565 C 0.00567 0.76372 0.87414 0.0
C566 C 0.00997 0.74449 0.85095 0.0
C567 C 0.99065 0.7268 0.84416 0.0
C568 C 0.96698 0.72828 0.86058 0.0
C569 C 0.96258 0.74747 0.8838 0.0
H570 H 0.99402 0.71194 0.82619 0.0
H571 H 0.94104 0.88823 0.06012 0.0
H572 H 0.83462 0.08281 0.88498 0.0
H573 H 0.82477 0.04226 0.85843 0.0
H574 H 0.8813 0.00745 0.91885 0.0
H575 H 0.8921 0.04812 0.94391 0.0
H576 H 0.88964 0.99252 0.86175 0.0
H577 H 0.81095 0.99611 0.92564 0.0
H578 H 0.76979 0.01365 0.94717 0.0
H579 H 0.74123 0.02067 0.85076 0.0
H580 H 0.78188 0.00258 0.82865 0.0
H581 H 0.82902 0.86699 0.83331 0.0
H582 H 0.82153 0.90959 0.85443 0.0
H583 H 0.86122 0.9381 0.77215 0.0
H584 H 0.86946 0.89557 0.75142 0.0
H585 H 0.80276 0.95595 0.83942 0.0
H586 H 0.9079 0.97732 0.80154 0.0
H587 H 0.94792 0.95448 0.7862 0.0
H588 H 0.92417 0.89326 0.84273 0.0
H589 H 0.88432 0.91594 0.85888 0.0
C590 C 0.84467 0.06638 0.89271 0.0
C591 C 0.86412 0.06847 0.91638 0.0
C592 C 0.83889 0.04318 0.87776 0.0
C593 C 0.85213 0.02163 0.88671 0.0
C594 C 0.87089 0.02374 0.9113 0.0
C595 C 0.87704 0.04695 0.92569 0.0
C596 C 0.84841 0.99735 0.8686 0.0
C597 C 0.87057 0.98465 0.85698 0.0
C598 C 0.82362 0.9868 0.86229 0.0
C599 C 0.79952 0.99825 0.87551 0.0
C600 C 0.79596 0.00157 0.90905 0.0
C601 C 0.77272 0.01153 0.92135 0.0
C602 C 0.75308 0.01853 0.90036 0.0
C603 C 0.7565 0.01533 0.867 0.0
C604 C 0.77955 0.00507 0.85457 0.0
C605 C 0.83541 0.88238 0.8192 0.0
C606 C 0.85031 0.87795 0.79107 0.0
C607 C 0.83098 0.90672 0.83121 0.0
C608 C 0.84137 0.92695 0.81524 0.0
C609 C 0.85335 0.92268 0.78505 0.0
C610 C 0.85788 0.89833 0.77309 0.0
C611 C 0.84393 0.95149 0.83276 0.0
C612 C 0.8217 0.96413 0.84414 0.0
C613 C 0.8687 0.96169 0.83987 0.0
C614 C 0.893 0.94822 0.83106 0.0
C615 C 0.91131 0.95905 0.81081 0.0
C616 C 0.93396 0.94612 0.80199 0.0
C617 C 0.93854 0.9224 0.8134 0.0
C618 C 0.92057 0.9116 0.83383 0.0
C619 C 0.89796 0.92449 0.84284 0.0
H620 H 0.95605 0.9124 0.80645 0.0
H621 H 0.73515 0.0263 0.90995 0.0
H622 H 0.39853 0.35498 0.40568 0.0
H623 H 0.44088 0.35823 0.38009 0.0
H624 H 0.47828 0.34962 0.47201 0.0
H625 H 0.43585 0.34625 0.49795 0.0
H626 H 0.48126 0.39055 0.38938 0.0
H627 H 0.53428 0.31475 0.45704 0.0
H628 H 0.52442 0.27732 0.48741 0.0
H629 H 0.45514 0.26513 0.43149 0.0
H630 H 0.46477 0.30226 0.40054 0.0
H631 H 0.62392 0.34788 0.35486 0.0
H632 H 0.58551 0.34836 0.38983 0.0
H633 H 0.5367 0.35911 0.30707 0.0
H634 H 0.57494 0.35909 0.27218 0.0
H635 H 0.54237 0.31917 0.39106 0.0
H636 H 0.49035 0.3977 0.32503 0.0
H637 H 0.50083 0.43681 0.29857 0.0
H638 H 0.56929 0.44556 0.3569 0.0
H639 H 0.55958 0.40622 0.38306 0.0
C640 C 0.41571 0.35386 0.42059 0.0
C641 C 0.41374 0.34997 0.45387 0.0
C642 C 0.43992 0.35583 0.40589 0.0
C643 C 0.46271 0.35382 0.42405 0.0
C644 C 0.46091 0.35085 0.45747 0.0
C645 C 0.43662 0.34899 0.47227 0.0
C646 C 0.48821 0.35415 0.40751 0.0
C647 C 0.49452 0.37486 0.38956 0.0
C648 C 0.50592 0.33405 0.40868 0.0
C649 C 0.50013 0.31143 0.42673 0.0
C650 C 0.517 0.30402 0.45116 0.0
C651 C 0.51146 0.28286 0.46847 0.0
C652 C 0.48916 0.26888 0.46139 0.0
C653 C 0.47238 0.27601 0.43699 0.0
C654 C 0.47786 0.29712 0.41958 0.0
C655 C 0.60495 0.35023 0.34415 0.0
C656 C 0.60242 0.35337 0.31076 0.0
C657 C 0.58307 0.35046 0.36413 0.0
C658 C 0.55831 0.35412 0.35113 0.0
C659 C 0.55567 0.35663 0.31769 0.0
C660 C 0.57751 0.35627 0.2977 0.0
C661 C 0.53508 0.35533 0.3723 0.0
C662 C 0.52922 0.33495 0.39114 0.0
C663 C 0.51788 0.37585 0.37235 0.0
C664 C 0.52433 0.39897 0.3558 0.0
C665 C 0.50772 0.40792 0.33204 0.0
C666 C 0.51359 0.43006 0.317 0.0
C667 C 0.53582 0.44357 0.32588 0.0
C668 C 0.55226 0.43493 0.34975 0.0
C669 C 0.54669 0.41262 0.36452 0.0
H670 H 0.54027 0.46076 0.31434 0.0
H671 H 0.4849 0.2525 0.47479 0.0
H672 H 0.13816 0.93807 0.07106 0.0
H673 H 0.14794 0.9826 0.07045 0.0
H674 H 0.19247 0.96939 0.98301 0.0
H675 H 0.18598 0.92486 0.98667 0.0
H676 H 0.21407 0.00425 0.01248 0.0
H677 H 0.12107 0.9884 0.99084 0.0
H678 H 0.07701 0.97511 0.006 0.0
H679 H 0.07793 0.02706 0.08769 0.0
H680 H 0.12211 0.04044 0.07315 0.0
H681 H 0.19093 0.10247 0.90986 0.0
H682 H 0.19163 0.06363 0.9382 0.0
H683 H 0.1638 0.10236 0.02474 0.0
H684 H 0.16325 0.14157 0.99647 0.0
H685 H 0.13735 0.05987 0.01187 0.0
H686 H 0.22609 0.08407 0.01667 0.0
H687 H 0.26876 0.09699 0.99695 0.0
H688 H 0.27523 0.02875 0.93976 0.0
H689 H 0.23241 0.0154 0.95891 0.0
C690 C 0.15126 0.94459 0.05292 0.0
C691 C 0.16207 0.92782 0.02971 0.0
C692 C 0.15618 0.97021 0.05189 0.0
C693 C 0.17052 0.9797 0.02624 0.0
C694 C 0.18148 0.9628 0.00324 0.0
C695 C 0.17752 0.93724 0.00514 0.0
C696 C 0.17296 0.007 0.0214 0.0
C697 C 0.19722 0.01633 0.01209 0.0
C698 C 0.15132 0.02335 0.02241 0.0
C699 C 0.12492 0.01517 0.03116 0.0
C700 C 0.11189 0.99686 0.01213 0.0
C701 C 0.08692 0.98933 0.0206 0.0
C702 C 0.07472 0.00018 0.04785 0.0
C703 C 0.08743 0.01863 0.06665 0.0
C704 C 0.11242 0.02618 0.05832 0.0
C705 C 0.18535 0.10286 0.93507 0.0
C706 C 0.17724 0.12517 0.95098 0.0
C707 C 0.18576 0.08061 0.95125 0.0
C708 C 0.17822 0.08018 0.98376 0.0
C709 C 0.16987 0.10233 0.99971 0.0
C710 C 0.16945 0.12467 0.9835 0.0
C711 C 0.17792 0.05623 1.0003 0.0
C712 C 0.15424 0.04784 0.01247 0.0
C713 C 0.19998 0.04055 0.00102 0.0
C714 C 0.22589 0.04864 0.98946 0.0
C715 C 0.23651 0.07174 0.99995 0.0
C716 C 0.26077 0.07918 0.9888 0.0
C717 C 0.27473 0.06369 0.96715 0.0
C718 C 0.26443 0.04071 0.9566 0.0
C719 C 0.24016 0.03317 0.96767 0.0
H720 H 0.29351 0.0695 0.95853 0.0
H721 H 0.05538 0.99433 0.05436 0.0
H722 H 0.5512 0.69032 0.48642 0.0
H723 H 0.50342 0.69241 0.4841 0.0
H724 H 0.50563 0.66111 0.38659 0.0
H725 H 0.55253 0.65721 0.38978 0.0
H726 H 0.47359 0.70551 0.39734 0.0
H727 H 0.49488 0.62554 0.44287 0.0
H728 H 0.5105 0.59754 0.4842 0.0
H729 H 0.45528 0.62883 0.5521 0.0
H730 H 0.44008 0.65782 0.51158 0.0
H731 H 0.36763 0.6403 0.33332 0.0
H732 H 0.40756 0.6592 0.3539 0.0
H733 H 0.3738 0.66724 0.44909 0.0
H734 H 0.33366 0.64801 0.42851 0.0
H735 H 0.41826 0.64501 0.45266 0.0
H736 H 0.39137 0.71928 0.40639 0.0
H737 H 0.37329 0.74641 0.36549 0.0
H738 H 0.43601 0.72677 0.30113 0.0
H739 H 0.4543 0.69922 0.34142 0.0
C740 C 0.5413 0.68312 0.46508 0.0
C741 C 0.55551 0.67267 0.43892 0.0
C742 C 0.51415 0.68479 0.46348 0.0
C743 C 0.50107 0.67675 0.4352 0.0
C744 C 0.51537 0.6674 0.40862 0.0
C745 C 0.54222 0.66522 0.41051 0.0
C746 C 0.47245 0.67727 0.43261 0.0
C747 C 0.46135 0.69245 0.40957 0.0
C748 C 0.45645 0.66086 0.44954 0.0
C749 C 0.46673 0.6443 0.47435 0.0
C750 C 0.48649 0.62694 0.46683 0.0
C751 C 0.49519 0.61077 0.49009 0.0
C752 C 0.48392 0.61142 0.52077 0.0
C753 C 0.46401 0.62834 0.52833 0.0
C754 C 0.45549 0.64478 0.5053 0.0
C755 C 0.36835 0.64683 0.35839 0.0
C756 C 0.3475 0.64259 0.3793 0.0
C757 C 0.39125 0.65768 0.37019 0.0
C758 C 0.39371 0.66484 0.40307 0.0
C759 C 0.3724 0.66186 0.42366 0.0
C760 C 0.34949 0.65087 0.41188 0.0
C761 C 0.41948 0.67249 0.41625 0.0
C762 C 0.4301 0.65882 0.44123 0.0
C763 C 0.43499 0.69047 0.40136 0.0
C764 C 0.42417 0.7071 0.37696 0.0
C765 C 0.40124 0.72062 0.38345 0.0
C766 C 0.39096 0.73609 0.36037 0.0
C767 C 0.40348 0.7383 0.33072 0.0
C768 C 0.42634 0.72506 0.32412 0.0
C769 C 0.43671 0.70955 0.3471 0.0
H770 H 0.39549 0.75029 0.31288 0.0
H771 H 0.49061 0.59882 0.53869 0.0
H772 H 0.33213 0.40813 0.60793 0.0
H773 H 0.32395 0.449 0.63459 0.0
H774 H 0.39855 0.47463 0.60274 0.0
H775 H 0.40632 0.43441 0.57463 0.0
H776 H 0.38691 0.47595 0.67401 0.0
H777 H 0.35678 0.50101 0.57075 0.0
H778 H 0.33 0.50023 0.52147 0.0
H779 H 0.26113 0.50937 0.57901 0.0
H780 H 0.2875 0.50995 0.62877 0.0
H781 H 0.40231 0.60324 0.70502 0.0
H782 H 0.39665 0.56257 0.67764 0.0
H783 H 0.31972 0.55718 0.71771 0.0
H784 H 0.32533 0.5984 0.74553 0.0
H785 H 0.3262 0.54366 0.64675 0.0
H786 H 0.3597 0.52393 0.75062 0.0
H787 H 0.38923 0.52883 0.79723 0.0
H788 H 0.4544 0.51124 0.73582 0.0
H789 H 0.42529 0.50662 0.68873 0.0
C790 C 0.3463 0.42279 0.60547 0.0
C791 C 0.3697 0.41815 0.5888 0.0
C792 C 0.3417 0.44602 0.62096 0.0
C793 C 0.36066 0.46469 0.62051 0.0
C794 C 0.3837 0.46037 0.60322 0.0
C795 C 0.3881 0.43738 0.58727 0.0
C796 C 0.35782 0.48781 0.64072 0.0
C797 C 0.37364 0.49077 0.66809 0.0
C798 C 0.34008 0.50676 0.63322 0.0
C799 C 0.32408 0.50516 0.60351 0.0
C800 C 0.3359 0.5024 0.57296 0.0
C801 C 0.32082 0.50213 0.54494 0.0
C802 C 0.29392 0.50472 0.54717 0.0
C803 C 0.28199 0.50735 0.57739 0.0
C804 C 0.29698 0.50767 0.6055 0.0
C805 C 0.38406 0.59354 0.7078 0.0
C806 C 0.36413 0.60401 0.72714 0.0
C807 C 0.38092 0.57028 0.69227 0.0
C808 C 0.35781 0.55695 0.69574 0.0
C809 C 0.33766 0.56732 0.71476 0.0
C810 C 0.34092 0.59068 0.73071 0.0
C811 C 0.35555 0.53191 0.6798 0.0
C812 C 0.33891 0.52855 0.65319 0.0
C813 C 0.37274 0.5126 0.68776 0.0
C814 C 0.3903 0.51506 0.71611 0.0
C815 C 0.38034 0.52127 0.74701 0.0
C816 C 0.39701 0.52398 0.77352 0.0
C817 C 0.42368 0.52038 0.76948 0.0
C818 C 0.43373 0.51402 0.73892 0.0
C819 C 0.41715 0.51131 0.71231 0.0
H820 H 0.43655 0.5225 0.79004 0.0
H821 H 0.28238 0.50495 0.5255 0.0
H822 H 0.0535 0.80372 0.13317 0.0
H823 H 0.00626 0.80249 0.13762 0.0
H824 H 1.00011 0.85909 0.06712 0.0
H825 H 0.04749 0.86103 0.06364 0.0
H826 H 0.97445 0.87259 0.11869 0.0
H827 H 0.97708 0.79935 0.05145 0.0
H828 H 0.99018 0.75745 0.03097 0.0
H829 H 0.96435 0.72625 0.11905 0.0
H830 H 0.95096 0.76793 0.14007 0.0
H831 H 0.83123 0.84562 0.1213 0.0
H832 H 0.87368 0.83069 0.10202 0.0
H833 H 0.90755 0.85304 0.19381 0.0
H834 H 0.86537 0.86816 0.2131 0.0
H835 H 0.91628 0.79908 0.12218 0.0
H836 H 0.95573 0.89311 0.17488 0.0
H837 H 0.93913 0.93531 0.18898 0.0
H838 H 0.87898 0.92568 0.11789 0.0
H839 H 0.89556 0.88369 0.10294 0.0
C840 C 0.04201 0.81551 0.11813 0.0
C841 C 0.05409 0.83227 0.09779 0.0
C842 C 0.01501 0.81465 0.12048 0.0
C843 C 0.99957 0.83056 0.10253 0.0
C844 C 0.01161 0.84657 0.08111 0.0
C845 C 0.03866 0.84753 0.07892 0.0
C846 C 0.97141 0.83284 0.10956 0.0
C847 C 0.96181 0.85645 0.11922 0.0
C848 C 0.95464 0.81192 0.10974 0.0
C849 C 0.96307 0.78685 0.0974 0.0
C850 C 0.97429 0.78361 0.06654 0.0
C851 C 0.98175 0.75988 0.05481 0.0
C852 C 0.9782 0.73924 0.07374 0.0
C853 C 0.96709 0.74226 0.10441 0.0
C854 C 0.95946 0.76592 0.1162 0.0
C855 C 0.84759 0.84657 0.1377 0.0
C856 C 0.84507 0.8583 0.16858 0.0
C857 C 0.87176 0.83794 0.1267 0.0
C858 C 0.89373 0.8411 0.14636 0.0
C859 C 0.89077 0.85056 0.17826 0.0
C860 C 0.86662 0.85906 0.18932 0.0
C861 C 0.92003 0.83852 0.13225 0.0
C862 C 0.92913 0.81503 0.12142 0.0
C863 C 0.93624 0.8596 0.12994 0.0
C864 C 0.9267 0.88516 0.1381 0.0
C865 C 0.93906 0.90007 0.16215 0.0
C866 C 0.92965 0.92395 0.17028 0.0
C867 C 0.90796 0.93314 0.15442 0.0
C868 C 0.89572 0.91853 0.13024 0.0
C869 C 0.9051 0.89469 0.12195 0.0
H870 H 0.90067 0.9516 0.16082 0.0
H871 H 0.98402 0.7209 0.06462 0.0
H872 H 0.69014 0.56821 0.51538 0.0
H873 H 0.68736 0.52339 0.52405 0.0
H874 H 0.60575 0.52476 0.50111 0.0
H875 H 0.60862 0.56955 0.49253 0.0
H876 H 0.6135 0.50878 0.55982 0.0
H877 H 0.64372 0.47954 0.4545 0.0
H878 H 0.67083 0.47298 0.40589 0.0
H879 H 0.73822 0.46403 0.46512 0.0
H880 H 0.71122 0.46949 0.51417 0.0
H881 H 0.63735 0.36458 0.5671 0.0
H882 H 0.63442 0.40265 0.53682 0.0
H883 H 0.64909 0.44689 0.62422 0.0
H884 H 0.65116 0.40906 0.65477 0.0
H885 H 0.66963 0.43728 0.52626 0.0
H886 H 0.61758 0.50201 0.62185 0.0
H887 H 0.58506 0.49881 0.66518 0.0
H888 H 0.55367 0.43283 0.61785 0.0
H889 H 0.58572 0.43584 0.57402 0.0
C890 C 0.67191 0.55864 0.51093 0.0
C891 C 0.64968 0.57209 0.5028 0.0
C892 C 0.67031 0.53304 0.51578 0.0
C893 C 0.64634 0.52064 0.51315 0.0
C894 C 0.62447 0.53387 0.5031 0.0
C895 C 0.62612 0.5594 0.49808 0.0
C896 C 0.64321 0.49561 0.52663 0.0
C897 C 0.62565 0.4931 0.55226 0.0
C898 C 0.65876 0.47501 0.51674 0.0
C899 C 0.67556 0.47521 0.48788 0.0
C900 C 0.6644 0.4766 0.45712 0.0
C901 C 0.67969 0.4728 0.4295 0.0
C902 C 0.70625 0.46814 0.43239 0.0
C903 C 0.71763 0.46755 0.46292 0.0
C904 C 0.70233 0.47084 0.49063 0.0
C905 C 0.63959 0.38245 0.57994 0.0
C906 C 0.64448 0.38379 0.61336 0.0
C907 C 0.63811 0.40416 0.56256 0.0
C908 C 0.64132 0.42763 0.57829 0.0
C909 C 0.64619 0.42902 0.61164 0.0
C910 C 0.64765 0.40734 0.62901 0.0
C911 C 0.64036 0.45069 0.55978 0.0
C912 C 0.65729 0.45291 0.53356 0.0
C913 C 0.6238 0.47084 0.56871 0.0
C914 C 0.60422 0.46905 0.59479 0.0
C915 C 0.60366 0.48689 0.62062 0.0
C916 C 0.58532 0.48509 0.64528 0.0
C917 C 0.56736 0.46559 0.64432 0.0
C918 C 0.56765 0.44788 0.61863 0.0
C919 C 0.58592 0.4496 0.59389 0.0
H920 H 0.55319 0.46422 0.66345 0.0
H921 H 0.71805 0.46496 0.41103 0.0
H922 H 0.88234 0.123 0.11027 0.0
H923 H 0.92181 0.12545 0.14263 0.0
H924 H 0.9658 0.14451 0.05864 0.0
H925 H 0.92637 0.14188 0.02584 0.0
H926 H 0.99246 0.11264 0.09768 0.0
H927 H 0.94553 0.18977 0.10914 0.0
H928 H 0.90706 0.21605 0.12034 0.0
H929 H 0.90336 0.19014 0.21684 0.0
H930 H 0.94159 0.16339 0.20604 0.0
H931 H 0.10102 0.1645 0.17665 0.0
H932 H 0.06137 0.16213 0.14436 0.0
H933 H 0.01758 0.14382 0.22888 0.0
H934 H 0.05737 0.14635 0.26144 0.0
H935 H 0.9908 0.175 0.18965 0.0
H936 H 0.03862 0.09848 0.17839 0.0
H937 H 0.07738 0.07263 0.16712 0.0
H938 H 0.07963 0.0973 0.06998 0.0
H939 H 0.04117 0.12374 0.08085 0.0
C940 C 0.90044 0.12739 0.0985 0.0
C941 C 0.90111 0.13261 0.06552 0.0
C942 C 0.92297 0.12883 0.11708 0.0
C943 C 0.94657 0.13566 0.10315 0.0
C944 C 0.9477 0.13934 0.06986 0.0
C945 C 0.92514 0.13783 0.05116 0.0
C946 C 0.96965 0.1404 0.12376 0.0
C947 C 0.99224 0.12647 0.11754 0.0
C948 C 0.96911 0.15815 0.15003 0.0
C949 C 0.94627 0.17439 0.15668 0.0
C950 C 0.93639 0.18953 0.13267 0.0
C951 C 0.91465 0.20453 0.13895 0.0
C952 C 0.90273 0.20471 0.16925 0.0
C953 C 0.91259 0.18995 0.19336 0.0
C954 C 0.9343 0.17488 0.18719 0.0
C955 C 0.08283 0.16042 0.18842 0.0
C956 C 0.08219 0.15538 0.22141 0.0
C957 C 0.06026 0.15897 0.16996 0.0
C958 C 0.03671 0.15222 0.1841 0.0
C959 C 0.03565 0.14889 0.21752 0.0
C960 C 0.05829 0.15045 0.2361 0.0
C961 C 0.01363 0.14725 0.1636 0.0
C962 C 0.99103 0.16114 0.16982 0.0
C963 C 0.0142 0.12947 0.13732 0.0
C964 C 0.03714 0.11331 0.13056 0.0
C965 C 0.04749 0.09856 0.1547 0.0
C966 C 0.0694 0.08379 0.14837 0.0
C967 C 0.08101 0.0834 0.11789 0.0
C968 C 0.07065 0.09769 0.09361 0.0
C969 C 0.04879 0.11257 0.09984 0.0
H970 H 0.09799 0.07198 0.11307 0.0
H971 H 0.8859 0.21634 0.17407 0.0
H972 H 0.20614 0.81675 0.15594 0.0
H973 H 0.23635 0.78407 0.1699 0.0
H974 H 0.21024 0.73875 0.08772 0.0
H975 H 0.17946 0.77152 0.07404 0.0
H976 H 0.20794 0.71379 0.14063 0.0
H977 H 0.27151 0.76143 0.09212 0.0
H978 H 0.29705 0.79802 0.07788 0.0
H979 H 0.32404 0.80699 0.17566 0.0
H980 H 0.29842 0.77056 0.19071 0.0
H981 H 0.28583 0.622 0.20909 0.0
H982 H 0.27608 0.65214 0.16786 0.0
H983 H 0.27859 0.71188 0.24078 0.0
H984 H 0.28845 0.68167 0.282 0.0
H985 H 0.29865 0.72503 0.17857 0.0
H986 H 0.22283 0.68438 0.22597 0.0
H987 H 0.19704 0.64731 0.23851 0.0
H988 H 0.19413 0.62538 0.13771 0.0
H989 H 0.22022 0.6622 0.12466 0.0
C990 C 0.2073 0.80002 0.14045 0.0
C991 C 0.19073 0.79661 0.1138 0.0
C992 C 0.22473 0.78144 0.14826 0.0
C993 C 0.2259 0.75907 0.12958 0.0
C994 C 0.20995 0.75598 0.10219 0.0
C995 C 0.19249 0.77471 0.09428 0.0
C996 C 0.24125 0.73806 0.14156 0.0
C997 C 0.22801 0.71604 0.14808 0.0
C998 C 0.26743 0.74102 0.15144 0.0
C999 C 0.28302 0.76304 0.14256 0.0
C1000 C 0.28284 0.77114 0.11068 0.0
C1001 C 0.29734 0.79192 0.10244 0.0
C1002 C 0.31219 0.80481 0.12584 0.0
C1003 C 0.31257 0.79694 0.15753 0.0
C1004 C 0.2981 0.77616 0.16591 0.0
C1005 C 0.28504 0.64168 0.216 0.0
C1006 C 0.28782 0.64976 0.24841 0.0
C1007 C 0.27948 0.65882 0.19253 0.0
C1008 C 0.27644 0.68417 0.20136 0.0
C1009 C 0.28101 0.6924 0.2335 0.0
C1010 C 0.28653 0.67522 0.25699 0.0
C1011 C 0.26491 0.7015 0.17851 0.0
C1012 C 0.27884 0.72273 0.17019 0.0
C1013 C 0.23946 0.6978 0.16652 0.0
C1014 C 0.2237 0.67581 0.1744 0.0
C1015 C 0.21684 0.67154 0.20653 0.0
C1016 C 0.20216 0.6506 0.21372 0.0
C1017 C 0.19402 0.63395 0.18893 0.0
C1018 C 0.2005 0.63826 0.15689 0.0
C1019 C 0.21522 0.65914 0.14958 0.0
H1020 H 0.18265 0.61776 0.19454 0.0
H1021 H 0.32339 0.82092 0.11943 0.0
H1022 H 0.67975 0.71588 0.57386 0.0
H1023 H 0.71317 0.74662 0.58739 0.0
H1024 H 0.75525 0.72408 0.50094 0.0
H1025 H 0.72186 0.69264 0.48781 0.0
H1026 H 0.78584 0.72434 0.55208 0.0
H1027 H 0.73012 0.78498 0.50958 0.0
H1028 H 0.68902 0.80705 0.49959 0.0
H1029 H 0.68149 0.82555 0.60089 0.0
H1030 H 0.72241 0.8036 0.61157 0.0
H1031 H 0.879 0.80527 0.62719 0.0
H1032 H 0.84825 0.79164 0.58471 0.0
H1033 H 0.78593 0.79529 0.65441 0.0
H1034 H 0.81662 0.80926 0.69658 0.0
H1035 H 0.76983 0.81042 0.59576 0.0
H1036 H 0.81956 0.74097 0.63742 0.0
H1037 H 0.86008 0.71824 0.648 0.0
H1038 H 0.87831 0.716 0.54679 0.0
H1039 H 0.83804 0.73901 0.53571 0.0
C1040 C 0.69594 0.71783 0.55746 0.0
C1041 C 0.69818 0.70221 0.52962 0.0
C1042 C 0.71489 0.7356 0.56498 0.0
C1043 C 0.73654 0.73815 0.54482 0.0
C1044 C 0.73857 0.72279 0.51658 0.0
C1045 C 0.71948 0.70494 0.509 0.0
C1046 C 0.75826 0.75448 0.556 0.0
C1047 C 0.78257 0.74346 0.56065 0.0
C1048 C 0.75398 0.77933 0.5676 0.0
C1049 C 0.72931 0.79256 0.56135 0.0
C1050 C 0.7196 0.79362 0.52974 0.0
C1051 C 0.69637 0.80613 0.52395 0.0
C1052 C 0.68264 0.81758 0.54958 0.0
C1053 C 0.69216 0.81666 0.58106 0.0
C1054 C 0.71542 0.80428 0.58698 0.0
C1055 C 0.85859 0.80372 0.63306 0.0
C1056 C 0.84993 0.80826 0.66483 0.0
C1057 C 0.84111 0.79586 0.60892 0.0
C1058 C 0.81485 0.79216 0.61648 0.0
C1059 C 0.80607 0.79807 0.648 0.0
C1060 C 0.82354 0.80599 0.67207 0.0
C1061 C 0.79686 0.77988 0.59282 0.0
C1062 C 0.77331 0.79165 0.58603 0.0
C1063 C 0.80184 0.75574 0.57911 0.0
C1064 C 0.826 0.74195 0.58581 0.0
C1065 C 0.83232 0.73578 0.61748 0.0
C1066 C 0.85522 0.72283 0.62355 0.0
C1067 C 0.8718 0.71575 0.5981 0.0
C1068 C 0.86548 0.72155 0.56649 0.0
C1069 C 0.84263 0.73454 0.5603 0.0
H1070 H 0.88951 0.70572 0.60284 0.0
H1071 H 0.66465 0.82722 0.54504 0.0
H1072 H 0.80759 0.22138 0.96702 0.0
H1073 H 0.78255 0.25384 0.99699 0.0
H1074 H 0.8149 0.22948 0.08645 0.0
H1075 H 0.83848 0.19649 0.05681 0.0
H1076 H 0.76562 0.23006 0.09111 0.0
H1077 H 0.82866 0.28854 0.05236 0.0
H1078 H 0.85383 0.30893 0.01028 0.0
H1079 H 0.78324 0.33335 0.96663 0.0
H1080 H 0.75764 0.31288 0.00829 0.0
H1081 H 0.7159 0.31661 0.20416 0.0
H1082 H 0.74856 0.29782 0.1675 0.0
H1083 H 0.70198 0.31671 0.08559 0.0
H1084 H 0.66937 0.33566 0.12237 0.0
H1085 H 0.75658 0.32052 0.074 0.0
H1086 H 0.69409 0.26194 0.11198 0.0
H1087 H 0.66852 0.24111 0.15331 0.0
H1088 H 0.73868 0.21602 0.19735 0.0
H1089 H 0.76468 0.23703 0.15652 0.0
C1090 C 0.80971 0.22351 0.99299 0.0
C1091 C 0.82473 0.20653 0.00978 0.0
C1092 C 0.79548 0.24204 0.01012 0.0
C1093 C 0.79671 0.24409 0.0441 0.0
C1094 C 0.81335 0.22816 0.06036 0.0
C1095 C 0.82693 0.2094 0.04343 0.0
C1096 C 0.77885 0.26069 0.06334 0.0
C1097 C 0.7641 0.24992 0.08761 0.0
C1098 C 0.77589 0.28643 0.05805 0.0
C1099 C 0.79125 0.29902 0.03329 0.0
C1100 C 0.81851 0.29815 0.03369 0.0
C1101 C 0.83285 0.30974 0.00993 0.0
C1102 C 0.82014 0.32239 0.98576 0.0
C1103 C 0.79306 0.32354 0.98536 0.0
C1104 C 0.77863 0.31199 0.00907 0.0
C1105 C 0.71307 0.3173 0.1783 0.0
C1106 C 0.69036 0.32745 0.16585 0.0
C1107 C 0.73164 0.30658 0.15741 0.0
C1108 C 0.72755 0.30568 0.12384 0.0
C1109 C 0.70555 0.3173 0.11137 0.0
C1110 C 0.68695 0.32802 0.13232 0.0
C1111 C 0.74444 0.28991 0.10237 0.0
C1112 C 0.75852 0.3007 0.07751 0.0
C1113 C 0.74691 0.26409 0.10699 0.0
C1114 C 0.73132 0.25126 0.1314 0.0
C1115 C 0.70406 0.25214 0.13063 0.0
C1116 C 0.68949 0.24028 0.15394 0.0
C1117 C 0.70197 0.22731 0.17799 0.0
C1118 C 0.72904 0.22611 0.17873 0.0
C1119 C 0.7437 0.23797 0.1555 0.0
H1120 H 0.69066 0.21814 0.19602 0.0
H1121 H 0.83128 0.33133 0.96737 0.0
H1122 H 0.36049 0.3377 0.67384 0.0
H1123 H 0.33583 0.31951 0.7174 0.0
H1124 H 0.3143 0.25755 0.65339 0.0
H1125 H 0.33875 0.27575 0.60945 0.0
H1126 H 0.28218 0.30781 0.71885 0.0
H1127 H 0.31531 0.20565 0.70101 0.0
H1128 H 0.35314 0.18205 0.6797 0.0
H1129 H 0.40288 0.24411 0.70429 0.0
H1130 H 0.36545 0.2679 0.72624 0.0
H1131 H 0.20217 0.21994 0.80157 0.0
H1132 H 0.22648 0.24376 0.76203 0.0
H1133 H 0.29419 0.24235 0.82311 0.0
H1134 H 0.26989 0.21879 0.8625 0.0
H1135 H 0.3042 0.22522 0.76073 0.0
H1136 H 0.26357 0.29561 0.81551 0.0
H1137 H 0.22687 0.32049 0.83739 0.0
H1138 H 0.19456 0.32413 0.74224 0.0
H1139 H 0.2309 0.29896 0.71984 0.0
C1140 C 0.35068 0.32012 0.66906 0.0
C1141 C 0.3516 0.30814 0.63823 0.0
C1142 C 0.33644 0.30986 0.6939 0.0
C1143 C 0.32321 0.28727 0.68854 0.0
C1144 C 0.32444 0.275 0.65797 0.0
C1145 C 0.33845 0.2854 0.63297 0.0
C1146 C 0.30824 0.27646 0.71504 0.0
C1147 C 0.28692 0.28973 0.72801 0.0
C1148 C 0.31469 0.25305 0.72716 0.0
C1149 C 0.3375 0.23862 0.71497 0.0
C1150 C 0.33434 0.21419 0.70204 0.0
C1151 C 0.35571 0.2008 0.68983 0.0
C1152 C 0.38038 0.21161 0.69054 0.0
C1153 C 0.38375 0.23579 0.70365 0.0
C1154 C 0.36246 0.24924 0.71596 0.0
C1155 C 0.222 0.22543 0.80681 0.0
C1156 C 0.23422 0.21799 0.83502 0.0
C1157 C 0.23589 0.23887 0.78425 0.0
C1158 C 0.26217 0.24474 0.78964 0.0
C1159 C 0.27398 0.23797 0.81847 0.0
C1160 C 0.26007 0.22474 0.84103 0.0
C1161 C 0.2779 0.25645 0.76444 0.0
C1162 C 0.29936 0.24328 0.75159 0.0
C1163 C 0.27169 0.28006 0.75265 0.0
C1164 C 0.24982 0.29518 0.76606 0.0
C1165 C 0.24852 0.30152 0.79929 0.0
C1166 C 0.22781 0.31572 0.81178 0.0
C1167 C 0.20836 0.32383 0.79123 0.0
C1168 C 0.20962 0.31781 0.75813 0.0
C1169 C 0.23028 0.30359 0.74553 0.0
H1170 H 0.19234 0.33483 0.80094 0.0
H1171 H 0.39688 0.20124 0.681 0.0
H1172 H 0.71353 0.69275 0.40225 0.0
H1173 H 0.74241 0.72723 0.39087 0.0
H1174 H 0.7012 0.77443 0.46037 0.0
H1175 H 0.6723 0.73952 0.47213 0.0
H1176 H 0.70009 0.79327 0.40343 0.0
H1177 H 0.7693 0.76728 0.46901 0.0
H1178 H 0.80087 0.73932 0.49373 0.0
H1179 H 0.83107 0.71803 0.40008 0.0
H1180 H 0.79993 0.74608 0.37473 0.0
H1181 H 0.76872 0.89045 0.33183 0.0
H1182 H 0.75797 0.86224 0.37491 0.0
H1183 H 0.78006 0.79924 0.3128 0.0
H1184 H 0.79089 0.82759 0.26966 0.0
H1185 H 0.79429 0.79433 0.37891 0.0
H1186 H 0.71915 0.81595 0.31459 0.0
H1187 H 0.68848 0.84533 0.29092 0.0
H1188 H 0.66905 0.87509 0.38567 0.0
H1189 H 0.69991 0.84607 0.40987 0.0
C1190 C 0.71133 0.71025 0.41598 0.0
C1191 C 0.69086 0.71364 0.43801 0.0
C1192 C 0.72797 0.72992 0.40969 0.0
C1193 C 0.7242 0.75346 0.42502 0.0
C1194 C 0.70468 0.75638 0.44864 0.0
C1195 C 0.68817 0.73652 0.45526 0.0
C1196 C 0.73692 0.77549 0.41141 0.0
C1197 C 0.72084 0.79391 0.39907 0.0
C1198 C 0.76389 0.77616 0.40502 0.0
C1199 C 0.78217 0.75869 0.41996 0.0
C1200 C 0.78255 0.75651 0.45365 0.0
C1201 C 0.80044 0.74073 0.46779 0.0
C1202 C 0.81785 0.72682 0.44851 0.0
C1203 C 0.81755 0.72879 0.415 0.0
C1204 C 0.79989 0.74474 0.40074 0.0
C1205 C 0.77181 0.8706 0.32776 0.0
C1206 C 0.78056 0.86098 0.29774 0.0
C1207 C 0.76566 0.85455 0.35228 0.0
C1208 C 0.76806 0.82867 0.34694 0.0
C1209 C 0.7782 0.81917 0.31742 0.0
C1210 C 0.78429 0.83527 0.29283 0.0
C1211 C 0.7573 0.81143 0.37051 0.0
C1212 C 0.77371 0.79399 0.38434 0.0
C1213 C 0.73061 0.8117 0.37852 0.0
C1214 C 0.71208 0.82911 0.36399 0.0
C1215 C 0.70851 0.82892 0.33034 0.0
C1216 C 0.69106 0.84547 0.31684 0.0
C1217 C 0.6769 0.86213 0.33677 0.0
C1218 C 0.68009 0.86222 0.37026 0.0
C1219 C 0.69755 0.84573 0.38388 0.0
H1220 H 0.66338 0.87492 0.32628 0.0
H1221 H 0.83163 0.71457 0.45954 0.0
H1222 H 0.84516 0.21844 0.91601 0.0
H1223 H 0.81654 0.24182 0.88145 0.0
H1224 H 0.81548 0.17995 0.8115 0.0
H1225 H 0.84501 0.15681 0.84551 0.0
H1226 H 0.81593 0.22243 0.78177 0.0
H1227 H 0.76593 0.18964 0.86869 0.0
H1228 H 0.75657 0.1828 0.92602 0.0
H1229 H 0.74933 0.26174 0.94481 0.0
H1230 H 0.75894 0.26907 0.88765 0.0
H1231 H 0.70653 0.26798 0.69869 0.0
H1232 H 0.73315 0.24021 0.73089 0.0
H1233 H 0.73935 0.29817 0.80597 0.0
H1234 H 0.71231 0.32546 0.77419 0.0
H1235 H 0.73458 0.25467 0.83223 0.0
H1236 H 0.78715 0.28804 0.7478 0.0
H1237 H 0.79886 0.29617 0.6915 0.0
H1238 H 0.80281 0.21747 0.66897 0.0
H1239 H 0.79079 0.20888 0.72508 0.0
C1240 C 0.83915 0.20997 0.89303 0.0
C1241 C 0.84712 0.18574 0.88353 0.0
C1242 C 0.82264 0.22327 0.87341 0.0
C1243 C 0.81323 0.21234 0.84433 0.0
C1244 C 0.8223 0.18867 0.83397 0.0
C1245 C 0.83921 0.17549 0.85337 0.0
C1246 C 0.79321 0.22522 0.82539 0.0
C1247 C 0.79795 0.22912 0.79266 0.0
C1248 C 0.76992 0.23433 0.83975 0.0
C1249 C 0.76326 0.2299 0.8739 0.0
C1250 C 0.76237 0.20554 0.88506 0.0
C1251 C 0.75702 0.20157 0.91752 0.0
C1252 C 0.75232 0.22182 0.93902 0.0
C1253 C 0.7529 0.24607 0.9281 0.0
C1254 C 0.75825 0.25014 0.89566 0.0
C1255 C 0.71318 0.27442 0.7224 0.0
C1256 C 0.70746 0.2986 0.73428 0.0
C1257 C 0.72851 0.25871 0.74063 0.0
C1258 C 0.73862 0.26726 0.77065 0.0
C1259 C 0.73181 0.29114 0.78294 0.0
C1260 C 0.71639 0.30671 0.76484 0.0
C1261 C 0.75739 0.25208 0.78863 0.0
C1262 C 0.75242 0.24774 0.82123 0.0
C1263 C 0.78053 0.24268 0.7742 0.0
C1264 C 0.78778 0.24782 0.74051 0.0
C1265 C 0.79033 0.27247 0.73077 0.0
C1266 C 0.79705 0.27716 0.69891 0.0
C1267 C 0.8015 0.25735 0.67665 0.0
C1268 C 0.7993 0.2328 0.68622 0.0
C1269 C 0.79255 0.22801 0.71805 0.0
H1270 H 0.80671 0.26102 0.652 0.0
H1271 H 0.74827 0.21871 0.96416 0.0
H1272 H 0.30559 0.2676 0.54804 0.0
H1273 H 0.28121 0.23528 0.51722 0.0
H1274 H 0.32818 0.24822 0.43324 0.0
H1275 H 0.3514 0.28118 0.4635 0.0
H1276 H 0.28045 0.25439 0.41932 0.0
H1277 H 0.32715 0.19098 0.47201 0.0
H1278 H 0.34513 0.16916 0.51813 0.0
H1279 H 0.26822 0.15692 0.55397 0.0
H1280 H 0.24976 0.17898 0.5083 0.0
H1281 H 0.21037 0.17475 0.31451 0.0
H1282 H 0.24772 0.1868 0.34852 0.0
H1283 H 0.19918 0.18543 0.43331 0.0
H1284 H 0.16198 0.1731 0.3993 0.0
H1285 H 0.2503 0.16989 0.44548 0.0
H1286 H 0.20514 0.23817 0.39704 0.0
H1287 H 0.18702 0.26061 0.35148 0.0
H1288 H 0.26263 0.26388 0.3083 0.0
H1289 H 0.28113 0.24114 0.35344 0.0
C1290 C 0.31114 0.26284 0.52333 0.0
C1291 C 0.33013 0.27677 0.50792 0.0
C1292 C 0.29729 0.24437 0.50572 0.0
C1293 C 0.30276 0.23936 0.47278 0.0
C1294 C 0.32344 0.25185 0.45848 0.0
C1295 C 0.33677 0.27059 0.47578 0.0
C1296 C 0.28467 0.22435 0.45191 0.0
C1297 C 0.27445 0.23565 0.42474 0.0
C1298 C 0.27607 0.20023 0.45941 0.0
C1299 C 0.28708 0.18683 0.48684 0.0
C1300 C 0.31407 0.18381 0.48985 0.0
C1301 C 0.32435 0.17136 0.5159 0.0
C1302 C 0.30783 0.16171 0.539 0.0
C1303 C 0.28099 0.16442 0.53606 0.0
C1304 C 0.2706 0.17687 0.51007 0.0
C1305 C 0.20799 0.17639 0.34049 0.0
C1306 C 0.18358 0.17318 0.35453 0.0
C1307 C 0.22923 0.18324 0.35987 0.0
C1308 C 0.22612 0.18724 0.3934 0.0
C1309 C 0.20201 0.18234 0.40755 0.0
C1310 C 0.1808 0.17544 0.38816 0.0
C1311 C 0.24668 0.19991 0.41294 0.0
C1312 C 0.25696 0.18838 0.43992 0.0
C1313 C 0.25552 0.22389 0.40539 0.0
C1314 C 0.24445 0.23772 0.37839 0.0
C1315 C 0.21785 0.24352 0.3777 0.0
C1316 C 0.20752 0.25631 0.35198 0.0
C1317 C 0.22365 0.26359 0.32696 0.0
C1318 C 0.25015 0.25817 0.32766 0.0
C1319 C 0.26057 0.24534 0.35331 0.0
H1320 H 0.21561 0.2735 0.30707 0.0
H1321 H 0.31583 0.15209 0.55915 0.0
H1322 H 0.16796 0.77537 0.9792 0.0
H1323 H 0.20136 0.74667 0.9587 0.0
H1324 H 0.25692 0.78082 0.0246 0.0
H1325 H 0.22305 0.80967 0.04555 0.0
H1326 H 0.24171 0.76826 0.92814 0.0
H1327 H 0.30798 0.73182 0.02913 0.0
H1328 H 0.30615 0.71362 0.08275 0.0
H1329 H 0.22629 0.69401 0.06723 0.0
H1330 H 0.22764 0.71195 0.01343 0.0
H1331 H 0.35776 0.72082 0.85544 0.0
H1332 H 0.32849 0.74421 0.89259 0.0
H1333 H 0.29462 0.67506 0.92141 0.0
H1334 H 0.32408 0.65182 0.88468 0.0
H1335 H 0.3015 0.70627 0.97296 0.0
H1336 H 0.26464 0.71007 0.86657 0.0
H1337 H 0.26441 0.71922 0.80875 0.0
H1338 H 0.27939 0.79646 0.83267 0.0
H1339 H 0.28006 0.78769 0.89065 0.0
C1340 C 0.18707 0.77619 0.99008 0.0
C1341 C 0.19305 0.7947 0.01376 0.0
C1342 C 0.20614 0.75981 0.97837 0.0
C1343 C 0.23169 0.76179 0.98982 0.0
C1344 C 0.2373 0.77892 0.01549 0.0
C1345 C 0.218 0.79536 0.02743 0.0
C1346 C 0.25267 0.74916 0.97081 0.0
C1347 C 0.25489 0.75483 0.93812 0.0
C1348 C 0.26985 0.73162 0.9837 0.0
C1349 C 0.26785 0.72352 0.01737 0.0
C1350 C 0.28994 0.72386 0.03729 0.0
C1351 C 0.28904 0.71345 0.06761 0.0
C1352 C 0.26616 0.70257 0.07827 0.0
C1353 C 0.244 0.70248 0.05889 0.0
C1354 C 0.24476 0.71293 0.02856 0.0
C1355 C 0.34404 0.71077 0.86983 0.0
C1356 C 0.34281 0.6847 0.86729 0.0
C1357 C 0.3274 0.72406 0.891 0.0
C1358 C 0.30927 0.71138 0.90968 0.0
C1359 C 0.3085 0.68522 0.90739 0.0
C1360 C 0.32514 0.67199 0.88629 0.0
C1361 C 0.29023 0.72525 0.93046 0.0
C1362 C 0.28855 0.72004 0.96333 0.0
C1363 C 0.27308 0.74285 0.91771 0.0
C1364 C 0.27271 0.74817 0.88289 0.0
C1365 C 0.26811 0.72896 0.85947 0.0
C1366 C 0.26785 0.73409 0.82668 0.0
C1367 C 0.27197 0.75839 0.81704 0.0
C1368 C 0.27627 0.77764 0.84018 0.0
C1369 C 0.27658 0.7726 0.873 0.0
H1370 H 0.27176 0.76233 0.79164 0.0
H1371 H 0.26567 0.6941 0.10147 0.0
loop_
_geom_bond_atom_site_label_1
_geom_bond_atom_site_label_2
_geom_bond_distance
_geom_bond_site_symmetry_2
_ccdc_geom_bond_type
Zn0 O6 1.920 . S
Zn0 O12 1.898 . S
Zn0 O15 1.905 . S
Zn1 O9 1.905 . S
Zn1 O10 1.898 . S
Zn1 O18 1.920 . S
Zn2 O5 2.080 . S
Zn2 O8 2.114 . S
Zn2 O11 2.097 1_554 S
Zn2 O13 2.120 . S
Zn2 O14 2.114 . S
Zn2 O17 2.080 . S
C3 O8 1.166 1_556 S
C3 O9 1.182 . S
C4 O10 1.167 . S
C4 O11 1.328 . S
O5 Zn2 2.080 . S
O5 C19 1.305 . S
O6 Zn0 1.920 . S
O6 C19 1.234 . S
C7 O12 1.167 . S
C7 O13 1.299 . S
O8 Zn2 2.114 . S
O8 C3 1.166 1_554 S
O9 Zn1 1.905 . S
O9 C3 1.182 . S
O10 Zn1 1.898 . S
O10 C4 1.167 . S
O11 Zn2 2.097 1_556 S
O11 C4 1.328 . S
O12 Zn0 1.898 . S
O12 C7 1.167 . S
O13 Zn2 2.120 . S
O13 C7 1.299 . S
O14 Zn2 2.114 . S
O14 C16 1.166 . S
O15 Zn0 1.905 . S
O15 C16 1.182 . S
C16 O14 1.166 . S
C16 O15 1.182 . S
O17 Zn2 2.080 . S
O17 C20 1.305 1_554 S
O18 Zn1 1.920 . S
O18 C20 1.234 . S
C19 O5 1.305 . S
C19 O6 1.234 . S
C20 O17 1.305 1_556 S
C20 O18 1.234 . S
Zn21 O27 1.920 . S
Zn21 O33 1.898 . S
Zn21 O36 1.905 . S
Zn22 O30 1.905 . S
Zn22 O31 1.898 . S
Zn22 O39 1.920 . S
Zn23 O26 2.080 . S
Zn23 O29 2.114 . S
Zn23 O32 2.120 . S
Zn23 O34 2.120 . S
Zn23 O35 2.114 . S
Zn23 O38 2.080 . S
C24 O29 1.166 . S
C24 O30 1.182 . S
C25 O31 1.167 . S
C25 O32 1.299 . S
O26 Zn23 2.080 . S
O26 C40 1.305 . S
O27 Zn21 1.920 . S
O27 C40 1.234 . S
C28 O33 1.167 . S
C28 O34 1.299 . S
O29 Zn23 2.114 . S
O29 C24 1.166 . S
O30 Zn22 1.905 . S
O30 C24 1.182 . S
O31 Zn22 1.898 . S
O31 C25 1.167 . S
O32 Zn23 2.120 . S
O32 C25 1.299 . S
O33 Zn21 1.898 . S
O33 C28 1.167 . S
O34 Zn23 2.120 . S
O34 C28 1.299 . S
O35 Zn23 2.114 . S
O35 C37 1.166 . S
O36 Zn21 1.905 . S
O36 C37 1.182 . S
C37 O35 1.166 . S
C37 O36 1.182 . S
O38 Zn23 2.080 . S
O38 C41 1.305 . S
O39 Zn22 1.920 . S
O39 C41 1.234 . S
C40 O26 1.305 . S
C40 O27 1.234 . S
C41 O38 1.305 . S
C41 O39 1.234 . S
Zn42 O48 1.920 . S
Zn42 O54 1.898 . S
Zn42 O57 1.905 . S
Zn43 O51 1.905 . S
Zn43 O52 1.898 . S
Zn43 O60 1.920 . S
Zn44 O47 2.080 1_554 S
Zn44 O50 2.114 . S
Zn44 O53 2.120 . S
Zn44 O55 2.120 1_554 S
Zn44 O56 2.113 1_554 S
Zn44 O59 2.081 . S
C45 O50 1.166 . S
C45 O51 1.182 . S
C46 O52 1.167 . S
C46 O53 1.299 . S
O47 Zn44 2.080 1_556 S
O47 C61 1.305 . S
O48 Zn42 1.920 . S
O48 C61 1.234 . S
C49 O54 1.167 . S
C49 O55 1.299 . S
O50 Zn44 2.114 . S
O50 C45 1.166 . S
O51 Zn43 1.905 . S
O51 C45 1.182 . S
O52 Zn43 1.898 . S
O52 C46 1.167 . S
O53 Zn44 2.120 . S
O53 C46 1.299 . S
O54 Zn42 1.898 . S
O54 C49 1.167 . S
O55 Zn44 2.120 1_556 S
O55 C49 1.299 . S
O56 Zn44 2.113 1_556 S
O56 C58 1.166 . S
O57 Zn42 1.905 . S
O57 C58 1.182 . S
C58 O56 1.166 . S
C58 O57 1.182 . S
O59 Zn44 2.081 . S
O59 C62 1.305 . S
O60 Zn43 1.920 . S
O60 C62 1.234 . S
C61 O47 1.305 . S
C61 O48 1.234 . S
C62 O59 1.305 . S
C62 O60 1.234 . S
Zn63 O69 1.920 . S
Zn63 O75 1.898 . S
Zn63 O78 1.905 . S
Zn64 O72 1.905 . S
Zn64 O73 1.898 . S
Zn64 O81 1.920 . S
Zn65 O68 2.080 . S
Zn65 O71 2.114 . S
Zn65 O74 2.120 . S
Zn65 O76 2.120 . S
Zn65 O77 2.114 . S
Zn65 O80 2.080 . S
C66 O71 1.166 . S
C66 O72 1.182 . S
C67 O73 1.167 . S
C67 O74 1.299 . S
O68 Zn65 2.080 . S
O68 C82 1.305 . S
O69 Zn63 1.920 . S
O69 C82 1.234 . S
C70 O75 1.167 . S
C70 O76 1.299 . S
O71 Zn65 2.114 . S
O71 C66 1.166 . S
O72 Zn64 1.905 . S
O72 C66 1.182 . S
O73 Zn64 1.898 . S
O73 C67 1.167 . S
O74 Zn65 2.120 . S
O74 C67 1.299 . S
O75 Zn63 1.898 . S
O75 C70 1.167 . S
O76 Zn65 2.120 . S
O76 C70 1.299 . S
O77 Zn65 2.114 . S
O77 C79 1.166 . S
O78 Zn63 1.905 . S
O78 C79 1.182 . S
C79 O77 1.166 . S
C79 O78 1.182 . S
O80 Zn65 2.080 . S
O80 C83 1.305 . S
O81 Zn64 1.920 . S
O81 C83 1.234 . S
C82 O68 1.305 . S
C82 O69 1.234 . S
C83 O80 1.305 . S
C83 O81 1.234 . S
H84 C87 0.929 . S
H85 C90 0.929 . S
H86 C92 0.930 . S
C87 H84 0.929 . S
C87 C88 1.398 . S
C87 C89 1.396 . S
C88 C87 1.398 . S
C88 C92 1.407 . S
C89 C87 1.396 . S
C89 C90 1.394 . S
C90 H85 0.929 . S
C90 C89 1.394 . S
C90 C91 1.382 . S
C91 C90 1.382 . S
C91 C92 1.392 . S
C91 N93 1.420 . S
C92 H86 0.930 . S
C92 C88 1.407 . S
C92 C91 1.392 . S
N93 C91 1.420 . S
N93 C94 1.244 . S
C94 N93 1.244 . S
H95 C98 0.929 . S
H96 C101 0.929 . S
H97 C103 0.930 . S
C98 H95 0.929 . S
C98 C99 1.398 . S
C98 C100 1.396 . S
C99 C98 1.398 . S
C99 C103 1.407 . S
C100 C98 1.396 . S
C100 C101 1.394 . S
C101 H96 0.929 . S
C101 C100 1.394 . S
C101 C102 1.382 . S
C102 C101 1.382 . S
C102 C103 1.392 . S
C102 N104 1.420 . S
C103 H97 0.930 . S
C103 C99 1.407 . S
C103 C102 1.392 . S
N104 C102 1.420 . S
N104 C105 1.244 . S
C105 N104 1.244 . S
H106 C109 0.929 . S
H107 C112 0.929 . S
H108 C114 0.930 . S
C109 H106 0.929 . S
C109 C110 1.398 . S
C109 C111 1.396 . S
C110 C109 1.398 . S
C110 C114 1.407 . S
C111 C109 1.396 . S
C111 C112 1.394 . S
C112 H107 0.929 . S
C112 C111 1.394 . S
C112 C113 1.382 . S
C113 C112 1.382 . S
C113 C114 1.392 . S
C113 N115 1.420 . S
C114 H108 0.930 . S
C114 C110 1.407 . S
C114 C113 1.392 . S
N115 C113 1.420 . S
N115 C116 1.244 . S
C116 N115 1.244 . S
H117 C120 0.929 . S
H118 C123 0.929 . S
H119 C125 0.930 . S
C120 H117 0.929 . S
C120 C121 1.398 . S
C120 C122 1.396 . S
C121 C120 1.398 . S
C121 C125 1.407 . S
C122 C120 1.396 . S
C122 C123 1.394 . S
C123 H118 0.929 . S
C123 C122 1.394 . S
C123 C124 1.382 . S
C124 C123 1.382 . S
C124 C125 1.392 . S
C124 N126 1.420 . S
C125 H119 0.930 . S
C125 C121 1.407 . S
C125 C124 1.392 . S
N126 C124 1.420 . S
N126 C127 1.244 . S
C127 N126 1.244 . S
H128 C131 0.929 . S
H129 C134 0.929 . S
H130 C136 0.930 . S
C131 H128 0.929 . S
C131 C132 1.398 . S
C131 C133 1.396 . S
C132 C131 1.398 . S
C132 C136 1.407 . S
C133 C131 1.396 . S
C133 C134 1.394 . S
C134 H129 0.929 . S
C134 C133 1.394 . S
C134 C135 1.382 . S
C135 C134 1.382 . S
C135 C136 1.392 . S
C135 N137 1.420 . S
C136 H130 0.930 . S
C136 C132 1.407 . S
C136 C135 1.392 . S
N137 C135 1.420 . S
N137 C138 1.244 . S
C138 N137 1.244 . S
H139 C142 0.929 . S
H140 C145 0.929 . S
H141 C147 0.930 . S
C142 H139 0.929 . S
C142 C143 1.398 . S
C142 C144 1.396 . S
C143 C142 1.398 . S
C143 C147 1.407 . S
C144 C142 1.396 . S
C144 C145 1.394 . S
C145 H140 0.929 . S
C145 C144 1.394 . S
C145 C146 1.382 . S
C146 C145 1.382 . S
C146 C147 1.392 . S
C146 N148 1.420 . S
C147 H141 0.930 . S
C147 C143 1.407 . S
C147 C146 1.392 . S
N148 C146 1.420 . S
N148 C149 1.244 . S
C149 N148 1.244 . S
H150 C153 0.929 . S
H151 C156 0.929 . S
H152 C158 0.930 . S
C153 H150 0.929 . S
C153 C154 1.398 . S
C153 C155 1.396 . S
C154 C153 1.398 . S
C154 C158 1.407 . S
C155 C153 1.396 . S
C155 C156 1.394 . S
C156 H151 0.929 . S
C156 C155 1.394 . S
C156 C157 1.382 . S
C157 C156 1.382 . S
C157 C158 1.392 . S
C157 N159 1.420 . S
C158 H152 0.930 . S
C158 C154 1.407 . S
C158 C157 1.392 . S
N159 C157 1.420 . S
N159 C160 1.244 . S
C160 N159 1.244 . S
H161 C164 0.929 . S
H162 C167 0.929 . S
H163 C169 0.930 . S
C164 H161 0.929 . S
C164 C165 1.398 . S
C164 C166 1.396 . S
C165 C164 1.398 . S
C165 C169 1.407 . S
C166 C164 1.396 . S
C166 C167 1.394 . S
C167 H162 0.929 . S
C167 C166 1.394 . S
C167 C168 1.382 . S
C168 C167 1.382 . S
C168 C169 1.392 . S
C168 N170 1.420 . S
C169 H163 0.930 . S
C169 C165 1.407 . S
C169 C168 1.392 . S
N170 C168 1.420 . S
N170 C171 1.244 . S
C171 N170 1.244 . S
H172 C190 0.951 . S
H173 C192 0.951 . S
H174 C194 0.950 . S
H175 C195 0.950 . S
H176 C197 0.944 1_545 S
H177 C200 0.950 . S
H178 C201 0.950 . S
H179 C203 0.950 . S
H180 C204 0.950 . S
H181 C205 0.951 . S
H182 C207 0.951 . S
H183 C209 0.950 . S
H184 C210 0.950 . S
H185 C212 0.950 . S
H186 C215 0.950 . S
H187 C216 0.950 . S
H188 C218 0.950 . S
H189 C219 0.950 . S
C190 H172 0.951 . S
C190 C191 1.366 . S
C190 C192 1.388 . S
C191 C190 1.366 . S
C191 C195 1.385 . S
C192 H173 0.951 . S
C192 C190 1.388 . S
C192 C193 1.366 . S
C193 C192 1.366 . S
C193 C194 1.414 . S
C193 C196 1.499 . S
C194 H174 0.950 . S
C194 C193 1.414 . S
C194 C195 1.374 . S
C195 H175 0.950 . S
C195 C191 1.385 . S
C195 C194 1.374 . S
C196 C193 1.499 . S
C196 C197 1.416 . S
C196 C198 1.389 . S
C197 H176 0.944 1_565 S
C197 C196 1.416 . S
C197 C213 1.342 1_565 S
C198 C196 1.389 . S
C198 C199 1.524 . S
C198 C212 1.377 . S
C199 C198 1.524 . S
C199 C200 1.397 . S
C199 C204 1.363 . S
C200 H177 0.950 . S
C200 C199 1.397 . S
C200 C201 1.334 . S
C201 H178 0.950 . S
C201 C200 1.334 . S
C201 C202 1.287 . S
C202 C201 1.287 . S
C202 C203 1.524 . S
C202 H221 0.913 . S
C203 H179 0.950 . S
C203 C202 1.524 . S
C203 C204 1.415 . S
C204 H180 0.950 . S
C204 C199 1.363 . S
C204 C203 1.415 . S
C205 H181 0.951 . S
C205 C206 1.366 . S
C205 C207 1.388 . S
C206 C205 1.366 . S
C206 C210 1.385 . S
C207 H182 0.951 . S
C207 C205 1.388 . S
C207 C208 1.366 . S
C208 C207 1.366 . S
C208 C209 1.414 . S
C208 C211 1.499 . S
C209 H183 0.950 . S
C209 C208 1.414 . S
C209 C210 1.374 . S
C210 H184 0.950 . S
C210 C206 1.385 . S
C210 C209 1.374 . S
C211 C208 1.499 . S
C211 C212 1.373 1_545 S
C211 C213 1.389 . S
C212 H185 0.950 . S
C212 C198 1.377 . S
C212 C211 1.373 1_565 S
C213 C197 1.342 1_545 S
C213 C211 1.389 . S
C213 C214 1.524 . S
C214 C213 1.524 . S
C214 C215 1.397 . S
C214 C219 1.363 . S
C215 H186 0.950 . S
C215 C214 1.397 . S
C215 C216 1.334 . S
C216 H187 0.950 . S
C216 C215 1.334 . S
C216 C217 1.287 . S
C217 C216 1.287 . S
C217 C218 1.524 . S
C217 H220 0.999 . S
C218 H188 0.950 . S
C218 C217 1.524 . S
C218 C219 1.415 . S
C219 H189 0.950 . S
C219 C214 1.363 . S
C219 C218 1.415 . S
H220 C217 0.999 . S
H221 C202 0.913 . S
H222 C240 0.951 . S
H223 C242 0.951 . S
H224 C244 0.950 . S
H225 C245 0.950 . S
H226 C247 0.950 . S
H227 C250 0.950 . S
H228 C251 0.950 . S
H229 C253 0.950 . S
H230 C254 0.950 . S
H231 C255 0.951 . S
H232 C257 0.951 . S
H233 C259 0.950 . S
H234 C260 0.950 . S
H235 C262 0.950 . S
H236 C265 0.950 . S
H237 C266 0.950 . S
H238 C268 0.950 . S
H239 C269 0.950 . S
C240 H222 0.951 . S
C240 C241 1.366 . S
C240 C242 1.388 . S
C241 C240 1.366 . S
C241 C245 1.385 . S
C242 H223 0.951 . S
C242 C240 1.388 . S
C242 C243 1.366 . S
C243 C242 1.366 . S
C243 C244 1.414 . S
C243 C246 1.499 . S
C244 H224 0.950 . S
C244 C243 1.414 . S
C244 C245 1.374 . S
C245 H225 0.950 . S
C245 C241 1.385 . S
C245 C244 1.374 . S
C246 C243 1.499 . S
C246 C247 1.373 . S
C246 C248 1.389 . S
C247 H226 0.950 . S
C247 C246 1.373 . S
C247 C263 1.377 . S
C248 C246 1.389 . S
C248 C249 1.524 . S
C248 C262 1.377 . S
C249 C248 1.524 . S
C249 C250 1.397 . S
C249 C254 1.363 . S
C250 H227 0.950 . S
C250 C249 1.397 . S
C250 C251 1.334 . S
C251 H228 0.950 . S
C251 C250 1.334 . S
C251 C252 1.287 . S
C252 C251 1.287 . S
C252 C253 1.524 . S
C252 H271 0.913 . S
C253 H229 0.950 . S
C253 C252 1.524 . S
C253 C254 1.415 . S
C254 H230 0.950 . S
C254 C249 1.363 . S
C254 C253 1.415 . S
C255 H231 0.951 . S
C255 C256 1.366 . S
C255 C257 1.388 . S
C256 C255 1.366 . S
C256 C260 1.385 . S
C257 H232 0.951 . S
C257 C255 1.388 . S
C257 C258 1.366 . S
C258 C257 1.366 . S
C258 C259 1.414 . S
C258 C261 1.499 . S
C259 H233 0.950 . S
C259 C258 1.414 . S
C259 C260 1.374 . S
C260 H234 0.950 . S
C260 C256 1.385 . S
C260 C259 1.374 . S
C261 C258 1.499 . S
C261 C262 1.373 . S
C261 C263 1.389 . S
C262 H235 0.950 . S
C262 C248 1.377 . S
C262 C261 1.373 . S
C263 C247 1.377 . S
C263 C261 1.389 . S
C263 C264 1.524 . S
C264 C263 1.524 . S
C264 C265 1.397 . S
C264 C269 1.363 . S
C265 H236 0.950 . S
C265 C264 1.397 . S
C265 C266 1.334 . S
C266 H237 0.950 . S
C266 C265 1.334 . S
C266 C267 1.287 . S
C267 C266 1.287 . S
C267 C268 1.524 . S
C267 H270 0.999 . S
C268 H238 0.950 . S
C268 C267 1.524 . S
C268 C269 1.415 . S
C269 H239 0.950 . S
C269 C264 1.363 . S
C269 C268 1.415 . S
H270 C267 0.999 . S
H271 C252 0.913 . S
H272 C290 0.951 . S
H273 C292 0.951 . S
H274 C294 0.950 . S
H275 C295 0.950 . S
H276 C297 0.950 . S
H277 C300 0.950 . S
H278 C301 0.950 . S
H279 C303 0.950 . S
H280 C304 0.950 . S
H281 C305 0.951 . S
H282 C307 0.951 . S
H283 C309 0.950 . S
H284 C310 0.950 . S
H285 C312 0.950 . S
H286 C315 0.950 . S
H287 C316 0.950 . S
H288 C318 0.950 . S
H289 C319 0.950 . S
C290 H272 0.951 . S
C290 C291 1.366 . S
C290 C292 1.388 . S
C291 C290 1.366 . S
C291 C295 1.385 . S
C292 H273 0.951 . S
C292 C290 1.388 . S
C292 C293 1.366 . S
C293 C292 1.366 . S
C293 C294 1.414 . S
C293 C296 1.499 . S
C294 H274 0.950 . S
C294 C293 1.414 . S
C294 C295 1.374 . S
C295 H275 0.950 . S
C295 C291 1.385 . S
C295 C294 1.374 . S
C296 C293 1.499 . S
C296 C297 1.373 . S
C296 C298 1.389 . S
C297 H276 0.950 . S
C297 C296 1.373 . S
C297 C313 1.377 1_545 S
C298 C296 1.389 . S
C298 C299 1.524 . S
C298 C312 1.377 1_545 S
C299 C298 1.524 . S
C299 C300 1.397 . S
C299 C304 1.363 . S
C300 H277 0.950 . S
C300 C299 1.397 . S
C300 C301 1.334 . S
C301 H278 0.950 . S
C301 C300 1.334 . S
C301 C302 1.287 . S
C302 C301 1.287 . S
C302 C303 1.524 . S
C302 H321 0.913 . S
C303 H279 0.950 . S
C303 C302 1.524 . S
C303 C304 1.415 . S
C304 H280 0.950 . S
C304 C299 1.363 . S
C304 C303 1.415 . S
C305 H281 0.951 . S
C305 C306 1.366 . S
C305 C307 1.388 . S
C306 C305 1.366 . S
C306 C310 1.385 . S
C307 H282 0.951 . S
C307 C305 1.388 . S
C307 C308 1.366 . S
C308 C307 1.366 . S
C308 C309 1.414 . S
C308 C311 1.499 . S
C309 H283 0.950 . S
C309 C308 1.414 . S
C309 C310 1.374 . S
C310 H284 0.950 . S
C310 C306 1.385 . S
C310 C309 1.374 . S
C311 C308 1.499 . S
C311 C312 1.373 . S
C311 C313 1.389 . S
C312 H285 0.950 . S
C312 C298 1.377 1_565 S
C312 C311 1.373 . S
C313 C297 1.377 1_565 S
C313 C311 1.389 . S
C313 C314 1.524 . S
C314 C313 1.524 . S
C314 C315 1.397 . S
C314 C319 1.363 . S
C315 H286 0.950 . S
C315 C314 1.397 . S
C315 C316 1.334 . S
C316 H287 0.950 . S
C316 C315 1.334 . S
C316 C317 1.287 . S
C317 C316 1.287 . S
C317 C318 1.524 . S
C317 H320 0.999 . S
C318 H288 0.950 . S
C318 C317 1.524 . S
C318 C319 1.415 . S
C319 H289 0.950 . S
C319 C314 1.363 . S
C319 C318 1.415 . S
H320 C317 0.999 . S
H321 C302 0.913 . S
H322 C340 0.951 . S
H323 C342 0.951 . S
H324 C344 0.950 . S
H325 C345 0.950 . S
H326 C347 0.950 . S
H327 C350 0.950 . S
H328 C351 0.950 . S
H329 C353 0.950 . S
H330 C354 0.950 . S
H331 C355 0.951 . S
H332 C357 0.951 . S
H333 C359 0.950 . S
H334 C360 0.950 . S
H335 C362 0.950 . S
H336 C365 0.950 . S
H337 C366 0.950 . S
H338 C368 0.950 . S
H339 C369 0.950 . S
C340 H322 0.951 . S
C340 C341 1.366 . S
C340 C342 1.388 . S
C341 C340 1.366 . S
C341 C345 1.385 . S
C342 H323 0.951 . S
C342 C340 1.388 . S
C342 C343 1.366 . S
C343 C342 1.366 . S
C343 C344 1.414 . S
C343 C346 1.499 . S
C344 H324 0.950 . S
C344 C343 1.414 . S
C344 C345 1.374 . S
C345 H325 0.950 . S
C345 C341 1.385 . S
C345 C344 1.374 . S
C346 C343 1.499 . S
C346 C347 1.373 . S
C346 C348 1.389 . S
C347 H326 0.950 . S
C347 C346 1.373 . S
C347 C363 1.377 . S
C348 C346 1.389 . S
C348 C349 1.524 . S
C348 C362 1.377 . S
C349 C348 1.524 . S
C349 C350 1.397 . S
C349 C354 1.363 . S
C350 H327 0.950 . S
C350 C349 1.397 . S
C350 C351 1.334 . S
C351 H328 0.950 . S
C351 C350 1.334 . S
C351 C352 1.287 . S
C352 C351 1.287 . S
C352 C353 1.524 . S
C352 H371 0.913 . S
C353 H329 0.950 . S
C353 C352 1.524 . S
C353 C354 1.415 . S
C354 H330 0.950 . S
C354 C349 1.363 . S
C354 C353 1.415 . S
C355 H331 0.951 . S
C355 C356 1.366 . S
C355 C357 1.388 . S
C356 C355 1.366 . S
C356 C360 1.385 . S
C357 H332 0.951 . S
C357 C355 1.388 . S
C357 C358 1.366 . S
C358 C357 1.366 . S
C358 C359 1.414 . S
C358 C361 1.499 . S
C359 H333 0.950 . S
C359 C358 1.414 . S
C359 C360 1.374 . S
C360 H334 0.950 . S
C360 C356 1.385 . S
C360 C359 1.374 . S
C361 C358 1.499 . S
C361 C362 1.373 . S
C361 C363 1.389 . S
C362 H335 0.950 . S
C362 C348 1.377 . S
C362 C361 1.373 . S
C363 C347 1.377 . S
C363 C361 1.389 . S
C363 C364 1.524 . S
C364 C363 1.524 . S
C364 C365 1.397 . S
C364 C369 1.363 . S
C365 H336 0.950 . S
C365 C364 1.397 . S
C365 C366 1.334 . S
C366 H337 0.950 . S
C366 C365 1.334 . S
C366 C367 1.287 . S
C367 C366 1.287 . S
C367 C368 1.524 . S
C367 H370 0.999 . S
C368 H338 0.950 . S
C368 C367 1.524 . S
C368 C369 1.415 . S
C369 H339 0.950 . S
C369 C364 1.363 . S
C369 C368 1.415 . S
H370 C367 0.999 . S
H371 C352 0.913 . S
H372 C390 0.951 . S
H373 C392 0.951 . S
H374 C394 0.950 . S
H375 C395 0.950 . S
H376 C397 0.950 . S
H377 C400 0.950 . S
H378 C401 0.950 . S
H379 C403 0.950 . S
H380 C404 0.950 . S
H381 C405 0.951 . S
H382 C407 0.951 . S
H383 C409 0.950 . S
H384 C410 0.950 . S
H385 C412 0.950 . S
H386 C415 0.950 . S
H387 C416 0.950 . S
H388 C418 0.950 . S
H389 C419 0.950 . S
C390 H372 0.951 . S
C390 C391 1.366 . S
C390 C392 1.388 . S
C391 C390 1.366 . S
C391 C395 1.385 . S
C392 H373 0.951 . S
C392 C390 1.388 . S
C392 C393 1.366 . S
C393 C392 1.366 . S
C393 C394 1.414 . S
C393 C396 1.499 . S
C394 H374 0.950 . S
C394 C393 1.414 . S
C394 C395 1.374 . S
C395 H375 0.950 . S
C395 C391 1.385 . S
C395 C394 1.374 . S
C396 C393 1.499 . S
C396 C397 1.373 . S
C396 C398 1.389 . S
C397 H376 0.950 . S
C397 C396 1.373 . S
C397 C413 1.377 . S
C398 C396 1.389 . S
C398 C399 1.524 . S
C398 C412 1.377 . S
C399 C398 1.524 . S
C399 C400 1.397 . S
C399 C404 1.363 . S
C400 H377 0.950 . S
C400 C399 1.397 . S
C400 C401 1.334 . S
C401 H378 0.950 . S
C401 C400 1.334 . S
C401 C402 1.287 . S
C402 C401 1.287 . S
C402 C403 1.524 . S
C402 H421 0.913 . S
C403 H379 0.950 . S
C403 C402 1.524 . S
C403 C404 1.415 . S
C404 H380 0.950 . S
C404 C399 1.363 . S
C404 C403 1.415 . S
C405 H381 0.951 . S
C405 C406 1.366 . S
C405 C407 1.388 . S
C406 C405 1.366 . S
C406 C410 1.385 . S
C407 H382 0.951 . S
C407 C405 1.388 . S
C407 C408 1.366 . S
C408 C407 1.366 . S
C408 C409 1.414 . S
C408 C411 1.499 . S
C409 H383 0.950 . S
C409 C408 1.414 . S
C409 C410 1.374 . S
C410 H384 0.950 . S
C410 C406 1.385 . S
C410 C409 1.374 . S
C411 C408 1.499 . S
C411 C412 1.373 . S
C411 C413 1.389 . S
C412 H385 0.950 . S
C412 C398 1.377 . S
C412 C411 1.373 . S
C413 C397 1.377 . S
C413 C411 1.389 . S
C413 C414 1.524 . S
C414 C413 1.524 . S
C414 C415 1.397 . S
C414 C419 1.363 . S
C415 H386 0.950 . S
C415 C414 1.397 . S
C415 C416 1.334 . S
C416 H387 0.950 . S
C416 C415 1.334 . S
C416 C417 1.287 . S
C417 C416 1.287 . S
C417 C418 1.524 . S
C417 H420 0.999 . S
C418 H388 0.950 . S
C418 C417 1.524 . S
C418 C419 1.415 . S
C419 H389 0.950 . S
C419 C414 1.363 . S
C419 C418 1.415 . S
H420 C417 0.999 . S
H421 C402 0.913 . S
H422 C440 0.951 . S
H423 C442 0.951 . S
H424 C444 0.950 . S
H425 C445 0.950 . S
H426 C447 0.950 . S
H427 C450 0.950 . S
H428 C451 0.950 . S
H429 C453 0.950 . S
H430 C454 0.950 . S
H431 C455 0.951 . S
H432 C457 0.951 . S
H433 C459 0.950 . S
H434 C460 0.950 . S
H435 C462 0.950 . S
H436 C465 0.950 . S
H437 C466 0.950 . S
H438 C468 0.950 . S
H439 C469 0.950 . S
C440 H422 0.951 . S
C440 C441 1.366 . S
C440 C442 1.388 . S
C441 C440 1.366 . S
C441 C445 1.385 . S
C442 H423 0.951 . S
C442 C440 1.388 . S
C442 C443 1.366 . S
C443 C442 1.366 . S
C443 C444 1.414 . S
C443 C446 1.499 1_655 S
C444 H424 0.950 . S
C444 C443 1.414 . S
C444 C445 1.374 . S
C445 H425 0.950 . S
C445 C441 1.385 . S
C445 C444 1.374 . S
C446 C443 1.499 1_455 S
C446 C447 1.373 . S
C446 C448 1.389 . S
C447 H426 0.950 . S
C447 C446 1.373 . S
C447 C463 1.377 . S
C448 C446 1.389 . S
C448 C449 1.524 1_455 S
C448 C462 1.377 . S
C449 C448 1.524 1_655 S
C449 C450 1.397 . S
C449 C454 1.363 . S
C450 H427 0.950 . S
C450 C449 1.397 . S
C450 C451 1.334 . S
C451 H428 0.950 . S
C451 C450 1.334 . S
C451 C452 1.287 . S
C452 C451 1.287 . S
C452 C453 1.524 . S
C452 H471 0.913 . S
C453 H429 0.950 . S
C453 C452 1.524 . S
C453 C454 1.415 . S
C454 H430 0.950 . S
C454 C449 1.363 . S
C454 C453 1.415 . S
C455 H431 0.951 . S
C455 C456 1.366 . S
C455 C457 1.388 . S
C456 C455 1.366 . S
C456 C460 1.385 . S
C457 H432 0.951 . S
C457 C455 1.388 . S
C457 C458 1.366 . S
C458 C457 1.366 . S
C458 C459 1.414 . S
C458 C461 1.499 . S
C459 H433 0.950 . S
C459 C458 1.414 . S
C459 C460 1.374 . S
C460 H434 0.950 . S
C460 C456 1.385 . S
C460 C459 1.374 . S
C461 C458 1.499 . S
C461 C462 1.373 . S
C461 C463 1.389 . S
C462 H435 0.950 . S
C462 C448 1.377 . S
C462 C461 1.373 . S
C463 C447 1.377 . S
C463 C461 1.389 . S
C463 C464 1.524 . S
C464 C463 1.524 . S
C464 C465 1.397 . S
C464 C469 1.363 . S
C465 H436 0.950 . S
C465 C464 1.397 . S
C465 C466 1.334 . S
C466 H437 0.950 . S
C466 C465 1.334 . S
C466 C467 1.287 1_556 S
C467 C466 1.287 1_554 S
C467 C468 1.524 . S
C467 H470 0.999 . S
C468 H438 0.950 . S
C468 C467 1.524 . S
C468 C469 1.415 1_554 S
C469 H439 0.950 . S
C469 C464 1.363 . S
C469 C468 1.415 1_556 S
H470 C467 0.999 . S
H471 C452 0.913 . S
H472 C490 0.951 . S
H473 C492 0.951 . S
H474 C494 0.950 . S
H475 C495 0.950 . S
H476 C497 0.950 . S
H477 C500 0.950 . S
H478 C501 0.950 . S
H479 C503 0.950 . S
H480 C504 0.950 . S
H481 C505 0.951 . S
H482 C507 0.951 . S
H483 C509 0.950 . S
H484 C510 0.950 . S
H485 C512 0.950 . S
H486 C515 0.950 . S
H487 C516 0.950 . S
H488 C518 0.950 . S
H489 C519 0.950 . S
C490 H472 0.951 . S
C490 C491 1.366 . S
C490 C492 1.388 . S
C491 C490 1.366 . S
C491 C495 1.385 . S
C492 H473 0.951 . S
C492 C490 1.388 . S
C492 C493 1.366 . S
C493 C492 1.366 . S
C493 C494 1.414 . S
C493 C496 1.499 . S
C494 H474 0.950 . S
C494 C493 1.414 . S
C494 C495 1.374 . S
C495 H475 0.950 . S
C495 C491 1.385 . S
C495 C494 1.374 . S
C496 C493 1.499 . S
C496 C497 1.373 . S
C496 C498 1.389 . S
C497 H476 0.950 . S
C497 C496 1.373 . S
C497 C513 1.377 . S
C498 C496 1.389 . S
C498 C499 1.524 . S
C498 C512 1.377 . S
C499 C498 1.524 . S
C499 C500 1.397 . S
C499 C504 1.363 . S
C500 H477 0.950 . S
C500 C499 1.397 . S
C500 C501 1.334 . S
C501 H478 0.950 . S
C501 C500 1.334 . S
C501 C502 1.287 . S
C502 C501 1.287 . S
C502 C503 1.524 . S
C502 H521 0.913 . S
C503 H479 0.950 . S
C503 C502 1.524 . S
C503 C504 1.415 . S
C504 H480 0.950 . S
C504 C499 1.363 . S
C504 C503 1.415 . S
C505 H481 0.951 . S
C505 C506 1.366 . S
C505 C507 1.388 . S
C506 C505 1.366 . S
C506 C510 1.385 . S
C507 H482 0.951 . S
C507 C505 1.388 . S
C507 C508 1.366 . S
C508 C507 1.366 . S
C508 C509 1.414 . S
C508 C511 1.499 . S
C509 H483 0.950 . S
C509 C508 1.414 . S
C509 C510 1.374 . S
C510 H484 0.950 . S
C510 C506 1.385 . S
C510 C509 1.374 . S
C511 C508 1.499 . S
C511 C512 1.373 . S
C511 C513 1.389 . S
C512 H485 0.950 . S
C512 C498 1.377 . S
C512 C511 1.373 . S
C513 C497 1.377 . S
C513 C511 1.389 . S
C513 C514 1.524 . S
C514 C513 1.524 . S
C514 C515 1.397 . S
C514 C519 1.363 . S
C515 H486 0.950 . S
C515 C514 1.397 . S
C515 C516 1.334 . S
C516 H487 0.950 . S
C516 C515 1.334 . S
C516 C517 1.287 . S
C517 C516 1.287 . S
C517 C518 1.524 . S
C517 H520 0.999 . S
C518 H488 0.950 . S
C518 C517 1.524 . S
C518 C519 1.415 . S
C519 H489 0.950 . S
C519 C514 1.363 . S
C519 C518 1.415 . S
H520 C517 0.999 . S
H521 C502 0.913 . S
H522 C540 0.951 . S
H523 C542 0.951 . S
H524 C544 0.950 . S
H525 C545 0.950 . S
H526 C547 0.950 . S
H527 C550 0.950 . S
H528 C551 0.950 1_554 S
H529 C553 0.950 . S
H530 C554 0.950 . S
H531 C555 0.951 . S
H532 C557 0.951 . S
H533 C559 0.950 . S
H534 C560 0.950 . S
H535 C562 0.950 . S
H536 C565 0.950 . S
H537 C566 0.950 . S
H538 C568 0.950 . S
H539 C569 0.950 . S
C540 H522 0.951 . S
C540 C541 1.366 . S
C540 C542 1.388 . S
C541 C540 1.366 . S
C541 C545 1.385 . S
C542 H523 0.951 . S
C542 C540 1.388 . S
C542 C543 1.366 . S
C543 C542 1.366 . S
C543 C544 1.414 . S
C543 C546 1.499 . S
C544 H524 0.950 . S
C544 C543 1.414 . S
C544 C545 1.374 . S
C545 H525 0.950 . S
C545 C541 1.385 . S
C545 C544 1.374 . S
C546 C543 1.499 . S
C546 C547 1.373 . S
C546 C548 1.391 . S
C547 H526 0.950 . S
C547 C546 1.373 . S
C547 C563 1.377 . S
C548 C546 1.391 . S
C548 C549 1.524 1_455 S
C548 C562 1.375 1_455 S
C549 C548 1.524 1_655 S
C549 C550 1.397 . S
C549 C554 1.363 . S
C550 H527 0.950 . S
C550 C549 1.397 . S
C550 C551 1.334 . S
C551 H528 0.950 1_556 S
C551 C550 1.334 . S
C551 C552 1.287 . S
C552 C551 1.287 . S
C552 C553 1.524 . S
C552 H571 0.913 1_556 S
C553 H529 0.950 . S
C553 C552 1.524 . S
C553 C554 1.415 . S
C554 H530 0.950 . S
C554 C549 1.363 . S
C554 C553 1.415 . S
C555 H531 0.951 . S
C555 C556 1.366 . S
C555 C557 1.388 . S
C556 C555 1.366 . S
C556 C560 1.385 . S
C557 H532 0.951 . S
C557 C555 1.388 . S
C557 C558 1.366 . S
C558 C557 1.366 . S
C558 C559 1.414 . S
C558 C561 1.499 . S
C559 H533 0.950 . S
C559 C558 1.414 . S
C559 C560 1.374 . S
C560 H534 0.950 . S
C560 C556 1.385 . S
C560 C559 1.374 . S
C561 C558 1.499 . S
C561 C562 1.373 . S
C561 C563 1.389 1_655 S
C562 H535 0.950 . S
C562 C548 1.375 1_655 S
C562 C561 1.373 . S
C563 C547 1.377 . S
C563 C561 1.389 1_455 S
C563 C564 1.524 . S
C564 C563 1.524 . S
C564 C565 1.397 . S
C564 C569 1.363 . S
C565 H536 0.950 . S
C565 C564 1.397 . S
C565 C566 1.334 . S
C566 H537 0.950 . S
C566 C565 1.334 . S
C566 C567 1.287 . S
C567 C566 1.287 . S
C567 C568 1.524 . S
C567 H570 0.999 . S
C568 H538 0.950 . S
C568 C567 1.524 . S
C568 C569 1.415 . S
C569 H539 0.950 . S
C569 C564 1.363 . S
C569 C568 1.415 . S
H570 C567 0.999 . S
H571 C552 0.913 1_554 S
H572 C590 0.951 . S
H573 C592 0.951 . S
H574 C594 0.950 . S
H575 C595 0.950 . S
H576 C597 0.950 . S
H577 C600 0.950 1_565 S
H578 C601 0.950 . S
H579 C603 0.950 . S
H580 C604 0.954 . S
H581 C605 0.951 . S
H582 C607 0.951 . S
H583 C609 0.950 . S
H584 C610 0.950 . S
H585 C612 0.950 . S
H586 C615 0.950 . S
H587 C616 0.950 . S
H588 C618 0.950 . S
H589 C619 0.950 . S
C590 H572 0.951 . S
C590 C591 1.366 . S
C590 C592 1.388 . S
C591 C590 1.366 . S
C591 C595 1.385 . S
C592 H573 0.951 . S
C592 C590 1.388 . S
C592 C593 1.366 . S
C593 C592 1.366 . S
C593 C594 1.414 . S
C593 C596 1.499 1_545 S
C594 H574 0.950 . S
C594 C593 1.414 . S
C594 C595 1.374 . S
C595 H575 0.950 . S
C595 C591 1.385 . S
C595 C594 1.374 . S
C596 C593 1.499 1_565 S
C596 C597 1.373 . S
C596 C598 1.389 . S
C597 H576 0.950 . S
C597 C596 1.373 . S
C597 C613 1.377 . S
C598 C596 1.389 . S
C598 C599 1.524 . S
C598 C612 1.377 . S
C599 C598 1.524 . S
C599 C600 1.397 1_565 S
C599 C604 1.363 1_565 S
C600 H577 0.950 1_545 S
C600 C599 1.397 1_545 S
C600 C601 1.334 . S
C601 H578 0.950 . S
C601 C600 1.334 . S
C601 C602 1.287 . S
C602 C601 1.287 . S
C602 C603 1.524 . S
C602 H621 0.913 . S
C603 H579 0.950 . S
C603 C602 1.524 . S
C603 C604 1.415 . S
C604 H580 0.954 . S
C604 C599 1.363 1_545 S
C604 C603 1.415 . S
C605 H581 0.951 . S
C605 C606 1.366 . S
C605 C607 1.388 . S
C606 C605 1.366 . S
C606 C610 1.385 . S
C607 H582 0.951 . S
C607 C605 1.388 . S
C607 C608 1.366 . S
C608 C607 1.366 . S
C608 C609 1.414 . S
C608 C611 1.499 . S
C609 H583 0.950 . S
C609 C608 1.414 . S
C609 C610 1.374 . S
C610 H584 0.950 . S
C610 C606 1.385 . S
C610 C609 1.374 . S
C611 C608 1.499 . S
C611 C612 1.373 . S
C611 C613 1.389 . S
C612 H585 0.950 . S
C612 C598 1.377 . S
C612 C611 1.373 . S
C613 C597 1.377 . S
C613 C611 1.389 . S
C613 C614 1.524 . S
C614 C613 1.524 . S
C614 C615 1.397 . S
C614 C619 1.363 . S
C615 H586 0.950 . S
C615 C614 1.397 . S
C615 C616 1.334 . S
C616 H587 0.950 . S
C616 C615 1.334 . S
C616 C617 1.287 . S
C617 C616 1.287 . S
C617 C618 1.524 . S
C617 H620 0.999 . S
C618 H588 0.950 . S
C618 C617 1.524 . S
C618 C619 1.415 . S
C619 H589 0.950 . S
C619 C614 1.363 . S
C619 C618 1.415 . S
H620 C617 0.999 . S
H621 C602 0.913 . S
H622 C640 0.951 . S
H623 C642 0.951 . S
H624 C644 0.950 . S
H625 C645 0.950 . S
H626 C647 0.950 . S
H627 C650 0.950 . S
H628 C651 0.950 . S
H629 C653 0.950 . S
H630 C654 0.950 . S
H631 C655 0.951 . S
H632 C657 0.951 . S
H633 C659 0.950 . S
H634 C660 0.950 . S
H635 C662 0.950 . S
H636 C665 0.950 . S
H637 C666 0.950 . S
H638 C668 0.950 . S
H639 C669 0.950 . S
C640 H622 0.951 . S
C640 C641 1.366 . S
C640 C642 1.388 . S
C641 C640 1.366 . S
C641 C645 1.385 . S
C642 H623 0.951 . S
C642 C640 1.388 . S
C642 C643 1.366 . S
C643 C642 1.366 . S
C643 C644 1.414 . S
C643 C646 1.499 . S
C644 H624 0.950 . S
C644 C643 1.414 . S
C644 C645 1.374 . S
C645 H625 0.950 . S
C645 C641 1.385 . S
C645 C644 1.374 . S
C646 C643 1.499 . S
C646 C647 1.373 . S
C646 C648 1.389 . S
C647 H626 0.950 . S
C647 C646 1.373 . S
C647 C663 1.377 . S
C648 C646 1.389 . S
C648 C649 1.524 . S
C648 C662 1.377 . S
C649 C648 1.524 . S
C649 C650 1.397 . S
C649 C654 1.363 . S
C650 H627 0.950 . S
C650 C649 1.397 . S
C650 C651 1.334 . S
C651 H628 0.950 . S
C651 C650 1.334 . S
C651 C652 1.287 . S
C652 C651 1.287 . S
C652 C653 1.524 . S
C652 H671 0.913 . S
C653 H629 0.950 . S
C653 C652 1.524 . S
C653 C654 1.415 . S
C654 H630 0.950 . S
C654 C649 1.363 . S
C654 C653 1.415 . S
C655 H631 0.951 . S
C655 C656 1.366 . S
C655 C657 1.388 . S
C656 C655 1.366 . S
C656 C660 1.385 . S
C657 H632 0.951 . S
C657 C655 1.388 . S
C657 C658 1.366 . S
C658 C657 1.366 . S
C658 C659 1.414 . S
C658 C661 1.499 . S
C659 H633 0.950 . S
C659 C658 1.414 . S
C659 C660 1.374 . S
C660 H634 0.950 . S
C660 C656 1.385 . S
C660 C659 1.374 . S
C661 C658 1.499 . S
C661 C662 1.373 . S
C661 C663 1.389 . S
C662 H635 0.950 . S
C662 C648 1.377 . S
C662 C661 1.373 . S
C663 C647 1.377 . S
C663 C661 1.389 . S
C663 C664 1.524 . S
C664 C663 1.524 . S
C664 C665 1.397 . S
C664 C669 1.363 . S
C665 H636 0.950 . S
C665 C664 1.397 . S
C665 C666 1.334 . S
C666 H637 0.950 . S
C666 C665 1.334 . S
C666 C667 1.287 . S
C667 C666 1.287 . S
C667 C668 1.524 . S
C667 H670 0.999 . S
C668 H638 0.950 . S
C668 C667 1.524 . S
C668 C669 1.415 . S
C669 H639 0.950 . S
C669 C664 1.363 . S
C669 C668 1.415 . S
H670 C667 0.999 . S
H671 C652 0.913 . S
H672 C690 0.941 1_554 S
H673 C692 0.951 . S
H674 C694 0.950 . S
H675 C695 0.950 . S
H676 C697 0.950 . S
H677 C700 0.950 . S
H678 C701 0.950 . S
H679 C703 0.950 . S
H680 C704 0.950 . S
H681 C705 0.951 . S
H682 C707 0.951 . S
H683 C709 0.950 . S
H684 C710 0.950 . S
H685 C712 0.950 . S
H686 C715 0.950 . S
H687 C716 0.950 . S
H688 C718 0.950 . S
H689 C719 0.950 . S
C690 H672 0.941 1_556 S
C690 C691 1.366 . S
C690 C692 1.388 . S
C691 C690 1.366 . S
C691 C695 1.385 . S
C692 H673 0.951 . S
C692 C690 1.388 . S
C692 C693 1.366 . S
C693 C692 1.366 . S
C693 C694 1.414 . S
C693 C696 1.499 1_565 S
C694 H674 0.950 . S
C694 C693 1.414 . S
C694 C695 1.374 . S
C695 H675 0.950 . S
C695 C691 1.385 . S
C695 C694 1.374 . S
C696 C693 1.499 1_545 S
C696 C697 1.373 . S
C696 C698 1.389 . S
C697 H676 0.950 . S
C697 C696 1.373 . S
C697 C713 1.377 . S
C698 C696 1.389 . S
C698 C699 1.524 . S
C698 C712 1.377 . S
C699 C698 1.524 . S
C699 C700 1.397 1_545 S
C699 C704 1.363 . S
C700 H677 0.950 . S
C700 C699 1.397 1_565 S
C700 C701 1.334 . S
C701 H678 0.950 . S
C701 C700 1.334 . S
C701 C702 1.287 . S
C702 C701 1.287 . S
C702 C703 1.524 1_565 S
C702 H721 0.913 . S
C703 H679 0.950 . S
C703 C702 1.524 1_545 S
C703 C704 1.415 . S
C704 H680 0.950 . S
C704 C699 1.363 . S
C704 C703 1.415 . S
C705 H681 0.951 . S
C705 C706 1.366 . S
C705 C707 1.388 . S
C706 C705 1.366 . S
C706 C710 1.385 . S
C707 H682 0.951 . S
C707 C705 1.388 . S
C707 C708 1.366 . S
C708 C707 1.366 . S
C708 C709 1.414 . S
C708 C711 1.499 . S
C709 H683 0.950 . S
C709 C708 1.414 . S
C709 C710 1.374 . S
C710 H684 0.950 . S
C710 C706 1.385 . S
C710 C709 1.374 . S
C711 C708 1.499 . S
C711 C712 1.373 . S
C711 C713 1.389 . S
C712 H685 0.950 . S
C712 C698 1.377 . S
C712 C711 1.373 . S
C713 C697 1.377 . S
C713 C711 1.389 . S
C713 C714 1.524 . S
C714 C713 1.524 . S
C714 C715 1.397 . S
C714 C719 1.363 . S
C715 H686 0.950 . S
C715 C714 1.397 . S
C715 C716 1.334 . S
C716 H687 0.950 . S
C716 C715 1.334 . S
C716 C717 1.287 . S
C717 C716 1.287 . S
C717 C718 1.524 . S
C717 H720 0.999 . S
C718 H688 0.950 . S
C718 C717 1.524 . S
C718 C719 1.415 . S
C719 H689 0.950 . S
C719 C714 1.363 . S
C719 C718 1.415 . S
H720 C717 0.999 . S
H721 C702 0.913 . S
H722 C740 0.951 . S
H723 C742 0.951 . S
H724 C744 0.950 . S
H725 C745 0.950 . S
H726 C747 0.950 . S
H727 C750 0.950 . S
H728 C751 0.950 . S
H729 C753 0.950 . S
H730 C754 0.950 . S
H731 C755 0.951 . S
H732 C757 0.951 . S
H733 C759 0.950 . S
H734 C760 0.950 . S
H735 C762 0.950 . S
H736 C765 0.950 . S
H737 C766 0.950 . S
H738 C768 0.950 . S
H739 C769 0.950 . S
C740 H722 0.951 . S
C740 C741 1.366 . S
C740 C742 1.388 . S
C741 C740 1.366 . S
C741 C745 1.385 . S
C742 H723 0.951 . S
C742 C740 1.388 . S
C742 C743 1.366 . S
C743 C742 1.366 . S
C743 C744 1.414 . S
C743 C746 1.499 . S
C744 H724 0.950 . S
C744 C743 1.414 . S
C744 C745 1.374 . S
C745 H725 0.950 . S
C745 C741 1.385 . S
C745 C744 1.374 . S
C746 C743 1.499 . S
C746 C747 1.373 . S
C746 C748 1.389 . S
C747 H726 0.950 . S
C747 C746 1.373 . S
C747 C763 1.377 . S
C748 C746 1.389 . S
C748 C749 1.524 . S
C748 C762 1.377 . S
C749 C748 1.524 . S
C749 C750 1.397 . S
C749 C754 1.363 . S
C750 H727 0.950 . S
C750 C749 1.397 . S
C750 C751 1.334 . S
C751 H728 0.950 . S
C751 C750 1.334 . S
C751 C752 1.287 . S
C752 C751 1.287 . S
C752 C753 1.524 . S
C752 H771 0.913 . S
C753 H729 0.950 . S
C753 C752 1.524 . S
C753 C754 1.415 . S
C754 H730 0.950 . S
C754 C749 1.363 . S
C754 C753 1.415 . S
C755 H731 0.951 . S
C755 C756 1.366 . S
C755 C757 1.388 . S
C756 C755 1.366 . S
C756 C760 1.385 . S
C757 H732 0.951 . S
C757 C755 1.388 . S
C757 C758 1.366 . S
C758 C757 1.366 . S
C758 C759 1.414 . S
C758 C761 1.499 . S
C759 H733 0.950 . S
C759 C758 1.414 . S
C759 C760 1.374 . S
C760 H734 0.950 . S
C760 C756 1.385 . S
C760 C759 1.374 . S
C761 C758 1.499 . S
C761 C762 1.373 . S
C761 C763 1.389 . S
C762 H735 0.950 . S
C762 C748 1.377 . S
C762 C761 1.373 . S
C763 C747 1.377 . S
C763 C761 1.389 . S
C763 C764 1.524 . S
C764 C763 1.524 . S
C764 C765 1.397 . S
C764 C769 1.363 . S
C765 H736 0.950 . S
C765 C764 1.397 . S
C765 C766 1.334 . S
C766 H737 0.950 . S
C766 C765 1.334 . S
C766 C767 1.287 . S
C767 C766 1.287 . S
C767 C768 1.524 . S
C767 H770 0.999 . S
C768 H738 0.950 . S
C768 C767 1.524 . S
C768 C769 1.415 . S
C769 H739 0.950 . S
C769 C764 1.363 . S
C769 C768 1.415 . S
H770 C767 0.999 . S
H771 C752 0.913 . S
H772 C790 0.951 . S
H773 C792 0.951 . S
H774 C794 0.950 . S
H775 C795 0.950 . S
H776 C797 0.950 . S
H777 C800 0.950 . S
H778 C801 0.950 . S
H779 C803 0.950 . S
H780 C804 0.950 . S
H781 C805 0.951 . S
H782 C807 0.951 . S
H783 C809 0.950 . S
H784 C810 0.950 . S
H785 C812 0.950 . S
H786 C815 0.950 . S
H787 C816 0.950 . S
H788 C818 0.950 . S
H789 C819 0.950 . S
C790 H772 0.951 . S
C790 C791 1.366 . S
C790 C792 1.388 . S
C791 C790 1.366 . S
C791 C795 1.385 . S
C792 H773 0.951 . S
C792 C790 1.388 . S
C792 C793 1.366 . S
C793 C792 1.366 . S
C793 C794 1.414 . S
C793 C796 1.499 . S
C794 H774 0.950 . S
C794 C793 1.414 . S
C794 C795 1.374 . S
C795 H775 0.950 . S
C795 C791 1.385 . S
C795 C794 1.374 . S
C796 C793 1.499 . S
C796 C797 1.373 . S
C796 C798 1.389 . S
C797 H776 0.950 . S
C797 C796 1.373 . S
C797 C813 1.377 . S
C798 C796 1.389 . S
C798 C799 1.524 . S
C798 C812 1.377 . S
C799 C798 1.524 . S
C799 C800 1.397 . S
C799 C804 1.363 . S
C800 H777 0.950 . S
C800 C799 1.397 . S
C800 C801 1.334 . S
C801 H778 0.950 . S
C801 C800 1.334 . S
C801 C802 1.287 . S
C802 C801 1.287 . S
C802 C803 1.524 . S
C802 H821 0.913 . S
C803 H779 0.950 . S
C803 C802 1.524 . S
C803 C804 1.415 . S
C804 H780 0.950 . S
C804 C799 1.363 . S
C804 C803 1.415 . S
C805 H781 0.951 . S
C805 C806 1.366 . S
C805 C807 1.388 . S
C806 C805 1.366 . S
C806 C810 1.385 . S
C807 H782 0.951 . S
C807 C805 1.388 . S
C807 C808 1.366 . S
C808 C807 1.366 . S
C808 C809 1.414 . S
C808 C811 1.499 . S
C809 H783 0.950 . S
C809 C808 1.414 . S
C809 C810 1.374 . S
C810 H784 0.950 . S
C810 C806 1.385 . S
C810 C809 1.374 . S
C811 C808 1.499 . S
C811 C812 1.373 . S
C811 C813 1.389 . S
C812 H785 0.950 . S
C812 C798 1.377 . S
C812 C811 1.373 . S
C813 C797 1.377 . S
C813 C811 1.389 . S
C813 C814 1.524 . S
C814 C813 1.524 . S
C814 C815 1.397 . S
C814 C819 1.363 . S
C815 H786 0.950 . S
C815 C814 1.397 . S
C815 C816 1.334 . S
C816 H787 0.950 . S
C816 C815 1.334 . S
C816 C817 1.287 . S
C817 C816 1.287 . S
C817 C818 1.524 . S
C817 H820 0.999 . S
C818 H788 0.950 . S
C818 C817 1.524 . S
C818 C819 1.415 . S
C819 H789 0.950 . S
C819 C814 1.363 . S
C819 C818 1.415 . S
H820 C817 0.999 . S
H821 C802 0.913 . S
H822 C840 0.951 . S
H823 C842 0.951 . S
H824 C844 0.950 . S
H825 C845 0.950 . S
H826 C847 0.950 . S
H827 C850 0.950 . S
H828 C851 0.950 . S
H829 C853 0.950 . S
H830 C854 0.950 . S
H831 C855 0.951 . S
H832 C857 0.951 . S
H833 C859 0.950 . S
H834 C860 0.950 . S
H835 C862 0.950 . S
H836 C865 0.950 . S
H837 C866 0.950 . S
H838 C868 0.950 . S
H839 C869 0.950 . S
C840 H822 0.951 . S
C840 C841 1.366 . S
C840 C842 1.388 . S
C841 C840 1.366 . S
C841 C845 1.385 . S
C842 H823 0.951 . S
C842 C840 1.388 . S
C842 C843 1.366 1_455 S
C843 C842 1.366 1_655 S
C843 C844 1.414 . S
C843 C846 1.499 . S
C844 H824 0.950 . S
C844 C843 1.414 . S
C844 C845 1.374 1_655 S
C845 H825 0.950 . S
C845 C841 1.385 . S
C845 C844 1.374 1_455 S
C846 C843 1.499 . S
C846 C847 1.373 . S
C846 C848 1.389 . S
C847 H826 0.950 . S
C847 C846 1.373 . S
C847 C863 1.377 . S
C848 C846 1.389 . S
C848 C849 1.524 . S
C848 C862 1.377 . S
C849 C848 1.524 . S
C849 C850 1.397 . S
C849 C854 1.363 . S
C850 H827 0.950 . S
C850 C849 1.397 . S
C850 C851 1.334 . S
C851 H828 0.950 . S
C851 C850 1.334 . S
C851 C852 1.287 . S
C852 C851 1.287 . S
C852 C853 1.524 . S
C852 H871 0.913 . S
C853 H829 0.950 . S
C853 C852 1.524 . S
C853 C854 1.415 . S
C854 H830 0.950 . S
C854 C849 1.363 . S
C854 C853 1.415 . S
C855 H831 0.951 . S
C855 C856 1.366 . S
C855 C857 1.388 . S
C856 C855 1.366 . S
C856 C860 1.385 . S
C857 H832 0.951 . S
C857 C855 1.388 . S
C857 C858 1.366 . S
C858 C857 1.366 . S
C858 C859 1.414 . S
C858 C861 1.499 . S
C859 H833 0.950 . S
C859 C858 1.414 . S
C859 C860 1.374 . S
C860 H834 0.950 . S
C860 C856 1.385 . S
C860 C859 1.374 . S
C861 C858 1.499 . S
C861 C862 1.373 . S
C861 C863 1.389 . S
C862 H835 0.950 . S
C862 C848 1.377 . S
C862 C861 1.373 . S
C863 C847 1.377 . S
C863 C861 1.389 . S
C863 C864 1.524 . S
C864 C863 1.524 . S
C864 C865 1.397 . S
C864 C869 1.363 . S
C865 H836 0.950 . S
C865 C864 1.397 . S
C865 C866 1.334 . S
C866 H837 0.950 . S
C866 C865 1.334 . S
C866 C867 1.287 . S
C867 C866 1.287 . S
C867 C868 1.524 . S
C867 H870 0.999 . S
C868 H838 0.950 . S
C868 C867 1.524 . S
C868 C869 1.415 . S
C869 H839 0.950 . S
C869 C864 1.363 . S
C869 C868 1.415 . S
H870 C867 0.999 . S
H871 C852 0.913 . S
H872 C890 0.951 . S
H873 C892 0.951 . S
H874 C894 0.950 . S
H875 C895 0.950 . S
H876 C897 0.950 . S
H877 C900 0.950 . S
H878 C901 0.950 . S
H879 C903 0.950 . S
H880 C904 0.950 . S
H881 C905 0.951 . S
H882 C907 0.951 . S
H883 C909 0.950 . S
H884 C910 0.950 . S
H885 C912 0.950 . S
H886 C915 0.950 . S
H887 C916 0.950 . S
H888 C918 0.950 . S
H889 C919 0.950 . S
C890 H872 0.951 . S
C890 C891 1.366 . S
C890 C892 1.388 . S
C891 C890 1.366 . S
C891 C895 1.385 . S
C892 H873 0.951 . S
C892 C890 1.388 . S
C892 C893 1.366 . S
C893 C892 1.366 . S
C893 C894 1.414 . S
C893 C896 1.499 . S
C894 H874 0.950 . S
C894 C893 1.414 . S
C894 C895 1.374 . S
C895 H875 0.950 . S
C895 C891 1.385 . S
C895 C894 1.374 . S
C896 C893 1.499 . S
C896 C897 1.373 . S
C896 C898 1.389 . S
C897 H876 0.950 . S
C897 C896 1.373 . S
C897 C913 1.377 . S
C898 C896 1.389 . S
C898 C899 1.524 . S
C898 C912 1.377 . S
C899 C898 1.524 . S
C899 C900 1.397 . S
C899 C904 1.363 . S
C900 H877 0.950 . S
C900 C899 1.397 . S
C900 C901 1.334 . S
C901 H878 0.950 . S
C901 C900 1.334 . S
C901 C902 1.287 . S
C902 C901 1.287 . S
C902 C903 1.524 . S
C902 H921 0.913 . S
C903 H879 0.950 . S
C903 C902 1.524 . S
C903 C904 1.415 . S
C904 H880 0.950 . S
C904 C899 1.363 . S
C904 C903 1.415 . S
C905 H881 0.951 . S
C905 C906 1.366 . S
C905 C907 1.388 . S
C906 C905 1.366 . S
C906 C910 1.385 . S
C907 H882 0.951 . S
C907 C905 1.388 . S
C907 C908 1.366 . S
C908 C907 1.366 . S
C908 C909 1.414 . S
C908 C911 1.499 . S
C909 H883 0.950 . S
C909 C908 1.414 . S
C909 C910 1.374 . S
C910 H884 0.950 . S
C910 C906 1.385 . S
C910 C909 1.374 . S
C911 C908 1.499 . S
C911 C912 1.373 . S
C911 C913 1.389 . S
C912 H885 0.950 . S
C912 C898 1.377 . S
C912 C911 1.373 . S
C913 C897 1.377 . S
C913 C911 1.389 . S
C913 C914 1.524 . S
C914 C913 1.524 . S
C914 C915 1.397 . S
C914 C919 1.363 . S
C915 H886 0.950 . S
C915 C914 1.397 . S
C915 C916 1.334 . S
C916 H887 0.950 . S
C916 C915 1.334 . S
C916 C917 1.287 . S
C917 C916 1.287 . S
C917 C918 1.524 . S
C917 H920 0.999 . S
C918 H888 0.950 . S
C918 C917 1.524 . S
C918 C919 1.415 . S
C919 H889 0.950 . S
C919 C914 1.363 . S
C919 C918 1.415 . S
H920 C917 0.999 . S
H921 C902 0.913 . S
H922 C940 0.951 . S
H923 C942 0.951 . S
H924 C944 0.950 1_455 S
H925 C945 0.950 . S
H926 C947 0.950 . S
H927 C950 0.950 . S
H928 C951 0.950 . S
H929 C953 0.950 . S
H930 C954 0.950 . S
H931 C955 0.951 . S
H932 C957 0.951 . S
H933 C959 0.950 . S
H934 C960 0.950 . S
H935 C962 0.950 . S
H936 C965 0.950 . S
H937 C966 0.950 . S
H938 C968 0.950 . S
H939 C969 0.950 . S
C940 H922 0.951 . S
C940 C941 1.366 . S
C940 C942 1.388 . S
C941 C940 1.366 . S
C941 C945 1.385 . S
C942 H923 0.951 . S
C942 C940 1.388 . S
C942 C943 1.366 . S
C943 C942 1.366 . S
C943 C944 1.414 . S
C943 C946 1.499 1_655 S
C944 H924 0.950 1_655 S
C944 C943 1.414 . S
C944 C945 1.374 . S
C945 H925 0.950 . S
C945 C941 1.385 . S
C945 C944 1.374 . S
C946 C943 1.499 1_455 S
C946 C947 1.373 . S
C946 C948 1.389 . S
C947 H926 0.950 . S
C947 C946 1.373 . S
C947 C963 1.377 . S
C948 C946 1.389 . S
C948 C949 1.524 1_455 S
C948 C962 1.377 . S
C949 C948 1.524 1_655 S
C949 C950 1.397 . S
C949 C954 1.363 . S
C950 H927 0.950 . S
C950 C949 1.397 . S
C950 C951 1.334 . S
C951 H928 0.950 . S
C951 C950 1.334 . S
C951 C952 1.287 . S
C952 C951 1.287 . S
C952 C953 1.524 . S
C952 H971 0.913 . S
C953 H929 0.950 . S
C953 C952 1.524 . S
C953 C954 1.415 . S
C954 H930 0.950 . S
C954 C949 1.363 . S
C954 C953 1.415 . S
C955 H931 0.951 . S
C955 C956 1.366 . S
C955 C957 1.388 . S
C956 C955 1.366 . S
C956 C960 1.385 . S
C957 H932 0.951 . S
C957 C955 1.388 . S
C957 C958 1.366 . S
C958 C957 1.366 . S
C958 C959 1.414 . S
C958 C961 1.499 . S
C959 H933 0.950 . S
C959 C958 1.414 . S
C959 C960 1.374 . S
C960 H934 0.950 . S
C960 C956 1.385 . S
C960 C959 1.374 . S
C961 C958 1.499 . S
C961 C962 1.373 . S
C961 C963 1.389 . S
C962 H935 0.950 . S
C962 C948 1.377 . S
C962 C961 1.373 . S
C963 C947 1.377 . S
C963 C961 1.389 . S
C963 C964 1.524 . S
C964 C963 1.524 . S
C964 C965 1.397 . S
C964 C969 1.363 . S
C965 H936 0.950 . S
C965 C964 1.397 . S
C965 C966 1.334 . S
C966 H937 0.950 . S
C966 C965 1.334 . S
C966 C967 1.287 . S
C967 C966 1.287 . S
C967 C968 1.524 . S
C967 H970 0.999 . S
C968 H938 0.950 . S
C968 C967 1.524 . S
C968 C969 1.415 . S
C969 H939 0.950 . S
C969 C964 1.363 . S
C969 C968 1.415 . S
H970 C967 0.999 . S
H971 C952 0.913 . S
H972 C990 0.951 . S
H973 C992 0.951 . S
H974 C994 0.950 . S
H975 C995 0.950 . S
H976 C997 0.950 . S
H977 C1000 0.950 . S
H978 C1001 0.950 . S
H979 C1003 0.950 . S
H980 C1004 0.950 . S
H981 C1005 0.951 . S
H982 C1007 0.951 . S
H983 C1009 0.950 . S
H984 C1010 0.950 . S
H985 C1012 0.950 . S
H986 C1015 0.950 . S
H987 C1016 0.950 . S
H988 C1018 0.950 . S
H989 C1019 0.950 . S
C990 H972 0.951 . S
C990 C991 1.366 . S
C990 C992 1.388 . S
C991 C990 1.366 . S
C991 C995 1.385 . S
C992 H973 0.951 . S
C992 C990 1.388 . S
C992 C993 1.366 . S
C993 C992 1.366 . S
C993 C994 1.414 . S
C993 C996 1.499 . S
C994 H974 0.950 . S
C994 C993 1.414 . S
C994 C995 1.374 . S
C995 H975 0.950 . S
C995 C991 1.385 . S
C995 C994 1.374 . S
C996 C993 1.499 . S
C996 C997 1.373 . S
C996 C998 1.389 . S
C997 H976 0.950 . S
C997 C996 1.373 . S
C997 C1013 1.377 . S
C998 C996 1.389 . S
C998 C999 1.524 . S
C998 C1012 1.377 . S
C999 C998 1.524 . S
C999 C1000 1.397 . S
C999 C1004 1.363 . S
C1000 H977 0.950 . S
C1000 C999 1.397 . S
C1000 C1001 1.334 . S
C1001 H978 0.950 . S
C1001 C1000 1.334 . S
C1001 C1002 1.287 . S
C1002 C1001 1.287 . S
C1002 C1003 1.524 . S
C1002 H1021 0.913 . S
C1003 H979 0.950 . S
C1003 C1002 1.524 . S
C1003 C1004 1.415 . S
C1004 H980 0.950 . S
C1004 C999 1.363 . S
C1004 C1003 1.415 . S
C1005 H981 0.951 . S
C1005 C1006 1.366 . S
C1005 C1007 1.388 . S
C1006 C1005 1.366 . S
C1006 C1010 1.385 . S
C1007 H982 0.951 . S
C1007 C1005 1.388 . S
C1007 C1008 1.366 . S
C1008 C1007 1.366 . S
C1008 C1009 1.414 . S
C1008 C1011 1.499 . S
C1009 H983 0.950 . S
C1009 C1008 1.414 . S
C1009 C1010 1.374 . S
C1010 H984 0.950 . S
C1010 C1006 1.385 . S
C1010 C1009 1.374 . S
C1011 C1008 1.499 . S
C1011 C1012 1.373 . S
C1011 C1013 1.389 . S
C1012 H985 0.950 . S
C1012 C998 1.377 . S
C1012 C1011 1.373 . S
C1013 C997 1.377 . S
C1013 C1011 1.389 . S
C1013 C1014 1.524 . S
C1014 C1013 1.524 . S
C1014 C1015 1.397 . S
C1014 C1019 1.363 . S
C1015 H986 0.950 . S
C1015 C1014 1.397 . S
C1015 C1016 1.334 . S
C1016 H987 0.950 . S
C1016 C1015 1.334 . S
C1016 C1017 1.287 . S
C1017 C1016 1.287 . S
C1017 C1018 1.524 . S
C1017 H1020 0.999 . S
C1018 H988 0.950 . S
C1018 C1017 1.524 . S
C1018 C1019 1.415 . S
C1019 H989 0.950 . S
C1019 C1014 1.363 . S
C1019 C1018 1.415 . S
H1020 C1017 0.999 . S
H1021 C1002 0.913 . S
H1022 C1040 0.951 . S
H1023 C1042 0.951 . S
H1024 C1044 0.950 . S
H1025 C1045 0.950 . S
H1026 C1047 0.950 . S
H1027 C1050 0.950 . S
H1028 C1051 0.950 . S
H1029 C1053 0.950 . S
H1030 C1054 0.950 . S
H1031 C1055 0.951 . S
H1032 C1057 0.951 . S
H1033 C1059 0.950 . S
H1034 C1060 0.950 . S
H1035 C1062 0.950 . S
H1036 C1065 0.950 . S
H1037 C1066 0.950 . S
H1038 C1068 0.950 . S
H1039 C1069 0.950 . S
C1040 H1022 0.951 . S
C1040 C1041 1.366 . S
C1040 C1042 1.388 . S
C1041 C1040 1.366 . S
C1041 C1045 1.385 . S
C1042 H1023 0.951 . S
C1042 C1040 1.388 . S
C1042 C1043 1.366 . S
C1043 C1042 1.366 . S
C1043 C1044 1.414 . S
C1043 C1046 1.499 . S
C1044 H1024 0.950 . S
C1044 C1043 1.414 . S
C1044 C1045 1.374 . S
C1045 H1025 0.950 . S
C1045 C1041 1.385 . S
C1045 C1044 1.374 . S
C1046 C1043 1.499 . S
C1046 C1047 1.373 . S
C1046 C1048 1.389 . S
C1047 H1026 0.950 . S
C1047 C1046 1.373 . S
C1047 C1063 1.377 . S
C1048 C1046 1.389 . S
C1048 C1049 1.524 . S
C1048 C1062 1.377 . S
C1049 C1048 1.524 . S
C1049 C1050 1.397 . S
C1049 C1054 1.363 . S
C1050 H1027 0.950 . S
C1050 C1049 1.397 . S
C1050 C1051 1.334 . S
C1051 H1028 0.950 . S
C1051 C1050 1.334 . S
C1051 C1052 1.287 . S
C1052 C1051 1.287 . S
C1052 C1053 1.524 . S
C1052 H1071 0.913 . S
C1053 H1029 0.950 . S
C1053 C1052 1.524 . S
C1053 C1054 1.415 . S
C1054 H1030 0.950 . S
C1054 C1049 1.363 . S
C1054 C1053 1.415 . S
C1055 H1031 0.951 . S
C1055 C1056 1.366 . S
C1055 C1057 1.388 . S
C1056 C1055 1.366 . S
C1056 C1060 1.385 . S
C1057 H1032 0.951 . S
C1057 C1055 1.388 . S
C1057 C1058 1.366 . S
C1058 C1057 1.366 . S
C1058 C1059 1.414 . S
C1058 C1061 1.499 . S
C1059 H1033 0.950 . S
C1059 C1058 1.414 . S
C1059 C1060 1.374 . S
C1060 H1034 0.950 . S
C1060 C1056 1.385 . S
C1060 C1059 1.374 . S
C1061 C1058 1.499 . S
C1061 C1062 1.373 . S
C1061 C1063 1.389 . S
C1062 H1035 0.950 . S
C1062 C1048 1.377 . S
C1062 C1061 1.373 . S
C1063 C1047 1.377 . S
C1063 C1061 1.389 . S
C1063 C1064 1.524 . S
C1064 C1063 1.524 . S
C1064 C1065 1.397 . S
C1064 C1069 1.363 . S
C1065 H1036 0.950 . S
C1065 C1064 1.397 . S
C1065 C1066 1.334 . S
C1066 H1037 0.950 . S
C1066 C1065 1.334 . S
C1066 C1067 1.287 . S
C1067 C1066 1.287 . S
C1067 C1068 1.524 . S
C1067 H1070 0.999 . S
C1068 H1038 0.950 . S
C1068 C1067 1.524 . S
C1068 C1069 1.415 . S
C1069 H1039 0.950 . S
C1069 C1064 1.363 . S
C1069 C1068 1.415 . S
H1070 C1067 0.999 . S
H1071 C1052 0.913 . S
H1072 C1090 0.951 . S
H1073 C1092 0.951 . S
H1074 C1094 0.950 . S
H1075 C1095 0.950 . S
H1076 C1097 0.950 . S
H1077 C1100 0.950 . S
H1078 C1101 0.950 . S
H1079 C1103 0.950 . S
H1080 C1104 0.950 . S
H1081 C1105 0.951 . S
H1082 C1107 0.951 . S
H1083 C1109 0.950 . S
H1084 C1110 0.950 . S
H1085 C1112 0.950 . S
H1086 C1115 0.950 . S
H1087 C1116 0.950 . S
H1088 C1118 0.950 . S
H1089 C1119 0.950 . S
C1090 H1072 0.951 . S
C1090 C1091 1.366 . S
C1090 C1092 1.388 . S
C1091 C1090 1.366 . S
C1091 C1095 1.385 . S
C1092 H1073 0.951 . S
C1092 C1090 1.388 . S
C1092 C1093 1.366 . S
C1093 C1092 1.366 . S
C1093 C1094 1.414 . S
C1093 C1096 1.499 . S
C1094 H1074 0.950 . S
C1094 C1093 1.414 . S
C1094 C1095 1.374 . S
C1095 H1075 0.950 . S
C1095 C1091 1.385 . S
C1095 C1094 1.374 . S
C1096 C1093 1.499 . S
C1096 C1097 1.373 . S
C1096 C1098 1.389 . S
C1097 H1076 0.950 . S
C1097 C1096 1.373 . S
C1097 C1113 1.377 . S
C1098 C1096 1.389 . S
C1098 C1099 1.524 . S
C1098 C1112 1.377 . S
C1099 C1098 1.524 . S
C1099 C1100 1.397 . S
C1099 C1104 1.363 . S
C1100 H1077 0.950 . S
C1100 C1099 1.397 . S
C1100 C1101 1.334 . S
C1101 H1078 0.950 . S
C1101 C1100 1.334 . S
C1101 C1102 1.287 . S
C1102 C1101 1.287 . S
C1102 C1103 1.524 . S
C1102 H1121 0.913 . S
C1103 H1079 0.950 . S
C1103 C1102 1.524 . S
C1103 C1104 1.415 . S
C1104 H1080 0.950 . S
C1104 C1099 1.363 . S
C1104 C1103 1.415 . S
C1105 H1081 0.951 . S
C1105 C1106 1.366 . S
C1105 C1107 1.388 . S
C1106 C1105 1.366 . S
C1106 C1110 1.385 . S
C1107 H1082 0.951 . S
C1107 C1105 1.388 . S
C1107 C1108 1.366 . S
C1108 C1107 1.366 . S
C1108 C1109 1.414 . S
C1108 C1111 1.499 . S
C1109 H1083 0.950 . S
C1109 C1108 1.414 . S
C1109 C1110 1.374 . S
C1110 H1084 0.950 . S
C1110 C1106 1.385 . S
C1110 C1109 1.374 . S
C1111 C1108 1.499 . S
C1111 C1112 1.373 . S
C1111 C1113 1.389 . S
C1112 H1085 0.950 . S
C1112 C1098 1.377 . S
C1112 C1111 1.373 . S
C1113 C1097 1.377 . S
C1113 C1111 1.389 . S
C1113 C1114 1.524 . S
C1114 C1113 1.524 . S
C1114 C1115 1.397 . S
C1114 C1119 1.363 . S
C1115 H1086 0.950 . S
C1115 C1114 1.397 . S
C1115 C1116 1.334 . S
C1116 H1087 0.950 . S
C1116 C1115 1.334 . S
C1116 C1117 1.287 . S
C1117 C1116 1.287 . S
C1117 C1118 1.524 . S
C1117 H1120 0.999 . S
C1118 H1088 0.950 . S
C1118 C1117 1.524 . S
C1118 C1119 1.415 . S
C1119 H1089 0.950 . S
C1119 C1114 1.363 . S
C1119 C1118 1.415 . S
H1120 C1117 0.999 . S
H1121 C1102 0.913 . S
H1122 C1140 0.951 . S
H1123 C1142 0.951 . S
H1124 C1144 0.950 . S
H1125 C1145 0.950 . S
H1126 C1147 0.950 . S
H1127 C1150 0.950 . S
H1128 C1151 0.950 . S
H1129 C1153 0.950 . S
H1130 C1154 0.950 . S
H1131 C1155 0.951 . S
H1132 C1157 0.951 . S
H1133 C1159 0.950 . S
H1134 C1160 0.950 . S
H1135 C1162 0.950 . S
H1136 C1165 0.950 . S
H1137 C1166 0.950 . S
H1138 C1168 0.950 . S
H1139 C1169 0.950 . S
C1140 H1122 0.951 . S
C1140 C1141 1.366 . S
C1140 C1142 1.388 . S
C1141 C1140 1.366 . S
C1141 C1145 1.385 . S
C1142 H1123 0.951 . S
C1142 C1140 1.388 . S
C1142 C1143 1.366 . S
C1143 C1142 1.366 . S
C1143 C1144 1.414 . S
C1143 C1146 1.499 . S
C1144 H1124 0.950 . S
C1144 C1143 1.414 . S
C1144 C1145 1.374 . S
C1145 H1125 0.950 . S
C1145 C1141 1.385 . S
C1145 C1144 1.374 . S
C1146 C1143 1.499 . S
C1146 C1147 1.373 . S
C1146 C1148 1.389 . S
C1147 H1126 0.950 . S
C1147 C1146 1.373 . S
C1147 C1163 1.377 . S
C1148 C1146 1.389 . S
C1148 C1149 1.524 . S
C1148 C1162 1.377 . S
C1149 C1148 1.524 . S
C1149 C1150 1.397 . S
C1149 C1154 1.363 . S
C1150 H1127 0.950 . S
C1150 C1149 1.397 . S
C1150 C1151 1.334 . S
C1151 H1128 0.950 . S
C1151 C1150 1.334 . S
C1151 C1152 1.287 . S
C1152 C1151 1.287 . S
C1152 C1153 1.524 . S
C1152 H1171 0.913 . S
C1153 H1129 0.950 . S
C1153 C1152 1.524 . S
C1153 C1154 1.415 . S
C1154 H1130 0.950 . S
C1154 C1149 1.363 . S
C1154 C1153 1.415 . S
C1155 H1131 0.951 . S
C1155 C1156 1.366 . S
C1155 C1157 1.388 . S
C1156 C1155 1.366 . S
C1156 C1160 1.385 . S
C1157 H1132 0.951 . S
C1157 C1155 1.388 . S
C1157 C1158 1.366 . S
C1158 C1157 1.366 . S
C1158 C1159 1.414 . S
C1158 C1161 1.499 . S
C1159 H1133 0.950 . S
C1159 C1158 1.414 . S
C1159 C1160 1.374 . S
C1160 H1134 0.950 . S
C1160 C1156 1.385 . S
C1160 C1159 1.374 . S
C1161 C1158 1.499 . S
C1161 C1162 1.373 . S
C1161 C1163 1.389 . S
C1162 H1135 0.950 . S
C1162 C1148 1.377 . S
C1162 C1161 1.373 . S
C1163 C1147 1.377 . S
C1163 C1161 1.389 . S
C1163 C1164 1.524 . S
C1164 C1163 1.524 . S
C1164 C1165 1.397 . S
C1164 C1169 1.363 . S
C1165 H1136 0.950 . S
C1165 C1164 1.397 . S
C1165 C1166 1.334 . S
C1166 H1137 0.950 . S
C1166 C1165 1.334 . S
C1166 C1167 1.287 . S
C1167 C1166 1.287 . S
C1167 C1168 1.524 . S
C1167 H1170 0.999 . S
C1168 H1138 0.950 . S
C1168 C1167 1.524 . S
C1168 C1169 1.415 . S
C1169 H1139 0.950 . S
C1169 C1164 1.363 . S
C1169 C1168 1.415 . S
H1170 C1167 0.999 . S
H1171 C1152 0.913 . S
H1172 C1190 0.951 . S
H1173 C1192 0.951 . S
H1174 C1194 0.950 . S
H1175 C1195 0.950 . S
H1176 C1197 0.950 . S
H1177 C1200 0.950 . S
H1178 C1201 0.950 . S
H1179 C1203 0.950 . S
H1180 C1204 0.950 . S
H1181 C1205 0.951 . S
H1182 C1207 0.951 . S
H1183 C1209 0.950 . S
H1184 C1210 0.950 . S
H1185 C1212 0.950 . S
H1186 C1215 0.950 . S
H1187 C1216 0.950 . S
H1188 C1218 0.950 . S
H1189 C1219 0.950 . S
C1190 H1172 0.951 . S
C1190 C1191 1.366 . S
C1190 C1192 1.388 . S
C1191 C1190 1.366 . S
C1191 C1195 1.385 . S
C1192 H1173 0.951 . S
C1192 C1190 1.388 . S
C1192 C1193 1.366 . S
C1193 C1192 1.366 . S
C1193 C1194 1.414 . S
C1193 C1196 1.499 . S
C1194 H1174 0.950 . S
C1194 C1193 1.414 . S
C1194 C1195 1.374 . S
C1195 H1175 0.950 . S
C1195 C1191 1.385 . S
C1195 C1194 1.374 . S
C1196 C1193 1.499 . S
C1196 C1197 1.373 . S
C1196 C1198 1.389 . S
C1197 H1176 0.950 . S
C1197 C1196 1.373 . S
C1197 C1213 1.377 . S
C1198 C1196 1.389 . S
C1198 C1199 1.524 . S
C1198 C1212 1.377 . S
C1199 C1198 1.524 . S
C1199 C1200 1.397 . S
C1199 C1204 1.363 . S
C1200 H1177 0.950 . S
C1200 C1199 1.397 . S
C1200 C1201 1.334 . S
C1201 H1178 0.950 . S
C1201 C1200 1.334 . S
C1201 C1202 1.287 . S
C1202 C1201 1.287 . S
C1202 C1203 1.524 . S
C1202 H1221 0.913 . S
C1203 H1179 0.950 . S
C1203 C1202 1.524 . S
C1203 C1204 1.415 . S
C1204 H1180 0.950 . S
C1204 C1199 1.363 . S
C1204 C1203 1.415 . S
C1205 H1181 0.951 . S
C1205 C1206 1.366 . S
C1205 C1207 1.388 . S
C1206 C1205 1.366 . S
C1206 C1210 1.385 . S
C1207 H1182 0.951 . S
C1207 C1205 1.388 . S
C1207 C1208 1.366 . S
C1208 C1207 1.366 . S
C1208 C1209 1.414 . S
C1208 C1211 1.499 . S
C1209 H1183 0.950 . S
C1209 C1208 1.414 . S
C1209 C1210 1.374 . S
C1210 H1184 0.950 . S
C1210 C1206 1.385 . S
C1210 C1209 1.374 . S
C1211 C1208 1.499 . S
C1211 C1212 1.373 . S
C1211 C1213 1.389 . S
C1212 H1185 0.950 . S
C1212 C1198 1.377 . S
C1212 C1211 1.373 . S
C1213 C1197 1.377 . S
C1213 C1211 1.389 . S
C1213 C1214 1.524 . S
C1214 C1213 1.524 . S
C1214 C1215 1.397 . S
C1214 C1219 1.363 . S
C1215 H1186 0.950 . S
C1215 C1214 1.397 . S
C1215 C1216 1.334 . S
C1216 H1187 0.950 . S
C1216 C1215 1.334 . S
C1216 C1217 1.287 . S
C1217 C1216 1.287 . S
C1217 C1218 1.524 . S
C1217 H1220 0.999 . S
C1218 H1188 0.950 . S
C1218 C1217 1.524 . S
C1218 C1219 1.415 . S
C1219 H1189 0.950 . S
C1219 C1214 1.363 . S
C1219 C1218 1.415 . S
H1220 C1217 0.999 . S
H1221 C1202 0.913 . S
H1222 C1240 0.951 . S
H1223 C1242 0.951 . S
H1224 C1244 0.950 . S
H1225 C1245 0.950 . S
H1226 C1247 0.950 . S
H1227 C1250 0.950 . S
H1228 C1251 0.950 . S
H1229 C1253 0.950 . S
H1230 C1254 0.950 . S
H1231 C1255 0.951 . S
H1232 C1257 0.951 . S
H1233 C1259 0.950 . S
H1234 C1260 0.950 . S
H1235 C1262 0.950 . S
H1236 C1265 0.950 . S
H1237 C1266 0.950 . S
H1238 C1268 0.950 . S
H1239 C1269 0.950 . S
C1240 H1222 0.951 . S
C1240 C1241 1.366 . S
C1240 C1242 1.388 . S
C1241 C1240 1.366 . S
C1241 C1245 1.385 . S
C1242 H1223 0.951 . S
C1242 C1240 1.388 . S
C1242 C1243 1.366 . S
C1243 C1242 1.366 . S
C1243 C1244 1.414 . S
C1243 C1246 1.499 . S
C1244 H1224 0.950 . S
C1244 C1243 1.414 . S
C1244 C1245 1.374 . S
C1245 H1225 0.950 . S
C1245 C1241 1.385 . S
C1245 C1244 1.374 . S
C1246 C1243 1.499 . S
C1246 C1247 1.373 . S
C1246 C1248 1.389 . S
C1247 H1226 0.950 . S
C1247 C1246 1.373 . S
C1247 C1263 1.377 . S
C1248 C1246 1.389 . S
C1248 C1249 1.524 . S
C1248 C1262 1.377 . S
C1249 C1248 1.524 . S
C1249 C1250 1.397 . S
C1249 C1254 1.363 . S
C1250 H1227 0.950 . S
C1250 C1249 1.397 . S
C1250 C1251 1.334 . S
C1251 H1228 0.950 . S
C1251 C1250 1.334 . S
C1251 C1252 1.287 . S
C1252 C1251 1.287 . S
C1252 C1253 1.524 . S
C1252 H1271 0.913 . S
C1253 H1229 0.950 . S
C1253 C1252 1.524 . S
C1253 C1254 1.415 . S
C1254 H1230 0.950 . S
C1254 C1249 1.363 . S
C1254 C1253 1.415 . S
C1255 H1231 0.951 . S
C1255 C1256 1.366 . S
C1255 C1257 1.388 . S
C1256 C1255 1.366 . S
C1256 C1260 1.385 . S
C1257 H1232 0.951 . S
C1257 C1255 1.388 . S
C1257 C1258 1.366 . S
C1258 C1257 1.366 . S
C1258 C1259 1.414 . S
C1258 C1261 1.499 . S
C1259 H1233 0.950 . S
C1259 C1258 1.414 . S
C1259 C1260 1.374 . S
C1260 H1234 0.950 . S
C1260 C1256 1.385 . S
C1260 C1259 1.374 . S
C1261 C1258 1.499 . S
C1261 C1262 1.373 . S
C1261 C1263 1.389 . S
C1262 H1235 0.950 . S
C1262 C1248 1.377 . S
C1262 C1261 1.373 . S
C1263 C1247 1.377 . S
C1263 C1261 1.389 . S
C1263 C1264 1.524 . S
C1264 C1263 1.524 . S
C1264 C1265 1.397 . S
C1264 C1269 1.363 . S
C1265 H1236 0.950 . S
C1265 C1264 1.397 . S
C1265 C1266 1.334 . S
C1266 H1237 0.950 . S
C1266 C1265 1.334 . S
C1266 C1267 1.287 . S
C1267 C1266 1.287 . S
C1267 C1268 1.524 . S
C1267 H1270 0.999 . S
C1268 H1238 0.950 . S
C1268 C1267 1.524 . S
C1268 C1269 1.415 . S
C1269 H1239 0.950 . S
C1269 C1264 1.363 . S
C1269 C1268 1.415 . S
H1270 C1267 0.999 . S
H1271 C1252 0.913 . S
H1272 C1290 0.951 . S
H1273 C1292 0.951 . S
H1274 C1294 0.950 . S
H1275 C1295 0.950 . S
H1276 C1297 0.950 . S
H1277 C1300 0.950 . S
H1278 C1301 0.950 . S
H1279 C1303 0.950 . S
H1280 C1304 0.950 . S
H1281 C1305 0.951 . S
H1282 C1307 0.951 . S
H1283 C1309 0.950 . S
H1284 C1310 0.950 . S
H1285 C1312 0.950 . S
H1286 C1315 0.950 . S
H1287 C1316 0.950 . S
H1288 C1318 0.950 . S
H1289 C1319 0.950 . S
C1290 H1272 0.951 . S
C1290 C1291 1.366 . S
C1290 C1292 1.388 . S
C1291 C1290 1.366 . S
C1291 C1295 1.385 . S
C1292 H1273 0.951 . S
C1292 C1290 1.388 . S
C1292 C1293 1.366 . S
C1293 C1292 1.366 . S
C1293 C1294 1.414 . S
C1293 C1296 1.499 . S
C1294 H1274 0.950 . S
C1294 C1293 1.414 . S
C1294 C1295 1.374 . S
C1295 H1275 0.950 . S
C1295 C1291 1.385 . S
C1295 C1294 1.374 . S
C1296 C1293 1.499 . S
C1296 C1297 1.373 . S
C1296 C1298 1.389 . S
C1297 H1276 0.950 . S
C1297 C1296 1.373 . S
C1297 C1313 1.377 . S
C1298 C1296 1.389 . S
C1298 C1299 1.524 . S
C1298 C1312 1.377 . S
C1299 C1298 1.524 . S
C1299 C1300 1.397 . S
C1299 C1304 1.363 . S
C1300 H1277 0.950 . S
C1300 C1299 1.397 . S
C1300 C1301 1.334 . S
C1301 H1278 0.950 . S
C1301 C1300 1.334 . S
C1301 C1302 1.287 . S
C1302 C1301 1.287 . S
C1302 C1303 1.524 . S
C1302 H1321 0.913 . S
C1303 H1279 0.950 . S
C1303 C1302 1.524 . S
C1303 C1304 1.415 . S
C1304 H1280 0.950 . S
C1304 C1299 1.363 . S
C1304 C1303 1.415 . S
C1305 H1281 0.951 . S
C1305 C1306 1.366 . S
C1305 C1307 1.388 . S
C1306 C1305 1.366 . S
C1306 C1310 1.385 . S
C1307 H1282 0.951 . S
C1307 C1305 1.388 . S
C1307 C1308 1.366 . S
C1308 C1307 1.366 . S
C1308 C1309 1.414 . S
C1308 C1311 1.499 . S
C1309 H1283 0.950 . S
C1309 C1308 1.414 . S
C1309 C1310 1.374 . S
C1310 H1284 0.950 . S
C1310 C1306 1.385 . S
C1310 C1309 1.374 . S
C1311 C1308 1.499 . S
C1311 C1312 1.373 . S
C1311 C1313 1.389 . S
C1312 H1285 0.950 . S
C1312 C1298 1.377 . S
C1312 C1311 1.373 . S
C1313 C1297 1.377 . S
C1313 C1311 1.389 . S
C1313 C1314 1.524 . S
C1314 C1313 1.524 . S
C1314 C1315 1.397 . S
C1314 C1319 1.363 . S
C1315 H1286 0.950 . S
C1315 C1314 1.397 . S
C1315 C1316 1.334 . S
C1316 H1287 0.950 . S
C1316 C1315 1.334 . S
C1316 C1317 1.287 . S
C1317 C1316 1.287 . S
C1317 C1318 1.524 . S
C1317 H1320 0.999 . S
C1318 H1288 0.950 . S
C1318 C1317 1.524 . S
C1318 C1319 1.415 . S
C1319 H1289 0.950 . S
C1319 C1314 1.363 . S
C1319 C1318 1.415 . S
H1320 C1317 0.999 . S
H1321 C1302 0.913 . S
H1322 C1340 0.921 1_554 S
H1323 C1342 0.951 . S
H1324 C1344 0.950 . S
H1325 C1345 0.950 . S
H1326 C1347 0.950 . S
H1327 C1350 0.950 . S
H1328 C1351 0.950 . S
H1329 C1353 0.950 . S
H1330 C1354 0.950 1_556 S
H1331 C1355 0.951 . S
H1332 C1357 0.951 . S
H1333 C1359 0.950 . S
H1334 C1360 0.950 . S
H1335 C1362 0.950 . S
H1336 C1365 0.950 . S
H1337 C1366 0.950 . S
H1338 C1368 0.950 . S
H1339 C1369 0.950 . S
C1340 H1322 0.921 1_556 S
C1340 C1341 1.379 . S
C1340 C1342 1.404 . S
C1341 C1340 1.379 . S
C1341 C1345 1.385 . S
C1342 H1323 0.951 . S
C1342 C1340 1.404 . S
C1342 C1343 1.366 . S
C1343 C1342 1.366 . S
C1343 C1344 1.414 . S
C1343 C1346 1.499 . S
C1344 H1324 0.950 . S
C1344 C1343 1.414 . S
C1344 C1345 1.374 . S
C1345 H1325 0.950 . S
C1345 C1341 1.385 . S
C1345 C1344 1.374 . S
C1346 C1343 1.499 . S
C1346 C1347 1.373 . S
C1346 C1348 1.389 . S
C1347 H1326 0.950 . S
C1347 C1346 1.373 . S
C1347 C1363 1.377 . S
C1348 C1346 1.389 . S
C1348 C1349 1.524 . S
C1348 C1362 1.377 . S
C1349 C1348 1.524 . S
C1349 C1350 1.397 . S
C1349 C1354 1.363 1_556 S
C1350 H1327 0.950 . S
C1350 C1349 1.397 . S
C1350 C1351 1.334 1_556 S
C1351 H1328 0.950 . S
C1351 C1350 1.334 1_554 S
C1351 C1352 1.287 . S
C1352 C1351 1.287 . S
C1352 C1353 1.524 . S
C1352 H1371 0.913 . S
C1353 H1329 0.950 . S
C1353 C1352 1.524 . S
C1353 C1354 1.415 . S
C1354 H1330 0.950 1_554 S
C1354 C1349 1.363 1_554 S
C1354 C1353 1.415 . S
C1355 H1331 0.951 . S
C1355 C1356 1.366 . S
C1355 C1357 1.388 . S
C1356 C1355 1.366 . S
C1356 C1360 1.385 . S
C1357 H1332 0.951 . S
C1357 C1355 1.388 . S
C1357 C1358 1.366 . S
C1358 C1357 1.366 . S
C1358 C1359 1.414 . S
C1358 C1361 1.499 . S
C1359 H1333 0.950 . S
C1359 C1358 1.414 . S
C1359 C1360 1.374 . S
C1360 H1334 0.950 . S
C1360 C1356 1.385 . S
C1360 C1359 1.374 . S
C1361 C1358 1.499 . S
C1361 C1362 1.373 . S
C1361 C1363 1.389 . S
C1362 H1335 0.950 . S
C1362 C1348 1.377 . S
C1362 C1361 1.373 . S
C1363 C1347 1.377 . S
C1363 C1361 1.389 . S
C1363 C1364 1.524 . S
C1364 C1363 1.524 . S
C1364 C1365 1.397 . S
C1364 C1369 1.363 . S
C1365 H1336 0.950 . S
C1365 C1364 1.397 . S
C1365 C1366 1.334 . S
C1366 H1337 0.950 . S
C1366 C1365 1.334 . S
C1366 C1367 1.287 . S
C1367 C1366 1.287 . S
C1367 C1368 1.524 . S
C1367 H1370 0.999 . S
C1368 H1338 0.950 . S
C1368 C1367 1.524 . S
C1368 C1369 1.415 . S
C1369 H1339 0.950 . S
C1369 C1364 1.363 . S
C1369 C1368 1.415 . S
H1370 C1367 0.999 . S
H1371 C1352 0.913 . S
C191 C7 0.658 . S
C206 C89 0.640 . S
C241 C25 0.712 . S
C256 C100 0.702 . S
C291 C46 0.713 . S
C306 C110 0.701 . S
C356 C122 0.582 . S
C341 C70 0.612 . S
C406 C133 0.639 . S
C391 C28 0.655 . S
C441 C49 0.612 . S
C456 C144 0.582 . S
C491 C67 0.713 . S
C506 C154 0.703 . S
C541 C4 0.710 . S
C556 C166 0.703 . S
C591 C58 1.629 . S
C606 C165 1.735 . S
C656 C132 1.606 . S
C641 C66 1.518 . S
C706 C143 1.708 . S
C691 C3 1.637 . S
C741 C37 1.772 . S
C756 C155 1.849 . S
C806 C99 1.733 . S
C791 C79 1.629 . S
C841 C16 1.773 . S
C856 C111 1.850 . S
C906 C121 1.708 . S
C891 C24 1.635 . S
C956 C88 1.606 . S
C941 C45 1.517 . S
C1006 C160 1.431 . S
C991 C19 1.293 . S
C1056 C171 1.418 . S
C1041 C41 1.281 . S
C1091 C62 1.175 . S
C1106 C138 1.283 . S
C1156 C149 1.264 . S
C1141 C82 1.138 . S
C1206 C116 1.432 . S
C1191 C40 1.293 . S
C1241 C61 1.137 . S
C1256 C127 1.265 . S
C1306 C94 1.286 . S
C1291 C83 1.175 . S
C1356 C105 1.418 . S
C1341 C20 1.280 . S
