# Generated by pormake.
# Topology apo, (3,6)-cn, num edge types: 1
# Building blocks:
#     Node 0, Type 0, BuildingBlock: BETDIP_clean_linker_0, # of connection points: 3
#     Node 1, Type 0, BuildingBlock: BETDIP_clean_linker_0, # of connection points: 3
#     Node 2, Type 0, BuildingBlock: BETDIP_clean_linker_0, # of connection points: 3
#     Node 3, Type 0, BuildingBlock: BETDIP_clean_linker_0, # of connection points: 3
#     Node 4, Type 0, BuildingBlock: BETDIP_clean_linker_0, # of connection points: 3
#     Node 5, Type 0, BuildingBlock: BETDIP_clean_linker_0, # of connection points: 3
#     Node 6, Type 0, BuildingBlock: BETDIP_clean_linker_0, # of connection points: 3
#     Node 7, Type 0, BuildingBlock: BETDIP_clean_linker_0, # of connection points: 3
#     Node 8, Type 1, BuildingBlock: MIDCAF_clean_sbu_0, # of connection points: 6
#     Node 9, Type 1, BuildingBlock: MIDCAF_clean_sbu_0, # of connection points: 6
#     Node 10, Type 1, BuildingBlock: MIDCAF_clean_sbu_0, # of connection points: 6
#     Node 11, Type 1, BuildingBlock: MIDCAF_clean_sbu_0, # of connection points: 6
#     Edge 12, Type (0, 1), BuildingBlock: UVAHIK_clean_linker_0, # of connection points: 2
#     Edge 13, Type (0, 1), BuildingBlock: UVAHIK_clean_linker_0, # of connection points: 2
#     Edge 14, Type (0, 1), BuildingBlock: UVAHIK_clean_linker_0, # of connection points: 2
#     Edge 15, Type (0, 1), BuildingBlock: UVAHIK_clean_linker_0, # of connection points: 2
#     Edge 16, Type (0, 1), BuildingBlock: UVAHIK_clean_linker_0, # of connection points: 2
#     Edge 17, Type (0, 1), BuildingBlock: UVAHIK_clean_linker_0, # of connection points: 2
#     Edge 18, Type (0, 1), BuildingBlock: UVAHIK_clean_linker_0, # of connection points: 2
#     Edge 19, Type (0, 1), BuildingBlock: UVAHIK_clean_linker_0, # of connection points: 2
#     Edge 20, Type (0, 1), BuildingBlock: UVAHIK_clean_linker_0, # of connection points: 2
#     Edge 21, Type (0, 1), BuildingBlock: UVAHIK_clean_linker_0, # of connection points: 2
#     Edge 22, Type (0, 1), BuildingBlock: UVAHIK_clean_linker_0, # of connection points: 2
#     Edge 23, Type (0, 1), BuildingBlock: UVAHIK_clean_linker_0, # of connection points: 2
#     Edge 24, Type (0, 1), BuildingBlock: UVAHIK_clean_linker_0, # of connection points: 2
#     Edge 25, Type (0, 1), BuildingBlock: UVAHIK_clean_linker_0, # of connection points: 2
#     Edge 26, Type (0, 1), BuildingBlock: UVAHIK_clean_linker_0, # of connection points: 2
#     Edge 27, Type (0, 1), BuildingBlock: UVAHIK_clean_linker_0, # of connection points: 2
#     Edge 28, Type (0, 1), BuildingBlock: UVAHIK_clean_linker_0, # of connection points: 2
#     Edge 29, Type (0, 1), BuildingBlock: UVAHIK_clean_linker_0, # of connection points: 2
#     Edge 30, Type (0, 1), BuildingBlock: UVAHIK_clean_linker_0, # of connection points: 2
#     Edge 31, Type (0, 1), BuildingBlock: UVAHIK_clean_linker_0, # of connection points: 2
#     Edge 32, Type (0, 1), BuildingBlock: UVAHIK_clean_linker_0, # of connection points: 2
#     Edge 33, Type (0, 1), BuildingBlock: UVAHIK_clean_linker_0, # of connection points: 2
#     Edge 34, Type (0, 1), BuildingBlock: UVAHIK_clean_linker_0, # of connection points: 2
#     Edge 35, Type (0, 1), BuildingBlock: UVAHIK_clean_linker_0, # of connection points: 2
# Relax obj value: 0.012
# Max RMSD: 0.062
# Mean RMSD: 0.056
data_MOF--net-apo--node1-MIDCAF_clean_sbu_0--node2-BETDIP_clean_linker_0--edge1-UVAHIK_clean_linker_0
_symmetry_space_group_name_H-M    P1
_symmetry_Int_Tables_number       1
_symmetry_cell_setting            triclinic
loop_
_symmetry_equiv_pos_as_xyz
'x, y, z'
_cell_length_a     47.571079
_cell_length_b     53.711003
_cell_length_c     45.341001
_cell_angle_alpha  90.547854
_cell_angle_beta   90.382262
_cell_angle_gamma 90.217413
loop_
_atom_site_label
_atom_site_type_symbol
_atom_site_fract_x
_atom_site_fract_y
_atom_site_fract_z
_atom_type_partial_charge
H0 H 0.28814 0.34843 0.45083 0.0
H1 H 0.30316 0.38145 0.36587 0.0
H2 H 0.34316 0.41175 0.44325 0.0
H3 H 0.26245 0.36275 0.35353 0.0
C4 C 0.26153 0.34569 0.36612 0.0
C5 C 0.29817 0.36247 0.43745 0.0
C6 C 0.31585 0.38037 0.45081 0.0
C7 C 0.29278 0.36295 0.4069 0.0
C8 C 0.30612 0.38114 0.38954 0.0
C9 C 0.32447 0.39856 0.4027 0.0
C10 C 0.329 0.39818 0.4332 0.0
N11 N 0.27458 0.34447 0.39444 0.0
H12 H 0.22341 0.16459 0.94456 0.0
H13 H 0.2057 0.12718 0.86232 0.0
H14 H 0.14945 0.11874 0.93526 0.0
H15 H 0.23602 0.15496 0.84418 0.0
C16 C 0.25133 0.15858 0.86156 0.0
C17 C 0.20998 0.15238 0.93148 0.0
C18 C 0.18504 0.14282 0.94351 0.0
C19 C 0.2176 0.14695 0.9023 0.0
C20 C 0.20002 0.13156 0.8848 0.0
C21 C 0.17502 0.12162 0.89635 0.0
C22 C 0.168 0.12716 0.92581 0.0
N23 N 0.24341 0.15687 0.89171 0.0
H24 H 0.77507 0.16578 0.56737 0.0
H25 H 0.79865 0.12584 0.64551 0.0
H26 H 0.85151 0.12394 0.56856 0.0
H27 H 0.73084 0.1565 0.58573 0.0
C28 C 0.73353 0.16051 0.60911 0.0
C29 C 0.7894 0.15366 0.579 0.0
C30 C 0.81358 0.1451 0.5646 0.0
C31 C 0.7839 0.14652 0.60825 0.0
C32 C 0.80326 0.1314 0.62315 0.0
C33 C 0.82767 0.12268 0.60904 0.0
C34 C 0.83255 0.12982 0.57972 0.0
N35 N 0.75928 0.15438 0.62338 0.0
H36 H 0.71083 0.33998 0.09216 0.0
H37 H 0.69366 0.36219 0.18188 0.0
H38 H 0.64725 0.39467 0.11065 0.0
H39 H 0.73963 0.35201 0.18791 0.0
C40 C 0.74136 0.33498 0.17495 0.0
C41 C 0.69909 0.35112 0.10784 0.0
C42 C 0.67852 0.36779 0.09772 0.0
C43 C 0.70535 0.34943 0.1381 0.0
C44 C 0.68994 0.36388 0.15841 0.0
C45 C 0.66878 0.37997 0.14859 0.0
C46 C 0.66336 0.38198 0.11828 0.0
N47 N 0.72673 0.33273 0.14754 0.0
H48 H 0.70215 0.64703 0.57666 0.0
H49 H 0.70541 0.61588 0.66354 0.0
H50 H 0.64937 0.58443 0.5988 0.0
H51 H 0.74782 0.63382 0.66489 0.0
C52 C 0.74504 0.65124 0.6533 0.0
C53 C 0.69468 0.63345 0.59231 0.0
C54 C 0.67422 0.61565 0.58374 0.0
C55 C 0.70633 0.63361 0.62084 0.0
C56 C 0.6973 0.61573 0.64119 0.0
C57 C 0.67695 0.5979 0.63323 0.0
C58 C 0.6653 0.5981 0.60467 0.0
N59 N 0.72642 0.65238 0.6286 0.0
H60 H 0.80263 0.82487 0.06462 0.0
H61 H 0.82894 0.85635 0.14773 0.0
H62 H 0.86423 0.88348 0.06682 0.0
H63 H 0.78648 0.84422 0.16294 0.0
C64 C 0.7807 0.82794 0.14986 0.0
C65 C 0.81545 0.83806 0.07705 0.0
C66 C 0.83408 0.85379 0.06226 0.0
C67 C 0.8125 0.83969 0.10768 0.0
C68 C 0.82971 0.85628 0.12392 0.0
C69 C 0.84872 0.87219 0.10953 0.0
C70 C 0.85024 0.8711 0.0785 0.0
N71 N 0.79222 0.82414 0.1213 0.0
H72 H 0.19252 0.80013 0.41477 0.0
H73 H 0.17257 0.84065 0.33583 0.0
H74 H 0.14124 0.8659 0.41947 0.0
H75 H 0.21786 0.8289 0.32503 0.0
C76 C 0.21829 0.80958 0.33193 0.0
C77 C 0.18207 0.81549 0.40398 0.0
C78 C 0.16647 0.83263 0.42076 0.0
C79 C 0.18537 0.81878 0.37352 0.0
C80 C 0.1712 0.83844 0.35949 0.0
C81 C 0.15532 0.8555 0.37599 0.0
C82 C 0.15351 0.85276 0.40665 0.0
N83 N 0.2034 0.80241 0.35764 0.0
H84 H 0.29704 0.66365 0.91816 0.0
H85 H 0.30022 0.62916 0.83225 0.0
H86 H 0.34858 0.59886 0.90341 0.0
H87 H 0.29373 0.67073 0.81837 0.0
C88 C 0.27698 0.67559 0.83352 0.0
C89 C 0.30544 0.64942 0.90363 0.0
C90 C 0.32385 0.63126 0.91478 0.0
C91 C 0.29745 0.64927 0.87376 0.0
C92 C 0.30717 0.63017 0.85503 0.0
C93 C 0.32558 0.61198 0.86571 0.0
C94 C 0.33418 0.61287 0.89537 0.0
N95 N 0.27862 0.66783 0.86342 0.0
Zn96 Zn 0.02288 0.12649 0.31669 0.0
Zn97 Zn 0.99345 0.12974 0.20396 0.0
Zn98 Zn 0.00847 0.12958 0.26019 0.0
C99 C 0.04534 0.15383 0.20761 0.0
C100 C 0.99606 0.0802 0.21936 0.0
O101 O 0.97453 0.14715 0.28686 0.0
O102 O 0.98999 0.14429 0.3329 0.0
C103 C 0.06502 0.15413 0.28805 0.0
O104 O 0.04263 0.14827 0.23506 0.0
O105 O 0.02614 0.14852 0.18927 0.0
O106 O 0.99213 0.09327 0.19674 0.0
O107 O 0.00228 0.09068 0.24429 0.0
O108 O 0.05874 0.14501 0.31274 0.0
O109 O 0.04878 0.15047 0.26551 0.0
O110 O 0.0148 0.08991 0.27247 0.0
O111 O 0.02451 0.08971 0.32025 0.0
C112 C 0.02092 0.07801 0.29624 0.0
O113 O 0.96783 0.15007 0.25679 0.0
O114 O 0.95741 0.14739 0.20924 0.0
C115 C 0.97138 0.15106 0.31476 0.0
C116 C 0.95127 0.15481 0.2349 0.0
Zn117 Zn 0.53403 0.3612 0.71938 0.0
Zn118 Zn 0.47433 0.36005 0.81658 0.0
Zn119 Zn 0.5049 0.35937 0.76843 0.0
C120 C 0.44633 0.39013 0.7773 0.0
C121 C 0.47863 0.31025 0.79802 0.0
O122 O 0.51523 0.32011 0.75599 0.0
O123 O 0.54224 0.32541 0.7169 0.0
C124 C 0.56262 0.39074 0.76045 0.0
O125 O 0.46695 0.38265 0.76117 0.0
O126 O 0.44391 0.38253 0.80341 0.0
O127 O 0.46723 0.32391 0.81727 0.0
O128 O 0.49439 0.31985 0.77804 0.0
O129 O 0.56378 0.38405 0.73374 0.0
O130 O 0.54284 0.38258 0.77715 0.0
O131 O 0.47823 0.37634 0.7336 0.0
O132 O 0.5041 0.37447 0.69333 0.0
C133 C 0.48111 0.37969 0.70564 0.0
O134 O 0.53142 0.37572 0.80453 0.0
O135 O 0.50376 0.37351 0.84341 0.0
C136 C 0.53099 0.3112 0.73542 0.0
C137 C 0.52734 0.37881 0.83244 0.0
Zn138 Zn 0.01306 0.87218 0.79671 0.0
Zn139 Zn 0.98202 0.87164 0.68632 0.0
Zn140 Zn 0.99894 0.87108 0.74098 0.0
C141 C 0.98745 0.9212 0.70273 0.0
C142 C 0.93988 0.84715 0.7159 0.0
O143 O 0.03754 0.84757 0.74491 0.0
O144 O 0.04337 0.84754 0.79336 0.0
C145 C 0.01817 0.92069 0.77825 0.0
O146 O 0.99477 0.91072 0.72709 0.0
O147 O 0.98155 0.908 0.68035 0.0
O148 O 0.94547 0.85477 0.69036 0.0
O149 O 0.95716 0.85154 0.73744 0.0
O150 O 0.02248 0.90795 0.80104 0.0
O151 O 0.0087 0.91028 0.7544 0.0
O152 O 0.96365 0.85521 0.76727 0.0
O153 O 0.97783 0.85999 0.8136 0.0
C154 C 0.95935 0.85309 0.7952 0.0
O155 O 0.03161 0.85139 0.71452 0.0
O156 O 0.01335 0.85239 0.66948 0.0
C157 C 0.05048 0.83976 0.76815 0.0
C158 C 0.03298 0.84619 0.68672 0.0
Zn159 Zn 0.52467 0.61822 0.20198 0.0
Zn160 Zn 0.49 0.66089 0.28291 0.0
Zn161 Zn 0.50392 0.63606 0.24537 0.0
C162 C 0.53685 0.63826 0.30306 0.0
C163 C 0.47264 0.61144 0.294 0.0
O164 O 0.46749 0.63311 0.2154 0.0
O165 O 0.48911 0.61463 0.17836 0.0
C166 C 0.55194 0.66439 0.21533 0.0
O167 O 0.52471 0.62188 0.28625 0.0
O168 O 0.52905 0.66073 0.3011 0.0
O169 O 0.46209 0.633 0.29622 0.0
O170 O 0.49612 0.60908 0.28015 0.0
O171 O 0.55038 0.64739 0.19585 0.0
O172 O 0.5358 0.66354 0.23767 0.0
O173 O 0.51828 0.59935 0.2619 0.0
O174 O 0.5401 0.58782 0.22104 0.0
C175 C 0.53326 0.58353 0.24738 0.0
O176 O 0.46159 0.65231 0.23849 0.0
O177 O 0.47338 0.6883 0.25857 0.0
C178 C 0.46685 0.62322 0.18951 0.0
C179 C 0.45592 0.67537 0.24374 0.0
C180 C 0.14564 0.90094 0.37047 0.0
C181 C 0.14057 0.87628 0.36135 0.0
C182 C 0.13111 0.92057 0.35739 0.0
C183 C 0.10829 0.9577 0.31172 0.0
H184 H 0.02694 0.95736 0.31749 0.0
C185 C 0.04173 0.0404 0.272 0.0
C186 C 0.02667 0.05101 0.29549 0.0
C187 C 0.05259 0.01629 0.27431 0.0
C188 C 0.04961 0.95751 0.31537 0.0
H189 H 0.11637 0.85264 0.33163 0.0
H190 H 0.09013 0.8871 0.30929 0.0
H191 H 0.05377 0.92061 0.33262 0.0
H192 H 0.00935 0.04427 0.33875 0.0
H193 H 0.02758 0.00193 0.34241 0.0
H194 H 0.10428 0.9947 0.29502 0.0
C195 C 0.10569 0.89117 0.32624 0.0
C196 C 0.06491 0.93653 0.32393 0.0
C197 C 0.12072 0.87155 0.33888 0.0
C198 C 0.02088 0.03649 0.32032 0.0
C199 C 0.03122 0.01225 0.32237 0.0
C200 C 0.09299 0.97844 0.30259 0.0
C201 C 0.11079 0.91585 0.33538 0.0
C202 C 0.09443 0.93671 0.32289 0.0
C203 C 0.04807 0.00228 0.29989 0.0
C204 C 0.06355 0.97878 0.305 0.0
H205 H 0.16088 0.90501 0.38774 0.0
H206 H 0.13525 0.93942 0.36498 0.0
H207 H 0.13103 0.95823 0.31063 0.0
H208 H 0.04672 0.0513 0.25274 0.0
H209 H 0.06546 0.00897 0.25665 0.0
C210 C 0.31495 0.57528 0.83308 0.0
C211 C 0.33487 0.59125 0.84638 0.0
C212 C 0.32364 0.55422 0.81725 0.0
C213 C 0.38074 0.52523 0.77667 0.0
H214 H 0.35737 0.46346 0.8126 0.0
C215 C 0.44117 0.43348 0.75992 0.0
C216 C 0.42847 0.41101 0.76806 0.0
C217 C 0.42606 0.45576 0.76131 0.0
C218 C 0.36358 0.48029 0.80143 0.0
H219 H 0.37931 0.59849 0.85261 0.0
H220 H 0.39457 0.56195 0.82406 0.0
H221 H 0.33813 0.50249 0.83018 0.0
H222 H 0.38939 0.39345 0.78042 0.0
H223 H 0.36218 0.43177 0.78005 0.0
H224 H 0.40584 0.50325 0.7475 0.0
C225 C 0.3723 0.56566 0.82612 0.0
C226 C 0.35263 0.50277 0.81186 0.0
C227 C 0.36361 0.58641 0.84254 0.0
C228 C 0.39964 0.41065 0.77419 0.0
C229 C 0.38425 0.43277 0.77455 0.0
C230 C 0.3912 0.50265 0.76563 0.0
C231 C 0.35238 0.54912 0.81386 0.0
C232 C 0.36161 0.52544 0.80009 0.0
C233 C 0.39766 0.4559 0.77012 0.0
C234 C 0.38338 0.4798 0.77839 0.0
H235 H 0.29268 0.57858 0.83592 0.0
H236 H 0.30792 0.54166 0.80808 0.0
H237 H 0.38781 0.54256 0.76712 0.0
H238 H 0.46351 0.43422 0.75543 0.0
H239 H 0.43744 0.47293 0.75776 0.0
C240 C 0.63986 0.57463 0.66106 0.0
C241 C 0.66837 0.5787 0.65472 0.0
C242 C 0.63196 0.55621 0.68106 0.0
C243 C 0.65322 0.49606 0.70679 0.0
H244 H 0.60166 0.50668 0.77151 0.0
C245 C 0.60921 0.41132 0.76415 0.0
C246 C 0.58023 0.41207 0.76936 0.0
C247 C 0.62434 0.43335 0.75993 0.0
C248 C 0.6159 0.50325 0.75341 0.0
H249 H 0.71093 0.56687 0.66425 0.0
H250 H 0.69701 0.53409 0.69848 0.0
H251 H 0.61814 0.54215 0.74291 0.0
H252 H 0.54471 0.43621 0.77692 0.0
H253 H 0.57039 0.47449 0.76816 0.0
H254 H 0.64968 0.45732 0.71518 0.0
C255 C 0.68089 0.54542 0.68836 0.0
C256 C 0.62541 0.52365 0.73716 0.0
C257 C 0.68882 0.56414 0.66885 0.0
C258 C 0.56719 0.43521 0.77336 0.0
C259 C 0.58206 0.45724 0.76814 0.0
C260 C 0.64327 0.47565 0.7225 0.0
C261 C 0.65239 0.54124 0.69459 0.0
C262 C 0.64388 0.52016 0.71347 0.0
C263 C 0.61048 0.45652 0.75951 0.0
C264 C 0.62409 0.4788 0.74584 0.0
H265 H 0.62373 0.58571 0.65057 0.0
H266 H 0.60983 0.55317 0.68529 0.0
H267 H 0.66726 0.49285 0.68842 0.0
H268 H 0.61966 0.39363 0.76088 0.0
H269 H 0.64646 0.43196 0.75475 0.0
C270 C 0.85737 0.90107 0.15296 0.0
C271 C 0.86705 0.88974 0.12683 0.0
C272 C 0.87442 0.91774 0.1689 0.0
C273 C 0.94842 0.94229 0.17445 0.0
H274 H 0.91143 -0.00059 0.20956 0.0
C275 C 0.99624 0.04028 0.19101 0.0
C276 C 0.99032 0.05324 0.21727 0.0
C277 C 0.98542 0.01639 0.18609 0.0
C278 C 0.92205 0.98333 0.20036 0.0
H279 H 0.90296 0.88677 0.09769 0.0
H280 H 0.9317 0.91698 0.1241 0.0
H281 H 0.88326 0.96593 0.18825 0.0
H282 H 0.96978 0.05099 0.25966 0.0
H283 H 0.95014 0.00929 0.2507 0.0
H284 H 0.98727 0.96102 0.18481 0.0
C285 C 0.91124 0.91248 0.13292 0.0
C286 C 0.9059 0.96401 0.18814 0.0
C287 C 0.89441 0.89544 0.11731 0.0
C288 C 0.97485 0.04129 0.23933 0.0
C289 C 0.96349 0.01755 0.23415 0.0
C290 C 0.96456 0.9619 0.18617 0.0
C291 C 0.90146 0.92401 0.15889 0.0
C292 C 0.91881 0.94339 0.17449 0.0
C293 C 0.96796 0.00525 0.20709 0.0
C294 C 0.95149 0.98276 0.19883 0.0
H295 H 0.83637 0.89746 0.16096 0.0
H296 H 0.86621 0.92581 0.18903 0.0
H297 H 0.95923 0.9265 0.16487 0.0
H298 H 0.0081 0.04913 0.17366 0.0
H299 H 0.98903 0.00738 0.16498 0.0
C300 C 0.86215 0.08721 0.60839 0.0
C301 C 0.84789 0.10582 0.62439 0.0
C302 C 0.88185 0.07197 0.62217 0.0
C303 C 0.90028 0.0427 0.6904 0.0
H304 H 0.97329 0.0342 0.65417 0.0
C305 C 0.97269 0.96209 0.72509 0.0
C306 C 0.98278 0.94837 0.70086 0.0
C307 C 0.96172 0.98606 0.72108 0.0
C308 C 0.95301 0.03629 0.6646 0.0
H309 H 0.84316 0.12243 0.66796 0.0
H310 H 0.87676 0.09476 0.69227 0.0
H311 H 0.94162 0.06644 0.63634 0.0
H312 H 0.99143 0.94966 0.65405 0.0
H313 H 0.97232 0.99084 0.64697 0.0
H314 H 0.91067 0.01144 0.71723 0.0
C315 C 0.87282 0.09252 0.66883 0.0
C316 C 0.93496 0.05483 0.65444 0.0
C317 C 0.85343 0.1082 0.65489 0.0
C318 C 0.98375 0.95976 0.67315 0.0
C319 C 0.97289 0.98356 0.66915 0.0
C320 C 0.91819 0.02384 0.7003 0.0
C321 C 0.88744 0.07448 0.65247 0.0
C322 C 0.9081 0.0577 0.66661 0.0
C323 C 0.96075 -0.00329 0.69279 0.0
C324 C 0.94441 0.01982 0.6868 0.0
H325 H 0.85796 0.08414 0.58514 0.0
H326 H 0.89242 0.05784 0.60918 0.0
H327 H 0.87963 0.04452 0.70009 0.0
H328 H 0.97138 0.9537 0.74665 0.0
H329 H 0.95291 0.99579 0.73988 0.0
C330 C 0.66582 0.4116 0.18935 0.0
C331 C 0.65231 0.39497 0.16984 0.0
C332 C 0.65007 0.4276 0.20727 0.0
C333 C 0.57902 0.45577 0.20978 0.0
H334 H 0.60737 0.48456 0.28293 0.0
C335 C 0.52365 0.5394 0.25846 0.0
C336 C 0.54215 0.55976 0.25993 0.0
C337 C 0.5342 0.51512 0.25805 0.0
C338 C 0.59904 0.47647 0.2627 0.0
H339 H 0.61203 0.38067 0.15497 0.0
H340 H 0.58443 0.40764 0.18713 0.0
H341 H 0.63147 0.44898 0.26068 0.0
H342 H 0.58558 0.57108 0.26484 0.0
H343 H 0.60407 0.52877 0.2647 0.0
H344 H 0.547 0.48347 0.21144 0.0
C345 C 0.60711 0.40922 0.18792 0.0
C346 C 0.61297 0.45623 0.24976 0.0
C347 C 0.62287 0.39363 0.1696 0.0
C348 C 0.57095 0.55556 0.26422 0.0
C349 C 0.5815 0.53132 0.26404 0.0
C350 C 0.56494 0.47569 0.2229 0.0
C351 C 0.62044 0.42697 0.2064 0.0
C352 C 0.60363 0.44608 0.22262 0.0
C353 C 0.56338 0.51094 0.25905 0.0
C354 C 0.5752 0.48674 0.24905 0.0
H355 H 0.68854 0.413 0.18978 0.0
H356 H 0.6612 0.44116 0.22078 0.0
H357 H 0.57135 0.44896 0.18866 0.0
H358 H 0.5014 0.54228 0.25458 0.0
H359 H 0.51973 0.49974 0.25449 0.0
C360 C 0.36899 0.41695 0.38422 0.0
C361 C 0.33954 0.41727 0.38511 0.0
C362 C 0.38379 0.43667 0.37173 0.0
C363 C 0.37555 0.49421 0.32677 0.0
H364 H 0.44359 0.51406 0.36855 0.0
C365 C 0.42917 0.5899 0.31119 0.0
C366 C 0.45831 0.58948 0.30635 0.0
C367 C 0.41504 0.56838 0.32 0.0
C368 C 0.42476 0.50862 0.35652 0.0
H369 H 0.30226 0.43784 0.37322 0.0
H370 H 0.328 0.47282 0.35206 0.0
H371 H 0.41812 0.47704 0.38387 0.0
H372 H 0.49569 0.56657 0.30804 0.0
H373 H 0.47099 0.52901 0.32384 0.0
H374 H 0.38191 0.52647 0.3001 0.0
C375 C 0.33981 0.45712 0.36026 0.0
C376 C 0.41019 0.48728 0.36515 0.0
C377 C 0.325 0.43715 0.37239 0.0
C378 C 0.47317 0.56736 0.31139 0.0
C379 C 0.45909 0.54592 0.32056 0.0
C380 C 0.38995 0.51574 0.3184 0.0
C381 C 0.36945 0.45741 0.3604 0.0
C382 C 0.38537 0.47975 0.3504 0.0
C383 C 0.42981 0.54613 0.32454 0.0
C384 C 0.41467 0.52317 0.33323 0.0
H385 H 0.38056 0.40172 0.39395 0.0
H386 H 0.40652 0.43586 0.37156 0.0
H387 H 0.35681 0.48884 0.31458 0.0
H388 H 0.41716 0.60664 0.30733 0.0
H389 H 0.39251 0.56913 0.32326 0.0
C390 C 0.1268 0.10656 0.88108 0.0
C391 C 0.15621 0.10524 0.87803 0.0
C392 C 0.10913 0.09008 0.86566 0.0
C393 C 0.10375 0.04734 0.80207 0.0
H394 H 0.05213 0.01074 0.85136 0.0
C395 C 0.05104 0.95474 0.76503 0.0
C396 C 0.02641 0.94709 0.77915 0.0
C397 C 0.06376 0.97748 0.77267 0.0
C398 C 0.06576 0.02112 0.8369 0.0
H399 H 0.18982 0.08585 0.85533 0.0
H400 H 0.15879 0.05754 0.82782 0.0
H401 H 0.08049 0.0439 0.87282 0.0
H402 H 0.99432 0.95768 0.81028 0.0
H403 H 0.01511 -0.00183 0.82206 0.0
H404 H 0.08888 0.02475 0.76601 0.0
C405 C 0.14957 0.07138 0.84232 0.0
C406 C 0.08224 0.04008 0.8494 0.0
C407 C 0.16733 0.08766 0.85808 0.0
C408 C 0.01333 0.96332 0.79909 0.0
C409 C 0.02559 0.98632 0.80616 0.0
C410 C 0.08686 0.0286 0.78938 0.0
C411 C 0.12033 0.07212 0.8464 0.0
C412 C 0.10168 0.05316 0.83226 0.0
C413 C 0.0518 0.99317 0.79429 0.0
C414 C 0.06786 0.01494 0.80671 0.0
H415 H 0.11735 0.12023 0.89561 0.0
H416 H 0.08664 0.09127 0.86895 0.0
H417 H 0.11843 0.0573 0.7883 0.0
H418 H 0.06168 0.94225 0.74991 0.0
H419 H 0.08395 0.98182 0.76309 0.0
C420 C 0.14785 0.15283 0.98099 0.0
C421 C 0.1764 0.14932 0.97429 0.0
C422 C 0.13939 0.15825 0.00976 0.0
C423 C 0.16307 0.15496 0.08804 0.0
H424 H 0.09508 0.1932 0.09934 0.0
C425 C 0.09295 0.14446 0.1898 0.0
C426 C 0.07222 0.16232 0.19543 0.0
C427 C 0.11247 0.14811 0.16727 0.0
C428 C 0.11451 0.18297 0.09705 0.0
H429 H 0.21848 0.14917 0.99308 0.0
H430 H 0.20381 0.15968 0.04309 0.0
H431 H 0.11531 0.1901 0.05084 0.0
H432 H 0.05741 0.1991 0.1846 0.0
H433 H 0.09294 0.2066 0.14713 0.0
H434 H 0.16264 0.14843 0.13453 0.0
C435 C 0.18785 0.15766 0.02609 0.0
C436 C 0.12584 0.18073 0.06881 0.0
C437 C 0.19632 0.15193 0.99724 0.0
C438 C 0.07341 0.18515 0.18078 0.0
C439 C 0.09342 0.18913 0.15882 0.0
C440 C 0.15199 0.15757 0.11649 0.0
C441 C 0.15921 0.16079 0.0328 0.0
C442 C 0.14966 0.16594 0.06364 0.0
C443 C 0.11189 0.16994 0.15023 0.0
C444 C 0.12696 0.17093 0.1213 0.0
H445 H 0.13186 0.15145 0.96394 0.0
H446 H 0.1171 0.16 0.01394 0.0
H447 H 0.18146 0.14342 0.08509 0.0
H448 H 0.09205 0.12649 0.20044 0.0
H449 H 0.12611 0.13275 0.16158 0.0
C450 C 0.33269 0.35974 0.49707 0.0
C451 C 0.32152 0.38069 0.483 0.0
C452 C 0.34294 0.36164 0.52606 0.0
C453 C 0.3728 0.40957 0.57593 0.0
H454 H 0.37586 0.35524 0.6315 0.0
C455 C 0.46237 0.39784 0.65922 0.0
C456 C 0.45713 0.38729 0.68687 0.0
C457 C 0.44072 0.40056 0.63864 0.0
C458 C 0.37479 0.37079 0.6165 0.0
H459 H 0.3101 0.41941 0.48877 0.0
H460 H 0.32716 0.4226 0.53951 0.0
H461 H 0.34566 0.35172 0.58783 0.0
H462 H 0.42474 0.37248 0.71524 0.0
H463 H 0.38665 0.3773 0.67908 0.0
H464 H 0.40223 0.42846 0.60425 0.0
C465 C 0.32888 0.40489 0.52804 0.0
C466 C 0.35776 0.36863 0.59127 0.0
C467 C 0.31894 0.40305 0.49906 0.0
C468 C 0.42938 0.38085 0.69419 0.0
C469 C 0.40765 0.38335 0.67338 0.0
C470 C 0.38976 0.41171 0.60109 0.0
C471 C 0.34199 0.3845 0.54156 0.0
C472 C 0.35708 0.38777 0.57029 0.0
C473 C 0.41327 0.39263 0.64508 0.0
C474 C 0.39159 0.39209 0.62126 0.0
H475 H 0.33507 0.34235 0.48508 0.0
H476 H 0.35307 0.34558 0.53564 0.0
H477 H 0.37313 0.42461 0.56021 0.0
H478 H 0.48353 0.403 0.65296 0.0
H479 H 0.44589 0.40757 0.61701 0.0
C480 C 0.66416 0.35056 0.04815 0.0
C481 C 0.67265 0.37087 0.06579 0.0
C482 C 0.65508 0.35425 0.01904 0.0
C483 C 0.62574 0.40446 0.97231 0.0
H484 H 0.62899 0.35346 0.9114 0.0
C485 C 0.54345 0.39642 0.88058 0.0
C486 C 0.55034 0.3863 0.85289 0.0
C487 C 0.56364 0.39851 0.90288 0.0
C488 C 0.62832 0.36815 0.9279 0.0
H489 H 0.68022 0.41062 0.06644 0.0
H490 H 0.66562 0.41702 0.01546 0.0
H491 H 0.65581 0.34835 0.95696 0.0
H492 H 0.58435 0.37196 0.8262 0.0
H493 H 0.62004 0.37583 0.86537 0.0
H494 H 0.5984 0.42429 0.94331 0.0
C495 C 0.66484 0.39834 0.02418 0.0
C496 C 0.64337 0.36503 0.9543 0.0
C497 C 0.67342 0.39469 0.05335 0.0
C498 C 0.57844 0.37991 0.8473 0.0
C499 C 0.59877 0.38186 0.86984 0.0
C500 C 0.61094 0.40766 0.94591 0.0
C501 C 0.65468 0.37832 0.00684 0.0
C502 C 0.64166 0.38283 0.97723 0.0
C503 C 0.59137 0.39051 0.89819 0.0
C504 C 0.61127 0.3892 0.92372 0.0
H505 H 0.66324 0.33203 0.05732 0.0
H506 H 0.64715 0.33837 0.00664 0.0
H507 H 0.62353 0.41854 0.98937 0.0
H508 H 0.52199 0.40158 0.88556 0.0
H509 H 0.55697 0.40502 0.92439 0.0
C510 C 0.82528 0.17651 0.52597 0.0
C511 C 0.81949 0.15177 0.53363 0.0
C512 C 0.83489 0.18213 0.49762 0.0
C513 C 0.84099 0.15868 0.42114 0.0
H514 H 0.9143 0.19027 0.42252 0.0
C515 C 0.92191 0.14406 0.329 0.0
C516 C 0.94485 0.16038 0.32697 0.0
C517 C 0.90063 0.1486 0.34952 0.0
C518 C 0.8935 0.1821 0.42124 0.0
H519 H 0.81777 0.1137 0.51766 0.0
H520 H 0.8338 0.12355 0.4679 0.0
H521 H 0.88735 0.18787 0.46754 0.0
H522 H 0.96246 0.19531 0.34238 0.0
H523 H 0.92429 0.20445 0.37644 0.0
H524 H 0.847 0.15281 0.37487 0.0
C525 C 0.83107 0.13859 0.4837 0.0
C526 C 0.8781 0.18061 0.4473 0.0
C527 C 0.82203 0.13293 0.51215 0.0
C528 C 0.94481 0.18255 0.3435 0.0
C529 C 0.92316 0.18747 0.36344 0.0
C530 C 0.85615 0.16061 0.39485 0.0
C531 C 0.83829 0.16314 0.47636 0.0
C532 C 0.85209 0.16824 0.44773 0.0
C533 C 0.90168 0.1698 0.36814 0.0
C534 C 0.8831 0.17163 0.39466 0.0
H535 H 0.82364 0.19129 0.54228 0.0
H536 H 0.84032 0.2012 0.49252 0.0
H537 H 0.82083 0.14922 0.42082 0.0
H538 H 0.92183 0.12661 0.31682 0.0
H539 H 0.88475 0.13437 0.35234 0.0
C540 C 0.83297 0.87277 0.01203 0.0
C541 C 0.83707 0.85187 0.02983 0.0
C542 C 0.83697 0.87115 0.98153 0.0
C543 C 0.85036 0.82545 0.91958 0.0
H544 H 0.88579 0.88294 0.88436 0.0
C545 C 0.93169 0.82498 0.82656 0.0
C546 C 0.93219 0.84509 0.80706 0.0
C547 C 0.91052 0.8231 0.84764 0.0
C548 C 0.87531 0.86688 0.8936 0.0
H549 H 0.84825 0.81289 0.02998 0.0
H550 H 0.85679 0.81022 0.97714 0.0
H551 H 0.86862 0.88582 0.93441 0.0
H552 H 0.90993 0.87774 0.7923 0.0
H553 H 0.87295 0.87473 0.82952 0.0
H554 H 0.85946 0.80609 0.87909 0.0
C555 C 0.84944 0.8277 0.98622 0.0
C556 C 0.86537 0.8685 0.92245 0.0
C557 C 0.84482 0.82922 0.01662 0.0
C558 C 0.90966 0.86185 0.80684 0.0
C559 C 0.88873 0.86027 0.82832 0.0
C560 C 0.86084 0.82372 0.89083 0.0
C561 C 0.84587 0.84872 0.9682 0.0
C562 C 0.8533 0.84766 0.93619 0.0
C563 C 0.8899 0.84166 0.84993 0.0
C564 C 0.8739 0.84431 0.87777 0.0
H565 H 0.82666 0.89037 0.02175 0.0
H566 H 0.8333 0.88761 0.9685 0.0
H567 H 0.84059 0.80915 0.92898 0.0
H568 H 0.94915 0.81209 0.82737 0.0
H569 H 0.91208 0.80865 0.86406 0.0
C570 C 0.65798 0.63745 0.53751 0.0
C571 C 0.66244 0.61519 0.55299 0.0
C572 C 0.64731 0.63701 0.50866 0.0
C573 C 0.60516 0.59957 0.45642 0.0
H574 H 0.63861 0.6425 0.39794 0.0
C575 C 0.55895 0.60701 0.33751 0.0
C576 C 0.55671 0.6315 0.32708 0.0
C577 C 0.57498 0.60198 0.36295 0.0
C578 C 0.62884 0.6305 0.414 0.0
H579 H 0.65926 0.5749 0.54955 0.0
H580 H 0.63983 0.57431 0.4996 0.0
H581 H 0.65944 0.64024 0.44706 0.0
H582 H 0.57069 0.66959 0.33427 0.0
H583 H 0.59795 0.661 0.37813 0.0
H584 H 0.57388 0.59056 0.42372 0.0
C585 C 0.64464 0.59209 0.50997 0.0
C586 C 0.64084 0.62921 0.44218 0.0
C587 C 0.65566 0.59249 0.53872 0.0
C588 C 0.57182 0.65051 0.34172 0.0
C589 C 0.58775 0.64552 0.36689 0.0
C590 C 0.59292 0.60106 0.42824 0.0
C591 C 0.64047 0.61434 0.49454 0.0
C592 C 0.62886 0.61411 0.46392 0.0
C593 C 0.58922 0.6213 0.37825 0.0
C594 C 0.60425 0.61698 0.40684 0.0
H595 H 0.66235 0.65534 0.54779 0.0
H596 H 0.64392 0.65452 0.49754 0.0
H597 H 0.59537 0.58781 0.47272 0.0
H598 H 0.54754 0.59196 0.32672 0.0
H599 H 0.57589 0.58303 0.37085 0.0
C600 C 0.33465 0.60832 0.96159 0.0
C601 C 0.33211 0.63104 0.94662 0.0
C602 C 0.34424 0.60772 0.99076 0.0
C603 C 0.35586 0.64495 0.05875 0.0
H604 H 0.41506 0.59702 0.07257 0.0
C605 C 0.42913 0.64605 0.16252 0.0
C606 C 0.44137 0.62343 0.17087 0.0
C607 C 0.41089 0.6469 0.13807 0.0
C608 C 0.39811 0.61016 0.06951 0.0
H609 H 0.33674 0.67108 0.95127 0.0
H610 H 0.35329 0.67 1.00249 0.0
H611 H 0.39282 0.59893 0.02447 0.0
H612 H 0.44239 0.58379 0.16236 0.0
H613 H 0.40926 0.58485 0.12124 0.0
H614 H 0.36124 0.65616 0.10402 0.0
C615 C 0.34777 0.65266 0.99147 0.0
C616 C 0.38545 0.61133 0.04172 0.0
C617 C 0.3383 0.65326 0.96212 0.0
C618 C 0.43318 0.60145 0.15627 0.0
C619 C 0.41454 0.60218 0.13239 0.0
C620 C 0.36839 0.64362 0.08683 0.0
C621 C 0.35139 0.62982 0.00591 0.0
C622 C 0.3642 0.62871 0.03593 0.0
C623 C 0.40437 0.62505 0.12187 0.0
C624 C 0.38972 0.62615 0.0926 0.0
H625 H 0.32936 0.59088 0.9507 0.0
H626 H 0.34629 0.58985 1.00143 0.0
H627 H 0.33943 0.65848 0.05498 0.0
H628 H 0.43549 0.6633 0.17324 0.0
H629 H 0.40355 0.66487 0.13073 0.0
C630 C 0.17125 0.84923 0.47222 0.0
C631 C 0.16334 0.82976 0.45302 0.0
C632 C 0.1655 0.84786 0.50235 0.0
C633 C 0.13851 0.80531 0.56139 0.0
H634 H 0.11303 0.86763 0.5955 0.0
C635 C 0.05629 0.81588 0.65354 0.0
C636 C 0.05858 0.83625 0.67303 0.0
C637 C 0.07684 0.81165 0.63217 0.0
C638 C 0.12065 0.85013 0.58665 0.0
H639 H 0.144 0.79333 0.45014 0.0
H640 H 0.13269 0.79126 0.50252 0.0
H641 H 0.13349 0.86735 0.54681 0.0
H642 H 0.0847 0.86736 0.68672 0.0
H643 H 0.12083 0.85995 0.64946 0.0
H644 H 0.12362 0.78805 0.60091 0.0
C645 C 0.14414 0.80732 0.49471 0.0
C646 C 0.13249 0.84993 0.55856 0.0
C647 C 0.15044 0.8085 0.46461 0.0
C648 C 0.08281 0.8512 0.67235 0.0
C649 C 0.10327 0.84713 0.6508 0.0
C650 C 0.12624 0.80549 0.58942 0.0
C651 C 0.15103 0.82725 0.51394 0.0
C652 C 0.14118 0.82748 0.54522 0.0
C653 C 0.09977 0.82806 0.62957 0.0
C654 C 0.11678 0.82787 0.60215 0.0
H655 H 0.18148 0.86572 0.46377 0.0
H656 H 0.1719 0.86329 0.51643 0.0
H657 H 0.14541 0.78771 0.5522 0.0
H658 H 0.03746 0.80446 0.65325 0.0
H659 H 0.07339 0.79694 0.61603 0.0
C660 C 0.24295 0.30189 0.36923 0.0
C661 C 0.24396 0.32483 0.35467 0.0
C662 C 0.22573 0.28261 0.35855 0.0
C663 C 0.18475 0.26067 0.29274 0.0
H664 H 0.14544 0.22198 0.35133 0.0
C665 C 0.09106 0.19158 0.26906 0.0
C666 C 0.0903 0.17022 0.28671 0.0
C667 C 0.11219 0.20963 0.27349 0.0
C668 C 0.15651 0.23238 0.33463 0.0
H669 H 0.22823 0.34543 0.31726 0.0
H670 H 0.19762 0.31196 0.29892 0.0
H671 H 0.17703 0.25511 0.36713 0.0
H672 H 0.11248 0.14977 0.32059 0.0
H673 H 0.14932 0.18071 0.32781 0.0
H674 H 0.16344 0.23794 0.26023 0.0
C675 C 0.21041 0.30868 0.31832 0.0
C676 C 0.17472 0.2514 0.34372 0.0
C677 C 0.22779 0.32793 0.32894 0.0
C678 C 0.11227 0.16622 0.30695 0.0
C679 C 0.1333 0.18404 0.31124 0.0
C680 C 0.1663 0.2416 0.28359 0.0
C681 C 0.20893 0.28583 0.33317 0.0
C682 C 0.18932 0.2657 0.32298 0.0
C683 C 0.13283 0.20646 0.29557 0.0
C684 C 0.15221 0.22707 0.3045 0.0
H685 H 0.25541 0.29879 0.38892 0.0
H686 H 0.22562 0.26513 0.37024 0.0
H687 H 0.19577 0.27119 0.27613 0.0
H688 H 0.07431 0.19519 0.25339 0.0
H689 H 0.11133 0.22669 0.26099 0.0
C690 C 0.30072 0.17152 0.87471 0.0
C691 C 0.27943 0.16825 0.85341 0.0
C692 C 0.3268 0.1815 0.86691 0.0
C693 C 0.37233 0.19724 0.80272 0.0
H694 H 0.4037 0.24536 0.85808 0.0
C695 C 0.45283 0.27507 0.77442 0.0
C696 C 0.47016 0.28389 0.79744 0.0
C697 C 0.43439 0.25507 0.77916 0.0
C698 C 0.39568 0.23159 0.84255 0.0
H699 H 0.26891 0.17224 0.80718 0.0
H700 H 0.31418 0.19036 0.79363 0.0
H701 H 0.3614 0.22288 0.87076 0.0
H702 H 0.48446 0.27717 0.842 0.0
H703 H 0.45356 0.24157 0.84981 0.0
H704 H 0.40639 0.20692 0.77405 0.0
C705 C 0.311 0.18482 0.81626 0.0
C706 C 0.37126 0.21866 0.84986 0.0
C707 C 0.28497 0.17463 0.82405 0.0
C708 C 0.47139 0.27057 0.82386 0.0
C709 C 0.45333 0.25045 0.82847 0.0
C710 C 0.39684 0.21034 0.79531 0.0
C711 C 0.33217 0.18869 0.83768 0.0
C712 C 0.35909 0.2014 0.83004 0.0
C713 C 0.43325 0.2436 0.80694 0.0
C714 C 0.40876 0.22775 0.81515 0.0
H715 H 0.29726 0.16647 0.89747 0.0
H716 H 0.34274 0.1837 0.88391 0.0
H717 H 0.36374 0.18389 0.78701 0.0
H718 H 0.45119 0.28533 0.75402 0.0
H719 H 0.41926 0.25026 0.76206 0.0
C720 C 0.68313 0.17268 0.61152 0.0
C721 C 0.70921 0.17034 0.62582 0.0
C722 C 0.66004 0.18264 0.62636 0.0
C723 C 0.63276 0.19966 0.7009 0.0
H724 H 0.58717 0.24549 0.65585 0.0
C725 C 0.56154 0.27654 0.75077 0.0
C726 C 0.53876 0.28479 0.7337 0.0
C727 C 0.57816 0.25669 0.74086 0.0
C728 C 0.59919 0.23233 0.66871 0.0
H729 H 0.73153 0.1763 0.66714 0.0
H730 H 0.69137 0.19431 0.69296 0.0
H731 H 0.62511 0.22348 0.63188 0.0
H732 H 0.51366 0.27744 0.69467 0.0
H733 H 0.5416 0.24202 0.67809 0.0
H734 H 0.60714 0.20941 0.73807 0.0
C735 C 0.68855 0.18799 0.67038 0.0
C736 C 0.62112 0.21969 0.6549 0.0
C737 C 0.71166 0.17782 0.65552 0.0
C738 C 0.53089 0.27115 0.70844 0.0
C739 C 0.54725 0.25118 0.69869 0.0
C740 C 0.61075 0.21243 0.71482 0.0
C741 C 0.6625 0.1908 0.65587 0.0
C742 C 0.63837 0.2033 0.67077 0.0
C743 C 0.57216 0.24481 0.71371 0.0
C744 C 0.59376 0.22905 0.6989 0.0
H745 H 0.68061 0.16689 0.58869 0.0
H746 H 0.64023 0.18404 0.61459 0.0
H747 H 0.64539 0.18696 0.71376 0.0
H748 H 0.5684 0.28717 0.76996 0.0
H749 H 0.59716 0.25235 0.75302 0.0
C750 C 0.76321 0.29247 0.17054 0.0
C751 C 0.76064 0.31534 0.18553 0.0
C752 C 0.78153 0.2742 0.18109 0.0
C753 C 0.84506 0.26618 0.2269 0.0
H754 H 0.8237 0.19647 0.22427 0.0
C755 C 0.92382 0.18921 0.25932 0.0
C756 C 0.92542 0.16974 0.23851 0.0
C757 C 0.90116 0.20587 0.25866 0.0
C758 C 0.83003 0.21585 0.22512 0.0
H759 H 0.77492 0.33699 0.22331 0.0
H760 H 0.807 0.30515 0.24168 0.0
H761 H 0.7895 0.22811 0.21053 0.0
H762 H 0.90384 0.15151 0.20194 0.0
H763 H 0.86478 0.18033 0.20066 0.0
H764 H 0.88585 0.25392 0.24052 0.0
C765 C 0.79504 0.30136 0.22172 0.0
C766 C 0.81044 0.23398 0.21716 0.0
C767 C 0.77662 0.31954 0.21126 0.0
C768 C 0.90324 0.16639 0.21824 0.0
C769 C 0.88067 0.18286 0.21765 0.0
C770 C 0.86471 0.24803 0.23473 0.0
C771 C 0.79774 0.27847 0.20675 0.0
C772 C 0.81788 0.25933 0.2174 0.0
C773 C 0.87967 0.20323 0.23728 0.0
C774 C 0.85764 0.2226 0.23332 0.0
H775 H 0.75114 0.28865 0.15066 0.0
H776 H 0.78338 0.25689 0.16882 0.0
H777 H 0.85155 0.28553 0.22712 0.0
H778 H 0.94078 0.19244 0.27494 0.0
H779 H 0.90088 0.22123 0.2743 0.0
C780 C 0.75973 0.69617 0.64893 0.0
C781 C 0.76232 0.67298 0.66271 0.0
C782 C 0.77644 0.71636 0.6581 0.0
C783 C 0.82194 0.73967 0.71977 0.0
H784 H 0.85333 0.78119 0.65874 0.0
C785 C 0.91454 0.8104 0.73725 0.0
C786 C 0.91438 0.83165 0.71944 0.0
C787 C 0.89315 0.79242 0.73426 0.0
C788 C 0.8444 0.77008 0.67618 0.0
H789 H 0.78405 0.65279 0.69703 0.0
H790 H 0.81356 0.68786 0.71273 0.0
H791 H 0.82204 0.74715 0.64517 0.0
H792 H 0.8904 0.85212 0.68698 0.0
H793 H 0.85287 0.82144 0.68253 0.0
H794 H 0.84493 0.76257 0.75073 0.0
C795 C 0.79841 0.69063 0.69515 0.0
C796 C 0.82641 0.75049 0.66834 0.0
C797 C 0.78167 0.67047 0.68601 0.0
C798 C 0.89125 0.83573 0.70072 0.0
C799 C 0.86987 0.81803 0.69796 0.0
C800 C 0.84006 0.75935 0.72764 0.0
C801 C 0.79615 0.71382 0.6812 0.0
C802 C 0.81489 0.73501 0.68998 0.0
C803 C 0.87123 0.79557 0.71356 0.0
C804 C 0.85143 0.77486 0.70591 0.0
H805 H 0.74484 0.69877 0.63106 0.0
H806 H 0.77381 0.73403 0.64713 0.0
H807 H 0.81326 0.72826 0.73706 0.0
H808 H 0.9322 0.80674 0.75176 0.0
H809 H 0.89481 0.77537 0.7467 0.0
C810 C 0.74943 0.7905 0.14413 0.0
C811 C 0.75827 0.8113 0.16077 0.0
C812 C 0.72777 0.77527 0.15421 0.0
C813 C 0.66646 0.77445 0.20339 0.0
H814 H 0.67142 0.70325 0.18965 0.0
C815 C 0.58008 0.70094 0.2352 0.0
C816 C 0.57372 0.68397 0.21225 0.0
C817 C 0.60271 0.71763 0.23252 0.0
C818 C 0.66974 0.72311 0.19364 0.0
H819 H 0.75161 0.83242 0.20102 0.0
H820 H 0.71368 0.80558 0.21886 0.0
H821 H 0.71159 0.72974 0.17878 0.0
H822 H 0.58531 0.6721 0.16802 0.0
H823 H 0.62429 0.70087 0.16357 0.0
H824 H 0.62425 0.76757 0.21794 0.0
C825 C 0.72337 0.80122 0.19789 0.0
C826 C 0.6927 0.73829 0.18733 0.0
C827 C 0.74514 0.81648 0.18779 0.0
C828 C 0.58974 0.68466 0.18632 0.0
C829 C 0.61223 0.70109 0.18376 0.0
C830 C 0.64341 0.75916 0.20986 0.0
C831 C 0.71445 0.78042 0.18119 0.0
C832 C 0.69109 0.76421 0.19131 0.0
C833 C 0.61936 0.71739 0.20699 0.0
C834 C 0.64461 0.73343 0.20422 0.0
H835 H 0.75904 0.78602 0.12317 0.0
H836 H 0.7211 0.75966 0.14053 0.0
H837 H 0.66453 0.79437 0.20662 0.0
H838 H 0.56813 0.70087 0.25545 0.0
H839 H 0.60775 0.73012 0.25071 0.0
C840 C 0.25822 0.80247 0.29781 0.0
C841 C 0.23828 0.79257 0.31713 0.0
C842 C 0.27803 0.78709 0.28428 0.0
C843 C 0.3116 0.72494 0.29152 0.0
H844 H 0.34394 0.74303 0.21634 0.0
C845 C 0.40376 0.67012 0.24116 0.0
C846 C 0.42754 0.68553 0.23846 0.0
C847 C 0.37703 0.6806 0.24448 0.0
C848 C 0.33491 0.73764 0.23722 0.0
H849 H 0.22267 0.75864 0.33671 0.0
H850 H 0.25659 0.73149 0.31227 0.0
H851 H 0.30334 0.76577 0.23497 0.0
H852 H 0.44179 0.72367 0.23429 0.0
H853 H 0.39505 0.74187 0.23888 0.0
H854 H 0.34329 0.69673 0.29351 0.0
C855 C 0.2576 0.7513 0.30819 0.0
C856 C 0.31181 0.75081 0.24812 0.0
C857 C 0.23802 0.76682 0.32213 0.0
C858 C 0.42381 0.71138 0.23633 0.0
C859 C 0.39706 0.72179 0.23895 0.0
C860 C 0.33435 0.71149 0.28033 0.0
C861 C 0.27812 0.76125 0.28928 0.0
C862 C 0.30035 0.74517 0.27588 0.0
C863 C 0.3736 0.70658 0.24435 0.0
C864 C 0.34669 0.71812 0.25345 0.0
H865 H 0.25892 0.8223 0.29366 0.0
H866 H 0.29374 0.79569 0.2705 0.0
H867 H 0.30377 0.72014 0.3131 0.0
H868 H 0.40605 0.65014 0.24308 0.0
H869 H 0.35922 0.66848 0.24846 0.0
C870 C 0.25523 0.70229 0.79487 0.0
C871 C 0.25372 0.6915 0.82292 0.0
C872 C 0.23322 0.71702 0.78425 0.0
C873 C 0.15759 0.72796 0.79336 0.0
H874 H 0.17216 0.79332 0.76102 0.0
C875 C 0.07336 0.80295 0.79011 0.0
C876 C 0.07218 0.82011 0.76695 0.0
C877 C 0.09484 0.78551 0.79172 0.0
C878 C 0.16773 0.77491 0.76938 0.0
H879 H 0.22795 0.68755 0.86188 0.0
H880 H 0.18944 0.71306 0.84328 0.0
H881 H 0.21154 0.76647 0.77459 0.0
H882 H 0.09263 0.83237 0.72726 0.0
H883 H 0.13046 0.80132 0.72962 0.0
H884 H 0.11392 0.73627 0.78846 0.0
C885 C 0.20764 0.71013 0.82945 0.0
C886 C 0.19029 0.75959 0.7773 0.0
C887 C 0.22977 0.69566 0.84019 0.0
C888 C 0.09272 0.81904 0.74492 0.0
C889 C 0.11454 0.8015 0.74658 0.0
C890 C 0.13511 0.74312 0.78523 0.0
C891 C 0.20909 0.72093 0.80135 0.0
C892 C 0.18542 0.73624 0.79014 0.0
C893 C 0.11593 0.78465 0.77022 0.0
C894 C 0.13985 0.7671 0.77399 0.0
H895 H 0.27346 0.6993 0.78111 0.0
H896 H 0.23487 0.725 0.76248 0.0
H897 H 0.15318 0.70984 0.80258 0.0
H898 H 0.05781 0.80328 0.80747 0.0
H899 H 0.09542 0.77325 0.81054 0.0
loop_
_geom_bond_atom_site_label_1
_geom_bond_atom_site_label_2
_geom_bond_distance
_geom_bond_site_symmetry_2
_ccdc_geom_bond_type
H0 C5 0.930 . S
H1 C8 0.930 . S
H2 C10 0.930 . S
H3 C4 1.016 . S
C4 H3 1.016 . S
C4 N11 1.286 . S
C5 H0 0.930 . S
C5 C6 1.397 . S
C5 C7 1.361 . S
C6 C5 1.397 . S
C6 C10 1.390 . S
C7 C5 1.361 . S
C7 C8 1.393 . S
C7 N11 1.413 . S
C8 H1 0.930 . S
C8 C7 1.393 . S
C8 C9 1.399 . S
C9 C8 1.399 . S
C9 C10 1.381 . S
C10 H2 0.930 . S
C10 C6 1.390 . S
C10 C9 1.381 . S
N11 C4 1.286 . S
N11 C7 1.413 . S
H12 C17 0.930 . S
H13 C20 0.930 . S
H14 C22 0.930 . S
H15 C16 1.016 . S
C16 H15 1.016 . S
C16 N23 1.286 . S
C17 H12 0.930 . S
C17 C18 1.397 . S
C17 C19 1.361 . S
C18 C17 1.397 . S
C18 C22 1.390 . S
C19 C17 1.361 . S
C19 C20 1.393 . S
C19 N23 1.413 . S
C20 H13 0.930 . S
C20 C19 1.393 . S
C20 C21 1.399 . S
C21 C20 1.399 . S
C21 C22 1.381 . S
C22 H14 0.930 . S
C22 C18 1.390 . S
C22 C21 1.381 . S
N23 C16 1.286 . S
N23 C19 1.413 . S
H24 C29 0.930 . S
H25 C32 0.930 . S
H26 C34 0.930 . S
H27 C28 1.016 . S
C28 H27 1.016 . S
C28 N35 1.286 . S
C29 H24 0.930 . S
C29 C30 1.397 . S
C29 C31 1.361 . S
C30 C29 1.397 . S
C30 C34 1.390 . S
C31 C29 1.361 . S
C31 C32 1.393 . S
C31 N35 1.413 . S
C32 H25 0.930 . S
C32 C31 1.393 . S
C32 C33 1.399 . S
C33 C32 1.399 . S
C33 C34 1.381 . S
C34 H26 0.930 . S
C34 C30 1.390 . S
C34 C33 1.381 . S
N35 C28 1.286 . S
N35 C31 1.413 . S
H36 C41 0.930 . S
H37 C44 0.930 . S
H38 C46 0.930 . S
H39 C40 1.016 . S
C40 H39 1.016 . S
C40 N47 1.286 . S
C41 H36 0.930 . S
C41 C42 1.397 . S
C41 C43 1.361 . S
C42 C41 1.397 . S
C42 C46 1.390 . S
C43 C41 1.361 . S
C43 C44 1.393 . S
C43 N47 1.413 . S
C44 H37 0.930 . S
C44 C43 1.393 . S
C44 C45 1.399 . S
C45 C44 1.399 . S
C45 C46 1.381 . S
C46 H38 0.930 . S
C46 C42 1.390 . S
C46 C45 1.381 . S
N47 C40 1.286 . S
N47 C43 1.413 . S
H48 C53 0.930 . S
H49 C56 0.930 . S
H50 C58 0.930 . S
H51 C52 1.016 . S
C52 H51 1.016 . S
C52 N59 1.286 . S
C53 H48 0.930 . S
C53 C54 1.397 . S
C53 C55 1.361 . S
C54 C53 1.397 . S
C54 C58 1.390 . S
C55 C53 1.361 . S
C55 C56 1.393 . S
C55 N59 1.413 . S
C56 H49 0.930 . S
C56 C55 1.393 . S
C56 C57 1.399 . S
C57 C56 1.399 . S
C57 C58 1.381 . S
C58 H50 0.930 . S
C58 C54 1.390 . S
C58 C57 1.381 . S
N59 C52 1.286 . S
N59 C55 1.413 . S
H60 C65 0.930 . S
H61 C68 0.930 . S
H62 C70 0.930 . S
H63 C64 1.016 . S
C64 H63 1.016 . S
C64 N71 1.286 . S
C65 H60 0.930 . S
C65 C66 1.397 . S
C65 C67 1.361 . S
C66 C65 1.397 . S
C66 C70 1.390 . S
C67 C65 1.361 . S
C67 C68 1.393 . S
C67 N71 1.413 . S
C68 H61 0.930 . S
C68 C67 1.393 . S
C68 C69 1.399 . S
C69 C68 1.399 . S
C69 C70 1.381 . S
C70 H62 0.930 . S
C70 C66 1.390 . S
C70 C69 1.381 . S
N71 C64 1.286 . S
N71 C67 1.413 . S
H72 C77 0.930 . S
H73 C80 0.930 . S
H74 C82 0.930 . S
H75 C76 1.016 . S
C76 H75 1.016 . S
C76 N83 1.286 . S
C77 H72 0.930 . S
C77 C78 1.397 . S
C77 C79 1.361 . S
C78 C77 1.397 . S
C78 C82 1.390 . S
C79 C77 1.361 . S
C79 C80 1.393 . S
C79 N83 1.413 . S
C80 H73 0.930 . S
C80 C79 1.393 . S
C80 C81 1.399 . S
C81 C80 1.399 . S
C81 C82 1.381 . S
C82 H74 0.930 . S
C82 C78 1.390 . S
C82 C81 1.381 . S
N83 C76 1.286 . S
N83 C79 1.413 . S
H84 C89 0.930 . S
H85 C92 0.930 . S
H86 C94 0.930 . S
H87 C88 1.016 . S
C88 H87 1.016 . S
C88 N95 1.286 . S
C89 H84 0.930 . S
C89 C90 1.397 . S
C89 C91 1.361 . S
C90 C89 1.397 . S
C90 C94 1.390 . S
C91 C89 1.361 . S
C91 C92 1.393 . S
C91 N95 1.413 . S
C92 H85 0.930 . S
C92 C91 1.393 . S
C92 C93 1.399 . S
C93 C92 1.399 . S
C93 C94 1.381 . S
C94 H86 0.930 . S
C94 C90 1.390 . S
C94 C93 1.381 . S
N95 C88 1.286 . S
N95 C91 1.413 . S
Zn96 O102 1.920 1_455 S
Zn96 O108 1.898 . S
Zn96 O111 1.905 . S
Zn97 O105 1.905 1_655 S
Zn97 O106 1.898 . S
Zn97 O114 1.920 . S
Zn98 O101 2.080 1_455 S
Zn98 O104 2.114 . S
Zn98 O107 2.120 1_455 S
Zn98 O109 2.120 . S
Zn98 O110 2.114 . S
Zn98 O113 2.080 1_455 S
C99 O104 1.166 . S
C99 O105 1.182 . S
C100 O106 1.167 . S
C100 O107 1.299 . S
O101 Zn98 2.080 1_655 S
O101 C115 1.305 . S
O102 Zn96 1.920 1_655 S
O102 C115 1.234 . S
C103 O108 1.167 . S
C103 O109 1.299 . S
O104 Zn98 2.114 . S
O104 C99 1.166 . S
O105 Zn97 1.905 1_455 S
O105 C99 1.182 . S
O106 Zn97 1.898 . S
O106 C100 1.167 . S
O107 Zn98 2.120 1_655 S
O107 C100 1.299 . S
O108 Zn96 1.898 . S
O108 C103 1.167 . S
O109 Zn98 2.120 . S
O109 C103 1.299 . S
O110 Zn98 2.114 . S
O110 C112 1.166 . S
O111 Zn96 1.905 . S
O111 C112 1.182 . S
C112 O110 1.166 . S
C112 O111 1.182 . S
O113 Zn98 2.080 1_655 S
O113 C116 1.305 . S
O114 Zn97 1.920 . S
O114 C116 1.234 . S
C115 O101 1.305 . S
C115 O102 1.234 . S
C116 O113 1.305 . S
C116 O114 1.234 . S
Zn117 O123 1.920 . S
Zn117 O129 1.898 . S
Zn117 O132 1.905 . S
Zn118 O126 1.905 . S
Zn118 O127 1.898 . S
Zn118 O135 1.920 . S
Zn119 O122 2.080 . S
Zn119 O125 2.114 . S
Zn119 O128 2.120 . S
Zn119 O130 2.120 . S
Zn119 O131 2.114 . S
Zn119 O134 2.080 . S
C120 O125 1.166 . S
C120 O126 1.182 . S
C121 O127 1.167 . S
C121 O128 1.299 . S
O122 Zn119 2.080 . S
O122 C136 1.305 . S
O123 Zn117 1.920 . S
O123 C136 1.234 . S
C124 O129 1.167 . S
C124 O130 1.299 . S
O125 Zn119 2.114 . S
O125 C120 1.166 . S
O126 Zn118 1.905 . S
O126 C120 1.182 . S
O127 Zn118 1.898 . S
O127 C121 1.167 . S
O128 Zn119 2.120 . S
O128 C121 1.299 . S
O129 Zn117 1.898 . S
O129 C124 1.167 . S
O130 Zn119 2.120 . S
O130 C124 1.299 . S
O131 Zn119 2.114 . S
O131 C133 1.166 . S
O132 Zn117 1.905 . S
O132 C133 1.182 . S
C133 O131 1.166 . S
C133 O132 1.182 . S
O134 Zn119 2.080 . S
O134 C137 1.305 . S
O135 Zn118 1.920 . S
O135 C137 1.234 . S
C136 O122 1.305 . S
C136 O123 1.234 . S
C137 O134 1.305 . S
C137 O135 1.234 . S
Zn138 O144 1.920 . S
Zn138 O150 1.898 . S
Zn138 O153 1.905 1_455 S
Zn139 O147 1.905 . S
Zn139 O148 1.898 . S
Zn139 O156 1.920 1_655 S
Zn140 O143 2.080 . S
Zn140 O146 2.114 1_455 S
Zn140 O149 2.120 1_455 S
Zn140 O151 2.120 . S
Zn140 O152 2.114 1_455 S
Zn140 O155 2.080 . S
C141 O146 1.166 . S
C141 O147 1.182 . S
C142 O148 1.167 . S
C142 O149 1.299 . S
O143 Zn140 2.080 . S
O143 C157 1.305 . S
O144 Zn138 1.920 . S
O144 C157 1.234 . S
C145 O150 1.167 . S
C145 O151 1.299 . S
O146 Zn140 2.114 1_655 S
O146 C141 1.166 . S
O147 Zn139 1.905 . S
O147 C141 1.182 . S
O148 Zn139 1.898 . S
O148 C142 1.167 . S
O149 Zn140 2.120 1_655 S
O149 C142 1.299 . S
O150 Zn138 1.898 . S
O150 C145 1.167 . S
O151 Zn140 2.120 . S
O151 C145 1.299 . S
O152 Zn140 2.114 1_655 S
O152 C154 1.166 . S
O153 Zn138 1.905 1_655 S
O153 C154 1.182 . S
C154 O152 1.166 . S
C154 O153 1.182 . S
O155 Zn140 2.080 . S
O155 C158 1.305 . S
O156 Zn139 1.920 1_455 S
O156 C158 1.234 . S
C157 O143 1.305 . S
C157 O144 1.234 . S
C158 O155 1.305 . S
C158 O156 1.234 . S
Zn159 O165 1.920 . S
Zn159 O171 1.898 . S
Zn159 O174 1.905 . S
Zn160 O168 1.905 . S
Zn160 O169 1.898 . S
Zn160 O177 1.920 . S
Zn161 O164 2.080 . S
Zn161 O167 2.114 . S
Zn161 O170 2.120 . S
Zn161 O172 2.120 . S
Zn161 O173 2.114 . S
Zn161 O176 2.080 . S
C162 O167 1.166 . S
C162 O168 1.182 . S
C163 O169 1.167 . S
C163 O170 1.299 . S
O164 Zn161 2.080 . S
O164 C178 1.305 . S
O165 Zn159 1.920 . S
O165 C178 1.234 . S
C166 O171 1.167 . S
C166 O172 1.299 . S
O167 Zn161 2.114 . S
O167 C162 1.166 . S
O168 Zn160 1.905 . S
O168 C162 1.182 . S
O169 Zn160 1.898 . S
O169 C163 1.167 . S
O170 Zn161 2.120 . S
O170 C163 1.299 . S
O171 Zn159 1.898 . S
O171 C166 1.167 . S
O172 Zn161 2.120 . S
O172 C166 1.299 . S
O173 Zn161 2.114 . S
O173 C175 1.166 . S
O174 Zn159 1.905 . S
O174 C175 1.182 . S
C175 O173 1.166 . S
C175 O174 1.182 . S
O176 Zn161 2.080 . S
O176 C179 1.305 . S
O177 Zn160 1.920 . S
O177 C179 1.234 . S
C178 O164 1.305 . S
C178 O165 1.234 . S
C179 O176 1.305 . S
C179 O177 1.234 . S
C180 C181 1.349 . S
C180 C182 1.327 . S
C180 H205 0.950 . S
C181 C180 1.349 . S
C181 C197 1.349 . S
C182 C180 1.327 . S
C182 C201 1.429 . S
C182 H206 0.950 . S
C183 C200 1.574 . S
C183 C202 1.368 . S
C183 H207 0.949 . S
H184 C188 0.949 . S
C185 C186 1.349 . S
C185 C187 1.327 . S
C185 H208 0.950 . S
C186 C185 1.349 . S
C186 C198 1.349 . S
C187 C185 1.327 . S
C187 C203 1.429 . S
C187 H209 0.950 1_545 S
C188 H184 0.949 . S
C188 C196 1.574 . S
C188 C204 1.368 . S
H189 C197 0.950 . S
H190 C195 0.950 . S
H191 C196 0.949 . S
H192 C198 0.950 . S
H193 C199 0.950 . S
H194 C200 0.949 . S
C195 H190 0.950 . S
C195 C197 1.327 . S
C195 C201 1.429 . S
C196 C188 1.574 . S
C196 H191 0.949 . S
C196 C202 1.368 . S
C197 C181 1.349 . S
C197 H189 0.950 . S
C197 C195 1.327 . S
C198 C186 1.349 . S
C198 H192 0.950 . S
C198 C199 1.327 . S
C199 H193 0.950 . S
C199 C198 1.327 . S
C199 C203 1.429 . S
C200 C183 1.574 . S
C200 H194 0.949 . S
C200 C204 1.368 . S
C201 C182 1.429 . S
C201 C195 1.429 . S
C201 C202 1.523 . S
C202 C183 1.368 . S
C202 C196 1.368 . S
C202 C201 1.523 . S
C203 C187 1.429 . S
C203 C199 1.429 . S
C203 C204 1.523 1_545 S
C204 C188 1.368 . S
C204 C200 1.368 . S
C204 C203 1.523 1_565 S
H205 C180 0.950 . S
H206 C182 0.950 . S
H207 C183 0.949 . S
H208 C185 0.950 . S
H209 C187 0.950 1_565 S
C210 C211 1.349 . S
C210 C212 1.327 . S
C210 H235 0.950 . S
C211 C210 1.349 . S
C211 C227 1.349 . S
C212 C210 1.327 . S
C212 C231 1.429 . S
C212 H236 0.950 . S
C213 C230 1.574 . S
C213 C232 1.368 . S
C213 H237 0.949 . S
H214 C218 0.949 . S
C215 C216 1.349 . S
C215 C217 1.327 . S
C215 H238 0.950 . S
C216 C215 1.349 . S
C216 C228 1.349 . S
C217 C215 1.327 . S
C217 C233 1.429 . S
C217 H239 0.950 . S
C218 H214 0.949 . S
C218 C226 1.574 . S
C218 C234 1.368 . S
H219 C227 0.950 . S
H220 C225 0.950 . S
H221 C226 0.949 . S
H222 C228 0.950 . S
H223 C229 0.950 . S
H224 C230 0.949 . S
C225 H220 0.950 . S
C225 C227 1.327 . S
C225 C231 1.429 . S
C226 C218 1.574 . S
C226 H221 0.949 . S
C226 C232 1.368 . S
C227 C211 1.349 . S
C227 H219 0.950 . S
C227 C225 1.327 . S
C228 C216 1.349 . S
C228 H222 0.950 . S
C228 C229 1.327 . S
C229 H223 0.950 . S
C229 C228 1.327 . S
C229 C233 1.429 . S
C230 C213 1.574 . S
C230 H224 0.949 . S
C230 C234 1.368 . S
C231 C212 1.429 . S
C231 C225 1.429 . S
C231 C232 1.523 . S
C232 C213 1.368 . S
C232 C226 1.368 . S
C232 C231 1.523 . S
C233 C217 1.429 . S
C233 C229 1.429 . S
C233 C234 1.523 . S
C234 C218 1.368 . S
C234 C230 1.368 . S
C234 C233 1.523 . S
H235 C210 0.950 . S
H236 C212 0.950 . S
H237 C213 0.949 . S
H238 C215 0.950 . S
H239 C217 0.950 . S
C240 C241 1.349 . S
C240 C242 1.327 . S
C240 H265 0.950 . S
C241 C240 1.349 . S
C241 C257 1.349 . S
C242 C240 1.327 . S
C242 C261 1.429 . S
C242 H266 0.950 . S
C243 C260 1.574 . S
C243 C262 1.368 . S
C243 H267 0.949 . S
H244 C248 0.949 . S
C245 C246 1.349 . S
C245 C247 1.327 . S
C245 H268 0.950 . S
C246 C245 1.349 . S
C246 C258 1.349 . S
C247 C245 1.327 . S
C247 C263 1.429 . S
C247 H269 0.950 . S
C248 H244 0.949 . S
C248 C256 1.574 . S
C248 C264 1.368 . S
H249 C257 0.950 . S
H250 C255 0.950 . S
H251 C256 0.949 . S
H252 C258 0.950 . S
H253 C259 0.950 . S
H254 C260 0.949 . S
C255 H250 0.950 . S
C255 C257 1.327 . S
C255 C261 1.429 . S
C256 C248 1.574 . S
C256 H251 0.949 . S
C256 C262 1.368 . S
C257 C241 1.349 . S
C257 H249 0.950 . S
C257 C255 1.327 . S
C258 C246 1.349 . S
C258 H252 0.950 . S
C258 C259 1.327 . S
C259 H253 0.950 . S
C259 C258 1.327 . S
C259 C263 1.429 . S
C260 C243 1.574 . S
C260 H254 0.949 . S
C260 C264 1.368 . S
C261 C242 1.429 . S
C261 C255 1.429 . S
C261 C262 1.523 . S
C262 C243 1.368 . S
C262 C256 1.368 . S
C262 C261 1.523 . S
C263 C247 1.429 . S
C263 C259 1.429 . S
C263 C264 1.523 . S
C264 C248 1.368 . S
C264 C260 1.368 . S
C264 C263 1.523 . S
H265 C240 0.950 . S
H266 C242 0.950 . S
H267 C243 0.949 . S
H268 C245 0.950 . S
H269 C247 0.950 . S
C270 C271 1.349 . S
C270 C272 1.327 . S
C270 H295 0.950 . S
C271 C270 1.349 . S
C271 C287 1.349 . S
C272 C270 1.327 . S
C272 C291 1.429 . S
C272 H296 0.950 . S
C273 C290 1.574 . S
C273 C292 1.368 . S
C273 H297 0.949 . S
H274 C278 0.977 . S
C275 C276 1.349 . S
C275 C277 1.327 . S
C275 H298 0.950 . S
C276 C275 1.349 . S
C276 C288 1.349 . S
C277 C275 1.327 . S
C277 C293 1.429 . S
C277 H299 0.950 1_545 S
C278 H274 0.977 . S
C278 C286 1.574 . S
C278 C294 1.368 . S
H279 C287 0.950 . S
H280 C285 0.950 . S
H281 C286 0.949 . S
H282 C288 0.950 . S
H283 C289 0.950 . S
H284 C290 0.949 . S
C285 H280 0.950 . S
C285 C287 1.327 . S
C285 C291 1.429 . S
C286 C278 1.574 . S
C286 H281 0.949 . S
C286 C292 1.368 . S
C287 C271 1.349 . S
C287 H279 0.950 . S
C287 C285 1.327 . S
C288 C276 1.349 . S
C288 H282 0.950 . S
C288 C289 1.327 . S
C289 H283 0.950 . S
C289 C288 1.327 . S
C289 C293 1.429 . S
C290 C273 1.574 . S
C290 H284 0.949 . S
C290 C294 1.368 . S
C291 C272 1.429 . S
C291 C285 1.429 . S
C291 C292 1.523 . S
C292 C273 1.368 . S
C292 C286 1.368 . S
C292 C291 1.523 . S
C293 C277 1.429 . S
C293 C289 1.429 . S
C293 C294 1.523 1_545 S
C294 C278 1.368 . S
C294 C290 1.368 . S
C294 C293 1.523 1_565 S
H295 C270 0.950 . S
H296 C272 0.950 . S
H297 C273 0.949 . S
H298 C275 0.950 . S
H299 C277 0.950 1_565 S
C300 C301 1.349 . S
C300 C302 1.327 . S
C300 H325 0.950 . S
C301 C300 1.349 . S
C301 C317 1.349 . S
C302 C300 1.327 . S
C302 C321 1.429 . S
C302 H326 0.950 . S
C303 C320 1.574 . S
C303 C322 1.368 . S
C303 H327 0.949 . S
H304 C308 0.949 1_565 S
C305 C306 1.349 . S
C305 C307 1.327 . S
C305 H328 0.950 . S
C306 C305 1.349 . S
C306 C318 1.349 . S
C307 C305 1.327 . S
C307 C323 1.429 . S
C307 H329 0.950 1_565 S
C308 H304 0.949 1_545 S
C308 C316 1.574 . S
C308 C324 1.368 . S
H309 C317 0.950 . S
H310 C315 0.950 . S
H311 C316 0.949 . S
H312 C318 0.950 . S
H313 C319 0.950 . S
H314 C320 0.949 . S
C315 H310 0.950 . S
C315 C317 1.327 . S
C315 C321 1.429 . S
C316 C308 1.574 . S
C316 H311 0.949 . S
C316 C322 1.368 . S
C317 C301 1.349 . S
C317 H309 0.950 . S
C317 C315 1.327 . S
C318 C306 1.349 . S
C318 H312 0.950 . S
C318 C319 1.327 . S
C319 H313 0.950 . S
C319 C318 1.327 . S
C319 C323 1.429 . S
C320 C303 1.574 . S
C320 H314 0.949 . S
C320 C324 1.368 . S
C321 C302 1.429 . S
C321 C315 1.429 . S
C321 C322 1.523 . S
C322 C303 1.368 . S
C322 C316 1.368 . S
C322 C321 1.523 . S
C323 C307 1.429 . S
C323 C319 1.429 . S
C323 C324 1.523 1_565 S
C324 C308 1.368 . S
C324 C320 1.368 . S
C324 C323 1.523 1_545 S
H325 C300 0.950 . S
H326 C302 0.950 . S
H327 C303 0.949 . S
H328 C305 0.950 . S
H329 C307 0.950 1_545 S
C330 C331 1.349 . S
C330 C332 1.327 . S
C330 H355 0.950 . S
C331 C330 1.349 . S
C331 C347 1.349 . S
C332 C330 1.327 . S
C332 C351 1.429 . S
C332 H356 0.950 . S
C333 C350 1.574 . S
C333 C352 1.368 . S
C333 H357 0.949 . S
H334 C338 0.949 . S
C335 C336 1.349 . S
C335 C337 1.327 . S
C335 H358 0.950 . S
C336 C335 1.349 . S
C336 C348 1.349 . S
C337 C335 1.327 . S
C337 C353 1.429 . S
C337 H359 0.950 . S
C338 H334 0.949 . S
C338 C346 1.574 . S
C338 C354 1.368 . S
H339 C347 0.950 . S
H340 C345 0.950 . S
H341 C346 0.949 . S
H342 C348 0.950 . S
H343 C349 0.950 . S
H344 C350 0.949 . S
C345 H340 0.950 . S
C345 C347 1.327 . S
C345 C351 1.429 . S
C346 C338 1.574 . S
C346 H341 0.949 . S
C346 C352 1.368 . S
C347 C331 1.349 . S
C347 H339 0.950 . S
C347 C345 1.327 . S
C348 C336 1.349 . S
C348 H342 0.950 . S
C348 C349 1.327 . S
C349 H343 0.950 . S
C349 C348 1.327 . S
C349 C353 1.429 . S
C350 C333 1.574 . S
C350 H344 0.949 . S
C350 C354 1.368 . S
C351 C332 1.429 . S
C351 C345 1.429 . S
C351 C352 1.523 . S
C352 C333 1.368 . S
C352 C346 1.368 . S
C352 C351 1.523 . S
C353 C337 1.429 . S
C353 C349 1.429 . S
C353 C354 1.523 . S
C354 C338 1.368 . S
C354 C350 1.368 . S
C354 C353 1.523 . S
H355 C330 0.950 . S
H356 C332 0.950 . S
H357 C333 0.949 . S
H358 C335 0.950 . S
H359 C337 0.950 . S
C360 C361 1.349 . S
C360 C362 1.327 . S
C360 H385 0.950 . S
C361 C360 1.349 . S
C361 C377 1.349 . S
C362 C360 1.327 . S
C362 C381 1.429 . S
C362 H386 0.950 . S
C363 C380 1.574 . S
C363 C382 1.368 . S
C363 H387 0.949 . S
H364 C368 0.949 . S
C365 C366 1.349 . S
C365 C367 1.327 . S
C365 H388 0.950 . S
C366 C365 1.349 . S
C366 C378 1.349 . S
C367 C365 1.327 . S
C367 C383 1.429 . S
C367 H389 0.950 . S
C368 H364 0.949 . S
C368 C376 1.574 . S
C368 C384 1.368 . S
H369 C377 0.950 . S
H370 C375 0.950 . S
H371 C376 0.949 . S
H372 C378 0.950 . S
H373 C379 0.950 . S
H374 C380 0.949 . S
C375 H370 0.950 . S
C375 C377 1.327 . S
C375 C381 1.429 . S
C376 C368 1.574 . S
C376 H371 0.949 . S
C376 C382 1.368 . S
C377 C361 1.349 . S
C377 H369 0.950 . S
C377 C375 1.327 . S
C378 C366 1.349 . S
C378 H372 0.950 . S
C378 C379 1.327 . S
C379 H373 0.950 . S
C379 C378 1.327 . S
C379 C383 1.429 . S
C380 C363 1.574 . S
C380 H374 0.949 . S
C380 C384 1.368 . S
C381 C362 1.429 . S
C381 C375 1.429 . S
C381 C382 1.523 . S
C382 C363 1.368 . S
C382 C376 1.368 . S
C382 C381 1.523 . S
C383 C367 1.429 . S
C383 C379 1.429 . S
C383 C384 1.523 . S
C384 C368 1.368 . S
C384 C380 1.368 . S
C384 C383 1.523 . S
H385 C360 0.950 . S
H386 C362 0.950 . S
H387 C363 0.949 . S
H388 C365 0.950 . S
H389 C367 0.950 . S
C390 C391 1.349 . S
C390 C392 1.327 . S
C390 H415 0.950 . S
C391 C390 1.349 . S
C391 C407 1.349 . S
C392 C390 1.327 . S
C392 C411 1.429 . S
C392 H416 0.950 . S
C393 C410 1.574 . S
C393 C412 1.368 . S
C393 H417 0.949 . S
H394 C398 0.949 . S
C395 C396 1.349 . S
C395 C397 1.327 . S
C395 H418 0.950 . S
C396 C395 1.349 . S
C396 C408 1.349 . S
C397 C395 1.327 . S
C397 C413 1.429 . S
C397 H419 0.950 . S
C398 H394 0.949 . S
C398 C406 1.574 . S
C398 C414 1.368 . S
H399 C407 0.950 . S
H400 C405 0.950 . S
H401 C406 0.949 . S
H402 C408 0.950 . S
H403 C409 0.950 . S
H404 C410 0.949 . S
C405 H400 0.950 . S
C405 C407 1.327 . S
C405 C411 1.429 . S
C406 C398 1.574 . S
C406 H401 0.949 . S
C406 C412 1.368 . S
C407 C391 1.349 . S
C407 H399 0.950 . S
C407 C405 1.327 . S
C408 C396 1.349 . S
C408 H402 0.950 . S
C408 C409 1.327 . S
C409 H403 0.950 . S
C409 C408 1.327 . S
C409 C413 1.429 . S
C410 C393 1.574 . S
C410 H404 0.949 . S
C410 C414 1.368 . S
C411 C392 1.429 . S
C411 C405 1.429 . S
C411 C412 1.523 . S
C412 C393 1.368 . S
C412 C406 1.368 . S
C412 C411 1.523 . S
C413 C397 1.429 . S
C413 C409 1.429 . S
C413 C414 1.523 1_565 S
C414 C398 1.368 . S
C414 C410 1.368 . S
C414 C413 1.523 1_545 S
H415 C390 0.950 . S
H416 C392 0.950 . S
H417 C393 0.949 . S
H418 C395 0.950 . S
H419 C397 0.950 . S
C420 C421 1.349 . S
C420 C422 1.327 . S
C420 H445 0.950 . S
C421 C420 1.349 . S
C421 C437 1.349 . S
C422 C420 1.327 . S
C422 C441 1.429 1_556 S
C422 H446 0.950 1_556 S
C423 C440 1.574 . S
C423 C442 1.368 . S
C423 H447 0.949 . S
H424 C428 0.949 . S
C425 C426 1.349 . S
C425 C427 1.327 . S
C425 H448 0.950 . S
C426 C425 1.349 . S
C426 C438 1.349 . S
C427 C425 1.327 . S
C427 C443 1.429 . S
C427 H449 0.950 . S
C428 H424 0.949 . S
C428 C436 1.574 . S
C428 C444 1.368 . S
H429 C437 0.950 . S
H430 C435 0.950 1_554 S
H431 C436 0.949 . S
H432 C438 0.950 . S
H433 C439 0.950 . S
H434 C440 0.949 . S
C435 H430 0.950 1_556 S
C435 C437 1.327 . S
C435 C441 1.429 1_556 S
C436 C428 1.574 . S
C436 H431 0.949 . S
C436 C442 1.368 . S
C437 C421 1.349 . S
C437 H429 0.950 . S
C437 C435 1.327 . S
C438 C426 1.349 . S
C438 H432 0.950 . S
C438 C439 1.327 . S
C439 H433 0.950 . S
C439 C438 1.327 . S
C439 C443 1.429 . S
C440 C423 1.574 . S
C440 H434 0.949 . S
C440 C444 1.368 . S
C441 C422 1.429 1_554 S
C441 C435 1.429 1_554 S
C441 C442 1.523 . S
C442 C423 1.368 . S
C442 C436 1.368 . S
C442 C441 1.523 . S
C443 C427 1.429 . S
C443 C439 1.429 . S
C443 C444 1.523 . S
C444 C428 1.368 . S
C444 C440 1.368 . S
C444 C443 1.523 . S
H445 C420 0.950 . S
H446 C422 0.950 1_554 S
H447 C423 0.949 . S
H448 C425 0.950 . S
H449 C427 0.950 . S
C450 C451 1.349 . S
C450 C452 1.327 . S
C450 H475 0.950 . S
C451 C450 1.349 . S
C451 C467 1.349 . S
C452 C450 1.327 . S
C452 C471 1.429 . S
C452 H476 0.950 . S
C453 C470 1.574 . S
C453 C472 1.368 . S
C453 H477 0.949 . S
H454 C458 0.949 . S
C455 C456 1.349 . S
C455 C457 1.327 . S
C455 H478 0.950 . S
C456 C455 1.349 . S
C456 C468 1.349 . S
C457 C455 1.327 . S
C457 C473 1.429 . S
C457 H479 0.950 . S
C458 H454 0.949 . S
C458 C466 1.574 . S
C458 C474 1.368 . S
H459 C467 0.950 . S
H460 C465 0.950 . S
H461 C466 0.949 . S
H462 C468 0.950 . S
H463 C469 0.950 . S
H464 C470 0.949 . S
C465 H460 0.950 . S
C465 C467 1.327 . S
C465 C471 1.429 . S
C466 C458 1.574 . S
C466 H461 0.949 . S
C466 C472 1.368 . S
C467 C451 1.349 . S
C467 H459 0.950 . S
C467 C465 1.327 . S
C468 C456 1.349 . S
C468 H462 0.950 . S
C468 C469 1.327 . S
C469 H463 0.950 . S
C469 C468 1.327 . S
C469 C473 1.429 . S
C470 C453 1.574 . S
C470 H464 0.949 . S
C470 C474 1.368 . S
C471 C452 1.429 . S
C471 C465 1.429 . S
C471 C472 1.523 . S
C472 C453 1.368 . S
C472 C466 1.368 . S
C472 C471 1.523 . S
C473 C457 1.429 . S
C473 C469 1.429 . S
C473 C474 1.523 . S
C474 C458 1.368 . S
C474 C470 1.368 . S
C474 C473 1.523 . S
H475 C450 0.950 . S
H476 C452 0.950 . S
H477 C453 0.949 . S
H478 C455 0.950 . S
H479 C457 0.950 . S
C480 C481 1.349 . S
C480 C482 1.327 . S
C480 H505 0.950 . S
C481 C480 1.349 . S
C481 C497 1.349 . S
C482 C480 1.327 . S
C482 C501 1.429 1_554 S
C482 H506 0.950 . S
C483 C500 1.574 . S
C483 C502 1.368 . S
C483 H507 0.949 . S
H484 C488 0.949 . S
C485 C486 1.349 . S
C485 C487 1.327 . S
C485 H508 0.950 . S
C486 C485 1.349 . S
C486 C498 1.349 . S
C487 C485 1.327 . S
C487 C503 1.429 . S
C487 H509 0.950 . S
C488 H484 0.949 . S
C488 C496 1.574 . S
C488 C504 1.368 . S
H489 C497 0.950 . S
H490 C495 0.950 1_556 S
H491 C496 0.949 . S
H492 C498 0.950 . S
H493 C499 0.950 . S
H494 C500 0.949 . S
C495 H490 0.950 1_554 S
C495 C497 1.327 . S
C495 C501 1.429 1_554 S
C496 C488 1.574 . S
C496 H491 0.949 . S
C496 C502 1.368 . S
C497 C481 1.349 . S
C497 H489 0.950 . S
C497 C495 1.327 . S
C498 C486 1.349 . S
C498 H492 0.950 . S
C498 C499 1.327 . S
C499 H493 0.950 . S
C499 C498 1.327 . S
C499 C503 1.429 . S
C500 C483 1.574 . S
C500 H494 0.949 . S
C500 C504 1.368 . S
C501 C482 1.429 1_556 S
C501 C495 1.429 1_556 S
C501 C502 1.523 . S
C502 C483 1.368 . S
C502 C496 1.368 . S
C502 C501 1.523 . S
C503 C487 1.429 . S
C503 C499 1.429 . S
C503 C504 1.523 . S
C504 C488 1.368 . S
C504 C500 1.368 . S
C504 C503 1.523 . S
H505 C480 0.950 . S
H506 C482 0.950 . S
H507 C483 0.949 . S
H508 C485 0.950 . S
H509 C487 0.950 . S
C510 C511 1.349 . S
C510 C512 1.327 . S
C510 H535 0.950 . S
C511 C510 1.349 . S
C511 C527 1.349 . S
C512 C510 1.327 . S
C512 C531 1.429 . S
C512 H536 0.950 . S
C513 C530 1.574 . S
C513 C532 1.368 . S
C513 H537 0.949 . S
H514 C518 0.949 . S
C515 C516 1.349 . S
C515 C517 1.327 . S
C515 H538 0.950 . S
C516 C515 1.349 . S
C516 C528 1.349 . S
C517 C515 1.327 . S
C517 C533 1.429 . S
C517 H539 0.950 . S
C518 H514 0.949 . S
C518 C526 1.574 . S
C518 C534 1.368 . S
H519 C527 0.950 . S
H520 C525 0.950 . S
H521 C526 0.949 . S
H522 C528 0.950 . S
H523 C529 0.950 . S
H524 C530 0.949 . S
C525 H520 0.950 . S
C525 C527 1.327 . S
C525 C531 1.429 . S
C526 C518 1.574 . S
C526 H521 0.949 . S
C526 C532 1.368 . S
C527 C511 1.349 . S
C527 H519 0.950 . S
C527 C525 1.327 . S
C528 C516 1.349 . S
C528 H522 0.950 . S
C528 C529 1.327 . S
C529 H523 0.950 . S
C529 C528 1.327 . S
C529 C533 1.429 . S
C530 C513 1.574 . S
C530 H524 0.949 . S
C530 C534 1.368 . S
C531 C512 1.429 . S
C531 C525 1.429 . S
C531 C532 1.523 . S
C532 C513 1.368 . S
C532 C526 1.368 . S
C532 C531 1.523 . S
C533 C517 1.429 . S
C533 C529 1.429 . S
C533 C534 1.523 . S
C534 C518 1.368 . S
C534 C530 1.368 . S
C534 C533 1.523 . S
H535 C510 0.950 . S
H536 C512 0.950 . S
H537 C513 0.949 . S
H538 C515 0.950 . S
H539 C517 0.950 . S
C540 C541 1.349 . S
C540 C542 1.327 . S
C540 H565 0.950 . S
C541 C540 1.349 . S
C541 C557 1.349 . S
C542 C540 1.327 . S
C542 C561 1.429 1_554 S
C542 H566 0.950 . S
C543 C560 1.574 . S
C543 C562 1.368 . S
C543 H567 0.949 . S
H544 C548 0.949 . S
C545 C546 1.349 . S
C545 C547 1.327 . S
C545 H568 0.950 . S
C546 C545 1.349 . S
C546 C558 1.349 . S
C547 C545 1.327 . S
C547 C563 1.429 . S
C547 H569 0.950 . S
C548 H544 0.949 . S
C548 C556 1.574 . S
C548 C564 1.368 . S
H549 C557 0.950 . S
H550 C555 0.950 1_556 S
H551 C556 0.949 . S
H552 C558 0.950 . S
H553 C559 0.950 . S
H554 C560 0.949 . S
C555 H550 0.950 1_554 S
C555 C557 1.327 . S
C555 C561 1.429 1_554 S
C556 C548 1.574 . S
C556 H551 0.949 . S
C556 C562 1.368 . S
C557 C541 1.349 . S
C557 H549 0.950 . S
C557 C555 1.327 . S
C558 C546 1.349 . S
C558 H552 0.950 . S
C558 C559 1.327 . S
C559 H553 0.950 . S
C559 C558 1.327 . S
C559 C563 1.429 . S
C560 C543 1.574 . S
C560 H554 0.949 . S
C560 C564 1.368 . S
C561 C542 1.429 1_556 S
C561 C555 1.429 1_556 S
C561 C562 1.523 . S
C562 C543 1.368 . S
C562 C556 1.368 . S
C562 C561 1.523 . S
C563 C547 1.429 . S
C563 C559 1.429 . S
C563 C564 1.523 . S
C564 C548 1.368 . S
C564 C560 1.368 . S
C564 C563 1.523 . S
H565 C540 0.950 . S
H566 C542 0.950 . S
H567 C543 0.949 . S
H568 C545 0.950 . S
H569 C547 0.950 . S
C570 C571 1.349 . S
C570 C572 1.327 . S
C570 H595 0.950 . S
C571 C570 1.349 . S
C571 C587 1.349 . S
C572 C570 1.327 . S
C572 C591 1.429 . S
C572 H596 0.950 . S
C573 C590 1.574 . S
C573 C592 1.368 . S
C573 H597 0.949 . S
H574 C578 0.949 . S
C575 C576 1.349 . S
C575 C577 1.327 . S
C575 H598 0.950 . S
C576 C575 1.349 . S
C576 C588 1.349 . S
C577 C575 1.327 . S
C577 C593 1.429 . S
C577 H599 0.950 . S
C578 H574 0.949 . S
C578 C586 1.574 . S
C578 C594 1.368 . S
H579 C587 0.950 . S
H580 C585 0.950 . S
H581 C586 0.949 . S
H582 C588 0.950 . S
H583 C589 0.950 . S
H584 C590 0.949 . S
C585 H580 0.950 . S
C585 C587 1.327 . S
C585 C591 1.429 . S
C586 C578 1.574 . S
C586 H581 0.949 . S
C586 C592 1.368 . S
C587 C571 1.349 . S
C587 H579 0.950 . S
C587 C585 1.327 . S
C588 C576 1.349 . S
C588 H582 0.950 . S
C588 C589 1.327 . S
C589 H583 0.950 . S
C589 C588 1.327 . S
C589 C593 1.429 . S
C590 C573 1.574 . S
C590 H584 0.949 . S
C590 C594 1.368 . S
C591 C572 1.429 . S
C591 C585 1.429 . S
C591 C592 1.523 . S
C592 C573 1.368 . S
C592 C586 1.368 . S
C592 C591 1.523 . S
C593 C577 1.429 . S
C593 C589 1.429 . S
C593 C594 1.523 . S
C594 C578 1.368 . S
C594 C590 1.368 . S
C594 C593 1.523 . S
H595 C570 0.950 . S
H596 C572 0.950 . S
H597 C573 0.949 . S
H598 C575 0.950 . S
H599 C577 0.950 . S
C600 C601 1.349 . S
C600 C602 1.327 . S
C600 H625 0.950 . S
C601 C600 1.349 . S
C601 C617 1.349 . S
C602 C600 1.327 . S
C602 C621 1.429 1_556 S
C602 H626 0.950 . S
C603 C620 1.574 . S
C603 C622 1.368 . S
C603 H627 0.949 . S
H604 C608 0.949 . S
C605 C606 1.349 . S
C605 C607 1.327 . S
C605 H628 0.950 . S
C606 C605 1.349 . S
C606 C618 1.349 . S
C607 C605 1.327 . S
C607 C623 1.429 . S
C607 H629 0.950 . S
C608 H604 0.949 . S
C608 C616 1.574 . S
C608 C624 1.368 . S
H609 C617 0.950 . S
H610 C615 0.979 . S
H611 C616 0.949 . S
H612 C618 0.950 . S
H613 C619 0.950 . S
H614 C620 0.949 . S
C615 H610 0.979 . S
C615 C617 1.293 1_554 S
C615 C621 1.435 . S
C616 C608 1.574 . S
C616 H611 0.949 . S
C616 C622 1.368 . S
C617 C601 1.349 . S
C617 H609 0.950 . S
C617 C615 1.293 1_556 S
C618 C606 1.349 . S
C618 H612 0.950 . S
C618 C619 1.327 . S
C619 H613 0.950 . S
C619 C618 1.327 . S
C619 C623 1.429 . S
C620 C603 1.574 . S
C620 H614 0.949 . S
C620 C624 1.368 . S
C621 C602 1.429 1_554 S
C621 C615 1.435 . S
C621 C622 1.523 . S
C622 C603 1.368 . S
C622 C616 1.368 . S
C622 C621 1.523 . S
C623 C607 1.429 . S
C623 C619 1.429 . S
C623 C624 1.523 . S
C624 C608 1.368 . S
C624 C620 1.368 . S
C624 C623 1.523 . S
H625 C600 0.950 . S
H626 C602 0.950 . S
H627 C603 0.949 . S
H628 C605 0.950 . S
H629 C607 0.950 . S
C630 C631 1.349 . S
C630 C632 1.327 . S
C630 H655 0.950 . S
C631 C630 1.349 . S
C631 C647 1.349 . S
C632 C630 1.327 . S
C632 C651 1.429 . S
C632 H656 0.950 . S
C633 C650 1.574 . S
C633 C652 1.368 . S
C633 H657 0.949 . S
H634 C638 0.949 . S
C635 C636 1.349 . S
C635 C637 1.327 . S
C635 H658 0.950 . S
C636 C635 1.349 . S
C636 C648 1.349 . S
C637 C635 1.327 . S
C637 C653 1.429 . S
C637 H659 0.950 . S
C638 H634 0.949 . S
C638 C646 1.574 . S
C638 C654 1.368 . S
H639 C647 0.950 . S
H640 C645 0.950 . S
H641 C646 0.949 . S
H642 C648 0.950 . S
H643 C649 0.950 . S
H644 C650 0.949 . S
C645 H640 0.950 . S
C645 C647 1.327 . S
C645 C651 1.429 . S
C646 C638 1.574 . S
C646 H641 0.949 . S
C646 C652 1.368 . S
C647 C631 1.349 . S
C647 H639 0.950 . S
C647 C645 1.327 . S
C648 C636 1.349 . S
C648 H642 0.950 . S
C648 C649 1.327 . S
C649 H643 0.950 . S
C649 C648 1.327 . S
C649 C653 1.429 . S
C650 C633 1.574 . S
C650 H644 0.949 . S
C650 C654 1.368 . S
C651 C632 1.429 . S
C651 C645 1.429 . S
C651 C652 1.523 . S
C652 C633 1.368 . S
C652 C646 1.368 . S
C652 C651 1.523 . S
C653 C637 1.429 . S
C653 C649 1.429 . S
C653 C654 1.523 . S
C654 C638 1.368 . S
C654 C650 1.368 . S
C654 C653 1.523 . S
H655 C630 0.950 . S
H656 C632 0.950 . S
H657 C633 0.949 . S
H658 C635 0.950 . S
H659 C637 0.950 . S
C660 C661 1.349 . S
C660 C662 1.327 . S
C660 H685 0.950 . S
C661 C660 1.349 . S
C661 C677 1.349 . S
C662 C660 1.327 . S
C662 C681 1.429 . S
C662 H686 0.950 . S
C663 C680 1.574 . S
C663 C682 1.368 . S
C663 H687 0.949 . S
H664 C668 0.949 . S
C665 C666 1.349 . S
C665 C667 1.327 . S
C665 H688 0.950 . S
C666 C665 1.349 . S
C666 C678 1.349 . S
C667 C665 1.327 . S
C667 C683 1.429 . S
C667 H689 0.950 . S
C668 H664 0.949 . S
C668 C676 1.574 . S
C668 C684 1.368 . S
H669 C677 0.950 . S
H670 C675 0.950 . S
H671 C676 0.949 . S
H672 C678 0.950 . S
H673 C679 0.950 . S
H674 C680 0.949 . S
C675 H670 0.950 . S
C675 C677 1.327 . S
C675 C681 1.429 . S
C676 C668 1.574 . S
C676 H671 0.949 . S
C676 C682 1.368 . S
C677 C661 1.349 . S
C677 H669 0.950 . S
C677 C675 1.327 . S
C678 C666 1.349 . S
C678 H672 0.950 . S
C678 C679 1.327 . S
C679 H673 0.950 . S
C679 C678 1.327 . S
C679 C683 1.429 . S
C680 C663 1.574 . S
C680 H674 0.949 . S
C680 C684 1.368 . S
C681 C662 1.429 . S
C681 C675 1.429 . S
C681 C682 1.523 . S
C682 C663 1.368 . S
C682 C676 1.368 . S
C682 C681 1.523 . S
C683 C667 1.429 . S
C683 C679 1.429 . S
C683 C684 1.523 . S
C684 C668 1.368 . S
C684 C680 1.368 . S
C684 C683 1.523 . S
H685 C660 0.950 . S
H686 C662 0.950 . S
H687 C663 0.949 . S
H688 C665 0.950 . S
H689 C667 0.950 . S
C690 C691 1.349 . S
C690 C692 1.327 . S
C690 H715 0.950 . S
C691 C690 1.349 . S
C691 C707 1.349 . S
C692 C690 1.327 . S
C692 C711 1.429 . S
C692 H716 0.950 . S
C693 C710 1.574 . S
C693 C712 1.368 . S
C693 H717 0.949 . S
H694 C698 0.949 . S
C695 C696 1.349 . S
C695 C697 1.327 . S
C695 H718 0.950 . S
C696 C695 1.349 . S
C696 C708 1.349 . S
C697 C695 1.327 . S
C697 C713 1.429 . S
C697 H719 0.950 . S
C698 H694 0.949 . S
C698 C706 1.574 . S
C698 C714 1.368 . S
H699 C707 0.950 . S
H700 C705 0.950 . S
H701 C706 0.949 . S
H702 C708 0.950 . S
H703 C709 0.950 . S
H704 C710 0.949 . S
C705 H700 0.950 . S
C705 C707 1.327 . S
C705 C711 1.429 . S
C706 C698 1.574 . S
C706 H701 0.949 . S
C706 C712 1.368 . S
C707 C691 1.349 . S
C707 H699 0.950 . S
C707 C705 1.327 . S
C708 C696 1.349 . S
C708 H702 0.950 . S
C708 C709 1.327 . S
C709 H703 0.950 . S
C709 C708 1.327 . S
C709 C713 1.429 . S
C710 C693 1.574 . S
C710 H704 0.949 . S
C710 C714 1.368 . S
C711 C692 1.429 . S
C711 C705 1.429 . S
C711 C712 1.523 . S
C712 C693 1.368 . S
C712 C706 1.368 . S
C712 C711 1.523 . S
C713 C697 1.429 . S
C713 C709 1.429 . S
C713 C714 1.523 . S
C714 C698 1.368 . S
C714 C710 1.368 . S
C714 C713 1.523 . S
H715 C690 0.950 . S
H716 C692 0.950 . S
H717 C693 0.949 . S
H718 C695 0.950 . S
H719 C697 0.950 . S
C720 C721 1.349 . S
C720 C722 1.327 . S
C720 H745 0.950 . S
C721 C720 1.349 . S
C721 C737 1.349 . S
C722 C720 1.327 . S
C722 C741 1.429 . S
C722 H746 0.950 . S
C723 C740 1.574 . S
C723 C742 1.368 . S
C723 H747 0.949 . S
H724 C728 0.949 . S
C725 C726 1.349 . S
C725 C727 1.327 . S
C725 H748 0.950 . S
C726 C725 1.349 . S
C726 C738 1.349 . S
C727 C725 1.327 . S
C727 C743 1.429 . S
C727 H749 0.950 . S
C728 H724 0.949 . S
C728 C736 1.574 . S
C728 C744 1.368 . S
H729 C737 0.950 . S
H730 C735 0.950 . S
H731 C736 0.949 . S
H732 C738 0.950 . S
H733 C739 0.950 . S
H734 C740 0.949 . S
C735 H730 0.950 . S
C735 C737 1.327 . S
C735 C741 1.429 . S
C736 C728 1.574 . S
C736 H731 0.949 . S
C736 C742 1.368 . S
C737 C721 1.349 . S
C737 H729 0.950 . S
C737 C735 1.327 . S
C738 C726 1.349 . S
C738 H732 0.950 . S
C738 C739 1.327 . S
C739 H733 0.950 . S
C739 C738 1.327 . S
C739 C743 1.429 . S
C740 C723 1.574 . S
C740 H734 0.949 . S
C740 C744 1.368 . S
C741 C722 1.429 . S
C741 C735 1.429 . S
C741 C742 1.523 . S
C742 C723 1.368 . S
C742 C736 1.368 . S
C742 C741 1.523 . S
C743 C727 1.429 . S
C743 C739 1.429 . S
C743 C744 1.523 . S
C744 C728 1.368 . S
C744 C740 1.368 . S
C744 C743 1.523 . S
H745 C720 0.950 . S
H746 C722 0.950 . S
H747 C723 0.949 . S
H748 C725 0.950 . S
H749 C727 0.950 . S
C750 C751 1.349 . S
C750 C752 1.327 . S
C750 H775 0.950 . S
C751 C750 1.349 . S
C751 C767 1.349 . S
C752 C750 1.327 . S
C752 C771 1.429 . S
C752 H776 0.950 . S
C753 C770 1.574 . S
C753 C772 1.368 . S
C753 H777 0.949 . S
H754 C758 0.949 . S
C755 C756 1.349 . S
C755 C757 1.327 . S
C755 H778 0.950 . S
C756 C755 1.349 . S
C756 C768 1.349 . S
C757 C755 1.327 . S
C757 C773 1.429 . S
C757 H779 0.950 . S
C758 H754 0.949 . S
C758 C766 1.574 . S
C758 C774 1.368 . S
H759 C767 0.950 . S
H760 C765 0.950 . S
H761 C766 0.949 . S
H762 C768 0.950 . S
H763 C769 0.950 . S
H764 C770 0.949 . S
C765 H760 0.950 . S
C765 C767 1.327 . S
C765 C771 1.429 . S
C766 C758 1.574 . S
C766 H761 0.949 . S
C766 C772 1.368 . S
C767 C751 1.349 . S
C767 H759 0.950 . S
C767 C765 1.327 . S
C768 C756 1.349 . S
C768 H762 0.950 . S
C768 C769 1.327 . S
C769 H763 0.950 . S
C769 C768 1.327 . S
C769 C773 1.429 . S
C770 C753 1.574 . S
C770 H764 0.949 . S
C770 C774 1.368 . S
C771 C752 1.429 . S
C771 C765 1.429 . S
C771 C772 1.523 . S
C772 C753 1.368 . S
C772 C766 1.368 . S
C772 C771 1.523 . S
C773 C757 1.429 . S
C773 C769 1.429 . S
C773 C774 1.523 . S
C774 C758 1.368 . S
C774 C770 1.368 . S
C774 C773 1.523 . S
H775 C750 0.950 . S
H776 C752 0.950 . S
H777 C753 0.949 . S
H778 C755 0.950 . S
H779 C757 0.950 . S
C780 C781 1.349 . S
C780 C782 1.327 . S
C780 H805 0.950 . S
C781 C780 1.349 . S
C781 C797 1.349 . S
C782 C780 1.327 . S
C782 C801 1.429 . S
C782 H806 0.950 . S
C783 C800 1.574 . S
C783 C802 1.368 . S
C783 H807 0.949 . S
H784 C788 0.949 . S
C785 C786 1.349 . S
C785 C787 1.327 . S
C785 H808 0.950 . S
C786 C785 1.349 . S
C786 C798 1.349 . S
C787 C785 1.327 . S
C787 C803 1.429 . S
C787 H809 0.950 . S
C788 H784 0.949 . S
C788 C796 1.574 . S
C788 C804 1.368 . S
H789 C797 0.950 . S
H790 C795 0.950 . S
H791 C796 0.949 . S
H792 C798 0.950 . S
H793 C799 0.950 . S
H794 C800 0.949 . S
C795 H790 0.950 . S
C795 C797 1.327 . S
C795 C801 1.429 . S
C796 C788 1.574 . S
C796 H791 0.949 . S
C796 C802 1.368 . S
C797 C781 1.349 . S
C797 H789 0.950 . S
C797 C795 1.327 . S
C798 C786 1.349 . S
C798 H792 0.950 . S
C798 C799 1.327 . S
C799 H793 0.950 . S
C799 C798 1.327 . S
C799 C803 1.429 . S
C800 C783 1.574 . S
C800 H794 0.949 . S
C800 C804 1.368 . S
C801 C782 1.429 . S
C801 C795 1.429 . S
C801 C802 1.523 . S
C802 C783 1.368 . S
C802 C796 1.368 . S
C802 C801 1.523 . S
C803 C787 1.429 . S
C803 C799 1.429 . S
C803 C804 1.523 . S
C804 C788 1.368 . S
C804 C800 1.368 . S
C804 C803 1.523 . S
H805 C780 0.950 . S
H806 C782 0.950 . S
H807 C783 0.949 . S
H808 C785 0.950 . S
H809 C787 0.950 . S
C810 C811 1.349 . S
C810 C812 1.327 . S
C810 H835 0.950 . S
C811 C810 1.349 . S
C811 C827 1.349 . S
C812 C810 1.327 . S
C812 C831 1.429 . S
C812 H836 0.950 . S
C813 C830 1.574 . S
C813 C832 1.368 . S
C813 H837 0.949 . S
H814 C818 0.949 . S
C815 C816 1.349 . S
C815 C817 1.327 . S
C815 H838 0.950 . S
C816 C815 1.349 . S
C816 C828 1.349 . S
C817 C815 1.327 . S
C817 C833 1.429 . S
C817 H839 0.950 . S
C818 H814 0.949 . S
C818 C826 1.574 . S
C818 C834 1.368 . S
H819 C827 0.950 . S
H820 C825 0.950 . S
H821 C826 0.949 . S
H822 C828 0.950 . S
H823 C829 0.950 . S
H824 C830 0.949 . S
C825 H820 0.950 . S
C825 C827 1.327 . S
C825 C831 1.429 . S
C826 C818 1.574 . S
C826 H821 0.949 . S
C826 C832 1.368 . S
C827 C811 1.349 . S
C827 H819 0.950 . S
C827 C825 1.327 . S
C828 C816 1.349 . S
C828 H822 0.950 . S
C828 C829 1.327 . S
C829 H823 0.950 . S
C829 C828 1.327 . S
C829 C833 1.429 . S
C830 C813 1.574 . S
C830 H824 0.949 . S
C830 C834 1.368 . S
C831 C812 1.429 . S
C831 C825 1.429 . S
C831 C832 1.523 . S
C832 C813 1.368 . S
C832 C826 1.368 . S
C832 C831 1.523 . S
C833 C817 1.429 . S
C833 C829 1.429 . S
C833 C834 1.523 . S
C834 C818 1.368 . S
C834 C830 1.368 . S
C834 C833 1.523 . S
H835 C810 0.950 . S
H836 C812 0.950 . S
H837 C813 0.949 . S
H838 C815 0.950 . S
H839 C817 0.950 . S
C840 C841 1.349 . S
C840 C842 1.327 . S
C840 H865 0.950 . S
C841 C840 1.349 . S
C841 C857 1.349 . S
C842 C840 1.327 . S
C842 C861 1.429 . S
C842 H866 0.950 . S
C843 C860 1.574 . S
C843 C862 1.368 . S
C843 H867 0.949 . S
H844 C848 0.949 . S
C845 C846 1.349 . S
C845 C847 1.327 . S
C845 H868 0.950 . S
C846 C845 1.349 . S
C846 C858 1.349 . S
C847 C845 1.327 . S
C847 C863 1.429 . S
C847 H869 0.950 . S
C848 H844 0.949 . S
C848 C856 1.574 . S
C848 C864 1.368 . S
H849 C857 0.950 . S
H850 C855 0.950 . S
H851 C856 0.949 . S
H852 C858 0.950 . S
H853 C859 0.950 . S
H854 C860 0.949 . S
C855 H850 0.950 . S
C855 C857 1.327 . S
C855 C861 1.429 . S
C856 C848 1.574 . S
C856 H851 0.949 . S
C856 C862 1.368 . S
C857 C841 1.349 . S
C857 H849 0.950 . S
C857 C855 1.327 . S
C858 C846 1.349 . S
C858 H852 0.950 . S
C858 C859 1.327 . S
C859 H853 0.950 . S
C859 C858 1.327 . S
C859 C863 1.429 . S
C860 C843 1.574 . S
C860 H854 0.949 . S
C860 C864 1.368 . S
C861 C842 1.429 . S
C861 C855 1.429 . S
C861 C862 1.523 . S
C862 C843 1.368 . S
C862 C856 1.368 . S
C862 C861 1.523 . S
C863 C847 1.429 . S
C863 C859 1.429 . S
C863 C864 1.523 . S
C864 C848 1.368 . S
C864 C860 1.368 . S
C864 C863 1.523 . S
H865 C840 0.950 . S
H866 C842 0.950 . S
H867 C843 0.949 . S
H868 C845 0.950 . S
H869 C847 0.950 . S
C870 C871 1.349 . S
C870 C872 1.327 . S
C870 H895 0.950 . S
C871 C870 1.349 . S
C871 C887 1.349 . S
C872 C870 1.327 . S
C872 C891 1.429 . S
C872 H896 0.950 . S
C873 C890 1.574 . S
C873 C892 1.368 . S
C873 H897 0.949 . S
H874 C878 0.949 . S
C875 C876 1.349 . S
C875 C877 1.327 . S
C875 H898 0.950 . S
C876 C875 1.349 . S
C876 C888 1.349 . S
C877 C875 1.327 . S
C877 C893 1.429 . S
C877 H899 0.950 . S
C878 H874 0.949 . S
C878 C886 1.574 . S
C878 C894 1.368 . S
H879 C887 0.950 . S
H880 C885 0.950 . S
H881 C886 0.949 . S
H882 C888 0.950 . S
H883 C889 0.950 . S
H884 C890 0.949 . S
C885 H880 0.950 . S
C885 C887 1.327 . S
C885 C891 1.429 . S
C886 C878 1.574 . S
C886 H881 0.949 . S
C886 C892 1.368 . S
C887 C871 1.349 . S
C887 H879 0.950 . S
C887 C885 1.327 . S
C888 C876 1.349 . S
C888 H882 0.950 . S
C888 C889 1.327 . S
C889 H883 0.950 . S
C889 C888 1.327 . S
C889 C893 1.429 . S
C890 C873 1.574 . S
C890 H884 0.949 . S
C890 C894 1.368 . S
C891 C872 1.429 . S
C891 C885 1.429 . S
C891 C892 1.523 . S
C892 C873 1.368 . S
C892 C886 1.368 . S
C892 C891 1.523 . S
C893 C877 1.429 . S
C893 C889 1.429 . S
C893 C894 1.523 . S
C894 C878 1.368 . S
C894 C890 1.368 . S
C894 C893 1.523 . S
H895 C870 0.950 . S
H896 C872 0.950 . S
H897 C873 0.949 . S
H898 C875 0.950 . S
H899 C877 0.950 . S
C181 C81 1.395 . S
C186 C112 1.327 . S
C216 C120 1.327 . S
C211 C93 1.395 . S
C246 C124 1.316 . S
C241 C57 1.393 . S
C271 C69 1.393 . S
C276 C100 1.316 . S
C306 C141 1.327 . S
C301 C33 1.397 . S
C336 C175 1.327 . S
C331 C45 1.397 . S
C361 C9 1.395 . S
C366 C163 1.316 . S
C391 C21 1.395 . S
C396 C145 1.316 . S
C426 C99 1.341 . S
C421 C18 1.474 . S
C456 C133 1.341 . S
C451 C6 1.474 . S
C486 C137 1.339 . S
C481 C42 1.474 . S
C516 C115 1.339 . S
C511 C30 1.474 . S
C546 C154 1.341 . S
C541 C66 1.469 . S
C571 C54 1.469 . S
C576 C162 1.341 . S
C606 C178 1.339 . S
C601 C90 1.470 . S
C631 C78 1.470 . S
C636 C158 1.339 . S
C666 C103 1.369 . S
C661 C4 1.526 . S
C696 C121 1.369 . S
C691 C16 1.526 . S
C721 C28 1.520 . S
C726 C136 1.369 . S
C756 C116 1.369 . S
C751 C40 1.520 . S
C786 C142 1.369 . S
C781 C52 1.529 . S
C811 C64 1.529 . S
C816 C166 1.369 . S
C841 C76 1.523 . S
C846 C179 1.369 . S
C871 C88 1.523 . S
C876 C157 1.369 . S
