# Generated by pormake.
# Topology zzz, (3,6)-cn, num edge types: 1
# Building blocks:
#     Node 0, Type 0, BuildingBlock: CUQRIR_clean_linker_1, # of connection points: 3
#     Node 1, Type 0, BuildingBlock: CUQRIR_clean_linker_1, # of connection points: 3
#     Node 2, Type 0, BuildingBlock: CUQRIR_clean_linker_1, # of connection points: 3
#     Node 3, Type 0, BuildingBlock: CUQRIR_clean_linker_1, # of connection points: 3
#     Node 4, Type 0, BuildingBlock: CUQRIR_clean_linker_1, # of connection points: 3
#     Node 5, Type 0, BuildingBlock: CUQRIR_clean_linker_1, # of connection points: 3
#     Node 6, Type 0, BuildingBlock: CUQRIR_clean_linker_1, # of connection points: 3
#     Node 7, Type 0, BuildingBlock: CUQRIR_clean_linker_1, # of connection points: 3
#     Node 8, Type 1, BuildingBlock: HISSIN_clean_sbu_0, # of connection points: 6
#     Node 9, Type 1, BuildingBlock: HISSIN_clean_sbu_0, # of connection points: 6
#     Node 10, Type 1, BuildingBlock: HISSIN_clean_sbu_0, # of connection points: 6
#     Node 11, Type 1, BuildingBlock: HISSIN_clean_sbu_0, # of connection points: 6
#     Edge 12, Type (0, 1), BuildingBlock: UVAHIK_clean_linker_0, # of connection points: 2
#     Edge 13, Type (0, 1), BuildingBlock: UVAHIK_clean_linker_0, # of connection points: 2
#     Edge 14, Type (0, 1), BuildingBlock: UVAHIK_clean_linker_0, # of connection points: 2
#     Edge 15, Type (0, 1), BuildingBlock: UVAHIK_clean_linker_0, # of connection points: 2
#     Edge 16, Type (0, 1), BuildingBlock: UVAHIK_clean_linker_0, # of connection points: 2
#     Edge 17, Type (0, 1), BuildingBlock: UVAHIK_clean_linker_0, # of connection points: 2
#     Edge 18, Type (0, 1), BuildingBlock: UVAHIK_clean_linker_0, # of connection points: 2
#     Edge 19, Type (0, 1), BuildingBlock: UVAHIK_clean_linker_0, # of connection points: 2
#     Edge 20, Type (0, 1), BuildingBlock: UVAHIK_clean_linker_0, # of connection points: 2
#     Edge 21, Type (0, 1), BuildingBlock: UVAHIK_clean_linker_0, # of connection points: 2
#     Edge 22, Type (0, 1), BuildingBlock: UVAHIK_clean_linker_0, # of connection points: 2
#     Edge 23, Type (0, 1), BuildingBlock: UVAHIK_clean_linker_0, # of connection points: 2
#     Edge 24, Type (0, 1), BuildingBlock: UVAHIK_clean_linker_0, # of connection points: 2
#     Edge 25, Type (0, 1), BuildingBlock: UVAHIK_clean_linker_0, # of connection points: 2
#     Edge 26, Type (0, 1), BuildingBlock: UVAHIK_clean_linker_0, # of connection points: 2
#     Edge 27, Type (0, 1), BuildingBlock: UVAHIK_clean_linker_0, # of connection points: 2
#     Edge 28, Type (0, 1), BuildingBlock: UVAHIK_clean_linker_0, # of connection points: 2
#     Edge 29, Type (0, 1), BuildingBlock: UVAHIK_clean_linker_0, # of connection points: 2
#     Edge 30, Type (0, 1), BuildingBlock: UVAHIK_clean_linker_0, # of connection points: 2
#     Edge 31, Type (0, 1), BuildingBlock: UVAHIK_clean_linker_0, # of connection points: 2
#     Edge 32, Type (0, 1), BuildingBlock: UVAHIK_clean_linker_0, # of connection points: 2
#     Edge 33, Type (0, 1), BuildingBlock: UVAHIK_clean_linker_0, # of connection points: 2
#     Edge 34, Type (0, 1), BuildingBlock: UVAHIK_clean_linker_0, # of connection points: 2
#     Edge 35, Type (0, 1), BuildingBlock: UVAHIK_clean_linker_0, # of connection points: 2
# Relax obj value: 0.252
# Max RMSD: 0.184
# Mean RMSD: 0.103
data_MOF--net-zzz--node1-HISSIN_clean_sbu_0--node2-CUQRIR_clean_linker_1--edge1-UVAHIK_clean_linker_0
_symmetry_space_group_name_H-M    P1
_symmetry_Int_Tables_number       1
_symmetry_cell_setting            triclinic
loop_
_symmetry_equiv_pos_as_xyz
'x, y, z'
_cell_length_a     61.564286
_cell_length_b     61.800498
_cell_length_c     19.268896
_cell_angle_alpha  89.634668
_cell_angle_beta   91.930802
_cell_angle_gamma 90.540119
loop_
_atom_site_label
_atom_site_type_symbol
_atom_site_fract_x
_atom_site_fract_y
_atom_site_fract_z
_atom_type_partial_charge
C0 C 0.75053 0.53534 0.31413 0.0
N1 N 0.77229 0.53237 0.32256 0.0
N2 N 0.74421 0.53345 0.2459 0.0
C3 C 0.73568 0.54071 0.37148 0.0
C4 C 0.76294 0.52908 0.21385 0.0
N5 N 0.77978 0.52851 0.26027 0.0
C6 C 0.76482 0.52507 0.13741 0.0
H7 H 0.7279 0.52557 0.3899 0.0
H8 H 0.72267 0.55175 0.35224 0.0
H9 H 0.74486 0.54821 0.41582 0.0
H10 H 0.76754 0.54075 0.11059 0.0
H11 H 0.7497 0.51755 0.11531 0.0
H12 H 0.7788 0.51445 0.1275 0.0
C13 C 0.01748 0.75472 0.24408 0.0
N14 N 1.00913 0.77446 0.25749 0.0
N15 N 1.00549 0.74453 0.19308 0.0
C16 C 0.0376 0.74575 0.27902 0.0
C17 C 0.98975 0.75901 0.17569 0.0
N18 N 0.99192 0.77706 0.2149 0.0
C19 C 0.973 0.75584 0.11788 0.0
H20 H 0.05192 0.75109 0.24972 0.0
H21 H 0.03703 0.72779 0.27954 0.0
H22 H 0.03955 0.7519 0.33286 0.0
H23 H 0.96178 0.7425 0.13193 0.0
H24 H 0.98112 0.75107 0.06981 0.0
H25 H 0.9632 0.77055 0.10772 0.0
C26 C 0.78578 0.00979 0.20828 0.0
N27 N 0.76586 1.00161 0.22346 0.0
N28 N 0.79484 0.99833 0.15624 0.0
C29 C 0.79621 0.02893 0.24375 0.0
C30 C 0.7794 0.98311 0.14021 0.0
N31 N 0.7621 0.98502 0.18122 0.0
C32 C 0.7809 0.96689 0.08262 0.0
H33 H 0.79152 0.04383 0.21475 0.0
H34 H 0.81418 0.02762 0.24447 0.0
H35 H 0.79054 0.03035 0.29758 0.0
H36 H 0.79062 0.95292 0.10176 0.0
H37 H 0.78913 0.97417 0.03763 0.0
H38 H 0.76471 0.96064 0.06525 0.0
C39 C 0.52315 0.78802 0.27383 0.0
N40 N 0.51222 0.76879 0.27829 0.0
N41 N 0.51469 0.80039 0.22092 0.0
C42 C 0.54141 0.79508 0.32223 0.0
C43 C 0.49848 0.78791 0.1931 0.0
N44 N 0.49684 0.76901 0.22818 0.0
C45 C 0.48569 0.79326 0.12717 0.0
H46 H 0.53948 0.78795 0.37468 0.0
H47 H 0.54213 0.81299 0.3258 0.0
H48 H 0.55698 0.78941 0.30178 0.0
H49 H 0.49511 0.80405 0.09288 0.0
H50 H 0.47057 0.80164 0.14078 0.0
H51 H 0.48108 0.77843 0.09789 0.0
C52 C 0.30279 0.49685 0.03628 0.0
N53 N 0.28166 0.49043 0.032 0.0
N54 N 0.31318 0.48754 0.09204 0.0
C55 C 0.31279 0.51334 0.98947 0.0
C56 C 0.29743 0.47562 0.12194 0.0
N57 N 0.27829 0.47743 0.08584 0.0
C58 C 0.30035 0.46396 0.19035 0.0
H59 H 0.3057 0.51192 0.93595 0.0
H60 H 0.33069 0.51143 0.98908 0.0
H61 H 0.30918 0.52974 0.00892 0.0
H62 H 0.30161 0.47602 0.23275 0.0
H63 H 0.31567 0.45465 0.19147 0.0
H64 H 0.28656 0.45276 0.19976 0.0
C65 C 0.03533 0.28172 0.10303 0.0
N66 N 0.04405 0.26197 0.09174 0.0
N67 N 0.04581 0.29175 0.15749 0.0
C68 C 0.01534 0.29015 0.06588 0.0
C69 C 0.06112 0.27731 0.17866 0.0
N70 N 0.06014 0.25939 0.13869 0.0
C71 C 0.07676 0.28062 0.23932 0.0
H72 H 0.01482 0.28491 0.01088 0.0
H73 H 0.01474 0.30806 0.06852 0.0
H74 H 1.00081 0.28337 0.0911 0.0
H75 H 0.06882 0.27541 0.28758 0.0
H76 H 0.08122 0.29799 0.24449 0.0
H77 H 0.09165 0.27091 0.23351 0.0
C78 C 0.26177 0.03752 0.0924 0.0
N79 N 0.28253 0.04558 0.09607 0.0
N80 N 0.25039 0.04372 0.1485 0.0
C81 C 0.25256 0.02391 0.03427 0.0
C82 C 0.26505 0.05543 0.18662 0.0
N83 N 0.28429 0.05688 0.15462 0.0
C84 C 0.26132 0.06304 0.25959 0.0
H85 H 0.23463 0.02551 0.02973 0.0
H86 H 0.25644 1.00671 0.04536 0.0
H87 H 0.25996 0.02854 0.98452 0.0
H88 H 0.24754 0.05437 0.28324 0.0
H89 H 0.25767 0.08058 0.25823 0.0
H90 H 0.27599 0.06051 0.29358 0.0
C91 C 0.51967 0.25011 0.08746 0.0
N92 N 0.53049 0.26911 0.07726 0.0
N93 N 0.52963 0.23831 0.13906 0.0
C94 C 0.49984 0.24286 0.04637 0.0
C95 C 0.54665 0.25093 0.16026 0.0
N96 N 0.54726 0.26946 0.12263 0.0
C97 C 0.5615 0.24596 0.22194 0.0
H98 H 0.48524 0.24939 0.07087 0.0
H99 H 0.49853 0.22494 0.04597 0.0
H100 H 0.50022 0.24917 0.99237 0.0
H101 H 0.57636 0.23811 0.2035 0.0
H102 H 0.55359 0.2348 0.25891 0.0
H103 H 0.56641 0.26097 0.24978 0.0
Eu104 Eu 1.0078 0.02991 0.58912 0.0
Eu105 Eu 0.03887 0.0136 0.71899 0.0
C106 C 0.02668 0.06306 0.70441 0.0
C107 C 0.99458 0.04883 0.40961 0.0
C108 C 0.98759 0.0672 0.37271 0.0
C109 C 0.02385 0.04458 0.32937 0.0
C110 C 0.99924 0.07481 0.31646 0.0
C111 C 1.01223 0.03704 0.38585 0.0
C112 C 0.01816 0.06416 0.29635 0.0
C113 C 0.98678 0.04497 0.47986 0.0
O114 O 1.00501 0.01685 0.76205 0.0
O115 O 0.983 0.01684 0.66366 0.0
C116 C 0.98555 0.01561 0.73169 0.0
O117 O 0.01649 0.99569 0.56094 0.0
O118 O 0.05242 0.02101 0.82229 0.0
O119 O 0.05883 0.99005 0.77647 0.0
O120 O 0.02655 0.98246 0.66858 0.0
C121 C 0.02125 0.97938 0.60258 0.0
O122 O 0.04222 0.03477 0.55185 0.0
O123 O 0.06309 0.01602 0.63285 0.0
O124 O 0.04319 0.04989 0.71179 0.0
O125 O 0.98529 0.02485 0.50029 0.0
O126 O 0.99615 0.05723 0.52703 0.0
O127 O 1.00908 0.05669 0.66962 0.0
C128 C 0.04997 0.9907 0.8939 0.0
C129 C 0.02871 0.98246 0.8882 0.0
C130 C 0.0517 0.98018 0.01557 0.0
C131 C 0.01901 0.9731 0.94537 0.0
C132 C 0.0614 0.98971 0.95796 0.0
C133 C 0.03037 0.97176 0.00974 0.0
C134 C 0.05924 1.00139 0.83338 0.0
C135 C 0.06088 0.02615 0.57263 0.0
H136 H 0.97418 0.07665 0.39081 0.0
H137 H 0.03814 0.03585 0.31457 0.0
H138 H 0.99449 0.09007 0.29289 0.0
H139 H 0.01805 0.0229 0.41405 0.0
H140 H 0.01959 0.98315 0.83918 0.0
H141 H 0.06084 0.97937 0.06452 0.0
H142 H 1.0028 0.96633 0.93842 0.0
H143 H 0.07774 0.99628 0.96336 0.0
Eu144 Eu 0.54174 0.037 0.75154 0.0
Eu145 Eu 0.51992 1.00379 0.63647 0.0
C146 C 0.53941 0.98591 0.78072 0.0
C147 C 0.5614 0.05361 0.92758 0.0
C148 C 0.58011 0.0594 0.9665 0.0
C149 C 0.55166 0.02803 0.01788 0.0
C150 C 0.58518 0.04874 0.02899 0.0
C151 C 0.54665 0.03866 0.95523 0.0
C152 C 0.57163 0.03202 0.05333 0.0
C153 C 0.56015 0.05881 0.85316 0.0
O154 O 0.49213 0.01127 0.70734 0.0
O155 O 0.50571 0.03966 0.77228 0.0
C156 C 0.48955 0.02668 0.75315 0.0
O157 O 0.53617 0.05881 0.65881 0.0
O158 O 0.50684 0.97132 0.6182 0.0
O159 O 0.50669 0.99458 0.5341 0.0
O160 O 0.51337 0.0373 0.59087 0.0
C161 C 0.52327 0.05595 0.60374 0.0
O162 O 0.56983 0.02802 0.68226 0.0
O163 O 0.55336 1.00834 0.59365 0.0
O164 O 0.53934 0.98326 0.71332 0.0
O165 O 0.57042 0.04511 0.8153 0.0
O166 O 0.54104 0.06353 0.8262 0.0
O167 O 0.53643 1.00513 0.80653 0.0
C168 C 0.47484 0.97427 0.54844 0.0
C169 C 0.465 0.97803 0.48286 0.0
C170 C 0.44022 0.98024 0.60181 0.0
C171 C 0.44331 0.98437 0.47745 0.0
C172 C 0.46187 0.97389 0.60734 0.0
C173 C 0.43137 0.98699 0.5376 0.0
C174 C 0.49861 0.97641 0.55715 0.0
C175 C 0.57061 0.01794 0.62206 0.0
H176 H 0.5918 0.0707 0.94557 0.0
H177 H 0.54072 0.01549 0.03563 0.0
H178 H 0.60081 0.05217 0.05423 0.0
H179 H 0.53214 0.03384 0.92563 0.0
H180 H 0.47465 0.97838 0.43685 0.0
H181 H 0.43106 0.98193 0.64848 0.0
H182 H 0.43668 0.98958 0.42733 0.0
H183 H 0.46891 0.97089 0.65873 0.0
Eu184 Eu 0.50552 0.52543 0.73958 0.0
Eu185 Eu 0.54281 0.51362 0.63104 0.0
C186 C 0.55534 0.52729 0.78467 0.0
C187 C 0.46029 0.55182 0.84055 0.0
C188 C 0.46302 0.57226 0.8101 0.0
C189 C 0.4318 0.566 0.91071 0.0
C190 C 0.45082 0.5897 0.83198 0.0
C191 C 0.44411 0.54858 0.889 0.0
C192 C 0.43567 0.58694 0.88456 0.0
C193 C 0.47561 0.53444 0.82768 0.0
O194 O 0.53907 0.48273 0.69426 0.0
O195 O 0.50549 0.48881 0.738 0.0
C196 C 0.52182 0.47584 0.72677 0.0
O197 O 0.4897 0.52691 0.63238 0.0
O198 O 0.57671 0.50592 0.61571 0.0
O199 O 0.55492 0.51051 0.52629 0.0
O200 O 0.51093 0.50204 0.58066 0.0
C201 C 0.49284 0.51321 0.58197 0.0
O202 O 0.51633 0.55846 0.69895 0.0
O203 O 0.53251 0.54733 0.59978 0.0
O204 O 0.55836 0.53261 0.71978 0.0
O205 O 0.4719 0.52289 0.77207 0.0
O206 O 0.49613 0.5395 0.83699 0.0
O207 O 0.53663 0.51893 0.80177 0.0
C208 C 0.58447 0.48669 0.5132 0.0
C209 C 0.59518 0.47016 0.55087 0.0
C210 C 0.59339 0.46905 0.40579 0.0
C211 C 0.60475 0.45312 0.51617 0.0
C212 C 0.58397 0.48614 0.44045 0.0
C213 C 0.60373 0.45222 0.44322 0.0
C214 C 0.57437 0.50498 0.54829 0.0
C215 C 0.52439 0.56271 0.63766 0.0
H216 H 0.47544 0.57498 0.77234 0.0
H217 H 0.42004 0.56329 0.9505 0.0
H218 H 0.45446 0.60561 0.81125 0.0
H219 H 0.44173 0.5328 0.91255 0.0
H220 H 0.59608 0.47028 0.6071 0.0
H221 H 0.59194 0.46871 0.34964 0.0
H222 H 0.61279 0.44054 0.54652 0.0
H223 H 0.57602 0.49883 0.41029 0.0
Eu224 Eu 0.03206 0.53491 0.60923 0.0
Eu225 Eu 0.02213 0.50198 0.73766 0.0
C226 C 0.07022 0.51555 0.70562 0.0
C227 C 0.05301 0.5521 0.4372 0.0
C228 C 0.05027 0.53119 0.4099 0.0
C229 C 0.08218 0.55877 0.35829 0.0
C230 C 0.06394 0.52384 0.35901 0.0
C231 C 0.06848 0.56611 0.40928 0.0
C232 C 0.08065 0.53726 0.33492 0.0
C233 C 0.04216 0.55809 0.50091 0.0
O234 O 0.02502 0.53549 0.78582 0.0
O235 O 0.0209 0.55796 0.69089 0.0
C236 C 0.02194 0.55488 0.75854 0.0
O237 O 0.99573 0.52976 0.60115 0.0
O238 O 0.03469 0.48936 0.83674 0.0
O239 O 1.00412 0.47718 0.79351 0.0
O240 O 0.98838 0.51349 0.70572 0.0
C241 C 0.98192 0.52255 0.64664 0.0
O242 O 0.03854 0.50117 0.56781 0.0
O243 O 0.0196 0.48021 0.64409 0.0
O244 O 0.05746 0.49864 0.71174 0.0
O245 O 0.02298 0.54963 0.50932 0.0
O246 O 0.0543 0.55701 0.55748 0.0
O247 O 0.06218 0.53365 0.68045 0.0
C248 C 1.00722 0.48176 0.91395 0.0
C249 C 0.99813 0.50202 0.92605 0.0
C250 C 0.99546 0.46923 0.02621 0.0
C251 C 0.98742 0.50577 0.98723 0.0
C252 C 1.00621 0.46549 0.96465 0.0
C253 C 0.98563 0.48932 0.03759 0.0
C254 C 0.01736 0.47775 0.84778 0.0
C255 C 0.02951 0.48257 0.58511 0.0
H256 H 0.03843 0.52007 0.43084 0.0
H257 H 0.09478 0.56952 0.33998 0.0
H258 H 0.06247 0.50714 0.3426 0.0
H259 H 0.07082 0.58229 0.42975 0.0
H260 H 0.99881 0.51476 0.88726 0.0
H261 H 0.99444 0.45629 0.06418 0.0
H262 H 0.97967 0.52127 0.99343 0.0
H263 H 0.01333 0.44981 0.95605 0.0
C264 C 0.22171 0.01889 0.19156 0.0
C265 C 0.22813 0.03944 0.16777 0.0
C266 C 0.20241 0.01617 0.22845 0.0
C267 C 0.15155 0.04558 0.28087 0.0
H268 H 0.15238 1.00355 0.43077 0.0
C269 C 0.07665 0.03406 0.45524 0.0
C270 C 0.07977 0.0275 0.52502 0.0
C271 C 0.09396 0.03455 0.4094 0.0
C272 C 0.15182 0.01561 0.38982 0.0
H273 H 0.2191 0.07306 0.16268 0.0
H274 H 0.18587 0.06865 0.22636 0.0
H275 H 0.18288 1.00596 0.35417 0.0
H276 H 0.10412 0.01659 0.60076 0.0
H277 H 0.13439 0.0183 0.52229 0.0
H278 H 0.12108 0.05603 0.31841 0.0
C279 C 0.19517 0.05433 0.21591 0.0
C280 C 0.16934 0.01673 0.34457 0.0
C281 C 0.21428 0.05695 0.17886 0.0
C282 C 0.10093 0.02167 0.54753 0.0
C283 C 0.11837 0.02247 0.50189 0.0
C284 C 0.13417 0.04463 0.32649 0.0
C285 C 0.18907 0.03399 0.24314 0.0
C286 C 0.16964 0.03184 0.28933 0.0
C287 C 0.11525 0.02885 0.43167 0.0
C288 C 0.13394 0.02968 0.38217 0.0
H289 H 0.23226 1.00518 0.18513 0.0
H290 H 0.19831 1.00013 0.24696 0.0
H291 H 0.15068 0.05725 0.23879 0.0
H292 H 0.06065 0.03851 0.43537 0.0
H293 H 0.09044 0.03908 0.35591 0.0
C294 C 0.50583 0.21441 0.20774 0.0
C295 C 0.5242 0.21729 0.16728 0.0
C296 C 0.50341 0.19563 0.24862 0.0
C297 C 0.53799 0.15412 0.33583 0.0
H298 H 0.48363 0.12517 0.37549 0.0
C299 C 0.53223 0.09383 0.56417 0.0
C300 C 0.5206 0.07435 0.55327 0.0
C301 C 0.53109 0.1107 0.5153 0.0
C302 C 0.49897 0.13299 0.36468 0.0
H303 H 0.55377 0.20252 0.13479 0.0
H304 H 0.54945 0.16959 0.20413 0.0
H305 H 0.4841 0.15471 0.28984 0.0
H306 H 0.49809 0.0578 0.48219 0.0
H307 H 0.49608 0.08734 0.39683 0.0
H308 H 0.55293 0.13257 0.41007 0.0
C309 C 0.53704 0.18186 0.20579 0.0
C310 C 0.49922 0.15007 0.31594 0.0
C311 C 0.53941 0.20056 0.16527 0.0
C312 C 0.50731 0.07251 0.49256 0.0
C313 C 0.50608 0.08951 0.44363 0.0
C314 C 0.53772 0.13725 0.38465 0.0
C315 C 0.5194 0.1794 0.24999 0.0
C316 C 0.51877 0.16087 0.30072 0.0
C317 C 0.51824 0.10873 0.45383 0.0
C318 C 0.51823 0.12646 0.40018 0.0
H319 H 0.49409 0.22727 0.21097 0.0
H320 H 0.48967 0.19441 0.28208 0.0
H321 H 0.55333 0.16217 0.32657 0.0
H322 H 0.54258 0.09603 0.61019 0.0
H323 H 0.54038 0.12535 0.52578 0.0
C324 C 0.33706 0.51219 0.16045 0.0
C325 C 0.33409 0.49278 0.12387 0.0
C326 C 0.35557 0.51543 0.20375 0.0
C327 C 0.41121 0.49539 0.2485 0.0
H328 H 0.39922 0.51691 0.4316 0.0
C329 C 0.47605 0.49413 0.47694 0.0
C330 C 0.47581 0.51106 0.52539 0.0
C331 C 0.45955 0.49222 0.42496 0.0
C332 C 0.40307 0.51122 0.38048 0.0
H333 H 0.3482 0.46185 0.10179 0.0
H334 H 0.38086 0.46754 0.17634 0.0
H335 H 0.36995 0.51415 0.34427 0.0
H336 H 0.45827 0.53963 0.55535 0.0
H337 H 0.43019 0.5367 0.46458 0.0
H338 H 0.44441 0.49262 0.28461 0.0
C339 C 0.36902 0.48035 0.17154 0.0
C340 C 0.38617 0.50962 0.33022 0.0
C341 C 0.3504 0.47708 0.12874 0.0
C342 C 0.45891 0.52619 0.51967 0.0
C343 C 0.44261 0.52442 0.46754 0.0
C344 C 0.42822 0.4972 0.29871 0.0
C345 C 0.37156 0.49933 0.2112 0.0
C346 C 0.38996 0.50168 0.26352 0.0
C347 C 0.44248 0.50728 0.4197 0.0
C348 C 0.42442 0.50516 0.36559 0.0
H349 H 0.3245 0.52434 0.15818 0.0
H350 H 0.35709 0.53034 0.23283 0.0
H351 H 0.41476 0.48931 0.19757 0.0
H352 H 0.48879 0.48217 0.47978 0.0
H353 H 0.45998 0.47865 0.38979 0.0
C354 C 0.03264 0.3109 0.25986 0.0
C355 C 0.04051 0.3116 0.19233 0.0
C356 C 0.03015 0.32997 0.29789 0.0
C357 C 0.05074 0.38651 0.31138 0.0
H358 H 1.00205 0.39384 0.43103 0.0
C359 C 0.03966 0.46544 0.4714 0.0
C360 C 0.03065 0.46354 0.53742 0.0
C361 C 0.04029 0.44756 0.42664 0.0
C362 C 0.01597 0.39203 0.39876 0.0
H363 H 0.05195 0.3327 0.11145 0.0
H364 H 0.04756 0.36625 0.17751 0.0
H365 H 1.00369 0.36192 0.35803 0.0
H366 H 0.01554 0.44089 0.60791 0.0
H367 H 0.01711 0.40988 0.53142 0.0
H368 H 0.06329 0.41637 0.35306 0.0
C369 C 0.04327 0.35094 0.20133 0.0
C370 C 0.01685 0.37365 0.35647 0.0
C371 C 0.04557 0.33181 0.16308 0.0
C372 C 0.02249 0.44316 0.55745 0.0
C373 C 0.02323 0.42528 0.51301 0.0
C374 C 0.04995 0.40485 0.35409 0.0
C375 C 0.03573 0.35029 0.26968 0.0
C376 C 0.03431 0.3705 0.3124 0.0
C377 C 0.03203 0.42714 0.44659 0.0
C378 C 0.03262 0.40787 0.399 0.0
H379 H 0.02894 0.29546 0.28378 0.0
H380 H 0.02456 0.32868 0.35045 0.0
H381 H 0.06461 0.38459 0.27895 0.0
H382 H 0.04613 0.4808 0.45389 0.0
H383 H 0.04698 0.44989 0.37587 0.0
C384 C 0.82133 0.02165 0.09356 0.0
C385 C 0.81549 1.00151 0.12244 0.0
C386 C 0.84009 0.02383 0.05376 0.0
C387 C 0.87623 0.9917 0.94417 0.0
H388 H 0.91692 0.03966 0.96424 0.0
C389 C 0.94519 1.00877 0.74788 0.0
C390 C 0.96601 0.01379 0.77638 0.0
C391 C 0.92696 1.00743 0.79016 0.0
C392 C 0.90574 0.02613 0.95791 0.0
H393 H 0.82558 0.96825 0.13485 0.0
H394 H 0.85772 0.97183 0.06428 0.0
H395 H 0.88537 0.03745 0.03851 0.0
H396 H 0.98359 0.02139 0.87279 0.0
H397 H 0.95189 0.01948 0.94563 0.0
H398 H 0.8964 0.9805 0.86312 0.0
C399 C 0.84777 0.98593 0.07166 0.0
C400 C 0.88753 0.02495 1.00029 0.0
C401 C 0.8293 0.98387 0.11223 0.0
C402 C 0.96793 0.01749 0.84853 0.0
C403 C 0.94966 0.01652 0.8905 0.0
C404 C 0.89418 0.99311 0.90094 0.0
C405 C 0.85334 1.00587 0.0409 0.0
C406 C 0.87257 1.0076 0.99454 0.0
C407 C 0.92886 0.01144 0.86211 0.0
C408 C 0.90935 0.01025 0.90738 0.0
H409 H 0.81098 0.03551 0.09965 0.0
H410 H 0.84377 0.03944 0.03091 0.0
H411 H 0.86503 0.9782 0.93762 0.0
H412 H 0.94296 1.0058 0.69276 0.0
H413 H 0.91125 1.00358 0.76618 0.0
C414 C 0.50547 0.83767 0.1859 0.0
C415 C 0.52119 0.82151 0.19572 0.0
C416 C 0.50979 0.85618 0.14632 0.0
C417 C 0.55171 0.89119 0.07151 0.0
H418 H 0.50813 0.90071 0.92456 0.0
C419 C 0.54555 0.96964 0.90012 0.0
C420 C 0.54122 0.96685 0.82845 0.0
C421 C 0.54548 0.95188 0.94593 0.0
C422 C 0.52052 0.89825 0.96503 0.0
H423 H 0.55426 0.81271 0.17565 0.0
H424 H 0.56224 0.84566 0.10797 0.0
H425 H 0.5037 0.87078 1.00629 0.0
H426 H 0.5338 0.94298 0.74898 0.0
H427 H 0.53329 0.91211 0.829 0.0
H428 H 0.56829 0.91907 0.03065 0.0
C429 C 0.54644 0.84381 0.13045 0.0
C430 C 0.51788 0.88119 0.01228 0.0
C431 C 0.54197 0.82505 0.16953 0.0
C432 C 0.53727 0.94576 0.80369 0.0
C433 C 0.53685 0.92806 0.84965 0.0
C434 C 0.55415 0.90859 0.02485 0.0
C435 C 0.5301 0.8592 0.11627 0.0
C436 C 0.5334 0.87743 0.06621 0.0
C437 C 0.54071 0.93091 0.92146 0.0
C438 C 0.53858 0.91229 0.97085 0.0
H439 H 0.48936 0.83532 0.20569 0.0
H440 H 0.49697 0.86785 0.13731 0.0
H441 H 0.56393 0.88874 0.11249 0.0
H442 H 0.5487 0.98564 0.92107 0.0
H443 H 0.54838 0.95465 1.00091 0.0
C444 C 0.70538 0.52294 0.22934 0.0
C445 C 0.72303 0.53632 0.21255 0.0
C446 C 0.68599 0.52334 0.18856 0.0
C447 C 0.66731 0.53576 0.00905 0.0
H448 H 0.60918 0.53365 0.07999 0.0
C449 C 0.59212 0.54192 0.82263 0.0
C450 C 0.57339 0.52983 0.83767 0.0
C451 C 0.6095 0.54359 0.87124 0.0
C452 C 0.62528 0.53394 0.05907 0.0
H453 H 0.73383 0.56155 0.14332 0.0
H454 H 0.70023 0.56228 0.07204 0.0
H455 H 0.64062 0.53495 0.16095 0.0
H456 H 0.55829 0.51009 0.91632 0.0
H457 H 0.58877 0.51243 1.00018 0.0
H458 H 0.65234 0.53412 0.90758 0.0
C459 C 0.70134 0.55121 0.11579 0.0
C460 C 0.64333 0.53477 0.10571 0.0
C461 C 0.72053 0.55089 0.15671 0.0
C462 C 0.57241 0.51964 0.90303 0.0
C463 C 0.58992 0.5211 0.95144 0.0
C464 C 0.64936 0.53469 0.96258 0.0
C465 C 0.684 0.53705 0.12995 0.0
C466 C 0.66458 0.53587 0.08123 0.0
C467 C 0.60885 0.53297 0.93616 0.0
C468 C 0.62801 0.53393 0.98663 0.0
H469 H 0.707 0.51145 0.27182 0.0
H470 H 0.67298 0.5122 0.2009 0.0
H471 H 0.68344 0.53614 0.98829 0.0
H472 H 0.59339 0.55014 0.77309 0.0
H473 H 0.62346 0.55333 0.85773 0.0
C474 C 0.99283 0.70811 0.15615 0.0
C475 C 1.00924 0.72405 0.15936 0.0
C476 C 0.99515 0.68937 0.11645 0.0
C477 C 0.02599 0.66784 0.9685 0.0
H478 H 1.00052 0.61317 0.02481 0.0
C479 C 0.01745 0.59501 0.77899 0.0
C480 C 0.02037 0.57395 0.80583 0.0
C481 C 0.01658 0.61294 0.82332 0.0
C482 C 1.00793 0.62821 1.00826 0.0
H483 H 0.04121 0.73261 0.1248 0.0
H484 H 0.04569 0.69963 0.05656 0.0
H485 H 0.99925 0.64425 0.1015 0.0
H486 H 0.02458 0.5555 0.90141 0.0
H487 H 0.02335 0.5866 0.97822 0.0
H488 H 0.03504 0.65167 0.87584 0.0
C489 C 0.03076 0.70171 0.08378 0.0
C490 C 1.00696 0.64622 0.05215 0.0
C491 C 0.02839 0.7205 0.12364 0.0
C492 C 0.02226 0.57139 0.87849 0.0
C493 C 0.02142 0.58932 0.92281 0.0
C494 C 0.02697 0.64981 0.92461 0.0
C495 C 0.01403 0.68595 0.0787 0.0
C496 C 0.01587 0.6664 0.03293 0.0
C497 C 0.01864 0.61044 0.89603 0.0
C498 C 0.01786 0.62969 0.94353 0.0
H499 H 0.97796 0.7104 0.1835 0.0
H500 H 0.98177 0.67788 0.11369 0.0
H501 H 0.03284 0.68305 0.95109 0.0
H502 H 0.01586 0.59773 0.72348 0.0
H503 H 0.01405 0.62879 0.80036 0.0
C504 C 0.08203 0.22926 0.09735 0.0
C505 C 0.07125 0.23931 0.15124 0.0
C506 C 0.08792 0.20751 0.10308 0.0
C507 C 0.08906 0.16034 0.226 0.0
H508 H 0.06336 0.12952 0.06846 0.0
C509 C 0.02602 0.0887 0.19568 0.0
C510 C 0.03366 0.07556 0.25085 0.0
C511 C 0.03965 0.1042 0.16642 0.0
C512 C 0.07086 0.1378 0.11261 0.0
H513 H 0.05938 0.23533 0.2547 0.0
H514 H 0.06964 0.19755 0.26565 0.0
H515 H 0.07274 0.16771 0.05683 0.0
H516 H 0.06239 0.06661 0.31256 0.0
H517 H 0.08626 0.0931 0.25999 0.0
H518 H 0.08567 0.13102 0.28353 0.0
C519 C 0.07395 0.20628 0.21912 0.0
C520 C 0.07638 0.15969 0.10586 0.0
C521 C 0.06805 0.22795 0.21314 0.0
C522 C 0.0559 0.07644 0.27018 0.0
C523 C 0.06958 0.09184 0.24057 0.0
C524 C 0.08357 0.13849 0.23279 0.0
C525 C 0.08314 0.19553 0.16306 0.0
C526 C 0.08417 0.17151 0.16383 0.0
C527 C 0.06126 0.1068 0.19154 0.0
C528 C 0.07317 0.12732 0.17737 0.0
H529 H 0.08465 0.2379 0.04925 0.0
H530 H 0.09516 0.1998 0.05929 0.0
H531 H 0.0956 0.16886 0.27111 0.0
H532 H 1.00908 0.0881 0.17862 0.0
H533 H 0.03262 0.11539 0.12867 0.0
C534 C 0.30514 0.08458 0.2209 0.0
C535 C 0.3043 0.06447 0.18707 0.0
C536 C 0.32137 0.0888 0.27163 0.0
C537 C 0.37246 0.07326 0.35291 0.0
H538 H 0.34169 0.0466 0.50441 0.0
C539 C 0.39439 0.99723 0.49357 0.0
C540 C 0.41292 1.00186 0.53504 0.0
C541 C 0.37985 0.0137 0.47589 0.0
C542 C 0.35048 0.05487 0.46414 0.0
H543 H 0.32114 0.03433 0.17281 0.0
H544 H 0.35042 0.04246 0.25622 0.0
H545 H 0.32127 0.06486 0.41049 0.0
H546 H 0.43045 0.02665 0.59373 0.0
H547 H 0.40542 0.05572 0.55986 0.0
H548 H 0.40153 0.0615 0.40346 0.0
C549 C 0.33827 0.0547 0.24509 0.0
C550 C 0.33888 0.0654 0.41068 0.0
C551 C 0.32159 0.05009 0.19694 0.0
C552 C 0.41598 0.02272 0.56262 0.0
C553 C 0.40177 0.03932 0.54337 0.0
C554 C 0.38411 0.06328 0.40737 0.0
C555 C 0.33747 0.07339 0.28582 0.0
C556 C 0.34971 0.07315 0.35238 0.0
C557 C 0.38407 0.03501 0.49797 0.0
C558 C 0.37302 0.05269 0.46049 0.0
H559 H 0.29205 0.096 0.2131 0.0
H560 H 0.32044 0.1032 0.30311 0.0
H561 H 0.38102 0.07883 0.30784 0.0
H562 H 0.39199 0.98131 0.47117 0.0
H563 H 0.36643 0.01021 0.43973 0.0
C564 C 0.58385 0.28571 0.14007 0.0
C565 C 0.56115 0.28787 0.13664 0.0
C566 C 0.59713 0.30336 0.1589 0.0
C567 C 0.61419 0.33875 0.26097 0.0
H568 H 0.60103 0.39652 0.19311 0.0
C569 C 0.60755 0.41212 0.4324 0.0
C570 C 0.6116 0.43298 0.40612 0.0
C571 C 0.61109 0.39395 0.39198 0.0
C572 C 0.60547 0.38053 0.21171 0.0
H573 H 0.53447 0.30984 0.1492 0.0
H574 H 0.55754 0.34087 0.17941 0.0
H575 H 0.58775 0.36521 0.12779 0.0
H576 H 0.62477 0.45098 0.31981 0.0
H577 H 0.63043 0.41912 0.2484 0.0
H578 H 0.63054 0.35409 0.34767 0.0
C579 C 0.56515 0.32567 0.16728 0.0
C580 C 0.59771 0.36263 0.1745 0.0
C581 C 0.55194 0.30799 0.15002 0.0
C582 C 0.62097 0.43514 0.34081 0.0
C583 C 0.62437 0.41693 0.30012 0.0
C584 C 0.62183 0.35668 0.29857 0.0
C585 C 0.58782 0.32345 0.17295 0.0
C586 C 0.60108 0.34165 0.20067 0.0
C587 C 0.61863 0.39624 0.32428 0.0
C588 C 0.61657 0.37773 0.27603 0.0
H589 H 0.59119 0.27028 0.12951 0.0
H590 H 0.61457 0.30128 0.16334 0.0
H591 H 0.61697 0.3227 0.28223 0.0
H592 H 0.60016 0.40983 0.48215 0.0
H593 H 0.60622 0.37825 0.41178 0.0
C594 C 0.24127 0.46178 0.07422 0.0
C595 C 0.25714 0.47341 0.11289 0.0
C596 C 0.21958 0.46185 0.0938 0.0
C597 C 0.1847 0.47387 0.24004 0.0
H598 H 0.14516 0.50012 0.10352 0.0
C599 C 0.12002 0.53179 0.3175 0.0
C600 C 0.0984 0.52775 0.29547 0.0
C601 C 0.13692 0.52048 0.28888 0.0
C602 C 0.15585 0.49232 0.14164 0.0
H603 H 0.26328 0.49341 0.20312 0.0
H604 H 0.22581 0.49274 0.23951 0.0
H605 H 0.18016 0.48612 0.06726 0.0
H606 H 0.07759 0.50941 0.22383 0.0
H607 H 0.10761 0.48974 0.17234 0.0
H608 H 0.16116 0.48136 0.31509 0.0
C609 C 0.22993 0.48361 0.19403 0.0
C610 C 0.17578 0.48425 0.12099 0.0
C611 C 0.25136 0.48393 0.17359 0.0
C612 C 0.09413 0.51279 0.24181 0.0
C613 C 0.1112 0.50157 0.21244 0.0
C614 C 0.16492 0.48195 0.26057 0.0
C615 C 0.21373 0.47306 0.15341 0.0
C616 C 0.19076 0.47591 0.17075 0.0
C617 C 0.13263 0.50494 0.23734 0.0
C618 C 0.15082 0.49214 0.21214 0.0
H619 H 0.24553 0.4534 0.02755 0.0
H620 H 0.20736 0.45361 0.06172 0.0
H621 H 0.19588 0.46725 0.27912 0.0
H622 H 0.12386 0.54293 0.35942 0.0
H623 H 0.15339 0.52355 0.30814 0.0
C624 C 0.97195 0.80814 0.25887 0.0
C625 C 0.98145 0.79753 0.20341 0.0
C626 C 0.96841 0.83044 0.25565 0.0
C627 C 0.96564 0.878 0.14114 0.0
H628 H 1.00789 0.90483 0.2684 0.0
C629 C 0.03252 0.94417 0.10528 0.0
C630 C 0.02042 0.95972 0.06769 0.0
C631 C 0.02203 0.92892 0.14653 0.0
C632 C 0.99566 0.89772 0.23356 0.0
H633 H 0.99274 0.80114 0.09906 0.0
H634 H 0.98522 0.83982 0.09117 0.0
H635 H 0.99661 0.86724 0.28699 0.0
H636 H 0.98832 0.97343 0.05145 0.0
H637 H 0.96996 0.94647 0.12241 0.0
H638 H 0.96589 0.90775 0.08437 0.0
C639 C 0.98087 0.83107 0.13766 0.0
C640 C 0.98909 0.8763 0.24451 0.0
C641 C 0.98504 0.80896 0.14181 0.0
C642 C 0.99799 0.96125 0.07838 0.0
C643 C 0.98749 0.94591 0.11925 0.0
C644 C 0.97199 0.89946 0.13063 0.0
C645 C 0.97353 0.84215 0.19571 0.0
C646 C 0.97489 0.86599 0.19634 0.0
C647 C 0.99927 0.92893 0.15064 0.0
C648 C 0.98794 0.90914 0.1746 0.0
H649 H 0.96893 0.79947 0.3066 0.0
H650 H 0.96279 0.83869 0.30103 0.0
H651 H 0.95472 0.87031 0.10333 0.0
H652 H 0.0498 0.94253 0.09812 0.0
H653 H 0.03155 0.91595 0.16975 0.0
C654 C 0.72767 0.9784 0.11752 0.0
C655 C 0.74153 0.97393 0.17471 0.0
C656 C 0.70575 0.97265 0.11879 0.0
C657 C 0.65977 0.95655 0.12724 0.0
H658 H 0.63571 0.98366 0.28812 0.0
C659 C 0.59504 0.02305 0.15868 0.0
C660 C 0.58054 0.01621 0.10517 0.0
C661 C 0.60935 1.00838 0.19069 0.0
C662 C 0.64208 0.97572 0.2433 0.0
H663 H 0.74408 0.95894 0.27614 0.0
H664 H 0.70538 0.94907 0.27937 0.0
H665 H 0.67398 0.97373 0.29037 0.0
H666 H 0.56729 0.98794 0.05173 0.0
H667 H 0.59163 0.96237 0.10918 0.0
H668 H 0.62866 0.96037 0.07743 0.0
C669 C 0.71147 0.95683 0.23328 0.0
C670 C 0.66398 0.96985 0.24477 0.0
C671 C 0.73353 0.96236 0.23141 0.0
C672 C 0.57834 0.99389 0.09224 0.0
C673 C 0.5925 0.97918 0.12475 0.0
C674 C 0.63796 0.96246 0.12567 0.0
C675 C 0.69722 0.96258 0.17786 0.0
C676 C 0.67333 0.96159 0.18496 0.0
C677 C 0.60929 0.98655 0.17011 0.0
C678 C 0.62925 0.97348 0.18197 0.0
H679 H 0.7335 0.98779 0.0742 0.0
H680 H 0.69518 0.97772 0.07577 0.0
H681 H 0.66645 0.94977 0.08094 0.0
H682 H 0.59672 0.04006 0.17125 0.0
H683 H 0.62192 0.0147 0.22584 0.0
C684 C 0.49458 0.73261 0.17908 0.0
C685 C 0.48413 0.75067 0.20529 0.0
C686 C 0.48247 0.71626 0.14616 0.0
C687 C 0.43092 0.68895 0.12645 0.0
H688 H 0.45031 0.67725 0.94101 0.0
C689 C 0.42746 0.60703 0.99253 0.0
C690 C 0.42701 0.60622 0.91956 0.0
C691 C 0.42558 0.62675 0.0265 0.0
C692 C 0.44425 0.68059 0.99194 0.0
H693 H 0.45319 0.7657 0.22149 0.0
H694 H 0.43165 0.73654 0.16487 0.0
H695 H 0.46619 0.70734 1.00626 0.0
H696 H 0.42107 0.62494 0.82538 0.0
H697 H 0.41804 0.65951 0.88492 0.0
H698 H 0.4098 0.66134 0.11336 0.0
C699 C 0.44917 0.73518 0.16942 0.0
C700 C 0.45358 0.69765 0.02955 0.0
C701 C 0.46136 0.75172 0.20161 0.0
C702 C 0.42204 0.62514 0.88161 0.0
C703 C 0.42022 0.6449 0.91565 0.0
C704 C 0.42172 0.67162 0.08899 0.0
C705 C 0.45973 0.71767 0.13967 0.0
C706 C 0.4475 0.70152 0.09776 0.0
C707 C 0.42329 0.64603 0.98816 0.0
C708 C 0.42878 0.66691 0.02208 0.0
H709 H 0.51215 0.73174 0.18118 0.0
H710 H 0.4909 0.70277 0.12403 0.0
H711 H 0.42596 0.69179 0.179 0.0
H712 H 0.43137 0.59283 0.02355 0.0
H713 H 0.42811 0.62707 0.08239 0.0
C714 C 0.811 0.50475 0.24802 0.0
C715 C 0.80225 0.52554 0.24656 0.0
C716 C 0.83338 0.502 0.24367 0.0
C717 C 0.88275 0.5306 0.18728 0.0
H718 H 0.91165 0.48224 0.27922 0.0
C719 C 0.97006 0.51289 0.12856 0.0
C720 C 0.97126 0.49252 0.09682 0.0
C721 C 0.95267 0.51773 0.17017 0.0
C722 C 0.90381 0.49596 0.25404 0.0
H723 H 0.80926 0.55974 0.24095 0.0
H724 H 0.84858 0.55523 0.23485 0.0
H725 H 0.87374 0.48987 0.30354 0.0
H726 H 0.95655 0.4605 0.09048 0.0
H727 H 0.92647 0.46888 0.16388 0.0
H728 H 0.91263 0.53649 0.13708 0.0
C729 C 0.83834 0.54093 0.23741 0.0
C730 C 0.88208 0.5002 0.26725 0.0
C731 C 0.81594 0.54359 0.2407 0.0
C732 C 0.95617 0.47633 0.11421 0.0
C733 C 0.93889 0.48112 0.15634 0.0
C734 C 0.90449 0.52655 0.17495 0.0
C735 C 0.84736 0.52008 0.23884 0.0
C736 C 0.87111 0.51716 0.23221 0.0
C737 C 0.93635 0.5022 0.18136 0.0
C738 C 0.91503 0.50882 0.20657 0.0
H739 H 0.80048 0.49075 0.25369 0.0
H740 H 0.83968 0.4857 0.24357 0.0
H741 H 0.87483 0.5436 0.15862 0.0
H742 H 0.98178 0.52553 0.11753 0.0
H743 H 0.9512 0.53402 0.18981 0.0
C744 C 0.026 0.22643 0.07513 0.0
C745 C 0.03587 0.24487 0.0465 0.0
C746 C 0.02277 0.20756 0.03581 0.0
C747 C 0.02367 0.18519 0.85461 0.0
H748 H 0.03493 0.13114 0.95196 0.0
C749 C 1.01131 0.10025 0.72521 0.0
C750 C 0.02739 0.08463 0.73961 0.0
C751 C 1.01153 0.12012 0.76051 0.0
C752 C 0.03183 0.14607 0.92373 0.0
H753 H 0.04974 0.25815 0.95404 0.0
H754 H 0.04403 0.22535 0.88451 0.0
H755 H 0.03542 0.16494 0.01615 0.0
H756 H 0.05634 0.07793 0.80304 0.0
H757 H 0.05657 0.11233 0.8648 0.0
H758 H 0.01992 0.16608 0.76209 0.0
C759 C 0.03841 0.22543 0.93712 0.0
C760 C 0.03195 0.16556 0.96079 0.0
C761 C 0.0416 0.24434 0.97666 0.0
C762 C 0.04371 0.08952 0.7902 0.0
C763 C 0.04376 0.10924 0.82612 0.0
C764 C 0.02324 0.16561 0.81763 0.0
C765 C 0.02944 0.2065 0.96659 0.0
C766 C 0.02814 0.18553 0.92688 0.0
C767 C 0.02763 0.12484 0.81203 0.0
C768 C 0.02754 0.14576 0.85151 0.0
H769 H 0.02179 0.22635 0.12924 0.0
H770 H 0.01546 0.19361 0.06041 0.0
H771 H 0.02034 0.20006 0.82643 0.0
H772 H 0.99845 0.09711 0.68677 0.0
H773 H 0.99875 0.13162 0.74851 0.0
C774 C 0.31147 0.06145 0.0245 0.0
C775 C 0.30013 0.0431 0.0479 0.0
C776 C 0.33092 0.05952 0.98881 0.0
C777 C 0.36717 0.01946 0.90074 0.0
H778 H 0.41019 0.06492 0.93012 0.0
C779 C 0.4488 0.0201 0.75299 0.0
C780 C 0.46766 0.02911 0.785 0.0
C781 C 0.42832 0.0218 0.78301 0.0
C782 C 0.3986 0.05185 0.92156 0.0
H783 H 0.30041 1.00817 0.05108 0.0
H784 H 0.3344 1.00458 0.98947 0.0
H785 H 0.37543 0.06719 0.98491 0.0
H786 H 0.47939 0.04706 0.87504 0.0
H787 H 0.44413 0.04955 0.92843 0.0
H788 H 0.39077 1.00368 0.83971 0.0
C789 C 0.32812 0.02064 0.99724 0.0
C790 C 0.37824 0.05336 0.95238 0.0
C791 C 0.30846 0.02262 0.03245 0.0
C792 C 0.46531 0.04001 0.84825 0.0
C793 C 0.44487 0.04153 0.87884 0.0
C794 C 0.38763 0.01787 0.87026 0.0
C795 C 0.34003 0.0391 0.97589 0.0
C796 C 0.36199 0.03727 0.94246 0.0
C797 C 0.42588 0.03243 0.84695 0.0
C798 C 0.40382 0.03406 0.87987 0.0
H799 H 0.30554 0.07744 0.03583 0.0
H800 H 0.33892 0.07423 0.9721 0.0
H801 H 0.35532 1.00672 0.89075 0.0
H802 H 0.44984 0.01192 0.7039 0.0
H803 H 0.41435 0.01495 0.75521 0.0
C804 C 0.5066 0.29788 0.02742 0.0
C805 C 0.52598 0.28609 0.02659 0.0
C806 C 0.50431 0.31716 0.98862 0.0
C807 C 0.51027 0.36448 0.94319 0.0
H808 H 0.53616 0.37233 0.76404 0.0
C809 C 0.50271 0.44556 0.78983 0.0
C810 C 0.52094 0.4531 0.7542 0.0
C811 C 0.5022 0.42466 0.81884 0.0
C812 C 0.52902 0.37055 0.81436 0.0
H813 H 0.55772 0.2847 0.9826 0.0
H814 H 0.55387 0.31803 0.91479 0.0
H815 H 0.53652 0.33674 0.81952 0.0
H816 H 0.55289 0.4441 0.72091 0.0
H817 H 0.55209 0.40783 0.7718 0.0
H818 H 0.503 0.39831 0.9385 0.0
C819 C 0.54028 0.31253 0.94468 0.0
C820 C 0.52919 0.35003 0.84629 0.0
C821 C 0.54254 0.29338 0.98353 0.0
C822 C 0.53852 0.43893 0.74763 0.0
C823 C 0.53801 0.418 0.77668 0.0
C824 C 0.51011 0.38499 0.91128 0.0
C825 C 0.52133 0.32505 0.94778 0.0
C826 C 0.51995 0.34667 0.91149 0.0
C827 C 0.5199 0.41056 0.81329 0.0
C828 C 0.51961 0.38843 0.84651 0.0
H829 H 0.49373 0.29281 0.061 0.0
H830 H 0.48936 0.32612 0.99179 0.0
H831 H 0.50334 0.36277 0.99385 0.0
H832 H 0.48879 0.45587 0.79596 0.0
H833 H 0.4878 0.41954 0.84544 0.0
C834 C 0.25752 0.48402 0.92988 0.0
C835 C 0.26464 0.49766 0.98409 0.0
C836 C 0.23751 0.48751 0.89493 0.0
C837 C 0.1956 0.52587 0.84471 0.0
H838 H 0.1546 0.47857 0.86707 0.0
C839 C 0.10489 0.53326 0.75108 0.0
C840 C 0.09331 0.51444 0.73132 0.0
C841 C 0.12614 0.53201 0.77976 0.0
C842 C 0.16582 0.49183 0.85867 0.0
H843 H 0.25705 0.52612 0.04256 0.0
H844 H 0.22241 0.53308 0.97863 0.0
H845 H 0.19137 0.47563 0.91649 0.0
H846 H 0.09538 0.47959 0.724 0.0
H847 H 0.13256 0.4774 0.76997 0.0
H848 H 0.17057 0.54185 0.78473 0.0
C849 C 0.23223 0.51953 0.96374 0.0
C850 C 0.18693 0.49015 0.88771 0.0
C851 C 0.25208 0.51573 0.99978 0.0
C852 C 0.10374 0.49441 0.73922 0.0
C853 C 0.12511 0.49317 0.76647 0.0
C854 C 0.17459 0.5274 0.81423 0.0
C855 C 0.22442 0.50504 0.91248 0.0
C856 C 0.20206 0.50712 0.88108 0.0
C857 C 0.13665 0.51191 0.78834 0.0
C858 C 0.15927 0.51039 0.82063 0.0
H859 H 0.26676 0.46976 0.91809 0.0
H860 H 0.23191 0.4761 0.85563 0.0
H861 H 0.20697 0.53918 0.83867 0.0
H862 H 0.0973 0.54896 0.74634 0.0
H863 H 0.13406 0.54686 0.79669 0.0
C864 C 1.00985 0.79274 0.37099 0.0
C865 C 0.01764 0.79119 0.30355 0.0
C866 C 1.01212 0.81211 0.4085 0.0
C867 C 0.04207 0.86363 0.4274 0.0
H868 H 0.98744 0.88772 0.48344 0.0
C869 C 0.03425 0.94062 0.60246 0.0
C870 C 0.02102 0.95701 0.57322 0.0
C871 C 0.03484 0.91998 0.57209 0.0
C872 C 1.00284 0.88117 0.46844 0.0
H873 H 0.03464 0.80834 0.22362 0.0
H874 H 0.03976 0.84189 0.29053 0.0
H875 H 0.98791 0.85198 0.42882 0.0
H876 H 0.9977 0.9642 0.48965 0.0
H877 H 0.99806 0.92799 0.43869 0.0
H878 H 0.05702 0.89272 0.4682 0.0
C879 C 0.03175 0.82818 0.31429 0.0
C880 C 1.00313 0.86064 0.43757 0.0
C881 C 0.02906 0.80893 0.27626 0.0
C882 C 1.00808 0.95203 0.51365 0.0
C883 C 1.00824 0.93126 0.48444 0.0
C884 C 0.04185 0.88392 0.46011 0.0
C885 C 0.02266 0.83026 0.37996 0.0
C886 C 0.02272 0.85166 0.4161 0.0
C887 C 0.02177 0.91501 0.51283 0.0
C888 C 0.0222 0.89304 0.48047 0.0
H889 H 1.0005 0.7795 0.3923 0.0
H890 H 1.00498 0.81315 0.45896 0.0
H891 H 0.05741 0.8572 0.41135 0.0
H892 H 0.04454 0.94389 0.64796 0.0
H893 H 0.04537 0.9078 0.59534 0.0
C894 C 0.73184 0.02126 0.24402 0.0
C895 C 0.74988 0.00973 0.27051 0.0
C896 C 0.71337 0.02423 0.28399 0.0
C897 C 0.69196 0.01716 0.46558 0.0
H898 H 0.63617 0.018 0.36655 0.0
C899 C 0.61043 0.0285 0.60957 0.0
C900 C 0.59163 0.01757 0.58398 0.0
C901 C 0.62986 0.0285 0.57274 0.0
C902 C 0.65153 0.01757 0.39552 0.0
H903 H 0.76262 0.99223 0.35979 0.0
H904 H 0.73064 0.99716 0.42985 0.0
H905 H 0.6693 0.01661 0.30204 0.0
H906 H 0.57909 0.99788 0.49862 0.0
H907 H 0.6127 0.99758 0.43562 0.0
H908 H 0.67402 0.01744 0.55918 0.0
C909 C 0.73073 1.00458 0.37886 0.0
C910 C 0.67079 0.01712 0.35811 0.0
C911 C 0.74926 1.00182 0.33891 0.0
C912 C 0.59305 1.00657 0.5204 0.0
C913 C 0.61244 1.00655 0.48367 0.0
C914 C 0.67268 0.01756 0.50303 0.0
C915 C 0.71216 0.01545 0.35169 0.0
C916 C 0.69145 0.01677 0.39225 0.0
C917 C 0.63125 0.01758 0.50888 0.0
C918 C 0.65205 0.01763 0.46878 0.0
H919 H 0.73164 0.02704 0.19085 0.0
H920 H 0.69986 0.03308 0.26084 0.0
H921 H 0.70731 0.01728 0.49461 0.0
H922 H 0.61012 0.03728 0.65798 0.0
H923 H 0.64371 0.03746 0.59399 0.0
C924 C 0.53593 0.74153 0.33838 0.0
C925 C 0.51547 0.75109 0.32742 0.0
C926 C 0.53822 0.72266 0.3792 0.0
C927 C 0.50831 0.6864 0.50396 0.0
H928 H 0.54972 0.64396 0.44589 0.0
C929 C 0.51901 0.60332 0.64842 0.0
C930 C 0.52401 0.58521 0.60819 0.0
C931 C 0.51899 0.62431 0.61923 0.0
C932 C 0.53785 0.65545 0.46268 0.0
H933 H 0.48159 0.74874 0.35247 0.0
H934 H 0.48523 0.7157 0.42111 0.0
H935 H 0.54763 0.67865 0.38672 0.0
H936 H 0.53239 0.57524 0.50473 0.0
H937 H 0.53168 0.61115 0.45407 0.0
H938 H 0.49778 0.66271 0.57759 0.0
C939 C 0.49974 0.72278 0.3999 0.0
C940 C 0.53693 0.67569 0.42924 0.0
C941 C 0.49754 0.7417 0.35983 0.0
C942 C 0.52871 0.5887 0.53795 0.0
C943 C 0.52848 0.60951 0.50875 0.0
C944 C 0.50909 0.66604 0.53698 0.0
C945 C 0.52007 0.7127 0.40968 0.0
C946 C 0.52199 0.6915 0.4487 0.0
C947 C 0.52379 0.62777 0.54878 0.0
C948 C 0.5237 0.65008 0.51638 0.0
H949 H 0.55 0.74821 0.31342 0.0
H950 H 0.55425 0.71577 0.38611 0.0
H951 H 0.49683 0.69811 0.52184 0.0
H952 H 0.51531 0.60133 0.70266 0.0
H953 H 0.51549 0.63783 0.65235 0.0
C954 C 0.79212 0.51442 0.41919 0.0
C955 C 0.7862 0.53356 0.38428 0.0
C956 C 0.81111 0.51361 0.4616 0.0
C957 C 0.85722 0.5482 0.5368 0.0
H958 H 0.88901 0.49449 0.52729 0.0
C959 C 0.95078 0.54092 0.58337 0.0
C960 C 0.95824 0.5245 0.62894 0.0
C961 C 0.92874 0.54226 0.56317 0.0
C962 C 0.88025 0.50953 0.53107 0.0
H963 H 0.79497 0.56698 0.3679 0.0
H964 H 0.82817 0.5658 0.44013 0.0
H965 H 0.85232 0.49658 0.47649 0.0
H966 H 0.94823 0.4966 0.68897 0.0
H967 H 0.90971 0.49854 0.65164 0.0
H968 H 0.88595 0.56137 0.58771 0.0
C969 C 0.81807 0.5514 0.43727 0.0
C970 C 0.85903 0.51075 0.50231 0.0
C971 C 0.79888 0.55222 0.39603 0.0
C972 C 0.94302 0.50951 0.65416 0.0
C973 C 0.921 0.51055 0.63252 0.0
C974 C 0.87861 0.54708 0.56419 0.0
C975 C 0.82497 0.53185 0.46888 0.0
C976 C 0.84713 0.53016 0.50424 0.0
C977 C 0.91361 0.52694 0.58668 0.0
C978 C 0.89042 0.52777 0.56135 0.0
H979 H 0.78288 0.49969 0.40951 0.0
H980 H 0.81533 0.49836 0.4862 0.0
H981 H 0.84869 0.56334 0.541 0.0
H982 H 0.96202 0.55275 0.56302 0.0
H983 H 0.9236 0.55499 0.52751 0.0
loop_
_geom_bond_atom_site_label_1
_geom_bond_atom_site_label_2
_geom_bond_distance
_geom_bond_site_symmetry_2
_ccdc_geom_bond_type
C0 N1 1.317 . S
C0 N2 1.348 . S
C0 C3 1.485 . S
N1 C0 1.317 . S
N1 N5 1.370 . S
N2 C0 1.348 . S
N2 C4 1.346 . S
C3 C0 1.485 . S
C3 H7 0.960 . S
C3 H8 0.961 . S
C3 H9 0.960 . S
C4 N2 1.346 . S
C4 N5 1.307 . S
C4 C6 1.486 . S
N5 N1 1.370 . S
N5 C4 1.307 . S
C6 C4 1.486 . S
C6 H10 0.960 . S
C6 H11 0.960 . S
C6 H12 0.959 . S
H7 C3 0.960 . S
H8 C3 0.961 . S
H9 C3 0.960 . S
H10 C6 0.960 . S
H11 C6 0.960 . S
H12 C6 0.959 . S
C13 N14 1.317 . S
C13 N15 1.348 . S
C13 C16 1.485 . S
N14 C13 1.317 . S
N14 N18 1.370 . S
N15 C13 1.348 . S
N15 C17 1.346 . S
C16 C13 1.485 . S
C16 H20 0.960 . S
C16 H21 0.961 . S
C16 H22 0.960 . S
C17 N15 1.346 . S
C17 N18 1.307 . S
C17 C19 1.486 . S
N18 N14 1.370 . S
N18 C17 1.307 . S
C19 C17 1.486 . S
C19 H23 0.960 . S
C19 H24 0.960 . S
C19 H25 0.959 . S
H20 C16 0.960 . S
H21 C16 0.961 . S
H22 C16 0.960 . S
H23 C19 0.960 . S
H24 C19 0.960 . S
H25 C19 0.959 . S
C26 N27 1.317 . S
C26 N28 1.348 . S
C26 C29 1.485 . S
N27 C26 1.317 . S
N27 N31 1.370 . S
N28 C26 1.348 . S
N28 C30 1.346 . S
C29 C26 1.485 . S
C29 H33 0.960 . S
C29 H34 0.961 . S
C29 H35 0.960 . S
C30 N28 1.346 . S
C30 N31 1.307 . S
C30 C32 1.486 . S
N31 N27 1.370 . S
N31 C30 1.307 . S
C32 C30 1.486 . S
C32 H36 0.960 . S
C32 H37 0.960 . S
C32 H38 0.959 . S
H33 C29 0.960 . S
H34 C29 0.961 . S
H35 C29 0.960 . S
H36 C32 0.960 . S
H37 C32 0.960 . S
H38 C32 0.959 . S
C39 N40 1.317 . S
C39 N41 1.348 . S
C39 C42 1.485 . S
N40 C39 1.317 . S
N40 N44 1.370 . S
N41 C39 1.348 . S
N41 C43 1.346 . S
C42 C39 1.485 . S
C42 H46 0.960 . S
C42 H47 0.961 . S
C42 H48 0.960 . S
C43 N41 1.346 . S
C43 N44 1.307 . S
C43 C45 1.486 . S
N44 N40 1.370 . S
N44 C43 1.307 . S
C45 C43 1.486 . S
C45 H49 0.960 . S
C45 H50 0.960 . S
C45 H51 0.959 . S
H46 C42 0.960 . S
H47 C42 0.961 . S
H48 C42 0.960 . S
H49 C45 0.960 . S
H50 C45 0.960 . S
H51 C45 0.959 . S
C52 N53 1.317 . S
C52 N54 1.348 . S
C52 C55 1.485 1_554 S
N53 C52 1.317 . S
N53 N57 1.370 . S
N54 C52 1.348 . S
N54 C56 1.346 . S
C55 C52 1.485 1_556 S
C55 H59 0.960 . S
C55 H60 0.961 . S
C55 H61 0.960 . S
C56 N54 1.346 . S
C56 N57 1.307 . S
C56 C58 1.486 . S
N57 N53 1.370 . S
N57 C56 1.307 . S
C58 C56 1.486 . S
C58 H62 0.960 . S
C58 H63 0.960 . S
C58 H64 0.959 . S
H59 C55 0.960 . S
H60 C55 0.961 . S
H61 C55 0.960 . S
H62 C58 0.960 . S
H63 C58 0.960 . S
H64 C58 0.959 . S
C65 N66 1.317 . S
C65 N67 1.348 . S
C65 C68 1.485 1_554 S
N66 C65 1.317 . S
N66 N70 1.370 . S
N67 C65 1.348 . S
N67 C69 1.346 . S
C68 C65 1.485 1_556 S
C68 H72 0.960 . S
C68 H73 0.961 . S
C68 H74 0.960 . S
C69 N67 1.346 . S
C69 N70 1.307 . S
C69 C71 1.486 . S
N70 N66 1.370 . S
N70 C69 1.307 . S
C71 C69 1.486 . S
C71 H75 0.960 . S
C71 H76 0.960 . S
C71 H77 0.959 . S
H72 C68 0.960 . S
H73 C68 0.961 . S
H74 C68 0.960 . S
H75 C71 0.960 . S
H76 C71 0.960 . S
H77 C71 0.959 . S
C78 N79 1.317 . S
C78 N80 1.348 1_556 S
C78 C81 1.485 . S
N79 C78 1.317 . S
N79 N83 1.370 1_556 S
N80 C78 1.348 1_554 S
N80 C82 1.346 . S
C81 C78 1.485 . S
C81 H85 0.960 . S
C81 H86 0.961 . S
C81 H87 0.960 . S
C82 N80 1.346 . S
C82 N83 1.307 . S
C82 C84 1.486 . S
N83 N79 1.370 1_554 S
N83 C82 1.307 . S
C84 C82 1.486 . S
C84 H88 0.960 . S
C84 H89 0.960 . S
C84 H90 0.959 . S
H85 C81 0.960 . S
H86 C81 0.961 . S
H87 C81 0.960 . S
H88 C84 0.960 . S
H89 C84 0.960 . S
H90 C84 0.959 . S
C91 N92 1.317 . S
C91 N93 1.348 . S
C91 C94 1.485 1_554 S
N92 C91 1.317 . S
N92 N96 1.370 . S
N93 C91 1.348 . S
N93 C95 1.346 . S
C94 C91 1.485 1_556 S
C94 H98 0.960 . S
C94 H99 0.961 . S
C94 H100 0.960 . S
C95 N93 1.346 . S
C95 N96 1.307 . S
C95 C97 1.486 . S
N96 N92 1.370 . S
N96 C95 1.307 . S
C97 C95 1.486 . S
C97 H101 0.960 . S
C97 H102 0.960 . S
C97 H103 0.959 . S
H98 C94 0.960 . S
H99 C94 0.961 . S
H100 C94 0.960 . S
H101 C97 0.960 . S
H102 C97 0.960 . S
H103 C97 0.959 . S
Eu104 C113 2.828 . S
Eu104 O115 2.392 . S
Eu104 O117 2.418 1_545 S
Eu104 O122 2.373 1_655 S
Eu104 O125 2.488 . S
Eu104 O126 2.471 1_655 S
Eu104 O127 2.349 1_655 S
Eu105 O114 2.373 1_455 S
Eu105 O118 2.488 . S
Eu105 O119 2.471 . S
Eu105 O120 2.349 . S
Eu105 O123 2.392 1_565 S
Eu105 O124 2.418 1_565 S
Eu105 C134 2.828 . S
C106 O124 1.244 . S
C106 O127 1.265 . S
C107 C108 1.379 . S
C107 C111 1.373 1_455 S
C107 C113 1.505 1_455 S
C108 C107 1.379 . S
C108 C110 1.369 . S
C108 H136 0.930 . S
C109 C111 1.383 . S
C109 C112 1.382 1_655 S
C109 H137 0.930 . S
C110 C108 1.369 . S
C110 C112 1.392 . S
C110 H138 0.930 . S
C111 C107 1.373 1_655 S
C111 C109 1.383 . S
C111 H139 0.931 . S
C112 C109 1.382 1_455 S
C112 C110 1.392 . S
C113 Eu104 2.828 . S
C113 C107 1.505 1_655 S
C113 O125 1.249 . S
C113 O126 1.244 1_655 S
O114 Eu105 2.373 1_655 S
O114 C116 1.258 1_565 S
O115 Eu104 2.392 . S
O115 C116 1.242 . S
C116 O114 1.258 1_545 S
C116 O115 1.242 . S
O117 Eu104 2.418 1_565 S
O117 C121 1.244 . S
O118 Eu105 2.488 . S
O118 C134 1.249 . S
O119 Eu105 2.471 . S
O119 C134 1.244 . S
O120 Eu105 2.349 . S
O120 C121 1.265 1_455 S
C121 O117 1.244 . S
C121 O120 1.265 1_655 S
O122 Eu104 2.373 1_455 S
O122 C135 1.258 . S
O123 Eu105 2.392 1_545 S
O123 C135 1.242 . S
O124 Eu105 2.418 1_545 S
O124 C106 1.244 . S
O125 Eu104 2.488 . S
O125 C113 1.249 . S
O126 Eu104 2.471 1_455 S
O126 C113 1.244 1_455 S
O127 Eu104 2.349 1_455 S
O127 C106 1.265 . S
C128 C129 1.379 . S
C128 C132 1.373 . S
C128 C134 1.505 . S
C129 C128 1.379 . S
C129 C131 1.369 . S
C129 H140 0.912 1_455 S
C130 C132 1.383 1_554 S
C130 C133 1.382 . S
C130 H141 0.930 . S
C131 C129 1.369 . S
C131 C133 1.392 1_556 S
C131 H142 0.930 1_455 S
C132 C128 1.373 . S
C132 C130 1.383 1_556 S
C132 H143 0.931 . S
C133 C130 1.382 . S
C133 C131 1.392 1_554 S
C134 Eu105 2.828 . S
C134 O118 1.249 . S
C134 O119 1.244 . S
C134 C128 1.505 . S
C135 O122 1.258 . S
C135 O123 1.242 . S
H136 C108 0.930 . S
H137 C109 0.930 . S
H138 C110 0.930 . S
H139 C111 0.931 . S
H140 C129 0.912 1_655 S
H141 C130 0.930 . S
H142 C131 0.930 1_655 S
H143 C132 0.931 . S
Eu144 C153 2.828 . S
Eu144 O155 2.392 . S
Eu144 O157 2.418 . S
Eu144 O162 2.373 . S
Eu144 O165 2.488 . S
Eu144 O166 2.471 . S
Eu144 O167 2.349 1_545 S
Eu145 O154 2.373 1_565 S
Eu145 O158 2.488 . S
Eu145 O159 2.471 1_565 S
Eu145 O160 2.349 1_565 S
Eu145 O163 2.392 . S
Eu145 O164 2.418 . S
Eu145 C174 2.828 . S
C146 O164 1.244 . S
C146 O167 1.265 . S
C147 C148 1.379 . S
C147 C151 1.373 . S
C147 C153 1.505 . S
C148 C147 1.379 . S
C148 C150 1.374 . S
C148 H176 0.930 1_545 S
C149 C151 1.383 . S
C149 C152 1.382 . S
C149 H177 0.930 . S
C150 C148 1.374 . S
C150 C152 1.438 . S
C150 H178 0.881 1_545 S
C151 C147 1.373 . S
C151 C149 1.383 . S
C151 H179 0.931 . S
C152 C149 1.382 . S
C152 C150 1.438 . S
C153 Eu144 2.828 . S
C153 C147 1.505 . S
C153 O165 1.249 . S
C153 O166 1.244 . S
O154 Eu145 2.373 1_545 S
O154 C156 1.258 . S
O155 Eu144 2.392 . S
O155 C156 1.242 . S
C156 O154 1.258 . S
C156 O155 1.242 . S
O157 Eu144 2.418 . S
O157 C161 1.244 . S
O158 Eu145 2.488 . S
O158 C174 1.249 . S
O159 Eu145 2.471 1_545 S
O159 C174 1.244 1_545 S
O160 Eu145 2.349 1_545 S
O160 C161 1.265 . S
C161 O157 1.244 . S
C161 O160 1.265 . S
O162 Eu144 2.373 . S
O162 C175 1.258 1_545 S
O163 Eu145 2.392 . S
O163 C175 1.242 . S
O164 Eu145 2.418 . S
O164 C146 1.244 . S
O165 Eu144 2.488 . S
O165 C153 1.249 . S
O166 Eu144 2.471 . S
O166 C153 1.244 . S
O167 Eu144 2.349 1_565 S
O167 C146 1.265 . S
C168 C169 1.379 1_565 S
C168 C172 1.373 . S
C168 C174 1.505 . S
C169 C168 1.379 1_545 S
C169 C171 1.369 . S
C169 H180 0.930 . S
C170 C172 1.383 . S
C170 C173 1.382 . S
C170 H181 0.930 . S
C171 C169 1.369 . S
C171 C173 1.392 1_545 S
C171 H182 0.930 . S
C172 C168 1.373 . S
C172 C170 1.383 . S
C172 H183 0.931 . S
C173 C170 1.382 . S
C173 C171 1.392 1_565 S
C174 Eu145 2.828 . S
C174 O158 1.249 . S
C174 O159 1.244 1_565 S
C174 C168 1.505 . S
C175 O162 1.258 1_565 S
C175 O163 1.242 . S
H176 C148 0.930 1_565 S
H177 C149 0.930 . S
H178 C150 0.881 1_565 S
H179 C151 0.931 . S
H180 C169 0.930 . S
H181 C170 0.930 . S
H182 C171 0.930 . S
H183 C172 0.931 . S
Eu184 C193 2.828 . S
Eu184 O195 2.392 . S
Eu184 O197 2.418 . S
Eu184 O202 2.373 . S
Eu184 O205 2.488 . S
Eu184 O206 2.471 . S
Eu184 O207 2.349 . S
Eu185 O194 2.373 . S
Eu185 O198 2.488 . S
Eu185 O199 2.471 . S
Eu185 O200 2.349 . S
Eu185 O203 2.392 . S
Eu185 O204 2.418 . S
Eu185 C214 2.828 . S
C186 O204 1.244 . S
C186 O207 1.265 . S
C187 C188 1.379 . S
C187 C191 1.373 . S
C187 C193 1.505 . S
C188 C187 1.379 . S
C188 C190 1.369 . S
C188 H216 0.930 . S
C189 C191 1.383 . S
C189 C192 1.382 . S
C189 H217 0.930 . S
C190 C188 1.369 . S
C190 C192 1.392 . S
C190 H218 0.930 . S
C191 C187 1.373 . S
C191 C189 1.383 . S
C191 H219 0.931 . S
C192 C189 1.382 . S
C192 C190 1.392 . S
C193 Eu184 2.828 . S
C193 C187 1.505 . S
C193 O205 1.249 . S
C193 O206 1.244 . S
O194 Eu185 2.373 . S
O194 C196 1.258 . S
O195 Eu184 2.392 . S
O195 C196 1.242 . S
C196 O194 1.258 . S
C196 O195 1.242 . S
O197 Eu184 2.418 . S
O197 C201 1.244 . S
O198 Eu185 2.488 . S
O198 C214 1.249 . S
O199 Eu185 2.471 . S
O199 C214 1.244 . S
O200 Eu185 2.349 . S
O200 C201 1.265 . S
C201 O197 1.244 . S
C201 O200 1.265 . S
O202 Eu184 2.373 . S
O202 C215 1.258 . S
O203 Eu185 2.392 . S
O203 C215 1.242 . S
O204 Eu185 2.418 . S
O204 C186 1.244 . S
O205 Eu184 2.488 . S
O205 C193 1.249 . S
O206 Eu184 2.471 . S
O206 C193 1.244 . S
O207 Eu184 2.349 . S
O207 C186 1.265 . S
C208 C209 1.379 . S
C208 C212 1.373 . S
C208 C214 1.505 . S
C209 C208 1.379 . S
C209 C211 1.369 . S
C209 H220 0.930 . S
C210 C212 1.383 . S
C210 C213 1.382 . S
C210 H221 0.930 . S
C211 C209 1.369 . S
C211 C213 1.392 . S
C211 H222 0.930 . S
C212 C208 1.373 . S
C212 C210 1.383 . S
C212 H223 0.931 . S
C213 C210 1.382 . S
C213 C211 1.392 . S
C214 Eu185 2.828 . S
C214 O198 1.249 . S
C214 O199 1.244 . S
C214 C208 1.505 . S
C215 O202 1.258 . S
C215 O203 1.242 . S
H216 C188 0.930 . S
H217 C189 0.930 . S
H218 C190 0.930 . S
H219 C191 0.931 . S
H220 C209 0.930 . S
H221 C210 0.930 . S
H222 C211 0.930 . S
H223 C212 0.931 . S
Eu224 C233 2.828 . S
Eu224 O235 2.392 . S
Eu224 O237 2.418 1_455 S
Eu224 O242 2.373 . S
Eu224 O245 2.488 . S
Eu224 O246 2.471 . S
Eu224 O247 2.349 . S
Eu225 O234 2.371 1_655 S
Eu225 O238 2.488 . S
Eu225 O239 2.471 . S
Eu225 O240 2.349 . S
Eu225 O243 2.392 1_655 S
Eu225 O244 2.418 1_655 S
Eu225 C254 2.828 . S
C226 O244 1.244 . S
C226 O247 1.265 . S
C227 C228 1.379 . S
C227 C231 1.373 . S
C227 C233 1.505 . S
C228 C227 1.379 . S
C228 C230 1.369 . S
C228 H256 0.930 . S
C229 C231 1.383 . S
C229 C232 1.382 . S
C229 H257 0.930 . S
C230 C228 1.369 . S
C230 C232 1.392 . S
C230 H258 0.930 . S
C231 C227 1.373 . S
C231 C229 1.383 . S
C231 H259 0.931 . S
C232 C229 1.382 . S
C232 C230 1.392 . S
C233 Eu224 2.828 . S
C233 C227 1.505 . S
C233 O245 1.249 . S
C233 O246 1.244 . S
O234 Eu225 2.371 1_455 S
O234 C236 1.263 . S
O235 Eu224 2.392 . S
O235 C236 1.242 . S
C236 O234 1.263 . S
C236 O235 1.242 . S
O237 Eu224 2.418 1_655 S
O237 C241 1.244 . S
O238 Eu225 2.488 . S
O238 C254 1.249 . S
O239 Eu225 2.471 . S
O239 C254 1.244 . S
O240 Eu225 2.349 . S
O240 C241 1.265 . S
C241 O237 1.244 . S
C241 O240 1.265 . S
O242 Eu224 2.373 . S
O242 C255 1.258 . S
O243 Eu225 2.392 1_455 S
O243 C255 1.242 . S
O244 Eu225 2.418 1_455 S
O244 C226 1.244 . S
O245 Eu224 2.488 . S
O245 C233 1.249 . S
O246 Eu224 2.471 . S
O246 C233 1.244 . S
O247 Eu224 2.349 . S
O247 C226 1.265 . S
C248 C249 1.379 . S
C248 C252 1.373 . S
C248 C254 1.505 . S
C249 C248 1.379 . S
C249 C251 1.369 . S
C249 H260 0.930 . S
C250 C252 1.383 1_554 S
C250 C253 1.382 1_554 S
C250 H261 0.930 . S
C251 C249 1.369 . S
C251 C253 1.392 . S
C251 H262 0.930 . S
C252 C248 1.373 . S
C252 C250 1.383 1_556 S
C252 H263 0.931 . S
C253 C250 1.382 1_556 S
C253 C251 1.392 . S
C254 Eu225 2.828 . S
C254 O238 1.249 . S
C254 O239 1.244 . S
C254 C248 1.505 . S
C255 O242 1.258 . S
C255 O243 1.242 . S
H256 C228 0.930 . S
H257 C229 0.930 . S
H258 C230 0.930 . S
H259 C231 0.931 . S
H260 C249 0.930 . S
H261 C250 0.930 . S
H262 C251 0.930 . S
H263 C252 0.931 . S
C264 C265 1.349 . S
C264 C266 1.327 . S
C264 H289 0.950 . S
C265 C264 1.349 . S
C265 C281 1.349 . S
C266 C264 1.327 . S
C266 C285 1.429 . S
C266 H290 0.950 . S
C267 C284 1.574 . S
C267 C286 1.368 . S
C267 H291 0.949 . S
H268 C272 0.911 1_565 S
C269 C270 1.349 . S
C269 C271 1.327 . S
C269 H292 0.950 . S
C270 C269 1.349 . S
C270 C282 1.349 . S
C271 C269 1.327 . S
C271 C287 1.429 . S
C271 H293 0.950 . S
C272 H268 0.911 1_545 S
C272 C280 1.574 . S
C272 C288 1.368 . S
H273 C281 0.950 . S
H274 C279 0.950 . S
H275 C280 0.949 . S
H276 C282 0.950 1_565 S
H277 C283 0.950 1_565 S
H278 C284 0.949 . S
C279 H274 0.950 . S
C279 C281 1.327 . S
C279 C285 1.429 . S
C280 C272 1.574 . S
C280 H275 0.949 . S
C280 C286 1.368 . S
C281 C265 1.349 . S
C281 H273 0.950 . S
C281 C279 1.327 . S
C282 C270 1.349 . S
C282 H276 0.950 1_545 S
C282 C283 1.327 . S
C283 H277 0.950 1_545 S
C283 C282 1.327 . S
C283 C287 1.429 . S
C284 C267 1.574 . S
C284 H278 0.949 . S
C284 C288 1.368 . S
C285 C266 1.429 . S
C285 C279 1.429 . S
C285 C286 1.523 . S
C286 C267 1.368 . S
C286 C280 1.368 . S
C286 C285 1.523 . S
C287 C271 1.429 . S
C287 C283 1.429 . S
C287 C288 1.523 . S
C288 C272 1.368 . S
C288 C284 1.368 . S
C288 C287 1.523 . S
H289 C264 0.950 . S
H290 C266 0.950 . S
H291 C267 0.949 . S
H292 C269 0.950 . S
H293 C271 0.950 . S
C294 C295 1.349 . S
C294 C296 1.327 . S
C294 H319 0.950 . S
C295 C294 1.349 . S
C295 C311 1.349 . S
C296 C294 1.327 . S
C296 C315 1.429 . S
C296 H320 0.950 . S
C297 C314 1.574 . S
C297 C316 1.368 . S
C297 H321 0.949 . S
H298 C302 0.949 . S
C299 C300 1.349 . S
C299 C301 1.327 . S
C299 H322 0.950 . S
C300 C299 1.349 . S
C300 C312 1.349 . S
C301 C299 1.327 . S
C301 C317 1.429 . S
C301 H323 0.950 . S
C302 H298 0.949 . S
C302 C310 1.574 . S
C302 C318 1.368 . S
H303 C311 0.950 . S
H304 C309 0.950 . S
H305 C310 0.949 . S
H306 C312 0.950 . S
H307 C313 0.950 . S
H308 C314 0.949 . S
C309 H304 0.950 . S
C309 C311 1.327 . S
C309 C315 1.429 . S
C310 C302 1.574 . S
C310 H305 0.949 . S
C310 C316 1.368 . S
C311 C295 1.349 . S
C311 H303 0.950 . S
C311 C309 1.327 . S
C312 C300 1.349 . S
C312 H306 0.950 . S
C312 C313 1.327 . S
C313 H307 0.950 . S
C313 C312 1.327 . S
C313 C317 1.429 . S
C314 C297 1.574 . S
C314 H308 0.949 . S
C314 C318 1.368 . S
C315 C296 1.429 . S
C315 C309 1.429 . S
C315 C316 1.523 . S
C316 C297 1.368 . S
C316 C310 1.368 . S
C316 C315 1.523 . S
C317 C301 1.429 . S
C317 C313 1.429 . S
C317 C318 1.523 . S
C318 C302 1.368 . S
C318 C314 1.368 . S
C318 C317 1.523 . S
H319 C294 0.950 . S
H320 C296 0.950 . S
H321 C297 0.949 . S
H322 C299 0.950 . S
H323 C301 0.950 . S
C324 C325 1.349 . S
C324 C326 1.327 . S
C324 H349 0.950 . S
C325 C324 1.349 . S
C325 C341 1.349 . S
C326 C324 1.327 . S
C326 C345 1.429 . S
C326 H350 0.950 . S
C327 C344 1.574 . S
C327 C346 1.368 . S
C327 H351 0.949 . S
H328 C332 0.949 . S
C329 C330 1.349 . S
C329 C331 1.327 . S
C329 H352 0.950 . S
C330 C329 1.349 . S
C330 C342 1.349 . S
C331 C329 1.327 . S
C331 C347 1.429 . S
C331 H353 0.950 . S
C332 H328 0.949 . S
C332 C340 1.574 . S
C332 C348 1.368 . S
H333 C341 0.950 . S
H334 C339 0.950 . S
H335 C340 0.949 . S
H336 C342 0.950 . S
H337 C343 0.950 . S
H338 C344 0.949 . S
C339 H334 0.950 . S
C339 C341 1.327 . S
C339 C345 1.429 . S
C340 C332 1.574 . S
C340 H335 0.949 . S
C340 C346 1.368 . S
C341 C325 1.349 . S
C341 H333 0.950 . S
C341 C339 1.327 . S
C342 C330 1.349 . S
C342 H336 0.950 . S
C342 C343 1.327 . S
C343 H337 0.950 . S
C343 C342 1.327 . S
C343 C347 1.429 . S
C344 C327 1.574 . S
C344 H338 0.949 . S
C344 C348 1.368 . S
C345 C326 1.429 . S
C345 C339 1.429 . S
C345 C346 1.523 . S
C346 C327 1.368 . S
C346 C340 1.368 . S
C346 C345 1.523 . S
C347 C331 1.429 . S
C347 C343 1.429 . S
C347 C348 1.523 . S
C348 C332 1.368 . S
C348 C344 1.368 . S
C348 C347 1.523 . S
H349 C324 0.950 . S
H350 C326 0.950 . S
H351 C327 0.949 . S
H352 C329 0.950 . S
H353 C331 0.950 . S
C354 C355 1.349 . S
C354 C356 1.327 . S
C354 H379 0.950 . S
C355 C354 1.349 . S
C355 C371 1.349 . S
C356 C354 1.327 . S
C356 C375 1.429 . S
C356 H380 0.950 . S
C357 C374 1.574 . S
C357 C376 1.368 . S
C357 H381 0.949 . S
H358 C362 0.949 . S
C359 C360 1.349 . S
C359 C361 1.327 . S
C359 H382 0.950 . S
C360 C359 1.349 . S
C360 C372 1.349 . S
C361 C359 1.327 . S
C361 C377 1.429 . S
C361 H383 0.950 . S
C362 H358 0.949 . S
C362 C370 1.574 . S
C362 C378 1.368 . S
H363 C371 0.950 . S
H364 C369 0.950 . S
H365 C370 0.949 . S
H366 C372 0.950 1_655 S
H367 C373 0.947 . S
H368 C374 0.949 . S
C369 H364 0.950 . S
C369 C371 1.327 . S
C369 C375 1.429 . S
C370 C362 1.574 . S
C370 H365 0.949 . S
C370 C376 1.368 . S
C371 C355 1.349 . S
C371 H363 0.950 . S
C371 C369 1.327 . S
C372 C360 1.349 . S
C372 H366 0.950 1_455 S
C372 C373 1.327 . S
C373 H367 0.947 . S
C373 C372 1.327 . S
C373 C377 1.429 . S
C374 C357 1.574 . S
C374 H368 0.949 . S
C374 C378 1.368 . S
C375 C356 1.429 . S
C375 C369 1.429 . S
C375 C376 1.523 . S
C376 C357 1.368 . S
C376 C370 1.368 . S
C376 C375 1.523 . S
C377 C361 1.429 . S
C377 C373 1.429 . S
C377 C378 1.523 . S
C378 C362 1.368 . S
C378 C374 1.368 . S
C378 C377 1.523 . S
H379 C354 0.950 . S
H380 C356 0.950 . S
H381 C357 0.949 . S
H382 C359 0.950 . S
H383 C361 0.950 . S
C384 C385 1.349 . S
C384 C386 1.327 . S
C384 H409 0.928 1_565 S
C385 C384 1.349 . S
C385 C401 1.349 . S
C386 C384 1.327 . S
C386 C405 1.429 . S
C386 H410 0.950 1_565 S
C387 C404 1.574 1_554 S
C387 C406 1.368 . S
C387 H411 0.949 . S
H388 C392 0.949 . S
C389 C390 1.349 . S
C389 C391 1.327 . S
C389 H412 0.950 . S
C390 C389 1.349 . S
C390 C402 1.349 1_565 S
C391 C389 1.327 . S
C391 C407 1.429 . S
C391 H413 0.950 . S
C392 H388 0.949 . S
C392 C400 1.576 . S
C392 C408 1.368 1_544 S
H393 C401 0.950 . S
H394 C399 0.950 . S
H395 C400 0.963 . S
H396 C402 0.950 . S
H397 C403 0.950 . S
H398 C404 0.949 . S
C399 H394 0.950 . S
C399 C401 1.327 . S
C399 C405 1.429 . S
C400 C392 1.576 . S
C400 H395 0.963 . S
C400 C406 1.351 1_545 S
C401 C385 1.349 . S
C401 H393 0.950 . S
C401 C399 1.327 . S
C402 C390 1.349 1_545 S
C402 H396 0.950 . S
C402 C403 1.327 . S
C403 H397 0.950 . S
C403 C402 1.327 . S
C403 C407 1.429 1_545 S
C404 C387 1.574 1_556 S
C404 H398 0.949 . S
C404 C408 1.368 . S
C405 C386 1.429 . S
C405 C399 1.429 . S
C405 C406 1.523 . S
C406 C387 1.368 . S
C406 C400 1.351 1_565 S
C406 C405 1.523 . S
C407 C391 1.429 . S
C407 C403 1.429 1_565 S
C407 C408 1.523 . S
C408 C392 1.368 1_566 S
C408 C404 1.368 . S
C408 C407 1.523 . S
H409 C384 0.928 1_545 S
H410 C386 0.950 1_545 S
H411 C387 0.949 . S
H412 C389 0.950 . S
H413 C391 0.950 . S
C414 C415 1.349 . S
C414 C416 1.327 . S
C414 H439 0.950 . S
C415 C414 1.349 . S
C415 C431 1.349 . S
C416 C414 1.327 . S
C416 C435 1.429 . S
C416 H440 0.950 . S
C417 C434 1.574 . S
C417 C436 1.368 . S
C417 H441 0.949 . S
H418 C422 0.949 . S
C419 C420 1.349 . S
C419 C421 1.327 . S
C419 H442 0.950 . S
C420 C419 1.349 . S
C420 C432 1.349 . S
C421 C419 1.327 . S
C421 C437 1.429 . S
C421 H443 0.950 . S
C422 H418 0.949 . S
C422 C430 1.574 . S
C422 C438 1.368 . S
H423 C431 0.950 . S
H424 C429 0.950 . S
H425 C430 0.949 . S
H426 C432 0.950 . S
H427 C433 0.950 . S
H428 C434 0.949 . S
C429 H424 0.950 . S
C429 C431 1.327 . S
C429 C435 1.429 . S
C430 C422 1.574 . S
C430 H425 0.949 . S
C430 C436 1.368 1_556 S
C431 C415 1.349 . S
C431 H423 0.950 . S
C431 C429 1.327 . S
C432 C420 1.349 . S
C432 H426 0.950 . S
C432 C433 1.327 . S
C433 H427 0.950 . S
C433 C432 1.327 . S
C433 C437 1.429 . S
C434 C417 1.574 . S
C434 H428 0.949 . S
C434 C438 1.368 1_554 S
C435 C416 1.429 . S
C435 C429 1.429 . S
C435 C436 1.523 . S
C436 C417 1.368 . S
C436 C430 1.368 1_554 S
C436 C435 1.523 . S
C437 C421 1.429 . S
C437 C433 1.429 . S
C437 C438 1.523 . S
C438 C422 1.368 . S
C438 C434 1.368 1_556 S
C438 C437 1.523 . S
H439 C414 0.950 . S
H440 C416 0.950 . S
H441 C417 0.949 . S
H442 C419 0.950 . S
H443 C421 0.950 . S
C444 C445 1.349 . S
C444 C446 1.327 . S
C444 H469 0.950 . S
C445 C444 1.349 . S
C445 C461 1.349 . S
C446 C444 1.327 . S
C446 C465 1.429 . S
C446 H470 0.950 . S
C447 C464 1.574 . S
C447 C466 1.368 1_556 S
C447 H471 0.949 . S
H448 C452 0.949 . S
C449 C450 1.349 . S
C449 C451 1.327 . S
C449 H472 0.950 . S
C450 C449 1.349 . S
C450 C462 1.349 . S
C451 C449 1.327 . S
C451 C467 1.429 . S
C451 H473 0.950 . S
C452 H448 0.949 . S
C452 C460 1.574 . S
C452 C468 1.368 1_554 S
H453 C461 0.950 . S
H454 C459 0.950 . S
H455 C460 0.949 . S
H456 C462 0.950 . S
H457 C463 0.950 . S
H458 C464 0.949 . S
C459 H454 0.950 . S
C459 C461 1.327 . S
C459 C465 1.429 . S
C460 C452 1.574 . S
C460 H455 0.949 . S
C460 C466 1.368 . S
C461 C445 1.349 . S
C461 H453 0.950 . S
C461 C459 1.327 . S
C462 C450 1.349 . S
C462 H456 0.950 . S
C462 C463 1.327 . S
C463 H457 0.950 . S
C463 C462 1.327 . S
C463 C467 1.429 . S
C464 C447 1.574 . S
C464 H458 0.949 . S
C464 C468 1.368 . S
C465 C446 1.429 . S
C465 C459 1.429 . S
C465 C466 1.523 . S
C466 C447 1.368 1_554 S
C466 C460 1.368 . S
C466 C465 1.523 . S
C467 C451 1.429 . S
C467 C463 1.429 . S
C467 C468 1.523 . S
C468 C452 1.368 1_556 S
C468 C464 1.368 . S
C468 C467 1.523 . S
H469 C444 0.950 . S
H470 C446 0.950 . S
H471 C447 0.949 . S
H472 C449 0.950 . S
H473 C451 0.950 . S
C474 C475 1.349 . S
C474 C476 1.327 . S
C474 H499 0.950 . S
C475 C474 1.349 . S
C475 C491 1.349 . S
C476 C474 1.327 . S
C476 C495 1.429 . S
C476 H500 0.950 . S
C477 C494 1.574 1_654 S
C477 C496 1.368 . S
C477 H501 0.949 1_655 S
H478 C482 0.949 . S
C479 C480 1.349 1_455 S
C479 C481 1.327 . S
C479 H502 0.950 . S
C480 C479 1.349 1_655 S
C480 C492 1.349 . S
C481 C479 1.327 . S
C481 C497 1.429 1_455 S
C481 H503 0.950 . S
C482 H478 0.949 . S
C482 C490 1.574 . S
C482 C498 1.368 1_554 S
H483 C491 0.950 . S
H484 C489 0.917 1_455 S
H485 C490 0.949 . S
H486 C492 0.950 . S
H487 C493 0.950 . S
H488 C494 0.949 . S
C489 H484 0.917 1_655 S
C489 C491 1.327 . S
C489 C495 1.429 . S
C490 C482 1.574 . S
C490 H485 0.949 . S
C490 C496 1.368 . S
C491 C475 1.349 . S
C491 H483 0.950 . S
C491 C489 1.327 . S
C492 C480 1.349 . S
C492 H486 0.950 . S
C492 C493 1.327 . S
C493 H487 0.950 . S
C493 C492 1.327 . S
C493 C497 1.429 . S
C494 C477 1.574 1_456 S
C494 H488 0.949 . S
C494 C498 1.368 1_455 S
C495 C476 1.429 . S
C495 C489 1.429 . S
C495 C496 1.523 . S
C496 C477 1.368 . S
C496 C490 1.368 . S
C496 C495 1.523 . S
C497 C481 1.429 1_655 S
C497 C493 1.429 . S
C497 C498 1.523 . S
C498 C482 1.368 1_556 S
C498 C494 1.368 1_655 S
C498 C497 1.523 . S
H499 C474 0.950 . S
H500 C476 0.950 . S
H501 C477 0.949 1_455 S
H502 C479 0.950 . S
H503 C481 0.950 . S
C504 C505 1.349 . S
C504 C506 1.327 . S
C504 H529 0.950 1_554 S
C505 C504 1.349 . S
C505 C521 1.349 . S
C506 C504 1.327 . S
C506 C525 1.429 . S
C506 H530 0.950 . S
C507 C524 1.574 . S
C507 C526 1.368 . S
C507 H531 0.949 . S
H508 C512 0.949 . S
C509 C510 1.349 . S
C509 C511 1.327 . S
C509 H532 0.950 . S
C510 C509 1.349 . S
C510 C522 1.349 . S
C511 C509 1.327 . S
C511 C527 1.429 . S
C511 H533 0.950 . S
C512 H508 0.949 . S
C512 C520 1.574 . S
C512 C528 1.368 . S
H513 C521 0.950 . S
H514 C519 0.950 . S
H515 C520 0.949 . S
H516 C522 0.950 . S
H517 C523 0.950 . S
H518 C524 0.949 . S
C519 H514 0.950 . S
C519 C521 1.327 . S
C519 C525 1.429 . S
C520 C512 1.574 . S
C520 H515 0.949 . S
C520 C526 1.368 . S
C521 C505 1.349 . S
C521 H513 0.950 . S
C521 C519 1.327 . S
C522 C510 1.349 . S
C522 H516 0.950 . S
C522 C523 1.327 . S
C523 H517 0.950 . S
C523 C522 1.327 . S
C523 C527 1.429 . S
C524 C507 1.574 . S
C524 H518 0.949 . S
C524 C528 1.368 . S
C525 C506 1.429 . S
C525 C519 1.429 . S
C525 C526 1.523 . S
C526 C507 1.368 . S
C526 C520 1.368 . S
C526 C525 1.523 . S
C527 C511 1.429 . S
C527 C523 1.429 . S
C527 C528 1.523 . S
C528 C512 1.368 . S
C528 C524 1.368 . S
C528 C527 1.523 . S
H529 C504 0.950 1_556 S
H530 C506 0.950 . S
H531 C507 0.949 . S
H532 C509 0.950 . S
H533 C511 0.950 . S
C534 C535 1.349 . S
C534 C536 1.327 . S
C534 H559 0.950 . S
C535 C534 1.349 . S
C535 C551 1.349 . S
C536 C534 1.327 . S
C536 C555 1.429 . S
C536 H560 0.950 . S
C537 C554 1.574 . S
C537 C556 1.368 . S
C537 H561 0.949 . S
H538 C542 0.949 . S
C539 C540 1.349 . S
C539 C541 1.327 . S
C539 H562 0.950 . S
C540 C539 1.349 . S
C540 C552 1.349 1_565 S
C541 C539 1.327 . S
C541 C557 1.429 1_565 S
C541 H563 0.950 . S
C542 H538 0.949 . S
C542 C550 1.574 . S
C542 C558 1.368 . S
H543 C551 0.950 1_556 S
H544 C549 0.950 . S
H545 C550 0.949 . S
H546 C552 0.950 . S
H547 C553 0.950 . S
H548 C554 0.949 1_565 S
C549 H544 0.950 . S
C549 C551 1.327 . S
C549 C555 1.429 . S
C550 C542 1.574 . S
C550 H545 0.949 . S
C550 C556 1.368 . S
C551 C535 1.349 . S
C551 H543 0.950 1_554 S
C551 C549 1.327 . S
C552 C540 1.349 1_545 S
C552 H546 0.950 . S
C552 C553 1.327 . S
C553 H547 0.950 . S
C553 C552 1.327 . S
C553 C557 1.429 . S
C554 C537 1.574 . S
C554 H548 0.949 1_545 S
C554 C558 1.368 . S
C555 C536 1.429 . S
C555 C549 1.429 . S
C555 C556 1.523 . S
C556 C537 1.368 . S
C556 C550 1.368 . S
C556 C555 1.523 . S
C557 C541 1.429 1_545 S
C557 C553 1.429 . S
C557 C558 1.523 . S
C558 C542 1.368 . S
C558 C554 1.368 . S
C558 C557 1.523 . S
H559 C534 0.950 . S
H560 C536 0.950 . S
H561 C537 0.949 . S
H562 C539 0.950 . S
H563 C541 0.950 . S
C564 C565 1.349 . S
C564 C566 1.327 . S
C564 H589 0.950 . S
C565 C564 1.349 . S
C565 C581 1.349 . S
C566 C564 1.327 . S
C566 C585 1.429 . S
C566 H590 0.950 . S
C567 C584 1.574 . S
C567 C586 1.368 . S
C567 H591 0.949 . S
H568 C572 0.949 . S
C569 C570 1.349 . S
C569 C571 1.327 . S
C569 H592 0.950 . S
C570 C569 1.349 . S
C570 C582 1.349 . S
C571 C569 1.327 . S
C571 C587 1.429 . S
C571 H593 0.950 . S
C572 H568 0.949 . S
C572 C580 1.574 . S
C572 C588 1.368 . S
H573 C581 0.950 . S
H574 C579 0.950 . S
H575 C580 0.949 . S
H576 C582 0.950 . S
H577 C583 0.950 . S
H578 C584 0.949 . S
C579 H574 0.950 . S
C579 C581 1.327 . S
C579 C585 1.429 . S
C580 C572 1.574 . S
C580 H575 0.949 . S
C580 C586 1.368 . S
C581 C565 1.349 . S
C581 H573 0.950 . S
C581 C579 1.327 . S
C582 C570 1.349 . S
C582 H576 0.950 . S
C582 C583 1.327 . S
C583 H577 0.950 . S
C583 C582 1.327 . S
C583 C587 1.429 . S
C584 C567 1.574 . S
C584 H578 0.949 . S
C584 C588 1.368 . S
C585 C566 1.429 . S
C585 C579 1.429 . S
C585 C586 1.523 . S
C586 C567 1.368 . S
C586 C580 1.368 . S
C586 C585 1.523 . S
C587 C571 1.429 . S
C587 C583 1.429 . S
C587 C588 1.523 . S
C588 C572 1.368 . S
C588 C584 1.368 . S
C588 C587 1.523 . S
H589 C564 0.950 . S
H590 C566 0.950 . S
H591 C567 0.949 . S
H592 C569 0.950 . S
H593 C571 0.950 . S
C594 C595 1.349 . S
C594 C596 1.327 . S
C594 H619 0.950 . S
C595 C594 1.349 . S
C595 C611 1.349 . S
C596 C594 1.327 . S
C596 C615 1.429 . S
C596 H620 0.950 . S
C597 C614 1.574 . S
C597 C616 1.368 . S
C597 H621 0.949 . S
H598 C602 0.949 . S
C599 C600 1.349 . S
C599 C601 1.327 . S
C599 H622 0.950 . S
C600 C599 1.349 . S
C600 C612 1.349 . S
C601 C599 1.327 . S
C601 C617 1.429 . S
C601 H623 0.950 . S
C602 H598 0.949 . S
C602 C610 1.574 . S
C602 C618 1.368 . S
H603 C611 0.950 . S
H604 C609 0.950 . S
H605 C610 0.949 . S
H606 C612 0.950 . S
H607 C613 0.950 . S
H608 C614 0.949 . S
C609 H604 0.950 . S
C609 C611 1.327 . S
C609 C615 1.429 . S
C610 C602 1.574 . S
C610 H605 0.949 . S
C610 C616 1.368 . S
C611 C595 1.349 . S
C611 H603 0.950 . S
C611 C609 1.327 . S
C612 C600 1.349 . S
C612 H606 0.950 . S
C612 C613 1.327 . S
C613 H607 0.950 . S
C613 C612 1.327 . S
C613 C617 1.429 . S
C614 C597 1.574 . S
C614 H608 0.949 . S
C614 C618 1.368 . S
C615 C596 1.429 . S
C615 C609 1.429 . S
C615 C616 1.523 . S
C616 C597 1.368 . S
C616 C610 1.368 . S
C616 C615 1.523 . S
C617 C601 1.429 . S
C617 C613 1.429 . S
C617 C618 1.523 . S
C618 C602 1.368 . S
C618 C614 1.368 . S
C618 C617 1.523 . S
H619 C594 0.950 . S
H620 C596 0.950 . S
H621 C597 0.949 . S
H622 C599 0.950 . S
H623 C601 0.950 . S
C624 C625 1.349 . S
C624 C626 1.327 . S
C624 H649 0.950 . S
C625 C624 1.349 . S
C625 C641 1.349 . S
C626 C624 1.327 . S
C626 C645 1.429 . S
C626 H650 0.950 . S
C627 C644 1.569 1_655 S
C627 C646 1.383 . S
C627 H651 0.941 1_655 S
H628 C632 0.949 . S
C629 C630 1.349 . S
C629 C631 1.327 . S
C629 H652 0.950 1_554 S
C630 C629 1.349 . S
C630 C642 1.349 1_455 S
C631 C629 1.327 . S
C631 C647 1.434 . S
C631 H653 0.950 . S
C632 H628 0.949 . S
C632 C640 1.574 . S
C632 C648 1.368 . S
H633 C641 0.950 . S
H634 C639 0.950 . S
H635 C640 0.949 . S
H636 C642 0.950 . S
H637 C643 0.950 . S
H638 C644 0.949 . S
C639 H634 0.950 . S
C639 C641 1.327 . S
C639 C645 1.429 . S
C640 C632 1.574 . S
C640 H635 0.949 . S
C640 C646 1.368 . S
C641 C625 1.349 . S
C641 H633 0.950 . S
C641 C639 1.327 . S
C642 C630 1.349 1_655 S
C642 H636 0.950 . S
C642 C643 1.327 . S
C643 H637 0.950 . S
C643 C642 1.327 . S
C643 C647 1.425 1_655 S
C644 C627 1.569 1_455 S
C644 H638 0.949 . S
C644 C648 1.368 1_455 S
C645 C626 1.429 . S
C645 C639 1.429 . S
C645 C646 1.523 . S
C646 C627 1.383 . S
C646 C640 1.368 . S
C646 C645 1.523 . S
C647 C631 1.434 . S
C647 C643 1.425 1_455 S
C647 C648 1.521 1_455 S
C648 C632 1.368 . S
C648 C644 1.368 1_655 S
C648 C647 1.521 1_655 S
H649 C624 0.950 . S
H650 C626 0.950 . S
H651 C627 0.941 1_455 S
H652 C629 0.950 1_556 S
H653 C631 0.950 . S
C654 C655 1.349 . S
C654 C656 1.322 1_565 S
C654 H679 0.950 1_565 S
C655 C654 1.349 . S
C655 C671 1.349 . S
C656 C654 1.322 1_545 S
C656 C675 1.417 1_545 S
C656 H680 0.966 . S
C657 C674 1.574 . S
C657 C676 1.368 . S
C657 H681 0.949 . S
H658 C662 0.949 . S
C659 C660 1.349 1_565 S
C659 C661 1.327 . S
C659 H682 0.950 . S
C660 C659 1.349 1_545 S
C660 C672 1.349 . S
C661 C659 1.327 . S
C661 C677 1.429 1_566 S
C661 H683 0.950 . S
C662 H658 0.949 . S
C662 C670 1.574 . S
C662 C678 1.368 . S
H663 C671 0.950 . S
H664 C669 0.950 . S
H665 C670 0.949 . S
H666 C672 0.950 . S
H667 C673 0.950 . S
H668 C674 0.949 . S
C669 H664 0.950 . S
C669 C671 1.327 . S
C669 C675 1.429 . S
C670 C662 1.574 . S
C670 H665 0.949 . S
C670 C676 1.368 1_545 S
C671 C655 1.349 . S
C671 H663 0.950 . S
C671 C669 1.327 . S
C672 C660 1.349 . S
C672 H666 0.950 . S
C672 C673 1.327 1_556 S
C673 H667 0.950 . S
C673 C672 1.327 1_554 S
C673 C677 1.429 . S
C674 C657 1.574 . S
C674 H668 0.949 . S
C674 C678 1.368 1_565 S
C675 C656 1.417 1_565 S
C675 C669 1.429 . S
C675 C676 1.523 . S
C676 C657 1.368 . S
C676 C670 1.368 1_565 S
C676 C675 1.523 . S
C677 C661 1.429 1_544 S
C677 C673 1.429 . S
C677 C678 1.523 . S
C678 C662 1.368 . S
C678 C674 1.368 1_545 S
C678 C677 1.523 . S
H679 C654 0.950 1_545 S
H680 C656 0.966 . S
H681 C657 0.949 . S
H682 C659 0.950 . S
H683 C661 0.950 . S
C684 C685 1.349 . S
C684 C686 1.327 . S
C684 H709 0.950 . S
C685 C684 1.349 . S
C685 C701 1.349 . S
C686 C684 1.327 . S
C686 C705 1.429 . S
C686 H710 0.950 . S
C687 C704 1.574 . S
C687 C706 1.368 . S
C687 H711 0.949 . S
H688 C692 0.949 1_556 S
C689 C690 1.349 . S
C689 C691 1.327 . S
C689 H712 0.950 . S
C690 C689 1.349 . S
C690 C702 1.349 . S
C691 C689 1.327 . S
C691 C707 1.429 . S
C691 H713 0.950 1_556 S
C692 H688 0.949 1_554 S
C692 C700 1.574 . S
C692 C708 1.368 . S
H693 C701 0.950 . S
H694 C699 0.950 . S
H695 C700 0.949 . S
H696 C702 0.950 . S
H697 C703 0.950 . S
H698 C704 0.949 . S
C699 H694 0.950 . S
C699 C701 1.327 . S
C699 C705 1.429 . S
C700 C692 1.574 . S
C700 H695 0.949 . S
C700 C706 1.368 . S
C701 C685 1.349 . S
C701 H693 0.950 . S
C701 C699 1.327 . S
C702 C690 1.349 . S
C702 H696 0.950 . S
C702 C703 1.327 . S
C703 H697 0.950 . S
C703 C702 1.327 . S
C703 C707 1.429 . S
C704 C687 1.574 . S
C704 H698 0.949 . S
C704 C708 1.368 . S
C705 C686 1.429 . S
C705 C699 1.429 . S
C705 C706 1.523 . S
C706 C687 1.368 . S
C706 C700 1.368 . S
C706 C705 1.523 . S
C707 C691 1.429 . S
C707 C703 1.429 . S
C707 C708 1.523 1_556 S
C708 C692 1.368 . S
C708 C704 1.368 . S
C708 C707 1.523 1_554 S
H709 C684 0.950 . S
H710 C686 0.950 . S
H711 C687 0.949 . S
H712 C689 0.950 . S
H713 C691 0.950 1_554 S
C714 C715 1.349 . S
C714 C716 1.327 . S
C714 H739 0.950 . S
C715 C714 1.349 . S
C715 C731 1.349 . S
C716 C714 1.327 . S
C716 C735 1.429 . S
C716 H740 0.950 . S
C717 C734 1.574 . S
C717 C736 1.368 . S
C717 H741 0.949 . S
H718 C722 0.949 . S
C719 C720 1.349 1_554 S
C719 C721 1.327 . S
C719 H742 0.950 1_554 S
C720 C719 1.349 1_556 S
C720 C732 1.349 1_556 S
C721 C719 1.327 . S
C721 C737 1.429 . S
C721 H743 0.950 . S
C722 H718 0.949 . S
C722 C730 1.574 . S
C722 C738 1.368 . S
H723 C731 0.950 . S
H724 C729 0.950 . S
H725 C730 0.949 . S
H726 C732 0.950 . S
H727 C733 0.950 . S
H728 C734 0.949 . S
C729 H724 0.950 . S
C729 C731 1.327 . S
C729 C735 1.429 . S
C730 C722 1.574 . S
C730 H725 0.949 . S
C730 C736 1.368 . S
C731 C715 1.349 . S
C731 H723 0.950 . S
C731 C729 1.327 . S
C732 C720 1.349 1_554 S
C732 H726 0.950 . S
C732 C733 1.327 . S
C733 H727 0.950 . S
C733 C732 1.327 . S
C733 C737 1.429 . S
C734 C717 1.574 . S
C734 H728 0.949 . S
C734 C738 1.368 . S
C735 C716 1.429 . S
C735 C729 1.429 . S
C735 C736 1.523 . S
C736 C717 1.368 . S
C736 C730 1.368 . S
C736 C735 1.523 . S
C737 C721 1.429 . S
C737 C733 1.429 . S
C737 C738 1.523 . S
C738 C722 1.368 . S
C738 C734 1.368 . S
C738 C737 1.523 . S
H739 C714 0.950 . S
H740 C716 0.950 . S
H741 C717 0.949 . S
H742 C719 0.950 1_556 S
H743 C721 0.950 . S
C744 C745 1.347 1_554 S
C744 C746 1.326 1_554 S
C744 H769 0.952 . S
C745 C744 1.347 1_556 S
C745 C761 1.349 . S
C746 C744 1.326 1_556 S
C746 C765 1.429 . S
C746 H770 0.950 1_556 S
C747 C764 1.574 . S
C747 C766 1.368 . S
C747 H771 0.949 . S
H748 C752 0.949 . S
C749 C750 1.349 . S
C749 C751 1.327 . S
C749 H772 0.950 . S
C750 C749 1.349 . S
C750 C762 1.349 . S
C751 C749 1.327 . S
C751 C767 1.429 . S
C751 H773 0.950 . S
C752 H748 0.949 . S
C752 C760 1.574 . S
C752 C768 1.368 . S
H753 C761 0.950 . S
H754 C759 0.950 . S
H755 C760 0.949 . S
H756 C762 0.950 . S
H757 C763 0.950 . S
H758 C764 0.949 . S
C759 H754 0.950 . S
C759 C761 1.327 . S
C759 C765 1.429 . S
C760 C752 1.574 . S
C760 H755 0.949 . S
C760 C766 1.368 . S
C761 C745 1.349 . S
C761 H753 0.950 . S
C761 C759 1.327 . S
C762 C750 1.349 . S
C762 H756 0.950 . S
C762 C763 1.327 . S
C763 H757 0.950 . S
C763 C762 1.327 . S
C763 C767 1.429 . S
C764 C747 1.574 . S
C764 H758 0.949 . S
C764 C768 1.368 . S
C765 C746 1.429 . S
C765 C759 1.429 . S
C765 C766 1.523 . S
C766 C747 1.368 . S
C766 C760 1.368 . S
C766 C765 1.523 . S
C767 C751 1.429 . S
C767 C763 1.429 . S
C767 C768 1.523 . S
C768 C752 1.368 . S
C768 C764 1.368 . S
C768 C767 1.523 . S
H769 C744 0.952 . S
H770 C746 0.950 1_554 S
H771 C747 0.949 . S
H772 C749 0.950 . S
H773 C751 0.950 . S
C774 C775 1.349 . S
C774 C776 1.327 . S
C774 H799 0.950 . S
C775 C774 1.349 . S
C775 C791 1.349 . S
C776 C774 1.327 . S
C776 C795 1.429 . S
C776 H800 0.950 . S
C777 C794 1.574 . S
C777 C796 1.368 . S
C777 H801 0.949 . S
H778 C782 0.949 . S
C779 C780 1.349 . S
C779 C781 1.327 . S
C779 H802 0.950 1_545 S
C780 C779 1.349 . S
C780 C792 1.349 . S
C781 C779 1.327 . S
C781 C797 1.429 . S
C781 H803 0.950 1_545 S
C782 H778 0.949 . S
C782 C790 1.574 . S
C782 C798 1.368 . S
H783 C791 0.950 . S
H784 C789 0.950 . S
H785 C790 0.949 . S
H786 C792 0.950 . S
H787 C793 0.950 . S
H788 C794 0.929 1_565 S
C789 H784 0.950 . S
C789 C791 1.327 . S
C789 C795 1.429 . S
C790 C782 1.574 . S
C790 H785 0.949 . S
C790 C796 1.368 . S
C791 C775 1.349 . S
C791 H783 0.950 . S
C791 C789 1.327 . S
C792 C780 1.349 . S
C792 H786 0.950 . S
C792 C793 1.327 . S
C793 H787 0.950 . S
C793 C792 1.327 . S
C793 C797 1.429 . S
C794 C777 1.574 . S
C794 H788 0.929 1_545 S
C794 C798 1.368 . S
C795 C776 1.429 . S
C795 C789 1.429 . S
C795 C796 1.523 . S
C796 C777 1.368 . S
C796 C790 1.368 . S
C796 C795 1.523 . S
C797 C781 1.429 . S
C797 C793 1.429 . S
C797 C798 1.523 . S
C798 C782 1.368 . S
C798 C794 1.368 . S
C798 C797 1.523 . S
H799 C774 0.950 . S
H800 C776 0.950 . S
H801 C777 0.949 . S
H802 C779 0.950 1_565 S
H803 C781 0.950 1_565 S
C804 C805 1.349 . S
C804 C806 1.327 . S
C804 H829 0.950 . S
C805 C804 1.349 . S
C805 C821 1.349 1_556 S
C806 C804 1.327 . S
C806 C825 1.429 . S
C806 H830 0.950 . S
C807 C824 1.574 . S
C807 C826 1.368 . S
C807 H831 0.949 . S
H808 C812 0.949 . S
C809 C810 1.349 . S
C809 C811 1.327 . S
C809 H832 0.950 . S
C810 C809 1.349 . S
C810 C822 1.349 . S
C811 C809 1.327 . S
C811 C827 1.429 . S
C811 H833 0.950 . S
C812 H808 0.949 . S
C812 C820 1.574 . S
C812 C828 1.368 . S
H813 C821 0.950 . S
H814 C819 0.950 1_554 S
H815 C820 0.949 . S
H816 C822 0.950 . S
H817 C823 0.950 . S
H818 C824 0.949 . S
C819 H814 0.950 1_556 S
C819 C821 1.327 1_556 S
C819 C825 1.429 . S
C820 C812 1.574 . S
C820 H815 0.949 . S
C820 C826 1.368 . S
C821 C805 1.349 1_554 S
C821 H813 0.950 . S
C821 C819 1.327 1_554 S
C822 C810 1.349 . S
C822 H816 0.950 . S
C822 C823 1.327 . S
C823 H817 0.950 . S
C823 C822 1.327 . S
C823 C827 1.429 . S
C824 C807 1.574 . S
C824 H818 0.949 . S
C824 C828 1.368 . S
C825 C806 1.429 . S
C825 C819 1.429 . S
C825 C826 1.523 . S
C826 C807 1.368 . S
C826 C820 1.368 . S
C826 C825 1.523 . S
C827 C811 1.429 . S
C827 C823 1.429 . S
C827 C828 1.523 . S
C828 C812 1.368 . S
C828 C824 1.368 . S
C828 C827 1.523 . S
H829 C804 0.950 . S
H830 C806 0.950 . S
H831 C807 0.949 . S
H832 C809 0.950 . S
H833 C811 0.950 . S
C834 C835 1.349 1_556 S
C834 C836 1.327 . S
C834 H859 0.950 1_556 S
C835 C834 1.349 1_554 S
C835 C851 1.349 1_554 S
C836 C834 1.327 . S
C836 C855 1.429 . S
C836 H860 0.950 . S
C837 C854 1.574 . S
C837 C856 1.368 . S
C837 H861 0.949 . S
H838 C842 0.949 . S
C839 C840 1.349 . S
C839 C841 1.327 . S
C839 H862 0.950 . S
C840 C839 1.349 . S
C840 C852 1.349 . S
C841 C839 1.327 . S
C841 C857 1.429 . S
C841 H863 0.950 . S
C842 H838 0.949 . S
C842 C850 1.574 . S
C842 C858 1.368 . S
H843 C851 0.951 . S
H844 C849 0.950 . S
H845 C850 0.949 . S
H846 C852 0.950 . S
H847 C853 0.950 . S
H848 C854 0.949 . S
C849 H844 0.950 . S
C849 C851 1.327 . S
C849 C855 1.429 . S
C850 C842 1.574 . S
C850 H845 0.949 . S
C850 C856 1.368 . S
C851 C835 1.349 1_556 S
C851 H843 0.951 . S
C851 C849 1.327 . S
C852 C840 1.349 . S
C852 H846 0.950 . S
C852 C853 1.327 . S
C853 H847 0.950 . S
C853 C852 1.327 . S
C853 C857 1.429 . S
C854 C837 1.574 . S
C854 H848 0.949 . S
C854 C858 1.368 . S
C855 C836 1.429 . S
C855 C849 1.429 . S
C855 C856 1.523 . S
C856 C837 1.368 . S
C856 C850 1.368 . S
C856 C855 1.523 . S
C857 C841 1.429 . S
C857 C853 1.429 . S
C857 C858 1.523 . S
C858 C842 1.368 . S
C858 C854 1.368 . S
C858 C857 1.523 . S
H859 C834 0.950 1_554 S
H860 C836 0.950 . S
H861 C837 0.949 . S
H862 C839 0.950 . S
H863 C841 0.950 . S
C864 C865 1.349 . S
C864 C866 1.327 . S
C864 H889 0.950 . S
C865 C864 1.349 . S
C865 C881 1.349 . S
C866 C864 1.327 . S
C866 C885 1.429 . S
C866 H890 0.950 . S
C867 C884 1.574 . S
C867 C886 1.368 . S
C867 H891 0.949 . S
H868 C872 0.949 . S
C869 C870 1.349 1_455 S
C869 C871 1.324 1_455 S
C869 H892 0.950 . S
C870 C869 1.349 1_655 S
C870 C882 1.349 . S
C871 C869 1.324 1_655 S
C871 C887 1.440 . S
C871 H893 0.942 1_655 S
C872 H868 0.949 . S
C872 C880 1.574 . S
C872 C888 1.368 . S
H873 C881 0.950 . S
H874 C879 0.950 . S
H875 C880 0.949 . S
H876 C882 0.950 . S
H877 C883 0.950 . S
H878 C884 0.948 . S
C879 H874 0.950 . S
C879 C881 1.327 . S
C879 C885 1.429 . S
C880 C872 1.574 . S
C880 H875 0.949 . S
C880 C886 1.368 . S
C881 C865 1.349 . S
C881 H873 0.950 . S
C881 C879 1.327 . S
C882 C870 1.349 . S
C882 H876 0.950 . S
C882 C883 1.327 . S
C883 H877 0.950 . S
C883 C882 1.327 . S
C883 C887 1.429 . S
C884 C867 1.574 . S
C884 H878 0.948 . S
C884 C888 1.368 . S
C885 C866 1.429 . S
C885 C879 1.429 . S
C885 C886 1.523 . S
C886 C867 1.368 . S
C886 C880 1.368 . S
C886 C885 1.523 . S
C887 C871 1.440 . S
C887 C883 1.429 . S
C887 C888 1.523 . S
C888 C872 1.368 . S
C888 C884 1.368 . S
C888 C887 1.523 . S
H889 C864 0.950 . S
H890 C866 0.950 . S
H891 C867 0.949 . S
H892 C869 0.950 . S
H893 C871 0.942 1_455 S
C894 C895 1.349 . S
C894 C896 1.327 . S
C894 H919 0.950 . S
C895 C894 1.349 . S
C895 C911 1.349 . S
C896 C894 1.327 . S
C896 C915 1.429 . S
C896 H920 0.949 1_565 S
C897 C914 1.574 . S
C897 C916 1.368 . S
C897 H921 0.949 . S
H898 C902 0.949 1_545 S
C899 C900 1.349 . S
C899 C901 1.327 . S
C899 H922 0.950 . S
C900 C899 1.349 . S
C900 C912 1.349 1_565 S
C901 C899 1.327 . S
C901 C917 1.429 . S
C901 H923 0.950 . S
C902 H898 0.949 1_565 S
C902 C910 1.574 . S
C902 C918 1.368 . S
H903 C911 0.950 . S
H904 C909 0.950 . S
H905 C910 0.949 1_545 S
H906 C912 0.950 . S
H907 C913 0.964 . S
H908 C914 0.949 . S
C909 H904 0.950 . S
C909 C911 1.327 . S
C909 C915 1.429 . S
C910 C902 1.574 . S
C910 H905 0.949 1_565 S
C910 C916 1.368 . S
C911 C895 1.349 . S
C911 H903 0.950 . S
C911 C909 1.327 . S
C912 C900 1.349 1_545 S
C912 H906 0.950 . S
C912 C913 1.330 . S
C913 H907 0.964 . S
C913 C912 1.330 . S
C913 C917 1.413 1_545 S
C914 C897 1.574 . S
C914 H908 0.949 . S
C914 C918 1.368 . S
C915 C896 1.429 . S
C915 C909 1.429 . S
C915 C916 1.523 . S
C916 C897 1.368 . S
C916 C910 1.368 . S
C916 C915 1.523 . S
C917 C901 1.429 . S
C917 C913 1.413 1_565 S
C917 C918 1.523 . S
C918 C902 1.368 . S
C918 C914 1.368 . S
C918 C917 1.523 . S
H919 C894 0.950 . S
H920 C896 0.949 1_545 S
H921 C897 0.949 . S
H922 C899 0.950 . S
H923 C901 0.950 . S
C924 C925 1.349 . S
C924 C926 1.327 . S
C924 H949 0.950 . S
C925 C924 1.349 . S
C925 C941 1.349 . S
C926 C924 1.327 . S
C926 C945 1.429 . S
C926 H950 0.950 . S
C927 C944 1.574 . S
C927 C946 1.368 . S
C927 H951 0.949 . S
H928 C932 0.949 . S
C929 C930 1.349 . S
C929 C931 1.327 . S
C929 H952 0.950 . S
C930 C929 1.349 . S
C930 C942 1.349 . S
C931 C929 1.327 . S
C931 C947 1.429 . S
C931 H953 0.950 . S
C932 H928 0.949 . S
C932 C940 1.574 . S
C932 C948 1.368 . S
H933 C941 0.950 . S
H934 C939 0.950 . S
H935 C940 0.949 . S
H936 C942 0.950 . S
H937 C943 0.950 . S
H938 C944 0.949 . S
C939 H934 0.950 . S
C939 C941 1.327 . S
C939 C945 1.429 . S
C940 C932 1.574 . S
C940 H935 0.949 . S
C940 C946 1.368 . S
C941 C925 1.349 . S
C941 H933 0.950 . S
C941 C939 1.327 . S
C942 C930 1.349 . S
C942 H936 0.950 . S
C942 C943 1.327 . S
C943 H937 0.950 . S
C943 C942 1.327 . S
C943 C947 1.429 . S
C944 C927 1.574 . S
C944 H938 0.949 . S
C944 C948 1.368 . S
C945 C926 1.429 . S
C945 C939 1.429 . S
C945 C946 1.523 . S
C946 C927 1.368 . S
C946 C940 1.368 . S
C946 C945 1.523 . S
C947 C931 1.429 . S
C947 C943 1.429 . S
C947 C948 1.523 . S
C948 C932 1.368 . S
C948 C944 1.368 . S
C948 C947 1.523 . S
H949 C924 0.950 . S
H950 C926 0.950 . S
H951 C927 0.949 . S
H952 C929 0.950 . S
H953 C931 0.950 . S
C954 C955 1.349 . S
C954 C956 1.327 . S
C954 H979 0.950 . S
C955 C954 1.349 . S
C955 C971 1.349 . S
C956 C954 1.327 . S
C956 C975 1.429 . S
C956 H980 0.950 . S
C957 C974 1.574 . S
C957 C976 1.368 . S
C957 H981 0.949 . S
H958 C962 0.949 . S
C959 C960 1.349 . S
C959 C961 1.327 . S
C959 H982 0.950 . S
C960 C959 1.349 . S
C960 C972 1.349 . S
C961 C959 1.327 . S
C961 C977 1.429 . S
C961 H983 0.950 . S
C962 H958 0.949 . S
C962 C970 1.574 . S
C962 C978 1.368 . S
H963 C971 0.950 . S
H964 C969 0.950 . S
H965 C970 0.949 . S
H966 C972 0.950 . S
H967 C973 0.950 . S
H968 C974 0.949 . S
C969 H964 0.950 . S
C969 C971 1.327 . S
C969 C975 1.429 . S
C970 C962 1.574 . S
C970 H965 0.949 . S
C970 C976 1.368 . S
C971 C955 1.349 . S
C971 H963 0.950 . S
C971 C969 1.327 . S
C972 C960 1.349 . S
C972 H966 0.950 . S
C972 C973 1.327 . S
C973 H967 0.950 . S
C973 C972 1.327 . S
C973 C977 1.429 . S
C974 C957 1.574 . S
C974 H968 0.949 . S
C974 C978 1.368 . S
C975 C956 1.429 . S
C975 C969 1.429 . S
C975 C976 1.523 . S
C976 C957 1.368 . S
C976 C970 1.368 . S
C976 C975 1.523 . S
C977 C961 1.429 . S
C977 C973 1.429 . S
C977 C978 1.523 . S
C978 C962 1.368 . S
C978 C974 1.368 . S
C978 C977 1.523 . S
H979 C954 0.950 . S
H980 C956 0.950 . S
H981 C957 0.949 . S
H982 C959 0.950 . S
H983 C961 0.950 . S
C265 N80 2.164 . S
C270 C135 2.250 . S
C300 C161 1.698 . S
C295 N93 1.640 . S
C330 C201 1.841 . S
C325 N54 1.793 . S
C360 C255 2.350 . S
C355 N67 2.274 . S
C390 C116 2.250 1_565 S
C385 N28 2.170 . S
C415 N41 1.636 . S
C420 C146 1.697 . S
C445 N2 1.798 . S
C450 C186 1.841 . S
C475 N15 2.282 . S
C480 C236 2.350 1_655 S
C510 C112 0.300 . S
C505 N70 0.259 . S
C540 C173 0.459 . S
C535 N83 0.472 . S
C570 C213 0.369 . S
C565 N96 0.361 . S
C595 N57 0.148 . S
C600 C232 0.254 . S
C625 N18 0.245 . S
C630 C133 0.299 . S
C660 C152 0.459 . S
C655 N31 0.467 . S
C690 C192 0.369 . S
C685 N44 0.359 . S
C715 N5 0.128 . S
C720 C253 0.254 . S
C745 N66 1.851 1_556 S
C750 C106 1.922 . S
C775 N79 2.449 . S
C780 C156 2.519 . S
C810 C196 2.287 . S
C805 N92 2.237 1_556 S
C840 C226 1.682 . S
C835 N53 1.633 . S
C865 N14 1.863 . S
C870 C121 1.922 . S
C900 C175 2.519 . S
C895 N27 2.457 . S
C930 C215 2.288 . S
C925 N40 2.226 . S
C955 N1 1.641 . S
C960 C241 1.682 . S
