# Generated by pormake.
# Topology wbl, (4,4)-cn, num edge types: 1
# Building blocks:
#     Node 0, Type 0, BuildingBlock: NAWXER_clean_linker_0, # of connection points: 4
#     Node 1, Type 0, BuildingBlock: NAWXER_clean_linker_0, # of connection points: 4
#     Node 2, Type 0, BuildingBlock: NAWXER_clean_linker_0, # of connection points: 4
#     Node 3, Type 0, BuildingBlock: NAWXER_clean_linker_0, # of connection points: 4
#     Node 4, Type 0, BuildingBlock: NAWXER_clean_linker_0, # of connection points: 4
#     Node 5, Type 0, BuildingBlock: NAWXER_clean_linker_0, # of connection points: 4
#     Node 6, Type 0, BuildingBlock: NAWXER_clean_linker_0, # of connection points: 4
#     Node 7, Type 0, BuildingBlock: NAWXER_clean_linker_0, # of connection points: 4
#     Node 8, Type 1, BuildingBlock: GALJAG_clean_sbu_0, # of connection points: 4
#     Node 9, Type 1, BuildingBlock: GALJAG_clean_sbu_0, # of connection points: 4
#     Node 10, Type 1, BuildingBlock: GALJAG_clean_sbu_0, # of connection points: 4
#     Node 11, Type 1, BuildingBlock: GALJAG_clean_sbu_0, # of connection points: 4
#     Node 12, Type 1, BuildingBlock: GALJAG_clean_sbu_0, # of connection points: 4
#     Node 13, Type 1, BuildingBlock: GALJAG_clean_sbu_0, # of connection points: 4
#     Node 14, Type 1, BuildingBlock: GALJAG_clean_sbu_0, # of connection points: 4
#     Node 15, Type 1, BuildingBlock: GALJAG_clean_sbu_0, # of connection points: 4
#     Edge 16, Type (0, 1), BuildingBlock: XIVTED_clean_linker_0, # of connection points: 2
#     Edge 17, Type (0, 1), BuildingBlock: XIVTED_clean_linker_0, # of connection points: 2
#     Edge 18, Type (0, 1), BuildingBlock: XIVTED_clean_linker_0, # of connection points: 2
#     Edge 19, Type (0, 1), BuildingBlock: XIVTED_clean_linker_0, # of connection points: 2
#     Edge 20, Type (0, 1), BuildingBlock: XIVTED_clean_linker_0, # of connection points: 2
#     Edge 21, Type (0, 1), BuildingBlock: XIVTED_clean_linker_0, # of connection points: 2
#     Edge 22, Type (0, 1), BuildingBlock: XIVTED_clean_linker_0, # of connection points: 2
#     Edge 23, Type (0, 1), BuildingBlock: XIVTED_clean_linker_0, # of connection points: 2
#     Edge 24, Type (0, 1), BuildingBlock: XIVTED_clean_linker_0, # of connection points: 2
#     Edge 25, Type (0, 1), BuildingBlock: XIVTED_clean_linker_0, # of connection points: 2
#     Edge 26, Type (0, 1), BuildingBlock: XIVTED_clean_linker_0, # of connection points: 2
#     Edge 27, Type (0, 1), BuildingBlock: XIVTED_clean_linker_0, # of connection points: 2
#     Edge 28, Type (0, 1), BuildingBlock: XIVTED_clean_linker_0, # of connection points: 2
#     Edge 29, Type (0, 1), BuildingBlock: XIVTED_clean_linker_0, # of connection points: 2
#     Edge 30, Type (0, 1), BuildingBlock: XIVTED_clean_linker_0, # of connection points: 2
#     Edge 31, Type (0, 1), BuildingBlock: XIVTED_clean_linker_0, # of connection points: 2
#     Edge 32, Type (0, 1), BuildingBlock: XIVTED_clean_linker_0, # of connection points: 2
#     Edge 33, Type (0, 1), BuildingBlock: XIVTED_clean_linker_0, # of connection points: 2
#     Edge 34, Type (0, 1), BuildingBlock: XIVTED_clean_linker_0, # of connection points: 2
#     Edge 35, Type (0, 1), BuildingBlock: XIVTED_clean_linker_0, # of connection points: 2
#     Edge 36, Type (0, 1), BuildingBlock: XIVTED_clean_linker_0, # of connection points: 2
#     Edge 37, Type (0, 1), BuildingBlock: XIVTED_clean_linker_0, # of connection points: 2
#     Edge 38, Type (0, 1), BuildingBlock: XIVTED_clean_linker_0, # of connection points: 2
#     Edge 39, Type (0, 1), BuildingBlock: XIVTED_clean_linker_0, # of connection points: 2
#     Edge 40, Type (0, 1), BuildingBlock: XIVTED_clean_linker_0, # of connection points: 2
#     Edge 41, Type (0, 1), BuildingBlock: XIVTED_clean_linker_0, # of connection points: 2
#     Edge 42, Type (0, 1), BuildingBlock: XIVTED_clean_linker_0, # of connection points: 2
#     Edge 43, Type (0, 1), BuildingBlock: XIVTED_clean_linker_0, # of connection points: 2
#     Edge 44, Type (0, 1), BuildingBlock: XIVTED_clean_linker_0, # of connection points: 2
#     Edge 45, Type (0, 1), BuildingBlock: XIVTED_clean_linker_0, # of connection points: 2
#     Edge 46, Type (0, 1), BuildingBlock: XIVTED_clean_linker_0, # of connection points: 2
#     Edge 47, Type (0, 1), BuildingBlock: XIVTED_clean_linker_0, # of connection points: 2
# Relax obj value: 0.140
# Max RMSD: 0.149
# Mean RMSD: 0.132
data_MOF--net-wbl--node1-GALJAG_clean_sbu_0--node2-NAWXER_clean_linker_0--edge1-XIVTED_clean_linker_0
_symmetry_space_group_name_H-M    P1
_symmetry_Int_Tables_number       1
_symmetry_cell_setting            triclinic
loop_
_symmetry_equiv_pos_as_xyz
'x, y, z'
_cell_length_a     43.969187
_cell_length_b     44.090307
_cell_length_c     85.386454
_cell_angle_alpha  90.000429
_cell_angle_beta   90.023124
_cell_angle_gamma 90.006189
loop_
_atom_site_label
_atom_site_type_symbol
_atom_site_fract_x
_atom_site_fract_y
_atom_site_fract_z
_atom_type_partial_charge
C0 C 0.04507 0.9071 0.37552 0.0
C1 C 0.06775 0.91751 0.3858 0.0
C2 C 0.03106 0.92715 0.36508 0.0
C3 C 0.03929 0.95792 0.36493 0.0
C4 C 0.07633 0.94818 0.38539 0.0
C5 C 0.06193 0.96829 0.37518 0.0
C6 C 0.02295 0.97982 0.35495 0.0
C7 C 0.08325 0.92518 0.32442 0.0
C8 C 0.06851 0.90835 0.31271 0.0
C9 C 0.06775 0.94775 0.33257 0.0
C10 C 0.03685 0.95337 0.32955 0.0
C11 C 0.03799 0.91479 0.30915 0.0
C12 C 0.02224 0.9371 0.31755 0.0
C13 C 0.02014 0.97677 0.33856 0.0
C14 C 0.95568 0.09303 0.3208 0.0
C15 C 0.93482 0.08159 0.30979 0.0
C16 C 0.97324 0.07328 0.32988 0.0
C17 C 0.96999 0.04173 0.32827 0.0
C18 C 0.93227 0.04999 0.30792 0.0
C19 C 0.94979 0.0303 0.31701 0.0
C20 C 0.98795 0.02043 0.33796 0.0
C21 C 0.92775 0.06703 0.37419 0.0
C22 C 0.94381 0.08149 0.38633 0.0
C23 C 0.94321 0.04943 0.36311 0.0
C24 C 0.97498 0.04635 0.3639 0.0
C25 C 0.9757 0.07951 0.3866 0.0
C26 C 0.99108 0.06201 0.37556 0.0
C27 C 0.99117 0.02355 0.35435 0.0
H28 H 0.03808 0.88354 0.37566 0.0
H29 H 0.01329 0.91883 0.35741 0.0
H30 H 0.09349 0.9568 0.39334 0.0
H31 H 0.06837 0.99202 0.37532 0.0
H32 H 0.10703 0.92126 0.32707 0.0
H33 H 0.08009 0.96095 0.34117 0.0
H34 H 0.02626 0.90227 0.30006 0.0
H35 H -0.00143 0.94139 0.31482 0.0
H36 H 0.95858 0.11724 0.32233 0.0
H37 H 0.98942 0.0827 0.33811 0.0
H38 H 0.91617 0.0404 0.2997 0.0
H39 H 0.94706 0.00605 0.31548 0.0
H40 H 0.90315 0.0679 0.37377 0.0
H41 H 0.93019 0.03695 0.35448 0.0
H42 H 0.98872 0.09077 0.39567 0.0
H43 H 0.01557 0.05985 0.37643 0.0
N44 N 0.00859 0.00314 0.36215 0.0
N45 N 0.00252 0.99708 0.33069 0.0
C46 C 0.91427 0.44196 0.62086 0.0
C47 C 0.92631 0.42061 0.63139 0.0
C48 C 0.93347 0.45793 0.61074 0.0
C49 C 0.96501 0.45295 0.61111 0.0
C50 C 0.95775 0.41496 0.63134 0.0
C51 C 0.97695 0.43122 0.6214 0.0
C52 C 0.98592 0.47246 0.60209 0.0
C53 C 0.94467 0.41151 0.56579 0.0
C54 C 0.92241 0.42632 0.55683 0.0
C55 C 0.96408 0.42809 0.57545 0.0
C56 C 0.96179 0.45978 0.57612 0.0
C57 C 0.91975 0.458 0.55767 0.0
C58 C 0.93968 0.4747 0.56711 0.0
C59 C 0.98329 0.47715 0.58583 0.0
C60 C 0.0994 0.54424 0.57142 0.0
C61 C 0.08879 0.56496 0.56017 0.0
C62 C 0.07893 0.52654 0.57997 0.0
C63 C 0.04744 0.52956 0.5776 0.0
C64 C 0.05729 0.56732 0.55753 0.0
C65 C 0.03685 0.54968 0.56611 0.0
C66 C 0.02551 0.51106 0.58661 0.0
C67 C 0.06744 0.57174 0.62359 0.0
C68 C 0.08248 0.5563 0.63575 0.0
C69 C 0.05059 0.55569 0.61244 0.0
C70 C 0.04878 0.5239 0.61318 0.0
C71 C 0.08152 0.52443 0.63607 0.0
C72 C 0.06469 0.50844 0.62496 0.0
C73 C 0.02763 0.50689 0.60299 0.0
H74 H 0.8901 0.4467 0.62066 0.0
H75 H 0.92383 0.47503 0.6031 0.0
H76 H 0.96767 0.3989 0.63948 0.0
H77 H 0.00125 0.42727 0.62196 0.0
H78 H 0.94699 0.38706 0.56532 0.0
H79 H 0.98122 0.41624 0.5822 0.0
H80 H 0.90276 0.46977 0.55078 0.0
H81 H 0.93775 0.49919 0.56747 0.0
H82 H 0.12353 0.54152 0.57353 0.0
H83 H 0.08776 0.51037 0.58836 0.0
H84 H 0.04836 0.58331 0.54907 0.0
H85 H 0.01269 0.55218 0.56397 0.0
H86 H 0.06741 0.59629 0.62315 0.0
H87 H 0.03788 0.56821 0.60371 0.0
H88 H 0.09324 0.51186 0.64515 0.0
H89 H 0.06352 0.48394 0.62577 0.0
N90 N 0.00791 0.48754 0.61004 0.0
N91 N 0.0032 0.49619 0.57865 0.0
C92 C 0.55257 0.4151 0.8758 0.0
C93 C 0.57197 0.42856 0.88687 0.0
C94 C 0.53658 0.43306 0.86513 0.0
C95 C 0.53949 0.46476 0.86549 0.0
C96 C 0.57559 0.46021 0.88689 0.0
C97 C 0.55918 0.47819 0.8764 0.0
C98 C 0.51984 0.48401 0.85563 0.0
C99 C 0.58871 0.44696 0.82178 0.0
C100 C 0.57659 0.42617 0.81099 0.0
C101 C 0.5695 0.46394 0.83137 0.0
C102 C 0.53786 0.46056 0.83023 0.0
C103 C 0.54496 0.42224 0.81011 0.0
C104 C 0.52569 0.43964 0.81954 0.0
C105 C 0.51753 0.48052 0.83928 0.0
C106 C 0.43389 0.58426 0.82156 0.0
C107 C 0.41809 0.57003 0.80925 0.0
C108 C 0.45397 0.56777 0.83095 0.0
C109 C 0.45797 0.53648 0.82857 0.0
C110 C 0.42337 0.53903 0.80642 0.0
C111 C 0.44297 0.52247 0.81601 0.0
C112 C 0.47875 0.51832 0.83851 0.0
C113 C 0.40959 0.55421 0.87316 0.0
C114 C 0.42192 0.57444 0.88419 0.0
C115 C 0.42866 0.53758 0.86327 0.0
C116 C 0.46037 0.54092 0.86429 0.0
C117 C 0.45364 0.57809 0.88496 0.0
C118 C 0.47268 0.56126 0.8752 0.0
C119 C 0.48088 0.52155 0.85496 0.0
H120 H 0.54944 0.39073 0.87558 0.0
H121 H 0.52106 0.42227 0.85699 0.0
H122 H 0.59017 0.47113 0.89543 0.0
H123 H 0.56149 0.50264 0.87695 0.0
H124 H 0.61306 0.45026 0.82268 0.0
H125 H 0.57934 0.48035 0.83934 0.0
H126 H 0.53516 0.40644 0.8018 0.0
H127 H 0.50129 0.43695 0.81842 0.0
H128 H 0.43042 0.60804 0.82415 0.0
H129 H 0.46632 0.5796 0.84006 0.0
H130 H 0.41239 0.52742 0.79678 0.0
H131 H 0.44616 0.49852 0.81367 0.0
H132 H 0.38522 0.551 0.87231 0.0
H133 H 0.41871 0.52157 0.85512 0.0
H134 H 0.4638 0.59316 0.89351 0.0
H135 H 0.4971 0.56388 0.87627 0.0
N136 N 0.50148 0.50442 0.86285 0.0
N137 N 0.49711 0.49776 0.83134 0.0
C138 C 0.44759 0.90635 0.07287 0.0
C139 C 0.42622 0.91893 0.0625 0.0
C140 C 0.46515 0.92505 0.08245 0.0
C141 C 0.46174 0.95665 0.08178 0.0
C142 C 0.42253 0.95055 0.06196 0.0
C143 C 0.44049 0.96931 0.0714 0.0
C144 C 0.48154 0.97645 0.09125 0.0
C145 C 0.4168 0.93411 0.12602 0.0
C146 C 0.43058 0.91825 0.13844 0.0
C147 C 0.43438 0.95129 0.11564 0.0
C148 C 0.46616 0.95255 0.11732 0.0
C149 C 0.46243 0.91933 0.13995 0.0
C150 C 0.47995 0.93629 0.12952 0.0
C151 C 0.48498 0.97309 0.10757 0.0
C152 C 0.56157 0.07726 0.12813 0.0
C153 C 0.57857 0.06191 0.13961 0.0
C154 C 0.54452 0.06092 0.11712 0.0
C155 C 0.5447 0.02905 0.11731 0.0
C156 C 0.57947 0.03008 0.13939 0.0
C157 C 0.56265 0.01385 0.1284 0.0
C158 C 0.52369 0.0111 0.10748 0.0
C159 C 0.58637 0.05953 0.07417 0.0
C160 C 0.57198 0.0757 0.06202 0.0
C161 C 0.56984 0.03946 0.08358 0.0
C162 C 0.53834 0.0359 0.08142 0.0
C163 C 0.54072 0.07091 0.05946 0.0
C164 C 0.52413 0.05144 0.06909 0.0
C165 C 0.52007 0.01473 0.09112 0.0
H166 H 0.45073 0.88202 0.07354 0.0
H167 H 0.48179 0.91485 0.09019 0.0
H168 H 0.40633 0.96073 0.05397 0.0
H169 H 0.43776 0.99369 0.07063 0.0
H170 H 0.39237 0.93363 0.12443 0.0
H171 H 0.42295 0.96436 0.10667 0.0
H172 H 0.47384 0.90795 0.14953 0.0
H173 H 0.50437 0.9372 0.1312 0.0
H174 H 0.56027 0.10179 0.12813 0.0
H175 H 0.53029 0.07315 0.10891 0.0
H176 H 0.59268 0.01768 0.14798 0.0
H177 H 0.56304 0.98929 0.1288 0.0
H178 H 0.61034 0.06256 0.07658 0.0
H179 H 0.58185 0.02668 0.09245 0.0
H180 H 0.5289 0.08206 0.04995 0.0
H181 H 0.50002 0.04861 0.06689 0.0
N182 N 0.49903 0.99722 0.08369 0.0
N183 N 0.50602 0.99043 0.11497 0.0
C184 C 0.05744 0.58412 0.88054 0.0
C185 C 0.07294 0.57125 0.8678 0.0
C186 C 0.04249 0.56555 0.89137 0.0
C187 C 0.04344 0.53378 0.88983 0.0
C188 C 0.07467 0.53956 0.86654 0.0
C189 C 0.0601 0.52103 0.87745 0.0
C190 C 0.02406 0.51381 0.89959 0.0
C191 C 0.08723 0.55524 0.93506 0.0
C192 C 0.07294 0.57676 0.94468 0.0
C193 C 0.06997 0.53648 0.92536 0.0
C194 C 0.03815 0.5387 0.92531 0.0
C195 C 0.04115 0.5794 0.94444 0.0
C196 C 0.02381 0.56013 0.93497 0.0
C197 C 0.01988 0.51753 0.91584 0.0
C198 C 0.93918 0.41042 0.93268 0.0
C199 C 0.92258 0.42455 0.94475 0.0
C200 C 0.95928 0.42716 0.92338 0.0
C201 C 0.9624 0.45864 0.92554 0.0
C202 C 0.92701 0.45577 0.94735 0.0
C203 C 0.94641 0.47257 0.9378 0.0
C204 C 0.98348 0.47725 0.91593 0.0
C205 C 0.92378 0.4344 0.87799 0.0
C206 C 0.94013 0.41593 0.8675 0.0
C207 C 0.93913 0.45217 0.88905 0.0
C208 C 0.97101 0.45157 0.88984 0.0
C209 C 0.97197 0.41456 0.86881 0.0
C210 C 0.98723 0.43239 0.87977 0.0
C211 C 0.98796 0.47333 0.89966 0.0
H212 H 0.05544 0.60852 0.88163 0.0
H213 H 0.02891 0.57616 0.90041 0.0
H214 H 0.08665 0.5291 0.85686 0.0
H215 H 0.06106 0.49665 0.87592 0.0
H216 H 0.11176 0.55291 0.93509 0.0
H217 H 0.08141 0.51978 0.91815 0.0
H218 H 0.02978 0.59578 0.95186 0.0
H219 H -0.00076 0.56197 0.93514 0.0
H220 H 0.93649 0.38648 0.93025 0.0
H221 H 0.97247 0.4153 0.91462 0.0
H222 H 0.91561 0.46741 0.95683 0.0
H223 H 0.94885 0.49664 0.94002 0.0
H224 H 0.89928 0.43624 0.87718 0.0
H225 H 0.92621 0.46729 0.89652 0.0
H226 H 0.98521 0.40017 0.86112 0.0
H227 H 0.01186 0.43169 0.88016 0.0
N228 N 0.00806 0.49171 0.89221 0.0
N229 N -0.0003 0.49929 0.92335 0.0
C230 C 0.41727 0.55695 0.12797 0.0
C231 C 0.43276 0.57469 0.11684 0.0
C232 C 0.43347 0.54068 0.13931 0.0
C233 C 0.46538 0.54215 0.13978 0.0
C234 C 0.46458 0.57702 0.11778 0.0
C235 C 0.4807 0.56079 0.12907 0.0
C236 C 0.48331 0.52183 0.15 0.0
C237 C 0.43837 0.58545 0.18405 0.0
C238 C 0.4145 0.57158 0.19228 0.0
C239 C 0.45853 0.56799 0.17524 0.0
C240 C 0.45535 0.53636 0.17471 0.0
C241 C 0.41095 0.53998 0.19153 0.0
C242 C 0.43157 0.5224 0.18297 0.0
C243 C 0.47775 0.51793 0.16613 0.0
C244 C 0.58936 0.45018 0.18672 0.0
C245 C 0.57686 0.42775 0.1965 0.0
C246 C 0.57053 0.46839 0.1775 0.0
C247 C 0.53885 0.46443 0.17782 0.0
C248 C 0.54502 0.42459 0.19717 0.0
C249 C 0.5262 0.44293 0.188 0.0
C250 C 0.51887 0.48276 0.16763 0.0
C251 C 0.57005 0.42071 0.13471 0.0
C252 C 0.58525 0.43503 0.12221 0.0
C253 C 0.55066 0.43719 0.1445 0.0
C254 C 0.54678 0.46856 0.14234 0.0
C255 C 0.5815 0.46649 0.12022 0.0
C256 C 0.56262 0.48301 0.13019 0.0
C257 C 0.5239 0.48603 0.15137 0.0
H258 H 0.39279 0.55444 0.12743 0.0
H259 H 0.42114 0.52585 0.14718 0.0
H260 H 0.47713 0.59091 0.10955 0.0
H261 H 0.5053 0.56225 0.1292 0.0
H262 H 0.44144 0.60982 0.1845 0.0
H263 H 0.47697 0.5791 0.16908 0.0
H264 H 0.39274 0.52891 0.19789 0.0
H265 H 0.42895 0.49798 0.18274 0.0
H266 H 0.61371 0.45367 0.18616 0.0
H267 H 0.58072 0.48545 0.17003 0.0
H268 H 0.53461 0.40734 0.20443 0.0
H269 H 0.50179 0.4397 0.1885 0.0
H270 H 0.57256 0.39661 0.13675 0.0
H271 H 0.53798 0.42512 0.1534 0.0
H272 H 0.59214 0.47835 0.11058 0.0
H273 H 0.55975 0.50709 0.12811 0.0
N274 N 0.50605 0.50565 0.14328 0.0
N275 N 0.49575 0.49859 0.17438 0.0
C276 C 0.43076 0.9226 0.37798 0.0
C277 C 0.41579 0.93695 0.36542 0.0
C278 C 0.44835 0.93943 0.38851 0.0
C279 C 0.45089 0.97104 0.38687 0.0
C280 C 0.41823 0.96862 0.36392 0.0
C281 C 0.43559 0.98542 0.3745 0.0
C282 C 0.47158 0.98906 0.39693 0.0
C283 C 0.40178 0.95276 0.43047 0.0
C284 C 0.41339 0.93225 0.44157 0.0
C285 C 0.4214 0.96965 0.42105 0.0
C286 C 0.453 0.96629 0.42254 0.0
C287 C 0.44502 0.92868 0.44294 0.0
C288 C 0.46468 0.94583 0.4336 0.0
C289 C 0.47383 0.98558 0.41335 0.0
C290 C 0.55108 0.09175 0.43187 0.0
C291 C 0.57201 0.07828 0.44222 0.0
C292 C 0.53179 0.07383 0.42276 0.0
C293 C 0.53302 0.04209 0.42381 0.0
C294 C 0.57267 0.04643 0.44345 0.0
C295 C 0.55315 0.02854 0.43443 0.0
C296 C 0.51292 0.02302 0.41407 0.0
C297 C 0.58156 0.06152 0.38016 0.0
C298 C 0.56897 0.08089 0.3688 0.0
C299 C 0.56269 0.04446 0.38994 0.0
C300 C 0.53093 0.0465 0.38853 0.0
C301 C 0.53718 0.08335 0.36765 0.0
C302 C 0.51835 0.06611 0.37734 0.0
C303 C 0.51077 0.02643 0.39769 0.0
H304 H 0.42922 0.89828 0.37958 0.0
H305 H 0.46065 0.92754 0.39762 0.0
H306 H 0.40757 0.98043 0.35425 0.0
H307 H 0.43748 0.00972 0.37286 0.0
H308 H 0.37748 0.9558 0.4291 0.0
H309 H 0.41189 0.98578 0.41283 0.0
H310 H 0.45454 0.91322 0.45149 0.0
H311 H 0.48903 0.94318 0.43503 0.0
H312 H 0.54945 0.11618 0.43086 0.0
H313 H 0.51581 0.08477 0.41493 0.0
H314 H 0.58875 0.03522 0.45112 0.0
H315 H 0.55428 0.00407 0.43547 0.0
H316 H 0.60598 0.05924 0.38131 0.0
H317 H 0.57293 0.02898 0.39827 0.0
H318 H 0.52684 0.09775 0.35886 0.0
H319 H 0.49391 0.06778 0.37596 0.0
N320 N 0.49013 0.00943 0.38978 0.0
N321 N 0.49451 0.0026 0.42129 0.0
C322 C 0.07298 0.94122 0.62807 0.0
C323 C 0.05865 0.92365 0.61644 0.0
C324 C 0.05571 0.95841 0.63858 0.0
C325 C 0.02379 0.9579 0.63785 0.0
C326 C 0.0267 0.92356 0.61566 0.0
C327 C 0.00951 0.94051 0.62623 0.0
C328 C 0.00492 0.9768 0.64836 0.0
C329 C 0.05565 0.91176 0.67906 0.0
C330 C 0.07348 0.92533 0.69077 0.0
C331 C 0.03446 0.92887 0.67069 0.0
C332 C 0.03141 0.96011 0.67353 0.0
C333 C 0.06976 0.95633 0.69398 0.0
C334 C 0.04895 0.97358 0.6854 0.0
C335 C 0.00904 0.97862 0.66477 0.0
C336 C 0.89871 0.04925 0.68502 0.0
C337 C 0.91177 0.06914 0.69601 0.0
C338 C 0.91711 0.03142 0.67538 0.0
C339 C 0.94892 0.03322 0.67651 0.0
C340 C 0.94366 0.07029 0.69734 0.0
C341 C 0.96202 0.05232 0.68776 0.0
C342 C 0.96861 0.01464 0.66631 0.0
C343 C 0.92764 0.08291 0.63279 0.0
C344 C 0.90927 0.07012 0.62104 0.0
C345 C 0.94467 0.06433 0.64274 0.0
C346 C 0.94362 0.03265 0.64109 0.0
C347 C 0.90745 0.03839 0.61979 0.0
C348 C 0.9247 0.01985 0.62963 0.0
C349 C 0.96475 0.01301 0.64994 0.0
H350 H 0.09752 0.94173 0.62906 0.0
H351 H 0.06733 0.97234 0.64714 0.0
H352 H 0.01487 0.91094 0.60665 0.0
H353 H 0.98494 0.94013 0.62527 0.0
H354 H 0.0576 0.88772 0.67663 0.0
H355 H 0.0203 0.91756 0.66211 0.0
H356 H 0.08316 0.96723 0.70302 0.0
H357 H 0.04668 -0.00246 0.68797 0.0
H358 H 0.87425 0.04735 0.68389 0.0
H359 H 0.90648 0.01613 0.6671 0.0
H360 H 0.95453 0.08564 0.7055 0.0
H361 H 0.98652 0.05385 0.6889 0.0
H362 H 0.9294 0.1073 0.63403 0.0
H363 H 0.95961 0.07476 0.65127 0.0
H364 H 0.89382 0.02791 0.61071 0.0
H365 H 0.92383 0.99548 0.62806 0.0
N366 N 0.98288 0.99401 0.64164 0.0
N367 N 0.99075 -0.00241 0.67308 0.0
In368 In 0.29744 0.69753 0.00131 0.0
O369 O 0.29125 0.74579 0.01089 0.0
O370 O 0.33293 0.73455 -0.00025 0.0
C371 C 0.23745 0.68708 0.99752 0.0
C372 C 0.3233 0.67039 0.02632 0.0
C373 C 0.31668 0.67373 0.97397 0.0
O374 O 0.25092 0.70848 0.99058 0.0
O375 O 0.25394 0.6721 0.00678 0.0
O376 O 0.3094 0.65762 0.98559 0.0
O377 O 0.31416 0.70195 0.97609 0.0
C378 C 0.31756 0.75429 0.00689 0.0
O379 O 0.33377 0.6681 0.01263 0.0
O380 O 0.29953 0.68625 0.02745 0.0
In381 In 0.29239 0.79387 0.25255 0.0
O382 O 0.28458 0.75116 0.23777 0.0
O383 O 0.31402 0.74814 0.25742 0.0
C384 C 0.23291 0.79884 0.26 0.0
C385 C 0.32031 0.82003 0.22779 0.0
C386 C 0.31784 0.82325 0.27706 0.0
O387 O 0.25148 0.78368 0.2681 0.0
O388 O 0.24408 0.81044 0.24779 0.0
O389 O 0.30224 0.8367 0.2668 0.0
O390 O 0.32079 0.79513 0.2749 0.0
C391 C 0.30248 0.73495 0.24575 0.0
O392 O 0.33422 0.80415 0.23776 0.0
O393 O 0.29224 0.82313 0.23037 0.0
In394 In 0.19375 0.79644 0.50263 0.0
O395 O 0.15301 0.80581 0.51839 0.0
O396 O 0.19573 0.82413 0.5252 0.0
C397 C 0.16451 0.81202 0.47598 0.0
C398 C 0.19222 0.73655 0.50937 0.0
C399 C 0.248 0.82251 0.49706 0.0
O400 O 0.15306 0.81592 0.48936 0.0
O401 O 0.19043 0.79983 0.47601 0.0
O402 O 0.24438 0.79409 0.49637 0.0
O403 O 0.22461 0.83727 0.50091 0.0
C404 C 0.16783 0.82117 0.52825 0.0
O405 O 0.20674 0.75537 0.51759 0.0
O406 O 0.17982 0.74772 0.49739 0.0
In407 In 0.19096 0.70152 0.75187 0.0
O408 O 0.1492 0.6854 0.76499 0.0
O409 O 0.18769 0.69822 0.77857 0.0
C410 C 0.1688 0.67147 0.72679 0.0
C411 C 0.24688 0.67859 0.75736 0.0
C412 C 0.18169 0.76054 0.74476 0.0
O413 O 0.16207 0.6647 0.7407 0.0
O414 O 0.18681 0.69359 0.72543 0.0
O415 O 0.20319 0.7453 0.73901 0.0
O416 O 0.16557 0.74636 0.75451 0.0
C417 C 0.16095 0.68773 0.77842 0.0
O418 O 0.23995 0.70546 0.76101 0.0
O419 O 0.226 0.66396 0.75069 0.0
In420 In 0.80223 0.20038 0.50097 0.0
O421 O 0.79246 0.24657 0.51233 0.0
O422 O 0.82812 0.24367 0.49569 0.0
C423 C 0.74494 0.18275 0.49442 0.0
C424 C 0.8232 0.1789 0.52851 0.0
C425 C 0.8307 0.17535 0.47609 0.0
O426 O 0.75477 0.20876 0.49085 0.0
O427 O 0.7637 0.16618 0.50158 0.0
O428 O 0.83439 0.16592 0.4899 0.0
O429 O 0.8126 0.19737 0.4748 0.0
C430 C 0.81368 0.26002 0.50522 0.0
O431 O 0.84055 0.18789 0.5177 0.0
O432 O 0.79516 0.1808 0.52547 0.0
In433 In 0.80116 0.30359 0.75043 0.0
O434 O 0.81667 0.34431 0.7359 0.0
O435 O 0.81474 0.3014 0.72466 0.0
C436 C 0.83293 0.32195 0.77584 0.0
C437 C 0.81128 0.24393 0.74613 0.0
C438 C 0.74298 0.32079 0.7553 0.0
O439 O 0.84366 0.3228 0.76215 0.0
O440 O 0.80634 0.31143 0.77676 0.0
O441 O 0.75335 0.29597 0.76033 0.0
O442 O 0.7616 0.33622 0.74743 0.0
C443 C 0.82075 0.32926 0.72351 0.0
O444 O 0.78859 0.25741 0.7403 0.0
O445 O 0.82825 0.26037 0.75449 0.0
In446 In 0.69645 0.30269 0.00389 0.0
O447 O 0.70371 0.25365 0.01209 0.0
O448 O 0.66227 0.26482 0.00066 0.0
C449 C 0.75564 0.31671 -7e-05 0.0
C450 C 0.67938 0.33017 0.03072 0.0
C451 C 0.66975 0.32374 0.97755 0.0
O452 O 0.74435 0.29251 0.99454 0.0
O453 O 0.73749 0.33261 0.00786 0.0
O454 O 0.65651 0.32369 0.99065 0.0
O455 O 0.69625 0.31284 0.97768 0.0
C456 C 0.6778 0.24487 0.00756 0.0
O457 O 0.68096 0.34403 0.01782 0.0
O458 O 0.68655 0.30251 0.03013 0.0
In459 In 0.70459 0.1998 0.25342 0.0
O460 O 0.69327 0.16 0.26931 0.0
O461 O 0.68204 0.20431 0.27735 0.0
C462 C 0.67923 0.17164 0.22849 0.0
C463 C 0.76421 0.19048 0.25947 0.0
C464 C 0.68705 0.25718 0.24717 0.0
O465 O 0.66927 0.16885 0.24224 0.0
O466 O 0.70223 0.18853 0.22723 0.0
O467 O 0.71193 0.2465 0.24228 0.0
O468 O 0.67169 0.23927 0.2555 0.0
C469 C 0.6819 0.17614 0.28003 0.0
O470 O 0.74892 0.21069 0.26633 0.0
O471 O 0.7498 0.17603 0.24913 0.0
H472 H 0.10241 0.86242 0.32491 0.0
H473 H 0.18941 0.83287 0.24528 0.0
H474 H 0.07391 0.90132 0.28097 0.0
H475 H 0.20666 0.7827 0.28775 0.0
H476 H 0.14307 0.85336 0.25706 0.0
H477 H 0.13671 0.82856 0.31077 0.0
C478 C 0.10317 0.86351 0.31224 0.0
C479 C 0.08566 0.88486 0.30408 0.0
C480 C 0.15668 0.83744 0.2637 0.0
C481 C 0.12508 0.84649 0.2878 0.0
C482 C 0.18312 0.8257 0.25697 0.0
C483 C 0.20211 0.80641 0.26564 0.0
C484 C 0.14943 0.83008 0.27927 0.0
C485 C 0.19282 0.79775 0.2807 0.0
C486 C 0.12267 0.84414 0.30416 0.0
C487 C 0.08713 0.88517 0.28767 0.0
N488 N 0.1674 0.81002 0.28713 0.0
N489 N 0.10694 0.86661 0.28006 0.0
H490 H 0.13866 0.59488 0.57168 0.0
H491 H 0.16027 0.69263 0.49397 0.0
H492 H 0.08791 0.58036 0.52906 0.0
H493 H 0.2085 0.70994 0.53707 0.0
H494 H 0.1406 0.6456 0.50515 0.0
H495 H 0.17085 0.63126 0.55788 0.0
C496 C 0.13457 0.59899 0.55935 0.0
C497 C 0.1103 0.58482 0.55156 0.0
C498 C 0.15586 0.65942 0.5121 0.0
C499 C 0.14686 0.62672 0.53573 0.0
C500 C 0.16721 0.68622 0.50569 0.0
C501 C 0.18569 0.70539 0.5147 0.0
C502 C 0.16287 0.65188 0.52767 0.0
C503 C 0.19409 0.69592 0.52977 0.0
C504 C 0.15288 0.61988 0.55149 0.0
C505 C 0.10594 0.59124 0.53561 0.0
N506 N 0.18224 0.67002 0.53588 0.0
N507 N 0.12385 0.6119 0.52827 0.0
H508 H 0.41971 0.63005 0.7999 0.0
H509 H 0.26315 0.61974 0.753 0.0
H510 H 0.36449 0.54912 0.79683 0.0
H511 H 0.29577 0.70401 0.77253 0.0
H512 H 0.30745 0.59388 0.7638 0.0
H513 H 0.38055 0.65771 0.78533 0.0
C514 C 0.39947 0.61803 0.79621 0.0
C515 C 0.3955 0.58709 0.7997 0.0
C516 C 0.30505 0.61808 0.76561 0.0
C517 C 0.35118 0.61852 0.78266 0.0
C518 C 0.27986 0.6329 0.7594 0.0
C519 C 0.27565 0.66401 0.76204 0.0
C520 C 0.32632 0.63448 0.77444 0.0
C521 C 0.29811 0.67994 0.77034 0.0
C522 C 0.37728 0.63384 0.78781 0.0
C523 C 0.36901 0.57271 0.79424 0.0
N524 N 0.32249 0.66493 0.77636 0.0
N525 N 0.34794 0.58853 0.78601 0.0
H526 H 0.36453 0.91783 0.05787 0.0
H527 H 0.37384 0.77579 -0.00019 0.0
H528 H 0.44789 0.87467 0.04337 0.0
H529 H 0.29215 0.79889 0.02516 0.0
H530 H 0.39905 0.81988 0.01111 0.0
H531 H 0.3358 0.88161 0.0417 0.0
C532 C 0.37673 0.90093 0.05114 0.0
C533 C 0.40852 0.89891 0.05204 0.0
C534 C 0.37552 0.81551 0.01409 0.0
C535 C 0.37609 0.85788 0.03355 0.0
C536 C 0.36106 0.79041 0.00759 0.0
C537 C 0.33098 0.78348 0.01172 0.0
C538 C 0.35983 0.83388 0.0248 0.0
C539 C 0.31545 0.80334 0.02177 0.0
C540 C 0.36038 0.88029 0.04199 0.0
C541 C 0.42335 0.87666 0.04316 0.0
N542 N 0.33017 0.82756 0.02811 0.0
N543 N 0.40701 0.85699 0.0343 0.0
H544 H 0.11005 0.5573 0.9679 0.0
H545 H 0.19874 0.71132 0.97562 0.0
H546 H 0.07791 0.63857 0.94529 0.0
H547 H 0.2063 0.63904 0.00948 0.0
H548 H 0.15285 0.68717 0.9651 0.0
H549 H 0.1445 0.58795 0.98385 0.0
C550 C 0.11015 0.58172 0.96645 0.0
C551 C 0.09144 0.59556 0.95529 0.0
C552 C 0.16423 0.67698 0.97504 0.0
C553 C 0.13093 0.63075 0.97325 0.0
C554 C 0.19037 0.69076 0.98106 0.0
C555 C 0.20657 0.67689 0.99328 0.0
C556 C 0.15463 0.649 0.98118 0.0
C557 C 0.19472 0.65032 -8e-05 0.0
C558 C 0.12965 0.59923 0.97557 0.0
C559 C 0.09214 0.62722 0.95382 0.0
N560 N 0.16978 0.63695 0.99361 0.0
N561 N 0.11201 0.64381 0.96254 0.0
H562 H 0.35301 0.57912 0.18942 0.0
H563 H 0.34598 0.69967 0.25927 0.0
H564 H 0.43027 0.60644 0.21711 0.0
H565 H 0.28341 0.70191 0.22032 0.0
H566 H 0.36999 0.6548 0.248 0.0
H567 H 0.32086 0.61436 0.20453 0.0
C568 C 0.36299 0.59225 0.19884 0.0
C569 C 0.39419 0.59024 0.20204 0.0
C570 C 0.35073 0.66487 0.24204 0.0
C571 C 0.35792 0.62986 0.21933 0.0
C572 C 0.3369 0.69038 0.24849 0.0
C573 C 0.31294 0.70476 0.24059 0.0
C574 C 0.34043 0.65353 0.22764 0.0
C575 C 0.30202 0.69163 0.2267 0.0
C576 C 0.34478 0.6123 0.20738 0.0
C577 C 0.40629 0.60764 0.21426 0.0
N578 N 0.31607 0.66685 0.22056 0.0
N579 N 0.38813 0.62676 0.22247 0.0
H580 H 0.41422 0.87167 0.44898 0.0
H581 H 0.26084 0.8827 0.49905 0.0
H582 H 0.36497 0.95454 0.45778 0.0
H583 H 0.29911 0.79755 0.4838 0.0
H584 H 0.30419 0.90918 0.48774 0.0
H585 H 0.37719 0.84408 0.46512 0.0
C586 C 0.39577 0.88406 0.45443 0.0
C587 C 0.39238 0.91534 0.45192 0.0
C588 C 0.30329 0.88468 0.48696 0.0
C589 C 0.3502 0.88411 0.47034 0.0
C590 C 0.27858 0.86953 0.49346 0.0
C591 C 0.27624 0.83791 0.4922 0.0
C592 C 0.32585 0.86816 0.47905 0.0
C593 C 0.3 0.82198 0.48495 0.0
C594 C 0.37464 0.86833 0.46357 0.0
C595 C 0.36808 0.93033 0.45919 0.0
N596 N 0.32374 0.83733 0.47848 0.0
N597 N 0.3479 0.91458 0.46802 0.0
H598 H 0.07883 0.92144 0.72259 0.0
H599 H 0.20332 0.78946 0.71879 0.0
H600 H 0.11699 0.88693 0.67962 0.0
H601 H 0.14025 0.80002 0.75711 0.0
H602 H 0.18206 0.83498 0.70656 0.0
H603 H 0.11125 0.88631 0.73739 0.0
C604 C 0.09441 0.9068 0.71631 0.0
C605 C 0.09511 0.90675 0.69989 0.0
C606 C 0.17323 0.82756 0.71777 0.0
C607 C 0.13214 0.86688 0.71665 0.0
C608 C 0.18545 0.80173 0.72479 0.0
C609 C 0.17322 0.79081 0.73887 0.0
C610 C 0.14886 0.84266 0.72496 0.0
C611 C 0.15008 0.80755 0.74616 0.0
C612 C 0.11275 0.88675 0.72473 0.0
C613 C 0.11554 0.8873 0.69228 0.0
N614 N 0.13844 0.83256 0.73905 0.0
N615 N 0.13319 0.86804 0.70072 0.0
H616 H 0.61979 0.45008 0.79196 0.0
H617 H 0.69945 0.29353 0.77348 0.0
H618 H 0.57976 0.36494 0.80579 0.0
H619 H 0.71902 0.37603 0.74822 0.0
H620 H 0.65451 0.31796 0.78485 0.0
H621 H 0.656 0.42268 0.77555 0.0
C622 C 0.61864 0.42555 0.79146 0.0
C623 C 0.59708 0.40964 0.80029 0.0
C624 C 0.66837 0.3305 0.77661 0.0
C625 C 0.63842 0.37808 0.78164 0.0
C626 C 0.69398 0.31658 0.77012 0.0
C627 C 0.71314 0.33293 0.76006 0.0
C628 C 0.66225 0.36104 0.77314 0.0
C629 C 0.70501 0.36268 0.75604 0.0
C630 C 0.63914 0.40992 0.78203 0.0
C631 C 0.59617 0.37793 0.79913 0.0
N632 N 0.68043 0.37592 0.76278 0.0
N633 N 0.61689 0.36307 0.79012 0.0
H634 H 0.63219 0.07364 0.05253 0.0
H635 H 0.62036 0.22491 0.00187 0.0
H636 H 0.55122 0.12892 0.04916 0.0
H637 H 0.70462 0.19818 0.02386 0.0
H638 H 0.59553 0.18077 0.01339 0.0
H639 H 0.6597 0.11171 0.03716 0.0
C640 C 0.62011 0.09364 0.04863 0.0
C641 C 0.58916 0.09788 0.05224 0.0
C642 C 0.61954 0.18438 0.01554 0.0
C643 C 0.62039 0.14084 0.0342 0.0
C644 C 0.6338 0.20945 0.0089 0.0
C645 C 0.66452 0.2154 0.01208 0.0
C646 C 0.63614 0.16494 0.02533 0.0
C647 C 0.68082 0.19449 0.02122 0.0
C648 C 0.63584 0.11519 0.03975 0.0
C649 C 0.57476 0.12408 0.04647 0.0
N650 N 0.66635 0.1702 0.02765 0.0
N651 N 0.59045 0.14443 0.03773 0.0
H652 H 0.9185 0.07749 0.27884 0.0
H653 H 0.79636 0.21133 0.28472 0.0
H654 H 0.90572 0.133 0.31996 0.0
H655 H 0.80143 0.14807 0.24626 0.0
H656 H 0.84274 0.18915 0.29568 0.0
H657 H 0.88163 0.10886 0.26487 0.0
C658 C 0.90803 0.09635 0.28492 0.0
C659 C 0.91493 0.10235 0.30067 0.0
C660 C 0.83393 0.1804 0.28473 0.0
C661 C 0.87285 0.13855 0.28469 0.0
C662 C 0.80756 0.19316 0.27843 0.0
C663 C 0.79488 0.18128 0.26466 0.0
C664 C 0.84767 0.1556 0.27719 0.0
C665 C 0.81031 0.15773 0.25698 0.0
C666 C 0.88709 0.11436 0.2769 0.0
C667 C 0.90119 0.12756 0.30782 0.0
N668 N 0.83571 0.14546 0.26344 0.0
N669 N 0.88059 0.14454 0.29982 0.0
H670 H 0.86045 0.4212 0.55762 0.0
H671 H 0.86018 0.29175 0.49205 0.0
H672 H 0.93986 0.39046 0.53269 0.0
H673 H 0.79098 0.2983 0.52772 0.0
H674 H 0.88331 0.33818 0.50203 0.0
H675 H 0.82913 0.38577 0.54218 0.0
C676 C 0.87109 0.40736 0.54869 0.0
C677 C 0.90264 0.40837 0.54642 0.0
C678 C 0.86281 0.3297 0.50754 0.0
C679 C 0.86735 0.36837 0.52881 0.0
C680 C 0.84952 0.30327 0.50181 0.0
C681 C 0.82392 0.29092 0.50925 0.0
C682 C 0.85043 0.34391 0.52078 0.0
C683 C 0.81091 0.30694 0.52177 0.0
C684 C 0.85334 0.38717 0.53996 0.0
C685 C 0.91559 0.39004 0.53482 0.0
N686 N 0.82456 0.33249 0.52729 0.0
N687 N 0.8979 0.3707 0.52647 0.0
H688 H 0.60121 0.1303 0.43286 0.0
H689 H 0.71577 0.13178 0.5044 0.0
H690 H 0.59255 0.06961 0.47233 0.0
H691 H 0.70676 0.20708 0.47246 0.0
H692 H 0.66999 0.10912 0.49318 0.0
H693 H 0.63909 0.15931 0.44736 0.0
C694 C 0.6069 0.12326 0.44465 0.0
C695 C 0.59371 0.09726 0.45131 0.0
C696 C 0.67776 0.1308 0.48876 0.0
C697 C 0.63767 0.13015 0.46786 0.0
C698 C 0.70389 0.14372 0.49515 0.0
C699 C 0.71512 0.17121 0.48926 0.0
C700 C 0.66304 0.14523 0.47621 0.0
C701 C 0.69884 0.18581 0.47732 0.0
C702 C 0.62867 0.13982 0.4529 0.0
C703 C 0.60252 0.08906 0.46656 0.0
N704 N 0.67382 0.17242 0.47101 0.0
N705 N 0.62415 0.10527 0.47425 0.0
H706 H 0.91934 0.08596 0.72677 0.0
H707 H 0.78478 0.20776 0.72401 0.0
H708 H 0.85995 0.09915 0.68705 0.0
H709 H 0.85761 0.20955 0.75789 0.0
H710 H 0.80498 0.16014 0.71361 0.0
H711 H 0.89024 0.12395 0.74125 0.0
C712 C 0.90013 0.09672 0.7211 0.0
C713 C 0.89239 0.08961 0.70557 0.0
C714 C 0.81628 0.17076 0.72346 0.0
C715 C 0.85872 0.13276 0.72218 0.0
C716 C 0.80468 0.19783 0.72945 0.0
C717 C 0.81981 0.21277 0.74168 0.0
C718 C 0.8431 0.15856 0.7298 0.0
C719 C 0.84546 0.1989 0.74833 0.0
C720 C 0.88343 0.11826 0.72941 0.0
C721 C 0.86673 0.10373 0.699 0.0
N722 N 0.8565 0.1727 0.7422 0.0
N723 N 0.85099 0.1248 0.70729 0.0
H724 H 0.86908 0.44493 0.95758 0.0
H725 H 0.79887 0.28928 0.98142 0.0
H726 H 0.92456 0.36423 0.95394 0.0
H727 H 0.78004 0.37159 0.00703 0.0
H728 H 0.8432 0.31426 0.96948 0.0
H729 H 0.83319 0.41693 0.97356 0.0
C730 C 0.8741 0.42147 0.96027 0.0
C731 C 0.90034 0.40719 0.95445 0.0
C732 C 0.8296 0.32652 0.97795 0.0
C733 C 0.85829 0.37462 0.9724 0.0
C734 C 0.80441 0.31232 0.98478 0.0
C735 C 0.7856 0.32852 0.9951 0.0
C736 C 0.83542 0.35715 0.98128 0.0
C737 C 0.79375 0.35832 0.99903 0.0
C738 C 0.85338 0.40545 0.96936 0.0
C739 C 0.90457 0.37624 0.95794 0.0
N740 N 0.81771 0.37186 0.9919 0.0
N741 N 0.8836 0.36087 0.96658 0.0
H742 H 0.63086 0.40226 0.1872 0.0
H743 H 0.63745 0.28688 0.2586 0.0
H744 H 0.56856 0.40541 0.22626 0.0
H745 H 0.70894 0.29467 0.22424 0.0
H746 H 0.6136 0.33232 0.24783 0.0
H747 H 0.66145 0.36509 0.20132 0.0
C748 C 0.62381 0.39551 0.19884 0.0
C749 C 0.5969 0.40688 0.20549 0.0
C750 C 0.63471 0.32436 0.24275 0.0
C751 C 0.63163 0.3638 0.22161 0.0
C752 C 0.64834 0.29842 0.24891 0.0
C753 C 0.67506 0.28691 0.24221 0.0
C754 C 0.64768 0.33867 0.22967 0.0
C755 C 0.68828 0.30278 0.22971 0.0
C756 C 0.64125 0.37414 0.20687 0.0
C757 C 0.58875 0.39684 0.22052 0.0
N758 N 0.67423 0.32766 0.2237 0.0
N759 N 0.60589 0.37569 0.22801 0.0
H760 H 0.03834 0.88091 0.40663 0.0
H761 H 0.19028 0.82008 0.44722 0.0
H762 H 0.12803 0.90808 0.39178 0.0
H763 H 0.1051 0.82843 0.47192 0.0
H764 H 0.16625 0.84195 0.42391 0.0
H765 H 0.06131 0.85097 0.42779 0.0
C766 C 0.06288 0.88015 0.4077 0.0
C767 C 0.08139 0.897 0.39755 0.0
C768 C 0.15282 0.83875 0.43441 0.0
C769 C 0.10766 0.86295 0.42155 0.0
C770 C 0.16643 0.82619 0.44767 0.0
C771 C 0.14965 0.82267 0.46151 0.0
C772 C 0.12212 0.84738 0.43496 0.0
C773 C 0.11886 0.83099 0.4615 0.0
C774 C 0.07592 0.86328 0.4198 0.0
C775 C 0.11303 0.89554 0.39948 0.0
N776 N 0.10604 0.84299 0.4484 0.0
N777 N 0.12521 0.8788 0.41127 0.0
H778 H 0.11816 0.60754 0.63416 0.0
H779 H 0.13218 0.62174 0.72739 0.0
H780 H 0.07927 0.54406 0.66702 0.0
H781 H 0.17782 0.68254 0.69551 0.0
H782 H 0.11218 0.59358 0.70511 0.0
H783 H 0.13987 0.63599 0.65618 0.0
C784 C 0.11424 0.59957 0.64599 0.0
C785 C 0.09702 0.57329 0.64875 0.0
C786 C 0.12659 0.61305 0.70294 0.0
C787 C 0.12171 0.60563 0.67393 0.0
C788 C 0.13799 0.62917 0.71567 0.0
C789 C 0.15667 0.6545 0.71328 0.0
C790 C 0.13382 0.62233 0.68765 0.0
C791 C 0.16348 0.6631 0.69784 0.0
C792 C 0.12671 0.61573 0.65853 0.0
C793 C 0.09282 0.56387 0.6643 0.0
N794 N 0.152 0.64705 0.68558 0.0
N795 N 0.10499 0.58005 0.67627 0.0
H796 H 0.37521 0.55059 0.90131 0.0
H797 H 0.34357 0.70316 0.94941 0.0
H798 H 0.42387 0.63408 0.89315 0.0
H799 H 0.31652 0.61421 0.96524 0.0
H800 H 0.36589 0.68008 0.92597 0.0
H801 H 0.34593 0.57575 0.9219 0.0
C802 C 0.3794 0.57435 0.9037 0.0
C803 C 0.40208 0.59026 0.89558 0.0
C804 C 0.35491 0.66567 0.93454 0.0
C805 C 0.3689 0.61908 0.91919 0.0
C806 C 0.34212 0.67881 0.94788 0.0
C807 C 0.32841 0.66051 0.95931 0.0
C808 C 0.35368 0.63407 0.93258 0.0
C809 C 0.3271 0.62911 0.95676 0.0
C810 C 0.36286 0.58862 0.91553 0.0
C811 C 0.40682 0.62092 0.89928 0.0
N812 N 0.33963 0.61687 0.94367 0.0
N813 N 0.39042 0.63434 0.91085 0.0
H814 H 0.37541 0.93511 0.15088 0.0
H815 H 0.37795 0.80892 0.21757 0.0
H816 H 0.44328 0.86444 0.15333 0.0
H817 H 0.29779 0.86144 0.20686 0.0
H818 H 0.40342 0.83121 0.1949 0.0
H819 H 0.34723 0.91004 0.17184 0.0
C820 C 0.38423 0.91412 0.15564 0.0
C821 C 0.41194 0.902 0.15033 0.0
C822 C 0.38021 0.83778 0.19746 0.0
C823 C 0.38004 0.87361 0.17463 0.0
C824 C 0.36572 0.82518 0.21044 0.0
C825 C 0.33575 0.83343 0.2141 0.0
C826 C 0.36477 0.85906 0.18816 0.0
C827 C 0.32092 0.85449 0.20443 0.0
C828 C 0.36819 0.89994 0.1677 0.0
C829 C 0.42239 0.87501 0.15722 0.0
N830 N 0.33566 0.86675 0.19194 0.0
N831 N 0.40657 0.86188 0.16908 0.0
H832 H 0.06243 0.56529 0.83665 0.0
H833 H 0.18043 0.6903 0.80896 0.0
H834 H 0.11 0.62131 0.87004 0.0
H835 H 0.10721 0.65731 0.77991 0.0
H836 H 0.15753 0.66431 0.83151 0.0
H837 H 0.08185 0.59695 0.81546 0.0
C838 C 0.07713 0.58423 0.83948 0.0
C839 C 0.08487 0.59061 0.85506 0.0
C840 C 0.14635 0.66314 0.82023 0.0
C841 C 0.1071 0.62705 0.83089 0.0
C842 C 0.15936 0.67794 0.80738 0.0
C843 C 0.14577 0.67579 0.79255 0.0
C844 C 0.1199 0.64576 0.8181 0.0
C845 C 0.11852 0.65949 0.79112 0.0
C846 C 0.08799 0.60245 0.82741 0.0
C847 C 0.10358 0.61571 0.85814 0.0
N848 N 0.1067 0.64482 0.80368 0.0
N849 N 0.11436 0.63293 0.84612 0.0
H850 H 0.44956 0.57602 0.08611 0.0
H851 H 0.30532 0.6715 0.05706 0.0
H852 H 0.37813 0.60528 0.1173 0.0
H853 H 0.37519 0.63666 0.02649 0.0
H854 H 0.33135 0.64811 0.07941 0.0
H855 H 0.42258 0.59914 0.06429 0.0
C856 C 0.42829 0.58758 0.0884 0.0
C857 C 0.41624 0.58897 0.1036 0.0
C858 C 0.34092 0.64555 0.0678 0.0
C859 C 0.38484 0.6152 0.07852 0.0
C860 C 0.32609 0.65888 0.05506 0.0
C861 C 0.33816 0.65601 0.03992 0.0
C862 C 0.36801 0.62934 0.06535 0.0
C863 C 0.3651 0.63945 0.03796 0.0
C864 C 0.41275 0.6006 0.07589 0.0
C865 C 0.38818 0.6036 0.10576 0.0
N866 N 0.37912 0.62681 0.05052 0.0
N867 N 0.37345 0.61625 0.09336 0.0
H868 H 0.36279 0.95175 0.35009 0.0
H869 H 0.35811 0.8006 0.29843 0.0
H870 H 0.43063 0.88116 0.35326 0.0
H871 H 0.30826 0.88171 0.28656 0.0
H872 H 0.38053 0.82722 0.32078 0.0
H873 H 0.33806 0.92369 0.32896 0.0
C874 C 0.37253 0.93038 0.34637 0.0
C875 C 0.39903 0.91898 0.35345 0.0
C876 C 0.36469 0.83918 0.31328 0.0
C877 C 0.37048 0.88652 0.32938 0.0
C878 C 0.35186 0.82401 0.30055 0.0
C879 C 0.33142 0.83904 0.29061 0.0
C880 C 0.35676 0.86952 0.31618 0.0
C881 C 0.32406 0.86934 0.29389 0.0
C882 C 0.35831 0.91434 0.33433 0.0
C883 C 0.4101 0.89076 0.34833 0.0
N884 N 0.33669 0.88358 0.30643 0.0
N885 N 0.39582 0.87556 0.3366 0.0
H886 H 0.04618 0.86763 0.60394 0.0
H887 H 0.19204 0.86325 0.54821 0.0
H888 H 0.11242 0.93992 0.60226 0.0
H889 H 0.1111 0.81026 0.53991 0.0
H890 H 0.1671 0.88678 0.57081 0.0
H891 H 0.07384 0.84144 0.58319 0.0
C892 C 0.06651 0.87805 0.59922 0.0
C893 C 0.07673 0.90627 0.60477 0.0
C894 C 0.15487 0.86995 0.56405 0.0
C895 C 0.1088 0.87602 0.58117 0.0
C896 C 0.16908 0.85648 0.55119 0.0
C897 C 0.15351 0.83491 0.54216 0.0
C898 C 0.12505 0.86147 0.56799 0.0
C899 C 0.12383 0.82694 0.54652 0.0
C900 C 0.08234 0.86299 0.58741 0.0
C901 C 0.10375 0.91815 0.59847 0.0
N902 N 0.11056 0.84019 0.55915 0.0
N903 N 0.11879 0.90302 0.58697 0.0
H904 H 0.54543 0.38691 0.90607 0.0
H905 H 0.69809 0.34078 0.95051 0.0
H906 H 0.63188 0.42838 0.89557 0.0
H907 H 0.6097 0.33577 0.97229 0.0
H908 H 0.67464 0.36424 0.92743 0.0
H909 H 0.56942 0.35891 0.92759 0.0
C910 C 0.56956 0.38978 0.90819 0.0
C911 C 0.58677 0.40994 0.8991 0.0
C912 C 0.66043 0.35787 0.93726 0.0
C913 C 0.61422 0.3781 0.92356 0.0
C914 C 0.67373 0.3444 0.95037 0.0
C915 C 0.65576 0.33648 0.96331 0.0
C916 C 0.62893 0.36289 0.937 0.0
C917 C 0.62434 0.34172 0.96257 0.0
C918 C 0.58314 0.37401 0.92051 0.0
C919 C 0.61786 0.41316 0.90241 0.0
N920 N 0.61187 0.35452 0.9496 0.0
N921 N 0.63066 0.39731 0.91437 0.0
H922 H 0.57608 0.04905 0.17073 0.0
H923 H 0.69158 0.17917 0.19724 0.0
H924 H 0.61456 0.11291 0.13798 0.0
H925 H 0.63423 0.12925 0.22913 0.0
H926 H 0.667 0.15315 0.17519 0.0
H927 H 0.6008 0.07601 0.19214 0.0
C928 C 0.58993 0.0687 0.16805 0.0
C929 C 0.59349 0.07865 0.15256 0.0
C930 C 0.6598 0.14799 0.18702 0.0
C931 C 0.62173 0.10984 0.17707 0.0
C932 C 0.67386 0.16272 0.19959 0.0
C933 C 0.66492 0.15629 0.21501 0.0
C934 C 0.63692 0.1265 0.18996 0.0
C935 C 0.64181 0.13489 0.21742 0.0
C936 C 0.60387 0.08421 0.18029 0.0
C937 C 0.61121 0.10458 0.14978 0.0
N938 N 0.62871 0.1207 0.20504 0.0
N939 N 0.62486 0.11923 0.16193 0.0
H940 H 0.95562 0.07628 0.41754 0.0
H941 H 0.8232 0.18864 0.445 0.0
H942 H 0.89437 0.11975 0.38504 0.0
H943 H 0.87456 0.13163 0.47644 0.0
H944 H 0.85062 0.16633 0.42282 0.0
H945 H 0.92814 0.09946 0.43921 0.0
C946 C 0.93654 0.09099 0.41496 0.0
C947 C 0.92742 0.09629 0.39944 0.0
C948 C 0.85582 0.15869 0.43457 0.0
C949 C 0.89548 0.12263 0.42429 0.0
C950 C 0.84023 0.17142 0.44722 0.0
C951 C 0.84666 0.16194 0.46256 0.0
C952 C 0.87812 0.13651 0.43732 0.0
C953 C 0.86888 0.13956 0.4648 0.0
C954 C 0.92068 0.10402 0.42735 0.0
C955 C 0.90208 0.115 0.39683 0.0
N956 N 0.88386 0.12769 0.45233 0.0
N957 N 0.88702 0.1276 0.40914 0.0
H958 H 0.92412 0.36057 0.63947 0.0
H959 H 0.82733 0.38945 0.71662 0.0
H960 H 0.88453 0.44746 0.65054 0.0
H961 H 0.8415 0.30002 0.69743 0.0
H962 H 0.84966 0.41139 0.69293 0.0
H963 H 0.89533 0.33784 0.66104 0.0
C964 C 0.90916 0.37477 0.64638 0.0
C965 C 0.90669 0.4059 0.64326 0.0
C966 C 0.84765 0.38698 0.69386 0.0
C967 C 0.87403 0.38024 0.66801 0.0
C968 C 0.83502 0.37446 0.70739 0.0
C969 C 0.83269 0.3429 0.70899 0.0
C970 C 0.85843 0.36776 0.68197 0.0
C971 C 0.8429 0.32449 0.69666 0.0
C972 C 0.89268 0.36181 0.65864 0.0
C973 C 0.88687 0.42331 0.65249 0.0
N974 N 0.8556 0.33719 0.68372 0.0
N975 N 0.87156 0.41031 0.66457 0.0
H976 H 0.56508 0.13993 0.35894 0.0
H977 H 0.68486 0.11736 0.2899 0.0
H978 H 0.61743 0.05808 0.35262 0.0
H979 H 0.64829 0.2048 0.30255 0.0
H980 H 0.66017 0.09522 0.31284 0.0
H981 H 0.59513 0.16432 0.33835 0.0
C982 C 0.58303 0.12718 0.35327 0.0
C983 C 0.58873 0.09693 0.35744 0.0
C984 C 0.65772 0.11929 0.31067 0.0
C985 C 0.62305 0.12456 0.33387 0.0
C986 C 0.67174 0.13192 0.29756 0.0
C987 C 0.66847 0.16291 0.2943 0.0
C988 C 0.64001 0.13774 0.32051 0.0
C989 C 0.65132 0.18078 0.30464 0.0
C990 C 0.60024 0.14112 0.34158 0.0
C991 C 0.61244 0.08152 0.34985 0.0
N992 N 0.6375 0.16787 0.31722 0.0
N993 N 0.62853 0.09541 0.33833 0.0
H994 H 0.85104 0.06584 0.60968 0.0
H995 H 0.88146 0.1805 0.53946 0.0
H996 H 0.93345 0.11825 0.60525 0.0
H997 H 0.79163 0.14829 0.55116 0.0
H998 H 0.90109 0.15706 0.56334 0.0
H999 H 0.82869 0.09507 0.58815 0.0
C1000 C 0.86431 0.08367 0.60425 0.0
C1001 C 0.89414 0.08962 0.60923 0.0
C1002 C 0.87703 0.1553 0.56076 0.0
C1003 C 0.86891 0.12289 0.58456 0.0
C1004 C 0.86585 0.16859 0.54711 0.0
C1005 C 0.83491 0.1662 0.54332 0.0
C1006 C 0.85722 0.13914 0.5706 0.0
C1007 C 0.81566 0.15063 0.55366 0.0
C1008 C 0.85154 0.10039 0.59202 0.0
C1009 C 0.91029 0.1131 0.60188 0.0
N1010 N 0.82718 0.13742 0.56678 0.0
N1011 N 0.89759 0.12865 0.58981 0.0
H1012 H 0.88536 0.38553 0.86813 0.0
H1013 H 0.89013 0.34589 0.77655 0.0
H1014 H 0.9589 0.41009 0.83713 0.0
H1015 H 0.81389 0.32429 0.80634 0.0
H1016 H 0.91675 0.36698 0.79915 0.0
H1017 H 0.85957 0.36088 0.8461 0.0
C1018 C 0.89609 0.38573 0.85672 0.0
C1019 C 0.92442 0.39981 0.85452 0.0
C1020 C 0.89424 0.35756 0.80078 0.0
C1021 C 0.89514 0.37154 0.8293 0.0
C1022 C 0.87905 0.34547 0.78788 0.0
C1023 C 0.84975 0.33341 0.78958 0.0
C1024 C 0.88002 0.35765 0.81552 0.0
C1025 C 0.83647 0.33342 0.80453 0.0
C1026 C 0.88143 0.37155 0.84417 0.0
C1027 C 0.93738 0.39909 0.83949 0.0
N1028 N 0.85167 0.34546 0.81693 0.0
N1029 N 0.92263 0.38528 0.82749 0.0
H1030 H 0.5745 0.37697 0.11162 0.0
H1031 H 0.67854 0.39069 0.03728 0.0
H1032 H 0.63668 0.45215 0.10596 0.0
H1033 H 0.65682 0.30329 0.05706 0.0
H1034 H 0.65922 0.41502 0.0611 0.0
H1035 H 0.60096 0.35019 0.0907 0.0
C1036 C 0.59397 0.38775 0.10623 0.0
C1037 C 0.60309 0.41714 0.11059 0.0
C1038 C 0.65896 0.39051 0.06025 0.0
C1039 C 0.63277 0.38678 0.0862 0.0
C1040 C 0.66979 0.37666 0.04667 0.0
C1041 C 0.66916 0.345 0.04525 0.0
C1042 C 0.64678 0.37257 0.0723 0.0
C1043 C 0.65773 0.3278 0.05775 0.0
C1044 C 0.60893 0.37244 0.09418 0.0
C1045 C 0.6282 0.42994 0.1028 0.0
N1046 N 0.64658 0.34184 0.0707 0.0
N1047 N 0.64186 0.41488 0.09084 0.0
loop_
_geom_bond_atom_site_label_1
_geom_bond_atom_site_label_2
_geom_bond_distance
_geom_bond_site_symmetry_2
_ccdc_geom_bond_type
C0 C1 1.384 . S
C0 C2 1.384 . S
C0 H28 0.931 . S
C1 C0 1.384 . S
C1 C4 1.382 . S
C2 C0 1.384 . S
C2 C3 1.381 . S
C2 H29 0.930 . S
C3 C2 1.381 . S
C3 C5 1.381 . S
C3 C6 1.487 . S
C4 C1 1.382 . S
C4 C5 1.387 . S
C4 H30 0.930 . S
C5 C3 1.381 . S
C5 C4 1.387 . S
C5 H31 0.931 1_565 S
C6 C3 1.487 . S
C6 C13 1.399 . S
C6 N44 1.343 1_565 S
C7 C8 1.384 . S
C7 C9 1.384 . S
C7 H32 0.931 . S
C8 C7 1.384 . S
C8 C11 1.382 . S
C9 C7 1.384 . S
C9 C10 1.381 . S
C9 H33 0.930 . S
C10 C9 1.381 . S
C10 C12 1.381 . S
C10 C13 1.487 . S
C11 C8 1.382 . S
C11 C12 1.387 . S
C11 H34 0.930 . S
C12 C10 1.381 . S
C12 C11 1.387 . S
C12 H35 0.931 . S
C13 C6 1.399 . S
C13 C10 1.487 . S
C13 N45 1.331 1_455 S
C14 C15 1.384 . S
C14 C16 1.384 . S
C14 H36 0.931 . S
C15 C14 1.384 . S
C15 C18 1.382 . S
C16 C14 1.384 . S
C16 C17 1.381 . S
C16 H37 0.930 . S
C17 C16 1.381 . S
C17 C19 1.381 . S
C17 C20 1.487 . S
C18 C15 1.382 . S
C18 C19 1.387 . S
C18 H38 0.930 . S
C19 C17 1.381 . S
C19 C18 1.387 . S
C19 H39 0.931 1_545 S
C20 C17 1.487 . S
C20 C27 1.399 . S
C20 N45 1.353 1_545 S
C21 C22 1.384 . S
C21 C23 1.384 . S
C21 H40 0.931 . S
C22 C21 1.384 . S
C22 C25 1.382 . S
C23 C21 1.384 . S
C23 C24 1.381 . S
C23 H41 0.930 . S
C24 C23 1.381 . S
C24 C26 1.381 . S
C24 C27 1.487 . S
C25 C22 1.382 . S
C25 C26 1.387 . S
C25 H42 0.930 . S
C26 C24 1.381 . S
C26 C25 1.387 . S
C26 H43 0.931 . S
C27 C20 1.399 . S
C27 C24 1.487 . S
C27 N44 1.343 1_655 S
H28 C0 0.931 . S
H29 C2 0.930 . S
H30 C4 0.930 . S
H31 C5 0.931 1_545 S
H32 C7 0.931 . S
H33 C9 0.930 . S
H34 C11 0.930 . S
H35 C12 0.931 . S
H36 C14 0.931 . S
H37 C16 0.930 . S
H38 C18 0.930 . S
H39 C19 0.931 1_565 S
H40 C21 0.931 . S
H41 C23 0.930 . S
H42 C25 0.930 . S
H43 C26 0.931 . S
N44 C6 1.343 1_545 S
N44 C27 1.343 1_455 S
N45 C13 1.331 1_655 S
N45 C20 1.353 1_565 S
C46 C47 1.384 . S
C46 C48 1.384 . S
C46 H74 0.931 . S
C47 C46 1.384 . S
C47 C50 1.382 . S
C48 C46 1.384 . S
C48 C49 1.381 . S
C48 H75 0.930 . S
C49 C48 1.381 . S
C49 C51 1.381 . S
C49 C52 1.487 . S
C50 C47 1.382 . S
C50 C51 1.387 . S
C50 H76 0.930 . S
C51 C49 1.381 . S
C51 C50 1.387 . S
C51 H77 0.931 1_655 S
C52 C49 1.487 . S
C52 C59 1.399 . S
C52 N90 1.343 1_655 S
C53 C54 1.384 . S
C53 C55 1.384 . S
C53 H78 0.931 . S
C54 C53 1.384 . S
C54 C57 1.382 . S
C55 C53 1.384 . S
C55 C56 1.381 . S
C55 H79 0.930 . S
C56 C55 1.381 . S
C56 C58 1.381 . S
C56 C59 1.487 . S
C57 C54 1.382 . S
C57 C58 1.387 . S
C57 H80 0.930 . S
C58 C56 1.381 . S
C58 C57 1.387 . S
C58 H81 0.931 . S
C59 C52 1.399 . S
C59 C56 1.487 . S
C59 N91 1.343 . S
C60 C61 1.384 . S
C60 C62 1.384 . S
C60 H82 0.931 . S
C61 C60 1.384 . S
C61 C64 1.382 . S
C62 C60 1.384 . S
C62 C63 1.381 . S
C62 H83 0.930 . S
C63 C62 1.381 . S
C63 C65 1.381 . S
C63 C66 1.487 . S
C64 C61 1.382 . S
C64 C65 1.387 . S
C64 H84 0.930 . S
C65 C63 1.381 . S
C65 C64 1.387 . S
C65 H85 0.931 1_455 S
C66 C63 1.487 . S
C66 C73 1.399 . S
C66 N91 1.343 1_455 S
C67 C68 1.384 . S
C67 C69 1.384 . S
C67 H86 0.931 . S
C68 C67 1.384 . S
C68 C71 1.382 . S
C69 C67 1.384 . S
C69 C70 1.381 . S
C69 H87 0.930 . S
C70 C69 1.381 . S
C70 C72 1.381 . S
C70 C73 1.487 . S
C71 C68 1.382 . S
C71 C72 1.387 . S
C71 H88 0.930 . S
C72 C70 1.381 . S
C72 C71 1.387 . S
C72 H89 0.931 . S
C73 C66 1.399 . S
C73 C70 1.487 . S
C73 N90 1.343 . S
H74 C46 0.931 . S
H75 C48 0.930 . S
H76 C50 0.930 . S
H77 C51 0.931 1_455 S
H78 C53 0.931 . S
H79 C55 0.930 . S
H80 C57 0.930 . S
H81 C58 0.931 . S
H82 C60 0.931 . S
H83 C62 0.930 . S
H84 C64 0.930 . S
H85 C65 0.931 1_655 S
H86 C67 0.931 . S
H87 C69 0.930 . S
H88 C71 0.930 . S
H89 C72 0.931 . S
N90 C52 1.343 1_455 S
N90 C73 1.343 . S
N91 C59 1.343 . S
N91 C66 1.343 1_655 S
C92 C93 1.384 . S
C92 C94 1.384 . S
C92 H120 0.931 . S
C93 C92 1.384 . S
C93 C96 1.382 . S
C94 C92 1.384 . S
C94 C95 1.381 . S
C94 H121 0.930 . S
C95 C94 1.381 . S
C95 C97 1.381 . S
C95 C98 1.487 . S
C96 C93 1.382 . S
C96 C97 1.387 . S
C96 H122 0.930 . S
C97 C95 1.381 . S
C97 C96 1.387 . S
C97 H123 0.931 . S
C98 C95 1.487 . S
C98 C105 1.399 . S
C98 N136 1.343 . S
C99 C100 1.384 . S
C99 C101 1.384 . S
C99 H124 0.931 . S
C100 C99 1.384 . S
C100 C103 1.382 . S
C101 C99 1.384 . S
C101 C102 1.381 . S
C101 H125 0.930 . S
C102 C101 1.381 . S
C102 C104 1.381 . S
C102 C105 1.487 . S
C103 C100 1.382 . S
C103 C104 1.387 . S
C103 H126 0.930 . S
C104 C102 1.381 . S
C104 C103 1.387 . S
C104 H127 0.931 . S
C105 C98 1.399 . S
C105 C102 1.487 . S
C105 N137 1.343 . S
C106 C107 1.384 . S
C106 C108 1.384 . S
C106 H128 0.931 . S
C107 C106 1.384 . S
C107 C110 1.382 . S
C108 C106 1.384 . S
C108 C109 1.381 . S
C108 H129 0.930 . S
C109 C108 1.381 . S
C109 C111 1.381 . S
C109 C112 1.487 . S
C110 C107 1.382 . S
C110 C111 1.387 . S
C110 H130 0.930 . S
C111 C109 1.381 . S
C111 C110 1.387 . S
C111 H131 0.931 . S
C112 C109 1.487 . S
C112 C119 1.399 . S
C112 N137 1.343 . S
C113 C114 1.384 . S
C113 C115 1.384 . S
C113 H132 0.931 . S
C114 C113 1.384 . S
C114 C117 1.382 . S
C115 C113 1.384 . S
C115 C116 1.381 . S
C115 H133 0.930 . S
C116 C115 1.381 . S
C116 C118 1.381 . S
C116 C119 1.487 . S
C117 C114 1.382 . S
C117 C118 1.387 . S
C117 H134 0.930 . S
C118 C116 1.381 . S
C118 C117 1.387 . S
C118 H135 0.931 . S
C119 C112 1.399 . S
C119 C116 1.487 . S
C119 N136 1.343 . S
H120 C92 0.931 . S
H121 C94 0.930 . S
H122 C96 0.930 . S
H123 C97 0.931 . S
H124 C99 0.931 . S
H125 C101 0.930 . S
H126 C103 0.930 . S
H127 C104 0.931 . S
H128 C106 0.931 . S
H129 C108 0.930 . S
H130 C110 0.930 . S
H131 C111 0.931 . S
H132 C113 0.931 . S
H133 C115 0.930 . S
H134 C117 0.930 . S
H135 C118 0.931 . S
N136 C98 1.343 . S
N136 C119 1.343 . S
N137 C105 1.343 . S
N137 C112 1.343 . S
C138 C139 1.384 . S
C138 C140 1.384 . S
C138 H166 0.931 . S
C139 C138 1.384 . S
C139 C142 1.382 . S
C140 C138 1.384 . S
C140 C141 1.381 . S
C140 H167 0.930 . S
C141 C140 1.381 . S
C141 C143 1.381 . S
C141 C144 1.487 . S
C142 C139 1.382 . S
C142 C143 1.387 . S
C142 H168 0.930 . S
C143 C141 1.381 . S
C143 C142 1.387 . S
C143 H169 0.931 . S
C144 C141 1.487 . S
C144 C151 1.399 . S
C144 N182 1.343 1_565 S
C145 C146 1.384 . S
C145 C147 1.384 . S
C145 H170 0.931 . S
C146 C145 1.384 . S
C146 C149 1.382 . S
C147 C145 1.384 . S
C147 C148 1.381 . S
C147 H171 0.930 . S
C148 C147 1.381 . S
C148 C150 1.381 . S
C148 C151 1.487 . S
C149 C146 1.382 . S
C149 C150 1.387 . S
C149 H172 0.930 . S
C150 C148 1.381 . S
C150 C149 1.387 . S
C150 H173 0.931 . S
C151 C144 1.399 . S
C151 C148 1.487 . S
C151 N183 1.346 . S
C152 C153 1.384 . S
C152 C154 1.384 . S
C152 H174 0.931 . S
C153 C152 1.384 . S
C153 C156 1.382 . S
C154 C152 1.384 . S
C154 C155 1.381 . S
C154 H175 0.930 . S
C155 C154 1.381 . S
C155 C157 1.381 . S
C155 C158 1.487 . S
C156 C153 1.382 . S
C156 C157 1.387 . S
C156 H176 0.930 . S
C157 C155 1.381 . S
C157 C156 1.387 . S
C157 H177 0.931 . S
C158 C155 1.487 . S
C158 C165 1.399 . S
C158 N183 1.340 1_545 S
C159 C160 1.384 . S
C159 C161 1.384 . S
C159 H178 0.931 . S
C160 C159 1.384 . S
C160 C163 1.382 . S
C161 C159 1.384 . S
C161 C162 1.381 . S
C161 H179 0.930 . S
C162 C161 1.381 . S
C162 C164 1.381 . S
C162 C165 1.487 . S
C163 C160 1.382 . S
C163 C164 1.387 . S
C163 H180 0.930 . S
C164 C162 1.381 . S
C164 C163 1.387 . S
C164 H181 0.931 . S
C165 C158 1.399 . S
C165 C162 1.487 . S
C165 N182 1.343 . S
H166 C138 0.931 . S
H167 C140 0.930 . S
H168 C142 0.930 . S
H169 C143 0.931 . S
H170 C145 0.931 . S
H171 C147 0.930 . S
H172 C149 0.930 . S
H173 C150 0.931 . S
H174 C152 0.931 . S
H175 C154 0.930 . S
H176 C156 0.930 . S
H177 C157 0.931 . S
H178 C159 0.931 . S
H179 C161 0.930 . S
H180 C163 0.930 . S
H181 C164 0.931 . S
N182 C144 1.343 1_545 S
N182 C165 1.343 . S
N183 C151 1.346 . S
N183 C158 1.340 1_565 S
C184 C185 1.384 . S
C184 C186 1.384 . S
C184 H212 0.931 . S
C185 C184 1.384 . S
C185 C188 1.382 . S
C186 C184 1.384 . S
C186 C187 1.381 . S
C186 H213 0.930 . S
C187 C186 1.381 . S
C187 C189 1.381 . S
C187 C190 1.487 . S
C188 C185 1.382 . S
C188 C189 1.387 . S
C188 H214 0.930 . S
C189 C187 1.381 . S
C189 C188 1.387 . S
C189 H215 0.931 . S
C190 C187 1.487 . S
C190 C197 1.399 . S
C190 N228 1.343 . S
C191 C192 1.384 . S
C191 C193 1.384 . S
C191 H216 0.931 . S
C192 C191 1.384 . S
C192 C195 1.382 . S
C193 C191 1.384 . S
C193 C194 1.381 . S
C193 H217 0.930 . S
C194 C193 1.381 . S
C194 C196 1.381 . S
C194 C197 1.487 . S
C195 C192 1.382 . S
C195 C196 1.387 . S
C195 H218 0.930 . S
C196 C194 1.381 . S
C196 C195 1.387 . S
C196 H219 0.931 . S
C197 C190 1.399 . S
C197 C194 1.487 . S
C197 N229 1.343 1_455 S
C198 C199 1.384 . S
C198 C200 1.384 . S
C198 H220 0.931 . S
C199 C198 1.384 . S
C199 C202 1.382 . S
C200 C198 1.384 . S
C200 C201 1.381 . S
C200 H221 0.930 . S
C201 C200 1.381 . S
C201 C203 1.381 . S
C201 C204 1.487 . S
C202 C199 1.382 . S
C202 C203 1.387 . S
C202 H222 0.930 . S
C203 C201 1.381 . S
C203 C202 1.387 . S
C203 H223 0.931 . S
C204 C201 1.487 . S
C204 C211 1.399 . S
C204 N229 1.343 . S
C205 C206 1.384 . S
C205 C207 1.384 . S
C205 H224 0.931 . S
C206 C205 1.384 . S
C206 C209 1.382 . S
C207 C205 1.384 . S
C207 C208 1.381 . S
C207 H225 0.930 . S
C208 C207 1.381 . S
C208 C210 1.381 . S
C208 C211 1.487 . S
C209 C206 1.382 . S
C209 C210 1.387 . S
C209 H226 0.930 . S
C210 C208 1.381 . S
C210 C209 1.387 . S
C210 H227 0.931 . S
C211 C204 1.399 . S
C211 C208 1.487 . S
C211 N228 1.343 1_655 S
H212 C184 0.931 . S
H213 C186 0.930 . S
H214 C188 0.930 . S
H215 C189 0.931 . S
H216 C191 0.931 . S
H217 C193 0.930 . S
H218 C195 0.930 . S
H219 C196 0.931 . S
H220 C198 0.931 . S
H221 C200 0.930 . S
H222 C202 0.930 . S
H223 C203 0.931 . S
H224 C205 0.931 . S
H225 C207 0.930 . S
H226 C209 0.930 . S
H227 C210 0.931 . S
N228 C190 1.343 . S
N228 C211 1.343 1_455 S
N229 C197 1.343 1_655 S
N229 C204 1.343 . S
C230 C231 1.384 . S
C230 C232 1.384 . S
C230 H258 0.931 . S
C231 C230 1.384 . S
C231 C234 1.382 . S
C232 C230 1.384 . S
C232 C233 1.381 . S
C232 H259 0.930 . S
C233 C232 1.381 . S
C233 C235 1.381 . S
C233 C236 1.487 . S
C234 C231 1.382 . S
C234 C235 1.387 . S
C234 H260 0.930 . S
C235 C233 1.381 . S
C235 C234 1.387 . S
C235 H261 0.931 . S
C236 C233 1.487 . S
C236 C243 1.399 . S
C236 N274 1.343 . S
C237 C238 1.384 . S
C237 C239 1.384 . S
C237 H262 0.931 . S
C238 C237 1.384 . S
C238 C241 1.382 . S
C239 C237 1.384 . S
C239 C240 1.381 . S
C239 H263 0.930 . S
C240 C239 1.381 . S
C240 C242 1.381 . S
C240 C243 1.487 . S
C241 C238 1.382 . S
C241 C242 1.387 . S
C241 H264 0.930 . S
C242 C240 1.381 . S
C242 C241 1.387 . S
C242 H265 0.931 . S
C243 C236 1.399 . S
C243 C240 1.487 . S
C243 N275 1.343 . S
C244 C245 1.384 . S
C244 C246 1.384 . S
C244 H266 0.931 . S
C245 C244 1.384 . S
C245 C248 1.382 . S
C246 C244 1.384 . S
C246 C247 1.381 . S
C246 H267 0.930 . S
C247 C246 1.381 . S
C247 C249 1.381 . S
C247 C250 1.487 . S
C248 C245 1.382 . S
C248 C249 1.387 . S
C248 H268 0.930 . S
C249 C247 1.381 . S
C249 C248 1.387 . S
C249 H269 0.931 . S
C250 C247 1.487 . S
C250 C257 1.399 . S
C250 N275 1.343 . S
C251 C252 1.384 . S
C251 C253 1.384 . S
C251 H270 0.931 . S
C252 C251 1.384 . S
C252 C255 1.382 . S
C253 C251 1.384 . S
C253 C254 1.381 . S
C253 H271 0.930 . S
C254 C253 1.381 . S
C254 C256 1.381 . S
C254 C257 1.487 . S
C255 C252 1.382 . S
C255 C256 1.387 . S
C255 H272 0.930 . S
C256 C254 1.381 . S
C256 C255 1.387 . S
C256 H273 0.931 . S
C257 C250 1.399 . S
C257 C254 1.487 . S
C257 N274 1.343 . S
H258 C230 0.931 . S
H259 C232 0.930 . S
H260 C234 0.930 . S
H261 C235 0.931 . S
H262 C237 0.931 . S
H263 C239 0.930 . S
H264 C241 0.930 . S
H265 C242 0.931 . S
H266 C244 0.931 . S
H267 C246 0.930 . S
H268 C248 0.930 . S
H269 C249 0.931 . S
H270 C251 0.931 . S
H271 C253 0.930 . S
H272 C255 0.930 . S
H273 C256 0.931 . S
N274 C236 1.343 . S
N274 C257 1.343 . S
N275 C243 1.343 . S
N275 C250 1.343 . S
C276 C277 1.384 . S
C276 C278 1.384 . S
C276 H304 0.931 . S
C277 C276 1.384 . S
C277 C280 1.382 . S
C278 C276 1.384 . S
C278 C279 1.381 . S
C278 H305 0.930 . S
C279 C278 1.381 . S
C279 C281 1.381 . S
C279 C282 1.487 . S
C280 C277 1.382 . S
C280 C281 1.387 . S
C280 H306 0.930 . S
C281 C279 1.381 . S
C281 C280 1.387 . S
C281 H307 0.931 1_565 S
C282 C279 1.487 . S
C282 C289 1.399 . S
C282 N320 1.343 1_565 S
C283 C284 1.384 . S
C283 C285 1.384 . S
C283 H308 0.931 . S
C284 C283 1.384 . S
C284 C287 1.382 . S
C285 C283 1.384 . S
C285 C286 1.381 . S
C285 H309 0.930 . S
C286 C285 1.381 . S
C286 C288 1.381 . S
C286 C289 1.487 . S
C287 C284 1.382 . S
C287 C288 1.387 . S
C287 H310 0.930 . S
C288 C286 1.381 . S
C288 C287 1.387 . S
C288 H311 0.931 . S
C289 C282 1.399 . S
C289 C286 1.487 . S
C289 N321 1.343 . S
C290 C291 1.384 . S
C290 C292 1.384 . S
C290 H312 0.931 . S
C291 C290 1.384 . S
C291 C294 1.382 . S
C292 C290 1.384 . S
C292 C293 1.381 . S
C292 H313 0.930 . S
C293 C292 1.381 . S
C293 C295 1.381 . S
C293 C296 1.487 . S
C294 C291 1.382 . S
C294 C295 1.387 . S
C294 H314 0.930 . S
C295 C293 1.381 . S
C295 C294 1.387 . S
C295 H315 0.931 1_545 S
C296 C293 1.487 . S
C296 C303 1.399 . S
C296 N321 1.343 1_545 S
C297 C298 1.384 . S
C297 C299 1.384 . S
C297 H316 0.931 . S
C298 C297 1.384 . S
C298 C301 1.382 . S
C299 C297 1.384 . S
C299 C300 1.381 . S
C299 H317 0.930 . S
C300 C299 1.381 . S
C300 C302 1.381 . S
C300 C303 1.487 . S
C301 C298 1.382 . S
C301 C302 1.387 . S
C301 H318 0.930 . S
C302 C300 1.381 . S
C302 C301 1.387 . S
C302 H319 0.931 . S
C303 C296 1.399 . S
C303 C300 1.487 . S
C303 N320 1.343 . S
H304 C276 0.931 . S
H305 C278 0.930 . S
H306 C280 0.930 . S
H307 C281 0.931 1_545 S
H308 C283 0.931 . S
H309 C285 0.930 . S
H310 C287 0.930 . S
H311 C288 0.931 . S
H312 C290 0.931 . S
H313 C292 0.930 . S
H314 C294 0.930 . S
H315 C295 0.931 1_565 S
H316 C297 0.931 . S
H317 C299 0.930 . S
H318 C301 0.930 . S
H319 C302 0.931 . S
N320 C282 1.343 1_545 S
N320 C303 1.343 . S
N321 C289 1.343 . S
N321 C296 1.343 1_565 S
C322 C323 1.384 . S
C322 C324 1.384 . S
C322 H350 0.931 . S
C323 C322 1.384 . S
C323 C326 1.382 . S
C324 C322 1.384 . S
C324 C325 1.381 . S
C324 H351 0.930 . S
C325 C324 1.381 . S
C325 C327 1.381 . S
C325 C328 1.487 . S
C326 C323 1.382 . S
C326 C327 1.387 . S
C326 H352 0.930 . S
C327 C325 1.381 . S
C327 C326 1.387 . S
C327 H353 0.931 1_455 S
C328 C325 1.487 . S
C328 C335 1.399 . S
C328 N366 1.343 1_455 S
C329 C330 1.384 . S
C329 C331 1.384 . S
C329 H354 0.931 . S
C330 C329 1.384 . S
C330 C333 1.382 . S
C331 C329 1.384 . S
C331 C332 1.381 . S
C331 H355 0.930 . S
C332 C331 1.381 . S
C332 C334 1.381 . S
C332 C335 1.487 . S
C333 C330 1.382 . S
C333 C334 1.387 . S
C333 H356 0.930 . S
C334 C332 1.381 . S
C334 C333 1.387 . S
C334 H357 0.931 . S
C335 C328 1.399 . S
C335 C332 1.487 . S
C335 N367 1.343 1_565 S
C336 C337 1.384 . S
C336 C338 1.384 . S
C336 H358 0.931 . S
C337 C336 1.384 . S
C337 C340 1.382 . S
C338 C336 1.384 . S
C338 C339 1.381 . S
C338 H359 0.930 . S
C339 C338 1.381 . S
C339 C341 1.381 . S
C339 C342 1.487 . S
C340 C337 1.382 . S
C340 C341 1.387 . S
C340 H360 0.930 . S
C341 C339 1.381 . S
C341 C340 1.387 . S
C341 H361 0.931 1_655 S
C342 C339 1.487 . S
C342 C349 1.399 . S
C342 N367 1.343 1_655 S
C343 C344 1.384 . S
C343 C345 1.384 . S
C343 H362 0.931 . S
C344 C343 1.384 . S
C344 C347 1.382 . S
C345 C343 1.384 . S
C345 C346 1.381 . S
C345 H363 0.930 . S
C346 C345 1.381 . S
C346 C348 1.381 . S
C346 C349 1.487 . S
C347 C344 1.382 . S
C347 C348 1.387 . S
C347 H364 0.930 . S
C348 C346 1.381 . S
C348 C347 1.387 . S
C348 H365 0.931 . S
C349 C342 1.399 . S
C349 C346 1.487 . S
C349 N366 1.343 1_545 S
H350 C322 0.931 . S
H351 C324 0.930 . S
H352 C326 0.930 . S
H353 C327 0.931 1_655 S
H354 C329 0.931 . S
H355 C331 0.930 . S
H356 C333 0.930 . S
H357 C334 0.931 . S
H358 C336 0.931 . S
H359 C338 0.930 . S
H360 C340 0.930 . S
H361 C341 0.931 1_455 S
H362 C343 0.931 . S
H363 C345 0.930 . S
H364 C347 0.930 . S
H365 C348 0.931 . S
N366 C328 1.343 1_655 S
N366 C349 1.343 1_565 S
N367 C335 1.343 1_545 S
N367 C342 1.343 1_455 S
In368 O369 2.294 . S
In368 O370 2.326 . S
In368 O374 2.266 1_554 S
In368 O375 2.326 1_554 S
In368 O376 2.266 1_554 S
In368 O377 2.326 1_554 S
In368 O379 2.294 . S
In368 O380 2.326 . S
O369 In368 2.294 . S
O369 C378 1.240 . S
O370 In368 2.326 . S
O370 C378 1.252 . S
C371 O374 1.252 . S
C371 O375 1.260 . S
C372 O379 1.240 . S
C372 O380 1.252 . S
C373 O376 1.252 . S
C373 O377 1.260 . S
O374 In368 2.266 1_556 S
O374 C371 1.252 . S
O375 In368 2.326 1_556 S
O375 C371 1.260 . S
O376 In368 2.266 1_556 S
O376 C373 1.252 . S
O377 In368 2.326 1_556 S
O377 C373 1.260 . S
C378 O369 1.240 . S
C378 O370 1.252 . S
O379 In368 2.294 . S
O379 C372 1.240 . S
O380 In368 2.326 . S
O380 C372 1.252 . S
In381 O382 2.294 . S
In381 O383 2.326 . S
In381 O387 2.266 . S
In381 O388 2.326 . S
In381 O389 2.266 . S
In381 O390 2.326 . S
In381 O392 2.294 . S
In381 O393 2.326 . S
O382 In381 2.294 . S
O382 C391 1.240 . S
O383 In381 2.326 . S
O383 C391 1.252 . S
C384 O387 1.252 . S
C384 O388 1.260 . S
C385 O392 1.240 . S
C385 O393 1.252 . S
C386 O389 1.252 . S
C386 O390 1.260 . S
O387 In381 2.266 . S
O387 C384 1.252 . S
O388 In381 2.326 . S
O388 C384 1.260 . S
O389 In381 2.266 . S
O389 C386 1.252 . S
O390 In381 2.326 . S
O390 C386 1.260 . S
C391 O382 1.240 . S
C391 O383 1.252 . S
O392 In381 2.294 . S
O392 C385 1.240 . S
O393 In381 2.326 . S
O393 C385 1.252 . S
In394 O395 2.294 . S
In394 O396 2.326 . S
In394 O400 2.266 . S
In394 O401 2.326 . S
In394 O402 2.266 . S
In394 O403 2.326 . S
In394 O405 2.294 . S
In394 O406 2.326 . S
O395 In394 2.294 . S
O395 C404 1.240 . S
O396 In394 2.326 . S
O396 C404 1.252 . S
C397 O400 1.252 . S
C397 O401 1.260 . S
C398 O405 1.240 . S
C398 O406 1.252 . S
C399 O402 1.252 . S
C399 O403 1.260 . S
O400 In394 2.266 . S
O400 C397 1.252 . S
O401 In394 2.326 . S
O401 C397 1.260 . S
O402 In394 2.266 . S
O402 C399 1.252 . S
O403 In394 2.326 . S
O403 C399 1.260 . S
C404 O395 1.240 . S
C404 O396 1.252 . S
O405 In394 2.294 . S
O405 C398 1.240 . S
O406 In394 2.326 . S
O406 C398 1.252 . S
In407 O408 2.294 . S
In407 O409 2.326 . S
In407 O413 2.266 . S
In407 O414 2.326 . S
In407 O415 2.266 . S
In407 O416 2.326 . S
In407 O418 2.294 . S
In407 O419 2.326 . S
O408 In407 2.294 . S
O408 C417 1.240 . S
O409 In407 2.326 . S
O409 C417 1.252 . S
C410 O413 1.252 . S
C410 O414 1.260 . S
C411 O418 1.240 . S
C411 O419 1.252 . S
C412 O415 1.252 . S
C412 O416 1.260 . S
O413 In407 2.266 . S
O413 C410 1.252 . S
O414 In407 2.326 . S
O414 C410 1.260 . S
O415 In407 2.266 . S
O415 C412 1.252 . S
O416 In407 2.326 . S
O416 C412 1.260 . S
C417 O408 1.240 . S
C417 O409 1.252 . S
O418 In407 2.294 . S
O418 C411 1.240 . S
O419 In407 2.326 . S
O419 C411 1.252 . S
In420 O421 2.294 . S
In420 O422 2.326 . S
In420 O426 2.266 . S
In420 O427 2.326 . S
In420 O428 2.266 . S
In420 O429 2.326 . S
In420 O431 2.294 . S
In420 O432 2.326 . S
O421 In420 2.294 . S
O421 C430 1.240 . S
O422 In420 2.326 . S
O422 C430 1.252 . S
C423 O426 1.252 . S
C423 O427 1.260 . S
C424 O431 1.240 . S
C424 O432 1.252 . S
C425 O428 1.252 . S
C425 O429 1.260 . S
O426 In420 2.266 . S
O426 C423 1.252 . S
O427 In420 2.326 . S
O427 C423 1.260 . S
O428 In420 2.266 . S
O428 C425 1.252 . S
O429 In420 2.326 . S
O429 C425 1.260 . S
C430 O421 1.240 . S
C430 O422 1.252 . S
O431 In420 2.294 . S
O431 C424 1.240 . S
O432 In420 2.326 . S
O432 C424 1.252 . S
In433 O434 2.294 . S
In433 O435 2.326 . S
In433 O439 2.266 . S
In433 O440 2.326 . S
In433 O441 2.266 . S
In433 O442 2.326 . S
In433 O444 2.294 . S
In433 O445 2.326 . S
O434 In433 2.294 . S
O434 C443 1.240 . S
O435 In433 2.326 . S
O435 C443 1.252 . S
C436 O439 1.252 . S
C436 O440 1.260 . S
C437 O444 1.240 . S
C437 O445 1.252 . S
C438 O441 1.252 . S
C438 O442 1.260 . S
O439 In433 2.266 . S
O439 C436 1.252 . S
O440 In433 2.326 . S
O440 C436 1.260 . S
O441 In433 2.266 . S
O441 C438 1.252 . S
O442 In433 2.326 . S
O442 C438 1.260 . S
C443 O434 1.240 . S
C443 O435 1.252 . S
O444 In433 2.294 . S
O444 C437 1.240 . S
O445 In433 2.326 . S
O445 C437 1.252 . S
In446 O447 2.294 . S
In446 O448 2.326 . S
In446 O452 2.266 1_554 S
In446 O453 2.326 1_554 S
In446 O454 2.266 1_554 S
In446 O455 2.326 1_554 S
In446 O457 2.294 . S
In446 O458 2.326 . S
O447 In446 2.294 . S
O447 C456 1.240 . S
O448 In446 2.326 . S
O448 C456 1.252 . S
C449 O452 1.252 . S
C449 O453 1.260 . S
C450 O457 1.240 . S
C450 O458 1.252 . S
C451 O454 1.252 . S
C451 O455 1.260 . S
O452 In446 2.266 1_556 S
O452 C449 1.252 . S
O453 In446 2.326 1_556 S
O453 C449 1.260 . S
O454 In446 2.266 1_556 S
O454 C451 1.252 . S
O455 In446 2.326 1_556 S
O455 C451 1.260 . S
C456 O447 1.240 . S
C456 O448 1.252 . S
O457 In446 2.294 . S
O457 C450 1.240 . S
O458 In446 2.326 . S
O458 C450 1.252 . S
In459 O460 2.294 . S
In459 O461 2.326 . S
In459 O465 2.266 . S
In459 O466 2.326 . S
In459 O467 2.266 . S
In459 O468 2.326 . S
In459 O470 2.294 . S
In459 O471 2.326 . S
O460 In459 2.294 . S
O460 C469 1.240 . S
O461 In459 2.326 . S
O461 C469 1.252 . S
C462 O465 1.252 . S
C462 O466 1.260 . S
C463 O470 1.240 . S
C463 O471 1.252 . S
C464 O467 1.252 . S
C464 O468 1.260 . S
O465 In459 2.266 . S
O465 C462 1.252 . S
O466 In459 2.326 . S
O466 C462 1.260 . S
O467 In459 2.266 . S
O467 C464 1.252 . S
O468 In459 2.326 . S
O468 C464 1.260 . S
C469 O460 1.240 . S
C469 O461 1.252 . S
O470 In459 2.294 . S
O470 C463 1.240 . S
O471 In459 2.326 . S
O471 C463 1.252 . S
H472 C478 0.930 . S
H473 C482 0.930 . S
H474 C487 0.929 . S
H475 C485 0.929 . S
H476 C480 0.929 . S
H477 C486 0.929 . S
C478 H472 0.930 . S
C478 C479 1.367 . S
C478 C486 1.378 . S
C479 C478 1.367 . S
C479 C487 1.433 . S
C480 H476 0.929 . S
C480 C482 1.378 . S
C480 C484 1.350 . S
C481 C484 1.463 . S
C481 C486 1.350 . S
C481 N489 1.427 . S
C482 H473 0.930 . S
C482 C480 1.378 . S
C482 C483 1.367 . S
C483 C482 1.367 . S
C483 C485 1.433 . S
C484 C480 1.350 . S
C484 C481 1.463 . S
C484 N488 1.427 . S
C485 H475 0.929 . S
C485 C483 1.433 . S
C485 N488 1.384 . S
C486 H477 0.929 . S
C486 C478 1.378 . S
C486 C481 1.350 . S
C487 H474 0.929 . S
C487 C479 1.433 . S
C487 N489 1.384 . S
N488 C484 1.427 . S
N488 C485 1.384 . S
N489 C481 1.427 . S
N489 C487 1.384 . S
H490 C496 0.930 . S
H491 C500 0.930 . S
H492 C505 0.929 . S
H493 C503 0.929 . S
H494 C498 0.929 . S
H495 C504 0.929 . S
C496 H490 0.930 . S
C496 C497 1.367 . S
C496 C504 1.378 . S
C497 C496 1.367 . S
C497 C505 1.433 . S
C498 H494 0.929 . S
C498 C500 1.378 . S
C498 C502 1.350 . S
C499 C502 1.463 . S
C499 C504 1.350 . S
C499 N507 1.427 . S
C500 H491 0.930 . S
C500 C498 1.378 . S
C500 C501 1.367 . S
C501 C500 1.367 . S
C501 C503 1.433 . S
C502 C498 1.350 . S
C502 C499 1.463 . S
C502 N506 1.427 . S
C503 H493 0.929 . S
C503 C501 1.433 . S
C503 N506 1.384 . S
C504 H495 0.929 . S
C504 C496 1.378 . S
C504 C499 1.350 . S
C505 H492 0.929 . S
C505 C497 1.433 . S
C505 N507 1.384 . S
N506 C502 1.427 . S
N506 C503 1.384 . S
N507 C499 1.427 . S
N507 C505 1.384 . S
H508 C514 0.930 . S
H509 C518 0.930 . S
H510 C523 0.929 . S
H511 C521 0.929 . S
H512 C516 0.929 . S
H513 C522 0.929 . S
C514 H508 0.930 . S
C514 C515 1.367 . S
C514 C522 1.378 . S
C515 C514 1.367 . S
C515 C523 1.433 . S
C516 H512 0.929 . S
C516 C518 1.378 . S
C516 C520 1.350 . S
C517 C520 1.463 . S
C517 C522 1.350 . S
C517 N525 1.427 . S
C518 H509 0.930 . S
C518 C516 1.378 . S
C518 C519 1.367 . S
C519 C518 1.367 . S
C519 C521 1.433 . S
C520 C516 1.350 . S
C520 C517 1.463 . S
C520 N524 1.427 . S
C521 H511 0.929 . S
C521 C519 1.433 . S
C521 N524 1.384 . S
C522 H513 0.929 . S
C522 C514 1.378 . S
C522 C517 1.350 . S
C523 H510 0.929 . S
C523 C515 1.433 . S
C523 N525 1.384 . S
N524 C520 1.427 . S
N524 C521 1.384 . S
N525 C517 1.427 . S
N525 C523 1.384 . S
H526 C532 0.930 . S
H527 C536 0.930 . S
H528 C541 0.929 . S
H529 C539 0.929 . S
H530 C534 0.929 . S
H531 C540 0.929 . S
C532 H526 0.930 . S
C532 C533 1.367 . S
C532 C540 1.378 . S
C533 C532 1.367 . S
C533 C541 1.433 . S
C534 H530 0.929 . S
C534 C536 1.378 . S
C534 C538 1.350 . S
C535 C538 1.463 . S
C535 C540 1.350 . S
C535 N543 1.427 . S
C536 H527 0.930 . S
C536 C534 1.378 . S
C536 C537 1.367 . S
C537 C536 1.367 . S
C537 C539 1.433 . S
C538 C534 1.350 . S
C538 C535 1.463 . S
C538 N542 1.427 . S
C539 H529 0.929 . S
C539 C537 1.433 . S
C539 N542 1.384 . S
C540 H531 0.929 . S
C540 C532 1.378 . S
C540 C535 1.350 . S
C541 H528 0.929 . S
C541 C533 1.433 . S
C541 N543 1.384 . S
N542 C538 1.427 . S
N542 C539 1.384 . S
N543 C535 1.427 . S
N543 C541 1.384 . S
H544 C550 0.930 . S
H545 C554 0.930 . S
H546 C559 0.929 . S
H547 C557 0.929 . S
H548 C552 0.929 . S
H549 C558 0.929 . S
C550 H544 0.930 . S
C550 C551 1.367 . S
C550 C558 1.378 . S
C551 C550 1.367 . S
C551 C559 1.433 . S
C552 H548 0.929 . S
C552 C554 1.378 . S
C552 C556 1.350 . S
C553 C556 1.463 . S
C553 C558 1.350 . S
C553 N561 1.427 . S
C554 H545 0.930 . S
C554 C552 1.378 . S
C554 C555 1.367 . S
C555 C554 1.367 . S
C555 C557 1.433 . S
C556 C552 1.350 . S
C556 C553 1.463 . S
C556 N560 1.427 . S
C557 H547 0.929 . S
C557 C555 1.433 . S
C557 N560 1.384 . S
C558 H549 0.929 . S
C558 C550 1.378 . S
C558 C553 1.350 . S
C559 H546 0.929 . S
C559 C551 1.433 . S
C559 N561 1.384 . S
N560 C556 1.427 . S
N560 C557 1.384 . S
N561 C553 1.427 . S
N561 C559 1.384 . S
H562 C568 0.930 . S
H563 C572 0.930 . S
H564 C577 0.929 . S
H565 C575 0.929 . S
H566 C570 0.929 . S
H567 C576 0.929 . S
C568 H562 0.930 . S
C568 C569 1.367 . S
C568 C576 1.378 . S
C569 C568 1.367 . S
C569 C577 1.433 . S
C570 H566 0.929 . S
C570 C572 1.378 . S
C570 C574 1.350 . S
C571 C574 1.463 . S
C571 C576 1.350 . S
C571 N579 1.427 . S
C572 H563 0.930 . S
C572 C570 1.378 . S
C572 C573 1.367 . S
C573 C572 1.367 . S
C573 C575 1.433 . S
C574 C570 1.350 . S
C574 C571 1.463 . S
C574 N578 1.427 . S
C575 H565 0.929 . S
C575 C573 1.433 . S
C575 N578 1.384 . S
C576 H567 0.929 . S
C576 C568 1.378 . S
C576 C571 1.350 . S
C577 H564 0.929 . S
C577 C569 1.433 . S
C577 N579 1.384 . S
N578 C574 1.427 . S
N578 C575 1.384 . S
N579 C571 1.427 . S
N579 C577 1.384 . S
H580 C586 0.930 . S
H581 C590 0.930 . S
H582 C595 0.929 . S
H583 C593 0.929 . S
H584 C588 0.929 . S
H585 C594 0.929 . S
C586 H580 0.930 . S
C586 C587 1.367 . S
C586 C594 1.378 . S
C587 C586 1.367 . S
C587 C595 1.433 . S
C588 H584 0.929 . S
C588 C590 1.378 . S
C588 C592 1.350 . S
C589 C592 1.463 . S
C589 C594 1.350 . S
C589 N597 1.427 . S
C590 H581 0.930 . S
C590 C588 1.378 . S
C590 C591 1.367 . S
C591 C590 1.367 . S
C591 C593 1.433 . S
C592 C588 1.350 . S
C592 C589 1.463 . S
C592 N596 1.427 . S
C593 H583 0.929 . S
C593 C591 1.433 . S
C593 N596 1.384 . S
C594 H585 0.929 . S
C594 C586 1.378 . S
C594 C589 1.350 . S
C595 H582 0.929 . S
C595 C587 1.433 . S
C595 N597 1.384 . S
N596 C592 1.427 . S
N596 C593 1.384 . S
N597 C589 1.427 . S
N597 C595 1.384 . S
H598 C604 0.930 . S
H599 C608 0.930 . S
H600 C613 0.929 . S
H601 C611 0.929 . S
H602 C606 0.929 . S
H603 C612 0.929 . S
C604 H598 0.930 . S
C604 C605 1.367 . S
C604 C612 1.378 . S
C605 C604 1.367 . S
C605 C613 1.433 . S
C606 H602 0.929 . S
C606 C608 1.378 . S
C606 C610 1.350 . S
C607 C610 1.463 . S
C607 C612 1.350 . S
C607 N615 1.427 . S
C608 H599 0.930 . S
C608 C606 1.378 . S
C608 C609 1.367 . S
C609 C608 1.367 . S
C609 C611 1.433 . S
C610 C606 1.350 . S
C610 C607 1.463 . S
C610 N614 1.427 . S
C611 H601 0.929 . S
C611 C609 1.433 . S
C611 N614 1.384 . S
C612 H603 0.929 . S
C612 C604 1.378 . S
C612 C607 1.350 . S
C613 H600 0.929 . S
C613 C605 1.433 . S
C613 N615 1.384 . S
N614 C610 1.427 . S
N614 C611 1.384 . S
N615 C607 1.427 . S
N615 C613 1.384 . S
H616 C622 0.930 . S
H617 C626 0.930 . S
H618 C631 0.929 . S
H619 C629 0.929 . S
H620 C624 0.929 . S
H621 C630 0.929 . S
C622 H616 0.930 . S
C622 C623 1.367 . S
C622 C630 1.378 . S
C623 C622 1.367 . S
C623 C631 1.433 . S
C624 H620 0.929 . S
C624 C626 1.378 . S
C624 C628 1.350 . S
C625 C628 1.463 . S
C625 C630 1.350 . S
C625 N633 1.427 . S
C626 H617 0.930 . S
C626 C624 1.378 . S
C626 C627 1.367 . S
C627 C626 1.367 . S
C627 C629 1.433 . S
C628 C624 1.350 . S
C628 C625 1.463 . S
C628 N632 1.427 . S
C629 H619 0.929 . S
C629 C627 1.433 . S
C629 N632 1.384 . S
C630 H621 0.929 . S
C630 C622 1.378 . S
C630 C625 1.350 . S
C631 H618 0.929 . S
C631 C623 1.433 . S
C631 N633 1.384 . S
N632 C628 1.427 . S
N632 C629 1.384 . S
N633 C625 1.427 . S
N633 C631 1.384 . S
H634 C640 0.930 . S
H635 C644 0.930 . S
H636 C649 0.929 . S
H637 C647 0.929 . S
H638 C642 0.929 . S
H639 C648 0.929 . S
C640 H634 0.930 . S
C640 C641 1.367 . S
C640 C648 1.378 . S
C641 C640 1.367 . S
C641 C649 1.433 . S
C642 H638 0.929 . S
C642 C644 1.378 . S
C642 C646 1.350 . S
C643 C646 1.463 . S
C643 C648 1.350 . S
C643 N651 1.427 . S
C644 H635 0.930 . S
C644 C642 1.378 . S
C644 C645 1.367 . S
C645 C644 1.367 . S
C645 C647 1.433 . S
C646 C642 1.350 . S
C646 C643 1.463 . S
C646 N650 1.427 . S
C647 H637 0.929 . S
C647 C645 1.433 . S
C647 N650 1.384 . S
C648 H639 0.929 . S
C648 C640 1.378 . S
C648 C643 1.350 . S
C649 H636 0.929 . S
C649 C641 1.433 . S
C649 N651 1.384 . S
N650 C646 1.427 . S
N650 C647 1.384 . S
N651 C643 1.427 . S
N651 C649 1.384 . S
H652 C658 0.930 . S
H653 C662 0.930 . S
H654 C667 0.929 . S
H655 C665 0.929 . S
H656 C660 0.929 . S
H657 C666 0.929 . S
C658 H652 0.930 . S
C658 C659 1.367 . S
C658 C666 1.378 . S
C659 C658 1.367 . S
C659 C667 1.433 . S
C660 H656 0.929 . S
C660 C662 1.378 . S
C660 C664 1.350 . S
C661 C664 1.463 . S
C661 C666 1.350 . S
C661 N669 1.427 . S
C662 H653 0.930 . S
C662 C660 1.378 . S
C662 C663 1.367 . S
C663 C662 1.367 . S
C663 C665 1.433 . S
C664 C660 1.350 . S
C664 C661 1.463 . S
C664 N668 1.427 . S
C665 H655 0.929 . S
C665 C663 1.433 . S
C665 N668 1.384 . S
C666 H657 0.929 . S
C666 C658 1.378 . S
C666 C661 1.350 . S
C667 H654 0.929 . S
C667 C659 1.433 . S
C667 N669 1.384 . S
N668 C664 1.427 . S
N668 C665 1.384 . S
N669 C661 1.427 . S
N669 C667 1.384 . S
H670 C676 0.930 . S
H671 C680 0.930 . S
H672 C685 0.929 . S
H673 C683 0.929 . S
H674 C678 0.929 . S
H675 C684 0.929 . S
C676 H670 0.930 . S
C676 C677 1.367 . S
C676 C684 1.378 . S
C677 C676 1.367 . S
C677 C685 1.433 . S
C678 H674 0.929 . S
C678 C680 1.378 . S
C678 C682 1.350 . S
C679 C682 1.463 . S
C679 C684 1.350 . S
C679 N687 1.427 . S
C680 H671 0.930 . S
C680 C678 1.378 . S
C680 C681 1.367 . S
C681 C680 1.367 . S
C681 C683 1.433 . S
C682 C678 1.350 . S
C682 C679 1.463 . S
C682 N686 1.427 . S
C683 H673 0.929 . S
C683 C681 1.433 . S
C683 N686 1.384 . S
C684 H675 0.929 . S
C684 C676 1.378 . S
C684 C679 1.350 . S
C685 H672 0.929 . S
C685 C677 1.433 . S
C685 N687 1.384 . S
N686 C682 1.427 . S
N686 C683 1.384 . S
N687 C679 1.427 . S
N687 C685 1.384 . S
H688 C694 0.930 . S
H689 C698 0.930 . S
H690 C703 0.929 . S
H691 C701 0.929 . S
H692 C696 0.929 . S
H693 C702 0.929 . S
C694 H688 0.930 . S
C694 C695 1.367 . S
C694 C702 1.378 . S
C695 C694 1.367 . S
C695 C703 1.433 . S
C696 H692 0.929 . S
C696 C698 1.378 . S
C696 C700 1.350 . S
C697 C700 1.463 . S
C697 C702 1.350 . S
C697 N705 1.427 . S
C698 H689 0.930 . S
C698 C696 1.378 . S
C698 C699 1.367 . S
C699 C698 1.367 . S
C699 C701 1.433 . S
C700 C696 1.350 . S
C700 C697 1.463 . S
C700 N704 1.427 . S
C701 H691 0.929 . S
C701 C699 1.433 . S
C701 N704 1.384 . S
C702 H693 0.929 . S
C702 C694 1.378 . S
C702 C697 1.350 . S
C703 H690 0.929 . S
C703 C695 1.433 . S
C703 N705 1.384 . S
N704 C700 1.427 . S
N704 C701 1.384 . S
N705 C697 1.427 . S
N705 C703 1.384 . S
H706 C712 0.930 . S
H707 C716 0.930 . S
H708 C721 0.929 . S
H709 C719 0.929 . S
H710 C714 0.929 . S
H711 C720 0.929 . S
C712 H706 0.930 . S
C712 C713 1.367 . S
C712 C720 1.378 . S
C713 C712 1.367 . S
C713 C721 1.433 . S
C714 H710 0.929 . S
C714 C716 1.378 . S
C714 C718 1.350 . S
C715 C718 1.463 . S
C715 C720 1.350 . S
C715 N723 1.427 . S
C716 H707 0.930 . S
C716 C714 1.378 . S
C716 C717 1.367 . S
C717 C716 1.367 . S
C717 C719 1.433 . S
C718 C714 1.350 . S
C718 C715 1.463 . S
C718 N722 1.427 . S
C719 H709 0.929 . S
C719 C717 1.433 . S
C719 N722 1.384 . S
C720 H711 0.929 . S
C720 C712 1.378 . S
C720 C715 1.350 . S
C721 H708 0.929 . S
C721 C713 1.433 . S
C721 N723 1.384 . S
N722 C718 1.427 . S
N722 C719 1.384 . S
N723 C715 1.427 . S
N723 C721 1.384 . S
H724 C730 0.930 . S
H725 C734 0.930 1_554 S
H726 C739 0.929 . S
H727 C737 0.929 . S
H728 C732 0.929 . S
H729 C738 0.929 . S
C730 H724 0.930 . S
C730 C731 1.367 . S
C730 C738 1.378 . S
C731 C730 1.367 . S
C731 C739 1.433 . S
C732 H728 0.929 . S
C732 C734 1.378 . S
C732 C736 1.350 . S
C733 C736 1.463 . S
C733 C738 1.350 . S
C733 N741 1.427 . S
C734 H725 0.930 1_556 S
C734 C732 1.378 . S
C734 C735 1.367 . S
C735 C734 1.367 . S
C735 C737 1.433 . S
C736 C732 1.350 . S
C736 C733 1.463 . S
C736 N740 1.427 . S
C737 H727 0.929 . S
C737 C735 1.433 . S
C737 N740 1.384 . S
C738 H729 0.929 . S
C738 C730 1.378 . S
C738 C733 1.350 . S
C739 H726 0.929 . S
C739 C731 1.433 . S
C739 N741 1.384 . S
N740 C736 1.427 . S
N740 C737 1.384 . S
N741 C733 1.427 . S
N741 C739 1.384 . S
H742 C748 0.930 . S
H743 C752 0.930 . S
H744 C757 0.929 . S
H745 C755 0.929 . S
H746 C750 0.929 . S
H747 C756 0.929 . S
C748 H742 0.930 . S
C748 C749 1.367 . S
C748 C756 1.378 . S
C749 C748 1.367 . S
C749 C757 1.433 . S
C750 H746 0.929 . S
C750 C752 1.378 . S
C750 C754 1.350 . S
C751 C754 1.463 . S
C751 C756 1.350 . S
C751 N759 1.427 . S
C752 H743 0.930 . S
C752 C750 1.378 . S
C752 C753 1.367 . S
C753 C752 1.367 . S
C753 C755 1.433 . S
C754 C750 1.350 . S
C754 C751 1.463 . S
C754 N758 1.427 . S
C755 H745 0.929 . S
C755 C753 1.433 . S
C755 N758 1.384 . S
C756 H747 0.929 . S
C756 C748 1.378 . S
C756 C751 1.350 . S
C757 H744 0.929 . S
C757 C749 1.433 . S
C757 N759 1.384 . S
N758 C754 1.427 . S
N758 C755 1.384 . S
N759 C751 1.427 . S
N759 C757 1.384 . S
H760 C766 0.930 . S
H761 C770 0.930 . S
H762 C775 0.929 . S
H763 C773 0.929 . S
H764 C768 0.929 . S
H765 C774 0.929 . S
C766 H760 0.930 . S
C766 C767 1.367 . S
C766 C774 1.378 . S
C767 C766 1.367 . S
C767 C775 1.433 . S
C768 H764 0.929 . S
C768 C770 1.378 . S
C768 C772 1.350 . S
C769 C772 1.463 . S
C769 C774 1.350 . S
C769 N777 1.427 . S
C770 H761 0.930 . S
C770 C768 1.378 . S
C770 C771 1.367 . S
C771 C770 1.367 . S
C771 C773 1.433 . S
C772 C768 1.350 . S
C772 C769 1.463 . S
C772 N776 1.427 . S
C773 H763 0.929 . S
C773 C771 1.433 . S
C773 N776 1.384 . S
C774 H765 0.929 . S
C774 C766 1.378 . S
C774 C769 1.350 . S
C775 H762 0.929 . S
C775 C767 1.433 . S
C775 N777 1.384 . S
N776 C772 1.427 . S
N776 C773 1.384 . S
N777 C769 1.427 . S
N777 C775 1.384 . S
H778 C784 0.930 . S
H779 C788 0.930 . S
H780 C793 0.929 . S
H781 C791 0.929 . S
H782 C786 0.929 . S
H783 C792 0.929 . S
C784 H778 0.930 . S
C784 C785 1.367 . S
C784 C792 1.378 . S
C785 C784 1.367 . S
C785 C793 1.433 . S
C786 H782 0.929 . S
C786 C788 1.378 . S
C786 C790 1.350 . S
C787 C790 1.463 . S
C787 C792 1.350 . S
C787 N795 1.427 . S
C788 H779 0.930 . S
C788 C786 1.378 . S
C788 C789 1.367 . S
C789 C788 1.367 . S
C789 C791 1.433 . S
C790 C786 1.350 . S
C790 C787 1.463 . S
C790 N794 1.427 . S
C791 H781 0.929 . S
C791 C789 1.433 . S
C791 N794 1.384 . S
C792 H783 0.929 . S
C792 C784 1.378 . S
C792 C787 1.350 . S
C793 H780 0.929 . S
C793 C785 1.433 . S
C793 N795 1.384 . S
N794 C790 1.427 . S
N794 C791 1.384 . S
N795 C787 1.427 . S
N795 C793 1.384 . S
H796 C802 0.930 . S
H797 C806 0.930 . S
H798 C811 0.929 . S
H799 C809 0.929 . S
H800 C804 0.929 . S
H801 C810 0.929 . S
C802 H796 0.930 . S
C802 C803 1.367 . S
C802 C810 1.378 . S
C803 C802 1.367 . S
C803 C811 1.433 . S
C804 H800 0.929 . S
C804 C806 1.378 . S
C804 C808 1.350 . S
C805 C808 1.463 . S
C805 C810 1.350 . S
C805 N813 1.427 . S
C806 H797 0.930 . S
C806 C804 1.378 . S
C806 C807 1.367 . S
C807 C806 1.367 . S
C807 C809 1.433 . S
C808 C804 1.350 . S
C808 C805 1.463 . S
C808 N812 1.427 . S
C809 H799 0.929 . S
C809 C807 1.433 . S
C809 N812 1.384 . S
C810 H801 0.929 . S
C810 C802 1.378 . S
C810 C805 1.350 . S
C811 H798 0.929 . S
C811 C803 1.433 . S
C811 N813 1.384 . S
N812 C808 1.427 . S
N812 C809 1.384 . S
N813 C805 1.427 . S
N813 C811 1.384 . S
H814 C820 0.930 . S
H815 C824 0.930 . S
H816 C829 0.929 . S
H817 C827 0.929 . S
H818 C822 0.929 . S
H819 C828 0.929 . S
C820 H814 0.930 . S
C820 C821 1.367 . S
C820 C828 1.378 . S
C821 C820 1.367 . S
C821 C829 1.433 . S
C822 H818 0.929 . S
C822 C824 1.378 . S
C822 C826 1.350 . S
C823 C826 1.463 . S
C823 C828 1.350 . S
C823 N831 1.427 . S
C824 H815 0.930 . S
C824 C822 1.378 . S
C824 C825 1.367 . S
C825 C824 1.367 . S
C825 C827 1.433 . S
C826 C822 1.350 . S
C826 C823 1.463 . S
C826 N830 1.427 . S
C827 H817 0.929 . S
C827 C825 1.433 . S
C827 N830 1.384 . S
C828 H819 0.929 . S
C828 C820 1.378 . S
C828 C823 1.350 . S
C829 H816 0.929 . S
C829 C821 1.433 . S
C829 N831 1.384 . S
N830 C826 1.427 . S
N830 C827 1.384 . S
N831 C823 1.427 . S
N831 C829 1.384 . S
H832 C838 0.930 . S
H833 C842 0.930 . S
H834 C847 0.929 . S
H835 C845 0.929 . S
H836 C840 0.929 . S
H837 C846 0.929 . S
C838 H832 0.930 . S
C838 C839 1.367 . S
C838 C846 1.378 . S
C839 C838 1.367 . S
C839 C847 1.433 . S
C840 H836 0.929 . S
C840 C842 1.378 . S
C840 C844 1.350 . S
C841 C844 1.463 . S
C841 C846 1.350 . S
C841 N849 1.427 . S
C842 H833 0.930 . S
C842 C840 1.378 . S
C842 C843 1.367 . S
C843 C842 1.367 . S
C843 C845 1.433 . S
C844 C840 1.350 . S
C844 C841 1.463 . S
C844 N848 1.427 . S
C845 H835 0.929 . S
C845 C843 1.433 . S
C845 N848 1.384 . S
C846 H837 0.929 . S
C846 C838 1.378 . S
C846 C841 1.350 . S
C847 H834 0.929 . S
C847 C839 1.433 . S
C847 N849 1.384 . S
N848 C844 1.427 . S
N848 C845 1.384 . S
N849 C841 1.427 . S
N849 C847 1.384 . S
H850 C856 0.930 . S
H851 C860 0.930 . S
H852 C865 0.929 . S
H853 C863 0.929 . S
H854 C858 0.929 . S
H855 C864 0.929 . S
C856 H850 0.930 . S
C856 C857 1.367 . S
C856 C864 1.378 . S
C857 C856 1.367 . S
C857 C865 1.433 . S
C858 H854 0.929 . S
C858 C860 1.378 . S
C858 C862 1.350 . S
C859 C862 1.463 . S
C859 C864 1.350 . S
C859 N867 1.427 . S
C860 H851 0.930 . S
C860 C858 1.378 . S
C860 C861 1.367 . S
C861 C860 1.367 . S
C861 C863 1.433 . S
C862 C858 1.350 . S
C862 C859 1.463 . S
C862 N866 1.427 . S
C863 H853 0.929 . S
C863 C861 1.433 . S
C863 N866 1.384 . S
C864 H855 0.929 . S
C864 C856 1.378 . S
C864 C859 1.350 . S
C865 H852 0.929 . S
C865 C857 1.433 . S
C865 N867 1.384 . S
N866 C862 1.427 . S
N866 C863 1.384 . S
N867 C859 1.427 . S
N867 C865 1.384 . S
H868 C874 0.930 . S
H869 C878 0.930 . S
H870 C883 0.929 . S
H871 C881 0.929 . S
H872 C876 0.929 . S
H873 C882 0.929 . S
C874 H868 0.930 . S
C874 C875 1.367 . S
C874 C882 1.378 . S
C875 C874 1.367 . S
C875 C883 1.433 . S
C876 H872 0.929 . S
C876 C878 1.378 . S
C876 C880 1.350 . S
C877 C880 1.463 . S
C877 C882 1.350 . S
C877 N885 1.427 . S
C878 H869 0.930 . S
C878 C876 1.378 . S
C878 C879 1.367 . S
C879 C878 1.367 . S
C879 C881 1.433 . S
C880 C876 1.350 . S
C880 C877 1.463 . S
C880 N884 1.427 . S
C881 H871 0.929 . S
C881 C879 1.433 . S
C881 N884 1.384 . S
C882 H873 0.929 . S
C882 C874 1.378 . S
C882 C877 1.350 . S
C883 H870 0.929 . S
C883 C875 1.433 . S
C883 N885 1.384 . S
N884 C880 1.427 . S
N884 C881 1.384 . S
N885 C877 1.427 . S
N885 C883 1.384 . S
H886 C892 0.930 . S
H887 C896 0.930 . S
H888 C901 0.929 . S
H889 C899 0.929 . S
H890 C894 0.929 . S
H891 C900 0.929 . S
C892 H886 0.930 . S
C892 C893 1.367 . S
C892 C900 1.378 . S
C893 C892 1.367 . S
C893 C901 1.433 . S
C894 H890 0.929 . S
C894 C896 1.378 . S
C894 C898 1.350 . S
C895 C898 1.463 . S
C895 C900 1.350 . S
C895 N903 1.427 . S
C896 H887 0.930 . S
C896 C894 1.378 . S
C896 C897 1.367 . S
C897 C896 1.367 . S
C897 C899 1.433 . S
C898 C894 1.350 . S
C898 C895 1.463 . S
C898 N902 1.427 . S
C899 H889 0.929 . S
C899 C897 1.433 . S
C899 N902 1.384 . S
C900 H891 0.929 . S
C900 C892 1.378 . S
C900 C895 1.350 . S
C901 H888 0.929 . S
C901 C893 1.433 . S
C901 N903 1.384 . S
N902 C898 1.427 . S
N902 C899 1.384 . S
N903 C895 1.427 . S
N903 C901 1.384 . S
H904 C910 0.930 . S
H905 C914 0.930 . S
H906 C919 0.929 . S
H907 C917 0.929 . S
H908 C912 0.929 . S
H909 C918 0.929 . S
C910 H904 0.930 . S
C910 C911 1.367 . S
C910 C918 1.378 . S
C911 C910 1.367 . S
C911 C919 1.433 . S
C912 H908 0.929 . S
C912 C914 1.378 . S
C912 C916 1.350 . S
C913 C916 1.463 . S
C913 C918 1.350 . S
C913 N921 1.427 . S
C914 H905 0.930 . S
C914 C912 1.378 . S
C914 C915 1.367 . S
C915 C914 1.367 . S
C915 C917 1.433 . S
C916 C912 1.350 . S
C916 C913 1.463 . S
C916 N920 1.427 . S
C917 H907 0.929 . S
C917 C915 1.433 . S
C917 N920 1.384 . S
C918 H909 0.929 . S
C918 C910 1.378 . S
C918 C913 1.350 . S
C919 H906 0.929 . S
C919 C911 1.433 . S
C919 N921 1.384 . S
N920 C916 1.427 . S
N920 C917 1.384 . S
N921 C913 1.427 . S
N921 C919 1.384 . S
H922 C928 0.930 . S
H923 C932 0.930 . S
H924 C937 0.929 . S
H925 C935 0.929 . S
H926 C930 0.929 . S
H927 C936 0.929 . S
C928 H922 0.930 . S
C928 C929 1.367 . S
C928 C936 1.378 . S
C929 C928 1.367 . S
C929 C937 1.433 . S
C930 H926 0.929 . S
C930 C932 1.378 . S
C930 C934 1.350 . S
C931 C934 1.463 . S
C931 C936 1.350 . S
C931 N939 1.427 . S
C932 H923 0.930 . S
C932 C930 1.378 . S
C932 C933 1.367 . S
C933 C932 1.367 . S
C933 C935 1.433 . S
C934 C930 1.350 . S
C934 C931 1.463 . S
C934 N938 1.427 . S
C935 H925 0.929 . S
C935 C933 1.433 . S
C935 N938 1.384 . S
C936 H927 0.929 . S
C936 C928 1.378 . S
C936 C931 1.350 . S
C937 H924 0.929 . S
C937 C929 1.433 . S
C937 N939 1.384 . S
N938 C934 1.427 . S
N938 C935 1.384 . S
N939 C931 1.427 . S
N939 C937 1.384 . S
H940 C946 0.930 . S
H941 C950 0.930 . S
H942 C955 0.929 . S
H943 C953 0.929 . S
H944 C948 0.929 . S
H945 C954 0.929 . S
C946 H940 0.930 . S
C946 C947 1.367 . S
C946 C954 1.378 . S
C947 C946 1.367 . S
C947 C955 1.433 . S
C948 H944 0.929 . S
C948 C950 1.378 . S
C948 C952 1.350 . S
C949 C952 1.463 . S
C949 C954 1.350 . S
C949 N957 1.427 . S
C950 H941 0.930 . S
C950 C948 1.378 . S
C950 C951 1.367 . S
C951 C950 1.367 . S
C951 C953 1.433 . S
C952 C948 1.350 . S
C952 C949 1.463 . S
C952 N956 1.427 . S
C953 H943 0.929 . S
C953 C951 1.433 . S
C953 N956 1.384 . S
C954 H945 0.929 . S
C954 C946 1.378 . S
C954 C949 1.350 . S
C955 H942 0.929 . S
C955 C947 1.433 . S
C955 N957 1.384 . S
N956 C952 1.427 . S
N956 C953 1.384 . S
N957 C949 1.427 . S
N957 C955 1.384 . S
H958 C964 0.930 . S
H959 C968 0.930 . S
H960 C973 0.929 . S
H961 C971 0.929 . S
H962 C966 0.929 . S
H963 C972 0.929 . S
C964 H958 0.930 . S
C964 C965 1.367 . S
C964 C972 1.378 . S
C965 C964 1.367 . S
C965 C973 1.433 . S
C966 H962 0.929 . S
C966 C968 1.378 . S
C966 C970 1.350 . S
C967 C970 1.463 . S
C967 C972 1.350 . S
C967 N975 1.427 . S
C968 H959 0.930 . S
C968 C966 1.378 . S
C968 C969 1.367 . S
C969 C968 1.367 . S
C969 C971 1.433 . S
C970 C966 1.350 . S
C970 C967 1.463 . S
C970 N974 1.427 . S
C971 H961 0.929 . S
C971 C969 1.433 . S
C971 N974 1.384 . S
C972 H963 0.929 . S
C972 C964 1.378 . S
C972 C967 1.350 . S
C973 H960 0.929 . S
C973 C965 1.433 . S
C973 N975 1.384 . S
N974 C970 1.427 . S
N974 C971 1.384 . S
N975 C967 1.427 . S
N975 C973 1.384 . S
H976 C982 0.930 . S
H977 C986 0.930 . S
H978 C991 0.929 . S
H979 C989 0.929 . S
H980 C984 0.929 . S
H981 C990 0.929 . S
C982 H976 0.930 . S
C982 C983 1.367 . S
C982 C990 1.378 . S
C983 C982 1.367 . S
C983 C991 1.433 . S
C984 H980 0.929 . S
C984 C986 1.378 . S
C984 C988 1.350 . S
C985 C988 1.463 . S
C985 C990 1.350 . S
C985 N993 1.427 . S
C986 H977 0.930 . S
C986 C984 1.378 . S
C986 C987 1.367 . S
C987 C986 1.367 . S
C987 C989 1.433 . S
C988 C984 1.350 . S
C988 C985 1.463 . S
C988 N992 1.427 . S
C989 H979 0.929 . S
C989 C987 1.433 . S
C989 N992 1.384 . S
C990 H981 0.929 . S
C990 C982 1.378 . S
C990 C985 1.350 . S
C991 H978 0.929 . S
C991 C983 1.433 . S
C991 N993 1.384 . S
N992 C988 1.427 . S
N992 C989 1.384 . S
N993 C985 1.427 . S
N993 C991 1.384 . S
H994 C1000 0.930 . S
H995 C1004 0.930 . S
H996 C1009 0.929 . S
H997 C1007 0.929 . S
H998 C1002 0.929 . S
H999 C1008 0.929 . S
C1000 H994 0.930 . S
C1000 C1001 1.367 . S
C1000 C1008 1.378 . S
C1001 C1000 1.367 . S
C1001 C1009 1.433 . S
C1002 H998 0.929 . S
C1002 C1004 1.378 . S
C1002 C1006 1.350 . S
C1003 C1006 1.463 . S
C1003 C1008 1.350 . S
C1003 N1011 1.427 . S
C1004 H995 0.930 . S
C1004 C1002 1.378 . S
C1004 C1005 1.367 . S
C1005 C1004 1.367 . S
C1005 C1007 1.433 . S
C1006 C1002 1.350 . S
C1006 C1003 1.463 . S
C1006 N1010 1.427 . S
C1007 H997 0.929 . S
C1007 C1005 1.433 . S
C1007 N1010 1.384 . S
C1008 H999 0.929 . S
C1008 C1000 1.378 . S
C1008 C1003 1.350 . S
C1009 H996 0.929 . S
C1009 C1001 1.433 . S
C1009 N1011 1.384 . S
N1010 C1006 1.427 . S
N1010 C1007 1.384 . S
N1011 C1003 1.427 . S
N1011 C1009 1.384 . S
H1012 C1018 0.930 . S
H1013 C1022 0.930 . S
H1014 C1027 0.929 . S
H1015 C1025 0.929 . S
H1016 C1020 0.929 . S
H1017 C1026 0.929 . S
C1018 H1012 0.930 . S
C1018 C1019 1.367 . S
C1018 C1026 1.378 . S
C1019 C1018 1.367 . S
C1019 C1027 1.433 . S
C1020 H1016 0.929 . S
C1020 C1022 1.378 . S
C1020 C1024 1.350 . S
C1021 C1024 1.463 . S
C1021 C1026 1.350 . S
C1021 N1029 1.427 . S
C1022 H1013 0.930 . S
C1022 C1020 1.378 . S
C1022 C1023 1.367 . S
C1023 C1022 1.367 . S
C1023 C1025 1.433 . S
C1024 C1020 1.350 . S
C1024 C1021 1.463 . S
C1024 N1028 1.427 . S
C1025 H1015 0.929 . S
C1025 C1023 1.433 . S
C1025 N1028 1.384 . S
C1026 H1017 0.929 . S
C1026 C1018 1.378 . S
C1026 C1021 1.350 . S
C1027 H1014 0.929 . S
C1027 C1019 1.433 . S
C1027 N1029 1.384 . S
N1028 C1024 1.427 . S
N1028 C1025 1.384 . S
N1029 C1021 1.427 . S
N1029 C1027 1.384 . S
H1030 C1036 0.930 . S
H1031 C1040 0.930 . S
H1032 C1045 0.929 . S
H1033 C1043 0.929 . S
H1034 C1038 0.929 . S
H1035 C1044 0.929 . S
C1036 H1030 0.930 . S
C1036 C1037 1.367 . S
C1036 C1044 1.378 . S
C1037 C1036 1.367 . S
C1037 C1045 1.433 . S
C1038 H1034 0.929 . S
C1038 C1040 1.378 . S
C1038 C1042 1.350 . S
C1039 C1042 1.463 . S
C1039 C1044 1.350 . S
C1039 N1047 1.427 . S
C1040 H1031 0.930 . S
C1040 C1038 1.378 . S
C1040 C1041 1.367 . S
C1041 C1040 1.367 . S
C1041 C1043 1.433 . S
C1042 C1038 1.350 . S
C1042 C1039 1.463 . S
C1042 N1046 1.427 . S
C1043 H1033 0.929 . S
C1043 C1041 1.433 . S
C1043 N1046 1.384 . S
C1044 H1035 0.929 . S
C1044 C1036 1.378 . S
C1044 C1039 1.350 . S
C1045 H1032 0.929 . S
C1045 C1037 1.433 . S
C1045 N1047 1.384 . S
N1046 C1042 1.427 . S
N1046 C1043 1.384 . S
N1047 C1039 1.427 . S
N1047 C1045 1.384 . S
C483 C384 1.329 . S
C479 C8 1.311 . S
C501 C398 1.325 . S
C497 C61 1.304 . S
C519 C411 1.326 . S
C515 C107 1.314 . S
C533 C139 1.322 . S
C537 C378 1.328 . S
C551 C192 1.325 . S
C555 C371 1.341 . S
C569 C238 1.325 . S
C573 C391 1.329 . S
C591 C399 1.325 . S
C587 C284 1.320 . S
C609 C412 1.331 . S
C605 C330 1.326 . S
C623 C100 1.319 . S
C627 C438 1.330 . S
C645 C456 1.319 . S
C641 C160 1.314 . S
C659 C15 1.319 . S
C663 C463 1.328 . S
C681 C430 1.330 . S
C677 C54 1.316 . S
C695 C291 1.319 . S
C699 C423 1.336 . S
C713 C337 1.324 . S
C717 C437 1.332 . S
C735 C449 1.331 . S
C731 C199 1.310 . S
C749 C245 1.315 . S
C753 C464 1.330 . S
C771 C397 1.733 . S
C767 C1 1.748 . S
C789 C410 1.735 . S
C785 C68 1.747 . S
C803 C114 1.740 . S
C807 C373 1.735 . S
C821 C146 1.742 . S
C825 C385 1.716 . S
C839 C185 1.735 . S
C843 C417 1.719 . S
C861 C372 1.720 . S
C857 C231 1.737 . S
C879 C386 1.736 . S
C875 C277 1.747 . S
C897 C404 1.725 . S
C893 C323 1.745 . S
C915 C451 1.732 . S
C911 C93 1.748 . S
C933 C462 1.739 . S
C929 C153 1.742 . S
C947 C22 1.737 . S
C951 C425 1.735 . S
C969 C443 1.722 . S
C965 C47 1.746 . S
C987 C469 1.711 . S
C983 C298 1.727 . S
C1001 C344 1.729 . S
C1005 C424 1.713 . S
C1023 C436 1.728 . S
C1019 C206 1.740 . S
C1041 C450 1.723 . S
C1037 C252 1.739 . S
