# Generated by pormake.
# Topology rtl, (3,6)-cn, num edge types: 1
# Building blocks:
#     Node 0, Type 0, BuildingBlock: MIDCAF_clean_linker_0, # of connection points: 3
#     Node 1, Type 0, BuildingBlock: MIDCAF_clean_linker_0, # of connection points: 3
#     Node 2, Type 0, BuildingBlock: MIDCAF_clean_linker_0, # of connection points: 3
#     Node 3, Type 0, BuildingBlock: MIDCAF_clean_linker_0, # of connection points: 3
#     Node 4, Type 1, BuildingBlock: KUMJIN_clean_sbu_1, # of connection points: 6
#     Node 5, Type 1, BuildingBlock: KUMJIN_clean_sbu_1, # of connection points: 6
#     Edge 6, Type (0, 1), BuildingBlock: AJUNOK_clean_linker_0, # of connection points: 2
#     Edge 7, Type (0, 1), BuildingBlock: AJUNOK_clean_linker_0, # of connection points: 2
#     Edge 8, Type (0, 1), BuildingBlock: AJUNOK_clean_linker_0, # of connection points: 2
#     Edge 9, Type (0, 1), BuildingBlock: AJUNOK_clean_linker_0, # of connection points: 2
#     Edge 10, Type (0, 1), BuildingBlock: AJUNOK_clean_linker_0, # of connection points: 2
#     Edge 11, Type (0, 1), BuildingBlock: AJUNOK_clean_linker_0, # of connection points: 2
#     Edge 12, Type (0, 1), BuildingBlock: AJUNOK_clean_linker_0, # of connection points: 2
#     Edge 13, Type (0, 1), BuildingBlock: AJUNOK_clean_linker_0, # of connection points: 2
#     Edge 14, Type (0, 1), BuildingBlock: AJUNOK_clean_linker_0, # of connection points: 2
#     Edge 15, Type (0, 1), BuildingBlock: AJUNOK_clean_linker_0, # of connection points: 2
#     Edge 16, Type (0, 1), BuildingBlock: AJUNOK_clean_linker_0, # of connection points: 2
#     Edge 17, Type (0, 1), BuildingBlock: AJUNOK_clean_linker_0, # of connection points: 2
# Relax obj value: 0.019
# Max RMSD: 0.112
# Mean RMSD: 0.067
data_MOF--net-rtl--node1-KUMJIN_clean_sbu_1--node2-MIDCAF_clean_linker_0--edge1-AJUNOK_clean_linker_0
_symmetry_space_group_name_H-M    P1
_symmetry_Int_Tables_number       1
_symmetry_cell_setting            triclinic
loop_
_symmetry_equiv_pos_as_xyz
'x, y, z'
_cell_length_a     31.110457
_cell_length_b     31.869931
_cell_length_c     28.366531
_cell_angle_alpha  77.236165
_cell_angle_beta   99.516023
_cell_angle_gamma 90.911833
loop_
_atom_site_label
_atom_site_type_symbol
_atom_site_fract_x
_atom_site_fract_y
_atom_site_fract_z
_atom_type_partial_charge
C0 C 0.13415 0.90087 0.13753 0.0
C1 C 0.1505 0.87993 0.18601 0.0
C2 C 0.18123 0.84609 0.19447 0.0
C3 C 0.19535 0.83359 0.15505 0.0
H4 H 0.29185 0.75935 0.11074 0.0
H5 H 0.347 0.70379 0.11618 0.0
H6 H 0.29489 0.69284 0.96867 0.0
H7 H 0.24084 0.74874 0.96257 0.0
H8 H 0.18266 0.82074 0.89328 0.0
H9 H 0.14778 0.85569 0.81078 0.0
H10 H 0.09993 0.95818 0.8666 0.0
H11 H 0.13479 0.92346 0.94955 0.0
H12 H 0.13435 0.90542 0.06161 0.0
H13 H 0.10948 0.92619 0.12971 0.0
H14 H 0.19417 0.82925 0.23154 0.0
H15 H 0.21881 0.80722 0.16269 0.0
N16 N 0.22057 0.80754 0.07026 0.0
N17 N 0.21111 0.81466 0.98501 0.0
N18 N 0.17276 0.86055 0.0178 0.0
C19 C 0.23045 0.79442 0.03066 0.0
C20 C 0.1824 0.84778 0.97819 0.0
C21 C 0.19146 0.84065 0.06395 0.0
C22 C 0.26208 0.75871 0.03617 0.0
C23 C 0.29197 0.74482 0.07966 0.0
C24 C 0.32342 0.71289 0.08285 0.0
C25 C 0.32516 0.69396 0.04282 0.0
C26 C 0.29467 0.70722 0.99986 0.0
C27 C 0.2636 0.73922 0.99652 0.0
C28 C 0.16154 0.86929 0.92811 0.0
C29 C 0.16489 0.8508 0.88815 0.0
C30 C 0.14484 0.87064 0.84095 0.0
C31 C 0.12144 0.90955 0.83264 0.0
C32 C 0.11822 0.92834 0.87224 0.0
C33 C 0.13796 0.9083 0.91965 0.0
C34 C 0.17872 0.85454 0.10645 0.0
C35 C 0.1482 0.88855 0.09836 0.0
C36 C 0.62249 0.6003 0.50887 0.0
C37 C 0.64622 0.61056 0.46983 0.0
C38 C 0.68001 0.64011 0.47226 0.0
C39 C 0.68993 0.65898 0.51255 0.0
H40 H 0.79432 0.71405 0.58879 0.0
H41 H 0.84811 0.76963 0.57487 0.0
H42 H 0.78761 0.84335 0.65785 0.0
H43 H 0.73456 0.78615 0.67387 0.0
H44 H 0.70825 0.67308 0.77113 0.0
H45 H 0.67712 0.64346 0.84527 0.0
H46 H 0.56114 0.60974 0.75654 0.0
H47 H 0.59232 0.63832 0.68237 0.0
H48 H 0.61392 0.6103 0.57915 0.0
H49 H 0.59637 0.57746 0.50811 0.0
H50 H 0.69987 0.64772 0.44364 0.0
H51 H 0.71662 0.6812 0.51299 0.0
N52 N 0.71162 0.69654 0.59555 0.0
N53 N 0.70522 0.70236 0.67508 0.0
N54 N 0.65986 0.65591 0.63593 0.0
C55 C 0.7247 0.71422 0.63469 0.0
C56 C 0.67277 0.67296 0.67596 0.0
C57 C 0.67923 0.66762 0.59551 0.0
C58 C 0.75995 0.74599 0.63199 0.0
C59 C 0.79267 0.74195 0.60446 0.0
C60 C 0.82323 0.77405 0.59601 0.0
C61 C 0.82125 0.81167 0.61375 0.0
C62 C 0.78978 0.81489 0.64333 0.0
C63 C 0.75949 0.78218 0.6526 0.0
C64 C 0.65283 0.658 0.72077 0.0
C65 C 0.67597 0.65969 0.76733 0.0
C66 C 0.65833 0.64262 0.80976 0.0
C67 C 0.61686 0.62437 0.80639 0.0
C68 C 0.59315 0.62377 0.75996 0.0
C69 C 0.61111 0.64001 0.71761 0.0
C70 C 0.66668 0.6485 0.55201 0.0
C71 C 0.63256 0.61912 0.54954 0.0
C72 C 0.86099 0.0946 0.95348 0.0
C73 C 0.86206 0.12805 0.91207 0.0
C74 C 0.8427 0.16812 0.91022 0.0
C75 C 0.82277 0.17452 0.94889 0.0
H76 H 0.73508 0.2561 0.9905 0.0
H77 H 0.68471 0.31547 0.98658 0.0
H78 H 0.65342 0.25248 0.12751 0.0
H79 H 0.70443 0.19405 0.1323 0.0
H80 H 0.78327 0.1399 0.20622 0.0
H81 H 0.82233 0.11043 0.28853 0.0
H82 H 0.91514 0.04752 0.22823 0.0
H83 H 0.87666 0.07729 0.14557 0.0
H84 H 0.84213 0.07495 0.02414 0.0
H85 H 0.87527 0.06326 0.9559 0.0
H86 H 0.84405 0.195 0.87961 0.0
H87 H 0.80878 0.20593 0.94675 0.0
N88 N 0.77341 0.1796 0.02764 0.0
N89 N 0.77446 0.16358 0.11261 0.0
N90 N 0.82124 0.12604 0.07908 0.0
C91 C 0.75769 0.1867 0.06725 0.0
C92 C 0.80634 0.13335 0.11895 0.0
C93 C 0.80487 0.14886 0.03336 0.0
C94 C 0.72424 0.22067 0.06203 0.0
C95 C 0.71723 0.25482 0.02048 0.0
C96 C 0.68841 0.28877 0.0182 0.0
C97 C 0.66594 0.28903 0.05726 0.0
C98 C 0.67135 0.25383 0.09759 0.0
C99 C 0.7004 0.22023 0.10014 0.0
C100 C 0.82707 0.11143 0.16907 0.0
C101 C 0.81178 0.11952 0.2103 0.0
C102 C 0.83399 0.10257 0.25751 0.0
C103 C 0.87199 0.07732 0.26446 0.0
C104 C 0.88632 0.06762 0.22361 0.0
C105 C 0.86408 0.08448 0.17635 0.0
C106 C 0.82277 0.14134 0.99073 0.0
C107 C 0.84188 0.10125 0.9925 0.0
C108 C 0.38783 0.41729 0.56441 0.0
C109 C 0.37602 0.40113 0.61066 0.0
C110 C 0.35068 0.36402 0.6173 0.0
C111 C 0.33667 0.34411 0.57835 0.0
H112 H 0.22407 0.28606 0.51274 0.0
H113 H 0.17011 0.23075 0.52713 0.0
H114 H 0.21719 0.16609 0.4264 0.0
H115 H 0.27051 0.22287 0.41029 0.0
H116 H 0.30341 0.32486 0.31682 0.0
H117 H 0.33522 0.35182 0.2424 0.0
H118 H 0.44937 0.3907 0.32983 0.0
H119 H 0.4179 0.3644 0.40374 0.0
H120 H 0.38369 0.41069 0.49037 0.0
H121 H 0.4072 0.44591 0.55806 0.0
H122 H 0.34204 0.35002 0.65281 0.0
H123 H 0.31713 0.31563 0.58482 0.0
N124 N 0.30104 0.3102 0.49343 0.0
N125 N 0.30546 0.30086 0.41444 0.0
N126 N 0.35143 0.34917 0.44931 0.0
C127 C 0.28693 0.29077 0.45574 0.0
C128 C 0.33785 0.33021 0.4111 0.0
C129 C 0.33325 0.33938 0.49059 0.0
C130 C 0.25202 0.25859 0.46083 0.0
C131 C 0.22293 0.26017 0.49345 0.0
C132 C 0.19217 0.22825 0.50202 0.0
C133 C 0.19023 0.19328 0.47909 0.0
C134 C 0.21807 0.19249 0.44488 0.0
C135 C 0.24859 0.22496 0.43567 0.0
C136 C 0.35803 0.34259 0.36622 0.0
C137 C 0.33553 0.33861 0.32019 0.0
C138 C 0.3536 0.35413 0.27763 0.0
C139 C 0.39485 0.37298 0.28054 0.0
C140 C 0.41781 0.37575 0.32664 0.0
C141 C 0.39956 0.36094 0.36891 0.0
C142 C 0.34824 0.36044 0.53197 0.0
C143 C 0.37423 0.39713 0.52557 0.0
Eu144 Eu 0.04229 0.95917 0.52612 0.0
C145 C 0.94261 0.12718 0.4755 0.0
N146 N 0.97695 0.11552 0.51246 0.0
C147 C 0.01213 0.1816 0.48389 0.0
C148 C 0.943 0.16549 0.43943 0.0
C149 C 0.00985 0.1436 0.5191 0.0
C150 C 0.97905 0.19211 0.44322 0.0
C151 C 0.86816 0.11501 0.44009 0.0
C152 C 0.90554 0.10243 0.47582 0.0
C153 C 0.8694 0.1517 0.40239 0.0
C154 C 0.90676 0.17687 0.40203 0.0
Eu155 Eu 0.97188 0.04771 0.56629 0.0
N156 N 0.90563 0.06656 0.51204 0.0
C157 C 0.83047 0.09069 0.44388 0.0
C158 C 0.86845 0.04399 0.51761 0.0
C159 C 0.83042 0.05544 0.48327 0.0
H160 H 0.03446 0.13691 0.55158 0.0
H161 H 0.80123 0.03691 0.48697 0.0
H162 H 0.0145 0.86384 0.58721 0.0
H163 H 0.20585 0.02657 0.52899 0.0
H164 H 0.86873 0.01646 0.5478 0.0
H165 H 0.80107 0.0993 0.41714 0.0
H166 H 0.13043 0.01504 0.49197 0.0
H167 H 0.03911 0.20301 0.48849 0.0
H168 H 0.84126 0.16149 0.37408 0.0
H169 H 0.90676 0.20585 0.3736 0.0
H170 H 0.04443 0.80762 0.66045 0.0
H171 H 0.98066 0.22179 0.41624 0.0
H172 H 0.23756 0.98202 0.61005 0.0
N173 N 0.0703 0.90277 0.59282 0.0
C174 C 0.1114 0.90671 0.616 0.0
C175 C 0.06352 0.83543 0.64846 0.0
C176 C 0.12959 0.87599 0.65815 0.0
C177 C 0.04675 0.86706 0.60706 0.0
C178 C 0.10485 0.84027 0.67463 0.0
N179 N 0.11763 0.96803 0.55386 0.0
C180 C 0.14314 0.99669 0.52828 0.0
C181 C 0.17909 0.94519 0.61818 0.0
C182 C 0.1356 0.94088 0.59633 0.0
C183 C 0.20404 0.97755 0.59447 0.0
C184 C 0.18625 0.00277 0.54875 0.0
H185 H 0.11765 0.81592 0.7069 0.0
H186 H 0.18635 0.85868 0.71468 0.0
H187 H 0.22986 0.91928 0.67953 0.0
O188 O 0.07937 0.93317 0.47921 0.0
O189 O 0.0318 0.95284 0.60456 0.0
O190 O 0.03596 0.02213 0.61318 0.0
O191 O 0.01337 0.91358 0.48364 0.0
O192 O 0.05617 0.03039 0.49974 0.0
O193 O 0.04403 0.05984 0.5636 0.0
O194 O 0.9468 0.03389 0.63574 0.0
O195 O 0.94754 0.02119 0.49875 0.0
O196 O 0.01034 0.01569 0.4693 0.0
O197 O 0.95128 0.09954 0.5969 0.0
O198 O 0.94814 0.97908 0.58723 0.0
O199 O 0.97263 0.93996 0.53548 0.0
C200 C 0.04301 0.98094 0.63151 0.0
C201 C 0.03519 0.92451 0.40615 0.0
C202 C 0.05562 0.92621 0.32644 0.0
C203 C 0.01721 0.94986 0.30354 0.0
C204 C 0.99659 0.94766 0.38244 0.0
C205 C 0.98778 0.96029 0.33147 0.0
C206 C 0.06442 0.91335 0.37784 0.0
C207 C 0.06481 0.05898 0.52696 0.0
C208 C 0.04595 0.9139 0.46014 0.0
C209 C 0.17199 0.88153 0.68176 0.0
C210 C 0.19671 0.91611 0.66182 0.0
C211 C 0.9685 0.0242 0.46181 0.0
C212 C 0.96503 0.08602 0.68256 0.0
C213 C 0.95956 0.10415 0.76056 0.0
C214 C 0.00449 0.11244 0.76702 0.0
C215 C 0.00977 0.09442 0.68965 0.0
C216 C 0.9402 0.09027 0.71828 0.0
C217 C 0.02937 0.1074 0.73185 0.0
C218 C 0.94653 0.94589 0.56605 0.0
C219 C 0.94389 0.07423 0.63724 0.0
H220 H 0.00977 0.9598 0.26395 0.0
H221 H 0.97326 0.9562 0.40327 0.0
H222 H 0.9581 0.97826 0.31357 0.0
H223 H 0.09424 0.89548 0.39571 0.0
H224 H 0.02031 0.12341 0.79898 0.0
H225 H 0.02934 0.09141 0.66228 0.0
H226 H 0.9059 0.08269 0.71304 0.0
H227 H 0.06383 0.11412 0.73704 0.0
Eu228 Eu 0.45959 0.48438 0.99575 0.0
C229 C 0.62123 0.58589 0.04366 0.0
N230 N 0.61668 0.54361 0.06359 0.0
C231 C 0.68671 0.52702 0.04699 0.0
C232 C 0.65799 0.60015 0.02197 0.0
C233 C 0.64927 0.51433 0.06733 0.0
C234 C 0.69072 0.56999 0.02338 0.0
C235 C 0.5939 0.65926 0.02725 0.0
C236 C 0.5895 0.61491 0.04628 0.0
C237 C 0.62928 0.6735 1.00325 0.0
C238 C 0.6613 0.644 1.00068 0.0
Eu239 Eu 0.55213 0.52397 0.09527 0.0
N240 N 0.55596 0.60008 0.07022 0.0
C241 C 0.5635 0.68812 0.03447 0.0
C242 C 0.5287 0.62844 0.08117 0.0
C243 C 0.53131 0.67268 0.06244 0.0
H244 H 0.6457 0.48104 0.08499 0.0
H245 H 0.50884 0.69487 0.07015 0.0
H246 H 0.38445 0.56512 0.95536 0.0
H247 H 0.43066 0.31508 0.06993 0.0
H248 H 0.50505 0.61732 0.10476 0.0
H249 H 0.5657 0.72244 0.02042 0.0
H250 H 0.46977 0.377 0.02781 0.0
H251 H 0.71216 0.50363 0.04901 0.0
H252 H 0.63288 0.7074 0.98788 0.0
H253 H 0.689 0.65556 0.98322 0.0
H254 H 0.31191 0.58317 0.97106 0.0
H255 H 0.71954 0.57967 0.00721 0.0
H256 H 0.36074 0.3274 0.09619 0.0
N257 N 0.3877 0.50284 1.00238 0.0
C258 C 0.36529 0.47156 0.02821 0.0
C259 C 0.32673 0.55178 0.98784 0.0
C260 C 0.32328 0.47987 0.03701 0.0
C261 C 0.36803 0.54166 0.97956 0.0
C262 C 0.3046 0.52102 0.01757 0.0
N263 N 0.4228 0.42319 0.03182 0.0
C264 C 0.43901 0.38225 0.03891 0.0
C265 C 0.35976 0.39623 0.0669 0.0
C266 C 0.38316 0.43031 0.04289 0.0
C267 C 0.37766 0.35447 0.07768 0.0
C268 C 0.4171 0.34736 0.06284 0.0
H269 H 0.27247 0.52879 0.02364 0.0
H270 H 0.2687 0.45245 0.07102 0.0
H271 H 0.30071 0.37915 0.09728 0.0
O272 O 0.47885 0.45728 0.93792 0.0
O273 O 0.47293 0.44802 0.07569 0.0
O274 O 0.48916 0.49934 0.12074 0.0
O275 O 0.41443 0.48489 0.92763 0.0
O276 O 0.52493 0.44866 0.01164 0.0
O277 O 0.55933 0.4547 0.08921 0.0
O278 O 0.5803 0.5488 0.16049 0.0
O279 O 0.56366 0.52325 0.01795 0.0
O280 O 0.49723 0.5447 0.97246 0.0
O281 O 0.58855 0.48105 0.15927 0.0
O282 O 0.48301 0.54986 0.08583 0.0
O283 O 0.45899 0.55403 0.00376 0.0
C284 C 0.46973 0.46383 0.11388 0.0
C285 C 0.44651 0.48863 0.85715 0.0
C286 C 0.43652 0.48646 0.77063 0.0
C287 C 0.45737 0.52614 0.7608 0.0
C288 C 0.4664 0.52861 0.84658 0.0
C289 C 0.47201 0.54716 0.79862 0.0
C290 C 0.4314 0.46775 0.81911 0.0
C291 C 0.55412 0.43587 0.05168 0.0
C292 C 0.44247 0.4678 0.90779 0.0
C293 C 0.30076 0.44655 0.06333 0.0
C294 C 0.31895 0.40479 0.07821 0.0
C295 C 0.53982 0.54394 0.97709 0.0
C296 C 0.62277 0.50199 0.23329 0.0
C297 C 0.64224 0.51686 0.31507 0.0
C298 C 0.67297 0.48264 0.32736 0.0
C299 C 0.65351 0.46789 0.24666 0.0
C300 C 0.61716 0.52645 0.26763 0.0
C301 C 0.67847 0.45839 0.29338 0.0
C302 C 0.45643 0.56578 0.04486 0.0
C303 C 0.59647 0.51106 0.18378 0.0
H304 H 0.46177 0.54111 0.72377 0.0
H305 H 0.47764 0.54525 0.87546 0.0
H306 H 0.48768 0.5779 0.79075 0.0
H307 H 0.41623 0.43669 0.82732 0.0
H308 H 0.69316 0.47486 0.36323 0.0
H309 H 0.65846 0.44868 0.22083 0.0
H310 H 0.59273 0.55213 0.25778 0.0
H311 H 0.70227 0.43219 0.30326 0.0
C312 C 0.13339 0.14121 0.45492 0.0
C313 C 0.15977 0.15751 0.49186 0.0
C314 C 0.10323 0.10879 0.46652 0.0
C315 C 0.09812 0.09176 0.51542 0.0
H316 H 0.13538 0.15422 0.41672 0.0
H317 H 0.08308 0.0977 0.43694 0.0
S318 S 0.16275 0.11952 0.62591 0.0
N319 N 0.18151 0.15099 0.57963 0.0
N320 N 0.12411 0.09121 0.60104 0.0
C321 C 0.12506 0.10689 0.55265 0.0
C322 C 0.15604 0.13943 0.54098 0.0
C323 C 0.38252 0.66485 0.00557 0.0
C324 C 0.35923 0.66123 0.04484 0.0
C325 C 0.41406 0.63389 0.00577 0.0
C326 C 0.42363 0.59843 0.04541 0.0
H327 H 0.37644 0.69195 0.97447 0.0
H328 H 0.43124 0.63784 0.97487 0.0
S329 S 0.37047 0.57249 0.15576 0.0
N330 N 0.34668 0.61812 0.12329 0.0
N331 N 0.40687 0.56059 0.12423 0.0
C332 C 0.40084 0.59442 0.08494 0.0
C333 C 0.36839 0.62565 0.08452 0.0
C334 C 0.87328 0.86821 0.63636 0.0
C335 C 0.85155 0.8475 0.60047 0.0
C336 C 0.90341 0.90064 0.62479 0.0
C337 C 0.91321 0.91321 0.57706 0.0
H338 H 0.86772 0.85863 0.67391 0.0
H339 H 0.91999 0.91517 0.65371 0.0
S340 S 0.86148 0.87331 0.46842 0.0
N341 N 0.83892 0.84537 0.51397 0.0
N342 N 0.89648 0.90514 0.49292 0.0
C343 C 0.89093 0.89374 0.54059 0.0
C344 C 0.85987 0.86122 0.55211 0.0
C345 C 0.60677 0.34347 0.01511 0.0
C346 C 0.63778 0.32638 0.05666 0.0
C347 C 0.57972 0.37856 0.01404 0.0
C348 C 0.5827 0.39811 0.05445 0.0
H349 H 0.60305 0.32934 0.9833 0.0
H350 H 0.5564 0.39041 0.98105 0.0
S351 S 0.66026 0.36608 0.17166 0.0
N352 N 0.67127 0.33233 0.13854 0.0
N353 N 0.62004 0.39745 0.13732 0.0
C354 C 0.61386 0.38124 0.09628 0.0
C355 C 0.64146 0.34563 0.09718 0.0
C356 C 0.11688 0.86018 0.26223 0.0
C357 C 0.133 0.89202 0.22695 0.0
C358 C 0.09374 0.8714 0.29631 0.0
C359 C 0.08586 0.91477 0.29597 0.0
H360 H 0.12016 0.82646 0.26187 0.0
H361 H 0.08005 0.84609 0.32139 0.0
S362 S 0.12694 0.00998 0.21662 0.0
N363 N 0.14412 0.96853 0.1981 0.0
N364 N 0.09977 0.98944 0.26141 0.0
C365 C 0.104 0.94674 0.263 0.0
C366 C 0.12782 0.93541 0.22868 0.0
C367 C 0.56022 0.62127 0.86043 0.0
C368 C 0.59879 0.6046 0.85122 0.0
C369 C 0.54176 0.60186 0.90171 0.0
C370 C 0.56083 0.56467 0.93476 0.0
H371 H 0.54424 0.64951 0.83553 0.0
H372 H 0.51213 0.61588 0.90759 0.0
S373 S 0.6601 0.50661 0.92451 0.0
N374 N 0.65474 0.54829 0.87738 0.0
N375 N 0.61917 0.51072 0.95372 0.0
C376 C 0.59919 0.54752 0.92557 0.0
C377 C 0.61834 0.56771 0.88404 0.0
C378 C 0.87696 0.04113 0.35294 0.0
C379 C 0.89751 0.06276 0.31419 0.0
C380 C 0.90031 0.02835 0.40058 0.0
C381 C 0.94479 0.03735 0.4112 0.0
H382 H 0.84265 0.03385 0.34631 0.0
H383 H 0.88344 0.01111 0.42923 0.0
S384 S 0.01329 0.09434 0.32283 0.0
N385 N 0.96463 0.09317 0.28955 0.0
N386 N 0.00843 0.0695 0.37921 0.0
C387 C 0.96572 0.05886 0.37275 0.0
C388 C 0.94206 0.07158 0.32422 0.0
C389 C 0.43413 0.43581 0.66094 0.0
C390 C 0.39063 0.42275 0.65186 0.0
C391 C 0.44869 0.45645 0.69933 0.0
C392 C 0.42041 0.46452 0.73033 0.0
H393 H 0.45727 0.42966 0.63849 0.0
H394 H 0.48247 0.46574 0.70516 0.0
S395 S 0.30286 0.43978 0.72032 0.0
N396 N 0.31889 0.42173 0.67563 0.0
N397 N 0.34663 0.45971 0.74834 0.0
C398 C 0.37686 0.45196 0.72159 0.0
C399 C 0.36189 0.43128 0.68227 0.0
C400 C 0.63635 0.54297 0.43833 0.0
C401 C 0.63854 0.58811 0.42848 0.0
C402 C 0.63568 0.52043 0.40102 0.0
C403 C 0.63717 0.54206 0.35231 0.0
H404 H 0.63717 0.52473 0.47554 0.0
H405 H 0.63513 0.48561 0.41067 0.0
S406 S 0.63847 0.66043 0.30637 0.0
N407 N 0.63798 0.65394 0.36567 0.0
N408 N 0.63816 0.6115 0.29581 0.0
C409 C 0.63713 0.58732 0.3415 0.0
C410 C 0.63758 0.61031 0.37951 0.0
C411 C 0.92646 0.10046 0.88451 0.0
C412 C 0.88539 0.12155 0.87235 0.0
C413 C 0.94985 0.09468 0.84819 0.0
C414 C 0.93331 0.10995 0.79812 0.0
H415 H 0.94108 0.08882 0.92252 0.0
H416 H 0.98118 0.07798 0.85952 0.0
S417 S 0.82708 0.16707 0.74658 0.0
N418 N 0.82851 0.15658 0.80648 0.0
N419 N 0.87344 0.14766 0.73823 0.0
C420 C 0.89224 0.13106 0.78535 0.0
C421 C 0.86815 0.13651 0.8224 0.0
C422 C 0.38908 0.42517 0.19951 0.0
C423 C 0.41294 0.39259 0.23562 0.0
C424 C 0.40751 0.44784 0.15965 0.0
C425 C 0.44995 0.438 0.15408 0.0
H426 H 0.35657 0.4343 0.20309 0.0
H427 H 0.38865 0.47352 0.13337 0.0
S428 S 0.52503 0.35412 0.23631 0.0
N429 N 0.48077 0.35076 0.26204 0.0
N430 N 0.51478 0.39287 0.18627 0.0
C431 C 0.4736 0.4047 0.18878 0.0
C432 C 0.45522 0.38207 0.22979 0.0
C433 C 0.07088 0.90582 0.75602 0.0
C434 C 0.09982 0.92979 0.78258 0.0
C435 C 0.05157 0.92336 0.7077 0.0
C436 C 0.06111 0.96519 0.68386 0.0
H437 H 0.06321 0.8732 0.77272 0.0
H438 H 0.02921 0.90378 0.68878 0.0
S439 S 0.13476 0.0411 0.73786 0.0
N440 N 0.13664 0.99757 0.78237 0.0
N441 N 0.10088 0.0304 0.69088 0.0
C442 C 0.0893 0.98984 0.7104 0.0
C443 C 0.10865 0.97209 0.7599 0.0
loop_
_geom_bond_atom_site_label_1
_geom_bond_atom_site_label_2
_geom_bond_distance
_geom_bond_site_symmetry_2
_ccdc_geom_bond_type
C0 C1 1.384 . S
C0 H13 0.947 . S
C0 C35 1.382 . S
C1 C0 1.384 . S
C1 C2 1.378 . S
C2 C1 1.378 . S
C2 C3 1.378 . S
C2 H14 0.952 . S
C3 C2 1.378 . S
C3 H15 0.950 . S
C3 C34 1.383 . S
H4 C23 0.947 . S
H5 C24 0.946 . S
H6 C26 0.953 . S
H7 C27 0.945 . S
H8 C29 0.952 . S
H9 C30 0.949 . S
H10 C32 0.950 . S
H11 C33 0.948 . S
H12 C35 0.951 . S
H13 C0 0.947 . S
H14 C2 0.952 . S
H15 C3 0.950 . S
N16 C19 1.382 . S
N16 C21 1.363 . S
N17 C19 1.371 1_556 S
N17 C20 1.372 . S
N18 C20 1.361 1_554 S
N18 C21 1.377 . S
C19 N16 1.382 . S
C19 N17 1.371 1_554 S
C19 C22 1.480 . S
C20 N17 1.372 . S
C20 N18 1.361 1_556 S
C20 C28 1.457 . S
C21 N16 1.363 . S
C21 N18 1.377 . S
C21 C34 1.479 . S
C22 C19 1.480 . S
C22 C23 1.383 . S
C22 C27 1.385 1_554 S
C23 H4 0.947 . S
C23 C22 1.383 . S
C23 C24 1.388 . S
C24 H5 0.946 . S
C24 C23 1.388 . S
C24 C25 1.384 . S
C25 C24 1.384 . S
C25 C26 1.377 1_554 S
C26 H6 0.953 . S
C26 C25 1.377 1_556 S
C26 C27 1.369 . S
C27 H7 0.945 . S
C27 C22 1.385 1_556 S
C27 C26 1.369 . S
C28 C20 1.457 . S
C28 C29 1.372 . S
C28 C33 1.364 . S
C29 H8 0.952 . S
C29 C28 1.372 . S
C29 C30 1.389 . S
C30 H9 0.949 . S
C30 C29 1.389 . S
C30 C31 1.387 . S
C31 C30 1.387 . S
C31 C32 1.372 . S
C32 H10 0.950 . S
C32 C31 1.372 . S
C32 C33 1.379 . S
C33 H11 0.948 . S
C33 C28 1.364 . S
C33 C32 1.379 . S
C34 C3 1.383 . S
C34 C21 1.479 . S
C34 C35 1.398 . S
C35 C0 1.382 . S
C35 H12 0.951 . S
C35 C34 1.398 . S
C36 C37 1.384 . S
C36 H49 0.947 . S
C36 C71 1.382 . S
C37 C36 1.384 . S
C37 C38 1.378 . S
C38 C37 1.378 . S
C38 C39 1.378 . S
C38 H50 0.952 . S
C39 C38 1.378 . S
C39 H51 0.950 . S
C39 C70 1.383 . S
H40 C59 0.947 . S
H41 C60 0.946 . S
H42 C62 0.953 . S
H43 C63 0.945 . S
H44 C65 0.952 . S
H45 C66 0.949 . S
H46 C68 0.950 . S
H47 C69 0.948 . S
H48 C71 0.951 . S
H49 C36 0.947 . S
H50 C38 0.952 . S
H51 C39 0.950 . S
N52 C55 1.382 . S
N52 C57 1.363 . S
N53 C55 1.371 . S
N53 C56 1.372 . S
N54 C56 1.361 . S
N54 C57 1.377 . S
C55 N52 1.382 . S
C55 N53 1.371 . S
C55 C58 1.480 . S
C56 N53 1.372 . S
C56 N54 1.361 . S
C56 C64 1.457 . S
C57 N52 1.363 . S
C57 N54 1.377 . S
C57 C70 1.479 . S
C58 C55 1.480 . S
C58 C59 1.383 . S
C58 C63 1.385 . S
C59 H40 0.947 . S
C59 C58 1.383 . S
C59 C60 1.388 . S
C60 H41 0.946 . S
C60 C59 1.388 . S
C60 C61 1.384 . S
C61 C60 1.384 . S
C61 C62 1.377 . S
C62 H42 0.953 . S
C62 C61 1.377 . S
C62 C63 1.369 . S
C63 H43 0.945 . S
C63 C58 1.385 . S
C63 C62 1.369 . S
C64 C56 1.457 . S
C64 C65 1.372 . S
C64 C69 1.364 . S
C65 H44 0.952 . S
C65 C64 1.372 . S
C65 C66 1.389 . S
C66 H45 0.949 . S
C66 C65 1.389 . S
C66 C67 1.387 . S
C67 C66 1.387 . S
C67 C68 1.372 . S
C68 H46 0.950 . S
C68 C67 1.372 . S
C68 C69 1.379 . S
C69 H47 0.948 . S
C69 C64 1.364 . S
C69 C68 1.379 . S
C70 C39 1.383 . S
C70 C57 1.479 . S
C70 C71 1.398 . S
C71 C36 1.382 . S
C71 H48 0.951 . S
C71 C70 1.398 . S
C72 C73 1.384 . S
C72 H85 0.947 . S
C72 C107 1.382 . S
C73 C72 1.384 . S
C73 C74 1.378 . S
C74 C73 1.378 . S
C74 C75 1.378 . S
C74 H86 0.952 . S
C75 C74 1.378 . S
C75 H87 0.950 . S
C75 C106 1.383 . S
H76 C95 0.947 1_556 S
H77 C96 0.946 1_556 S
H78 C98 0.953 . S
H79 C99 0.945 . S
H80 C101 0.952 . S
H81 C102 0.949 . S
H82 C104 0.950 . S
H83 C105 0.948 . S
H84 C107 0.951 1_554 S
H85 C72 0.947 . S
H86 C74 0.952 . S
H87 C75 0.950 . S
N88 C91 1.382 . S
N88 C93 1.363 . S
N89 C91 1.371 . S
N89 C92 1.372 . S
N90 C92 1.361 . S
N90 C93 1.377 . S
C91 N88 1.382 . S
C91 N89 1.371 . S
C91 C94 1.480 . S
C92 N89 1.372 . S
C92 N90 1.361 . S
C92 C100 1.457 . S
C93 N88 1.363 . S
C93 N90 1.377 . S
C93 C106 1.479 1_554 S
C94 C91 1.480 . S
C94 C95 1.383 . S
C94 C99 1.385 . S
C95 H76 0.947 1_554 S
C95 C94 1.383 . S
C95 C96 1.388 . S
C96 H77 0.946 1_554 S
C96 C95 1.388 . S
C96 C97 1.384 . S
C97 C96 1.384 . S
C97 C98 1.377 . S
C98 H78 0.953 . S
C98 C97 1.377 . S
C98 C99 1.369 . S
C99 H79 0.945 . S
C99 C94 1.385 . S
C99 C98 1.369 . S
C100 C92 1.457 . S
C100 C101 1.372 . S
C100 C105 1.364 . S
C101 H80 0.952 . S
C101 C100 1.372 . S
C101 C102 1.389 . S
C102 H81 0.949 . S
C102 C101 1.389 . S
C102 C103 1.387 . S
C103 C102 1.387 . S
C103 C104 1.372 . S
C104 H82 0.950 . S
C104 C103 1.372 . S
C104 C105 1.379 . S
C105 H83 0.948 . S
C105 C100 1.364 . S
C105 C104 1.379 . S
C106 C75 1.383 . S
C106 C93 1.479 1_556 S
C106 C107 1.398 . S
C107 C72 1.382 . S
C107 H84 0.951 1_556 S
C107 C106 1.398 . S
C108 C109 1.384 . S
C108 H121 0.947 . S
C108 C143 1.382 . S
C109 C108 1.384 . S
C109 C110 1.378 . S
C110 C109 1.378 . S
C110 C111 1.378 . S
C110 H122 0.952 . S
C111 C110 1.378 . S
C111 H123 0.950 . S
C111 C142 1.383 . S
H112 C131 0.947 . S
H113 C132 0.946 . S
H114 C134 0.953 . S
H115 C135 0.945 . S
H116 C137 0.952 . S
H117 C138 0.949 . S
H118 C140 0.950 . S
H119 C141 0.948 . S
H120 C143 0.951 . S
H121 C108 0.947 . S
H122 C110 0.952 . S
H123 C111 0.950 . S
N124 C127 1.382 . S
N124 C129 1.363 . S
N125 C127 1.371 . S
N125 C128 1.372 . S
N126 C128 1.361 . S
N126 C129 1.377 . S
C127 N124 1.382 . S
C127 N125 1.371 . S
C127 C130 1.480 . S
C128 N125 1.372 . S
C128 N126 1.361 . S
C128 C136 1.457 . S
C129 N124 1.363 . S
C129 N126 1.377 . S
C129 C142 1.479 . S
C130 C127 1.480 . S
C130 C131 1.383 . S
C130 C135 1.385 . S
C131 H112 0.947 . S
C131 C130 1.383 . S
C131 C132 1.388 . S
C132 H113 0.946 . S
C132 C131 1.388 . S
C132 C133 1.384 . S
C133 C132 1.384 . S
C133 C134 1.377 . S
C134 H114 0.953 . S
C134 C133 1.377 . S
C134 C135 1.369 . S
C135 H115 0.945 . S
C135 C130 1.385 . S
C135 C134 1.369 . S
C136 C128 1.457 . S
C136 C137 1.372 . S
C136 C141 1.364 . S
C137 H116 0.952 . S
C137 C136 1.372 . S
C137 C138 1.389 . S
C138 H117 0.949 . S
C138 C137 1.389 . S
C138 C139 1.387 . S
C139 C138 1.387 . S
C139 C140 1.372 . S
C140 H118 0.950 . S
C140 C139 1.372 . S
C140 C141 1.379 . S
C141 H119 0.948 . S
C141 C136 1.364 . S
C141 C140 1.379 . S
C142 C111 1.383 . S
C142 C129 1.479 . S
C142 C143 1.398 . S
C143 C108 1.382 . S
C143 H120 0.951 . S
C143 C142 1.398 . S
Eu144 N173 2.600 . S
Eu144 N179 2.562 . S
Eu144 O188 2.462 . S
Eu144 O189 2.373 . S
Eu144 O191 2.432 . S
Eu144 O192 2.291 1_565 S
Eu144 O196 2.336 1_465 S
Eu144 O199 2.372 1_455 S
Eu144 C208 2.787 . S
C145 N146 1.365 . S
C145 C148 1.405 . S
C145 C152 1.448 . S
N146 C145 1.365 . S
N146 C149 1.319 . S
N146 Eu155 2.600 . S
C147 C149 1.397 . S
C147 C150 1.367 . S
C147 H167 0.931 1_655 S
C148 C145 1.405 . S
C148 C150 1.403 . S
C148 C154 1.439 . S
C149 N146 1.319 . S
C149 C147 1.397 . S
C149 H160 0.930 1_655 S
C150 C147 1.367 . S
C150 C148 1.403 . S
C150 H171 0.929 . S
C151 C152 1.430 . S
C151 C153 1.387 . S
C151 C157 1.404 . S
C152 C145 1.448 . S
C152 C151 1.430 . S
C152 N156 1.351 . S
C153 C151 1.387 . S
C153 C154 1.374 . S
C153 H168 0.931 . S
C154 C148 1.439 . S
C154 C153 1.374 . S
C154 H169 0.931 . S
Eu155 N146 2.600 . S
Eu155 N156 2.562 . S
Eu155 O190 2.335 1_655 S
Eu155 O193 2.372 1_655 S
Eu155 O194 2.462 . S
Eu155 O195 2.373 . S
Eu155 O197 2.432 . S
Eu155 O198 2.291 1_545 S
Eu155 C219 2.787 . S
N156 C152 1.351 . S
N156 Eu155 2.562 . S
N156 C158 1.325 . S
C157 C151 1.404 . S
C157 C159 1.366 . S
C157 H165 0.930 . S
C158 N156 1.325 . S
C158 C159 1.416 . S
C158 H164 0.929 . S
C159 C157 1.366 . S
C159 C158 1.416 . S
C159 H161 0.930 . S
H160 C149 0.930 1_455 S
H161 C159 0.930 . S
H162 C177 0.930 1_655 S
H163 C184 0.930 . S
H164 C158 0.929 . S
H165 C157 0.930 . S
H166 C180 0.929 . S
H167 C147 0.931 1_455 S
H168 C153 0.931 . S
H169 C154 0.931 . S
H170 C175 0.931 1_655 S
H171 C150 0.929 . S
H172 C183 0.930 . S
N173 Eu144 2.600 . S
N173 C174 1.365 . S
N173 C177 1.319 . S
C174 N173 1.365 . S
C174 C176 1.405 . S
C174 C182 1.448 . S
C175 H170 0.931 1_455 S
C175 C177 1.397 . S
C175 C178 1.367 . S
C176 C174 1.405 . S
C176 C178 1.403 . S
C176 C209 1.439 . S
C177 H162 0.930 1_455 S
C177 N173 1.319 . S
C177 C175 1.397 . S
C178 C175 1.367 . S
C178 C176 1.403 . S
C178 H185 0.929 . S
N179 Eu144 2.562 . S
N179 C180 1.325 . S
N179 C182 1.351 . S
C180 H166 0.929 . S
C180 N179 1.325 . S
C180 C184 1.416 . S
C181 C182 1.430 . S
C181 C183 1.404 . S
C181 C210 1.387 . S
C182 C174 1.448 . S
C182 N179 1.351 . S
C182 C181 1.430 . S
C183 H172 0.930 . S
C183 C181 1.404 . S
C183 C184 1.366 . S
C184 H163 0.930 . S
C184 C180 1.416 . S
C184 C183 1.366 . S
H185 C178 0.929 . S
H186 C209 0.931 . S
H187 C210 0.931 . S
O188 Eu144 2.462 . S
O188 C208 1.252 . S
O189 Eu144 2.373 . S
O189 C200 1.249 . S
O190 Eu155 2.335 1_455 S
O190 C200 1.264 1_545 S
O191 Eu144 2.432 . S
O191 C208 1.268 . S
O192 Eu144 2.291 1_545 S
O192 C207 1.255 . S
O193 Eu155 2.372 1_455 S
O193 C207 1.257 . S
O194 Eu155 2.462 . S
O194 C219 1.252 . S
O195 Eu155 2.373 . S
O195 C211 1.249 . S
O196 Eu144 2.336 1_645 S
O196 C211 1.262 . S
O197 Eu155 2.432 . S
O197 C219 1.268 . S
O198 Eu155 2.291 1_565 S
O198 C218 1.255 . S
O199 Eu144 2.372 1_655 S
O199 C218 1.257 . S
C200 O189 1.249 . S
C200 O190 1.264 1_565 S
C201 C204 1.382 . S
C201 C206 1.390 . S
C201 C208 1.506 . S
C202 C203 1.398 . S
C202 C206 1.392 . S
C203 C202 1.398 . S
C203 C205 1.372 . S
C203 H220 0.931 . S
C204 C201 1.382 . S
C204 C205 1.390 . S
C204 H221 0.931 . S
C205 C203 1.372 . S
C205 C204 1.390 . S
C205 H222 0.929 . S
C206 C201 1.390 . S
C206 C202 1.392 . S
C206 H223 0.930 . S
C207 O192 1.255 . S
C207 O193 1.257 . S
C208 Eu144 2.787 . S
C208 O188 1.252 . S
C208 O191 1.268 . S
C208 C201 1.506 . S
C209 C176 1.439 . S
C209 H186 0.931 . S
C209 C210 1.374 . S
C210 C181 1.387 . S
C210 H187 0.931 . S
C210 C209 1.374 . S
C211 O195 1.249 . S
C211 O196 1.262 . S
C212 C215 1.382 . S
C212 C216 1.390 . S
C212 C219 1.506 . S
C213 C214 1.398 . S
C213 C216 1.392 . S
C214 C213 1.398 . S
C214 C217 1.372 . S
C214 H224 0.931 . S
C215 C212 1.382 . S
C215 C217 1.390 . S
C215 H225 0.931 . S
C216 C212 1.390 . S
C216 C213 1.392 . S
C216 H226 0.930 . S
C217 C214 1.372 . S
C217 C215 1.390 . S
C217 H227 0.929 . S
C218 O198 1.255 . S
C218 O199 1.257 . S
C219 Eu155 2.787 . S
C219 O194 1.252 . S
C219 O197 1.268 . S
C219 C212 1.506 . S
H220 C203 0.931 . S
H221 C204 0.931 . S
H222 C205 0.929 . S
H223 C206 0.930 . S
H224 C214 0.931 . S
H225 C215 0.931 . S
H226 C216 0.930 . S
H227 C217 0.929 . S
Eu228 N257 2.599 1_556 S
Eu228 N263 2.562 1_556 S
Eu228 O272 2.462 . S
Eu228 O273 2.373 1_556 S
Eu228 O275 2.432 . S
Eu228 O276 2.291 1_556 S
Eu228 O280 2.335 . S
Eu228 O283 2.372 1_556 S
Eu228 C292 2.787 . S
C229 N230 1.365 . S
C229 C232 1.405 . S
C229 C236 1.448 . S
N230 C229 1.365 . S
N230 C233 1.319 . S
N230 Eu239 2.600 . S
C231 C233 1.397 . S
C231 C234 1.367 . S
C231 H251 0.931 . S
C232 C229 1.405 . S
C232 C234 1.403 . S
C232 C238 1.439 . S
C233 N230 1.319 . S
C233 C231 1.397 . S
C233 H244 0.930 . S
C234 C231 1.367 . S
C234 C232 1.403 . S
C234 H255 0.929 . S
C235 C236 1.430 . S
C235 C237 1.387 . S
C235 C241 1.404 . S
C236 C229 1.448 . S
C236 C235 1.430 . S
C236 N240 1.351 . S
C237 C235 1.387 . S
C237 C238 1.374 . S
C237 H252 0.931 . S
C238 C232 1.439 . S
C238 C237 1.374 . S
C238 H253 0.931 . S
Eu239 N230 2.600 . S
Eu239 N240 2.562 . S
Eu239 O274 2.335 . S
Eu239 O277 2.372 . S
Eu239 O278 2.462 . S
Eu239 O279 2.373 . S
Eu239 O281 2.432 . S
Eu239 O282 2.291 . S
Eu239 C303 2.787 . S
N240 C236 1.351 . S
N240 Eu239 2.562 . S
N240 C242 1.325 . S
C241 C235 1.404 . S
C241 C243 1.366 . S
C241 H249 0.930 . S
C242 N240 1.325 . S
C242 C243 1.416 . S
C242 H248 0.929 . S
C243 C241 1.366 . S
C243 C242 1.416 . S
C243 H245 0.930 . S
H244 C233 0.930 . S
H245 C243 0.930 . S
H246 C261 0.930 . S
H247 C268 0.930 . S
H248 C242 0.929 . S
H249 C241 0.930 . S
H250 C264 0.929 . S
H251 C231 0.931 . S
H252 C237 0.931 . S
H253 C238 0.931 . S
H254 C259 0.931 . S
H255 C234 0.929 . S
H256 C267 0.930 . S
N257 Eu228 2.599 1_554 S
N257 C258 1.366 . S
N257 C261 1.319 1_554 S
C258 N257 1.366 . S
C258 C260 1.405 . S
C258 C266 1.448 . S
C259 H254 0.931 . S
C259 C261 1.397 . S
C259 C262 1.367 1_556 S
C260 C258 1.405 . S
C260 C262 1.403 . S
C260 C293 1.439 . S
C261 H246 0.930 . S
C261 N257 1.319 1_556 S
C261 C259 1.397 . S
C262 C259 1.367 1_554 S
C262 C260 1.403 . S
C262 H269 0.929 . S
N263 Eu228 2.562 1_554 S
N263 C264 1.325 . S
N263 C266 1.351 . S
C264 H250 0.929 . S
C264 N263 1.325 . S
C264 C268 1.416 . S
C265 C266 1.430 . S
C265 C267 1.404 . S
C265 C294 1.387 . S
C266 C258 1.448 . S
C266 N263 1.351 . S
C266 C265 1.430 . S
C267 H256 0.930 . S
C267 C265 1.404 . S
C267 C268 1.366 . S
C268 H247 0.930 . S
C268 C264 1.416 . S
C268 C267 1.366 . S
H269 C262 0.929 . S
H270 C293 0.931 . S
H271 C294 0.931 . S
O272 Eu228 2.462 . S
O272 C292 1.252 . S
O273 Eu228 2.373 1_554 S
O273 C284 1.249 . S
O274 Eu239 2.335 . S
O274 C284 1.264 . S
O275 Eu228 2.432 . S
O275 C292 1.268 . S
O276 Eu228 2.291 1_554 S
O276 C291 1.255 . S
O277 Eu239 2.372 . S
O277 C291 1.257 . S
O278 Eu239 2.462 . S
O278 C303 1.252 . S
O279 Eu239 2.373 . S
O279 C295 1.249 1_554 S
O280 Eu228 2.335 . S
O280 C295 1.264 . S
O281 Eu239 2.432 . S
O281 C303 1.268 . S
O282 Eu239 2.291 . S
O282 C302 1.255 . S
O283 Eu228 2.372 1_554 S
O283 C302 1.257 . S
C284 O273 1.249 . S
C284 O274 1.264 . S
C285 C288 1.382 . S
C285 C290 1.390 . S
C285 C292 1.506 . S
C286 C287 1.398 . S
C286 C290 1.392 . S
C287 C286 1.398 . S
C287 C289 1.372 . S
C287 H304 0.931 . S
C288 C285 1.382 . S
C288 C289 1.390 . S
C288 H305 0.931 . S
C289 C287 1.372 . S
C289 C288 1.390 . S
C289 H306 0.929 . S
C290 C285 1.390 . S
C290 C286 1.392 . S
C290 H307 0.930 . S
C291 O276 1.255 . S
C291 O277 1.257 . S
C292 Eu228 2.787 . S
C292 O272 1.252 . S
C292 O275 1.268 . S
C292 C285 1.506 . S
C293 C260 1.439 . S
C293 H270 0.931 . S
C293 C294 1.374 . S
C294 C265 1.387 . S
C294 H271 0.931 . S
C294 C293 1.374 . S
C295 O279 1.249 1_556 S
C295 O280 1.264 . S
C296 C299 1.382 . S
C296 C300 1.390 . S
C296 C303 1.506 . S
C297 C298 1.398 . S
C297 C300 1.392 . S
C298 C297 1.398 . S
C298 C301 1.372 . S
C298 H308 0.931 . S
C299 C296 1.382 . S
C299 C301 1.390 . S
C299 H309 0.931 . S
C300 C296 1.390 . S
C300 C297 1.392 . S
C300 H310 0.930 . S
C301 C298 1.372 . S
C301 C299 1.390 . S
C301 H311 0.929 . S
C302 O282 1.255 . S
C302 O283 1.257 . S
C303 Eu239 2.787 . S
C303 O278 1.252 . S
C303 O281 1.268 . S
C303 C296 1.506 . S
H304 C287 0.931 . S
H305 C288 0.931 . S
H306 C289 0.929 . S
H307 C290 0.930 . S
H308 C298 0.931 . S
H309 C299 0.931 . S
H310 C300 0.930 . S
H311 C301 0.929 . S
C312 C313 1.369 . S
C312 C314 1.419 . S
C312 H316 0.930 . S
C313 C312 1.369 . S
C313 C322 1.429 . S
C314 C312 1.419 . S
C314 C315 1.363 . S
C314 H317 0.929 . S
C315 C314 1.363 . S
C315 C321 1.428 . S
H316 C312 0.930 . S
H317 C314 0.929 . S
S318 N319 1.613 . S
S318 N320 1.610 . S
N319 S318 1.613 . S
N319 C322 1.350 . S
N320 S318 1.610 . S
N320 C321 1.351 . S
C321 C315 1.428 . S
C321 N320 1.351 . S
C321 C322 1.434 . S
C322 C313 1.429 . S
C322 N319 1.350 . S
C322 C321 1.434 . S
C323 C324 1.369 . S
C323 C325 1.419 . S
C323 H327 0.930 . S
C324 C323 1.369 . S
C324 C333 1.429 . S
C325 C323 1.419 . S
C325 C326 1.363 . S
C325 H328 0.929 . S
C326 C325 1.363 . S
C326 C332 1.428 . S
H327 C323 0.930 . S
H328 C325 0.929 . S
S329 N330 1.613 . S
S329 N331 1.610 . S
N330 S329 1.613 . S
N330 C333 1.350 . S
N331 S329 1.610 . S
N331 C332 1.351 . S
C332 C326 1.428 . S
C332 N331 1.351 . S
C332 C333 1.434 . S
C333 C324 1.429 . S
C333 N330 1.350 . S
C333 C332 1.434 . S
C334 C335 1.369 . S
C334 C336 1.419 . S
C334 H338 0.930 . S
C335 C334 1.369 . S
C335 C344 1.429 . S
C336 C334 1.419 . S
C336 C337 1.363 . S
C336 H339 0.929 . S
C337 C336 1.363 . S
C337 C343 1.428 . S
H338 C334 0.930 . S
H339 C336 0.929 . S
S340 N341 1.613 . S
S340 N342 1.610 . S
N341 S340 1.613 . S
N341 C344 1.350 . S
N342 S340 1.610 . S
N342 C343 1.351 . S
C343 C337 1.428 . S
C343 N342 1.351 . S
C343 C344 1.434 . S
C344 C335 1.429 . S
C344 N341 1.350 . S
C344 C343 1.434 . S
C345 C346 1.369 . S
C345 C347 1.419 . S
C345 H349 0.930 1_554 S
C346 C345 1.369 . S
C346 C355 1.429 . S
C347 C345 1.419 . S
C347 C348 1.363 . S
C347 H350 0.929 1_554 S
C348 C347 1.363 . S
C348 C354 1.428 . S
H349 C345 0.930 1_556 S
H350 C347 0.929 1_556 S
S351 N352 1.613 . S
S351 N353 1.610 . S
N352 S351 1.613 . S
N352 C355 1.350 . S
N353 S351 1.610 . S
N353 C354 1.351 . S
C354 C348 1.428 . S
C354 N353 1.351 . S
C354 C355 1.434 . S
C355 C346 1.429 . S
C355 N352 1.350 . S
C355 C354 1.434 . S
C356 C357 1.369 . S
C356 C358 1.419 . S
C356 H360 0.930 . S
C357 C356 1.369 . S
C357 C366 1.429 . S
C358 C356 1.419 . S
C358 C359 1.363 . S
C358 H361 0.929 . S
C359 C358 1.363 . S
C359 C365 1.428 . S
H360 C356 0.930 . S
H361 C358 0.929 . S
S362 N363 1.613 . S
S362 N364 1.610 . S
N363 S362 1.613 . S
N363 C366 1.350 1_545 S
N364 S362 1.610 . S
N364 C365 1.351 1_545 S
C365 C359 1.428 . S
C365 N364 1.351 1_565 S
C365 C366 1.434 . S
C366 C357 1.429 . S
C366 N363 1.350 1_565 S
C366 C365 1.434 . S
C367 C368 1.369 . S
C367 C369 1.419 . S
C367 H371 0.930 . S
C368 C367 1.369 . S
C368 C377 1.429 . S
C369 C367 1.419 . S
C369 C370 1.363 . S
C369 H372 0.929 . S
C370 C369 1.363 . S
C370 C376 1.428 . S
H371 C367 0.930 . S
H372 C369 0.929 . S
S373 N374 1.613 . S
S373 N375 1.610 . S
N374 S373 1.613 . S
N374 C377 1.350 . S
N375 S373 1.610 . S
N375 C376 1.351 . S
C376 C370 1.428 . S
C376 N375 1.351 . S
C376 C377 1.434 . S
C377 C368 1.429 . S
C377 N374 1.350 . S
C377 C376 1.434 . S
C378 C379 1.369 . S
C378 C380 1.419 . S
C378 H382 0.930 . S
C379 C378 1.369 . S
C379 C388 1.429 . S
C380 C378 1.419 . S
C380 C381 1.363 . S
C380 H383 0.929 . S
C381 C380 1.363 . S
C381 C387 1.428 . S
H382 C378 0.930 . S
H383 C380 0.929 . S
S384 N385 1.613 . S
S384 N386 1.610 . S
N385 S384 1.613 . S
N385 C388 1.350 . S
N386 S384 1.610 . S
N386 C387 1.351 . S
C387 C381 1.428 . S
C387 N386 1.351 . S
C387 C388 1.434 . S
C388 C379 1.429 . S
C388 N385 1.350 . S
C388 C387 1.434 . S
C389 C390 1.369 . S
C389 C391 1.419 . S
C389 H393 0.930 . S
C390 C389 1.369 . S
C390 C399 1.429 . S
C391 C389 1.419 . S
C391 C392 1.363 . S
C391 H394 0.929 . S
C392 C391 1.363 . S
C392 C398 1.428 . S
H393 C389 0.930 . S
H394 C391 0.929 . S
S395 N396 1.613 . S
S395 N397 1.610 . S
N396 S395 1.613 . S
N396 C399 1.350 . S
N397 S395 1.610 . S
N397 C398 1.351 . S
C398 C392 1.428 . S
C398 N397 1.351 . S
C398 C399 1.434 . S
C399 C390 1.429 . S
C399 N396 1.350 . S
C399 C398 1.434 . S
C400 C401 1.369 . S
C400 C402 1.419 . S
C400 H404 0.930 . S
C401 C400 1.369 . S
C401 C410 1.429 . S
C402 C400 1.419 . S
C402 C403 1.363 . S
C402 H405 0.929 . S
C403 C402 1.363 . S
C403 C409 1.428 . S
H404 C400 0.930 . S
H405 C402 0.929 . S
S406 N407 1.613 . S
S406 N408 1.610 . S
N407 S406 1.613 . S
N407 C410 1.350 . S
N408 S406 1.610 . S
N408 C409 1.351 . S
C409 C403 1.428 . S
C409 N408 1.351 . S
C409 C410 1.434 . S
C410 C401 1.429 . S
C410 N407 1.350 . S
C410 C409 1.434 . S
C411 C412 1.369 . S
C411 C413 1.419 . S
C411 H415 0.930 . S
C412 C411 1.369 . S
C412 C421 1.429 . S
C413 C411 1.419 . S
C413 C414 1.363 . S
C413 H416 0.929 . S
C414 C413 1.363 . S
C414 C420 1.428 . S
H415 C411 0.930 . S
H416 C413 0.929 . S
S417 N418 1.613 . S
S417 N419 1.610 . S
N418 S417 1.613 . S
N418 C421 1.350 . S
N419 S417 1.610 . S
N419 C420 1.351 . S
C420 C414 1.428 . S
C420 N419 1.351 . S
C420 C421 1.434 . S
C421 C412 1.429 . S
C421 N418 1.350 . S
C421 C420 1.434 . S
C422 C423 1.369 . S
C422 C424 1.419 . S
C422 H426 0.930 . S
C423 C422 1.369 . S
C423 C432 1.429 . S
C424 C422 1.419 . S
C424 C425 1.363 . S
C424 H427 0.929 . S
C425 C424 1.363 . S
C425 C431 1.428 . S
H426 C422 0.930 . S
H427 C424 0.929 . S
S428 N429 1.613 . S
S428 N430 1.610 . S
N429 S428 1.613 . S
N429 C432 1.350 . S
N430 S428 1.610 . S
N430 C431 1.351 . S
C431 C425 1.428 . S
C431 N430 1.351 . S
C431 C432 1.434 . S
C432 C423 1.429 . S
C432 N429 1.350 . S
C432 C431 1.434 . S
C433 C434 1.369 . S
C433 C435 1.419 . S
C433 H437 0.930 . S
C434 C433 1.369 . S
C434 C443 1.429 . S
C435 C433 1.419 . S
C435 C436 1.363 . S
C435 H438 0.929 . S
C436 C435 1.363 . S
C436 C442 1.428 . S
H437 C433 0.930 . S
H438 C435 0.929 . S
S439 N440 1.613 . S
S439 N441 1.610 . S
N440 S439 1.613 . S
N440 C443 1.350 1_545 S
N441 S439 1.610 . S
N441 C442 1.351 1_545 S
C442 C436 1.428 . S
C442 N441 1.351 1_565 S
C442 C443 1.434 . S
C443 C434 1.429 . S
C443 N440 1.350 1_565 S
C443 C442 1.434 . S
C315 C207 1.675 . S
C313 C133 1.669 . S
C324 C25 1.653 . S
C326 C302 1.665 . S
C335 C61 1.638 . S
C337 C218 1.674 . S
C346 C97 1.599 . S
C348 C291 1.662 . S
C359 C202 1.436 . S
C357 C1 1.559 . S
C370 C295 1.634 . S
C368 C67 1.583 . S
C379 C103 1.599 . S
C381 C211 1.669 . S
C390 C109 1.534 . S
C392 C286 1.408 . S
C403 C297 1.418 . S
C401 C37 1.524 . S
C414 C213 1.433 . S
C412 C73 1.541 . S
C425 C284 1.633 . S
C423 C139 1.616 . S
C434 C31 1.655 . S
C436 C200 1.668 . S
