# Generated by pormake.
# Topology anh, (6,3)-cn, num edge types: 1
# Building blocks:
#     Node 0, Type 0, BuildingBlock: BETDIP_clean_sbu_0, # of connection points: 6
#     Node 1, Type 0, BuildingBlock: BETDIP_clean_sbu_0, # of connection points: 6
#     Node 2, Type 0, BuildingBlock: BETDIP_clean_sbu_0, # of connection points: 6
#     Node 3, Type 1, BuildingBlock: MIDCAF_clean_linker_0, # of connection points: 3
#     Node 4, Type 1, BuildingBlock: MIDCAF_clean_linker_0, # of connection points: 3
#     Node 5, Type 1, BuildingBlock: MIDCAF_clean_linker_0, # of connection points: 3
#     Node 6, Type 1, BuildingBlock: MIDCAF_clean_linker_0, # of connection points: 3
#     Node 7, Type 1, BuildingBlock: MIDCAF_clean_linker_0, # of connection points: 3
#     Node 8, Type 1, BuildingBlock: MIDCAF_clean_linker_0, # of connection points: 3
#     Edge 9, Type (0, 1), BuildingBlock: CIFDUS_clean_linker_0, # of connection points: 2
#     Edge 10, Type (0, 1), BuildingBlock: CIFDUS_clean_linker_0, # of connection points: 2
#     Edge 11, Type (0, 1), BuildingBlock: CIFDUS_clean_linker_0, # of connection points: 2
#     Edge 12, Type (0, 1), BuildingBlock: CIFDUS_clean_linker_0, # of connection points: 2
#     Edge 13, Type (0, 1), BuildingBlock: CIFDUS_clean_linker_0, # of connection points: 2
#     Edge 14, Type (0, 1), BuildingBlock: CIFDUS_clean_linker_0, # of connection points: 2
#     Edge 15, Type (0, 1), BuildingBlock: CIFDUS_clean_linker_0, # of connection points: 2
#     Edge 16, Type (0, 1), BuildingBlock: CIFDUS_clean_linker_0, # of connection points: 2
#     Edge 17, Type (0, 1), BuildingBlock: CIFDUS_clean_linker_0, # of connection points: 2
#     Edge 18, Type (0, 1), BuildingBlock: CIFDUS_clean_linker_0, # of connection points: 2
#     Edge 19, Type (0, 1), BuildingBlock: CIFDUS_clean_linker_0, # of connection points: 2
#     Edge 20, Type (0, 1), BuildingBlock: CIFDUS_clean_linker_0, # of connection points: 2
#     Edge 21, Type (0, 1), BuildingBlock: CIFDUS_clean_linker_0, # of connection points: 2
#     Edge 22, Type (0, 1), BuildingBlock: CIFDUS_clean_linker_0, # of connection points: 2
#     Edge 23, Type (0, 1), BuildingBlock: CIFDUS_clean_linker_0, # of connection points: 2
#     Edge 24, Type (0, 1), BuildingBlock: CIFDUS_clean_linker_0, # of connection points: 2
#     Edge 25, Type (0, 1), BuildingBlock: CIFDUS_clean_linker_0, # of connection points: 2
#     Edge 26, Type (0, 1), BuildingBlock: CIFDUS_clean_linker_0, # of connection points: 2
# Relax obj value: 0.269
# Max RMSD: 0.187
# Mean RMSD: 0.159
data_MOF--net-anh--node1-BETDIP_clean_sbu_0--node2-MIDCAF_clean_linker_0--edge1-CIFDUS_clean_linker_0
_symmetry_space_group_name_H-M    P1
_symmetry_Int_Tables_number       1
_symmetry_cell_setting            triclinic
loop_
_symmetry_equiv_pos_as_xyz
'x, y, z'
_cell_length_a     32.65019
_cell_length_b     32.608325
_cell_length_c     58.960075
_cell_angle_alpha  90.283112
_cell_angle_beta   89.986075
_cell_angle_gamma 119.65561
loop_
_atom_site_label
_atom_site_type_symbol
_atom_site_fract_x
_atom_site_fract_y
_atom_site_fract_z
_atom_type_partial_charge
Tb0 Tb 0.1523 0.6329 0.17399 0.0
Tb1 Tb 1.10348 0.52925 0.16819 0.0
C2 C 0.20939 0.71406 0.18734 0.0
C3 C 0.26073 0.74032 0.1843 0.0
C4 C 0.29001 0.76375 0.2028 0.0
C5 C 0.33888 0.78645 0.20038 0.0
C6 C 0.35914 0.78622 0.17935 0.0
C7 C 0.3298 0.76217 0.16091 0.0
C8 C 0.28095 0.73898 0.16341 0.0
C9 C 0.13202 0.60256 0.13205 0.0
C10 C 0.21486 0.57944 0.16823 0.0
C11 C 1.05001 0.44904 0.15179 0.0
C12 C 1.00151 0.42874 0.14325 0.0
C13 C 0.98815 0.40333 0.12274 0.0
C14 C 0.94243 0.38595 0.11419 0.0
C15 C 0.9099 0.39468 0.12586 0.0
C16 C 0.92407 0.42108 0.14611 0.0
C17 C 0.9692 0.4378 0.1547 0.0
C18 C 0.12259 0.558 0.21082 0.0
C19 C 1.04317 0.58556 0.16988 0.0
O20 O 0.19391 0.67701 0.20046 0.0
O21 O 0.18418 0.70569 0.16884 0.0
O22 O 0.14679 0.5871 0.14755 0.0
O23 O 0.12948 0.63863 0.13959 0.0
O24 O 0.2128 0.61857 0.17274 0.0
O25 O 0.17528 0.53888 0.1647 0.0
O26 O 1.0814 0.48419 0.13987 0.0
O27 O 1.05604 0.45749 0.17366 0.0
O28 O 0.10871 0.57536 0.19552 0.0
O29 O 0.12327 0.52124 0.20265 0.0
O30 O 1.04518 0.54707 0.16366 0.0
O31 O 1.08138 0.62282 0.17807 0.0
H32 H 0.27507 0.76448 0.21911 0.0
H33 H 0.36085 0.80552 0.21476 0.0
H34 H 0.34468 0.7616 0.14456 0.0
H35 H 0.25905 0.72 0.149 0.0
H36 H 1.01299 0.39684 0.1134 0.0
H37 H 0.93239 0.36547 0.09863 0.0
H38 H 0.89958 0.4272 0.15597 0.0
H39 H 0.97859 0.45751 0.17049 0.0
Tb40 Tb 0.63102 0.07199 0.5028 0.0
Tb41 Tb 0.58181 0.12619 0.5009 0.0
C42 C 0.66286 1.01944 0.51481 0.0
C43 C 0.65606 0.97128 0.51367 0.0
C44 C 0.64758 0.94569 0.53382 0.0
C45 C 0.6534 0.90614 0.53461 0.0
C46 C 0.66818 0.89163 0.51526 0.0
C47 C 0.67263 0.91478 0.49461 0.0
C48 C 0.66665 0.95431 0.49381 0.0
C49 C 0.62108 0.09677 0.46184 0.0
C50 C 0.51621 1.01518 0.49687 0.0
C51 C 0.56101 0.18842 0.492 0.0
C52 C 0.59217 0.23954 0.49573 0.0
C53 C 0.61344 0.26931 0.47707 0.0
C54 C 0.65312 0.31385 0.48018 0.0
C55 C 0.67201 0.32905 0.50199 0.0
C56 C 0.64841 0.30098 0.52075 0.0
C57 C 0.60883 0.25675 0.51769 0.0
C58 C 0.59509 0.10439 0.54254 0.0
C59 C 0.69639 0.18251 0.50079 0.0
O60 O 0.63381 1.02677 0.52729 0.0
O61 O 0.67512 1.04416 0.49613 0.0
O62 O 0.59117 0.0827 0.47744 0.0
O63 O 0.65724 0.09341 0.46817 0.0
O64 O 0.55503 1.01303 0.50213 0.0
O65 O 0.51963 1.05707 0.49335 0.0
O66 O 0.57608 0.16995 0.47665 0.0
O67 O 0.54599 0.16225 0.51021 0.0
O68 O 0.62421 0.11797 0.52642 0.0
O69 O 0.55738 0.10428 0.53569 0.0
O70 O 0.65695 0.18316 0.49587 0.0
O71 O 0.69347 0.14241 0.50758 0.0
H72 H 0.63984 0.95825 0.54941 0.0
H73 H 0.65014 0.88942 0.55085 0.0
H74 H 0.68344 0.90399 0.47939 0.0
H75 H 0.67338 0.97324 0.47797 0.0
H76 H 0.60149 0.25679 0.45997 0.0
H77 H 0.67068 0.33507 0.46546 0.0
H78 H 0.66173 0.31249 0.53779 0.0
H79 H 0.5934 0.23493 0.53249 0.0
Tb80 Tb 0.59939 0.6051 0.83606 0.0
Tb81 Tb 0.70941 0.65602 0.83405 0.0
C82 C 0.51486 0.56986 0.84754 0.0
C83 C 0.47723 0.57583 0.85819 0.0
C84 C 0.46352 0.5603 0.88053 0.0
C85 C 0.41978 0.55161 0.88862 0.0
C86 C 0.38885 0.55811 0.87447 0.0
C87 C 0.40462 0.57823 0.85296 0.0
C88 C 0.44834 0.58681 0.84484 0.0
C89 C 0.63881 0.61734 0.79609 0.0
C90 C 0.65991 0.7205 0.83474 0.0
C91 C 0.78897 0.68133 0.81803 0.0
C92 C 0.81584 0.65608 0.82055 0.0
C93 C 0.81316 0.62493 0.80323 0.0
C94 C 0.82063 0.58727 0.80814 0.0
C95 C 0.83173 0.58081 0.83035 0.0
C96 C 0.84114 0.61587 0.84675 0.0
C97 C 0.83315 0.65314 0.84193 0.0
C98 C 0.6792 0.63355 0.8767 0.0
C99 C 0.64857 0.54119 0.83284 0.0
O100 O 0.54767 0.57062 0.8607 0.0
O101 O 0.53064 0.58859 0.82754 0.0
O102 O 0.65291 0.6449 0.81272 0.0
O103 O 0.59889 0.58029 0.80101 0.0
O104 O 0.61815 0.68145 0.8383 0.0
O105 O 0.69934 0.71808 0.8319 0.0
O106 O 0.74987 0.65749 0.8064 0.0
O107 O 0.78278 0.70076 0.83641 0.0
O108 O 0.65583 0.6265 0.85875 0.0
O109 O 0.72315 0.65465 0.87073 0.0
O110 O 0.68959 0.58044 0.82942 0.0
O111 O 0.60973 0.54312 0.83778 0.0
H112 H 0.4848 0.55113 0.89118 0.0
H113 H 0.40867 0.5359 0.90522 0.0
H114 H 0.38186 0.58443 0.84184 0.0
H115 H 0.45782 0.5987 0.82753 0.0
H116 H 0.80038 0.62665 0.78649 0.0
H117 H 0.81359 0.5611 0.79509 0.0
H118 H 0.85145 0.61265 0.86382 0.0
H119 H 0.83645 0.67697 0.85557 0.0
C120 C 0.59216 0.99459 0.23554 0.0
C121 C 0.59859 0.98691 0.21261 0.0
C122 C 0.62263 1.0263 0.1984 0.0
C123 C 0.63408 0.07131 0.20611 0.0
H124 H 0.59357 0.17392 0.18326 0.0
H125 H 0.62168 0.22616 0.15062 0.0
H126 H 0.70729 0.34361 0.19507 0.0
H127 H 0.67835 0.29145 0.22774 0.0
H128 H 0.68221 0.25151 0.28951 0.0
H129 H 0.6877 0.25497 0.33117 0.0
H130 H 0.56832 0.11377 0.33454 0.0
H131 H 0.5632 0.11059 0.29345 0.0
H132 H 0.59582 1.04354 0.26068 0.0
H133 H 0.57361 0.96541 0.24709 0.0
H134 H 0.62941 1.02191 0.18083 0.0
H135 H 0.64964 0.10048 0.19433 0.0
N136 N 0.62884 0.15425 0.21958 0.0
N137 N 0.62938 0.20501 0.24823 0.0
N138 N 0.62364 0.13228 0.2575 0.0
C139 C 0.63012 0.19502 0.2258 0.0
C140 C 0.62535 0.173 0.26409 0.0
C141 C 0.62616 0.12299 0.23533 0.0
C142 C 0.63508 0.22855 0.20789 0.0
C143 C 0.61708 0.21128 0.18611 0.0
C144 C 0.63291 0.24118 0.16742 0.0
C145 C 0.66757 0.28868 0.17018 0.0
C146 C 0.68052 0.30716 0.19233 0.0
C147 C 0.66425 0.27723 0.2111 0.0
C148 C 0.6224 0.18075 0.28846 0.0
C149 C 0.65633 0.22206 0.29933 0.0
C150 C 0.65967 0.22382 0.32307 0.0
C151 C 0.62857 0.18456 0.33611 0.0
C152 C 0.59246 0.14482 0.32507 0.0
C153 C 0.58963 0.14286 0.30152 0.0
C154 C 0.62274 0.07786 0.22834 0.0
C155 C 0.60433 1.0396 0.24333 0.0
C156 C 0.88968 0.53807 0.57869 0.0
C157 C 0.89528 0.54183 0.555 0.0
C158 C 0.9159 0.58682 0.54516 0.0
C159 C 0.92342 0.62588 0.55815 0.0
H160 H 0.88622 0.72324 0.54247 0.0
H161 H 0.85089 0.75983 0.51917 0.0
H162 H 0.82098 0.8154 0.57954 0.0
H163 H 0.85665 0.78018 0.60281 0.0
H164 H 0.82678 0.72039 0.64407 0.0
H165 H 0.77861 0.69729 0.67754 0.0
H166 H 0.80732 0.58286 0.68824 0.0
H167 H 0.8545 0.60483 0.65349 0.0
H168 H 0.88825 0.57186 0.60951 0.0
H169 H 0.87413 0.50403 0.58691 0.0
H170 H 0.92183 0.59101 0.52703 0.0
H171 H 0.93511 0.65919 0.54962 0.0
N172 N 0.90019 0.68991 0.5801 0.0
N173 N 0.86849 0.71006 0.61084 0.0
N174 N 0.88536 0.64858 0.61442 0.0
C175 C 0.88391 0.71743 0.58913 0.0
C176 C 0.86902 0.67597 0.62367 0.0
C177 C 0.90173 0.65584 0.59269 0.0
C178 C 0.87349 0.74802 0.57457 0.0
C179 C 0.87331 0.74435 0.55074 0.0
C180 C 0.85298 0.76503 0.53739 0.0
C181 C 0.83245 0.78927 0.54774 0.0
C182 C 0.83591 0.79601 0.5713 0.0
C183 C 0.8565 0.77592 0.58457 0.0
C184 C 0.84474 0.66452 0.64594 0.0
C185 C 0.82344 0.69047 0.6535 0.0
C186 C 0.79581 0.67733 0.67294 0.0
C187 C 0.78923 0.63836 0.68578 0.0
C188 C 0.81129 0.6128 0.67861 0.0
C189 C 0.83875 0.62572 0.65884 0.0
C190 C 0.9106 0.62048 0.58119 0.0
C191 C 0.89742 0.57713 0.5917 0.0
C192 C 0.8072 0.34489 0.91569 0.0
C193 C 0.82756 0.36808 0.89513 0.0
C194 C 0.8703 0.37103 0.88835 0.0
C195 C 0.89442 0.35654 0.90271 0.0
H196 H 1.02204 0.3894 0.9084 0.0
H197 H 1.10366 0.43388 0.89729 0.0
H198 H 0.14599 0.40768 0.96268 0.0
H199 H 1.06358 0.36507 0.97436 0.0
H200 H 0.9687 0.3266 0.01747 0.0
H201 H 0.98774 0.36971 0.05336 0.0
H202 H 0.91677 0.44421 0.03074 0.0
H203 H 0.89588 0.39942 0.99527 0.0
H204 H 0.81746 0.31777 0.94695 0.0
H205 H 0.77328 0.33957 0.92115 0.0
H206 H 0.88793 0.38843 0.87287 0.0
H207 H 0.92869 0.36264 0.89731 0.0
N208 N 0.95265 0.3463 0.93505 0.0
N209 N 0.97807 0.35538 0.97265 0.0
N210 N 0.90166 0.34087 0.96431 0.0
C211 C 0.98702 0.35467 0.95026 0.0
C212 C 0.93545 0.34812 0.97984 0.0
C213 C 0.90977 0.33883 0.9418 0.0
C214 C 1.03612 0.37365 0.94234 0.0
C215 C 1.04852 0.39229 0.92036 0.0
C216 C 1.09565 0.41791 0.91392 0.0
C217 C 0.13176 0.42477 0.92909 0.0
C218 C 0.11925 0.40409 0.95072 0.0
C219 C 1.07195 0.3791 0.95733 0.0
C220 C 0.93152 0.36027 1.00354 0.0
C221 C 0.95538 0.35065 0.02062 0.0
C222 C 0.96661 0.37565 0.04105 0.0
C223 C 0.95524 0.41156 0.04448 0.0
C224 C 0.92626 0.41697 0.02855 0.0
C225 C 0.91421 0.39122 0.00823 0.0
C226 C 0.87735 0.33997 0.92458 0.0
C227 C 0.83225 0.33177 0.93046 0.0
C228 C 0.24999 0.75792 0.45713 0.0
C229 C 0.27311 0.7597 0.47763 0.0
C230 C 0.25076 0.71872 0.49141 0.0
C231 C 0.20798 0.6778 0.48471 0.0
H232 H 0.99984 0.55586 0.47932 0.0
H233 H 0.92342 0.48734 0.48947 0.0
H234 H 0.97296 0.39379 0.46667 0.0
H235 H 1.04856 0.4621 0.45624 0.0
H236 H 1.06141 0.50546 0.39444 0.0
H237 H 1.06505 0.49583 0.35357 0.0
H238 H 0.16741 0.64367 0.34753 0.0
H239 H 0.16404 0.65352 0.38855 0.0
H240 H 0.19296 0.7177 0.43405 0.0
H241 H 0.26531 0.78766 0.44569 0.0
H242 H 0.26651 0.71803 0.50745 0.0
H243 H 0.19319 0.64708 0.49554 0.0
N244 N 0.10866 0.59556 0.46633 0.0
N245 N 1.076 0.55146 0.43269 0.0
N246 N 0.1449 0.62492 0.43087 0.0
C247 C 1.07357 0.55557 0.45557 0.0
C248 C 0.11105 0.58576 0.42017 0.0
C249 C 0.14501 0.63067 0.4538 0.0
C250 C 1.03159 0.5152 0.46745 0.0
C251 C 0.99509 0.52077 0.47717 0.0
C252 C 0.95069 0.48108 0.48267 0.0
C253 C 0.94099 0.43407 0.47892 0.0
C254 C 0.97838 0.42877 0.47016 0.0
C255 C 1.02224 0.46832 0.46425 0.0
C256 C 0.11257 0.58026 0.39499 0.0
C257 C 1.08465 0.53607 0.38448 0.0
C258 C 1.08688 0.53046 0.36099 0.0
C259 C 0.11665 0.56893 0.3472 0.0
C260 C 0.14388 0.61335 0.35758 0.0
C261 C 0.14214 0.61887 0.38117 0.0
C262 C 0.18607 0.67581 0.46376 0.0
C263 C 0.20796 0.7171 0.45034 0.0
C264 C 0.68684 0.29611 0.78788 0.0
C265 C 0.66452 0.30103 0.80738 0.0
C266 C 0.63878 0.25981 0.82066 0.0
C267 C 0.63565 0.21584 0.81453 0.0
H268 H 0.60116 1.03676 0.8258 0.0
H269 H 0.59807 0.96354 0.83891 0.0
H270 H 0.6928 0.975 0.78521 0.0
H271 H 0.69567 1.04718 0.77237 0.0
H272 H 0.59416 1.03832 0.72618 0.0
H273 H 0.58013 1.02968 0.68518 0.0
H274 H 0.65606 0.18096 0.67795 0.0
H275 H 0.66901 0.18991 0.71911 0.0
H276 H 0.70043 0.25131 0.76621 0.0
H277 H 0.70643 0.3259 0.77679 0.0
H278 H 0.62107 0.2615 0.83587 0.0
H279 H 0.61475 0.1851 0.82489 0.0
N280 N 0.64985 0.12857 0.79743 0.0
N281 N 0.63999 0.08541 0.76357 0.0
N282 N 0.6447 0.15925 0.76195 0.0
C283 C 0.64548 0.08875 0.78652 0.0
C284 C 0.63926 0.11998 0.75117 0.0
C285 C 0.64972 0.16447 0.78492 0.0
C286 C 0.64913 1.04892 0.79807 0.0
C287 C 0.62224 1.02432 0.81716 0.0
C288 C 0.62001 0.98163 0.82448 0.0
C289 C 0.64509 0.96221 0.81322 0.0
C290 C 0.67327 0.98813 0.79472 0.0
C291 C 0.67488 1.03001 0.78726 0.0
C292 C 0.63256 0.11484 0.72604 0.0
C293 C 0.6081 0.06981 0.71589 0.0
C294 C 0.59998 1.06481 0.6924 0.0
C295 C 0.61715 0.10463 0.67834 0.0
C296 C 0.64271 0.14964 0.68833 0.0
C297 C 0.64982 0.15471 0.71193 0.0
C298 C 0.65751 0.21133 0.79468 0.0
C299 C 0.68326 0.25264 0.7817 0.0
C300 C 0.79429 0.61164 0.13114 0.0
C301 C 0.79021 0.57772 0.1471 0.0
C302 C 0.74449 0.54874 0.1563 0.0
C303 C 0.70473 0.55264 0.14929 0.0
H304 H 0.5702 0.61289 0.15838 0.0
H305 H 0.4946 0.60784 0.16937 0.0
H306 H 0.42801 0.52027 0.11078 0.0
H307 H 0.50204 0.52524 0.10009 0.0
H308 H 0.56537 0.55714 0.05216 0.0
H309 H 0.57574 0.5622 0.01089 0.0
H310 H 0.7268 0.64053 0.02033 0.0
H311 H 0.71635 0.63326 0.06106 0.0
H312 H 0.76005 0.64059 0.111 0.0
H313 H 0.82791 0.63449 0.12323 0.0
H314 H 0.73909 0.52236 0.16881 0.0
H315 H 0.67037 0.52843 0.15616 0.0
N316 N 0.62589 0.57744 0.13138 0.0
N317 N 0.59461 0.58116 0.0957 0.0
N318 N 0.67016 0.59024 0.09788 0.0
C319 C 0.58946 0.57624 0.11868 0.0
C320 C 0.63466 0.58847 0.08519 0.0
C321 C 0.66678 0.58437 0.12076 0.0
C322 C 0.54289 0.56889 0.12842 0.0
C323 C 0.53917 0.59177 0.14813 0.0
C324 C 0.49567 0.58941 0.15426 0.0
C325 C 0.4541 0.56345 0.14112 0.0
C326 C 0.45819 0.54015 0.12173 0.0
C327 C 0.50127 0.54304 0.11552 0.0
C328 C 0.64003 0.59417 0.06003 0.0
C329 C 0.60076 0.57547 0.04534 0.0
C330 C 0.60675 0.57859 0.02161 0.0
C331 C 0.65219 0.60102 0.01195 0.0
C332 C 0.6912 0.62145 0.02683 0.0
C333 C 0.68524 0.61762 0.05038 0.0
C334 C 0.70891 0.58536 0.1326 0.0
C335 C 0.75476 0.6151 0.12401 0.0
H336 H 0.23742 0.5104 0.15502 0.0
H337 H 0.30294 0.65675 0.17505 0.0
H338 H 0.38082 0.66496 0.1696 0.0
H339 H 0.43232 0.63146 0.15803 0.0
H340 H 0.366 0.48503 0.13796 0.0
H341 H 0.28854 0.47661 0.14449 0.0
C342 C 0.2686 0.54413 0.15834 0.0
C343 C 0.2631 0.58281 0.16553 0.0
C344 C 0.31421 0.54889 0.15504 0.0
C345 C 0.30491 0.62606 0.16954 0.0
C346 C 0.35001 0.63088 0.16639 0.0
C347 C 0.40106 0.59751 0.15527 0.0
C348 C 0.40628 0.55912 0.14717 0.0
C349 C 0.35543 0.59266 0.15902 0.0
C350 C 0.3643 0.51574 0.14371 0.0
C351 C 0.31942 0.51069 0.14757 0.0
H352 H 0.72149 0.27247 0.48371 0.0
H353 H 0.78261 0.19399 0.51296 0.0
H354 H 0.86119 0.26235 0.50917 0.0
H355 H 0.91471 0.34524 0.49711 0.0
H356 H 0.85435 0.42468 0.46832 0.0
H357 H 0.7755 0.35606 0.47169 0.0
C358 C 0.75186 0.27018 0.48937 0.0
C359 C 0.74487 0.22697 0.49875 0.0
C360 C 0.79811 0.31041 0.48706 0.0
C361 C 0.78568 0.22586 0.50575 0.0
C362 C 0.83119 0.26536 0.50355 0.0
C363 C 0.88439 0.3479 0.4917 0.0
C364 C 0.89166 0.39127 0.48251 0.0
C365 C 0.83816 0.30797 0.49419 0.0
C366 C 0.85095 0.39283 0.47573 0.0
C367 C 0.80534 0.35314 0.47763 0.0
H368 H 0.5905 0.74817 0.83869 0.0
H369 H 0.73791 0.80384 0.82337 0.0
H370 H 0.7464 0.88081 0.81592 0.0
H371 H 0.71303 0.93401 0.8127 0.0
H372 H 0.56647 0.88093 0.8285 0.0
H373 H 0.55745 0.80342 0.83691 0.0
C374 C 0.62462 0.77709 0.83388 0.0
C375 C 0.66342 0.76881 0.8317 0.0
C376 C 0.62975 0.82274 0.8296 0.0
C377 C 0.70708 0.80779 0.82536 0.0
C378 C 0.71214 0.85245 0.82098 0.0
C379 C 0.6789 0.90567 0.81792 0.0
C380 C 0.64054 0.91455 0.81978 0.0
C381 C 0.67381 0.86054 0.82286 0.0
C382 C 0.59709 0.87648 0.82703 0.0
C383 C 0.59174 0.83154 0.83174 0.0
H384 H 0.94683 0.51554 0.16763 0.0
H385 H 1.03901 0.66593 0.16303 0.0
H386 H 0.97168 0.67697 0.1558 0.0
H387 H 0.886 0.64514 0.15045 0.0
H388 H 0.79192 0.49573 0.15745 0.0
H389 H 0.85924 0.48365 0.16409 0.0
C390 C 0.95231 0.55072 0.16501 0.0
C391 C 0.99905 0.58976 0.16592 0.0
C392 C 0.91245 0.55728 0.16125 0.0
C393 C 1.00426 0.63497 0.16268 0.0
C394 C 0.96539 0.64145 0.15843 0.0
C395 C 0.8798 0.60973 0.15331 0.0
C396 C 0.83271 0.57134 0.15296 0.0
C397 C 0.91918 0.60302 0.15764 0.0
C398 C 0.82688 0.5262 0.15739 0.0
C399 C 0.8658 0.51919 0.16118 0.0
H400 H 0.4849 0.91905 0.5066 0.0
H401 H 0.4378 1.00956 0.47719 0.0
H402 H 0.36122 0.94146 0.46905 0.0
H403 H 0.30574 0.85545 0.46969 0.0
H404 H 0.35018 0.7635 0.49969 0.0
H405 H 0.42743 0.83164 0.5082 0.0
C406 C 0.45798 0.92405 0.49843 0.0
C407 C 0.46848 0.97065 0.49261 0.0
C408 C 0.41248 0.88382 0.49386 0.0
C409 C 0.43201 0.97513 0.48209 0.0
C410 C 0.38761 0.93575 0.47732 0.0
C411 C 0.33213 0.84986 0.47802 0.0
C412 C 0.32078 0.8031 0.48388 0.0
C413 C 0.37718 0.88977 0.48303 0.0
C414 C 0.35644 0.79821 0.49506 0.0
C415 C 0.40129 0.83757 0.49984 0.0
H416 H 0.71693 0.51838 0.81902 0.0
H417 H 0.57246 0.45324 0.84128 0.0
H418 H 0.56478 0.37522 0.83676 0.0
H419 H 0.59784 0.32344 0.82517 0.0
H420 H 0.74237 0.38938 0.80282 0.0
H421 H 0.75008 0.46697 0.80811 0.0
C422 C 0.6837 0.48728 0.823 0.0
C423 C 0.64537 0.49289 0.83055 0.0
C424 C 0.67916 0.44158 0.82018 0.0
C425 C 0.60283 0.45116 0.83545 0.0
C426 C 0.59831 0.406 0.83285 0.0
C427 C 0.63137 0.35466 0.82178 0.0
C428 C 0.6692 0.34919 0.81324 0.0
C429 C 0.6361 0.40043 0.8251 0.0
C430 C 0.71201 0.39116 0.80893 0.0
C431 C 0.7168 0.43617 0.81221 0.0
H432 H 0.74896 0.90028 0.49786 0.0
H433 H 0.62883 0.8089 0.53896 0.0
H434 H 0.66807 0.76515 0.55065 0.0
H435 H 0.74078 0.76076 0.55348 0.0
H436 H 0.86139 0.85263 0.51307 0.0
H437 H 0.81731 0.88797 0.49631 0.0
C438 C 0.73065 0.86982 0.50877 0.0
C439 C 0.68626 0.85818 0.51777 0.0
C440 C 0.75379 0.84546 0.51574 0.0
C441 C 0.66329 0.81893 0.53209 0.0
C442 C 0.68573 0.79401 0.53881 0.0
C443 C 0.75697 0.78799 0.5407 0.0
C444 C 0.8042 0.80481 0.53466 0.0
C445 C 0.73168 0.80826 0.53147 0.0
C446 C 0.82503 0.83951 0.51793 0.0
C447 C 0.79992 0.85974 0.50849 0.0
H448 H 0.78921 0.53088 0.86784 0.0
H449 H 0.86278 0.52736 0.80773 0.0
H450 H 0.85663 0.45294 0.82017 0.0
H451 H 0.83793 0.39426 0.85001 0.0
H452 H 0.77721 0.40807 0.91294 0.0
H453 H 0.76785 0.47076 0.89679 0.0
C454 C 0.80451 0.51421 0.85757 0.0
C455 C 0.82771 0.53533 0.83725 0.0
C456 C 0.8022 0.47256 0.86514 0.0
C457 C 0.8454 0.51216 0.82363 0.0
C458 C 0.84178 0.46961 0.83072 0.0
C459 C 0.82309 0.41108 0.86043 0.0
C460 C 0.80999 0.39675 0.8831 0.0
C461 C 0.82147 0.45027 0.85179 0.0
C462 C 0.78788 0.41747 0.89551 0.0
C463 C 0.7832 0.4543 0.88642 0.0
H464 H 0.42868 0.78791 0.20527 0.0
H465 H 0.40407 0.85146 0.14669 0.0
H466 H 0.48524 0.91602 0.14814 0.0
H467 H 0.55348 0.96299 0.17195 0.0
H468 H 0.57868 0.9016 0.23136 0.0
H469 H 0.50727 0.82693 0.22336 0.0
C470 C 0.44172 0.81526 0.19247 0.0
C471 C 0.41046 0.81588 0.17629 0.0
C472 C 0.48808 0.8529 0.19377 0.0
C473 C 0.42756 0.85063 0.15942 0.0
C474 C 0.47386 0.88771 0.16035 0.0
C475 C 0.54495 0.9329 0.18267 0.0
C476 C 0.5703 0.93866 0.20286 0.0
C477 C 0.50331 0.89063 0.17832 0.0
C478 C 0.55865 0.8987 0.21621 0.0
C479 C 0.51771 0.85601 0.21169 0.0
H480 H 0.74634 0.33859 0.52627 0.0
H481 H 0.70008 0.41653 0.48474 0.0
H482 H 0.77238 0.49001 0.49388 0.0
H483 H 0.84115 0.5322 0.51845 0.0
H484 H 0.88762 0.45451 0.56018 0.0
H485 H 0.82325 0.38017 0.54546 0.0
C486 C 0.75229 0.37173 0.51917 0.0
C487 C 0.71763 0.37262 0.50536 0.0
C488 C 0.79386 0.41352 0.52439 0.0
C489 C 0.72621 0.41526 0.49559 0.0
C490 C 0.76746 0.45714 0.5008 0.0
C491 C 0.83851 0.49917 0.52374 0.0
C492 C 0.86858 0.49889 0.54079 0.0
C493 C 0.8007 0.45679 0.51578 0.0
C494 C 0.86434 0.4556 0.54741 0.0
C495 C 0.82735 0.41316 0.53915 0.0
H496 H 0.35113 0.55962 0.91569 0.0
H497 H 0.31309 0.50683 0.84717 0.0
H498 H 0.23064 0.46143 0.85802 0.0
H499 H 0.17044 0.43151 0.88735 0.0
H500 H 0.20667 0.48549 0.95581 0.0
H501 H 0.289 0.53384 0.94475 0.0
C502 C 0.32468 0.53847 0.90312 0.0
C503 C 0.33836 0.53677 0.88066 0.0
C504 C 0.27719 0.51165 0.90955 0.0
C505 C 0.30361 0.50952 0.8645 0.0
C506 C 0.25643 0.48298 0.87074 0.0
C507 C 0.19599 0.45441 0.89985 0.0
C508 C 0.18208 0.45439 0.92244 0.0
C509 C 0.24299 0.48308 0.89328 0.0
C510 C 0.21629 0.48376 0.9384 0.0
C511 C 0.26339 0.51193 0.93204 0.0
H512 H 0.8517 0.43216 0.12554 0.0
H513 H 0.8543 0.30323 0.1124 0.0
H514 H 0.76964 0.25749 0.11854 0.0
H515 H 0.7037 0.25373 0.13957 0.0
H516 H 0.70421 0.38199 0.15844 0.0
H517 H 0.77792 0.42814 0.13762 0.0
C518 C 0.83332 0.39412 0.1233 0.0
C519 C 0.85938 0.37093 0.11948 0.0
C520 C 0.78526 0.36782 0.12854 0.0
C521 C 0.83522 0.32194 0.11572 0.0
C522 C 0.78679 0.29565 0.11957 0.0
C523 C 0.71871 0.29167 0.13837 0.0
C524 C 0.69921 0.31454 0.15104 0.0
C525 C 0.76253 0.31805 0.12785 0.0
C526 C 0.71916 0.3637 0.14923 0.0
C527 C 0.7615 0.3901 0.13756 0.0
H528 H 1.04171 0.57332 0.11908 0.0
H529 H 0.16585 0.56507 0.10207 0.0
H530 H 0.12152 0.50481 0.07339 0.0
H531 H 1.04745 0.45231 0.0547 0.0
H532 H 0.92076 0.45483 0.07295 0.0
H533 H 0.96585 0.51907 0.10007 0.0
C534 C 1.05902 0.55886 0.10873 0.0
C535 C 0.10698 0.57382 0.11224 0.0
C536 C 1.0327 0.52263 0.093 0.0
C537 C 0.1291 0.55439 0.09922 0.0
C538 C 1.10369 0.51966 0.08307 0.0
C539 C 1.02938 0.46628 0.06484 0.0
C540 C 0.98069 0.44832 0.06206 0.0
C541 C 1.05536 0.50291 0.08018 0.0
C542 C 0.95824 0.46805 0.0748 0.0
C543 C 0.98401 0.5048 0.09024 0.0
H544 H 0.68963 0.14775 0.43145 0.0
H545 H 0.54061 0.08739 0.44359 0.0
H546 H 0.53063 0.11502 0.40663 0.0
H547 H 0.56334 0.15096 0.36979 0.0
H548 H 0.71213 0.21004 0.35727 0.0
H549 H 0.72349 0.18989 0.39572 0.0
C550 C 0.65506 0.1408 0.42595 0.0
C551 C 0.61578 0.11503 0.43994 0.0
C552 C 0.64966 0.15701 0.40476 0.0
C553 C 0.57126 0.10687 0.43294 0.0
C554 C 0.56556 0.12272 0.41186 0.0
C555 C 0.59833 0.15993 0.3756 0.0
C556 C 0.63673 0.18161 0.36065 0.0
C557 C 0.60438 0.14712 0.39749 0.0
C558 C 0.68202 0.19373 0.36849 0.0
C559 C 0.68846 0.18165 0.39039 0.0
H560 H 0.64126 0.5538 0.76625 0.0
H561 H 0.69843 0.70255 0.77939 0.0
H562 H 0.75193 0.72186 0.74745 0.0
H563 H 0.78423 0.69723 0.71675 0.0
H564 H 0.72609 0.54927 0.7012 0.0
H565 H 0.67264 0.52881 0.73364 0.0
C566 C 0.66496 0.59029 0.76178 0.0
C567 C 0.66602 0.62676 0.77502 0.0
C568 C 0.69615 0.60129 0.74335 0.0
C569 C 0.69712 0.67397 0.76936 0.0
C570 C 0.72791 0.68506 0.75121 0.0
C571 C 0.75946 0.66043 0.72017 0.0
C572 C 0.75894 0.62495 0.70636 0.0
C573 C 0.72802 0.64908 0.73825 0.0
C574 C 0.7276 0.57741 0.71164 0.0
C575 C 0.69663 0.56568 0.73004 0.0
H576 H 0.53503 1.06842 0.57819 0.0
H577 H 0.6829 0.14287 0.56168 0.0
H578 H 0.70312 0.15038 0.60209 0.0
H579 H 0.67852 0.13781 0.64253 0.0
H580 H 0.53062 1.05877 0.65861 0.0
H581 H 0.51065 1.05102 0.61822 0.0
C582 C 0.57168 0.08602 0.58346 0.0
C583 C 0.60738 0.10533 0.56693 0.0
C584 C 0.58303 0.08958 0.60675 0.0
C585 C 0.65471 0.12766 0.57402 0.0
C586 C 0.6663 0.13213 0.59716 0.0
C587 C 0.64198 0.11887 0.63711 0.0
C588 C 0.60606 0.09913 0.65356 0.0
C589 C 0.63076 0.11364 0.61373 0.0
C590 C 0.55887 0.07419 0.64631 0.0
C591 C 0.54744 0.06982 0.6232 0.0
H592 H 0.72355 0.61696 0.91062 0.0
H593 H 0.59826 0.62466 0.8963 0.0
H594 H 0.57753 0.61389 0.93681 0.0
H595 H 0.59861 0.60758 0.97687 0.0
H596 H 0.72245 0.59516 0.9895 0.0
H597 H 0.74024 0.6031 0.94933 0.0
C598 C 0.6914 0.6158 0.91633 0.0
C599 C 0.66247 0.62156 0.90048 0.0
C600 C 0.67983 0.60949 0.93951 0.0
C601 C 0.62082 0.61972 0.9081 0.0
C602 C 0.60925 0.61397 0.93132 0.0
C603 C 0.62917 0.60599 0.97088 0.0
C604 C 0.65979 0.60214 0.98668 0.0
C605 C 0.63892 0.6095 0.9473 0.0
C606 C 0.69906 0.59997 0.9782 0.0
C607 C 0.70914 0.604 0.95505 0.0
H608 H 0.12914 0.50796 0.24609 0.0
H609 H 0.11762 0.63112 0.23114 0.0
H610 H 0.11658 0.64667 0.27179 0.0
H611 H 0.11655 0.62374 0.31187 0.0
H612 H 0.1248 0.49848 0.32632 0.0
H613 H 0.12911 0.48517 0.28582 0.0
C614 C 0.12662 0.53835 0.25171 0.0
C615 C 0.12369 0.56845 0.23553 0.0
C616 C 0.1251 0.54652 0.27514 0.0
C617 C 0.12014 0.60749 0.24318 0.0
C618 C 0.11942 0.61632 0.26646 0.0
C619 C 0.11961 0.59372 0.30615 0.0
C620 C 0.12015 0.56207 0.32225 0.0
C621 C 0.12158 0.58591 0.28265 0.0
C622 C 0.12368 0.5231 0.31441 0.0
C623 C 0.12638 0.51555 0.2912 0.0
loop_
_geom_bond_atom_site_label_1
_geom_bond_atom_site_label_2
_geom_bond_distance
_geom_bond_site_symmetry_2
_ccdc_geom_bond_type
Tb0 C2 2.809 . S
Tb0 O20 2.484 . S
Tb0 O21 2.440 . S
Tb0 O22 2.658 . S
Tb0 O23 2.409 . S
Tb0 O24 2.378 . S
Tb0 O28 2.325 . S
Tb0 O31 2.341 1_455 S
Tb1 C11 2.809 . S
Tb1 O22 2.325 1_655 S
Tb1 O25 2.341 1_655 S
Tb1 O26 2.484 . S
Tb1 O27 2.440 . S
Tb1 O28 2.658 1_655 S
Tb1 O29 2.409 1_655 S
Tb1 O30 2.378 . S
C2 Tb0 2.809 . S
C2 C3 1.514 . S
C2 O20 1.248 . S
C2 O21 1.266 . S
C3 C2 1.514 . S
C3 C4 1.359 . S
C3 C8 1.348 . S
C4 C3 1.359 . S
C4 C5 1.380 . S
C4 H32 0.929 . S
C5 C4 1.380 . S
C5 C6 1.347 . S
C5 H33 0.931 . S
C6 C5 1.347 . S
C6 C7 1.369 . S
C7 C6 1.369 . S
C7 C8 1.408 . S
C7 H34 0.930 . S
C8 C3 1.348 . S
C8 C7 1.408 . S
C8 H35 0.930 . S
C9 O22 1.281 . S
C9 O23 1.254 . S
C10 O24 1.236 . S
C10 O25 1.266 . S
C11 Tb1 2.809 . S
C11 C12 1.514 . S
C11 O26 1.248 . S
C11 O27 1.266 . S
C12 C11 1.514 . S
C12 C13 1.359 . S
C12 C17 1.348 . S
C13 C12 1.359 . S
C13 C14 1.380 . S
C13 H36 0.929 . S
C14 C13 1.380 . S
C14 C15 1.347 . S
C14 H37 0.931 . S
C15 C14 1.347 . S
C15 C16 1.369 . S
C16 C15 1.369 . S
C16 C17 1.408 . S
C16 H38 0.930 . S
C17 C12 1.348 . S
C17 C16 1.408 . S
C17 H39 0.930 . S
C18 O28 1.281 . S
C18 O29 1.254 . S
C19 O30 1.236 . S
C19 O31 1.266 . S
O20 Tb0 2.484 . S
O20 C2 1.248 . S
O21 Tb0 2.440 . S
O21 C2 1.266 . S
O22 Tb0 2.658 . S
O22 Tb1 2.325 1_455 S
O22 C9 1.281 . S
O23 Tb0 2.409 . S
O23 C9 1.254 . S
O24 Tb0 2.378 . S
O24 C10 1.236 . S
O25 Tb1 2.341 1_455 S
O25 C10 1.266 . S
O26 Tb1 2.484 . S
O26 C11 1.248 . S
O27 Tb1 2.440 . S
O27 C11 1.266 . S
O28 Tb0 2.325 . S
O28 Tb1 2.658 1_455 S
O28 C18 1.281 . S
O29 Tb1 2.409 1_455 S
O29 C18 1.254 . S
O30 Tb1 2.378 . S
O30 C19 1.236 . S
O31 Tb0 2.341 1_655 S
O31 C19 1.266 . S
H32 C4 0.929 . S
H33 C5 0.931 . S
H34 C7 0.930 . S
H35 C8 0.930 . S
H36 C13 0.929 . S
H37 C14 0.931 . S
H38 C16 0.930 . S
H39 C17 0.930 . S
Tb40 C42 2.809 . S
Tb40 O60 2.484 . S
Tb40 O61 2.440 . S
Tb40 O62 2.658 1_565 S
Tb40 O63 2.409 1_565 S
Tb40 O64 2.378 . S
Tb40 O68 2.325 1_565 S
Tb40 O71 2.341 1_565 S
Tb41 C51 2.809 . S
Tb41 O62 2.325 . S
Tb41 O65 2.341 1_545 S
Tb41 O66 2.484 . S
Tb41 O67 2.440 . S
Tb41 O68 2.658 . S
Tb41 O69 2.409 . S
Tb41 O70 2.378 . S
C42 Tb40 2.809 . S
C42 C43 1.514 . S
C42 O60 1.248 . S
C42 O61 1.266 . S
C43 C42 1.514 . S
C43 C44 1.359 . S
C43 C48 1.348 . S
C44 C43 1.359 . S
C44 C45 1.380 . S
C44 H72 0.929 . S
C45 C44 1.380 . S
C45 C46 1.347 . S
C45 H73 0.931 . S
C46 C45 1.347 . S
C46 C47 1.369 . S
C47 C46 1.369 . S
C47 C48 1.408 . S
C47 H74 0.930 . S
C48 C43 1.348 . S
C48 C47 1.408 . S
C48 H75 0.930 . S
C49 O62 1.281 . S
C49 O63 1.254 . S
C50 O64 1.236 . S
C50 O65 1.266 . S
C51 Tb41 2.809 . S
C51 C52 1.514 . S
C51 O66 1.248 . S
C51 O67 1.266 . S
C52 C51 1.514 . S
C52 C53 1.359 . S
C52 C57 1.348 . S
C53 C52 1.359 . S
C53 C54 1.380 . S
C53 H76 0.929 . S
C54 C53 1.380 . S
C54 C55 1.347 . S
C54 H77 0.931 . S
C55 C54 1.347 . S
C55 C56 1.369 . S
C56 C55 1.369 . S
C56 C57 1.408 . S
C56 H78 0.930 . S
C57 C52 1.348 . S
C57 C56 1.408 . S
C57 H79 0.930 . S
C58 O68 1.281 . S
C58 O69 1.254 . S
C59 O70 1.236 . S
C59 O71 1.266 . S
O60 Tb40 2.484 . S
O60 C42 1.248 . S
O61 Tb40 2.440 . S
O61 C42 1.266 . S
O62 Tb40 2.658 1_545 S
O62 Tb41 2.325 . S
O62 C49 1.281 . S
O63 Tb40 2.409 1_545 S
O63 C49 1.254 . S
O64 Tb40 2.378 . S
O64 C50 1.236 . S
O65 Tb41 2.341 1_565 S
O65 C50 1.266 . S
O66 Tb41 2.484 . S
O66 C51 1.248 . S
O67 Tb41 2.440 . S
O67 C51 1.266 . S
O68 Tb40 2.325 1_545 S
O68 Tb41 2.658 . S
O68 C58 1.281 . S
O69 Tb41 2.409 . S
O69 C58 1.254 . S
O70 Tb41 2.378 . S
O70 C59 1.236 . S
O71 Tb40 2.341 1_545 S
O71 C59 1.266 . S
H72 C44 0.929 . S
H73 C45 0.931 . S
H74 C47 0.930 . S
H75 C48 0.930 . S
H76 C53 0.929 . S
H77 C54 0.931 . S
H78 C56 0.930 . S
H79 C57 0.930 . S
Tb80 C82 2.809 . S
Tb80 O100 2.484 . S
Tb80 O101 2.440 . S
Tb80 O102 2.658 . S
Tb80 O103 2.409 . S
Tb80 O104 2.378 . S
Tb80 O108 2.325 . S
Tb80 O111 2.341 . S
Tb81 C91 2.809 . S
Tb81 O102 2.325 . S
Tb81 O105 2.341 . S
Tb81 O106 2.484 . S
Tb81 O107 2.440 . S
Tb81 O108 2.658 . S
Tb81 O109 2.409 . S
Tb81 O110 2.378 . S
C82 Tb80 2.809 . S
C82 C83 1.514 . S
C82 O100 1.248 . S
C82 O101 1.266 . S
C83 C82 1.514 . S
C83 C84 1.359 . S
C83 C88 1.348 . S
C84 C83 1.359 . S
C84 C85 1.380 . S
C84 H112 0.929 . S
C85 C84 1.380 . S
C85 C86 1.347 . S
C85 H113 0.931 . S
C86 C85 1.347 . S
C86 C87 1.369 . S
C87 C86 1.369 . S
C87 C88 1.408 . S
C87 H114 0.930 . S
C88 C83 1.348 . S
C88 C87 1.408 . S
C88 H115 0.930 . S
C89 O102 1.281 . S
C89 O103 1.254 . S
C90 O104 1.236 . S
C90 O105 1.266 . S
C91 Tb81 2.809 . S
C91 C92 1.514 . S
C91 O106 1.248 . S
C91 O107 1.266 . S
C92 C91 1.514 . S
C92 C93 1.359 . S
C92 C97 1.348 . S
C93 C92 1.359 . S
C93 C94 1.380 . S
C93 H116 0.929 . S
C94 C93 1.380 . S
C94 C95 1.347 . S
C94 H117 0.931 . S
C95 C94 1.347 . S
C95 C96 1.369 . S
C96 C95 1.369 . S
C96 C97 1.408 . S
C96 H118 0.930 . S
C97 C92 1.348 . S
C97 C96 1.408 . S
C97 H119 0.930 . S
C98 O108 1.281 . S
C98 O109 1.254 . S
C99 O110 1.236 . S
C99 O111 1.266 . S
O100 Tb80 2.484 . S
O100 C82 1.248 . S
O101 Tb80 2.440 . S
O101 C82 1.266 . S
O102 Tb80 2.658 . S
O102 Tb81 2.325 . S
O102 C89 1.281 . S
O103 Tb80 2.409 . S
O103 C89 1.254 . S
O104 Tb80 2.378 . S
O104 C90 1.236 . S
O105 Tb81 2.341 . S
O105 C90 1.266 . S
O106 Tb81 2.484 . S
O106 C91 1.248 . S
O107 Tb81 2.440 . S
O107 C91 1.266 . S
O108 Tb80 2.325 . S
O108 Tb81 2.658 . S
O108 C98 1.281 . S
O109 Tb81 2.409 . S
O109 C98 1.254 . S
O110 Tb81 2.378 . S
O110 C99 1.236 . S
O111 Tb80 2.341 . S
O111 C99 1.266 . S
H112 C84 0.929 . S
H113 C85 0.931 . S
H114 C87 0.930 . S
H115 C88 0.930 . S
H116 C93 0.929 . S
H117 C94 0.931 . S
H118 C96 0.930 . S
H119 C97 0.930 . S
C120 C121 1.384 . S
C120 H133 0.947 . S
C120 C155 1.382 . S
C121 C120 1.384 . S
C121 C122 1.378 . S
C122 C121 1.378 . S
C122 C123 1.378 . S
C122 H134 0.952 . S
C123 C122 1.378 . S
C123 H135 0.950 . S
C123 C154 1.383 . S
H124 C143 0.947 . S
H125 C144 0.946 . S
H126 C146 0.953 . S
H127 C147 0.945 . S
H128 C149 0.952 . S
H129 C150 0.949 . S
H130 C152 0.950 1_565 S
H131 C153 0.948 1_565 S
H132 C155 0.951 . S
H133 C120 0.947 . S
H134 C122 0.952 . S
H135 C123 0.950 . S
N136 C139 1.382 . S
N136 C141 1.363 . S
N137 C139 1.371 . S
N137 C140 1.372 . S
N138 C140 1.361 . S
N138 C141 1.377 . S
C139 N136 1.382 . S
C139 N137 1.371 . S
C139 C142 1.480 . S
C140 N137 1.372 . S
C140 N138 1.361 . S
C140 C148 1.457 . S
C141 N136 1.363 . S
C141 N138 1.377 . S
C141 C154 1.479 1_545 S
C142 C139 1.480 . S
C142 C143 1.383 . S
C142 C147 1.385 . S
C143 H124 0.947 . S
C143 C142 1.383 . S
C143 C144 1.388 . S
C144 H125 0.946 . S
C144 C143 1.388 . S
C144 C145 1.384 . S
C145 C144 1.384 . S
C145 C146 1.377 . S
C146 H126 0.953 . S
C146 C145 1.377 . S
C146 C147 1.369 . S
C147 H127 0.945 . S
C147 C142 1.385 . S
C147 C146 1.369 . S
C148 C140 1.457 . S
C148 C149 1.372 . S
C148 C153 1.364 . S
C149 H128 0.952 . S
C149 C148 1.372 . S
C149 C150 1.389 . S
C150 H129 0.949 . S
C150 C149 1.389 . S
C150 C151 1.387 . S
C151 C150 1.387 . S
C151 C152 1.372 . S
C152 H130 0.950 1_545 S
C152 C151 1.372 . S
C152 C153 1.379 . S
C153 H131 0.948 1_545 S
C153 C148 1.364 . S
C153 C152 1.379 . S
C154 C123 1.383 . S
C154 C141 1.479 1_565 S
C154 C155 1.398 . S
C155 C120 1.382 . S
C155 H132 0.951 . S
C155 C154 1.398 . S
C156 C157 1.384 . S
C156 H169 0.947 . S
C156 C191 1.382 . S
C157 C156 1.384 . S
C157 C158 1.378 . S
C158 C157 1.378 . S
C158 C159 1.378 . S
C158 H170 0.952 . S
C159 C158 1.378 . S
C159 H171 0.950 . S
C159 C190 1.383 . S
H160 C179 0.947 . S
H161 C180 0.946 . S
H162 C182 0.953 . S
H163 C183 0.945 . S
H164 C185 0.952 . S
H165 C186 0.949 . S
H166 C188 0.950 . S
H167 C189 0.948 . S
H168 C191 0.951 . S
H169 C156 0.947 . S
H170 C158 0.952 . S
H171 C159 0.950 . S
N172 C175 1.382 . S
N172 C177 1.363 . S
N173 C175 1.371 . S
N173 C176 1.372 . S
N174 C176 1.361 . S
N174 C177 1.377 . S
C175 N172 1.382 . S
C175 N173 1.371 . S
C175 C178 1.480 . S
C176 N173 1.372 . S
C176 N174 1.361 . S
C176 C184 1.457 . S
C177 N172 1.363 . S
C177 N174 1.377 . S
C177 C190 1.479 . S
C178 C175 1.480 . S
C178 C179 1.383 . S
C178 C183 1.385 . S
C179 H160 0.947 . S
C179 C178 1.383 . S
C179 C180 1.388 . S
C180 H161 0.946 . S
C180 C179 1.388 . S
C180 C181 1.384 . S
C181 C180 1.384 . S
C181 C182 1.377 . S
C182 H162 0.953 . S
C182 C181 1.377 . S
C182 C183 1.369 . S
C183 H163 0.945 . S
C183 C178 1.385 . S
C183 C182 1.369 . S
C184 C176 1.457 . S
C184 C185 1.372 . S
C184 C189 1.364 . S
C185 H164 0.952 . S
C185 C184 1.372 . S
C185 C186 1.389 . S
C186 H165 0.949 . S
C186 C185 1.389 . S
C186 C187 1.387 . S
C187 C186 1.387 . S
C187 C188 1.372 . S
C188 H166 0.950 . S
C188 C187 1.372 . S
C188 C189 1.379 . S
C189 H167 0.948 . S
C189 C184 1.364 . S
C189 C188 1.379 . S
C190 C159 1.383 . S
C190 C177 1.479 . S
C190 C191 1.398 . S
C191 C156 1.382 . S
C191 H168 0.951 . S
C191 C190 1.398 . S
C192 C193 1.384 . S
C192 H205 0.947 . S
C192 C227 1.382 . S
C193 C192 1.384 . S
C193 C194 1.378 . S
C194 C193 1.378 . S
C194 C195 1.378 . S
C194 H206 0.952 . S
C195 C194 1.378 . S
C195 H207 0.950 . S
C195 C226 1.383 . S
H196 C215 0.947 . S
H197 C216 0.946 . S
H198 C218 0.953 . S
H199 C219 0.945 . S
H200 C221 0.952 . S
H201 C222 0.949 1_554 S
H202 C224 0.950 1_554 S
H203 C225 0.948 . S
H204 C227 0.951 . S
H205 C192 0.947 . S
H206 C194 0.952 . S
H207 C195 0.950 . S
N208 C211 1.371 1_655 S
N208 C213 1.374 . S
N209 C211 1.371 . S
N209 C212 1.372 . S
N210 C212 1.361 1_655 S
N210 C213 1.377 . S
C211 N208 1.371 1_455 S
C211 N209 1.371 . S
C211 C214 1.480 . S
C212 N209 1.372 . S
C212 N210 1.361 1_455 S
C212 C220 1.457 . S
C213 N208 1.374 . S
C213 N210 1.377 . S
C213 C226 1.479 . S
C214 C211 1.480 . S
C214 C215 1.383 . S
C214 C219 1.385 . S
C215 H196 0.947 . S
C215 C214 1.383 . S
C215 C216 1.388 . S
C216 H197 0.946 . S
C216 C215 1.388 . S
C216 C217 1.384 . S
C217 C216 1.384 . S
C217 C218 1.377 . S
C218 H198 0.953 . S
C218 C217 1.377 . S
C218 C219 1.369 . S
C219 H199 0.945 . S
C219 C214 1.385 . S
C219 C218 1.369 . S
C220 C212 1.457 . S
C220 C221 1.372 . S
C220 C225 1.364 1_455 S
C221 H200 0.952 . S
C221 C220 1.372 . S
C221 C222 1.389 . S
C222 H201 0.949 1_556 S
C222 C221 1.389 . S
C222 C223 1.387 1_556 S
C223 C222 1.387 1_554 S
C223 C224 1.372 1_454 S
C224 H202 0.950 1_556 S
C224 C223 1.372 1_656 S
C224 C225 1.379 . S
C225 H203 0.948 . S
C225 C220 1.364 1_655 S
C225 C224 1.379 . S
C226 C195 1.383 . S
C226 C213 1.479 . S
C226 C227 1.398 . S
C227 C192 1.382 . S
C227 H204 0.951 . S
C227 C226 1.398 . S
C228 C229 1.384 . S
C228 H241 0.947 . S
C228 C263 1.382 . S
C229 C228 1.384 . S
C229 C230 1.378 . S
C230 C229 1.378 . S
C230 C231 1.378 . S
C230 H242 0.952 . S
C231 C230 1.378 . S
C231 H243 0.950 . S
C231 C262 1.383 . S
H232 C251 0.947 1_455 S
H233 C252 0.946 . S
H234 C254 0.953 . S
H235 C255 0.945 . S
H236 C257 0.952 1_655 S
H237 C258 0.949 1_655 S
H238 C260 0.950 . S
H239 C261 0.948 . S
H240 C263 0.951 . S
H241 C228 0.947 . S
H242 C230 0.952 . S
H243 C231 0.950 . S
N244 C247 1.382 . S
N244 C249 1.363 . S
N245 C247 1.371 . S
N245 C248 1.372 . S
N246 C248 1.361 . S
N246 C249 1.377 . S
C247 N244 1.382 . S
C247 N245 1.371 . S
C247 C250 1.480 1_455 S
C248 N245 1.372 . S
C248 N246 1.361 . S
C248 C256 1.457 . S
C249 N244 1.363 . S
C249 N246 1.377 . S
C249 C262 1.479 . S
C250 C247 1.480 1_655 S
C250 C251 1.383 . S
C250 C255 1.385 . S
C251 H232 0.947 1_655 S
C251 C250 1.383 . S
C251 C252 1.388 . S
C252 H233 0.946 . S
C252 C251 1.388 . S
C252 C253 1.384 . S
C253 C252 1.384 . S
C253 C254 1.377 . S
C254 H234 0.953 . S
C254 C253 1.377 . S
C254 C255 1.369 . S
C255 H235 0.945 . S
C255 C250 1.385 . S
C255 C254 1.369 . S
C256 C248 1.457 . S
C256 C257 1.372 . S
C256 C261 1.364 . S
C257 H236 0.952 1_455 S
C257 C256 1.372 . S
C257 C258 1.389 . S
C258 H237 0.949 1_455 S
C258 C257 1.389 . S
C258 C259 1.387 . S
C259 C258 1.387 . S
C259 C260 1.372 . S
C260 H238 0.950 . S
C260 C259 1.372 . S
C260 C261 1.379 . S
C261 H239 0.948 . S
C261 C256 1.364 . S
C261 C260 1.379 . S
C262 C231 1.383 . S
C262 C249 1.479 . S
C262 C263 1.398 . S
C263 C228 1.382 . S
C263 H240 0.951 . S
C263 C262 1.398 . S
C264 C265 1.384 . S
C264 H277 0.947 . S
C264 C299 1.382 . S
C265 C264 1.384 . S
C265 C266 1.378 . S
C266 C265 1.378 . S
C266 C267 1.378 . S
C266 H278 0.952 . S
C267 C266 1.378 . S
C267 H279 0.950 . S
C267 C298 1.383 . S
H268 C287 0.947 . S
H269 C288 0.946 . S
H270 C290 0.953 . S
H271 C291 0.945 . S
H272 C293 0.952 . S
H273 C294 0.949 . S
H274 C296 0.950 . S
H275 C297 0.948 . S
H276 C299 0.951 . S
H277 C264 0.947 . S
H278 C266 0.952 . S
H279 C267 0.950 . S
N280 C283 1.382 1_545 S
N280 C285 1.363 . S
N281 C283 1.371 . S
N281 C284 1.372 1_565 S
N282 C284 1.361 . S
N282 C285 1.377 . S
C283 N280 1.382 1_565 S
C283 N281 1.371 . S
C283 C286 1.480 . S
C284 N281 1.372 1_545 S
C284 N282 1.361 . S
C284 C292 1.457 . S
C285 N280 1.363 . S
C285 N282 1.377 . S
C285 C298 1.479 . S
C286 C283 1.480 . S
C286 C287 1.383 . S
C286 C291 1.385 . S
C287 H268 0.947 . S
C287 C286 1.383 . S
C287 C288 1.388 . S
C288 H269 0.946 . S
C288 C287 1.388 . S
C288 C289 1.384 . S
C289 C288 1.384 . S
C289 C290 1.377 . S
C290 H270 0.953 . S
C290 C289 1.377 . S
C290 C291 1.369 . S
C291 H271 0.945 . S
C291 C286 1.385 . S
C291 C290 1.369 . S
C292 C284 1.457 . S
C292 C293 1.372 1_545 S
C292 C297 1.364 . S
C293 H272 0.952 . S
C293 C292 1.372 1_565 S
C293 C294 1.389 . S
C294 H273 0.949 . S
C294 C293 1.389 . S
C294 C295 1.387 1_565 S
C295 C294 1.387 1_545 S
C295 C296 1.372 . S
C296 H274 0.950 . S
C296 C295 1.372 . S
C296 C297 1.379 . S
C297 H275 0.948 . S
C297 C292 1.364 . S
C297 C296 1.379 . S
C298 C267 1.383 . S
C298 C285 1.479 . S
C298 C299 1.398 . S
C299 C264 1.382 . S
C299 H276 0.951 . S
C299 C298 1.398 . S
C300 C301 1.384 . S
C300 H313 0.947 . S
C300 C335 1.382 . S
C301 C300 1.384 . S
C301 C302 1.378 . S
C302 C301 1.378 . S
C302 C303 1.378 . S
C302 H314 0.952 . S
C303 C302 1.378 . S
C303 H315 0.950 . S
C303 C334 1.383 . S
H304 C323 0.947 . S
H305 C324 0.946 . S
H306 C326 0.953 . S
H307 C327 0.945 . S
H308 C329 0.952 . S
H309 C330 0.949 . S
H310 C332 0.950 . S
H311 C333 0.948 . S
H312 C335 0.951 . S
H313 C300 0.947 . S
H314 C302 0.952 . S
H315 C303 0.950 . S
N316 C319 1.382 . S
N316 C321 1.363 . S
N317 C319 1.371 . S
N317 C320 1.372 . S
N318 C320 1.361 . S
N318 C321 1.377 . S
C319 N316 1.382 . S
C319 N317 1.371 . S
C319 C322 1.480 . S
C320 N317 1.372 . S
C320 N318 1.361 . S
C320 C328 1.457 . S
C321 N316 1.363 . S
C321 N318 1.377 . S
C321 C334 1.479 . S
C322 C319 1.480 . S
C322 C323 1.383 . S
C322 C327 1.385 . S
C323 H304 0.947 . S
C323 C322 1.383 . S
C323 C324 1.388 . S
C324 H305 0.946 . S
C324 C323 1.388 . S
C324 C325 1.384 . S
C325 C324 1.384 . S
C325 C326 1.377 . S
C326 H306 0.953 . S
C326 C325 1.377 . S
C326 C327 1.369 . S
C327 H307 0.945 . S
C327 C322 1.385 . S
C327 C326 1.369 . S
C328 C320 1.457 . S
C328 C329 1.372 . S
C328 C333 1.364 . S
C329 H308 0.952 . S
C329 C328 1.372 . S
C329 C330 1.389 . S
C330 H309 0.949 . S
C330 C329 1.389 . S
C330 C331 1.387 . S
C331 C330 1.387 . S
C331 C332 1.372 . S
C332 H310 0.950 . S
C332 C331 1.372 . S
C332 C333 1.379 . S
C333 H311 0.948 . S
C333 C328 1.364 . S
C333 C332 1.379 . S
C334 C303 1.383 . S
C334 C321 1.479 . S
C334 C335 1.398 . S
C335 C300 1.382 . S
C335 H312 0.951 . S
C335 C334 1.398 . S
H336 C342 0.930 . S
H337 C345 0.930 . S
H338 C346 0.930 . S
H339 C347 0.930 . S
H340 C350 0.930 . S
H341 C351 0.930 . S
C342 H336 0.930 . S
C342 C343 1.355 . S
C342 C344 1.415 . S
C343 C342 1.355 . S
C343 C345 1.419 . S
C344 C342 1.415 . S
C344 C349 1.425 . S
C344 C351 1.409 . S
C345 H337 0.930 . S
C345 C343 1.419 . S
C345 C346 1.362 . S
C346 H338 0.930 . S
C346 C345 1.362 . S
C346 C349 1.409 . S
C347 H339 0.930 . S
C347 C348 1.355 . S
C347 C349 1.415 . S
C348 C347 1.355 . S
C348 C350 1.419 . S
C349 C344 1.425 . S
C349 C346 1.409 . S
C349 C347 1.415 . S
C350 H340 0.930 . S
C350 C348 1.419 . S
C350 C351 1.362 . S
C351 H341 0.930 . S
C351 C344 1.409 . S
C351 C350 1.362 . S
H352 C358 0.930 . S
H353 C361 0.930 . S
H354 C362 0.930 . S
H355 C363 0.930 . S
H356 C366 0.930 . S
H357 C367 0.930 . S
C358 H352 0.930 . S
C358 C359 1.355 . S
C358 C360 1.415 . S
C359 C358 1.355 . S
C359 C361 1.419 . S
C360 C358 1.415 . S
C360 C365 1.425 . S
C360 C367 1.409 . S
C361 H353 0.930 . S
C361 C359 1.419 . S
C361 C362 1.362 . S
C362 H354 0.930 . S
C362 C361 1.362 . S
C362 C365 1.409 . S
C363 H355 0.930 . S
C363 C364 1.355 . S
C363 C365 1.415 . S
C364 C363 1.355 . S
C364 C366 1.419 . S
C365 C360 1.425 . S
C365 C362 1.409 . S
C365 C363 1.415 . S
C366 H356 0.930 . S
C366 C364 1.419 . S
C366 C367 1.362 . S
C367 H357 0.930 . S
C367 C360 1.409 . S
C367 C366 1.362 . S
H368 C374 0.930 . S
H369 C377 0.930 . S
H370 C378 0.930 . S
H371 C379 0.930 . S
H372 C382 0.930 . S
H373 C383 0.930 . S
C374 H368 0.930 . S
C374 C375 1.355 . S
C374 C376 1.415 . S
C375 C374 1.355 . S
C375 C377 1.419 . S
C376 C374 1.415 . S
C376 C381 1.425 . S
C376 C383 1.409 . S
C377 H369 0.930 . S
C377 C375 1.419 . S
C377 C378 1.362 . S
C378 H370 0.930 . S
C378 C377 1.362 . S
C378 C381 1.409 . S
C379 H371 0.930 . S
C379 C380 1.355 . S
C379 C381 1.415 . S
C380 C379 1.355 . S
C380 C382 1.419 . S
C381 C376 1.425 . S
C381 C378 1.409 . S
C381 C379 1.415 . S
C382 H372 0.930 . S
C382 C380 1.419 . S
C382 C383 1.362 . S
C383 H373 0.930 . S
C383 C376 1.409 . S
C383 C382 1.362 . S
H384 C390 0.930 . S
H385 C393 0.930 . S
H386 C394 0.930 . S
H387 C395 0.930 . S
H388 C398 0.930 . S
H389 C399 0.930 . S
C390 H384 0.930 . S
C390 C391 1.355 . S
C390 C392 1.415 . S
C391 C390 1.355 . S
C391 C393 1.419 . S
C392 C390 1.415 . S
C392 C397 1.425 . S
C392 C399 1.409 . S
C393 H385 0.930 . S
C393 C391 1.419 . S
C393 C394 1.362 . S
C394 H386 0.930 . S
C394 C393 1.362 . S
C394 C397 1.409 . S
C395 H387 0.930 . S
C395 C396 1.355 . S
C395 C397 1.415 . S
C396 C395 1.355 . S
C396 C398 1.419 . S
C397 C392 1.425 . S
C397 C394 1.409 . S
C397 C395 1.415 . S
C398 H388 0.930 . S
C398 C396 1.419 . S
C398 C399 1.362 . S
C399 H389 0.930 . S
C399 C392 1.409 . S
C399 C398 1.362 . S
H400 C406 0.930 . S
H401 C409 0.930 . S
H402 C410 0.930 . S
H403 C411 0.930 . S
H404 C414 0.930 . S
H405 C415 0.930 . S
C406 H400 0.930 . S
C406 C407 1.355 . S
C406 C408 1.415 . S
C407 C406 1.355 . S
C407 C409 1.419 . S
C408 C406 1.415 . S
C408 C413 1.425 . S
C408 C415 1.409 . S
C409 H401 0.930 . S
C409 C407 1.419 . S
C409 C410 1.362 . S
C410 H402 0.930 . S
C410 C409 1.362 . S
C410 C413 1.409 . S
C411 H403 0.930 . S
C411 C412 1.355 . S
C411 C413 1.415 . S
C412 C411 1.355 . S
C412 C414 1.419 . S
C413 C408 1.425 . S
C413 C410 1.409 . S
C413 C411 1.415 . S
C414 H404 0.930 . S
C414 C412 1.419 . S
C414 C415 1.362 . S
C415 H405 0.930 . S
C415 C408 1.409 . S
C415 C414 1.362 . S
H416 C422 0.930 . S
H417 C425 0.930 . S
H418 C426 0.930 . S
H419 C427 0.930 . S
H420 C430 0.930 . S
H421 C431 0.930 . S
C422 H416 0.930 . S
C422 C423 1.355 . S
C422 C424 1.415 . S
C423 C422 1.355 . S
C423 C425 1.419 . S
C424 C422 1.415 . S
C424 C429 1.425 . S
C424 C431 1.409 . S
C425 H417 0.930 . S
C425 C423 1.419 . S
C425 C426 1.362 . S
C426 H418 0.930 . S
C426 C425 1.362 . S
C426 C429 1.409 . S
C427 H419 0.930 . S
C427 C428 1.355 . S
C427 C429 1.415 . S
C428 C427 1.355 . S
C428 C430 1.419 . S
C429 C424 1.425 . S
C429 C426 1.409 . S
C429 C427 1.415 . S
C430 H420 0.930 . S
C430 C428 1.419 . S
C430 C431 1.362 . S
C431 H421 0.930 . S
C431 C424 1.409 . S
C431 C430 1.362 . S
H432 C438 0.930 . S
H433 C441 0.930 . S
H434 C442 0.930 . S
H435 C443 0.930 . S
H436 C446 0.930 . S
H437 C447 0.930 . S
C438 H432 0.930 . S
C438 C439 1.355 . S
C438 C440 1.415 . S
C439 C438 1.355 . S
C439 C441 1.419 . S
C440 C438 1.415 . S
C440 C445 1.425 . S
C440 C447 1.409 . S
C441 H433 0.930 . S
C441 C439 1.419 . S
C441 C442 1.362 . S
C442 H434 0.930 . S
C442 C441 1.362 . S
C442 C445 1.409 . S
C443 H435 0.930 . S
C443 C444 1.355 . S
C443 C445 1.415 . S
C444 C443 1.355 . S
C444 C446 1.419 . S
C445 C440 1.425 . S
C445 C442 1.409 . S
C445 C443 1.415 . S
C446 H436 0.930 . S
C446 C444 1.419 . S
C446 C447 1.362 . S
C447 H437 0.930 . S
C447 C440 1.409 . S
C447 C446 1.362 . S
H448 C454 0.930 . S
H449 C457 0.930 . S
H450 C458 0.930 . S
H451 C459 0.930 . S
H452 C462 0.930 . S
H453 C463 0.930 . S
C454 H448 0.930 . S
C454 C455 1.355 . S
C454 C456 1.415 . S
C455 C454 1.355 . S
C455 C457 1.419 . S
C456 C454 1.415 . S
C456 C461 1.425 . S
C456 C463 1.409 . S
C457 H449 0.930 . S
C457 C455 1.419 . S
C457 C458 1.362 . S
C458 H450 0.930 . S
C458 C457 1.362 . S
C458 C461 1.409 . S
C459 H451 0.930 . S
C459 C460 1.355 . S
C459 C461 1.415 . S
C460 C459 1.355 . S
C460 C462 1.419 . S
C461 C456 1.425 . S
C461 C458 1.409 . S
C461 C459 1.415 . S
C462 H452 0.930 . S
C462 C460 1.419 . S
C462 C463 1.362 . S
C463 H453 0.930 . S
C463 C456 1.409 . S
C463 C462 1.362 . S
H464 C470 0.930 . S
H465 C473 0.930 . S
H466 C474 0.930 . S
H467 C475 0.930 . S
H468 C478 0.930 . S
H469 C479 0.930 . S
C470 H464 0.930 . S
C470 C471 1.355 . S
C470 C472 1.415 . S
C471 C470 1.355 . S
C471 C473 1.419 . S
C472 C470 1.415 . S
C472 C477 1.425 . S
C472 C479 1.409 . S
C473 H465 0.930 . S
C473 C471 1.419 . S
C473 C474 1.362 . S
C474 H466 0.930 . S
C474 C473 1.362 . S
C474 C477 1.409 . S
C475 H467 0.930 . S
C475 C476 1.355 . S
C475 C477 1.415 . S
C476 C475 1.355 . S
C476 C478 1.419 . S
C477 C472 1.425 . S
C477 C474 1.409 . S
C477 C475 1.415 . S
C478 H468 0.930 . S
C478 C476 1.419 . S
C478 C479 1.362 . S
C479 H469 0.930 . S
C479 C472 1.409 . S
C479 C478 1.362 . S
H480 C486 0.930 . S
H481 C489 0.930 . S
H482 C490 0.930 . S
H483 C491 0.930 . S
H484 C494 0.930 . S
H485 C495 0.930 . S
C486 H480 0.930 . S
C486 C487 1.355 . S
C486 C488 1.415 . S
C487 C486 1.355 . S
C487 C489 1.419 . S
C488 C486 1.415 . S
C488 C493 1.425 . S
C488 C495 1.409 . S
C489 H481 0.930 . S
C489 C487 1.419 . S
C489 C490 1.362 . S
C490 H482 0.930 . S
C490 C489 1.362 . S
C490 C493 1.409 . S
C491 H483 0.930 . S
C491 C492 1.355 . S
C491 C493 1.415 . S
C492 C491 1.355 . S
C492 C494 1.419 . S
C493 C488 1.425 . S
C493 C490 1.409 . S
C493 C491 1.415 . S
C494 H484 0.930 . S
C494 C492 1.419 . S
C494 C495 1.362 . S
C495 H485 0.930 . S
C495 C488 1.409 . S
C495 C494 1.362 . S
H496 C502 0.930 . S
H497 C505 0.930 . S
H498 C506 0.930 . S
H499 C507 0.930 . S
H500 C510 0.930 . S
H501 C511 0.930 . S
C502 H496 0.930 . S
C502 C503 1.355 . S
C502 C504 1.415 . S
C503 C502 1.355 . S
C503 C505 1.419 . S
C504 C502 1.415 . S
C504 C509 1.425 . S
C504 C511 1.409 . S
C505 H497 0.930 . S
C505 C503 1.419 . S
C505 C506 1.362 . S
C506 H498 0.930 . S
C506 C505 1.362 . S
C506 C509 1.409 . S
C507 H499 0.930 . S
C507 C508 1.355 . S
C507 C509 1.415 . S
C508 C507 1.355 . S
C508 C510 1.419 . S
C509 C504 1.425 . S
C509 C506 1.409 . S
C509 C507 1.415 . S
C510 H500 0.930 . S
C510 C508 1.419 . S
C510 C511 1.362 . S
C511 H501 0.930 . S
C511 C504 1.409 . S
C511 C510 1.362 . S
H512 C518 0.930 . S
H513 C521 0.930 . S
H514 C522 0.930 . S
H515 C523 0.930 . S
H516 C526 0.930 . S
H517 C527 0.930 . S
C518 H512 0.930 . S
C518 C519 1.355 . S
C518 C520 1.415 . S
C519 C518 1.355 . S
C519 C521 1.419 . S
C520 C518 1.415 . S
C520 C525 1.425 . S
C520 C527 1.409 . S
C521 H513 0.930 . S
C521 C519 1.419 . S
C521 C522 1.362 . S
C522 H514 0.930 . S
C522 C521 1.362 . S
C522 C525 1.409 . S
C523 H515 0.930 . S
C523 C524 1.355 . S
C523 C525 1.415 . S
C524 C523 1.355 . S
C524 C526 1.419 . S
C525 C520 1.425 . S
C525 C522 1.409 . S
C525 C523 1.415 . S
C526 H516 0.930 . S
C526 C524 1.419 . S
C526 C527 1.362 . S
C527 H517 0.930 . S
C527 C520 1.409 . S
C527 C526 1.362 . S
H528 C534 0.930 . S
H529 C537 0.930 . S
H530 C538 0.930 . S
H531 C539 0.930 . S
H532 C542 0.930 . S
H533 C543 0.930 . S
C534 H528 0.930 . S
C534 C535 1.355 1_655 S
C534 C536 1.415 . S
C535 C534 1.355 1_455 S
C535 C537 1.419 . S
C536 C534 1.415 . S
C536 C541 1.425 1_655 S
C536 C543 1.409 . S
C537 H529 0.930 . S
C537 C535 1.419 . S
C537 C538 1.362 . S
C538 H530 0.930 . S
C538 C537 1.362 . S
C538 C541 1.409 . S
C539 H531 0.930 . S
C539 C540 1.355 . S
C539 C541 1.415 . S
C540 C539 1.355 . S
C540 C542 1.419 1_455 S
C541 C536 1.425 1_455 S
C541 C538 1.409 . S
C541 C539 1.415 . S
C542 H532 0.930 . S
C542 C540 1.419 1_655 S
C542 C543 1.362 . S
C543 H533 0.930 . S
C543 C536 1.409 . S
C543 C542 1.362 . S
H544 C550 0.930 . S
H545 C553 0.930 1_565 S
H546 C554 0.930 . S
H547 C555 0.936 . S
H548 C558 0.930 . S
H549 C559 0.930 . S
C550 H544 0.930 . S
C550 C551 1.355 . S
C550 C552 1.415 . S
C551 C550 1.355 . S
C551 C553 1.419 . S
C552 C550 1.415 . S
C552 C557 1.425 . S
C552 C559 1.409 . S
C553 H545 0.930 1_545 S
C553 C551 1.419 . S
C553 C554 1.362 1_545 S
C554 H546 0.930 . S
C554 C553 1.362 1_565 S
C554 C557 1.409 1_565 S
C555 H547 0.936 . S
C555 C556 1.355 . S
C555 C557 1.415 . S
C556 C555 1.355 . S
C556 C558 1.419 . S
C557 C552 1.425 . S
C557 C554 1.409 1_545 S
C557 C555 1.415 . S
C558 H548 0.930 . S
C558 C556 1.419 . S
C558 C559 1.362 . S
C559 H549 0.930 . S
C559 C552 1.409 . S
C559 C558 1.362 . S
H560 C566 0.930 . S
H561 C569 0.930 . S
H562 C570 0.930 . S
H563 C571 0.930 . S
H564 C574 0.930 . S
H565 C575 0.930 . S
C566 H560 0.930 . S
C566 C567 1.355 . S
C566 C568 1.415 . S
C567 C566 1.355 . S
C567 C569 1.419 . S
C568 C566 1.415 . S
C568 C573 1.425 . S
C568 C575 1.409 . S
C569 H561 0.930 . S
C569 C567 1.419 . S
C569 C570 1.362 . S
C570 H562 0.930 . S
C570 C569 1.362 . S
C570 C573 1.409 . S
C571 H563 0.930 . S
C571 C572 1.355 . S
C571 C573 1.415 . S
C572 C571 1.355 . S
C572 C574 1.419 . S
C573 C568 1.425 . S
C573 C570 1.409 . S
C573 C571 1.415 . S
C574 H564 0.930 . S
C574 C572 1.419 . S
C574 C575 1.362 . S
C575 H565 0.930 . S
C575 C568 1.409 . S
C575 C574 1.362 . S
H576 C582 0.930 . S
H577 C585 0.930 . S
H578 C586 0.930 . S
H579 C587 0.930 . S
H580 C590 0.930 . S
H581 C591 0.930 . S
C582 H576 0.930 . S
C582 C583 1.355 1_565 S
C582 C584 1.415 . S
C583 C582 1.355 1_545 S
C583 C585 1.419 . S
C584 C582 1.415 . S
C584 C589 1.425 1_565 S
C584 C591 1.409 . S
C585 H577 0.930 . S
C585 C583 1.419 . S
C585 C586 1.362 . S
C586 H578 0.930 . S
C586 C585 1.362 . S
C586 C589 1.409 . S
C587 H579 0.930 . S
C587 C588 1.355 . S
C587 C589 1.415 . S
C588 C587 1.355 . S
C588 C590 1.419 1_545 S
C589 C584 1.425 1_545 S
C589 C586 1.409 . S
C589 C587 1.415 . S
C590 H580 0.930 . S
C590 C588 1.419 1_565 S
C590 C591 1.362 . S
C591 H581 0.930 . S
C591 C584 1.409 . S
C591 C590 1.362 . S
H592 C598 0.930 . S
H593 C601 0.930 . S
H594 C602 0.930 . S
H595 C603 0.930 . S
H596 C606 0.930 . S
H597 C607 0.930 . S
C598 H592 0.930 . S
C598 C599 1.355 . S
C598 C600 1.415 . S
C599 C598 1.355 . S
C599 C601 1.419 . S
C600 C598 1.415 . S
C600 C605 1.425 . S
C600 C607 1.409 . S
C601 H593 0.930 . S
C601 C599 1.419 . S
C601 C602 1.362 . S
C602 H594 0.930 . S
C602 C601 1.362 . S
C602 C605 1.409 . S
C603 H595 0.930 . S
C603 C604 1.355 . S
C603 C605 1.415 . S
C604 C603 1.355 . S
C604 C606 1.419 . S
C605 C600 1.425 . S
C605 C602 1.409 . S
C605 C603 1.415 . S
C606 H596 0.930 . S
C606 C604 1.419 . S
C606 C607 1.362 . S
C607 H597 0.930 . S
C607 C600 1.409 . S
C607 C606 1.362 . S
H608 C614 0.930 1_655 S
H609 C617 0.930 . S
H610 C618 0.930 . S
H611 C619 0.930 . S
H612 C622 0.929 1_655 S
H613 C623 0.930 1_655 S
C614 H608 0.930 1_455 S
C614 C615 1.355 . S
C614 C616 1.415 . S
C615 C614 1.355 . S
C615 C617 1.419 . S
C616 C614 1.415 . S
C616 C621 1.425 . S
C616 C623 1.409 . S
C617 H609 0.930 . S
C617 C615 1.419 . S
C617 C618 1.362 . S
C618 H610 0.930 . S
C618 C617 1.362 . S
C618 C621 1.409 . S
C619 H611 0.930 . S
C619 C620 1.355 . S
C619 C621 1.415 . S
C620 C619 1.355 . S
C620 C622 1.419 . S
C621 C616 1.425 . S
C621 C618 1.409 . S
C621 C619 1.415 . S
C622 H612 0.929 1_455 S
C622 C620 1.419 . S
C622 C623 1.362 . S
C623 H613 0.930 1_455 S
C623 C616 1.409 . S
C623 C622 1.362 . S
C343 C10 3.060 . S
C348 C325 2.963 . S
C359 C59 3.126 . S
C364 C253 3.057 . S
C375 C90 3.046 . S
C380 C289 2.983 . S
C391 C19 3.123 . S
C396 C301 3.088 . S
C412 C229 3.011 . S
C407 C50 3.043 . S
C428 C265 3.064 . S
C423 C99 3.112 . S
C439 C46 0.611 . S
C444 C181 0.488 . S
C455 C95 0.571 . S
C460 C193 0.387 . S
C471 C6 0.418 . S
C476 C121 0.418 . S
C492 C157 0.368 . S
C487 C55 0.424 . S
C508 C217 0.427 . S
C503 C86 0.466 . S
C519 C15 0.374 . S
C524 C145 0.454 . S
C540 C223 1.049 . S
C535 C9 1.015 . S
C551 C49 1.062 . S
C556 C151 1.033 . S
C567 C89 1.076 . S
C572 C187 1.054 . S
C588 C295 1.794 . S
C583 C58 1.693 . S
C604 C331 1.781 1_556 S
C599 C98 1.712 . S
C615 C18 1.747 . S
C620 C259 1.790 . S
