# Generated by pormake.
# Topology pth, (4,4)-cn, num edge types: 1
# Building blocks:
#     Node 0, Type 0, BuildingBlock: GALJAG_clean_sbu_0, # of connection points: 4
#     Node 1, Type 0, BuildingBlock: GALJAG_clean_sbu_0, # of connection points: 4
#     Node 2, Type 0, BuildingBlock: GALJAG_clean_sbu_0, # of connection points: 4
#     Node 3, Type 1, BuildingBlock: MUDLON_clean_linker_0, # of connection points: 4
#     Node 4, Type 1, BuildingBlock: MUDLON_clean_linker_0, # of connection points: 4
#     Node 5, Type 1, BuildingBlock: MUDLON_clean_linker_0, # of connection points: 4
#     Edge 6, Type (0, 1), BuildingBlock: TEMPAE_clean_linker_10, # of connection points: 2
#     Edge 7, Type (0, 1), BuildingBlock: TEMPAE_clean_linker_10, # of connection points: 2
#     Edge 8, Type (0, 1), BuildingBlock: TEMPAE_clean_linker_10, # of connection points: 2
#     Edge 9, Type (0, 1), BuildingBlock: TEMPAE_clean_linker_10, # of connection points: 2
#     Edge 10, Type (0, 1), BuildingBlock: TEMPAE_clean_linker_10, # of connection points: 2
#     Edge 11, Type (0, 1), BuildingBlock: TEMPAE_clean_linker_10, # of connection points: 2
#     Edge 12, Type (0, 1), BuildingBlock: TEMPAE_clean_linker_10, # of connection points: 2
#     Edge 13, Type (0, 1), BuildingBlock: TEMPAE_clean_linker_10, # of connection points: 2
#     Edge 14, Type (0, 1), BuildingBlock: TEMPAE_clean_linker_10, # of connection points: 2
#     Edge 15, Type (0, 1), BuildingBlock: TEMPAE_clean_linker_10, # of connection points: 2
#     Edge 16, Type (0, 1), BuildingBlock: TEMPAE_clean_linker_10, # of connection points: 2
#     Edge 17, Type (0, 1), BuildingBlock: TEMPAE_clean_linker_10, # of connection points: 2
# Relax obj value: 0.015
# Max RMSD: 0.066
# Mean RMSD: 0.062
data_MOF--net-pth--node1-GALJAG_clean_sbu_0--node2-MUDLON_clean_linker_0--edge1-TEMPAE_clean_linker_10
_symmetry_space_group_name_H-M    P1
_symmetry_Int_Tables_number       1
_symmetry_cell_setting            triclinic
loop_
_symmetry_equiv_pos_as_xyz
'x, y, z'
_cell_length_a     34.581389
_cell_length_b     34.547786
_cell_length_c     66.663525
_cell_angle_alpha  90.104272
_cell_angle_beta   90.19386
_cell_angle_gamma 120.05463
loop_
_atom_site_label
_atom_site_type_symbol
_atom_site_fract_x
_atom_site_fract_y
_atom_site_fract_z
_atom_type_partial_charge
In0 In 0.00477 0.00809 0.04242 0.0
O1 O 0.96664 0.03733 0.0587 0.0
O2 O 0.03697 0.06888 0.06278 0.0
C3 C 0.9418 0.94858 0.01728 0.0
C4 C 0.06577 0.06531 0.01631 0.0
C5 C 0.0113 0.95126 0.06812 0.0
O6 O 0.93536 0.97516 0.02791 0.0
O7 O 0.97994 0.95258 0.01923 0.0
O8 O 0.04107 0.97333 0.05529 0.0
O9 O 0.97909 0.9586 0.06814 0.0
C10 C 0.00131 0.06867 0.06681 0.0
O11 O 0.07582 0.0471 0.03025 0.0
O12 O 0.02495 0.05389 0.01538 0.0
In13 In 0.98622 0.99193 0.37576 0.0
O14 O 0.00084 0.03154 0.34684 0.0
O15 O 0.00767 0.06607 0.37424 0.0
C16 C 0.06308 0.01687 0.39587 0.0
C17 C 0.91208 0.97148 0.39728 0.0
C18 C 0.96378 0.91634 0.35466 0.0
O19 O 0.06065 0.01431 0.37697 0.0
O20 O 0.02702 0.00751 0.40449 0.0
O21 O 0.98457 0.9255 0.37111 0.0
O22 O 0.95372 0.94494 0.34897 0.0
C23 C 0.00982 0.06781 0.35533 0.0
O24 O 0.9212 0.99257 0.38099 0.0
O25 O 0.93986 0.95996 0.40255 0.0
In26 In -0.00058 0.9921 0.70584 0.0
O27 O 0.94894 0.91806 0.71121 0.0
O28 O 0.97779 0.95906 0.73673 0.0
C29 C 0.0589 0.99149 0.67993 0.0
C30 C 0.93769 0.99918 0.68368 0.0
C31 C 0.05443 0.06396 0.72829 0.0
O32 O 0.04506 0.96612 0.69502 0.0
O33 O 0.04229 0.01648 0.67787 0.0
O34 O 0.0147 0.05407 0.72436 0.0
O35 O 0.06594 0.03753 0.721 0.0
C36 C 0.95075 0.92073 0.73003 0.0
O37 O 0.95979 0.02685 0.6974 0.0
O38 O 0.94703 0.96862 0.68121 0.0
H39 H 0.88286 0.62085 0.21957 0.0
N40 N 0.95275 0.61557 0.20699 0.0
H41 H 0.87931 0.66256 0.24856 0.0
H42 H 0.01612 0.65358 0.23697 0.0
H43 H 0.01245 0.69419 0.26599 0.0
H44 H 0.03223 0.69477 0.20442 0.0
H45 H 0.05345 0.75075 0.17828 0.0
H46 H 0.90851 0.60901 0.1734 0.0
H47 H 0.92858 0.66591 0.14749 0.0
H48 H 0.90165 0.52733 0.20655 0.0
H49 H 0.03948 0.63245 0.20814 0.0
H50 H 0.9252 0.47138 0.2073 0.0
H51 H 0.06322 0.57744 0.21021 0.0
H52 H 0.98297 0.31382 0.22615 0.0
H53 H 0.97825 0.26981 0.25538 0.0
H54 H 0.10999 0.37296 0.27414 0.0
H55 H 0.11504 0.41622 0.24414 0.0
H56 H 0.11196 0.36805 0.19857 0.0
H57 H 0.09622 0.31274 0.17206 0.0
H58 H 0.96449 0.29528 0.16421 0.0
H59 H 0.97983 0.34969 0.19108 0.0
H60 H 0.97897 0.38361 0.23001 0.0
H61 H 0.95498 0.43854 0.22816 0.0
H62 H 0.0707 0.52375 0.19221 0.0
N63 N 0.05629 0.39163 0.21412 0.0
H64 H 0.09601 0.46951 0.1953 0.0
C65 C 0.94954 0.63393 0.22596 0.0
C66 C 0.91084 0.63602 0.22991 0.0
C67 C 0.90887 0.65976 0.2465 0.0
C68 C 0.94579 0.68201 0.25946 0.0
C69 C 0.98372 0.67796 0.25609 0.0
C70 C 0.98569 0.65431 0.23949 0.0
C71 C 0.9687 0.64731 0.19078 0.0
C72 C 0.00989 0.68752 0.19181 0.0
C73 C 0.02179 0.7199 0.17692 0.0
C74 C 0.99261 0.71307 0.16083 0.0
C75 C 0.95218 0.67213 0.1595 0.0
C76 C 0.9405 0.63962 0.17431 0.0
C77 C 0.96848 0.58401 0.20746 0.0
C78 C 0.93696 0.53828 0.20726 0.0
C79 C 0.95056 0.50642 0.20786 0.0
C80 C 0.99623 0.51972 0.20894 0.0
C81 C 0.02782 0.56575 0.20907 0.0
C82 C 0.01417 0.59752 0.20813 0.0
C83 C 0.04972 0.36826 0.23285 0.0
C84 C 0.01065 0.32732 0.23664 0.0
C85 C 0.00786 0.30228 0.25353 0.0
C86 C 0.04387 0.31768 0.26711 0.0
C87 C 0.08194 0.35977 0.26383 0.0
C88 C 0.08479 0.38471 0.24682 0.0
C89 C 0.04748 0.3634 0.19672 0.0
C90 C 0.07997 0.35278 0.19092 0.0
C91 C 0.07085 0.32109 0.17592 0.0
C92 C 0.02912 0.2998 0.16624 0.0
C93 C 0.99699 0.31152 0.17144 0.0
C94 C 0.00586 0.34273 0.18673 0.0
C95 C 0.04007 0.42284 0.2131 0.0
C96 C -0.00038 0.41424 0.22194 0.0
C97 C 0.98551 0.44564 0.22063 0.0
C98 C 0.01091 0.4859 0.2101 0.0
C99 C 0.05073 0.49375 0.20086 0.0
C100 C 0.06516 0.46267 0.20247 0.0
H101 H 0.67612 0.03579 0.55423 0.0
N102 N 0.60626 0.95233 0.54516 0.0
H103 H 0.73069 0.05447 0.58125 0.0
H104 H 0.60424 0.89905 0.5743 0.0
H105 H 0.65893 0.91723 0.60128 0.0
H106 H 0.61182 0.88377 0.53034 0.0
H107 H 0.6575 0.8844 0.50221 0.0
H108 H 0.65462 0.02253 0.51979 0.0
H109 H 0.69968 0.02333 0.49148 0.0
H110 H 0.59192 0.00434 0.57271 0.0
H111 H 0.55149 0.9419 0.51417 0.0
H112 H 0.54148 0.0331 0.56916 0.0
H113 H 0.50153 0.97188 0.51059 0.0
H114 H 0.37766 0.12517 0.55693 0.0
H115 H 0.32543 0.10818 0.58472 0.0
H116 H 0.29392 0.97041 0.58326 0.0
H117 H 0.34566 0.98741 0.55557 0.0
H118 H 0.3143 0.99492 0.5234 0.0
H119 H 0.26993 0.99102 0.49449 0.0
H120 H 0.37032 0.12517 0.47786 0.0
H121 H 0.41432 0.12935 0.50759 0.0
H122 H 0.47611 0.11297 0.54919 0.0
H123 H 0.53051 0.08734 0.55065 0.0
H124 H 0.43268 0.96097 0.52449 0.0
N125 N 0.39236 0.06821 0.53616 0.0
H126 H 0.37933 0.98711 0.52265 0.0
C127 C 0.6361 0.9658 0.56225 0.0
C128 C 0.67196 0.00984 0.56453 0.0
C129 C 0.70315 0.02046 0.57997 0.0
C130 C 0.69925 0.98731 0.59337 0.0
C131 C 0.66257 0.9437 0.59141 0.0
C132 C 0.63139 0.93315 0.57598 0.0
C133 C 0.62983 0.95291 0.52719 0.0
C134 C 0.63052 0.9141 0.52171 0.0
C135 C 0.65647 0.91454 0.50561 0.0
C136 C 0.68236 0.95399 0.49466 0.0
C137 C 0.68063 0.9926 0.49981 0.0
C138 C 0.65476 0.99216 0.51594 0.0
C139 C 0.57823 0.97258 0.54315 0.0
C140 C 0.57365 0.99776 0.55875 0.0
C141 C 0.54435 0.01433 0.5568 0.0
C142 C 0.51799 0.00547 0.53946 0.0
C143 C 0.52143 0.97945 0.52414 0.0
C144 C 0.55061 0.96276 0.52609 0.0
C145 C 0.36572 0.05786 0.55409 0.0
C146 C 0.36006 0.09153 0.56288 0.0
C147 C 0.33034 0.08177 0.57876 0.0
C148 C 0.30546 0.03789 0.58608 0.0
C149 C 0.31232 0.00442 0.57778 0.0
C150 C 0.34221 0.01426 0.56198 0.0
C151 C 0.36775 0.06279 0.51782 0.0
C152 C 0.32726 0.02344 0.51353 0.0
C153 C 0.30191 0.02109 0.49678 0.0
C154 C 0.31647 0.05782 0.48381 0.0
C155 C 0.35785 0.09648 0.48768 0.0
C156 C 0.38316 0.09886 0.50454 0.0
C157 C 0.42378 0.05231 0.53579 0.0
C158 C 0.4667 0.07993 0.54362 0.0
C159 C 0.49754 0.06508 0.54456 0.0
C160 C 0.48591 0.02205 0.53772 0.0
C161 C 0.44298 0.99454 0.52962 0.0
C162 C 0.41223 0.00947 0.52864 0.0
H163 H 0.6592 0.6866 0.88218 0.0
N164 N 0.66563 0.61135 0.87726 0.0
H165 H 0.69564 0.74348 0.90834 0.0
H166 H 0.70952 0.60731 0.90927 0.0
H167 H 0.7464 0.66418 0.93548 0.0
H168 H 0.74459 0.62452 0.86546 0.0
H169 H 0.78984 0.67038 0.83763 0.0
H170 H 0.63836 0.64869 0.84818 0.0
H171 H 0.68207 0.69231 0.81953 0.0
H172 H 0.59791 0.60783 0.90117 0.0
H173 H 0.62305 0.545 0.85058 0.0
H174 H 0.51925 0.55471 0.89866 0.0
H175 H 0.54318 0.49259 0.84756 0.0
H176 H 0.26775 0.382 0.8935 0.0
H177 H 0.23068 0.33185 0.92179 0.0
H178 H 0.33133 0.29278 0.92152 0.0
H179 H 0.36821 0.34286 0.89348 0.0
H180 H 0.33429 0.31258 0.8611 0.0
H181 H 0.28967 0.26288 0.83402 0.0
H182 H 0.24565 0.3554 0.81735 0.0
H183 H 0.29107 0.4057 0.84465 0.0
H184 H 0.37432 0.47698 0.87986 0.0
H185 H 0.45387 0.53297 0.8796 0.0
H186 H 0.48464 0.43002 0.86359 0.0
N187 N 0.33656 0.39012 0.8726 0.0
H188 H 0.40541 0.37522 0.86288 0.0
C189 C 0.68194 0.64276 0.89378 0.0
C190 C 0.67783 0.68131 0.89387 0.0
C191 C 0.69872 0.7138 0.9088 0.0
C192 C 0.72411 0.70844 0.9239 0.0
C193 C 0.72667 0.66907 0.92419 0.0
C194 C 0.7058 0.63663 0.90924 0.0
C195 C 0.68814 0.63291 0.85888 0.0
C196 C 0.73061 0.63873 0.85527 0.0
C197 C 0.7563 0.66483 0.83926 0.0
C198 C 0.7398 0.68535 0.82627 0.0
C199 C 0.6963 0.67784 0.82941 0.0
C200 C 0.67094 0.65236 0.84566 0.0
C201 C 0.61748 0.58194 0.87558 0.0
C202 C 0.587 0.58361 0.88912 0.0
C203 C 0.54131 0.55289 0.88769 0.0
C204 C 0.52454 0.51949 0.87278 0.0
C205 C 0.55479 0.51759 0.85934 0.0
C206 C 0.60057 0.54799 0.86091 0.0
C207 C 0.32056 0.36624 0.89125 0.0
C208 C 0.28237 0.36342 0.89989 0.0
C209 C 0.26131 0.33483 0.91603 0.0
C210 C 0.27799 0.30818 0.92371 0.0
C211 C 0.31752 0.3126 0.91572 0.0
C212 C 0.33877 0.3415 0.8997 0.0
C213 C 0.31601 0.36313 0.85498 0.0
C214 C 0.31592 0.32289 0.85148 0.0
C215 C 0.29001 0.29416 0.83605 0.0
C216 C 0.26375 0.305 0.82375 0.0
C217 C 0.26569 0.34626 0.82656 0.0
C218 C 0.29153 0.37497 0.8421 0.0
C219 C 0.38372 0.42194 0.87155 0.0
C220 C 0.39836 0.46675 0.87614 0.0
C221 C 0.44386 0.49856 0.87613 0.0
C222 C 0.4759 0.48607 0.87172 0.0
C223 C 0.46104 0.4411 0.86681 0.0
C224 C 0.41547 0.40942 0.8666 0.0
C225 C 0.96144 0.09499 0.08946 0.0
C226 C 0.00086 0.10266 0.08009 0.0
C227 C 0.96182 0.12626 0.10311 0.0
C228 C 0.00242 0.16633 0.1071 0.0
C229 C 0.0419 0.17486 0.09706 0.0
C230 C 0.04071 0.14272 0.08384 0.0
C231 C 0.91924 0.11574 0.11378 0.0
C232 C 0.08571 0.21749 0.10063 0.0
C233 C 0.00452 0.26645 0.13198 0.0
C234 C 0.01879 0.26405 0.15139 0.0
C235 C 0.99777 0.23411 0.11745 0.0
C236 C 0.00468 0.19827 0.12266 0.0
C237 C 0.01722 0.1948 0.14253 0.0
C238 C 0.02454 0.228 0.1566 0.0
C239 C 0.9851 0.2393 0.09635 0.0
C240 C 0.02418 0.15672 0.14878 0.0
H241 H 0.93061 0.06396 0.0866 0.0
H242 H 0.07118 0.14894 0.07645 0.0
H243 H 0.9231 0.11215 0.13009 0.0
H244 H 0.91231 0.1436 0.11194 0.0
H245 H 0.89001 0.08441 0.10815 0.0
H246 H 0.11251 0.22046 0.09051 0.0
H247 H 0.08147 0.24698 0.09839 0.0
H248 H 0.09676 0.2186 0.11637 0.0
H249 H 0.00019 0.29447 0.128 0.0
H250 H 0.03503 0.22595 0.17172 0.0
H251 H 0.9553 0.20793 0.09124 0.0
H252 H 0.01281 0.2459 0.08601 0.0
H253 H 0.97793 0.26715 0.09509 0.0
H254 H 0.99466 0.1242 0.14458 0.0
H255 H 0.03004 0.1568 0.16518 0.0
H256 H 0.05341 0.15916 0.1408 0.0
C257 C 0.84534 0.97954 0.40376 0.0
C258 C 0.8738 0.96378 0.40986 0.0
C259 C 0.81132 0.97603 0.41638 0.0
C260 C 0.80577 0.95634 0.43553 0.0
C261 C 0.83342 0.93896 0.44147 0.0
C262 C 0.86711 0.94288 0.42855 0.0
C263 C 0.78239 0.99481 0.4095 0.0
C264 C 0.82845 0.91766 0.46177 0.0
C265 C 0.7565 0.992 0.47751 0.0
C266 C 0.71291 0.95546 0.47869 0.0
C267 C 0.78672 0.99301 0.46327 0.0
C268 C 0.7731 0.95652 0.4499 0.0
C269 C 0.72893 0.91986 0.45075 0.0
C270 C 0.69933 0.91976 0.46515 0.0
C271 C 0.83358 0.03271 0.46285 0.0
C272 C 0.7132 0.88047 0.43667 0.0
H273 H 0.85031 0.99564 0.3893 0.0
H274 H 0.88897 0.93055 0.43331 0.0
H275 H 0.74654 0.96941 0.41116 0.0
H276 H 0.78897 0.02383 0.41906 0.0
H277 H 0.78869 0.0059 0.39362 0.0
H278 H 0.85072 0.90332 0.4636 0.0
H279 H 0.83651 0.94299 0.47373 0.0
H280 H 0.7934 0.89071 0.46404 0.0
H281 H 0.76746 0.01937 0.48811 0.0
H282 H 0.66553 0.89166 0.46584 0.0
H283 H 0.84142 0.04752 0.44762 0.0
H284 H 0.85798 0.02172 0.46636 0.0
H285 H 0.83835 0.05909 0.47377 0.0
H286 H 0.71836 0.892 0.42088 0.0
H287 H 0.67733 0.85537 0.43877 0.0
H288 H 0.73321 0.86388 0.43914 0.0
C289 C 0.88253 0.84638 0.73532 0.0
C290 C 0.92141 0.88293 0.74313 0.0
C291 C 0.85226 0.81205 0.74789 0.0
C292 C 0.86165 0.81395 0.76867 0.0
C293 C 0.90172 0.84999 0.77649 0.0
C294 C 0.9309 0.88434 0.76365 0.0
C295 C 0.8095 0.77465 0.73906 0.0
C296 C 0.91333 0.85274 0.7985 0.0
C297 C 0.76743 0.75561 0.8061 0.0
C298 C 0.76894 0.7166 0.81038 0.0
C299 C 0.7965 0.78683 0.79211 0.0
C300 C 0.82865 0.77948 0.78244 0.0
C301 C 0.83009 0.74001 0.78643 0.0
C302 C 0.79992 0.70883 0.80017 0.0
C303 C 0.79345 0.82821 0.78802 0.0
C304 C 0.86423 0.73125 0.77657 0.0
H305 H 0.87498 0.84536 0.71946 0.0
H306 H 0.96106 0.91247 0.76969 0.0
H307 H 0.8059 0.74177 0.74287 0.0
H308 H 0.78048 0.77549 0.74563 0.0
H309 H 0.80809 0.77707 0.72249 0.0
H310 H 0.94718 0.88123 0.80193 0.0
H311 H 0.88859 0.85667 0.80751 0.0
H312 H 0.91181 0.82131 0.80338 0.0
H313 H 0.74434 0.76256 0.81409 0.0
H314 H 0.80092 0.67849 0.80304 0.0
H315 H 0.79032 0.83191 0.77165 0.0
H316 H 0.82447 0.85831 0.7932 0.0
H317 H 0.76457 0.82739 0.79568 0.0
H318 H 0.86134 0.73185 0.76001 0.0
H319 H 0.86042 0.69854 0.781 0.0
H320 H 0.89838 0.7581 0.78073 0.0
C321 C 0.0503 0.91262 0.08221 0.0
C322 C 0.01275 0.91804 0.08157 0.0
C323 C 0.05117 0.88027 0.09466 0.0
C324 C 0.01345 0.85256 0.10656 0.0
C325 C 0.97551 0.85797 0.10594 0.0
C326 C 0.97571 0.89076 0.09352 0.0
C327 C 0.09236 0.87571 0.09511 0.0
C328 C 0.93451 0.82892 0.11831 0.0
C329 C 0.99143 0.74013 0.12598 0.0
C330 C 0.00259 0.74962 0.14635 0.0
C331 C 0.99643 0.77372 0.11264 0.0
C332 C 0.01331 0.81792 0.11982 0.0
C333 C 0.02654 0.82815 0.14014 0.0
C334 C 0.02079 0.79387 0.15317 0.0
C335 C 0.98189 0.76151 0.09106 0.0
C336 C 0.04488 0.87493 0.14834 0.0
H337 H 0.07901 0.93367 0.07299 0.0
H338 H 0.94652 0.89467 0.09303 0.0
H339 H 0.10579 0.88083 0.11063 0.0
H340 H 0.08365 0.84142 0.09046 0.0
H341 H 0.11903 0.90008 0.08508 0.0
H342 H 0.90762 0.83716 0.11596 0.0
H343 H 0.92119 0.7932 0.11441 0.0
H344 H 0.94341 0.83294 0.13448 0.0
H345 H 0.97804 0.70621 0.1205 0.0
H346 H 0.02894 0.80152 0.16893 0.0
H347 H 0.00897 0.78422 0.08081 0.0
H348 H 0.95262 0.76565 0.08798 0.0
H349 H 0.9726 0.72646 0.0875 0.0
H350 H 0.07223 0.89947 0.13869 0.0
H351 H 0.05781 0.8783 0.16391 0.0
H352 H 0.01818 0.88382 0.14833 0.0
C353 C 0.10231 0.02178 0.42798 0.0
C354 C 0.10415 0.02771 0.40715 0.0
C355 C 0.14016 0.02931 0.4389 0.0
C356 C 0.18105 0.04372 0.42878 0.0
C357 C 0.18346 0.0509 0.40781 0.0
C358 C 0.14481 0.04249 0.39719 0.0
C359 C 0.13611 0.02087 0.46124 0.0
C360 C 0.22665 0.06691 0.39659 0.0
C361 C 0.28143 0.09361 0.46367 0.0
C362 C 0.28676 0.05653 0.46731 0.0
C363 C 0.24888 0.09078 0.45016 0.0
C364 C 0.22065 0.04977 0.44026 0.0
C365 C 0.22748 0.01301 0.44303 0.0
C366 C 0.26064 0.01694 0.45641 0.0
C367 C 0.24304 0.13092 0.44738 0.0
C368 C 0.19804 0.96867 0.43276 0.0
H369 H 0.07093 0.01025 0.43574 0.0
H370 H 0.14638 0.04727 0.38109 0.0
H371 H 0.14435 0.9945 0.4649 0.0
H372 H 0.1603 0.05162 0.46942 0.0
H373 H 0.102 0.01018 0.46685 0.0
H374 H 0.22351 0.07317 0.38049 0.0
H375 H 0.25348 0.0982 0.40348 0.0
H376 H 0.23735 0.0416 0.39764 0.0
H377 H 0.30115 0.12425 0.47211 0.0
H378 H 0.2652 0.98846 0.45881 0.0
H379 H 0.21175 0.12473 0.45476 0.0
H380 H 0.24002 0.13662 0.43122 0.0
H381 H 0.27131 0.1618 0.45392 0.0
H382 H 0.16356 0.9536 0.43871 0.0
H383 H 0.21015 0.94468 0.43511 0.0
H384 H 0.19623 0.97345 0.41641 0.0
C385 C 0.12998 0.11418 0.74282 0.0
C386 C 0.08511 0.10275 0.74081 0.0
C387 C 0.15929 0.14946 0.75536 0.0
C388 C 0.14327 0.1737 0.76627 0.0
C389 C 0.09826 0.16303 0.76394 0.0
C390 C 0.06969 0.12771 0.75115 0.0
C391 C 0.20713 0.15999 0.75734 0.0
C392 C 0.07994 0.188 0.77542 0.0
C393 C 0.20517 0.22724 0.81463 0.0
C394 C 0.23241 0.27198 0.80896 0.0
C395 C 0.1754 0.19519 0.80098 0.0
C396 C 0.17295 0.20812 0.7811 0.0
C397 C 0.19997 0.25336 0.7753 0.0
C398 C 0.22928 0.28487 0.78936 0.0
C399 C 0.14688 0.14737 0.80779 0.0
C400 C 0.19848 0.26826 0.75419 0.0
H401 H 0.14216 0.09518 0.73475 0.0
H402 H 0.03504 0.11901 0.74961 0.0
H403 H 0.23035 0.196 0.75446 0.0
H404 H 0.21348 0.15305 0.77288 0.0
H405 H 0.21507 0.13998 0.74682 0.0
H406 H 0.045 0.17743 0.77103 0.0
H407 H 0.08081 0.18214 0.79174 0.0
H408 H 0.10103 0.2245 0.77292 0.0
H409 H 0.20689 0.21733 0.82988 0.0
H410 H 0.25042 0.31942 0.78493 0.0
H411 H 0.15516 0.12525 0.79897 0.0
H412 H 0.11105 0.1359 0.80509 0.0
H413 H 0.15166 0.14316 0.82397 0.0
H414 H 0.20911 0.25079 0.74348 0.0
H415 H 0.22046 0.30491 0.75227 0.0
H416 H 0.16379 0.25911 0.75011 0.0
C417 C 0.89424 0.03665 0.67405 0.0
C418 C 0.90329 0.00168 0.67145 0.0
C419 C 0.86142 0.0388 0.66238 0.0
C420 C 0.83719 0.00513 0.64786 0.0
C421 C 0.84623 0.96975 0.64524 0.0
C422 C 0.87916 0.96851 0.65704 0.0
C423 C 0.85274 0.07707 0.66551 0.0
C424 C 0.8211 0.93315 0.62994 0.0
C425 C 0.7239 0.97879 0.62772 0.0
C426 C 0.73486 0.99708 0.6084 0.0
C427 C 0.75718 0.98323 0.64119 0.0
C428 C 0.80247 0.00652 0.63518 0.0
C429 C 0.81393 0.02709 0.61611 0.0
C430 C 0.77999 0.02205 0.60293 0.0
C431 C 0.74365 0.96103 0.66145 0.0
C432 C 0.86185 0.05224 0.60915 0.0
H433 H 0.91284 0.06237 0.68517 0.0
H434 H 0.88596 0.94135 0.65498 0.0
H435 H 0.85877 0.09606 0.65136 0.0
H436 H 0.81726 0.06396 0.66958 0.0
H437 H 0.87428 0.10042 0.67748 0.0
H438 H 0.83201 0.90788 0.62987 0.0
H439 H 0.78475 0.9159 0.63308 0.0
H440 H 0.82609 0.94778 0.61472 0.0
H441 H 0.68914 0.96008 0.63215 0.0
H442 H 0.78874 0.03592 0.58797 0.0
H443 H 0.76402 0.98481 0.67349 0.0
H444 H 0.74992 0.93253 0.66201 0.0
H445 H 0.70776 0.94827 0.66464 0.0
H446 H 0.88355 0.07655 0.62076 0.0
H447 H 0.86566 0.0705 0.59492 0.0
H448 H 0.87405 0.02838 0.60673 0.0
C449 C 0.91754 0.88739 0.99202 0.0
C450 C 0.90737 0.91473 0.00381 0.0
C451 C 0.88534 0.85446 0.9794 0.0
C452 C 0.84182 0.8486 0.97857 0.0
C453 C 0.8313 0.87614 0.9904 0.0
C454 C 0.86429 0.909 0.00288 0.0
C455 C 0.89794 0.82587 0.96696 0.0
C456 C 0.78522 0.87077 0.98991 0.0
C457 C 0.7755 0.78934 0.93184 0.0
C458 C 0.75044 0.745 0.93848 0.0
C459 C 0.80405 0.82377 0.94495 0.0
C460 C 0.80763 0.81362 0.96519 0.0
C461 C 0.78109 0.76926 0.97219 0.0
C462 C 0.75286 0.73545 0.95873 0.0
C463 C 0.83193 0.87062 0.9369 0.0
C464 C 0.78376 0.7572 0.99371 0.0
H465 H 0.95079 0.89166 0.99267 0.0
H466 H 0.85627 0.93001 0.012 0.0
H467 H 0.87615 0.79011 0.97083 0.0
H468 H 0.89267 0.8295 0.9508 0.0
H469 H 0.93331 0.83487 0.96926 0.0
H470 H 0.78242 0.89484 2e-05 0.0
H471 H 0.77676 0.8757 0.97441 0.0
H472 H 0.76003 0.83631 0.99442 0.0
H473 H 0.77421 0.79689 0.91616 0.0
H474 H 0.73312 0.70134 0.96399 0.0
H475 H 0.86772 0.8802 0.9371 0.0
H476 H 0.82841 0.89485 0.94655 0.0
H477 H 0.82245 0.8737 0.92129 0.0
H478 H 0.81736 0.76175 0.99675 0.0
H479 H 0.7583 0.72206 0.99716 0.0
H480 H 0.77916 0.77973 0.00406 0.0
C481 C 0.93662 0.87146 0.32309 0.0
C482 C 0.95476 0.87696 0.34242 0.0
C483 C 0.93194 0.83671 0.31053 0.0
C484 C 0.94552 0.80666 0.31754 0.0
C485 C 0.96201 0.81088 0.33737 0.0
C486 C 0.96657 0.84611 0.34956 0.0
C487 C 0.91428 0.83337 0.28947 0.0
C488 C 0.97653 0.77929 0.34541 0.0
C489 C 0.90851 0.70026 0.28727 0.0
C490 C 0.94625 0.71241 0.27536 0.0
C491 C 0.90799 0.73022 0.3014 0.0
C492 C 0.94601 0.77335 0.30356 0.0
C493 C 0.98442 0.78547 0.29182 0.0
C494 C 0.98405 0.75489 0.27788 0.0
C495 C 0.86658 0.71606 0.31378 0.0
C496 C 0.02558 0.83123 0.2936 0.0
H497 H 0.92735 0.89517 0.31751 0.0
H498 H 0.98041 0.85009 0.36454 0.0
H499 H 0.94109 0.84037 0.27852 0.0
H500 H 0.88647 0.79898 0.28644 0.0
H501 H 0.90218 0.85727 0.28682 0.0
H502 H 0.98458 0.78446 0.36169 0.0
H503 H 0.94994 0.74408 0.34291 0.0
H504 H 0.0066 0.78435 0.33724 0.0
H505 H 0.87934 0.66734 0.28549 0.0
H506 H 0.01303 0.76483 0.26848 0.0
H507 H 0.85223 0.73769 0.31028 0.0
H508 H 0.87521 0.72034 0.32998 0.0
H509 H 0.84062 0.68068 0.31096 0.0
H510 H 0.0172 0.85726 0.28943 0.0
H511 H 0.05315 0.83487 0.28382 0.0
H512 H 0.0377 0.83775 0.30935 0.0
C513 C 0.11692 0.97144 0.67092 0.0
C514 C 0.0936 0.99382 0.66631 0.0
C515 C 0.1518 0.97581 0.65863 0.0
C516 C 0.16325 0.00291 0.64129 0.0
C517 C 0.13915 0.0248 0.63638 0.0
C518 C 0.10474 0.02011 0.64899 0.0
C519 C 0.1769 0.95213 0.66436 0.0
C520 C 0.15009 0.05367 0.61791 0.0
C521 C 0.2785 0.05432 0.61808 0.0
C522 C 0.2703 0.02659 0.60134 0.0
C523 C 0.24431 0.04593 0.63168 0.0
C524 C 0.20085 0.00917 0.62834 0.0
C525 C 0.19272 0.98028 0.61181 0.0
C526 C 0.22759 0.98929 0.59853 0.0
C527 C 0.25435 0.07723 0.64926 0.0
C528 C 0.14677 0.94095 0.60767 0.0
H529 H 0.10849 0.95119 0.68435 0.0
H530 H 0.08672 0.03738 0.64533 0.0
H531 H 0.17566 0.93026 0.65188 0.0
H532 H 0.21259 0.97704 0.6671 0.0
H533 H 0.16314 0.93144 0.67805 0.0
H534 H 0.12727 0.0673 0.61591 0.0
H535 H 0.18488 0.08205 0.61894 0.0
H536 H 0.14795 0.03401 0.60435 0.0
H537 H 0.3116 0.08288 0.6204 0.0
H538 H 0.22096 0.96807 0.58548 0.0
H539 H 0.24317 0.05799 0.66343 0.0
H540 H 0.23563 0.09537 0.64757 0.0
H541 H 0.29052 0.10219 0.65058 0.0
H542 H 0.13356 0.91983 0.62124 0.0
H543 H 0.14676 0.91984 0.59508 0.0
H544 H 0.12348 0.95318 0.60388 0.0
C545 C 0.14505 0.11922 0.00721 0.0
C546 C 0.09933 0.09918 0.00278 0.0
C547 C 0.17697 0.15356 0.99512 0.0
C548 C 0.16276 0.16763 0.97809 0.0
C549 C 0.11668 0.14675 0.97332 0.0
C550 C 0.08551 0.11299 0.98581 0.0
C551 C 0.22578 0.17535 0.00078 0.0
C552 C 0.10025 0.16038 0.95512 0.0
C553 C 0.234 0.28293 0.95555 0.0
C554 C 0.25208 0.27324 0.93879 0.0
C555 C 0.20621 0.24909 0.96894 0.0
C556 C 0.19581 0.20449 0.96528 0.0
C557 C 0.2149 0.19475 0.94866 0.0
C558 C 0.24298 0.22931 0.93566 0.0
C559 C 0.18697 0.26085 0.98667 0.0
C560 C 0.2042 0.14755 0.94412 0.0
H561 H 0.15582 0.10879 0.0204 0.0
H562 H 0.05019 0.09747 0.9823 0.0
H563 H 0.24515 0.17261 0.98818 0.0
H564 H 0.23926 0.21152 0.0037 0.0
H565 H 0.23138 0.16009 0.01432 0.0
H566 H 0.06345 0.13977 0.95314 0.0
H567 H 0.10938 0.19597 0.95648 0.0
H568 H 0.11658 0.15723 0.94141 0.0
H569 H 0.24129 0.31695 0.95807 0.0
H570 H 0.25642 0.22161 0.92256 0.0
H571 H 0.19362 0.24795 0.00072 0.0
H572 H 0.15018 0.24472 0.98495 0.0
H573 H 0.20099 0.29751 0.98825 0.0
H574 H 0.21089 0.13265 0.95746 0.0
H575 H 0.22388 0.14601 0.93132 0.0
H576 H 0.16815 0.12657 0.94045 0.0
C577 C 0.03215 0.14877 0.35385 0.0
C578 C 0.01957 0.10831 0.34392 0.0
C579 C 0.03914 0.18673 0.34315 0.0
C580 C 0.03287 0.18384 0.32209 0.0
C581 C 0.02081 0.14322 0.31198 0.0
C582 C 0.01454 0.10603 0.32302 0.0
C583 C 0.0526 0.22966 0.35437 0.0
C584 C 0.01354 0.13871 0.28954 0.0
C585 C 0.00298 0.26034 0.29375 0.0
C586 C 0.04286 0.28808 0.28353 0.0
C587 C -0.0002 0.2275 0.30708 0.0
C588 C 0.0376 0.22268 0.31048 0.0
C589 C 0.07871 0.25242 0.30124 0.0
C590 C 0.08079 0.28457 0.28777 0.0
C591 C 0.95533 0.1964 0.31665 0.0
C592 C 0.11991 0.24871 0.3047 0.0
H593 H 0.03621 0.1507 0.37002 0.0
H594 H 0.00474 0.07482 0.31527 0.0
H595 H 0.08354 0.25744 0.34785 0.0
H596 H 0.02611 0.23864 0.35283 0.0
H597 H 0.0584 0.22705 0.37059 0.0
H598 H 0.00478 0.10496 0.28396 0.0
H599 H 0.98621 0.14522 0.28538 0.0
H600 H 0.04413 0.16392 0.28175 0.0
H601 H 0.97377 0.26342 0.29089 0.0
H602 H 0.11166 0.30548 0.27984 0.0
H603 H 0.95933 0.19488 0.33309 0.0
H604 H 0.94217 0.16206 0.31063 0.0
H605 H 0.93022 0.20684 0.31376 0.0
H606 H 0.12508 0.24611 0.32097 0.0
H607 H 0.15041 0.27777 0.29852 0.0
H608 H 0.11547 0.21785 0.2974 0.0
loop_
_geom_bond_atom_site_label_1
_geom_bond_atom_site_label_2
_geom_bond_distance
_geom_bond_site_symmetry_2
_ccdc_geom_bond_type
In0 O1 2.294 1_455 S
In0 O2 2.326 . S
In0 O6 2.266 1_445 S
In0 O7 2.326 1_445 S
In0 O8 2.266 1_545 S
In0 O9 2.326 1_445 S
In0 O11 2.294 . S
In0 O12 2.326 . S
O1 In0 2.294 1_655 S
O1 C10 1.240 1_655 S
O2 In0 2.326 . S
O2 C10 1.252 . S
C3 O6 1.252 . S
C3 O7 1.260 . S
C4 O11 1.240 . S
C4 O12 1.252 . S
C5 O8 1.235 1_655 S
C5 O9 1.289 . S
O6 In0 2.266 1_665 S
O6 C3 1.252 . S
O7 In0 2.326 1_665 S
O7 C3 1.260 . S
O8 In0 2.266 1_565 S
O8 C5 1.235 1_455 S
O9 In0 2.326 1_665 S
O9 C5 1.289 . S
C10 O1 1.240 1_455 S
C10 O2 1.252 . S
O11 In0 2.294 . S
O11 C4 1.240 . S
O12 In0 2.326 . S
O12 C4 1.252 . S
In13 O14 2.292 . S
In13 O15 2.308 1_455 S
In13 O19 2.289 . S
In13 O20 2.341 1_545 S
In13 O21 2.269 1_445 S
In13 O22 2.344 1_545 S
In13 O24 2.272 1_445 S
In13 O25 2.310 1_455 S
O14 In13 2.292 . S
O14 C23 1.240 1_455 S
O15 In13 2.308 1_655 S
O15 C23 1.252 . S
C16 O19 1.232 1_565 S
C16 O20 1.269 . S
C17 O24 1.240 1_545 S
C17 O25 1.252 . S
C18 O21 1.252 1_455 S
C18 O22 1.260 . S
O19 In13 2.289 . S
O19 C16 1.232 1_545 S
O20 In13 2.341 1_565 S
O20 C16 1.269 . S
O21 In13 2.269 1_665 S
O21 C18 1.252 1_655 S
O22 In13 2.344 1_565 S
O22 C18 1.260 . S
C23 O14 1.240 1_655 S
C23 O15 1.252 . S
O24 In13 2.272 1_665 S
O24 C17 1.240 1_565 S
O25 In13 2.310 1_655 S
O25 C17 1.252 . S
In26 O27 2.271 1_445 S
In26 O28 2.308 1_445 S
In26 O32 2.272 1_545 S
In26 O33 2.346 . S
In26 O34 2.289 . S
In26 O35 2.343 . S
In26 O37 2.289 1_455 S
In26 O38 2.305 1_445 S
O27 In26 2.271 1_665 S
O27 C36 1.240 . S
O28 In26 2.308 1_665 S
O28 C36 1.252 . S
C29 O32 1.252 1_545 S
C29 O33 1.260 . S
C30 O37 1.240 1_565 S
C30 O38 1.252 . S
C31 O34 1.252 . S
C31 O35 1.260 . S
O32 In26 2.272 1_565 S
O32 C29 1.252 1_565 S
O33 In26 2.346 . S
O33 C29 1.260 . S
O34 In26 2.289 . S
O34 C31 1.252 . S
O35 In26 2.343 . S
O35 C31 1.260 . S
C36 O27 1.240 . S
C36 O28 1.252 . S
O37 In26 2.289 1_655 S
O37 C30 1.240 1_545 S
O38 In26 2.305 1_665 S
O38 C30 1.252 . S
H39 C66 0.929 . S
N40 C65 1.433 . S
N40 C71 1.435 . S
N40 C77 1.423 . S
H41 C67 0.930 . S
H42 C70 0.931 . S
H43 C69 0.929 . S
H44 C72 0.930 . S
H45 C73 0.932 . S
H46 C76 0.929 . S
H47 C75 0.931 . S
H48 C78 0.929 . S
H49 C82 0.928 1_455 S
H50 C79 0.931 . S
H51 C81 0.929 1_455 S
H52 C84 0.929 . S
H53 C85 0.930 . S
H54 C87 0.929 . S
H55 C88 0.931 . S
H56 C90 0.930 . S
H57 C91 0.932 . S
H58 C93 0.931 . S
H59 C94 0.929 . S
H60 C96 0.929 . S
H61 C97 0.931 . S
H62 C99 0.929 1_455 S
N63 C83 1.433 . S
N63 C89 1.435 . S
N63 C95 1.423 . S
H64 C100 0.921 1_455 S
C65 N40 1.433 . S
C65 C66 1.363 . S
C65 C70 1.370 1_655 S
C66 H39 0.929 . S
C66 C65 1.363 . S
C66 C67 1.385 . S
C67 H41 0.930 . S
C67 C66 1.385 . S
C67 C68 1.357 . S
C68 C67 1.357 . S
C68 C69 1.406 1_655 S
C69 H43 0.929 . S
C69 C68 1.406 1_455 S
C69 C70 1.391 . S
C70 H42 0.931 . S
C70 C65 1.370 1_455 S
C70 C69 1.391 . S
C71 N40 1.435 . S
C71 C72 1.358 1_655 S
C71 C76 1.371 . S
C72 H44 0.930 . S
C72 C71 1.358 1_455 S
C72 C73 1.405 . S
C73 H45 0.932 . S
C73 C72 1.405 . S
C73 C74 1.389 . S
C74 C73 1.389 . S
C74 C75 1.390 1_455 S
C75 H47 0.931 . S
C75 C74 1.390 1_655 S
C75 C76 1.382 . S
C76 H46 0.929 . S
C76 C71 1.371 . S
C76 C75 1.382 . S
C77 N40 1.423 . S
C77 C78 1.362 . S
C77 C82 1.398 . S
C78 H48 0.929 . S
C78 C77 1.362 . S
C78 C79 1.376 . S
C79 H50 0.931 . S
C79 C78 1.376 . S
C79 C80 1.396 . S
C80 C79 1.396 . S
C80 C81 1.348 . S
C80 C98 1.472 . S
C81 H51 0.929 1_655 S
C81 C80 1.348 . S
C81 C82 1.437 . S
C82 H49 0.928 1_655 S
C82 C77 1.398 . S
C82 C81 1.437 . S
C83 N63 1.433 . S
C83 C84 1.363 . S
C83 C88 1.370 1_655 S
C84 H52 0.929 . S
C84 C83 1.363 . S
C84 C85 1.385 . S
C85 H53 0.930 . S
C85 C84 1.385 . S
C85 C86 1.357 . S
C86 C85 1.357 . S
C86 C87 1.406 1_655 S
C87 H54 0.929 . S
C87 C86 1.406 1_455 S
C87 C88 1.391 . S
C88 H55 0.931 . S
C88 C83 1.370 1_455 S
C88 C87 1.391 . S
C89 N63 1.435 . S
C89 C90 1.358 1_655 S
C89 C94 1.371 . S
C90 H56 0.930 . S
C90 C89 1.358 1_455 S
C90 C91 1.405 . S
C91 H57 0.932 . S
C91 C90 1.405 . S
C91 C92 1.390 . S
C92 C91 1.390 . S
C92 C93 1.379 1_455 S
C93 H58 0.931 . S
C93 C92 1.379 1_655 S
C93 C94 1.382 . S
C94 H59 0.929 . S
C94 C89 1.371 . S
C94 C93 1.382 . S
C95 N63 1.423 . S
C95 C96 1.362 . S
C95 C100 1.391 . S
C96 H60 0.929 . S
C96 C95 1.362 . S
C96 C97 1.376 . S
C97 H61 0.931 . S
C97 C96 1.376 . S
C97 C98 1.396 . S
C98 C80 1.472 . S
C98 C97 1.396 . S
C98 C99 1.348 . S
C99 H62 0.929 1_655 S
C99 C98 1.348 . S
C99 C100 1.451 . S
C100 H64 0.921 1_655 S
C100 C95 1.391 . S
C100 C99 1.451 . S
H101 C128 0.929 . S
N102 C127 1.433 . S
N102 C133 1.435 . S
N102 C139 1.423 . S
H103 C129 0.930 . S
H104 C132 0.931 . S
H105 C131 0.929 . S
H106 C134 0.930 . S
H107 C135 0.932 . S
H108 C138 0.929 . S
H109 C137 0.931 . S
H110 C140 0.929 . S
H111 C144 0.932 1_565 S
H112 C141 0.931 . S
H113 C143 0.929 1_565 S
H114 C146 0.929 . S
H115 C147 0.930 . S
H116 C149 0.929 . S
H117 C150 0.931 . S
H118 C152 0.930 . S
H119 C153 0.932 . S
H120 C155 0.931 . S
H121 C156 0.929 . S
H122 C158 0.929 . S
H123 C159 0.931 . S
H124 C161 0.929 1_565 S
N125 C145 1.433 . S
N125 C151 1.435 . S
N125 C157 1.423 . S
H126 C162 0.932 1_565 S
C127 N102 1.433 . S
C127 C128 1.363 . S
C127 C132 1.370 1_545 S
C128 H101 0.929 . S
C128 C127 1.363 . S
C128 C129 1.385 . S
C129 H103 0.930 . S
C129 C128 1.385 . S
C129 C130 1.357 . S
C130 C129 1.357 . S
C130 C131 1.406 1_545 S
C131 H105 0.929 . S
C131 C130 1.406 1_565 S
C131 C132 1.391 . S
C132 H104 0.931 . S
C132 C127 1.370 1_565 S
C132 C131 1.391 . S
C133 N102 1.435 . S
C133 C134 1.358 1_545 S
C133 C138 1.371 . S
C134 H106 0.930 . S
C134 C133 1.358 1_565 S
C134 C135 1.405 . S
C135 H107 0.932 . S
C135 C134 1.405 . S
C135 C136 1.383 1_565 S
C136 C135 1.383 1_545 S
C136 C137 1.393 . S
C137 H109 0.931 . S
C137 C136 1.393 . S
C137 C138 1.382 . S
C138 H108 0.929 . S
C138 C133 1.371 . S
C138 C137 1.382 . S
C139 N102 1.423 . S
C139 C140 1.362 . S
C139 C144 1.388 . S
C140 H110 0.929 . S
C140 C139 1.362 . S
C140 C141 1.376 . S
C141 H112 0.931 . S
C141 C140 1.376 . S
C141 C142 1.396 . S
C142 C141 1.396 . S
C142 C143 1.348 . S
C142 C160 1.472 . S
C143 H113 0.929 1_545 S
C143 C142 1.348 . S
C143 C144 1.443 . S
C144 H111 0.932 1_545 S
C144 C139 1.388 . S
C144 C143 1.443 . S
C145 N125 1.433 . S
C145 C146 1.363 . S
C145 C150 1.370 1_545 S
C146 H114 0.929 . S
C146 C145 1.363 . S
C146 C147 1.385 . S
C147 H115 0.930 . S
C147 C146 1.385 . S
C147 C148 1.357 . S
C148 C147 1.357 . S
C148 C149 1.406 1_545 S
C149 H116 0.929 . S
C149 C148 1.406 1_565 S
C149 C150 1.391 . S
C150 H117 0.931 . S
C150 C145 1.370 1_565 S
C150 C149 1.391 . S
C151 N125 1.435 . S
C151 C152 1.358 1_545 S
C151 C156 1.371 . S
C152 H118 0.930 . S
C152 C151 1.358 1_565 S
C152 C153 1.405 . S
C153 H119 0.932 . S
C153 C152 1.405 . S
C153 C154 1.383 1_565 S
C154 C153 1.383 1_545 S
C154 C155 1.393 . S
C155 H120 0.931 . S
C155 C154 1.393 . S
C155 C156 1.382 . S
C156 H121 0.929 . S
C156 C151 1.371 . S
C156 C155 1.382 . S
C157 N125 1.423 . S
C157 C158 1.362 . S
C157 C162 1.388 . S
C158 H122 0.929 . S
C158 C157 1.362 . S
C158 C159 1.376 . S
C159 H123 0.931 . S
C159 C158 1.376 . S
C159 C160 1.396 . S
C160 C142 1.472 . S
C160 C159 1.396 . S
C160 C161 1.348 . S
C161 H124 0.929 1_545 S
C161 C160 1.348 . S
C161 C162 1.443 . S
C162 H126 0.932 1_545 S
C162 C157 1.388 . S
C162 C161 1.443 . S
H163 C190 0.929 . S
N164 C189 1.433 . S
N164 C195 1.435 . S
N164 C201 1.423 . S
H165 C191 0.930 . S
H166 C194 0.931 . S
H167 C193 0.929 . S
H168 C196 0.930 . S
H169 C197 0.932 . S
H170 C200 0.929 . S
H171 C199 0.931 . S
H172 C202 0.929 . S
H173 C206 0.932 . S
H174 C203 0.931 . S
H175 C205 0.929 . S
H176 C208 0.929 . S
H177 C209 0.930 . S
H178 C211 0.929 . S
H179 C212 0.931 . S
H180 C214 0.930 . S
H181 C215 0.932 . S
H182 C217 0.931 . S
H183 C218 0.929 . S
H184 C220 0.929 . S
H185 C221 0.931 . S
H186 C223 0.929 . S
N187 C207 1.433 . S
N187 C213 1.435 . S
N187 C219 1.423 . S
H188 C224 0.932 . S
C189 N164 1.433 . S
C189 C190 1.363 . S
C189 C194 1.370 . S
C190 H163 0.929 . S
C190 C189 1.363 . S
C190 C191 1.385 . S
C191 H165 0.930 . S
C191 C190 1.385 . S
C191 C192 1.357 . S
C192 C191 1.357 . S
C192 C193 1.406 . S
C193 H167 0.929 . S
C193 C192 1.406 . S
C193 C194 1.391 . S
C194 H166 0.931 . S
C194 C189 1.370 . S
C194 C193 1.391 . S
C195 N164 1.435 . S
C195 C196 1.358 . S
C195 C200 1.371 . S
C196 H168 0.930 . S
C196 C195 1.358 . S
C196 C197 1.405 . S
C197 H169 0.932 . S
C197 C196 1.405 . S
C197 C198 1.383 . S
C198 C197 1.383 . S
C198 C199 1.393 . S
C199 H171 0.931 . S
C199 C198 1.393 . S
C199 C200 1.382 . S
C200 H170 0.929 . S
C200 C195 1.371 . S
C200 C199 1.382 . S
C201 N164 1.423 . S
C201 C202 1.362 . S
C201 C206 1.388 . S
C202 H172 0.929 . S
C202 C201 1.362 . S
C202 C203 1.376 . S
C203 H174 0.931 . S
C203 C202 1.376 . S
C203 C204 1.396 . S
C204 C203 1.396 . S
C204 C205 1.348 . S
C204 C222 1.472 . S
C205 H175 0.929 . S
C205 C204 1.348 . S
C205 C206 1.443 . S
C206 H173 0.932 . S
C206 C201 1.388 . S
C206 C205 1.443 . S
C207 N187 1.433 . S
C207 C208 1.363 . S
C207 C212 1.370 . S
C208 H176 0.929 . S
C208 C207 1.363 . S
C208 C209 1.385 . S
C209 H177 0.930 . S
C209 C208 1.385 . S
C209 C210 1.357 . S
C210 C209 1.357 . S
C210 C211 1.406 . S
C211 H178 0.929 . S
C211 C210 1.406 . S
C211 C212 1.391 . S
C212 H179 0.931 . S
C212 C207 1.370 . S
C212 C211 1.391 . S
C213 N187 1.435 . S
C213 C214 1.358 . S
C213 C218 1.371 . S
C214 H180 0.930 . S
C214 C213 1.358 . S
C214 C215 1.405 . S
C215 H181 0.932 . S
C215 C214 1.405 . S
C215 C216 1.383 . S
C216 C215 1.383 . S
C216 C217 1.393 . S
C217 H182 0.931 . S
C217 C216 1.393 . S
C217 C218 1.382 . S
C218 H183 0.929 . S
C218 C213 1.371 . S
C218 C217 1.382 . S
C219 N187 1.423 . S
C219 C220 1.362 . S
C219 C224 1.388 . S
C220 H184 0.929 . S
C220 C219 1.362 . S
C220 C221 1.376 . S
C221 H185 0.931 . S
C221 C220 1.376 . S
C221 C222 1.396 . S
C222 C204 1.472 . S
C222 C221 1.396 . S
C222 C223 1.348 . S
C223 H186 0.929 . S
C223 C222 1.348 . S
C223 C224 1.443 . S
C224 H188 0.932 . S
C224 C219 1.388 . S
C224 C223 1.443 . S
C225 C226 1.391 1_655 S
C225 C227 1.394 . S
C225 H241 0.931 . S
C226 C225 1.391 1_455 S
C226 C230 1.376 . S
C227 C225 1.394 . S
C227 C228 1.369 1_655 S
C227 C231 1.531 . S
C228 C227 1.369 1_455 S
C228 C229 1.410 . S
C228 C236 1.503 . S
C229 C228 1.410 . S
C229 C230 1.392 . S
C229 C232 1.511 . S
C230 C226 1.376 . S
C230 C229 1.392 . S
C230 H242 0.929 . S
C231 C227 1.531 . S
C231 H243 0.960 . S
C231 H244 0.962 . S
C231 H245 0.960 . S
C232 C229 1.511 . S
C232 H246 0.961 . S
C232 H247 0.961 . S
C232 H248 0.961 . S
C233 C234 1.370 . S
C233 C235 1.363 . S
C233 H249 0.931 . S
C234 C233 1.370 . S
C234 C238 1.408 . S
C235 C233 1.363 . S
C235 C236 1.370 . S
C235 C239 1.524 . S
C236 C228 1.503 . S
C236 C235 1.370 . S
C236 C237 1.403 . S
C237 C236 1.403 . S
C237 C238 1.404 . S
C237 C240 1.539 . S
C238 C234 1.408 . S
C238 C237 1.404 . S
C238 H250 0.930 . S
C239 C235 1.524 . S
C239 H251 0.956 1_455 S
C239 H252 0.961 . S
C239 H253 0.961 . S
C240 C237 1.539 . S
C240 H254 0.958 1_455 S
C240 H255 0.961 . S
C240 H256 0.960 . S
H241 C225 0.931 . S
H242 C230 0.929 . S
H243 C231 0.960 . S
H244 C231 0.962 . S
H245 C231 0.960 . S
H246 C232 0.961 . S
H247 C232 0.961 . S
H248 C232 0.961 . S
H249 C233 0.931 . S
H250 C238 0.930 . S
H251 C239 0.956 1_655 S
H252 C239 0.961 . S
H253 C239 0.961 . S
H254 C240 0.958 1_655 S
H255 C240 0.961 . S
H256 C240 0.960 . S
C257 C258 1.391 . S
C257 C259 1.394 1_545 S
C257 H273 0.931 . S
C258 C257 1.391 . S
C258 C262 1.371 1_545 S
C259 C257 1.394 1_565 S
C259 C260 1.369 . S
C259 C263 1.531 . S
C260 C259 1.369 . S
C260 C261 1.410 . S
C260 C268 1.503 . S
C261 C260 1.410 . S
C261 C262 1.383 . S
C261 C264 1.511 . S
C262 C258 1.371 1_565 S
C262 C261 1.383 . S
C262 H274 0.931 . S
C263 C259 1.531 . S
C263 H275 0.960 . S
C263 H276 0.962 1_565 S
C263 H277 0.960 . S
C264 C261 1.511 . S
C264 H278 0.961 1_565 S
C264 H279 0.961 1_565 S
C264 H280 0.961 . S
C265 C266 1.370 . S
C265 C267 1.363 . S
C265 H281 0.931 . S
C266 C265 1.370 . S
C266 C270 1.408 1_545 S
C267 C265 1.363 . S
C267 C268 1.370 1_545 S
C267 C271 1.524 . S
C268 C260 1.503 . S
C268 C267 1.370 1_565 S
C268 C269 1.403 . S
C269 C268 1.403 . S
C269 C270 1.404 . S
C269 C272 1.539 . S
C270 C266 1.408 1_565 S
C270 C269 1.404 . S
C270 H282 0.930 . S
C271 C267 1.524 . S
C271 H283 0.956 . S
C271 H284 0.961 . S
C271 H285 0.961 . S
C272 C269 1.539 . S
C272 H286 0.958 . S
C272 H287 0.961 . S
C272 H288 0.960 . S
H273 C257 0.931 . S
H274 C262 0.931 . S
H275 C263 0.960 . S
H276 C263 0.962 1_545 S
H277 C263 0.960 . S
H278 C264 0.961 1_545 S
H279 C264 0.961 1_545 S
H280 C264 0.961 . S
H281 C265 0.931 . S
H282 C270 0.930 . S
H283 C271 0.956 . S
H284 C271 0.961 . S
H285 C271 0.961 . S
H286 C272 0.958 . S
H287 C272 0.961 . S
H288 C272 0.960 . S
C289 C290 1.391 . S
C289 C291 1.394 . S
C289 H305 0.931 . S
C290 C289 1.391 . S
C290 C294 1.376 . S
C291 C289 1.394 . S
C291 C292 1.369 . S
C291 C295 1.531 . S
C292 C291 1.369 . S
C292 C293 1.410 . S
C292 C300 1.503 . S
C293 C292 1.410 . S
C293 C294 1.392 . S
C293 C296 1.511 . S
C294 C290 1.376 . S
C294 C293 1.392 . S
C294 H306 0.929 . S
C295 C291 1.531 . S
C295 H307 0.960 . S
C295 H308 0.962 . S
C295 H309 0.960 . S
C296 C293 1.511 . S
C296 H310 0.961 . S
C296 H311 0.961 . S
C296 H312 0.961 . S
C297 C298 1.370 . S
C297 C299 1.363 . S
C297 H313 0.931 . S
C298 C297 1.370 . S
C298 C302 1.408 . S
C299 C297 1.363 . S
C299 C300 1.370 . S
C299 C303 1.524 . S
C300 C292 1.503 . S
C300 C299 1.370 . S
C300 C301 1.403 . S
C301 C300 1.403 . S
C301 C302 1.404 . S
C301 C304 1.539 . S
C302 C298 1.408 . S
C302 C301 1.404 . S
C302 H314 0.930 . S
C303 C299 1.524 . S
C303 H315 0.956 . S
C303 H316 0.961 . S
C303 H317 0.961 . S
C304 C301 1.539 . S
C304 H318 0.958 . S
C304 H319 0.961 . S
C304 H320 0.960 . S
H305 C289 0.931 . S
H306 C294 0.929 . S
H307 C295 0.960 . S
H308 C295 0.962 . S
H309 C295 0.960 . S
H310 C296 0.961 . S
H311 C296 0.961 . S
H312 C296 0.961 . S
H313 C297 0.931 . S
H314 C302 0.930 . S
H315 C303 0.956 . S
H316 C303 0.961 . S
H317 C303 0.961 . S
H318 C304 0.958 . S
H319 C304 0.961 . S
H320 C304 0.960 . S
C321 C322 1.366 1_455 S
C321 C323 1.394 . S
C321 H337 0.931 . S
C322 C321 1.366 1_655 S
C322 C326 1.391 . S
C323 C321 1.394 . S
C323 C324 1.375 . S
C323 C327 1.531 . S
C324 C323 1.375 . S
C324 C325 1.399 1_455 S
C324 C332 1.496 . S
C325 C324 1.399 1_655 S
C325 C326 1.392 . S
C325 C328 1.511 . S
C326 C322 1.391 . S
C326 C325 1.392 . S
C326 H338 0.929 . S
C327 C323 1.531 . S
C327 H339 0.960 . S
C327 H340 0.962 . S
C327 H341 0.960 . S
C328 C325 1.511 . S
C328 H342 0.961 . S
C328 H343 0.961 . S
C328 H344 0.961 . S
C329 C330 1.370 . S
C329 C331 1.363 . S
C329 H345 0.931 . S
C330 C329 1.370 . S
C330 C334 1.408 1_455 S
C331 C329 1.363 . S
C331 C332 1.387 . S
C331 C335 1.524 . S
C332 C324 1.496 . S
C332 C331 1.387 . S
C332 C333 1.400 1_455 S
C333 C332 1.400 1_655 S
C333 C334 1.404 . S
C333 C336 1.539 . S
C334 C330 1.408 1_655 S
C334 C333 1.404 . S
C334 H346 0.930 . S
C335 C331 1.524 . S
C335 H347 0.956 . S
C335 H348 0.961 1_455 S
C335 H349 0.961 . S
C336 C333 1.539 . S
C336 H350 0.958 1_655 S
C336 H351 0.961 . S
C336 H352 0.960 . S
H337 C321 0.931 . S
H338 C326 0.929 . S
H339 C327 0.960 . S
H340 C327 0.962 . S
H341 C327 0.960 . S
H342 C328 0.961 . S
H343 C328 0.961 . S
H344 C328 0.961 . S
H345 C329 0.931 . S
H346 C334 0.930 . S
H347 C335 0.956 . S
H348 C335 0.961 1_655 S
H349 C335 0.961 . S
H350 C336 0.958 1_455 S
H351 C336 0.961 . S
H352 C336 0.960 . S
C353 C354 1.391 . S
C353 C355 1.394 . S
C353 H369 0.931 . S
C354 C353 1.391 . S
C354 C358 1.376 1_565 S
C355 C353 1.394 . S
C355 C356 1.369 . S
C355 C359 1.531 . S
C356 C355 1.369 . S
C356 C357 1.410 1_565 S
C356 C364 1.503 . S
C357 C356 1.410 1_545 S
C357 C358 1.392 . S
C357 C360 1.511 . S
C358 C354 1.376 1_545 S
C358 C357 1.392 . S
C358 H370 0.929 . S
C359 C355 1.531 . S
C359 H371 0.960 . S
C359 H372 0.962 . S
C359 H373 0.960 . S
C360 C357 1.511 . S
C360 H374 0.961 . S
C360 H375 0.961 . S
C360 H376 0.961 . S
C361 C362 1.370 . S
C361 C363 1.363 . S
C361 H377 0.931 . S
C362 C361 1.370 . S
C362 C366 1.408 1_545 S
C363 C361 1.363 . S
C363 C364 1.370 1_545 S
C363 C367 1.524 . S
C364 C356 1.503 . S
C364 C363 1.370 1_565 S
C364 C365 1.403 . S
C365 C364 1.403 . S
C365 C366 1.404 . S
C365 C368 1.539 . S
C366 C362 1.408 1_565 S
C366 C365 1.404 . S
C366 H378 0.930 . S
C367 C363 1.524 . S
C367 H379 0.956 . S
C367 H380 0.961 . S
C367 H381 0.961 . S
C368 C365 1.539 . S
C368 H382 0.958 . S
C368 H383 0.961 . S
C368 H384 0.960 . S
H369 C353 0.931 . S
H370 C358 0.929 . S
H371 C359 0.960 . S
H372 C359 0.962 . S
H373 C359 0.960 . S
H374 C360 0.961 . S
H375 C360 0.961 . S
H376 C360 0.961 . S
H377 C361 0.931 . S
H378 C366 0.930 . S
H379 C367 0.956 . S
H380 C367 0.961 . S
H381 C367 0.961 . S
H382 C368 0.958 . S
H383 C368 0.961 . S
H384 C368 0.960 . S
C385 C386 1.391 . S
C385 C387 1.394 . S
C385 H401 0.931 . S
C386 C385 1.391 . S
C386 C390 1.376 . S
C387 C385 1.394 . S
C387 C388 1.369 . S
C387 C391 1.531 . S
C388 C387 1.369 . S
C388 C389 1.410 . S
C388 C396 1.503 . S
C389 C388 1.410 . S
C389 C390 1.392 . S
C389 C392 1.511 . S
C390 C386 1.376 . S
C390 C389 1.392 . S
C390 H402 0.929 . S
C391 C387 1.531 . S
C391 H403 0.960 . S
C391 H404 0.962 . S
C391 H405 0.960 . S
C392 C389 1.511 . S
C392 H406 0.961 . S
C392 H407 0.961 . S
C392 H408 0.961 . S
C393 C394 1.370 . S
C393 C395 1.363 . S
C393 H409 0.931 . S
C394 C393 1.370 . S
C394 C398 1.408 . S
C395 C393 1.363 . S
C395 C396 1.370 . S
C395 C399 1.524 . S
C396 C388 1.503 . S
C396 C395 1.370 . S
C396 C397 1.403 . S
C397 C396 1.403 . S
C397 C398 1.404 . S
C397 C400 1.539 . S
C398 C394 1.408 . S
C398 C397 1.404 . S
C398 H410 0.930 . S
C399 C395 1.524 . S
C399 H411 0.956 . S
C399 H412 0.961 . S
C399 H413 0.961 . S
C400 C397 1.539 . S
C400 H414 0.958 . S
C400 H415 0.961 . S
C400 H416 0.960 . S
H401 C385 0.931 . S
H402 C390 0.929 . S
H403 C391 0.960 . S
H404 C391 0.962 . S
H405 C391 0.960 . S
H406 C392 0.961 . S
H407 C392 0.961 . S
H408 C392 0.961 . S
H409 C393 0.931 . S
H410 C398 0.930 . S
H411 C399 0.956 . S
H412 C399 0.961 . S
H413 C399 0.961 . S
H414 C400 0.958 . S
H415 C400 0.961 . S
H416 C400 0.960 . S
C417 C418 1.363 1_545 S
C417 C419 1.394 . S
C417 H433 0.931 . S
C418 C417 1.363 1_565 S
C418 C422 1.391 . S
C419 C417 1.394 . S
C419 C420 1.369 . S
C419 C423 1.531 . S
C420 C419 1.369 . S
C420 C421 1.410 1_545 S
C420 C428 1.503 . S
C421 C420 1.410 1_565 S
C421 C422 1.392 . S
C421 C424 1.511 . S
C422 C418 1.391 . S
C422 C421 1.392 . S
C422 H434 0.929 . S
C423 C419 1.531 . S
C423 H435 0.960 . S
C423 H436 0.962 . S
C423 H437 0.960 . S
C424 C421 1.511 . S
C424 H438 0.961 . S
C424 H439 0.961 . S
C424 H440 0.961 . S
C425 C426 1.370 1_565 S
C425 C427 1.363 . S
C425 H441 0.931 . S
C426 C425 1.370 1_545 S
C426 C430 1.408 . S
C427 C425 1.363 . S
C427 C428 1.370 1_565 S
C427 C431 1.524 . S
C428 C420 1.503 . S
C428 C427 1.370 1_545 S
C428 C429 1.403 . S
C429 C428 1.403 . S
C429 C430 1.404 . S
C429 C432 1.539 . S
C430 C426 1.408 . S
C430 C429 1.404 . S
C430 H442 0.930 . S
C431 C427 1.524 . S
C431 H443 0.956 . S
C431 H444 0.961 . S
C431 H445 0.961 . S
C432 C429 1.539 . S
C432 H446 0.958 . S
C432 H447 0.961 . S
C432 H448 0.960 . S
H433 C417 0.931 . S
H434 C422 0.929 . S
H435 C423 0.960 . S
H436 C423 0.962 . S
H437 C423 0.960 . S
H438 C424 0.961 . S
H439 C424 0.961 . S
H440 C424 0.961 . S
H441 C425 0.931 . S
H442 C430 0.930 . S
H443 C431 0.956 . S
H444 C431 0.961 . S
H445 C431 0.961 . S
H446 C432 0.958 . S
H447 C432 0.961 . S
H448 C432 0.960 . S
C449 C450 1.391 . S
C449 C451 1.394 1_554 S
C449 H465 0.931 . S
C450 C449 1.391 . S
C450 C454 1.376 1_554 S
C451 C449 1.394 1_556 S
C451 C452 1.369 . S
C451 C455 1.531 . S
C452 C451 1.369 . S
C452 C453 1.410 . S
C452 C460 1.503 . S
C453 C452 1.410 . S
C453 C454 1.392 . S
C453 C456 1.511 . S
C454 C450 1.376 1_556 S
C454 C453 1.392 . S
C454 H466 0.928 1_556 S
C455 C451 1.531 . S
C455 H467 0.960 . S
C455 H468 0.962 . S
C455 H469 0.960 1_556 S
C456 C453 1.511 . S
C456 H470 0.961 . S
C456 H471 0.961 . S
C456 H472 0.961 . S
C457 C458 1.370 . S
C457 C459 1.363 . S
C457 H473 0.931 . S
C458 C457 1.370 . S
C458 C462 1.408 . S
C459 C457 1.363 . S
C459 C460 1.370 . S
C459 C463 1.524 . S
C460 C452 1.503 . S
C460 C459 1.370 . S
C460 C461 1.403 . S
C461 C460 1.403 . S
C461 C462 1.404 . S
C461 C464 1.539 1_556 S
C462 C458 1.408 . S
C462 C461 1.404 . S
C462 H474 0.930 . S
C463 C459 1.524 . S
C463 H475 0.956 . S
C463 H476 0.961 . S
C463 H477 0.961 . S
C464 C461 1.539 1_554 S
C464 H478 0.958 . S
C464 H479 0.961 . S
C464 H480 0.960 . S
H465 C449 0.931 . S
H466 C454 0.928 1_554 S
H467 C455 0.960 . S
H468 C455 0.962 . S
H469 C455 0.960 1_554 S
H470 C456 0.961 . S
H471 C456 0.961 . S
H472 C456 0.961 . S
H473 C457 0.931 . S
H474 C462 0.930 . S
H475 C463 0.956 . S
H476 C463 0.961 . S
H477 C463 0.961 . S
H478 C464 0.958 . S
H479 C464 0.961 . S
H480 C464 0.960 . S
C481 C482 1.391 . S
C481 C483 1.394 . S
C481 H497 0.931 . S
C482 C481 1.391 . S
C482 C486 1.376 . S
C483 C481 1.394 . S
C483 C484 1.369 . S
C483 C487 1.531 . S
C484 C483 1.369 . S
C484 C485 1.410 . S
C484 C492 1.503 . S
C485 C484 1.410 . S
C485 C486 1.392 . S
C485 C488 1.511 1_455 S
C486 C482 1.376 . S
C486 C485 1.392 . S
C486 H498 0.929 1_455 S
C487 C483 1.531 . S
C487 H499 0.960 . S
C487 H500 0.962 . S
C487 H501 0.960 . S
C488 C485 1.511 1_655 S
C488 H502 0.961 . S
C488 H503 0.961 . S
C488 H504 0.961 1_655 S
C489 C490 1.370 1_655 S
C489 C491 1.363 . S
C489 H505 0.931 . S
C490 C489 1.370 1_455 S
C490 C494 1.408 . S
C491 C489 1.363 . S
C491 C492 1.370 1_655 S
C491 C495 1.524 . S
C492 C484 1.503 . S
C492 C491 1.370 1_455 S
C492 C493 1.403 . S
C493 C492 1.403 . S
C493 C494 1.404 . S
C493 C496 1.539 . S
C494 C490 1.408 . S
C494 C493 1.404 . S
C494 H506 0.930 . S
C495 C491 1.524 . S
C495 H507 0.956 . S
C495 H508 0.961 . S
C495 H509 0.961 . S
C496 C493 1.539 . S
C496 H510 0.958 . S
C496 H511 0.961 . S
C496 H512 0.960 . S
H497 C481 0.931 . S
H498 C486 0.929 1_655 S
H499 C487 0.960 . S
H500 C487 0.962 . S
H501 C487 0.960 . S
H502 C488 0.961 . S
H503 C488 0.961 . S
H504 C488 0.961 1_455 S
H505 C489 0.931 . S
H506 C494 0.930 . S
H507 C495 0.956 . S
H508 C495 0.961 . S
H509 C495 0.961 . S
H510 C496 0.958 . S
H511 C496 0.961 . S
H512 C496 0.960 . S
C513 C514 1.391 1_565 S
C513 C515 1.394 . S
C513 H529 0.931 . S
C514 C513 1.391 1_545 S
C514 C518 1.376 . S
C515 C513 1.394 . S
C515 C516 1.369 . S
C515 C519 1.531 . S
C516 C515 1.369 . S
C516 C517 1.410 1_565 S
C516 C524 1.503 . S
C517 C516 1.410 1_545 S
C517 C518 1.392 . S
C517 C520 1.511 . S
C518 C514 1.376 . S
C518 C517 1.392 . S
C518 H530 0.929 . S
C519 C515 1.531 . S
C519 H531 0.960 . S
C519 H532 0.962 . S
C519 H533 0.960 . S
C520 C517 1.511 . S
C520 H534 0.961 . S
C520 H535 0.961 . S
C520 H536 0.961 1_545 S
C521 C522 1.389 . S
C521 C523 1.363 . S
C521 H537 0.931 . S
C522 C521 1.389 . S
C522 C526 1.397 1_545 S
C523 C521 1.363 . S
C523 C524 1.370 1_545 S
C523 C527 1.524 . S
C524 C516 1.503 . S
C524 C523 1.370 1_565 S
C524 C525 1.403 . S
C525 C524 1.403 . S
C525 C526 1.404 . S
C525 C528 1.539 . S
C526 C522 1.397 1_565 S
C526 C525 1.404 . S
C526 H538 0.930 . S
C527 C523 1.524 . S
C527 H539 0.956 . S
C527 H540 0.961 . S
C527 H541 0.961 . S
C528 C525 1.539 . S
C528 H542 0.958 . S
C528 H543 0.961 . S
C528 H544 0.960 . S
H529 C513 0.931 . S
H530 C518 0.929 . S
H531 C519 0.960 . S
H532 C519 0.962 . S
H533 C519 0.960 . S
H534 C520 0.961 . S
H535 C520 0.961 . S
H536 C520 0.961 1_565 S
H537 C521 0.931 . S
H538 C526 0.930 . S
H539 C527 0.956 . S
H540 C527 0.961 . S
H541 C527 0.961 . S
H542 C528 0.958 . S
H543 C528 0.961 . S
H544 C528 0.960 . S
C545 C546 1.391 . S
C545 C547 1.394 1_554 S
C545 H561 0.931 . S
C546 C545 1.391 . S
C546 C550 1.376 1_554 S
C547 C545 1.394 1_556 S
C547 C548 1.369 . S
C547 C551 1.531 . S
C548 C547 1.369 . S
C548 C549 1.410 . S
C548 C556 1.503 . S
C549 C548 1.410 . S
C549 C550 1.392 . S
C549 C552 1.511 . S
C550 C546 1.376 1_556 S
C550 C549 1.392 . S
C550 H562 0.929 . S
C551 C547 1.531 . S
C551 H563 0.960 . S
C551 H564 0.923 1_556 S
C551 H565 0.960 . S
C552 C549 1.511 . S
C552 H566 0.961 . S
C552 H567 0.961 . S
C552 H568 0.961 . S
C553 C554 1.370 . S
C553 C555 1.363 . S
C553 H569 0.931 . S
C554 C553 1.370 . S
C554 C558 1.408 . S
C555 C553 1.363 . S
C555 C556 1.370 . S
C555 C559 1.524 1_556 S
C556 C548 1.503 . S
C556 C555 1.370 . S
C556 C557 1.403 . S
C557 C556 1.403 . S
C557 C558 1.404 . S
C557 C560 1.539 . S
C558 C554 1.408 . S
C558 C557 1.404 . S
C558 H570 0.930 . S
C559 C555 1.524 1_554 S
C559 H571 0.956 . S
C559 H572 0.961 . S
C559 H573 0.961 . S
C560 C557 1.539 . S
C560 H574 0.958 . S
C560 H575 0.961 . S
C560 H576 0.960 . S
H561 C545 0.931 . S
H562 C550 0.929 . S
H563 C551 0.960 . S
H564 C551 0.923 1_554 S
H565 C551 0.960 . S
H566 C552 0.961 . S
H567 C552 0.961 . S
H568 C552 0.961 . S
H569 C553 0.931 . S
H570 C558 0.930 . S
H571 C559 0.956 . S
H572 C559 0.961 . S
H573 C559 0.961 . S
H574 C560 0.958 . S
H575 C560 0.961 . S
H576 C560 0.960 . S
C577 C578 1.390 1_655 S
C577 C579 1.394 . S
C577 H593 0.931 . S
C578 C577 1.390 1_455 S
C578 C582 1.376 . S
C579 C577 1.394 . S
C579 C580 1.369 1_655 S
C579 C583 1.531 . S
C580 C579 1.369 1_455 S
C580 C581 1.410 . S
C580 C588 1.503 . S
C581 C580 1.410 . S
C581 C582 1.392 . S
C581 C584 1.511 . S
C582 C578 1.376 . S
C582 C581 1.392 . S
C582 H594 0.929 . S
C583 C579 1.531 . S
C583 H595 0.960 . S
C583 H596 0.962 . S
C583 H597 0.960 . S
C584 C581 1.511 . S
C584 H598 0.961 . S
C584 H599 0.961 . S
C584 H600 0.961 . S
C585 C586 1.370 1_655 S
C585 C587 1.363 . S
C585 H601 0.931 . S
C586 C585 1.370 1_455 S
C586 C590 1.408 . S
C587 C585 1.363 . S
C587 C588 1.370 1_655 S
C587 C591 1.524 . S
C588 C580 1.503 . S
C588 C587 1.370 1_455 S
C588 C589 1.403 . S
C589 C588 1.403 . S
C589 C590 1.404 . S
C589 C592 1.539 . S
C590 C586 1.408 . S
C590 C589 1.404 . S
C590 H602 0.930 . S
C591 C587 1.524 . S
C591 H603 0.956 . S
C591 H604 0.961 . S
C591 H605 0.961 . S
C592 C589 1.539 . S
C592 H606 0.958 . S
C592 H607 0.961 . S
C592 H608 0.960 . S
H593 C577 0.931 . S
H594 C582 0.929 . S
H595 C583 0.960 . S
H596 C583 0.962 . S
H597 C583 0.960 . S
H598 C584 0.961 . S
H599 C584 0.961 . S
H600 C584 0.961 . S
H601 C585 0.931 . S
H602 C590 0.930 . S
H603 C591 0.956 . S
H604 C591 0.961 . S
H605 C591 0.961 . S
H606 C592 0.958 . S
H607 C592 0.961 . S
H608 C592 0.960 . S
C234 C92 1.389 . S
C226 C10 1.401 . S
C258 C17 1.400 . S
C266 C136 1.391 . S
C290 C36 1.401 . S
C298 C198 1.397 . S
C322 C5 1.398 . S
C330 C74 1.378 . S
C362 C154 1.398 . S
C354 C16 1.415 . S
C386 C31 1.403 . S
C394 C216 1.397 . S
C426 C130 1.618 . S
C418 C30 1.766 . S
C450 C3 1.744 . S
C458 C192 1.646 . S
C490 C68 1.644 1_455 S
C482 C18 1.749 . S
C522 C148 1.623 . S
C514 C29 1.751 . S
C554 C210 1.618 . S
C546 C4 1.755 . S
C578 C23 1.741 1_455 S
C586 C86 1.645 1_455 S
