# Generated by pormake.
# Topology zzz, (3,6)-cn, num edge types: 1
# Building blocks:
#     Node 0, Type 0, BuildingBlock: ESEHIV_clean_linker_0, # of connection points: 3
#     Node 1, Type 0, BuildingBlock: ESEHIV_clean_linker_0, # of connection points: 3
#     Node 2, Type 0, BuildingBlock: ESEHIV_clean_linker_0, # of connection points: 3
#     Node 3, Type 0, BuildingBlock: ESEHIV_clean_linker_0, # of connection points: 3
#     Node 4, Type 0, BuildingBlock: ESEHIV_clean_linker_0, # of connection points: 3
#     Node 5, Type 0, BuildingBlock: ESEHIV_clean_linker_0, # of connection points: 3
#     Node 6, Type 0, BuildingBlock: ESEHIV_clean_linker_0, # of connection points: 3
#     Node 7, Type 0, BuildingBlock: ESEHIV_clean_linker_0, # of connection points: 3
#     Node 8, Type 1, BuildingBlock: CUWYAW_clean_sbu_0, # of connection points: 6
#     Node 9, Type 1, BuildingBlock: CUWYAW_clean_sbu_0, # of connection points: 6
#     Node 10, Type 1, BuildingBlock: CUWYAW_clean_sbu_0, # of connection points: 6
#     Node 11, Type 1, BuildingBlock: CUWYAW_clean_sbu_0, # of connection points: 6
#     Edge 12, Type (0, 1), BuildingBlock: AJUNOK_clean_linker_0, # of connection points: 2
#     Edge 13, Type (0, 1), BuildingBlock: AJUNOK_clean_linker_0, # of connection points: 2
#     Edge 14, Type (0, 1), BuildingBlock: AJUNOK_clean_linker_0, # of connection points: 2
#     Edge 15, Type (0, 1), BuildingBlock: AJUNOK_clean_linker_0, # of connection points: 2
#     Edge 16, Type (0, 1), BuildingBlock: AJUNOK_clean_linker_0, # of connection points: 2
#     Edge 17, Type (0, 1), BuildingBlock: AJUNOK_clean_linker_0, # of connection points: 2
#     Edge 18, Type (0, 1), BuildingBlock: AJUNOK_clean_linker_0, # of connection points: 2
#     Edge 19, Type (0, 1), BuildingBlock: AJUNOK_clean_linker_0, # of connection points: 2
#     Edge 20, Type (0, 1), BuildingBlock: AJUNOK_clean_linker_0, # of connection points: 2
#     Edge 21, Type (0, 1), BuildingBlock: AJUNOK_clean_linker_0, # of connection points: 2
#     Edge 22, Type (0, 1), BuildingBlock: AJUNOK_clean_linker_0, # of connection points: 2
#     Edge 23, Type (0, 1), BuildingBlock: AJUNOK_clean_linker_0, # of connection points: 2
#     Edge 24, Type (0, 1), BuildingBlock: AJUNOK_clean_linker_0, # of connection points: 2
#     Edge 25, Type (0, 1), BuildingBlock: AJUNOK_clean_linker_0, # of connection points: 2
#     Edge 26, Type (0, 1), BuildingBlock: AJUNOK_clean_linker_0, # of connection points: 2
#     Edge 27, Type (0, 1), BuildingBlock: AJUNOK_clean_linker_0, # of connection points: 2
#     Edge 28, Type (0, 1), BuildingBlock: AJUNOK_clean_linker_0, # of connection points: 2
#     Edge 29, Type (0, 1), BuildingBlock: AJUNOK_clean_linker_0, # of connection points: 2
#     Edge 30, Type (0, 1), BuildingBlock: AJUNOK_clean_linker_0, # of connection points: 2
#     Edge 31, Type (0, 1), BuildingBlock: AJUNOK_clean_linker_0, # of connection points: 2
#     Edge 32, Type (0, 1), BuildingBlock: AJUNOK_clean_linker_0, # of connection points: 2
#     Edge 33, Type (0, 1), BuildingBlock: AJUNOK_clean_linker_0, # of connection points: 2
#     Edge 34, Type (0, 1), BuildingBlock: AJUNOK_clean_linker_0, # of connection points: 2
#     Edge 35, Type (0, 1), BuildingBlock: AJUNOK_clean_linker_0, # of connection points: 2
# Relax obj value: 0.615
# Max RMSD: 0.244
# Mean RMSD: 0.232
data_MOF--net-zzz--node1-CUWYAW_clean_sbu_0--node2-ESEHIV_clean_linker_0--edge1-AJUNOK_clean_linker_0
_symmetry_space_group_name_H-M    P1
_symmetry_Int_Tables_number       1
_symmetry_cell_setting            triclinic
loop_
_symmetry_equiv_pos_as_xyz
'x, y, z'
_cell_length_a     32.275297
_cell_length_b     32.300054
_cell_length_c     11.121485
_cell_angle_alpha  89.637235
_cell_angle_beta   89.879625
_cell_angle_gamma 89.976501
loop_
_atom_site_label
_atom_site_type_symbol
_atom_site_fract_x
_atom_site_fract_y
_atom_site_fract_z
_atom_type_partial_charge
H0 H 0.81606 0.45652 0.38516 0.0
H1 H 0.70086 0.45554 0.19204 0.0
H2 H 0.74772 0.56915 0.34285 0.0
C3 C 0.78772 0.47158 0.35723 0.0
C4 C 0.78398 0.51358 0.38383 0.0
C5 C 0.75847 0.45015 0.28772 0.0
C6 C 0.72365 0.47171 0.24558 0.0
C7 C 0.71929 0.51461 0.26077 0.0
C8 C 0.74997 0.536 0.33104 0.0
H9 H 0.09517 0.82486 0.32743 0.0
H10 H 0.10015 0.70564 0.16014 0.0
H11 H 0.99047 0.74302 0.35401 0.0
C12 C 0.08138 0.79493 0.30978 0.0
C13 C 0.04228 0.78671 0.35932 0.0
C14 C 0.10178 0.76681 0.23368 0.0
C15 C 0.08338 0.72842 0.21183 0.0
C16 C 0.04275 0.71941 0.24869 0.0
C17 C 0.02173 0.74916 0.32346 0.0
H18 H 0.7207 0.07886 0.36616 0.0
H19 H 0.83787 0.08256 0.18377 0.0
H20 H 0.79539 0.96938 0.35393 0.0
C21 C 0.75004 0.06461 0.3438 0.0
C22 C 0.75534 0.0234 0.37847 0.0
C23 C 0.77954 0.0865 0.2754 0.0
C24 C 0.81527 0.06584 0.23743 0.0
C25 C 0.82183 0.02362 0.26219 0.0
C26 C 0.79127 1.00193 0.3337 0.0
H27 H 0.44788 0.71789 0.3588 0.0
H28 H 0.55759 0.79231 0.34408 0.0
H29 H 0.44447 0.83551 0.17743 0.0
C30 C 0.46223 0.74716 0.33576 0.0
C31 C 0.44057 0.77663 0.26643 0.0
C32 C 0.50346 0.75265 0.37021 0.0
C33 C 0.52499 0.78833 0.32479 0.0
C34 C 0.50341 0.81886 0.254 0.0
C35 C 0.46109 0.81275 0.23065 0.0
H36 H 0.21972 0.58524 0.20533 0.0
H37 H 0.33365 0.58347 0.40197 0.0
H38 H 0.30274 0.48135 0.16909 0.0
C39 C 0.2491 0.5704 0.22517 0.0
C40 C 0.25799 0.53242 0.171 0.0
C41 C 0.27598 0.58862 0.30831 0.0
C42 C 0.31311 0.56894 0.33768 0.0
C43 C 0.32371 0.53023 0.29061 0.0
C44 C 0.29556 0.5114 0.20628 0.0
H45 H 0.94031 0.22165 0.2097 0.0
H46 H 0.95067 0.33274 0.41379 0.0
H47 H 0.04876 0.29918 0.1674 0.0
C48 C 0.95716 0.24995 0.22838 0.0
C49 C 0.99555 0.25685 0.17203 0.0
C50 C 0.94181 0.27678 0.31632 0.0
C51 C 0.96324 0.31277 0.34449 0.0
C52 C 1.00153 0.3223 0.29231 0.0
C53 C 0.01862 0.29332 0.20672 0.0
H54 H 0.31281 0.94151 0.18747 0.0
H55 H 0.193 0.94219 0.35593 0.0
H56 H 0.23898 0.05225 0.17872 0.0
C57 C 0.28396 0.9571 0.20827 0.0
C58 C 0.27884 0.99765 0.16548 0.0
C59 C 0.25401 0.93713 0.2805 0.0
C60 C 0.21715 0.95808 0.30654 0.0
C61 C 0.21139 0.99998 0.27633 0.0
C62 C 0.24275 0.0201 0.20441 0.0
H63 H 0.59811 0.31085 0.18842 0.0
H64 H 0.48567 0.23863 0.16982 0.0
H65 H 0.58738 0.19964 0.39647 0.0
C66 C 0.58057 0.28323 0.21128 0.0
C67 C 0.59673 0.25549 0.29625 0.0
C68 C 0.54081 0.27812 0.163 0.0
C69 C 0.51691 0.24286 0.20267 0.0
C70 C 0.53446 0.21306 0.28517 0.0
C71 C 0.57429 0.22046 0.32957 0.0
C72 C 0.92198 0.05979 0.58178 0.0
Eu73 Eu 0.98354 0.02998 0.70615 0.0
C74 C 0.88988 0.09134 0.5951 0.0
C75 C 0.88737 0.11646 0.69711 0.0
C76 C 0.86631 0.15434 0.69013 0.0
C77 C 0.85082 0.16851 0.57826 0.0
C78 C 0.8463 0.13891 0.4863 0.0
C79 C 0.86594 0.10082 0.49512 0.0
C80 C 0.95731 0.99579 0.92101 0.0
C81 C 1.01824 0.10241 0.88642 0.0
C82 C 0.11122 0.98068 0.94791 0.0
Eu83 Eu 0.04922 1.01135 0.82645 0.0
C84 C 0.14118 0.94737 0.92718 0.0
C85 C 0.17911 0.94671 0.98795 0.0
C86 C 0.20133 0.90961 0.99749 0.0
C87 C 0.18424 0.87265 0.95258 0.0
C88 C 0.15076 0.8761 0.87137 0.0
C89 C 0.12966 0.91326 0.85855 0.0
C90 C 0.07537 0.04167 0.60592 0.0
C91 C 1.01419 0.93946 0.64469 0.0
O92 O 0.95996 0.07354 0.573 0.0
O93 O 0.9189 0.02722 0.65049 0.0
O94 O 0.94705 0.98311 0.81541 0.0
O95 O 0.98593 0.0227 0.90884 0.0
O96 O 0.9973 0.09539 0.78603 0.0
O97 O 0.03873 0.07086 0.93217 0.0
O98 O 0.07274 0.96896 0.96253 0.0
O99 O 0.11449 1.01302 0.87854 0.0
O100 O 0.08646 0.05601 0.70915 0.0
O101 O 0.04604 1.01616 0.62402 0.0
O102 O 0.03367 0.94592 0.74794 0.0
O103 O 0.99538 0.97166 0.59679 0.0
H104 H 0.90459 0.10867 0.77767 0.0
H105 H 0.86769 0.17475 0.76682 0.0
H106 H 0.83381 0.1466 0.39927 0.0
H107 H 0.86657 0.08094 0.41803 0.0
H108 H 0.18968 0.97373 0.03591 0.0
H109 H 0.22874 0.9088 0.05306 0.0
H110 H 0.13656 0.8495 0.83009 0.0
H111 H 0.10168 0.91383 0.80558 0.0
C112 C 0.46959 0.92518 0.55976 0.0
Eu113 Eu 0.50344 0.98211 0.69298 0.0
C114 C 0.4337 0.89762 0.57134 0.0
C115 C 0.43303 0.85944 0.51256 0.0
C116 C 0.39561 0.83795 0.50051 0.0
C117 C 0.3584 0.85529 0.54322 0.0
C118 C 0.36114 0.8901 0.61907 0.0
C119 C 0.39845 0.91087 0.633 0.0
C120 C 0.53466 0.95142 0.90688 0.0
C121 C 0.433 0.01884 0.87845 0.0
C122 C 0.55964 0.10064 0.96333 0.0
Eu123 Eu 0.52627 0.04466 0.826 0.0
C124 C 0.59665 0.12676 0.96167 0.0
C125 C 0.63352 0.11179 0.91229 0.0
C126 C 0.67083 0.13092 0.93922 0.0
C127 C 0.67185 0.16552 1.01611 0.0
C128 C 0.63406 0.18461 0.04634 0.0
C129 C 0.59657 0.16481 0.02136 0.0
C130 C 0.49603 0.07591 0.61152 0.0
C131 C 0.59687 1.00647 0.64289 0.0
O132 O 0.4614 0.96471 0.54927 0.0
O133 O 0.50015 0.91792 0.63285 0.0
O134 O 0.54689 0.94087 0.80079 0.0
O135 O 0.5094 0.98135 0.89572 0.0
O136 O 0.43887 1.00026 0.77364 0.0
O137 O 0.4658 0.03531 0.92916 0.0
O138 O 0.56609 0.06089 0.97554 0.0
O139 O 0.53147 0.10905 0.88346 0.0
O140 O 0.48307 0.08597 0.71747 0.0
O141 O 0.52086 0.04555 0.62313 0.0
O142 O 0.59085 0.02557 0.747 0.0
O143 O 0.56399 0.9907 0.59081 0.0
H144 H 0.4607 0.84771 0.46955 0.0
H145 H 0.39501 0.81019 0.44732 0.0
H146 H 0.33401 0.90485 0.65623 0.0
H147 H 0.39882 0.93933 0.68326 0.0
H148 H 0.63405 0.08314 0.86242 0.0
H149 H 0.69885 0.11527 0.91114 0.0
H150 H 0.63347 0.21264 0.09859 0.0
H151 H 0.56795 0.17765 0.05586 0.0
C152 C 0.61137 0.47097 0.55169 0.0
Eu153 Eu 0.55662 0.50415 0.69381 0.0
C154 C 0.64288 0.43869 0.54394 0.0
C155 C 0.65721 0.41697 0.6452 0.0
C156 C 0.67994 0.38036 0.63003 0.0
C157 C 0.68719 0.36474 0.51353 0.0
C158 C 0.678 0.39059 0.4143 0.0
C159 C 0.65539 0.42661 0.42959 0.0
C160 C 0.58887 0.53741 0.90078 0.0
C161 C 0.52121 0.43387 0.88295 0.0
C162 C 0.43617 0.55937 0.96226 0.0
Eu163 Eu 0.49359 0.5263 0.82774 0.0
C164 C 0.40897 0.59576 0.95702 0.0
C165 C 0.36927 0.59446 1.00866 0.0
C166 C 0.34787 0.63133 0.03151 0.0
C167 C 0.36648 0.66974 1.00461 0.0
C168 C 0.40316 0.66986 0.93511 0.0
C169 C 0.42417 0.63327 0.91204 0.0
C170 C 0.46323 0.49604 0.61267 0.0
C171 C 0.52926 0.59685 0.64157 0.0
O172 O 0.57281 0.4588 0.55751 0.0
O173 O 0.61915 0.50256 0.62001 0.0
O174 O 0.5992 0.54766 0.7925 0.0
O175 O 0.55833 0.51234 0.89624 0.0
O176 O 0.54123 0.43997 0.78012 0.0
O177 O 0.5028 0.46604 0.9311 0.0
O178 O 0.47576 0.56669 0.97456 0.0
O179 O 0.42882 0.53023 0.88516 0.0
O180 O 0.45287 0.4827 0.71839 0.0
O181 O 0.49322 0.52106 0.62536 0.0
O182 O 0.51083 0.59085 0.74696 0.0
O183 O 0.54566 0.56418 0.58985 0.0
H184 H 0.64819 0.42646 0.73478 0.0
H185 H 0.68738 0.36191 0.70872 0.0
H186 H 0.68267 0.38072 0.32256 0.0
H187 H 0.64451 0.44287 0.35044 0.0
H188 H 0.35625 0.56536 0.03955 0.0
H189 H 0.31864 0.62979 0.07919 0.0
H190 H 0.41867 0.69836 0.91013 0.0
H191 H 0.45413 0.63485 0.86846 0.0
C192 C 0.0649 0.61468 0.57784 0.0
Eu193 Eu 0.03351 0.55389 0.70362 0.0
C194 C 0.09754 0.6453 0.59833 0.0
C195 C 0.10085 0.68024 0.52428 0.0
C196 C 0.13874 0.701 0.51507 0.0
C197 C 0.17395 0.68521 0.5752 0.0
C198 C 0.16622 0.65817 0.67358 0.0
C199 C 0.12854 0.63746 0.68278 0.0
C200 C 1.00532 0.5817 0.92383 0.0
C201 C 0.10562 0.51454 0.87901 0.0
C202 C 0.97956 0.43016 0.96117 0.0
Eu203 Eu 1.01209 0.48925 0.82981 0.0
C204 C 0.94194 0.40476 0.95981 0.0
C205 C 0.94086 0.36647 1.01985 0.0
C206 C 0.90271 0.34853 0.05017 0.0
C207 C 0.86557 0.36935 0.02228 0.0
C208 C 0.86752 0.40375 0.94356 0.0
C209 C 0.90538 0.42122 0.91279 0.0
C210 C 0.04073 0.46114 0.61035 0.0
C211 C 0.94073 0.52921 0.65347 0.0
O212 O 0.07731 0.57623 0.56922 0.0
O213 O 0.03182 0.61837 0.6437 0.0
O214 O 0.99115 0.59322 0.82048 0.0
O215 O 0.02981 0.55144 0.90671 0.0
O216 O 0.09889 0.53536 0.77754 0.0
O217 O 0.07337 0.4964 0.92897 0.0
O218 O 0.97405 0.46961 0.98114 0.0
O219 O 1.00639 0.42352 0.87621 0.0
O220 O 0.0548 0.44978 0.7142 0.0
O221 O 1.01618 0.49149 0.62679 0.0
O222 O 0.94703 0.51009 0.75796 0.0
O223 O 0.97358 0.54467 0.59976 0.0
H224 H 0.07539 0.68938 0.46704 0.0
H225 H 0.14076 0.7264 0.45207 0.0
H226 H 0.19031 0.64824 0.73429 0.0
H227 H 0.12515 0.61279 0.74833 0.0
H228 H 0.96919 0.35233 0.052 0.0
H229 H 0.90251 0.32056 0.10409 0.0
H230 H 0.84002 0.42058 0.917 0.0
H231 H 0.90577 0.44987 0.86221 0.0
C232 C 0.17818 0.04946 0.42633 0.0
C233 C 0.17353 0.02042 0.33297 0.0
C234 C 0.14559 0.05814 0.50885 0.0
C235 C 0.10654 0.03809 0.50319 0.0
H236 H 0.20826 0.0633 0.4416 0.0
H237 H 0.15197 0.07912 0.58207 0.0
S238 S 0.07661 0.96213 0.26963 0.0
N239 N 0.12504 0.97397 0.23568 0.0
N240 N 0.06465 0.99018 0.38835 0.0
C241 C 0.10064 1.0111 0.40552 0.0
C242 C 0.13371 1.00236 0.3216 0.0
C243 C 0.53289 0.13601 0.32927 0.0
C244 C 0.51332 0.1752 0.33893 0.0
C245 C 0.52529 0.10323 0.41209 0.0
C246 C 0.49777 0.10779 0.50996 0.0
H247 H 0.55691 0.13171 0.26229 0.0
H248 H 0.5431 0.07497 0.40334 0.0
S249 S 0.43529 0.20235 0.57054 0.0
N250 N 0.46287 0.21502 0.45057 0.0
N251 N 0.44786 0.15403 0.6037 0.0
C252 C 0.47578 0.14575 0.5155 0.0
C253 C 0.48364 0.1791 0.43107 0.0
C254 C 0.36151 0.48117 0.43329 0.0
C255 C 0.3634 0.51173 0.34204 0.0
C256 C 0.39476 0.47451 0.5151 0.0
C257 C 0.43178 0.49813 0.51067 0.0
H258 H 0.33282 0.46447 0.44785 0.0
H259 H 0.39041 0.4521 0.58683 0.0
S260 S 0.45392 0.58062 0.28548 0.0
N261 N 0.40688 0.56463 0.25073 0.0
N262 N 0.46876 0.55166 0.40039 0.0
C263 C 0.43508 0.52692 0.41528 0.0
C264 C 0.40124 0.5338 0.33265 0.0
C265 C 0.05285 0.3596 0.42849 0.0
C266 C 0.02127 0.36178 0.34092 0.0
C267 C 0.06066 0.39275 0.50938 0.0
C268 C 0.03723 0.42996 0.50805 0.0
H269 H 0.06951 0.3308 0.44119 0.0
H270 H 0.0839 0.38812 0.57828 0.0
S271 S 0.952 0.4527 0.29377 0.0
N272 N 0.96746 0.40574 0.25678 0.0
N273 N 0.98243 0.46723 0.40492 0.0
C274 C 1.00729 0.43349 0.41641 0.0
C275 C 0.99931 0.39982 0.33451 0.0
C276 C 0.89901 0.0239 0.21285 0.0
C277 C 0.85958 1.00488 0.20034 0.0
C278 C 0.93126 0.01894 0.12728 0.0
C279 C 0.92614 0.99443 0.02405 0.0
H280 H 0.90426 0.04537 0.28519 0.0
H281 H 0.95963 0.03634 0.13901 0.0
S282 S 0.83144 0.93316 0.95474 0.0
N283 N 0.81933 0.9574 0.08032 0.0
N284 N 0.87951 0.94686 0.9224 0.0
C285 C 0.88819 0.9724 1.01558 0.0
C286 C 0.85525 0.97781 0.10256 0.0
C287 C 0.50389 0.8953 0.20063 0.0
C288 C 0.52275 0.85581 0.19057 0.0
C289 C 0.50981 0.92694 0.11338 0.0
C290 C 0.53497 0.92085 1.01117 0.0
H291 H 0.48174 0.90073 0.27218 0.0
H292 H 0.49256 0.95552 0.12273 0.0
S293 S 0.59573 0.82534 0.94893 0.0
N294 N 0.57064 0.81428 0.07468 0.0
N295 N 0.58266 0.87331 0.91322 0.0
C296 C 0.55668 0.88277 1.0053 0.0
C297 C 0.55046 0.85053 0.09409 0.0
C298 C 0.6944 0.54403 0.06317 0.0
C299 C 0.68547 0.53436 0.18442 0.0
C300 C 0.66295 0.54691 0.9746 0.0
C301 C 0.62068 0.53921 1.00125 0.0
H302 H 0.72641 0.5465 0.03449 0.0
H303 H 0.67238 0.55294 0.88264 0.0
S304 S 0.57921 0.51812 0.3059 0.0
N305 N 0.62978 0.52203 0.32728 0.0
N306 N 0.57148 0.52548 0.16077 0.0
C307 C 0.61097 0.53176 0.1227 0.0
C308 C 0.64296 0.52979 0.21363 0.0
C309 C 0.99313 0.68273 0.10651 0.0
C310 C 0.02431 0.68012 0.19506 0.0
C311 C 0.98553 0.6499 0.02471 0.0
C312 C 1.0087 0.61256 0.0265 0.0
H313 H 0.97658 0.71161 0.09406 0.0
H314 H 0.96264 0.65483 0.95502 0.0
S315 S 0.09173 0.58801 0.24625 0.0
N316 N 0.0767 0.63513 0.28302 0.0
N317 N 0.06221 0.57427 0.13221 0.0
C318 C 0.03804 0.60847 0.11948 0.0
C319 C 0.04582 0.64183 0.20244 0.0
C320 C 0.91605 0.25846 0.51951 0.0
C321 C 0.90797 0.26301 0.39621 0.0
C322 C 0.89016 0.2344 0.59227 0.0
C323 C 0.85609 0.2131 0.54241 0.0
H324 H 0.9448 0.26971 0.55739 0.0
H325 H 0.9012 0.22773 0.68202 0.0
S326 S 0.81051 0.23522 0.24301 0.0
N327 N 0.8567 0.25708 0.23816 0.0
N328 N 0.80539 0.21597 0.38025 0.0
C329 C 0.84228 0.22705 0.42876 0.0
C330 C 0.8696 0.24985 0.35252 0.0
C331 C 0.29306 0.86995 0.28402 0.0
C332 C 0.26457 0.89672 0.34016 0.0
C333 C 0.31998 0.84558 0.35304 0.0
C334 C 0.31845 0.84723 0.47963 0.0
H335 H 0.29855 0.87201 0.18804 0.0
H336 H 0.34609 0.83187 0.30703 0.0
S337 S 0.2315 0.88767 0.66037 0.0
N338 N 0.22444 0.90739 0.52471 0.0
N339 N 0.27233 0.85715 0.64945 0.0
C340 C 0.2814 0.86166 0.53065 0.0
C341 C 0.25532 0.88857 0.46245 0.0
C342 C 0.62989 0.27141 0.49157 0.0
C343 C 0.63354 0.26741 0.36625 0.0
C344 C 0.65767 0.2962 0.555 0.0
C345 C 0.68814 0.31915 0.49255 0.0
H346 H 0.60283 0.25966 0.53842 0.0
H347 H 0.64971 0.30339 0.64714 0.0
S348 S 0.72343 0.29964 0.18157 0.0
N349 N 0.67871 0.27517 0.19266 0.0
N350 N 0.73274 0.3188 0.31625 0.0
C351 C 0.69905 0.30489 0.3774 0.0
C352 C 0.67001 0.28129 0.31075 0.0
C353 C 0.26804 0.62866 0.49966 0.0
C354 C 0.26264 0.62604 0.37454 0.0
C355 C 0.24688 0.65859 0.56631 0.0
C356 C 0.21544 0.68281 0.51227 0.0
H357 H 0.28645 0.606 0.54784 0.0
H358 H 0.25108 0.65812 0.66269 0.0
S359 S 0.21183 0.7048 0.18317 0.0
N360 N 0.24128 0.66337 0.19558 0.0
N361 N 0.19842 0.7172 0.3217 0.0
C362 C 0.21822 0.68731 0.38571 0.0
C363 C 0.24149 0.65834 0.31697 0.0
C364 C 0.16649 0.80947 0.21917 0.0
C365 C 0.13966 0.78046 0.16646 0.0
C366 C 0.19083 0.83558 0.14758 0.0
C367 C 0.18945 0.83297 0.0211 0.0
H368 H 0.16528 0.81536 0.3149 0.0
H369 H 0.20482 0.86175 0.19152 0.0
S370 S 0.14599 0.74613 0.84748 0.0
N371 N 0.1264 0.74054 0.98377 0.0
N372 N 0.17782 0.78597 0.8552 0.0
C373 C 0.17364 0.79613 0.97307 0.0
C374 C 0.1463 0.77117 0.04363 0.0
C375 C 0.77668 0.13745 0.10445 0.0
C376 C 0.76869 0.1283 0.22644 0.0
C377 C 0.74846 0.16104 0.03749 0.0
C378 C 0.71008 0.17226 0.08844 0.0
H379 H 0.80104 0.12186 0.05549 0.0
H380 H 0.753 0.16306 0.94105 0.0
S381 S 0.68829 0.17598 0.41697 0.0
N382 N 0.73323 0.15205 0.40605 0.0
N383 N 0.67444 0.18683 0.27753 0.0
C384 C 0.7075 0.17233 0.21514 0.0
C385 C 0.73859 0.15233 0.28466 0.0
C386 C 0.39132 0.77415 0.0922 0.0
C387 C 0.39929 0.76578 0.21462 0.0
C388 C 0.36806 0.74633 0.02373 0.0
C389 C 0.3563 0.70788 0.07376 0.0
H390 H 0.40769 0.79837 0.04425 0.0
H391 H 0.36739 0.75086 0.92711 0.0
S392 S 0.34822 0.68602 0.40135 0.0
N393 N 0.3735 0.73019 0.39236 0.0
N394 N 0.33786 0.67285 0.26139 0.0
C395 C 0.35416 0.70548 0.20027 0.0
C396 C 0.37431 0.73591 0.27119 0.0
C397 C 0.76161 0.40047 0.11526 0.0
C398 C 0.76975 0.40871 0.23742 0.0
C399 C 0.78928 0.37684 0.04711 0.0
C400 C 0.82738 0.36415 0.09672 0.0
H401 H 0.73736 0.41652 0.0669 0.0
H402 H 0.7844 0.37538 0.95085 0.0
S403 S 0.8493 0.35702 0.42445 0.0
N404 N 0.80532 0.38286 0.41534 0.0
N405 N 0.86268 0.3468 0.28442 0.0
C406 C 0.83025 0.36336 0.22327 0.0
C407 C 0.79992 0.384 0.29411 0.0
C408 C 0.9865 0.21452 0.9798 0.0
C409 C 1.0096 0.22275 0.0855 0.0
C410 C 0.99044 0.17686 0.91423 0.0
C411 C 1.01713 0.14442 0.95147 0.0
H412 H 0.96357 0.23684 0.95019 0.0
H413 H 0.97103 0.1726 0.83596 0.0
S414 S 0.08441 0.14917 0.22328 0.0
N415 N 0.06027 0.19428 0.22329 0.0
N416 N 0.06777 0.12444 0.10313 0.0
C417 C 0.04102 0.15263 0.05591 0.0
C418 C 0.03721 0.19118 0.12174 0.0
C419 C 0.35174 0.02648 0.13655 0.0
C420 C 0.31379 1.01386 0.08517 0.0
C421 C 0.38904 0.02938 0.06844 0.0
C422 C 0.39114 0.01897 0.9448 0.0
H423 H 0.35315 0.0321 0.23237 0.0
H424 H 0.41702 0.03823 0.11524 0.0
S425 S 0.30021 0.98562 0.76433 0.0
N426 N 0.28088 0.99182 0.90071 0.0
N427 N 0.34987 0.9977 0.77334 0.0
C428 C 0.35303 1.00758 0.89137 0.0
C429 C 0.31499 1.00482 0.96097 0.0
C430 C 0.54714 0.31976 0.96857 0.0
C431 C 0.5264 0.31282 0.07935 0.0
C432 C 0.54418 0.35786 0.90408 0.0
C433 C 0.52091 0.39177 0.94755 0.0
H434 H 0.56766 0.29607 0.93412 0.0
H435 H 0.56174 0.3612 0.8215 0.0
S436 S 0.46062 0.3904 0.23388 0.0
N437 N 0.48152 0.34375 0.22857 0.0
N438 N 0.47575 0.41455 0.11 0.0
C439 C 0.49916 0.38481 0.05697 0.0
C440 C 0.50198 0.34585 0.12186 0.0
C441 C 0.1885 0.49835 0.12859 0.0
C442 C 0.22495 0.51718 0.08366 0.0
C443 C 0.15129 0.49635 0.06045 0.0
C444 C 0.14772 0.51372 0.94339 0.0
H445 H 0.18795 0.48715 0.22059 0.0
H446 H 0.12439 0.48249 0.10286 0.0
S447 S 0.23439 0.56556 0.78081 0.0
N448 N 0.25491 0.55281 0.91191 0.0
N449 N 0.18601 0.54883 0.78437 0.0
C450 C 0.18441 0.53145 0.89573 0.0
C451 C 0.22239 0.53332 0.96534 0.0
C452 C 0.04246 0.8259 0.55799 0.0
C453 C 0.02524 0.82038 0.44197 0.0
C454 C 0.0376 0.86327 0.62426 0.0
C455 C 1.01588 0.89793 0.57776 0.0
H456 H 0.06176 0.80168 0.59578 0.0
H457 H 0.05235 0.86536 0.71131 0.0
S458 S 0.96515 0.90053 0.27677 0.0
N459 N 0.98564 0.85371 0.2841 0.0
N460 N 0.97624 0.92293 0.40585 0.0
C461 C 0.99771 0.89239 0.46267 0.0
C462 C 1.00254 0.85425 0.39582 0.0
C463 C 0.71437 0.0222 0.57393 0.0
C464 C 0.72013 1.00631 0.45638 0.0
C465 C 0.67547 0.02092 0.63472 0.0
C466 C 0.63951 1.00413 0.58128 0.0
H467 H 0.73974 0.03836 0.61665 0.0
H468 H 0.67334 0.03479 0.72285 0.0
S469 S 0.63706 0.95767 0.27518 0.0
N470 N 0.68568 0.97267 0.29045 0.0
N471 N 0.61358 0.96958 0.40248 0.0
C472 C 0.64522 0.98671 0.46534 0.0
C473 C 0.68492 0.98802 0.40386 0.0
C474 C 0.50579 0.71216 0.56631 0.0
C475 C 0.52124 0.71809 0.44813 0.0
C476 C 0.50983 0.67395 0.62937 0.0
C477 C 0.52903 0.63897 0.57743 0.0
H478 H 0.48818 0.73675 0.60816 0.0
H479 H 0.49628 0.67148 0.71817 0.0
S480 S 0.57539 0.63771 0.27019 0.0
N481 N 0.55704 0.68522 0.28287 0.0
N482 N 0.56522 0.61429 0.39938 0.0
C483 C 0.54591 0.645 0.46061 0.0
C484 C 0.54182 0.68402 0.39679 0.0
C485 C 0.85692 0.54254 0.40505 0.0
C486 C 0.81923 0.53063 0.46022 0.0
C487 C 0.89509 0.54341 0.46896 0.0
C488 C 0.89828 0.53154 0.59171 0.0
H489 H 0.85745 0.54866 0.30919 0.0
H490 H 0.92283 0.55165 0.41937 0.0
S491 S 0.80863 0.4995 0.78119 0.0
N492 N 0.78788 0.50793 0.64759 0.0
N493 N 0.85852 0.50996 0.76685 0.0
C494 C 0.86053 0.52111 0.64912 0.0
C495 C 0.82163 0.52049 0.58401 0.0
loop_
_geom_bond_atom_site_label_1
_geom_bond_atom_site_label_2
_geom_bond_distance
_geom_bond_site_symmetry_2
_ccdc_geom_bond_type
H0 C3 0.931 . S
H1 C6 0.928 . S
H2 C8 0.930 . S
C3 H0 0.931 . S
C3 C4 1.413 . S
C3 C5 1.360 . S
C4 C3 1.413 . S
C4 C8 1.429 . S
C5 C3 1.360 . S
C5 C6 1.372 . S
C6 H1 0.928 . S
C6 C5 1.372 . S
C6 C7 1.404 . S
C7 C6 1.404 . S
C7 C8 1.391 . S
C8 H2 0.930 . S
C8 C4 1.429 . S
C8 C7 1.391 . S
H9 C12 0.931 . S
H10 C15 0.928 . S
H11 C17 0.930 . S
C12 H9 0.931 . S
C12 C13 1.413 . S
C12 C14 1.360 . S
C13 C12 1.413 . S
C13 C17 1.429 1_655 S
C14 C12 1.360 . S
C14 C15 1.372 . S
C15 H10 0.928 . S
C15 C14 1.372 . S
C15 C16 1.404 . S
C16 C15 1.404 . S
C16 C17 1.390 1_655 S
C17 H11 0.930 . S
C17 C13 1.429 1_455 S
C17 C16 1.390 1_455 S
H18 C21 0.931 . S
H19 C24 0.928 . S
H20 C26 0.930 . S
C21 H18 0.931 . S
C21 C22 1.413 . S
C21 C23 1.360 . S
C22 C21 1.413 . S
C22 C26 1.429 1_565 S
C23 C21 1.360 . S
C23 C24 1.372 . S
C24 H19 0.928 . S
C24 C23 1.372 . S
C24 C25 1.404 . S
C25 C24 1.404 . S
C25 C26 1.390 1_565 S
C26 H20 0.930 . S
C26 C22 1.429 1_545 S
C26 C25 1.390 1_545 S
H27 C30 0.931 . S
H28 C33 0.928 . S
H29 C35 0.930 . S
C30 H27 0.931 . S
C30 C31 1.413 . S
C30 C32 1.360 . S
C31 C30 1.413 . S
C31 C35 1.429 . S
C32 C30 1.360 . S
C32 C33 1.372 . S
C33 H28 0.928 . S
C33 C32 1.372 . S
C33 C34 1.404 . S
C34 C33 1.404 . S
C34 C35 1.391 . S
C35 H29 0.930 . S
C35 C31 1.429 . S
C35 C34 1.391 . S
H36 C39 0.931 1_556 S
H37 C42 0.928 . S
H38 C44 0.930 . S
C39 H36 0.931 1_554 S
C39 C40 1.413 1_554 S
C39 C41 1.360 . S
C40 C39 1.413 1_556 S
C40 C44 1.429 . S
C41 C39 1.360 . S
C41 C42 1.372 . S
C42 H37 0.928 . S
C42 C41 1.372 . S
C42 C43 1.404 . S
C43 C42 1.404 . S
C43 C44 1.391 1_554 S
C44 H38 0.930 . S
C44 C40 1.429 . S
C44 C43 1.391 1_556 S
H45 C48 0.931 1_556 S
H46 C51 0.928 . S
H47 C53 0.930 . S
C48 H45 0.931 1_554 S
C48 C49 1.413 1_554 S
C48 C50 1.360 . S
C49 C48 1.413 1_556 S
C49 C53 1.429 1_655 S
C50 C48 1.360 . S
C50 C51 1.372 . S
C51 H46 0.928 . S
C51 C50 1.372 . S
C51 C52 1.404 . S
C52 C51 1.404 . S
C52 C53 1.391 1_654 S
C53 H47 0.930 . S
C53 C49 1.429 1_455 S
C53 C52 1.391 1_456 S
H54 C57 0.931 1_556 S
H55 C60 0.928 . S
H56 C62 0.930 . S
C57 H54 0.931 1_554 S
C57 C58 1.413 1_554 S
C57 C59 1.360 . S
C58 C57 1.413 1_556 S
C58 C62 1.429 1_565 S
C59 C57 1.360 . S
C59 C60 1.372 . S
C60 H55 0.928 . S
C60 C59 1.372 . S
C60 C61 1.404 . S
C61 C60 1.404 . S
C61 C62 1.391 1_564 S
C62 H56 0.930 . S
C62 C58 1.429 1_545 S
C62 C61 1.391 1_546 S
H63 C66 0.931 . S
H64 C69 0.928 . S
H65 C71 0.930 . S
C66 H63 0.931 . S
C66 C67 1.411 1_556 S
C66 C68 1.362 . S
C67 C66 1.411 1_554 S
C67 C71 1.429 . S
C68 C66 1.362 . S
C68 C69 1.372 . S
C69 H64 0.928 . S
C69 C68 1.372 . S
C69 C70 1.404 1_556 S
C70 C69 1.404 1_554 S
C70 C71 1.391 . S
C71 H65 0.930 . S
C71 C67 1.429 . S
C71 C70 1.391 . S
C72 Eu73 2.835 . S
C72 C74 1.500 . S
C72 O92 1.257 . S
C72 O93 1.260 . S
Eu73 C72 2.835 . S
Eu73 O92 2.473 . S
Eu73 O93 2.480 . S
Eu73 O94 2.430 . S
Eu73 O95 2.670 1_545 S
Eu73 O96 2.394 . S
Eu73 O101 2.355 1_655 S
Eu73 O103 2.374 1_545 S
C74 C72 1.500 . S
C74 C75 1.377 . S
C74 C79 1.377 . S
C75 C74 1.377 . S
C75 C76 1.395 . S
C75 H104 0.931 . S
C76 C75 1.395 . S
C76 C77 1.383 . S
C76 H105 0.931 . S
C77 C76 1.383 . S
C77 C78 1.394 . S
C78 C77 1.394 . S
C78 C79 1.378 . S
C78 H106 0.931 . S
C79 C74 1.377 . S
C79 C78 1.378 . S
C79 H107 0.931 1_655 S
C80 O94 1.259 . S
C80 O95 1.270 1_545 S
C81 O96 1.251 1_455 S
C81 O97 1.251 . S
C82 Eu83 2.835 . S
C82 C84 1.500 1_556 S
C82 O98 1.257 . S
C82 O99 1.260 . S
Eu83 C82 2.835 . S
Eu83 O95 2.355 1_455 S
Eu83 O97 2.374 1_565 S
Eu83 O98 2.473 . S
Eu83 O99 2.480 . S
Eu83 O100 2.430 . S
Eu83 O101 2.670 1_565 S
Eu83 O102 2.394 . S
C84 C82 1.500 1_554 S
C84 C85 1.377 . S
C84 C89 1.377 . S
C85 C84 1.377 . S
C85 C86 1.395 . S
C85 H108 0.931 1_554 S
C86 C85 1.395 . S
C86 C87 1.383 . S
C86 H109 0.931 . S
C87 C86 1.383 . S
C87 C88 1.394 . S
C88 C87 1.394 . S
C88 C89 1.378 . S
C88 H110 0.931 . S
C89 C84 1.377 . S
C89 C88 1.378 . S
C89 H111 0.905 1_455 S
C90 O100 1.259 . S
C90 O101 1.270 1_565 S
C91 O102 1.251 1_655 S
C91 O103 1.251 . S
O92 C72 1.257 . S
O92 Eu73 2.473 . S
O93 C72 1.260 . S
O93 Eu73 2.480 . S
O94 Eu73 2.430 . S
O94 C80 1.259 . S
O95 Eu73 2.670 1_565 S
O95 C80 1.270 1_565 S
O95 Eu83 2.355 1_655 S
O96 Eu73 2.394 . S
O96 C81 1.251 1_655 S
O97 C81 1.251 . S
O97 Eu83 2.374 1_545 S
O98 C82 1.257 . S
O98 Eu83 2.473 . S
O99 C82 1.260 . S
O99 Eu83 2.480 . S
O100 Eu83 2.430 . S
O100 C90 1.259 . S
O101 Eu73 2.355 1_455 S
O101 Eu83 2.670 1_545 S
O101 C90 1.270 1_545 S
O102 Eu83 2.394 . S
O102 C91 1.251 1_455 S
O103 Eu73 2.374 1_565 S
O103 C91 1.251 . S
H104 C75 0.931 . S
H105 C76 0.931 . S
H106 C78 0.931 . S
H107 C79 0.931 1_455 S
H108 C85 0.931 1_556 S
H109 C86 0.931 . S
H110 C88 0.931 . S
H111 C89 0.905 1_655 S
C112 Eu113 2.835 . S
C112 C114 1.500 . S
C112 O132 1.257 . S
C112 O133 1.260 . S
Eu113 C112 2.835 . S
Eu113 O132 2.473 . S
Eu113 O133 2.480 . S
Eu113 O134 2.430 . S
Eu113 O135 2.670 . S
Eu113 O136 2.394 . S
Eu113 O141 2.355 1_565 S
Eu113 O143 2.374 . S
C114 C112 1.500 . S
C114 C115 1.377 . S
C114 C119 1.377 . S
C115 C114 1.377 . S
C115 C116 1.395 . S
C115 H144 0.931 . S
C116 C115 1.395 . S
C116 C117 1.383 . S
C116 H145 0.931 . S
C117 C116 1.383 . S
C117 C118 1.394 . S
C118 C117 1.394 . S
C118 C119 1.378 . S
C118 H146 0.931 . S
C119 C114 1.377 . S
C119 C118 1.378 . S
C119 H147 0.931 1_565 S
C120 O134 1.259 . S
C120 O135 1.270 . S
C121 O136 1.251 1_545 S
C121 O137 1.251 . S
C122 Eu123 2.835 . S
C122 C124 1.500 1_556 S
C122 O138 1.257 . S
C122 O139 1.260 . S
Eu123 C122 2.835 . S
Eu123 O135 2.355 1_545 S
Eu123 O137 2.374 . S
Eu123 O138 2.473 . S
Eu123 O139 2.480 . S
Eu123 O140 2.430 . S
Eu123 O141 2.670 . S
Eu123 O142 2.394 . S
C124 C122 1.500 1_554 S
C124 C125 1.377 . S
C124 C129 1.377 . S
C125 C124 1.377 . S
C125 C126 1.395 . S
C125 H148 0.931 1_554 S
C126 C125 1.395 . S
C126 C127 1.383 . S
C126 H149 0.931 . S
C127 C126 1.383 . S
C127 C128 1.394 . S
C128 C127 1.394 . S
C128 C129 1.378 . S
C128 H150 0.931 . S
C129 C124 1.377 . S
C129 C128 1.378 . S
C129 H151 0.931 1_545 S
C130 O140 1.259 . S
C130 O141 1.270 . S
C131 O142 1.251 1_565 S
C131 O143 1.251 . S
O132 C112 1.257 . S
O132 Eu113 2.473 . S
O133 C112 1.260 . S
O133 Eu113 2.480 . S
O134 Eu113 2.430 . S
O134 C120 1.259 . S
O135 Eu113 2.670 . S
O135 C120 1.270 . S
O135 Eu123 2.355 1_565 S
O136 Eu113 2.394 . S
O136 C121 1.251 1_565 S
O137 C121 1.251 . S
O137 Eu123 2.374 . S
O138 C122 1.257 . S
O138 Eu123 2.473 . S
O139 C122 1.260 . S
O139 Eu123 2.480 . S
O140 Eu123 2.430 . S
O140 C130 1.259 . S
O141 Eu113 2.355 1_545 S
O141 Eu123 2.670 . S
O141 C130 1.270 . S
O142 Eu123 2.394 . S
O142 C131 1.251 1_545 S
O143 Eu113 2.374 . S
O143 C131 1.251 . S
H144 C115 0.931 . S
H145 C116 0.931 . S
H146 C118 0.931 . S
H147 C119 0.931 1_545 S
H148 C125 0.931 1_556 S
H149 C126 0.931 . S
H150 C128 0.931 . S
H151 C129 0.931 1_565 S
C152 Eu153 2.835 . S
C152 C154 1.500 . S
C152 O172 1.257 . S
C152 O173 1.260 . S
Eu153 C152 2.835 . S
Eu153 O172 2.473 . S
Eu153 O173 2.480 . S
Eu153 O174 2.430 . S
Eu153 O175 2.670 . S
Eu153 O176 2.394 . S
Eu153 O181 2.355 . S
Eu153 O183 2.374 . S
C154 C152 1.500 . S
C154 C155 1.377 . S
C154 C159 1.377 . S
C155 C154 1.377 . S
C155 C156 1.395 . S
C155 H184 0.931 . S
C156 C155 1.395 . S
C156 C157 1.383 . S
C156 H185 0.931 . S
C157 C156 1.383 . S
C157 C158 1.394 . S
C158 C157 1.394 . S
C158 C159 1.378 . S
C158 H186 0.931 . S
C159 C154 1.377 . S
C159 C158 1.378 . S
C159 H187 0.931 . S
C160 O174 1.259 . S
C160 O175 1.270 . S
C161 O176 1.251 . S
C161 O177 1.251 . S
C162 Eu163 2.835 . S
C162 C164 1.500 1_556 S
C162 O178 1.257 . S
C162 O179 1.260 . S
Eu163 C162 2.835 . S
Eu163 O175 2.355 . S
Eu163 O177 2.374 . S
Eu163 O178 2.473 . S
Eu163 O179 2.480 . S
Eu163 O180 2.430 . S
Eu163 O181 2.670 . S
Eu163 O182 2.394 . S
C164 C162 1.500 1_554 S
C164 C165 1.377 . S
C164 C169 1.377 . S
C165 C164 1.377 . S
C165 C166 1.395 . S
C165 H188 0.931 1_554 S
C166 C165 1.395 . S
C166 C167 1.383 . S
C166 H189 0.931 . S
C167 C166 1.383 . S
C167 C168 1.394 . S
C168 C167 1.394 . S
C168 C169 1.378 . S
C168 H190 0.931 . S
C169 C164 1.377 . S
C169 C168 1.378 . S
C169 H191 0.931 . S
C170 O180 1.259 . S
C170 O181 1.270 . S
C171 O182 1.251 . S
C171 O183 1.251 . S
O172 C152 1.257 . S
O172 Eu153 2.473 . S
O173 C152 1.260 . S
O173 Eu153 2.480 . S
O174 Eu153 2.430 . S
O174 C160 1.259 . S
O175 Eu153 2.670 . S
O175 C160 1.270 . S
O175 Eu163 2.355 . S
O176 Eu153 2.394 . S
O176 C161 1.251 . S
O177 C161 1.251 . S
O177 Eu163 2.374 . S
O178 C162 1.257 . S
O178 Eu163 2.473 . S
O179 C162 1.260 . S
O179 Eu163 2.480 . S
O180 Eu163 2.430 . S
O180 C170 1.259 . S
O181 Eu153 2.355 . S
O181 Eu163 2.670 . S
O181 C170 1.270 . S
O182 Eu163 2.394 . S
O182 C171 1.251 . S
O183 Eu153 2.374 . S
O183 C171 1.251 . S
H184 C155 0.931 . S
H185 C156 0.931 . S
H186 C158 0.931 . S
H187 C159 0.931 . S
H188 C165 0.931 1_556 S
H189 C166 0.931 . S
H190 C168 0.931 . S
H191 C169 0.931 . S
C192 Eu193 2.835 . S
C192 C194 1.500 . S
C192 O212 1.257 . S
C192 O213 1.260 . S
Eu193 C192 2.835 . S
Eu193 O212 2.473 . S
Eu193 O213 2.480 . S
Eu193 O214 2.430 . S
Eu193 O215 2.670 1_455 S
Eu193 O216 2.394 . S
Eu193 O221 2.355 . S
Eu193 O223 2.374 1_455 S
C194 C192 1.500 . S
C194 C195 1.377 . S
C194 C199 1.377 . S
C195 C194 1.377 . S
C195 C196 1.395 . S
C195 H224 0.931 . S
C196 C195 1.395 . S
C196 C197 1.383 . S
C196 H225 0.931 . S
C197 C196 1.383 . S
C197 C198 1.394 . S
C198 C197 1.394 . S
C198 C199 1.378 . S
C198 H226 0.931 . S
C199 C194 1.377 . S
C199 C198 1.378 . S
C199 H227 0.931 . S
C200 O214 1.257 1_655 S
C200 O215 1.271 . S
C201 O216 1.251 . S
C201 O217 1.251 . S
C202 Eu203 2.835 . S
C202 C204 1.500 1_556 S
C202 O218 1.257 . S
C202 O219 1.260 . S
Eu203 C202 2.835 . S
Eu203 O215 2.355 . S
Eu203 O217 2.374 1_655 S
Eu203 O218 2.473 . S
Eu203 O219 2.480 . S
Eu203 O220 2.430 . S
Eu203 O221 2.670 1_655 S
Eu203 O222 2.394 . S
C204 C202 1.500 1_554 S
C204 C205 1.377 . S
C204 C209 1.377 . S
C205 C204 1.377 . S
C205 C206 1.395 . S
C205 H228 0.931 1_554 S
C206 C205 1.395 . S
C206 C207 1.383 . S
C206 H229 0.931 . S
C207 C206 1.383 . S
C207 C208 1.394 . S
C208 C207 1.394 . S
C208 C209 1.378 . S
C208 H230 0.931 . S
C209 C204 1.377 . S
C209 C208 1.378 . S
C209 H231 0.931 . S
C210 O220 1.255 1_455 S
C210 O221 1.273 . S
C211 O222 1.251 . S
C211 O223 1.251 . S
O212 C192 1.257 . S
O212 Eu193 2.473 . S
O213 C192 1.260 . S
O213 Eu193 2.480 . S
O214 Eu193 2.430 . S
O214 C200 1.257 1_455 S
O215 Eu193 2.670 1_655 S
O215 C200 1.271 . S
O215 Eu203 2.355 . S
O216 Eu193 2.394 . S
O216 C201 1.251 . S
O217 C201 1.251 . S
O217 Eu203 2.374 1_455 S
O218 C202 1.257 . S
O218 Eu203 2.473 . S
O219 C202 1.260 . S
O219 Eu203 2.480 . S
O220 Eu203 2.430 . S
O220 C210 1.255 1_655 S
O221 Eu193 2.355 . S
O221 Eu203 2.670 1_455 S
O221 C210 1.273 . S
O222 Eu203 2.394 . S
O222 C211 1.251 . S
O223 Eu193 2.374 1_655 S
O223 C211 1.251 . S
H224 C195 0.931 . S
H225 C196 0.931 . S
H226 C198 0.931 . S
H227 C199 0.931 . S
H228 C205 0.931 1_556 S
H229 C206 0.931 . S
H230 C208 0.931 . S
H231 C209 0.931 . S
C232 C233 1.352 1_545 S
C232 C234 1.419 . S
C232 H236 0.930 . S
C233 C232 1.352 1_565 S
C233 C242 1.446 . S
C234 C232 1.419 . S
C234 C235 1.363 1_545 S
C234 H237 0.929 . S
C235 C234 1.363 1_565 S
C235 C241 1.428 . S
H236 C232 0.930 . S
H237 C234 0.929 . S
S238 N239 1.613 . S
S238 N240 1.610 . S
N239 S238 1.613 . S
N239 C242 1.350 . S
N240 S238 1.610 . S
N240 C241 1.351 . S
C241 C235 1.428 . S
C241 N240 1.351 . S
C241 C242 1.434 . S
C242 C233 1.446 . S
C242 N239 1.350 . S
C242 C241 1.434 . S
C243 C244 1.369 . S
C243 C245 1.419 . S
C243 H247 0.930 . S
C244 C243 1.369 . S
C244 C253 1.429 . S
C245 C243 1.419 . S
C245 C246 1.363 . S
C245 H248 0.929 . S
C246 C245 1.363 . S
C246 C252 1.428 . S
H247 C243 0.930 . S
H248 C245 0.929 . S
S249 N250 1.613 . S
S249 N251 1.610 . S
N250 S249 1.613 . S
N250 C253 1.350 . S
N251 S249 1.610 . S
N251 C252 1.351 . S
C252 C246 1.428 . S
C252 N251 1.351 . S
C252 C253 1.434 . S
C253 C244 1.429 . S
C253 N250 1.350 . S
C253 C252 1.434 . S
C254 C255 1.369 . S
C254 C256 1.419 . S
C254 H258 0.930 . S
C255 C254 1.369 . S
C255 C264 1.429 . S
C256 C254 1.419 . S
C256 C257 1.363 . S
C256 H259 0.929 . S
C257 C256 1.363 . S
C257 C263 1.428 . S
H258 C254 0.930 . S
H259 C256 0.929 . S
S260 N261 1.613 . S
S260 N262 1.610 . S
N261 S260 1.613 . S
N261 C264 1.350 . S
N262 S260 1.610 . S
N262 C263 1.351 . S
C263 C257 1.428 . S
C263 N262 1.351 . S
C263 C264 1.434 . S
C264 C255 1.429 . S
C264 N261 1.350 . S
C264 C263 1.434 . S
C265 C266 1.370 . S
C265 C267 1.419 . S
C265 H269 0.930 . S
C266 C265 1.370 . S
C266 C275 1.428 1_455 S
C267 C265 1.419 . S
C267 C268 1.363 . S
C267 H270 0.929 . S
C268 C267 1.363 . S
C268 C274 1.428 1_455 S
H269 C265 0.930 . S
H270 C267 0.929 . S
S271 N272 1.613 . S
S271 N273 1.610 . S
N272 S271 1.613 . S
N272 C275 1.350 . S
N273 S271 1.610 . S
N273 C274 1.351 . S
C274 C268 1.428 1_655 S
C274 N273 1.351 . S
C274 C275 1.434 . S
C275 C266 1.428 1_655 S
C275 N272 1.350 . S
C275 C274 1.434 . S
C276 C277 1.370 1_545 S
C276 C278 1.419 . S
C276 H280 0.930 . S
C277 C276 1.370 1_565 S
C277 C286 1.428 . S
C278 C276 1.419 . S
C278 C279 1.379 . S
C278 H281 0.929 . S
C279 C278 1.379 . S
C279 C285 1.412 1_545 S
H280 C276 0.930 . S
H281 C278 0.929 . S
S282 N283 1.613 . S
S282 N284 1.610 . S
N283 S282 1.613 . S
N283 C286 1.350 . S
N284 S282 1.610 . S
N284 C285 1.351 . S
C285 C279 1.412 1_565 S
C285 N284 1.351 . S
C285 C286 1.434 . S
C286 C277 1.428 . S
C286 N283 1.350 . S
C286 C285 1.434 . S
C287 C288 1.369 . S
C287 C289 1.419 . S
C287 H291 0.930 . S
C288 C287 1.369 . S
C288 C297 1.429 . S
C289 C287 1.419 . S
C289 C290 1.363 . S
C289 H292 0.929 . S
C290 C289 1.363 . S
C290 C296 1.428 . S
H291 C287 0.930 . S
H292 C289 0.929 . S
S293 N294 1.613 . S
S293 N295 1.610 . S
N294 S293 1.613 . S
N294 C297 1.350 . S
N295 S293 1.610 . S
N295 C296 1.351 . S
C296 C290 1.428 . S
C296 N295 1.351 . S
C296 C297 1.434 . S
C297 C288 1.429 . S
C297 N294 1.350 . S
C297 C296 1.434 . S
C298 C299 1.369 . S
C298 C300 1.419 . S
C298 H302 0.930 . S
C299 C298 1.369 . S
C299 C308 1.429 . S
C300 C298 1.419 . S
C300 C301 1.363 . S
C300 H303 0.929 . S
C301 C300 1.363 . S
C301 C307 1.428 . S
H302 C298 0.930 . S
H303 C300 0.929 . S
S304 N305 1.613 . S
S304 N306 1.610 . S
N305 S304 1.613 . S
N305 C308 1.350 . S
N306 S304 1.610 . S
N306 C307 1.351 . S
C307 C301 1.428 . S
C307 N306 1.351 . S
C307 C308 1.434 . S
C308 C299 1.429 . S
C308 N305 1.350 . S
C308 C307 1.434 . S
C309 C310 1.371 . S
C309 C311 1.419 . S
C309 H313 0.930 . S
C310 C309 1.371 . S
C310 C319 1.426 1_655 S
C311 C309 1.419 . S
C311 C312 1.363 . S
C311 H314 0.929 . S
C312 C311 1.363 . S
C312 C318 1.428 1_655 S
H313 C309 0.930 . S
H314 C311 0.929 . S
S315 N316 1.613 . S
S315 N317 1.610 . S
N316 S315 1.613 . S
N316 C319 1.350 . S
N317 S315 1.610 . S
N317 C318 1.351 . S
C318 C312 1.428 1_455 S
C318 N317 1.351 . S
C318 C319 1.434 . S
C319 C310 1.426 1_455 S
C319 N316 1.350 . S
C319 C318 1.434 . S
C320 C321 1.369 . S
C320 C322 1.419 . S
C320 H324 0.930 1_655 S
C321 C320 1.369 . S
C321 C330 1.429 . S
C322 C320 1.419 . S
C322 C323 1.363 . S
C322 H325 0.929 . S
C323 C322 1.363 . S
C323 C329 1.428 . S
H324 C320 0.930 1_455 S
H325 C322 0.929 . S
S326 N327 1.614 . S
S326 N328 1.610 1_556 S
N327 S326 1.614 . S
N327 C330 1.348 1_556 S
N328 S326 1.610 1_554 S
N328 C329 1.351 . S
C329 C323 1.428 . S
C329 N328 1.351 . S
C329 C330 1.434 . S
C330 C321 1.429 . S
C330 N327 1.348 1_554 S
C330 C329 1.434 . S
C331 C332 1.369 . S
C331 C333 1.419 . S
C331 H335 0.930 1_565 S
C332 C331 1.369 . S
C332 C341 1.429 . S
C333 C331 1.419 . S
C333 C334 1.363 . S
C333 H336 0.929 . S
C334 C333 1.363 . S
C334 C340 1.428 . S
H335 C331 0.930 1_545 S
H336 C333 0.929 . S
S337 N338 1.613 . S
S337 N339 1.610 . S
N338 S337 1.613 . S
N338 C341 1.350 . S
N339 S337 1.610 . S
N339 C340 1.351 . S
C340 C334 1.428 . S
C340 N339 1.351 . S
C340 C341 1.434 . S
C341 C332 1.429 . S
C341 N338 1.350 . S
C341 C340 1.434 . S
C342 C343 1.369 . S
C342 C344 1.419 . S
C342 H346 0.930 . S
C343 C342 1.369 . S
C343 C352 1.429 . S
C344 C342 1.419 . S
C344 C345 1.363 . S
C344 H347 0.929 . S
C345 C344 1.363 . S
C345 C351 1.428 . S
H346 C342 0.930 . S
H347 C344 0.929 . S
S348 N349 1.613 . S
S348 N350 1.610 . S
N349 S348 1.613 . S
N349 C352 1.350 . S
N350 S348 1.610 . S
N350 C351 1.351 . S
C351 C345 1.428 . S
C351 N350 1.351 . S
C351 C352 1.434 . S
C352 C343 1.429 . S
C352 N349 1.350 . S
C352 C351 1.434 . S
C353 C354 1.369 . S
C353 C355 1.419 . S
C353 H357 0.930 . S
C354 C353 1.369 . S
C354 C363 1.429 . S
C355 C353 1.419 . S
C355 C356 1.363 . S
C355 H358 0.929 . S
C356 C355 1.363 . S
C356 C362 1.428 . S
H357 C353 0.930 . S
H358 C355 0.929 . S
S359 N360 1.613 . S
S359 N361 1.610 . S
N360 S359 1.613 . S
N360 C363 1.350 . S
N361 S359 1.610 . S
N361 C362 1.351 . S
C362 C356 1.428 . S
C362 N361 1.351 . S
C362 C363 1.434 . S
C363 C354 1.429 . S
C363 N360 1.350 . S
C363 C362 1.434 . S
C364 C365 1.369 . S
C364 C366 1.419 . S
C364 H368 0.930 1_455 S
C365 C364 1.369 . S
C365 C374 1.429 . S
C366 C364 1.419 . S
C366 C367 1.363 . S
C366 H369 0.929 . S
C367 C366 1.363 . S
C367 C373 1.428 . S
H368 C364 0.930 1_655 S
H369 C366 0.929 . S
S370 N371 1.613 . S
S370 N372 1.610 . S
N371 S370 1.613 . S
N371 C374 1.350 . S
N372 S370 1.610 . S
N372 C373 1.351 . S
C373 C367 1.428 . S
C373 N372 1.351 . S
C373 C374 1.434 . S
C374 C365 1.429 . S
C374 N371 1.350 . S
C374 C373 1.434 . S
C375 C376 1.369 1_565 S
C375 C377 1.419 1_565 S
C375 H379 0.930 . S
C376 C375 1.369 1_545 S
C376 C385 1.429 . S
C377 C375 1.419 1_545 S
C377 C378 1.363 . S
C377 H380 0.929 . S
C378 C377 1.363 . S
C378 C384 1.428 . S
H379 C375 0.930 . S
H380 C377 0.929 . S
S381 N382 1.613 . S
S381 N383 1.610 . S
N382 S381 1.613 . S
N382 C385 1.350 . S
N383 S381 1.610 . S
N383 C384 1.351 . S
C384 C378 1.428 . S
C384 N383 1.351 . S
C384 C385 1.434 . S
C385 C376 1.429 . S
C385 N382 1.350 . S
C385 C384 1.434 . S
C386 C387 1.369 . S
C386 C388 1.419 . S
C386 H390 0.930 . S
C387 C386 1.369 . S
C387 C396 1.429 . S
C388 C386 1.419 . S
C388 C389 1.363 . S
C388 H391 0.929 . S
C389 C388 1.363 . S
C389 C395 1.428 . S
H390 C386 0.930 . S
H391 C388 0.929 . S
S392 N393 1.613 . S
S392 N394 1.610 . S
N393 S392 1.613 . S
N393 C396 1.350 . S
N394 S392 1.610 . S
N394 C395 1.351 . S
C395 C389 1.428 . S
C395 N394 1.351 . S
C395 C396 1.434 . S
C396 C387 1.429 . S
C396 N393 1.350 . S
C396 C395 1.434 . S
C397 C398 1.369 . S
C397 C399 1.419 . S
C397 H401 0.930 . S
C398 C397 1.369 . S
C398 C407 1.429 . S
C399 C397 1.419 . S
C399 C400 1.363 . S
C399 H402 0.929 . S
C400 C399 1.363 . S
C400 C406 1.428 . S
H401 C397 0.930 . S
H402 C399 0.929 . S
S403 N404 1.613 . S
S403 N405 1.610 . S
N404 S403 1.613 . S
N404 C407 1.350 . S
N405 S403 1.610 . S
N405 C406 1.351 . S
C406 C400 1.428 . S
C406 N405 1.351 . S
C406 C407 1.434 . S
C407 C398 1.429 . S
C407 N404 1.350 . S
C407 C406 1.434 . S
C408 C409 1.369 . S
C408 C410 1.419 . S
C408 H412 0.930 1_556 S
C409 C408 1.369 . S
C409 C418 1.429 . S
C410 C408 1.419 . S
C410 C411 1.363 . S
C410 H413 0.929 1_556 S
C411 C410 1.363 . S
C411 C417 1.428 . S
H412 C408 0.930 1_554 S
H413 C410 0.929 1_554 S
S414 N415 1.613 . S
S414 N416 1.610 . S
N415 S414 1.613 . S
N415 C418 1.350 . S
N416 S414 1.610 . S
N416 C417 1.351 . S
C417 C411 1.428 . S
C417 N416 1.351 . S
C417 C418 1.434 . S
C418 C409 1.429 . S
C418 N415 1.350 . S
C418 C417 1.434 . S
C419 C420 1.369 . S
C419 C421 1.419 . S
C419 H423 0.930 . S
C420 C419 1.369 . S
C420 C429 1.429 1_545 S
C421 C419 1.419 . S
C421 C422 1.363 . S
C421 H424 0.929 . S
C422 C421 1.363 . S
C422 C428 1.428 1_545 S
H423 C419 0.930 . S
H424 C421 0.929 . S
S425 N426 1.613 . S
S425 N427 1.610 1_554 S
N426 S425 1.613 . S
N426 C429 1.350 1_554 S
N427 S425 1.610 1_556 S
N427 C428 1.351 . S
C428 C422 1.428 1_565 S
C428 N427 1.351 . S
C428 C429 1.434 . S
C429 C420 1.429 1_565 S
C429 N426 1.350 1_556 S
C429 C428 1.434 . S
C430 C431 1.369 . S
C430 C432 1.419 . S
C430 H434 0.930 . S
C431 C430 1.369 . S
C431 C440 1.429 . S
C432 C430 1.419 . S
C432 C433 1.363 . S
C432 H435 0.929 . S
C433 C432 1.363 . S
C433 C439 1.428 . S
H434 C430 0.930 . S
H435 C432 0.929 . S
S436 N437 1.613 . S
S436 N438 1.610 . S
N437 S436 1.613 . S
N437 C440 1.350 . S
N438 S436 1.610 . S
N438 C439 1.351 . S
C439 C433 1.428 . S
C439 N438 1.351 . S
C439 C440 1.434 . S
C440 C431 1.429 . S
C440 N437 1.350 . S
C440 C439 1.434 . S
C441 C442 1.369 . S
C441 C443 1.419 . S
C441 H445 0.930 . S
C442 C441 1.369 . S
C442 C451 1.429 . S
C443 C441 1.419 . S
C443 C444 1.363 . S
C443 H446 0.929 . S
C444 C443 1.363 . S
C444 C450 1.428 . S
H445 C441 0.930 . S
H446 C443 0.929 . S
S447 N448 1.613 . S
S447 N449 1.610 . S
N448 S447 1.613 . S
N448 C451 1.350 . S
N449 S447 1.610 . S
N449 C450 1.351 . S
C450 C444 1.428 . S
C450 N449 1.351 . S
C450 C451 1.434 . S
C451 C442 1.429 . S
C451 N448 1.350 . S
C451 C450 1.434 . S
C452 C453 1.369 . S
C452 C454 1.419 . S
C452 H456 0.930 . S
C453 C452 1.369 . S
C453 C462 1.429 . S
C454 C452 1.419 . S
C454 C455 1.363 . S
C454 H457 0.929 . S
C455 C454 1.363 . S
C455 C461 1.428 . S
H456 C452 0.930 . S
H457 C454 0.929 . S
S458 N459 1.613 . S
S458 N460 1.610 . S
N459 S458 1.613 . S
N459 C462 1.350 . S
N460 S458 1.610 . S
N460 C461 1.351 . S
C461 C455 1.428 . S
C461 N460 1.351 . S
C461 C462 1.434 . S
C462 C453 1.429 . S
C462 N459 1.350 . S
C462 C461 1.434 . S
C463 C464 1.369 1_545 S
C463 C465 1.419 . S
C463 H467 0.930 . S
C464 C463 1.369 1_565 S
C464 C473 1.429 . S
C465 C463 1.419 . S
C465 C466 1.363 1_545 S
C465 H468 0.929 . S
C466 C465 1.363 1_565 S
C466 C472 1.428 . S
H467 C463 0.930 . S
H468 C465 0.929 . S
S469 N470 1.613 . S
S469 N471 1.610 . S
N470 S469 1.613 . S
N470 C473 1.350 . S
N471 S469 1.610 . S
N471 C472 1.351 . S
C472 C466 1.428 . S
C472 N471 1.351 . S
C472 C473 1.434 . S
C473 C464 1.429 . S
C473 N470 1.350 . S
C473 C472 1.434 . S
C474 C475 1.369 . S
C474 C476 1.419 . S
C474 H478 0.930 . S
C475 C474 1.369 . S
C475 C484 1.429 . S
C476 C474 1.419 . S
C476 C477 1.363 . S
C476 H479 0.929 . S
C477 C476 1.363 . S
C477 C483 1.428 . S
H478 C474 0.930 . S
H479 C476 0.929 . S
S480 N481 1.613 . S
S480 N482 1.610 . S
N481 S480 1.613 . S
N481 C484 1.350 . S
N482 S480 1.610 . S
N482 C483 1.351 . S
C483 C477 1.428 . S
C483 N482 1.351 . S
C483 C484 1.434 . S
C484 C475 1.429 . S
C484 N481 1.350 . S
C484 C483 1.434 . S
C485 C486 1.369 . S
C485 C487 1.419 . S
C485 H489 0.930 . S
C486 C485 1.369 . S
C486 C495 1.429 . S
C487 C485 1.419 . S
C487 C488 1.363 . S
C487 H490 0.929 . S
C488 C487 1.363 . S
C488 C494 1.428 . S
H489 C485 0.930 . S
H490 C487 0.929 . S
S491 N492 1.613 . S
S491 N493 1.610 . S
N492 S491 1.613 . S
N492 C495 1.350 . S
N493 S491 1.610 . S
N493 C494 1.351 . S
C494 C488 1.428 . S
C494 N493 1.351 . S
C494 C495 1.434 . S
C495 C486 1.429 . S
C495 N492 1.350 . S
C495 C494 1.434 . S
C233 C61 2.002 . S
C235 C90 2.280 . S
C246 C130 2.307 . S
C244 C70 2.040 . S
C257 C170 2.317 . S
C255 C43 2.049 . S
C268 C210 2.296 . S
C266 C52 2.022 1_455 S
C279 C80 2.281 1_554 S
C277 C25 2.005 . S
C288 C34 2.048 . S
C290 C120 2.309 1_554 S
C299 C7 2.048 . S
C301 C160 2.318 1_554 S
C310 C16 2.019 . S
C312 C200 2.297 1_554 S
C323 C77 0.850 . S
C321 C50 0.853 . S
C334 C117 0.828 . S
C332 C59 0.841 . S
C345 C157 0.818 . S
C343 C67 0.814 . S
C354 C41 0.829 . S
C356 C197 0.827 . S
C365 C14 0.857 1_455 S
C367 C87 0.854 . S
C378 C127 0.833 . S
C376 C23 0.834 1_545 S
C389 C167 0.800 . S
C387 C31 0.829 . S
C398 C5 0.842 . S
C400 C207 0.822 . S
C409 C49 2.294 1_455 S
C411 C81 2.588 . S
C420 C58 2.228 1_545 S
C422 C121 2.529 . S
C433 C161 2.515 . S
C431 C68 2.219 . S
C444 C201 2.569 . S
C442 C40 2.265 . S
C453 C13 2.283 . S
C455 C91 2.594 . S
C466 C131 2.532 . S
C464 C22 2.233 . S
C477 C171 2.513 . S
C475 C32 2.217 . S
C486 C4 2.272 . S
C488 C211 2.572 . S
