# Generated by pormake.
# Topology zzz, (3,6)-cn, num edge types: 1
# Building blocks:
#     Node 0, Type 0, BuildingBlock: CUQRIR_clean_linker_1, # of connection points: 3
#     Node 1, Type 0, BuildingBlock: CUQRIR_clean_linker_1, # of connection points: 3
#     Node 2, Type 0, BuildingBlock: CUQRIR_clean_linker_1, # of connection points: 3
#     Node 3, Type 0, BuildingBlock: CUQRIR_clean_linker_1, # of connection points: 3
#     Node 4, Type 0, BuildingBlock: CUQRIR_clean_linker_1, # of connection points: 3
#     Node 5, Type 0, BuildingBlock: CUQRIR_clean_linker_1, # of connection points: 3
#     Node 6, Type 0, BuildingBlock: CUQRIR_clean_linker_1, # of connection points: 3
#     Node 7, Type 0, BuildingBlock: CUQRIR_clean_linker_1, # of connection points: 3
#     Node 8, Type 1, BuildingBlock: BETDAH_clean_sbu_0, # of connection points: 6
#     Node 9, Type 1, BuildingBlock: BETDAH_clean_sbu_0, # of connection points: 6
#     Node 10, Type 1, BuildingBlock: BETDAH_clean_sbu_0, # of connection points: 6
#     Node 11, Type 1, BuildingBlock: BETDAH_clean_sbu_0, # of connection points: 6
#     Edge 12, Type (0, 1), BuildingBlock: UVAHIK_clean_linker_0, # of connection points: 2
#     Edge 13, Type (0, 1), BuildingBlock: UVAHIK_clean_linker_0, # of connection points: 2
#     Edge 14, Type (0, 1), BuildingBlock: UVAHIK_clean_linker_0, # of connection points: 2
#     Edge 15, Type (0, 1), BuildingBlock: UVAHIK_clean_linker_0, # of connection points: 2
#     Edge 16, Type (0, 1), BuildingBlock: UVAHIK_clean_linker_0, # of connection points: 2
#     Edge 17, Type (0, 1), BuildingBlock: UVAHIK_clean_linker_0, # of connection points: 2
#     Edge 18, Type (0, 1), BuildingBlock: UVAHIK_clean_linker_0, # of connection points: 2
#     Edge 19, Type (0, 1), BuildingBlock: UVAHIK_clean_linker_0, # of connection points: 2
#     Edge 20, Type (0, 1), BuildingBlock: UVAHIK_clean_linker_0, # of connection points: 2
#     Edge 21, Type (0, 1), BuildingBlock: UVAHIK_clean_linker_0, # of connection points: 2
#     Edge 22, Type (0, 1), BuildingBlock: UVAHIK_clean_linker_0, # of connection points: 2
#     Edge 23, Type (0, 1), BuildingBlock: UVAHIK_clean_linker_0, # of connection points: 2
#     Edge 24, Type (0, 1), BuildingBlock: UVAHIK_clean_linker_0, # of connection points: 2
#     Edge 25, Type (0, 1), BuildingBlock: UVAHIK_clean_linker_0, # of connection points: 2
#     Edge 26, Type (0, 1), BuildingBlock: UVAHIK_clean_linker_0, # of connection points: 2
#     Edge 27, Type (0, 1), BuildingBlock: UVAHIK_clean_linker_0, # of connection points: 2
#     Edge 28, Type (0, 1), BuildingBlock: UVAHIK_clean_linker_0, # of connection points: 2
#     Edge 29, Type (0, 1), BuildingBlock: UVAHIK_clean_linker_0, # of connection points: 2
#     Edge 30, Type (0, 1), BuildingBlock: UVAHIK_clean_linker_0, # of connection points: 2
#     Edge 31, Type (0, 1), BuildingBlock: UVAHIK_clean_linker_0, # of connection points: 2
#     Edge 32, Type (0, 1), BuildingBlock: UVAHIK_clean_linker_0, # of connection points: 2
#     Edge 33, Type (0, 1), BuildingBlock: UVAHIK_clean_linker_0, # of connection points: 2
#     Edge 34, Type (0, 1), BuildingBlock: UVAHIK_clean_linker_0, # of connection points: 2
#     Edge 35, Type (0, 1), BuildingBlock: UVAHIK_clean_linker_0, # of connection points: 2
# Relax obj value: 0.246
# Max RMSD: 0.178
# Mean RMSD: 0.160
data_MOF--net-zzz--node1-BETDAH_clean_sbu_0--node2-CUQRIR_clean_linker_1--edge1-UVAHIK_clean_linker_0
_symmetry_space_group_name_H-M    P1
_symmetry_Int_Tables_number       1
_symmetry_cell_setting            triclinic
loop_
_symmetry_equiv_pos_as_xyz
'x, y, z'
_cell_length_a     63.642494
_cell_length_b     63.656485
_cell_length_c     15.506189
_cell_angle_alpha  89.954912
_cell_angle_beta   89.917799
_cell_angle_gamma 89.918059
loop_
_atom_site_label
_atom_site_type_symbol
_atom_site_fract_x
_atom_site_fract_y
_atom_site_fract_z
_atom_type_partial_charge
C0 C 0.74813 0.52613 0.40206 0.0
N1 N 0.7672 0.51679 0.40928 0.0
N2 N 0.73518 0.51463 0.3504 0.0
C3 C 0.7424 0.54655 0.44423 0.0
C4 C 0.74736 0.4981 0.32602 0.0
N5 N 0.76662 0.49938 0.3623 0.0
C6 C 0.7408 0.48133 0.26308 0.0
H7 H 0.75085 0.54829 0.50638 0.0
H8 H 0.7252 0.54756 0.45542 0.0
H9 H 0.74722 0.55968 0.40147 0.0
H10 H 0.73171 0.48835 0.20925 0.0
H11 H 0.7306 0.46983 0.29672 0.0
H12 H 0.75439 0.47258 0.23653 0.0
C13 C 0.04132 0.7364 0.39343 0.0
N14 N 0.05163 0.75472 0.40728 0.0
N15 N 0.05333 0.72305 0.3459 0.0
C16 C 0.01942 0.7318 0.42373 0.0
C17 C 0.07104 0.73417 0.32982 0.0
N18 N 0.07008 0.7533 0.36749 0.0
C19 C 0.08821 0.72712 0.26962 0.0
H20 H 1.0161 0.74011 0.48517 0.0
H21 H 1.01712 0.71464 0.43228 0.0
H22 H 1.00813 0.73748 0.37447 0.0
H23 H 0.08139 0.72367 0.20534 0.0
H24 H 0.09529 0.71237 0.29427 0.0
H25 H 0.10075 0.73909 0.26285 0.0
C26 C 0.79141 0.01902 0.38165 0.0
N27 N 0.77196 0.02767 0.38643 0.0
N28 N 0.8031 0.0287 0.31953 0.0
C29 C 0.799 1.00152 0.43852 0.0
C30 C 0.78979 0.04334 0.28643 0.0
N31 N 0.77109 0.04277 0.32755 0.0
C32 C 0.79421 0.05667 0.20827 0.0
H33 H 0.79107 1.00214 0.50226 0.0
H34 H 0.81628 1.00236 0.44728 0.0
H35 H 0.79506 0.98628 0.40787 0.0
H36 H 0.80465 0.04827 0.16241 0.0
H37 H 0.80218 0.0713 0.22905 0.0
H38 H 0.77949 0.06111 0.17463 0.0
C39 C 0.49471 0.79638 0.38976 0.0
N40 N 0.48567 0.77731 0.4026 0.0
N41 N 0.48331 0.80798 0.33268 0.0
C42 C 0.51451 0.80361 0.43267 0.0
C43 C 0.46734 0.79502 0.31023 0.0
N44 N 0.46866 0.77658 0.3532 0.0
C45 C 0.4514 0.7998 0.24129 0.0
H46 H 0.5162 0.79622 0.49715 0.0
H47 H 0.51466 0.82097 0.43902 0.0
H48 H 0.52814 0.7988 0.39252 0.0
H49 H 0.45894 0.8082 0.1867 0.0
H50 H 0.43909 0.8102 0.26865 0.0
H51 H 0.44369 0.78536 0.217 0.0
C52 C 0.30238 0.53873 0.02608 0.0
N53 N 0.28359 0.54834 0.01329 0.0
N54 N 0.31457 0.55018 0.0804 0.0
C55 C 0.30868 0.51809 0.9872 0.0
C56 C 0.30229 0.56682 0.10141 0.0
N57 N 0.28359 0.56579 0.06031 0.0
C58 C 0.30788 0.58287 0.16867 0.0
H59 H 0.32601 0.51712 0.98008 0.0
H60 H 0.30104 0.51589 0.92357 0.0
H61 H 0.30349 0.50524 0.03061 0.0
H62 H 0.32218 0.59147 0.1481 0.0
H63 H 0.3116 0.57478 0.23024 0.0
H64 H 0.29502 0.59436 0.17937 0.0
C65 C 0.02093 0.28915 0.04098 0.0
N66 N 1.011 0.27027 0.04505 0.0
N67 N 1.01271 0.30277 0.09995 0.0
C68 C 0.038 0.29449 0.97794 0.0
C69 C 0.99771 0.2913 0.14055 0.0
N70 N 0.99657 0.27184 0.10663 0.0
C71 C 0.98556 0.29837 0.21881 0.0
H72 H 0.03793 0.31154 0.96312 0.0
H73 H 0.03613 0.28534 0.91753 0.0
H74 H 0.05341 0.29037 0.00679 0.0
H75 H 0.97115 0.30668 0.19741 0.0
H76 H 0.99504 0.30929 0.25862 0.0
H77 H 0.98071 0.28484 0.25929 0.0
C78 C 0.23994 0.99341 0.03616 0.0
N79 N 0.25878 0.98405 0.02172 0.0
N80 N 0.2282 0.98184 0.09201 0.0
C81 C 0.23313 1.01379 0.99638 0.0
C82 C 0.24085 0.96539 0.11213 0.0
N83 N 0.25926 0.96663 0.06889 0.0
C84 C 0.23591 0.94915 0.17982 0.0
H85 H 0.21576 1.01451 0.9909 0.0
H86 H 0.2404 1.01582 0.93179 0.0
H87 H 0.23842 0.02692 0.03806 0.0
H88 H 0.22475 0.93756 0.15257 0.0
H89 H 0.22827 0.95666 0.23634 0.0
H90 H 0.25016 0.94059 0.20127 0.0
C91 C 0.51063 0.24245 0.02005 0.0
N92 N 0.51798 0.26245 0.02654 0.0
N93 N 0.51773 0.23043 0.0869 0.0
C94 C 0.49736 0.2345 0.94733 0.0
C95 C 0.52932 0.24398 0.13452 0.0
N96 N 0.52953 0.26318 0.09779 0.0
C97 C 0.53906 0.23894 0.22056 0.0
H98 H 0.50021 0.2175 0.93638 0.0
H99 H 0.50059 0.24343 0.88729 0.0
H100 H 0.48056 0.2367 0.96438 0.0
H101 H 0.55525 0.23297 0.21006 0.0
H102 H 0.52989 0.22671 0.25498 0.0
H103 H 0.54 0.25316 0.26171 0.0
Ho104 Ho 0.03186 1.00626 0.82822 0.0
Ho105 Ho 1.01077 1.01541 0.64641 0.0
C106 C 0.02364 0.96833 0.69407 0.0
C107 C 0.03808 0.99778 0.98867 0.0
C108 C 0.05163 0.98329 0.03662 0.0
C109 C 0.06363 0.96821 0.99285 0.0
C110 C 0.07578 0.95382 0.03904 0.0
C111 C 0.07612 0.9543 0.12979 0.0
C112 C 0.06462 0.96997 0.17312 0.0
C113 C 0.05246 0.98436 0.12675 0.0
C114 C 0.06119 1.00609 0.69853 0.0
C115 C 0.02227 0.05483 0.77288 0.0
C116 C 0.99981 0.02703 0.49336 0.0
C117 C 0.98616 0.0436 0.45924 0.0
C118 C 0.98099 0.06101 0.5103 0.0
C119 C 0.96888 0.07727 0.47629 0.0
C120 C 0.96155 0.07634 0.39076 0.0
C121 C 0.96601 0.05837 0.34113 0.0
C122 C 0.97828 0.04213 0.37519 0.0
C123 C 0.98418 1.00693 0.77966 0.0
O124 O 0.02345 0.97393 0.77673 0.0
O125 O 0.02282 0.98245 0.63124 0.0
O126 O 0.0479 1.01285 0.94754 0.0
O127 O 0.02316 0.98901 0.94267 0.0
O128 O 0.06563 1.00248 0.77884 0.0
O129 O 0.04184 1.00952 0.69535 0.0
O130 O 1.01602 0.04856 0.6953 0.0
O131 O 0.02768 0.04143 0.83465 0.0
O132 O 0.99022 1.01219 0.53636 0.0
O133 O 1.01705 0.03341 0.5312 0.0
O134 O 0.98056 1.00215 0.69988 0.0
O135 O 1.00095 1.01737 0.78329 0.0
H136 H 0.0632 0.96727 0.92308 0.0
H137 H 0.08417 0.94176 0.00373 0.0
H138 H 0.06473 0.97085 0.24288 0.0
H139 H 0.04341 0.99609 0.16131 0.0
H140 H 0.98677 0.06228 0.57576 0.0
H141 H 0.9661 0.091 0.51596 0.0
H142 H 0.9604 0.05706 0.27544 0.0
H143 H 0.98192 0.02861 0.33543 0.0
Ho144 Ho 0.51597 0.02739 0.76895 0.0
Ho145 Ho 0.50935 1.00272 0.5944 0.0
C146 C 0.55706 1.01457 0.65427 0.0
C147 C 0.52531 0.0411 0.92095 0.0
C148 C 0.54194 0.0539 0.95988 0.0
C149 C 0.56249 0.05333 0.92738 0.0
C150 C 0.5784 0.06462 0.968 0.0
C151 C 0.57406 0.07688 0.04152 0.0
C152 C 0.55323 0.07806 0.07174 0.0
C153 C 0.53731 0.06662 0.03123 0.0
C154 C 0.50716 0.0511 0.62773 0.0
C155 C 0.46977 1.01234 0.71875 0.0
C156 C 0.50329 0.9936 0.43424 0.0
C157 C 0.48975 0.97918 0.3861 0.0
C158 C 0.47409 0.96773 0.42871 0.0
C159 C 0.46036 0.95506 0.38181 0.0
C160 C 0.46209 0.95361 0.29145 0.0
C161 C 0.47845 0.96442 0.24956 0.0
C162 C 0.49218 0.97713 0.29667 0.0
C163 C 0.50816 0.97564 0.73186 0.0
O164 O 0.54971 0.0236 0.72538 0.0
O165 O 0.54461 1.00619 0.59508 0.0
O166 O 0.51265 0.05098 0.86845 0.0
O167 O 0.53091 0.02256 0.8922 0.0
O168 O 0.50107 0.05548 0.70547 0.0
O169 O 0.51872 0.03496 0.62953 0.0
O170 O 0.47615 1.0108 0.63727 0.0
O171 O 0.48321 1.01502 0.78294 0.0
O172 O 0.51776 0.98465 0.48179 0.0
O173 O 0.49367 1.00911 0.47381 0.0
O174 O 0.50536 0.96995 0.65237 0.0
O175 O 0.5113 0.99511 0.73078 0.0
H176 H 0.56636 0.04372 0.87199 0.0
H177 H 0.59428 0.06297 0.94375 0.0
H178 H 0.5493 0.08752 0.12753 0.0
H179 H 0.52145 0.0674 0.05655 0.0
H180 H 0.4721 0.96909 0.49792 0.0
H181 H 0.44774 0.94724 0.41597 0.0
H182 H 0.48029 0.96348 0.18019 0.0
H183 H 0.50437 0.98574 0.26304 0.0
Ho184 Ho 0.50282 0.52698 0.83816 0.0
Ho185 Ho 0.52845 0.52139 0.68083 0.0
C186 C 0.51362 0.56766 0.72612 0.0
C187 C 0.48632 0.52882 0.99056 0.0
C188 C 0.47176 0.54286 0.0359 0.0
C189 C 0.46205 0.55945 0.99191 0.0
C190 C 0.44989 0.57405 0.03699 0.0
C191 C 0.44734 0.57235 0.12695 0.0
C192 C 0.45633 0.55509 0.17006 0.0
C193 C 0.46846 0.54045 0.12473 0.0
C194 C 0.48005 0.52968 0.69095 0.0
C195 C 0.51495 0.47932 0.78234 0.0
C196 C 0.54784 0.51414 0.53736 0.0
C197 C 0.55163 0.49731 0.47518 0.0
C198 C 0.53656 0.48176 0.45929 0.0
C199 C 0.54145 0.46491 0.4053 0.0
C200 C 0.56151 0.46331 0.36766 0.0
C201 C 0.57634 0.47919 0.38215 0.0
C202 C 0.57137 0.49613 0.43532 0.0
C203 C 0.55058 0.53388 0.82257 0.0
O204 O 0.51152 0.56082 0.80655 0.0
O205 O 0.51682 0.55428 0.66256 0.0
O206 O 0.47829 0.51793 0.92719 0.0
O207 O 0.50459 0.537 0.97101 0.0
O208 O 0.47682 0.54096 0.75908 0.0
O209 O 0.49467 0.51664 0.70499 0.0
O210 O 0.523 0.487 0.71022 0.0
O211 O 0.50733 0.49184 0.84275 0.0
O212 O 0.55624 0.51122 0.61322 0.0
O213 O 0.52885 0.52205 0.54134 0.0
O214 O 0.55284 0.54149 0.74593 0.0
O215 O 0.53638 0.52012 0.8206 0.0
H216 H 0.46451 0.56155 0.92328 0.0
H217 H 0.44353 0.58733 0.00197 0.0
H218 H 0.45457 0.5533 0.23916 0.0
H219 H 0.47582 0.52763 0.15949 0.0
H220 H 0.5213 0.48235 0.49031 0.0
H221 H 0.52986 0.45267 0.39591 0.0
H222 H 0.59186 0.47829 0.35358 0.0
H223 H 0.58317 0.50804 0.4473 0.0
Ho224 Ho 0.02598 0.50911 0.75291 0.0
Ho225 Ho 0.03288 0.53405 0.59204 0.0
C226 C 0.98482 0.52283 0.64611 0.0
C227 C 1.01824 0.49256 0.90187 0.0
C228 C 1.00212 0.49187 0.96901 0.0
C229 C 0.98436 0.50486 0.96532 0.0
C230 C 0.96842 0.50268 0.02671 0.0
C231 C 0.97003 0.48739 0.09207 0.0
C232 C 0.9882 0.4749 0.09684 0.0
C233 C 1.00414 0.47716 0.0357 0.0
C234 C 0.03803 0.48591 0.61349 0.0
C235 C 0.07291 0.52178 0.70403 0.0
C236 C 0.03533 0.55021 0.43924 0.0
C237 C 0.0498 0.56429 0.39372 0.0
C238 C 0.06659 0.5736 0.43766 0.0
C239 C 0.08148 0.58537 0.39254 0.0
C240 C 0.07987 0.58797 0.30259 0.0
C241 C 0.06246 0.57934 0.25949 0.0
C242 C 0.04753 0.56759 0.30485 0.0
C243 C 0.03551 0.55691 0.73917 0.0
O244 O 0.99193 0.51504 0.71968 0.0
O245 O 0.99775 0.52995 0.58608 0.0
O246 O 1.01331 0.48366 0.82867 0.0
O247 O 0.02815 0.5104 0.89185 0.0
O248 O 0.04461 0.48294 0.69136 0.0
O249 O 0.02509 0.50089 0.61353 0.0
O250 O 0.06621 0.52398 0.62361 0.0
O251 O 0.05944 0.51936 0.76802 0.0
O252 O 0.02457 0.55866 0.50226 0.0
O253 O 0.04301 0.53174 0.45934 0.0
O254 O 0.04726 0.55975 0.67197 0.0
O255 O 0.02219 0.54272 0.72389 0.0
H256 H 0.98261 0.51626 0.91386 0.0
H257 H 0.95446 0.51232 0.02084 0.0
H258 H 0.9899 0.46313 0.14686 0.0
H259 H 1.01783 0.46706 0.0393 0.0
H260 H 0.06859 0.57113 0.50632 0.0
H261 H 0.09486 0.59146 0.42755 0.0
H262 H 0.06074 0.58114 0.1904 0.0
H263 H 0.03457 0.56054 0.27013 0.0
C264 C 0.19204 0.9714 0.13013 0.0
C265 C 0.20803 0.98658 0.13024 0.0
C266 C 0.1738 0.97425 0.17927 0.0
C267 C 0.1418 1.01314 0.3007 0.0
H268 H 0.12803 0.96533 0.44526 0.0
C269 C 0.07063 1.01063 0.54151 0.0
C270 C 0.07608 1.0042 0.62529 0.0
C271 C 0.08513 1.00879 0.47345 0.0
C272 C 0.13161 0.97879 0.40507 0.0
H273 H 0.2171 1.01707 0.17856 0.0
H274 H 0.18499 0.02237 0.26375 0.0
H275 H 0.15578 0.96219 0.33732 0.0
H276 H 0.1008 0.99057 0.70332 0.0
H277 H 0.12582 0.98694 0.58482 0.0
H278 H 0.11768 0.02977 0.36994 0.0
C279 C 0.18653 1.00823 0.22547 0.0
C280 C 0.14741 0.97696 0.3427 0.0
C281 C 0.20488 1.00527 0.1766 0.0
C282 C 0.09615 0.99569 0.6395 0.0
C283 C 0.11045 0.99352 0.57153 0.0
C284 C 0.12573 1.01488 0.36244 0.0
C285 C 0.17104 0.99246 0.22939 0.0
C286 C 0.15297 0.99419 0.2906 0.0
C287 C 0.10517 1.00008 0.48775 0.0
C288 C 0.12074 0.99783 0.41644 0.0
H289 H 0.19404 0.95697 0.09407 0.0
H290 H 0.16204 0.96196 0.17961 0.0
H291 H 0.14559 0.02666 0.26124 0.0
H292 H 0.05527 1.01719 0.5287 0.0
H293 H 0.08059 1.01389 0.40947 0.0
C294 C 0.49419 0.2004 0.11955 0.0
C295 C 0.51445 0.20842 0.106 0.0
C296 C 0.4914 0.18041 0.15663 0.0
C297 C 0.52122 0.13203 0.23242 0.0
H298 H 0.47517 0.12869 0.39516 0.0
C299 C 0.51346 0.06165 0.47231 0.0
C300 C 0.50562 0.06629 0.55495 0.0
C301 C 0.51261 0.07674 0.40592 0.0
C302 C 0.48832 0.12934 0.35092 0.0
H303 H 0.54757 0.2013 0.11424 0.0
H304 H 0.543 0.16714 0.18138 0.0
H305 H 0.47761 0.15854 0.29937 0.0
H306 H 0.49075 0.0904 0.63244 0.0
H307 H 0.49005 0.11669 0.51972 0.0
H308 H 0.53273 0.10353 0.28868 0.0
C309 C 0.52907 0.17576 0.16271 0.0
C310 C 0.48949 0.14643 0.29408 0.0
C311 C 0.53178 0.19551 0.12464 0.0
C312 C 0.49681 0.08622 0.56943 0.0
C313 C 0.49623 0.10132 0.50392 0.0
C314 C 0.52025 0.11509 0.29048 0.0
C315 C 0.50884 0.16808 0.18204 0.0
C316 C 0.5062 0.14837 0.23497 0.0
C317 C 0.50411 0.09694 0.42086 0.0
C318 C 0.50405 0.11372 0.35225 0.0
H319 H 0.48057 0.21004 0.10589 0.0
H320 H 0.47553 0.17498 0.16783 0.0
H321 H 0.53407 0.13244 0.1867 0.0
H322 H 0.52035 0.04641 0.45909 0.0
H323 H 0.51862 0.0725 0.34295 0.0
C324 C 0.35193 0.55837 0.10558 0.0
C325 C 0.33467 0.54501 0.11786 0.0
C326 C 0.37057 0.55534 0.15205 0.0
C327 C 0.3986 0.51775 0.30011 0.0
H328 H 0.42434 0.56878 0.38544 0.0
C329 C 0.4685 0.51656 0.54432 0.0
C330 C 0.46671 0.53098 0.61257 0.0
C331 C 0.45492 0.51784 0.47285 0.0
C332 C 0.41734 0.55433 0.36249 0.0
H333 H 0.32336 0.51775 0.18635 0.0
H334 H 0.35567 0.5125 0.26925 0.0
H335 H 0.39592 0.57106 0.28168 0.0
H336 H 0.4497 0.55833 0.65826 0.0
H337 H 0.42618 0.56045 0.53555 0.0
H338 H 0.41952 0.50114 0.38453 0.0
C339 C 0.35518 0.5251 0.22238 0.0
C340 C 0.40114 0.55562 0.30171 0.0
C341 C 0.33661 0.52806 0.17511 0.0
C342 C 0.45147 0.54692 0.60694 0.0
C343 C 0.43806 0.54825 0.53589 0.0
C344 C 0.41483 0.51648 0.36117 0.0
C345 C 0.37231 0.53899 0.21303 0.0
C346 C 0.39115 0.53737 0.27089 0.0
C347 C 0.43943 0.53369 0.46794 0.0
C348 C 0.42408 0.53478 0.39485 0.0
H349 H 0.35073 0.57152 0.06154 0.0
H350 H 0.38346 0.56611 0.14131 0.0
H351 H 0.39165 0.50331 0.27691 0.0
H352 H 0.48017 0.50418 0.54664 0.0
H353 H 0.45658 0.50646 0.42143 0.0
C354 C 1.00307 0.33957 0.13036 0.0
C355 C 0.01865 0.32413 0.12043 0.0
C356 C 1.00774 0.359 0.16774 0.0
C357 C 0.04851 0.38408 0.30835 0.0
H358 H 1.01153 0.43204 0.28251 0.0
C359 C 0.04616 0.44921 0.56631 0.0
C360 C 0.03923 0.46953 0.54546 0.0
C361 C 0.04579 0.43311 0.50496 0.0
C362 C 0.02236 0.41905 0.29009 0.0
H363 H 0.05176 0.31757 0.13524 0.0
H364 H 0.06045 0.35204 0.19468 0.0
H365 H 1.00807 0.40246 0.18592 0.0
H366 H 0.02715 0.48911 0.44273 0.0
H367 H 0.02762 0.46142 0.33374 0.0
H368 H 0.06363 0.40114 0.40899 0.0
C369 C 0.04427 0.34888 0.17785 0.0
C370 C 0.02007 0.4017 0.23516 0.0
C371 C 0.03944 0.32919 0.14205 0.0
C372 C 0.03253 0.47357 0.46078 0.0
C373 C 0.03261 0.45754 0.3985 0.0
C374 C 0.05114 0.40162 0.36176 0.0
C375 C 0.02834 0.36385 0.19445 0.0
C376 C 0.03266 0.3836 0.24499 0.0
C377 C 0.03895 0.43689 0.41983 0.0
C378 C 0.03768 0.41918 0.35563 0.0
H379 H 0.98696 0.33614 0.11319 0.0
H380 H 0.99482 0.36968 0.1795 0.0
H381 H 0.05854 0.37061 0.31941 0.0
H382 H 0.05126 0.44551 0.63121 0.0
H383 H 0.0503 0.41752 0.52575 0.0
C384 C 0.82987 1.00345 0.26621 0.0
C385 C 0.82413 0.02397 0.28951 0.0
C386 C 0.84924 0.99949 0.22585 0.0
C387 C 0.90055 0.02531 0.16146 0.0
H388 H 0.9001 0.98188 0.98687 0.0
C389 C 0.97222 1.01237 0.9333 0.0
C390 C 0.96787 1.00621 0.84819 0.0
C391 C 0.95625 1.01251 0.99605 0.0
C392 C 0.90054 0.9943 0.03445 0.0
H393 H 0.83465 0.05621 0.29347 0.0
H394 H 0.86766 0.04976 0.21912 0.0
H395 H 0.86984 0.98639 0.07915 0.0
H396 H 0.94338 0.99541 0.76219 0.0
H397 H 0.91559 0.99658 0.86889 0.0
H398 H 0.93067 0.0342 0.11217 0.0
C399 C 0.85769 0.03645 0.23327 0.0
C400 C 0.88317 0.99662 0.08922 0.0
C401 C 0.83856 0.04028 0.27509 0.0
C402 C 0.94732 1.00009 0.82735 0.0
C403 C 0.93133 1.00058 0.8893 0.0
C404 C 0.91777 0.02326 0.10542 0.0
C405 C 0.86322 1.01603 0.20618 0.0
C406 C 0.88269 1.01237 0.15296 0.0
C407 C 0.93545 1.00681 0.97485 0.0
C408 C 0.91791 1.00794 0.03986 0.0
H409 H 0.81903 0.99058 0.27605 0.0
H410 H 0.85297 0.98345 0.20852 0.0
H411 H 0.90122 0.03732 0.21075 0.0
H412 H 0.98793 1.01718 0.95129 0.0
H413 H 0.96029 1.0171 0.06114 0.0
C414 C 0.47192 0.84413 0.29792 0.0
C415 C 0.48758 0.82856 0.29692 0.0
C416 C 0.47446 0.86287 0.25158 0.0
C417 C 0.51335 0.89627 0.13359 0.0
H418 H 0.46497 0.91183 0.99572 0.0
C419 C 0.5121 0.96735 0.89098 0.0
C420 C 0.5053 0.9617 0.80793 0.0
C421 C 0.50975 0.95335 0.96071 0.0
C422 C 0.4786 0.90778 0.03416 0.0
H423 H 0.51853 0.8207 0.24944 0.0
H424 H 0.52319 0.85351 0.16849 0.0
H425 H 0.46197 0.88351 0.10091 0.0
H426 H 0.49034 0.93714 0.73341 0.0
H427 H 0.48582 0.91312 0.8544 0.0
H428 H 0.53003 0.92039 0.06462 0.0
C429 C 0.50894 0.85137 0.20568 0.0
C430 C 0.47685 0.89162 0.09509 0.0
C431 C 0.50634 0.83257 0.2521 0.0
C432 C 0.49577 0.94199 0.7965 0.0
C433 C 0.49307 0.92824 0.86601 0.0
C434 C 0.51502 0.91267 0.07318 0.0
C435 C 0.49279 0.86655 0.20288 0.0
C436 C 0.49432 0.88528 0.14442 0.0
C437 C 0.50014 0.93363 0.94892 0.0
C438 C 0.49778 0.91826 0.02122 0.0
H439 H 0.4574 0.84148 0.33271 0.0
H440 H 0.46185 0.87431 0.25246 0.0
H441 H 0.52706 0.89201 0.17107 0.0
H442 H 0.51952 0.98239 0.90171 0.0
H443 H 0.5153 0.95797 0.0239 0.0
C444 C 0.70985 0.53924 0.28203 0.0
C445 C 0.7143 0.5196 0.31902 0.0
C446 C 0.69049 0.54299 0.24143 0.0
C447 C 0.63726 0.518 0.19625 0.0
H448 H 0.63788 0.55787 0.00792 0.0
C449 C 0.56415 0.52852 0.97389 0.0
C450 C 0.5676 0.53464 0.88801 0.0
C451 C 0.58072 0.52861 0.03386 0.0
C452 C 0.63735 0.54632 0.05904 0.0
H453 H 0.70137 0.48898 0.34712 0.0
H454 H 0.66866 0.4946 0.27074 0.0
H455 H 0.66864 0.55385 0.09604 0.0
H456 H 0.5912 0.54528 0.79732 0.0
H457 H 0.62004 0.54412 0.8983 0.0
H458 H 0.60659 0.50916 0.154 0.0
C459 C 0.67955 0.50758 0.27456 0.0
C460 C 0.65509 0.54436 0.11186 0.0
C461 C 0.69861 0.50412 0.31742 0.0
C462 C 0.58792 0.54074 0.86332 0.0
C463 C 0.60455 0.54026 0.9222 0.0
C464 C 0.61973 0.51949 0.14164 0.0
C465 C 0.67521 0.52698 0.23418 0.0
C466 C 0.65553 0.53003 0.18119 0.0
C467 C 0.60133 0.53428 0.00887 0.0
C468 C 0.61953 0.53351 0.07119 0.0
H469 H 0.72162 0.55148 0.2817 0.0
H470 H 0.68782 0.55843 0.21443 0.0
H471 H 0.63638 0.50717 0.24987 0.0
H472 H 0.54862 0.52377 0.9948 0.0
H473 H 0.57723 0.52427 0.09978 0.0
C474 C 0.03209 0.70175 0.2456 0.0
C475 C 0.04785 0.70306 0.30842 0.0
C476 C 0.02917 0.68314 0.19866 0.0
C477 C 0.05889 0.63551 0.13191 0.0
H478 H 1.00528 0.6193 0.0342 0.0
C479 C 0.05289 0.58486 0.82602 0.0
C480 C 0.03651 0.57025 0.81753 0.0
C481 C 0.05379 0.59834 0.897 0.0
C482 C 0.02035 0.62339 0.06177 0.0
H483 H 0.07221 0.68589 0.37487 0.0
H484 H 0.06687 0.65313 0.29519 0.0
H485 H 1.00672 0.64746 0.14071 0.0
H486 H 1.00846 0.55789 0.87826 0.0
H487 H 1.00993 0.58165 0.00301 0.0
H488 H 0.07251 0.61147 0.05308 0.0
C489 C 0.05702 0.66652 0.28014 0.0
C490 C 0.02122 0.63977 0.12219 0.0
C491 C 0.05999 0.68517 0.32646 0.0
C492 C 0.02121 0.56909 0.88285 0.0
C493 C 0.02203 0.58275 0.95404 0.0
C494 C 0.05801 0.61918 0.07159 0.0
C495 C 0.04194 0.66537 0.21383 0.0
C496 C 0.04057 0.64641 0.15673 0.0
C497 C 0.03829 0.59767 0.9617 0.0
C498 C 0.0388 0.61322 0.03404 0.0
H499 H 0.02277 0.71547 0.22989 0.0
H500 H 1.01759 0.68308 0.14761 0.0
H501 H 0.07414 0.64011 0.1563 0.0
H502 H 0.06497 0.58609 0.77696 0.0
H503 H 0.06637 0.60976 0.89973 0.0
C504 C 0.96341 0.25251 0.12505 0.0
C505 C 0.98497 0.25453 0.14142 0.0
C506 C 0.95258 0.23472 0.1538 0.0
C507 C 0.95386 0.19298 0.31364 0.0
H508 H 0.93318 0.15506 0.13749 0.0
C509 C 0.93832 0.10819 0.40047 0.0
C510 C 0.95157 0.09513 0.35141 0.0
C511 C 0.93323 0.12833 0.37129 0.0
C512 C 0.93848 0.16565 0.18757 0.0
H513 H 1.01218 0.24056 0.20125 0.0
H514 H 0.99321 0.20963 0.25433 0.0
H515 H 0.94296 0.19108 0.09856 0.0
H516 H 0.96801 0.09217 0.22923 0.0
H517 H 0.95899 0.12704 0.17833 0.0
H518 H 0.95078 0.16741 0.4017 0.0
C519 C 0.98467 0.2216 0.21907 0.0
C520 C 0.94396 0.18622 0.16541 0.0
C521 C 0.99551 0.2391 0.18882 0.0
C522 C 0.9577 0.10173 0.2686 0.0
C523 C 0.95249 0.12179 0.23924 0.0
C524 C 0.94816 0.17257 0.33599 0.0
C525 C 0.96319 0.21917 0.20105 0.0
C526 C 0.95257 0.19967 0.22766 0.0
C527 C 0.94115 0.13565 0.29224 0.0
C528 C 0.94134 0.1584 0.27244 0.0
H529 H 0.95523 0.26439 0.08799 0.0
H530 H 0.93604 0.23303 0.13894 0.0
H531 H 0.96044 0.20317 0.36256 0.0
H532 H 0.93289 0.10334 0.46365 0.0
H533 H 0.9242 0.13862 0.41286 0.0
C534 C 0.28575 0.93959 0.03491 0.0
C535 C 0.27821 0.95547 0.08934 0.0
C536 C 0.30575 0.93101 0.04835 0.0
C537 C 0.34809 0.92609 0.20968 0.0
H538 H 0.38634 0.93166 0.01613 0.0
C539 C 0.43572 0.92468 0.27176 0.0
C540 C 0.4452 0.9432 0.24135 0.0
C541 C 0.41655 0.91797 0.23774 0.0
C542 C 0.37583 0.92972 0.07052 0.0
H543 H 0.28466 0.97443 0.20133 0.0
H544 H 0.31941 0.9592 0.2269 0.0
H545 H 0.34854 0.93566 0.99333 0.0
H546 H 0.44314 0.9679 0.1452 0.0
H547 H 0.40987 0.95633 0.08642 0.0
H548 H 0.37523 0.92166 0.28814 0.0
C549 C 0.31006 0.95326 0.17395 0.0
C550 C 0.35419 0.93185 0.05735 0.0
C551 C 0.29029 0.962 0.15958 0.0
C552 C 0.43631 0.95354 0.17008 0.0
C553 C 0.41716 0.94685 0.13615 0.0
C554 C 0.36965 0.92388 0.22281 0.0
C555 C 0.31818 0.93798 0.11751 0.0
C556 C 0.34023 0.93096 0.12754 0.0
C557 C 0.40652 0.92967 0.17274 0.0
C558 C 0.38384 0.92658 0.15405 0.0
H559 H 0.27648 0.93444 0.98042 0.0
H560 H 0.31165 0.91925 0.00403 0.0
H561 H 0.33762 0.92512 0.26472 0.0
H562 H 0.4425 0.91609 0.32527 0.0
H563 H 0.40895 0.90438 0.26595 0.0
C564 C 0.52766 0.29981 0.14502 0.0
C565 C 0.53959 0.28167 0.13046 0.0
C566 C 0.53757 0.31872 0.16346 0.0
C567 C 0.57523 0.3458 0.26776 0.0
H568 H 0.57152 0.38769 0.0862 0.0
C569 C 0.58563 0.43304 0.34234 0.0
C570 C 0.56742 0.44423 0.31957 0.0
C571 C 0.58956 0.4133 0.30675 0.0
C572 C 0.57301 0.3761 0.13706 0.0
H573 H 0.57088 0.26841 0.1276 0.0
H574 H 0.58847 0.30181 0.16381 0.0
H575 H 0.56506 0.35065 0.05296 0.0
H576 H 0.5399 0.44452 0.23764 0.0
H577 H 0.54675 0.41002 0.17504 0.0
H578 H 0.58197 0.37123 0.35324 0.0
C579 C 0.5715 0.30129 0.15911 0.0
C580 C 0.56931 0.35504 0.11807 0.0
C581 C 0.56153 0.28234 0.13935 0.0
C582 C 0.55396 0.43607 0.2565 0.0
C583 C 0.55801 0.41646 0.22018 0.0
C584 C 0.57911 0.36686 0.28679 0.0
C585 C 0.55952 0.3196 0.1692 0.0
C586 C 0.56944 0.34001 0.1841 0.0
C587 C 0.57547 0.40461 0.24713 0.0
C588 C 0.57702 0.38229 0.22235 0.0
H589 H 0.51071 0.29943 0.13897 0.0
H590 H 0.52814 0.33277 0.17185 0.0
H591 H 0.57518 0.33434 0.31947 0.0
H592 H 0.59618 0.43901 0.39127 0.0
H593 H 0.60312 0.40445 0.32838 0.0
C594 C 0.25729 0.59349 0.03312 0.0
C595 C 0.26484 0.57693 0.08404 0.0
C596 C 0.23753 0.60226 0.0501 0.0
C597 C 0.19637 0.60645 0.21739 0.0
H598 H 0.15687 0.60558 0.02717 0.0
C599 C 0.10909 0.61418 0.28708 0.0
C600 C 0.09776 0.59708 0.25379 0.0
C601 C 0.12882 0.6193 0.25347 0.0
C602 C 0.16775 0.60616 0.08076 0.0
H603 H 0.25863 0.55691 0.19334 0.0
H604 H 0.22427 0.57243 0.22498 0.0
H605 H 0.19428 0.59979 -0.00056 0.0
H606 H 0.09727 0.57336 0.1534 0.0
H607 H 0.13152 0.58221 0.09517 0.0
H608 H 0.16992 0.61144 0.29956 0.0
C609 C 0.23344 0.57875 0.17209 0.0
C610 C 0.18918 0.60301 0.06479 0.0
C611 C 0.25299 0.56984 0.15425 0.0
C612 C 0.10555 0.58665 0.18052 0.0
C613 C 0.12526 0.59177 0.14696 0.0
C614 C 0.17503 0.60968 0.23331 0.0
C615 C 0.22532 0.59479 0.11928 0.0
C616 C 0.20355 0.60232 0.13346 0.0
C617 C 0.13757 0.60743 0.1859 0.0
C618 C 0.16036 0.6088 0.16561 0.0
H619 H 0.26639 0.59907 0.97873 0.0
H620 H 0.23165 0.61463 0.0086 0.0
H621 H 0.20715 0.6062 0.27138 0.0
H622 H 0.10324 0.62283 0.34226 0.0
H623 H 0.13774 0.63178 0.28358 0.0
C624 C 0.09666 0.77998 0.40334 0.0
C625 C 0.08246 0.77126 0.34446 0.0
C626 C 0.10532 0.79982 0.3878 0.0
C627 C 0.11152 0.84113 0.22017 0.0
H628 H 0.09942 0.87983 0.4068 0.0
C629 C 0.10582 0.92872 0.15023 0.0
C630 C 0.08655 0.93711 0.17832 0.0
C631 C 0.11343 0.90994 0.18513 0.0
C632 C 0.10314 0.86923 0.35433 0.0
H633 H 0.06695 0.77527 0.22203 0.0
H634 H 0.08222 0.80974 0.19329 0.0
H635 H 0.09819 0.84209 0.43323 0.0
H636 H 0.061 0.93327 0.26969 0.0
H637 H 0.07405 0.90064 0.32976 0.0
H638 H 0.11473 0.86809 0.13944 0.0
C639 C 0.08688 0.80144 0.25122 0.0
C640 C 0.10266 0.8476 0.36969 0.0
C641 C 0.0781 0.7818 0.26736 0.0
C642 C 0.07597 0.92732 0.24694 0.0
C643 C 0.08352 0.90856 0.28164 0.0
C644 C 0.11196 0.86273 0.20476 0.0
C645 C 0.10007 0.81097 0.31248 0.0
C646 C 0.10588 0.83335 0.30173 0.0
C647 C 0.10187 0.89918 0.24862 0.0
C648 C 0.10679 0.877 0.27071 0.0
H649 H 0.10016 0.7719 0.46306 0.0
H650 H 0.11551 0.80674 0.43586 0.0
H651 H 0.11434 0.83049 0.16688 0.0
H652 H 0.11456 0.93618 0.09864 0.0
H653 H 0.12782 0.90332 0.15949 0.0
C654 C 0.74915 0.07468 0.32195 0.0
C655 C 0.75211 0.05334 0.30304 0.0
C656 C 0.72941 0.08398 0.30975 0.0
C657 C 0.67393 0.06942 0.30263 0.0
H658 H 0.6649 0.11819 0.15735 0.0
C659 C 0.59207 0.08507 0.18128 0.0
C660 C 0.59165 0.08639 0.09077 0.0
C661 C 0.6106 0.08918 0.22635 0.0
C662 C 0.66716 0.10469 0.19889 0.0
H663 H 0.73776 0.02516 0.25347 0.0
H664 H 0.70324 0.04116 0.23244 0.0
H665 H 0.70073 0.10805 0.19738 0.0
H666 H 0.60944 0.09595 0.97802 0.0
H667 H 0.64191 0.10207 0.05563 0.0
H668 H 0.64084 0.06489 0.29972 0.0
C669 C 0.71589 0.05072 0.2576 0.0
C670 C 0.68764 0.09901 0.22219 0.0
C671 C 0.73556 0.04161 0.2688 0.0
C672 C 0.60944 0.09416 0.04748 0.0
C673 C 0.62802 0.09801 0.09238 0.0
C674 C 0.65356 0.07504 0.27947 0.0
C675 C 0.7125 0.07186 0.27961 0.0
C676 C 0.69117 0.08074 0.27078 0.0
C677 C 0.62913 0.09442 0.18176 0.0
C678 C 0.64997 0.09218 0.22401 0.0
H679 H 0.76187 0.08381 0.34901 0.0
H680 H 0.72715 0.10033 0.32664 0.0
H681 H 0.67628 0.05545 0.34148 0.0
H682 H 0.57865 0.07926 0.21699 0.0
H683 H 0.61078 0.08679 0.29552 0.0
C684 C 0.46516 0.74514 0.26402 0.0
C685 C 0.4578 0.75754 0.33207 0.0
C686 C 0.45634 0.72548 0.24846 0.0
C687 C 0.43185 0.68197 0.35927 0.0
H688 H 0.42316 0.66176 0.12626 0.0
C689 C 0.44832 0.59805 0.24868 0.0
C690 C 0.43795 0.5901 0.17573 0.0
C691 C 0.44303 0.61776 0.28163 0.0
C692 C 0.42498 0.66714 0.19207 0.0
H693 H 0.43538 0.75987 0.43623 0.0
H694 H 0.42001 0.72491 0.41053 0.0
H695 H 0.42857 0.69906 0.15128 0.0
H696 H 0.41207 0.59525 0.08746 0.0
H697 H 0.40279 0.62974 0.14516 0.0
H698 H 0.42922 0.64985 0.39958 0.0
C699 C 0.43248 0.73047 0.36882 0.0
C700 C 0.42831 0.68851 0.20615 0.0
C701 C 0.44115 0.75036 0.38342 0.0
C702 C 0.42068 0.60123 0.14241 0.0
C703 C 0.41537 0.62095 0.17546 0.0
C704 C 0.42861 0.6605 0.34514 0.0
C705 C 0.44015 0.71779 0.30154 0.0
C706 C 0.43254 0.69602 0.28939 0.0
C707 C 0.42725 0.62991 0.24235 0.0
C708 C 0.42587 0.65277 0.26094 0.0
H709 H 0.47816 0.7505 0.22467 0.0
H710 H 0.46279 0.71592 0.19703 0.0
H711 H 0.43514 0.68735 0.42412 0.0
H712 H 0.46173 0.58991 0.27585 0.0
H713 H 0.45258 0.62418 0.33297 0.0
C714 C 0.79606 0.47753 0.41117 0.0
C715 C 0.78487 0.4869 0.34339 0.0
C716 C 0.81682 0.47105 0.39888 0.0
C717 C 0.86316 0.48156 0.36115 0.0
H718 H 0.88416 0.4516 0.16112 0.0
C719 C 0.94054 0.49991 0.18629 0.0
C720 C 0.95198 0.48324 0.14988 0.0
C721 C 0.9218 0.49602 0.23035 0.0
C722 C 0.87861 0.45966 0.21832 0.0
H723 H 0.7858 0.49582 0.20906 0.0
H724 H 0.82172 0.4834 0.18561 0.0
H725 H 0.84672 0.45055 0.19518 0.0
H726 H 0.95344 0.44939 0.13493 0.0
H727 H 0.92062 0.44265 0.21158 0.0
H728 H 0.89487 0.49176 0.38129 0.0
C729 C 0.81456 0.48116 0.24837 0.0
C730 C 0.8572 0.45912 0.23739 0.0
C731 C 0.79401 0.48808 0.26133 0.0
C732 C 0.94499 0.46254 0.16264 0.0
C733 C 0.92617 0.45867 0.20603 0.0
C734 C 0.88457 0.48232 0.34147 0.0
C735 C 0.82639 0.47339 0.31789 0.0
C736 C 0.84925 0.47051 0.30757 0.0
C737 C 0.91409 0.47542 0.23797 0.0
C738 C 0.89237 0.47182 0.26849 0.0
H739 H 0.78922 0.47672 0.47505 0.0
H740 H 0.82568 0.46514 0.45335 0.0
H741 H 0.8573 0.49065 0.41505 0.0
H742 H 0.94573 0.51599 0.17816 0.0
H743 H 0.91273 0.50925 0.25388 0.0
C744 C 0.03413 0.2411 0.99582 0.0
C745 C 1.01456 0.25137 0.99502 0.0
C746 C 0.03616 0.22061 0.96249 0.0
C747 C 1.00507 0.17294 0.93845 0.0
H748 H 0.04764 0.15312 0.77874 0.0
C749 C 0.02177 0.08449 0.88012 0.0
C750 C 0.02224 0.07774 0.79368 0.0
C751 C 0.02139 0.10593 0.90061 0.0
C752 C 0.03565 0.15846 0.82327 0.0
H753 H 0.98223 0.24887 0.95415 0.0
H754 H 0.98554 0.21308 0.89833 0.0
H755 H 0.04655 0.19046 0.81957 0.0
H756 H 0.02299 0.08849 0.66101 0.0
H757 H 0.0229 0.12605 0.69716 0.0
H758 H 0.99443 0.14101 0.94401 0.0
C759 C 0.99931 0.22072 0.92461 0.0
C760 C 0.03511 0.17978 0.847 0.0
C761 C 0.99742 0.24122 0.95625 0.0
C762 C 0.02259 0.09309 0.72823 0.0
C763 C 0.02266 0.11461 0.7489 0.0
C764 C 1.00589 0.15162 0.91628 0.0
C765 C 0.01856 0.20995 0.92913 0.0
C766 C 0.0197 0.18729 0.9044 0.0
C767 C 0.02187 0.12128 0.83539 0.0
C768 C 0.02111 0.1441 0.85813 0.0
H769 H 0.04751 0.24844 0.02643 0.0
H770 H 0.05119 0.2127 0.96703 0.0
H771 H 0.9931 0.1782 0.9833 0.0
H772 H 0.02139 0.07318 0.93233 0.0
H773 H 0.02088 0.11053 0.96783 0.0
C774 C 0.28755 1.0096 -0.00036 0.0
C775 C 0.27646 0.99177 0.97258 0.0
C776 C 0.30717 1.01445 0.96319 0.0
C777 C 0.3444 0.99949 0.78356 0.0
H778 H 0.38622 0.02024 0.94327 0.0
C779 C 0.43128 1.01431 0.67899 0.0
C780 C 0.44704 1.01063 0.74064 0.0
C781 C 0.40993 1.01356 0.70233 0.0
C782 C 0.37487 1.0142 0.89771 0.0
H783 H 0.27641 0.96573 0.88376 0.0
H784 H 0.31076 0.97352 0.82195 0.0
H785 H 0.35013 1.01647 0.99053 0.0
H786 H 0.45261 1.00242 0.87447 0.0
H787 H 0.41583 1.0003 0.91406 0.0
H788 H 0.36946 0.99609 0.69227 0.0
C789 C 0.30444 0.98416 0.86985 0.0
C790 C 0.35392 1.01242 0.92453 0.0
C791 C 0.28477 0.97953 0.90556 0.0
C792 C 0.44094 1.00567 0.82544 0.0
C793 C 0.41971 1.00463 0.84841 0.0
C794 C 0.36544 1.00103 0.75701 0.0
C795 C 0.31624 1.00141 0.89951 0.0
C796 C 0.33833 1.00484 0.86826 0.0
C797 C 0.40381 1.00883 0.7877 0.0
C798 C 0.38108 1.00817 0.81402 0.0
H799 H 0.28149 0.01914 0.05184 0.0
H800 H 0.31544 0.02814 0.98666 0.0
H801 H 0.33293 0.99392 0.73752 0.0
H802 H 0.43543 1.01824 0.61316 0.0
H803 H 0.39828 1.0171 0.65366 0.0
C804 C 0.53337 0.29056 0.93733 0.0
C805 C 0.5154 0.28016 0.96841 0.0
C806 C 0.53212 0.31117 0.90595 0.0
C807 C 0.50161 0.3528 0.81055 0.0
H808 H 0.53167 0.3907 0.96241 0.0
C809 C 0.51753 0.44161 0.7297 0.0
C810 C 0.5144 0.45606 0.79734 0.0
C811 C 0.51669 0.4198 0.74499 0.0
C812 C 0.52314 0.38042 0.91928 0.0
H813 H 0.48176 0.28264 0.98427 0.0
H814 H 0.47932 0.3185 0.92431 0.0
H815 H 0.53098 0.35304 0.99357 0.0
H816 H 0.50805 0.45857 0.93446 0.0
H817 H 0.50698 0.42086 0.96099 0.0
H818 H 0.49374 0.38023 0.73588 0.0
C819 C 0.49445 0.31071 0.92607 0.0
C820 C 0.52292 0.35881 0.93688 0.0
C821 C 0.49578 0.29013 0.95942 0.0
C822 C 0.51053 0.44804 0.88056 0.0
C823 C 0.51001 0.42632 0.89599 0.0
C824 C 0.50205 0.37449 0.79206 0.0
C825 C 0.51275 0.32173 0.90233 0.0
C826 C 0.51223 0.34473 0.88281 0.0
C827 C 0.51306 0.41184 0.82856 0.0
C828 C 0.51279 0.38862 0.8464 0.0
H829 H 0.54867 0.28329 0.94408 0.0
H830 H 0.54647 0.31921 0.88799 0.0
H831 H 0.49322 0.34232 0.76779 0.0
H832 H 0.5205 0.44714 0.66474 0.0
H833 H 0.51926 0.40915 0.69156 0.0
C834 C 0.25722 0.554 0.89954 0.0
C835 C 0.26573 0.54111 0.96407 0.0
C836 C 0.23769 0.54945 0.86268 0.0
C837 C 0.1887 0.51937 0.90953 0.0
H838 H 0.17334 0.53845 0.68064 0.0
C839 C 0.10184 0.52674 0.81124 0.0
C840 C 0.09571 0.52289 0.72557 0.0
C841 C 0.12305 0.52747 0.83425 0.0
C842 C 0.17732 0.53274 0.74433 0.0
H843 H 0.26109 0.51273 0.0378 0.0
H844 H 0.22738 0.50392 0.97058 0.0
H845 H 0.20973 0.54078 0.72755 0.0
H846 H 0.10733 0.51698 0.59654 0.0
H847 H 0.14455 0.51764 0.63698 0.0
H848 H 0.15652 0.51067 0.92545 0.0
C849 C 0.23541 0.51804 0.94998 0.0
C850 C 0.19827 0.53436 0.77193 0.0
C851 C 0.2549 0.52281 0.98762 0.0
C852 C 0.11148 0.51999 0.66308 0.0
C853 C 0.13286 0.52047 0.68641 0.0
C854 C 0.16786 0.51752 0.88161 0.0
C855 C 0.22619 0.53162 0.88854 0.0
C856 C 0.20425 0.52806 0.85564 0.0
C857 C 0.13897 0.52409 0.77267 0.0
C858 C 0.16169 0.52458 0.79924 0.0
H859 H 0.26539 0.56815 0.88019 0.0
H860 H 0.23125 0.56051 0.81671 0.0
H861 H 0.1924 0.51452 0.97467 0.0
H862 H 0.0902 0.5294 0.86109 0.0
H863 H 0.12691 0.53096 0.90068 0.0
C864 C 0.02811 0.78576 0.412 0.0
C865 C 0.04409 0.77358 0.44919 0.0
C866 C 0.0237 0.80599 0.44355 0.0
C867 C 0.03535 0.84289 0.62792 0.0
H868 H 0.02071 0.88538 0.4595 0.0
C869 C 0.01992 0.9297 0.7287 0.0
C870 C 0.02522 0.9457 0.67006 0.0
C871 C 0.0209 0.90847 0.70417 0.0
C872 C 0.02505 0.87385 0.50763 0.0
H873 H 0.06737 0.77244 0.54992 0.0
H874 H 0.06038 0.80774 0.60358 0.0
H875 H 0.02465 0.84914 0.41427 0.0
H876 H 0.03638 0.95175 0.54022 0.0
H877 H 0.03895 0.91507 0.49882 0.0
H878 H 0.03693 0.86777 0.72033 0.0
C879 C 0.05079 0.80184 0.55142 0.0
C880 C 0.02692 0.85282 0.48174 0.0
C881 C 0.05495 0.78159 0.52049 0.0
C882 C 0.0319 0.93989 0.58688 0.0
C883 C 0.03321 0.91872 0.56282 0.0
C884 C 0.03375 0.86397 0.6536 0.0
C885 C 0.03535 0.81459 0.51252 0.0
C886 C 0.03222 0.83696 0.5413 0.0
C887 C 0.02754 0.90259 0.62066 0.0
C888 C 0.02869 0.87988 0.59383 0.0
H889 H 0.01969 0.77996 0.35629 0.0
H890 H 1.01139 0.81501 0.41268 0.0
H891 H 0.03911 0.83125 0.67643 0.0
H892 H 1.01461 0.93359 0.79314 0.0
H893 H 1.01608 0.89671 0.75056 0.0
C894 C 0.74242 1.00408 0.42183 0.0
C895 C 0.75438 0.02199 0.44066 0.0
C896 C 0.72199 1.00188 0.4551 0.0
C897 C 0.67846 0.03531 0.54265 0.0
H898 H 0.65148 0.98174 0.58483 0.0
C899 C 0.5937 0.02833 0.68147 0.0
C900 C 0.58019 1.01444 0.63792 0.0
C901 C 0.61531 0.02865 0.66309 0.0
C902 C 0.65879 0.99683 0.57301 0.0
H903 H 0.75499 0.05101 0.51214 0.0
H904 H 0.72001 0.04678 0.57473 0.0
H905 H 0.68878 0.98277 0.54751 0.0
H906 H 0.57911 0.98965 0.54208 0.0
H907 H 0.61675 0.98998 0.51144 0.0
H908 H 0.64847 0.04932 0.56929 0.0
C909 C 0.72589 0.03465 0.53212 0.0
C910 C 0.68021 0.99744 0.55125 0.0
C911 C 0.74614 0.03692 0.49796 0.0
C912 C 0.58897 1.00061 0.57677 0.0
C913 C 0.6106 1.0007 0.55948 0.0
C914 C 0.65715 0.0347 0.56553 0.0
C915 C 0.71313 1.01751 0.50861 0.0
C916 C 0.69041 1.0167 0.53534 0.0
C917 C 0.62405 1.01484 0.6018 0.0
C918 C 0.64698 1.01545 0.58053 0.0
H919 H 0.74826 0.99267 0.37588 0.0
H920 H 0.71275 0.98854 0.43452 0.0
H921 H 0.68541 0.05046 0.5287 0.0
H922 H 0.58753 0.03924 0.72871 0.0
H923 H 0.62524 0.03965 0.69726 0.0
C924 C 0.51129 0.74883 0.43178 0.0
C925 C 0.49301 0.75986 0.45438 0.0
C926 C 0.51598 0.72944 0.47085 0.0
C927 C 0.4995 0.69293 0.65128 0.0
H928 H 0.523 0.65058 0.50015 0.0
C929 C 0.51451 0.60639 0.76548 0.0
C930 C 0.51175 0.59041 0.70396 0.0
C931 C 0.51367 0.62771 0.74097 0.0
C932 C 0.5162 0.66208 0.54337 0.0
H933 H 0.4659 0.75997 0.53796 0.0
H934 H 0.47347 0.72607 0.60437 0.0
H935 H 0.5192 0.68631 0.44871 0.0
H936 H 0.50497 0.58448 0.56906 0.0
H937 H 0.50281 0.62105 0.5275 0.0
H938 H 0.49549 0.66832 0.74434 0.0
C939 C 0.48457 0.73227 0.55797 0.0
C940 C 0.51438 0.68285 0.51415 0.0
C941 C 0.48008 0.75169 0.51956 0.0
C942 C 0.50756 0.59629 0.61818 0.0
C943 C 0.50648 0.61743 0.59401 0.0
C944 C 0.50113 0.67206 0.68027 0.0
C945 C 0.50234 0.72052 0.53289 0.0
C946 C 0.50578 0.69863 0.56714 0.0
C947 C 0.50983 0.63356 0.65446 0.0
C948 C 0.50923 0.6562 0.62631 0.0
H949 H 0.52139 0.75475 0.38106 0.0
H950 H 0.53006 0.72123 0.45077 0.0
H951 H 0.49312 0.70457 0.69498 0.0
H952 H 0.51778 0.60244 0.83208 0.0
H953 H 0.51646 0.63956 0.78961 0.0
C954 C 0.80203 0.53291 0.39209 0.0
C955 C 0.78628 0.52505 0.44665 0.0
C956 C 0.82278 0.53496 0.42116 0.0
C957 C 0.85906 0.51252 0.58437 0.0
H958 H 0.89653 0.55621 0.50311 0.0
C959 C 0.9469 0.51753 0.69181 0.0
C960 C 0.96169 0.52365 0.62903 0.0
C961 C 0.92521 0.51856 0.67469 0.0
C962 C 0.88638 0.54373 0.52579 0.0
H963 H 0.77964 0.51379 0.57502 0.0
H964 H 0.81577 0.51801 0.62774 0.0
H965 H 0.85935 0.55772 0.46669 0.0
H966 H 0.96495 0.53538 0.49819 0.0
H967 H 0.92753 0.53685 0.46834 0.0
H968 H 0.88619 0.49836 0.64236 0.0
C969 C 0.81222 0.52239 0.56187 0.0
C970 C 0.86496 0.54464 0.50498 0.0
C971 C 0.79143 0.52038 0.53252 0.0
C972 C 0.95415 0.53067 0.54863 0.0
C973 C 0.93256 0.53166 0.53155 0.0
C974 C 0.88052 0.51159 0.60507 0.0
C975 C 0.82833 0.52915 0.50584 0.0
C976 C 0.85096 0.52897 0.53327 0.0
C977 C 0.9177 0.52574 0.59434 0.0
C978 C 0.89458 0.52708 0.57543 0.0
H979 H 0.79852 0.53602 0.32497 0.0
H980 H 0.83467 0.53991 0.37552 0.0
H981 H 0.84893 0.49992 0.60607 0.0
H982 H 0.95205 0.51207 0.7545 0.0
H983 H 0.91432 0.51402 0.72505 0.0
loop_
_geom_bond_atom_site_label_1
_geom_bond_atom_site_label_2
_geom_bond_distance
_geom_bond_site_symmetry_2
_ccdc_geom_bond_type
C0 N1 1.317 . S
C0 N2 1.348 . S
C0 C3 1.485 . S
N1 C0 1.317 . S
N1 N5 1.370 . S
N2 C0 1.348 . S
N2 C4 1.346 . S
C3 C0 1.485 . S
C3 H7 0.960 . S
C3 H8 0.961 . S
C3 H9 0.960 . S
C4 N2 1.346 . S
C4 N5 1.307 . S
C4 C6 1.486 . S
N5 N1 1.370 . S
N5 C4 1.307 . S
C6 C4 1.486 . S
C6 H10 0.960 . S
C6 H11 0.960 . S
C6 H12 0.959 . S
H7 C3 0.960 . S
H8 C3 0.961 . S
H9 C3 0.960 . S
H10 C6 0.960 . S
H11 C6 0.960 . S
H12 C6 0.959 . S
C13 N14 1.317 . S
C13 N15 1.348 . S
C13 C16 1.485 . S
N14 C13 1.317 . S
N14 N18 1.373 . S
N15 C13 1.348 . S
N15 C17 1.347 . S
C16 C13 1.485 . S
C16 H20 0.960 1_655 S
C16 H21 0.961 . S
C16 H22 0.960 . S
C17 N15 1.347 . S
C17 N18 1.307 . S
C17 C19 1.486 1_655 S
N18 N14 1.373 . S
N18 C17 1.307 . S
C19 C17 1.486 1_455 S
C19 H23 0.950 1_455 S
C19 H24 0.968 . S
C19 H25 0.961 . S
H20 C16 0.960 1_455 S
H21 C16 0.961 . S
H22 C16 0.960 . S
H23 C19 0.950 1_655 S
H24 C19 0.968 . S
H25 C19 0.961 . S
C26 N27 1.317 . S
C26 N28 1.348 . S
C26 C29 1.485 . S
N27 C26 1.317 . S
N27 N31 1.374 . S
N28 C26 1.348 . S
N28 C30 1.348 . S
C29 C26 1.485 . S
C29 H33 0.960 1_565 S
C29 H34 0.961 . S
C29 H35 0.960 . S
C30 N28 1.348 . S
C30 N31 1.307 . S
C30 C32 1.486 1_565 S
N31 N27 1.374 . S
N31 C30 1.307 . S
C32 C30 1.486 1_545 S
C32 H36 0.960 1_545 S
C32 H37 0.960 . S
C32 H38 0.959 . S
H33 C29 0.960 1_545 S
H34 C29 0.961 . S
H35 C29 0.960 . S
H36 C32 0.960 1_565 S
H37 C32 0.960 . S
H38 C32 0.959 . S
C39 N40 1.317 . S
C39 N41 1.348 . S
C39 C42 1.485 . S
N40 C39 1.317 . S
N40 N44 1.370 . S
N41 C39 1.348 . S
N41 C43 1.346 . S
C42 C39 1.485 . S
C42 H46 0.960 . S
C42 H47 0.961 . S
C42 H48 0.960 . S
C43 N41 1.346 . S
C43 N44 1.307 . S
C43 C45 1.486 . S
N44 N40 1.370 . S
N44 C43 1.307 . S
C45 C43 1.486 . S
C45 H49 0.960 . S
C45 H50 0.960 . S
C45 H51 0.959 . S
H46 C42 0.960 . S
H47 C42 0.961 . S
H48 C42 0.960 . S
H49 C45 0.960 . S
H50 C45 0.960 . S
H51 C45 0.959 . S
C52 N53 1.317 . S
C52 N54 1.348 1_556 S
C52 C55 1.485 . S
N53 C52 1.317 . S
N53 N57 1.370 1_556 S
N54 C52 1.348 1_554 S
N54 C56 1.346 . S
C55 C52 1.485 . S
C55 H59 0.960 . S
C55 H60 0.961 . S
C55 H61 0.960 . S
C56 N54 1.346 . S
C56 N57 1.307 . S
C56 C58 1.486 . S
N57 N53 1.370 1_554 S
N57 C56 1.307 . S
C58 C56 1.486 . S
C58 H62 0.960 . S
C58 H63 0.960 . S
C58 H64 0.959 . S
H59 C55 0.960 . S
H60 C55 0.961 . S
H61 C55 0.960 . S
H62 C58 0.960 . S
H63 C58 0.960 . S
H64 C58 0.959 . S
C65 N66 1.317 . S
C65 N67 1.347 1_556 S
C65 C68 1.485 1_455 S
N66 C65 1.317 . S
N66 N70 1.371 1_556 S
N67 C65 1.347 1_554 S
N67 C69 1.349 . S
C68 C65 1.485 1_655 S
C68 H72 0.960 1_655 S
C68 H73 0.961 . S
C68 H74 0.960 . S
C69 N67 1.349 . S
C69 N70 1.307 . S
C69 C71 1.486 . S
N70 N66 1.371 1_554 S
N70 C69 1.307 . S
C71 C69 1.486 . S
C71 H75 0.960 1_455 S
C71 H76 0.960 . S
C71 H77 0.959 . S
H72 C68 0.960 1_455 S
H73 C68 0.961 . S
H74 C68 0.960 . S
H75 C71 0.960 1_655 S
H76 C71 0.960 . S
H77 C71 0.959 . S
C78 N79 1.317 1_565 S
C78 N80 1.347 1_566 S
C78 C81 1.485 . S
N79 C78 1.317 1_545 S
N79 N83 1.370 1_556 S
N80 C78 1.347 1_544 S
N80 C82 1.348 . S
C81 C78 1.485 . S
C81 H85 0.960 1_565 S
C81 H86 0.961 . S
C81 H87 0.960 . S
C82 N80 1.348 . S
C82 N83 1.307 . S
C82 C84 1.486 . S
N83 N79 1.370 1_554 S
N83 C82 1.307 . S
C84 C82 1.486 . S
C84 H88 0.960 1_545 S
C84 H89 0.960 . S
C84 H90 0.959 . S
H85 C81 0.960 1_545 S
H86 C81 0.961 . S
H87 C81 0.960 . S
H88 C84 0.960 1_565 S
H89 C84 0.960 . S
H90 C84 0.959 . S
C91 N92 1.317 . S
C91 N93 1.348 1_556 S
C91 C94 1.485 . S
N92 C91 1.317 . S
N92 N96 1.370 1_556 S
N93 C91 1.348 1_554 S
N93 C95 1.346 . S
C94 C91 1.485 . S
C94 H98 0.960 . S
C94 H99 0.961 . S
C94 H100 0.960 . S
C95 N93 1.346 . S
C95 N96 1.307 . S
C95 C97 1.486 . S
N96 N92 1.370 1_554 S
N96 C95 1.307 . S
C97 C95 1.486 . S
C97 H101 0.960 . S
C97 H102 0.960 . S
C97 H103 0.959 . S
H98 C94 0.960 . S
H99 C94 0.961 . S
H100 C94 0.960 . S
H101 C97 0.960 . S
H102 C97 0.960 . S
H103 C97 0.959 . S
Ho104 C107 2.811 . S
Ho104 O124 2.322 . S
Ho104 O126 2.378 . S
Ho104 O127 2.513 1_455 S
Ho104 O128 2.381 . S
Ho104 O129 2.669 1_565 S
Ho104 O131 2.346 1_565 S
Ho104 O135 2.305 1_455 S
Ho105 C116 2.811 . S
Ho105 O125 2.346 1_545 S
Ho105 O129 2.305 1_655 S
Ho105 O130 2.322 . S
Ho105 O132 2.378 . S
Ho105 O133 2.524 1_655 S
Ho105 O134 2.381 . S
Ho105 O135 2.669 1_545 S
C106 O124 1.259 1_655 S
C106 O125 1.268 . S
C107 Ho104 2.811 . S
C107 C108 1.488 . S
C107 O126 1.215 . S
C107 O127 1.265 1_455 S
C108 C107 1.488 . S
C108 C109 1.348 . S
C108 C113 1.413 . S
C109 C108 1.348 . S
C109 C110 1.442 1_556 S
C109 H136 0.930 1_455 S
C110 C109 1.442 1_554 S
C110 C111 1.381 . S
C110 H137 0.931 1_455 S
C111 C110 1.381 . S
C111 C112 1.321 1_554 S
C112 C111 1.321 1_556 S
C112 C113 1.403 . S
C112 H138 0.934 1_556 S
C113 C108 1.413 . S
C113 C112 1.403 . S
C113 H139 0.930 . S
C114 O128 1.290 . S
C114 O129 1.247 1_565 S
C115 O130 1.259 1_455 S
C115 O131 1.268 . S
C116 Ho105 2.811 . S
C116 C117 1.488 . S
C116 O132 1.215 . S
C116 O133 1.289 1_655 S
C117 C116 1.488 . S
C117 C118 1.348 . S
C117 C122 1.413 . S
C118 C117 1.348 . S
C118 C119 1.442 . S
C118 H140 0.930 1_655 S
C119 C118 1.442 . S
C119 C120 1.381 . S
C119 H141 0.931 1_655 S
C120 C119 1.381 . S
C120 C121 1.321 . S
C121 C120 1.321 . S
C121 C122 1.403 . S
C121 H142 0.934 . S
C122 C117 1.413 . S
C122 C121 1.403 . S
C122 H143 0.930 . S
C123 O134 1.275 . S
C123 O135 1.256 1_545 S
O124 Ho104 2.322 . S
O124 C106 1.259 1_455 S
O125 Ho105 2.346 1_565 S
O125 C106 1.268 . S
O126 Ho104 2.378 . S
O126 C107 1.215 . S
O127 Ho104 2.513 1_655 S
O127 C107 1.265 1_655 S
O128 Ho104 2.381 . S
O128 C114 1.290 . S
O129 Ho104 2.669 1_545 S
O129 Ho105 2.305 1_455 S
O129 C114 1.247 1_545 S
O130 Ho105 2.322 . S
O130 C115 1.259 1_655 S
O131 Ho104 2.346 1_545 S
O131 C115 1.268 . S
O132 Ho105 2.378 . S
O132 C116 1.215 . S
O133 Ho105 2.524 1_455 S
O133 C116 1.289 1_455 S
O134 Ho105 2.381 . S
O134 C123 1.275 . S
O135 Ho104 2.305 1_655 S
O135 Ho105 2.669 1_565 S
O135 C123 1.256 1_565 S
H136 C109 0.930 1_655 S
H137 C110 0.931 1_655 S
H138 C112 0.934 1_554 S
H139 C113 0.930 . S
H140 C118 0.930 1_455 S
H141 C119 0.931 1_455 S
H142 C121 0.934 . S
H143 C122 0.930 . S
Ho144 C147 2.811 . S
Ho144 O164 2.322 . S
Ho144 O166 2.378 . S
Ho144 O167 2.508 1_545 S
Ho144 O168 2.381 . S
Ho144 O169 2.669 . S
Ho144 O171 2.346 . S
Ho144 O175 2.305 1_545 S
Ho145 C156 2.811 . S
Ho145 O165 2.346 . S
Ho145 O169 2.305 1_565 S
Ho145 O170 2.322 . S
Ho145 O172 2.378 . S
Ho145 O173 2.524 1_565 S
Ho145 O174 2.381 . S
Ho145 O175 2.669 . S
C146 O164 1.259 1_565 S
C146 O165 1.268 . S
C147 Ho144 2.811 . S
C147 C148 1.488 . S
C147 O166 1.215 . S
C147 O167 1.253 1_545 S
C148 C147 1.488 . S
C148 C149 1.348 . S
C148 C153 1.413 . S
C149 C148 1.348 . S
C149 C150 1.442 1_556 S
C149 H176 0.930 1_545 S
C150 C149 1.442 1_554 S
C150 C151 1.381 . S
C150 H177 0.931 1_545 S
C151 C150 1.381 . S
C151 C152 1.321 1_554 S
C152 C151 1.321 1_556 S
C152 C153 1.403 . S
C152 H178 0.934 1_556 S
C153 C148 1.413 . S
C153 C152 1.403 . S
C153 H179 0.930 . S
C154 O168 1.275 . S
C154 O169 1.256 . S
C155 O170 1.259 1_545 S
C155 O171 1.268 . S
C156 Ho145 2.811 . S
C156 C157 1.488 . S
C156 O172 1.215 . S
C156 O173 1.289 1_565 S
C157 C156 1.488 . S
C157 C158 1.348 . S
C157 C162 1.413 . S
C158 C157 1.348 . S
C158 C159 1.442 . S
C158 H180 0.930 1_565 S
C159 C158 1.442 . S
C159 C160 1.381 . S
C159 H181 0.931 1_565 S
C160 C159 1.381 . S
C160 C161 1.321 . S
C161 C160 1.321 . S
C161 C162 1.403 . S
C161 H182 0.934 . S
C162 C157 1.413 . S
C162 C161 1.403 . S
C162 H183 0.930 . S
C163 O174 1.275 . S
C163 O175 1.256 . S
O164 Ho144 2.322 . S
O164 C146 1.259 1_545 S
O165 Ho145 2.346 . S
O165 C146 1.268 . S
O166 Ho144 2.378 . S
O166 C147 1.215 . S
O167 Ho144 2.508 1_565 S
O167 C147 1.253 1_565 S
O168 Ho144 2.381 . S
O168 C154 1.275 . S
O169 Ho144 2.669 . S
O169 Ho145 2.305 1_545 S
O169 C154 1.256 . S
O170 Ho145 2.322 . S
O170 C155 1.259 1_565 S
O171 Ho144 2.346 . S
O171 C155 1.268 . S
O172 Ho145 2.378 . S
O172 C156 1.215 . S
O173 Ho145 2.524 1_545 S
O173 C156 1.289 1_545 S
O174 Ho145 2.381 . S
O174 C163 1.275 . S
O175 Ho144 2.305 1_565 S
O175 Ho145 2.669 . S
O175 C163 1.256 . S
H176 C149 0.930 1_565 S
H177 C150 0.931 1_565 S
H178 C152 0.934 1_554 S
H179 C153 0.930 . S
H180 C158 0.930 1_545 S
H181 C159 0.931 1_545 S
H182 C161 0.934 . S
H183 C162 0.930 . S
Ho184 C187 2.811 . S
Ho184 O204 2.322 . S
Ho184 O206 2.378 . S
Ho184 O207 2.524 . S
Ho184 O208 2.381 . S
Ho184 O209 2.669 . S
Ho184 O211 2.346 . S
Ho184 O215 2.305 . S
Ho185 C196 2.811 . S
Ho185 O205 2.346 . S
Ho185 O209 2.305 . S
Ho185 O210 2.322 . S
Ho185 O212 2.378 . S
Ho185 O213 2.524 . S
Ho185 O214 2.381 . S
Ho185 O215 2.669 . S
C186 O204 1.259 . S
C186 O205 1.268 . S
C187 Ho184 2.811 . S
C187 C188 1.488 . S
C187 O206 1.215 . S
C187 O207 1.289 . S
C188 C187 1.488 . S
C188 C189 1.348 . S
C188 C193 1.413 . S
C189 C188 1.348 . S
C189 C190 1.442 1_556 S
C189 H216 0.930 . S
C190 C189 1.442 1_554 S
C190 C191 1.381 . S
C190 H217 0.931 . S
C191 C190 1.381 . S
C191 C192 1.321 1_554 S
C192 C191 1.321 1_556 S
C192 C193 1.403 . S
C192 H218 0.934 1_556 S
C193 C188 1.413 . S
C193 C192 1.403 . S
C193 H219 0.930 . S
C194 O208 1.275 . S
C194 O209 1.256 . S
C195 O210 1.259 . S
C195 O211 1.268 . S
C196 Ho185 2.811 . S
C196 C197 1.488 . S
C196 O212 1.215 . S
C196 O213 1.289 . S
C197 C196 1.488 . S
C197 C198 1.348 . S
C197 C202 1.413 . S
C198 C197 1.348 . S
C198 C199 1.442 . S
C198 H220 0.930 . S
C199 C198 1.442 . S
C199 C200 1.381 . S
C199 H221 0.931 . S
C200 C199 1.381 . S
C200 C201 1.321 . S
C201 C200 1.321 . S
C201 C202 1.403 . S
C201 H222 0.934 . S
C202 C197 1.413 . S
C202 C201 1.403 . S
C202 H223 0.930 . S
C203 O214 1.275 . S
C203 O215 1.256 . S
O204 Ho184 2.322 . S
O204 C186 1.259 . S
O205 Ho185 2.346 . S
O205 C186 1.268 . S
O206 Ho184 2.378 . S
O206 C187 1.215 . S
O207 Ho184 2.524 . S
O207 C187 1.289 . S
O208 Ho184 2.381 . S
O208 C194 1.275 . S
O209 Ho184 2.669 . S
O209 Ho185 2.305 . S
O209 C194 1.256 . S
O210 Ho185 2.322 . S
O210 C195 1.259 . S
O211 Ho184 2.346 . S
O211 C195 1.268 . S
O212 Ho185 2.378 . S
O212 C196 1.215 . S
O213 Ho185 2.524 . S
O213 C196 1.289 . S
O214 Ho185 2.381 . S
O214 C203 1.275 . S
O215 Ho184 2.305 . S
O215 Ho185 2.669 . S
O215 C203 1.256 . S
H216 C189 0.930 . S
H217 C190 0.931 . S
H218 C192 0.934 1_554 S
H219 C193 0.930 . S
H220 C198 0.930 . S
H221 C199 0.931 . S
H222 C201 0.934 . S
H223 C202 0.930 . S
Ho224 C227 2.811 . S
Ho224 O244 2.322 . S
Ho224 O246 2.378 . S
Ho224 O247 2.524 . S
Ho224 O248 2.381 . S
Ho224 O249 2.669 1_655 S
Ho224 O251 2.346 1_655 S
Ho224 O255 2.305 . S
Ho225 C236 2.811 . S
Ho225 O245 2.346 1_455 S
Ho225 O249 2.305 . S
Ho225 O250 2.322 . S
Ho225 O252 2.378 . S
Ho225 O253 2.524 . S
Ho225 O254 2.381 . S
Ho225 O255 2.669 1_455 S
C226 O244 1.259 . S
C226 O245 1.268 . S
C227 Ho224 2.811 . S
C227 C228 1.488 . S
C227 O246 1.215 . S
C227 O247 1.289 . S
C228 C227 1.488 . S
C228 C229 1.348 . S
C228 C233 1.413 . S
C229 C228 1.348 . S
C229 C230 1.442 1_556 S
C229 H256 0.930 . S
C230 C229 1.442 1_554 S
C230 C231 1.381 . S
C230 H257 0.931 . S
C231 C230 1.381 . S
C231 C232 1.321 1_554 S
C232 C231 1.321 1_556 S
C232 C233 1.403 . S
C232 H258 0.934 1_556 S
C233 C228 1.413 . S
C233 C232 1.403 . S
C233 H259 0.930 . S
C234 O248 1.282 . S
C234 O249 1.252 1_655 S
C235 O250 1.259 . S
C235 O251 1.268 . S
C236 Ho225 2.811 . S
C236 C237 1.488 . S
C236 O252 1.215 . S
C236 O253 1.289 . S
C237 C236 1.488 . S
C237 C238 1.348 . S
C237 C242 1.413 . S
C238 C237 1.348 . S
C238 C239 1.442 . S
C238 H260 0.930 . S
C239 C238 1.442 . S
C239 C240 1.381 . S
C239 H261 0.931 . S
C240 C239 1.381 . S
C240 C241 1.321 . S
C241 C240 1.321 . S
C241 C242 1.403 . S
C241 H262 0.934 . S
C242 C237 1.413 . S
C242 C241 1.403 . S
C242 H263 0.930 . S
C243 O254 1.275 . S
C243 O255 1.256 1_455 S
O244 Ho224 2.322 . S
O244 C226 1.259 . S
O245 Ho225 2.346 1_655 S
O245 C226 1.268 . S
O246 Ho224 2.378 . S
O246 C227 1.215 . S
O247 Ho224 2.524 . S
O247 C227 1.289 . S
O248 Ho224 2.381 . S
O248 C234 1.282 . S
O249 Ho224 2.669 1_455 S
O249 Ho225 2.305 . S
O249 C234 1.252 1_455 S
O250 Ho225 2.322 . S
O250 C235 1.259 . S
O251 Ho224 2.346 1_455 S
O251 C235 1.268 . S
O252 Ho225 2.378 . S
O252 C236 1.215 . S
O253 Ho225 2.524 . S
O253 C236 1.289 . S
O254 Ho225 2.381 . S
O254 C243 1.275 . S
O255 Ho224 2.305 . S
O255 Ho225 2.669 1_655 S
O255 C243 1.256 1_655 S
H256 C229 0.930 . S
H257 C230 0.931 . S
H258 C232 0.934 1_554 S
H259 C233 0.930 . S
H260 C238 0.930 . S
H261 C239 0.931 . S
H262 C241 0.934 . S
H263 C242 0.930 . S
C264 C265 1.349 1_565 S
C264 C266 1.327 . S
C264 H289 0.950 . S
C265 C264 1.349 1_545 S
C265 C281 1.349 . S
C266 C264 1.327 . S
C266 C285 1.429 1_565 S
C266 H290 0.950 . S
C267 C284 1.574 . S
C267 C286 1.368 . S
C267 H291 0.949 . S
H268 C272 0.949 . S
C269 C270 1.349 . S
C269 C271 1.327 . S
C269 H292 0.950 . S
C270 C269 1.349 . S
C270 C282 1.349 1_545 S
C271 C269 1.327 . S
C271 C287 1.429 . S
C271 H293 0.950 . S
C272 H268 0.949 . S
C272 C280 1.574 . S
C272 C288 1.368 1_565 S
H273 C281 0.950 . S
H274 C279 0.950 . S
H275 C280 0.949 . S
H276 C282 0.950 . S
H277 C283 0.950 . S
H278 C284 0.949 . S
C279 H274 0.950 . S
C279 C281 1.327 . S
C279 C285 1.429 . S
C280 C272 1.574 . S
C280 H275 0.949 . S
C280 C286 1.368 1_565 S
C281 C265 1.349 . S
C281 H273 0.950 . S
C281 C279 1.327 . S
C282 C270 1.349 1_565 S
C282 H276 0.950 . S
C282 C283 1.327 . S
C283 H277 0.950 . S
C283 C282 1.327 . S
C283 C287 1.429 1_565 S
C284 C267 1.574 . S
C284 H278 0.949 . S
C284 C288 1.368 . S
C285 C266 1.429 1_545 S
C285 C279 1.429 . S
C285 C286 1.523 . S
C286 C267 1.368 . S
C286 C280 1.368 1_545 S
C286 C285 1.523 . S
C287 C271 1.429 . S
C287 C283 1.429 1_545 S
C287 C288 1.523 . S
C288 C272 1.368 1_545 S
C288 C284 1.368 . S
C288 C287 1.523 . S
H289 C264 0.950 . S
H290 C266 0.950 . S
H291 C267 0.949 . S
H292 C269 0.950 . S
H293 C271 0.950 . S
C294 C295 1.349 . S
C294 C296 1.327 . S
C294 H319 0.950 . S
C295 C294 1.349 . S
C295 C311 1.349 . S
C296 C294 1.327 . S
C296 C315 1.429 . S
C296 H320 0.950 . S
C297 C314 1.574 . S
C297 C316 1.368 . S
C297 H321 0.949 . S
H298 C302 0.949 . S
C299 C300 1.349 . S
C299 C301 1.327 . S
C299 H322 0.950 . S
C300 C299 1.349 . S
C300 C312 1.349 . S
C301 C299 1.327 . S
C301 C317 1.429 . S
C301 H323 0.950 . S
C302 H298 0.949 . S
C302 C310 1.574 . S
C302 C318 1.368 . S
H303 C311 0.950 . S
H304 C309 0.950 . S
H305 C310 0.949 . S
H306 C312 0.950 . S
H307 C313 0.950 . S
H308 C314 0.949 . S
C309 H304 0.950 . S
C309 C311 1.327 . S
C309 C315 1.429 . S
C310 C302 1.574 . S
C310 H305 0.949 . S
C310 C316 1.368 . S
C311 C295 1.349 . S
C311 H303 0.950 . S
C311 C309 1.327 . S
C312 C300 1.349 . S
C312 H306 0.950 . S
C312 C313 1.327 . S
C313 H307 0.950 . S
C313 C312 1.327 . S
C313 C317 1.429 . S
C314 C297 1.574 . S
C314 H308 0.949 . S
C314 C318 1.368 . S
C315 C296 1.429 . S
C315 C309 1.429 . S
C315 C316 1.523 . S
C316 C297 1.368 . S
C316 C310 1.368 . S
C316 C315 1.523 . S
C317 C301 1.429 . S
C317 C313 1.429 . S
C317 C318 1.523 . S
C318 C302 1.368 . S
C318 C314 1.368 . S
C318 C317 1.523 . S
H319 C294 0.950 . S
H320 C296 0.950 . S
H321 C297 0.949 . S
H322 C299 0.950 . S
H323 C301 0.950 . S
C324 C325 1.349 . S
C324 C326 1.327 . S
C324 H349 0.950 . S
C325 C324 1.349 . S
C325 C341 1.349 . S
C326 C324 1.327 . S
C326 C345 1.429 . S
C326 H350 0.950 . S
C327 C344 1.574 . S
C327 C346 1.368 . S
C327 H351 0.949 . S
H328 C332 0.949 . S
C329 C330 1.349 . S
C329 C331 1.327 . S
C329 H352 0.950 . S
C330 C329 1.349 . S
C330 C342 1.349 . S
C331 C329 1.327 . S
C331 C347 1.429 . S
C331 H353 0.950 . S
C332 H328 0.949 . S
C332 C340 1.574 . S
C332 C348 1.368 . S
H333 C341 0.950 . S
H334 C339 0.950 . S
H335 C340 0.949 . S
H336 C342 0.950 . S
H337 C343 0.950 . S
H338 C344 0.949 . S
C339 H334 0.950 . S
C339 C341 1.327 . S
C339 C345 1.429 . S
C340 C332 1.574 . S
C340 H335 0.949 . S
C340 C346 1.368 . S
C341 C325 1.349 . S
C341 H333 0.950 . S
C341 C339 1.327 . S
C342 C330 1.349 . S
C342 H336 0.950 . S
C342 C343 1.327 . S
C343 H337 0.950 . S
C343 C342 1.327 . S
C343 C347 1.429 . S
C344 C327 1.574 . S
C344 H338 0.949 . S
C344 C348 1.368 . S
C345 C326 1.429 . S
C345 C339 1.429 . S
C345 C346 1.523 . S
C346 C327 1.368 . S
C346 C340 1.368 . S
C346 C345 1.523 . S
C347 C331 1.429 . S
C347 C343 1.429 . S
C347 C348 1.523 . S
C348 C332 1.368 . S
C348 C344 1.368 . S
C348 C347 1.523 . S
H349 C324 0.950 . S
H350 C326 0.950 . S
H351 C327 0.949 . S
H352 C329 0.950 . S
H353 C331 0.950 . S
C354 C355 1.349 1_655 S
C354 C356 1.327 . S
C354 H379 0.950 . S
C355 C354 1.349 1_455 S
C355 C371 1.349 . S
C356 C354 1.327 . S
C356 C375 1.429 1_655 S
C356 H380 0.950 . S
C357 C374 1.574 . S
C357 C376 1.368 . S
C357 H381 0.949 . S
H358 C362 0.949 . S
C359 C360 1.349 . S
C359 C361 1.327 . S
C359 H382 0.950 . S
C360 C359 1.349 . S
C360 C372 1.349 1_455 S
C361 C359 1.327 . S
C361 C377 1.429 . S
C361 H383 0.950 . S
C362 H358 0.949 . S
C362 C370 1.574 . S
C362 C378 1.368 1_655 S
H363 C371 0.950 . S
H364 C369 0.950 . S
H365 C370 0.949 . S
H366 C372 0.950 . S
H367 C373 0.950 . S
H368 C374 0.949 . S
C369 H364 0.950 . S
C369 C371 1.327 . S
C369 C375 1.429 . S
C370 C362 1.574 . S
C370 H365 0.949 . S
C370 C376 1.368 1_655 S
C371 C355 1.349 . S
C371 H363 0.950 . S
C371 C369 1.327 . S
C372 C360 1.349 1_655 S
C372 H366 0.950 . S
C372 C373 1.327 . S
C373 H367 0.950 . S
C373 C372 1.327 . S
C373 C377 1.429 1_655 S
C374 C357 1.574 . S
C374 H368 0.949 . S
C374 C378 1.368 . S
C375 C356 1.429 1_455 S
C375 C369 1.429 . S
C375 C376 1.523 . S
C376 C357 1.368 . S
C376 C370 1.368 1_455 S
C376 C375 1.523 . S
C377 C361 1.429 . S
C377 C373 1.429 1_455 S
C377 C378 1.523 . S
C378 C362 1.368 1_455 S
C378 C374 1.368 . S
C378 C377 1.523 . S
H379 C354 0.950 . S
H380 C356 0.950 . S
H381 C357 0.949 . S
H382 C359 0.950 . S
H383 C361 0.950 . S
C384 C385 1.380 . S
C384 C386 1.327 . S
C384 H409 0.950 . S
C385 C384 1.380 . S
C385 C401 1.319 1_565 S
C386 C384 1.327 . S
C386 C405 1.463 . S
C386 H410 0.950 . S
C387 C404 1.574 . S
C387 C406 1.328 1_545 S
C387 H411 0.949 . S
H388 C392 0.949 1_556 S
C389 C390 1.349 1_545 S
C389 C391 1.327 . S
C389 H412 0.950 . S
C390 C389 1.349 1_565 S
C390 C402 1.349 . S
C391 C389 1.327 . S
C391 C407 1.429 1_545 S
C391 H413 0.950 1_556 S
C392 H388 0.949 1_554 S
C392 C400 1.574 . S
C392 C408 1.368 . S
H393 C401 0.950 . S
H394 C399 0.950 . S
H395 C400 0.949 . S
H396 C402 0.950 . S
H397 C403 0.950 . S
H398 C404 0.949 . S
C399 H394 0.950 . S
C399 C401 1.327 . S
C399 C405 1.395 1_545 S
C400 C392 1.574 . S
C400 H395 0.949 . S
C400 C406 1.409 . S
C401 C385 1.319 1_545 S
C401 H393 0.950 . S
C401 C399 1.327 . S
C402 C390 1.349 . S
C402 H396 0.950 . S
C402 C403 1.327 . S
C403 H397 0.950 . S
C403 C402 1.327 . S
C403 C407 1.429 . S
C404 C387 1.574 . S
C404 H398 0.949 . S
C404 C408 1.368 1_545 S
C405 C386 1.463 . S
C405 C399 1.395 1_565 S
C405 C406 1.523 . S
C406 C387 1.328 1_565 S
C406 C400 1.409 . S
C406 C405 1.523 . S
C407 C391 1.429 1_565 S
C407 C403 1.429 . S
C407 C408 1.523 1_556 S
C408 C392 1.368 . S
C408 C404 1.368 1_565 S
C408 C407 1.523 1_554 S
H409 C384 0.950 . S
H410 C386 0.950 . S
H411 C387 0.949 . S
H412 C389 0.950 . S
H413 C391 0.950 1_554 S
C414 C415 1.349 . S
C414 C416 1.327 . S
C414 H439 0.950 . S
C415 C414 1.349 . S
C415 C431 1.349 . S
C416 C414 1.327 . S
C416 C435 1.429 . S
C416 H440 0.950 . S
C417 C434 1.574 . S
C417 C436 1.368 . S
C417 H441 0.949 . S
H418 C422 0.949 1_556 S
C419 C420 1.349 . S
C419 C421 1.327 . S
C419 H442 0.950 . S
C420 C419 1.349 . S
C420 C432 1.349 . S
C421 C419 1.327 . S
C421 C437 1.429 . S
C421 H443 0.950 1_556 S
C422 H418 0.949 1_554 S
C422 C430 1.574 . S
C422 C438 1.368 . S
H423 C431 0.950 . S
H424 C429 0.950 . S
H425 C430 0.949 . S
H426 C432 0.950 . S
H427 C433 0.950 . S
H428 C434 0.949 . S
C429 H424 0.950 . S
C429 C431 1.327 . S
C429 C435 1.429 . S
C430 C422 1.574 . S
C430 H425 0.949 . S
C430 C436 1.368 . S
C431 C415 1.349 . S
C431 H423 0.950 . S
C431 C429 1.327 . S
C432 C420 1.349 . S
C432 H426 0.950 . S
C432 C433 1.327 . S
C433 H427 0.950 . S
C433 C432 1.327 . S
C433 C437 1.429 . S
C434 C417 1.574 . S
C434 H428 0.949 . S
C434 C438 1.368 . S
C435 C416 1.429 . S
C435 C429 1.429 . S
C435 C436 1.523 . S
C436 C417 1.368 . S
C436 C430 1.368 . S
C436 C435 1.523 . S
C437 C421 1.429 . S
C437 C433 1.429 . S
C437 C438 1.523 1_556 S
C438 C422 1.368 . S
C438 C434 1.368 . S
C438 C437 1.523 1_554 S
H439 C414 0.950 . S
H440 C416 0.950 . S
H441 C417 0.949 . S
H442 C419 0.950 . S
H443 C421 0.950 1_554 S
C444 C445 1.349 . S
C444 C446 1.327 . S
C444 H469 0.950 . S
C445 C444 1.349 . S
C445 C461 1.349 . S
C446 C444 1.327 . S
C446 C465 1.429 . S
C446 H470 0.950 . S
C447 C464 1.574 . S
C447 C466 1.368 . S
C447 H471 0.949 . S
H448 C452 0.949 1_556 S
C449 C450 1.349 . S
C449 C451 1.327 . S
C449 H472 0.950 . S
C450 C449 1.349 . S
C450 C462 1.349 . S
C451 C449 1.327 . S
C451 C467 1.429 . S
C451 H473 0.950 1_556 S
C452 H448 0.949 1_554 S
C452 C460 1.574 . S
C452 C468 1.368 . S
H453 C461 0.950 . S
H454 C459 0.950 . S
H455 C460 0.949 . S
H456 C462 0.950 . S
H457 C463 0.950 . S
H458 C464 0.949 . S
C459 H454 0.950 . S
C459 C461 1.327 . S
C459 C465 1.429 . S
C460 C452 1.574 . S
C460 H455 0.949 . S
C460 C466 1.368 . S
C461 C445 1.349 . S
C461 H453 0.950 . S
C461 C459 1.327 . S
C462 C450 1.349 . S
C462 H456 0.950 . S
C462 C463 1.327 . S
C463 H457 0.950 . S
C463 C462 1.327 . S
C463 C467 1.429 . S
C464 C447 1.574 . S
C464 H458 0.949 . S
C464 C468 1.368 . S
C465 C446 1.429 . S
C465 C459 1.429 . S
C465 C466 1.523 . S
C466 C447 1.368 . S
C466 C460 1.368 . S
C466 C465 1.523 . S
C467 C451 1.429 . S
C467 C463 1.429 . S
C467 C468 1.523 1_556 S
C468 C452 1.368 . S
C468 C464 1.368 . S
C468 C467 1.523 1_554 S
H469 C444 0.950 . S
H470 C446 0.950 . S
H471 C447 0.949 . S
H472 C449 0.950 . S
H473 C451 0.950 1_554 S
C474 C475 1.358 . S
C474 C476 1.327 . S
C474 H499 0.950 . S
C475 C474 1.358 . S
C475 C491 1.341 1_655 S
C476 C474 1.327 . S
C476 C495 1.439 . S
C476 H500 0.950 . S
C477 C494 1.574 . S
C477 C496 1.357 1_455 S
C477 H501 0.949 . S
H478 C482 0.949 . S
C479 C480 1.335 1_455 S
C479 C481 1.327 . S
C479 H502 0.950 . S
C480 C479 1.335 1_655 S
C480 C492 1.365 . S
C481 C479 1.327 . S
C481 C497 1.416 1_455 S
C481 H503 0.950 . S
C482 H478 0.949 . S
C482 C490 1.574 . S
C482 C498 1.383 . S
H483 C491 0.950 . S
H484 C489 0.950 . S
H485 C490 0.949 . S
H486 C492 0.950 . S
H487 C493 0.950 1_554 S
H488 C494 0.949 1_556 S
C489 H484 0.950 . S
C489 C491 1.327 . S
C489 C495 1.419 1_455 S
C490 C482 1.574 . S
C490 H485 0.949 . S
C490 C496 1.381 . S
C491 C475 1.341 1_455 S
C491 H483 0.950 . S
C491 C489 1.327 . S
C492 C480 1.365 . S
C492 H486 0.950 . S
C492 C493 1.327 . S
C493 H487 0.950 1_556 S
C493 C492 1.327 . S
C493 C497 1.443 . S
C494 C477 1.574 . S
C494 H488 0.949 1_554 S
C494 C498 1.355 1_455 S
C495 C476 1.439 . S
C495 C489 1.419 1_655 S
C495 C496 1.523 . S
C496 C477 1.357 1_655 S
C496 C490 1.381 . S
C496 C495 1.523 . S
C497 C481 1.416 1_655 S
C497 C493 1.443 . S
C497 C498 1.523 1_556 S
C498 C482 1.383 . S
C498 C494 1.355 1_655 S
C498 C497 1.523 1_554 S
H499 C474 0.950 . S
H500 C476 0.950 . S
H501 C477 0.949 . S
H502 C479 0.950 . S
H503 C481 0.950 . S
C504 C505 1.349 1_655 S
C504 C506 1.327 . S
C504 H529 0.950 . S
C505 C504 1.349 1_455 S
C505 C521 1.349 . S
C506 C504 1.327 . S
C506 C525 1.429 . S
C506 H530 0.950 . S
C507 C524 1.574 . S
C507 C526 1.368 1_455 S
C507 H531 0.949 . S
H508 C512 0.949 . S
C509 C510 1.349 . S
C509 C511 1.327 . S
C509 H532 0.950 1_655 S
C510 C509 1.349 . S
C510 C522 1.349 . S
C511 C509 1.327 . S
C511 C527 1.429 . S
C511 H533 0.950 1_655 S
C512 H508 0.949 . S
C512 C520 1.574 . S
C512 C528 1.368 . S
H513 C521 0.950 . S
H514 C519 0.950 . S
H515 C520 0.949 . S
H516 C522 0.950 . S
H517 C523 0.950 . S
H518 C524 0.949 . S
C519 H514 0.950 . S
C519 C521 1.327 . S
C519 C525 1.429 1_455 S
C520 C512 1.574 . S
C520 H515 0.949 . S
C520 C526 1.368 . S
C521 C505 1.349 . S
C521 H513 0.950 . S
C521 C519 1.327 . S
C522 C510 1.349 . S
C522 H516 0.950 . S
C522 C523 1.327 . S
C523 H517 0.950 . S
C523 C522 1.327 . S
C523 C527 1.429 . S
C524 C507 1.574 . S
C524 H518 0.949 . S
C524 C528 1.368 1_455 S
C525 C506 1.429 . S
C525 C519 1.429 1_655 S
C525 C526 1.523 . S
C526 C507 1.368 1_655 S
C526 C520 1.368 . S
C526 C525 1.523 . S
C527 C511 1.429 . S
C527 C523 1.429 . S
C527 C528 1.523 . S
C528 C512 1.368 . S
C528 C524 1.368 1_655 S
C528 C527 1.523 . S
H529 C504 0.950 . S
H530 C506 0.950 . S
H531 C507 0.949 . S
H532 C509 0.950 1_455 S
H533 C511 0.950 1_455 S
C534 C535 1.349 1_565 S
C534 C536 1.327 . S
C534 H559 0.950 1_554 S
C535 C534 1.349 1_545 S
C535 C551 1.349 . S
C536 C534 1.327 . S
C536 C555 1.429 . S
C536 H560 0.950 . S
C537 C554 1.575 . S
C537 C556 1.370 . S
C537 H561 0.947 1_565 S
H538 C542 0.949 . S
C539 C540 1.349 . S
C539 C541 1.327 . S
C539 H562 0.950 . S
C540 C539 1.349 . S
C540 C552 1.349 . S
C541 C539 1.327 . S
C541 C557 1.429 . S
C541 H563 0.950 . S
C542 H538 0.949 . S
C542 C550 1.574 . S
C542 C558 1.368 . S
H543 C551 0.950 . S
H544 C549 0.950 . S
H545 C550 0.949 . S
H546 C552 0.950 . S
H547 C553 0.950 . S
H548 C554 0.940 1_545 S
C549 H544 0.950 . S
C549 C551 1.327 . S
C549 C555 1.429 1_545 S
C550 C542 1.574 . S
C550 H545 0.949 . S
C550 C556 1.368 . S
C551 C535 1.349 . S
C551 H543 0.950 . S
C551 C549 1.327 . S
C552 C540 1.349 . S
C552 H546 0.950 . S
C552 C553 1.327 . S
C553 H547 0.950 . S
C553 C552 1.327 . S
C553 C557 1.429 . S
C554 C537 1.575 . S
C554 H548 0.940 1_565 S
C554 C558 1.368 . S
C555 C536 1.429 . S
C555 C549 1.429 1_565 S
C555 C556 1.523 . S
C556 C537 1.370 . S
C556 C550 1.368 . S
C556 C555 1.523 . S
C557 C541 1.429 . S
C557 C553 1.429 . S
C557 C558 1.523 . S
C558 C542 1.368 . S
C558 C554 1.368 . S
C558 C557 1.523 . S
H559 C534 0.950 1_556 S
H560 C536 0.950 . S
H561 C537 0.947 1_545 S
H562 C539 0.950 . S
H563 C541 0.950 . S
C564 C565 1.349 . S
C564 C566 1.327 . S
C564 H589 0.950 1_554 S
C565 C564 1.349 . S
C565 C581 1.349 . S
C566 C564 1.327 . S
C566 C585 1.429 . S
C566 H590 0.950 . S
C567 C584 1.574 . S
C567 C586 1.368 . S
C567 H591 0.949 . S
H568 C572 0.949 . S
C569 C570 1.349 . S
C569 C571 1.327 . S
C569 H592 0.950 . S
C570 C569 1.349 . S
C570 C582 1.349 . S
C571 C569 1.327 . S
C571 C587 1.429 . S
C571 H593 0.950 . S
C572 H568 0.949 . S
C572 C580 1.574 . S
C572 C588 1.368 . S
H573 C581 0.950 . S
H574 C579 0.950 . S
H575 C580 0.949 . S
H576 C582 0.950 . S
H577 C583 0.950 . S
H578 C584 0.949 . S
C579 H574 0.950 . S
C579 C581 1.327 . S
C579 C585 1.429 . S
C580 C572 1.574 . S
C580 H575 0.949 . S
C580 C586 1.368 . S
C581 C565 1.349 . S
C581 H573 0.950 . S
C581 C579 1.327 . S
C582 C570 1.349 . S
C582 H576 0.950 . S
C582 C583 1.327 . S
C583 H577 0.950 . S
C583 C582 1.327 . S
C583 C587 1.429 . S
C584 C567 1.574 . S
C584 H578 0.949 . S
C584 C588 1.368 . S
C585 C566 1.429 . S
C585 C579 1.429 . S
C585 C586 1.523 . S
C586 C567 1.368 . S
C586 C580 1.368 . S
C586 C585 1.523 . S
C587 C571 1.429 . S
C587 C583 1.429 . S
C587 C588 1.523 . S
C588 C572 1.368 . S
C588 C584 1.368 . S
C588 C587 1.523 . S
H589 C564 0.950 1_556 S
H590 C566 0.950 . S
H591 C567 0.949 . S
H592 C569 0.950 . S
H593 C571 0.950 . S
C594 C595 1.349 . S
C594 C596 1.327 . S
C594 H619 0.950 1_554 S
C595 C594 1.349 . S
C595 C611 1.349 . S
C596 C594 1.327 . S
C596 C615 1.429 . S
C596 H620 0.950 . S
C597 C614 1.574 . S
C597 C616 1.368 . S
C597 H621 0.949 . S
H598 C602 0.949 . S
C599 C600 1.349 . S
C599 C601 1.327 . S
C599 H622 0.950 . S
C600 C599 1.349 . S
C600 C612 1.349 . S
C601 C599 1.327 . S
C601 C617 1.429 . S
C601 H623 0.950 . S
C602 H598 0.949 . S
C602 C610 1.574 . S
C602 C618 1.368 . S
H603 C611 0.950 . S
H604 C609 0.950 . S
H605 C610 0.949 . S
H606 C612 0.950 . S
H607 C613 0.950 . S
H608 C614 0.949 . S
C609 H604 0.950 . S
C609 C611 1.327 . S
C609 C615 1.429 . S
C610 C602 1.574 . S
C610 H605 0.949 . S
C610 C616 1.368 . S
C611 C595 1.349 . S
C611 H603 0.950 . S
C611 C609 1.327 . S
C612 C600 1.349 . S
C612 H606 0.950 . S
C612 C613 1.327 . S
C613 H607 0.950 . S
C613 C612 1.327 . S
C613 C617 1.429 . S
C614 C597 1.574 . S
C614 H608 0.949 . S
C614 C618 1.368 . S
C615 C596 1.429 . S
C615 C609 1.429 . S
C615 C616 1.523 . S
C616 C597 1.368 . S
C616 C610 1.368 . S
C616 C615 1.523 . S
C617 C601 1.429 . S
C617 C613 1.429 . S
C617 C618 1.523 . S
C618 C602 1.368 . S
C618 C614 1.368 . S
C618 C617 1.523 . S
H619 C594 0.950 1_556 S
H620 C596 0.950 . S
H621 C597 0.949 . S
H622 C599 0.950 . S
H623 C601 0.950 . S
C624 C625 1.349 1_455 S
C624 C626 1.327 . S
C624 H649 0.950 . S
C625 C624 1.349 1_655 S
C625 C641 1.349 . S
C626 C624 1.327 . S
C626 C645 1.429 . S
C626 H650 0.950 . S
C627 C644 1.572 1_655 S
C627 C646 1.363 1_655 S
C627 H651 0.956 . S
H628 C632 0.949 . S
C629 C630 1.349 1_556 S
C629 C631 1.327 1_556 S
C629 H652 0.950 . S
C630 C629 1.349 1_554 S
C630 C642 1.349 . S
C631 C629 1.327 1_554 S
C631 C647 1.429 . S
C631 H653 0.949 1_554 S
C632 H628 0.949 . S
C632 C640 1.574 . S
C632 C648 1.368 . S
H633 C641 0.950 . S
H634 C639 0.950 . S
H635 C640 0.949 . S
H636 C642 0.950 . S
H637 C643 0.950 . S
H638 C644 0.949 1_655 S
C639 H634 0.950 . S
C639 C641 1.327 . S
C639 C645 1.429 1_655 S
C640 C632 1.574 . S
C640 H635 0.949 . S
C640 C646 1.368 . S
C641 C625 1.349 . S
C641 H633 0.950 . S
C641 C639 1.327 . S
C642 C630 1.349 . S
C642 H636 0.950 . S
C642 C643 1.327 . S
C643 H637 0.950 . S
C643 C642 1.327 . S
C643 C647 1.429 . S
C644 C627 1.572 1_455 S
C644 H638 0.949 1_455 S
C644 C648 1.368 . S
C645 C626 1.429 . S
C645 C639 1.429 1_455 S
C645 C646 1.523 . S
C646 C627 1.363 1_455 S
C646 C640 1.368 . S
C646 C645 1.523 . S
C647 C631 1.429 . S
C647 C643 1.429 . S
C647 C648 1.523 . S
C648 C632 1.368 . S
C648 C644 1.368 . S
C648 C647 1.523 . S
H649 C624 0.950 . S
H650 C626 0.950 . S
H651 C627 0.956 . S
H652 C629 0.950 . S
H653 C631 0.949 1_556 S
C654 C655 1.349 1_545 S
C654 C656 1.327 . S
C654 H679 0.950 . S
C655 C654 1.349 1_565 S
C655 C671 1.349 . S
C656 C654 1.327 . S
C656 C675 1.429 . S
C656 H680 0.950 . S
C657 C674 1.574 . S
C657 C676 1.368 1_565 S
C657 H681 0.949 . S
H658 C662 0.949 . S
C659 C660 1.349 . S
C659 C661 1.327 . S
C659 H682 0.971 . S
C660 C659 1.349 . S
C660 C672 1.349 . S
C661 C659 1.327 . S
C661 C677 1.429 . S
C661 H683 0.950 1_545 S
C662 H658 0.949 . S
C662 C670 1.574 . S
C662 C678 1.368 . S
H663 C671 0.950 . S
H664 C669 0.950 . S
H665 C670 0.949 . S
H666 C672 0.950 1_556 S
H667 C673 0.950 . S
H668 C674 0.949 . S
C669 H664 0.950 . S
C669 C671 1.327 . S
C669 C675 1.429 1_565 S
C670 C662 1.574 . S
C670 H665 0.949 . S
C670 C676 1.368 . S
C671 C655 1.349 . S
C671 H663 0.950 . S
C671 C669 1.327 . S
C672 C660 1.349 . S
C672 H666 0.950 1_554 S
C672 C673 1.327 . S
C673 H667 0.950 . S
C673 C672 1.327 . S
C673 C677 1.429 . S
C674 C657 1.574 . S
C674 H668 0.949 . S
C674 C678 1.368 1_565 S
C675 C656 1.429 . S
C675 C669 1.429 1_545 S
C675 C676 1.523 . S
C676 C657 1.368 1_545 S
C676 C670 1.368 . S
C676 C675 1.523 . S
C677 C661 1.429 . S
C677 C673 1.429 . S
C677 C678 1.523 . S
C678 C662 1.368 . S
C678 C674 1.368 1_545 S
C678 C677 1.523 . S
H679 C654 0.950 . S
H680 C656 0.950 . S
H681 C657 0.949 . S
H682 C659 0.971 . S
H683 C661 0.950 1_565 S
C684 C685 1.349 . S
C684 C686 1.327 . S
C684 H709 0.950 . S
C685 C684 1.349 . S
C685 C701 1.349 . S
C686 C684 1.327 . S
C686 C705 1.429 . S
C686 H710 0.950 . S
C687 C704 1.574 . S
C687 C706 1.368 . S
C687 H711 0.949 . S
H688 C692 0.949 . S
C689 C690 1.349 . S
C689 C691 1.327 . S
C689 H712 0.950 . S
C690 C689 1.349 . S
C690 C702 1.349 1_554 S
C691 C689 1.327 . S
C691 C707 1.429 . S
C691 H713 0.950 . S
C692 H688 0.949 . S
C692 C700 1.574 . S
C692 C708 1.368 . S
H693 C701 0.950 . S
H694 C699 0.950 . S
H695 C700 0.949 . S
H696 C702 0.950 . S
H697 C703 0.950 1_556 S
H698 C704 0.949 . S
C699 H694 0.950 . S
C699 C701 1.327 . S
C699 C705 1.429 . S
C700 C692 1.574 . S
C700 H695 0.949 . S
C700 C706 1.368 . S
C701 C685 1.349 . S
C701 H693 0.950 . S
C701 C699 1.327 . S
C702 C690 1.349 1_556 S
C702 H696 0.950 . S
C702 C703 1.327 1_556 S
C703 H697 0.950 1_554 S
C703 C702 1.327 1_554 S
C703 C707 1.429 . S
C704 C687 1.574 . S
C704 H698 0.949 . S
C704 C708 1.368 . S
C705 C686 1.429 . S
C705 C699 1.429 . S
C705 C706 1.523 . S
C706 C687 1.368 . S
C706 C700 1.368 . S
C706 C705 1.523 . S
C707 C691 1.429 . S
C707 C703 1.429 . S
C707 C708 1.523 . S
C708 C692 1.368 . S
C708 C704 1.368 . S
C708 C707 1.523 . S
H709 C684 0.950 . S
H710 C686 0.950 . S
H711 C687 0.949 . S
H712 C689 0.950 . S
H713 C691 0.950 . S
C714 C715 1.349 . S
C714 C716 1.327 . S
C714 H739 0.950 . S
C715 C714 1.349 . S
C715 C731 1.349 . S
C716 C714 1.327 . S
C716 C735 1.429 . S
C716 H740 0.950 . S
C717 C734 1.574 . S
C717 C736 1.368 . S
C717 H741 0.949 . S
H718 C722 0.949 . S
C719 C720 1.349 . S
C719 C721 1.327 . S
C719 H742 0.950 . S
C720 C719 1.349 . S
C720 C732 1.349 1_554 S
C721 C719 1.327 . S
C721 C737 1.429 . S
C721 H743 0.950 . S
C722 H718 0.949 . S
C722 C730 1.574 . S
C722 C738 1.368 . S
H723 C731 0.950 . S
H724 C729 0.950 . S
H725 C730 0.949 . S
H726 C732 0.950 . S
H727 C733 0.950 1_556 S
H728 C734 0.949 . S
C729 H724 0.950 . S
C729 C731 1.327 . S
C729 C735 1.429 . S
C730 C722 1.574 . S
C730 H725 0.949 . S
C730 C736 1.368 . S
C731 C715 1.349 . S
C731 H723 0.950 . S
C731 C729 1.327 . S
C732 C720 1.349 1_556 S
C732 H726 0.950 . S
C732 C733 1.327 1_556 S
C733 H727 0.950 1_554 S
C733 C732 1.327 1_554 S
C733 C737 1.429 . S
C734 C717 1.574 . S
C734 H728 0.949 . S
C734 C738 1.368 . S
C735 C716 1.429 . S
C735 C729 1.429 . S
C735 C736 1.523 . S
C736 C717 1.368 . S
C736 C730 1.368 . S
C736 C735 1.523 . S
C737 C721 1.429 . S
C737 C733 1.429 . S
C737 C738 1.523 . S
C738 C722 1.368 . S
C738 C734 1.368 . S
C738 C737 1.523 . S
H739 C714 0.950 . S
H740 C716 0.950 . S
H741 C717 0.949 . S
H742 C719 0.950 . S
H743 C721 0.950 . S
C744 C745 1.349 . S
C744 C746 1.327 . S
C744 H769 0.950 . S
C745 C744 1.349 . S
C745 C761 1.349 1_455 S
C746 C744 1.327 . S
C746 C765 1.429 . S
C746 H770 0.950 . S
C747 C764 1.574 . S
C747 C766 1.368 1_655 S
C747 H771 0.949 . S
H748 C752 0.949 . S
C749 C750 1.349 1_655 S
C749 C751 1.327 . S
C749 H772 0.950 . S
C750 C749 1.349 1_455 S
C750 C762 1.349 . S
C751 C749 1.327 . S
C751 C767 1.429 1_655 S
C751 H773 0.950 . S
C752 H748 0.949 . S
C752 C760 1.574 . S
C752 C768 1.368 . S
H753 C761 0.950 1_554 S
H754 C759 0.950 . S
H755 C760 0.949 . S
H756 C762 0.950 . S
H757 C763 0.950 . S
H758 C764 0.949 . S
C759 H754 0.950 . S
C759 C761 1.327 . S
C759 C765 1.429 1_655 S
C760 C752 1.574 . S
C760 H755 0.949 . S
C760 C766 1.368 . S
C761 C745 1.349 1_655 S
C761 H753 0.950 1_556 S
C761 C759 1.327 . S
C762 C750 1.349 . S
C762 H756 0.950 . S
C762 C763 1.327 . S
C763 H757 0.950 . S
C763 C762 1.327 . S
C763 C767 1.429 . S
C764 C747 1.574 . S
C764 H758 0.949 . S
C764 C768 1.368 1_655 S
C765 C746 1.429 . S
C765 C759 1.429 1_455 S
C765 C766 1.523 . S
C766 C747 1.368 1_455 S
C766 C760 1.368 . S
C766 C765 1.523 . S
C767 C751 1.429 1_455 S
C767 C763 1.429 . S
C767 C768 1.523 . S
C768 C752 1.368 . S
C768 C764 1.368 1_455 S
C768 C767 1.523 . S
H769 C744 0.950 . S
H770 C746 0.950 . S
H771 C747 0.949 . S
H772 C749 0.950 . S
H773 C751 0.950 . S
C774 C775 1.349 . S
C774 C776 1.327 . S
C774 H799 0.950 1_556 S
C775 C774 1.349 . S
C775 C791 1.349 1_545 S
C776 C774 1.327 . S
C776 C795 1.429 . S
C776 H800 0.950 . S
C777 C794 1.574 . S
C777 C796 1.368 1_565 S
C777 H801 0.949 . S
H778 C782 0.949 . S
C779 C780 1.349 1_565 S
C779 C781 1.327 . S
C779 H802 0.950 . S
C780 C779 1.349 1_545 S
C780 C792 1.349 . S
C781 C779 1.327 . S
C781 C797 1.429 1_565 S
C781 H803 0.950 . S
C782 H778 0.949 . S
C782 C790 1.574 . S
C782 C798 1.368 . S
H783 C791 0.950 . S
H784 C789 0.950 . S
H785 C790 0.949 . S
H786 C792 0.950 . S
H787 C793 0.950 . S
H788 C794 0.949 . S
C789 H784 0.950 . S
C789 C791 1.327 . S
C789 C795 1.429 1_565 S
C790 C782 1.574 . S
C790 H785 0.949 . S
C790 C796 1.368 . S
C791 C775 1.349 1_565 S
C791 H783 0.950 . S
C791 C789 1.327 . S
C792 C780 1.349 . S
C792 H786 0.950 . S
C792 C793 1.327 . S
C793 H787 0.950 . S
C793 C792 1.327 . S
C793 C797 1.429 . S
C794 C777 1.574 . S
C794 H788 0.949 . S
C794 C798 1.368 1_565 S
C795 C776 1.429 . S
C795 C789 1.429 1_545 S
C795 C796 1.523 . S
C796 C777 1.368 1_545 S
C796 C790 1.368 . S
C796 C795 1.523 . S
C797 C781 1.429 1_545 S
C797 C793 1.429 . S
C797 C798 1.523 . S
C798 C782 1.368 . S
C798 C794 1.368 1_545 S
C798 C797 1.523 . S
H799 C774 0.950 1_554 S
H800 C776 0.950 . S
H801 C777 0.949 . S
H802 C779 0.950 . S
H803 C781 0.950 . S
C804 C805 1.349 . S
C804 C806 1.327 . S
C804 H829 0.950 1_556 S
C805 C804 1.349 . S
C805 C821 1.349 . S
C806 C804 1.327 . S
C806 C825 1.429 . S
C806 H830 0.950 1_556 S
C807 C824 1.574 . S
C807 C826 1.368 . S
C807 H831 0.949 . S
H808 C812 0.949 . S
C809 C810 1.349 . S
C809 C811 1.327 . S
C809 H832 0.950 . S
C810 C809 1.349 . S
C810 C822 1.349 . S
C811 C809 1.327 . S
C811 C827 1.429 . S
C811 H833 0.950 . S
C812 H808 0.949 . S
C812 C820 1.574 . S
C812 C828 1.368 . S
H813 C821 0.950 . S
H814 C819 0.950 . S
H815 C820 0.949 . S
H816 C822 0.950 . S
H817 C823 0.950 . S
H818 C824 0.949 . S
C819 H814 0.950 . S
C819 C821 1.327 . S
C819 C825 1.429 . S
C820 C812 1.574 . S
C820 H815 0.949 . S
C820 C826 1.368 . S
C821 C805 1.349 . S
C821 H813 0.950 . S
C821 C819 1.327 . S
C822 C810 1.349 . S
C822 H816 0.950 . S
C822 C823 1.327 . S
C823 H817 0.950 . S
C823 C822 1.327 . S
C823 C827 1.429 . S
C824 C807 1.574 . S
C824 H818 0.949 . S
C824 C828 1.368 . S
C825 C806 1.429 . S
C825 C819 1.429 . S
C825 C826 1.523 . S
C826 C807 1.368 . S
C826 C820 1.368 . S
C826 C825 1.523 . S
C827 C811 1.429 . S
C827 C823 1.429 . S
C827 C828 1.523 . S
C828 C812 1.368 . S
C828 C824 1.368 . S
C828 C827 1.523 . S
H829 C804 0.950 1_554 S
H830 C806 0.950 1_554 S
H831 C807 0.949 . S
H832 C809 0.950 . S
H833 C811 0.950 . S
C834 C835 1.349 . S
C834 C836 1.327 . S
C834 H859 0.950 . S
C835 C834 1.349 . S
C835 C851 1.349 . S
C836 C834 1.327 . S
C836 C855 1.429 . S
C836 H860 0.950 . S
C837 C854 1.574 . S
C837 C856 1.368 . S
C837 H861 0.949 . S
H838 C842 0.949 . S
C839 C840 1.349 . S
C839 C841 1.327 . S
C839 H862 0.950 . S
C840 C839 1.349 . S
C840 C852 1.349 . S
C841 C839 1.327 . S
C841 C857 1.429 . S
C841 H863 0.950 . S
C842 H838 0.949 . S
C842 C850 1.574 . S
C842 C858 1.368 . S
H843 C851 0.950 . S
H844 C849 0.950 . S
H845 C850 0.949 . S
H846 C852 0.950 . S
H847 C853 0.950 . S
H848 C854 0.949 . S
C849 H844 0.950 . S
C849 C851 1.327 . S
C849 C855 1.429 . S
C850 C842 1.574 . S
C850 H845 0.949 . S
C850 C856 1.368 . S
C851 C835 1.349 . S
C851 H843 0.950 . S
C851 C849 1.327 . S
C852 C840 1.349 . S
C852 H846 0.950 . S
C852 C853 1.327 . S
C853 H847 0.950 . S
C853 C852 1.327 . S
C853 C857 1.429 . S
C854 C837 1.574 . S
C854 H848 0.949 . S
C854 C858 1.368 . S
C855 C836 1.429 . S
C855 C849 1.429 . S
C855 C856 1.523 . S
C856 C837 1.368 . S
C856 C850 1.368 . S
C856 C855 1.523 . S
C857 C841 1.429 . S
C857 C853 1.429 . S
C857 C858 1.523 . S
C858 C842 1.368 . S
C858 C854 1.368 . S
C858 C857 1.523 . S
H859 C834 0.950 . S
H860 C836 0.950 . S
H861 C837 0.949 . S
H862 C839 0.950 . S
H863 C841 0.950 . S
C864 C865 1.349 . S
C864 C866 1.327 . S
C864 H889 0.950 . S
C865 C864 1.349 . S
C865 C881 1.349 1_655 S
C866 C864 1.327 . S
C866 C885 1.429 . S
C866 H890 0.950 . S
C867 C884 1.574 . S
C867 C886 1.368 1_455 S
C867 H891 0.949 . S
H868 C872 0.949 . S
C869 C870 1.349 1_455 S
C869 C871 1.327 . S
C869 H892 0.950 . S
C870 C869 1.349 1_655 S
C870 C882 1.349 . S
C871 C869 1.327 . S
C871 C887 1.429 1_455 S
C871 H893 0.950 . S
C872 H868 0.949 . S
C872 C880 1.574 . S
C872 C888 1.368 . S
H873 C881 0.950 . S
H874 C879 0.950 . S
H875 C880 0.949 . S
H876 C882 0.950 . S
H877 C883 0.950 . S
H878 C884 0.949 . S
C879 H874 0.950 . S
C879 C881 1.327 . S
C879 C885 1.429 1_455 S
C880 C872 1.574 . S
C880 H875 0.949 . S
C880 C886 1.368 . S
C881 C865 1.349 1_455 S
C881 H873 0.950 . S
C881 C879 1.327 . S
C882 C870 1.349 . S
C882 H876 0.950 . S
C882 C883 1.327 . S
C883 H877 0.950 . S
C883 C882 1.327 . S
C883 C887 1.429 . S
C884 C867 1.574 . S
C884 H878 0.949 . S
C884 C888 1.368 1_455 S
C885 C866 1.429 . S
C885 C879 1.429 1_655 S
C885 C886 1.523 . S
C886 C867 1.368 1_655 S
C886 C880 1.368 . S
C886 C885 1.523 . S
C887 C871 1.429 1_655 S
C887 C883 1.429 . S
C887 C888 1.523 . S
C888 C872 1.368 . S
C888 C884 1.368 1_655 S
C888 C887 1.523 . S
H889 C864 0.950 . S
H890 C866 0.950 . S
H891 C867 0.949 . S
H892 C869 0.950 . S
H893 C871 0.950 . S
C894 C895 1.349 . S
C894 C896 1.327 . S
C894 H919 0.950 . S
C895 C894 1.349 . S
C895 C911 1.349 1_565 S
C896 C894 1.327 . S
C896 C915 1.429 . S
C896 H920 0.950 . S
C897 C914 1.574 . S
C897 C916 1.368 1_545 S
C897 H921 0.949 . S
H898 C902 0.949 . S
C899 C900 1.349 1_545 S
C899 C901 1.327 . S
C899 H922 0.950 . S
C900 C899 1.349 1_565 S
C900 C912 1.349 . S
C901 C899 1.327 . S
C901 C917 1.429 1_545 S
C901 H923 0.950 . S
C902 H898 0.949 . S
C902 C910 1.574 . S
C902 C918 1.368 . S
H903 C911 0.950 . S
H904 C909 0.950 . S
H905 C910 0.949 . S
H906 C912 0.950 . S
H907 C913 0.950 . S
H908 C914 0.949 . S
C909 H904 0.950 . S
C909 C911 1.327 . S
C909 C915 1.429 1_545 S
C910 C902 1.574 . S
C910 H905 0.949 . S
C910 C916 1.368 . S
C911 C895 1.349 1_545 S
C911 H903 0.950 . S
C911 C909 1.327 . S
C912 C900 1.349 . S
C912 H906 0.950 . S
C912 C913 1.327 . S
C913 H907 0.950 . S
C913 C912 1.327 . S
C913 C917 1.429 . S
C914 C897 1.574 . S
C914 H908 0.949 . S
C914 C918 1.368 1_545 S
C915 C896 1.429 . S
C915 C909 1.429 1_565 S
C915 C916 1.523 . S
C916 C897 1.368 1_565 S
C916 C910 1.368 . S
C916 C915 1.523 . S
C917 C901 1.429 1_565 S
C917 C913 1.429 . S
C917 C918 1.523 . S
C918 C902 1.368 . S
C918 C914 1.368 1_565 S
C918 C917 1.523 . S
H919 C894 0.950 . S
H920 C896 0.950 . S
H921 C897 0.949 . S
H922 C899 0.950 . S
H923 C901 0.950 . S
C924 C925 1.349 . S
C924 C926 1.327 . S
C924 H949 0.950 . S
C925 C924 1.349 . S
C925 C941 1.349 . S
C926 C924 1.327 . S
C926 C945 1.429 . S
C926 H950 0.950 . S
C927 C944 1.574 . S
C927 C946 1.368 . S
C927 H951 0.949 . S
H928 C932 0.949 . S
C929 C930 1.349 . S
C929 C931 1.327 . S
C929 H952 0.950 . S
C930 C929 1.349 . S
C930 C942 1.349 . S
C931 C929 1.327 . S
C931 C947 1.429 . S
C931 H953 0.950 . S
C932 H928 0.949 . S
C932 C940 1.574 . S
C932 C948 1.368 . S
H933 C941 0.950 . S
H934 C939 0.950 . S
H935 C940 0.949 . S
H936 C942 0.950 . S
H937 C943 0.950 . S
H938 C944 0.949 . S
C939 H934 0.950 . S
C939 C941 1.327 . S
C939 C945 1.429 . S
C940 C932 1.574 . S
C940 H935 0.949 . S
C940 C946 1.368 . S
C941 C925 1.349 . S
C941 H933 0.950 . S
C941 C939 1.327 . S
C942 C930 1.349 . S
C942 H936 0.950 . S
C942 C943 1.327 . S
C943 H937 0.950 . S
C943 C942 1.327 . S
C943 C947 1.429 . S
C944 C927 1.574 . S
C944 H938 0.949 . S
C944 C948 1.368 . S
C945 C926 1.429 . S
C945 C939 1.429 . S
C945 C946 1.523 . S
C946 C927 1.368 . S
C946 C940 1.368 . S
C946 C945 1.523 . S
C947 C931 1.429 . S
C947 C943 1.429 . S
C947 C948 1.523 . S
C948 C932 1.368 . S
C948 C944 1.368 . S
C948 C947 1.523 . S
H949 C924 0.950 . S
H950 C926 0.950 . S
H951 C927 0.949 . S
H952 C929 0.950 . S
H953 C931 0.950 . S
C954 C955 1.349 . S
C954 C956 1.327 . S
C954 H979 0.950 . S
C955 C954 1.349 . S
C955 C971 1.349 . S
C956 C954 1.327 . S
C956 C975 1.429 . S
C956 H980 0.950 . S
C957 C974 1.574 . S
C957 C976 1.368 . S
C957 H981 0.949 . S
H958 C962 0.949 . S
C959 C960 1.349 . S
C959 C961 1.327 . S
C959 H982 0.950 . S
C960 C959 1.349 . S
C960 C972 1.349 . S
C961 C959 1.327 . S
C961 C977 1.429 . S
C961 H983 0.950 . S
C962 H958 0.949 . S
C962 C970 1.574 . S
C962 C978 1.368 . S
H963 C971 0.950 . S
H964 C969 0.950 . S
H965 C970 0.949 . S
H966 C972 0.950 . S
H967 C973 0.950 . S
H968 C974 0.949 . S
C969 H964 0.950 . S
C969 C971 1.327 . S
C969 C975 1.429 . S
C970 C962 1.574 . S
C970 H965 0.949 . S
C970 C976 1.368 . S
C971 C955 1.349 . S
C971 H963 0.950 . S
C971 C969 1.327 . S
C972 C960 1.349 . S
C972 H966 0.950 . S
C972 C973 1.327 . S
C973 H967 0.950 . S
C973 C972 1.327 . S
C973 C977 1.429 . S
C974 C957 1.574 . S
C974 H968 0.949 . S
C974 C978 1.368 . S
C975 C956 1.429 . S
C975 C969 1.429 . S
C975 C976 1.523 . S
C976 C957 1.368 . S
C976 C970 1.368 . S
C976 C975 1.523 . S
C977 C961 1.429 . S
C977 C973 1.429 . S
C977 C978 1.523 . S
C978 C962 1.368 . S
C978 C974 1.368 . S
C978 C977 1.523 . S
H979 C954 0.950 . S
H980 C956 0.950 . S
H981 C957 0.949 . S
H982 C959 0.950 . S
H983 C961 0.950 . S
C265 N80 1.798 . S
C270 C114 1.837 1_545 S
C300 C154 1.840 . S
C295 N93 1.798 . S
C330 C194 1.840 . S
C325 N54 1.798 . S
C360 C234 1.838 1_455 S
C355 N67 1.799 . S
C390 C123 1.840 1_565 S
C385 N28 1.799 . S
C415 N41 1.797 . S
C420 C163 1.839 . S
C445 N2 1.797 . S
C450 C203 1.839 . S
C475 N15 1.799 . S
C480 C243 1.837 1_655 S
C510 C120 0.296 . S
C505 N70 0.251 . S
C540 C160 0.295 . S
C535 N83 0.251 . S
C570 C200 0.296 . S
C565 N96 0.251 . S
C595 N57 0.251 . S
C600 C240 0.296 . S
C625 N18 0.259 . S
C630 C111 0.295 . S
C660 C151 0.296 . S
C655 N31 0.264 . S
C690 C191 0.296 . S
C685 N44 0.242 . S
C715 N5 0.242 . S
C720 C231 0.296 . S
C745 N66 1.980 . S
C750 C115 2.041 . S
C775 N79 1.980 . S
C780 C155 2.041 . S
C810 C195 2.041 . S
C805 N92 1.980 . S
C840 C235 2.041 . S
C835 N53 1.979 . S
C865 N14 1.976 . S
C870 C106 2.041 . S
C900 C146 2.041 . S
C895 N27 1.975 . S
C930 C186 2.040 . S
C925 N40 1.975 . S
C955 N1 1.975 . S
C960 C226 2.041 . S
