# Generated by pormake.
# Topology anh, (6,3)-cn, num edge types: 1
# Building blocks:
#     Node 0, Type 0, BuildingBlock: PAMTUU_clean_sbu_0, # of connection points: 6
#     Node 1, Type 0, BuildingBlock: PAMTUU_clean_sbu_0, # of connection points: 6
#     Node 2, Type 0, BuildingBlock: PAMTUU_clean_sbu_0, # of connection points: 6
#     Node 3, Type 1, BuildingBlock: BELTOD_clean_linker_0, # of connection points: 3
#     Node 4, Type 1, BuildingBlock: BELTOD_clean_linker_0, # of connection points: 3
#     Node 5, Type 1, BuildingBlock: BELTOD_clean_linker_0, # of connection points: 3
#     Node 6, Type 1, BuildingBlock: BELTOD_clean_linker_0, # of connection points: 3
#     Node 7, Type 1, BuildingBlock: BELTOD_clean_linker_0, # of connection points: 3
#     Node 8, Type 1, BuildingBlock: BELTOD_clean_linker_0, # of connection points: 3
#     Edge 9, Type (0, 1), BuildingBlock: UVAHIK_clean_linker_0, # of connection points: 2
#     Edge 10, Type (0, 1), BuildingBlock: UVAHIK_clean_linker_0, # of connection points: 2
#     Edge 11, Type (0, 1), BuildingBlock: UVAHIK_clean_linker_0, # of connection points: 2
#     Edge 12, Type (0, 1), BuildingBlock: UVAHIK_clean_linker_0, # of connection points: 2
#     Edge 13, Type (0, 1), BuildingBlock: UVAHIK_clean_linker_0, # of connection points: 2
#     Edge 14, Type (0, 1), BuildingBlock: UVAHIK_clean_linker_0, # of connection points: 2
#     Edge 15, Type (0, 1), BuildingBlock: UVAHIK_clean_linker_0, # of connection points: 2
#     Edge 16, Type (0, 1), BuildingBlock: UVAHIK_clean_linker_0, # of connection points: 2
#     Edge 17, Type (0, 1), BuildingBlock: UVAHIK_clean_linker_0, # of connection points: 2
#     Edge 18, Type (0, 1), BuildingBlock: UVAHIK_clean_linker_0, # of connection points: 2
#     Edge 19, Type (0, 1), BuildingBlock: UVAHIK_clean_linker_0, # of connection points: 2
#     Edge 20, Type (0, 1), BuildingBlock: UVAHIK_clean_linker_0, # of connection points: 2
#     Edge 21, Type (0, 1), BuildingBlock: UVAHIK_clean_linker_0, # of connection points: 2
#     Edge 22, Type (0, 1), BuildingBlock: UVAHIK_clean_linker_0, # of connection points: 2
#     Edge 23, Type (0, 1), BuildingBlock: UVAHIK_clean_linker_0, # of connection points: 2
#     Edge 24, Type (0, 1), BuildingBlock: UVAHIK_clean_linker_0, # of connection points: 2
#     Edge 25, Type (0, 1), BuildingBlock: UVAHIK_clean_linker_0, # of connection points: 2
#     Edge 26, Type (0, 1), BuildingBlock: UVAHIK_clean_linker_0, # of connection points: 2
# Relax obj value: 0.200
# Max RMSD: 0.177
# Mean RMSD: 0.141
data_MOF--net-anh--node1-PAMTUU_clean_sbu_0--node2-BELTOD_clean_linker_0--edge1-UVAHIK_clean_linker_0
_symmetry_space_group_name_H-M    P1
_symmetry_Int_Tables_number       1
_symmetry_cell_setting            triclinic
loop_
_symmetry_equiv_pos_as_xyz
'x, y, z'
_cell_length_a     43.146882
_cell_length_b     43.167498
_cell_length_c     75.958644
_cell_angle_alpha  92.744755
_cell_angle_beta   91.960222
_cell_angle_gamma 120.03848
loop_
_atom_site_label
_atom_site_type_symbol
_atom_site_fract_x
_atom_site_fract_y
_atom_site_fract_z
_atom_type_partial_charge
Tb0 Tb 0.08585 0.62288 0.16539 0.0
Tb1 Tb 0.12528 0.57585 0.16362 0.0
C2 C 0.10785 0.60296 0.12943 0.0
C3 C 1.0217 0.64888 0.17872 0.0
C4 C 0.9535 0.61719 0.19231 0.0
C5 C 0.96208 0.64103 0.17886 0.0
C6 C 0.99593 0.6567 0.17211 0.0
C7 C 1.01431 0.62753 0.19312 0.0
C8 C 0.98055 0.61201 0.19995 0.0
C9 C 1.05294 0.65708 0.16863 0.0
O10 O 1.04368 0.56844 0.17031 0.0
O11 O 0.06798 0.53649 0.15795 0.0
O12 O 0.10152 0.56715 0.18875 0.0
O13 O 0.1032 0.62067 0.19239 0.0
O14 O 0.13772 0.54084 0.14943 0.0
O15 O 0.15701 0.55902 0.17674 0.0
O16 O 0.16688 0.63117 0.1724 0.0
O17 O 0.14127 0.66099 0.15999 0.0
O18 O 0.08308 0.60614 0.13754 0.0
O19 O 0.13205 0.59896 0.13829 0.0
C20 C 1.04045 0.53773 0.16428 0.0
O21 O 0.08256 0.66564 0.17781 0.0
O22 O 1.04645 0.63361 0.15553 0.0
C23 C 0.10124 0.59224 0.19893 0.0
C24 C 0.19501 0.55041 0.15816 0.0
C25 C 0.26405 0.56322 0.15167 0.0
C26 C 0.23349 0.53054 0.14557 0.0
C27 C 0.19926 0.52417 0.14885 0.0
C28 C 0.22541 0.58365 0.16374 0.0
C29 C 0.25973 0.58989 0.16063 0.0
C30 C 0.15888 0.54213 0.16248 0.0
C31 C 0.16961 0.66093 0.16693 0.0
H32 H 0.94181 0.64529 0.1725 0.0
H33 H 1.00107 0.67279 0.16088 0.0
H34 H 1.03379 0.62089 0.19833 0.0
H35 H 0.97493 0.59416 0.21044 0.0
H36 H 0.2361 0.50935 0.13883 0.0
H37 H 0.17611 0.49842 0.14445 0.0
H38 H 0.22271 0.60449 0.1708 0.0
H39 H 0.28287 0.61535 0.16537 0.0
Tb40 Tb 0.53965 0.057 0.49399 0.0
Tb41 Tb 0.6259 0.09775 0.50156 0.0
C42 C 0.59079 0.08463 0.46261 0.0
C43 C 0.44595 0.99501 0.50146 0.0
C44 C 0.40006 0.93474 0.51946 0.0
C45 C 0.39028 0.93865 0.50217 0.0
C46 C 0.41305 0.96857 0.49327 0.0
C47 C 0.45524 0.99204 0.51895 0.0
C48 C 0.43239 0.96227 0.52791 0.0
C49 C 0.47206 1.02335 0.49114 0.0
O50 O 0.55231 1.01465 0.49953 0.0
O51 O 0.61206 0.04252 0.49389 0.0
O52 O 0.60269 0.06754 0.52421 0.0
O53 O 0.55147 0.0702 0.52232 0.0
O54 O 0.67895 0.12171 0.49383 0.0
O55 O 0.6679 0.12253 0.52125 0.0
O56 O 0.60896 0.13698 0.50791 0.0
O57 O 0.55813 0.11326 0.4896 0.0
O58 O 0.55939 0.06098 0.46782 0.0
O59 O 0.61818 0.10532 0.4739 0.0
C60 C 0.58161 1.01323 0.49653 0.0
O61 O 0.49132 0.05487 0.49953 0.0
O62 O 0.49163 1.01436 0.48193 0.0
C63 C 0.57504 0.06594 0.53153 0.0
C64 C 0.71366 0.17535 0.5119 0.0
C65 C 0.74763 0.24996 0.52012 0.0
C66 C 0.7591 0.22909 0.5289 0.0
C67 C 0.74219 0.19206 0.52483 0.0
C68 C 0.7023 0.19607 0.50301 0.0
C69 C 0.71923 0.23303 0.50701 0.0
C70 C 0.69206 0.13611 0.50979 0.0
C71 C 0.58422 0.14068 0.49924 0.0
H72 H 0.36594 0.9177 0.49511 0.0
H73 H 0.40568 0.97026 0.47971 0.0
H74 H 0.48074 1.0121 0.52548 0.0
H75 H 0.44056 0.96029 0.54126 0.0
H76 H 0.78067 0.24126 0.53918 0.0
H77 H 0.75064 0.17631 0.53214 0.0
H78 H 0.67972 0.18354 0.49326 0.0
H79 H 0.71011 0.24832 0.49977 0.0
Tb80 Tb 0.57949 0.52706 0.82407 0.0
Tb81 Tb 0.62125 0.61288 0.83435 0.0
C82 C 0.60284 0.58065 0.79516 0.0
C83 C 0.56005 0.43471 0.82412 0.0
C84 C 0.58065 0.38822 0.83848 0.0
C85 C 0.60668 0.42221 0.83366 0.0
C86 C 0.59648 0.4453 0.82667 0.0
C87 C 0.53394 0.40089 0.82886 0.0
C88 C 0.54413 0.37781 0.836 0.0
C89 C 0.54939 0.46012 0.81822 0.0
O90 O 0.63668 0.54413 0.82221 0.0
O91 O 0.66382 0.5998 0.83744 0.0
O92 O 0.59697 0.5855 0.85783 0.0
O93 O 0.60231 0.53687 0.85083 0.0
O94 O 0.63494 0.66433 0.82719 0.0
O95 O 0.65286 0.65673 0.85269 0.0
O96 O 0.56541 0.59892 0.8297 0.0
O97 O 0.53658 0.53779 0.83121 0.0
O98 O 0.57568 0.55197 0.80069 0.0
O99 O 0.62848 0.60445 0.80646 0.0
C100 C 0.66533 0.57223 0.83025 0.0
O101 O 0.54137 0.4758 0.83089 0.0
O102 O 0.56978 0.48279 0.80714 0.0
C103 C 0.59885 0.5577 0.86263 0.0
C104 C 0.63032 0.69655 0.85151 0.0
C105 C 0.5846 0.72192 0.86184 0.0
C106 C 0.60888 0.73848 0.84884 0.0
C107 C 0.63172 0.72602 0.84378 0.0
C108 C 0.60713 0.68103 0.86513 0.0
C109 C 0.58461 0.69388 0.87036 0.0
C110 C 0.64792 0.67848 0.84317 0.0
C111 C 0.53602 0.56805 0.83114 0.0
H112 H 0.63499 0.43089 0.83508 0.0
H113 H 0.61714 0.47156 0.82339 0.0
H114 H 0.50572 0.39259 0.82732 0.0
H115 H 0.52342 0.352 0.83977 0.0
H116 H 0.60921 0.76026 0.84216 0.0
H117 H 0.64901 0.73804 0.83313 0.0
H118 H 0.60501 0.65781 0.8711 0.0
H119 H 0.56587 0.68068 0.88033 0.0
P120 P 0.63029 0.08789 0.21243 0.0
H121 H 0.60328 1.0345 0.18188 0.0
H122 H 0.54378 0.98436 0.17266 0.0
H123 H 0.49815 1.02306 0.21176 0.0
H124 H 0.55749 0.07443 0.21987 0.0
H125 H 0.68322 0.10829 0.18567 0.0
H126 H 0.73023 0.16561 0.1769 0.0
H127 H 0.69003 0.22032 0.20985 0.0
H128 H 0.6415 0.1622 0.2177 0.0
H129 H 0.5851 1.03681 0.23707 0.0
H130 H 0.6723 0.14638 0.24082 0.0
O131 O 0.65162 0.06472 0.21041 0.0
H132 H 0.58152 1.03974 0.26889 0.0
H133 H 0.66804 0.14993 0.27268 0.0
C134 C 0.58533 0.05821 0.20184 0.0
C135 C 0.58033 1.03282 0.18812 0.0
C136 C 0.54601 1.00347 0.18308 0.0
C137 C 0.51547 0.99821 0.19179 0.0
C138 C 0.52039 1.02546 0.2046 0.0
C139 C 0.5547 0.05521 0.20934 0.0
C140 C 0.65913 0.13057 0.20282 0.0
C141 C 0.68402 0.13251 0.19083 0.0
C142 C 0.71151 0.16572 0.186 0.0
C143 C 0.71536 0.1984 0.19309 0.0
C144 C 0.68861 0.19619 0.20409 0.0
C145 C 0.66064 0.16272 0.20869 0.0
C146 C 0.62723 0.09214 0.23616 0.0
C147 C 0.60267 0.06202 0.24461 0.0
C148 C 0.60073 0.06368 0.26293 0.0
C149 C 0.62388 0.09536 0.27344 0.0
C150 C 0.6495 0.12515 0.26505 0.0
C151 C 0.65146 0.12338 0.24665 0.0
P152 P 0.6226 0.60051 0.54447 0.0
H153 H 0.646 0.57202 0.51497 0.0
H154 H 0.63587 0.51213 0.5069 0.0
H155 H 0.55257 0.46797 0.54357 0.0
H156 H 0.56337 0.52816 0.55179 0.0
H157 H 0.59063 0.60992 0.51078 0.0
H158 H 0.57822 0.65726 0.50219 0.0
H159 H 0.61041 0.70692 0.55537 0.0
H160 H 0.62206 0.66026 0.56367 0.0
H161 H 0.67423 0.60674 0.57263 0.0
H162 H 0.56526 0.58532 0.56839 0.0
O163 O 0.66614 0.62348 0.54081 0.0
H164 H 0.67199 0.60421 0.60464 0.0
H165 H 0.56289 0.58314 0.60051 0.0
C166 C 0.60572 0.55518 0.53413 0.0
C167 C 0.62484 0.54943 0.52097 0.0
C168 C 0.61903 0.51483 0.51637 0.0
C169 C 0.59381 0.48472 0.52478 0.0
C170 C 0.57292 0.49031 0.53707 0.0
C171 C 0.57874 0.52495 0.54164 0.0
C172 C 0.6057 0.63012 0.53814 0.0
C173 C 0.59389 0.63041 0.52069 0.0
C174 C 0.58731 0.65795 0.51574 0.0
C175 C 0.59277 0.68616 0.52809 0.0
C176 C 0.60464 0.68548 0.54549 0.0
C177 C 0.61121 0.65827 0.55034 0.0
C178 C 0.62011 0.59683 0.56812 0.0
C179 C 0.64982 0.60162 0.57858 0.0
C180 C 0.64856 0.60033 0.59694 0.0
C181 C 0.61739 0.59385 0.60523 0.0
C182 C 0.58728 0.58801 0.5946 0.0
C183 C 0.58863 0.58941 0.57623 0.0
P184 P 0.12465 0.61059 0.8782 0.0
H185 H 0.14876 0.60282 0.84322 0.0
H186 H 0.19513 0.58946 0.83442 0.0
H187 H 0.20422 0.56126 0.88743 0.0
H188 H 0.15691 0.57252 0.89563 0.0
H189 H 0.09795 0.6569 0.86652 0.0
H190 H 1.03906 0.64722 0.85801 0.0
H191 H 0.99422 0.53295 0.86019 0.0
H192 H 1.05459 0.54298 0.86813 0.0
H193 H 0.1762 0.65069 0.90803 0.0
H194 H 0.06661 0.56391 0.90075 0.0
O195 O 0.15294 0.65376 0.87538 0.0
H196 H 0.17324 0.64848 0.93996 0.0
H197 H 0.06294 0.56238 0.93269 0.0
C198 C 0.14856 0.58834 0.87006 0.0
C199 C 0.15972 0.59233 0.85273 0.0
C200 C 0.18705 0.5854 0.84783 0.0
C201 C 0.20451 0.57475 0.86021 0.0
C202 C 0.19172 0.56896 0.87729 0.0
C203 C 0.16423 0.57552 0.88208 0.0
C204 C 0.0813 0.60072 0.8679 0.0
C205 C 0.07586 0.62954 0.86479 0.0
C206 C 1.04164 0.62397 0.86015 0.0
C207 C 1.0112 0.58931 0.85874 0.0
C208 C 1.01679 0.5601 0.86109 0.0
C209 C 1.05144 0.56576 0.86562 0.0
C210 C 0.1214 0.60808 0.90189 0.0
C211 C 0.15128 0.63144 0.91329 0.0
C212 C 0.14949 0.63024 0.93161 0.0
C213 C 0.11768 0.60557 0.93903 0.0
C214 C 0.08796 0.58163 0.92752 0.0
C215 C 0.0899 0.58273 0.90915 0.0
P216 P 0.089 0.50829 0.44205 0.0
H217 H 0.12037 0.5025 0.47541 0.0
H218 H 0.16845 0.54732 0.4963 0.0
H219 H 0.18796 0.6295 0.4608 0.0
H220 H 0.13967 0.58508 0.4403 0.0
H221 H 1.01664 0.45 0.44663 0.0
H222 H 0.96447 0.44856 0.45887 0.0
H223 H 1.02396 0.56407 0.46822 0.0
H224 H 0.07621 0.56533 0.4558 0.0
H225 H 0.14906 0.54131 0.41912 0.0
H226 H 1.03417 0.49607 0.41457 0.0
O227 O 0.08505 0.46791 0.44287 0.0
H228 H 0.15203 0.55538 0.38811 0.0
H229 H 1.03702 0.50919 0.38357 0.0
C230 C 0.12742 0.54025 0.45601 0.0
C231 C 0.13557 0.53006 0.47199 0.0
C232 C 0.16277 0.55562 0.48395 0.0
C233 C 0.1822 0.59167 0.48001 0.0
C234 C 0.17399 0.6017 0.46395 0.0
C235 C 0.14652 0.57628 0.45216 0.0
C236 C 1.0505 0.50762 0.45074 0.0
C237 C 1.01848 0.47501 0.45128 0.0
C238 C 0.98856 0.47432 0.45809 0.0
C239 C 0.99015 0.50629 0.46444 0.0
C240 C 1.02209 0.53907 0.4635 0.0
C241 C 1.05195 0.53974 0.4565 0.0
C242 C 0.09158 0.5189 0.41935 0.0
C243 C 0.12458 0.53484 0.41155 0.0
C244 C 0.12627 0.54277 0.39386 0.0
C245 C 0.09478 0.53366 0.38359 0.0
C246 C 0.06166 0.5166 0.39127 0.0
C247 C 1.06009 0.50929 0.40901 0.0
P248 P 0.63082 1.03085 0.77501 0.0
H249 H 0.67723 0.06331 0.80723 0.0
H250 H 0.69271 0.11729 0.82638 0.0
H251 H 0.63088 0.14287 0.79018 0.0
H252 H 0.61449 0.08866 0.77156 0.0
H253 H 0.60655 0.9553 0.77814 0.0
H254 H 0.56037 0.90969 0.79487 0.0
H255 H 0.5277 0.98516 0.81234 0.0
H256 H 0.57388 1.03072 0.79537 0.0
H257 H 0.66004 0.08628 0.74987 0.0
H258 H 0.57393 0.97654 0.74998 0.0
O259 O 0.66445 1.02225 0.77501 0.0
H260 H 0.64271 0.08747 0.71897 0.0
H261 H 0.55749 0.97734 0.71891 0.0
C262 C 0.64589 0.07277 0.78763 0.0
C263 C 0.66765 0.08099 0.80327 0.0
C264 C 0.67632 0.1116 0.81422 0.0
C265 C 0.66352 0.13443 0.80953 0.0
C266 C 0.64186 0.12615 0.79382 0.0
C267 C 0.63267 0.09528 0.78311 0.0
C268 C 0.59425 0.99658 0.7859 0.0
C269 C 0.58923 0.96193 0.78541 0.0
C270 C 0.56254 0.93579 0.79484 0.0
C271 C 0.54042 0.94391 0.80494 0.0
C272 C 0.54451 0.97827 0.80477 0.0
C273 C 0.57101 1.00432 0.79513 0.0
C274 C 0.61749 1.03177 0.75242 0.0
C275 C 0.63715 0.06262 0.74334 0.0
C276 C 0.62733 0.06329 0.72571 0.0
C277 C 0.59856 1.03262 0.71674 0.0
C278 C 0.57962 1.00136 0.72566 0.0
C279 C 0.58895 1.00098 0.74341 0.0
P280 P 0.51725 0.3588 0.08521 0.0
H281 H 0.52612 0.32687 0.11633 0.0
H282 H 0.57898 0.34259 0.13586 0.0
H283 H 0.64651 0.41565 0.09851 0.0
H284 H 0.59411 0.39881 0.07897 0.0
H285 H 0.44727 0.35228 0.08948 0.0
H286 H 0.42917 0.39037 0.10574 0.0
H287 H 0.53831 0.45839 0.12738 0.0
H288 H 0.55625 0.42059 0.11108 0.0
H289 H 0.49948 0.3296 0.0482 0.0
H290 H 0.55547 0.4338 0.07676 0.0
O291 O 0.48482 0.3159 0.08214 0.0
H292 H 0.50969 0.35828 0.02027 0.0
H293 H 0.56511 0.46254 0.04906 0.0
C294 C 0.55617 0.36162 0.09622 0.0
C295 C 0.5525 0.34522 0.11209 0.0
C296 C 0.58268 0.35457 0.12333 0.0
C297 C 0.61698 0.38073 0.11888 0.0
C298 C 0.62064 0.39511 0.10232 0.0
C299 C 0.5905 0.38561 0.0911 0.0
C300 C 0.50288 0.38316 0.09932 0.0
C301 C 0.46708 0.37491 0.09804 0.0
C302 C 0.45681 0.39666 0.10734 0.0
C303 C 0.48238 0.42728 0.11785 0.0
C304 C 0.5181 0.43505 0.11934 0.0
C305 C 0.52827 0.41319 0.11014 0.0
C306 C 0.52637 0.37954 0.06455 0.0
C307 C 0.51392 0.35861 0.04847 0.0
C308 C 0.5196 0.37505 0.03253 0.0
C309 C 0.53801 0.41271 0.03246 0.0
C310 C 0.55108 0.43351 0.04863 0.0
C311 C 0.54531 0.41706 0.06451 0.0
C312 C 0.30855 0.55763 0.13366 0.0
C313 C 0.30013 0.56803 0.14974 0.0
C314 C 0.33995 0.5561 0.13262 0.0
C315 C 0.39514 0.53532 0.16067 0.0
H316 H 0.44687 0.54836 0.11836 0.0
C317 C 0.44028 0.43907 0.13488 0.0
C318 C 0.47222 0.45228 0.12622 0.0
C319 C 0.42888 0.46234 0.14118 0.0
C320 C 0.43331 0.54519 0.13046 0.0
H321 H 0.31889 0.58729 0.17706 0.0
H322 H 0.37396 0.58454 0.17525 0.0
H323 H 0.41088 0.57702 0.12225 0.0
H324 H 0.51795 0.50028 0.11788 0.0
H325 H 0.4979 0.54101 0.1289 0.0
H326 H 0.41623 0.50213 0.16849 0.0
C327 C 0.35619 0.57748 0.16348 0.0
C328 C 0.41251 0.56138 0.1326 0.0
C329 C 0.32484 0.57926 0.16448 0.0
C330 C 0.49331 0.4894 0.12461 0.0
C331 C 0.48177 0.51267 0.13081 0.0
C332 C 0.41584 0.51903 0.1585 0.0
C333 C 0.36342 0.56474 0.14769 0.0
C334 C 0.39204 0.55535 0.14738 0.0
C335 C 0.44908 0.49926 0.13884 0.0
C336 C 0.43389 0.52259 0.14302 0.0
H337 H 0.29007 0.54918 0.12207 0.0
H338 H 0.34457 0.54584 0.1203 0.0
H339 H 0.37953 0.53001 0.17217 0.0
H340 H 0.42371 0.41063 0.13643 0.0
H341 H 0.40333 0.45114 0.14712 0.0
C342 C 0.74702 0.30793 0.52374 0.0
C343 C 0.76622 0.28947 0.52391 0.0
C344 C 0.7652 0.34545 0.52468 0.0
C345 C 0.85737 0.42634 0.53052 0.0
H346 H 0.8267 0.45322 0.48826 0.0
C347 C 0.96409 0.52193 0.49 0.0
C348 C 0.9592 0.50447 0.47319 0.0
C349 C 0.93475 0.51249 0.50026 0.0
C350 C 0.83555 0.44654 0.50027 0.0
H351 H 0.81942 0.296 0.52636 0.0
H352 H 0.8509 0.36076 0.52793 0.0
H353 H 0.7845 0.39945 0.50182 0.0
H354 H 0.91969 0.46772 0.45286 0.0
H355 H 0.869 0.45031 0.4707 0.0
H356 H 0.90952 0.47053 0.52773 0.0
C357 C 0.82186 0.34663 0.52736 0.0
C358 C 0.81116 0.41581 0.5082 0.0
C359 C 0.80376 0.30928 0.52636 0.0
C360 C 0.92424 0.48091 0.46597 0.0
C361 C 0.89503 0.47136 0.4762 0.0
C362 C 0.88189 0.45666 0.52242 0.0
C363 C 0.80289 0.36518 0.5259 0.0
C364 C 0.8228 0.40377 0.52248 0.0
C365 C 0.90019 0.48524 0.4939 0.0
C366 C 0.87201 0.46513 0.50628 0.0
H367 H 0.71797 0.29338 0.52228 0.0
H368 H 0.74982 0.35895 0.5237 0.0
H369 H 0.86671 0.41842 0.54193 0.0
H370 H 0.9908 0.54053 0.49583 0.0
H371 H 0.93959 0.52436 0.51368 0.0
C372 C 0.55776 0.74941 0.88133 0.0
C373 C 0.55735 0.7321 0.86515 0.0
C374 C 0.53596 0.76472 0.88306 0.0
C375 C 0.46631 0.77691 0.85838 0.0
H376 H 0.53559 0.87754 0.86941 0.0
C377 C 0.49648 0.881 0.81136 0.0
C378 C 0.51626 0.9176 0.81699 0.0
C379 C 0.48235 0.85522 0.82366 0.0
C380 C 0.51506 0.84964 0.86675 0.0
H381 H 0.53186 0.71371 0.83879 0.0
H382 H 0.49418 0.74042 0.8416 0.0
H383 H 0.54672 0.83281 0.88102 0.0
H384 H 0.5325 0.95615 0.83966 0.0
H385 H 0.50742 0.91106 0.8612 0.0
H386 H 0.43635 0.79417 0.84272 0.0
C387 C 0.51082 0.74228 0.85306 0.0
C388 C 0.52153 0.82376 0.87347 0.0
C389 C 0.53275 0.72737 0.85131 0.0
C390 C 0.5176 0.92807 0.83494 0.0
C391 C 0.50339 0.90223 0.84729 0.0
C392 C 0.45981 0.80286 0.85165 0.0
C393 C 0.51336 0.76261 0.86865 0.0
C394 C 0.49877 0.78728 0.86812 0.0
C395 C 0.4878 0.86557 0.84188 0.0
C396 C 0.4857 0.83948 0.85456 0.0
H397 H 0.57649 0.75304 0.89219 0.0
H398 H 0.53834 0.78001 0.89526 0.0
H399 H 0.44772 0.74888 0.85447 0.0
H400 H 0.49442 0.87224 0.79754 0.0
H401 H 0.47055 0.82731 0.81891 0.0
C402 C 0.90205 0.5562 0.19658 0.0
C403 C 0.91535 0.59325 0.19587 0.0
C404 C 0.86519 0.53203 0.19493 0.0
C405 C 0.7914 0.52704 0.16959 0.0
H406 H 0.73602 0.43295 0.18739 0.0
C407 C 0.68291 0.40816 0.12672 0.0
C408 C 0.64815 0.39644 0.13211 0.0
C409 C 0.7128 0.42956 0.1383 0.0
C410 C 0.7512 0.45927 0.18245 0.0
H411 H 0.90038 0.63423 0.19523 0.0
H412 H 0.83585 0.59183 0.19206 0.0
H413 H 0.79251 0.47843 0.20348 0.0
H414 H 0.61762 0.39589 0.1544 0.0
H415 H 0.6702 0.43238 0.17479 0.0
H416 H 0.75132 0.50744 0.14812 0.0
C417 C 0.85406 0.58159 0.19368 0.0
C418 C 0.7833 0.48519 0.19161 0.0
C419 C 0.89095 0.60581 0.19543 0.0
C420 C 0.64395 0.4041 0.14983 0.0
C421 C 0.67395 0.42513 0.16151 0.0
C422 C 0.75981 0.50108 0.16036 0.0
C423 C 0.84099 0.54444 0.19243 0.0
C424 C 0.804 0.51911 0.18505 0.0
C425 C 0.7085 0.43906 0.15558 0.0
C426 C 0.73995 0.46683 0.16649 0.0
H427 H 0.91998 0.54546 0.19676 0.0
H428 H 0.85594 0.50356 0.1939 0.0
H429 H 0.80701 0.55266 0.16403 0.0
H430 H 0.68708 0.40214 0.1133 0.0
H431 H 0.73938 0.43989 0.13357 0.0
C432 C 0.3957 0.88453 0.53654 0.0
C433 C 0.37855 0.90031 0.52768 0.0
C434 C 0.37613 0.84897 0.54092 0.0
C435 C 0.2832 0.7688 0.53889 0.0
H436 H 0.33092 0.72024 0.5195 0.0
C437 C 0.20182 0.62261 0.51042 0.0
C438 C 0.2097 0.61949 0.49285 0.0
C439 C 0.22562 0.65251 0.52166 0.0
C440 C 0.3173 0.73329 0.52517 0.0
H441 H 0.32688 0.89252 0.5184 0.0
H442 H 0.29305 0.83028 0.52523 0.0
H443 H 0.36549 0.78405 0.52791 0.0
H444 H 0.24951 0.64332 0.47363 0.0
H445 H 0.2908 0.69543 0.49304 0.0
H446 H 0.23439 0.71848 0.53444 0.0
C447 C 0.32151 0.84523 0.52903 0.0
C448 C 0.3372 0.76992 0.53021 0.0
C449 C 0.34101 0.88086 0.52482 0.0
C450 C 0.24274 0.64531 0.48708 0.0
C451 C 0.26654 0.67496 0.4983 0.0
C452 C 0.26323 0.73216 0.53369 0.0
C453 C 0.33908 0.82832 0.53636 0.0
C454 C 0.32004 0.78852 0.53618 0.0
C455 C 0.25777 0.67951 0.51554 0.0
C456 C 0.27982 0.71456 0.52582 0.0
H457 H 0.42459 0.89868 0.53898 0.0
H458 H 0.3904 0.83702 0.5469 0.0
H459 H 0.26932 0.78213 0.54386 0.0
H460 H 0.17641 0.60303 0.51514 0.0
H461 H 0.21825 0.65521 0.5349 0.0
C462 C 0.5723 0.32663 0.83963 0.0
C463 C 0.5917 0.36328 0.84529 0.0
C464 C 0.58496 0.30387 0.84423 0.0
C465 C 0.66963 0.30764 0.85214 0.0
H466 H 0.6072 0.20597 0.85686 0.0
C467 C 0.6821 0.19898 0.8145 0.0
C468 C 0.67028 0.16559 0.82137 0.0
C469 C 0.68161 0.2266 0.82452 0.0
C470 C 0.62538 0.23441 0.85603 0.0
H471 H 0.63821 0.40416 0.86138 0.0
H472 H 0.66082 0.36437 0.86901 0.0
H473 H 0.58497 0.24717 0.86254 0.0
H474 H 0.65115 0.13541 0.84444 0.0
H475 H 0.6499 0.18384 0.86203 0.0
H476 H 0.70932 0.29457 0.8446 0.0
C477 C 0.63589 0.35344 0.86095 0.0
C478 C 0.61248 0.25794 0.85911 0.0
C479 C 0.62306 0.37621 0.85646 0.0
C480 C 0.66049 0.16105 0.83891 0.0
C481 C 0.65962 0.18863 0.84891 0.0
C482 C 0.6825 0.2841 0.84902 0.0
C483 C 0.61741 0.31724 0.8545 0.0
C484 C 0.63384 0.29445 0.85626 0.0
C485 C 0.66893 0.22121 0.84155 0.0
C486 C 0.65983 0.24702 0.85 0.0
H487 H 0.54831 0.31581 0.83086 0.0
H488 H 0.57041 0.27623 0.83878 0.0
H489 H 0.68674 0.33565 0.84983 0.0
H490 H 0.68993 0.20308 0.80102 0.0
H491 H 0.68856 0.25119 0.81837 0.0
C492 C 0.54896 0.94601 0.49977 0.0
C493 C 0.58115 0.97825 0.49783 0.0
C494 C 0.54877 0.91363 0.50184 0.0
C495 C 0.60601 0.87015 0.49746 0.0
H496 H 0.53614 0.80096 0.52662 0.0
C497 C 0.59649 0.73154 0.50653 0.0
C498 C 0.58766 0.717 0.5231 0.0
C499 C 0.59422 0.76201 0.50259 0.0
C500 C 0.55619 0.81996 0.51855 0.0
H501 H 0.63855 1.00098 0.49656 0.0
H502 H 0.63841 0.94525 0.50051 0.0
H503 H 0.53614 0.85618 0.52193 0.0
H504 H 0.56789 0.72323 0.54814 0.0
H505 H 0.56511 0.77622 0.54159 0.0
H506 H 0.62695 0.83449 0.49468 0.0
C507 C 0.61297 0.94454 0.50007 0.0
C508 C 0.55582 0.85174 0.51559 0.0
C509 C 0.61311 0.97686 0.49788 0.0
C510 C 0.57561 0.73362 0.53534 0.0
C511 C 0.57349 0.76406 0.53145 0.0
C512 C 0.60651 0.83842 0.50051 0.0
C513 C 0.58081 0.91224 0.50219 0.0
C514 C 0.5808 0.87763 0.50504 0.0
C515 C 0.583 0.77914 0.51504 0.0
C516 C 0.58173 0.81272 0.5112 0.0
H517 H 0.52371 0.94571 0.49977 0.0
H518 H 0.52323 0.88958 0.50306 0.0
H519 H 0.62547 0.88875 0.48903 0.0
H520 H 0.60611 0.71997 0.49671 0.0
H521 H 0.60129 0.77209 0.48968 0.0
C522 C 0.70402 0.54386 0.8248 0.0
C523 C 0.70032 0.57244 0.83206 0.0
C524 C 0.73657 0.5438 0.82727 0.0
C525 C 0.82106 0.5853 0.85682 0.0
H526 H 0.85812 0.55126 0.8195 0.0
C527 C 0.9662 0.61005 0.86319 0.0
C528 C 0.97415 0.58452 0.85566 0.0
C529 C 0.93233 0.60669 0.86019 0.0
C530 C 0.84806 0.56044 0.8302 0.0
H531 H 0.72892 0.62368 0.84748 0.0
H532 H 0.78504 0.62365 0.85164 0.0
H533 H 0.80074 0.54904 0.81436 0.0
H534 H 0.95135 0.53486 0.83906 0.0
H535 H 0.892 0.52857 0.83411 0.0
H536 H 0.86793 0.59649 0.87274 0.0
C537 C 0.76272 0.60093 0.84421 0.0
C538 C 0.81498 0.55921 0.82722 0.0
C539 C 0.73037 0.60106 0.84168 0.0
C540 C 0.94652 0.55508 0.84518 0.0
C541 C 0.91243 0.55169 0.84217 0.0
C542 C 0.85393 0.58639 0.85982 0.0
C543 C 0.76641 0.57221 0.83718 0.0
C544 C 0.8011 0.57203 0.84042 0.0
C545 C 0.9047 0.5775 0.84963 0.0
C546 C 0.86837 0.57442 0.84652 0.0
H547 H 0.68165 0.52126 0.81733 0.0
H548 H 0.73804 0.52104 0.82172 0.0
H549 H 0.81113 0.59465 0.86752 0.0
H550 H 0.98618 0.6328 0.87161 0.0
H551 H 0.92807 0.62752 0.86603 0.0
C552 C 0.21126 0.72508 0.1597 0.0
C553 C 0.2052 0.69524 0.16894 0.0
C554 C 0.24446 0.75737 0.16172 0.0
C555 C 0.34067 0.79702 0.18037 0.0
H556 H 0.34373 0.88671 0.17331 0.0
C557 C 0.47739 0.93115 0.18267 0.0
C558 C 0.47946 0.96388 0.18821 0.0
C559 C 0.44425 0.89899 0.17991 0.0
C560 C 0.34367 0.86214 0.17561 0.0
H561 H 0.22987 0.67658 0.18777 0.0
H562 H 0.28676 0.73278 0.1919 0.0
H563 H 0.28675 0.83104 0.17018 0.0
H564 H 0.44647 0.98712 0.19487 0.0
H565 H 0.38955 0.93136 0.19112 0.0
H566 H 0.39724 0.82824 0.18678 0.0
C567 C 0.26645 0.73126 0.18257 0.0
C568 C 0.31062 0.82969 0.17346 0.0
C569 C 0.23344 0.69878 0.18031 0.0
C570 C 0.44674 0.96288 0.19087 0.0
C571 C 0.41359 0.93055 0.18839 0.0
C572 C 0.37361 0.8295 0.1828 0.0
C573 C 0.27275 0.76131 0.1733 0.0
C574 C 0.30837 0.79635 0.17572 0.0
C575 C 0.41158 0.89783 0.18289 0.0
C576 C 0.37593 0.86283 0.18039 0.0
H577 H 0.19037 0.72344 0.15071 0.0
H578 H 0.24789 0.77909 0.15394 0.0
H579 H 0.34084 0.77235 0.18202 0.0
H580 H 0.50147 0.92992 0.18072 0.0
H581 H 0.4445 0.875 0.17535 0.0
C582 C 0.61404 0.20616 0.51062 0.0
C583 C 0.58533 0.17615 0.50099 0.0
C584 C 0.61483 0.23915 0.51272 0.0
C585 C 0.57368 0.29113 0.49456 0.0
H586 H 0.61335 0.34897 0.53886 0.0
C587 C 0.59583 0.43652 0.50475 0.0
C588 C 0.5908 0.44836 0.52149 0.0
C589 C 0.59465 0.40339 0.50199 0.0
C590 C 0.60184 0.33318 0.52642 0.0
H591 H 0.53497 0.15813 0.48588 0.0
H592 H 0.53606 0.21519 0.48967 0.0
H593 H 0.61196 0.29203 0.53464 0.0
H594 H 0.58069 0.43352 0.54847 0.0
H595 H 0.57785 0.37599 0.54361 0.0
H596 H 0.56294 0.33203 0.48649 0.0
C597 C 0.55836 0.21347 0.49547 0.0
C598 C 0.6015 0.30047 0.52389 0.0
C599 C 0.55761 0.18045 0.49336 0.0
C600 C 0.58424 0.42554 0.53531 0.0
C601 C 0.58314 0.3925 0.53257 0.0
C602 C 0.57411 0.32393 0.49708 0.0
C603 C 0.58689 0.24344 0.50528 0.0
C604 C 0.58738 0.27873 0.50791 0.0
C605 C 0.58853 0.38081 0.51588 0.0
C606 C 0.58813 0.34559 0.51308 0.0
H607 H 0.63609 0.20425 0.51663 0.0
H608 H 0.63768 0.26145 0.52008 0.0
H609 H 0.56291 0.27568 0.48198 0.0
H610 H 0.60063 0.45284 0.49366 0.0
H611 H 0.59927 0.39586 0.48897 0.0
C612 C 0.46794 0.5362 0.83028 0.0
C613 C 0.50143 0.56789 0.83332 0.0
C614 C 0.4357 0.53636 0.83245 0.0
C615 C 0.39859 0.59929 0.83854 0.0
H616 H 0.31477 0.51306 0.85131 0.0
C617 C 0.26107 0.5935 0.84359 0.0
C618 C 0.237 0.57171 0.85579 0.0
C619 C 0.29232 0.59217 0.84025 0.0
C620 C 0.33787 0.53769 0.84797 0.0
H621 H 0.52682 0.62461 0.84148 0.0
H622 H 0.47141 0.62471 0.84596 0.0
H623 H 0.3703 0.51304 0.84759 0.0
H624 H 0.22767 0.5304 0.87359 0.0
H625 H 0.28234 0.52951 0.86856 0.0
H626 H 0.36674 0.62451 0.83986 0.0
C627 C 0.4695 0.59973 0.84124 0.0
C628 C 0.36997 0.53748 0.84548 0.0
C629 C 0.50164 0.59966 0.83877 0.0
C630 C 0.24539 0.54822 0.86433 0.0
C631 C 0.27687 0.54725 0.86117 0.0
C632 C 0.36665 0.59965 0.84128 0.0
C633 C 0.43575 0.5681 0.83807 0.0
C634 C 0.40107 0.56826 0.84069 0.0
C635 C 0.30116 0.56933 0.84913 0.0
C636 C 0.33553 0.56884 0.84603 0.0
H637 H 0.46655 0.51122 0.82599 0.0
H638 H 0.4107 0.51144 0.82947 0.0
H639 H 0.42129 0.62356 0.83458 0.0
H640 H 0.25637 0.6124 0.83681 0.0
H641 H 0.3095 0.60921 0.83061 0.0
C642 C 1.0035 0.46973 0.16314 0.0
C643 C 1.00573 0.5033 0.16596 0.0
C644 C 0.97165 0.43757 0.16563 0.0
C645 C 0.8824 0.4014 0.18631 0.0
H646 H 0.86072 0.31381 0.15914 0.0
C647 C 0.74615 0.26594 0.18916 0.0
C648 C 0.74776 0.23408 0.18952 0.0
C649 C 0.77666 0.29897 0.18608 0.0
C650 C 0.86638 0.33791 0.16698 0.0
H651 H 0.97518 0.52868 0.17346 0.0
H652 H 0.91963 0.47301 0.17719 0.0
H653 H 0.91427 0.36992 0.15387 0.0
H654 H 0.78446 0.21356 0.18735 0.0
H655 H 0.83654 0.2702 0.18157 0.0
H656 H 0.83386 0.36909 0.19915 0.0
C657 C 0.94276 0.47131 0.17348 0.0
C658 C 0.89745 0.37038 0.16401 0.0
C659 C 0.97477 0.50352 0.17116 0.0
C660 C 0.78121 0.23677 0.18672 0.0
C661 C 0.81149 0.26961 0.18346 0.0
C662 C 0.85107 0.36892 0.18914 0.0
C663 C 0.94055 0.4376 0.17087 0.0
C664 C 0.90638 0.40283 0.17372 0.0
C665 C 0.80985 0.30134 0.18308 0.0
C666 C 0.84267 0.33651 0.17964 0.0
H667 H 1.02669 0.46821 0.15933 0.0
H668 H 0.97185 0.41266 0.16378 0.0
H669 H 0.8881 0.42526 0.19436 0.0
H670 H 0.72116 0.26545 0.19101 0.0
H671 H 0.77404 0.32261 0.18575 0.0
C672 C 0.08075 0.60381 0.09966 0.0
C673 C 0.10855 0.60374 0.10988 0.0
C674 C 0.0812 0.60379 0.08122 0.0
C675 C 0.1423 0.62613 0.04494 0.0
H676 H 1.05515 0.56491 0.01549 0.0
C677 C 0.13319 0.63723 0.96956 0.0
C678 C 0.11563 0.60505 0.95865 0.0
C679 C 0.13187 0.63689 0.98794 0.0
C680 C 0.07976 0.58203 0.02352 0.0
H681 H 0.15872 0.60374 0.10856 0.0
H682 H 0.1595 0.60384 0.07651 0.0
H683 H 1.05386 0.5646 0.04764 0.0
H684 H 0.08289 0.54716 0.9588 0.0
H685 H 0.08021 0.54668 0.99084 0.0
H686 H 0.16828 0.64338 0.02087 0.0
C687 C 0.13744 0.6041 0.08276 0.0
C688 C 0.07894 0.58212 0.04196 0.0
C689 C 0.13687 0.60387 0.10117 0.0
C690 C 0.09633 0.57253 0.96669 0.0
C691 C 0.09483 0.57223 0.98509 0.0
C692 C 0.14305 0.62625 0.02653 0.0
C693 C 0.10958 0.60399 0.07253 0.0
C694 C 0.11024 0.60412 0.0529 0.0
C695 C 0.11275 0.6044 0.99596 0.0
C696 C 0.11181 0.60417 0.01558 0.0
H697 H 1.05848 0.60367 0.10589 0.0
H698 H 1.05949 0.60406 0.07376 0.0
H699 H 0.16683 0.64363 0.05296 0.0
H700 H 0.14768 0.66288 0.9639 0.0
H701 H 0.14548 0.66222 0.99587 0.0
C702 C 0.62916 0.10935 0.43683 0.0
C703 C 0.59521 0.08788 0.44331 0.0
C704 C 0.63321 0.11132 0.4186 0.0
C705 C 0.58686 0.06237 0.37539 0.0
H706 H 0.65367 0.15168 0.35606 0.0
C707 C 0.588 0.07902 0.30043 0.0
C708 C 0.62154 0.09678 0.29305 0.0
C709 C 0.58564 0.07893 0.31875 0.0
C710 C 0.63514 0.12645 0.36127 0.0
H711 H 0.53877 0.05226 0.43553 0.0
H712 H 0.54567 0.05625 0.40397 0.0
H713 H 0.64795 0.14978 0.38793 0.0
H714 H 0.67897 0.12869 0.29943 0.0
H715 H 0.67476 0.12889 0.33141 0.0
H716 H 0.57379 1.03914 0.34873 0.0
C717 C 0.5694 0.07097 0.41291 0.0
C718 C 0.63188 0.12531 0.37957 0.0
C719 C 0.56539 0.06887 0.43109 0.0
C720 C 0.65264 0.11511 0.30457 0.0
C721 C 0.65025 0.11517 0.32294 0.0
C722 C 0.58998 0.06356 0.35712 0.0
C723 C 0.60339 0.09197 0.40637 0.0
C724 C 0.60754 0.09328 0.38689 0.0
C725 C 0.61673 0.09677 0.33027 0.0
C726 C 0.61402 0.09563 0.3498 0.0
H727 H 0.65277 0.12429 0.44583 0.0
H728 H 0.65986 0.12747 0.41411 0.0
H729 H 0.56842 1.037 0.3805 0.0
H730 H 0.5634 0.06526 0.29203 0.0
H731 H 0.55934 0.06506 0.32392 0.0
C732 C 0.63565 0.61221 0.76882 0.0
C733 C 0.60494 0.58476 0.77582 0.0
C734 C 0.63781 0.61444 0.75048 0.0
C735 C 0.59746 0.5586 0.70815 0.0
H736 H 0.64077 0.64997 0.68715 0.0
C737 C 0.58586 0.56797 0.63275 0.0
C738 C 0.61648 0.59352 0.62486 0.0
C739 C 0.58513 0.56761 0.65116 0.0
C740 C 0.62891 0.62424 0.69281 0.0
H741 H 0.55199 0.53877 0.7689 0.0
H742 H 0.55553 0.54302 0.73721 0.0
H743 H 0.63851 0.64853 0.71921 0.0
H744 H 0.67015 0.63918 0.63032 0.0
H745 H 0.66903 0.63824 0.66239 0.0
H746 H 0.58771 0.53427 0.6818 0.0
C747 C 0.57835 0.5624 0.74579 0.0
C748 C 0.62765 0.62341 0.71122 0.0
C749 C 0.57623 0.56013 0.76404 0.0
C750 C 0.64626 0.61884 0.63591 0.0
C751 C 0.64548 0.61857 0.65432 0.0
C752 C 0.59865 0.55942 0.68978 0.0
C753 C 0.6093 0.58929 0.73871 0.0
C754 C 0.61169 0.59054 0.71914 0.0
C755 C 0.61494 0.59288 0.66221 0.0
C756 C 0.61421 0.59222 0.68184 0.0
H757 H 0.6583 0.63159 0.77749 0.0
H758 H 0.66218 0.63538 0.74552 0.0
H759 H 0.58565 0.5328 0.71375 0.0
H760 H 0.56255 0.54789 0.62468 0.0
H761 H 0.56101 0.54767 0.65675 0.0
C762 C 0.58587 0.04085 0.55839 0.0
C763 C 0.57046 0.05903 0.55033 0.0
C764 C 0.58267 1.03519 0.57633 0.0
C765 C 0.57878 0.07538 0.61758 0.0
H766 H 0.54229 0.98134 0.63528 0.0
C767 C 0.58144 0.05909 0.69235 0.0
C768 C 0.58912 1.03302 0.69793 0.0
C769 C 0.57384 0.06026 0.67445 0.0
C770 C 0.55302 1.00787 0.6306 0.0
H771 H 0.53935 0.08524 0.55457 0.0
H772 H 0.53496 0.07646 0.58627 0.0
H773 H 0.53914 0.98686 0.60353 0.0
H774 H 0.59504 0.98782 0.68944 0.0
H775 H 0.58362 0.99077 0.65812 0.0
H776 H 0.59487 0.09692 0.64432 0.0
C777 C 0.54898 0.0662 0.57855 0.0
C778 C 0.55086 1.0109 0.61244 0.0
C779 C 0.55145 0.07112 0.56048 0.0
C780 C 0.58884 1.00796 0.6854 0.0
C781 C 0.58201 1.00956 0.66747 0.0
C782 C 0.58166 0.07248 0.63572 0.0
C783 C 0.56466 0.04827 0.58659 0.0
C784 C 0.56401 0.04469 0.6058 0.0
C785 C 0.57458 1.03586 0.66171 0.0
C786 C 0.56918 1.0387 0.64249 0.0
H787 H 0.60043 1.03101 0.55083 0.0
H788 H 0.59515 1.02149 0.58231 0.0
H789 H 0.58946 0.10176 0.61269 0.0
H790 H 0.58122 0.07849 0.70186 0.0
H791 H 0.56748 0.08039 0.67063 0.0
C792 C 0.58513 0.56525 0.89399 0.0
C793 C 0.59505 0.54789 0.88114 0.0
C794 C 0.57876 0.55329 0.91105 0.0
C795 C 0.55304 0.47158 0.93408 0.0
H796 H 0.5882 0.5348 0.97696 0.0
C797 C 0.51517 0.41678 0.00234 0.0
C798 C 0.54321 0.4303 0.01562 0.0
C799 C 0.52005 0.43318 0.98646 0.0
C800 C 0.57828 0.51684 0.96508 0.0
H801 H 0.60775 0.50556 0.87636 0.0
H802 H 0.59699 0.48519 0.90588 0.0
H803 H 0.60067 0.56035 0.94818 0.0
H804 H 0.59834 0.47175 0.02264 0.0
H805 H 0.60693 0.50023 0.99485 0.0
H806 H 0.53149 0.42808 0.95077 0.0
C807 C 0.59335 0.50745 0.90277 0.0
C808 C 0.58512 0.53148 0.94864 0.0
C809 C 0.5997 0.51931 0.88585 0.0
C810 C 0.57609 0.46089 0.01274 0.0
C811 C 0.58098 0.47729 0.99684 0.0
C812 C 0.54613 0.45701 0.95044 0.0
C813 C 0.58211 0.52376 0.91546 0.0
C814 C 0.57303 0.50892 0.93297 0.0
C815 C 0.5531 0.46344 0.98347 0.0
C816 C 0.55897 0.4794 0.96614 0.0
H817 H 0.58139 0.58738 0.89076 0.0
H818 H 0.57012 0.56637 0.92059 0.0
H819 H 0.54292 0.45351 0.92223 0.0
H820 H 0.4893 0.39369 0.00429 0.0
H821 H 0.49785 0.42218 0.97653 0.0
C822 C 0.08374 0.5536 0.2242 0.0
C823 C 0.0988 0.58802 0.21805 0.0
C824 C 0.08304 0.54916 0.24225 0.0
C825 C 0.09451 0.59616 0.28642 0.0
H826 H 0.1088 0.51951 0.3018 0.0
C827 C 0.11939 0.57595 0.3597 0.0
C828 C 0.09626 0.54128 0.3648 0.0
C829 C 0.12015 0.58315 0.34192 0.0
C830 C 0.10467 0.54093 0.29766 0.0
H831 H 0.12433 0.64482 0.22589 0.0
H832 H 0.12441 0.63727 0.25758 0.0
H833 H 0.10958 0.52984 0.27057 0.0
H834 H 1.05624 0.48689 0.3555 0.0
H835 H 1.05822 0.49927 0.32432 0.0
H836 H 0.09072 0.60766 0.31382 0.0
C837 C 0.11237 0.61357 0.24845 0.0
C838 C 0.10484 0.54675 0.27976 0.0
C839 C 0.11248 0.61796 0.23031 0.0
C840 C 0.07418 0.51386 0.35186 0.0
C841 C 0.07542 0.52089 0.33408 0.0
C842 C 0.09493 0.59067 0.30441 0.0
C843 C 0.09803 0.57909 0.25464 0.0
C844 C 0.09923 0.57409 0.27385 0.0
C845 C 0.09832 0.55559 0.32898 0.0
C846 C 0.09956 0.56271 0.31012 0.0
H847 H 0.07244 0.52996 0.21503 0.0
H848 H 0.07076 0.52214 0.24647 0.0
H849 H 0.08971 0.61719 0.28238 0.0
H850 H 0.13649 0.59753 0.36949 0.0
H851 H 0.13813 0.61007 0.33824 0.0
loop_
_geom_bond_atom_site_label_1
_geom_bond_atom_site_label_2
_geom_bond_distance
_geom_bond_site_symmetry_2
_ccdc_geom_bond_type
Tb0 C9 2.764 1_455 S
Tb0 O10 2.325 1_455 S
Tb0 O13 2.303 . S
Tb0 O17 2.322 . S
Tb0 O18 2.349 . S
Tb0 O21 2.415 1_455 S
Tb0 O22 2.399 1_455 S
Tb1 O11 2.322 . S
Tb1 O12 2.349 . S
Tb1 O14 2.415 . S
Tb1 O15 2.399 . S
Tb1 O16 2.325 . S
Tb1 O19 2.303 . S
Tb1 C30 2.764 . S
C2 O18 1.261 . S
C2 O19 1.257 . S
C3 C6 1.358 . S
C3 C7 1.332 . S
C3 C9 1.504 . S
C4 C5 1.373 . S
C4 C8 1.308 . S
C5 C4 1.373 . S
C5 C6 1.429 . S
C5 H32 0.932 . S
C6 C3 1.358 . S
C6 C5 1.429 . S
C6 H33 0.930 . S
C7 C3 1.332 . S
C7 C8 1.394 . S
C7 H34 0.932 . S
C8 C4 1.308 . S
C8 C7 1.394 . S
C8 H35 0.929 . S
C9 Tb0 2.764 1_655 S
C9 C3 1.504 . S
C9 O21 1.239 . S
C9 O22 1.263 . S
O10 Tb0 2.325 1_655 S
O10 C20 1.236 . S
O11 Tb1 2.322 . S
O11 C20 1.257 1_455 S
O12 Tb1 2.349 . S
O12 C23 1.261 . S
O13 Tb0 2.303 . S
O13 C23 1.257 . S
O14 Tb1 2.415 . S
O14 C30 1.239 . S
O15 Tb1 2.399 . S
O15 C30 1.263 . S
O16 Tb1 2.325 . S
O16 C31 1.236 . S
O17 Tb0 2.322 . S
O17 C31 1.257 . S
O18 Tb0 2.349 . S
O18 C2 1.261 . S
O19 Tb1 2.303 . S
O19 C2 1.257 . S
C20 O10 1.236 . S
C20 O11 1.257 1_655 S
O21 Tb0 2.415 1_655 S
O21 C9 1.239 . S
O22 Tb0 2.399 1_655 S
O22 C9 1.263 . S
C23 O12 1.261 . S
C23 O13 1.257 . S
C24 C27 1.358 . S
C24 C28 1.332 . S
C24 C30 1.504 . S
C25 C26 1.373 . S
C25 C29 1.308 . S
C26 C25 1.373 . S
C26 C27 1.429 . S
C26 H36 0.932 . S
C27 C24 1.358 . S
C27 C26 1.429 . S
C27 H37 0.930 . S
C28 C24 1.332 . S
C28 C29 1.394 . S
C28 H38 0.932 . S
C29 C25 1.308 . S
C29 C28 1.394 . S
C29 H39 0.929 . S
C30 Tb1 2.764 . S
C30 O14 1.239 . S
C30 O15 1.263 . S
C30 C24 1.504 . S
C31 O16 1.236 . S
C31 O17 1.257 . S
H32 C5 0.932 . S
H33 C6 0.930 . S
H34 C7 0.932 . S
H35 C8 0.929 . S
H36 C26 0.932 . S
H37 C27 0.930 . S
H38 C28 0.932 . S
H39 C29 0.929 . S
Tb40 C49 2.764 1_545 S
Tb40 O50 2.325 1_545 S
Tb40 O53 2.303 . S
Tb40 O57 2.322 . S
Tb40 O58 2.349 . S
Tb40 O61 2.415 1_545 S
Tb40 O62 2.399 1_545 S
Tb41 O51 2.322 1_545 S
Tb41 O52 2.349 . S
Tb41 O54 2.415 . S
Tb41 O55 2.399 . S
Tb41 O56 2.325 . S
Tb41 O59 2.303 . S
Tb41 C70 2.764 . S
C42 O58 1.261 . S
C42 O59 1.257 . S
C43 C46 1.358 . S
C43 C47 1.332 . S
C43 C49 1.504 . S
C44 C45 1.373 . S
C44 C48 1.308 . S
C45 C44 1.373 . S
C45 C46 1.429 . S
C45 H72 0.932 . S
C46 C43 1.358 . S
C46 C45 1.429 . S
C46 H73 0.930 . S
C47 C43 1.332 . S
C47 C48 1.394 . S
C47 H74 0.932 . S
C48 C44 1.308 . S
C48 C47 1.394 . S
C48 H75 0.929 . S
C49 Tb40 2.764 1_565 S
C49 C43 1.504 . S
C49 O61 1.239 . S
C49 O62 1.263 . S
O50 Tb40 2.325 1_565 S
O50 C60 1.236 . S
O51 Tb41 2.322 1_565 S
O51 C60 1.257 . S
O52 Tb41 2.349 . S
O52 C63 1.261 . S
O53 Tb40 2.303 . S
O53 C63 1.257 . S
O54 Tb41 2.415 . S
O54 C70 1.239 . S
O55 Tb41 2.399 . S
O55 C70 1.263 . S
O56 Tb41 2.325 . S
O56 C71 1.236 . S
O57 Tb40 2.322 . S
O57 C71 1.257 . S
O58 Tb40 2.349 . S
O58 C42 1.261 . S
O59 Tb41 2.303 . S
O59 C42 1.257 . S
C60 O50 1.236 . S
C60 O51 1.257 . S
O61 Tb40 2.415 1_565 S
O61 C49 1.239 . S
O62 Tb40 2.399 1_565 S
O62 C49 1.263 . S
C63 O52 1.261 . S
C63 O53 1.257 . S
C64 C67 1.358 . S
C64 C68 1.332 . S
C64 C70 1.504 . S
C65 C66 1.373 . S
C65 C69 1.308 . S
C66 C65 1.373 . S
C66 C67 1.429 . S
C66 H76 0.932 . S
C67 C64 1.358 . S
C67 C66 1.429 . S
C67 H77 0.930 . S
C68 C64 1.332 . S
C68 C69 1.394 . S
C68 H78 0.932 . S
C69 C65 1.308 . S
C69 C68 1.394 . S
C69 H79 0.929 . S
C70 Tb41 2.764 . S
C70 O54 1.239 . S
C70 O55 1.263 . S
C70 C64 1.504 . S
C71 O56 1.236 . S
C71 O57 1.257 . S
H72 C45 0.932 . S
H73 C46 0.930 . S
H74 C47 0.932 . S
H75 C48 0.929 . S
H76 C66 0.932 . S
H77 C67 0.930 . S
H78 C68 0.932 . S
H79 C69 0.929 . S
Tb80 C89 2.764 . S
Tb80 O90 2.325 . S
Tb80 O93 2.303 . S
Tb80 O97 2.322 . S
Tb80 O98 2.349 . S
Tb80 O101 2.415 . S
Tb80 O102 2.399 . S
Tb81 O91 2.322 . S
Tb81 O92 2.349 . S
Tb81 O94 2.415 . S
Tb81 O95 2.399 . S
Tb81 O96 2.325 . S
Tb81 O99 2.303 . S
Tb81 C110 2.764 . S
C82 O98 1.261 . S
C82 O99 1.257 . S
C83 C86 1.358 . S
C83 C87 1.332 . S
C83 C89 1.504 . S
C84 C85 1.373 . S
C84 C88 1.308 . S
C85 C84 1.373 . S
C85 C86 1.429 . S
C85 H112 0.932 . S
C86 C83 1.358 . S
C86 C85 1.429 . S
C86 H113 0.930 . S
C87 C83 1.332 . S
C87 C88 1.394 . S
C87 H114 0.932 . S
C88 C84 1.308 . S
C88 C87 1.394 . S
C88 H115 0.929 . S
C89 Tb80 2.764 . S
C89 C83 1.504 . S
C89 O101 1.239 . S
C89 O102 1.263 . S
O90 Tb80 2.325 . S
O90 C100 1.236 . S
O91 Tb81 2.322 . S
O91 C100 1.257 . S
O92 Tb81 2.349 . S
O92 C103 1.261 . S
O93 Tb80 2.303 . S
O93 C103 1.257 . S
O94 Tb81 2.415 . S
O94 C110 1.239 . S
O95 Tb81 2.399 . S
O95 C110 1.263 . S
O96 Tb81 2.325 . S
O96 C111 1.236 . S
O97 Tb80 2.322 . S
O97 C111 1.257 . S
O98 Tb80 2.349 . S
O98 C82 1.261 . S
O99 Tb81 2.303 . S
O99 C82 1.257 . S
C100 O90 1.236 . S
C100 O91 1.257 . S
O101 Tb80 2.415 . S
O101 C89 1.239 . S
O102 Tb80 2.399 . S
O102 C89 1.263 . S
C103 O92 1.261 . S
C103 O93 1.257 . S
C104 C107 1.358 . S
C104 C108 1.332 . S
C104 C110 1.504 . S
C105 C106 1.373 . S
C105 C109 1.308 . S
C106 C105 1.373 . S
C106 C107 1.429 . S
C106 H116 0.932 . S
C107 C104 1.358 . S
C107 C106 1.429 . S
C107 H117 0.930 . S
C108 C104 1.332 . S
C108 C109 1.394 . S
C108 H118 0.932 . S
C109 C105 1.308 . S
C109 C108 1.394 . S
C109 H119 0.929 . S
C110 Tb81 2.764 . S
C110 O94 1.239 . S
C110 O95 1.263 . S
C110 C104 1.504 . S
C111 O96 1.236 . S
C111 O97 1.257 . S
H112 C85 0.932 . S
H113 C86 0.930 . S
H114 C87 0.932 . S
H115 C88 0.929 . S
H116 C106 0.932 . S
H117 C107 0.930 . S
H118 C108 0.932 . S
H119 C109 0.929 . S
P120 O131 1.490 1_545 S
P120 C134 1.812 1_545 S
P120 C140 1.803 . S
P120 C146 1.819 . S
H121 C135 0.941 . S
H122 C136 0.939 . S
H123 C138 0.940 . S
H124 C139 0.940 1_545 S
H125 C141 0.939 . S
H126 C142 0.942 . S
H127 C144 0.940 . S
H128 C145 0.939 . S
H129 C147 0.941 . S
H130 C151 0.939 . S
O131 P120 1.490 1_565 S
H132 C148 0.939 . S
H133 C150 0.940 . S
C134 P120 1.812 1_565 S
C134 C135 1.389 . S
C134 C139 1.391 . S
C135 H121 0.941 . S
C135 C134 1.389 . S
C135 C136 1.397 . S
C136 H122 0.939 . S
C136 C135 1.397 . S
C136 C137 1.378 . S
C137 C136 1.378 . S
C137 C138 1.378 . S
C138 H123 0.940 . S
C138 C137 1.378 . S
C138 C139 1.396 . S
C139 H124 0.940 1_565 S
C139 C134 1.391 . S
C139 C138 1.396 . S
C140 P120 1.803 . S
C140 C141 1.378 . S
C140 C145 1.400 . S
C141 H125 0.939 . S
C141 C140 1.378 . S
C141 C142 1.361 . S
C142 H126 0.942 . S
C142 C141 1.361 . S
C142 C143 1.369 . S
C143 C142 1.369 . S
C143 C144 1.404 . S
C144 H127 0.940 . S
C144 C143 1.404 . S
C144 C145 1.389 . S
C145 H128 0.939 . S
C145 C140 1.400 . S
C145 C144 1.389 . S
C146 P120 1.819 . S
C146 C147 1.391 1_545 S
C146 C151 1.391 . S
C147 H129 0.941 . S
C147 C146 1.391 1_565 S
C147 C148 1.396 . S
C148 H132 0.939 . S
C148 C147 1.396 . S
C148 C149 1.397 1_565 S
C149 C148 1.397 1_545 S
C149 C150 1.385 . S
C150 H133 0.940 . S
C150 C149 1.385 . S
C150 C151 1.388 . S
C151 H130 0.939 . S
C151 C146 1.391 . S
C151 C150 1.388 . S
P152 O163 1.490 . S
P152 C166 1.812 . S
P152 C172 1.803 . S
P152 C178 1.819 . S
H153 C167 0.941 . S
H154 C168 0.939 . S
H155 C170 0.940 . S
H156 C171 0.940 . S
H157 C173 0.939 . S
H158 C174 0.942 . S
H159 C176 0.940 . S
H160 C177 0.939 . S
H161 C179 0.941 . S
H162 C183 0.939 . S
O163 P152 1.490 . S
H164 C180 0.939 . S
H165 C182 0.940 . S
C166 P152 1.812 . S
C166 C167 1.389 . S
C166 C171 1.391 . S
C167 H153 0.941 . S
C167 C166 1.389 . S
C167 C168 1.397 . S
C168 H154 0.939 . S
C168 C167 1.397 . S
C168 C169 1.378 . S
C169 C168 1.378 . S
C169 C170 1.378 . S
C170 H155 0.940 . S
C170 C169 1.378 . S
C170 C171 1.396 . S
C171 H156 0.940 . S
C171 C166 1.391 . S
C171 C170 1.396 . S
C172 P152 1.803 . S
C172 C173 1.378 . S
C172 C177 1.400 . S
C173 H157 0.939 . S
C173 C172 1.378 . S
C173 C174 1.361 . S
C174 H158 0.942 . S
C174 C173 1.361 . S
C174 C175 1.369 . S
C175 C174 1.369 . S
C175 C176 1.404 . S
C176 H159 0.940 . S
C176 C175 1.404 . S
C176 C177 1.389 . S
C177 H160 0.939 . S
C177 C172 1.400 . S
C177 C176 1.389 . S
C178 P152 1.819 . S
C178 C179 1.391 . S
C178 C183 1.391 . S
C179 H161 0.941 . S
C179 C178 1.391 . S
C179 C180 1.396 . S
C180 H164 0.939 . S
C180 C179 1.396 . S
C180 C181 1.397 . S
C181 C180 1.397 . S
C181 C182 1.385 . S
C182 H165 0.940 . S
C182 C181 1.385 . S
C182 C183 1.388 . S
C183 H162 0.939 . S
C183 C178 1.391 . S
C183 C182 1.388 . S
P184 O195 1.490 . S
P184 C198 1.812 . S
P184 C204 1.803 . S
P184 C210 1.819 . S
H185 C199 0.941 . S
H186 C200 0.939 . S
H187 C202 0.940 . S
H188 C203 0.940 . S
H189 C205 0.939 . S
H190 C206 0.942 . S
H191 C208 0.940 . S
H192 C209 0.939 . S
H193 C211 0.941 . S
H194 C215 0.939 . S
O195 P184 1.490 . S
H196 C212 0.939 . S
H197 C214 0.940 . S
C198 P184 1.812 . S
C198 C199 1.389 . S
C198 C203 1.391 . S
C199 H185 0.941 . S
C199 C198 1.389 . S
C199 C200 1.397 . S
C200 H186 0.939 . S
C200 C199 1.397 . S
C200 C201 1.378 . S
C201 C200 1.378 . S
C201 C202 1.378 . S
C202 H187 0.940 . S
C202 C201 1.378 . S
C202 C203 1.396 . S
C203 H188 0.940 . S
C203 C198 1.391 . S
C203 C202 1.396 . S
C204 P184 1.803 . S
C204 C205 1.378 . S
C204 C209 1.400 . S
C205 H189 0.939 . S
C205 C204 1.378 . S
C205 C206 1.361 1_455 S
C206 H190 0.942 . S
C206 C205 1.361 1_655 S
C206 C207 1.369 . S
C207 C206 1.369 . S
C207 C208 1.404 . S
C208 H191 0.940 . S
C208 C207 1.404 . S
C208 C209 1.389 1_655 S
C209 H192 0.939 . S
C209 C204 1.400 . S
C209 C208 1.389 1_455 S
C210 P184 1.819 . S
C210 C211 1.391 . S
C210 C215 1.391 . S
C211 H193 0.941 . S
C211 C210 1.391 . S
C211 C212 1.396 . S
C212 H196 0.939 . S
C212 C211 1.396 . S
C212 C213 1.397 . S
C213 C212 1.397 . S
C213 C214 1.385 . S
C214 H197 0.940 . S
C214 C213 1.385 . S
C214 C215 1.388 . S
C215 H194 0.939 . S
C215 C210 1.391 . S
C215 C214 1.388 . S
P216 O227 1.490 . S
P216 C230 1.812 . S
P216 C236 1.803 1_455 S
P216 C242 1.819 . S
H217 C231 0.941 . S
H218 C232 0.939 . S
H219 C234 0.940 . S
H220 C235 0.940 . S
H221 C237 0.939 . S
H222 C238 0.942 . S
H223 C240 0.940 . S
H224 C241 0.939 . S
H225 C243 0.941 . S
H226 C247 0.939 . S
O227 P216 1.490 . S
H228 C244 0.939 . S
H229 C246 0.940 . S
C230 P216 1.812 . S
C230 C231 1.389 . S
C230 C235 1.391 . S
C231 H217 0.941 . S
C231 C230 1.389 . S
C231 C232 1.397 . S
C232 H218 0.939 . S
C232 C231 1.397 . S
C232 C233 1.378 . S
C233 C232 1.378 . S
C233 C234 1.378 . S
C234 H219 0.940 . S
C234 C233 1.378 . S
C234 C235 1.396 . S
C235 H220 0.940 . S
C235 C230 1.391 . S
C235 C234 1.396 . S
C236 P216 1.803 1_655 S
C236 C237 1.378 . S
C236 C241 1.400 . S
C237 H221 0.939 . S
C237 C236 1.378 . S
C237 C238 1.361 . S
C238 H222 0.942 . S
C238 C237 1.361 . S
C238 C239 1.369 . S
C239 C238 1.369 . S
C239 C240 1.404 . S
C240 H223 0.940 . S
C240 C239 1.404 . S
C240 C241 1.389 . S
C241 H224 0.939 . S
C241 C236 1.400 . S
C241 C240 1.389 . S
C242 P216 1.819 . S
C242 C243 1.391 . S
C242 C247 1.391 1_455 S
C243 H225 0.941 . S
C243 C242 1.391 . S
C243 C244 1.396 . S
C244 H228 0.939 . S
C244 C243 1.396 . S
C244 C245 1.397 . S
C245 C244 1.397 . S
C245 C246 1.385 1_455 S
C246 H229 0.940 . S
C246 C245 1.385 1_655 S
C246 C247 1.388 . S
C247 H226 0.939 . S
C247 C242 1.391 1_655 S
C247 C246 1.388 . S
P248 O259 1.490 . S
P248 C262 1.812 . S
P248 C268 1.803 1_545 S
P248 C274 1.819 . S
H249 C263 0.941 . S
H250 C264 0.939 . S
H251 C266 0.940 . S
H252 C267 0.940 . S
H253 C269 0.939 . S
H254 C270 0.942 . S
H255 C272 0.940 . S
H256 C273 0.939 . S
H257 C275 0.941 . S
H258 C279 0.939 . S
O259 P248 1.490 . S
H260 C276 0.939 . S
H261 C278 0.940 . S
C262 P248 1.812 . S
C262 C263 1.389 . S
C262 C267 1.391 . S
C263 H249 0.941 . S
C263 C262 1.389 . S
C263 C264 1.397 . S
C264 H250 0.939 . S
C264 C263 1.397 . S
C264 C265 1.378 . S
C265 C264 1.378 . S
C265 C266 1.378 . S
C266 H251 0.940 . S
C266 C265 1.378 . S
C266 C267 1.396 . S
C267 H252 0.940 . S
C267 C262 1.391 . S
C267 C266 1.396 . S
C268 P248 1.803 1_565 S
C268 C269 1.378 . S
C268 C273 1.400 . S
C269 H253 0.939 . S
C269 C268 1.378 . S
C269 C270 1.361 . S
C270 H254 0.942 . S
C270 C269 1.361 . S
C270 C271 1.369 . S
C271 C270 1.369 . S
C271 C272 1.404 . S
C272 H255 0.940 . S
C272 C271 1.404 . S
C272 C273 1.389 . S
C273 H256 0.939 . S
C273 C268 1.400 . S
C273 C272 1.389 . S
C274 P248 1.819 . S
C274 C275 1.391 . S
C274 C279 1.391 1_545 S
C275 H257 0.941 . S
C275 C274 1.391 . S
C275 C276 1.396 . S
C276 H260 0.939 . S
C276 C275 1.396 . S
C276 C277 1.397 . S
C277 C276 1.397 . S
C277 C278 1.385 1_545 S
C278 H261 0.940 . S
C278 C277 1.385 1_565 S
C278 C279 1.388 . S
C279 H258 0.939 . S
C279 C274 1.391 1_565 S
C279 C278 1.388 . S
P280 O291 1.490 . S
P280 C294 1.812 . S
P280 C300 1.803 . S
P280 C306 1.819 . S
H281 C295 0.941 . S
H282 C296 0.939 . S
H283 C298 0.940 . S
H284 C299 0.940 . S
H285 C301 0.939 . S
H286 C302 0.942 . S
H287 C304 0.940 . S
H288 C305 0.939 . S
H289 C307 0.941 . S
H290 C311 0.939 . S
O291 P280 1.490 . S
H292 C308 0.939 . S
H293 C310 0.940 . S
C294 P280 1.812 . S
C294 C295 1.389 . S
C294 C299 1.391 . S
C295 H281 0.941 . S
C295 C294 1.389 . S
C295 C296 1.397 . S
C296 H282 0.939 . S
C296 C295 1.397 . S
C296 C297 1.378 . S
C297 C296 1.378 . S
C297 C298 1.378 . S
C298 H283 0.940 . S
C298 C297 1.378 . S
C298 C299 1.396 . S
C299 H284 0.940 . S
C299 C294 1.391 . S
C299 C298 1.396 . S
C300 P280 1.803 . S
C300 C301 1.378 . S
C300 C305 1.400 . S
C301 H285 0.939 . S
C301 C300 1.378 . S
C301 C302 1.361 . S
C302 H286 0.942 . S
C302 C301 1.361 . S
C302 C303 1.369 . S
C303 C302 1.369 . S
C303 C304 1.404 . S
C304 H287 0.940 . S
C304 C303 1.404 . S
C304 C305 1.389 . S
C305 H288 0.939 . S
C305 C300 1.400 . S
C305 C304 1.389 . S
C306 P280 1.819 . S
C306 C307 1.391 . S
C306 C311 1.391 . S
C307 H289 0.941 . S
C307 C306 1.391 . S
C307 C308 1.396 . S
C308 H292 0.939 . S
C308 C307 1.396 . S
C308 C309 1.397 . S
C309 C308 1.397 . S
C309 C310 1.385 . S
C310 H293 0.940 . S
C310 C309 1.385 . S
C310 C311 1.388 . S
C311 H290 0.939 . S
C311 C306 1.391 . S
C311 C310 1.388 . S
C312 C313 1.349 . S
C312 C314 1.327 . S
C312 H337 0.950 . S
C313 C312 1.349 . S
C313 C329 1.349 . S
C314 C312 1.327 . S
C314 C333 1.429 . S
C314 H338 0.950 . S
C315 C332 1.574 . S
C315 C334 1.368 . S
C315 H339 0.949 . S
H316 C320 0.949 . S
C317 C318 1.349 . S
C317 C319 1.327 . S
C317 H340 0.950 . S
C318 C317 1.349 . S
C318 C330 1.349 . S
C319 C317 1.327 . S
C319 C335 1.429 . S
C319 H341 0.950 . S
C320 H316 0.949 . S
C320 C328 1.574 . S
C320 C336 1.368 . S
H321 C329 0.950 . S
H322 C327 0.950 . S
H323 C328 0.949 . S
H324 C330 0.950 . S
H325 C331 0.950 . S
H326 C332 0.949 . S
C327 H322 0.950 . S
C327 C329 1.327 . S
C327 C333 1.429 . S
C328 C320 1.574 . S
C328 H323 0.949 . S
C328 C334 1.368 . S
C329 C313 1.349 . S
C329 H321 0.950 . S
C329 C327 1.327 . S
C330 C318 1.349 . S
C330 H324 0.950 . S
C330 C331 1.327 . S
C331 H325 0.950 . S
C331 C330 1.327 . S
C331 C335 1.429 . S
C332 C315 1.574 . S
C332 H326 0.949 . S
C332 C336 1.368 . S
C333 C314 1.429 . S
C333 C327 1.429 . S
C333 C334 1.523 . S
C334 C315 1.368 . S
C334 C328 1.368 . S
C334 C333 1.523 . S
C335 C319 1.429 . S
C335 C331 1.429 . S
C335 C336 1.523 . S
C336 C320 1.368 . S
C336 C332 1.368 . S
C336 C335 1.523 . S
H337 C312 0.950 . S
H338 C314 0.950 . S
H339 C315 0.949 . S
H340 C317 0.950 . S
H341 C319 0.950 . S
C342 C343 1.349 . S
C342 C344 1.327 . S
C342 H367 0.950 . S
C343 C342 1.349 . S
C343 C359 1.349 . S
C344 C342 1.327 . S
C344 C363 1.429 . S
C344 H368 0.950 . S
C345 C362 1.574 . S
C345 C364 1.368 . S
C345 H369 0.949 . S
H346 C350 0.949 . S
C347 C348 1.349 . S
C347 C349 1.327 . S
C347 H370 0.950 . S
C348 C347 1.349 . S
C348 C360 1.349 . S
C349 C347 1.327 . S
C349 C365 1.429 . S
C349 H371 0.950 . S
C350 H346 0.949 . S
C350 C358 1.574 . S
C350 C366 1.368 . S
H351 C359 0.950 . S
H352 C357 0.950 . S
H353 C358 0.949 . S
H354 C360 0.950 . S
H355 C361 0.950 . S
H356 C362 0.949 . S
C357 H352 0.950 . S
C357 C359 1.327 . S
C357 C363 1.429 . S
C358 C350 1.574 . S
C358 H353 0.949 . S
C358 C364 1.368 . S
C359 C343 1.349 . S
C359 H351 0.950 . S
C359 C357 1.327 . S
C360 C348 1.349 . S
C360 H354 0.950 . S
C360 C361 1.327 . S
C361 H355 0.950 . S
C361 C360 1.327 . S
C361 C365 1.429 . S
C362 C345 1.574 . S
C362 H356 0.949 . S
C362 C366 1.368 . S
C363 C344 1.429 . S
C363 C357 1.429 . S
C363 C364 1.523 . S
C364 C345 1.368 . S
C364 C358 1.368 . S
C364 C363 1.523 . S
C365 C349 1.429 . S
C365 C361 1.429 . S
C365 C366 1.523 . S
C366 C350 1.368 . S
C366 C362 1.368 . S
C366 C365 1.523 . S
H367 C342 0.950 . S
H368 C344 0.950 . S
H369 C345 0.949 . S
H370 C347 0.950 . S
H371 C349 0.950 . S
C372 C373 1.349 . S
C372 C374 1.327 . S
C372 H397 0.950 . S
C373 C372 1.349 . S
C373 C389 1.349 . S
C374 C372 1.327 . S
C374 C393 1.429 . S
C374 H398 0.950 . S
C375 C392 1.574 . S
C375 C394 1.368 . S
C375 H399 0.949 . S
H376 C380 0.949 . S
C377 C378 1.349 . S
C377 C379 1.327 . S
C377 H400 0.950 . S
C378 C377 1.349 . S
C378 C390 1.349 . S
C379 C377 1.327 . S
C379 C395 1.429 . S
C379 H401 0.950 . S
C380 H376 0.949 . S
C380 C388 1.574 . S
C380 C396 1.368 . S
H381 C389 0.950 . S
H382 C387 0.950 . S
H383 C388 0.949 . S
H384 C390 0.950 . S
H385 C391 0.950 . S
H386 C392 0.949 . S
C387 H382 0.950 . S
C387 C389 1.327 . S
C387 C393 1.429 . S
C388 C380 1.574 . S
C388 H383 0.949 . S
C388 C394 1.368 . S
C389 C373 1.349 . S
C389 H381 0.950 . S
C389 C387 1.327 . S
C390 C378 1.349 . S
C390 H384 0.950 . S
C390 C391 1.327 . S
C391 H385 0.950 . S
C391 C390 1.327 . S
C391 C395 1.429 . S
C392 C375 1.574 . S
C392 H386 0.949 . S
C392 C396 1.368 . S
C393 C374 1.429 . S
C393 C387 1.429 . S
C393 C394 1.523 . S
C394 C375 1.368 . S
C394 C388 1.368 . S
C394 C393 1.523 . S
C395 C379 1.429 . S
C395 C391 1.429 . S
C395 C396 1.523 . S
C396 C380 1.368 . S
C396 C392 1.368 . S
C396 C395 1.523 . S
H397 C372 0.950 . S
H398 C374 0.950 . S
H399 C375 0.949 . S
H400 C377 0.950 . S
H401 C379 0.950 . S
C402 C403 1.349 . S
C402 C404 1.327 . S
C402 H427 0.950 . S
C403 C402 1.349 . S
C403 C419 1.349 . S
C404 C402 1.327 . S
C404 C423 1.429 . S
C404 H428 0.950 . S
C405 C422 1.574 . S
C405 C424 1.368 . S
C405 H429 0.949 . S
H406 C410 0.949 . S
C407 C408 1.349 . S
C407 C409 1.327 . S
C407 H430 0.950 . S
C408 C407 1.349 . S
C408 C420 1.349 . S
C409 C407 1.327 . S
C409 C425 1.429 . S
C409 H431 0.950 . S
C410 H406 0.949 . S
C410 C418 1.574 . S
C410 C426 1.368 . S
H411 C419 0.950 . S
H412 C417 0.950 . S
H413 C418 0.949 . S
H414 C420 0.950 . S
H415 C421 0.950 . S
H416 C422 0.949 . S
C417 H412 0.950 . S
C417 C419 1.327 . S
C417 C423 1.429 . S
C418 C410 1.574 . S
C418 H413 0.949 . S
C418 C424 1.368 . S
C419 C403 1.349 . S
C419 H411 0.950 . S
C419 C417 1.327 . S
C420 C408 1.349 . S
C420 H414 0.950 . S
C420 C421 1.327 . S
C421 H415 0.950 . S
C421 C420 1.327 . S
C421 C425 1.429 . S
C422 C405 1.574 . S
C422 H416 0.949 . S
C422 C426 1.368 . S
C423 C404 1.429 . S
C423 C417 1.429 . S
C423 C424 1.523 . S
C424 C405 1.368 . S
C424 C418 1.368 . S
C424 C423 1.523 . S
C425 C409 1.429 . S
C425 C421 1.429 . S
C425 C426 1.523 . S
C426 C410 1.368 . S
C426 C422 1.368 . S
C426 C425 1.523 . S
H427 C402 0.950 . S
H428 C404 0.950 . S
H429 C405 0.949 . S
H430 C407 0.950 . S
H431 C409 0.950 . S
C432 C433 1.349 . S
C432 C434 1.327 . S
C432 H457 0.950 . S
C433 C432 1.349 . S
C433 C449 1.349 . S
C434 C432 1.327 . S
C434 C453 1.429 . S
C434 H458 0.950 . S
C435 C452 1.574 . S
C435 C454 1.368 . S
C435 H459 0.949 . S
H436 C440 0.949 . S
C437 C438 1.349 . S
C437 C439 1.327 . S
C437 H460 0.950 . S
C438 C437 1.349 . S
C438 C450 1.349 . S
C439 C437 1.327 . S
C439 C455 1.429 . S
C439 H461 0.950 . S
C440 H436 0.949 . S
C440 C448 1.574 . S
C440 C456 1.368 . S
H441 C449 0.950 . S
H442 C447 0.950 . S
H443 C448 0.949 . S
H444 C450 0.950 . S
H445 C451 0.950 . S
H446 C452 0.949 . S
C447 H442 0.950 . S
C447 C449 1.327 . S
C447 C453 1.429 . S
C448 C440 1.574 . S
C448 H443 0.949 . S
C448 C454 1.368 . S
C449 C433 1.349 . S
C449 H441 0.950 . S
C449 C447 1.327 . S
C450 C438 1.349 . S
C450 H444 0.950 . S
C450 C451 1.327 . S
C451 H445 0.950 . S
C451 C450 1.327 . S
C451 C455 1.429 . S
C452 C435 1.574 . S
C452 H446 0.949 . S
C452 C456 1.368 . S
C453 C434 1.429 . S
C453 C447 1.429 . S
C453 C454 1.523 . S
C454 C435 1.368 . S
C454 C448 1.368 . S
C454 C453 1.523 . S
C455 C439 1.429 . S
C455 C451 1.429 . S
C455 C456 1.523 . S
C456 C440 1.368 . S
C456 C452 1.368 . S
C456 C455 1.523 . S
H457 C432 0.950 . S
H458 C434 0.950 . S
H459 C435 0.949 . S
H460 C437 0.950 . S
H461 C439 0.950 . S
C462 C463 1.349 . S
C462 C464 1.327 . S
C462 H487 0.950 . S
C463 C462 1.349 . S
C463 C479 1.349 . S
C464 C462 1.327 . S
C464 C483 1.429 . S
C464 H488 0.950 . S
C465 C482 1.574 . S
C465 C484 1.368 . S
C465 H489 0.949 . S
H466 C470 0.949 . S
C467 C468 1.349 . S
C467 C469 1.327 . S
C467 H490 0.950 . S
C468 C467 1.349 . S
C468 C480 1.349 . S
C469 C467 1.327 . S
C469 C485 1.429 . S
C469 H491 0.950 . S
C470 H466 0.949 . S
C470 C478 1.574 . S
C470 C486 1.368 . S
H471 C479 0.950 . S
H472 C477 0.950 . S
H473 C478 0.949 . S
H474 C480 0.950 . S
H475 C481 0.950 . S
H476 C482 0.949 . S
C477 H472 0.950 . S
C477 C479 1.327 . S
C477 C483 1.429 . S
C478 C470 1.574 . S
C478 H473 0.949 . S
C478 C484 1.368 . S
C479 C463 1.349 . S
C479 H471 0.950 . S
C479 C477 1.327 . S
C480 C468 1.349 . S
C480 H474 0.950 . S
C480 C481 1.327 . S
C481 H475 0.950 . S
C481 C480 1.327 . S
C481 C485 1.429 . S
C482 C465 1.574 . S
C482 H476 0.949 . S
C482 C486 1.368 . S
C483 C464 1.429 . S
C483 C477 1.429 . S
C483 C484 1.523 . S
C484 C465 1.368 . S
C484 C478 1.368 . S
C484 C483 1.523 . S
C485 C469 1.429 . S
C485 C481 1.429 . S
C485 C486 1.523 . S
C486 C470 1.368 . S
C486 C482 1.368 . S
C486 C485 1.523 . S
H487 C462 0.950 . S
H488 C464 0.950 . S
H489 C465 0.949 . S
H490 C467 0.950 . S
H491 C469 0.950 . S
C492 C493 1.349 . S
C492 C494 1.327 . S
C492 H517 0.950 . S
C493 C492 1.349 . S
C493 C509 1.349 . S
C494 C492 1.327 . S
C494 C513 1.429 . S
C494 H518 0.950 . S
C495 C512 1.574 . S
C495 C514 1.368 . S
C495 H519 0.949 . S
H496 C500 0.949 . S
C497 C498 1.349 . S
C497 C499 1.327 . S
C497 H520 0.950 . S
C498 C497 1.349 . S
C498 C510 1.349 . S
C499 C497 1.327 . S
C499 C515 1.429 . S
C499 H521 0.950 . S
C500 H496 0.949 . S
C500 C508 1.574 . S
C500 C516 1.368 . S
H501 C509 0.950 . S
H502 C507 0.950 . S
H503 C508 0.949 . S
H504 C510 0.950 . S
H505 C511 0.950 . S
H506 C512 0.949 . S
C507 H502 0.950 . S
C507 C509 1.327 . S
C507 C513 1.429 . S
C508 C500 1.574 . S
C508 H503 0.949 . S
C508 C514 1.368 . S
C509 C493 1.349 . S
C509 H501 0.950 . S
C509 C507 1.327 . S
C510 C498 1.349 . S
C510 H504 0.950 . S
C510 C511 1.327 . S
C511 H505 0.950 . S
C511 C510 1.327 . S
C511 C515 1.429 . S
C512 C495 1.574 . S
C512 H506 0.949 . S
C512 C516 1.368 . S
C513 C494 1.429 . S
C513 C507 1.429 . S
C513 C514 1.523 . S
C514 C495 1.368 . S
C514 C508 1.368 . S
C514 C513 1.523 . S
C515 C499 1.429 . S
C515 C511 1.429 . S
C515 C516 1.523 . S
C516 C500 1.368 . S
C516 C512 1.368 . S
C516 C515 1.523 . S
H517 C492 0.950 . S
H518 C494 0.950 . S
H519 C495 0.949 . S
H520 C497 0.950 . S
H521 C499 0.950 . S
C522 C523 1.349 . S
C522 C524 1.327 . S
C522 H547 0.950 . S
C523 C522 1.349 . S
C523 C539 1.349 . S
C524 C522 1.327 . S
C524 C543 1.429 . S
C524 H548 0.950 . S
C525 C542 1.574 . S
C525 C544 1.368 . S
C525 H549 0.949 . S
H526 C530 0.949 . S
C527 C528 1.349 . S
C527 C529 1.327 . S
C527 H550 0.950 . S
C528 C527 1.349 . S
C528 C540 1.349 . S
C529 C527 1.327 . S
C529 C545 1.429 . S
C529 H551 0.950 . S
C530 H526 0.949 . S
C530 C538 1.574 . S
C530 C546 1.368 . S
H531 C539 0.950 . S
H532 C537 0.950 . S
H533 C538 0.949 . S
H534 C540 0.950 . S
H535 C541 0.950 . S
H536 C542 0.949 . S
C537 H532 0.950 . S
C537 C539 1.327 . S
C537 C543 1.429 . S
C538 C530 1.574 . S
C538 H533 0.949 . S
C538 C544 1.368 . S
C539 C523 1.349 . S
C539 H531 0.950 . S
C539 C537 1.327 . S
C540 C528 1.349 . S
C540 H534 0.950 . S
C540 C541 1.327 . S
C541 H535 0.950 . S
C541 C540 1.327 . S
C541 C545 1.429 . S
C542 C525 1.574 . S
C542 H536 0.949 . S
C542 C546 1.368 . S
C543 C524 1.429 . S
C543 C537 1.429 . S
C543 C544 1.523 . S
C544 C525 1.368 . S
C544 C538 1.368 . S
C544 C543 1.523 . S
C545 C529 1.429 . S
C545 C541 1.429 . S
C545 C546 1.523 . S
C546 C530 1.368 . S
C546 C542 1.368 . S
C546 C545 1.523 . S
H547 C522 0.950 . S
H548 C524 0.950 . S
H549 C525 0.949 . S
H550 C527 0.950 . S
H551 C529 0.950 . S
C552 C553 1.349 . S
C552 C554 1.327 . S
C552 H577 0.950 . S
C553 C552 1.349 . S
C553 C569 1.349 . S
C554 C552 1.327 . S
C554 C573 1.429 . S
C554 H578 0.950 . S
C555 C572 1.574 . S
C555 C574 1.368 . S
C555 H579 0.949 . S
H556 C560 0.949 . S
C557 C558 1.349 . S
C557 C559 1.327 . S
C557 H580 0.950 . S
C558 C557 1.349 . S
C558 C570 1.349 . S
C559 C557 1.327 . S
C559 C575 1.429 . S
C559 H581 0.950 . S
C560 H556 0.949 . S
C560 C568 1.574 . S
C560 C576 1.368 . S
H561 C569 0.950 . S
H562 C567 0.950 . S
H563 C568 0.949 . S
H564 C570 0.950 . S
H565 C571 0.950 . S
H566 C572 0.949 . S
C567 H562 0.950 . S
C567 C569 1.327 . S
C567 C573 1.429 . S
C568 C560 1.574 . S
C568 H563 0.949 . S
C568 C574 1.368 . S
C569 C553 1.349 . S
C569 H561 0.950 . S
C569 C567 1.327 . S
C570 C558 1.349 . S
C570 H564 0.950 . S
C570 C571 1.327 . S
C571 H565 0.950 . S
C571 C570 1.327 . S
C571 C575 1.429 . S
C572 C555 1.574 . S
C572 H566 0.949 . S
C572 C576 1.368 . S
C573 C554 1.429 . S
C573 C567 1.429 . S
C573 C574 1.523 . S
C574 C555 1.368 . S
C574 C568 1.368 . S
C574 C573 1.523 . S
C575 C559 1.429 . S
C575 C571 1.429 . S
C575 C576 1.523 . S
C576 C560 1.368 . S
C576 C572 1.368 . S
C576 C575 1.523 . S
H577 C552 0.950 . S
H578 C554 0.950 . S
H579 C555 0.949 . S
H580 C557 0.950 . S
H581 C559 0.950 . S
C582 C583 1.349 . S
C582 C584 1.327 . S
C582 H607 0.950 . S
C583 C582 1.349 . S
C583 C599 1.349 . S
C584 C582 1.327 . S
C584 C603 1.429 . S
C584 H608 0.950 . S
C585 C602 1.574 . S
C585 C604 1.368 . S
C585 H609 0.949 . S
H586 C590 0.949 . S
C587 C588 1.349 . S
C587 C589 1.327 . S
C587 H610 0.950 . S
C588 C587 1.349 . S
C588 C600 1.349 . S
C589 C587 1.327 . S
C589 C605 1.429 . S
C589 H611 0.950 . S
C590 H586 0.949 . S
C590 C598 1.574 . S
C590 C606 1.368 . S
H591 C599 0.950 . S
H592 C597 0.950 . S
H593 C598 0.949 . S
H594 C600 0.950 . S
H595 C601 0.950 . S
H596 C602 0.949 . S
C597 H592 0.950 . S
C597 C599 1.327 . S
C597 C603 1.429 . S
C598 C590 1.574 . S
C598 H593 0.949 . S
C598 C604 1.368 . S
C599 C583 1.349 . S
C599 H591 0.950 . S
C599 C597 1.327 . S
C600 C588 1.349 . S
C600 H594 0.950 . S
C600 C601 1.327 . S
C601 H595 0.950 . S
C601 C600 1.327 . S
C601 C605 1.429 . S
C602 C585 1.574 . S
C602 H596 0.949 . S
C602 C606 1.368 . S
C603 C584 1.429 . S
C603 C597 1.429 . S
C603 C604 1.523 . S
C604 C585 1.368 . S
C604 C598 1.368 . S
C604 C603 1.523 . S
C605 C589 1.429 . S
C605 C601 1.429 . S
C605 C606 1.523 . S
C606 C590 1.368 . S
C606 C602 1.368 . S
C606 C605 1.523 . S
H607 C582 0.950 . S
H608 C584 0.950 . S
H609 C585 0.949 . S
H610 C587 0.950 . S
H611 C589 0.950 . S
C612 C613 1.349 . S
C612 C614 1.327 . S
C612 H637 0.950 . S
C613 C612 1.349 . S
C613 C629 1.349 . S
C614 C612 1.327 . S
C614 C633 1.429 . S
C614 H638 0.950 . S
C615 C632 1.574 . S
C615 C634 1.368 . S
C615 H639 0.949 . S
H616 C620 0.949 . S
C617 C618 1.349 . S
C617 C619 1.327 . S
C617 H640 0.950 . S
C618 C617 1.349 . S
C618 C630 1.349 . S
C619 C617 1.327 . S
C619 C635 1.429 . S
C619 H641 0.950 . S
C620 H616 0.949 . S
C620 C628 1.574 . S
C620 C636 1.368 . S
H621 C629 0.950 . S
H622 C627 0.950 . S
H623 C628 0.949 . S
H624 C630 0.950 . S
H625 C631 0.950 . S
H626 C632 0.949 . S
C627 H622 0.950 . S
C627 C629 1.327 . S
C627 C633 1.429 . S
C628 C620 1.574 . S
C628 H623 0.949 . S
C628 C634 1.368 . S
C629 C613 1.349 . S
C629 H621 0.950 . S
C629 C627 1.327 . S
C630 C618 1.349 . S
C630 H624 0.950 . S
C630 C631 1.327 . S
C631 H625 0.950 . S
C631 C630 1.327 . S
C631 C635 1.429 . S
C632 C615 1.574 . S
C632 H626 0.949 . S
C632 C636 1.368 . S
C633 C614 1.429 . S
C633 C627 1.429 . S
C633 C634 1.523 . S
C634 C615 1.368 . S
C634 C628 1.368 . S
C634 C633 1.523 . S
C635 C619 1.429 . S
C635 C631 1.429 . S
C635 C636 1.523 . S
C636 C620 1.368 . S
C636 C632 1.368 . S
C636 C635 1.523 . S
H637 C612 0.950 . S
H638 C614 0.950 . S
H639 C615 0.949 . S
H640 C617 0.950 . S
H641 C619 0.950 . S
C642 C643 1.349 . S
C642 C644 1.327 . S
C642 H667 0.950 . S
C643 C642 1.349 . S
C643 C659 1.349 . S
C644 C642 1.327 . S
C644 C663 1.429 . S
C644 H668 0.950 . S
C645 C662 1.574 . S
C645 C664 1.368 . S
C645 H669 0.949 . S
H646 C650 0.949 . S
C647 C648 1.349 . S
C647 C649 1.327 . S
C647 H670 0.950 . S
C648 C647 1.349 . S
C648 C660 1.349 . S
C649 C647 1.327 . S
C649 C665 1.429 . S
C649 H671 0.950 . S
C650 H646 0.949 . S
C650 C658 1.574 . S
C650 C666 1.368 . S
H651 C659 0.950 . S
H652 C657 0.950 . S
H653 C658 0.949 . S
H654 C660 0.950 . S
H655 C661 0.950 . S
H656 C662 0.949 . S
C657 H652 0.950 . S
C657 C659 1.327 . S
C657 C663 1.429 . S
C658 C650 1.574 . S
C658 H653 0.949 . S
C658 C664 1.368 . S
C659 C643 1.349 . S
C659 H651 0.950 . S
C659 C657 1.327 . S
C660 C648 1.349 . S
C660 H654 0.950 . S
C660 C661 1.327 . S
C661 H655 0.950 . S
C661 C660 1.327 . S
C661 C665 1.429 . S
C662 C645 1.574 . S
C662 H656 0.949 . S
C662 C666 1.368 . S
C663 C644 1.429 . S
C663 C657 1.429 . S
C663 C664 1.523 . S
C664 C645 1.368 . S
C664 C658 1.368 . S
C664 C663 1.523 . S
C665 C649 1.429 . S
C665 C661 1.429 . S
C665 C666 1.523 . S
C666 C650 1.368 . S
C666 C662 1.368 . S
C666 C665 1.523 . S
H667 C642 0.950 . S
H668 C644 0.950 . S
H669 C645 0.949 . S
H670 C647 0.950 . S
H671 C649 0.950 . S
C672 C673 1.349 . S
C672 C674 1.327 . S
C672 H697 0.950 . S
C673 C672 1.349 . S
C673 C689 1.349 . S
C674 C672 1.327 . S
C674 C693 1.429 . S
C674 H698 0.950 . S
C675 C692 1.574 . S
C675 C694 1.368 . S
C675 H699 0.949 . S
H676 C680 0.949 . S
C677 C678 1.349 . S
C677 C679 1.327 . S
C677 H700 0.950 . S
C678 C677 1.349 . S
C678 C690 1.349 . S
C679 C677 1.327 . S
C679 C695 1.429 1_556 S
C679 H701 0.950 1_556 S
C680 H676 0.949 . S
C680 C688 1.574 . S
C680 C696 1.368 . S
H681 C689 0.950 . S
H682 C687 0.950 . S
H683 C688 0.949 . S
H684 C690 0.950 . S
H685 C691 0.950 . S
H686 C692 0.949 . S
C687 H682 0.950 . S
C687 C689 1.327 . S
C687 C693 1.429 . S
C688 C680 1.574 . S
C688 H683 0.949 . S
C688 C694 1.368 . S
C689 C673 1.349 . S
C689 H681 0.950 . S
C689 C687 1.327 . S
C690 C678 1.349 . S
C690 H684 0.950 . S
C690 C691 1.327 . S
C691 H685 0.950 . S
C691 C690 1.327 . S
C691 C695 1.429 1_556 S
C692 C675 1.574 . S
C692 H686 0.949 . S
C692 C696 1.368 . S
C693 C674 1.429 . S
C693 C687 1.429 . S
C693 C694 1.523 . S
C694 C675 1.368 . S
C694 C688 1.368 . S
C694 C693 1.523 . S
C695 C679 1.429 1_554 S
C695 C691 1.429 1_554 S
C695 C696 1.523 . S
C696 C680 1.368 . S
C696 C692 1.368 . S
C696 C695 1.523 . S
H697 C672 0.950 . S
H698 C674 0.950 . S
H699 C675 0.949 . S
H700 C677 0.950 . S
H701 C679 0.950 1_554 S
C702 C703 1.349 . S
C702 C704 1.327 . S
C702 H727 0.950 . S
C703 C702 1.349 . S
C703 C719 1.349 . S
C704 C702 1.327 . S
C704 C723 1.429 . S
C704 H728 0.950 . S
C705 C722 1.574 . S
C705 C724 1.368 . S
C705 H729 0.949 1_545 S
H706 C710 0.949 . S
C707 C708 1.349 . S
C707 C709 1.327 . S
C707 H730 0.950 1_545 S
C708 C707 1.349 . S
C708 C720 1.349 . S
C709 C707 1.327 . S
C709 C725 1.429 . S
C709 H731 0.950 1_545 S
C710 H706 0.949 . S
C710 C718 1.574 . S
C710 C726 1.368 . S
H711 C719 0.950 1_565 S
H712 C717 0.950 1_565 S
H713 C718 0.949 . S
H714 C720 0.950 . S
H715 C721 0.950 . S
H716 C722 0.949 1_565 S
C717 H712 0.950 1_545 S
C717 C719 1.327 . S
C717 C723 1.429 . S
C718 C710 1.574 . S
C718 H713 0.949 . S
C718 C724 1.368 . S
C719 C703 1.349 . S
C719 H711 0.950 1_545 S
C719 C717 1.327 . S
C720 C708 1.349 . S
C720 H714 0.950 . S
C720 C721 1.327 . S
C721 H715 0.950 . S
C721 C720 1.327 . S
C721 C725 1.429 . S
C722 C705 1.574 . S
C722 H716 0.949 1_545 S
C722 C726 1.368 . S
C723 C704 1.429 . S
C723 C717 1.429 . S
C723 C724 1.523 . S
C724 C705 1.368 . S
C724 C718 1.368 . S
C724 C723 1.523 . S
C725 C709 1.429 . S
C725 C721 1.429 . S
C725 C726 1.523 . S
C726 C710 1.368 . S
C726 C722 1.368 . S
C726 C725 1.523 . S
H727 C702 0.950 . S
H728 C704 0.950 . S
H729 C705 0.949 1_565 S
H730 C707 0.950 1_565 S
H731 C709 0.950 1_565 S
C732 C733 1.349 . S
C732 C734 1.327 . S
C732 H757 0.950 . S
C733 C732 1.349 . S
C733 C749 1.349 . S
C734 C732 1.327 . S
C734 C753 1.429 . S
C734 H758 0.950 . S
C735 C752 1.574 . S
C735 C754 1.368 . S
C735 H759 0.949 . S
H736 C740 0.949 . S
C737 C738 1.349 . S
C737 C739 1.327 . S
C737 H760 0.950 . S
C738 C737 1.349 . S
C738 C750 1.349 . S
C739 C737 1.327 . S
C739 C755 1.429 . S
C739 H761 0.950 . S
C740 H736 0.949 . S
C740 C748 1.574 . S
C740 C756 1.368 . S
H741 C749 0.950 . S
H742 C747 0.950 . S
H743 C748 0.949 . S
H744 C750 0.950 . S
H745 C751 0.950 . S
H746 C752 0.949 . S
C747 H742 0.950 . S
C747 C749 1.327 . S
C747 C753 1.429 . S
C748 C740 1.574 . S
C748 H743 0.949 . S
C748 C754 1.368 . S
C749 C733 1.349 . S
C749 H741 0.950 . S
C749 C747 1.327 . S
C750 C738 1.349 . S
C750 H744 0.950 . S
C750 C751 1.327 . S
C751 H745 0.950 . S
C751 C750 1.327 . S
C751 C755 1.429 . S
C752 C735 1.574 . S
C752 H746 0.949 . S
C752 C756 1.368 . S
C753 C734 1.429 . S
C753 C747 1.429 . S
C753 C754 1.523 . S
C754 C735 1.368 . S
C754 C748 1.368 . S
C754 C753 1.523 . S
C755 C739 1.429 . S
C755 C751 1.429 . S
C755 C756 1.523 . S
C756 C740 1.368 . S
C756 C752 1.368 . S
C756 C755 1.523 . S
H757 C732 0.950 . S
H758 C734 0.950 . S
H759 C735 0.949 . S
H760 C737 0.950 . S
H761 C739 0.950 . S
C762 C763 1.349 1_565 S
C762 C764 1.327 . S
C762 H787 0.950 . S
C763 C762 1.349 1_545 S
C763 C779 1.349 . S
C764 C762 1.327 . S
C764 C783 1.429 1_565 S
C764 H788 0.950 . S
C765 C782 1.574 . S
C765 C784 1.368 . S
C765 H789 0.949 . S
H766 C770 0.949 . S
C767 C768 1.349 1_545 S
C767 C769 1.327 . S
C767 H790 0.950 . S
C768 C767 1.349 1_565 S
C768 C780 1.349 . S
C769 C767 1.327 . S
C769 C785 1.429 . S
C769 H791 0.950 . S
C770 H766 0.949 . S
C770 C778 1.574 . S
C770 C786 1.368 1_565 S
H771 C779 0.950 . S
H772 C777 0.950 . S
H773 C778 0.949 . S
H774 C780 0.950 . S
H775 C781 0.950 . S
H776 C782 0.949 . S
C777 H772 0.950 . S
C777 C779 1.327 . S
C777 C783 1.429 . S
C778 C770 1.574 . S
C778 H773 0.949 . S
C778 C784 1.368 1_565 S
C779 C763 1.349 . S
C779 H771 0.950 . S
C779 C777 1.327 . S
C780 C768 1.349 . S
C780 H774 0.950 . S
C780 C781 1.327 . S
C781 H775 0.950 . S
C781 C780 1.327 . S
C781 C785 1.429 1_565 S
C782 C765 1.574 . S
C782 H776 0.949 . S
C782 C786 1.368 . S
C783 C764 1.429 1_545 S
C783 C777 1.429 . S
C783 C784 1.523 . S
C784 C765 1.368 . S
C784 C778 1.368 1_545 S
C784 C783 1.523 . S
C785 C769 1.429 . S
C785 C781 1.429 1_545 S
C785 C786 1.523 . S
C786 C770 1.368 1_545 S
C786 C782 1.368 . S
C786 C785 1.523 . S
H787 C762 0.950 . S
H788 C764 0.950 . S
H789 C765 0.949 . S
H790 C767 0.950 . S
H791 C769 0.950 . S
C792 C793 1.349 . S
C792 C794 1.327 . S
C792 H817 0.950 . S
C793 C792 1.349 . S
C793 C809 1.349 . S
C794 C792 1.327 . S
C794 C813 1.429 . S
C794 H818 0.950 . S
C795 C812 1.574 . S
C795 C814 1.368 . S
C795 H819 0.949 . S
H796 C800 0.949 . S
C797 C798 1.349 . S
C797 C799 1.324 1_554 S
C797 H820 0.950 . S
C798 C797 1.349 . S
C798 C810 1.349 . S
C799 C797 1.324 1_556 S
C799 C815 1.430 . S
C799 H821 0.951 . S
C800 H796 0.949 . S
C800 C808 1.574 . S
C800 C816 1.368 . S
H801 C809 0.950 . S
H802 C807 0.950 . S
H803 C808 0.949 . S
H804 C810 0.950 . S
H805 C811 0.950 . S
H806 C812 0.949 . S
C807 H802 0.950 . S
C807 C809 1.327 . S
C807 C813 1.429 . S
C808 C800 1.574 . S
C808 H803 0.949 . S
C808 C814 1.368 . S
C809 C793 1.349 . S
C809 H801 0.950 . S
C809 C807 1.327 . S
C810 C798 1.349 . S
C810 H804 0.950 . S
C810 C811 1.327 . S
C811 H805 0.950 . S
C811 C810 1.327 . S
C811 C815 1.429 1_554 S
C812 C795 1.574 . S
C812 H806 0.949 . S
C812 C816 1.368 . S
C813 C794 1.429 . S
C813 C807 1.429 . S
C813 C814 1.523 . S
C814 C795 1.368 . S
C814 C808 1.368 . S
C814 C813 1.523 . S
C815 C799 1.430 . S
C815 C811 1.429 1_556 S
C815 C816 1.523 . S
C816 C800 1.368 . S
C816 C812 1.368 . S
C816 C815 1.523 . S
H817 C792 0.950 . S
H818 C794 0.950 . S
H819 C795 0.949 . S
H820 C797 0.950 . S
H821 C799 0.951 . S
C822 C823 1.349 . S
C822 C824 1.327 . S
C822 H847 0.950 . S
C823 C822 1.349 . S
C823 C839 1.349 . S
C824 C822 1.327 . S
C824 C843 1.429 . S
C824 H848 0.950 . S
C825 C842 1.574 . S
C825 C844 1.368 . S
C825 H849 0.949 . S
H826 C830 0.949 . S
C827 C828 1.354 . S
C827 C829 1.329 . S
C827 H850 0.942 1_455 S
C828 C827 1.354 . S
C828 C840 1.349 . S
C829 C827 1.329 . S
C829 C845 1.429 . S
C829 H851 0.950 . S
C830 H826 0.949 . S
C830 C838 1.574 . S
C830 C846 1.368 . S
H831 C839 0.950 . S
H832 C837 0.950 . S
H833 C838 0.949 . S
H834 C840 0.950 . S
H835 C841 0.950 . S
H836 C842 0.949 . S
C837 H832 0.950 . S
C837 C839 1.327 . S
C837 C843 1.429 . S
C838 C830 1.574 . S
C838 H833 0.949 . S
C838 C844 1.368 . S
C839 C823 1.349 . S
C839 H831 0.950 . S
C839 C837 1.327 . S
C840 C828 1.349 . S
C840 H834 0.950 . S
C840 C841 1.327 . S
C841 H835 0.950 . S
C841 C840 1.327 . S
C841 C845 1.429 . S
C842 C825 1.574 . S
C842 H836 0.949 . S
C842 C846 1.368 . S
C843 C824 1.429 . S
C843 C837 1.429 . S
C843 C844 1.523 . S
C844 C825 1.368 . S
C844 C838 1.368 . S
C844 C843 1.523 . S
C845 C829 1.429 . S
C845 C841 1.429 . S
C845 C846 1.523 . S
C846 C830 1.368 . S
C846 C842 1.368 . S
C846 C845 1.523 . S
H847 C822 0.950 . S
H848 C824 0.950 . S
H849 C825 0.949 . S
H850 C827 0.942 1_655 S
H851 C829 0.950 . S
C313 C25 0.282 . S
C318 C303 0.283 . S
C343 C65 0.270 . S
C348 C239 0.352 . S
C373 C105 0.326 . S
C378 C271 0.393 . S
C403 C4 0.314 . S
C408 C297 0.173 . S
C438 C233 0.352 . S
C433 C44 0.276 . S
C468 C265 0.401 . S
C463 C84 0.304 . S
C493 C60 2.833 . S
C498 C175 2.769 . S
C523 C100 2.986 . S
C528 C207 2.918 . S
C553 C31 2.992 . S
C558 C137 2.934 . S
C588 C169 2.931 . S
C583 C71 2.978 . S
C618 C201 2.801 . S
C613 C111 2.826 . S
C643 C20 2.831 . S
C648 C143 2.764 . S
C678 C213 1.759 . S
C673 C2 1.727 . S
C703 C42 1.736 . S
C708 C149 1.740 . S
C733 C82 1.734 . S
C738 C181 1.748 . S
C768 C277 1.061 1_565 S
C763 C63 1.073 . S
C798 C309 1.113 . S
C793 C103 1.107 . S
C823 C23 1.075 . S
C828 C245 1.065 . S
