# Generated by pormake.
# Topology apo, (3,6)-cn, num edge types: 1
# Building blocks:
#     Node 0, Type 0, BuildingBlock: MIDCAF_clean_linker_0, # of connection points: 3
#     Node 1, Type 0, BuildingBlock: MIDCAF_clean_linker_0, # of connection points: 3
#     Node 2, Type 0, BuildingBlock: MIDCAF_clean_linker_0, # of connection points: 3
#     Node 3, Type 0, BuildingBlock: MIDCAF_clean_linker_0, # of connection points: 3
#     Node 4, Type 0, BuildingBlock: MIDCAF_clean_linker_0, # of connection points: 3
#     Node 5, Type 0, BuildingBlock: MIDCAF_clean_linker_0, # of connection points: 3
#     Node 6, Type 0, BuildingBlock: MIDCAF_clean_linker_0, # of connection points: 3
#     Node 7, Type 0, BuildingBlock: MIDCAF_clean_linker_0, # of connection points: 3
#     Node 8, Type 1, BuildingBlock: MIDCAF_clean_sbu_0, # of connection points: 6
#     Node 9, Type 1, BuildingBlock: MIDCAF_clean_sbu_0, # of connection points: 6
#     Node 10, Type 1, BuildingBlock: MIDCAF_clean_sbu_0, # of connection points: 6
#     Node 11, Type 1, BuildingBlock: MIDCAF_clean_sbu_0, # of connection points: 6
#     Edge 12, Type (0, 1), BuildingBlock: XIVTED_clean_linker_0, # of connection points: 2
#     Edge 13, Type (0, 1), BuildingBlock: XIVTED_clean_linker_0, # of connection points: 2
#     Edge 14, Type (0, 1), BuildingBlock: XIVTED_clean_linker_0, # of connection points: 2
#     Edge 15, Type (0, 1), BuildingBlock: XIVTED_clean_linker_0, # of connection points: 2
#     Edge 16, Type (0, 1), BuildingBlock: XIVTED_clean_linker_0, # of connection points: 2
#     Edge 17, Type (0, 1), BuildingBlock: XIVTED_clean_linker_0, # of connection points: 2
#     Edge 18, Type (0, 1), BuildingBlock: XIVTED_clean_linker_0, # of connection points: 2
#     Edge 19, Type (0, 1), BuildingBlock: XIVTED_clean_linker_0, # of connection points: 2
#     Edge 20, Type (0, 1), BuildingBlock: XIVTED_clean_linker_0, # of connection points: 2
#     Edge 21, Type (0, 1), BuildingBlock: XIVTED_clean_linker_0, # of connection points: 2
#     Edge 22, Type (0, 1), BuildingBlock: XIVTED_clean_linker_0, # of connection points: 2
#     Edge 23, Type (0, 1), BuildingBlock: XIVTED_clean_linker_0, # of connection points: 2
#     Edge 24, Type (0, 1), BuildingBlock: XIVTED_clean_linker_0, # of connection points: 2
#     Edge 25, Type (0, 1), BuildingBlock: XIVTED_clean_linker_0, # of connection points: 2
#     Edge 26, Type (0, 1), BuildingBlock: XIVTED_clean_linker_0, # of connection points: 2
#     Edge 27, Type (0, 1), BuildingBlock: XIVTED_clean_linker_0, # of connection points: 2
#     Edge 28, Type (0, 1), BuildingBlock: XIVTED_clean_linker_0, # of connection points: 2
#     Edge 29, Type (0, 1), BuildingBlock: XIVTED_clean_linker_0, # of connection points: 2
#     Edge 30, Type (0, 1), BuildingBlock: XIVTED_clean_linker_0, # of connection points: 2
#     Edge 31, Type (0, 1), BuildingBlock: XIVTED_clean_linker_0, # of connection points: 2
#     Edge 32, Type (0, 1), BuildingBlock: XIVTED_clean_linker_0, # of connection points: 2
#     Edge 33, Type (0, 1), BuildingBlock: XIVTED_clean_linker_0, # of connection points: 2
#     Edge 34, Type (0, 1), BuildingBlock: XIVTED_clean_linker_0, # of connection points: 2
#     Edge 35, Type (0, 1), BuildingBlock: XIVTED_clean_linker_0, # of connection points: 2
# Relax obj value: 0.088
# Max RMSD: 0.101
# Mean RMSD: 0.091
data_MOF--net-apo--node1-MIDCAF_clean_sbu_0--node2-MIDCAF_clean_linker_0--edge1-XIVTED_clean_linker_0
_symmetry_space_group_name_H-M    P1
_symmetry_Int_Tables_number       1
_symmetry_cell_setting            triclinic
loop_
_symmetry_equiv_pos_as_xyz
'x, y, z'
_cell_length_a     42.434125
_cell_length_b     50.417227
_cell_length_c     45.104747
_cell_angle_alpha  89.729563
_cell_angle_beta   89.607334
_cell_angle_gamma 90.347648
loop_
_atom_site_label
_atom_site_type_symbol
_atom_site_fract_x
_atom_site_fract_y
_atom_site_fract_z
_atom_type_partial_charge
C0 C 0.36309 0.33625 0.50405 0.0
C1 C 0.35253 0.31188 0.51575 0.0
C2 C 0.33855 0.29334 0.49666 0.0
C3 C 0.33522 0.29912 0.46642 0.0
H4 H 0.26319 0.30294 0.39524 0.0
H5 H 0.2205 0.28513 0.36506 0.0
H6 H 0.2766 0.29738 0.28599 0.0
H7 H 0.31929 0.3158 0.31607 0.0
H8 H 0.3529 0.38104 0.32897 0.0
H9 H 0.38397 0.41793 0.30962 0.0
H10 H 0.44981 0.40866 0.38164 0.0
H11 H 0.41783 0.37252 0.40173 0.0
H12 H 0.3691 0.36067 0.46552 0.0
H13 H 0.37435 0.35077 0.51817 0.0
H14 H 0.33026 0.27439 0.50513 0.0
H15 H 0.32449 0.28441 0.45219 0.0
N16 N 0.32204 0.31714 0.40556 0.0
N17 N 0.33971 0.34107 0.3638 0.0
N18 N 0.36408 0.3473 0.40974 0.0
C19 C 0.31969 0.32297 0.37617 0.0
C20 C 0.36201 0.35329 0.38042 0.0
C21 C 0.34426 0.32921 0.42247 0.0
C22 C 0.29458 0.31081 0.35803 0.0
C23 C 0.26653 0.30174 0.37145 0.0
C24 C 0.24203 0.29174 0.3542 0.0
C25 C 0.24529 0.29012 0.32325 0.0
C26 C 0.27357 0.2985 0.30982 0.0
C27 C 0.29789 0.30906 0.32703 0.0
C28 C 0.38266 0.37401 0.36711 0.0
C29 C 0.37416 0.38671 0.34056 0.0
C30 C 0.39217 0.40782 0.32931 0.0
C31 C 0.41939 0.41653 0.34412 0.0
C32 C 0.42863 0.40297 0.36997 0.0
C33 C 0.41036 0.38212 0.38145 0.0
C34 C 0.3465 0.32329 0.45461 0.0
C35 C 0.36035 0.34181 0.47382 0.0
C36 C 0.14971 0.14867 0.01639 0.0
C37 C 0.15181 0.17573 0.02348 0.0
C38 C 0.16192 0.19377 1.00149 0.0
C39 C 0.16933 0.18494 0.97288 0.0
H40 H 0.21241 0.20705 0.89391 0.0
H41 H 0.24462 0.23391 0.86057 0.0
H42 H 0.24839 0.1693 0.79817 0.0
H43 H 0.2162 0.14208 0.83177 0.0
H44 H 0.15975 0.09671 0.84124 0.0
H45 H 0.13553 0.05503 0.8258 0.0
H46 H 0.11424 0.03583 0.91718 0.0
H47 H 0.13855 0.07731 0.93275 0.0
H48 H 0.15421 0.11895 0.98301 0.0
H49 H 0.14158 0.13432 0.03272 0.0
H50 H 0.16384 0.21473 0.00634 0.0
H51 H 0.17664 0.19938 0.95633 0.0
N52 N 0.18824 0.16398 0.91508 0.0
N53 N 0.18135 0.13172 0.87828 0.0
N54 N 0.16045 0.1248 0.92598 0.0
C55 C 0.19322 0.15561 0.8868 0.0
C56 C 0.16485 0.11621 0.89775 0.0
C57 C 0.17199 0.14864 0.93483 0.0
C58 C 0.21172 0.1723 0.86566 0.0
C59 C 0.21991 0.1985 0.87306 0.0
C60 C 0.2382 0.21404 0.85378 0.0
C61 C 0.24896 0.2038 0.82661 0.0
C62 C 0.24059 0.1777 0.819 0.0
C63 C 0.22202 0.16217 0.83823 0.0
C64 C 0.1511 0.09047 0.88826 0.0
C65 C 0.15006 0.08358 0.85809 0.0
C66 C 0.13599 0.05976 0.8492 0.0
C67 C 0.1229 0.04217 0.87027 0.0
C68 C 0.12435 0.04885 0.90043 0.0
C69 C 0.13816 0.07274 0.90932 0.0
C70 C 0.16626 0.15794 0.96557 0.0
C71 C 0.15668 0.1399 0.98777 0.0
C72 C 0.85072 0.15045 0.51166 0.0
C73 C 0.84193 0.17474 0.49882 0.0
C74 C 0.82686 0.19368 0.51668 0.0
C75 C 0.82078 0.18843 0.54673 0.0
H76 H 0.77237 0.21617 0.62088 0.0
H77 H 0.73739 0.244 0.65012 0.0
H78 H 0.73962 0.18699 0.72181 0.0
H79 H 0.77446 0.15892 0.69256 0.0
H80 H 0.81034 0.09942 0.67724 0.0
H81 H 0.837 0.06233 0.70077 0.0
H82 H 0.92149 0.08106 0.65029 0.0
H83 H 0.89375 0.11663 0.62528 0.0
H84 H 0.85238 0.12646 0.55081 0.0
H85 H 0.86278 0.1356 0.49862 0.0
H86 H 0.81974 0.21255 0.5074 0.0
H87 H 0.80921 0.20348 0.55986 0.0
N88 N 0.80393 0.1739 0.60762 0.0
N89 N 0.8127 0.14766 0.64984 0.0
N90 N 0.83912 0.13824 0.60531 0.0
C91 C 0.79802 0.16847 0.63674 0.0
C92 C 0.8334 0.13262 0.63435 0.0
C93 C 0.82426 0.15873 0.59167 0.0
C94 C 0.7763 0.18527 0.6543 0.0
C95 C 0.76542 0.20948 0.64283 0.0
C96 C 0.74557 0.22557 0.65971 0.0
C97 C 0.73595 0.21777 0.68837 0.0
C98 C 0.74654 0.19347 0.69976 0.0
C99 C 0.76661 0.17746 0.68299 0.0
C100 C 0.84989 0.11062 0.6492 0.0
C101 C 0.83459 0.09541 0.67118 0.0
C102 C 0.85008 0.07429 0.6849 0.0
C103 C 0.88156 0.06832 0.6775 0.0
C104 C 0.89704 0.08429 0.65609 0.0
C105 C 0.88123 0.10488 0.64179 0.0
C106 C 0.83006 0.16427 0.55968 0.0
C107 C 0.84501 0.14533 0.54171 0.0
C108 C 0.64267 0.33682 1.00081 0.0
C109 C 0.64801 0.31144 0.98913 0.0
C110 C 0.65944 0.29146 0.00802 0.0
C111 C 0.66485 0.29669 0.03808 0.0
H112 H 0.71348 0.27112 0.11507 0.0
H113 H 0.74933 0.24579 0.14605 0.0
H114 H 0.7354 0.30125 0.21754 0.0
H115 H 0.69969 0.32679 0.1866 0.0
H116 H 0.63908 0.36464 0.18281 0.0
H117 H 0.60913 0.40108 0.20408 0.0
H118 H 0.58433 0.4274 0.11599 0.0
H119 H 0.61335 0.39071 0.09481 0.0
H120 H 0.64254 0.36158 0.0391 0.0
H121 H 0.63346 0.35255 0.98697 0.0
H122 H 0.66382 0.27173 0.99961 0.0
H123 H 0.67314 0.28079 0.0522 0.0
N124 N 0.67996 0.31187 0.09964 0.0
N125 N 0.66583 0.33735 0.14107 0.0
N126 N 0.64502 0.34744 0.09446 0.0
C127 C 0.68249 0.31701 0.12917 0.0
C128 C 0.64695 0.3526 0.1239 0.0
C129 C 0.66134 0.32714 0.08213 0.0
C130 C 0.70365 0.30105 0.14824 0.0
C131 C 0.71793 0.27792 0.1374 0.0
C132 C 0.73833 0.26328 0.15525 0.0
C133 C 0.74513 0.27148 0.1843 0.0
C134 C 0.73081 0.29453 0.1952 0.0
C135 C 0.71019 0.30907 0.17745 0.0
C136 C 0.6287 0.37468 0.13705 0.0
C137 C 0.62716 0.37815 0.16797 0.0
C138 C 0.61004 0.39912 0.18019 0.0
C139 C 0.59418 0.41717 0.1618 0.0
C140 C 0.59567 0.4136 0.13091 0.0
C141 C 0.61259 0.39261 0.11871 0.0
C142 C 0.65834 0.32185 0.04992 0.0
C143 C 0.64759 0.34191 0.03082 0.0
C144 C 0.63158 0.65325 0.49642 0.0
C145 C 0.64525 0.67629 0.48408 0.0
C146 C 0.66248 0.69336 0.50246 0.0
C147 C 0.66613 0.68743 0.53256 0.0
H148 H 0.73253 0.69315 0.59791 0.0
H149 H 0.77928 0.70944 0.62261 0.0
H150 H 0.74584 0.67649 0.70563 0.0
H151 H 0.69844 0.65998 0.68087 0.0
H152 H 0.63282 0.6266 0.6801 0.0
H153 H 0.59987 0.59336 0.7047 0.0
H154 H 0.56635 0.56692 0.61943 0.0
H155 H 0.59829 0.60071 0.59501 0.0
H156 H 0.62381 0.6297 0.53544 0.0
H157 H 0.61781 0.63992 0.48282 0.0
H158 H 0.67325 0.71124 0.49351 0.0
H159 H 0.6796 0.701 0.54613 0.0
N160 N 0.67985 0.66961 0.59236 0.0
N161 N 0.66384 0.64696 0.63543 0.0
N162 N 0.63598 0.64122 0.59109 0.0
C163 C 0.68411 0.66395 0.62152 0.0
C164 C 0.63966 0.63556 0.6204 0.0
C165 C 0.6559 0.65841 0.57699 0.0
C166 C 0.7117 0.67507 0.63732 0.0
C167 C 0.73488 0.68935 0.62145 0.0
C168 C 0.76187 0.69855 0.63556 0.0
C169 C 0.7664 0.69387 0.66594 0.0
C170 C 0.74293 0.68029 0.68215 0.0
C171 C 0.71588 0.67082 0.66793 0.0
C172 C 0.61837 0.61627 0.63553 0.0
C173 C 0.61823 0.61382 0.66661 0.0
C174 C 0.59939 0.59465 0.68074 0.0
C175 C 0.58045 0.57729 0.66414 0.0
C176 C 0.58013 0.58018 0.63308 0.0
C177 C 0.5987 0.5995 0.61898 0.0
C178 C 0.65212 0.66455 0.54503 0.0
C179 C 0.63477 0.64754 0.52661 0.0
C180 C 0.8703 0.87876 0.00926 0.0
C181 C 0.84777 0.86804 0.98994 0.0
C182 C 0.82115 0.85514 1.00229 0.0
C183 C 0.81742 0.85283 0.03314 0.0
H184 H 0.77511 0.80557 0.10254 0.0
H185 H 0.73709 0.77607 0.12688 0.0
H186 H 0.75595 0.81355 0.21083 0.0
H187 H 0.79386 0.84316 0.18663 0.0
H188 H 0.85656 0.87768 0.19345 0.0
H189 H 0.89098 0.9061 0.22289 0.0
H190 H 0.9371 0.93353 0.14259 0.0
H191 H 0.9037 0.90493 0.11351 0.0
H192 H 0.88467 0.88497 0.05386 0.0
H193 H 0.89148 0.88825 1.00077 0.0
H194 H 0.80314 0.84684 0.98814 0.0
H195 H 0.79673 0.84275 0.04188 0.0
N196 N 0.81429 0.84565 0.09804 0.0
N197 N 0.83234 0.858 0.14523 0.0
N198 N 0.85706 0.87492 0.10263 0.0
C199 C 0.8119 0.84396 0.12818 0.0
C200 C 0.85505 0.87347 0.1326 0.0
C201 C 0.8369 0.86122 0.08512 0.0
C202 C 0.78772 0.8267 0.14258 0.0
C203 C 0.77108 0.80765 0.12615 0.0
C204 C 0.74943 0.79062 0.14014 0.0
C205 C 0.74368 0.79238 0.17083 0.0
C206 C 0.75974 0.81179 0.18715 0.0
C207 C 0.78162 0.82866 0.17323 0.0
C208 C 0.8771 0.88916 0.15104 0.0
C209 C 0.87433 0.88954 0.18214 0.0
C210 C 0.89401 0.90587 0.19904 0.0
C211 C 0.91689 0.92209 0.18517 0.0
C212 C 0.92023 0.92097 0.15417 0.0
C213 C 0.9007 0.90471 0.13737 0.0
C214 C 0.84015 0.86348 0.05234 0.0
C215 C 0.86649 0.87661 0.03992 0.0
C216 C 0.15975 0.85485 0.50691 0.0
C217 C 0.17113 0.83239 0.52183 0.0
C218 C 0.18485 0.81191 0.5051 0.0
C219 C 0.18701 0.81396 0.47408 0.0
H220 H 0.22507 0.78053 0.39498 0.0
H221 H 0.25935 0.75313 0.36449 0.0
H222 H 0.24874 0.80766 0.29121 0.0
H223 H 0.21435 0.83525 0.32168 0.0
H224 H 0.16998 0.89001 0.33296 0.0
H225 H 0.14087 0.92876 0.31566 0.0
H226 H 0.07227 0.9165 0.3858 0.0
H227 H 0.10204 0.87876 0.40368 0.0
H228 H 0.15223 0.87437 0.46566 0.0
H229 H 0.14844 0.87075 0.51896 0.0
H230 H 0.19379 0.79433 0.51599 0.0
H231 H 0.19749 0.79785 0.46172 0.0
N232 N 0.19479 0.82333 0.40942 0.0
N233 N 0.17782 0.84576 0.36655 0.0
N234 N 0.15746 0.85718 0.4131 0.0
C235 C 0.19597 0.82678 0.37941 0.0
C236 C 0.15825 0.86081 0.38333 0.0
C237 C 0.1757 0.8387 0.42643 0.0
C238 C 0.2169 0.81012 0.36083 0.0
C239 C 0.22998 0.78675 0.37239 0.0
C240 C 0.24945 0.77091 0.35484 0.0
C241 C 0.25656 0.77817 0.32539 0.0
C242 C 0.24373 0.80162 0.31384 0.0
C243 C 0.22393 0.81734 0.33131 0.0
C244 C 0.13857 0.88169 0.36996 0.0
C245 C 0.14845 0.89547 0.34437 0.0
C246 C 0.13166 0.9176 0.33441 0.0
C247 C 0.10449 0.9261 0.34967 0.0
C248 C 0.09359 0.91107 0.37404 0.0
C249 C 0.11057 0.88932 0.38422 0.0
C250 C 0.17501 0.83631 0.45925 0.0
C251 C 0.1616 0.85676 0.47615 0.0
C252 C 0.35533 0.6667 0.00778 0.0
C253 C 0.34849 0.69201 0.01889 0.0
C254 C 0.33808 0.71175 0.9992 0.0
C255 C 0.33481 0.70627 0.96892 0.0
H256 H 0.28521 0.72789 0.8908 0.0
H257 H 0.24528 0.74892 0.86014 0.0
H258 H 0.262 0.69143 0.79125 0.0
H259 H 0.30176 0.67024 0.82177 0.0
H260 H 0.34425 0.62014 0.83481 0.0
H261 H 0.37143 0.58068 0.81758 0.0
H262 H 0.43681 0.5874 0.89033 0.0
H263 H 0.40872 0.6261 0.90824 0.0
H264 H 0.35857 0.64172 0.9698 0.0
H265 H 0.36388 0.6512 0.0223 0.0
H266 H 0.33273 0.73146 0.00719 0.0
H267 H 0.32701 0.72189 0.95418 0.0
N268 N 0.32147 0.6893 0.90758 0.0
N269 N 0.33622 0.66259 0.86735 0.0
N270 N 0.35801 0.65507 0.91416 0.0
C271 C 0.31901 0.683 0.87835 0.0
C272 C 0.35596 0.64869 0.88505 0.0
C273 C 0.34084 0.67528 0.92564 0.0
C274 C 0.29656 0.6972 0.85894 0.0
C275 C 0.28061 0.71984 0.86903 0.0
C276 C 0.25789 0.73203 0.85137 0.0
C277 C 0.25046 0.72175 0.82334 0.0
C278 C 0.26703 0.69963 0.81288 0.0
C279 C 0.28991 0.68757 0.8304 0.0
C280 C 0.37408 0.62607 0.87311 0.0
C281 C 0.36457 0.61329 0.847 0.0
C282 C 0.38034 0.59072 0.83699 0.0
C283 C 0.40624 0.58061 0.85266 0.0
C284 C 0.41651 0.59416 0.87807 0.0
C285 C 0.40048 0.61647 0.8883 0.0
C286 C 0.3426 0.68112 0.95775 0.0
C287 C 0.35262 0.66137 0.97759 0.0
Zn288 Zn 0.02511 0.16252 0.3145 0.0
Zn289 Zn 0.9735 0.14729 0.21015 0.0
Zn290 Zn 0.99844 0.15515 0.26202 0.0
C291 C 0.02422 0.18025 0.19953 0.0
C292 C 0.9899 0.09786 0.23047 0.0
O293 O 0.96303 0.1737 0.29215 0.0
O294 O 0.98956 0.18124 0.33337 0.0
C295 C 0.06233 0.18918 0.27292 0.0
O296 O 0.02789 0.17538 0.22741 0.0
O297 O 4e-05 0.17185 0.18635 0.0
O298 O 0.98143 0.10875 0.20661 0.0
O299 O 0.99631 0.11201 0.25339 0.0
O300 O 0.06129 0.1838 0.30024 0.0
O301 O 0.0409 0.18049 0.25528 0.0
O302 O 0.01261 0.11617 0.28003 0.0
O303 O 0.03195 0.12451 0.32449 0.0
C304 C 0.02506 0.10813 0.30442 0.0
O305 O 0.94987 0.17148 0.26364 0.0
O306 O 0.93035 0.15827 0.22077 0.0
C307 C 0.96427 0.18259 0.3189 0.0
C308 C 0.9267 0.16962 0.24541 0.0
Zn309 Zn 0.51292 0.34997 0.70667 0.0
Zn310 Zn 0.46296 0.34359 0.81052 0.0
Zn311 Zn 0.48839 0.34691 0.75832 0.0
C312 C 0.47178 0.39722 0.79972 0.0
C313 C 0.41975 0.32109 0.77263 0.0
O314 O 0.53546 0.32783 0.76016 0.0
O315 O 0.55624 0.33965 0.71699 0.0
C316 C 0.49957 0.40131 0.721 0.0
O317 O 0.47988 0.38785 0.77426 0.0
O318 O 0.46522 0.38169 0.82093 0.0
O319 O 0.4215 0.3293 0.79894 0.0
O320 O 0.44297 0.32468 0.75444 0.0
O321 O 0.50567 0.38798 0.69811 0.0
O322 O 0.49385 0.38947 0.74588 0.0
O323 O 0.45688 0.32629 0.72621 0.0
O324 O 0.4865 0.32367 0.68588 0.0
C325 C 0.46115 0.31821 0.6994 0.0
O326 O 0.52187 0.32651 0.78867 0.0
O327 O 0.49358 0.31931 0.82927 0.0
C328 C 0.559 0.32857 0.74195 0.0
C329 C 0.51909 0.31676 0.81506 0.0
Zn330 Zn 0.00464 0.81954 0.79278 0.0
Zn331 Zn 0.9809 0.84981 0.69848 0.0
Zn332 Zn 0.99675 0.84014 0.74862 0.0
C333 C 0.96691 0.89498 0.73373 0.0
C334 C 0.94901 0.80323 0.71843 0.0
O335 O 0.04413 0.82287 0.75157 0.0
O336 O 0.02781 0.78797 0.77685 0.0
C337 C 0.02209 0.87353 0.79886 0.0
O338 O 0.97973 0.88102 0.75432 0.0
O339 O 0.96335 0.88548 0.70808 0.0
O340 O 0.95335 0.81735 0.69548 0.0
O341 O 0.96298 0.80907 0.74244 0.0
O342 O 0.03215 0.85122 0.80765 0.0
O343 O 8e-05 0.87377 0.77921 0.0
O344 O 0.96681 0.86091 0.78162 0.0
O345 O 0.95768 0.82155 0.80105 0.0
C346 C 0.94942 0.84551 0.79785 0.0
O347 O 0.04184 0.83946 0.72441 0.0
O348 O 0.02379 0.84971 0.68009 0.0
C349 C 0.04928 0.79947 0.76191 0.0
C350 C 0.04667 0.8444 0.69681 0.0
Zn351 Zn 0.52371 0.64703 0.19456 0.0
Zn352 Zn 0.48271 0.65032 0.30087 0.0
Zn353 Zn 0.50358 0.64919 0.24813 0.0
C354 C 0.53663 0.68022 0.30231 0.0
C355 C 0.49314 0.59768 0.29032 0.0
O356 O 0.46913 0.66995 0.21923 0.0
O357 O 0.49454 0.67275 0.17638 0.0
C358 C 0.57189 0.67026 0.22658 0.0
O359 O 0.53865 0.67015 0.27615 0.0
O360 O 0.51178 0.67708 0.31745 0.0
O361 O 0.48908 0.61275 0.31224 0.0
O362 O 0.49757 0.60767 0.26424 0.0
O363 O 0.56724 0.6592 0.20196 0.0
O364 O 0.55009 0.66999 0.24664 0.0
O365 O 0.50957 0.60707 0.235 0.0
O366 O 0.51753 0.60875 0.18653 0.0
C367 C 0.51388 0.59532 0.20998 0.0
O368 O 0.45677 0.66934 0.24791 0.0
O369 O 0.43901 0.66096 0.29318 0.0
C370 C 0.47087 0.67828 0.1922 0.0
C371 C 0.43462 0.67031 0.26759 0.0
H372 H 0.0796 0.96264 0.38764 0.0
H373 H 0.04629 0.07213 0.26375 0.0
H374 H 0.09461 0.94822 0.29429 0.0
H375 H 0.02209 0.08051 0.35617 0.0
H376 H 0.06166 0.02606 0.27328 0.0
H377 H 0.05633 0.0051 0.37557 0.0
C378 C 0.07759 0.96817 0.3645 0.0
C379 C 0.08899 0.9516 0.34195 0.0
C380 C 0.05262 0.03787 0.29139 0.0
C381 C 0.06292 0.00096 0.32796 0.0
C382 C 0.04351 0.06403 0.28588 0.0
C383 C 0.03235 0.07988 0.30911 0.0
C384 C 0.05103 0.02776 0.32046 0.0
C385 C 0.0305 0.06889 0.33764 0.0
C386 C 0.06446 0.99263 0.35763 0.0
C387 C 0.08647 0.96041 0.31244 0.0
N388 N 0.03983 0.04356 0.34251 0.0
N389 N 0.07382 0.98456 0.3063 0.0
H390 H 0.42949 0.54152 0.88867 0.0
H391 H 0.452 0.43543 0.76061 0.0
H392 H 0.41673 0.56124 0.79622 0.0
H393 H 0.48286 0.42399 0.8506 0.0
H394 H 0.44119 0.48209 0.77182 0.0
H395 H 0.45098 0.49899 0.87422 0.0
C396 C 0.43163 0.53716 0.86527 0.0
C397 C 0.4212 0.55519 0.84368 0.0
C398 C 0.45081 0.46947 0.78896 0.0
C399 C 0.44519 0.50578 0.82692 0.0
C400 C 0.45729 0.44294 0.78246 0.0
C401 C 0.46871 0.42599 0.80461 0.0
C402 C 0.45528 0.47884 0.81795 0.0
C403 C 0.47403 0.43642 0.8329 0.0
C404 C 0.44376 0.51267 0.85702 0.0
C405 C 0.42395 0.54787 0.81371 0.0
N406 N 0.46707 0.46208 0.8388 0.0
N407 N 0.43543 0.52364 0.80622 0.0
H408 H 0.5978 0.54704 0.71223 0.0
H409 H 0.47705 0.43314 0.6775 0.0
H410 H 0.52227 0.55689 0.64949 0.0
H411 H 0.52936 0.43501 0.75901 0.0
H412 H 0.49076 0.47968 0.66872 0.0
H413 H 0.57122 0.50767 0.73191 0.0
C414 C 0.57535 0.5413 0.7029 0.0
C415 C 0.56258 0.55523 0.67877 0.0
C416 C 0.49873 0.47016 0.68886 0.0
C417 C 0.53235 0.50963 0.70091 0.0
C418 C 0.49089 0.44362 0.69385 0.0
C419 C 0.50214 0.43038 0.71897 0.0
C420 C 0.51876 0.48331 0.70871 0.0
C421 C 0.52014 0.44468 0.73944 0.0
C422 C 0.56023 0.51868 0.71413 0.0
C423 C 0.53355 0.54644 0.6675 0.0
N424 N 0.52842 0.4703 0.7336 0.0
N425 N 0.51969 0.52401 0.67835 0.0
H426 H 0.89682 0.95291 0.23162 0.0
H427 H 0.01514 0.06372 0.19078 0.0
H428 H 0.97872 0.93727 0.17726 0.0
H429 H 0.96334 0.06633 0.2732 0.0
H430 H 0.00545 0.01596 0.18824 0.0
H431 H 0.92322 0.99218 0.2511 0.0
C432 C 0.92067 0.95726 0.22434 0.0
C433 C 0.93522 0.94209 0.20213 0.0
C434 C 0.9968 0.02678 0.20728 0.0
C435 C 0.9652 0.98744 0.22385 0.0
C436 C 0.00226 0.05401 0.20864 0.0
C437 C 0.98978 0.06877 0.23208 0.0
C438 C 0.97774 0.01448 0.22897 0.0
C439 C 0.97325 0.05546 0.25474 0.0
C440 C 0.9357 0.9798 0.23543 0.0
C441 C 0.96613 0.94889 0.19356 0.0
N442 N 0.96701 0.02907 0.25228 0.0
N443 N 0.9798 0.9714 0.2039 0.0
H444 H 0.92683 0.03659 0.65231 0.0
H445 H 0.91714 0.91802 0.76293 0.0
H446 H 0.87322 0.04592 0.73347 0.0
H447 H 0.00021 0.93535 0.71081 0.0
H448 H 0.89892 0.96383 0.75432 0.0
H449 H 0.95206 0.99812 0.67357 0.0
C450 C 0.92061 0.03099 0.67479 0.0
C451 C 0.89779 0.04498 0.69102 0.0
C452 C 0.92158 0.95778 0.74558 0.0
C453 C 0.92615 -0.00023 0.71521 0.0
C454 C 0.93201 0.93181 0.75067 0.0
C455 C 0.96014 0.92322 0.73754 0.0
C456 C 0.93924 0.97465 0.7268 0.0
C457 C 0.97839 0.94143 0.72129 0.0
C458 C 0.93502 0.00877 0.68689 0.0
C459 C 0.89019 0.03568 0.71976 0.0
N460 N 0.96738 0.96614 0.71593 0.0
N461 N 0.90404 0.01344 0.73081 0.0
H462 H 0.61092 0.44827 0.2092 0.0
H463 H 0.49211 0.56225 0.16732 0.0
H464 H 0.53837 0.43886 0.14333 0.0
H465 H 0.54562 0.5631 0.24819 0.0
H466 H 0.50639 0.51584 0.16005 0.0
H467 H 0.58536 0.48882 0.22606 0.0
C468 C 0.58935 0.45444 0.19856 0.0
C469 C 0.57709 0.44025 0.17446 0.0
C470 C 0.51458 0.52596 0.1797 0.0
C471 C 0.54804 0.48701 0.19338 0.0
C472 C 0.50641 0.55242 0.18382 0.0
C473 C 0.51767 0.56636 0.20839 0.0
C474 C 0.53484 0.51355 0.19991 0.0
C475 C 0.53628 0.55288 0.22907 0.0
C476 C 0.57483 0.47769 0.20817 0.0
C477 C 0.54921 0.44948 0.16144 0.0
N478 N 0.54471 0.52728 0.22414 0.0
N479 N 0.53589 0.47241 0.17081 0.0
H480 H 0.43029 0.43403 0.28675 0.0
H481 H 0.51007 0.56989 0.33929 0.0
H482 H 0.4478 0.45476 0.37804 0.0
H483 H 0.46861 0.56016 0.25299 0.0
H484 H 0.49796 0.52353 0.35061 0.0
H485 H 0.45398 0.47633 0.27124 0.0
C486 C 0.43918 0.44732 0.30355 0.0
C487 C 0.4367 0.44075 0.33384 0.0
C488 C 0.49192 0.53138 0.32901 0.0
C489 C 0.46438 0.48895 0.31609 0.0
C490 C 0.49891 0.55781 0.32251 0.0
C491 C 0.4905 0.56878 0.29509 0.0
C492 C 0.47612 0.5158 0.30804 0.0
C493 C 0.476 0.5523 0.27417 0.0
C494 C 0.45286 0.47139 0.29462 0.0
C495 C 0.44941 0.45861 0.35446 0.0
N496 N 0.46902 0.52662 0.28116 0.0
N497 N 0.4625 0.48187 0.3452 0.0
H498 H 0.1284 0.99259 0.89496 0.0
H499 H 0.00657 0.92441 0.78354 0.0
H500 H 0.08205 0.03462 0.82421 0.0
H501 H 0.06641 0.8799 0.84233 0.0
H502 H 0.03012 0.96545 0.80163 0.0
H503 H 0.10231 0.95161 0.87924 0.0
C504 C 0.11263 0.99322 0.8762 0.0
C505 C 0.10745 0.01707 0.86083 0.0
C506 C 0.03806 0.94672 0.81065 0.0
C507 C 0.07754 0.97023 0.84271 0.0
C508 C 0.02452 0.92323 0.80037 0.0
C509 C 0.03459 0.8986 0.8113 0.0
C510 C 0.06177 0.94566 0.83218 0.0
C511 C 0.05795 0.89841 0.83321 0.0
C512 C 0.09786 0.9698 0.86715 0.0
C513 C 0.08703 0.01664 0.83647 0.0
N514 N 0.07077 0.92157 0.84289 0.0
N515 N 0.07277 0.99363 0.82822 0.0
H516 H 0.11348 0.2177 0.03616 0.0
H517 H 0.0873 0.17074 0.2038 0.0
H518 H 0.16537 0.15471 0.07814 0.0
H519 H 0.01905 0.2136 0.15231 0.0
H520 H 0.12606 0.17727 0.16376 0.0
H521 H 0.08904 0.22805 0.084 0.0
C522 C 0.12029 0.20645 0.05557 0.0
C523 C 0.14112 0.18504 0.05309 0.0
C524 C 0.10287 0.18591 0.16163 0.0
C525 C 0.11312 0.19669 0.10783 0.0
C526 C 0.08091 0.1825 0.18463 0.0
C527 C 0.04994 0.19151 0.18118 0.0
C528 C 0.09371 0.19853 0.13522 0.0
C529 C 0.04266 0.20618 0.15566 0.0
C530 C 0.10622 0.21228 0.08284 0.0
C531 C 0.14894 0.17104 0.07898 0.0
N532 N 0.06423 0.20892 0.13346 0.0
N533 N 0.13468 0.17691 0.10522 0.0
H534 H 0.37901 0.26714 0.53904 0.0
H535 H 0.39937 0.33299 0.69851 0.0
H536 H 0.33932 0.34231 0.56436 0.0
H537 H 0.46512 0.27838 0.65927 0.0
H538 H 0.36324 0.32502 0.65712 0.0
H539 H 0.39662 0.26054 0.59021 0.0
C540 C 0.37331 0.28193 0.55554 0.0
C541 C 0.35813 0.30549 0.54743 0.0
C542 C 0.38515 0.31416 0.65811 0.0
C543 C 0.37809 0.29805 0.60584 0.0
C544 C 0.40557 0.31846 0.68187 0.0
C545 C 0.43534 0.30654 0.68198 0.0
C546 C 0.39456 0.29761 0.6347 0.0
C547 C 0.44245 0.28812 0.65975 0.0
C548 C 0.38345 0.2782 0.58467 0.0
C549 C 0.35146 0.32408 0.56965 0.0
N550 N 0.42242 0.2845 0.63675 0.0
N551 N 0.36177 0.3201 0.59779 0.0
H552 H 0.66032 0.3411 0.93914 0.0
H553 H 0.5198 0.27565 0.85417 0.0
H554 H 0.61454 0.2689 0.96838 0.0
H555 H 0.57979 0.33532 0.81425 0.0
H556 H 0.55959 0.26794 0.89199 0.0
H557 H 0.63673 0.33548 0.89021 0.0
C558 C 0.6457 0.32383 0.93509 0.0
C559 C 0.639 0.30566 0.95801 0.0
C560 C 0.56454 0.28226 0.87458 0.0
C561 C 0.61168 0.29917 0.90211 0.0
C562 C 0.54186 0.28655 0.85288 0.0
C563 C 0.54646 0.30628 0.83126 0.0
C564 C 0.59165 0.29838 0.87517 0.0
C565 C 0.57538 0.31989 0.83056 0.0
C566 C 0.63234 0.32055 0.9071 0.0
C567 C 0.6203 0.28343 0.95141 0.0
N568 N 0.59659 0.31618 0.85271 0.0
N569 N 0.60682 0.28109 0.92427 0.0
H570 H 0.83514 0.14244 0.45042 0.0
H571 H 0.95783 0.22411 0.3564 0.0
H572 H 0.86769 0.22031 0.47552 0.0
H573 H 0.90711 0.15744 0.32057 0.0
H574 H 0.91897 0.22709 0.39635 0.0
H575 H 0.85569 0.1502 0.40028 0.0
C576 C 0.8463 0.1613 0.44527 0.0
C577 C 0.85011 0.18061 0.46732 0.0
C578 C 0.9157 0.21223 0.37937 0.0
C579 C 0.87378 0.18963 0.40995 0.0
C580 C 0.93777 0.2107 0.3564 0.0
C581 C 0.9357 0.19042 0.33534 0.0
C582 C 0.89191 0.19283 0.38178 0.0
C583 C 0.90946 0.1734 0.3364 0.0
C584 C 0.85783 0.1658 0.41657 0.0
C585 C 0.86427 0.20485 0.45927 0.0
N586 N 0.88901 0.17451 0.35977 0.0
N587 N 0.87607 0.20848 0.43142 0.0
H588 H 0.83391 0.82994 0.94852 0.0
H589 H 0.94534 0.89405 0.82515 0.0
H590 H 0.87459 0.90829 0.9564 0.0
H591 H 0.89748 0.81883 0.81665 0.0
H592 H 0.91245 0.90375 0.86881 0.0
H593 H 0.84963 0.82935 0.89656 0.0
C594 C 0.84563 0.84726 0.93928 0.0
C595 C 0.85335 0.86901 0.95722 0.0
C596 C 0.90863 0.8854 0.85695 0.0
C597 C 0.87225 0.86819 0.89747 0.0
C598 C 0.92719 0.88001 0.83187 0.0
C599 C 0.92435 0.85545 0.81763 0.0
C600 C 0.88726 0.86605 0.86766 0.0
C601 C 0.90068 0.83784 0.82732 0.0
C602 C 0.85483 0.84685 0.90951 0.0
C603 C 0.86891 0.89073 0.94376 0.0
N604 N 0.88343 0.84329 0.85196 0.0
N605 N 0.87826 0.88961 0.91487 0.0
H606 H 0.62625 0.7236 0.46054 0.0
H607 H 0.59592 0.65985 0.30175 0.0
H608 H 0.65235 0.64416 0.43574 0.0
H609 H 0.53977 0.72204 0.33999 0.0
H610 H 0.63325 0.66436 0.34275 0.0
H611 H 0.61055 0.73227 0.40919 0.0
C612 C 0.62932 0.70819 0.44413 0.0
C613 C 0.6401 0.68298 0.45243 0.0
C614 C 0.61333 0.67764 0.34156 0.0
C615 C 0.62245 0.69282 0.3938 0.0
C616 C 0.59227 0.67533 0.31798 0.0
C617 C 0.56457 0.69034 0.31788 0.0
C618 C 0.60665 0.6953 0.36476 0.0
C619 C 0.56076 0.70992 0.33956 0.0
C620 C 0.62034 0.71314 0.4149 0.0
C621 C 0.64355 0.66369 0.43033 0.0
N622 N 0.58125 0.71153 0.36247 0.0
N623 N 0.63446 0.66892 0.40207 0.0
H624 H 0.33174 0.66288 0.06801 0.0
H625 H 0.47283 0.72108 0.15572 0.0
H626 H 0.38085 0.73432 0.04143 0.0
H627 H 0.40889 0.66349 0.19388 0.0
H628 H 0.43327 0.73237 0.11885 0.0
H629 H 0.35287 0.66777 0.11801 0.0
C630 C 0.34649 0.6799 0.07291 0.0
C631 C 0.35505 0.69796 0.05044 0.0
C632 C 0.42738 0.71779 0.13573 0.0
C633 C 0.37963 0.70354 0.10748 0.0
C634 C 0.44994 0.71147 0.15688 0.0
C635 C 0.44411 0.69118 0.17756 0.0
C636 C 0.3992 0.70305 0.13468 0.0
C637 C 0.41421 0.67923 0.17819 0.0
C638 C 0.35844 0.68276 0.10149 0.0
C639 C 0.3738 0.71987 0.05805 0.0
N640 N 0.39312 0.68481 0.15645 0.0
N641 N 0.38603 0.72172 0.08575 0.0
H642 H 0.15048 0.78917 0.55399 0.0
H643 H 0.08287 0.80001 0.69261 0.0
H644 H 0.18001 0.87065 0.5639 0.0
H645 H 0.07952 0.88249 0.66767 0.0
H646 H 0.12508 0.79324 0.65586 0.0
H647 H 0.13088 0.78937 0.60501 0.0
C648 C 0.15381 0.80683 0.56722 0.0
C649 C 0.16631 0.8301 0.55444 0.0
C650 C 0.11553 0.81291 0.65879 0.0
C651 C 0.14389 0.83055 0.61297 0.0
C652 C 0.09191 0.81686 0.68014 0.0
C653 C 0.07791 0.84183 0.683 0.0
C654 C 0.12485 0.83416 0.6403 0.0
C655 C 0.08985 0.86296 0.66602 0.0
C656 C 0.14264 0.80694 0.59649 0.0
C657 C 0.16977 0.85247 0.5726 0.0
N658 N 0.11243 0.85859 0.6452 0.0
N659 N 0.15795 0.85233 0.60065 0.0
H660 H 0.18444 0.30672 0.32299 0.0
H661 H 0.12103 0.17474 0.25549 0.0
H662 H 0.2466 0.24959 0.28309 0.0
H663 H 0.06219 0.24264 0.27054 0.0
H664 H 0.16772 0.20347 0.25783 0.0
H665 H 0.13984 0.28577 0.29815 0.0
C666 C 0.18864 0.28989 0.30868 0.0
C667 C 0.21903 0.27959 0.30532 0.0
C668 C 0.1446 0.21231 0.25959 0.0
C669 C 0.16818 0.25527 0.27706 0.0
C670 C 0.11799 0.19594 0.25794 0.0
C671 C 0.08795 0.20653 0.26258 0.0
C672 C 0.14094 0.23921 0.26685 0.0
C673 C 0.08507 0.23391 0.26654 0.0
C674 C 0.16326 0.27802 0.29434 0.0
C675 C 0.22341 0.25799 0.28629 0.0
N676 N 0.11129 0.24927 0.26923 0.0
N677 N 0.19814 0.24617 0.2733 0.0
H678 H 0.30252 0.18845 0.79679 0.0
H679 H 0.35932 0.33685 0.77782 0.0
H680 H 0.24352 0.25644 0.81235 0.0
H681 H 0.41622 0.27048 0.75146 0.0
H682 H 0.31329 0.30774 0.7806 0.0
H683 H 0.34087 0.2173 0.77148 0.0
C684 C 0.29731 0.20935 0.79436 0.0
C685 C 0.27003 0.22013 0.80723 0.0
C686 C 0.33558 0.2995 0.77349 0.0
C687 C 0.31396 0.2533 0.77854 0.0
C688 C 0.36179 0.31621 0.77166 0.0
C689 C 0.39143 0.30593 0.7645 0.0
C690 C 0.33927 0.27212 0.76904 0.0
C691 C 0.39361 0.27907 0.75696 0.0
C692 C 0.31928 0.22583 0.77997 0.0
C693 C 0.2646 0.24737 0.80346 0.0
N694 N 0.36797 0.26287 0.76015 0.0
N695 N 0.28653 0.26302 0.78984 0.0
H696 H 0.73898 0.27152 0.69547 0.0
H697 H 0.56732 0.27985 0.76797 0.0
H698 H 0.68404 0.20282 0.72128 0.0
H699 H 0.61789 0.34558 0.7284 0.0
H700 H 0.61516 0.25278 0.76375 0.0
H701 H 0.70005 0.29988 0.71934 0.0
C702 C 0.71877 0.26241 0.70632 0.0
C703 C 0.71442 0.23482 0.70587 0.0
C704 C 0.61595 0.27333 0.75667 0.0
C705 C 0.66968 0.26717 0.73336 0.0
C706 C 0.58879 0.28881 0.75935 0.0
C707 C 0.58872 0.31478 0.74811 0.0
C708 C 0.643 0.2841 0.74282 0.0
C709 C 0.61697 0.32548 0.73695 0.0
C710 C 0.69662 0.27859 0.72011 0.0
C711 C 0.68822 0.22402 0.72098 0.0
N712 N 0.64283 0.31001 0.73423 0.0
N713 N 0.66656 0.24025 0.73373 0.0
H714 H 0.79258 0.29077 0.21949 0.0
H715 H 0.86909 0.14829 0.23641 0.0
H716 H 0.74919 0.21766 0.19111 0.0
H717 H 0.91513 0.21988 0.26547 0.0
H718 H 0.8202 0.17275 0.23035 0.0
H719 H 0.8329 0.2651 0.24536 0.0
C720 C 0.79124 0.26932 0.2191 0.0
C721 C 0.76776 0.25633 0.20271 0.0
C722 C 0.84071 0.18314 0.23864 0.0
C723 C 0.81385 0.22687 0.23217 0.0
C724 C 0.86855 0.1691 0.24234 0.0
C725 C 0.89609 0.18221 0.25116 0.0
C726 C 0.84059 0.21069 0.24308 0.0
C727 C 0.89428 0.20913 0.25859 0.0
C728 C 0.81431 0.25469 0.23383 0.0
C729 C 0.76725 0.22851 0.20288 0.0
N730 N 0.86712 0.2227 0.25369 0.0
N731 N 0.79009 0.21476 0.2171 0.0
H732 H 0.77316 0.72073 0.7185 0.0
H733 H 0.94437 0.76842 0.67348 0.0
H734 H 0.82648 0.68838 0.64554 0.0
H735 H 0.9039 0.78713 0.7587 0.0
H736 H 0.90292 0.73568 0.66581 0.0
H737 H 0.82153 0.7418 0.73692 0.0
C738 C 0.79515 0.71766 0.7067 0.0
C739 C 0.79577 0.70329 0.68012 0.0
C740 C 0.9032 0.74655 0.68645 0.0
C741 C 0.85086 0.72734 0.70083 0.0
C742 C 0.92689 0.76526 0.69079 0.0
C743 C 0.92728 0.7805 0.71662 0.0
C744 C 0.87913 0.74354 0.70775 0.0
C745 C 0.90427 0.77564 0.73848 0.0
C746 C 0.8227 0.72971 0.71718 0.0
C747 C 0.82482 0.69988 0.6657 0.0
N748 N 0.88062 0.75788 0.7333 0.0
N749 N 0.85105 0.71209 0.67601 0.0
H750 H 0.698 0.80319 0.21262 0.0
H751 H 0.62968 0.65548 0.20776 0.0
H752 H 0.739 0.73881 0.16325 0.0
H753 H 0.58133 0.7191 0.25203 0.0
H754 H 0.67536 0.68428 0.20055 0.0
H755 H 0.65997 0.77186 0.23478 0.0
C756 C 0.6992 0.78244 0.20667 0.0
C757 C 0.72143 0.77364 0.18573 0.0
C758 C 0.65505 0.69196 0.21227 0.0
C759 C 0.67818 0.73776 0.21107 0.0
C760 C 0.62904 0.67542 0.2166 0.0
C761 C 0.60167 0.68506 0.23021 0.0
C762 C 0.65353 0.71859 0.2211 0.0
C763 C 0.60206 0.71098 0.24139 0.0
C764 C 0.67748 0.76459 0.2193 0.0
C765 C 0.72187 0.74657 0.17879 0.0
N766 N 0.62741 0.7271 0.23605 0.0
N767 N 0.70053 0.72968 0.1913 0.0
H768 H 0.25529 0.72431 0.3196 0.0
H769 H 0.42436 0.71874 0.24146 0.0
H770 H 0.30614 0.79392 0.28982 0.0
H771 H 0.3767 0.65238 0.28276 0.0
H772 H 0.37597 0.74503 0.24692 0.0
H773 H 0.2942 0.69655 0.29484 0.0
C774 C 0.27459 0.73374 0.30766 0.0
C775 C 0.27784 0.76143 0.30724 0.0
C776 C 0.3759 0.7245 0.25409 0.0
C777 C 0.32265 0.72976 0.27883 0.0
C778 C 0.40337 0.70947 0.25069 0.0
C779 C 0.40442 0.68355 0.262 0.0
C780 C 0.34956 0.71331 0.26874 0.0
C781 C 0.37682 0.67243 0.27405 0.0
C782 C 0.29674 0.7179 0.29339 0.0
C783 C 0.30288 0.77263 0.29082 0.0
N784 N 0.35067 0.68745 0.27744 0.0
N785 N 0.32465 0.75674 0.27764 0.0
H786 H 0.20362 0.69461 0.79518 0.0
H787 H 0.10605 0.82461 0.75364 0.0
H788 H 0.23671 0.77408 0.8126 0.0
H789 H 0.06436 0.74721 0.76735 0.0
H790 H 0.15831 0.80534 0.76149 0.0
H791 H 0.15692 0.71302 0.77149 0.0
C792 C 0.20134 0.71595 0.79354 0.0
C793 C 0.22394 0.73286 0.8061 0.0
C794 C 0.13772 0.79256 0.76227 0.0
C795 C 0.17049 0.75401 0.77918 0.0
C796 C 0.10795 0.80347 0.75761 0.0
C797 C 0.08088 0.7875 0.76028 0.0
C798 C 0.14029 0.76549 0.76927 0.0
C799 C 0.08464 0.76027 0.76549 0.0
C800 C 0.1746 0.72643 0.78017 0.0
C801 C 0.21959 0.76036 0.80359 0.0
N802 N 0.11378 0.75015 0.77005 0.0
N803 N 0.19325 0.77011 0.79056 0.0
loop_
_geom_bond_atom_site_label_1
_geom_bond_atom_site_label_2
_geom_bond_distance
_geom_bond_site_symmetry_2
_ccdc_geom_bond_type
C0 C1 1.384 . S
C0 H13 0.947 . S
C0 C35 1.382 . S
C1 C0 1.384 . S
C1 C2 1.378 . S
C2 C1 1.378 . S
C2 C3 1.378 . S
C2 H14 0.952 . S
C3 C2 1.378 . S
C3 H15 0.950 . S
C3 C34 1.383 . S
H4 C23 0.947 . S
H5 C24 0.946 . S
H6 C26 0.953 . S
H7 C27 0.945 . S
H8 C29 0.952 . S
H9 C30 0.949 . S
H10 C32 0.950 . S
H11 C33 0.948 . S
H12 C35 0.951 . S
H13 C0 0.947 . S
H14 C2 0.952 . S
H15 C3 0.950 . S
N16 C19 1.382 . S
N16 C21 1.363 . S
N17 C19 1.371 . S
N17 C20 1.372 . S
N18 C20 1.361 . S
N18 C21 1.377 . S
C19 N16 1.382 . S
C19 N17 1.371 . S
C19 C22 1.480 . S
C20 N17 1.372 . S
C20 N18 1.361 . S
C20 C28 1.457 . S
C21 N16 1.363 . S
C21 N18 1.377 . S
C21 C34 1.479 . S
C22 C19 1.480 . S
C22 C23 1.383 . S
C22 C27 1.385 . S
C23 H4 0.947 . S
C23 C22 1.383 . S
C23 C24 1.388 . S
C24 H5 0.946 . S
C24 C23 1.388 . S
C24 C25 1.384 . S
C25 C24 1.384 . S
C25 C26 1.377 . S
C26 H6 0.953 . S
C26 C25 1.377 . S
C26 C27 1.369 . S
C27 H7 0.945 . S
C27 C22 1.385 . S
C27 C26 1.369 . S
C28 C20 1.457 . S
C28 C29 1.372 . S
C28 C33 1.364 . S
C29 H8 0.952 . S
C29 C28 1.372 . S
C29 C30 1.389 . S
C30 H9 0.949 . S
C30 C29 1.389 . S
C30 C31 1.387 . S
C31 C30 1.387 . S
C31 C32 1.372 . S
C32 H10 0.950 . S
C32 C31 1.372 . S
C32 C33 1.379 . S
C33 H11 0.948 . S
C33 C28 1.364 . S
C33 C32 1.379 . S
C34 C3 1.383 . S
C34 C21 1.479 . S
C34 C35 1.398 . S
C35 C0 1.382 . S
C35 H12 0.951 . S
C35 C34 1.398 . S
C36 C37 1.384 1_556 S
C36 H49 0.947 . S
C36 C71 1.382 . S
C37 C36 1.384 1_554 S
C37 C38 1.378 1_554 S
C38 C37 1.378 1_556 S
C38 C39 1.378 . S
C38 H50 0.952 1_556 S
C39 C38 1.378 . S
C39 H51 0.950 . S
C39 C70 1.383 . S
H40 C59 0.947 . S
H41 C60 0.946 . S
H42 C62 0.953 . S
H43 C63 0.945 . S
H44 C65 0.952 . S
H45 C66 0.949 . S
H46 C68 0.950 . S
H47 C69 0.948 . S
H48 C71 0.951 . S
H49 C36 0.947 . S
H50 C38 0.952 1_554 S
H51 C39 0.950 . S
N52 C55 1.382 . S
N52 C57 1.363 . S
N53 C55 1.371 . S
N53 C56 1.372 . S
N54 C56 1.361 . S
N54 C57 1.377 . S
C55 N52 1.382 . S
C55 N53 1.371 . S
C55 C58 1.480 . S
C56 N53 1.372 . S
C56 N54 1.361 . S
C56 C64 1.457 . S
C57 N52 1.363 . S
C57 N54 1.377 . S
C57 C70 1.479 . S
C58 C55 1.480 . S
C58 C59 1.383 . S
C58 C63 1.385 . S
C59 H40 0.947 . S
C59 C58 1.383 . S
C59 C60 1.388 . S
C60 H41 0.946 . S
C60 C59 1.388 . S
C60 C61 1.384 . S
C61 C60 1.384 . S
C61 C62 1.377 . S
C62 H42 0.953 . S
C62 C61 1.377 . S
C62 C63 1.369 . S
C63 H43 0.945 . S
C63 C58 1.385 . S
C63 C62 1.369 . S
C64 C56 1.457 . S
C64 C65 1.372 . S
C64 C69 1.364 . S
C65 H44 0.952 . S
C65 C64 1.372 . S
C65 C66 1.389 . S
C66 H45 0.949 . S
C66 C65 1.389 . S
C66 C67 1.387 . S
C67 C66 1.387 . S
C67 C68 1.372 . S
C68 H46 0.950 . S
C68 C67 1.372 . S
C68 C69 1.379 . S
C69 H47 0.948 . S
C69 C64 1.364 . S
C69 C68 1.379 . S
C70 C39 1.383 . S
C70 C57 1.479 . S
C70 C71 1.398 . S
C71 C36 1.382 . S
C71 H48 0.951 . S
C71 C70 1.398 . S
C72 C73 1.384 . S
C72 H85 0.947 . S
C72 C107 1.382 . S
C73 C72 1.384 . S
C73 C74 1.378 . S
C74 C73 1.378 . S
C74 C75 1.378 . S
C74 H86 0.952 . S
C75 C74 1.378 . S
C75 H87 0.950 . S
C75 C106 1.383 . S
H76 C95 0.947 . S
H77 C96 0.946 . S
H78 C98 0.953 . S
H79 C99 0.945 . S
H80 C101 0.952 . S
H81 C102 0.949 . S
H82 C104 0.950 . S
H83 C105 0.948 . S
H84 C107 0.951 . S
H85 C72 0.947 . S
H86 C74 0.952 . S
H87 C75 0.950 . S
N88 C91 1.382 . S
N88 C93 1.363 . S
N89 C91 1.371 . S
N89 C92 1.372 . S
N90 C92 1.361 . S
N90 C93 1.377 . S
C91 N88 1.382 . S
C91 N89 1.371 . S
C91 C94 1.480 . S
C92 N89 1.372 . S
C92 N90 1.361 . S
C92 C100 1.457 . S
C93 N88 1.363 . S
C93 N90 1.377 . S
C93 C106 1.479 . S
C94 C91 1.480 . S
C94 C95 1.383 . S
C94 C99 1.385 . S
C95 H76 0.947 . S
C95 C94 1.383 . S
C95 C96 1.388 . S
C96 H77 0.946 . S
C96 C95 1.388 . S
C96 C97 1.384 . S
C97 C96 1.384 . S
C97 C98 1.377 . S
C98 H78 0.953 . S
C98 C97 1.377 . S
C98 C99 1.369 . S
C99 H79 0.945 . S
C99 C94 1.385 . S
C99 C98 1.369 . S
C100 C92 1.457 . S
C100 C101 1.372 . S
C100 C105 1.364 . S
C101 H80 0.952 . S
C101 C100 1.372 . S
C101 C102 1.389 . S
C102 H81 0.949 . S
C102 C101 1.389 . S
C102 C103 1.387 . S
C103 C102 1.387 . S
C103 C104 1.372 . S
C104 H82 0.950 . S
C104 C103 1.372 . S
C104 C105 1.379 . S
C105 H83 0.948 . S
C105 C100 1.364 . S
C105 C104 1.379 . S
C106 C75 1.383 . S
C106 C93 1.479 . S
C106 C107 1.398 . S
C107 C72 1.382 . S
C107 H84 0.951 . S
C107 C106 1.398 . S
C108 C109 1.366 1_554 S
C108 H121 0.947 . S
C108 C143 1.382 . S
C109 C108 1.366 1_556 S
C109 C110 1.364 1_556 S
C110 C109 1.364 1_554 S
C110 C111 1.378 . S
C110 H122 0.952 . S
C111 C110 1.378 . S
C111 H123 0.950 . S
C111 C142 1.383 . S
H112 C131 0.947 . S
H113 C132 0.946 . S
H114 C134 0.953 . S
H115 C135 0.945 . S
H116 C137 0.952 . S
H117 C138 0.949 . S
H118 C140 0.950 . S
H119 C141 0.948 . S
H120 C143 0.951 . S
H121 C108 0.947 . S
H122 C110 0.952 . S
H123 C111 0.950 . S
N124 C127 1.382 . S
N124 C129 1.363 . S
N125 C127 1.371 . S
N125 C128 1.372 . S
N126 C128 1.361 . S
N126 C129 1.377 . S
C127 N124 1.382 . S
C127 N125 1.371 . S
C127 C130 1.480 . S
C128 N125 1.372 . S
C128 N126 1.361 . S
C128 C136 1.457 . S
C129 N124 1.363 . S
C129 N126 1.377 . S
C129 C142 1.479 . S
C130 C127 1.480 . S
C130 C131 1.383 . S
C130 C135 1.385 . S
C131 H112 0.947 . S
C131 C130 1.383 . S
C131 C132 1.388 . S
C132 H113 0.946 . S
C132 C131 1.388 . S
C132 C133 1.384 . S
C133 C132 1.384 . S
C133 C134 1.377 . S
C134 H114 0.953 . S
C134 C133 1.377 . S
C134 C135 1.369 . S
C135 H115 0.945 . S
C135 C130 1.385 . S
C135 C134 1.369 . S
C136 C128 1.457 . S
C136 C137 1.372 . S
C136 C141 1.364 . S
C137 H116 0.952 . S
C137 C136 1.372 . S
C137 C138 1.389 . S
C138 H117 0.949 . S
C138 C137 1.389 . S
C138 C139 1.387 . S
C139 C138 1.387 . S
C139 C140 1.372 . S
C140 H118 0.950 . S
C140 C139 1.372 . S
C140 C141 1.379 . S
C141 H119 0.948 . S
C141 C136 1.364 . S
C141 C140 1.379 . S
C142 C111 1.383 . S
C142 C129 1.479 . S
C142 C143 1.398 . S
C143 C108 1.382 . S
C143 H120 0.951 . S
C143 C142 1.398 . S
C144 C145 1.384 . S
C144 H157 0.947 . S
C144 C179 1.382 . S
C145 C144 1.384 . S
C145 C146 1.378 . S
C146 C145 1.378 . S
C146 C147 1.378 . S
C146 H158 0.952 . S
C147 C146 1.378 . S
C147 H159 0.950 . S
C147 C178 1.383 . S
H148 C167 0.947 . S
H149 C168 0.946 . S
H150 C170 0.953 . S
H151 C171 0.945 . S
H152 C173 0.952 . S
H153 C174 0.949 . S
H154 C176 0.950 . S
H155 C177 0.948 . S
H156 C179 0.951 . S
H157 C144 0.947 . S
H158 C146 0.952 . S
H159 C147 0.950 . S
N160 C163 1.382 . S
N160 C165 1.363 . S
N161 C163 1.371 . S
N161 C164 1.372 . S
N162 C164 1.361 . S
N162 C165 1.377 . S
C163 N160 1.382 . S
C163 N161 1.371 . S
C163 C166 1.480 . S
C164 N161 1.372 . S
C164 N162 1.361 . S
C164 C172 1.457 . S
C165 N160 1.363 . S
C165 N162 1.377 . S
C165 C178 1.479 . S
C166 C163 1.480 . S
C166 C167 1.383 . S
C166 C171 1.385 . S
C167 H148 0.947 . S
C167 C166 1.383 . S
C167 C168 1.388 . S
C168 H149 0.946 . S
C168 C167 1.388 . S
C168 C169 1.384 . S
C169 C168 1.384 . S
C169 C170 1.377 . S
C170 H150 0.953 . S
C170 C169 1.377 . S
C170 C171 1.369 . S
C171 H151 0.945 . S
C171 C166 1.385 . S
C171 C170 1.369 . S
C172 C164 1.457 . S
C172 C173 1.372 . S
C172 C177 1.364 . S
C173 H152 0.952 . S
C173 C172 1.372 . S
C173 C174 1.389 . S
C174 H153 0.949 . S
C174 C173 1.389 . S
C174 C175 1.387 . S
C175 C174 1.387 . S
C175 C176 1.372 . S
C176 H154 0.950 . S
C176 C175 1.372 . S
C176 C177 1.379 . S
C177 H155 0.948 . S
C177 C172 1.364 . S
C177 C176 1.379 . S
C178 C147 1.383 . S
C178 C165 1.479 . S
C178 C179 1.398 . S
C179 C144 1.382 . S
C179 H156 0.951 . S
C179 C178 1.398 . S
C180 C181 1.384 1_554 S
C180 H193 0.947 . S
C180 C215 1.382 . S
C181 C180 1.384 1_556 S
C181 C182 1.378 1_556 S
C182 C181 1.378 1_554 S
C182 C183 1.378 . S
C182 H194 0.952 1_554 S
C183 C182 1.378 . S
C183 H195 0.950 . S
C183 C214 1.383 . S
H184 C203 0.947 . S
H185 C204 0.946 . S
H186 C206 0.953 . S
H187 C207 0.945 . S
H188 C209 0.952 . S
H189 C210 0.949 . S
H190 C212 0.950 . S
H191 C213 0.948 . S
H192 C215 0.951 . S
H193 C180 0.947 . S
H194 C182 0.952 1_556 S
H195 C183 0.950 . S
N196 C199 1.382 . S
N196 C201 1.363 . S
N197 C199 1.371 . S
N197 C200 1.372 . S
N198 C200 1.361 . S
N198 C201 1.377 . S
C199 N196 1.382 . S
C199 N197 1.371 . S
C199 C202 1.480 . S
C200 N197 1.372 . S
C200 N198 1.361 . S
C200 C208 1.457 . S
C201 N196 1.363 . S
C201 N198 1.377 . S
C201 C214 1.479 . S
C202 C199 1.480 . S
C202 C203 1.383 . S
C202 C207 1.385 . S
C203 H184 0.947 . S
C203 C202 1.383 . S
C203 C204 1.388 . S
C204 H185 0.946 . S
C204 C203 1.388 . S
C204 C205 1.384 . S
C205 C204 1.384 . S
C205 C206 1.377 . S
C206 H186 0.953 . S
C206 C205 1.377 . S
C206 C207 1.369 . S
C207 H187 0.945 . S
C207 C202 1.385 . S
C207 C206 1.369 . S
C208 C200 1.457 . S
C208 C209 1.372 . S
C208 C213 1.364 . S
C209 H188 0.952 . S
C209 C208 1.372 . S
C209 C210 1.389 . S
C210 H189 0.949 . S
C210 C209 1.389 . S
C210 C211 1.387 . S
C211 C210 1.387 . S
C211 C212 1.372 . S
C212 H190 0.950 . S
C212 C211 1.372 . S
C212 C213 1.379 . S
C213 H191 0.948 . S
C213 C208 1.364 . S
C213 C212 1.379 . S
C214 C183 1.383 . S
C214 C201 1.479 . S
C214 C215 1.398 . S
C215 C180 1.382 . S
C215 H192 0.951 . S
C215 C214 1.398 . S
C216 C217 1.384 . S
C216 H229 0.947 . S
C216 C251 1.382 . S
C217 C216 1.384 . S
C217 C218 1.378 . S
C218 C217 1.378 . S
C218 C219 1.378 . S
C218 H230 0.952 . S
C219 C218 1.378 . S
C219 H231 0.950 . S
C219 C250 1.383 . S
H220 C239 0.947 . S
H221 C240 0.946 . S
H222 C242 0.953 . S
H223 C243 0.945 . S
H224 C245 0.952 . S
H225 C246 0.949 . S
H226 C248 0.950 . S
H227 C249 0.948 . S
H228 C251 0.951 . S
H229 C216 0.947 . S
H230 C218 0.952 . S
H231 C219 0.950 . S
N232 C235 1.382 . S
N232 C237 1.363 . S
N233 C235 1.371 . S
N233 C236 1.372 . S
N234 C236 1.361 . S
N234 C237 1.377 . S
C235 N232 1.382 . S
C235 N233 1.371 . S
C235 C238 1.480 . S
C236 N233 1.372 . S
C236 N234 1.361 . S
C236 C244 1.457 . S
C237 N232 1.363 . S
C237 N234 1.377 . S
C237 C250 1.479 . S
C238 C235 1.480 . S
C238 C239 1.383 . S
C238 C243 1.385 . S
C239 H220 0.947 . S
C239 C238 1.383 . S
C239 C240 1.388 . S
C240 H221 0.946 . S
C240 C239 1.388 . S
C240 C241 1.384 . S
C241 C240 1.384 . S
C241 C242 1.377 . S
C242 H222 0.953 . S
C242 C241 1.377 . S
C242 C243 1.369 . S
C243 H223 0.945 . S
C243 C238 1.385 . S
C243 C242 1.369 . S
C244 C236 1.457 . S
C244 C245 1.372 . S
C244 C249 1.364 . S
C245 H224 0.952 . S
C245 C244 1.372 . S
C245 C246 1.389 . S
C246 H225 0.949 . S
C246 C245 1.389 . S
C246 C247 1.387 . S
C247 C246 1.387 . S
C247 C248 1.372 . S
C248 H226 0.950 . S
C248 C247 1.372 . S
C248 C249 1.379 . S
C249 H227 0.948 . S
C249 C244 1.364 . S
C249 C248 1.379 . S
C250 C219 1.383 . S
C250 C237 1.479 . S
C250 C251 1.398 . S
C251 C216 1.382 . S
C251 H228 0.951 . S
C251 C250 1.398 . S
C252 C253 1.384 1_556 S
C252 H265 0.947 . S
C252 C287 1.382 . S
C253 C252 1.384 1_554 S
C253 C254 1.378 1_554 S
C254 C253 1.378 1_556 S
C254 C255 1.378 . S
C254 H266 0.952 1_556 S
C255 C254 1.378 . S
C255 H267 0.950 . S
C255 C286 1.383 . S
H256 C275 0.947 . S
H257 C276 0.946 . S
H258 C278 0.953 . S
H259 C279 0.945 . S
H260 C281 0.952 . S
H261 C282 0.949 . S
H262 C284 0.950 . S
H263 C285 0.948 . S
H264 C287 0.951 . S
H265 C252 0.947 . S
H266 C254 0.952 1_554 S
H267 C255 0.950 . S
N268 C271 1.382 . S
N268 C273 1.363 . S
N269 C271 1.371 . S
N269 C272 1.372 . S
N270 C272 1.361 . S
N270 C273 1.377 . S
C271 N268 1.382 . S
C271 N269 1.371 . S
C271 C274 1.480 . S
C272 N269 1.372 . S
C272 N270 1.361 . S
C272 C280 1.457 . S
C273 N268 1.363 . S
C273 N270 1.377 . S
C273 C286 1.479 . S
C274 C271 1.480 . S
C274 C275 1.383 . S
C274 C279 1.385 . S
C275 H256 0.947 . S
C275 C274 1.383 . S
C275 C276 1.388 . S
C276 H257 0.946 . S
C276 C275 1.388 . S
C276 C277 1.384 . S
C277 C276 1.384 . S
C277 C278 1.377 . S
C278 H258 0.953 . S
C278 C277 1.377 . S
C278 C279 1.369 . S
C279 H259 0.945 . S
C279 C274 1.385 . S
C279 C278 1.369 . S
C280 C272 1.457 . S
C280 C281 1.372 . S
C280 C285 1.364 . S
C281 H260 0.952 . S
C281 C280 1.372 . S
C281 C282 1.389 . S
C282 H261 0.949 . S
C282 C281 1.389 . S
C282 C283 1.387 . S
C283 C282 1.387 . S
C283 C284 1.372 . S
C284 H262 0.950 . S
C284 C283 1.372 . S
C284 C285 1.379 . S
C285 H263 0.948 . S
C285 C280 1.364 . S
C285 C284 1.379 . S
C286 C255 1.383 . S
C286 C273 1.479 . S
C286 C287 1.398 . S
C287 C252 1.382 . S
C287 H264 0.951 . S
C287 C286 1.398 . S
Zn288 O294 1.920 1_455 S
Zn288 O300 1.898 . S
Zn288 O303 1.905 . S
Zn289 O297 1.905 1_655 S
Zn289 O298 1.898 . S
Zn289 O306 1.920 . S
Zn290 O293 2.080 1_455 S
Zn290 O296 2.114 . S
Zn290 O299 2.120 1_455 S
Zn290 O301 2.120 . S
Zn290 O302 2.114 . S
Zn290 O305 2.080 1_455 S
C291 O296 1.166 . S
C291 O297 1.182 . S
C292 O298 1.167 . S
C292 O299 1.299 . S
O293 Zn290 2.080 1_655 S
O293 C307 1.305 . S
O294 Zn288 1.920 1_655 S
O294 C307 1.234 . S
C295 O300 1.167 . S
C295 O301 1.299 . S
O296 Zn290 2.114 . S
O296 C291 1.166 . S
O297 Zn289 1.905 1_455 S
O297 C291 1.182 . S
O298 Zn289 1.898 . S
O298 C292 1.167 . S
O299 Zn290 2.120 1_655 S
O299 C292 1.299 . S
O300 Zn288 1.898 . S
O300 C295 1.167 . S
O301 Zn290 2.120 . S
O301 C295 1.299 . S
O302 Zn290 2.114 . S
O302 C304 1.166 . S
O303 Zn288 1.905 . S
O303 C304 1.182 . S
C304 O302 1.166 . S
C304 O303 1.182 . S
O305 Zn290 2.080 1_655 S
O305 C308 1.305 . S
O306 Zn289 1.920 . S
O306 C308 1.234 . S
C307 O293 1.305 . S
C307 O294 1.234 . S
C308 O305 1.305 . S
C308 O306 1.234 . S
Zn309 O315 1.920 . S
Zn309 O321 1.898 . S
Zn309 O324 1.905 . S
Zn310 O318 1.905 . S
Zn310 O319 1.898 . S
Zn310 O327 1.920 . S
Zn311 O314 2.080 . S
Zn311 O317 2.114 . S
Zn311 O320 2.120 . S
Zn311 O322 2.120 . S
Zn311 O323 2.114 . S
Zn311 O326 2.080 . S
C312 O317 1.166 . S
C312 O318 1.182 . S
C313 O319 1.167 . S
C313 O320 1.299 . S
O314 Zn311 2.080 . S
O314 C328 1.305 . S
O315 Zn309 1.920 . S
O315 C328 1.234 . S
C316 O321 1.167 . S
C316 O322 1.299 . S
O317 Zn311 2.114 . S
O317 C312 1.166 . S
O318 Zn310 1.905 . S
O318 C312 1.182 . S
O319 Zn310 1.898 . S
O319 C313 1.167 . S
O320 Zn311 2.120 . S
O320 C313 1.299 . S
O321 Zn309 1.898 . S
O321 C316 1.167 . S
O322 Zn311 2.120 . S
O322 C316 1.299 . S
O323 Zn311 2.114 . S
O323 C325 1.166 . S
O324 Zn309 1.905 . S
O324 C325 1.182 . S
C325 O323 1.166 . S
C325 O324 1.182 . S
O326 Zn311 2.080 . S
O326 C329 1.305 . S
O327 Zn310 1.920 . S
O327 C329 1.234 . S
C328 O314 1.305 . S
C328 O315 1.234 . S
C329 O326 1.305 . S
C329 O327 1.234 . S
Zn330 O336 1.920 . S
Zn330 O342 1.898 . S
Zn330 O345 1.905 1_455 S
Zn331 O339 1.905 . S
Zn331 O340 1.898 . S
Zn331 O348 1.920 1_655 S
Zn332 O335 2.080 . S
Zn332 O338 2.114 1_455 S
Zn332 O341 2.120 1_455 S
Zn332 O343 2.120 . S
Zn332 O344 2.114 1_455 S
Zn332 O347 2.080 . S
C333 O338 1.166 . S
C333 O339 1.182 . S
C334 O340 1.167 . S
C334 O341 1.299 . S
O335 Zn332 2.080 . S
O335 C349 1.305 . S
O336 Zn330 1.920 . S
O336 C349 1.234 . S
C337 O342 1.167 . S
C337 O343 1.299 . S
O338 Zn332 2.114 1_655 S
O338 C333 1.166 . S
O339 Zn331 1.905 . S
O339 C333 1.182 . S
O340 Zn331 1.898 . S
O340 C334 1.167 . S
O341 Zn332 2.120 1_655 S
O341 C334 1.299 . S
O342 Zn330 1.898 . S
O342 C337 1.167 . S
O343 Zn332 2.120 . S
O343 C337 1.299 . S
O344 Zn332 2.114 1_655 S
O344 C346 1.166 . S
O345 Zn330 1.905 1_655 S
O345 C346 1.182 . S
C346 O344 1.166 . S
C346 O345 1.182 . S
O347 Zn332 2.080 . S
O347 C350 1.305 . S
O348 Zn331 1.920 1_455 S
O348 C350 1.234 . S
C349 O335 1.305 . S
C349 O336 1.234 . S
C350 O347 1.305 . S
C350 O348 1.234 . S
Zn351 O357 1.920 . S
Zn351 O363 1.898 . S
Zn351 O366 1.905 . S
Zn352 O360 1.905 . S
Zn352 O361 1.898 . S
Zn352 O369 1.920 . S
Zn353 O356 2.080 . S
Zn353 O359 2.114 . S
Zn353 O362 2.120 . S
Zn353 O364 2.120 . S
Zn353 O365 2.114 . S
Zn353 O368 2.080 . S
C354 O359 1.166 . S
C354 O360 1.182 . S
C355 O361 1.167 . S
C355 O362 1.299 . S
O356 Zn353 2.080 . S
O356 C370 1.305 . S
O357 Zn351 1.920 . S
O357 C370 1.234 . S
C358 O363 1.167 . S
C358 O364 1.299 . S
O359 Zn353 2.114 . S
O359 C354 1.166 . S
O360 Zn352 1.905 . S
O360 C354 1.182 . S
O361 Zn352 1.898 . S
O361 C355 1.167 . S
O362 Zn353 2.120 . S
O362 C355 1.299 . S
O363 Zn351 1.898 . S
O363 C358 1.167 . S
O364 Zn353 2.120 . S
O364 C358 1.299 . S
O365 Zn353 2.114 . S
O365 C367 1.166 . S
O366 Zn351 1.905 . S
O366 C367 1.182 . S
C367 O365 1.166 . S
C367 O366 1.182 . S
O368 Zn353 2.080 . S
O368 C371 1.305 . S
O369 Zn352 1.920 . S
O369 C371 1.234 . S
C370 O356 1.305 . S
C370 O357 1.234 . S
C371 O368 1.305 . S
C371 O369 1.234 . S
H372 C378 0.930 . S
H373 C382 0.930 . S
H374 C387 0.929 . S
H375 C385 0.929 . S
H376 C380 0.929 . S
H377 C386 0.929 1_545 S
C378 H372 0.930 . S
C378 C379 1.367 . S
C378 C386 1.378 . S
C379 C378 1.367 . S
C379 C387 1.433 . S
C380 H376 0.929 . S
C380 C382 1.378 . S
C380 C384 1.350 . S
C381 C384 1.463 . S
C381 C386 1.350 1_545 S
C381 N389 1.427 1_545 S
C382 H373 0.930 . S
C382 C380 1.378 . S
C382 C383 1.367 . S
C383 C382 1.367 . S
C383 C385 1.433 . S
C384 C380 1.350 . S
C384 C381 1.463 . S
C384 N388 1.427 . S
C385 H375 0.929 . S
C385 C383 1.433 . S
C385 N388 1.384 . S
C386 H377 0.929 1_565 S
C386 C378 1.378 . S
C386 C381 1.350 1_565 S
C387 H374 0.929 . S
C387 C379 1.433 . S
C387 N389 1.384 . S
N388 C384 1.427 . S
N388 C385 1.384 . S
N389 C381 1.427 1_565 S
N389 C387 1.384 . S
H390 C396 0.930 . S
H391 C400 0.930 . S
H392 C405 0.929 . S
H393 C403 0.929 . S
H394 C398 0.929 . S
H395 C404 0.929 . S
C396 H390 0.930 . S
C396 C397 1.367 . S
C396 C404 1.378 . S
C397 C396 1.367 . S
C397 C405 1.433 . S
C398 H394 0.929 . S
C398 C400 1.378 . S
C398 C402 1.350 . S
C399 C402 1.463 . S
C399 C404 1.350 . S
C399 N407 1.427 . S
C400 H391 0.930 . S
C400 C398 1.378 . S
C400 C401 1.367 . S
C401 C400 1.367 . S
C401 C403 1.433 . S
C402 C398 1.350 . S
C402 C399 1.463 . S
C402 N406 1.427 . S
C403 H393 0.929 . S
C403 C401 1.433 . S
C403 N406 1.384 . S
C404 H395 0.929 . S
C404 C396 1.378 . S
C404 C399 1.350 . S
C405 H392 0.929 . S
C405 C397 1.433 . S
C405 N407 1.384 . S
N406 C402 1.427 . S
N406 C403 1.384 . S
N407 C399 1.427 . S
N407 C405 1.384 . S
H408 C414 0.930 . S
H409 C418 0.930 . S
H410 C423 0.929 . S
H411 C421 0.929 . S
H412 C416 0.929 . S
H413 C422 0.929 . S
C414 H408 0.930 . S
C414 C415 1.367 . S
C414 C422 1.378 . S
C415 C414 1.367 . S
C415 C423 1.433 . S
C416 H412 0.929 . S
C416 C418 1.378 . S
C416 C420 1.350 . S
C417 C420 1.463 . S
C417 C422 1.350 . S
C417 N425 1.427 . S
C418 H409 0.930 . S
C418 C416 1.378 . S
C418 C419 1.367 . S
C419 C418 1.367 . S
C419 C421 1.433 . S
C420 C416 1.350 . S
C420 C417 1.463 . S
C420 N424 1.427 . S
C421 H411 0.929 . S
C421 C419 1.433 . S
C421 N424 1.384 . S
C422 H413 0.929 . S
C422 C414 1.378 . S
C422 C417 1.350 . S
C423 H410 0.929 . S
C423 C415 1.433 . S
C423 N425 1.384 . S
N424 C420 1.427 . S
N424 C421 1.384 . S
N425 C417 1.427 . S
N425 C423 1.384 . S
H426 C432 0.930 . S
H427 C436 0.930 . S
H428 C441 0.929 . S
H429 C439 0.929 . S
H430 C434 0.929 . S
H431 C440 0.929 . S
C432 H426 0.930 . S
C432 C433 1.367 . S
C432 C440 1.378 1_565 S
C433 C432 1.367 . S
C433 C441 1.433 . S
C434 H430 0.929 . S
C434 C436 1.378 . S
C434 C438 1.350 . S
C435 C438 1.463 . S
C435 C440 1.350 . S
C435 N443 1.427 1_545 S
C436 H427 0.930 . S
C436 C434 1.378 . S
C436 C437 1.367 . S
C437 C436 1.367 . S
C437 C439 1.433 . S
C438 C434 1.350 . S
C438 C435 1.463 . S
C438 N442 1.427 . S
C439 H429 0.929 . S
C439 C437 1.433 . S
C439 N442 1.384 . S
C440 H431 0.929 . S
C440 C432 1.378 1_545 S
C440 C435 1.350 . S
C441 H428 0.929 . S
C441 C433 1.433 . S
C441 N443 1.384 . S
N442 C438 1.427 . S
N442 C439 1.384 . S
N443 C435 1.427 1_565 S
N443 C441 1.384 . S
H444 C450 0.930 . S
H445 C454 0.930 . S
H446 C459 0.929 . S
H447 C457 0.929 . S
H448 C452 0.929 . S
H449 C458 0.929 . S
C450 H444 0.930 . S
C450 C451 1.367 . S
C450 C458 1.378 . S
C451 C450 1.367 . S
C451 C459 1.433 . S
C452 H448 0.929 . S
C452 C454 1.378 . S
C452 C456 1.350 . S
C453 C456 1.463 . S
C453 C458 1.350 1_565 S
C453 N461 1.427 1_565 S
C454 H445 0.930 . S
C454 C452 1.378 . S
C454 C455 1.367 . S
C455 C454 1.367 . S
C455 C457 1.433 . S
C456 C452 1.350 . S
C456 C453 1.463 . S
C456 N460 1.427 . S
C457 H447 0.929 . S
C457 C455 1.433 . S
C457 N460 1.384 . S
C458 H449 0.929 . S
C458 C450 1.378 . S
C458 C453 1.350 1_545 S
C459 H446 0.929 . S
C459 C451 1.433 . S
C459 N461 1.384 . S
N460 C456 1.427 . S
N460 C457 1.384 . S
N461 C453 1.427 1_545 S
N461 C459 1.384 . S
H462 C468 0.930 . S
H463 C472 0.930 . S
H464 C477 0.929 . S
H465 C475 0.929 . S
H466 C470 0.929 . S
H467 C476 0.929 . S
C468 H462 0.930 . S
C468 C469 1.367 . S
C468 C476 1.378 . S
C469 C468 1.367 . S
C469 C477 1.433 . S
C470 H466 0.929 . S
C470 C472 1.378 . S
C470 C474 1.350 . S
C471 C474 1.463 . S
C471 C476 1.350 . S
C471 N479 1.427 . S
C472 H463 0.930 . S
C472 C470 1.378 . S
C472 C473 1.367 . S
C473 C472 1.367 . S
C473 C475 1.433 . S
C474 C470 1.350 . S
C474 C471 1.463 . S
C474 N478 1.427 . S
C475 H465 0.929 . S
C475 C473 1.433 . S
C475 N478 1.384 . S
C476 H467 0.929 . S
C476 C468 1.378 . S
C476 C471 1.350 . S
C477 H464 0.929 . S
C477 C469 1.433 . S
C477 N479 1.384 . S
N478 C474 1.427 . S
N478 C475 1.384 . S
N479 C471 1.427 . S
N479 C477 1.384 . S
H480 C486 0.930 . S
H481 C490 0.930 . S
H482 C495 0.929 . S
H483 C493 0.929 . S
H484 C488 0.929 . S
H485 C494 0.929 . S
C486 H480 0.930 . S
C486 C487 1.367 . S
C486 C494 1.378 . S
C487 C486 1.367 . S
C487 C495 1.433 . S
C488 H484 0.929 . S
C488 C490 1.378 . S
C488 C492 1.350 . S
C489 C492 1.463 . S
C489 C494 1.350 . S
C489 N497 1.427 . S
C490 H481 0.930 . S
C490 C488 1.378 . S
C490 C491 1.367 . S
C491 C490 1.367 . S
C491 C493 1.433 . S
C492 C488 1.350 . S
C492 C489 1.463 . S
C492 N496 1.427 . S
C493 H483 0.929 . S
C493 C491 1.433 . S
C493 N496 1.384 . S
C494 H485 0.929 . S
C494 C486 1.378 . S
C494 C489 1.350 . S
C495 H482 0.929 . S
C495 C487 1.433 . S
C495 N497 1.384 . S
N496 C492 1.427 . S
N496 C493 1.384 . S
N497 C489 1.427 . S
N497 C495 1.384 . S
H498 C504 0.930 . S
H499 C508 0.930 . S
H500 C513 0.929 . S
H501 C511 0.929 . S
H502 C506 0.929 . S
H503 C512 0.929 1_565 S
C504 H498 0.930 . S
C504 C505 1.367 . S
C504 C512 1.378 . S
C505 C504 1.367 . S
C505 C513 1.433 . S
C506 H502 0.929 . S
C506 C508 1.378 . S
C506 C510 1.350 . S
C507 C510 1.463 . S
C507 C512 1.350 1_565 S
C507 N515 1.427 1_565 S
C508 H499 0.930 . S
C508 C506 1.378 . S
C508 C509 1.367 . S
C509 C508 1.367 . S
C509 C511 1.433 . S
C510 C506 1.350 . S
C510 C507 1.463 . S
C510 N514 1.427 . S
C511 H501 0.929 . S
C511 C509 1.433 . S
C511 N514 1.384 . S
C512 H503 0.929 1_545 S
C512 C504 1.378 . S
C512 C507 1.350 1_545 S
C513 H500 0.929 . S
C513 C505 1.433 . S
C513 N515 1.384 . S
N514 C510 1.427 . S
N514 C511 1.384 . S
N515 C507 1.427 1_545 S
N515 C513 1.384 . S
H516 C522 0.930 . S
H517 C526 0.930 . S
H518 C531 0.929 . S
H519 C529 0.929 . S
H520 C524 0.929 . S
H521 C530 0.929 . S
C522 H516 0.930 . S
C522 C523 1.367 . S
C522 C530 1.378 . S
C523 C522 1.367 . S
C523 C531 1.433 . S
C524 H520 0.929 . S
C524 C526 1.378 . S
C524 C528 1.350 . S
C525 C528 1.463 . S
C525 C530 1.350 . S
C525 N533 1.427 . S
C526 H517 0.930 . S
C526 C524 1.378 . S
C526 C527 1.367 . S
C527 C526 1.367 . S
C527 C529 1.433 . S
C528 C524 1.350 . S
C528 C525 1.463 . S
C528 N532 1.427 . S
C529 H519 0.929 . S
C529 C527 1.433 . S
C529 N532 1.384 . S
C530 H521 0.929 . S
C530 C522 1.378 . S
C530 C525 1.350 . S
C531 H518 0.929 . S
C531 C523 1.433 . S
C531 N533 1.384 . S
N532 C528 1.427 . S
N532 C529 1.384 . S
N533 C525 1.427 . S
N533 C531 1.384 . S
H534 C540 0.930 . S
H535 C544 0.930 . S
H536 C549 0.929 . S
H537 C547 0.929 . S
H538 C542 0.929 . S
H539 C548 0.929 . S
C540 H534 0.930 . S
C540 C541 1.367 . S
C540 C548 1.378 . S
C541 C540 1.367 . S
C541 C549 1.433 . S
C542 H538 0.929 . S
C542 C544 1.378 . S
C542 C546 1.350 . S
C543 C546 1.463 . S
C543 C548 1.350 . S
C543 N551 1.427 . S
C544 H535 0.930 . S
C544 C542 1.378 . S
C544 C545 1.367 . S
C545 C544 1.367 . S
C545 C547 1.433 . S
C546 C542 1.350 . S
C546 C543 1.463 . S
C546 N550 1.427 . S
C547 H537 0.929 . S
C547 C545 1.433 . S
C547 N550 1.384 . S
C548 H539 0.929 . S
C548 C540 1.378 . S
C548 C543 1.350 . S
C549 H536 0.929 . S
C549 C541 1.433 . S
C549 N551 1.384 . S
N550 C546 1.427 . S
N550 C547 1.384 . S
N551 C543 1.427 . S
N551 C549 1.384 . S
H552 C558 0.930 . S
H553 C562 0.930 . S
H554 C567 0.929 . S
H555 C565 0.929 . S
H556 C560 0.929 . S
H557 C566 0.929 . S
C558 H552 0.930 . S
C558 C559 1.367 . S
C558 C566 1.378 . S
C559 C558 1.367 . S
C559 C567 1.433 . S
C560 H556 0.929 . S
C560 C562 1.378 . S
C560 C564 1.350 . S
C561 C564 1.463 . S
C561 C566 1.350 . S
C561 N569 1.427 . S
C562 H553 0.930 . S
C562 C560 1.378 . S
C562 C563 1.367 . S
C563 C562 1.367 . S
C563 C565 1.433 . S
C564 C560 1.350 . S
C564 C561 1.463 . S
C564 N568 1.427 . S
C565 H555 0.929 . S
C565 C563 1.433 . S
C565 N568 1.384 . S
C566 H557 0.929 . S
C566 C558 1.378 . S
C566 C561 1.350 . S
C567 H554 0.929 . S
C567 C559 1.433 . S
C567 N569 1.384 . S
N568 C564 1.427 . S
N568 C565 1.384 . S
N569 C561 1.427 . S
N569 C567 1.384 . S
H570 C576 0.930 . S
H571 C580 0.930 . S
H572 C585 0.929 . S
H573 C583 0.929 . S
H574 C578 0.929 . S
H575 C584 0.929 . S
C576 H570 0.930 . S
C576 C577 1.367 . S
C576 C584 1.378 . S
C577 C576 1.367 . S
C577 C585 1.433 . S
C578 H574 0.929 . S
C578 C580 1.378 . S
C578 C582 1.350 . S
C579 C582 1.463 . S
C579 C584 1.350 . S
C579 N587 1.427 . S
C580 H571 0.930 . S
C580 C578 1.378 . S
C580 C581 1.367 . S
C581 C580 1.367 . S
C581 C583 1.433 . S
C582 C578 1.350 . S
C582 C579 1.463 . S
C582 N586 1.427 . S
C583 H573 0.929 . S
C583 C581 1.433 . S
C583 N586 1.384 . S
C584 H575 0.929 . S
C584 C576 1.378 . S
C584 C579 1.350 . S
C585 H572 0.929 . S
C585 C577 1.433 . S
C585 N587 1.384 . S
N586 C582 1.427 . S
N586 C583 1.384 . S
N587 C579 1.427 . S
N587 C585 1.384 . S
H588 C594 0.930 . S
H589 C598 0.930 . S
H590 C603 0.929 . S
H591 C601 0.929 . S
H592 C596 0.929 . S
H593 C602 0.929 . S
C594 H588 0.930 . S
C594 C595 1.367 . S
C594 C602 1.378 . S
C595 C594 1.367 . S
C595 C603 1.433 . S
C596 H592 0.929 . S
C596 C598 1.378 . S
C596 C600 1.350 . S
C597 C600 1.463 . S
C597 C602 1.350 . S
C597 N605 1.427 . S
C598 H589 0.930 . S
C598 C596 1.378 . S
C598 C599 1.367 . S
C599 C598 1.367 . S
C599 C601 1.433 . S
C600 C596 1.350 . S
C600 C597 1.463 . S
C600 N604 1.427 . S
C601 H591 0.929 . S
C601 C599 1.433 . S
C601 N604 1.384 . S
C602 H593 0.929 . S
C602 C594 1.378 . S
C602 C597 1.350 . S
C603 H590 0.929 . S
C603 C595 1.433 . S
C603 N605 1.384 . S
N604 C600 1.427 . S
N604 C601 1.384 . S
N605 C597 1.427 . S
N605 C603 1.384 . S
H606 C612 0.930 . S
H607 C616 0.930 . S
H608 C621 0.929 . S
H609 C619 0.929 . S
H610 C614 0.929 . S
H611 C620 0.929 . S
C612 H606 0.930 . S
C612 C613 1.367 . S
C612 C620 1.378 . S
C613 C612 1.367 . S
C613 C621 1.433 . S
C614 H610 0.929 . S
C614 C616 1.378 . S
C614 C618 1.350 . S
C615 C618 1.463 . S
C615 C620 1.350 . S
C615 N623 1.427 . S
C616 H607 0.930 . S
C616 C614 1.378 . S
C616 C617 1.367 . S
C617 C616 1.367 . S
C617 C619 1.433 . S
C618 C614 1.350 . S
C618 C615 1.463 . S
C618 N622 1.427 . S
C619 H609 0.929 . S
C619 C617 1.433 . S
C619 N622 1.384 . S
C620 H611 0.929 . S
C620 C612 1.378 . S
C620 C615 1.350 . S
C621 H608 0.929 . S
C621 C613 1.433 . S
C621 N623 1.384 . S
N622 C618 1.427 . S
N622 C619 1.384 . S
N623 C615 1.427 . S
N623 C621 1.384 . S
H624 C630 0.930 . S
H625 C634 0.930 . S
H626 C639 0.929 . S
H627 C637 0.929 . S
H628 C632 0.929 . S
H629 C638 0.929 . S
C630 H624 0.930 . S
C630 C631 1.367 . S
C630 C638 1.378 . S
C631 C630 1.367 . S
C631 C639 1.433 . S
C632 H628 0.929 . S
C632 C634 1.378 . S
C632 C636 1.350 . S
C633 C636 1.463 . S
C633 C638 1.350 . S
C633 N641 1.427 . S
C634 H625 0.930 . S
C634 C632 1.378 . S
C634 C635 1.367 . S
C635 C634 1.367 . S
C635 C637 1.433 . S
C636 C632 1.350 . S
C636 C633 1.463 . S
C636 N640 1.427 . S
C637 H627 0.929 . S
C637 C635 1.433 . S
C637 N640 1.384 . S
C638 H629 0.929 . S
C638 C630 1.378 . S
C638 C633 1.350 . S
C639 H626 0.929 . S
C639 C631 1.433 . S
C639 N641 1.384 . S
N640 C636 1.427 . S
N640 C637 1.384 . S
N641 C633 1.427 . S
N641 C639 1.384 . S
H642 C648 0.930 . S
H643 C652 0.930 . S
H644 C657 0.929 . S
H645 C655 0.929 . S
H646 C650 0.929 . S
H647 C656 0.929 . S
C648 H642 0.930 . S
C648 C649 1.367 . S
C648 C656 1.378 . S
C649 C648 1.367 . S
C649 C657 1.433 . S
C650 H646 0.929 . S
C650 C652 1.378 . S
C650 C654 1.350 . S
C651 C654 1.463 . S
C651 C656 1.350 . S
C651 N659 1.427 . S
C652 H643 0.930 . S
C652 C650 1.378 . S
C652 C653 1.367 . S
C653 C652 1.367 . S
C653 C655 1.433 . S
C654 C650 1.350 . S
C654 C651 1.463 . S
C654 N658 1.427 . S
C655 H645 0.929 . S
C655 C653 1.433 . S
C655 N658 1.384 . S
C656 H647 0.929 . S
C656 C648 1.378 . S
C656 C651 1.350 . S
C657 H644 0.929 . S
C657 C649 1.433 . S
C657 N659 1.384 . S
N658 C654 1.427 . S
N658 C655 1.384 . S
N659 C651 1.427 . S
N659 C657 1.384 . S
H660 C666 0.930 . S
H661 C670 0.930 . S
H662 C675 0.929 . S
H663 C673 0.929 . S
H664 C668 0.929 . S
H665 C674 0.929 . S
C666 H660 0.930 . S
C666 C667 1.367 . S
C666 C674 1.378 . S
C667 C666 1.367 . S
C667 C675 1.433 . S
C668 H664 0.929 . S
C668 C670 1.378 . S
C668 C672 1.350 . S
C669 C672 1.463 . S
C669 C674 1.350 . S
C669 N677 1.427 . S
C670 H661 0.930 . S
C670 C668 1.378 . S
C670 C671 1.367 . S
C671 C670 1.367 . S
C671 C673 1.433 . S
C672 C668 1.350 . S
C672 C669 1.463 . S
C672 N676 1.427 . S
C673 H663 0.929 . S
C673 C671 1.433 . S
C673 N676 1.384 . S
C674 H665 0.929 . S
C674 C666 1.378 . S
C674 C669 1.350 . S
C675 H662 0.929 . S
C675 C667 1.433 . S
C675 N677 1.384 . S
N676 C672 1.427 . S
N676 C673 1.384 . S
N677 C669 1.427 . S
N677 C675 1.384 . S
H678 C684 0.930 . S
H679 C688 0.930 . S
H680 C693 0.929 . S
H681 C691 0.929 . S
H682 C686 0.929 . S
H683 C692 0.929 . S
C684 H678 0.930 . S
C684 C685 1.367 . S
C684 C692 1.378 . S
C685 C684 1.367 . S
C685 C693 1.433 . S
C686 H682 0.929 . S
C686 C688 1.378 . S
C686 C690 1.350 . S
C687 C690 1.463 . S
C687 C692 1.350 . S
C687 N695 1.427 . S
C688 H679 0.930 . S
C688 C686 1.378 . S
C688 C689 1.367 . S
C689 C688 1.367 . S
C689 C691 1.433 . S
C690 C686 1.350 . S
C690 C687 1.463 . S
C690 N694 1.427 . S
C691 H681 0.929 . S
C691 C689 1.433 . S
C691 N694 1.384 . S
C692 H683 0.929 . S
C692 C684 1.378 . S
C692 C687 1.350 . S
C693 H680 0.929 . S
C693 C685 1.433 . S
C693 N695 1.384 . S
N694 C690 1.427 . S
N694 C691 1.384 . S
N695 C687 1.427 . S
N695 C693 1.384 . S
H696 C702 0.930 . S
H697 C706 0.930 . S
H698 C711 0.929 . S
H699 C709 0.929 . S
H700 C704 0.929 . S
H701 C710 0.929 . S
C702 H696 0.930 . S
C702 C703 1.367 . S
C702 C710 1.378 . S
C703 C702 1.367 . S
C703 C711 1.433 . S
C704 H700 0.929 . S
C704 C706 1.378 . S
C704 C708 1.350 . S
C705 C708 1.463 . S
C705 C710 1.350 . S
C705 N713 1.427 . S
C706 H697 0.930 . S
C706 C704 1.378 . S
C706 C707 1.367 . S
C707 C706 1.367 . S
C707 C709 1.433 . S
C708 C704 1.350 . S
C708 C705 1.463 . S
C708 N712 1.427 . S
C709 H699 0.929 . S
C709 C707 1.433 . S
C709 N712 1.384 . S
C710 H701 0.929 . S
C710 C702 1.378 . S
C710 C705 1.350 . S
C711 H698 0.929 . S
C711 C703 1.433 . S
C711 N713 1.384 . S
N712 C708 1.427 . S
N712 C709 1.384 . S
N713 C705 1.427 . S
N713 C711 1.384 . S
H714 C720 0.930 . S
H715 C724 0.930 . S
H716 C729 0.929 . S
H717 C727 0.929 . S
H718 C722 0.929 . S
H719 C728 0.929 . S
C720 H714 0.930 . S
C720 C721 1.367 . S
C720 C728 1.378 . S
C721 C720 1.367 . S
C721 C729 1.433 . S
C722 H718 0.929 . S
C722 C724 1.378 . S
C722 C726 1.350 . S
C723 C726 1.463 . S
C723 C728 1.350 . S
C723 N731 1.427 . S
C724 H715 0.930 . S
C724 C722 1.378 . S
C724 C725 1.367 . S
C725 C724 1.367 . S
C725 C727 1.433 . S
C726 C722 1.350 . S
C726 C723 1.463 . S
C726 N730 1.427 . S
C727 H717 0.929 . S
C727 C725 1.433 . S
C727 N730 1.384 . S
C728 H719 0.929 . S
C728 C720 1.378 . S
C728 C723 1.350 . S
C729 H716 0.929 . S
C729 C721 1.433 . S
C729 N731 1.384 . S
N730 C726 1.427 . S
N730 C727 1.384 . S
N731 C723 1.427 . S
N731 C729 1.384 . S
H732 C738 0.930 . S
H733 C742 0.930 . S
H734 C747 0.929 . S
H735 C745 0.929 . S
H736 C740 0.929 . S
H737 C746 0.929 . S
C738 H732 0.930 . S
C738 C739 1.367 . S
C738 C746 1.378 . S
C739 C738 1.367 . S
C739 C747 1.433 . S
C740 H736 0.929 . S
C740 C742 1.378 . S
C740 C744 1.350 . S
C741 C744 1.463 . S
C741 C746 1.350 . S
C741 N749 1.427 . S
C742 H733 0.930 . S
C742 C740 1.378 . S
C742 C743 1.367 . S
C743 C742 1.367 . S
C743 C745 1.433 . S
C744 C740 1.350 . S
C744 C741 1.463 . S
C744 N748 1.427 . S
C745 H735 0.929 . S
C745 C743 1.433 . S
C745 N748 1.384 . S
C746 H737 0.929 . S
C746 C738 1.378 . S
C746 C741 1.350 . S
C747 H734 0.929 . S
C747 C739 1.433 . S
C747 N749 1.384 . S
N748 C744 1.427 . S
N748 C745 1.384 . S
N749 C741 1.427 . S
N749 C747 1.384 . S
H750 C756 0.930 . S
H751 C760 0.930 . S
H752 C765 0.929 . S
H753 C763 0.929 . S
H754 C758 0.929 . S
H755 C764 0.929 . S
C756 H750 0.930 . S
C756 C757 1.367 . S
C756 C764 1.378 . S
C757 C756 1.367 . S
C757 C765 1.433 . S
C758 H754 0.929 . S
C758 C760 1.378 . S
C758 C762 1.350 . S
C759 C762 1.463 . S
C759 C764 1.350 . S
C759 N767 1.427 . S
C760 H751 0.930 . S
C760 C758 1.378 . S
C760 C761 1.367 . S
C761 C760 1.367 . S
C761 C763 1.433 . S
C762 C758 1.350 . S
C762 C759 1.463 . S
C762 N766 1.427 . S
C763 H753 0.929 . S
C763 C761 1.433 . S
C763 N766 1.384 . S
C764 H755 0.929 . S
C764 C756 1.378 . S
C764 C759 1.350 . S
C765 H752 0.929 . S
C765 C757 1.433 . S
C765 N767 1.384 . S
N766 C762 1.427 . S
N766 C763 1.384 . S
N767 C759 1.427 . S
N767 C765 1.384 . S
H768 C774 0.930 . S
H769 C778 0.930 . S
H770 C783 0.929 . S
H771 C781 0.929 . S
H772 C776 0.929 . S
H773 C782 0.929 . S
C774 H768 0.930 . S
C774 C775 1.367 . S
C774 C782 1.378 . S
C775 C774 1.367 . S
C775 C783 1.433 . S
C776 H772 0.929 . S
C776 C778 1.378 . S
C776 C780 1.350 . S
C777 C780 1.463 . S
C777 C782 1.350 . S
C777 N785 1.427 . S
C778 H769 0.930 . S
C778 C776 1.378 . S
C778 C779 1.367 . S
C779 C778 1.367 . S
C779 C781 1.433 . S
C780 C776 1.350 . S
C780 C777 1.463 . S
C780 N784 1.427 . S
C781 H771 0.929 . S
C781 C779 1.433 . S
C781 N784 1.384 . S
C782 H773 0.929 . S
C782 C774 1.378 . S
C782 C777 1.350 . S
C783 H770 0.929 . S
C783 C775 1.433 . S
C783 N785 1.384 . S
N784 C780 1.427 . S
N784 C781 1.384 . S
N785 C777 1.427 . S
N785 C783 1.384 . S
H786 C792 0.930 . S
H787 C796 0.930 . S
H788 C801 0.929 . S
H789 C799 0.929 . S
H790 C794 0.929 . S
H791 C800 0.929 . S
C792 H786 0.930 . S
C792 C793 1.367 . S
C792 C800 1.378 . S
C793 C792 1.367 . S
C793 C801 1.433 . S
C794 H790 0.929 . S
C794 C796 1.378 . S
C794 C798 1.350 . S
C795 C798 1.463 . S
C795 C800 1.350 . S
C795 N803 1.427 . S
C796 H787 0.930 . S
C796 C794 1.378 . S
C796 C797 1.367 . S
C797 C796 1.367 . S
C797 C799 1.433 . S
C798 C794 1.350 . S
C798 C795 1.463 . S
C798 N802 1.427 . S
C799 H789 0.929 . S
C799 C797 1.433 . S
C799 N802 1.384 . S
C800 H791 0.929 . S
C800 C792 1.378 . S
C800 C795 1.350 . S
C801 H788 0.929 . S
C801 C793 1.433 . S
C801 N803 1.384 . S
N802 C798 1.427 . S
N802 C799 1.384 . S
N803 C795 1.427 . S
N803 C801 1.384 . S
C379 C247 1.398 . S
C383 C304 1.382 . S
C401 C312 1.382 . S
C397 C283 1.398 . S
C419 C316 1.361 . S
C415 C175 1.395 . S
C433 C211 1.392 . S
C437 C292 1.364 . S
C455 C333 1.379 . S
C451 C103 1.412 . S
C473 C367 1.382 . S
C469 C139 1.420 . S
C487 C31 1.413 . S
C491 C355 1.350 . S
C505 C67 1.403 . S
C509 C337 1.365 . S
C527 C291 1.304 . S
C523 C37 1.456 . S
C545 C325 1.300 . S
C541 C1 1.457 . S
C563 C329 1.299 . S
C559 C109 1.488 . S
C581 C307 1.293 . S
C577 C73 1.458 . S
C599 C346 1.293 . S
C595 C181 1.449 . S
C613 C145 1.449 . S
C617 C354 1.294 . S
C635 C370 1.311 . S
C631 C253 1.448 . S
C649 C217 1.448 . S
C653 C350 1.314 . S
C671 C295 1.319 . S
C667 C25 1.501 . S
C689 C313 1.313 . S
C685 C61 1.501 . S
C703 C97 1.487 . S
C707 C328 1.313 . S
C725 C308 1.295 . S
C721 C133 1.485 . S
C743 C334 1.299 . S
C739 C169 1.488 . S
C757 C205 1.485 . S
C761 C358 1.306 . S
C775 C241 1.480 . S
C779 C371 1.315 . S
C793 C277 1.474 . S
C797 C349 1.299 . S
