# Generated by pormake.
# Topology dag, (6,3)-cn, num edge types: 1
# Building blocks:
#     Node 0, Type 0, BuildingBlock: OJICUG_clean_sbu_0, # of connection points: 6
#     Node 1, Type 0, BuildingBlock: OJICUG_clean_sbu_0, # of connection points: 6
#     Node 2, Type 0, BuildingBlock: OJICUG_clean_sbu_0, # of connection points: 6
#     Node 3, Type 0, BuildingBlock: OJICUG_clean_sbu_0, # of connection points: 6
#     Node 4, Type 1, BuildingBlock: BETDAH_clean_linker_0, # of connection points: 3
#     Node 5, Type 1, BuildingBlock: BETDAH_clean_linker_0, # of connection points: 3
#     Node 6, Type 1, BuildingBlock: BETDAH_clean_linker_0, # of connection points: 3
#     Node 7, Type 1, BuildingBlock: BETDAH_clean_linker_0, # of connection points: 3
#     Node 8, Type 1, BuildingBlock: BETDAH_clean_linker_0, # of connection points: 3
#     Node 9, Type 1, BuildingBlock: BETDAH_clean_linker_0, # of connection points: 3
#     Node 10, Type 1, BuildingBlock: BETDAH_clean_linker_0, # of connection points: 3
#     Node 11, Type 1, BuildingBlock: BETDAH_clean_linker_0, # of connection points: 3
#     Edge 12, Type (0, 1), BuildingBlock: EZIPEK_clean_linker_0, # of connection points: 2
#     Edge 13, Type (0, 1), BuildingBlock: EZIPEK_clean_linker_0, # of connection points: 2
#     Edge 14, Type (0, 1), BuildingBlock: EZIPEK_clean_linker_0, # of connection points: 2
#     Edge 15, Type (0, 1), BuildingBlock: EZIPEK_clean_linker_0, # of connection points: 2
#     Edge 16, Type (0, 1), BuildingBlock: EZIPEK_clean_linker_0, # of connection points: 2
#     Edge 17, Type (0, 1), BuildingBlock: EZIPEK_clean_linker_0, # of connection points: 2
#     Edge 18, Type (0, 1), BuildingBlock: EZIPEK_clean_linker_0, # of connection points: 2
#     Edge 19, Type (0, 1), BuildingBlock: EZIPEK_clean_linker_0, # of connection points: 2
#     Edge 20, Type (0, 1), BuildingBlock: EZIPEK_clean_linker_0, # of connection points: 2
#     Edge 21, Type (0, 1), BuildingBlock: EZIPEK_clean_linker_0, # of connection points: 2
#     Edge 22, Type (0, 1), BuildingBlock: EZIPEK_clean_linker_0, # of connection points: 2
#     Edge 23, Type (0, 1), BuildingBlock: EZIPEK_clean_linker_0, # of connection points: 2
#     Edge 24, Type (0, 1), BuildingBlock: EZIPEK_clean_linker_0, # of connection points: 2
#     Edge 25, Type (0, 1), BuildingBlock: EZIPEK_clean_linker_0, # of connection points: 2
#     Edge 26, Type (0, 1), BuildingBlock: EZIPEK_clean_linker_0, # of connection points: 2
#     Edge 27, Type (0, 1), BuildingBlock: EZIPEK_clean_linker_0, # of connection points: 2
#     Edge 28, Type (0, 1), BuildingBlock: EZIPEK_clean_linker_0, # of connection points: 2
#     Edge 29, Type (0, 1), BuildingBlock: EZIPEK_clean_linker_0, # of connection points: 2
#     Edge 30, Type (0, 1), BuildingBlock: EZIPEK_clean_linker_0, # of connection points: 2
#     Edge 31, Type (0, 1), BuildingBlock: EZIPEK_clean_linker_0, # of connection points: 2
#     Edge 32, Type (0, 1), BuildingBlock: EZIPEK_clean_linker_0, # of connection points: 2
#     Edge 33, Type (0, 1), BuildingBlock: EZIPEK_clean_linker_0, # of connection points: 2
#     Edge 34, Type (0, 1), BuildingBlock: EZIPEK_clean_linker_0, # of connection points: 2
#     Edge 35, Type (0, 1), BuildingBlock: EZIPEK_clean_linker_0, # of connection points: 2
# Relax obj value: 0.094
# Max RMSD: 0.117
# Mean RMSD: 0.100
data_MOF--net-dag--node1-OJICUG_clean_sbu_0--node2-BETDAH_clean_linker_0--edge1-EZIPEK_clean_linker_0
_symmetry_space_group_name_H-M    P1
_symmetry_Int_Tables_number       1
_symmetry_cell_setting            triclinic
loop_
_symmetry_equiv_pos_as_xyz
'x, y, z'
_cell_length_a     26.7752
_cell_length_b     28.9474
_cell_length_c     28.701063
_cell_angle_alpha  94.888575
_cell_angle_beta   90.082935
_cell_angle_gamma 90.004984
loop_
_atom_site_label
_atom_site_type_symbol
_atom_site_fract_x
_atom_site_fract_y
_atom_site_fract_z
_atom_type_partial_charge
Sc0 Sc 0.08797 0.88079 0.05571 0.0
Sc1 Sc 0.10595 0.75959 0.0474 0.0
Sc2 Sc 0.2033 0.83574 0.08835 0.0
O3 O 0.13241 0.82526 0.06379 0.0
C4 C 0.19422 0.91585 0.02103 0.0
C5 C 0.06226 0.81484 0.96417 0.0
C6 C 0.2184 0.7493 0.01146 0.0
C7 C 0.00935 0.80912 0.09315 0.0
C8 C 0.1435 0.91614 0.14958 0.0
C9 C 0.16592 0.75098 0.14256 0.0
O10 O 0.14707 0.91886 0.02564 0.0
O11 O 0.07369 0.77713 0.98153 0.0
O12 O 0.23439 0.78306 0.03871 0.0
O13 O 0.02346 0.84957 0.08499 0.0
O14 O 0.18212 0.89116 0.14083 0.0
O15 O 0.13462 0.73593 0.1115 0.0
O16 O 0.10477 0.91362 0.12391 0.0
O17 O 0.03586 0.77318 0.08348 0.0
O18 O 0.1923 0.78718 0.13995 0.0
O19 O 0.06653 0.85455 0.98629 0.0
O20 O 0.2203 0.88516 0.03874 0.0
O21 O 0.17281 0.73694 0.01002 0.0
Sc22 Sc 0.70085 0.65794 0.45138 0.0
Sc23 Sc 0.60507 0.73604 0.4916 0.0
Sc24 Sc 0.58234 0.61575 0.4798 0.0
O25 O 0.62948 0.66993 0.47436 0.0
C26 C 0.64177 0.58067 0.38675 0.0
C27 C 0.66702 0.74479 0.39787 0.0
C28 C 0.50802 0.68988 0.44165 0.0
C29 C 0.71741 0.74135 0.5302 0.0
C30 C 0.68453 0.57699 0.51799 0.0
C31 C 0.55573 0.68174 0.57164 0.0
O32 O 0.67881 0.60761 0.39489 0.0
O33 O 0.6331 0.7585 0.42682 0.0
O34 O 0.52197 0.64836 0.44535 0.0
O35 O 0.7327 0.7062 0.5047 0.0
O36 O 0.63721 0.57762 0.51523 0.0
O37 O 0.57332 0.71893 0.55747 0.0
O38 O 0.713 0.60383 0.49731 0.0
O39 O 0.67286 0.75638 0.52917 0.0
O40 O 0.55556 0.64311 0.5471 0.0
O41 O 0.69517 0.7102 0.40289 0.0
O42 O 0.60398 0.5809 0.41354 0.0
O43 O 0.53389 0.72485 0.45661 0.0
Sc44 Sc 0.89552 0.23432 0.99203 0.0
Sc45 Sc 0.79802 0.15766 0.9532 0.0
Sc46 Sc 0.91406 0.11359 0.985 0.0
O47 O 0.86923 0.16862 0.9767 0.0
C48 C 0.99144 0.18543 0.94564 0.0
C49 C 0.83279 0.24191 0.89806 0.0
C50 C 0.85814 0.07811 0.89162 0.0
C51 C 0.78457 0.24311 0.03093 0.0
C52 C 0.94157 0.18025 0.07489 0.0
C53 C 0.80843 0.07831 0.02077 0.0
O54 O 0.96397 0.22109 0.95318 0.0
O55 O 0.80764 0.20507 0.90063 0.0
O56 O 0.89743 0.08133 0.91653 0.0
O57 O 0.83032 0.25478 0.0329 0.0
O58 O 0.93502 0.14005 0.05443 0.0
O59 O 0.78209 0.10925 0.00386 0.0
O60 O 0.93131 0.21753 0.05634 0.0
O61 O 0.76765 0.21069 0.00262 0.0
O62 O 0.85538 0.07491 0.01497 0.0
O63 O 0.86359 0.25789 0.92916 0.0
O64 O 0.97846 0.14541 0.95624 0.0
O65 O 0.81891 0.1019 0.90131 0.0
Sc66 Sc 0.41912 0.38187 0.56095 0.0
Sc67 Sc 0.30049 0.33937 0.58866 0.0
Sc68 Sc 0.39749 0.26157 0.55144 0.0
O69 O 0.37232 0.32762 0.56712 0.0
C70 C 0.4447 0.31452 0.46951 0.0
C71 C 0.31744 0.42116 0.52305 0.0
C72 C 0.28609 0.255 0.5107 0.0
C73 C 0.359 0.41609 0.6541 0.0
C74 C 0.49483 0.30991 0.59947 0.0
C75 C 0.33359 0.25295 0.64353 0.0
O76 O 0.44598 0.35335 0.49384 0.0
O77 O 0.28887 0.39496 0.54432 0.0
O78 O 0.32978 0.23891 0.51528 0.0
O79 O 0.39646 0.41674 0.62693 0.0
O80 O 0.46968 0.2743 0.58478 0.0
O81 O 0.3042 0.28608 0.63638 0.0
O82 O 0.47976 0.35099 0.59594 0.0
O83 O 0.32216 0.38868 0.64633 0.0
O84 O 0.37028 0.24074 0.61712 0.0
O85 O 0.3647 0.41962 0.525 0.0
O86 O 0.42625 0.27796 0.4843 0.0
O87 O 0.2707 0.29205 0.53312 0.0
H88 H 0.06753 0.08367 0.19323 0.0
H89 H 0.13316 0.08941 0.33064 0.0
H90 H 0.03624 0.19924 0.29274 0.0
C91 C 0.07266 0.1014 0.22778 0.0
C92 C 0.0489 0.14384 0.23902 0.0
C93 C 0.10274 0.0814 0.26055 0.0
C94 C 0.11011 0.10482 0.30506 0.0
C95 C 0.08587 0.1475 0.31673 0.0
C96 C 0.05491 0.16647 0.28378 0.0
N97 N 0.08971 0.17099 0.36196 0.0
C98 C 0.13454 0.17827 0.38593 0.0
H99 H 0.43406 0.58081 0.69453 0.0
H100 H 0.46571 0.69994 0.78952 0.0
H101 H 0.37476 0.58901 0.83434 0.0
C102 C 0.42985 0.59946 0.72874 0.0
C103 C 0.40194 0.5798 0.76326 0.0
C104 C 0.45277 0.64266 0.73792 0.0
C105 C 0.44785 0.66649 0.78223 0.0
C106 C 0.4191 0.64786 0.81692 0.0
C107 C 0.39604 0.60424 0.80745 0.0
N108 N 0.41591 0.67314 0.86136 0.0
C109 C 0.37364 0.67492 0.88953 0.0
H110 H 0.84368 0.90664 0.10079 0.0
H111 H 0.7712 0.80755 0.18151 0.0
H112 H 0.68911 0.92444 0.13758 0.0
C113 C 0.81046 0.89444 0.11756 0.0
C114 C 0.76635 0.92016 0.11697 0.0
C115 C 0.81236 0.85359 0.14032 0.0
C116 C 0.76966 0.83886 0.16339 0.0
C117 C 0.72479 0.86426 0.16171 0.0
C118 C 0.72335 0.9045 0.13814 0.0
N119 N 0.68054 0.8506 0.18359 0.0
C120 C 0.681 0.82793 0.22413 0.0
H121 H 0.65873 0.40426 0.60107 0.0
H122 H 0.73438 0.31218 0.68746 0.0
H123 H 0.81065 0.43198 0.6425 0.0
C124 C 0.6921 0.39457 0.61943 0.0
C125 C 0.73462 0.42245 0.61911 0.0
C126 C 0.69186 0.35481 0.64388 0.0
C127 C 0.73474 0.34291 0.66841 0.0
C128 C 0.778 0.37079 0.66761 0.0
C129 C 0.77771 0.41022 0.64265 0.0
N130 N 0.82215 0.36062 0.69193 0.0
C131 C 0.82223 0.33433 0.73004 0.0
H132 H 0.56296 0.41496 0.34678 0.0
H133 H 0.62992 0.40562 0.21001 0.0
H134 H 0.53321 0.29669 0.25001 0.0
C135 C 0.56876 0.39615 0.31287 0.0
C136 C 0.54547 0.35329 0.30259 0.0
C137 C 0.59894 0.41533 0.27968 0.0
C138 C 0.60692 0.39071 0.2359 0.0
C139 C 0.58311 0.3477 0.22518 0.0
C140 C 0.5519 0.32957 0.25839 0.0
N141 N 0.58731 0.32321 0.18046 0.0
C142 C 0.63211 0.31642 0.15644 0.0
H143 H 0.15906 0.08728 0.94219 0.0
H144 H 0.22972 0.18702 0.86106 0.0
H145 H 0.31257 0.06914 0.90172 0.0
C146 C 0.19189 0.0995 0.92482 0.0
C147 C 0.23608 0.07383 0.9246 0.0
C148 C 0.18947 0.14043 0.90225 0.0
C149 C 0.23166 0.15546 0.87873 0.0
C150 C 0.27634 0.12956 0.87868 0.0
C151 C 0.27843 0.08931 0.90223 0.0
N152 N 0.31971 0.14248 0.85487 0.0
C153 C 0.31825 0.16662 0.81526 0.0
H154 H 0.34807 0.59321 0.43589 0.0
H155 H 0.26933 0.68695 0.35355 0.0
H156 H 0.19277 0.57016 0.40439 0.0
C157 C 0.31407 0.60327 0.41877 0.0
C158 C 0.27078 0.57679 0.42207 0.0
C159 C 0.31362 0.64321 0.39462 0.0
C160 C 0.26965 0.65599 0.37225 0.0
C161 C 0.22588 0.62926 0.37564 0.0
C162 C 0.22651 0.59039 0.40136 0.0
N163 N 0.18057 0.64059 0.35391 0.0
C164 C 0.1792 0.66411 0.31392 0.0
H165 H 0.93713 0.91304 0.84574 0.0
H166 H 0.96908 0.79816 0.74563 0.0
H167 H 0.87114 0.90757 0.7085 0.0
C168 C 0.93225 0.89558 0.81104 0.0
C169 C 0.90198 0.91558 0.77842 0.0
C170 C 0.95613 0.85324 0.7996 0.0
C171 C 0.95031 0.83086 0.75473 0.0
C172 C 0.91921 0.84985 0.72193 0.0
C173 C 0.89465 0.89232 0.73384 0.0
N174 N 0.91514 0.82629 0.67676 0.0
C175 C 0.87036 0.81997 0.65254 0.0
C176 C 0.175 0.99323 0.18562 0.0
C177 C 0.14438 0.95343 0.1887 0.0
C178 C 0.09587 0.9948 0.25166 0.0
C179 C 0.12466 0.03513 0.24656 0.0
N180 N 0.19976 0.06953 0.21995 0.0
N181 N 0.08583 0.91197 0.23285 0.0
C182 C 0.16738 0.03294 0.21757 0.0
C183 C 0.10823 0.95283 0.22471 0.0
N184 N 0.20852 0.99456 0.14993 0.0
N185 N 0.05499 0.99747 0.2802 0.0
H186 H 0.09473 0.88104 0.21345 0.0
H187 H 0.06232 0.90791 0.26107 0.0
H188 H 0.04637 0.02722 0.30181 0.0
H189 H 0.02862 0.97114 0.2811 0.0
H190 H 0.22737 0.02443 0.14225 0.0
H191 H 0.21523 0.96634 0.12588 0.0
H192 H 0.23399 0.06888 0.20273 0.0
H193 H 0.19431 0.09904 0.24293 0.0
C194 C 0.55875 0.67395 0.65772 0.0
C195 C 0.53069 0.68309 0.61766 0.0
C196 C 0.45316 0.6798 0.6625 0.0
C197 C 0.48057 0.66287 0.69977 0.0
N198 N 0.55922 0.64165 0.733 0.0
N199 N 0.45125 0.69315 0.58031 0.0
C200 C 0.53347 0.66001 0.6978 0.0
C201 C 0.47787 0.6862 0.61978 0.0
N202 N 0.60951 0.67846 0.65716 0.0
N203 N 0.40352 0.68978 0.66819 0.0
H204 H 0.46834 0.69913 0.54878 0.0
H205 H 0.41255 0.69025 0.57793 0.0
H206 H 0.38447 0.68544 0.69922 0.0
H207 H 0.38237 0.70621 0.644 0.0
H208 H 0.63211 0.67613 0.68641 0.0
H209 H 0.62854 0.68881 0.62814 0.0
H210 H 0.59708 0.63353 0.73112 0.0
H211 H 0.54203 0.63174 0.76318 0.0
C212 C 0.80242 0.04275 0.09659 0.0
C213 C 0.78474 0.0451 0.05024 0.0
C214 C 0.7467 0.96844 0.05086 0.0
C215 C 0.7666 0.96508 0.0962 0.0
N216 N 0.80122 0.00233 0.1673 0.0
N217 N 0.72586 0.01825 0.99009 0.0
C218 C 0.79042 0.00352 0.12082 0.0
C219 C 0.75193 0.01069 0.02966 0.0
N220 N 0.83169 0.07765 0.11676 0.0
N221 N 0.72538 0.93051 0.02704 0.0
H222 H 0.72812 0.04902 0.97394 0.0
H223 H 0.69815 0.99601 0.97595 0.0
H224 H 0.72022 0.8991 0.0417 0.0
H225 H 0.71594 0.92909 0.99174 0.0
H226 H 0.8512 0.07573 0.14792 0.0
H227 H 0.83767 0.10843 0.10116 0.0
H228 H 0.81476 0.0306 0.1884 0.0
H229 H 0.79274 0.9739 0.18592 0.0
C230 C 0.58534 0.28707 0.58939 0.0
C231 C 0.54585 0.30468 0.61891 0.0
C232 C 0.60648 0.34083 0.67477 0.0
C233 C 0.64526 0.3271 0.64312 0.0
N234 N 0.6748 0.27571 0.57912 0.0
N235 N 0.51901 0.33444 0.69541 0.0
C236 C 0.63561 0.29585 0.60358 0.0
C237 C 0.55669 0.32677 0.66377 0.0
N238 N 0.57498 0.26529 0.54637 0.0
N239 N 0.61705 0.3696 0.71377 0.0
H240 H 0.48251 0.32391 0.68766 0.0
H241 H 0.52452 0.34699 0.73011 0.0
H242 H 0.65356 0.37867 0.72353 0.0
H243 H 0.5899 0.3857 0.73542 0.0
H244 H 0.60184 0.25742 0.52074 0.0
H245 H 0.53894 0.25666 0.53531 0.0
H246 H 0.71184 0.28227 0.589 0.0
H247 H 0.67078 0.2496 0.55211 0.0
C248 C 0.59908 0.54361 0.31554 0.0
C249 C 0.64169 0.54614 0.34503 0.0
C250 C 0.66602 0.46741 0.31525 0.0
C251 C 0.61956 0.46251 0.29166 0.0
N252 N 0.54466 0.49609 0.26298 0.0
N253 N 0.72515 0.5182 0.35831 0.0
C254 C 0.58752 0.5012 0.2889 0.0
C255 C 0.67846 0.51063 0.34 0.0
N256 N 0.57038 0.58232 0.31301 0.0
N257 N 0.69655 0.42969 0.3166 0.0
H258 H 0.73628 0.54962 0.37539 0.0
H259 H 0.7547 0.49509 0.35253 0.0
H260 H 0.68941 0.39828 0.29712 0.0
H261 H 0.72754 0.42863 0.3384 0.0
H262 H 0.54008 0.58459 0.29066 0.0
H263 H 0.57962 0.61382 0.33133 0.0
H264 H 0.51667 0.52093 0.26263 0.0
H265 H 0.5367 0.46592 0.24173 0.0
C266 C 0.0804 0.21314 0.94992 0.0
C267 C 0.04155 0.18929 0.92409 0.0
C268 C 0.10376 0.15008 0.87201 0.0
C269 C 0.14145 0.16605 0.90364 0.0
N270 N 0.16826 0.21428 0.97134 0.0
N271 N 0.01453 0.14165 0.85605 0.0
C272 C 0.13071 0.19897 0.94162 0.0
C273 C 0.05283 0.16034 0.88298 0.0
N274 N 0.06923 0.24873 0.98257 0.0
N275 N 0.11848 0.12398 0.83268 0.0
H276 H 0.97744 0.15123 0.86242 0.0
H277 H 0.01872 0.11674 0.82805 0.0
H278 H 0.09477 0.11103 0.80586 0.0
H279 H 0.09477 0.11103 0.80586 0.0
H280 H 0.09607 0.26988 0.9998 0.0
H281 H 0.03291 0.26004 0.98958 0.0
H282 H 0.16236 0.23348 0.00319 0.0
H283 H 0.20565 0.20581 0.96494 0.0
C284 C 0.295 0.50454 0.52255 0.0
C285 C 0.29545 0.45932 0.49924 0.0
C286 C 0.27348 0.49042 0.42542 0.0
C287 C 0.27234 0.53555 0.44899 0.0
N288 N 0.2686 0.58445 0.52117 0.0
N289 N 0.27415 0.40744 0.43223 0.0
C290 C 0.27857 0.54217 0.49809 0.0
C291 C 0.28075 0.45167 0.45184 0.0
N292 N 0.31247 0.5118 0.56736 0.0
N293 N 0.27054 0.48482 0.37772 0.0
H294 H 0.27947 0.37864 0.45112 0.0
H295 H 0.25926 0.39948 0.39898 0.0
H296 H 0.26502 0.51236 0.35711 0.0
H297 H 0.27701 0.45337 0.35828 0.0
H298 H 0.31848 0.54459 0.58431 0.0
H299 H 0.32444 0.48493 0.58662 0.0
H300 H 0.26798 0.59028 0.55747 0.0
H301 H 0.25623 0.61272 0.50404 0.0
C302 C 0.98471 0.80676 0.91535 0.0
C303 C 0.03721 0.81311 0.91798 0.0
C304 C 0.03807 0.83814 0.83851 0.0
C305 C 0.98553 0.83226 0.83623 0.0
N306 N 0.91075 0.79959 0.86631 0.0
N307 N 0.11526 0.8232 0.87889 0.0
C308 C 0.95956 0.8125 0.87264 0.0
C309 C 0.06437 0.82487 0.87833 0.0
N310 N 0.95852 0.79805 0.95447 0.0
N311 N 0.06236 0.85874 0.8039 0.0
H312 H 0.13507 0.81426 0.90803 0.0
H313 H 0.13743 0.82695 0.84968 0.0
H314 H 0.04444 0.86791 0.77374 0.0
H315 H 0.09955 0.86921 0.80626 0.0
H316 H 0.91969 0.79852 0.95639 0.0
H317 H 0.97585 0.79351 0.98626 0.0
H318 H 0.8914 0.80359 0.83532 0.0
H319 H 0.89095 0.7811 0.8898 0.0
C320 C 0.82917 8e-05 0.85653 0.0
C321 C 0.85725 0.04122 0.85237 0.0
C322 C 0.90456 0.00257 0.78719 0.0
C323 C 0.87838 0.96091 0.79322 0.0
N324 N 0.80649 0.92322 0.82239 0.0
N325 N 0.91012 0.08597 0.8058 0.0
C326 C 0.83707 0.96108 0.82385 0.0
C327 C 0.89107 0.04388 0.81478 0.0
N328 N 0.79802 0.99694 0.89378 0.0
N329 N 0.94407 0.00188 0.7571 0.0
H330 H 0.89981 0.11658 0.82528 0.0
H331 H 0.93211 0.09114 0.77682 0.0
H332 H 0.95346 0.97253 0.73521 0.0
H333 H 0.96863 0.02954 0.75519 0.0
H334 H 0.7813 0.96618 0.90194 0.0
H335 H 0.79141 0.0246 0.91856 0.0
H336 H 0.77322 0.92235 0.84105 0.0
H337 H 0.81218 0.89419 0.79882 0.0
C338 C 0.50782 0.28932 0.40761 0.0
C339 C 0.46337 0.31374 0.42072 0.0
C340 C 0.46544 0.35174 0.34741 0.0
C341 C 0.51423 0.33399 0.33899 0.0
N342 N 0.58309 0.28654 0.36049 0.0
N343 N 0.3966 0.36487 0.40201 0.0
C344 C 0.53544 0.30228 0.36847 0.0
C345 C 0.4409 0.3436 0.3899 0.0
N346 N 0.52366 0.25391 0.43251 0.0
N347 N 0.44284 0.37625 0.31457 0.0
H348 H 0.37584 0.35674 0.43094 0.0
H349 H 0.38093 0.39135 0.38447 0.0
H350 H 0.46019 0.3827 0.28324 0.0
H351 H 0.40583 0.38717 0.31639 0.0
H352 H 0.55332 0.23212 0.42234 0.0
H353 H 0.50403 0.2431 0.46088 0.0
H354 H 0.60319 0.26826 0.38396 0.0
H355 H 0.60393 0.29419 0.33145 0.0
C356 C 0.20079 0.95121 0.94508 0.0
C357 C 0.21831 0.94892 0.9915 0.0
C358 C 0.25631 0.02563 0.99069 0.0
C359 C 0.23637 0.02889 0.94534 0.0
N360 N 0.20209 0.9914 0.87425 0.0
N361 N 0.27722 0.97589 0.05155 0.0
C362 C 0.21276 0.99036 0.92077 0.0
C363 C 0.25109 0.98341 0.01201 0.0
N364 N 0.17157 0.91632 0.92494 0.0
N365 N 0.27778 0.06358 0.01431 0.0
H366 H 0.27528 0.94497 0.06746 0.0
H367 H 0.30478 -0.00175 0.06578 0.0
H368 H 0.28309 0.09485 0.99944 0.0
H369 H 0.28732 0.06512 0.0496 0.0
H370 H 0.15191 0.91831 0.89386 0.0
H371 H 0.16584 0.88556 0.94059 0.0
H372 H 0.18879 0.963 0.85317 0.0
H373 H 0.21049 0.0198 0.85557 0.0
C374 C 0.41847 0.71694 0.44724 0.0
C375 C 0.45822 0.69645 0.42012 0.0
C376 C 0.39854 0.65944 0.36397 0.0
C377 C 0.35959 0.67192 0.39595 0.0
N378 N 0.32969 0.71626 0.46495 0.0
N379 N 0.48672 0.66545 0.34486 0.0
C380 C 0.36858 0.70304 0.43599 0.0
C381 C 0.44827 0.67327 0.37569 0.0
N382 N 0.42834 0.74952 0.48334 0.0
N383 N 0.38813 0.63172 0.32421 0.0
H384 H 0.52287 0.67713 0.35294 0.0
H385 H 0.48224 0.65183 0.31039 0.0
H386 H 0.35164 0.6228 0.31424 0.0
H387 H 0.41522 0.61669 0.30181 0.0
H388 H 0.40095 0.76832 0.50234 0.0
H389 H 0.46423 0.76109 0.49194 0.0
H390 H 0.33385 0.73368 0.49795 0.0
H391 H 0.29264 0.70823 0.45633 0.0
C392 C 0.40045 0.45161 0.72627 0.0
C393 C 0.3588 0.45056 0.69573 0.0
C394 C 0.33391 0.52787 0.72987 0.0
C395 C 0.38127 0.53255 0.75171 0.0
N396 N 0.45821 0.49858 0.77538 0.0
N397 N 0.28172 0.48518 0.67191 0.0
C398 C 0.41363 0.49387 0.75222 0.0
C399 C 0.32344 0.48743 0.69949 0.0
N400 N 0.42711 0.41191 0.73016 0.0
N401 N 0.29971 0.56271 0.73753 0.0
H402 H 0.27163 0.45575 0.65061 0.0
H403 H 0.25785 0.51303 0.66844 0.0
H404 H 0.30717 0.59266 0.75928 0.0
H405 H 0.2629 0.56052 0.7259 0.0
H406 H 0.45569 0.40894 0.75433 0.0
H407 H 0.417 0.38055 0.71197 0.0
H408 H 0.48644 0.47379 0.77249 0.0
H409 H 0.46759 0.52851 0.79645 0.0
C410 C 0.94999 0.83321 0.15733 0.0
C411 C 0.95956 0.8051 0.11547 0.0
C412 C 0.86952 0.79194 0.10466 0.0
C413 C 0.86054 0.82814 0.14009 0.0
N414 N 0.89015 0.87984 0.2042 0.0
N415 N 0.92972 0.75043 0.05347 0.0
C416 C 0.9002 0.84698 0.16839 0.0
C417 C 0.9197 0.78124 0.09103 0.0
N418 N 0.98891 0.84634 0.18628 0.0
N419 N 0.8299 0.76882 0.08356 0.0
H420 H 0.96569 0.73942 0.04448 0.0
H421 H 0.9028 0.73608 0.03044 0.0
H422 H 0.79298 0.77667 0.0926 0.0
H423 H 0.8331 0.73986 0.05971 0.0
H424 H 0.98473 0.86404 0.21914 0.0
H425 H 0.02539 0.83536 0.17891 0.0
H426 H 0.91744 0.89933 0.22273 0.0
H427 H 0.85374 0.88865 0.21445 0.0
C428 C 0.70094 0.54509 0.59443 0.0
C429 C 0.70704 0.54143 0.54523 0.0
C430 C 0.74506 0.46474 0.54763 0.0
C431 C 0.73227 0.46577 0.59554 0.0
N432 N 0.69836 0.5056 0.66563 0.0
N433 N 0.73188 0.4976 0.47376 0.0
C434 C 0.71091 0.50588 0.61947 0.0
C435 C 0.72915 0.50154 0.5215 0.0
N436 N 0.68583 0.58622 0.61698 0.0
N437 N 0.77197 0.42834 0.5272 0.0
H438 H 0.72085 0.524 0.45352 0.0
H439 H 0.74187 0.46725 0.45391 0.0
H440 H 0.78316 0.40033 0.5453 0.0
H441 H 0.78676 0.42756 0.49362 0.0
H442 H 0.68508 0.59289 0.65318 0.0
H443 H 0.67755 0.61523 0.59922 0.0
H444 H 0.67714 0.5313 0.68378 0.0
H445 H 0.70732 0.47825 0.68558 0.0
C446 C 0.0197 0.18896 0.12272 0.0
C447 C 0.96714 0.18297 0.12073 0.0
C448 C 0.96665 0.1594 0.20065 0.0
C449 C 0.01935 0.16457 0.2023 0.0
N450 N 0.09422 0.19596 0.17101 0.0
N451 N 0.88925 0.1757 0.1609 0.0
C452 C 0.04521 0.1835 0.1653 0.0
C453 C 0.94014 0.17258 0.16089 0.0
N454 N 0.04549 0.19723 0.08321 0.0
N455 N 0.94237 0.1397 0.23582 0.0
H456 H 0.86941 0.18619 0.1323 0.0
H457 H 0.8673 0.17223 0.19031 0.0
H458 H 0.96049 0.13054 0.26588 0.0
H459 H 0.90494 0.12994 0.23401 0.0
H460 H 0.08429 0.19642 0.08087 0.0
H461 H 0.02787 0.20208 0.05161 0.0
H462 H 0.11405 0.2138 0.14702 0.0
H463 H 0.1138 0.19223 0.20194 0.0
C464 C 0.19258 0.68395 0.1865 0.0
C465 C 0.16862 0.72759 0.18611 0.0
C466 C 0.15613 0.731 0.27079 0.0
C467 C 0.17709 0.68617 0.27074 0.0
N468 N 0.2109 0.61718 0.22944 0.0
N469 N 0.11866 0.7884 0.22509 0.0
C470 C 0.19416 0.66179 0.22883 0.0
C471 C 0.148 0.75004 0.22754 0.0
N472 N 0.21477 0.66439 0.14672 0.0
N473 N 0.14482 0.75568 0.3122 0.0
H474 H 0.11102 0.8026 0.19366 0.0
H475 H 0.09812 0.80347 0.25318 0.0
H476 H 0.14959 0.7424 0.3446 0.0
H477 H 0.13453 0.79049 0.31475 0.0
H478 H 0.23782 0.63538 0.14575 0.0
H479 H 0.21242 0.67882 0.11473 0.0
H480 H 0.21876 0.59564 0.19946 0.0
H481 H 0.21419 0.60049 0.26012 0.0
C482 C 0.78089 0.80384 0.55046 0.0
C483 C 0.75328 0.76515 0.56363 0.0
C484 C 0.79528 0.77085 0.63999 0.0
C485 C 0.82681 0.80576 0.62463 0.0
N486 N 0.8517 0.85559 0.56584 0.0
N487 N 0.73649 0.70881 0.61875 0.0
C488 C 0.81987 0.82267 0.58017 0.0
C489 C 0.76086 0.74801 0.60799 0.0
N490 N 0.76972 0.82243 0.5095 0.0
N491 N 0.79804 0.75993 0.68536 0.0
H492 H 0.71067 0.6916 0.59628 0.0
H493 H 0.74421 0.69144 0.64823 0.0
H494 H 0.82299 0.7761 0.70953 0.0
H495 H 0.77297 0.73797 0.7002 0.0
H496 H 0.78456 0.8534 0.49977 0.0
H497 H 0.74296 0.80807 0.48619 0.0
H498 H 0.8527 0.8658 0.53197 0.0
H499 H 0.87908 0.87147 0.58763 0.0
C500 C 0.73426 0.23886 0.10365 0.0
C501 C 0.74978 0.26483 0.06646 0.0
C502 C 0.69546 0.3293 0.0956 0.0
C503 C 0.67561 0.30104 0.12905 0.0
N504 N 0.67385 0.22871 0.1649 0.0
N505 N 0.74471 0.33357 0.02496 0.0
C506 C 0.69472 0.25589 0.13337 0.0
C507 C 0.73069 0.31002 0.06214 0.0
N508 N 0.75817 0.19833 0.11104 0.0
N509 N 0.68085 0.3746 0.09623 0.0
H510 H 0.7712 0.32083 0.00052 0.0
H511 H 0.72824 0.36437 0.01663 0.0
H512 H 0.65481 0.38932 0.12012 0.0
H513 H 0.69706 0.39851 0.07575 0.0
H514 H 0.75256 0.18013 0.14033 0.0
H515 H 0.78686 0.18453 0.0896 0.0
H516 H 0.68151 0.19356 0.16587 0.0
H517 H 0.64655 0.24072 0.18885 0.0
C518 C 0.28744 0.20155 0.69492 0.0
C519 C 0.32829 0.2314 0.688 0.0
C520 C 0.36222 0.21822 0.76498 0.0
C521 C 0.32058 0.1897 0.77261 0.0
N522 N 0.24062 0.15757 0.74859 0.0
N523 N 0.39805 0.27661 0.71956 0.0
C524 C 0.28221 0.18237 0.73868 0.0
C525 C 0.36396 0.24206 0.7239 0.0
N526 N 0.25456 0.19068 0.65917 0.0
N527 N 0.40072 0.22166 0.7965 0.0
H528 H 0.39995 0.29534 0.69015 0.0
H529 H 0.42133 0.28969 0.74663 0.0
H530 H 0.40012 0.20592 0.82788 0.0
H531 H 0.43475 0.23735 0.79016 0.0
H532 H 0.22723 0.16518 0.65968 0.0
H533 H 0.25624 0.20571 0.6275 0.0
H534 H 0.20878 0.15509 0.72771 0.0
H535 H 0.23665 0.14137 0.77944 0.0
C536 C 0.68116 0.815 0.3536 0.0
C537 C 0.67064 0.76692 0.35344 0.0
C538 C 0.67336 0.7586 0.2678 0.0
C539 C 0.67961 0.80707 0.26801 0.0
N540 N 0.68414 0.88291 0.30959 0.0
N541 N 0.64559 0.69503 0.31065 0.0
C542 C 0.68203 0.83576 0.31049 0.0
C543 C 0.66388 0.73916 0.31058 0.0
N544 N 0.69193 0.84044 0.3947 0.0
N545 N 0.67703 0.73108 0.22678 0.0
H546 H 0.63595 0.68008 0.34117 0.0
H547 H 0.63508 0.67491 0.28042 0.0
H548 H 0.68323 0.74436 0.1946 0.0
H549 H 0.67821 0.69501 0.22518 0.0
H550 H 0.70569 0.87418 0.39663 0.0
H551 H 0.69042 0.82674 0.42704 0.0
H552 H 0.68008 0.90602 0.33918 0.0
H553 H 0.68672 0.89924 0.27865 0.0
C554 C 0.86448 0.25422 0.81857 0.0
C555 C 0.82915 0.26523 0.85464 0.0
C556 C 0.78876 0.32166 0.80812 0.0
C557 C 0.82295 0.30933 0.77147 0.0
N558 N 0.8877 0.25952 0.73748 0.0
N559 N 0.75385 0.30374 0.88257 0.0
C560 C 0.85919 0.27428 0.7754 0.0
C561 C 0.79003 0.29727 0.84905 0.0
N562 N 0.90355 0.22525 0.82605 0.0
N563 N 0.75599 0.3574 0.80418 0.0
H564 H 0.75459 0.2874 0.9136 0.0
H565 H 0.72143 0.32284 0.87861 0.0
H566 H 0.75293 0.37499 0.77405 0.0
H567 H 0.73377 0.37156 0.83148 0.0
H568 H 0.93365 0.21978 0.80335 0.0
H569 H 0.90768 0.20862 0.85666 0.0
H570 H 0.91117 0.2308 0.73638 0.0
H571 H 0.88511 0.27396 0.70547 0.0
C572 C 0.22837 0.18891 0.48446 0.0
C573 C 0.25235 0.23098 0.47536 0.0
C574 C 0.20298 0.23467 0.40376 0.0
C575 C 0.17824 0.19322 0.41334 0.0
N576 N 0.17353 0.12548 0.45615 0.0
N577 N 0.2736 0.286 0.4203 0.0
C578 C 0.193 0.16854 0.45163 0.0
C579 C 0.24296 0.25152 0.43311 0.0
N580 N 0.23838 0.16932 0.52511 0.0
N581 N 0.18727 0.25869 0.36742 0.0
H582 H 0.30411 0.29803 0.4405 0.0
H583 H 0.27192 0.29953 0.38787 0.0
H584 H 0.15965 0.24636 0.34384 0.0
H585 H 0.19952 0.29199 0.36215 0.0
H586 H 0.21818 0.14188 0.53683 0.0
H587 H 0.26606 0.18192 0.54839 0.0
H588 H 0.18573 0.10361 0.48078 0.0
H589 H 0.1475 0.10999 0.43262 0.0
C590 C 0.2475 0.71745 0.93089 0.0
C591 C 0.25522 0.72323 0.98021 0.0
C592 C 0.33976 0.69084 0.96973 0.0
C593 C 0.33165 0.68503 0.92081 0.0
N594 N 0.27486 0.68134 0.85569 0.0
N595 N 0.3034 0.70392 0.04701 0.0
C596 C 0.2844 0.69443 0.90174 0.0
C597 C 0.29983 0.7064 0.99977 0.0
N598 N 0.2066 0.7365 0.91144 0.0
N599 N 0.38612 0.68281 0.9874 0.0
H600 H 0.27463 0.71413 0.07004 0.0
H601 H 0.33274 0.68768 0.06299 0.0
H602 H 0.41551 0.66921 0.96668 0.0
H603 H 0.39626 0.692 0.02199 0.0
H604 H 0.2021 0.73842 0.87562 0.0
H605 H 0.17874 0.75379 0.93111 0.0
H606 H 0.23956 0.68289 0.84064 0.0
H607 H 0.30142 0.66477 0.83352 0.0
loop_
_geom_bond_atom_site_label_1
_geom_bond_atom_site_label_2
_geom_bond_distance
_geom_bond_site_symmetry_2
_ccdc_geom_bond_type
Sc0 O3 2.025 . S
Sc0 O10 2.105 1_554 S
Sc0 O13 2.105 . S
Sc0 O16 2.105 . S
Sc0 O19 2.105 1_554 S
Sc1 O3 2.025 . S
Sc1 O11 2.105 1_554 S
Sc1 O15 2.105 . S
Sc1 O17 2.105 . S
Sc1 O21 2.105 1_554 S
Sc2 O3 2.025 . S
Sc2 O12 2.105 . S
Sc2 O14 2.105 . S
Sc2 O18 2.105 . S
Sc2 O20 2.105 . S
O3 Sc0 2.025 . S
O3 Sc1 2.025 . S
O3 Sc2 2.025 . S
C4 O10 1.268 . S
C4 O20 1.268 1_556 S
C5 O11 1.268 . S
C5 O19 1.268 . S
C6 O12 1.268 1_556 S
C6 O21 1.268 . S
C7 O13 1.268 . S
C7 O17 1.268 . S
C8 O14 1.268 . S
C8 O16 1.268 . S
C9 O15 1.268 . S
C9 O18 1.268 . S
O10 Sc0 2.105 1_556 S
O10 C4 1.268 . S
O11 Sc1 2.105 1_556 S
O11 C5 1.268 . S
O12 Sc2 2.105 . S
O12 C6 1.268 1_554 S
O13 Sc0 2.105 . S
O13 C7 1.268 . S
O14 Sc2 2.105 . S
O14 C8 1.268 . S
O15 Sc1 2.105 . S
O15 C9 1.268 . S
O16 Sc0 2.105 . S
O16 C8 1.268 . S
O17 Sc1 2.105 . S
O17 C7 1.268 . S
O18 Sc2 2.105 . S
O18 C9 1.268 . S
O19 Sc0 2.105 1_556 S
O19 C5 1.268 . S
O20 Sc2 2.105 . S
O20 C4 1.268 1_554 S
O21 Sc1 2.105 1_556 S
O21 C6 1.268 . S
Sc22 O25 2.025 . S
Sc22 O32 2.105 . S
Sc22 O35 2.105 . S
Sc22 O38 2.105 . S
Sc22 O41 2.105 . S
Sc23 O25 2.025 . S
Sc23 O33 2.105 . S
Sc23 O37 2.105 . S
Sc23 O39 2.105 . S
Sc23 O43 2.105 . S
Sc24 O25 2.025 . S
Sc24 O34 2.105 . S
Sc24 O36 2.105 . S
Sc24 O40 2.105 . S
Sc24 O42 2.105 . S
O25 Sc22 2.025 . S
O25 Sc23 2.025 . S
O25 Sc24 2.025 . S
C26 O32 1.268 . S
C26 O42 1.268 . S
C27 O33 1.268 . S
C27 O41 1.268 . S
C28 O34 1.268 . S
C28 O43 1.268 . S
C29 O35 1.268 . S
C29 O39 1.268 . S
C30 O36 1.268 . S
C30 O38 1.268 . S
C31 O37 1.268 . S
C31 O40 1.268 . S
O32 Sc22 2.105 . S
O32 C26 1.268 . S
O33 Sc23 2.105 . S
O33 C27 1.268 . S
O34 Sc24 2.105 . S
O34 C28 1.268 . S
O35 Sc22 2.105 . S
O35 C29 1.268 . S
O36 Sc24 2.105 . S
O36 C30 1.268 . S
O37 Sc23 2.105 . S
O37 C31 1.268 . S
O38 Sc22 2.105 . S
O38 C30 1.268 . S
O39 Sc23 2.105 . S
O39 C29 1.268 . S
O40 Sc24 2.105 . S
O40 C31 1.268 . S
O41 Sc22 2.105 . S
O41 C27 1.268 . S
O42 Sc24 2.105 . S
O42 C26 1.268 . S
O43 Sc23 2.105 . S
O43 C28 1.268 . S
Sc44 O47 2.026 . S
Sc44 O54 2.105 1_554 S
Sc44 O57 2.105 . S
Sc44 O60 2.105 . S
Sc44 O63 2.105 1_554 S
Sc45 O47 2.024 1_556 S
Sc45 O55 2.105 . S
Sc45 O59 2.105 1_556 S
Sc45 O61 2.105 1_556 S
Sc45 O65 2.105 . S
Sc46 O47 2.026 . S
Sc46 O56 2.105 1_554 S
Sc46 O58 2.105 . S
Sc46 O62 2.105 . S
Sc46 O64 2.105 1_554 S
O47 Sc44 2.026 . S
O47 Sc45 2.024 1_554 S
O47 Sc46 2.026 . S
C48 O54 1.268 . S
C48 O64 1.268 . S
C49 O55 1.268 . S
C49 O63 1.268 . S
C50 O56 1.268 . S
C50 O65 1.268 . S
C51 O57 1.268 . S
C51 O61 1.268 . S
C52 O58 1.268 . S
C52 O60 1.268 . S
C53 O59 1.268 . S
C53 O62 1.268 . S
O54 Sc44 2.105 1_556 S
O54 C48 1.268 . S
O55 Sc45 2.105 . S
O55 C49 1.268 . S
O56 Sc46 2.105 1_556 S
O56 C50 1.268 . S
O57 Sc44 2.105 . S
O57 C51 1.268 . S
O58 Sc46 2.105 . S
O58 C52 1.268 . S
O59 Sc45 2.105 1_554 S
O59 C53 1.268 . S
O60 Sc44 2.105 . S
O60 C52 1.268 . S
O61 Sc45 2.105 1_554 S
O61 C51 1.268 . S
O62 Sc46 2.105 . S
O62 C53 1.268 . S
O63 Sc44 2.105 1_556 S
O63 C49 1.268 . S
O64 Sc46 2.105 1_556 S
O64 C48 1.268 . S
O65 Sc45 2.105 . S
O65 C50 1.268 . S
Sc66 O69 2.025 . S
Sc66 O76 2.105 . S
Sc66 O79 2.105 . S
Sc66 O82 2.105 . S
Sc66 O85 2.105 . S
Sc67 O69 2.025 . S
Sc67 O77 2.105 . S
Sc67 O81 2.105 . S
Sc67 O83 2.105 . S
Sc67 O87 2.105 . S
Sc68 O69 2.025 . S
Sc68 O78 2.105 . S
Sc68 O80 2.105 . S
Sc68 O84 2.105 . S
Sc68 O86 2.105 . S
O69 Sc66 2.025 . S
O69 Sc67 2.025 . S
O69 Sc68 2.025 . S
C70 O76 1.268 . S
C70 O86 1.268 . S
C71 O77 1.268 . S
C71 O85 1.268 . S
C72 O78 1.268 . S
C72 O87 1.268 . S
C73 O79 1.268 . S
C73 O83 1.268 . S
C74 O80 1.268 . S
C74 O82 1.268 . S
C75 O81 1.268 . S
C75 O84 1.268 . S
O76 Sc66 2.105 . S
O76 C70 1.268 . S
O77 Sc67 2.105 . S
O77 C71 1.268 . S
O78 Sc68 2.105 . S
O78 C72 1.268 . S
O79 Sc66 2.105 . S
O79 C73 1.268 . S
O80 Sc68 2.105 . S
O80 C74 1.268 . S
O81 Sc67 2.105 . S
O81 C75 1.268 . S
O82 Sc66 2.105 . S
O82 C74 1.268 . S
O83 Sc67 2.105 . S
O83 C73 1.268 . S
O84 Sc68 2.105 . S
O84 C75 1.268 . S
O85 Sc66 2.105 . S
O85 C71 1.268 . S
O86 Sc68 2.105 . S
O86 C70 1.268 . S
O87 Sc67 2.105 . S
O87 C72 1.268 . S
H88 C91 0.929 . S
H89 C94 0.929 . S
H90 C96 0.930 . S
C91 H88 0.929 . S
C91 C92 1.398 . S
C91 C93 1.396 . S
C92 C91 1.398 . S
C92 C96 1.407 . S
C93 C91 1.396 . S
C93 C94 1.394 . S
C94 H89 0.929 . S
C94 C93 1.394 . S
C94 C95 1.382 . S
C95 C94 1.382 . S
C95 C96 1.392 . S
C95 N97 1.420 . S
C96 H90 0.930 . S
C96 C92 1.407 . S
C96 C95 1.392 . S
N97 C95 1.420 . S
N97 C98 1.244 . S
C98 N97 1.244 . S
H99 C102 0.929 . S
H100 C105 0.929 . S
H101 C107 0.930 . S
C102 H99 0.929 . S
C102 C103 1.398 . S
C102 C104 1.396 . S
C103 C102 1.398 . S
C103 C107 1.407 . S
C104 C102 1.396 . S
C104 C105 1.394 . S
C105 H100 0.929 . S
C105 C104 1.394 . S
C105 C106 1.382 . S
C106 C105 1.382 . S
C106 C107 1.392 . S
C106 N108 1.420 . S
C107 H101 0.930 . S
C107 C103 1.407 . S
C107 C106 1.392 . S
N108 C106 1.420 . S
N108 C109 1.244 . S
C109 N108 1.244 . S
H110 C113 0.929 . S
H111 C116 0.929 . S
H112 C118 0.930 . S
C113 H110 0.929 . S
C113 C114 1.398 . S
C113 C115 1.396 . S
C114 C113 1.398 . S
C114 C118 1.407 . S
C115 C113 1.396 . S
C115 C116 1.394 . S
C116 H111 0.929 . S
C116 C115 1.394 . S
C116 C117 1.382 . S
C117 C116 1.382 . S
C117 C118 1.392 . S
C117 N119 1.420 . S
C118 H112 0.930 . S
C118 C114 1.407 . S
C118 C117 1.392 . S
N119 C117 1.420 . S
N119 C120 1.244 . S
C120 N119 1.244 . S
H121 C124 0.929 . S
H122 C127 0.929 . S
H123 C129 0.930 . S
C124 H121 0.929 . S
C124 C125 1.398 . S
C124 C126 1.396 . S
C125 C124 1.398 . S
C125 C129 1.407 . S
C126 C124 1.396 . S
C126 C127 1.394 . S
C127 H122 0.929 . S
C127 C126 1.394 . S
C127 C128 1.382 . S
C128 C127 1.382 . S
C128 C129 1.392 . S
C128 N130 1.420 . S
C129 H123 0.930 . S
C129 C125 1.407 . S
C129 C128 1.392 . S
N130 C128 1.420 . S
N130 C131 1.244 . S
C131 N130 1.244 . S
H132 C135 0.929 . S
H133 C138 0.929 . S
H134 C140 0.930 . S
C135 H132 0.929 . S
C135 C136 1.398 . S
C135 C137 1.396 . S
C136 C135 1.398 . S
C136 C140 1.407 . S
C137 C135 1.396 . S
C137 C138 1.394 . S
C138 H133 0.929 . S
C138 C137 1.394 . S
C138 C139 1.382 . S
C139 C138 1.382 . S
C139 C140 1.392 . S
C139 N141 1.420 . S
C140 H134 0.930 . S
C140 C136 1.407 . S
C140 C139 1.392 . S
N141 C139 1.420 . S
N141 C142 1.244 . S
C142 N141 1.244 . S
H143 C146 0.929 . S
H144 C149 0.929 . S
H145 C151 0.930 . S
C146 H143 0.929 . S
C146 C147 1.398 . S
C146 C148 1.396 . S
C147 C146 1.398 . S
C147 C151 1.407 . S
C148 C146 1.396 . S
C148 C149 1.394 . S
C149 H144 0.929 . S
C149 C148 1.394 . S
C149 C150 1.382 . S
C150 C149 1.382 . S
C150 C151 1.392 . S
C150 N152 1.420 . S
C151 H145 0.930 . S
C151 C147 1.407 . S
C151 C150 1.392 . S
N152 C150 1.420 . S
N152 C153 1.244 . S
C153 N152 1.244 . S
H154 C157 0.929 . S
H155 C160 0.929 . S
H156 C162 0.930 . S
C157 H154 0.929 . S
C157 C158 1.398 . S
C157 C159 1.396 . S
C158 C157 1.398 . S
C158 C162 1.407 . S
C159 C157 1.396 . S
C159 C160 1.394 . S
C160 H155 0.929 . S
C160 C159 1.394 . S
C160 C161 1.382 . S
C161 C160 1.382 . S
C161 C162 1.392 . S
C161 N163 1.420 . S
C162 H156 0.930 . S
C162 C158 1.407 . S
C162 C161 1.392 . S
N163 C161 1.420 . S
N163 C164 1.244 . S
C164 N163 1.244 . S
H165 C168 0.929 . S
H166 C171 0.929 . S
H167 C173 0.930 . S
C168 H165 0.929 . S
C168 C169 1.398 . S
C168 C170 1.396 . S
C169 C168 1.398 . S
C169 C173 1.407 . S
C170 C168 1.396 . S
C170 C171 1.394 . S
C171 H166 0.929 . S
C171 C170 1.394 . S
C171 C172 1.382 . S
C172 C171 1.382 . S
C172 C173 1.392 . S
C172 N174 1.420 . S
C173 H167 0.930 . S
C173 C169 1.407 . S
C173 C172 1.392 . S
N174 C172 1.420 . S
N174 C175 1.244 . S
C175 N174 1.244 . S
C176 C177 1.363 1_545 S
C176 C182 1.379 . S
C176 N184 1.356 . S
C177 C176 1.363 1_565 S
C177 C183 1.363 . S
C178 C179 1.363 1_565 S
C178 C183 1.379 . S
C178 N185 1.356 . S
C179 C178 1.363 1_545 S
C179 C182 1.363 . S
N180 C182 1.356 . S
N180 H192 0.984 . S
N180 H193 0.985 . S
N181 C183 1.356 . S
N181 H186 0.984 . S
N181 H187 0.985 . S
C182 C176 1.379 . S
C182 C179 1.363 . S
C182 N180 1.356 . S
C183 C177 1.363 . S
C183 C178 1.379 . S
C183 N181 1.356 . S
N184 C176 1.356 . S
N184 H190 0.984 . S
N184 H191 0.984 1_545 S
N185 C178 1.356 . S
N185 H188 0.984 1_565 S
N185 H189 0.985 . S
H186 N181 0.984 . S
H187 N181 0.985 . S
H188 N185 0.984 1_545 S
H189 N185 0.985 . S
H190 N184 0.984 . S
H191 N184 0.984 1_565 S
H192 N180 0.984 . S
H193 N180 0.985 . S
C194 C195 1.363 . S
C194 C200 1.379 . S
C194 N202 1.356 . S
C195 C194 1.363 . S
C195 C201 1.363 . S
C196 C197 1.363 . S
C196 C201 1.379 . S
C196 N203 1.356 . S
C197 C196 1.363 . S
C197 C200 1.363 . S
N198 C200 1.356 . S
N198 H210 0.984 . S
N198 H211 0.985 . S
N199 C201 1.356 . S
N199 H204 0.984 . S
N199 H205 0.985 . S
C200 C194 1.379 . S
C200 C197 1.363 . S
C200 N198 1.356 . S
C201 C195 1.363 . S
C201 C196 1.379 . S
C201 N199 1.356 . S
N202 C194 1.356 . S
N202 H208 0.984 . S
N202 H209 0.984 . S
N203 C196 1.356 . S
N203 H206 0.984 . S
N203 H207 0.985 . S
H204 N199 0.984 . S
H205 N199 0.985 . S
H206 N203 0.984 . S
H207 N203 0.985 . S
H208 N202 0.984 . S
H209 N202 0.984 . S
H210 N198 0.984 . S
H211 N198 0.985 . S
C212 C213 1.363 . S
C212 C218 1.379 1_545 S
C212 N220 1.356 . S
C213 C212 1.363 . S
C213 C219 1.363 1_545 S
C214 C215 1.363 . S
C214 C219 1.379 . S
C214 N221 1.356 . S
C215 C214 1.363 . S
C215 C218 1.363 . S
N216 C218 1.356 . S
N216 H228 0.984 . S
N216 H229 0.985 . S
N217 C219 1.356 1_545 S
N217 H222 0.984 . S
N217 H223 0.985 1_544 S
C218 C212 1.379 1_565 S
C218 C215 1.363 . S
C218 N216 1.356 . S
C219 C213 1.363 1_565 S
C219 C214 1.379 . S
C219 N217 1.356 1_565 S
N220 C212 1.356 . S
N220 H226 0.984 . S
N220 H227 0.984 . S
N221 C214 1.356 . S
N221 H224 0.984 . S
N221 H225 0.985 . S
H222 N217 0.984 . S
H223 N217 0.985 1_566 S
H224 N221 0.984 . S
H225 N221 0.985 . S
H226 N220 0.984 . S
H227 N220 0.984 . S
H228 N216 0.984 . S
H229 N216 0.985 . S
C230 C231 1.363 . S
C230 C236 1.379 . S
C230 N238 1.356 . S
C231 C230 1.363 . S
C231 C237 1.363 . S
C232 C233 1.363 . S
C232 C237 1.379 . S
C232 N239 1.356 . S
C233 C232 1.363 . S
C233 C236 1.363 . S
N234 C236 1.356 . S
N234 H246 0.984 . S
N234 H247 0.985 . S
N235 C237 1.356 . S
N235 H240 0.984 . S
N235 H241 0.985 . S
C236 C230 1.379 . S
C236 C233 1.363 . S
C236 N234 1.356 . S
C237 C231 1.363 . S
C237 C232 1.379 . S
C237 N235 1.356 . S
N238 C230 1.356 . S
N238 H244 0.984 . S
N238 H245 0.984 . S
N239 C232 1.356 . S
N239 H242 0.984 . S
N239 H243 0.985 . S
H240 N235 0.984 . S
H241 N235 0.985 . S
H242 N239 0.984 . S
H243 N239 0.985 . S
H244 N238 0.984 . S
H245 N238 0.984 . S
H246 N234 0.984 . S
H247 N234 0.985 . S
C248 C249 1.363 . S
C248 C254 1.379 . S
C248 N256 1.356 . S
C249 C248 1.363 . S
C249 C255 1.363 . S
C250 C251 1.363 . S
C250 C255 1.379 . S
C250 N257 1.356 . S
C251 C250 1.363 . S
C251 C254 1.363 . S
N252 C254 1.356 . S
N252 H264 0.984 . S
N252 H265 0.985 . S
N253 C255 1.356 . S
N253 H258 0.984 . S
N253 H259 0.985 . S
C254 C248 1.379 . S
C254 C251 1.363 . S
C254 N252 1.356 . S
C255 C249 1.363 . S
C255 C250 1.379 . S
C255 N253 1.356 . S
N256 C248 1.356 . S
N256 H262 0.984 . S
N256 H263 0.984 . S
N257 C250 1.356 . S
N257 H260 0.984 . S
N257 H261 0.985 . S
H258 N253 0.984 . S
H259 N253 0.985 . S
H260 N257 0.984 . S
H261 N257 0.985 . S
H262 N256 0.984 . S
H263 N256 0.984 . S
H264 N252 0.984 . S
H265 N252 0.985 . S
C266 C267 1.363 . S
C266 C272 1.379 . S
C266 N274 1.356 . S
C267 C266 1.363 . S
C267 C273 1.363 . S
C268 C269 1.363 . S
C268 C273 1.379 . S
C268 N275 1.356 . S
C269 C268 1.363 . S
C269 C272 1.363 . S
N270 C272 1.356 . S
N270 H282 0.984 . S
N270 H283 0.985 . S
N271 C273 1.356 . S
N271 H276 0.984 1_455 S
N271 H277 0.985 . S
C272 C266 1.379 . S
C272 C269 1.363 . S
C272 N270 1.356 . S
C273 C267 1.363 . S
C273 C268 1.379 . S
C273 N271 1.356 . S
N274 C266 1.356 . S
N274 H280 0.984 . S
N274 H281 0.984 1_455 S
N275 C268 1.356 . S
N275 H278 0.984 . S
N275 H279 0.985 . S
H276 N271 0.984 1_655 S
H277 N271 0.985 . S
H278 N275 0.984 . S
H279 N275 0.985 . S
H280 N274 0.984 . S
H281 N274 0.984 1_655 S
H282 N270 0.984 . S
H283 N270 0.985 . S
C284 C285 1.363 . S
C284 C290 1.379 . S
C284 N292 1.356 . S
C285 C284 1.363 . S
C285 C291 1.363 . S
C286 C287 1.363 . S
C286 C291 1.379 . S
C286 N293 1.356 . S
C287 C286 1.363 . S
C287 C290 1.363 . S
N288 C290 1.356 . S
N288 H300 0.984 . S
N288 H301 0.985 . S
N289 C291 1.356 . S
N289 H294 0.984 . S
N289 H295 0.985 . S
C290 C284 1.379 . S
C290 C287 1.363 . S
C290 N288 1.356 . S
C291 C285 1.363 . S
C291 C286 1.379 . S
C291 N289 1.356 . S
N292 C284 1.356 . S
N292 H298 0.984 . S
N292 H299 0.984 . S
N293 C286 1.356 . S
N293 H296 0.984 . S
N293 H297 0.985 . S
H294 N289 0.984 . S
H295 N289 0.985 . S
H296 N293 0.984 . S
H297 N293 0.985 . S
H298 N292 0.984 . S
H299 N292 0.984 . S
H300 N288 0.984 . S
H301 N288 0.985 . S
C302 C303 1.363 . S
C302 C308 1.379 1_455 S
C302 N310 1.356 . S
C303 C302 1.363 . S
C303 C309 1.363 . S
C304 C305 1.363 1_455 S
C304 C309 1.379 . S
C304 N311 1.356 . S
C305 C304 1.363 1_655 S
C305 C308 1.363 . S
N306 C308 1.356 . S
N306 H318 0.984 . S
N306 H319 0.985 . S
N307 C309 1.356 . S
N307 H312 0.984 . S
N307 H313 0.985 . S
C308 C302 1.379 1_655 S
C308 C305 1.363 . S
C308 N306 1.356 . S
C309 C303 1.363 . S
C309 C304 1.379 . S
C309 N307 1.356 . S
N310 C302 1.356 . S
N310 H316 0.984 1_455 S
N310 H317 0.984 . S
N311 C304 1.356 . S
N311 H314 0.984 1_455 S
N311 H315 0.985 . S
H312 N307 0.984 . S
H313 N307 0.985 . S
H314 N311 0.984 1_655 S
H315 N311 0.985 . S
H316 N310 0.984 1_655 S
H317 N310 0.984 . S
H318 N306 0.984 . S
H319 N306 0.985 . S
C320 C321 1.363 1_565 S
C320 C326 1.379 . S
C320 N328 1.356 1_565 S
C321 C320 1.363 1_545 S
C321 C327 1.363 . S
C322 C323 1.363 . S
C322 C327 1.379 1_565 S
C322 N329 1.356 . S
C323 C322 1.363 . S
C323 C326 1.363 . S
N324 C326 1.356 . S
N324 H336 0.984 . S
N324 H337 0.985 . S
N325 C327 1.356 . S
N325 H330 0.984 . S
N325 H331 0.985 . S
C326 C320 1.379 . S
C326 C323 1.363 . S
C326 N324 1.356 . S
C327 C321 1.363 . S
C327 C322 1.379 1_545 S
C327 N325 1.356 . S
N328 C320 1.356 1_545 S
N328 H334 0.984 1_545 S
N328 H335 0.984 . S
N329 C322 1.356 . S
N329 H332 0.984 . S
N329 H333 0.985 1_565 S
H330 N325 0.984 . S
H331 N325 0.985 . S
H332 N329 0.984 . S
H333 N329 0.985 1_545 S
H334 N328 0.984 1_565 S
H335 N328 0.984 . S
H336 N324 0.984 . S
H337 N324 0.985 . S
C338 C339 1.363 . S
C338 C344 1.379 . S
C338 N346 1.356 . S
C339 C338 1.363 . S
C339 C345 1.363 . S
C340 C341 1.363 . S
C340 C345 1.379 . S
C340 N347 1.356 . S
C341 C340 1.363 . S
C341 C344 1.363 . S
N342 C344 1.356 . S
N342 H354 0.984 . S
N342 H355 0.985 . S
N343 C345 1.356 . S
N343 H348 0.984 . S
N343 H349 0.985 . S
C344 C338 1.379 . S
C344 C341 1.363 . S
C344 N342 1.356 . S
C345 C339 1.363 . S
C345 C340 1.379 . S
C345 N343 1.356 . S
N346 C338 1.356 . S
N346 H352 0.984 . S
N346 H353 0.984 . S
N347 C340 1.356 . S
N347 H350 0.984 . S
N347 H351 0.985 . S
H348 N343 0.984 . S
H349 N343 0.985 . S
H350 N347 0.984 . S
H351 N347 0.985 . S
H352 N346 0.984 . S
H353 N346 0.984 . S
H354 N342 0.984 . S
H355 N342 0.985 . S
C356 C357 1.363 . S
C356 C362 1.379 1_565 S
C356 N364 1.356 . S
C357 C356 1.363 . S
C357 C363 1.363 1_565 S
C358 C359 1.363 . S
C358 C363 1.379 . S
C358 N365 1.356 . S
C359 C358 1.363 . S
C359 C362 1.363 . S
N360 C362 1.356 . S
N360 H372 0.984 . S
N360 H373 0.985 . S
N361 C363 1.356 1_554 S
N361 H366 0.984 1_545 S
N361 H367 0.985 . S
C362 C356 1.379 1_545 S
C362 C359 1.363 . S
C362 N360 1.356 . S
C363 C357 1.363 1_545 S
C363 C358 1.379 . S
C363 N361 1.356 1_556 S
N364 C356 1.356 . S
N364 H370 0.984 . S
N364 H371 0.984 . S
N365 C358 1.356 . S
N365 H368 0.984 . S
N365 H369 0.985 1_556 S
H366 N361 0.984 1_565 S
H367 N361 0.985 . S
H368 N365 0.984 . S
H369 N365 0.985 1_554 S
H370 N364 0.984 . S
H371 N364 0.984 . S
H372 N360 0.984 . S
H373 N360 0.985 . S
C374 C375 1.363 . S
C374 C380 1.379 . S
C374 N382 1.356 . S
C375 C374 1.363 . S
C375 C381 1.363 . S
C376 C377 1.363 . S
C376 C381 1.379 . S
C376 N383 1.356 . S
C377 C376 1.363 . S
C377 C380 1.363 . S
N378 C380 1.356 . S
N378 H390 0.984 . S
N378 H391 0.985 . S
N379 C381 1.356 . S
N379 H384 0.984 . S
N379 H385 0.985 . S
C380 C374 1.379 . S
C380 C377 1.363 . S
C380 N378 1.356 . S
C381 C375 1.363 . S
C381 C376 1.379 . S
C381 N379 1.356 . S
N382 C374 1.356 . S
N382 H388 0.984 . S
N382 H389 0.984 . S
N383 C376 1.356 . S
N383 H386 0.984 . S
N383 H387 0.985 . S
H384 N379 0.984 . S
H385 N379 0.985 . S
H386 N383 0.984 . S
H387 N383 0.985 . S
H388 N382 0.984 . S
H389 N382 0.984 . S
H390 N378 0.984 . S
H391 N378 0.985 . S
C392 C393 1.363 . S
C392 C398 1.379 . S
C392 N400 1.356 . S
C393 C392 1.363 . S
C393 C399 1.363 . S
C394 C395 1.363 . S
C394 C399 1.379 . S
C394 N401 1.356 . S
C395 C394 1.363 . S
C395 C398 1.363 . S
N396 C398 1.356 . S
N396 H408 0.984 . S
N396 H409 0.985 . S
N397 C399 1.356 . S
N397 H402 0.984 . S
N397 H403 0.985 . S
C398 C392 1.379 . S
C398 C395 1.363 . S
C398 N396 1.356 . S
C399 C393 1.363 . S
C399 C394 1.379 . S
C399 N397 1.356 . S
N400 C392 1.356 . S
N400 H406 0.984 . S
N400 H407 0.984 . S
N401 C394 1.356 . S
N401 H404 0.984 . S
N401 H405 0.985 . S
H402 N397 0.984 . S
H403 N397 0.985 . S
H404 N401 0.984 . S
H405 N401 0.985 . S
H406 N400 0.984 . S
H407 N400 0.984 . S
H408 N396 0.984 . S
H409 N396 0.985 . S
C410 C411 1.363 . S
C410 C416 1.379 . S
C410 N418 1.356 . S
C411 C410 1.363 . S
C411 C417 1.363 . S
C412 C413 1.363 . S
C412 C417 1.379 . S
C412 N419 1.356 . S
C413 C412 1.363 . S
C413 C416 1.363 . S
N414 C416 1.356 . S
N414 H426 0.984 . S
N414 H427 0.985 . S
N415 C417 1.356 . S
N415 H420 0.984 1_655 S
N415 H421 0.985 . S
C416 C410 1.379 . S
C416 C413 1.363 . S
C416 N414 1.356 . S
C417 C411 1.363 . S
C417 C412 1.379 . S
C417 N415 1.356 . S
N418 C410 1.356 . S
N418 H424 0.984 . S
N418 H425 0.984 1_655 S
N419 C412 1.356 . S
N419 H422 0.984 . S
N419 H423 0.985 . S
H420 N415 0.984 1_455 S
H421 N415 0.985 . S
H422 N419 0.984 . S
H423 N419 0.985 . S
H424 N418 0.984 . S
H425 N418 0.984 1_455 S
H426 N414 0.984 . S
H427 N414 0.985 . S
C428 C429 1.363 . S
C428 C434 1.379 . S
C428 N436 1.356 . S
C429 C428 1.363 . S
C429 C435 1.363 . S
C430 C431 1.363 . S
C430 C435 1.379 . S
C430 N437 1.356 . S
C431 C430 1.363 . S
C431 C434 1.363 . S
N432 C434 1.356 . S
N432 H444 0.984 . S
N432 H445 0.985 . S
N433 C435 1.356 . S
N433 H438 0.984 . S
N433 H439 0.985 . S
C434 C428 1.379 . S
C434 C431 1.363 . S
C434 N432 1.356 . S
C435 C429 1.363 . S
C435 C430 1.379 . S
C435 N433 1.356 . S
N436 C428 1.356 . S
N436 H442 0.984 . S
N436 H443 0.984 . S
N437 C430 1.356 . S
N437 H440 0.984 . S
N437 H441 0.985 . S
H438 N433 0.984 . S
H439 N433 0.985 . S
H440 N437 0.984 . S
H441 N437 0.985 . S
H442 N436 0.984 . S
H443 N436 0.984 . S
H444 N432 0.984 . S
H445 N432 0.985 . S
C446 C447 1.363 . S
C446 C452 1.379 1_655 S
C446 N454 1.356 1_655 S
C447 C446 1.363 . S
C447 C453 1.363 . S
C448 C449 1.363 1_655 S
C448 C453 1.379 . S
C448 N455 1.356 . S
C449 C448 1.363 1_455 S
C449 C452 1.363 . S
N450 C452 1.356 . S
N450 H462 0.984 . S
N450 H463 0.985 . S
N451 C453 1.356 . S
N451 H456 0.984 . S
N451 H457 0.985 . S
C452 C446 1.379 1_455 S
C452 C449 1.363 . S
C452 N450 1.356 . S
C453 C447 1.363 . S
C453 C448 1.379 . S
C453 N451 1.356 . S
N454 C446 1.356 1_455 S
N454 H460 0.984 . S
N454 H461 0.984 1_455 S
N455 C448 1.356 . S
N455 H458 0.984 . S
N455 H459 0.985 . S
H456 N451 0.984 . S
H457 N451 0.985 . S
H458 N455 0.984 . S
H459 N455 0.985 . S
H460 N454 0.984 . S
H461 N454 0.984 1_655 S
H462 N450 0.984 . S
H463 N450 0.985 . S
C464 C465 1.363 . S
C464 C470 1.379 . S
C464 N472 1.356 . S
C465 C464 1.363 . S
C465 C471 1.363 . S
C466 C467 1.363 . S
C466 C471 1.379 . S
C466 N473 1.356 . S
C467 C466 1.363 . S
C467 C470 1.363 . S
N468 C470 1.356 . S
N468 H480 0.984 . S
N468 H481 0.985 . S
N469 C471 1.356 . S
N469 H474 0.984 . S
N469 H475 0.985 . S
C470 C464 1.379 . S
C470 C467 1.363 . S
C470 N468 1.356 . S
C471 C465 1.363 . S
C471 C466 1.379 . S
C471 N469 1.356 . S
N472 C464 1.356 . S
N472 H478 0.984 . S
N472 H479 0.984 . S
N473 C466 1.356 . S
N473 H476 0.984 . S
N473 H477 0.985 . S
H474 N469 0.984 . S
H475 N469 0.985 . S
H476 N473 0.984 . S
H477 N473 0.985 . S
H478 N472 0.984 . S
H479 N472 0.984 . S
H480 N468 0.984 . S
H481 N468 0.985 . S
C482 C483 1.363 . S
C482 C488 1.379 . S
C482 N490 1.356 . S
C483 C482 1.363 . S
C483 C489 1.363 . S
C484 C485 1.363 . S
C484 C489 1.379 . S
C484 N491 1.356 . S
C485 C484 1.363 . S
C485 C488 1.363 . S
N486 C488 1.356 . S
N486 H498 0.984 . S
N486 H499 0.985 . S
N487 C489 1.356 . S
N487 H492 0.984 . S
N487 H493 0.985 . S
C488 C482 1.379 . S
C488 C485 1.363 . S
C488 N486 1.356 . S
C489 C483 1.363 . S
C489 C484 1.379 . S
C489 N487 1.356 . S
N490 C482 1.356 . S
N490 H496 0.984 . S
N490 H497 0.984 . S
N491 C484 1.356 . S
N491 H494 0.984 . S
N491 H495 0.985 . S
H492 N487 0.984 . S
H493 N487 0.985 . S
H494 N491 0.984 . S
H495 N491 0.985 . S
H496 N490 0.984 . S
H497 N490 0.984 . S
H498 N486 0.984 . S
H499 N486 0.985 . S
C500 C501 1.363 . S
C500 C506 1.379 . S
C500 N508 1.356 . S
C501 C500 1.363 . S
C501 C507 1.363 . S
C502 C503 1.363 . S
C502 C507 1.379 . S
C502 N509 1.356 . S
C503 C502 1.363 . S
C503 C506 1.363 . S
N504 C506 1.356 . S
N504 H516 0.984 . S
N504 H517 0.985 . S
N505 C507 1.356 . S
N505 H510 0.984 . S
N505 H511 0.985 . S
C506 C500 1.379 . S
C506 C503 1.363 . S
C506 N504 1.356 . S
C507 C501 1.363 . S
C507 C502 1.379 . S
C507 N505 1.356 . S
N508 C500 1.356 . S
N508 H514 0.984 . S
N508 H515 0.984 . S
N509 C502 1.356 . S
N509 H512 0.984 . S
N509 H513 0.985 . S
H510 N505 0.984 . S
H511 N505 0.985 . S
H512 N509 0.984 . S
H513 N509 0.985 . S
H514 N508 0.984 . S
H515 N508 0.984 . S
H516 N504 0.984 . S
H517 N504 0.985 . S
C518 C519 1.363 . S
C518 C524 1.379 . S
C518 N526 1.356 . S
C519 C518 1.363 . S
C519 C525 1.363 . S
C520 C521 1.363 . S
C520 C525 1.379 . S
C520 N527 1.356 . S
C521 C520 1.363 . S
C521 C524 1.363 . S
N522 C524 1.356 . S
N522 H534 0.984 . S
N522 H535 0.985 . S
N523 C525 1.356 . S
N523 H528 0.984 . S
N523 H529 0.985 . S
C524 C518 1.379 . S
C524 C521 1.363 . S
C524 N522 1.356 . S
C525 C519 1.363 . S
C525 C520 1.379 . S
C525 N523 1.356 . S
N526 C518 1.356 . S
N526 H532 0.984 . S
N526 H533 0.984 . S
N527 C520 1.356 . S
N527 H530 0.984 . S
N527 H531 0.985 . S
H528 N523 0.984 . S
H529 N523 0.985 . S
H530 N527 0.984 . S
H531 N527 0.985 . S
H532 N526 0.984 . S
H533 N526 0.984 . S
H534 N522 0.984 . S
H535 N522 0.985 . S
C536 C537 1.363 . S
C536 C542 1.379 . S
C536 N544 1.356 . S
C537 C536 1.363 . S
C537 C543 1.363 . S
C538 C539 1.363 . S
C538 C543 1.379 . S
C538 N545 1.356 . S
C539 C538 1.363 . S
C539 C542 1.363 . S
N540 C542 1.356 . S
N540 H552 0.984 . S
N540 H553 0.985 . S
N541 C543 1.356 . S
N541 H546 0.984 . S
N541 H547 0.985 . S
C542 C536 1.379 . S
C542 C539 1.363 . S
C542 N540 1.356 . S
C543 C537 1.363 . S
C543 C538 1.379 . S
C543 N541 1.356 . S
N544 C536 1.356 . S
N544 H550 0.984 . S
N544 H551 0.984 . S
N545 C538 1.356 . S
N545 H548 0.984 . S
N545 H549 0.985 . S
H546 N541 0.984 . S
H547 N541 0.985 . S
H548 N545 0.984 . S
H549 N545 0.985 . S
H550 N544 0.984 . S
H551 N544 0.984 . S
H552 N540 0.984 . S
H553 N540 0.985 . S
C554 C555 1.363 . S
C554 C560 1.379 . S
C554 N562 1.356 . S
C555 C554 1.363 . S
C555 C561 1.363 . S
C556 C557 1.363 . S
C556 C561 1.379 . S
C556 N563 1.356 . S
C557 C556 1.363 . S
C557 C560 1.363 . S
N558 C560 1.356 . S
N558 H570 0.984 . S
N558 H571 0.985 . S
N559 C561 1.356 . S
N559 H564 0.984 . S
N559 H565 0.985 . S
C560 C554 1.379 . S
C560 C557 1.363 . S
C560 N558 1.356 . S
C561 C555 1.363 . S
C561 C556 1.379 . S
C561 N559 1.356 . S
N562 C554 1.356 . S
N562 H568 0.984 . S
N562 H569 0.984 . S
N563 C556 1.356 . S
N563 H566 0.984 . S
N563 H567 0.985 . S
H564 N559 0.984 . S
H565 N559 0.985 . S
H566 N563 0.984 . S
H567 N563 0.985 . S
H568 N562 0.984 . S
H569 N562 0.984 . S
H570 N558 0.984 . S
H571 N558 0.985 . S
C572 C573 1.363 . S
C572 C578 1.379 . S
C572 N580 1.356 . S
C573 C572 1.363 . S
C573 C579 1.363 . S
C574 C575 1.363 . S
C574 C579 1.379 . S
C574 N581 1.356 . S
C575 C574 1.363 . S
C575 C578 1.363 . S
N576 C578 1.356 . S
N576 H588 0.984 . S
N576 H589 0.985 . S
N577 C579 1.356 . S
N577 H582 0.984 . S
N577 H583 0.985 . S
C578 C572 1.379 . S
C578 C575 1.363 . S
C578 N576 1.356 . S
C579 C573 1.363 . S
C579 C574 1.379 . S
C579 N577 1.356 . S
N580 C572 1.356 . S
N580 H586 0.984 . S
N580 H587 0.984 . S
N581 C574 1.356 . S
N581 H584 0.984 . S
N581 H585 0.985 . S
H582 N577 0.984 . S
H583 N577 0.985 . S
H584 N581 0.984 . S
H585 N581 0.985 . S
H586 N580 0.984 . S
H587 N580 0.984 . S
H588 N576 0.984 . S
H589 N576 0.985 . S
C590 C591 1.363 . S
C590 C596 1.379 . S
C590 N598 1.356 . S
C591 C590 1.363 . S
C591 C597 1.363 . S
C592 C593 1.363 . S
C592 C597 1.379 . S
C592 N599 1.356 . S
C593 C592 1.363 . S
C593 C596 1.363 . S
N594 C596 1.356 . S
N594 H606 0.984 . S
N594 H607 0.985 . S
N595 C597 1.356 1_554 S
N595 H600 0.984 . S
N595 H601 0.985 . S
C596 C590 1.379 . S
C596 C593 1.363 . S
C596 N594 1.356 . S
C597 C591 1.363 . S
C597 C592 1.379 . S
C597 N595 1.356 1_556 S
N598 C590 1.356 . S
N598 H604 0.984 . S
N598 H605 0.984 . S
N599 C592 1.356 . S
N599 H602 0.984 . S
N599 H603 0.985 . S
H600 N595 0.984 . S
H601 N595 0.985 . S
H602 N599 0.984 . S
H603 N599 0.985 . S
H604 N598 0.984 . S
H605 N598 0.984 . S
H606 N594 0.984 . S
H607 N594 0.985 . S
C177 C8 1.498 . S
C179 C93 1.432 . S
C195 C31 1.471 . S
C197 C104 1.374 . S
C213 C53 1.434 . S
C215 C114 1.377 . S
C233 C126 1.406 . S
C231 C74 1.407 . S
C251 C137 1.432 . S
C249 C26 1.498 . S
C267 C48 1.407 1_455 S
C269 C148 1.406 . S
C285 C71 1.434 . S
C287 C158 1.377 . S
C303 C5 1.471 . S
C305 C170 1.374 . S
C321 C50 1.371 . S
C323 C169 1.340 . S
C341 C136 1.258 . S
C339 C70 1.309 . S
C359 C147 1.362 . S
C357 C4 1.405 . S
C375 C28 1.418 . S
C377 C159 1.410 . S
C395 C103 1.340 . S
C393 C73 1.371 . S
C411 C7 1.418 1_655 S
C413 C115 1.410 . S
C431 C125 1.362 . S
C429 C30 1.405 . S
C449 C92 1.258 . S
C447 C52 1.310 . S
C467 C164 1.466 . S
C465 C9 1.500 . S
C485 C175 1.470 . S
C483 C29 1.458 . S
C501 C51 1.410 . S
C503 C142 1.420 . S
C521 C153 1.425 . S
C519 C75 1.469 . S
C539 C120 1.466 . S
C537 C27 1.500 . S
C555 C49 1.469 . S
C557 C131 1.425 . S
C575 C98 1.420 . S
C573 C72 1.410 . S
C593 C109 1.470 . S
C591 C6 1.458 . S
