# Generated by pormake.
# Topology anh, (6,3)-cn, num edge types: 1
# Building blocks:
#     Node 0, Type 0, BuildingBlock: BETGAK_clean_sbu_0, # of connection points: 6
#     Node 1, Type 0, BuildingBlock: BETGAK_clean_sbu_0, # of connection points: 6
#     Node 2, Type 0, BuildingBlock: BETGAK_clean_sbu_0, # of connection points: 6
#     Node 3, Type 1, BuildingBlock: QEWDON_clean_linker_0, # of connection points: 3
#     Node 4, Type 1, BuildingBlock: QEWDON_clean_linker_0, # of connection points: 3
#     Node 5, Type 1, BuildingBlock: QEWDON_clean_linker_0, # of connection points: 3
#     Node 6, Type 1, BuildingBlock: QEWDON_clean_linker_0, # of connection points: 3
#     Node 7, Type 1, BuildingBlock: QEWDON_clean_linker_0, # of connection points: 3
#     Node 8, Type 1, BuildingBlock: QEWDON_clean_linker_0, # of connection points: 3
#     Edge 9, Type (0, 1), BuildingBlock: UVAHIK_clean_linker_0, # of connection points: 2
#     Edge 10, Type (0, 1), BuildingBlock: UVAHIK_clean_linker_0, # of connection points: 2
#     Edge 11, Type (0, 1), BuildingBlock: UVAHIK_clean_linker_0, # of connection points: 2
#     Edge 12, Type (0, 1), BuildingBlock: UVAHIK_clean_linker_0, # of connection points: 2
#     Edge 13, Type (0, 1), BuildingBlock: UVAHIK_clean_linker_0, # of connection points: 2
#     Edge 14, Type (0, 1), BuildingBlock: UVAHIK_clean_linker_0, # of connection points: 2
#     Edge 15, Type (0, 1), BuildingBlock: UVAHIK_clean_linker_0, # of connection points: 2
#     Edge 16, Type (0, 1), BuildingBlock: UVAHIK_clean_linker_0, # of connection points: 2
#     Edge 17, Type (0, 1), BuildingBlock: UVAHIK_clean_linker_0, # of connection points: 2
#     Edge 18, Type (0, 1), BuildingBlock: UVAHIK_clean_linker_0, # of connection points: 2
#     Edge 19, Type (0, 1), BuildingBlock: UVAHIK_clean_linker_0, # of connection points: 2
#     Edge 20, Type (0, 1), BuildingBlock: UVAHIK_clean_linker_0, # of connection points: 2
#     Edge 21, Type (0, 1), BuildingBlock: UVAHIK_clean_linker_0, # of connection points: 2
#     Edge 22, Type (0, 1), BuildingBlock: UVAHIK_clean_linker_0, # of connection points: 2
#     Edge 23, Type (0, 1), BuildingBlock: UVAHIK_clean_linker_0, # of connection points: 2
#     Edge 24, Type (0, 1), BuildingBlock: UVAHIK_clean_linker_0, # of connection points: 2
#     Edge 25, Type (0, 1), BuildingBlock: UVAHIK_clean_linker_0, # of connection points: 2
#     Edge 26, Type (0, 1), BuildingBlock: UVAHIK_clean_linker_0, # of connection points: 2
# Relax obj value: 0.111
# Max RMSD: 0.157
# Mean RMSD: 0.126
data_MOF--net-anh--node1-BETGAK_clean_sbu_0--node2-QEWDON_clean_linker_0--edge1-UVAHIK_clean_linker_0
_symmetry_space_group_name_H-M    P1
_symmetry_Int_Tables_number       1
_symmetry_cell_setting            triclinic
loop_
_symmetry_equiv_pos_as_xyz
'x, y, z'
_cell_length_a     41.786715
_cell_length_b     48.378324
_cell_length_c     62.357768
_cell_angle_alpha  96.340895
_cell_angle_beta   92.427715
_cell_angle_gamma 127.77099
loop_
_atom_site_label
_atom_site_type_symbol
_atom_site_fract_x
_atom_site_fract_y
_atom_site_fract_z
_atom_type_partial_charge
La0 La 0.08932 0.51962 0.15017 0.0
La1 La 1.04335 0.5444 0.16693 0.0
C2 C 0.13609 0.51375 0.12995 0.0
C3 C 0.18087 0.53519 0.13353 0.0
C4 C 0.20194 0.54678 0.15475 0.0
C5 C 0.24447 0.56817 0.15821 0.0
C6 C 0.26679 0.57885 0.14057 0.0
C7 C 0.24583 0.5679 0.11937 0.0
C8 C 0.20309 0.54606 0.11587 0.0
C9 C 0.08829 0.52494 0.1926 0.0
C10 C 0.13465 0.60378 0.16383 0.0
C11 C 0.99644 0.54996 0.18741 0.0
C12 C 0.95272 0.52396 0.18889 0.0
C13 C 0.92745 0.49325 0.17298 0.0
C14 C 0.88554 0.46935 0.17372 0.0
C15 C 0.86807 0.47589 0.19028 0.0
C16 C 0.8938 0.50588 0.20676 0.0
C17 C 0.93587 0.52973 0.20606 0.0
C18 C 1.04651 0.54084 0.1247 0.0
C19 C 0.9988 0.46097 0.15428 0.0
O20 O 0.11673 0.49534 0.14515 0.0
O21 O 0.12238 0.5301 0.12366 0.0
O22 O 0.08935 0.50168 0.18104 0.0
O23 O 0.09141 0.54561 0.18077 0.0
O24 O 0.13411 0.57819 0.153 0.0
O25 O 0.1033 0.59625 0.17361 0.0
O26 O 1.00528 0.5589 0.16822 0.0
O27 O 1.01979 0.54356 0.19617 0.0
O28 O 1.04651 0.56447 0.13668 0.0
O29 O 1.0418 0.51895 0.13605 0.0
O30 O 1.00116 0.48665 0.16629 0.0
O31 O 1.02828 0.46842 0.14277 0.0
H32 H 0.18561 0.5395 0.16874 0.0
H33 H 0.25998 0.57665 0.17473 0.0
H34 H 0.26245 0.57572 0.10551 0.0
H35 H 0.18739 0.53781 0.09942 0.0
H36 H 0.93991 0.48821 0.15962 0.0
H37 H 0.86658 0.44635 0.16091 0.0
H38 H 0.8812 0.51192 0.21957 0.0
H39 H 0.95503 0.55318 0.21855 0.0
La40 La 0.64096 0.07014 0.49107 0.0
La41 La 0.58731 0.08915 0.47857 0.0
C42 C 0.67242 0.04605 0.50902 0.0
C43 C 0.65953 0.01081 0.51159 0.0
C44 C 0.6252 0.97989 0.49843 0.0
C45 C 0.61442 0.94671 0.50041 0.0
C46 C 0.63779 0.94385 0.51558 0.0
C47 C 0.6717 0.97493 0.52901 0.0
C48 C 0.68244 1.00809 0.527 0.0
C49 C 0.63219 0.07307 0.44953 0.0
C50 C 0.54361 0.00953 0.47899 0.0
C51 C 0.55625 0.1146 0.46223 0.0
C52 C 0.56545 0.14948 0.46631 0.0
C53 C 0.58997 0.17359 0.48552 0.0
C54 C 0.59684 0.20593 0.48992 0.0
C55 C 0.57957 0.21495 0.4751 0.0
C56 C 0.55591 0.19099 0.45557 0.0
C57 C 0.54885 0.15852 0.45127 0.0
C58 C 0.59673 0.08684 0.52019 0.0
C59 C 0.68519 0.14971 0.48904 0.0
O60 O 0.67634 0.05293 0.48918 0.0
O61 O 0.65386 0.05647 0.51925 0.0
O62 O 0.66534 0.08172 0.46007 0.0
O63 O 0.60478 0.06084 0.46169 0.0
O64 O 0.57832 0.02011 0.48995 0.0
O65 O 0.54201 0.03178 0.46933 0.0
O66 O 0.54286 0.09652 0.4782 0.0
O67 O 0.58382 0.11374 0.45376 0.0
O68 O 0.56357 0.07811 0.50973 0.0
O69 O 0.62383 0.09888 0.50787 0.0
O70 O 0.64943 0.13942 0.47987 0.0
O71 O 0.6884 0.12757 0.4977 0.0
H72 H 0.60706 0.98144 0.48645 0.0
H73 H 0.58779 0.92329 0.49004 0.0
H74 H 0.6906 0.97376 0.54069 0.0
H75 H 0.70906 0.03171 0.53728 0.0
H76 H 0.60317 0.16707 0.49732 0.0
H77 H 0.61477 0.2234 0.50523 0.0
H78 H 0.54275 0.19727 0.44359 0.0
H79 H 0.53008 0.14031 0.43628 0.0
La80 La 0.64223 0.58968 0.84215 0.0
La81 La 0.5864 0.51316 0.84599 0.0
C82 C 0.67542 0.64792 0.82887 0.0
C83 C 0.66621 0.67203 0.8253 0.0
C84 C 0.63613 0.67082 0.83544 0.0
C85 C 0.62912 0.69505 0.83242 0.0
C86 C 0.65202 0.72081 0.81918 0.0
C87 C 0.68164 0.72141 0.8088 0.0
C88 C 0.68863 0.69724 0.81185 0.0
C89 C 0.63995 0.57691 0.88205 0.0
C90 C 0.54572 0.55093 0.84617 0.0
C91 C 0.55596 0.45412 0.85729 0.0
C92 C 0.56578 0.42966 0.85383 0.0
C93 C 0.58791 0.43143 0.83699 0.0
C94 C 0.59705 0.40806 0.83364 0.0
C95 C 0.58445 0.38254 0.84715 0.0
C96 C 0.5628 0.38129 0.86423 0.0
C97 C 0.55354 0.40464 0.86751 0.0
C98 C 0.58933 0.52633 0.80611 0.0
C99 C 0.68357 0.55236 0.84368 0.0
O100 O 0.68085 0.64528 0.84914 0.0
O101 O 0.65329 0.61704 0.81598 0.0
O102 O 0.67237 0.60311 0.87532 0.0
O103 O 0.60996 0.56082 0.8672 0.0
O104 O 0.58075 0.5778 0.8402 0.0
O105 O 0.54278 0.52388 0.85208 0.0
O106 O 0.54149 0.45782 0.83975 0.0
O107 O 0.58385 0.48466 0.86988 0.0
O108 O 0.55661 0.50044 0.81276 0.0
O109 O 0.61904 0.54193 0.82106 0.0
O110 O 0.64708 0.5241 0.8472 0.0
O111 O 0.68827 0.58094 0.83945 0.0
H112 H 0.61839 0.65142 0.84584 0.0
H113 H 0.60573 0.69357 0.84042 0.0
H114 H 0.70014 0.74113 0.79872 0.0
H115 H 0.71201 0.69856 0.80393 0.0
H116 H 0.59784 0.45073 0.8263 0.0
H117 H 0.61329 0.40956 0.82017 0.0
H118 H 0.5532 0.36241 0.87516 0.0
H119 H 0.53679 0.40315 0.88072 0.0
H120 H 0.58587 0.07439 0.20804 0.0
C121 C 0.56095 0.04632 0.20313 0.0
C122 C 0.54114 0.02586 0.21936 0.0
C123 C 0.54756 0.03105 0.18083 0.0
H124 H 0.49218 0.97403 0.22574 0.0
C125 C 0.50725 0.98992 0.21324 0.0
C126 C 0.49299 0.97386 0.19129 0.0
C127 C 0.51395 0.99428 0.1752 0.0
C128 C 0.56695 0.05367 0.1635 0.0
H129 H 0.50332 0.98145 0.1583 0.0
C130 C 0.60845 0.0849 0.16688 0.0
C131 C 0.62554 0.10585 0.15038 0.0
C132 C 0.54321 0.0446 0.14339 0.0
H133 H 0.51102 0.02209 0.14024 0.0
C134 C 0.56021 0.06496 0.12703 0.0
H135 H 0.6278 0.09277 0.18204 0.0
C136 C 0.60098 0.09521 0.13042 0.0
H137 H 0.61311 0.11088 0.11755 0.0
H138 H 0.54144 0.05749 0.11171 0.0
H139 H 0.56927 0.57695 0.57342 0.0
C140 C 0.57657 0.56043 0.56599 0.0
C141 C 0.59271 0.54878 0.57927 0.0
C142 C 0.56791 0.54937 0.54328 0.0
H143 H 0.61162 0.51617 0.5798 0.0
C144 C 0.60091 0.52645 0.56956 0.0
C145 C 0.59205 0.51485 0.54692 0.0
C146 C 0.57602 0.52679 0.53391 0.0
C147 C 0.54701 0.55861 0.52943 0.0
H148 H 0.56926 0.51806 0.51641 0.0
C149 C 0.56065 0.59374 0.53131 0.0
C150 C 0.54082 0.60199 0.51764 0.0
C151 C 0.51284 0.53177 0.51411 0.0
H152 H 0.50128 0.50447 0.51257 0.0
C153 C 0.49277 0.5397 0.50085 0.0
H154 H 0.58729 0.61467 0.54287 0.0
C155 C 0.5066 0.57447 0.50254 0.0
H156 H 0.49017 0.57977 0.49213 0.0
H157 H 0.46632 0.51877 0.48922 0.0
H158 H 0.12571 0.54714 0.89067 0.0
C159 C 0.10272 0.54834 0.88346 0.0
C160 C 0.07884 0.55103 0.89738 0.0
C161 C 0.09701 0.54697 0.86078 0.0
H162 H 1.02919 0.55287 0.89992 0.0
C163 C 1.04741 0.55118 0.8888 0.0
C164 C 1.03815 0.54831 0.86639 0.0
C165 C 0.06412 0.54732 0.85244 0.0
C166 C 0.12408 0.54343 0.8463 0.0
H167 H 0.05792 0.54631 0.83528 0.0
C168 C 0.1618 0.54988 0.85435 0.0
C169 C 0.18497 0.54532 0.83996 0.0
C170 C 0.11117 0.53198 0.82368 0.0
H171 H 0.08289 0.52528 0.81633 0.0
C172 C 0.13378 0.5279 0.80974 0.0
H173 H 0.17387 0.55901 0.87146 0.0
C174 C 0.16996 0.53455 0.81767 0.0
H175 H 0.18622 0.53075 0.80617 0.0
H176 H 0.12282 0.51911 0.79244 0.0
H177 H 0.06746 0.55188 0.43467 0.0
C178 C 0.09672 0.57783 0.43981 0.0
C179 C 0.11847 0.59788 0.42379 0.0
C180 C 0.11168 0.59179 0.46219 0.0
H181 H 0.17215 0.64781 0.41781 0.0
C182 C 0.1552 0.63242 0.43016 0.0
C183 C 0.17091 0.6472 0.45219 0.0
C184 C 0.14967 0.62641 0.46808 0.0
C185 C 0.08686 0.57124 0.47933 0.0
H186 H 0.1626 0.63777 0.48503 0.0
C187 C 0.05877 0.5335 0.47562 0.0
C188 C 1.0356 0.51504 0.49196 0.0
C189 C 0.09027 0.58961 0.49961 0.0
H190 H 0.10963 0.61828 0.50301 0.0
C191 C 0.0679 0.57136 0.51582 0.0
H192 H 1.0552 0.5183 0.46033 0.0
C193 C 1.04095 0.53443 0.51211 0.0
H194 H 1.02339 0.52093 0.52487 0.0
H195 H 0.07106 0.58599 0.53128 0.0
H196 H 0.59545 0.02145 0.75097 0.0
C197 C 0.60257 0.04588 0.75928 0.0
C198 C 0.61706 0.07422 0.74794 0.0
C199 C 0.5954 0.04839 0.78096 0.0
H200 H 0.63409 0.12651 0.74955 0.0
C201 C 0.62483 0.10535 0.75858 0.0
C202 C 0.61733 0.10812 0.78014 0.0
C203 C 0.60328 0.07974 0.79129 0.0
C204 C 0.57645 0.01746 0.7924 0.0
H205 H 0.59779 0.08182 0.80801 0.0
C206 C 0.59105 0.99779 0.79236 0.0
C207 C 0.57344 0.96924 0.80394 0.0
C208 C 0.54342 1.00767 0.80367 0.0
H209 H 0.53111 0.02191 0.80368 0.0
C210 C 0.52555 0.97915 0.81484 0.0
H211 H 0.6168 1.00537 0.78394 0.0
C212 C 0.54044 0.96011 0.81505 0.0
H213 H 0.5258 0.93792 0.82375 0.0
H214 H 0.50003 0.97177 0.82337 0.0
H215 H 0.65427 0.61766 0.11375 0.0
C216 C 0.64963 0.59724 0.12216 0.0
C217 C 0.63818 0.56548 0.11012 0.0
C218 C 0.65625 0.60329 0.14498 0.0
H219 H 0.62509 0.51533 0.11181 0.0
C220 C 0.63239 0.53925 0.12114 0.0
C221 C 0.63925 0.54508 0.14406 0.0
C222 C 0.65092 0.57718 0.15584 0.0
C223 C 0.66925 0.63722 0.15739 0.0
H224 H 0.65601 0.582 0.1735 0.0
C225 C 0.64526 0.64799 0.15425 0.0
C226 C 0.65695 0.68025 0.16579 0.0
C227 C 0.70541 0.65889 0.17225 0.0
H228 H 0.72438 0.65101 0.17487 0.0
C229 C 0.71761 0.69122 0.18357 0.0
H230 H 0.61662 0.63037 0.14334 0.0
C231 C 0.6936 0.70192 0.1804 0.0
H232 H 0.70369 0.72705 0.1894 0.0
H233 H 0.74571 0.70799 0.19489 0.0
C234 C 0.33704 0.63125 0.13532 0.0
C235 C 0.31177 0.6004 0.14442 0.0
C236 C 0.3796 0.65152 0.13932 0.0
C237 C 0.46198 0.66315 0.17554 0.0
H238 H 0.5233 0.69812 0.12715 0.0
C239 C 0.62229 0.70397 0.18182 0.0
C240 C 0.62916 0.68953 0.16347 0.0
C241 C 0.59052 0.70623 0.18033 0.0
C242 C 0.50667 0.6885 0.14086 0.0
H243 H 0.31077 0.56605 0.16438 0.0
H244 H 0.38447 0.60035 0.17073 0.0
H245 H 0.45206 0.67406 0.12323 0.0
H246 H 0.61112 0.67011 0.12866 0.0
H247 H 0.55445 0.67179 0.12631 0.0
H248 H 0.515 0.67437 0.19251 0.0
C249 C 0.37195 0.60993 0.16121 0.0
C250 C 0.46586 0.67512 0.1387 0.0
C251 C 0.32963 0.59003 0.15744 0.0
C252 C 0.60586 0.68034 0.14327 0.0
C253 C 0.57367 0.68194 0.14186 0.0
C254 C 0.50243 0.67586 0.17755 0.0
C255 C 0.39757 0.64103 0.1523 0.0
C256 C 0.44258 0.66098 0.15574 0.0
C257 C 0.56446 0.69351 0.16056 0.0
C258 C 0.52489 0.68746 0.15995 0.0
H259 H 0.32388 0.6399 0.12536 0.0
H260 H 0.39837 0.67544 0.13234 0.0
H261 H 0.44535 0.6535 0.18925 0.0
H262 H 0.63973 0.71149 0.19765 0.0
H263 H 0.58516 0.71629 0.19496 0.0
C264 C 0.72105 0.20842 0.47635 0.0
C265 C 0.72234 0.18692 0.48926 0.0
C266 C 0.75621 0.24295 0.47573 0.0
C267 C 0.8561 0.31733 0.50695 0.0
H268 H 0.88361 0.34949 0.4515 0.0
C269 C 1.00532 0.4563 0.50323 0.0
C270 C 1.00451 0.47566 0.48831 0.0
C271 C 0.97279 0.42019 0.5021 0.0
C272 C 0.87624 0.34125 0.46718 0.0
H273 H 0.76184 0.18534 0.51188 0.0
H274 H 0.82304 0.24591 0.5111 0.0
H275 H 0.82284 0.28906 0.45247 0.0
H276 H 0.96942 0.47219 0.46016 0.0
H277 H 0.91196 0.40939 0.45841 0.0
H278 H 0.90834 0.36953 0.52184 0.0
C279 C 0.79473 0.23586 0.50137 0.0
C280 C 0.84137 0.30645 0.4677 0.0
C281 C 0.75966 0.2011 0.50177 0.0
C282 C 0.97108 0.45779 0.4717 0.0
C283 C 0.93812 0.4217 0.47075 0.0
C284 C 0.89062 0.35223 0.50647 0.0
C285 C 0.79352 0.25714 0.48822 0.0
C286 C 0.83088 0.29405 0.4876 0.0
C287 C 0.93804 0.40249 0.48625 0.0
C288 C 0.90139 0.36481 0.48657 0.0
H289 H 0.69293 0.19845 0.46645 0.0
H290 H 0.75407 0.25873 0.46562 0.0
H291 H 0.8486 0.30882 0.52257 0.0
H292 H 1.03081 0.4694 0.51616 0.0
H293 H 0.97472 0.40635 0.51395 0.0
C294 C 0.64086 0.76404 0.83467 0.0
C295 C 0.64593 0.74758 0.81661 0.0
C296 C 0.63656 0.79009 0.83245 0.0
C297 C 0.60773 0.82399 0.79186 0.0
H298 H 0.66247 0.90711 0.83709 0.0
C299 C 0.5974 0.93699 0.78575 0.0
C300 C 0.58911 0.94881 0.80473 0.0
C301 C 0.6086 0.91505 0.78639 0.0
C302 C 0.6468 0.88397 0.82437 0.0
H303 H 0.64967 0.74517 0.78195 0.0
H304 H 0.64257 0.79092 0.77813 0.0
H305 H 0.67254 0.86294 0.83976 0.0
H306 H 0.58814 0.94844 0.83943 0.0
H307 H 0.60709 0.91001 0.84052 0.0
H308 H 0.58148 0.84476 0.77664 0.0
C309 C 0.64176 0.78356 0.79399 0.0
C310 C 0.65251 0.85862 0.82592 0.0
C311 C 0.6462 0.75757 0.79623 0.0
C312 C 0.59379 0.93937 0.82447 0.0
C313 C 0.60509 0.91764 0.82514 0.0
C314 C 0.60198 0.84935 0.79031 0.0
C315 C 0.6371 0.80027 0.8121 0.0
C316 C 0.63261 0.82808 0.80984 0.0
C317 C 0.61206 0.90475 0.80606 0.0
C318 C 0.621 0.87941 0.80671 0.0
H319 H 0.64094 0.75726 0.85064 0.0
H320 H 0.63248 0.8021 0.84667 0.0
H321 H 0.59164 0.80062 0.7793 0.0
H322 H 0.59393 0.94374 0.77028 0.0
H323 H 0.6142 0.9059 0.77146 0.0
C324 C 0.80323 0.44599 0.20728 0.0
C325 C 0.82306 0.45474 0.18866 0.0
C326 C 0.76261 0.43313 0.2062 0.0
C327 C 0.67679 0.41372 0.16712 0.0
H328 H 0.67924 0.4752 0.21369 0.0
C329 C 0.67023 0.5324 0.17255 0.0
C330 C 0.63884 0.51958 0.15555 0.0
C331 C 0.67388 0.50919 0.18148 0.0
C332 C 0.67774 0.45761 0.20058 0.0
H333 H 0.81485 0.454 0.15398 0.0
H334 H 0.74556 0.43303 0.15215 0.0
H335 H 0.72189 0.45789 0.21907 0.0
H336 H 0.58473 0.47197 0.13571 0.0
H337 H 0.5912 0.43111 0.15136 0.0
H338 H 0.63682 0.41754 0.14766 0.0
C339 C 0.76023 0.43497 0.16759 0.0
C340 C 0.70188 0.44713 0.20377 0.0
C341 C 0.80046 0.44734 0.16862 0.0
C342 C 0.60965 0.48268 0.14857 0.0
C343 C 0.61327 0.45929 0.15759 0.0
C344 C 0.6535 0.42504 0.16373 0.0
C345 C 0.74137 0.42945 0.18657 0.0
C346 C 0.70437 0.42758 0.1864 0.0
C347 C 0.64624 0.4724 0.1737 0.0
C348 C 0.65652 0.44956 0.17986 0.0
H349 H 0.81974 0.45075 0.22287 0.0
H350 H 0.74881 0.42824 0.22105 0.0
H351 H 0.67634 0.39713 0.15374 0.0
H352 H 0.69367 0.56064 0.17809 0.0
H353 H 0.7003 0.5206 0.19344 0.0
C354 C 0.46954 0.9597 0.46476 0.0
C355 C 0.50609 0.97201 0.47727 0.0
C356 C 0.43386 0.92478 0.46366 0.0
C357 C 0.39583 0.83515 0.47327 0.0
H358 H 0.29201 0.81788 0.47149 0.0
C359 C 0.24143 0.6948 0.47338 0.0
C360 C 0.20879 0.68487 0.45816 0.0
C361 C 0.27791 0.72996 0.47754 0.0
C362 C 0.3207 0.82216 0.47184 0.0
H363 H 0.53353 0.95685 0.49842 0.0
H364 H 0.47127 0.89612 0.49666 0.0
H365 H 0.35508 0.8784 0.47485 0.0
H366 H 0.18837 0.70443 0.43607 0.0
H367 H 0.25148 0.76527 0.44326 0.0
H368 H 0.36113 0.77871 0.47021 0.0
C369 C 0.47028 0.91334 0.48745 0.0
C370 C 0.35697 0.85695 0.4737 0.0
C371 C 0.50605 0.94831 0.48852 0.0
C372 C 0.21305 0.71109 0.44773 0.0
C373 C 0.24918 0.74611 0.45201 0.0
C374 C 0.35946 0.80029 0.47148 0.0
C375 C 0.43357 0.90111 0.4751 0.0
C376 C 0.39507 0.86398 0.47413 0.0
C377 C 0.2823 0.75604 0.4668 0.0
C378 C 0.32135 0.79329 0.47044 0.0
H379 H 0.46836 0.97707 0.4558 0.0
H380 H 0.40651 0.91626 0.45363 0.0
H381 H 0.42444 0.83937 0.47334 0.0
H382 H 0.23916 0.6752 0.48161 0.0
H383 H 0.30267 0.73674 0.48918 0.0
C384 C 0.63012 0.36741 0.83622 0.0
C385 C 0.593 0.35684 0.84306 0.0
C386 C 0.63726 0.34281 0.83142 0.0
C387 C 0.60317 0.25487 0.84062 0.0
H388 H 0.64447 0.25259 0.78647 0.0
C389 C 0.589 0.13374 0.80153 0.0
C390 C 0.62027 0.13907 0.79022 0.0
C391 C 0.5899 0.16228 0.80974 0.0
C392 C 0.63362 0.2532 0.80185 0.0
H393 H 0.53436 0.31191 0.85023 0.0
H394 H 0.5471 0.26928 0.84218 0.0
H395 H 0.63847 0.29896 0.79772 0.0
H396 H 0.67763 0.17877 0.77921 0.0
H397 H 0.6795 0.22885 0.7938 0.0
H398 H 0.59809 0.20907 0.84474 0.0
C399 C 0.57082 0.29669 0.84072 0.0
C400 C 0.6301 0.27977 0.80826 0.0
C401 C 0.56356 0.32119 0.84537 0.0
C402 C 0.65291 0.17378 0.78768 0.0
C403 C 0.65389 0.20243 0.79599 0.0
C404 C 0.60691 0.22845 0.83428 0.0
C405 C 0.60759 0.30714 0.83351 0.0
C406 C 0.61422 0.28056 0.82754 0.0
C407 C 0.62216 0.19697 0.80694 0.0
C408 C 0.62154 0.2269 0.81462 0.0
H409 H 0.6538 0.39475 0.83463 0.0
H410 H 0.6661 0.35176 0.82616 0.0
H411 H 0.59146 0.25513 0.85574 0.0
H412 H 0.563 0.10727 0.80339 0.0
H413 H 0.56452 0.15691 0.81768 0.0
C414 C 0.61597 0.88449 0.4978 0.0
C415 C 0.62766 0.90878 0.5169 0.0
C416 C 0.60726 0.85185 0.4989 0.0
C417 C 0.62434 0.80479 0.53494 0.0
H418 H 0.53449 0.72127 0.495 0.0
C419 C 0.56657 0.66115 0.53883 0.0
C420 C 0.55542 0.63901 0.51873 0.0
C421 C 0.57682 0.69483 0.53954 0.0
C422 C 0.55996 0.7444 0.50613 0.0
H423 H 0.63881 0.91747 0.55218 0.0
H424 H 0.6234 0.86034 0.5541 0.0
H425 H 0.54847 0.77796 0.49458 0.0
H426 H 0.54885 0.63581 0.48365 0.0
H427 H 0.56665 0.69421 0.4849 0.0
H428 H 0.63562 0.77092 0.54649 0.0
C429 C 0.62158 0.86682 0.53824 0.0
C430 C 0.568 0.77694 0.50588 0.0
C431 C 0.63036 0.89955 0.53715 0.0
C432 C 0.55634 0.65184 0.49941 0.0
C433 C 0.56649 0.68532 0.50012 0.0
C434 C 0.61621 0.77212 0.53522 0.0
C435 C 0.60991 0.84255 0.51912 0.0
C436 C 0.60054 0.80766 0.52011 0.0
C437 C 0.57611 0.70699 0.52017 0.0
C438 C 0.58419 0.74162 0.52063 0.0
H439 H 0.61434 0.89099 0.48193 0.0
H440 H 0.59913 0.83413 0.48381 0.0
H441 H 0.6499 0.82798 0.54599 0.0
H442 H 0.56596 0.65197 0.55399 0.0
H443 H 0.58396 0.71083 0.55525 0.0
C444 C 0.76049 0.58245 0.84511 0.0
C445 C 0.71968 0.55142 0.84407 0.0
C446 C 0.79396 0.58158 0.84598 0.0
C447 C 0.82144 0.51939 0.85287 0.0
H448 H 0.92666 0.59788 0.83969 0.0
C449 C 0.96429 0.52363 0.86882 0.0
C450 C 1.00011 0.54512 0.85904 0.0
C451 C 0.93084 0.52398 0.86563 0.0
C452 C 0.8976 0.57528 0.84325 0.0
H453 H 0.68341 0.49466 0.84271 0.0
H454 H 0.7401 0.49265 0.84323 0.0
H455 H 0.86945 0.59914 0.83655 0.0
H456 H 1.02643 0.58316 0.83709 0.0
H457 H 0.96763 0.58279 0.83065 0.0
H458 H 0.8487 0.49466 0.85848 0.0
C459 C 0.7473 0.51838 0.84417 0.0
C460 C 0.86416 0.57624 0.84176 0.0
C461 C 0.71399 0.51939 0.84366 0.0
C462 C 0.9998 0.56595 0.84493 0.0
C463 C 0.96581 0.5661 0.84154 0.0
C464 C 0.85459 0.51823 0.85406 0.0
C465 C 0.78851 0.54949 0.84554 0.0
C466 C 0.82499 0.54841 0.84669 0.0
C467 C 0.93048 0.54544 0.85209 0.0
C468 C 0.89395 0.54629 0.84957 0.0
H469 H 0.76684 0.60785 0.84561 0.0
H470 H 0.82432 0.60658 0.84737 0.0
H471 H 0.79298 0.4972 0.8572 0.0
H472 H 0.96239 0.50685 0.8797 0.0
H473 H 0.9057 0.50788 0.87461 0.0
C474 C 0.20511 0.65063 0.15477 0.0
C475 C 0.17188 0.64151 0.16571 0.0
C476 C 0.23999 0.68621 0.1565 0.0
C477 C 0.29571 0.77418 0.1919 0.0
H478 H 0.34864 0.81165 0.14139 0.0
C479 C 0.42109 0.92422 0.19626 0.0
C480 C 0.45537 0.93598 0.18566 0.0
C481 C 0.38679 0.88837 0.1927 0.0
C482 C 0.33459 0.80157 0.15573 0.0
H483 H 0.14957 0.66305 0.187 0.0
H484 H 0.21012 0.72476 0.18999 0.0
H485 H 0.2889 0.74911 0.13761 0.0
H486 H 0.47983 0.91921 0.1624 0.0
H487 H 0.41991 0.85622 0.15629 0.0
H488 H 0.3413 0.82623 0.21011 0.0
C489 C 0.20943 0.70441 0.18021 0.0
C490 C 0.30024 0.76565 0.15355 0.0
C491 C 0.17451 0.66893 0.1784 0.0
C492 C 0.45386 0.91103 0.17076 0.0
C493 C 0.41946 0.87491 0.16727 0.0
C494 C 0.33003 0.80993 0.19409 0.0
C495 C 0.24271 0.71359 0.16933 0.0
C496 C 0.28009 0.75155 0.17158 0.0
C497 C 0.38569 0.86298 0.17851 0.0
C498 C 0.34979 0.82434 0.17602 0.0
H499 H 0.20425 0.63029 0.14484 0.0
H500 H 0.26513 0.6922 0.14805 0.0
H501 H 0.28161 0.76417 0.20624 0.0
H502 H 0.42089 0.94284 0.20751 0.0
H503 H 0.36109 0.88057 0.20119 0.0
C504 C 0.62224 0.27988 0.49151 0.0
C505 C 0.58509 0.2486 0.48035 0.0
C506 C 0.6266 0.31091 0.49735 0.0
C507 C 0.58289 0.35523 0.48454 0.0
H508 H 0.62925 0.40596 0.54388 0.0
C509 C 0.56414 0.45815 0.52198 0.0
C510 C 0.59595 0.48772 0.53717 0.0
C511 C 0.56616 0.43121 0.5139 0.0
C512 C 0.6169 0.39257 0.52713 0.0
H513 H 0.52341 0.22578 0.46661 0.0
H514 H 0.53136 0.28 0.47642 0.0
H515 H 0.62694 0.35505 0.53173 0.0
H516 H 0.65539 0.51269 0.55531 0.0
H517 H 0.65935 0.46593 0.54091 0.0
H518 H 0.57283 0.39264 0.47985 0.0
C519 C 0.5572 0.28053 0.48051 0.0
C520 C 0.61549 0.36329 0.52019 0.0
C521 C 0.55271 0.24943 0.47483 0.0
C522 C 0.63024 0.49007 0.54376 0.0
C523 C 0.6324 0.46319 0.53557 0.0
C524 C 0.58457 0.38466 0.49141 0.0
C525 C 0.59406 0.31153 0.492 0.0
C526 C 0.59796 0.344 0.49891 0.0
C527 C 0.60015 0.4332 0.5207 0.0
C528 C 0.60106 0.40343 0.51289 0.0
H529 H 0.64809 0.28047 0.49571 0.0
H530 H 0.65555 0.33451 0.50597 0.0
H531 H 0.56976 0.34123 0.46793 0.0
H532 H 0.53695 0.45519 0.51687 0.0
H533 H 0.54038 0.40827 0.50282 0.0
C534 C 0.51002 0.57854 0.83962 0.0
C535 C 0.50946 0.55159 0.84691 0.0
C536 C 0.47619 0.57884 0.84019 0.0
C537 C 0.36241 0.52106 0.84838 0.0
H538 H 0.37949 0.60962 0.85125 0.0
C539 C 0.2258 0.52755 0.85733 0.0
C540 C 0.22489 0.55138 0.84662 0.0
C541 C 0.26054 0.52835 0.85871 0.0
C542 C 0.37358 0.58435 0.85023 0.0
H543 H 0.47106 0.50374 0.86077 0.0
H544 H 0.41341 0.50452 0.86221 0.0
H545 H 0.43749 0.60936 0.8507 0.0
H546 H 0.26123 0.59472 0.82891 0.0
H547 H 0.32117 0.59682 0.83171 0.0
H548 H 0.29841 0.49619 0.8481 0.0
C549 C 0.43962 0.52539 0.85553 0.0
C550 C 0.40747 0.58417 0.84985 0.0
C551 C 0.47335 0.52503 0.85486 0.0
C552 C 0.26067 0.57649 0.83785 0.0
C553 C 0.29541 0.57754 0.83939 0.0
C554 C 0.32854 0.52129 0.84889 0.0
C555 C 0.43989 0.55225 0.84818 0.0
C556 C 0.40297 0.55249 0.84881 0.0
C557 C 0.29614 0.55308 0.84949 0.0
C558 C 0.33309 0.55293 0.84973 0.0
H559 H 0.5367 0.59954 0.83325 0.0
H560 H 0.47858 0.59993 0.83395 0.0
H561 H 0.35628 0.4957 0.84718 0.0
H562 H 0.19883 0.50709 0.86379 0.0
H563 H 0.25914 0.50909 0.86686 0.0
C564 C 0.93416 0.41571 0.16879 0.0
C565 C 0.96213 0.42349 0.15403 0.0
C566 C 0.89992 0.38067 0.1691 0.0
C567 C 0.83127 0.29157 0.13533 0.0
H568 H 0.80044 0.25956 0.19058 0.0
C569 C 0.69402 0.14613 0.13777 0.0
C570 C 0.66836 0.1396 0.15366 0.0
C571 C 0.73185 0.17964 0.13882 0.0
C572 C 0.8082 0.26806 0.17499 0.0
H573 H 0.97557 0.40014 0.12788 0.0
H574 H 0.91538 0.33883 0.12826 0.0
H575 H 0.86167 0.31993 0.19002 0.0
H576 H 0.66287 0.16293 0.1835 0.0
H577 H 0.72852 0.22176 0.18522 0.0
H578 H 0.77741 0.24033 0.12022 0.0
C579 C 0.92012 0.36004 0.13962 0.0
C580 C 0.84349 0.30275 0.17468 0.0
C581 C 0.95472 0.39518 0.13946 0.0
C582 C 0.68218 0.16704 0.17115 0.0
C583 C 0.71991 0.20082 0.17208 0.0
C584 C 0.79579 0.25703 0.13563 0.0
C585 C 0.89238 0.35232 0.15454 0.0
C586 C 0.85545 0.31501 0.15484 0.0
C587 C 0.74497 0.20788 0.15565 0.0
C588 C 0.78359 0.24465 0.15546 0.0
H589 H 0.93877 0.43671 0.18032 0.0
H590 H 0.87899 0.37583 0.1806 0.0
H591 H 0.83919 0.30024 0.11978 0.0
H592 H 0.68433 0.1254 0.12417 0.0
H593 H 0.75054 0.18348 0.12619 0.0
C594 C 1.05202 0.51406 0.08957 0.0
C595 C 1.05334 0.54111 0.10163 0.0
C596 C 0.05942 0.51516 0.06784 0.0
C597 C 0.10507 0.57722 0.02794 0.0
H598 H 1.0375 0.49125 0.98472 0.0
C599 C 0.08794 0.57817 0.93597 0.0
C600 C 0.08524 0.55243 0.92123 0.0
C601 C 0.08932 0.57737 0.9583 0.0
C602 C 1.05709 0.51541 -0.00336 0.0
H603 H 0.06287 0.59023 0.10044 0.0
H604 H 0.07485 0.59184 0.06258 0.0
H605 H 1.02885 0.48813 0.02307 0.0
H606 H 0.08292 0.50619 0.91835 0.0
H607 H 0.08537 0.50474 0.95755 0.0
H608 H 0.1325 0.60461 0.00143 0.0
C609 C 0.06907 0.57014 0.06989 0.0
C610 C 1.05213 0.51363 0.01864 0.0
C611 C 0.06181 0.56906 0.09156 0.0
C612 C 0.08526 0.52649 0.92937 0.0
C613 C 0.08626 0.52547 0.95176 0.0
C614 C 0.10988 0.579 0.00596 0.0
C615 C 0.06815 0.54331 0.05774 0.0
C616 C 0.07557 0.54462 0.03454 0.0
C617 C 0.08775 0.55064 0.96644 0.0
C618 C 0.08549 0.54822 0.99 0.0
H619 H 1.04547 0.49215 0.09695 0.0
H620 H 0.05875 0.49419 0.05905 0.0
H621 H 0.12433 0.60152 0.03977 0.0
H622 H 0.0881 0.59853 0.93014 0.0
H623 H 0.09007 0.59695 0.9691 0.0
C624 C 0.58826 0.06187 0.41596 0.0
C625 C 0.62665 0.07503 0.42637 0.0
C626 C 0.58285 0.0629 0.39386 0.0
C627 C 0.62761 0.06719 0.34341 0.0
H628 H 0.55549 0.0855 0.32084 0.0
C629 C 0.59702 0.06163 0.25134 0.0
C630 C 0.55552 0.04146 0.24289 0.0
C631 C 0.60952 0.07208 0.27389 0.0
C632 C 0.57565 0.08024 0.32688 0.0
H633 H 0.6897 0.10031 0.42211 0.0
H634 H 0.68041 0.10236 0.38353 0.0
H635 H 0.56988 0.09118 0.36011 0.0
H636 H 0.49501 0.01848 0.25126 0.0
H637 H 0.51661 0.0363 0.29046 0.0
H638 H 0.63272 0.05551 0.31022 0.0
C639 C 0.65431 0.09079 0.39231 0.0
C640 C 0.58383 0.08342 0.34939 0.0
C641 C 0.65969 0.08975 0.41441 0.0
C642 C 0.52715 0.03364 0.25733 0.0
C643 C 0.53962 0.04417 0.2798 0.0
C644 C 0.61946 0.06403 0.32093 0.0
C645 C 0.61574 0.07712 0.38171 0.0
C646 C 0.6094 0.07638 0.35791 0.0
C647 C 0.58079 0.06277 0.28839 0.0
C648 C 0.59286 0.06996 0.31236 0.0
H649 H 0.56224 0.05032 0.42481 0.0
H650 H 0.55261 0.0517 0.38616 0.0
H651 H 0.64701 0.06111 0.34937 0.0
H652 H 0.61955 0.06798 0.2406 0.0
H653 H 0.64155 0.0868 0.27998 0.0
C654 C 0.62925 0.55432 0.77575 0.0
C655 C 0.59167 0.53423 0.78382 0.0
C656 C 0.63077 0.56008 0.75417 0.0
C657 C 0.5633 0.52329 0.70094 0.0
H658 H 0.65637 0.60881 0.68362 0.0
C659 C 0.56338 0.54937 0.61331 0.0
C660 C 0.59655 0.55616 0.60336 0.0
C661 C 0.56434 0.55107 0.63586 0.0
C662 C 0.63023 0.58481 0.68828 0.0
H663 H 0.52655 0.50579 0.7762 0.0
H664 H 0.52917 0.517 0.73898 0.0
H665 H 0.6545 0.60338 0.72216 0.0
H666 H 0.65756 0.57191 0.60927 0.0
H667 H 0.65948 0.57545 0.64888 0.0
H668 H 0.53882 0.50506 0.6671 0.0
C669 C 0.55741 0.52724 0.74884 0.0
C670 C 0.6292 0.58154 0.71033 0.0
C671 C 0.55586 0.52098 0.77025 0.0
C672 C 0.63155 0.56647 0.61654 0.0
C673 C 0.63272 0.56865 0.63917 0.0
C674 C 0.56406 0.52683 0.67902 0.0
C675 C 0.59477 0.54631 0.74033 0.0
C676 C 0.59576 0.55061 0.71696 0.0
C677 C 0.59867 0.56001 0.64896 0.0
C678 C 0.59757 0.5575 0.67244 0.0
H679 H 0.65731 0.56477 0.78593 0.0
H680 H 0.66005 0.5745 0.74822 0.0
H681 H 0.5375 0.49869 0.7052 0.0
H682 H 0.53586 0.54103 0.60355 0.0
H683 H 0.53779 0.54452 0.64304 0.0
C684 C 0.56606 0.05826 0.5521 0.0
C685 C 0.60108 0.08223 0.5428 0.0
C686 C 0.56938 0.05425 0.57371 0.0
C687 C 0.64427 0.07655 0.621 0.0
H688 H 0.55819 0.05923 0.65347 0.0
C689 C 0.65376 0.09725 0.71569 0.0
C690 C 0.61948 0.07016 0.72428 0.0
C691 C 0.65348 0.09571 0.69313 0.0
C692 C 0.58224 0.06368 0.64454 0.0
H693 H 0.66711 0.12053 0.5485 0.0
H694 H 0.67307 0.11498 0.5867 0.0
H695 H 0.55411 0.06354 0.61518 0.0
H696 H 0.55859 0.01976 0.71607 0.0
H697 H 0.55789 0.01734 0.67665 0.0
H698 H 0.67317 0.07841 0.65106 0.0
C699 C 0.64299 0.0984 0.57721 0.0
C700 C 0.57987 0.06599 0.62251 0.0
C701 C 0.63965 0.10184 0.55537 0.0
C702 C 0.58557 0.04084 0.7099 0.0
C703 C 0.58504 0.03958 0.68738 0.0
C704 C 0.64697 0.07487 0.64323 0.0
C705 C 0.6078 0.07478 0.58676 0.0
C706 C 0.61071 0.07227 0.61033 0.0
C707 C 0.61864 0.06736 0.6788 0.0
C708 C 0.61583 0.06824 0.65515 0.0
H709 H 0.53598 0.04241 0.54261 0.0
H710 H 0.54164 0.03501 0.58014 0.0
H711 H 0.66836 0.08092 0.61218 0.0
H712 H 0.68029 0.12012 0.72645 0.0
H713 H 0.67969 0.11754 0.68693 0.0
C714 C 0.6725 0.59174 0.92027 0.0
C715 C 0.63752 0.57012 0.90461 0.0
C716 C 0.67031 0.58618 0.94183 0.0
C717 C 0.59669 0.54494 0.98129 0.0
H718 H 0.68974 0.56435 0.01597 0.0
C719 C 0.66823 0.58794 0.07647 0.0
C720 C 0.63569 0.56116 0.0861 0.0
C721 C 0.66648 0.58433 0.05387 0.0
C722 C 0.66351 0.55879 0.00645 0.0
H723 H 0.57284 0.52546 0.89901 0.0
H724 H 0.56911 0.51498 0.9366 0.0
H725 H 0.69009 0.56577 0.97702 0.0
H726 H 0.57585 0.50957 0.07977 0.0
H727 H 0.57235 0.50354 0.0399 0.0
H728 H 0.57026 0.53792 0.01092 0.0
C729 C 0.59815 0.53669 0.93236 0.0
C730 C 0.66376 0.55979 0.98417 0.0
C731 C 0.60032 0.54249 0.9108 0.0
C732 C 0.60131 0.53056 0.07269 0.0
C733 C 0.59926 0.52719 0.04997 0.0
C734 C 0.59627 0.54353 0.00357 0.0
C735 C 0.6331 0.55862 0.94819 0.0
C736 C 0.63082 0.55378 0.97139 0.0
C737 C 0.63194 0.55403 0.0404 0.0
C738 C 0.63011 0.55127 0.01642 0.0
H739 H 0.70155 0.61333 0.91594 0.0
H740 H 0.69768 0.60408 0.9536 0.0
H741 H 0.57096 0.54051 0.97205 0.0
H742 H 0.69524 0.61163 0.08647 0.0
H743 H 0.69192 0.60555 0.0469 0.0
C744 C 0.09095 0.55745 0.22748 0.0
C745 C 0.08571 0.52792 0.21615 0.0
C746 C 0.08805 0.56022 0.24973 0.0
C747 C 0.09685 0.5287 0.29908 0.0
H748 H 1.04489 0.56736 0.32283 0.0
C749 C 0.09125 0.54958 0.3915 0.0
C750 C 0.10338 0.58325 0.40021 0.0
C751 C 0.08226 0.53796 0.36892 0.0
C752 C 0.05961 0.55661 0.31646 0.0
H753 H 0.07351 0.47816 0.21909 0.0
H754 H 0.06843 0.48293 0.25809 0.0
H755 H 1.04322 0.55669 0.28349 0.0
H756 H 0.11313 0.63016 0.39225 0.0
H757 H 0.09784 0.61015 0.353 0.0
H758 H 0.11403 0.52936 0.33208 0.0
C759 C 0.07496 0.50405 0.2498 0.0
C760 C 0.05872 0.55056 0.29392 0.0
C761 C 0.07777 0.50126 0.22749 0.0
C762 C 0.1043 0.60424 0.38598 0.0
C763 C 0.09515 0.59261 0.36348 0.0
C764 C 0.09775 0.53476 0.32164 0.0
C765 C 0.08 0.53355 0.26117 0.0
C766 C 0.078 0.53716 0.28499 0.0
C767 C 0.0849 0.55967 0.35463 0.0
C768 C 0.07979 0.54941 0.33062 0.0
H769 H 0.09755 0.57859 0.21917 0.0
H770 H 0.09287 0.58361 0.25805 0.0
H771 H 0.11235 0.51869 0.29276 0.0
H772 H 0.09039 0.53289 0.40209 0.0
H773 H 0.07397 0.51227 0.36261 0.0
loop_
_geom_bond_atom_site_label_1
_geom_bond_atom_site_label_2
_geom_bond_distance
_geom_bond_site_symmetry_2
_ccdc_geom_bond_type
La0 C2 2.928 . S
La0 O20 2.521 . S
La0 O21 2.628 . S
La0 O22 2.554 . S
La0 O23 2.757 . S
La0 O24 2.470 . S
La0 O29 2.482 . S
La0 O31 2.503 1_455 S
La1 C11 2.928 1_455 S
La1 O23 2.482 . S
La1 O25 2.503 . S
La1 O26 2.521 1_455 S
La1 O27 2.628 1_455 S
La1 O28 2.554 . S
La1 O29 2.757 . S
La1 O30 2.470 1_455 S
C2 La0 2.928 . S
C2 C3 1.503 . S
C2 O20 1.261 . S
C2 O21 1.243 . S
C3 C2 1.503 . S
C3 C4 1.394 . S
C3 C8 1.373 . S
C4 C3 1.394 . S
C4 C5 1.380 . S
C4 H32 0.930 . S
C5 C4 1.380 . S
C5 C6 1.376 . S
C5 H33 0.930 . S
C6 C5 1.376 . S
C6 C7 1.370 . S
C7 C6 1.370 . S
C7 C8 1.396 . S
C7 H34 0.929 . S
C8 C3 1.373 . S
C8 C7 1.396 . S
C8 H35 0.929 . S
C9 O22 1.240 . S
C9 O23 1.289 . S
C10 O24 1.258 . S
C10 O25 1.256 . S
C11 La1 2.928 1_655 S
C11 C12 1.503 . S
C11 O26 1.261 . S
C11 O27 1.243 . S
C12 C11 1.503 . S
C12 C13 1.394 . S
C12 C17 1.373 . S
C13 C12 1.394 . S
C13 C14 1.380 . S
C13 H36 0.930 . S
C14 C13 1.380 . S
C14 C15 1.376 . S
C14 H37 0.930 . S
C15 C14 1.376 . S
C15 C16 1.370 . S
C16 C15 1.370 . S
C16 C17 1.396 . S
C16 H38 0.929 . S
C17 C12 1.373 . S
C17 C16 1.396 . S
C17 H39 0.929 . S
C18 O28 1.240 . S
C18 O29 1.289 . S
C19 O30 1.258 . S
C19 O31 1.256 . S
O20 La0 2.521 . S
O20 C2 1.261 . S
O21 La0 2.628 . S
O21 C2 1.243 . S
O22 La0 2.554 . S
O22 C9 1.240 . S
O23 La0 2.757 . S
O23 La1 2.482 . S
O23 C9 1.289 . S
O24 La0 2.470 . S
O24 C10 1.258 . S
O25 La1 2.503 . S
O25 C10 1.256 . S
O26 La1 2.521 1_655 S
O26 C11 1.261 . S
O27 La1 2.628 1_655 S
O27 C11 1.243 . S
O28 La1 2.554 . S
O28 C18 1.240 . S
O29 La0 2.482 . S
O29 La1 2.757 . S
O29 C18 1.289 . S
O30 La1 2.470 1_655 S
O30 C19 1.258 . S
O31 La0 2.503 1_655 S
O31 C19 1.256 . S
H32 C4 0.930 . S
H33 C5 0.930 . S
H34 C7 0.929 . S
H35 C8 0.929 . S
H36 C13 0.930 . S
H37 C14 0.930 . S
H38 C16 0.929 . S
H39 C17 0.929 . S
La40 C42 2.928 1_545 S
La40 O60 2.521 1_545 S
La40 O61 2.628 1_545 S
La40 O62 2.554 . S
La40 O63 2.757 . S
La40 O64 2.470 1_545 S
La40 O69 2.482 . S
La40 O71 2.503 . S
La41 C51 2.928 . S
La41 O63 2.482 . S
La41 O65 2.503 . S
La41 O66 2.521 . S
La41 O67 2.628 . S
La41 O68 2.554 . S
La41 O69 2.757 . S
La41 O70 2.470 . S
C42 La40 2.928 1_565 S
C42 C43 1.503 . S
C42 O60 1.261 . S
C42 O61 1.243 . S
C43 C42 1.503 . S
C43 C44 1.394 . S
C43 C48 1.373 . S
C44 C43 1.394 . S
C44 C45 1.380 . S
C44 H72 0.930 . S
C45 C44 1.380 . S
C45 C46 1.376 . S
C45 H73 0.930 . S
C46 C45 1.376 . S
C46 C47 1.370 . S
C47 C46 1.370 . S
C47 C48 1.396 . S
C47 H74 0.929 . S
C48 C43 1.373 . S
C48 C47 1.396 . S
C48 H75 0.929 . S
C49 O62 1.240 . S
C49 O63 1.289 . S
C50 O64 1.258 . S
C50 O65 1.255 1_565 S
C51 La41 2.928 . S
C51 C52 1.503 . S
C51 O66 1.261 . S
C51 O67 1.243 . S
C52 C51 1.503 . S
C52 C53 1.394 . S
C52 C57 1.373 . S
C53 C52 1.394 . S
C53 C54 1.380 . S
C53 H76 0.930 . S
C54 C53 1.380 . S
C54 C55 1.376 . S
C54 H77 0.930 . S
C55 C54 1.376 . S
C55 C56 1.370 . S
C56 C55 1.370 . S
C56 C57 1.396 . S
C56 H78 0.929 . S
C57 C52 1.373 . S
C57 C56 1.396 . S
C57 H79 0.929 . S
C58 O68 1.240 . S
C58 O69 1.289 . S
C59 O70 1.258 . S
C59 O71 1.256 . S
O60 La40 2.521 1_565 S
O60 C42 1.261 . S
O61 La40 2.628 1_565 S
O61 C42 1.243 . S
O62 La40 2.554 . S
O62 C49 1.240 . S
O63 La40 2.757 . S
O63 La41 2.482 . S
O63 C49 1.289 . S
O64 La40 2.470 1_565 S
O64 C50 1.258 . S
O65 La41 2.503 . S
O65 C50 1.255 1_545 S
O66 La41 2.521 . S
O66 C51 1.261 . S
O67 La41 2.628 . S
O67 C51 1.243 . S
O68 La41 2.554 . S
O68 C58 1.240 . S
O69 La40 2.482 . S
O69 La41 2.757 . S
O69 C58 1.289 . S
O70 La41 2.470 . S
O70 C59 1.258 . S
O71 La40 2.503 . S
O71 C59 1.256 . S
H72 C44 0.930 . S
H73 C45 0.930 . S
H74 C47 0.929 . S
H75 C48 0.929 . S
H76 C53 0.930 . S
H77 C54 0.930 . S
H78 C56 0.929 . S
H79 C57 0.929 . S
La80 C82 2.928 . S
La80 O100 2.521 . S
La80 O101 2.628 . S
La80 O102 2.554 . S
La80 O103 2.757 . S
La80 O104 2.470 . S
La80 O109 2.482 . S
La80 O111 2.503 . S
La81 C91 2.928 . S
La81 O103 2.482 . S
La81 O105 2.503 . S
La81 O106 2.521 . S
La81 O107 2.628 . S
La81 O108 2.554 . S
La81 O109 2.757 . S
La81 O110 2.470 . S
C82 La80 2.928 . S
C82 C83 1.503 . S
C82 O100 1.261 . S
C82 O101 1.243 . S
C83 C82 1.503 . S
C83 C84 1.394 . S
C83 C88 1.373 . S
C84 C83 1.394 . S
C84 C85 1.380 . S
C84 H112 0.930 . S
C85 C84 1.380 . S
C85 C86 1.376 . S
C85 H113 0.930 . S
C86 C85 1.376 . S
C86 C87 1.370 . S
C87 C86 1.370 . S
C87 C88 1.396 . S
C87 H114 0.929 . S
C88 C83 1.373 . S
C88 C87 1.396 . S
C88 H115 0.929 . S
C89 O102 1.240 . S
C89 O103 1.289 . S
C90 O104 1.258 . S
C90 O105 1.256 . S
C91 La81 2.928 . S
C91 C92 1.503 . S
C91 O106 1.261 . S
C91 O107 1.243 . S
C92 C91 1.503 . S
C92 C93 1.394 . S
C92 C97 1.373 . S
C93 C92 1.394 . S
C93 C94 1.380 . S
C93 H116 0.930 . S
C94 C93 1.380 . S
C94 C95 1.376 . S
C94 H117 0.930 . S
C95 C94 1.376 . S
C95 C96 1.370 . S
C96 C95 1.370 . S
C96 C97 1.396 . S
C96 H118 0.929 . S
C97 C92 1.373 . S
C97 C96 1.396 . S
C97 H119 0.929 . S
C98 O108 1.240 . S
C98 O109 1.289 . S
C99 O110 1.258 . S
C99 O111 1.256 . S
O100 La80 2.521 . S
O100 C82 1.261 . S
O101 La80 2.628 . S
O101 C82 1.243 . S
O102 La80 2.554 . S
O102 C89 1.240 . S
O103 La80 2.757 . S
O103 La81 2.482 . S
O103 C89 1.289 . S
O104 La80 2.470 . S
O104 C90 1.258 . S
O105 La81 2.503 . S
O105 C90 1.256 . S
O106 La81 2.521 . S
O106 C91 1.261 . S
O107 La81 2.628 . S
O107 C91 1.243 . S
O108 La81 2.554 . S
O108 C98 1.240 . S
O109 La80 2.482 . S
O109 La81 2.757 . S
O109 C98 1.289 . S
O110 La81 2.470 . S
O110 C99 1.258 . S
O111 La80 2.503 . S
O111 C99 1.256 . S
H112 C84 0.930 . S
H113 C85 0.930 . S
H114 C87 0.929 . S
H115 C88 0.929 . S
H116 C93 0.930 . S
H117 C94 0.930 . S
H118 C96 0.929 . S
H119 C97 0.929 . S
H120 C121 0.949 . S
C121 H120 0.949 . S
C121 C122 1.395 . S
C121 C123 1.391 . S
C122 C121 1.395 . S
C122 C125 1.390 . S
C123 C121 1.391 . S
C123 C127 1.387 . S
C123 C128 1.491 . S
H124 C125 0.936 1_565 S
C125 C122 1.390 . S
C125 H124 0.936 1_545 S
C125 C126 1.378 . S
C126 C125 1.378 . S
C126 C127 1.409 . S
C127 C123 1.387 . S
C127 C126 1.409 . S
C127 H129 0.951 . S
C128 C123 1.491 . S
C128 C130 1.382 . S
C128 C132 1.404 . S
H129 C127 0.951 . S
C130 C128 1.382 . S
C130 C131 1.390 . S
C130 H135 0.949 . S
C131 C130 1.390 . S
C131 C136 1.399 . S
C132 C128 1.404 . S
C132 H133 0.950 . S
C132 C134 1.375 . S
H133 C132 0.950 . S
C134 C132 1.375 . S
C134 C136 1.382 . S
C134 H138 0.950 . S
H135 C130 0.949 . S
C136 C131 1.399 . S
C136 C134 1.382 . S
C136 H137 0.952 . S
H137 C136 0.952 . S
H138 C134 0.950 . S
H139 C140 0.949 . S
C140 H139 0.949 . S
C140 C141 1.395 . S
C140 C142 1.391 . S
C141 C140 1.395 . S
C141 C144 1.390 . S
C142 C140 1.391 . S
C142 C146 1.387 . S
C142 C147 1.491 . S
H143 C144 0.950 . S
C144 C141 1.390 . S
C144 H143 0.950 . S
C144 C145 1.378 . S
C145 C144 1.378 . S
C145 C146 1.409 . S
C146 C142 1.387 . S
C146 C145 1.409 . S
C146 H148 0.951 . S
C147 C142 1.491 . S
C147 C149 1.382 . S
C147 C151 1.404 . S
H148 C146 0.951 . S
C149 C147 1.382 . S
C149 C150 1.390 . S
C149 H154 0.949 . S
C150 C149 1.390 . S
C150 C155 1.399 . S
C151 C147 1.404 . S
C151 H152 0.950 . S
C151 C153 1.375 . S
H152 C151 0.950 . S
C153 C151 1.375 . S
C153 C155 1.382 . S
C153 H157 0.950 . S
H154 C149 0.949 . S
C155 C150 1.399 . S
C155 C153 1.382 . S
C155 H156 0.952 . S
H156 C155 0.952 . S
H157 C153 0.950 . S
H158 C159 0.949 . S
C159 H158 0.949 . S
C159 C160 1.395 . S
C159 C161 1.391 . S
C160 C159 1.395 . S
C160 C163 1.390 . S
C161 C159 1.391 . S
C161 C165 1.387 . S
C161 C166 1.491 . S
H162 C163 0.950 . S
C163 C160 1.390 . S
C163 H162 0.950 . S
C163 C164 1.378 . S
C164 C163 1.378 . S
C164 C165 1.409 . S
C165 C161 1.387 . S
C165 C164 1.409 . S
C165 H167 0.951 . S
C166 C161 1.491 . S
C166 C168 1.382 . S
C166 C170 1.404 . S
H167 C165 0.951 . S
C168 C166 1.382 . S
C168 C169 1.390 . S
C168 H173 0.949 . S
C169 C168 1.390 . S
C169 C174 1.399 . S
C170 C166 1.404 . S
C170 H171 0.950 . S
C170 C172 1.375 . S
H171 C170 0.950 . S
C172 C170 1.375 . S
C172 C174 1.382 . S
C172 H176 0.950 . S
H173 C168 0.949 . S
C174 C169 1.399 . S
C174 C172 1.382 . S
C174 H175 0.952 . S
H175 C174 0.952 . S
H176 C172 0.950 . S
H177 C178 0.949 . S
C178 H177 0.949 . S
C178 C179 1.395 1_655 S
C178 C180 1.391 1_655 S
C179 C178 1.395 1_455 S
C179 C182 1.390 . S
C180 C178 1.391 1_455 S
C180 C184 1.387 . S
C180 C185 1.491 1_455 S
H181 C182 0.950 . S
C182 C179 1.390 . S
C182 H181 0.950 . S
C182 C183 1.378 . S
C183 C182 1.378 . S
C183 C184 1.409 . S
C184 C180 1.387 . S
C184 C183 1.409 . S
C184 H186 0.951 . S
C185 C180 1.491 1_655 S
C185 C187 1.382 . S
C185 C189 1.404 . S
H186 C184 0.951 . S
C187 C185 1.382 . S
C187 C188 1.390 . S
C187 H192 0.949 . S
C188 C187 1.390 . S
C188 C193 1.399 . S
C189 C185 1.404 . S
C189 H190 0.950 . S
C189 C191 1.375 . S
H190 C189 0.950 . S
C191 C189 1.375 . S
C191 C193 1.382 . S
C191 H195 0.950 . S
H192 C187 0.949 . S
C193 C188 1.399 . S
C193 C191 1.382 . S
C193 H194 0.952 . S
H194 C193 0.952 . S
H195 C191 0.950 . S
H196 C197 0.949 . S
C197 H196 0.949 . S
C197 C198 1.395 . S
C197 C199 1.391 . S
C198 C197 1.395 . S
C198 C201 1.390 . S
C199 C197 1.391 . S
C199 C203 1.387 . S
C199 C204 1.491 . S
H200 C201 0.950 . S
C201 C198 1.390 . S
C201 H200 0.950 . S
C201 C202 1.378 . S
C202 C201 1.378 . S
C202 C203 1.409 . S
C203 C199 1.387 . S
C203 C202 1.409 . S
C203 H205 0.951 . S
C204 C199 1.491 . S
C204 C206 1.382 1_545 S
C204 C208 1.405 1_545 S
H205 C203 0.951 . S
C206 C204 1.382 1_565 S
C206 C207 1.390 . S
C206 H211 0.949 . S
C207 C206 1.390 . S
C207 C212 1.399 . S
C208 C204 1.405 1_565 S
C208 H209 0.916 1_565 S
C208 C210 1.408 . S
H209 C208 0.916 1_545 S
C210 C208 1.408 . S
C210 C212 1.382 . S
C210 H214 0.950 . S
H211 C206 0.949 . S
C212 C207 1.399 . S
C212 C210 1.382 . S
C212 H213 0.952 . S
H213 C212 0.952 . S
H214 C210 0.950 . S
H215 C216 0.949 . S
C216 H215 0.949 . S
C216 C217 1.395 . S
C216 C218 1.391 . S
C217 C216 1.395 . S
C217 C220 1.390 . S
C218 C216 1.391 . S
C218 C222 1.387 . S
C218 C223 1.491 . S
H219 C220 0.950 . S
C220 C217 1.390 . S
C220 H219 0.950 . S
C220 C221 1.378 . S
C221 C220 1.378 . S
C221 C222 1.409 . S
C222 C218 1.387 . S
C222 C221 1.409 . S
C222 H224 0.951 . S
C223 C218 1.491 . S
C223 C225 1.382 . S
C223 C227 1.404 . S
H224 C222 0.951 . S
C225 C223 1.382 . S
C225 C226 1.390 . S
C225 H230 0.949 . S
C226 C225 1.390 . S
C226 C231 1.399 . S
C227 C223 1.404 . S
C227 H228 0.950 . S
C227 C229 1.375 . S
H228 C227 0.950 . S
C229 C227 1.375 . S
C229 C231 1.382 . S
C229 H233 0.950 . S
H230 C225 0.949 . S
C231 C226 1.399 . S
C231 C229 1.382 . S
C231 H232 0.952 . S
H232 C231 0.952 . S
H233 C229 0.950 . S
C234 C235 1.349 . S
C234 C236 1.327 . S
C234 H259 0.950 . S
C235 C234 1.349 . S
C235 C251 1.349 . S
C236 C234 1.327 . S
C236 C255 1.429 . S
C236 H260 0.950 . S
C237 C254 1.574 . S
C237 C256 1.368 . S
C237 H261 0.949 . S
H238 C242 0.949 . S
C239 C240 1.349 . S
C239 C241 1.327 . S
C239 H262 0.950 . S
C240 C239 1.349 . S
C240 C252 1.349 . S
C241 C239 1.327 . S
C241 C257 1.429 . S
C241 H263 0.950 . S
C242 H238 0.949 . S
C242 C250 1.574 . S
C242 C258 1.368 . S
H243 C251 0.950 . S
H244 C249 0.950 . S
H245 C250 0.949 . S
H246 C252 0.950 . S
H247 C253 0.950 . S
H248 C254 0.949 . S
C249 H244 0.950 . S
C249 C251 1.327 . S
C249 C255 1.429 . S
C250 C242 1.574 . S
C250 H245 0.949 . S
C250 C256 1.368 . S
C251 C235 1.349 . S
C251 H243 0.950 . S
C251 C249 1.327 . S
C252 C240 1.349 . S
C252 H246 0.950 . S
C252 C253 1.327 . S
C253 H247 0.950 . S
C253 C252 1.327 . S
C253 C257 1.429 . S
C254 C237 1.574 . S
C254 H248 0.949 . S
C254 C258 1.368 . S
C255 C236 1.429 . S
C255 C249 1.429 . S
C255 C256 1.523 . S
C256 C237 1.368 . S
C256 C250 1.368 . S
C256 C255 1.523 . S
C257 C241 1.429 . S
C257 C253 1.429 . S
C257 C258 1.523 . S
C258 C242 1.368 . S
C258 C254 1.368 . S
C258 C257 1.523 . S
H259 C234 0.950 . S
H260 C236 0.950 . S
H261 C237 0.949 . S
H262 C239 0.950 . S
H263 C241 0.950 . S
C264 C265 1.349 . S
C264 C266 1.327 . S
C264 H289 0.950 . S
C265 C264 1.349 . S
C265 C281 1.349 . S
C266 C264 1.327 . S
C266 C285 1.429 . S
C266 H290 0.950 . S
C267 C284 1.574 . S
C267 C286 1.368 . S
C267 H291 0.949 . S
H268 C272 0.949 . S
C269 C270 1.349 . S
C269 C271 1.327 . S
C269 H292 0.950 . S
C270 C269 1.349 . S
C270 C282 1.349 . S
C271 C269 1.327 . S
C271 C287 1.429 . S
C271 H293 0.950 . S
C272 H268 0.949 . S
C272 C280 1.574 . S
C272 C288 1.368 . S
H273 C281 0.950 . S
H274 C279 0.950 . S
H275 C280 0.949 . S
H276 C282 0.950 . S
H277 C283 0.950 . S
H278 C284 0.949 . S
C279 H274 0.950 . S
C279 C281 1.327 . S
C279 C285 1.429 . S
C280 C272 1.574 . S
C280 H275 0.949 . S
C280 C286 1.368 . S
C281 C265 1.349 . S
C281 H273 0.950 . S
C281 C279 1.327 . S
C282 C270 1.349 . S
C282 H276 0.950 . S
C282 C283 1.327 . S
C283 H277 0.950 . S
C283 C282 1.327 . S
C283 C287 1.429 . S
C284 C267 1.574 . S
C284 H278 0.949 . S
C284 C288 1.368 . S
C285 C266 1.429 . S
C285 C279 1.429 . S
C285 C286 1.523 . S
C286 C267 1.368 . S
C286 C280 1.368 . S
C286 C285 1.523 . S
C287 C271 1.429 . S
C287 C283 1.429 . S
C287 C288 1.523 . S
C288 C272 1.368 . S
C288 C284 1.368 . S
C288 C287 1.523 . S
H289 C264 0.950 . S
H290 C266 0.950 . S
H291 C267 0.949 . S
H292 C269 0.950 . S
H293 C271 0.950 . S
C294 C295 1.349 . S
C294 C296 1.327 . S
C294 H319 0.950 . S
C295 C294 1.349 . S
C295 C311 1.349 . S
C296 C294 1.327 . S
C296 C315 1.429 . S
C296 H320 0.950 . S
C297 C314 1.574 . S
C297 C316 1.368 . S
C297 H321 0.949 . S
H298 C302 0.949 . S
C299 C300 1.349 . S
C299 C301 1.327 . S
C299 H322 0.950 . S
C300 C299 1.349 . S
C300 C312 1.349 . S
C301 C299 1.327 . S
C301 C317 1.429 . S
C301 H323 0.950 . S
C302 H298 0.949 . S
C302 C310 1.574 . S
C302 C318 1.368 . S
H303 C311 0.950 . S
H304 C309 0.950 . S
H305 C310 0.949 . S
H306 C312 0.950 . S
H307 C313 0.950 . S
H308 C314 0.949 . S
C309 H304 0.950 . S
C309 C311 1.327 . S
C309 C315 1.429 . S
C310 C302 1.574 . S
C310 H305 0.949 . S
C310 C316 1.368 . S
C311 C295 1.349 . S
C311 H303 0.950 . S
C311 C309 1.327 . S
C312 C300 1.349 . S
C312 H306 0.950 . S
C312 C313 1.327 . S
C313 H307 0.950 . S
C313 C312 1.327 . S
C313 C317 1.429 . S
C314 C297 1.574 . S
C314 H308 0.949 . S
C314 C318 1.368 . S
C315 C296 1.429 . S
C315 C309 1.429 . S
C315 C316 1.523 . S
C316 C297 1.368 . S
C316 C310 1.368 . S
C316 C315 1.523 . S
C317 C301 1.429 . S
C317 C313 1.429 . S
C317 C318 1.523 . S
C318 C302 1.368 . S
C318 C314 1.368 . S
C318 C317 1.523 . S
H319 C294 0.950 . S
H320 C296 0.950 . S
H321 C297 0.949 . S
H322 C299 0.950 . S
H323 C301 0.950 . S
C324 C325 1.349 . S
C324 C326 1.327 . S
C324 H349 0.950 . S
C325 C324 1.349 . S
C325 C341 1.349 . S
C326 C324 1.327 . S
C326 C345 1.429 . S
C326 H350 0.950 . S
C327 C344 1.574 . S
C327 C346 1.368 . S
C327 H351 0.949 . S
H328 C332 0.949 . S
C329 C330 1.349 . S
C329 C331 1.327 . S
C329 H352 0.950 . S
C330 C329 1.349 . S
C330 C342 1.349 . S
C331 C329 1.327 . S
C331 C347 1.429 . S
C331 H353 0.950 . S
C332 H328 0.949 . S
C332 C340 1.574 . S
C332 C348 1.368 . S
H333 C341 0.950 . S
H334 C339 0.950 . S
H335 C340 0.949 . S
H336 C342 0.950 . S
H337 C343 0.950 . S
H338 C344 0.949 . S
C339 H334 0.950 . S
C339 C341 1.327 . S
C339 C345 1.429 . S
C340 C332 1.574 . S
C340 H335 0.949 . S
C340 C346 1.368 . S
C341 C325 1.349 . S
C341 H333 0.950 . S
C341 C339 1.327 . S
C342 C330 1.349 . S
C342 H336 0.950 . S
C342 C343 1.327 . S
C343 H337 0.950 . S
C343 C342 1.327 . S
C343 C347 1.429 . S
C344 C327 1.574 . S
C344 H338 0.949 . S
C344 C348 1.368 . S
C345 C326 1.429 . S
C345 C339 1.429 . S
C345 C346 1.523 . S
C346 C327 1.368 . S
C346 C340 1.368 . S
C346 C345 1.523 . S
C347 C331 1.429 . S
C347 C343 1.429 . S
C347 C348 1.523 . S
C348 C332 1.368 . S
C348 C344 1.368 . S
C348 C347 1.523 . S
H349 C324 0.950 . S
H350 C326 0.950 . S
H351 C327 0.949 . S
H352 C329 0.950 . S
H353 C331 0.950 . S
C354 C355 1.349 . S
C354 C356 1.327 . S
C354 H379 0.950 . S
C355 C354 1.349 . S
C355 C371 1.349 . S
C356 C354 1.327 . S
C356 C375 1.429 . S
C356 H380 0.950 . S
C357 C374 1.574 . S
C357 C376 1.368 . S
C357 H381 0.949 . S
H358 C362 0.949 . S
C359 C360 1.349 . S
C359 C361 1.327 . S
C359 H382 0.950 . S
C360 C359 1.349 . S
C360 C372 1.349 . S
C361 C359 1.327 . S
C361 C377 1.429 . S
C361 H383 0.950 . S
C362 H358 0.949 . S
C362 C370 1.574 . S
C362 C378 1.368 . S
H363 C371 0.950 . S
H364 C369 0.950 . S
H365 C370 0.949 . S
H366 C372 0.950 . S
H367 C373 0.950 . S
H368 C374 0.949 . S
C369 H364 0.950 . S
C369 C371 1.327 . S
C369 C375 1.429 . S
C370 C362 1.574 . S
C370 H365 0.949 . S
C370 C376 1.368 . S
C371 C355 1.349 . S
C371 H363 0.950 . S
C371 C369 1.327 . S
C372 C360 1.349 . S
C372 H366 0.950 . S
C372 C373 1.327 . S
C373 H367 0.950 . S
C373 C372 1.327 . S
C373 C377 1.429 . S
C374 C357 1.574 . S
C374 H368 0.949 . S
C374 C378 1.368 . S
C375 C356 1.429 . S
C375 C369 1.429 . S
C375 C376 1.523 . S
C376 C357 1.368 . S
C376 C370 1.368 . S
C376 C375 1.523 . S
C377 C361 1.429 . S
C377 C373 1.429 . S
C377 C378 1.523 . S
C378 C362 1.368 . S
C378 C374 1.368 . S
C378 C377 1.523 . S
H379 C354 0.950 . S
H380 C356 0.950 . S
H381 C357 0.949 . S
H382 C359 0.950 . S
H383 C361 0.950 . S
C384 C385 1.349 . S
C384 C386 1.327 . S
C384 H409 0.950 . S
C385 C384 1.349 . S
C385 C401 1.349 . S
C386 C384 1.327 . S
C386 C405 1.429 . S
C386 H410 0.950 . S
C387 C404 1.574 . S
C387 C406 1.368 . S
C387 H411 0.949 . S
H388 C392 0.949 . S
C389 C390 1.349 . S
C389 C391 1.327 . S
C389 H412 0.950 . S
C390 C389 1.349 . S
C390 C402 1.349 . S
C391 C389 1.327 . S
C391 C407 1.429 . S
C391 H413 0.950 . S
C392 H388 0.949 . S
C392 C400 1.574 . S
C392 C408 1.368 . S
H393 C401 0.950 . S
H394 C399 0.950 . S
H395 C400 0.949 . S
H396 C402 0.950 . S
H397 C403 0.950 . S
H398 C404 0.949 . S
C399 H394 0.950 . S
C399 C401 1.327 . S
C399 C405 1.429 . S
C400 C392 1.574 . S
C400 H395 0.949 . S
C400 C406 1.368 . S
C401 C385 1.349 . S
C401 H393 0.950 . S
C401 C399 1.327 . S
C402 C390 1.349 . S
C402 H396 0.950 . S
C402 C403 1.327 . S
C403 H397 0.950 . S
C403 C402 1.327 . S
C403 C407 1.429 . S
C404 C387 1.574 . S
C404 H398 0.949 . S
C404 C408 1.368 . S
C405 C386 1.429 . S
C405 C399 1.429 . S
C405 C406 1.523 . S
C406 C387 1.368 . S
C406 C400 1.368 . S
C406 C405 1.523 . S
C407 C391 1.429 . S
C407 C403 1.429 . S
C407 C408 1.523 . S
C408 C392 1.368 . S
C408 C404 1.368 . S
C408 C407 1.523 . S
H409 C384 0.950 . S
H410 C386 0.950 . S
H411 C387 0.949 . S
H412 C389 0.950 . S
H413 C391 0.950 . S
C414 C415 1.349 . S
C414 C416 1.327 . S
C414 H439 0.950 . S
C415 C414 1.349 . S
C415 C431 1.349 . S
C416 C414 1.327 . S
C416 C435 1.429 . S
C416 H440 0.950 . S
C417 C434 1.574 . S
C417 C436 1.368 . S
C417 H441 0.949 . S
H418 C422 0.949 . S
C419 C420 1.349 . S
C419 C421 1.327 . S
C419 H442 0.950 . S
C420 C419 1.349 . S
C420 C432 1.349 . S
C421 C419 1.327 . S
C421 C437 1.429 . S
C421 H443 0.950 . S
C422 H418 0.949 . S
C422 C430 1.574 . S
C422 C438 1.368 . S
H423 C431 0.950 . S
H424 C429 0.950 . S
H425 C430 0.949 . S
H426 C432 0.950 . S
H427 C433 0.950 . S
H428 C434 0.949 . S
C429 H424 0.950 . S
C429 C431 1.327 . S
C429 C435 1.429 . S
C430 C422 1.574 . S
C430 H425 0.949 . S
C430 C436 1.368 . S
C431 C415 1.349 . S
C431 H423 0.950 . S
C431 C429 1.327 . S
C432 C420 1.349 . S
C432 H426 0.950 . S
C432 C433 1.327 . S
C433 H427 0.950 . S
C433 C432 1.327 . S
C433 C437 1.429 . S
C434 C417 1.574 . S
C434 H428 0.949 . S
C434 C438 1.368 . S
C435 C416 1.429 . S
C435 C429 1.429 . S
C435 C436 1.523 . S
C436 C417 1.368 . S
C436 C430 1.368 . S
C436 C435 1.523 . S
C437 C421 1.429 . S
C437 C433 1.429 . S
C437 C438 1.523 . S
C438 C422 1.368 . S
C438 C434 1.368 . S
C438 C437 1.523 . S
H439 C414 0.950 . S
H440 C416 0.950 . S
H441 C417 0.949 . S
H442 C419 0.950 . S
H443 C421 0.950 . S
C444 C445 1.349 . S
C444 C446 1.327 . S
C444 H469 0.950 . S
C445 C444 1.349 . S
C445 C461 1.349 . S
C446 C444 1.327 . S
C446 C465 1.429 . S
C446 H470 0.950 . S
C447 C464 1.574 . S
C447 C466 1.368 . S
C447 H471 0.949 . S
H448 C452 0.949 . S
C449 C450 1.349 . S
C449 C451 1.327 . S
C449 H472 0.950 . S
C450 C449 1.349 . S
C450 C462 1.349 . S
C451 C449 1.327 . S
C451 C467 1.429 . S
C451 H473 0.950 . S
C452 H448 0.949 . S
C452 C460 1.574 . S
C452 C468 1.368 . S
H453 C461 0.950 . S
H454 C459 0.950 . S
H455 C460 0.949 . S
H456 C462 0.950 . S
H457 C463 0.950 . S
H458 C464 0.949 . S
C459 H454 0.950 . S
C459 C461 1.327 . S
C459 C465 1.429 . S
C460 C452 1.574 . S
C460 H455 0.949 . S
C460 C466 1.368 . S
C461 C445 1.349 . S
C461 H453 0.950 . S
C461 C459 1.327 . S
C462 C450 1.349 . S
C462 H456 0.950 . S
C462 C463 1.327 . S
C463 H457 0.950 . S
C463 C462 1.327 . S
C463 C467 1.429 . S
C464 C447 1.574 . S
C464 H458 0.949 . S
C464 C468 1.368 . S
C465 C446 1.429 . S
C465 C459 1.429 . S
C465 C466 1.523 . S
C466 C447 1.368 . S
C466 C460 1.368 . S
C466 C465 1.523 . S
C467 C451 1.429 . S
C467 C463 1.429 . S
C467 C468 1.523 . S
C468 C452 1.368 . S
C468 C464 1.368 . S
C468 C467 1.523 . S
H469 C444 0.950 . S
H470 C446 0.950 . S
H471 C447 0.949 . S
H472 C449 0.950 . S
H473 C451 0.950 . S
C474 C475 1.349 . S
C474 C476 1.327 . S
C474 H499 0.950 . S
C475 C474 1.349 . S
C475 C491 1.349 . S
C476 C474 1.327 . S
C476 C495 1.429 . S
C476 H500 0.950 . S
C477 C494 1.574 . S
C477 C496 1.368 . S
C477 H501 0.949 . S
H478 C482 0.949 . S
C479 C480 1.349 . S
C479 C481 1.327 . S
C479 H502 0.950 . S
C480 C479 1.349 . S
C480 C492 1.349 . S
C481 C479 1.327 . S
C481 C497 1.429 . S
C481 H503 0.950 . S
C482 H478 0.949 . S
C482 C490 1.574 . S
C482 C498 1.368 . S
H483 C491 0.950 . S
H484 C489 0.950 . S
H485 C490 0.949 . S
H486 C492 0.950 . S
H487 C493 0.950 . S
H488 C494 0.949 . S
C489 H484 0.950 . S
C489 C491 1.327 . S
C489 C495 1.429 . S
C490 C482 1.574 . S
C490 H485 0.949 . S
C490 C496 1.368 . S
C491 C475 1.349 . S
C491 H483 0.950 . S
C491 C489 1.327 . S
C492 C480 1.349 . S
C492 H486 0.950 . S
C492 C493 1.327 . S
C493 H487 0.950 . S
C493 C492 1.327 . S
C493 C497 1.429 . S
C494 C477 1.574 . S
C494 H488 0.949 . S
C494 C498 1.368 . S
C495 C476 1.429 . S
C495 C489 1.429 . S
C495 C496 1.523 . S
C496 C477 1.368 . S
C496 C490 1.368 . S
C496 C495 1.523 . S
C497 C481 1.429 . S
C497 C493 1.429 . S
C497 C498 1.523 . S
C498 C482 1.368 . S
C498 C494 1.368 . S
C498 C497 1.523 . S
H499 C474 0.950 . S
H500 C476 0.950 . S
H501 C477 0.949 . S
H502 C479 0.950 . S
H503 C481 0.950 . S
C504 C505 1.349 . S
C504 C506 1.327 . S
C504 H529 0.950 . S
C505 C504 1.349 . S
C505 C521 1.349 . S
C506 C504 1.327 . S
C506 C525 1.429 . S
C506 H530 0.950 . S
C507 C524 1.574 . S
C507 C526 1.368 . S
C507 H531 0.949 . S
H508 C512 0.949 . S
C509 C510 1.349 . S
C509 C511 1.327 . S
C509 H532 0.950 . S
C510 C509 1.349 . S
C510 C522 1.349 . S
C511 C509 1.327 . S
C511 C527 1.429 . S
C511 H533 0.950 . S
C512 H508 0.949 . S
C512 C520 1.574 . S
C512 C528 1.368 . S
H513 C521 0.950 . S
H514 C519 0.950 . S
H515 C520 0.949 . S
H516 C522 0.950 . S
H517 C523 0.950 . S
H518 C524 0.949 . S
C519 H514 0.950 . S
C519 C521 1.327 . S
C519 C525 1.429 . S
C520 C512 1.574 . S
C520 H515 0.949 . S
C520 C526 1.368 . S
C521 C505 1.349 . S
C521 H513 0.950 . S
C521 C519 1.327 . S
C522 C510 1.349 . S
C522 H516 0.950 . S
C522 C523 1.327 . S
C523 H517 0.950 . S
C523 C522 1.327 . S
C523 C527 1.429 . S
C524 C507 1.574 . S
C524 H518 0.949 . S
C524 C528 1.368 . S
C525 C506 1.429 . S
C525 C519 1.429 . S
C525 C526 1.523 . S
C526 C507 1.368 . S
C526 C520 1.368 . S
C526 C525 1.523 . S
C527 C511 1.429 . S
C527 C523 1.429 . S
C527 C528 1.523 . S
C528 C512 1.368 . S
C528 C524 1.368 . S
C528 C527 1.523 . S
H529 C504 0.950 . S
H530 C506 0.950 . S
H531 C507 0.949 . S
H532 C509 0.950 . S
H533 C511 0.950 . S
C534 C535 1.349 . S
C534 C536 1.327 . S
C534 H559 0.950 . S
C535 C534 1.349 . S
C535 C551 1.349 . S
C536 C534 1.327 . S
C536 C555 1.429 . S
C536 H560 0.950 . S
C537 C554 1.574 . S
C537 C556 1.368 . S
C537 H561 0.949 . S
H538 C542 0.949 . S
C539 C540 1.349 . S
C539 C541 1.327 . S
C539 H562 0.950 . S
C540 C539 1.349 . S
C540 C552 1.349 . S
C541 C539 1.327 . S
C541 C557 1.429 . S
C541 H563 0.950 . S
C542 H538 0.949 . S
C542 C550 1.574 . S
C542 C558 1.368 . S
H543 C551 0.950 . S
H544 C549 0.950 . S
H545 C550 0.949 . S
H546 C552 0.950 . S
H547 C553 0.950 . S
H548 C554 0.949 . S
C549 H544 0.950 . S
C549 C551 1.327 . S
C549 C555 1.429 . S
C550 C542 1.574 . S
C550 H545 0.949 . S
C550 C556 1.368 . S
C551 C535 1.349 . S
C551 H543 0.950 . S
C551 C549 1.327 . S
C552 C540 1.349 . S
C552 H546 0.950 . S
C552 C553 1.327 . S
C553 H547 0.950 . S
C553 C552 1.327 . S
C553 C557 1.429 . S
C554 C537 1.574 . S
C554 H548 0.949 . S
C554 C558 1.368 . S
C555 C536 1.429 . S
C555 C549 1.429 . S
C555 C556 1.523 . S
C556 C537 1.368 . S
C556 C550 1.368 . S
C556 C555 1.523 . S
C557 C541 1.429 . S
C557 C553 1.429 . S
C557 C558 1.523 . S
C558 C542 1.368 . S
C558 C554 1.368 . S
C558 C557 1.523 . S
H559 C534 0.950 . S
H560 C536 0.950 . S
H561 C537 0.949 . S
H562 C539 0.950 . S
H563 C541 0.950 . S
C564 C565 1.349 . S
C564 C566 1.327 . S
C564 H589 0.950 . S
C565 C564 1.349 . S
C565 C581 1.349 . S
C566 C564 1.327 . S
C566 C585 1.429 . S
C566 H590 0.950 . S
C567 C584 1.574 . S
C567 C586 1.368 . S
C567 H591 0.949 . S
H568 C572 0.949 . S
C569 C570 1.349 . S
C569 C571 1.327 . S
C569 H592 0.950 . S
C570 C569 1.349 . S
C570 C582 1.349 . S
C571 C569 1.327 . S
C571 C587 1.429 . S
C571 H593 0.950 . S
C572 H568 0.949 . S
C572 C580 1.574 . S
C572 C588 1.368 . S
H573 C581 0.950 . S
H574 C579 0.950 . S
H575 C580 0.949 . S
H576 C582 0.950 . S
H577 C583 0.950 . S
H578 C584 0.949 . S
C579 H574 0.950 . S
C579 C581 1.327 . S
C579 C585 1.429 . S
C580 C572 1.574 . S
C580 H575 0.949 . S
C580 C586 1.368 . S
C581 C565 1.349 . S
C581 H573 0.950 . S
C581 C579 1.327 . S
C582 C570 1.349 . S
C582 H576 0.950 . S
C582 C583 1.327 . S
C583 H577 0.950 . S
C583 C582 1.327 . S
C583 C587 1.429 . S
C584 C567 1.574 . S
C584 H578 0.949 . S
C584 C588 1.368 . S
C585 C566 1.429 . S
C585 C579 1.429 . S
C585 C586 1.523 . S
C586 C567 1.368 . S
C586 C580 1.368 . S
C586 C585 1.523 . S
C587 C571 1.429 . S
C587 C583 1.429 . S
C587 C588 1.523 . S
C588 C572 1.368 . S
C588 C584 1.368 . S
C588 C587 1.523 . S
H589 C564 0.950 . S
H590 C566 0.950 . S
H591 C567 0.949 . S
H592 C569 0.950 . S
H593 C571 0.950 . S
C594 C595 1.349 . S
C594 C596 1.327 . S
C594 H619 0.950 1_455 S
C595 C594 1.349 . S
C595 C611 1.349 . S
C596 C594 1.327 . S
C596 C615 1.429 . S
C596 H620 0.950 1_455 S
C597 C614 1.574 . S
C597 C616 1.368 . S
C597 H621 0.949 . S
H598 C602 0.949 1_655 S
C599 C600 1.349 . S
C599 C601 1.327 . S
C599 H622 0.950 . S
C600 C599 1.349 . S
C600 C612 1.349 . S
C601 C599 1.327 . S
C601 C617 1.429 . S
C601 H623 0.950 . S
C602 H598 0.949 1_455 S
C602 C610 1.574 1_556 S
C602 C618 1.368 . S
H603 C611 0.950 . S
H604 C609 0.950 . S
H605 C610 0.949 1_655 S
H606 C612 0.950 . S
H607 C613 0.950 1_655 S
H608 C614 0.949 1_556 S
C609 H604 0.950 . S
C609 C611 1.327 . S
C609 C615 1.429 . S
C610 C602 1.574 1_554 S
C610 H605 0.949 1_455 S
C610 C616 1.368 . S
C611 C595 1.349 . S
C611 H603 0.950 . S
C611 C609 1.327 . S
C612 C600 1.349 . S
C612 H606 0.950 . S
C612 C613 1.327 . S
C613 H607 0.950 1_455 S
C613 C612 1.327 . S
C613 C617 1.429 . S
C614 C597 1.574 . S
C614 H608 0.949 1_554 S
C614 C618 1.368 1_554 S
C615 C596 1.429 . S
C615 C609 1.429 . S
C615 C616 1.523 . S
C616 C597 1.368 . S
C616 C610 1.368 . S
C616 C615 1.523 . S
C617 C601 1.429 . S
C617 C613 1.429 . S
C617 C618 1.523 . S
C618 C602 1.368 . S
C618 C614 1.368 1_556 S
C618 C617 1.523 . S
H619 C594 0.950 1_655 S
H620 C596 0.950 1_655 S
H621 C597 0.949 . S
H622 C599 0.950 . S
H623 C601 0.950 . S
C624 C625 1.349 . S
C624 C626 1.327 . S
C624 H649 0.950 . S
C625 C624 1.349 . S
C625 C641 1.349 . S
C626 C624 1.327 . S
C626 C645 1.429 . S
C626 H650 0.950 . S
C627 C644 1.574 . S
C627 C646 1.368 . S
C627 H651 0.949 . S
H628 C632 0.949 . S
C629 C630 1.349 . S
C629 C631 1.327 . S
C629 H652 0.950 . S
C630 C629 1.349 . S
C630 C642 1.349 . S
C631 C629 1.327 . S
C631 C647 1.429 . S
C631 H653 0.950 . S
C632 H628 0.949 . S
C632 C640 1.574 . S
C632 C648 1.368 . S
H633 C641 0.950 . S
H634 C639 0.950 . S
H635 C640 0.949 . S
H636 C642 0.950 . S
H637 C643 0.950 . S
H638 C644 0.949 . S
C639 H634 0.950 . S
C639 C641 1.327 . S
C639 C645 1.429 . S
C640 C632 1.574 . S
C640 H635 0.949 . S
C640 C646 1.368 . S
C641 C625 1.349 . S
C641 H633 0.950 . S
C641 C639 1.327 . S
C642 C630 1.349 . S
C642 H636 0.950 . S
C642 C643 1.327 . S
C643 H637 0.950 . S
C643 C642 1.327 . S
C643 C647 1.429 . S
C644 C627 1.574 . S
C644 H638 0.949 . S
C644 C648 1.368 . S
C645 C626 1.429 . S
C645 C639 1.429 . S
C645 C646 1.523 . S
C646 C627 1.368 . S
C646 C640 1.368 . S
C646 C645 1.523 . S
C647 C631 1.429 . S
C647 C643 1.429 . S
C647 C648 1.523 . S
C648 C632 1.368 . S
C648 C644 1.368 . S
C648 C647 1.523 . S
H649 C624 0.950 . S
H650 C626 0.950 . S
H651 C627 0.949 . S
H652 C629 0.950 . S
H653 C631 0.950 . S
C654 C655 1.349 . S
C654 C656 1.327 . S
C654 H679 0.950 . S
C655 C654 1.349 . S
C655 C671 1.349 . S
C656 C654 1.327 . S
C656 C675 1.429 . S
C656 H680 0.950 . S
C657 C674 1.574 . S
C657 C676 1.368 . S
C657 H681 0.949 . S
H658 C662 0.949 . S
C659 C660 1.349 . S
C659 C661 1.327 . S
C659 H682 0.950 . S
C660 C659 1.349 . S
C660 C672 1.349 . S
C661 C659 1.327 . S
C661 C677 1.429 . S
C661 H683 0.950 . S
C662 H658 0.949 . S
C662 C670 1.574 . S
C662 C678 1.368 . S
H663 C671 0.950 . S
H664 C669 0.950 . S
H665 C670 0.949 . S
H666 C672 0.950 . S
H667 C673 0.950 . S
H668 C674 0.949 . S
C669 H664 0.950 . S
C669 C671 1.327 . S
C669 C675 1.429 . S
C670 C662 1.574 . S
C670 H665 0.949 . S
C670 C676 1.368 . S
C671 C655 1.349 . S
C671 H663 0.950 . S
C671 C669 1.327 . S
C672 C660 1.349 . S
C672 H666 0.950 . S
C672 C673 1.327 . S
C673 H667 0.950 . S
C673 C672 1.327 . S
C673 C677 1.429 . S
C674 C657 1.574 . S
C674 H668 0.949 . S
C674 C678 1.368 . S
C675 C656 1.429 . S
C675 C669 1.429 . S
C675 C676 1.523 . S
C676 C657 1.368 . S
C676 C670 1.368 . S
C676 C675 1.523 . S
C677 C661 1.429 . S
C677 C673 1.429 . S
C677 C678 1.523 . S
C678 C662 1.368 . S
C678 C674 1.368 . S
C678 C677 1.523 . S
H679 C654 0.950 . S
H680 C656 0.950 . S
H681 C657 0.949 . S
H682 C659 0.950 . S
H683 C661 0.950 . S
C684 C685 1.349 . S
C684 C686 1.327 . S
C684 H709 0.950 . S
C685 C684 1.349 . S
C685 C701 1.349 . S
C686 C684 1.327 . S
C686 C705 1.429 . S
C686 H710 0.950 . S
C687 C704 1.574 . S
C687 C706 1.368 . S
C687 H711 0.949 . S
H688 C692 0.949 . S
C689 C690 1.349 . S
C689 C691 1.327 . S
C689 H712 0.950 . S
C690 C689 1.349 . S
C690 C702 1.349 . S
C691 C689 1.327 . S
C691 C707 1.429 . S
C691 H713 0.950 . S
C692 H688 0.949 . S
C692 C700 1.574 . S
C692 C708 1.368 . S
H693 C701 0.950 . S
H694 C699 0.950 . S
H695 C700 0.949 . S
H696 C702 0.950 . S
H697 C703 0.950 . S
H698 C704 0.949 . S
C699 H694 0.950 . S
C699 C701 1.327 . S
C699 C705 1.429 . S
C700 C692 1.574 . S
C700 H695 0.949 . S
C700 C706 1.368 . S
C701 C685 1.349 . S
C701 H693 0.950 . S
C701 C699 1.327 . S
C702 C690 1.349 . S
C702 H696 0.950 . S
C702 C703 1.327 . S
C703 H697 0.950 . S
C703 C702 1.327 . S
C703 C707 1.429 . S
C704 C687 1.574 . S
C704 H698 0.949 . S
C704 C708 1.368 . S
C705 C686 1.429 . S
C705 C699 1.429 . S
C705 C706 1.523 . S
C706 C687 1.368 . S
C706 C700 1.368 . S
C706 C705 1.523 . S
C707 C691 1.429 . S
C707 C703 1.429 . S
C707 C708 1.523 . S
C708 C692 1.368 . S
C708 C704 1.368 . S
C708 C707 1.523 . S
H709 C684 0.950 . S
H710 C686 0.950 . S
H711 C687 0.949 . S
H712 C689 0.950 . S
H713 C691 0.950 . S
C714 C715 1.349 . S
C714 C716 1.327 . S
C714 H739 0.950 . S
C715 C714 1.349 . S
C715 C731 1.349 . S
C716 C714 1.327 . S
C716 C735 1.429 . S
C716 H740 0.950 . S
C717 C734 1.519 1_556 S
C717 C736 1.368 . S
C717 H741 0.949 . S
H718 C722 0.981 . S
C719 C720 1.349 . S
C719 C721 1.327 . S
C719 H742 0.950 . S
C720 C719 1.349 . S
C720 C732 1.349 . S
C721 C719 1.327 . S
C721 C737 1.429 . S
C721 H743 0.950 . S
C722 H718 0.981 . S
C722 C730 1.524 1_554 S
C722 C738 1.384 . S
H723 C731 0.950 . S
H724 C729 0.950 . S
H725 C730 0.949 . S
H726 C732 0.950 . S
H727 C733 0.950 . S
H728 C734 0.976 . S
C729 H724 0.950 . S
C729 C731 1.327 . S
C729 C735 1.429 . S
C730 C722 1.524 1_556 S
C730 H725 0.949 . S
C730 C736 1.368 . S
C731 C715 1.349 . S
C731 H723 0.950 . S
C731 C729 1.327 . S
C732 C720 1.349 . S
C732 H726 0.950 . S
C732 C733 1.327 . S
C733 H727 0.950 . S
C733 C732 1.327 . S
C733 C737 1.429 . S
C734 C717 1.519 1_554 S
C734 H728 0.976 . S
C734 C738 1.395 . S
C735 C716 1.429 . S
C735 C729 1.429 . S
C735 C736 1.523 . S
C736 C717 1.368 . S
C736 C730 1.368 . S
C736 C735 1.523 . S
C737 C721 1.429 . S
C737 C733 1.429 . S
C737 C738 1.523 . S
C738 C722 1.384 . S
C738 C734 1.395 . S
C738 C737 1.523 . S
H739 C714 0.950 . S
H740 C716 0.950 . S
H741 C717 0.949 . S
H742 C719 0.950 . S
H743 C721 0.950 . S
C744 C745 1.349 . S
C744 C746 1.327 . S
C744 H769 0.950 . S
C745 C744 1.349 . S
C745 C761 1.349 . S
C746 C744 1.327 . S
C746 C765 1.429 . S
C746 H770 0.950 . S
C747 C764 1.574 . S
C747 C766 1.368 . S
C747 H771 0.949 . S
H748 C752 0.949 . S
C749 C750 1.349 . S
C749 C751 1.327 . S
C749 H772 0.950 . S
C750 C749 1.349 . S
C750 C762 1.349 . S
C751 C749 1.327 . S
C751 C767 1.429 . S
C751 H773 0.950 . S
C752 H748 0.949 . S
C752 C760 1.574 . S
C752 C768 1.368 . S
H753 C761 0.950 . S
H754 C759 0.950 . S
H755 C760 0.949 . S
H756 C762 0.950 . S
H757 C763 0.950 . S
H758 C764 0.949 . S
C759 H754 0.950 . S
C759 C761 1.327 . S
C759 C765 1.429 . S
C760 C752 1.574 . S
C760 H755 0.949 . S
C760 C766 1.368 . S
C761 C745 1.349 . S
C761 H753 0.950 . S
C761 C759 1.327 . S
C762 C750 1.349 . S
C762 H756 0.950 . S
C762 C763 1.327 . S
C763 H757 0.950 . S
C763 C762 1.327 . S
C763 C767 1.429 . S
C764 C747 1.574 . S
C764 H758 0.949 . S
C764 C768 1.368 . S
C765 C746 1.429 . S
C765 C759 1.429 . S
C765 C766 1.523 . S
C766 C747 1.368 . S
C766 C760 1.368 . S
C766 C765 1.523 . S
C767 C751 1.429 . S
C767 C763 1.429 . S
C767 C768 1.523 . S
C768 C752 1.368 . S
C768 C764 1.368 . S
C768 C767 1.523 . S
H769 C744 0.950 . S
H770 C746 0.950 . S
H771 C747 0.949 . S
H772 C749 0.950 . S
H773 C751 0.950 . S
C235 C6 0.605 . S
C240 C226 0.650 . S
C265 C59 1.983 . S
C270 C188 1.922 . S
C295 C86 1.264 . S
C300 C207 1.212 . S
C325 C15 0.171 . S
C330 C221 0.211 . S
C360 C183 1.837 . S
C355 C50 1.855 . S
C390 C202 1.073 . S
C385 C95 1.086 . S
C415 C46 1.319 . S
C420 C150 1.248 . S
C445 C99 3.029 . S
C450 C164 3.006 1_655 S
C475 C10 1.862 . S
C480 C126 1.854 1_565 S
C510 C145 1.059 . S
C505 C55 1.070 . S
C540 C169 3.045 . S
C535 C90 3.092 . S
C565 C19 1.987 . S
C570 C131 1.934 . S
C600 C160 1.713 . S
C595 C18 1.692 . S
C625 C49 1.472 . S
C630 C122 1.541 . S
C655 C98 1.558 . S
C660 C141 1.578 . S
C690 C198 1.572 . S
C685 C58 1.572 . S
C720 C217 1.399 . S
C715 C89 1.367 . S
C745 C9 1.445 . S
C750 C179 1.498 . S
