# Generated by pormake.
# Topology pyr, (3,6)-cn, num edge types: 1
# Building blocks:
#     Node 0, Type 0, BuildingBlock: CUQRIR_clean_linker_1, # of connection points: 3
#     Node 1, Type 0, BuildingBlock: CUQRIR_clean_linker_1, # of connection points: 3
#     Node 2, Type 0, BuildingBlock: CUQRIR_clean_linker_1, # of connection points: 3
#     Node 3, Type 0, BuildingBlock: CUQRIR_clean_linker_1, # of connection points: 3
#     Node 4, Type 0, BuildingBlock: CUQRIR_clean_linker_1, # of connection points: 3
#     Node 5, Type 0, BuildingBlock: CUQRIR_clean_linker_1, # of connection points: 3
#     Node 6, Type 0, BuildingBlock: CUQRIR_clean_linker_1, # of connection points: 3
#     Node 7, Type 0, BuildingBlock: CUQRIR_clean_linker_1, # of connection points: 3
#     Node 8, Type 1, BuildingBlock: BETGAK_clean_sbu_0, # of connection points: 6
#     Node 9, Type 1, BuildingBlock: BETGAK_clean_sbu_0, # of connection points: 6
#     Node 10, Type 1, BuildingBlock: BETGAK_clean_sbu_0, # of connection points: 6
#     Node 11, Type 1, BuildingBlock: BETGAK_clean_sbu_0, # of connection points: 6
#     Edge 12, Type (0, 1), BuildingBlock: EZIPEK_clean_linker_0, # of connection points: 2
#     Edge 13, Type (0, 1), BuildingBlock: EZIPEK_clean_linker_0, # of connection points: 2
#     Edge 14, Type (0, 1), BuildingBlock: EZIPEK_clean_linker_0, # of connection points: 2
#     Edge 15, Type (0, 1), BuildingBlock: EZIPEK_clean_linker_0, # of connection points: 2
#     Edge 16, Type (0, 1), BuildingBlock: EZIPEK_clean_linker_0, # of connection points: 2
#     Edge 17, Type (0, 1), BuildingBlock: EZIPEK_clean_linker_0, # of connection points: 2
#     Edge 18, Type (0, 1), BuildingBlock: EZIPEK_clean_linker_0, # of connection points: 2
#     Edge 19, Type (0, 1), BuildingBlock: EZIPEK_clean_linker_0, # of connection points: 2
#     Edge 20, Type (0, 1), BuildingBlock: EZIPEK_clean_linker_0, # of connection points: 2
#     Edge 21, Type (0, 1), BuildingBlock: EZIPEK_clean_linker_0, # of connection points: 2
#     Edge 22, Type (0, 1), BuildingBlock: EZIPEK_clean_linker_0, # of connection points: 2
#     Edge 23, Type (0, 1), BuildingBlock: EZIPEK_clean_linker_0, # of connection points: 2
#     Edge 24, Type (0, 1), BuildingBlock: EZIPEK_clean_linker_0, # of connection points: 2
#     Edge 25, Type (0, 1), BuildingBlock: EZIPEK_clean_linker_0, # of connection points: 2
#     Edge 26, Type (0, 1), BuildingBlock: EZIPEK_clean_linker_0, # of connection points: 2
#     Edge 27, Type (0, 1), BuildingBlock: EZIPEK_clean_linker_0, # of connection points: 2
#     Edge 28, Type (0, 1), BuildingBlock: EZIPEK_clean_linker_0, # of connection points: 2
#     Edge 29, Type (0, 1), BuildingBlock: EZIPEK_clean_linker_0, # of connection points: 2
#     Edge 30, Type (0, 1), BuildingBlock: EZIPEK_clean_linker_0, # of connection points: 2
#     Edge 31, Type (0, 1), BuildingBlock: EZIPEK_clean_linker_0, # of connection points: 2
#     Edge 32, Type (0, 1), BuildingBlock: EZIPEK_clean_linker_0, # of connection points: 2
#     Edge 33, Type (0, 1), BuildingBlock: EZIPEK_clean_linker_0, # of connection points: 2
#     Edge 34, Type (0, 1), BuildingBlock: EZIPEK_clean_linker_0, # of connection points: 2
#     Edge 35, Type (0, 1), BuildingBlock: EZIPEK_clean_linker_0, # of connection points: 2
# Relax obj value: 0.310
# Max RMSD: 0.275
# Mean RMSD: 0.177
data_MOF--net-pyr--node1-BETGAK_clean_sbu_0--node2-CUQRIR_clean_linker_1--edge1-EZIPEK_clean_linker_0
_symmetry_space_group_name_H-M    P1
_symmetry_Int_Tables_number       1
_symmetry_cell_setting            triclinic
loop_
_symmetry_equiv_pos_as_xyz
'x, y, z'
_cell_length_a     24.880223
_cell_length_b     26.345719
_cell_length_c     23.98821
_cell_angle_alpha  89.80224
_cell_angle_beta   90.122356
_cell_angle_gamma 108.45837
loop_
_atom_site_label
_atom_site_type_symbol
_atom_site_fract_x
_atom_site_fract_y
_atom_site_fract_z
_atom_type_partial_charge
C0 C 0.38232 0.39934 0.32503 0.0
N1 N 0.41928 0.37144 0.3222 0.0
N2 N 0.38929 0.43341 0.28145 0.0
C3 C 0.33499 0.38873 0.36685 0.0
C4 C 0.43356 0.42637 0.25298 0.0
N5 N 0.45074 0.38701 0.27673 0.0
C6 C 0.45836 0.45714 0.20123 0.0
H7 H 0.30857 0.34605 0.36459 0.0
H8 H 0.30794 0.4145 0.35996 0.0
H9 H 0.35314 0.39647 0.40936 0.0
H10 H 0.47262 0.50056 0.2107 0.0
H11 H 0.42521 0.45038 0.16855 0.0
H12 H 0.4948 0.44575 0.18539 0.0
C13 C 0.40558 1.07469 0.59886 0.0
N14 N 0.3705 1.08206 0.63878 0.0
N15 N 0.44234 1.05168 0.62094 0.0
C16 C 0.40185 1.08765 0.53819 0.0
C17 C 0.42909 1.04646 0.67591 0.0
N18 N 0.38502 1.06431 0.68658 0.0
C19 C 0.45657 1.02071 0.71873 0.0
H20 H 0.43602 1.07971 0.51357 0.0
H21 H 0.40471 0.13036 0.53366 0.0
H22 H 0.35996 1.06347 0.5215 0.0
H23 H 0.45019 1.03335 0.76159 0.0
H24 H 0.50258 1.03041 0.71114 0.0
H25 H 0.43688 0.97669 0.7161 0.0
C26 C 0.63315 0.44263 0.91022 0.0
N27 N 0.66749 0.43551 0.95263 0.0
N28 N 0.65409 0.49171 0.88529 0.0
C29 C 0.57882 0.40137 0.89262 0.0
C30 C 0.70243 0.51479 0.9147 0.0
N31 N 0.71064 0.48194 0.95608 0.0
C32 C 0.7411 0.57076 0.90376 0.0
H33 H 0.58763 0.37808 0.85734 0.0
H34 H 0.54777 0.42079 0.87799 0.0
H35 H 0.56012 0.37348 0.92735 0.0
H36 H 0.74232 0.58054 0.85871 0.0
H37 H 0.78484 0.57608 0.91848 0.0
H38 H 0.72458 0.59955 0.92604 0.0
C39 C 0.86801 0.75981 0.41931 0.0
N40 N 0.91425 0.79812 0.39694 0.0
N41 N 0.83562 0.78116 0.45153 0.0
C42 C 0.85373 0.70082 0.40849 0.0
C43 C 0.86326 0.8343 0.44812 0.0
N44 N 0.91197 0.84582 0.41733 0.0
C45 C 0.84353 0.87575 0.47765 0.0
H46 H 0.83574 0.69188 0.36593 0.0
H47 H 0.82238 0.67685 0.43903 0.0
H48 H 0.89265 0.68891 0.4105 0.0
H49 H 0.86786 0.88767 0.51692 0.0
H50 H 0.79778 0.86017 0.48795 0.0
H51 H 0.8508 0.91191 0.45127 0.0
C52 C 0.65789 0.88611 0.95412 0.0
N53 N 0.68246 0.8677 0.91178 0.0
N54 N 0.62987 0.91946 0.93446 0.0
C55 C 0.6767 0.88412 1.01428 0.0
C56 C 0.64827 0.92778 0.88052 0.0
N57 N 0.67284 0.89047 0.86461 0.0
C58 C 0.66984 0.9848 0.85812 0.0
H59 H 0.64747 0.8488 1.0357 0.0
H60 H 0.67981 0.92133 1.03716 0.0
H61 H 0.71934 0.8796 1.01757 0.0
H62 H 0.6766 1.01439 0.89231 0.0
H63 H 0.6397 0.99292 0.82809 0.0
H64 H 0.71177 0.9934 0.83789 0.0
C65 C 0.8786 0.3776 0.59544 0.0
N66 N 0.88922 0.34267 0.559 0.0
N67 N 0.84835 0.40591 0.57011 0.0
C68 C 0.90011 0.38575 0.6543 0.0
C69 C 0.84287 0.38837 0.51684 0.0
N70 N 0.86862 0.35107 0.50998 0.0
C71 C 0.80898 0.4051 0.47229 0.0
H72 H 0.88922 0.3469 0.67663 0.0
H73 H 0.88285 0.41373 0.67709 0.0
H74 H 0.94696 0.40268 0.6534 0.0
H75 H 0.83375 0.44531 0.45647 0.0
H76 H 0.7687 0.40769 0.48982 0.0
H77 H 0.79906 0.37683 0.43675 0.0
C78 C 0.37791 0.77754 0.31444 0.0
N79 N 0.42352 0.81681 0.33577 0.0
N80 N 0.34406 0.79789 0.28347 0.0
C81 C 0.36392 0.71887 0.32737 0.0
C82 C 0.36973 0.85117 0.28639 0.0
N83 N 0.4193 0.86395 0.31591 0.0
C84 C 0.34804 0.89101 0.25593 0.0
H85 H 0.40319 0.70754 0.32978 0.0
H86 H 0.33513 0.69413 0.29546 0.0
H87 H 0.3423 0.71034 0.36836 0.0
H88 H 0.30117 0.8789 0.25796 0.0
H89 H 0.36007 0.89197 0.21132 0.0
H90 H 0.36576 0.93176 0.27361 0.0
C91 C 0.13673 0.45891 0.82808 0.0
N92 N 0.16996 0.45327 0.78395 0.0
N93 N 0.157 0.50792 0.85366 0.0
C94 C 0.08395 0.41612 0.84643 0.0
C95 C 0.20466 0.53192 0.82306 0.0
N96 N 0.21326 0.49975 0.78128 0.0
C97 C 0.24345 0.58768 0.83374 0.0
H98 H 0.0735 0.42224 0.89032 0.0
H99 H 0.08905 0.37599 0.84186 0.0
H100 H 1.04818 0.41765 0.81952 0.0
H101 H 0.22642 0.60835 0.8661 0.0
H102 H 0.24997 0.61134 0.79456 0.0
H103 H 0.2854 0.58573 0.84736 0.0
La104 La 0.08651 0.17424 0.55056 0.0
La105 La 1.04669 0.12389 0.63752 0.0
C106 C 0.14814 0.22 0.47137 0.0
C107 C 0.20872 0.2264 0.46451 0.0
C108 C 0.22741 0.18159 0.45761 0.0
C109 C 0.28513 0.18777 0.45455 0.0
C110 C 0.32555 0.23886 0.45783 0.0
C111 C 0.3063 0.28298 0.46873 0.0
C112 C 0.24877 0.27687 0.47119 0.0
C113 C 0.1569 0.10935 0.59082 0.0
C114 C 0.10132 0.24901 0.65238 0.0
C115 C 1.01585 1.05822 0.7172 0.0
C116 C 0.96226 1.01493 0.72663 0.0
C117 C 0.93076 1.01688 0.7744 0.0
C118 C 0.8757 0.98231 0.78003 0.0
C119 C 0.85153 0.94461 0.73856 0.0
C120 C 0.88345 0.94075 0.69171 0.0
C121 C 0.93868 0.97581 0.68572 0.0
C122 C 0.97265 0.16849 0.59737 0.0
C123 C 1.02239 1.05348 0.52424 0.0
O124 O 0.11391 0.17107 0.46857 0.0
O125 O 0.13537 0.24625 0.51275 0.0
O126 O 0.13617 0.1452 0.60825 0.0
O127 O 0.13537 0.14534 0.60732 0.0
O128 O 0.08678 0.24639 0.59893 0.0
O129 O 0.09752 0.20239 0.67662 0.0
O130 O 1.01186 0.10626 0.71777 0.0
O131 O 1.04722 1.05223 0.67603 0.0
O132 O 0.98561 0.16637 0.64899 0.0
O133 O 0.99925 0.14467 0.56873 0.0
O134 O 1.01745 1.05321 0.57939 0.0
O135 O 1.04621 0.10072 0.50081 0.0
H136 H 0.19757 0.14158 0.45451 0.0
H137 H 0.29775 0.1526 0.4481 0.0
H138 H 0.33529 0.32314 0.47281 0.0
H139 H 0.2356 0.31179 0.47826 0.0
H140 H 0.94779 1.0469 0.80612 0.0
H141 H 0.85108 0.98627 0.8159 0.0
H142 H 0.86508 0.91196 0.65924 0.0
H143 H 0.96194 0.97342 0.64827 0.0
La144 La 0.61362 0.15502 0.1663 0.0
La145 La 0.51177 0.14456 0.11385 0.0
C146 C 0.71667 0.16865 0.18781 0.0
C147 C 0.7637 0.20758 0.21578 0.0
C148 C 0.75472 0.25122 0.24268 0.0
C149 C 0.79208 0.27788 0.28407 0.0
C150 C 0.83839 0.26099 0.29859 0.0
C151 C 0.8515 0.22215 0.26656 0.0
C152 C 0.81368 0.19503 0.22536 0.0
C153 C 0.53029 1.07556 0.21653 0.0
C154 C 0.5434 0.22418 0.21164 0.0
C155 C 0.41086 0.12815 0.08055 0.0
C156 C 0.38397 0.10812 1.02689 0.0
C157 C 0.33906 0.12446 1.00652 0.0
C158 C 0.32157 0.11458 0.95086 0.0
C159 C 0.35014 1.08969 0.91508 0.0
C160 C 0.39217 1.07019 0.93669 0.0
C161 C 0.4087 1.07904 0.99212 0.0
C162 C 0.59925 0.22332 1.06491 0.0
C163 C 0.57805 1.07752 1.06184 0.0
O164 O 0.67469 0.14407 0.22061 0.0
O165 O 0.69905 0.18358 0.1412 0.0
O166 O 0.57095 0.11231 0.24084 0.0
O167 O 0.53691 1.0862 0.16429 0.0
O168 O 0.59593 0.22415 0.20387 0.0
O169 O 0.5018 0.1847 0.19064 0.0
O170 O 0.45062 0.17407 0.07739 0.0
O171 O 0.42689 1.0944 0.11101 0.0
O172 O 0.55831 0.18729 1.03996 0.0
O173 O 0.58999 0.21285 0.11647 0.0
O174 O 0.52813 1.08353 1.06453 0.0
O175 O 0.6194 0.10511 0.09459 0.0
H176 H 0.71624 0.26124 0.23552 0.0
H177 H 0.78184 0.30816 0.30844 0.0
H178 H 0.88726 0.209 0.27745 0.0
H179 H 0.82085 0.16125 0.20466 0.0
H180 H 0.31955 0.14708 1.03275 0.0
H181 H 0.28856 0.12934 0.93485 0.0
H182 H 0.41424 1.05034 0.90983 0.0
H183 H 0.44286 1.06548 1.00673 0.0
La184 La 0.51077 0.60537 0.58214 0.0
La185 La 0.53512 0.68974 0.64923 0.0
C186 C 0.52597 0.52737 0.53107 0.0
C187 C 0.58151 0.51863 0.53033 0.0
C188 C 0.58725 0.46854 0.519 0.0
C189 C 0.6388 0.4595 0.52951 0.0
C190 C 0.68456 0.50009 0.55287 0.0
C191 C 0.67932 0.55055 0.56216 0.0
C192 C 0.62856 0.55973 0.55025 0.0
C193 C 0.41609 0.59753 0.64068 0.0
C194 C 0.56438 0.59762 0.704 0.0
C195 C 0.54057 0.77297 0.70235 0.0
C196 C 0.55446 0.82762 0.68106 0.0
C197 C 0.58929 0.84363 0.63373 0.0
C198 C 0.59243 0.89122 0.60603 0.0
C199 C 0.5606 0.92277 0.62547 0.0
C200 C 0.52912 0.90846 0.67489 0.0
C201 C 0.52566 0.86094 0.70227 0.0
C202 C 0.62762 0.69366 0.58734 0.0
C203 C 0.48785 0.70652 0.52718 0.0
O204 O 0.50332 0.52338 0.58029 0.0
O205 O 0.52386 0.57058 0.50624 0.0
O206 O 0.41849 0.58713 0.58818 0.0
O207 O 0.46705 0.61347 0.65888 0.0
O208 O 0.56458 0.58557 0.65014 0.0
O209 O 0.54473 0.63691 0.71623 0.0
O210 O 0.58168 0.75224 0.70106 0.0
O211 O 0.4931 0.74008 0.68312 0.0
O212 O 0.62631 0.69939 0.64063 0.0
O213 O 0.5765 0.68159 0.5716 0.0
O214 O 0.49938 0.72518 0.57862 0.0
O215 O 0.49142 0.65814 0.51682 0.0
H216 H 0.55172 0.43583 0.50478 0.0
H217 H 0.64205 0.41998 0.52242 0.0
H218 H 0.71373 0.58219 0.58068 0.0
H219 H 0.62493 0.59815 0.56018 0.0
H220 H 0.6111 0.81775 0.61615 0.0
H221 H 0.61628 0.90142 0.56761 0.0
H222 H 0.50402 0.93232 0.69012 0.0
H223 H 0.49828 0.84895 0.73829 0.0
La224 La 1.01997 0.60696 0.16228 0.0
La225 La 1.03078 0.68583 0.08668 0.0
C226 C 1.0413 0.53713 0.22285 0.0
C227 C 0.09427 0.52348 0.22735 0.0
C228 C 0.11791 0.52034 0.2799 0.0
C229 C 0.17017 0.51115 0.28424 0.0
C230 C 0.19958 0.50534 0.23604 0.0
C231 C 0.17646 0.50926 0.18349 0.0
C232 C 0.12413 0.51804 0.17918 0.0
C233 C 0.97743 0.68272 0.20688 0.0
C234 C 0.13659 0.69939 0.15895 0.0
C235 C 1.0155 0.76027 1.02855 0.0
C236 C 0.96504 0.7716 1.00647 0.0
C237 C 0.94083 0.75067 0.95499 0.0
C238 C 0.89279 0.76161 0.93505 0.0
C239 C 0.8686 0.79359 0.96638 0.0
C240 C 0.89258 0.81451 1.01753 0.0
C241 C 0.9405 0.80381 1.03735 0.0
C242 C 0.07993 0.61597 1.04343 0.0
C243 C 0.91505 0.58644 0.08626 0.0
O244 O 1.04462 0.58469 0.24027 0.0
O245 O 1.01424 0.52642 0.17551 0.0
O246 O 0.95573 0.63107 0.21102 0.0
O247 O 1.02175 0.68963 0.17698 0.0
O248 O 0.11222 0.6476 0.16556 0.0
O249 O 0.10944 0.72679 0.13113 0.0
O250 O 1.02767 0.7197 1.00753 0.0
O251 O 1.02097 0.7618 0.08259 0.0
O252 O 0.0995 0.66776 1.04114 0.0
O253 O 1.03359 0.60482 1.07164 0.0
O254 O 0.93994 0.63755 0.07359 0.0
O255 O 0.94064 0.56285 0.12093 0.0
H256 H 0.09597 0.52507 0.31753 0.0
H257 H 0.18721 0.50755 0.32513 0.0
H258 H 0.19827 0.50413 0.14593 0.0
H259 H 0.10693 0.52044 0.13815 0.0
H260 H 0.95905 0.72606 0.93007 0.0
H261 H 0.87488 0.74579 0.89511 0.0
H262 H 0.87452 0.83971 1.0418 0.0
H263 H 0.95836 0.8209 0.07688 0.0
C264 C 0.39553 0.27421 0.34177 0.0
C265 C 0.4196 0.32821 0.35896 0.0
C266 C 0.42418 0.29705 0.45435 0.0
C267 C 0.38492 0.24811 0.43817 0.0
N268 N 0.37944 0.18172 0.36857 0.0
N269 N 0.46097 0.39144 0.4316 0.0
C270 C 0.38777 0.23366 0.3823 0.0
C271 C 0.4378 0.33971 0.41504 0.0
N272 N 0.37406 0.26195 0.28955 0.0
N273 N 0.44125 0.30377 0.50846 0.0
H274 H 0.47195 0.42326 0.40335 0.0
H275 H 0.46387 0.40251 0.47335 0.0
H276 H 0.42707 0.27227 0.53698 0.0
H277 H 0.47149 0.33832 0.52314 0.0
H278 H 0.35252 0.22289 0.27712 0.0
H279 H 0.37246 0.29133 0.26124 0.0
H280 H 0.38313 0.16968 0.32776 0.0
H281 H 0.3751 0.15262 0.39942 0.0
C282 C 0.33013 1.02931 0.77254 0.0
C283 C 0.36535 1.07291 0.74119 0.0
C284 C 0.37185 0.1322 0.82126 0.0
C285 C 0.34151 1.08734 0.85385 0.0
N286 N 0.2845 0.9947 0.8593 0.0
N287 N 0.42932 0.16293 0.7391 0.0
C288 C 0.31762 1.03674 0.82869 0.0
C289 C 0.38774 0.12401 0.76603 0.0
N290 N 0.31143 0.97899 0.75133 0.0
N291 N 0.38698 0.18238 0.84364 0.0
H292 H 0.4459 0.15641 0.70095 0.0
H293 H 0.45183 0.19946 0.75692 0.0
H294 H 0.37763 0.18974 0.88452 0.0
H295 H 0.40402 0.21713 0.82026 0.0
H296 H 0.3219 0.96899 0.71173 0.0
H297 H 0.3219 0.96899 0.71173 0.0
H298 H 0.26689 0.95643 0.84264 0.0
H299 H 0.27347 0.99897 0.90059 0.0
C300 C 0.58382 0.53508 0.84885 0.0
C301 C 0.63007 0.51563 0.83931 0.0
C302 C 0.63754 0.5542 0.74339 0.0
C303 C 0.587 0.56855 0.75056 0.0
N304 N 0.50696 0.56251 0.81067 0.0
N305 N 0.69623 0.50048 0.77433 0.0
C306 C 0.55895 0.55626 0.80358 0.0
C307 C 0.65513 0.52314 0.78538 0.0
N308 N 0.56456 0.53499 0.90209 0.0
N309 N 0.67139 0.57352 0.69837 0.0
H310 H 0.70962 0.47804 0.80405 0.0
H311 H 0.71386 0.50049 0.73504 0.0
H312 H 0.6631 0.59984 0.66967 0.0
H313 H 0.71099 0.56871 0.69291 0.0
H314 H 0.53567 0.55426 0.91372 0.0
H315 H 0.58139 0.51959 0.93557 0.0
H316 H 0.48168 0.54839 0.84552 0.0
H317 H 0.48625 0.57694 0.77981 0.0
C318 C 0.98618 0.7617 0.35002 0.0
C319 C 0.94197 0.78537 0.34534 0.0
C320 C 0.92993 0.75133 0.24596 0.0
C321 C 0.96892 0.72181 0.25333 0.0
N322 N 1.03073 0.69674 0.31729 0.0
N323 N 0.86794 0.79692 0.28751 0.0
C324 C 0.99631 0.72696 0.30671 0.0
C325 C 0.91353 0.77903 0.29244 0.0
N326 N 1.01917 0.7729 0.39659 0.0
N327 N 0.90823 0.75314 0.19394 0.0
H328 H 0.8559 0.81795 0.31932 0.0
H329 H 0.84026 0.78824 0.2537 0.0
H330 H 0.91814 0.73299 0.16005 0.0
H331 H 0.88445 0.77791 0.18332 0.0
H332 H 0.05548 0.76186 0.40204 0.0
H333 H 1.01319 0.79856 0.42714 0.0
H334 H 1.04687 0.69288 0.35658 0.0
H335 H 1.04065 0.67288 0.28703 0.0
C336 C 0.52859 0.34773 0.28688 0.0
C337 C 0.4858 0.35752 0.25327 0.0
C338 C 0.50059 0.2951 0.18472 0.0
C339 C 0.53131 0.27505 0.22445 0.0
N340 N 0.57658 0.28416 0.31433 0.0
N341 N 0.42614 0.33299 0.17088 0.0
C342 C 0.5468 0.30245 0.27567 0.0
C343 C 0.47119 0.33005 0.20184 0.0
N344 N 0.55135 0.3819 0.32947 0.0
N345 N 0.50004 0.28178 0.12988 0.0
H346 H 0.4004 0.3554 0.18177 0.0
H347 H 0.41019 0.308 0.13702 0.0
H348 H 0.52203 0.25747 0.11492 0.0
H349 H 0.48363 0.30024 0.09861 0.0
H350 H 0.5852 0.37938 0.35372 0.0
H351 H 0.53955 0.41601 0.33637 0.0
H352 H 0.58402 0.29924 0.35469 0.0
H353 H 0.59082 0.25157 0.30689 0.0
C354 C 0.31513 0.14368 0.62202 0.0
C355 C 0.3173 1.09114 0.62901 0.0
C356 C 0.21446 1.05541 0.62607 0.0
C357 C 0.21163 0.10666 0.6124 0.0
N358 N 0.26096 0.20046 0.59194 0.0
N359 N 0.27085 0.99638 0.6216 0.0
C360 C 0.26232 0.15149 0.60968 0.0
C361 C 0.26746 1.0468 0.62668 0.0
N362 N 0.36394 0.1858 0.62569 0.0
N363 N 0.16654 1.01518 0.64034 0.0
H364 H 0.30945 0.98904 0.61852 0.0
H365 H 0.23567 0.96287 0.61441 0.0
H366 H 0.12751 1.02149 0.64417 0.0
H367 H 0.16701 0.97806 0.65511 0.0
H368 H 0.36505 0.22553 0.62874 0.0
H369 H 0.40366 0.18056 0.6278 0.0
H370 H 0.29708 0.23258 0.58359 0.0
H371 H 0.22421 0.20896 0.58154 0.0
C372 C 0.7588 0.54159 1.03515 0.0
C373 C 0.75692 0.49908 0.99748 0.0
C374 C 0.85811 0.51204 1.02024 0.0
C375 C 0.85961 0.5543 1.05808 0.0
N376 N 0.8081 0.60229 0.10886 0.0
N377 N 0.80387 0.44145 0.95754 0.0
C378 C 0.80887 0.56688 1.06758 0.0
C379 C 0.80627 0.48329 0.99179 0.0
N380 N 0.71319 0.55978 1.03772 0.0
N381 N 0.90734 0.50145 1.00885 0.0
H382 H 0.76854 0.42316 0.93315 0.0
H383 H 0.83504 0.42296 0.95522 0.0
H384 H 0.94558 0.52075 1.02873 0.0
H385 H 0.91175 0.4759 0.97753 0.0
H386 H 0.71364 0.59482 1.05789 0.0
H387 H 0.67555 0.54154 1.01629 0.0
H388 H 0.77146 0.60938 0.12253 0.0
H389 H 0.84367 0.62158 0.13288 0.0
C390 C 0.78533 0.76129 0.54346 0.0
C391 C 0.78453 0.75487 0.48478 0.0
C392 C 0.6824 0.70366 0.49224 0.0
C393 C 0.68122 0.71626 0.55054 0.0
N394 N 0.73352 0.77669 0.62287 0.0
N395 N 0.72824 0.72917 0.4022 0.0
C396 C 0.73334 0.75025 0.57393 0.0
C397 C 0.73189 0.72853 0.45895 0.0
N398 N 0.83616 0.77878 0.57037 0.0
N399 N 0.63713 0.66711 0.4679 0.0
H400 H 0.76312 0.74742 0.37693 0.0
H401 H 0.68985 0.71614 0.38075 0.0
H402 H 0.5992 0.64988 0.48823 0.0
H403 H 0.63871 0.65145 0.42832 0.0
H404 H 0.83967 0.78002 0.6137 0.0
H405 H 0.8745 0.78644 0.54924 0.0
H406 H 0.76996 0.80433 0.63916 0.0
H407 H 0.69693 0.77873 0.64221 0.0
C408 C 0.35083 0.50854 0.26808 0.0
C409 C 0.34584 0.45405 0.26034 0.0
C410 C 0.24592 0.43397 0.23407 0.0
C411 C 0.25112 0.48875 0.24078 0.0
N412 N 0.31008 0.58009 0.2534 0.0
N413 N 0.29265 0.36668 0.22639 0.0
C414 C 0.30423 0.52676 0.25433 0.0
C415 C 0.29469 0.41756 0.23969 0.0
N416 N 0.39924 0.54202 0.29114 0.0
N417 N 0.19371 0.39706 0.2256 0.0
H418 H 0.3263 0.35223 0.23365 0.0
H419 H 0.2593 0.34001 0.20473 0.0
H420 H 0.15668 0.40717 0.22098 0.0
H421 H 0.18604 0.35589 0.22736 0.0
H422 H 0.40384 0.58097 0.30365 0.0
H423 H 0.43392 0.52937 0.30077 0.0
H424 H 0.34892 0.61005 0.25748 0.0
H425 H 0.27653 0.59446 0.24401 0.0
C426 C 0.65875 0.33692 0.95309 0.0
C427 C 0.65979 0.38417 0.98289 0.0
C428 C 0.64043 0.32831 1.06909 0.0
C429 C 0.62844 0.27947 1.03826 0.0
N430 N 0.63302 0.23965 0.94885 0.0
N431 N 0.64014 0.4205 1.0692 0.0
C432 C 0.63967 0.28475 0.97961 0.0
C433 C 0.64764 0.37854 1.04091 0.0
N434 N 0.67763 0.34214 0.89929 0.0
N435 N 0.64884 0.32797 0.12516 0.0
H436 H 0.64242 0.4563 1.04941 0.0
H437 H 0.62565 0.41745 0.1102 0.0
H438 H 0.65467 0.29512 0.14521 0.0
H439 H 0.66028 0.36255 0.14934 0.0
H440 H 0.68407 0.31116 0.87629 0.0
H441 H 0.6915 0.37896 0.87881 0.0
H442 H 0.63132 0.23877 0.90549 0.0
H443 H 0.62846 0.2025 0.96695 0.0
C444 C 0.95669 0.94526 0.4063 0.0
C445 C 0.9578 0.8964 0.43136 0.0
C446 C 1.01359 0.95294 0.50898 0.0
C447 C 1.00274 1.00023 0.48953 0.0
N448 N 0.9574 1.0375 0.41844 0.0
N449 N 0.98269 0.85579 0.51318 0.0
C450 C 0.97339 0.99545 0.43718 0.0
C451 C 0.98593 0.90123 0.48412 0.0
N452 N 0.93689 0.94288 0.35306 0.0
N453 N 0.0524 0.95735 0.55035 0.0
H454 H 0.96299 0.81772 0.49715 0.0
H455 H 0.99544 0.85604 0.55462 0.0
H456 H 0.07603 0.99425 0.56647 0.0
H457 H 0.06614 0.92569 0.56321 0.0
H458 H 0.93854 0.97652 0.32937 0.0
H459 H 0.92402 0.90685 0.33114 0.0
H460 H 0.93124 1.03528 0.384 0.0
H461 H 0.96559 1.07321 0.44033 0.0
C462 C 0.46144 0.97987 0.56652 0.0
C463 C 0.48165 1.03029 0.59337 0.0
C464 C 0.5738 1.01833 0.60765 0.0
C465 C 0.54998 0.96481 0.59072 0.0
N466 N 0.48436 0.90315 0.53046 0.0
N467 N 0.56182 0.10348 0.62453 0.0
C468 C 0.49867 0.94922 0.5607 0.0
C469 C 0.53983 1.05213 0.60676 0.0
N470 N 0.40569 0.95895 0.55226 0.0
N471 N 0.62752 1.03565 0.62832 0.0
H472 H 0.53823 0.12996 0.62589 0.0
H473 H 0.53823 0.12996 0.62589 0.0
H474 H 0.65304 1.01088 0.62878 0.0
H475 H 0.64601 1.07449 0.64322 0.0
H476 H 0.38711 0.91965 0.53906 0.0
H477 H 0.37715 0.98019 0.55598 0.0
H478 H 0.449 0.89122 0.50465 0.0
H479 H 0.51145 0.88008 0.52723 0.0
C480 C 0.69814 0.91941 0.76499 0.0
C481 C 0.69532 0.8836 0.80943 0.0
C482 C 0.77605 0.8627 0.77205 0.0
C483 C 0.79129 0.91268 0.74416 0.0
N484 N 0.76071 0.98146 0.70045 0.0
N485 N 0.69792 0.79367 0.81479 0.0
C486 C 0.74953 0.93798 0.73471 0.0
C487 C 0.72338 0.84561 0.80016 0.0
N488 N 0.6514 0.93242 0.75032 0.0
N489 N 0.81293 0.83405 0.77513 0.0
H490 H 0.65705 0.78149 0.83148 0.0
H491 H 0.71503 0.76331 0.80558 0.0
H492 H 0.85149 0.84574 0.75387 0.0
H493 H 0.80557 0.80012 0.80022 0.0
H494 H 0.64996 0.95596 0.71574 0.0
H495 H 0.61309 0.9155 0.77124 0.0
H496 H 0.73403 1.00486 0.69703 0.0
H497 H 0.7978 0.99452 0.67684 0.0
C498 C 0.9076 0.35172 0.41554 0.0
C499 C 0.8713 0.32386 0.45884 0.0
C500 C 0.83557 0.24556 0.39981 0.0
C501 C 0.86391 0.27637 0.35392 0.0
N502 N 0.93019 0.3563 0.31656 0.0
N503 N 0.79281 0.24938 0.48906 0.0
C504 C 0.90203 0.32852 0.3616 0.0
C505 C 0.83396 0.27163 0.45066 0.0
N506 N 0.94545 0.40104 0.42594 0.0
N507 N 0.80788 0.1921 0.39391 0.0
H508 H 0.78676 0.27042 0.52384 0.0
H509 H 0.76076 0.21318 0.48314 0.0
H510 H 0.80734 0.1718 0.35663 0.0
H511 H 0.79055 0.16705 0.42744 0.0
H512 H 0.97633 0.42213 0.39787 0.0
H513 H 0.94752 0.42009 0.46429 0.0
H514 H 0.95451 0.39648 0.31737 0.0
H515 H 0.92808 0.33858 0.27739 0.0
C516 C 0.49761 0.78715 0.38659 0.0
C517 C 0.44958 0.80548 0.3885 0.0
C518 C 0.42773 0.76166 0.4829 0.0
C519 C 0.4754 0.74243 0.48022 0.0
N520 N 0.56402 0.75117 0.435 0.0
N521 N 0.37272 0.81536 0.44255 0.0
C522 C 0.51258 0.75936 0.43348 0.0
C523 C 0.41648 0.79475 0.43852 0.0
N524 N 0.52798 0.79452 0.33836 0.0
N525 N 0.3915 0.74625 0.52703 0.0
H526 H 0.36327 0.83827 0.41078 0.0
H527 H 0.34847 0.81358 0.47815 0.0
H528 H 0.39836 0.72285 0.55968 0.0
H529 H 0.35322 0.754 0.5306 0.0
H530 H 0.55877 0.77649 0.33005 0.0
H531 H 0.52007 0.81719 0.30553 0.0
H532 H 0.59567 0.76636 0.40546 0.0
H533 H 0.57719 0.73385 0.46929 0.0
C534 C 0.08649 0.54915 0.89686 0.0
C535 C 0.13409 0.5302 0.9024 0.0
C536 C 0.14395 0.56415 1.00093 0.0
C537 C 0.09491 0.58142 0.99644 0.0
N538 N 1.01656 0.58499 0.93935 0.0
N539 N 0.20249 0.51291 0.96338 0.0
C540 C 0.06529 0.57192 0.94413 0.0
C541 C 0.161 0.53594 0.95565 0.0
N542 N 0.063 0.54762 0.84517 0.0
N543 N 0.17562 0.57607 1.04847 0.0
H544 H 0.21562 0.4927 0.9315 0.0
H545 H 0.22062 0.50999 1.0019 0.0
H546 H 0.16317 0.59353 0.08294 0.0
H547 H 0.21538 0.57135 1.05291 0.0
H548 H 1.03225 0.56525 0.83521 0.0
H549 H 0.0773 0.53139 0.8108 0.0
H550 H 0.98904 0.57442 0.90556 0.0
H551 H 1.00142 0.60357 0.9712 0.0
C552 C 0.58796 0.94191 1.02271 0.0
C553 C 0.59847 0.94909 0.96528 0.0
C554 C 0.57378 1.03149 0.96966 0.0
C555 C 0.58414 1.033 1.02811 0.0
N556 N 0.59703 0.98545 0.11162 0.0
N557 N 0.55092 0.97443 0.88806 0.0
C558 C 0.58986 0.98692 1.0553 0.0
C559 C 0.57596 0.98609 0.93904 0.0
N560 N 0.56766 0.89157 1.04414 0.0
N561 N 0.56421 1.07376 0.94316 0.0
H562 H 0.54685 0.93808 0.86843 0.0
H563 H 0.52907 0.99754 0.86879 0.0
H564 H 0.56248 0.10778 0.96416 0.0
H565 H 0.56196 1.07642 0.89991 0.0
H566 H 0.55434 0.88392 0.08539 0.0
H567 H 0.55861 0.8581 1.01822 0.0
H568 H 0.60549 0.95343 0.13136 0.0
H569 H 0.59768 1.01695 0.13799 0.0
C570 C 0.95838 0.29562 0.54229 0.0
C571 C 0.90964 0.29814 0.57052 0.0
C572 C 0.89478 0.20795 0.60782 0.0
C573 C 0.94226 0.20501 0.57698 0.0
N574 N 1.00484 0.23841 0.4988 0.0
N575 N 0.82441 0.25234 0.62156 0.0
C576 C 0.96934 0.24621 0.53873 0.0
C577 C 0.87575 0.25305 0.60104 0.0
N578 N 0.99556 0.34131 0.52106 0.0
N579 N 0.86796 0.16742 0.64366 0.0
H580 H 0.80874 0.28426 0.61693 0.0
H581 H 0.79508 0.21856 0.63882 0.0
H582 H 0.87687 0.13128 0.64497 0.0
H583 H 0.83833 0.17021 0.67311 0.0
H584 H 0.9901 0.37853 0.52732 0.0
H585 H 1.03444 0.34289 0.50375 0.0
H586 H 1.02274 0.26668 0.46801 0.0
H587 H 1.01005 0.20133 0.49169 0.0
C588 C 0.29487 0.7479 0.19984 0.0
C589 C 0.29223 0.77022 0.25317 0.0
C590 C 0.18987 0.75334 0.24049 0.0
C591 C 0.19125 0.72699 0.18901 0.0
N592 N 0.24473 0.69736 0.12019 0.0
N593 N 0.23666 0.78613 0.32842 0.0
C594 C 0.24375 0.7235 0.16903 0.0
C595 C 0.23939 0.77037 0.27463 0.0
N596 N 0.34668 0.75197 0.17797 0.0
N597 N 0.14171 0.76385 0.25602 0.0
H598 H 0.27241 0.79888 0.35395 0.0
H599 H 0.1988 0.78216 0.34913 0.0
H600 H 0.10505 0.75311 0.2319 0.0
H601 H 0.13959 0.78758 0.29004 0.0
H602 H 0.35295 0.74161 0.13725 0.0
H603 H 0.38423 0.76876 0.20005 0.0
H604 H 0.27963 0.68736 0.10619 0.0
H605 H 0.20943 0.68422 0.09422 0.0
C606 C 0.25894 0.54952 0.69451 0.0
C607 C 0.26132 0.51685 0.74142 0.0
C608 C 0.36256 0.53113 0.71784 0.0
C609 C 0.36256 0.56928 0.67542 0.0
N610 N 0.30889 0.61672 0.62597 0.0
N611 N 0.32246 0.49141 0.80586 0.0
C612 C 0.30987 0.57845 0.66419 0.0
C613 C 0.31512 0.51172 0.75514 0.0
N614 N 0.20766 0.55391 0.67973 0.0
N615 N 0.40646 0.51073 0.72108 0.0
H616 H 0.29054 0.48116 0.83582 0.0
H617 H 0.3619 0.49105 0.82029 0.0
H618 H 0.4402 0.5211 0.69308 0.0
H619 H 0.4061 0.47933 0.74781 0.0
H620 H 0.20036 0.57176 0.64296 0.0
H621 H 0.17133 0.53657 0.70328 0.0
H622 H 0.27423 0.63004 0.61946 0.0
H623 H 0.34451 0.63817 0.60318 0.0
C624 C 0.78545 0.88152 0.91621 0.0
C625 C 0.72901 0.84679 0.92084 0.0
C626 C 0.76385 0.77478 0.95421 0.0
C627 C 0.8201 0.80865 0.94483 0.0
N628 N 0.88439 0.88966 0.90602 0.0
N629 N 0.66295 0.76061 0.94241 0.0
C630 C 0.83079 0.86051 0.92213 0.0
C631 C 0.71781 0.79328 0.93937 0.0
N632 N 0.7958 0.93529 0.91012 0.0
N633 N 0.75484 0.72591 0.97888 0.0
H634 H 0.62883 0.77407 0.93277 0.0
H635 H 0.65117 0.71981 0.95088 0.0
H636 H 0.78771 0.71076 0.9887 0.0
H637 H 0.71536 0.70119 0.99194 0.0
H638 H 0.83611 0.96309 0.91383 0.0
H639 H 0.76373 0.9527 0.90764 0.0
H640 H 0.89349 0.92562 0.88416 0.0
H641 H 0.91891 0.87546 0.90983 0.0
C642 C 0.48065 0.92005 0.24219 0.0
C643 C 0.46451 0.91384 0.29945 0.0
C644 C 0.4943 1.01404 0.30395 0.0
C645 C 0.50322 1.01942 0.24448 0.0
N646 N 0.4818 0.97063 0.15764 0.0
N647 N 0.45445 0.95657 0.38432 0.0
C648 C 0.49061 0.97055 0.21379 0.0
C649 C 0.47213 0.96166 0.33022 0.0
N650 N 0.48171 0.87588 0.21342 0.0
N651 N 0.50427 1.05906 0.3356 0.0
H652 H 0.44113 0.91938 0.40412 0.0
H653 H 0.45111 0.98805 0.40867 0.0
H654 H 0.51004 1.09684 0.31861 0.0
H655 H 0.50697 1.05903 0.37891 0.0
H656 H 0.49755 0.87775 0.17302 0.0
H657 H 0.47155 0.83831 0.23223 0.0
H658 H 0.46812 0.93578 0.13398 0.0
H659 H 0.47958 1.00403 0.13589 0.0
C660 C 0.18485 0.36563 0.75375 0.0
C661 C 0.15722 0.40522 0.7468 0.0
C662 C 0.08919 0.34013 0.683 0.0
C663 C 0.12102 0.30334 0.68475 0.0
N664 N 0.20729 0.28898 0.71575 0.0
N665 N 0.0837 0.42972 0.70005 0.0
C666 C 0.17121 0.31859 0.71838 0.0
C667 C 0.10992 0.39224 0.70955 0.0
N668 N 0.22145 0.3707 0.7972 0.0
N669 N 1.03645 0.32373 0.65973 0.0
H670 H 0.0946 0.46586 0.72154 0.0
H671 H 0.05401 0.4265 0.66848 0.0
H672 H 1.01835 0.28535 0.64401 0.0
H673 H 1.00822 0.34555 0.66172 0.0
H674 H 0.23936 0.3413 0.80824 0.0
H675 H 0.22797 0.40135 0.82619 0.0
H676 H 0.24706 0.30074 0.73466 0.0
H677 H 0.19997 0.25561 0.69007 0.0
C678 C 0.83424 0.49252 0.56696 0.0
C679 C 0.82057 0.4417 0.59228 0.0
C680 C 0.72657 0.44624 0.61424 0.0
C681 C 0.73484 0.48732 0.57381 0.0
N682 N 0.79823 0.55196 0.51216 0.0
N683 N 0.75548 0.372 0.64648 0.0
C684 C 0.78973 0.51264 0.55158 0.0
C685 C 0.76786 0.41995 0.6196 0.0
N686 N 0.88921 0.51809 0.55281 0.0
N687 N 0.67909 0.43221 0.64679 0.0
H688 H 0.78578 0.35334 0.65405 0.0
H689 H 0.71492 0.35026 0.65998 0.0
H690 H 0.64882 0.45199 0.6445 0.0
H691 H 0.67292 0.40532 0.67994 0.0
H692 H 0.90336 0.55685 0.53677 0.0
H693 H 0.92109 0.50143 0.5623 0.0
H694 H 0.83627 0.56793 0.49078 0.0
H695 H 0.76612 0.56607 0.4976 0.0
loop_
_geom_bond_atom_site_label_1
_geom_bond_atom_site_label_2
_geom_bond_distance
_geom_bond_site_symmetry_2
_ccdc_geom_bond_type
C0 N1 1.317 . S
C0 N2 1.348 . S
C0 C3 1.485 . S
N1 C0 1.317 . S
N1 N5 1.370 . S
N2 C0 1.348 . S
N2 C4 1.346 . S
C3 C0 1.485 . S
C3 H7 0.960 . S
C3 H8 0.961 . S
C3 H9 0.960 . S
C4 N2 1.346 . S
C4 N5 1.307 . S
C4 C6 1.486 . S
N5 N1 1.370 . S
N5 C4 1.307 . S
C6 C4 1.486 . S
C6 H10 0.960 . S
C6 H11 0.960 . S
C6 H12 0.959 . S
H7 C3 0.960 . S
H8 C3 0.961 . S
H9 C3 0.960 . S
H10 C6 0.960 . S
H11 C6 0.960 . S
H12 C6 0.959 . S
C13 N14 1.317 . S
C13 N15 1.348 . S
C13 C16 1.485 . S
N14 C13 1.317 . S
N14 N18 1.370 . S
N15 C13 1.348 . S
N15 C17 1.346 . S
C16 C13 1.485 . S
C16 H20 0.960 . S
C16 H21 0.961 . S
C16 H22 0.960 . S
C17 N15 1.346 . S
C17 N18 1.307 . S
C17 C19 1.486 . S
N18 N14 1.370 . S
N18 C17 1.307 . S
C19 C17 1.486 . S
C19 H23 0.960 . S
C19 H24 0.960 . S
C19 H25 0.959 . S
H20 C16 0.960 . S
H21 C16 0.961 . S
H22 C16 0.960 . S
H23 C19 0.960 . S
H24 C19 0.960 . S
H25 C19 0.959 . S
C26 N27 1.317 . S
C26 N28 1.348 . S
C26 C29 1.485 . S
N27 C26 1.317 . S
N27 N31 1.370 . S
N28 C26 1.348 . S
N28 C30 1.346 . S
C29 C26 1.485 . S
C29 H33 0.960 . S
C29 H34 0.961 . S
C29 H35 0.960 . S
C30 N28 1.346 . S
C30 N31 1.307 . S
C30 C32 1.486 . S
N31 N27 1.370 . S
N31 C30 1.307 . S
C32 C30 1.486 . S
C32 H36 0.960 . S
C32 H37 0.960 . S
C32 H38 0.959 . S
H33 C29 0.960 . S
H34 C29 0.961 . S
H35 C29 0.960 . S
H36 C32 0.960 . S
H37 C32 0.960 . S
H38 C32 0.959 . S
C39 N40 1.317 . S
C39 N41 1.348 . S
C39 C42 1.485 . S
N40 C39 1.317 . S
N40 N44 1.370 . S
N41 C39 1.348 . S
N41 C43 1.346 . S
C42 C39 1.485 . S
C42 H46 0.960 . S
C42 H47 0.961 . S
C42 H48 0.960 . S
C43 N41 1.346 . S
C43 N44 1.307 . S
C43 C45 1.486 . S
N44 N40 1.370 . S
N44 C43 1.307 . S
C45 C43 1.486 . S
C45 H49 0.960 . S
C45 H50 0.960 . S
C45 H51 0.959 . S
H46 C42 0.960 . S
H47 C42 0.961 . S
H48 C42 0.960 . S
H49 C45 0.960 . S
H50 C45 0.960 . S
H51 C45 0.959 . S
C52 N53 1.317 . S
C52 N54 1.348 . S
C52 C55 1.485 . S
N53 C52 1.317 . S
N53 N57 1.370 . S
N54 C52 1.348 . S
N54 C56 1.346 . S
C55 C52 1.485 . S
C55 H59 0.960 . S
C55 H60 0.961 . S
C55 H61 0.960 . S
C56 N54 1.346 . S
C56 N57 1.307 . S
C56 C58 1.486 . S
N57 N53 1.370 . S
N57 C56 1.307 . S
C58 C56 1.486 . S
C58 H62 0.960 . S
C58 H63 0.960 . S
C58 H64 0.959 . S
H59 C55 0.960 . S
H60 C55 0.961 . S
H61 C55 0.960 . S
H62 C58 0.960 . S
H63 C58 0.960 . S
H64 C58 0.959 . S
C65 N66 1.317 . S
C65 N67 1.348 . S
C65 C68 1.485 . S
N66 C65 1.317 . S
N66 N70 1.370 . S
N67 C65 1.348 . S
N67 C69 1.346 . S
C68 C65 1.485 . S
C68 H72 0.960 . S
C68 H73 0.961 . S
C68 H74 0.960 . S
C69 N67 1.346 . S
C69 N70 1.307 . S
C69 C71 1.486 . S
N70 N66 1.370 . S
N70 C69 1.307 . S
C71 C69 1.486 . S
C71 H75 0.960 . S
C71 H76 0.960 . S
C71 H77 0.959 . S
H72 C68 0.960 . S
H73 C68 0.961 . S
H74 C68 0.960 . S
H75 C71 0.960 . S
H76 C71 0.960 . S
H77 C71 0.959 . S
C78 N79 1.317 . S
C78 N80 1.348 . S
C78 C81 1.485 . S
N79 C78 1.317 . S
N79 N83 1.370 . S
N80 C78 1.348 . S
N80 C82 1.346 . S
C81 C78 1.485 . S
C81 H85 0.960 . S
C81 H86 0.961 . S
C81 H87 0.960 . S
C82 N80 1.346 . S
C82 N83 1.307 . S
C82 C84 1.486 . S
N83 N79 1.370 . S
N83 C82 1.307 . S
C84 C82 1.486 . S
C84 H88 0.960 . S
C84 H89 0.960 . S
C84 H90 0.959 . S
H85 C81 0.960 . S
H86 C81 0.961 . S
H87 C81 0.960 . S
H88 C84 0.960 . S
H89 C84 0.960 . S
H90 C84 0.959 . S
C91 N92 1.317 . S
C91 N93 1.348 . S
C91 C94 1.485 . S
N92 C91 1.317 . S
N92 N96 1.370 . S
N93 C91 1.348 . S
N93 C95 1.346 . S
C94 C91 1.485 . S
C94 H98 0.960 . S
C94 H99 0.961 . S
C94 H100 0.960 . S
C95 N93 1.346 . S
C95 N96 1.307 . S
C95 C97 1.486 . S
N96 N92 1.370 . S
N96 C95 1.307 . S
C97 C95 1.486 . S
C97 H101 0.960 . S
C97 H102 0.960 . S
C97 H103 0.959 . S
H98 C94 0.960 . S
H99 C94 0.961 . S
H100 C94 0.960 . S
H101 C97 0.960 . S
H102 C97 0.960 . S
H103 C97 0.959 . S
La104 C106 2.928 . S
La104 O124 2.521 . S
La104 O125 2.628 . S
La104 O126 2.554 . S
La104 O127 2.757 . S
La104 O128 2.470 . S
La104 O133 2.482 . S
La104 O135 2.503 1_545 S
La105 C115 2.928 1_545 S
La105 O127 2.482 1_655 S
La105 O129 2.503 1_655 S
La105 O130 2.521 1_545 S
La105 O131 2.628 1_545 S
La105 O132 2.554 . S
La105 O133 2.757 1_655 S
La105 O134 2.470 1_545 S
C106 La104 2.928 . S
C106 C107 1.503 . S
C106 O124 1.261 . S
C106 O125 1.243 . S
C107 C106 1.503 . S
C107 C108 1.394 . S
C107 C112 1.373 . S
C108 C107 1.394 . S
C108 C109 1.380 . S
C108 H136 0.930 . S
C109 C108 1.380 . S
C109 C110 1.376 . S
C109 H137 0.930 . S
C110 C109 1.376 . S
C110 C111 1.370 . S
C111 C110 1.370 . S
C111 C112 1.396 . S
C111 H138 0.929 . S
C112 C107 1.373 . S
C112 C111 1.396 . S
C112 H139 0.929 . S
C113 O126 1.240 1_565 S
C113 O127 1.289 1_565 S
C114 O128 1.258 . S
C114 O129 1.256 . S
C115 La105 2.928 1_565 S
C115 C116 1.503 . S
C115 O130 1.261 . S
C115 O131 1.243 . S
C116 C115 1.503 . S
C116 C117 1.394 . S
C116 C121 1.373 . S
C117 C116 1.394 . S
C117 C118 1.380 . S
C117 H140 0.930 . S
C118 C117 1.380 . S
C118 C119 1.376 . S
C118 H141 0.930 . S
C119 C118 1.376 . S
C119 C120 1.370 . S
C120 C119 1.370 . S
C120 C121 1.396 . S
C120 H142 0.929 . S
C121 C116 1.373 . S
C121 C120 1.396 . S
C121 H143 0.929 . S
C122 O132 1.240 . S
C122 O133 1.289 1_655 S
C123 O134 1.258 . S
C123 O135 1.256 1_655 S
O124 La104 2.521 . S
O124 C106 1.261 . S
O125 La104 2.628 . S
O125 C106 1.243 . S
O126 La104 2.554 . S
O126 C113 1.240 1_545 S
O127 La104 2.757 . S
O127 La105 2.482 1_455 S
O127 C113 1.289 1_545 S
O128 La104 2.470 . S
O128 C114 1.258 . S
O129 La105 2.503 1_455 S
O129 C114 1.256 . S
O130 La105 2.521 1_565 S
O130 C115 1.261 . S
O131 La105 2.628 1_565 S
O131 C115 1.243 . S
O132 La105 2.554 . S
O132 C122 1.240 . S
O133 La104 2.482 . S
O133 La105 2.757 1_455 S
O133 C122 1.289 1_455 S
O134 La105 2.470 1_565 S
O134 C123 1.258 . S
O135 La104 2.503 1_565 S
O135 C123 1.256 1_455 S
H136 C108 0.930 . S
H137 C109 0.930 . S
H138 C111 0.929 . S
H139 C112 0.929 . S
H140 C117 0.930 . S
H141 C118 0.930 . S
H142 C120 0.929 . S
H143 C121 0.929 . S
La144 C146 2.928 . S
La144 O164 2.521 . S
La144 O165 2.628 . S
La144 O166 2.554 1_545 S
La144 O167 2.757 . S
La144 O168 2.470 . S
La144 O173 2.482 . S
La144 O175 2.503 . S
La145 C155 2.928 1_554 S
La145 O167 2.482 . S
La145 O169 2.503 . S
La145 O170 2.521 1_554 S
La145 O171 2.628 1_544 S
La145 O172 2.554 1_554 S
La145 O173 2.757 . S
La145 O174 2.470 1_554 S
C146 La144 2.928 . S
C146 C147 1.503 . S
C146 O164 1.261 . S
C146 O165 1.243 . S
C147 C146 1.503 . S
C147 C148 1.394 . S
C147 C152 1.373 . S
C148 C147 1.394 . S
C148 C149 1.380 . S
C148 H176 0.930 . S
C149 C148 1.380 . S
C149 C150 1.376 . S
C149 H177 0.930 . S
C150 C149 1.376 . S
C150 C151 1.370 . S
C151 C150 1.370 . S
C151 C152 1.396 . S
C151 H178 0.929 . S
C152 C147 1.373 . S
C152 C151 1.396 . S
C152 H179 0.929 . S
C153 O166 1.240 . S
C153 O167 1.289 1_565 S
C154 O168 1.258 . S
C154 O169 1.256 . S
C155 La145 2.928 1_556 S
C155 C156 1.503 1_545 S
C155 O170 1.261 . S
C155 O171 1.243 1_545 S
C156 C155 1.503 1_565 S
C156 C157 1.394 1_565 S
C156 C161 1.373 . S
C157 C156 1.394 1_545 S
C157 C158 1.380 1_545 S
C157 H180 0.930 . S
C158 C157 1.380 1_565 S
C158 C159 1.376 . S
C158 H181 0.930 . S
C159 C158 1.376 . S
C159 C160 1.370 . S
C160 C159 1.370 . S
C160 C161 1.396 . S
C160 H182 0.929 . S
C161 C156 1.373 . S
C161 C160 1.396 . S
C161 H183 0.929 . S
C162 O172 1.240 1_554 S
C162 O173 1.289 . S
C163 O174 1.258 . S
C163 O175 1.256 1_556 S
O164 La144 2.521 . S
O164 C146 1.261 . S
O165 La144 2.628 . S
O165 C146 1.243 . S
O166 La144 2.554 1_565 S
O166 C153 1.240 . S
O167 La144 2.757 . S
O167 La145 2.482 . S
O167 C153 1.289 1_545 S
O168 La144 2.470 . S
O168 C154 1.258 . S
O169 La145 2.503 . S
O169 C154 1.256 . S
O170 La145 2.521 1_556 S
O170 C155 1.261 . S
O171 La145 2.628 1_566 S
O171 C155 1.243 1_565 S
O172 La145 2.554 1_556 S
O172 C162 1.240 1_556 S
O173 La144 2.482 . S
O173 La145 2.757 . S
O173 C162 1.289 . S
O174 La145 2.470 1_556 S
O174 C163 1.258 . S
O175 La144 2.503 . S
O175 C163 1.256 1_554 S
H176 C148 0.930 . S
H177 C149 0.930 . S
H178 C151 0.929 . S
H179 C152 0.929 . S
H180 C157 0.930 . S
H181 C158 0.930 . S
H182 C160 0.929 . S
H183 C161 0.929 . S
La184 C186 2.928 . S
La184 O204 2.521 . S
La184 O205 2.628 . S
La184 O206 2.554 . S
La184 O207 2.757 . S
La184 O208 2.470 . S
La184 O213 2.482 . S
La184 O215 2.503 . S
La185 C195 2.928 . S
La185 O207 2.482 . S
La185 O209 2.503 . S
La185 O210 2.521 . S
La185 O211 2.628 . S
La185 O212 2.554 . S
La185 O213 2.757 . S
La185 O214 2.470 . S
C186 La184 2.928 . S
C186 C187 1.503 . S
C186 O204 1.261 . S
C186 O205 1.243 . S
C187 C186 1.503 . S
C187 C188 1.394 . S
C187 C192 1.373 . S
C188 C187 1.394 . S
C188 C189 1.380 . S
C188 H216 0.930 . S
C189 C188 1.380 . S
C189 C190 1.376 . S
C189 H217 0.930 . S
C190 C189 1.376 . S
C190 C191 1.370 . S
C191 C190 1.370 . S
C191 C192 1.396 . S
C191 H218 0.929 . S
C192 C187 1.373 . S
C192 C191 1.396 . S
C192 H219 0.929 . S
C193 O206 1.240 . S
C193 O207 1.289 . S
C194 O208 1.258 . S
C194 O209 1.256 . S
C195 La185 2.928 . S
C195 C196 1.503 . S
C195 O210 1.261 . S
C195 O211 1.243 . S
C196 C195 1.503 . S
C196 C197 1.394 . S
C196 C201 1.373 . S
C197 C196 1.394 . S
C197 C198 1.380 . S
C197 H220 0.930 . S
C198 C197 1.380 . S
C198 C199 1.376 . S
C198 H221 0.930 . S
C199 C198 1.376 . S
C199 C200 1.370 . S
C200 C199 1.370 . S
C200 C201 1.396 . S
C200 H222 0.929 . S
C201 C196 1.373 . S
C201 C200 1.396 . S
C201 H223 0.929 . S
C202 O212 1.240 . S
C202 O213 1.289 . S
C203 O214 1.258 . S
C203 O215 1.256 . S
O204 La184 2.521 . S
O204 C186 1.261 . S
O205 La184 2.628 . S
O205 C186 1.243 . S
O206 La184 2.554 . S
O206 C193 1.240 . S
O207 La184 2.757 . S
O207 La185 2.482 . S
O207 C193 1.289 . S
O208 La184 2.470 . S
O208 C194 1.258 . S
O209 La185 2.503 . S
O209 C194 1.256 . S
O210 La185 2.521 . S
O210 C195 1.261 . S
O211 La185 2.628 . S
O211 C195 1.243 . S
O212 La185 2.554 . S
O212 C202 1.240 . S
O213 La184 2.482 . S
O213 La185 2.757 . S
O213 C202 1.289 . S
O214 La185 2.470 . S
O214 C203 1.258 . S
O215 La184 2.503 . S
O215 C203 1.256 . S
H216 C188 0.930 . S
H217 C189 0.930 . S
H218 C191 0.929 . S
H219 C192 0.929 . S
H220 C197 0.930 . S
H221 C198 0.930 . S
H222 C200 0.929 . S
H223 C201 0.929 . S
La224 C226 2.928 . S
La224 O244 2.521 . S
La224 O245 2.628 . S
La224 O246 2.554 1_455 S
La224 O247 2.757 1_455 S
La224 O248 2.470 . S
La224 O253 2.482 1_554 S
La224 O255 2.503 1_455 S
La225 C235 2.928 1_455 S
La225 O247 2.482 1_456 S
La225 O249 2.503 1_556 S
La225 O250 2.521 1_455 S
La225 O251 2.628 1_455 S
La225 O252 2.554 . S
La225 O253 2.757 . S
La225 O254 2.470 1_455 S
C226 La224 2.928 . S
C226 C227 1.503 . S
C226 O244 1.261 . S
C226 O245 1.243 . S
C227 C226 1.503 . S
C227 C228 1.394 . S
C227 C232 1.373 . S
C228 C227 1.394 . S
C228 C229 1.380 . S
C228 H256 0.930 . S
C229 C228 1.380 . S
C229 C230 1.376 . S
C229 H257 0.930 . S
C230 C229 1.376 . S
C230 C231 1.370 . S
C231 C230 1.370 . S
C231 C232 1.396 . S
C231 H258 0.929 . S
C232 C227 1.373 . S
C232 C231 1.396 . S
C232 H259 0.929 . S
C233 O246 1.240 . S
C233 O247 1.289 . S
C234 O248 1.258 . S
C234 O249 1.256 . S
C235 La225 2.928 1_655 S
C235 C236 1.503 . S
C235 O250 1.261 . S
C235 O251 1.243 . S
C236 C235 1.503 . S
C236 C237 1.394 . S
C236 C241 1.373 . S
C237 C236 1.394 . S
C237 C238 1.380 . S
C237 H260 0.930 . S
C238 C237 1.380 . S
C238 C239 1.376 . S
C238 H261 0.930 . S
C239 C238 1.376 . S
C239 C240 1.370 . S
C240 C239 1.370 . S
C240 C241 1.396 . S
C240 H262 0.929 . S
C241 C236 1.373 . S
C241 C240 1.396 . S
C241 H263 0.929 . S
C242 O252 1.240 . S
C242 O253 1.289 . S
C243 O254 1.258 . S
C243 O255 1.256 1_556 S
O244 La224 2.521 . S
O244 C226 1.261 . S
O245 La224 2.628 . S
O245 C226 1.243 . S
O246 La224 2.554 1_655 S
O246 C233 1.240 . S
O247 La224 2.757 1_655 S
O247 La225 2.482 1_654 S
O247 C233 1.289 . S
O248 La224 2.470 . S
O248 C234 1.258 . S
O249 La225 2.503 1_554 S
O249 C234 1.256 . S
O250 La225 2.521 1_655 S
O250 C235 1.261 . S
O251 La225 2.628 1_655 S
O251 C235 1.243 . S
O252 La225 2.554 . S
O252 C242 1.240 . S
O253 La224 2.482 1_556 S
O253 La225 2.757 . S
O253 C242 1.289 . S
O254 La225 2.470 1_655 S
O254 C243 1.258 . S
O255 La224 2.503 1_655 S
O255 C243 1.256 1_554 S
H256 C228 0.930 . S
H257 C229 0.930 . S
H258 C231 0.929 . S
H259 C232 0.929 . S
H260 C237 0.930 . S
H261 C238 0.930 . S
H262 C240 0.929 . S
H263 C241 0.929 . S
C264 C265 1.363 . S
C264 C270 1.379 . S
C264 N272 1.356 . S
C265 C264 1.363 . S
C265 C271 1.363 . S
C266 C267 1.363 . S
C266 C271 1.379 . S
C266 N273 1.356 . S
C267 C266 1.363 . S
C267 C270 1.363 . S
N268 C270 1.356 . S
N268 H280 0.984 . S
N268 H281 0.985 . S
N269 C271 1.356 . S
N269 H274 0.984 . S
N269 H275 0.985 . S
C270 C264 1.379 . S
C270 C267 1.363 . S
C270 N268 1.356 . S
C271 C265 1.363 . S
C271 C266 1.379 . S
C271 N269 1.356 . S
N272 C264 1.356 . S
N272 H278 0.984 . S
N272 H279 0.984 . S
N273 C266 1.356 . S
N273 H276 0.984 . S
N273 H277 0.985 . S
H274 N269 0.984 . S
H275 N269 0.985 . S
H276 N273 0.984 . S
H277 N273 0.985 . S
H278 N272 0.984 . S
H279 N272 0.984 . S
H280 N268 0.984 . S
H281 N268 0.985 . S
C282 C283 1.363 . S
C282 C288 1.379 . S
C282 N290 1.356 . S
C283 C282 1.363 . S
C283 C289 1.363 . S
C284 C285 1.363 . S
C284 C289 1.379 . S
C284 N291 1.356 . S
C285 C284 1.363 . S
C285 C288 1.363 . S
N286 C288 1.356 . S
N286 H298 0.984 . S
N286 H299 0.985 . S
N287 C289 1.356 . S
N287 H292 0.984 . S
N287 H293 0.985 1_565 S
C288 C282 1.379 . S
C288 C285 1.363 . S
C288 N286 1.356 . S
C289 C283 1.363 . S
C289 C284 1.379 . S
C289 N287 1.356 . S
N290 C282 1.356 . S
N290 H296 0.984 . S
N290 H297 0.984 . S
N291 C284 1.356 . S
N291 H294 0.984 . S
N291 H295 0.985 1_565 S
H292 N287 0.984 . S
H293 N287 0.985 1_545 S
H294 N291 0.984 . S
H295 N291 0.985 1_545 S
H296 N290 0.984 . S
H297 N290 0.984 . S
H298 N286 0.984 . S
H299 N286 0.985 . S
C300 C301 1.363 . S
C300 C306 1.379 . S
C300 N308 1.356 . S
C301 C300 1.363 . S
C301 C307 1.363 . S
C302 C303 1.363 . S
C302 C307 1.379 . S
C302 N309 1.356 . S
C303 C302 1.363 . S
C303 C306 1.363 . S
N304 C306 1.356 . S
N304 H316 0.984 . S
N304 H317 0.985 . S
N305 C307 1.356 . S
N305 H310 0.984 . S
N305 H311 0.985 . S
C306 C300 1.379 . S
C306 C303 1.363 . S
C306 N304 1.356 . S
C307 C301 1.363 . S
C307 C302 1.379 . S
C307 N305 1.356 . S
N308 C300 1.356 . S
N308 H314 0.984 . S
N308 H315 0.984 . S
N309 C302 1.356 . S
N309 H312 0.984 . S
N309 H313 0.985 . S
H310 N305 0.984 . S
H311 N305 0.985 . S
H312 N309 0.984 . S
H313 N309 0.985 . S
H314 N308 0.984 . S
H315 N308 0.984 . S
H316 N304 0.984 . S
H317 N304 0.985 . S
C318 C319 1.363 . S
C318 C324 1.379 . S
C318 N326 1.356 . S
C319 C318 1.363 . S
C319 C325 1.363 . S
C320 C321 1.363 . S
C320 C325 1.379 . S
C320 N327 1.356 . S
C321 C320 1.363 . S
C321 C324 1.363 . S
N322 C324 1.356 . S
N322 H334 0.984 . S
N322 H335 0.985 . S
N323 C325 1.356 . S
N323 H328 0.984 . S
N323 H329 0.985 . S
C324 C318 1.379 . S
C324 C321 1.363 . S
C324 N322 1.356 . S
C325 C319 1.363 . S
C325 C320 1.379 . S
C325 N323 1.356 . S
N326 C318 1.356 . S
N326 H332 0.984 . S
N326 H333 0.984 . S
N327 C320 1.356 . S
N327 H330 0.984 . S
N327 H331 0.985 . S
H328 N323 0.984 . S
H329 N323 0.985 . S
H330 N327 0.984 . S
H331 N327 0.985 . S
H332 N326 0.984 . S
H333 N326 0.984 . S
H334 N322 0.984 . S
H335 N322 0.985 . S
C336 C337 1.363 . S
C336 C342 1.379 . S
C336 N344 1.356 . S
C337 C336 1.363 . S
C337 C343 1.363 . S
C338 C339 1.363 . S
C338 C343 1.379 . S
C338 N345 1.356 . S
C339 C338 1.363 . S
C339 C342 1.363 . S
N340 C342 1.356 . S
N340 H352 0.984 . S
N340 H353 0.985 . S
N341 C343 1.356 . S
N341 H346 0.984 . S
N341 H347 0.985 . S
C342 C336 1.379 . S
C342 C339 1.363 . S
C342 N340 1.356 . S
C343 C337 1.363 . S
C343 C338 1.379 . S
C343 N341 1.356 . S
N344 C336 1.356 . S
N344 H350 0.984 . S
N344 H351 0.984 . S
N345 C338 1.356 . S
N345 H348 0.984 . S
N345 H349 0.985 . S
H346 N341 0.984 . S
H347 N341 0.985 . S
H348 N345 0.984 . S
H349 N345 0.985 . S
H350 N344 0.984 . S
H351 N344 0.984 . S
H352 N340 0.984 . S
H353 N340 0.985 . S
C354 C355 1.363 . S
C354 C360 1.379 . S
C354 N362 1.356 . S
C355 C354 1.363 . S
C355 C361 1.363 . S
C356 C357 1.363 . S
C356 C361 1.379 . S
C356 N363 1.356 . S
C357 C356 1.363 . S
C357 C360 1.363 . S
N358 C360 1.356 1_545 S
N358 H370 0.984 . S
N358 H371 0.985 . S
N359 C361 1.356 . S
N359 H364 0.984 . S
N359 H365 0.985 . S
C360 C354 1.379 . S
C360 C357 1.363 . S
C360 N358 1.356 1_565 S
C361 C355 1.363 . S
C361 C356 1.379 . S
C361 N359 1.356 . S
N362 C354 1.356 . S
N362 H368 0.984 . S
N362 H369 0.984 . S
N363 C356 1.356 . S
N363 H366 0.984 1_565 S
N363 H367 0.985 . S
H364 N359 0.984 . S
H365 N359 0.985 . S
H366 N363 0.984 1_545 S
H367 N363 0.985 . S
H368 N362 0.984 . S
H369 N362 0.984 . S
H370 N358 0.984 . S
H371 N358 0.985 . S
C372 C373 1.363 . S
C372 C378 1.379 . S
C372 N380 1.356 . S
C373 C372 1.363 . S
C373 C379 1.363 . S
C374 C375 1.363 . S
C374 C379 1.379 . S
C374 N381 1.356 . S
C375 C374 1.363 . S
C375 C378 1.363 . S
N376 C378 1.356 1_554 S
N376 H388 0.984 . S
N376 H389 0.985 . S
N377 C379 1.356 . S
N377 H382 0.984 . S
N377 H383 0.985 . S
C378 C372 1.379 . S
C378 C375 1.363 . S
C378 N376 1.356 1_556 S
C379 C373 1.363 . S
C379 C374 1.379 . S
C379 N377 1.356 . S
N380 C372 1.356 . S
N380 H386 0.984 1_556 S
N380 H387 0.984 . S
N381 C374 1.356 . S
N381 H384 0.984 . S
N381 H385 0.985 . S
H382 N377 0.984 . S
H383 N377 0.985 . S
H384 N381 0.984 . S
H385 N381 0.985 . S
H386 N380 0.984 1_554 S
H387 N380 0.984 . S
H388 N376 0.984 . S
H389 N376 0.985 . S
C390 C391 1.363 . S
C390 C396 1.379 . S
C390 N398 1.356 . S
C391 C390 1.363 . S
C391 C397 1.363 . S
C392 C393 1.363 . S
C392 C397 1.379 . S
C392 N399 1.356 . S
C393 C392 1.363 . S
C393 C396 1.363 . S
N394 C396 1.356 . S
N394 H406 0.984 . S
N394 H407 0.985 . S
N395 C397 1.356 . S
N395 H400 0.984 . S
N395 H401 0.985 . S
C396 C390 1.379 . S
C396 C393 1.363 . S
C396 N394 1.356 . S
C397 C391 1.363 . S
C397 C392 1.379 . S
C397 N395 1.356 . S
N398 C390 1.356 . S
N398 H404 0.984 . S
N398 H405 0.984 . S
N399 C392 1.356 . S
N399 H402 0.984 . S
N399 H403 0.985 . S
H400 N395 0.984 . S
H401 N395 0.985 . S
H402 N399 0.984 . S
H403 N399 0.985 . S
H404 N398 0.984 . S
H405 N398 0.984 . S
H406 N394 0.984 . S
H407 N394 0.985 . S
C408 C409 1.363 . S
C408 C414 1.379 . S
C408 N416 1.356 . S
C409 C408 1.363 . S
C409 C415 1.363 . S
C410 C411 1.363 . S
C410 C415 1.379 . S
C410 N417 1.356 . S
C411 C410 1.363 . S
C411 C414 1.363 . S
N412 C414 1.356 . S
N412 H424 0.984 . S
N412 H425 0.985 . S
N413 C415 1.356 . S
N413 H418 0.984 . S
N413 H419 0.985 . S
C414 C408 1.379 . S
C414 C411 1.363 . S
C414 N412 1.356 . S
C415 C409 1.363 . S
C415 C410 1.379 . S
C415 N413 1.356 . S
N416 C408 1.356 . S
N416 H422 0.984 . S
N416 H423 0.984 . S
N417 C410 1.356 . S
N417 H420 0.984 . S
N417 H421 0.985 . S
H418 N413 0.984 . S
H419 N413 0.985 . S
H420 N417 0.984 . S
H421 N417 0.985 . S
H422 N416 0.984 . S
H423 N416 0.984 . S
H424 N412 0.984 . S
H425 N412 0.985 . S
C426 C427 1.363 . S
C426 C432 1.379 . S
C426 N434 1.356 . S
C427 C426 1.363 . S
C427 C433 1.363 . S
C428 C429 1.363 . S
C428 C433 1.379 . S
C428 N435 1.356 1_556 S
C429 C428 1.363 . S
C429 C432 1.363 . S
N430 C432 1.356 . S
N430 H442 0.984 . S
N430 H443 0.985 . S
N431 C433 1.356 . S
N431 H436 0.984 . S
N431 H437 0.985 1_556 S
C432 C426 1.379 . S
C432 C429 1.363 . S
C432 N430 1.356 . S
C433 C427 1.363 . S
C433 C428 1.379 . S
C433 N431 1.356 . S
N434 C426 1.356 . S
N434 H440 0.984 . S
N434 H441 0.984 . S
N435 C428 1.356 1_554 S
N435 H438 0.984 . S
N435 H439 0.985 . S
H436 N431 0.984 . S
H437 N431 0.985 1_554 S
H438 N435 0.984 . S
H439 N435 0.985 . S
H440 N434 0.984 . S
H441 N434 0.984 . S
H442 N430 0.984 . S
H443 N430 0.985 . S
C444 C445 1.363 . S
C444 C450 1.379 . S
C444 N452 1.356 . S
C445 C444 1.363 . S
C445 C451 1.363 . S
C446 C447 1.363 . S
C446 C451 1.379 . S
C446 N453 1.356 . S
C447 C446 1.363 . S
C447 C450 1.363 . S
N448 C450 1.356 1_455 S
N448 H460 0.984 . S
N448 H461 0.985 . S
N449 C451 1.356 . S
N449 H454 0.984 . S
N449 H455 0.985 . S
C450 C444 1.379 . S
C450 C447 1.363 . S
C450 N448 1.356 1_655 S
C451 C445 1.363 . S
C451 C446 1.379 . S
C451 N449 1.356 . S
N452 C444 1.356 . S
N452 H458 0.984 . S
N452 H459 0.984 . S
N453 C446 1.356 . S
N453 H456 0.984 . S
N453 H457 0.985 . S
H454 N449 0.984 . S
H455 N449 0.985 . S
H456 N453 0.984 . S
H457 N453 0.985 . S
H458 N452 0.984 . S
H459 N452 0.984 . S
H460 N448 0.984 . S
H461 N448 0.985 . S
C462 C463 1.363 . S
C462 C468 1.379 . S
C462 N470 1.356 . S
C463 C462 1.363 . S
C463 C469 1.363 . S
C464 C465 1.363 . S
C464 C469 1.379 . S
C464 N471 1.356 . S
C465 C464 1.363 . S
C465 C468 1.363 . S
N466 C468 1.356 . S
N466 H478 0.984 . S
N466 H479 0.985 . S
N467 C469 1.356 . S
N467 H472 0.984 . S
N467 H473 0.985 . S
C468 C462 1.379 . S
C468 C465 1.363 . S
C468 N466 1.356 . S
C469 C463 1.363 . S
C469 C464 1.379 . S
C469 N467 1.356 . S
N470 C462 1.356 . S
N470 H476 0.984 . S
N470 H477 0.984 . S
N471 C464 1.356 . S
N471 H474 0.984 . S
N471 H475 0.985 . S
H472 N467 0.984 . S
H473 N467 0.985 . S
H474 N471 0.984 . S
H475 N471 0.985 . S
H476 N470 0.984 . S
H477 N470 0.984 . S
H478 N466 0.984 . S
H479 N466 0.985 . S
C480 C481 1.363 . S
C480 C486 1.379 . S
C480 N488 1.356 . S
C481 C480 1.363 . S
C481 C487 1.363 . S
C482 C483 1.363 . S
C482 C487 1.379 . S
C482 N489 1.356 . S
C483 C482 1.363 . S
C483 C486 1.363 . S
N484 C486 1.356 . S
N484 H496 0.984 . S
N484 H497 0.985 . S
N485 C487 1.356 . S
N485 H490 0.984 . S
N485 H491 0.985 . S
C486 C480 1.379 . S
C486 C483 1.363 . S
C486 N484 1.356 . S
C487 C481 1.363 . S
C487 C482 1.379 . S
C487 N485 1.356 . S
N488 C480 1.356 . S
N488 H494 0.984 . S
N488 H495 0.984 . S
N489 C482 1.356 . S
N489 H492 0.984 . S
N489 H493 0.985 . S
H490 N485 0.984 . S
H491 N485 0.985 . S
H492 N489 0.984 . S
H493 N489 0.985 . S
H494 N488 0.984 . S
H495 N488 0.984 . S
H496 N484 0.984 . S
H497 N484 0.985 . S
C498 C499 1.363 . S
C498 C504 1.379 . S
C498 N506 1.356 . S
C499 C498 1.363 . S
C499 C505 1.363 . S
C500 C501 1.363 . S
C500 C505 1.379 . S
C500 N507 1.356 . S
C501 C500 1.363 . S
C501 C504 1.363 . S
N502 C504 1.356 . S
N502 H514 0.984 . S
N502 H515 0.985 . S
N503 C505 1.356 . S
N503 H508 0.984 . S
N503 H509 0.985 . S
C504 C498 1.379 . S
C504 C501 1.363 . S
C504 N502 1.356 . S
C505 C499 1.363 . S
C505 C500 1.379 . S
C505 N503 1.356 . S
N506 C498 1.356 . S
N506 H512 0.984 . S
N506 H513 0.984 . S
N507 C500 1.356 . S
N507 H510 0.984 . S
N507 H511 0.985 . S
H508 N503 0.984 . S
H509 N503 0.985 . S
H510 N507 0.984 . S
H511 N507 0.985 . S
H512 N506 0.984 . S
H513 N506 0.984 . S
H514 N502 0.984 . S
H515 N502 0.985 . S
C516 C517 1.363 . S
C516 C522 1.379 . S
C516 N524 1.356 . S
C517 C516 1.363 . S
C517 C523 1.363 . S
C518 C519 1.363 . S
C518 C523 1.379 . S
C518 N525 1.356 . S
C519 C518 1.363 . S
C519 C522 1.363 . S
N520 C522 1.356 . S
N520 H532 0.984 . S
N520 H533 0.985 . S
N521 C523 1.356 . S
N521 H526 0.984 . S
N521 H527 0.985 . S
C522 C516 1.379 . S
C522 C519 1.363 . S
C522 N520 1.356 . S
C523 C517 1.363 . S
C523 C518 1.379 . S
C523 N521 1.356 . S
N524 C516 1.356 . S
N524 H530 0.984 . S
N524 H531 0.984 . S
N525 C518 1.356 . S
N525 H528 0.984 . S
N525 H529 0.985 . S
H526 N521 0.984 . S
H527 N521 0.985 . S
H528 N525 0.984 . S
H529 N525 0.985 . S
H530 N524 0.984 . S
H531 N524 0.984 . S
H532 N520 0.984 . S
H533 N520 0.985 . S
C534 C535 1.363 . S
C534 C540 1.379 . S
C534 N542 1.356 . S
C535 C534 1.363 . S
C535 C541 1.363 . S
C536 C537 1.363 . S
C536 C541 1.379 . S
C536 N543 1.356 . S
C537 C536 1.363 . S
C537 C540 1.363 . S
N538 C540 1.356 . S
N538 H550 0.984 . S
N538 H551 0.985 . S
N539 C541 1.356 . S
N539 H544 0.984 . S
N539 H545 0.985 . S
C540 C534 1.379 . S
C540 C537 1.363 . S
C540 N538 1.356 . S
C541 C535 1.363 . S
C541 C536 1.379 . S
C541 N539 1.356 . S
N542 C534 1.356 . S
N542 H548 0.984 . S
N542 H549 0.984 . S
N543 C536 1.356 . S
N543 H546 0.984 . S
N543 H547 0.985 . S
H544 N539 0.984 . S
H545 N539 0.985 . S
H546 N543 0.984 . S
H547 N543 0.985 . S
H548 N542 0.984 . S
H549 N542 0.984 . S
H550 N538 0.984 . S
H551 N538 0.985 . S
C552 C553 1.363 . S
C552 C558 1.379 . S
C552 N560 1.356 . S
C553 C552 1.363 . S
C553 C559 1.363 . S
C554 C555 1.363 . S
C554 C559 1.379 . S
C554 N561 1.356 . S
C555 C554 1.363 . S
C555 C558 1.363 . S
N556 C558 1.356 1_554 S
N556 H568 0.984 . S
N556 H569 0.985 . S
N557 C559 1.356 . S
N557 H562 0.984 . S
N557 H563 0.985 . S
C558 C552 1.379 . S
C558 C555 1.363 . S
C558 N556 1.356 1_556 S
C559 C553 1.363 . S
C559 C554 1.379 . S
C559 N557 1.356 . S
N560 C552 1.356 . S
N560 H566 0.984 . S
N560 H567 0.984 . S
N561 C554 1.356 . S
N561 H564 0.984 1_565 S
N561 H565 0.985 1_565 S
H562 N557 0.984 . S
H563 N557 0.985 . S
H564 N561 0.984 1_545 S
H565 N561 0.985 1_545 S
H566 N560 0.984 . S
H567 N560 0.984 . S
H568 N556 0.984 . S
H569 N556 0.985 . S
C570 C571 1.363 . S
C570 C576 1.379 . S
C570 N578 1.356 . S
C571 C570 1.363 . S
C571 C577 1.363 . S
C572 C573 1.363 . S
C572 C577 1.379 . S
C572 N579 1.356 . S
C573 C572 1.363 . S
C573 C576 1.363 . S
N574 C576 1.356 . S
N574 H586 0.984 . S
N574 H587 0.985 . S
N575 C577 1.356 . S
N575 H580 0.984 . S
N575 H581 0.985 . S
C576 C570 1.379 . S
C576 C573 1.363 . S
C576 N574 1.356 . S
C577 C571 1.363 . S
C577 C572 1.379 . S
C577 N575 1.356 . S
N578 C570 1.356 . S
N578 H584 0.984 . S
N578 H585 0.984 . S
N579 C572 1.356 . S
N579 H582 0.984 1_655 S
N579 H583 0.985 1_655 S
H580 N575 0.984 . S
H581 N575 0.985 . S
H582 N579 0.984 1_455 S
H583 N579 0.985 1_455 S
H584 N578 0.984 . S
H585 N578 0.984 . S
H586 N574 0.984 . S
H587 N574 0.985 . S
C588 C589 1.363 . S
C588 C594 1.379 . S
C588 N596 1.356 . S
C589 C588 1.363 . S
C589 C595 1.363 . S
C590 C591 1.363 . S
C590 C595 1.379 . S
C590 N597 1.356 . S
C591 C590 1.363 . S
C591 C594 1.363 . S
N592 C594 1.356 . S
N592 H604 0.984 . S
N592 H605 0.985 . S
N593 C595 1.356 . S
N593 H598 0.984 . S
N593 H599 0.985 . S
C594 C588 1.379 . S
C594 C591 1.363 . S
C594 N592 1.356 . S
C595 C589 1.363 . S
C595 C590 1.379 . S
C595 N593 1.356 . S
N596 C588 1.356 . S
N596 H602 0.984 . S
N596 H603 0.984 . S
N597 C590 1.356 . S
N597 H600 0.984 . S
N597 H601 0.985 . S
H598 N593 0.984 . S
H599 N593 0.985 . S
H600 N597 0.984 . S
H601 N597 0.985 . S
H602 N596 0.984 . S
H603 N596 0.984 . S
H604 N592 0.984 . S
H605 N592 0.985 . S
C606 C607 1.363 . S
C606 C612 1.379 . S
C606 N614 1.356 . S
C607 C606 1.363 . S
C607 C613 1.363 . S
C608 C609 1.363 . S
C608 C613 1.379 . S
C608 N615 1.356 . S
C609 C608 1.363 . S
C609 C612 1.363 . S
N610 C612 1.356 . S
N610 H622 0.984 . S
N610 H623 0.985 . S
N611 C613 1.356 . S
N611 H616 0.984 . S
N611 H617 0.985 . S
C612 C606 1.379 . S
C612 C609 1.363 . S
C612 N610 1.356 . S
C613 C607 1.363 . S
C613 C608 1.379 . S
C613 N611 1.356 . S
N614 C606 1.356 . S
N614 H620 0.984 . S
N614 H621 0.984 . S
N615 C608 1.356 . S
N615 H618 0.984 . S
N615 H619 0.985 . S
H616 N611 0.984 . S
H617 N611 0.985 . S
H618 N615 0.984 . S
H619 N615 0.985 . S
H620 N614 0.984 . S
H621 N614 0.984 . S
H622 N610 0.984 . S
H623 N610 0.985 . S
C624 C625 1.363 . S
C624 C630 1.379 . S
C624 N632 1.356 . S
C625 C624 1.363 . S
C625 C631 1.363 . S
C626 C627 1.363 . S
C626 C631 1.379 . S
C626 N633 1.356 . S
C627 C626 1.363 . S
C627 C630 1.363 . S
N628 C630 1.356 . S
N628 H640 0.984 . S
N628 H641 0.985 . S
N629 C631 1.356 . S
N629 H634 0.984 . S
N629 H635 0.985 . S
C630 C624 1.379 . S
C630 C627 1.363 . S
C630 N628 1.356 . S
C631 C625 1.363 . S
C631 C626 1.379 . S
C631 N629 1.356 . S
N632 C624 1.356 . S
N632 H638 0.984 . S
N632 H639 0.984 . S
N633 C626 1.356 . S
N633 H636 0.984 . S
N633 H637 0.985 . S
H634 N629 0.984 . S
H635 N629 0.985 . S
H636 N633 0.984 . S
H637 N633 0.985 . S
H638 N632 0.984 . S
H639 N632 0.984 . S
H640 N628 0.984 . S
H641 N628 0.985 . S
C642 C643 1.363 . S
C642 C648 1.379 . S
C642 N650 1.356 . S
C643 C642 1.363 . S
C643 C649 1.363 . S
C644 C645 1.363 . S
C644 C649 1.379 . S
C644 N651 1.356 . S
C645 C644 1.363 . S
C645 C648 1.363 . S
N646 C648 1.356 . S
N646 H658 0.984 . S
N646 H659 0.985 . S
N647 C649 1.356 . S
N647 H652 0.984 . S
N647 H653 0.985 . S
C648 C642 1.379 . S
C648 C645 1.363 . S
C648 N646 1.356 . S
C649 C643 1.363 . S
C649 C644 1.379 . S
C649 N647 1.356 . S
N650 C642 1.356 . S
N650 H656 0.984 . S
N650 H657 0.984 . S
N651 C644 1.356 . S
N651 H654 0.984 . S
N651 H655 0.985 . S
H652 N647 0.984 . S
H653 N647 0.985 . S
H654 N651 0.984 . S
H655 N651 0.985 . S
H656 N650 0.984 . S
H657 N650 0.984 . S
H658 N646 0.984 . S
H659 N646 0.985 . S
C660 C661 1.363 . S
C660 C666 1.379 . S
C660 N668 1.356 . S
C661 C660 1.363 . S
C661 C667 1.363 . S
C662 C663 1.363 . S
C662 C667 1.379 . S
C662 N669 1.356 . S
C663 C662 1.363 . S
C663 C666 1.363 . S
N664 C666 1.356 . S
N664 H676 0.984 . S
N664 H677 0.985 . S
N665 C667 1.356 . S
N665 H670 0.984 . S
N665 H671 0.985 . S
C666 C660 1.379 . S
C666 C663 1.363 . S
C666 N664 1.356 . S
C667 C661 1.363 . S
C667 C662 1.379 . S
C667 N665 1.356 . S
N668 C660 1.356 . S
N668 H674 0.984 . S
N668 H675 0.984 . S
N669 C662 1.356 . S
N669 H672 0.984 . S
N669 H673 0.985 . S
H670 N665 0.984 . S
H671 N665 0.985 . S
H672 N669 0.984 . S
H673 N669 0.985 . S
H674 N668 0.984 . S
H675 N668 0.984 . S
H676 N664 0.984 . S
H677 N664 0.985 . S
C678 C679 1.363 . S
C678 C684 1.379 . S
C678 N686 1.356 . S
C679 C678 1.363 . S
C679 C685 1.363 . S
C680 C681 1.363 . S
C680 C685 1.379 . S
C680 N687 1.356 . S
C681 C680 1.363 . S
C681 C684 1.363 . S
N682 C684 1.356 . S
N682 H694 0.984 . S
N682 H695 0.985 . S
N683 C685 1.356 . S
N683 H688 0.984 . S
N683 H689 0.985 . S
C684 C678 1.379 . S
C684 C681 1.363 . S
C684 N682 1.356 . S
C685 C679 1.363 . S
C685 C680 1.379 . S
C685 N683 1.356 . S
N686 C678 1.356 . S
N686 H692 0.984 . S
N686 H693 0.984 . S
N687 C680 1.356 . S
N687 H690 0.984 . S
N687 H691 0.985 . S
H688 N683 0.984 . S
H689 N683 0.985 . S
H690 N687 0.984 . S
H691 N687 0.985 . S
H692 N686 0.984 . S
H693 N686 0.984 . S
H694 N682 0.984 . S
H695 N682 0.985 . S
C265 N1 0.959 . S
C267 C110 0.991 . S
C283 N18 1.107 . S
C285 C159 1.163 . S
C303 C194 2.191 . S
C301 N28 2.268 . S
C319 N40 2.696 . S
C321 C233 2.707 . S
C339 C154 2.264 . S
C337 N5 2.166 . S
C357 C113 0.575 . S
C355 N14 0.514 . S
C375 C243 2.040 . S
C373 N31 2.064 . S
C393 C202 1.598 . S
C391 N41 1.615 . S
C409 N2 1.308 . S
C411 C230 1.355 . S
C429 C162 2.480 1_556 S
C427 N27 2.567 . S
C445 N44 2.455 . S
C447 C123 2.512 . S
C463 N15 0.956 . S
C465 C199 0.962 . S
C483 C119 1.499 . S
C481 N57 1.576 . S
C499 N70 0.973 . S
C501 C150 1.057 . S
C517 N79 2.402 . S
C519 C203 2.418 . S
C535 N93 2.530 . S
C537 C242 2.513 . S
C553 N54 1.847 . S
C555 C163 2.039 1_565 S
C573 C122 1.309 . S
C571 N66 1.408 . S
C591 C234 1.582 . S
C589 N80 1.669 . S
C609 C193 1.837 . S
C607 N96 1.846 . S
C625 N53 1.537 . S
C627 C239 1.547 . S
C645 C153 2.210 . S
C643 N83 2.231 . S
C663 C114 2.689 . S
C661 N92 2.681 . S
C679 N67 1.173 . S
C681 C190 1.217 . S
