# Generated by pormake.
# Topology apo, (3,6)-cn, num edge types: 1
# Building blocks:
#     Node 0, Type 0, BuildingBlock: KAKCAD_clean_linker_0, # of connection points: 3
#     Node 1, Type 0, BuildingBlock: KAKCAD_clean_linker_0, # of connection points: 3
#     Node 2, Type 0, BuildingBlock: KAKCAD_clean_linker_0, # of connection points: 3
#     Node 3, Type 0, BuildingBlock: KAKCAD_clean_linker_0, # of connection points: 3
#     Node 4, Type 0, BuildingBlock: KAKCAD_clean_linker_0, # of connection points: 3
#     Node 5, Type 0, BuildingBlock: KAKCAD_clean_linker_0, # of connection points: 3
#     Node 6, Type 0, BuildingBlock: KAKCAD_clean_linker_0, # of connection points: 3
#     Node 7, Type 0, BuildingBlock: KAKCAD_clean_linker_0, # of connection points: 3
#     Node 8, Type 1, BuildingBlock: KUMJIN_clean_sbu_1, # of connection points: 6
#     Node 9, Type 1, BuildingBlock: KUMJIN_clean_sbu_1, # of connection points: 6
#     Node 10, Type 1, BuildingBlock: KUMJIN_clean_sbu_1, # of connection points: 6
#     Node 11, Type 1, BuildingBlock: KUMJIN_clean_sbu_1, # of connection points: 6
#     Edge 12, Type (0, 1), BuildingBlock: UVAHIK_clean_linker_0, # of connection points: 2
#     Edge 13, Type (0, 1), BuildingBlock: UVAHIK_clean_linker_0, # of connection points: 2
#     Edge 14, Type (0, 1), BuildingBlock: UVAHIK_clean_linker_0, # of connection points: 2
#     Edge 15, Type (0, 1), BuildingBlock: UVAHIK_clean_linker_0, # of connection points: 2
#     Edge 16, Type (0, 1), BuildingBlock: UVAHIK_clean_linker_0, # of connection points: 2
#     Edge 17, Type (0, 1), BuildingBlock: UVAHIK_clean_linker_0, # of connection points: 2
#     Edge 18, Type (0, 1), BuildingBlock: UVAHIK_clean_linker_0, # of connection points: 2
#     Edge 19, Type (0, 1), BuildingBlock: UVAHIK_clean_linker_0, # of connection points: 2
#     Edge 20, Type (0, 1), BuildingBlock: UVAHIK_clean_linker_0, # of connection points: 2
#     Edge 21, Type (0, 1), BuildingBlock: UVAHIK_clean_linker_0, # of connection points: 2
#     Edge 22, Type (0, 1), BuildingBlock: UVAHIK_clean_linker_0, # of connection points: 2
#     Edge 23, Type (0, 1), BuildingBlock: UVAHIK_clean_linker_0, # of connection points: 2
#     Edge 24, Type (0, 1), BuildingBlock: UVAHIK_clean_linker_0, # of connection points: 2
#     Edge 25, Type (0, 1), BuildingBlock: UVAHIK_clean_linker_0, # of connection points: 2
#     Edge 26, Type (0, 1), BuildingBlock: UVAHIK_clean_linker_0, # of connection points: 2
#     Edge 27, Type (0, 1), BuildingBlock: UVAHIK_clean_linker_0, # of connection points: 2
#     Edge 28, Type (0, 1), BuildingBlock: UVAHIK_clean_linker_0, # of connection points: 2
#     Edge 29, Type (0, 1), BuildingBlock: UVAHIK_clean_linker_0, # of connection points: 2
#     Edge 30, Type (0, 1), BuildingBlock: UVAHIK_clean_linker_0, # of connection points: 2
#     Edge 31, Type (0, 1), BuildingBlock: UVAHIK_clean_linker_0, # of connection points: 2
#     Edge 32, Type (0, 1), BuildingBlock: UVAHIK_clean_linker_0, # of connection points: 2
#     Edge 33, Type (0, 1), BuildingBlock: UVAHIK_clean_linker_0, # of connection points: 2
#     Edge 34, Type (0, 1), BuildingBlock: UVAHIK_clean_linker_0, # of connection points: 2
#     Edge 35, Type (0, 1), BuildingBlock: UVAHIK_clean_linker_0, # of connection points: 2
# Relax obj value: 0.010
# Max RMSD: 0.087
# Mean RMSD: 0.069
data_MOF--net-apo--node1-KUMJIN_clean_sbu_1--node2-KAKCAD_clean_linker_0--edge1-UVAHIK_clean_linker_0
_symmetry_space_group_name_H-M    P1
_symmetry_Int_Tables_number       1
_symmetry_cell_setting            triclinic
loop_
_symmetry_equiv_pos_as_xyz
'x, y, z'
_cell_length_a     36.060342
_cell_length_b     65.19074
_cell_length_c     77.617083
_cell_angle_alpha  89.948837
_cell_angle_beta   89.996096
_cell_angle_gamma 90.112172
loop_
_atom_site_label
_atom_site_type_symbol
_atom_site_fract_x
_atom_site_fract_y
_atom_site_fract_z
_atom_type_partial_charge
C0 C 0.29694 0.4419 0.37776 0.0
C1 C 0.3338 0.44888 0.37861 0.0
C2 C 0.28546 0.42498 0.38752 0.0
C3 C 0.31055 0.41478 0.39842 0.0
C4 C 0.34718 0.42206 0.39954 0.0
C5 C 0.35868 0.43889 0.38974 0.0
C6 C 0.29913 0.39614 0.40812 0.0
C7 C 0.27798 0.38083 0.40004 0.0
C8 C 0.26913 0.36257 0.4087 0.0
C9 C 0.28123 0.3597 0.42574 0.0
C10 C 0.30172 0.37507 0.43422 0.0
C11 C 0.31054 0.39322 0.42525 0.0
C12 C 0.31356 0.37247 0.45248 0.0
C13 C 0.28939 0.36386 0.46475 0.0
C14 C 0.34863 0.37938 0.45792 0.0
C15 C 0.35875 0.37842 0.47528 0.0
C16 C 0.33415 0.37041 0.48762 0.0
C17 C 0.24815 0.34634 0.3996 0.0
C18 C 0.21415 0.3509 0.39172 0.0
C19 C 0.26293 0.32656 0.39793 0.0
C20 C 0.24457 0.31175 0.38805 0.0
C21 C 0.21066 0.3163 0.37988 0.0
C22 C 0.19541 0.336 0.38214 0.0
C23 C 0.2996 0.36281 0.48213 0.0
H24 H 0.27718 0.4492 0.36923 0.0
H25 H 0.25697 0.41984 0.38649 0.0
H26 H 0.36727 0.41444 0.4077 0.0
H27 H 0.38715 0.44405 0.39084 0.0
H28 H 0.26955 0.38274 0.38672 0.0
H29 H 0.32578 0.40531 0.43171 0.0
H30 H 0.27468 0.34549 0.43234 0.0
H31 H 0.26203 0.35859 0.46105 0.0
H32 H 0.36825 0.38568 0.44876 0.0
H33 H 0.38581 0.38407 0.47906 0.0
H34 H 0.2021 0.36604 0.39296 0.0
H35 H 0.28935 0.32279 0.40376 0.0
H36 H 0.27988 0.35675 0.49136 0.0
H37 H 0.16897 0.34001 0.37647 0.0
H38 H 0.25761 0.29693 0.38645 0.0
C39 C 0.20938 0.05874 0.87719 0.0
C40 C 0.17252 0.05181 0.87827 0.0
C41 C 0.22133 0.07546 0.887 0.0
C42 C 0.19677 0.08557 0.89819 0.0
C43 C 0.16008 0.07842 0.89951 0.0
C44 C 0.14805 0.06177 0.88961 0.0
C45 C 0.20921 0.10379 0.90816 0.0
C46 C 0.23045 0.11911 0.90015 0.0
C47 C 0.24264 0.13646 0.90933 0.0
C48 C 0.23278 0.13842 0.92681 0.0
C49 C 0.21112 0.12331 0.93506 0.0
C50 C 0.19967 0.10601 0.92559 0.0
C51 C 0.20059 0.12535 0.95356 0.0
C52 C 0.22605 0.13281 0.96579 0.0
C53 C 0.16515 0.11926 0.95921 0.0
C54 C 0.1558 0.12002 0.97667 0.0
C55 C 0.18153 0.12703 0.98893 0.0
C56 C 0.26502 0.15254 0.90039 0.0
C57 C 0.29137 0.147 0.88785 0.0
C58 C 0.25931 0.17352 0.90375 0.0
C59 C 0.27873 0.18853 0.89448 0.0
C60 C 0.30392 0.18288 0.88152 0.0
C61 C 0.31034 0.16197 0.87844 0.0
C62 C 0.21658 0.1337 0.98327 0.0
H63 H 0.22883 0.05149 0.86848 0.0
H64 H 0.24987 0.08049 0.88583 0.0
H65 H 0.14043 0.08597 0.90793 0.0
H66 H 0.11958 0.05666 0.89086 0.0
H67 H 0.23662 0.11775 0.88654 0.0
H68 H 0.18398 0.09395 0.9319 0.0
H69 H 0.24187 0.15174 0.934 0.0
H70 H 0.25372 0.13741 0.96195 0.0
H71 H 0.14455 0.11386 0.95012 0.0
H72 H 0.12836 0.11509 0.98059 0.0
H73 H 0.29724 0.13103 0.88519 0.0
H74 H 0.23899 0.1784 0.91315 0.0
H75 H 0.23714 0.13898 0.99243 0.0
H76 H 0.33006 0.1572 0.86872 0.0
H77 H 0.27311 0.20456 0.89703 0.0
C78 C 0.8025 0.05877 0.62827 0.0
C79 C 0.8377 0.0502 0.62536 0.0
C80 C 0.79067 0.07585 0.61887 0.0
C81 C 0.81381 0.08484 0.60636 0.0
C82 C 0.84888 0.07614 0.60334 0.0
C83 C 0.86065 0.05901 0.61271 0.0
C84 C 0.80166 0.10342 0.59671 0.0
C85 C 0.78246 0.11921 0.60518 0.0
C86 C 0.77122 0.13692 0.59629 0.0
C87 C 0.77974 0.13884 0.57867 0.0
C88 C 0.7988 0.12318 0.56989 0.0
C89 C 0.80949 0.10551 0.57905 0.0
C90 C 0.80725 0.12512 0.55114 0.0
C91 C 0.78129 0.13378 0.53975 0.0
C92 C 0.8412 0.11811 0.54445 0.0
C93 C 0.84885 0.11955 0.52682 0.0
C94 C 0.82283 0.12813 0.51541 0.0
C95 C 0.75071 0.1534 0.6055 0.0
C96 C 0.72209 0.1484 0.61708 0.0
C97 C 0.75987 0.17417 0.60301 0.0
C98 C 0.74118 0.18955 0.61208 0.0
C99 C 0.71275 0.18453 0.62376 0.0
C100 C 0.7033 0.16377 0.62607 0.0
C101 C 0.78902 0.13532 0.52213 0.0
H102 H 0.78391 0.05215 0.63773 0.0
H103 H 0.76324 0.08192 0.62132 0.0
H104 H 0.86763 0.08284 0.59399 0.0
H105 H 0.88812 0.05296 0.61031 0.0
H106 H 0.77706 0.11797 0.61887 0.0
H107 H 0.82318 0.0931 0.57232 0.0
H108 H 0.77141 0.15255 0.5718 0.0
H109 H 0.75469 0.13913 0.54438 0.0
H110 H 0.86206 0.1116 0.55285 0.0
H111 H 0.875 0.11365 0.52211 0.0
H112 H 0.71411 0.13257 0.61916 0.0
H113 H 0.78196 0.17852 0.59427 0.0
H114 H 0.76851 0.14229 0.51381 0.0
H115 H 0.68181 0.15935 0.6351 0.0
H116 H 0.74891 0.2054 0.60988 0.0
C117 C 0.70335 0.4424 0.1279 0.0
C118 C 0.66752 0.45025 0.1252 0.0
C119 C 0.71599 0.42554 0.11848 0.0
C120 C 0.69309 0.41608 0.10614 0.0
C121 C 0.6574 0.42407 0.10331 0.0
C122 C 0.64478 0.44096 0.11272 0.0
C123 C 0.70618 0.39776 0.09647 0.0
C124 C 0.72632 0.38231 0.10491 0.0
C125 C 0.73875 0.36487 0.09599 0.0
C126 C 0.73032 0.36288 0.07837 0.0
C127 C 0.71011 0.37817 0.06965 0.0
C128 C 0.69838 0.39558 0.07883 0.0
C129 C 0.70144 0.37611 0.05094 0.0
C130 C 0.72773 0.36806 0.03941 0.0
C131 C 0.66688 0.38243 0.04442 0.0
C132 C 0.65899 0.38097 0.02683 0.0
C133 C 0.68535 0.37303 0.01528 0.0
C134 C 0.76025 0.34875 0.10522 0.0
C135 C 0.78738 0.35428 0.11739 0.0
C136 C 0.75332 0.3278 0.10229 0.0
C137 C 0.77253 0.31277 0.11157 0.0
C138 C 0.79902 0.31834 0.12402 0.0
C139 C 0.80646 0.33927 0.12668 0.0
C140 C 0.71975 0.36649 0.02183 0.0
H141 H 0.72178 0.4494 0.13722 0.0
H142 H 0.74386 0.42001 0.12077 0.0
H143 H 0.63885 0.41699 0.09408 0.0
H144 H 0.61687 0.44646 0.11048 0.0
H145 H 0.73152 0.3836 0.11862 0.0
H146 H 0.68384 0.40775 0.07214 0.0
H147 H 0.73955 0.34941 0.07144 0.0
H148 H 0.75477 0.36324 0.04391 0.0
H149 H 0.64575 0.38845 0.05294 0.0
H150 H 0.63236 0.38636 0.02226 0.0
H151 H 0.79397 0.37025 0.11972 0.0
H152 H 0.73233 0.323 0.09316 0.0
H153 H 0.74056 0.36002 0.01338 0.0
H154 H 0.82718 0.34408 0.13595 0.0
H155 H 0.76588 0.29678 0.10933 0.0
C156 C 0.66469 0.5748 0.63451 0.0
C157 C 0.66875 0.55456 0.62856 0.0
C158 C 0.67641 0.59138 0.62446 0.0
C159 C 0.6926 0.58816 0.6082 0.0
C160 C 0.69656 0.56793 0.6022 0.0
C161 C 0.6848 0.55133 0.61227 0.0
C162 C 0.70565 0.60587 0.59768 0.0
C163 C 0.72394 0.62242 0.60557 0.0
C164 C 0.73628 0.63929 0.59587 0.0
C165 C 0.73019 0.63957 0.57798 0.0
C166 C 0.71178 0.62318 0.56983 0.0
C167 C 0.69976 0.60639 0.57978 0.0
C168 C 0.70452 0.62363 0.55096 0.0
C169 C 0.69053 0.64137 0.54298 0.0
C170 C 0.71065 0.60608 0.54088 0.0
C171 C 0.70258 0.60616 0.52327 0.0
C172 C 0.68785 0.62375 0.51528 0.0
C173 C 0.75569 0.65649 0.60459 0.0
C174 C 0.7409 0.66503 0.61971 0.0
C175 C 0.78975 0.66388 0.59832 0.0
C176 C 0.80909 0.67918 0.60726 0.0
C177 C 0.79443 0.68757 0.62249 0.0
C178 C 0.75995 0.68049 0.6285 0.0
C179 C 0.68218 0.64141 0.52536 0.0
H180 H 0.65285 0.57787 0.64706 0.0
H181 H 0.67254 0.60676 0.6294 0.0
H182 H 0.70923 0.5649 0.58981 0.0
H183 H 0.688 0.53595 0.60721 0.0
H184 H 0.72943 0.62199 0.6193 0.0
H185 H 0.68481 0.59395 0.57364 0.0
H186 H 0.73969 0.65255 0.57044 0.0
H187 H 0.68514 0.65506 0.55046 0.0
H188 H 0.72194 0.59227 0.5466 0.0
H189 H 0.70816 0.59242 0.51588 0.0
H190 H 0.7146 0.65969 0.62477 0.0
H191 H 0.80187 0.65747 0.58675 0.0
H192 H 0.67048 0.65516 0.51974 0.0
H193 H 0.74811 0.68655 0.64027 0.0
H194 H 0.8355 0.68445 0.60228 0.0
C195 C 0.80079 0.86249 0.02429 0.0
C196 C 0.83432 0.87109 0.01846 0.0
C197 C 0.79089 0.86359 0.04171 0.0
C198 C 0.81435 0.87328 0.05369 0.0
C199 C 0.84848 0.88121 0.04793 0.0
C200 C 0.8583 0.88016 0.03054 0.0
C201 C 0.80269 0.87595 0.07197 0.0
C202 C 0.78462 0.86003 0.08095 0.0
C203 C 0.77322 0.86269 0.09816 0.0
C204 C 0.77993 0.88165 0.10624 0.0
C205 C 0.79836 0.8976 0.0976 0.0
C206 C 0.80948 0.89464 0.08046 0.0
C207 C 0.80694 0.91708 0.10675 0.0
C208 C 0.78062 0.92621 0.11768 0.0
C209 C 0.84215 0.92618 0.10522 0.0
C210 C 0.85118 0.94367 0.11476 0.0
C211 C 0.82519 0.95249 0.12604 0.0
C212 C 0.75459 0.84581 0.10789 0.0
C213 C 0.72899 0.83263 0.09978 0.0
C214 C 0.76157 0.84311 0.1256 0.0
C215 C 0.7425 0.82824 0.13507 0.0
C216 C 0.71654 0.81539 0.12702 0.0
C217 C 0.71036 0.81747 0.10924 0.0
C218 C 0.78964 0.9437 0.12721 0.0
H219 H 0.78153 0.85558 0.01528 0.0
H220 H 0.76427 0.85749 0.04567 0.0
H221 H 0.86757 0.88838 0.05687 0.0
H222 H 0.88464 0.88659 0.02653 0.0
H223 H 0.78035 0.84539 0.07466 0.0
H224 H 0.82276 0.90714 0.0736 0.0
H225 H 0.7711 0.88399 0.11943 0.0
H226 H 0.75303 0.91977 0.11892 0.0
H227 H 0.8632 0.91938 0.09708 0.0
H228 H 0.87897 0.94988 0.11371 0.0
H229 H 0.72259 0.83434 0.08623 0.0
H230 H 0.78182 0.8525 0.13223 0.0
H231 H 0.76877 0.95032 0.13555 0.0
H232 H 0.69034 0.80776 0.10276 0.0
H233 H 0.74821 0.82671 0.14871 0.0
C234 C 0.16434 0.92868 0.3721 0.0
C235 C 0.15983 0.94794 0.38 0.0
C236 C 0.17727 0.91186 0.38145 0.0
C237 C 0.18706 0.91381 0.39892 0.0
C238 C 0.18298 0.93311 0.40682 0.0
C239 C 0.16928 0.94989 0.39753 0.0
C240 C 0.20122 0.89572 0.40876 0.0
C241 C 0.22278 0.88071 0.40045 0.0
C242 C 0.23452 0.86297 0.40917 0.0
C243 C 0.22555 0.8606 0.42667 0.0
C244 C 0.20477 0.87561 0.43536 0.0
C245 C 0.19257 0.89303 0.4263 0.0
C246 C 0.19529 0.87296 0.45386 0.0
C247 C 0.18135 0.85418 0.45996 0.0
C248 C 0.20027 0.88917 0.46556 0.0
C249 C 0.19211 0.88654 0.48305 0.0
C250 C 0.17838 0.86769 0.48924 0.0
C251 C 0.25549 0.84685 0.39975 0.0
C252 C 0.24465 0.84107 0.38304 0.0
C253 C 0.28658 0.83731 0.40717 0.0
C254 C 0.30674 0.82261 0.39795 0.0
C255 C 0.29621 0.8171 0.38112 0.0
C256 C 0.2647 0.82639 0.37386 0.0
C257 C 0.17279 0.85162 0.4774 0.0
H258 H 0.15817 0.92652 0.35857 0.0
H259 H 0.17922 0.89724 0.37491 0.0
H260 H 0.19062 0.93537 0.42017 0.0
H261 H 0.16581 0.96433 0.4042 0.0
H262 H 0.23093 0.88288 0.38715 0.0
H263 H 0.1753 0.90413 0.43286 0.0
H264 H 0.23455 0.847 0.43352 0.0
H265 H 0.17668 0.84152 0.45119 0.0
H266 H 0.21128 0.90377 0.46124 0.0
H267 H 0.19737 0.89918 0.49176 0.0
H268 H 0.22039 0.84781 0.37708 0.0
H269 H 0.29582 0.84155 0.41996 0.0
H270 H 0.16154 0.83702 0.48157 0.0
H271 H 0.25529 0.82221 0.36109 0.0
H272 H 0.33107 0.81591 0.40387 0.0
C273 C 0.28841 0.63806 0.98339 0.0
C274 C 0.32157 0.63062 0.99055 0.0
C275 C 0.28072 0.63541 0.96588 0.0
C276 C 0.30616 0.6254 0.95502 0.0
C277 C 0.33928 0.61786 0.96224 0.0
C278 C 0.34679 0.62035 0.97981 0.0
C279 C 0.2983 0.623 0.93624 0.0
C280 C 0.28061 0.63878 0.92696 0.0
C281 C 0.27336 0.63673 0.90924 0.0
C282 C 0.28416 0.61866 0.90078 0.0
C283 C 0.30184 0.6027 0.90976 0.0
C284 C 0.30865 0.60499 0.92749 0.0
C285 C 0.31357 0.5838 0.90049 0.0
C286 C 0.29059 0.57492 0.88789 0.0
C287 C 0.34832 0.57485 0.90379 0.0
C288 C 0.36011 0.55771 0.89445 0.0
C289 C 0.33748 0.54915 0.88156 0.0
C290 C 0.25453 0.65341 0.8995 0.0
C291 C 0.22345 0.66346 0.90642 0.0
C292 C 0.267 0.65907 0.883 0.0
C293 C 0.24848 0.67415 0.87353 0.0
C294 C 0.21694 0.68394 0.88028 0.0
C295 C 0.20484 0.67853 0.89692 0.0
C296 C 0.30242 0.55783 0.87853 0.0
H297 H 0.26817 0.64578 0.99139 0.0
H298 H 0.25461 0.64105 0.9609 0.0
H299 H 0.35982 0.61037 0.95427 0.0
H300 H 0.37275 0.61464 0.98492 0.0
H301 H 0.27333 0.65295 0.93339 0.0
H302 H 0.32135 0.5925 0.93456 0.0
H303 H 0.27885 0.61704 0.88711 0.0
H304 H 0.26338 0.58117 0.88525 0.0
H305 H 0.36689 0.58144 0.91326 0.0
H306 H 0.38746 0.55156 0.89697 0.0
H307 H 0.21291 0.6593 0.91902 0.0
H308 H 0.29126 0.6519 0.87742 0.0
H309 H 0.28403 0.55139 0.8689 0.0
H310 H 0.1804 0.68556 0.90244 0.0
H311 H 0.25905 0.67821 0.86092 0.0
Eu312 Eu 0.0486 0.13732 0.23923 0.0
C313 C 0.88126 0.12052 0.24992 0.0
N314 N 0.89836 0.13912 0.24929 0.0
C315 C 0.85189 0.1518 0.23001 0.0
C316 C 0.849 0.11673 0.24015 0.0
C317 C 0.88399 0.15481 0.23979 0.0
C318 C 0.8344 0.13266 0.23012 0.0
C319 C 0.87994 0.08551 0.26056 0.0
C320 C 0.89694 0.10502 0.25989 0.0
C321 C 0.84812 0.08161 0.25065 0.0
C322 C 0.83268 0.09717 0.24049 0.0
Eu323 Eu 0.95253 0.14283 0.26598 0.0
N324 N 0.92818 0.10912 0.26919 0.0
C325 C 0.89492 0.0706 0.27148 0.0
C326 C 0.94057 0.09523 0.28105 0.0
C327 C 0.9249 0.07563 0.28202 0.0
H328 H 0.89724 0.16966 0.23986 0.0
H329 H 0.93547 0.06456 0.29118 0.0
H330 H 0.10374 0.11216 0.26661 0.0
H331 H 0.06372 0.21482 0.21217 0.0
H332 H 0.96164 0.09924 0.29026 0.0
H333 H 0.88266 0.05545 0.27237 0.0
H334 H 0.03914 0.17978 0.21362 0.0
H335 H 0.84066 0.16424 0.22239 0.0
H336 H 0.83494 0.06666 0.25092 0.0
H337 H 0.80805 0.09392 0.23297 0.0
H338 H 0.1588 0.11913 0.28477 0.0
H339 H 0.80967 0.13034 0.22243 0.0
H340 H 0.1145 0.22547 0.2316 0.0
N341 N 0.10175 0.14237 0.25641 0.0
C342 C 0.1178 0.16125 0.25564 0.0
C343 C 0.14747 0.13111 0.27668 0.0
C344 C 0.14898 0.16593 0.26587 0.0
C345 C 0.11634 0.12721 0.26645 0.0
C346 C 0.16374 0.15058 0.27647 0.0
N347 N 0.07173 0.17118 0.23537 0.0
C348 C 0.05948 0.18444 0.22299 0.0
C349 C 0.11792 0.1959 0.24421 0.0
C350 C 0.10199 0.17613 0.24507 0.0
C351 C 0.10303 0.21015 0.23266 0.0
C352 C 0.07419 0.20424 0.22176 0.0
H353 H 0.18766 0.1536 0.28453 0.0
H354 H 0.18786 0.18972 0.27328 0.0
H355 H 0.16094 0.21588 0.25421 0.0
O356 O 0.06458 0.13544 0.21172 0.0
O357 O 0.04913 0.15083 0.26625 0.0
O358 O 0.99461 0.16859 0.26828 0.0
O359 O 0.09271 0.11682 0.2311 0.0
O360 O 0.00051 0.15423 0.22634 0.0
O361 O 0.96945 0.1695 0.24902 0.0
O362 O 0.93753 0.14346 0.29357 0.0
O363 O 0.95099 0.1287 0.23913 0.0
O364 O 0.00639 0.11171 0.23691 0.0
O365 O 0.90915 0.16332 0.27513 0.0
O366 O 0.00042 0.12558 0.27871 0.0
O367 O 0.03179 0.11045 0.25601 0.0
C368 C 0.03001 0.16657 0.27173 0.0
C369 C 0.11435 0.11246 0.20178 0.0
C370 C 0.13256 0.10702 0.17181 0.0
C371 C 0.15859 0.0924 0.17727 0.0
C372 C 0.14088 0.09788 0.20691 0.0
C373 C 0.16285 0.08799 0.19472 0.0
C374 C 0.11063 0.11722 0.18413 0.0
C375 C 0.97818 0.16846 0.23257 0.0
C376 C 0.09003 0.1218 0.21496 0.0
C377 C 0.1641 0.18578 0.26539 0.0
C378 C 0.14864 0.20071 0.2546 0.0
C379 C 0.97098 0.11341 0.23335 0.0
C380 C 0.8886 0.16596 0.30483 0.0
C381 C 0.86575 0.16593 0.33451 0.0
C382 C 0.84107 0.18179 0.33019 0.0
C383 C 0.86371 0.18185 0.30089 0.0
C384 C 0.88982 0.15817 0.32178 0.0
C385 C 0.84024 0.18973 0.31352 0.0
C386 C 0.02241 0.11127 0.27238 0.0
C387 C 0.91207 0.15729 0.29102 0.0
H388 H 0.17583 0.08446 0.168 0.0
H389 H 0.14448 0.09393 0.22036 0.0
H390 H 0.18307 0.07674 0.19881 0.0
H391 H 0.09024 0.12836 0.17995 0.0
H392 H 0.82258 0.18818 0.33978 0.0
H393 H 0.86217 0.18818 0.288 0.0
H394 H 0.90867 0.14581 0.32496 0.0
H395 H 0.82118 0.20197 0.31035 0.0
Eu396 Eu 0.4573 0.36222 0.73883 0.0
C397 C 0.62403 0.38151 0.74974 0.0
N398 N 0.60753 0.36273 0.74925 0.0
C399 C 0.65487 0.35023 0.73036 0.0
C400 C 0.65639 0.38547 0.74008 0.0
C401 C 0.62266 0.34706 0.74002 0.0
C402 C 0.67173 0.36954 0.73031 0.0
C403 C 0.62381 0.41672 0.75983 0.0
C404 C 0.60758 0.39701 0.7594 0.0
C405 C 0.65581 0.42077 0.75008 0.0
C406 C 0.67206 0.40519 0.74024 0.0
Eu407 Eu 0.55329 0.35868 0.76587 0.0
N408 N 0.57615 0.39277 0.76854 0.0
C409 C 0.60783 0.43173 0.77032 0.0
C410 C 0.56257 0.40687 0.77989 0.0
C411 C 0.5775 0.42665 0.78063 0.0
H412 H 0.61005 0.33205 0.74029 0.0
H413 H 0.56605 0.43785 0.78943 0.0
H414 H 0.3986 0.38623 0.76524 0.0
H415 H 0.44758 0.28513 0.71058 0.0
H416 H 0.54117 0.40289 0.7889 0.0
H417 H 0.61949 0.44704 0.77102 0.0
H418 H 0.47076 0.32033 0.71303 0.0
H419 H 0.6667 0.33778 0.72297 0.0
H420 H 0.66844 0.43587 0.75018 0.0
H421 H 0.69679 0.40856 0.73282 0.0
H422 H 0.34135 0.37858 0.78165 0.0
H423 H 0.69657 0.37199 0.72272 0.0
H424 H 0.39505 0.27362 0.72863 0.0
N425 N 0.40278 0.35624 0.75482 0.0
C426 C 0.38744 0.33724 0.75345 0.0
C427 C 0.3541 0.36681 0.77382 0.0
C428 C 0.35495 0.33217 0.76265 0.0
C429 C 0.38651 0.37109 0.7646 0.0
C430 C 0.33832 0.34725 0.77291 0.0
N431 N 0.43602 0.32811 0.73425 0.0
C432 C 0.44985 0.31525 0.72194 0.0
C433 C 0.38953 0.30285 0.7416 0.0
C434 C 0.40492 0.32269 0.74317 0.0
C435 C 0.40606 0.28898 0.73022 0.0
C436 C 0.43587 0.29537 0.7201 0.0
H437 H 0.31335 0.34394 0.78017 0.0
H438 H 0.31561 0.30802 0.76859 0.0
H439 H 0.34567 0.28241 0.75006 0.0
O440 O 0.44358 0.36446 0.71106 0.0
O441 O 0.45556 0.34803 0.76564 0.0
O442 O 0.51224 0.33244 0.76824 0.0
O443 O 0.41278 0.3821 0.73018 0.0
O444 O 0.507 0.34647 0.72626 0.0
O445 O 0.53805 0.33161 0.74907 0.0
O446 O 0.56887 0.35876 0.79343 0.0
O447 O 0.55405 0.37328 0.73916 0.0
O448 O 0.49741 0.3889 0.73765 0.0
O449 O 0.59717 0.33867 0.77518 0.0
O450 O 0.50439 0.37477 0.77887 0.0
O451 O 0.471 0.38891 0.75634 0.0
C452 C 0.47704 0.33388 0.77232 0.0
C453 C 0.39345 0.38688 0.70059 0.0
C454 C 0.37685 0.39231 0.67041 0.0
C455 C 0.3504 0.40686 0.67556 0.0
C456 C 0.36653 0.40138 0.70539 0.0
C457 C 0.34515 0.41124 0.69295 0.0
C458 C 0.39819 0.38216 0.683 0.0
C459 C 0.52983 0.33255 0.73258 0.0
C460 C 0.41713 0.37758 0.71403 0.0
C461 C 0.34037 0.31224 0.7615 0.0
C462 C 0.35761 0.29763 0.75102 0.0
C463 C 0.53261 0.38807 0.73356 0.0
C464 C 0.6185 0.3367 0.80476 0.0
C465 C 0.6415 0.33697 0.83439 0.0
C466 C 0.66692 0.32151 0.83004 0.0
C467 C 0.64413 0.32118 0.80078 0.0
C468 C 0.617 0.34442 0.8217 0.0
C469 C 0.66805 0.31363 0.81337 0.0
C470 C 0.48023 0.38814 0.77274 0.0
C471 C 0.59449 0.34499 0.79098 0.0
H472 H 0.33356 0.41475 0.66609 0.0
H473 H 0.36218 0.40531 0.7188 0.0
H474 H 0.32461 0.42242 0.69679 0.0
H475 H 0.4189 0.37108 0.67907 0.0
H476 H 0.68577 0.31538 0.83961 0.0
H477 H 0.6459 0.3149 0.78789 0.0
H478 H 0.59754 0.35648 0.82492 0.0
H479 H 0.68767 0.30168 0.81017 0.0
Eu480 Eu 0.05309 0.85829 0.73952 0.0
C481 C 0.88742 0.83705 0.75244 0.0
N482 N 0.90273 0.85605 0.75102 0.0
C483 C 0.85384 0.86663 0.73212 0.0
C484 C 0.85484 0.83198 0.74332 0.0
C485 C 0.88634 0.87091 0.74127 0.0
C486 C 0.8381 0.84706 0.73309 0.0
C487 C 0.88959 0.80267 0.76437 0.0
C488 C 0.90499 0.8225 0.76271 0.0
C489 C 0.85755 0.79746 0.75505 0.0
C490 C 0.84023 0.81207 0.74456 0.0
Eu491 Eu 0.95743 0.86202 0.76686 0.0
N492 N 0.9362 0.82792 0.77155 0.0
C493 C 0.9062 0.78881 0.77575 0.0
C494 C 0.9501 0.81508 0.78387 0.0
C495 C 0.93612 0.7952 0.7858 0.0
H496 H 0.8984 0.88606 0.7406 0.0
H497 H 0.9479 0.78497 0.79532 0.0
H498 H 0.10976 0.83257 0.76586 0.0
H499 H 0.06562 0.93666 0.71403 0.0
H500 H 0.97109 0.82017 0.79273 0.0
H501 H 0.89519 0.77346 0.7774 0.0
H502 H 0.04089 0.9017 0.71538 0.0
H503 H 0.841 0.8784 0.72431 0.0
H504 H 0.84558 0.78225 0.75608 0.0
H505 H 0.81538 0.80785 0.73755 0.0
H506 H 0.16645 0.83894 0.783 0.0
H507 H 0.81305 0.84375 0.72589 0.0
H508 H 0.11884 0.94654 0.7323 0.0
N509 N 0.10714 0.86296 0.75614 0.0
C510 C 0.12354 0.88174 0.75521 0.0
C511 C 0.15456 0.85113 0.77531 0.0
C512 C 0.1559 0.88605 0.76476 0.0
C513 C 0.12235 0.8476 0.76574 0.0
C514 C 0.17133 0.87046 0.77489 0.0
N515 N 0.07568 0.89233 0.73609 0.0
C516 C 0.06217 0.90602 0.72435 0.0
C517 C 0.12319 0.91662 0.74426 0.0
C518 C 0.10701 0.89691 0.74517 0.0
C519 C 0.10723 0.93125 0.73337 0.0
C520 C 0.07702 0.92578 0.72314 0.0
H521 H 0.19616 0.87318 0.78241 0.0
H522 H 0.19617 0.90942 0.77147 0.0
H523 H 0.16773 0.93612 0.75345 0.0
O524 O 0.06879 0.8575 0.71189 0.0
O525 O 0.05416 0.87298 0.76619 0.0
O526 O 0.99761 0.88867 0.76781 0.0
O527 O 0.09724 0.83827 0.73076 0.0
O528 O 0.00408 0.87439 0.72661 0.0
O529 O 0.97108 0.88865 0.7492 0.0
O530 O 0.94403 0.86427 0.79468 0.0
O531 O 0.95523 0.84783 0.74008 0.0
O532 O 0.01177 0.83213 0.73729 0.0
O533 O 0.91306 0.88193 0.77561 0.0
O534 O 0.00726 0.84625 0.77933 0.0
O535 O 0.03775 0.83131 0.75643 0.0
C536 C 0.03283 0.88778 0.77184 0.0
C537 C 0.11939 0.83534 0.70144 0.0
C538 C 0.13861 0.83124 0.67138 0.0
C539 C 0.16745 0.81829 0.67691 0.0
C540 C 0.14834 0.82224 0.7065 0.0
C541 C 0.17218 0.81385 0.69431 0.0
C542 C 0.11471 0.83991 0.6838 0.0
C543 C 0.98009 0.88782 0.73277 0.0
C544 C 0.09468 0.844 0.71479 0.0
C545 C 0.17147 0.90579 0.76413 0.0
C546 C 0.15515 0.92102 0.75393 0.0
C547 C 0.97654 0.83369 0.7333 0.0
C548 C 0.89398 0.88669 0.80524 0.0
C549 C 0.87738 0.89206 0.83543 0.0
C550 C 0.85082 0.90656 0.83026 0.0
C551 C 0.86697 0.90115 0.80044 0.0
C552 C 0.89878 0.88197 0.82283 0.0
C553 C 0.84554 0.91095 0.81288 0.0
C554 C 0.02987 0.83228 0.77294 0.0
C555 C 0.91753 0.87739 0.79175 0.0
H556 H 0.18679 0.81175 0.66776 0.0
H557 H 0.15277 0.81851 0.71995 0.0
H558 H 0.19451 0.80388 0.69838 0.0
H559 H 0.09232 0.84988 0.67975 0.0
H560 H 0.83391 0.9144 0.83973 0.0
H561 H 0.86255 0.90509 0.78703 0.0
H562 H 0.91954 0.87091 0.82676 0.0
H563 H 0.82492 0.9221 0.80903 0.0
Eu564 Eu 0.45192 0.64252 0.24029 0.0
C565 C 0.61551 0.66484 0.24819 0.0
N566 N 0.60172 0.64541 0.2478 0.0
C567 C 0.64726 0.63566 0.2269 0.0
C568 C 0.64526 0.67058 0.23741 0.0
C569 C 0.61743 0.63072 0.23765 0.0
C570 C 0.66107 0.6557 0.22669 0.0
C571 C 0.61265 0.69943 0.25959 0.0
C572 C 0.59891 0.67915 0.259 0.0
C573 C 0.64172 0.70532 0.24858 0.0
C574 C 0.65797 0.69094 0.23753 0.0
Eu575 Eu 0.55015 0.63864 0.26563 0.0
N576 N 0.57027 0.67313 0.26931 0.0
C577 C 0.59743 0.71306 0.27155 0.0
C578 C 0.55821 0.68577 0.28216 0.0
C579 C 0.57071 0.70605 0.28315 0.0
H580 H 0.60658 0.61526 0.23776 0.0
H581 H 0.56023 0.71614 0.29308 0.0
H582 H 0.39876 0.67058 0.2665 0.0
H583 H 0.43272 0.56326 0.21788 0.0
H584 H 0.53971 0.68027 0.29202 0.0
H585 H 0.60724 0.72875 0.27242 0.0
H586 H 0.45992 0.59768 0.21767 0.0
H587 H 0.65943 0.62404 0.21872 0.0
H588 H 0.65226 0.7209 0.24873 0.0
H589 H 0.68054 0.69569 0.22921 0.0
H590 H 0.34315 0.66614 0.28477 0.0
H591 H 0.68395 0.65952 0.21822 0.0
H592 H 0.37998 0.55541 0.23714 0.0
N593 N 0.39872 0.63975 0.25779 0.0
C594 C 0.38105 0.62129 0.25776 0.0
C595 C 0.35364 0.65338 0.27732 0.0
C596 C 0.34919 0.61808 0.26796 0.0
C597 C 0.38529 0.65582 0.26711 0.0
C598 C 0.33559 0.63441 0.27781 0.0
N599 N 0.42679 0.60885 0.23834 0.0
C600 C 0.43878 0.5943 0.227 0.0
C601 C 0.37833 0.58595 0.24804 0.0
C602 C 0.3958 0.60535 0.248 0.0
C603 C 0.39262 0.5705 0.23748 0.0
C604 C 0.42255 0.57482 0.22669 0.0
H605 H 0.31119 0.63254 0.28581 0.0
H606 H 0.30795 0.59588 0.27609 0.0
H607 H 0.33329 0.56781 0.25858 0.0
O608 O 0.43589 0.64279 0.2127 0.0
O609 O 0.45275 0.62795 0.26701 0.0
O610 O 0.50963 0.61232 0.26865 0.0
O611 O 0.40745 0.66224 0.23139 0.0
O612 O 0.49884 0.62499 0.22701 0.0
O613 O 0.53432 0.61136 0.24915 0.0
O614 O 0.56793 0.63691 0.29289 0.0
O615 O 0.54799 0.65114 0.2383 0.0
O616 O 0.49315 0.66861 0.23718 0.0
O617 O 0.59625 0.61907 0.2731 0.0
O618 O 0.50168 0.65444 0.27911 0.0
O619 O 0.46939 0.66949 0.25676 0.0
C620 C 0.47429 0.61318 0.27258 0.0
C621 C 0.38497 0.66463 0.20208 0.0
C622 C 0.36572 0.66844 0.17199 0.0
C623 C 0.33677 0.68136 0.17743 0.0
C624 C 0.35587 0.67767 0.20705 0.0
C625 C 0.33197 0.68591 0.1948 0.0
C626 C 0.38968 0.65992 0.18448 0.0
C627 C 0.52296 0.61149 0.23302 0.0
C628 C 0.40991 0.65627 0.21549 0.0
C629 C 0.3323 0.59867 0.26824 0.0
C630 C 0.34684 0.58266 0.25833 0.0
C631 C 0.52808 0.6666 0.23287 0.0
C632 C 0.61987 0.61506 0.30215 0.0
C633 C 0.63904 0.60916 0.33195 0.0
C634 C 0.66685 0.59585 0.32606 0.0
C635 C 0.64817 0.6018 0.29661 0.0
C636 C 0.61573 0.61896 0.31993 0.0
C637 C 0.67151 0.59234 0.3085 0.0
C638 C 0.4787 0.66849 0.27313 0.0
C639 C 0.59414 0.62387 0.28929 0.0
H640 H 0.31742 0.6878 0.16823 0.0
H641 H 0.35142 0.68151 0.22047 0.0
H642 H 0.30955 0.69585 0.1988 0.0
H643 H 0.41215 0.64999 0.18048 0.0
H644 H 0.68517 0.58824 0.33509 0.0
H645 H 0.65212 0.59855 0.28305 0.0
H646 H 0.59396 0.62905 0.32444 0.0
H647 H 0.69311 0.5821 0.30408 0.0
C648 C 0.11964 0.96277 0.3565 0.0
C649 C 0.14542 0.96578 0.36992 0.0
C650 C 0.1074 0.97924 0.34651 0.0
C651 C 0.08607 0.03234 0.34598 0.0
H652 H 0.11097 0.03226 0.29739 0.0
C653 C 0.04531 0.09981 0.30125 0.0
C654 C 0.03694 0.09529 0.28401 0.0
C655 C 0.05984 0.08467 0.3121 0.0
C656 C 0.10311 0.03243 0.31084 0.0
H657 H 0.17786 0.98894 0.38335 0.0
H658 H 0.15475 0.0178 0.36635 0.0
H659 H 0.13256 0.00449 0.31584 0.0
H660 H 0.03605 0.07141 0.26466 0.0
H661 H 0.05936 0.04474 0.28367 0.0
H662 H 0.05498 0.05958 0.34103 0.0
C663 C 0.14468 0.00249 0.36357 0.0
C664 C 0.11586 0.01658 0.32141 0.0
C665 C 0.15765 0.98593 0.37336 0.0
C666 C 0.04275 0.07534 0.27786 0.0
C667 C 0.05643 0.06009 0.28878 0.0
C668 C 0.07255 0.04798 0.33534 0.0
C669 C 0.11986 0.99919 0.34995 0.0
C670 C 0.10737 0.0164 0.33902 0.0
C671 C 0.06554 0.06454 0.30604 0.0
C672 C 0.08073 0.04821 0.31757 0.0
H673 H 0.10866 0.94768 0.35369 0.0
H674 H 0.08792 0.97643 0.33614 0.0
H675 H 0.07905 0.03237 0.35955 0.0
H676 H 0.04136 0.11517 0.30623 0.0
H677 H 0.06707 0.08889 0.32516 0.0
C678 C 0.3449 0.53156 0.85302 0.0
C679 C 0.35087 0.5317 0.87092 0.0
C680 C 0.35843 0.51556 0.84286 0.0
C681 C 0.39103 0.46193 0.84452 0.0
H682 H 0.43771 0.47587 0.80105 0.0
C683 C 0.46867 0.40219 0.80245 0.0
C684 C 0.46436 0.40378 0.78449 0.0
C685 C 0.45455 0.41737 0.81338 0.0
C686 C 0.42435 0.47166 0.81304 0.0
H687 H 0.37512 0.51486 0.89221 0.0
H688 H 0.39908 0.48695 0.87441 0.0
H689 H 0.41341 0.503 0.81933 0.0
H690 H 0.44097 0.42238 0.764 0.0
H691 H 0.41585 0.44849 0.78298 0.0
H692 H 0.40184 0.43053 0.83815 0.0
C693 C 0.38375 0.49922 0.86827 0.0
C694 C 0.41045 0.48724 0.82354 0.0
C695 C 0.37034 0.5153 0.87844 0.0
C696 C 0.445 0.42068 0.77775 0.0
C697 C 0.43082 0.43577 0.78865 0.0
C698 C 0.40487 0.4463 0.83397 0.0
C699 C 0.37821 0.49925 0.85033 0.0
C700 C 0.39345 0.48257 0.83936 0.0
C701 C 0.4357 0.43444 0.80659 0.0
C702 C 0.42153 0.45097 0.81805 0.0
H703 H 0.33035 0.54404 0.84678 0.0
H704 H 0.3533 0.51593 0.82911 0.0
H705 H 0.37776 0.45781 0.85656 0.0
H706 H 0.48328 0.38932 0.80808 0.0
H707 H 0.45905 0.41592 0.82712 0.0
C708 C 0.67753 0.51891 0.64041 0.0
C709 C 0.6563 0.53695 0.63936 0.0
C710 C 0.66605 0.50255 0.65083 0.0
C711 C 0.60606 0.49053 0.68811 0.0
H712 H 0.61177 0.43461 0.67135 0.0
C713 C 0.53068 0.42383 0.72198 0.0
C714 C 0.54876 0.40482 0.72308 0.0
C715 C 0.54581 0.43977 0.7122 0.0
C716 C 0.61048 0.4501 0.67633 0.0
H717 H 0.60581 0.55166 0.64814 0.0
H718 H 0.58595 0.52323 0.66633 0.0
H719 H 0.63433 0.46271 0.65335 0.0
H720 H 0.59638 0.38742 0.71444 0.0
H721 H 0.62343 0.41545 0.69771 0.0
H722 H 0.58212 0.478 0.71105 0.0
C723 C 0.6118 0.52186 0.65932 0.0
C724 C 0.62337 0.46621 0.666 0.0
C725 C 0.6232 0.53816 0.64889 0.0
C726 C 0.58218 0.40203 0.71409 0.0
C727 C 0.59741 0.41801 0.70433 0.0
C728 C 0.59326 0.47444 0.69844 0.0
C729 C 0.63314 0.50388 0.66047 0.0
C730 C 0.62093 0.48663 0.6717 0.0
C731 C 0.57937 0.43708 0.70325 0.0
C732 C 0.59491 0.45405 0.69261 0.0
H733 H 0.70342 0.51756 0.63344 0.0
H734 H 0.68332 0.48901 0.65158 0.0
H735 H 0.60443 0.50605 0.69303 0.0
H736 H 0.50485 0.42647 0.72874 0.0
H737 H 0.53084 0.45413 0.71143 0.0
C738 C 0.82474 0.97102 0.1544 0.0
C739 C 0.83566 0.97028 0.13702 0.0
C740 C 0.83616 0.98715 0.165 0.0
C741 C 0.8744 0.03995 0.16424 0.0
H742 H 0.90913 0.02614 0.21008 0.0
C743 C 0.92074 0.10172 0.21333 0.0
C744 C 0.95315 0.09744 0.22268 0.0
C745 C 0.90389 0.08651 0.20331 0.0
C746 C 0.89965 0.03024 0.1973 0.0
H747 H 0.86626 0.98628 0.11704 0.0
H748 H 0.88674 0.01425 0.13562 0.0
H749 H 0.88448 0.99928 0.1915 0.0
H750 H 0.99348 0.07394 0.22886 0.0
H751 H 0.96455 0.04752 0.21116 0.0
H752 H 0.89059 0.07084 0.1699 0.0
C753 C 0.86908 0.00243 0.14102 0.0
C754 C 0.88511 0.01489 0.18671 0.0
C755 C 0.85769 0.98628 0.13041 0.0
C756 C 0.96852 0.0777 0.22177 0.0
C757 C 0.95172 0.0625 0.21177 0.0
C758 C 0.88889 0.05533 0.17485 0.0
C759 C 0.85877 0.00295 0.15849 0.0
C760 C 0.87261 0.01952 0.17 0.0
C761 C 0.91923 0.06673 0.2024 0.0
C762 C 0.90203 0.05061 0.19144 0.0
H763 H 0.80809 0.95886 0.15995 0.0
H764 H 0.82738 0.98721 0.17835 0.0
H765 H 0.86464 0.04407 0.1515 0.0
H766 H 0.90863 0.1169 0.21357 0.0
H767 H 0.87874 0.09023 0.19636 0.0
C768 C 0.87 0.01615 0.62789 0.0
C769 C 0.85068 0.03239 0.63571 0.0
C770 C 0.88264 0.99957 0.63772 0.0
C771 C 0.86912 0.97351 0.67984 0.0
H772 H 0.96672 0.95112 0.67073 0.0
C773 C 0.94434 0.92018 0.72765 0.0
C774 C 0.9638 0.90329 0.72097 0.0
C775 C 0.92933 0.93498 0.71667 0.0
C776 C 0.93922 0.95703 0.6733 0.0
H777 H 0.82996 0.04403 0.66002 0.0
H778 H 0.85221 0.01527 0.67715 0.0
H779 H 0.94289 0.97877 0.65269 0.0
H780 H 0.98218 0.88859 0.69742 0.0
H781 H 0.95612 0.91457 0.67822 0.0
H782 H 0.86575 0.95197 0.70063 0.0
C783 C 0.85696 0.0151 0.66338 0.0
C784 C 0.92551 0.97287 0.66295 0.0
C785 C 0.84422 0.03162 0.65355 0.0
C786 C 0.96762 0.90149 0.703 0.0
C787 C 0.95279 0.91639 0.69201 0.0
C788 C 0.88288 0.95773 0.69022 0.0
C789 C 0.87637 0.99886 0.6556 0.0
C790 C 0.8904 0.98144 0.66618 0.0
C791 C 0.9335 0.93332 0.69873 0.0
C792 C 0.91821 0.94942 0.68716 0.0
H793 H 0.875 0.01614 0.61413 0.0
H794 H 0.89699 0.98719 0.63125 0.0
H795 H 0.84168 0.97944 0.6825 0.0
H796 H 0.94093 0.92213 0.74142 0.0
H797 H 0.91505 0.94796 0.72228 0.0
C798 C 0.66089 0.46878 0.15338 0.0
C799 C 0.65371 0.4678 0.1356 0.0
C800 C 0.64751 0.48508 0.16325 0.0
C801 C 0.57621 0.5258 0.16343 0.0
H802 H 0.63704 0.54847 0.19997 0.0
C803 C 0.5324 0.59696 0.20332 0.0
C804 C 0.53821 0.59573 0.22121 0.0
C805 C 0.54701 0.58204 0.1923 0.0
C806 C 0.6196 0.5422 0.1899 0.0
H807 H 0.62733 0.48342 0.1142 0.0
H808 H 0.60412 0.51197 0.13142 0.0
H809 H 0.66176 0.52131 0.18177 0.0
H810 H 0.56409 0.57782 0.24149 0.0
H811 H 0.58943 0.55192 0.22232 0.0
H812 H 0.53402 0.54673 0.17164 0.0
C813 C 0.61961 0.49993 0.13778 0.0
C814 C 0.63375 0.52661 0.17947 0.0
C815 C 0.63293 0.48358 0.12791 0.0
C816 C 0.55914 0.57932 0.22779 0.0
C817 C 0.57386 0.5645 0.21678 0.0
C818 C 0.56209 0.54146 0.17384 0.0
C819 C 0.62669 0.50086 0.15559 0.0
C820 C 0.61211 0.51806 0.16621 0.0
C821 C 0.56798 0.56566 0.19891 0.0
C822 C 0.5835 0.5497 0.18731 0.0
H823 H 0.67626 0.4567 0.15976 0.0
H824 H 0.65292 0.48509 0.17698 0.0
H825 H 0.5586 0.51941 0.15348 0.0
H826 H 0.51666 0.60949 0.19781 0.0
H827 H 0.5423 0.58348 0.17857 0.0
C828 C 0.38096 0.46499 0.3591 0.0
C829 C 0.34667 0.46617 0.36763 0.0
C830 C 0.39347 0.48121 0.34887 0.0
C831 C 0.36208 0.52767 0.32558 0.0
H832 H 0.46666 0.54154 0.32715 0.0
C833 C 0.42501 0.59975 0.29246 0.0
C834 C 0.45837 0.59675 0.28346 0.0
C835 C 0.41007 0.58407 0.30265 0.0
C836 C 0.43744 0.53774 0.32645 0.0
H837 H 0.29856 0.48532 0.3721 0.0
H838 H 0.32059 0.51383 0.35435 0.0
H839 H 0.44297 0.51392 0.34519 0.0
H840 H 0.50231 0.57499 0.27812 0.0
H841 H 0.47657 0.54778 0.29606 0.0
H842 H 0.35672 0.55173 0.30687 0.0
C843 C 0.33758 0.5002 0.35537 0.0
C844 C 0.42385 0.52188 0.33677 0.0
C845 C 0.32497 0.48389 0.36557 0.0
C846 C 0.47666 0.57783 0.28497 0.0
C847 C 0.46194 0.56225 0.29526 0.0
C848 C 0.3757 0.54365 0.31529 0.0
C849 C 0.37209 0.49909 0.34697 0.0
C850 C 0.38607 0.51649 0.33636 0.0
C851 C 0.42855 0.5652 0.30426 0.0
C852 C 0.41361 0.54871 0.31551 0.0
H853 H 0.398 0.45138 0.36015 0.0
H854 H 0.41979 0.47963 0.3423 0.0
H855 H 0.33292 0.5238 0.3248 0.0
H856 H 0.4108 0.61434 0.2919 0.0
H857 H 0.38453 0.58689 0.30959 0.0
C858 C 0.18137 0.01692 0.86511 0.0
C859 C 0.15946 0.03454 0.86733 0.0
C860 C 0.16923 0.00084 0.85459 0.0
C861 C 0.10584 0.98947 0.81858 0.0
H862 H 0.11432 0.93309 0.83403 0.0
C863 C 0.03069 0.92325 0.78401 0.0
C864 C 0.04901 0.90434 0.78249 0.0
C865 C 0.04583 0.939 0.79397 0.0
C866 C 0.11224 0.94872 0.82939 0.0
H867 H 0.10779 0.04916 0.86011 0.0
H868 H 0.08649 0.02106 0.84186 0.0
H869 H 0.13767 0.96079 0.85219 0.0
H870 H 0.09702 0.88693 0.79064 0.0
H871 H 0.12424 0.91468 0.80755 0.0
H872 H 0.08058 0.97749 0.79577 0.0
C873 C 0.11314 0.01971 0.84819 0.0
C874 C 0.12557 0.96459 0.83983 0.0
C875 C 0.12515 0.03571 0.8588 0.0
C876 C 0.08268 0.90148 0.79126 0.0
C877 C 0.09798 0.91729 0.80115 0.0
C878 C 0.09271 0.97361 0.80811 0.0
C879 C 0.13505 0.00211 0.84594 0.0
C880 C 0.12217 0.98516 0.83461 0.0
C881 C 0.07971 0.93626 0.80265 0.0
C882 C 0.09538 0.95304 0.81345 0.0
H883 H 0.20782 0.01549 0.87161 0.0
H884 H 0.18685 0.98753 0.85302 0.0
H885 H 0.10342 0.00513 0.81405 0.0
H886 H 0.00463 0.92593 0.77745 0.0
H887 H 0.03063 0.95325 0.79507 0.0
C888 C 0.15495 0.10917 0.01476 0.0
C889 C 0.17232 0.12652 0.00761 0.0
C890 C 0.14751 0.10817 0.03241 0.0
C891 C 0.13494 0.13915 0.07158 0.0
H892 H 0.16329 0.08903 0.09499 0.0
C893 C 0.13607 0.13058 0.14629 0.0
C894 C 0.1286 0.11108 0.15314 0.0
C895 C 0.13808 0.13344 0.1284 0.0
C896 C 0.15449 0.10301 0.08867 0.0
H897 H 0.19464 0.15665 0.01332 0.0
H898 H 0.18149 0.1549 0.04426 0.0
H899 H 0.17317 0.0922 0.06416 0.0
H900 H 0.11498 0.07962 0.1469 0.0
H901 H 0.1168 0.08466 0.11581 0.0
H902 H 0.11586 0.14988 0.09612 0.0
C903 C 0.17366 0.1421 0.03615 0.0
C904 C 0.16037 0.10485 0.07096 0.0
C905 C 0.18148 0.14302 0.01848 0.0
C906 C 0.12111 0.09477 0.14188 0.0
C907 C 0.12256 0.09766 0.12408 0.0
C908 C 0.12868 0.13724 0.08934 0.0
C909 C 0.15699 0.12455 0.04332 0.0
C910 C 0.15063 0.12289 0.0622 0.0
C911 C 0.13226 0.11685 0.11706 0.0
C912 C 0.13828 0.1191 0.09812 0.0
H913 H 0.14785 0.09612 0.00677 0.0
H914 H 0.13435 0.09451 0.03753 0.0
H915 H 0.12693 0.1532 0.06513 0.0
H916 H 0.14221 0.14334 0.15476 0.0
H917 H 0.14583 0.1484 0.12352 0.0
C918 C 0.35963 0.3888 0.51339 0.0
C919 C 0.34371 0.37104 0.50625 0.0
C920 C 0.3669 0.39 0.53103 0.0
C921 C 0.38096 0.35952 0.57044 0.0
H922 H 0.34798 0.40905 0.59334 0.0
C923 C 0.37589 0.36852 0.64504 0.0
C924 C 0.38182 0.38821 0.65181 0.0
C925 C 0.37491 0.3655 0.62716 0.0
C926 C 0.35805 0.39526 0.58717 0.0
H927 H 0.32394 0.34036 0.51199 0.0
H928 H 0.3367 0.34247 0.54295 0.0
H929 H 0.33936 0.40548 0.56247 0.0
H930 H 0.39391 0.41985 0.64548 0.0
H931 H 0.39379 0.41454 0.61442 0.0
H932 H 0.39994 0.34938 0.59519 0.0
C933 C 0.34356 0.35544 0.53481 0.0
C934 C 0.35291 0.39319 0.56944 0.0
C935 C 0.33596 0.35431 0.51714 0.0
C936 C 0.38889 0.40456 0.64052 0.0
C937 C 0.38846 0.40152 0.62273 0.0
C938 C 0.38644 0.36167 0.58823 0.0
C939 C 0.35863 0.37342 0.54197 0.0
C940 C 0.36435 0.37534 0.56085 0.0
C941 C 0.38024 0.3821 0.61578 0.0
C942 C 0.37514 0.37962 0.59682 0.0
H943 H 0.36559 0.40203 0.50539 0.0
H944 H 0.37884 0.40399 0.53614 0.0
H945 H 0.39025 0.34564 0.56413 0.0
H946 H 0.37013 0.35572 0.65354 0.0
H947 H 0.36831 0.35036 0.62231 0.0
C948 C 0.64155 0.3663 0.99058 0.0
C949 C 0.67715 0.37172 0.99647 0.0
C950 C 0.63401 0.36499 0.97293 0.0
C951 C 0.67108 0.38036 0.92997 0.0
H952 H 0.61017 0.33543 0.91343 0.0
C953 C 0.67471 0.35098 0.86009 0.0
C954 C 0.64123 0.3452 0.8522 0.0
C955 C 0.67546 0.35685 0.87737 0.0
C956 C 0.62675 0.34825 0.91786 0.0
H957 H 0.73253 0.38038 0.98825 0.0
H958 H 0.71984 0.37733 0.95762 0.0
H959 H 0.61879 0.34018 0.94433 0.0
H960 H 0.58211 0.34154 0.85604 0.0
H961 H 0.58342 0.35166 0.88649 0.0
H962 H 0.68008 0.38791 0.90342 0.0
C963 C 0.69746 0.37445 0.96661 0.0
C964 C 0.6317 0.35101 0.93559 0.0
C965 C 0.70493 0.37588 0.98424 0.0
C966 C 0.60825 0.346 0.86181 0.0
C967 C 0.60906 0.35164 0.87923 0.0
C968 C 0.66637 0.3775 0.91226 0.0
C969 C 0.66191 0.36896 0.9607 0.0
C970 C 0.65442 0.36691 0.94188 0.0
C971 C 0.64278 0.35688 0.88723 0.0
C972 C 0.64461 0.36123 0.906 0.0
H973 H 0.61953 0.36278 0.99961 0.0
H974 H 0.60621 0.36093 0.96889 0.0
H975 H 0.68806 0.39306 0.93432 0.0
H976 H 0.7005 0.35061 0.85293 0.0
H977 H 0.70191 0.36063 0.88319 0.0
C978 C 0.86658 0.13426 0.49056 0.0
C979 C 0.83076 0.12948 0.49657 0.0
C980 C 0.87382 0.13573 0.47288 0.0
C981 C 0.83475 0.12195 0.42992 0.0
H982 H 0.89836 0.16589 0.4136 0.0
C983 C 0.83196 0.15243 0.36028 0.0
C984 C 0.86569 0.15762 0.35231 0.0
C985 C 0.83106 0.14639 0.37753 0.0
C986 C 0.881 0.15334 0.41796 0.0
H987 H 0.77469 0.12208 0.48853 0.0
H988 H 0.78691 0.12539 0.45787 0.0
H989 H 0.89009 0.16073 0.44447 0.0
H990 H 0.92505 0.16007 0.356 0.0
H991 H 0.92349 0.14963 0.38639 0.0
H992 H 0.82468 0.1151 0.40333 0.0
C993 C 0.80966 0.12767 0.46677 0.0
C994 C 0.87624 0.15035 0.43568 0.0
C995 C 0.80248 0.12608 0.48442 0.0
C996 C 0.89871 0.15607 0.36183 0.0
C997 C 0.89776 0.15026 0.37921 0.0
C998 C 0.83927 0.12506 0.41221 0.0
C999 C 0.8454 0.13255 0.46074 0.0
C1000 C 0.8526 0.13481 0.4419 0.0
C1001 C 0.86384 0.14559 0.38729 0.0
C1002 C 0.86202 0.14097 0.40603 0.0
H1003 H 0.889 0.13718 0.49951 0.0
H1004 H 0.90177 0.1393 0.46874 0.0
H1005 H 0.81701 0.10954 0.4342 0.0
H1006 H 0.80612 0.15337 0.3532 0.0
H1007 H 0.80447 0.14306 0.38341 0.0
C1008 C 0.8369 0.85453 0.98913 0.0
C1009 C 0.84342 0.87163 0.99976 0.0
C1010 C 0.84422 0.85553 0.97141 0.0
C1011 C 0.85113 0.89295 0.93622 0.0
H1012 H 0.90081 0.84963 0.91102 0.0
C1013 C 0.88872 0.9044 0.86534 0.0
C1014 C 0.88233 0.88798 0.85405 0.0
C1015 C 0.88795 0.90138 0.88314 0.0
C1016 C 0.88657 0.86177 0.91783 0.0
H1017 H 0.86274 0.90316 1.00009 0.0
H1018 H 0.87561 0.90484 0.96932 0.0
H1019 H 0.89089 0.84609 0.9421 0.0
H1020 H 0.87163 0.85538 0.85237 0.0
H1021 H 0.86937 0.85006 0.88362 0.0
H1022 H 0.84588 0.90849 0.91215 0.0
C1023 C 0.8648 0.89068 0.97465 0.0
C1024 C 0.88094 0.85974 0.93563 0.0
C1025 C 0.85777 0.88964 0.99232 0.0
C1026 C 0.87686 0.86825 0.86086 0.0
C1027 C 0.8756 0.86524 0.87875 0.0
C1028 C 0.85649 0.89491 0.91849 0.0
C1029 C 0.8578 0.87372 0.96395 0.0
C1030 C 0.86341 0.87541 0.94503 0.0
C1031 C 0.88013 0.88191 0.89011 0.0
C1032 C 0.87458 0.87946 0.90905 0.0
H1033 H 0.82612 0.84039 0.9945 0.0
H1034 H 0.83836 0.84224 0.96349 0.0
H1035 H 0.83684 0.9051 0.94301 0.0
H1036 H 0.89339 0.91973 0.86037 0.0
H1037 H 0.89267 0.91447 0.89144 0.0
C1038 C 0.663 0.60577 0.48902 0.0
C1039 C 0.6782 0.62351 0.49658 0.0
C1040 C 0.65517 0.60515 0.4714 0.0
C1041 C 0.63767 0.63705 0.43305 0.0
H1042 H 0.67211 0.58914 0.40828 0.0
C1043 C 0.63957 0.63168 0.35815 0.0
C1044 C 0.63466 0.61224 0.35074 0.0
C1045 C 0.64123 0.63384 0.37611 0.0
C1046 C 0.66161 0.60248 0.41497 0.0
H1047 H 0.69644 0.65466 0.49139 0.0
H1048 H 0.68216 0.65362 0.46063 0.0
H1049 H 0.68185 0.59145 0.43916 0.0
H1050 H 0.62518 0.58008 0.35606 0.0
H1051 H 0.62638 0.58385 0.38728 0.0
H1052 H 0.61709 0.64801 0.40882 0.0
C1053 C 0.67628 0.64023 0.46844 0.0
C1054 C 0.6674 0.60383 0.43272 0.0
C1055 C 0.68441 0.64081 0.48609 0.0
C1056 C 0.62933 0.59521 0.36152 0.0
C1057 C 0.63042 0.59738 0.3794 0.0
C1058 C 0.63152 0.63563 0.41525 0.0
C1059 C 0.66202 0.62229 0.46087 0.0
C1060 C 0.6555 0.62109 0.44198 0.0
C1061 C 0.63761 0.6166 0.38697 0.0
C1062 C 0.64336 0.61828 0.40597 0.0
H1063 H 0.65695 0.59232 0.49672 0.0
H1064 H 0.64361 0.59122 0.46599 0.0
H1065 H 0.62797 0.6505 0.43987 0.0
H1066 H 0.64401 0.64501 0.35005 0.0
H1067 H 0.64703 0.64886 0.38142 0.0
C1068 C 0.34376 0.61786 0.01938 0.0
C1069 C 0.32992 0.63388 0.0091 0.0
C1070 C 0.35055 0.62092 0.03697 0.0
C1071 C 0.3254 0.65597 0.07285 0.0
H1072 H 0.40875 0.63077 0.09625 0.0
C1073 C 0.36524 0.67985 0.14118 0.0
C1074 C 0.36995 0.664 0.15329 0.0
C1075 C 0.36381 0.67556 0.1236 0.0
C1076 C 0.38524 0.63778 0.08988 0.0
H1077 H 0.3138 0.66588 0.00904 0.0
H1078 H 0.32631 0.67138 0.03949 0.0
H1079 H 0.3992 0.62456 0.06545 0.0
H1080 H 0.37914 0.63135 0.15629 0.0
H1081 H 0.37706 0.62386 0.12533 0.0
H1082 H 0.31173 0.66941 0.09714 0.0
C1083 C 0.33088 0.65624 0.03419 0.0
C1084 C 0.37966 0.63419 0.07225 0.0
C1085 C 0.32379 0.65312 0.01669 0.0
C1086 C 0.37556 0.64389 0.14729 0.0
C1087 C 0.37429 0.6396 0.12958 0.0
C1088 C 0.33117 0.65968 0.09034 0.0
C1089 C 0.34392 0.64013 0.04464 0.0
C1090 C 0.34979 0.64339 0.06348 0.0
C1091 C 0.36728 0.65534 0.11761 0.0
C1092 C 0.36128 0.65078 0.09905 0.0
H1093 H 0.34851 0.60282 0.01391 0.0
H1094 H 0.36017 0.60809 0.04461 0.0
H1095 H 0.30153 0.66288 0.0667 0.0
H1096 H 0.36172 0.69558 0.14535 0.0
H1097 H 0.35925 0.68808 0.11466 0.0
C1098 C 0.15641 0.88058 0.51819 0.0
C1099 C 0.1708 0.86462 0.50798 0.0
C1100 C 0.15034 0.87774 0.53586 0.0
C1101 C 0.17825 0.84378 0.5721 0.0
H1102 H 0.09381 0.86782 0.59549 0.0
C1103 C 0.13954 0.81975 0.6406 0.0
C1104 C 0.13443 0.83559 0.65264 0.0
C1105 C 0.14084 0.82398 0.62299 0.0
C1106 C 0.11763 0.86114 0.58913 0.0
H1107 H 0.18998 0.83308 0.50857 0.0
H1108 H 0.17797 0.82788 0.53899 0.0
H1109 H 0.10257 0.87377 0.5646 0.0
H1110 H 0.12444 0.8682 0.65551 0.0
H1111 H 0.12618 0.87557 0.62451 0.0
H1112 H 0.19293 0.83086 0.59649 0.0
C1113 C 0.17209 0.84279 0.53348 0.0
C1114 C 0.12276 0.86459 0.57145 0.0
C1115 C 0.17844 0.84568 0.51589 0.0
C1116 C 0.12833 0.85564 0.64656 0.0
C1117 C 0.12941 0.85988 0.62884 0.0
C1118 C 0.17291 0.84019 0.58965 0.0
C1119 C 0.15832 0.85882 0.54376 0.0
C1120 C 0.15302 0.85578 0.56267 0.0
C1121 C 0.13677 0.84415 0.61693 0.0
C1122 C 0.14241 0.84866 0.59834 0.0
H1123 H 0.14969 0.8953 0.51254 0.0
H1124 H 0.13999 0.8905 0.54336 0.0
H1125 H 0.20243 0.8372 0.56596 0.0
H1126 H 0.14341 0.80405 0.64482 0.0
H1127 H 0.14571 0.81147 0.6141 0.0
C1128 C 0.17195 0.30702 0.35396 0.0
C1129 C 0.19178 0.30082 0.36872 0.0
C1130 C 0.15442 0.29258 0.34343 0.0
C1131 C 0.1586 0.23961 0.32934 0.0
H1132 H 0.05432 0.24574 0.31836 0.0
C1133 C 0.0772 0.17621 0.29378 0.0
C1134 C 0.04855 0.18202 0.28258 0.0
C1135 C 0.09502 0.19081 0.30403 0.0
C1136 C 0.08361 0.24394 0.32099 0.0
H1137 H 0.20811 0.2743 0.38389 0.0
H1138 H 0.17873 0.24913 0.36503 0.0
H1139 H 0.08491 0.27109 0.33656 0.0
H1140 H 0.01646 0.20758 0.27294 0.0
H1141 H 0.04827 0.23329 0.29037 0.0
H1142 H 0.15796 0.21293 0.31336 0.0
C1143 C 0.17679 0.26526 0.36178 0.0
C1144 C 0.10102 0.25842 0.33153 0.0
C1145 C 0.19378 0.27971 0.37251 0.0
C1146 C 0.03818 0.2027 0.28167 0.0
C1147 C 0.05637 0.21739 0.29172 0.0
C1148 C 0.1414 0.22532 0.31853 0.0
C1149 C 0.15685 0.27158 0.34719 0.0
C1150 C 0.13858 0.25632 0.33588 0.0
C1151 C 0.08488 0.21164 0.30316 0.0
C1152 C 0.10357 0.22719 0.31429 0.0
H1153 H 0.17042 0.32302 0.35031 0.0
H1154 H 0.13951 0.29782 0.33214 0.0
H1155 H 0.18774 0.2378 0.33236 0.0
H1156 H 0.08548 0.16029 0.29481 0.0
H1157 H 0.1163 0.18564 0.31285 0.0
C1158 C 0.34022 0.21562 0.87837 0.0
C1159 C 0.32253 0.19867 0.87077 0.0
C1160 C 0.35783 0.23038 0.8681 0.0
C1161 C 0.35639 0.2529 0.82501 0.0
H1162 H 0.45732 0.27013 0.83465 0.0
C1163 C 0.42572 0.32243 0.79185 0.0
C1164 C 0.46068 0.31882 0.78446 0.0
C1165 C 0.40925 0.30785 0.8026 0.0
C1166 C 0.42916 0.26541 0.83181 0.0
H1167 H 0.30879 0.18403 0.84654 0.0
H1168 H 0.33902 0.20998 0.8286 0.0
H1169 H 0.42737 0.24447 0.85315 0.0
H1170 H 0.50663 0.29743 0.78329 0.0
H1171 H 0.47823 0.27219 0.8026 0.0
H1172 H 0.35798 0.27396 0.80379 0.0
C1173 C 0.33953 0.21176 0.84248 0.0
C1174 C 0.41197 0.25088 0.84245 0.0
C1175 C 0.32248 0.19686 0.85273 0.0
C1176 C 0.47956 0.30065 0.78868 0.0
C1177 C 0.46335 0.2862 0.79973 0.0
C1178 C 0.37334 0.26766 0.81456 0.0
C1179 C 0.35746 0.22864 0.85005 0.0
C1180 C 0.37549 0.2444 0.83908 0.0
C1181 C 0.42783 0.28956 0.80661 0.0
C1182 C 0.40994 0.27399 0.81781 0.0
H1183 H 0.34077 0.21733 0.89225 0.0
H1184 H 0.37129 0.24331 0.87425 0.0
H1185 H 0.32817 0.24826 0.82218 0.0
H1186 H 0.41108 0.33659 0.78941 0.0
H1187 H 0.38211 0.311 0.80797 0.0
C1188 C 0.71363 0.21702 0.6412 0.0
C1189 C 0.69347 0.20079 0.63379 0.0
C1190 C 0.69575 0.23185 0.6512 0.0
C1191 C 0.60379 0.25444 0.66048 0.0
H1192 H 0.65017 0.27113 0.70332 0.0
C1193 C 0.56472 0.29992 0.72737 0.0
C1194 C 0.54728 0.31751 0.72076 0.0
C1195 C 0.58229 0.28604 0.71637 0.0
C1196 C 0.63675 0.26656 0.69144 0.0
H1197 H 0.63849 0.18777 0.63071 0.0
H1198 H 0.60734 0.21353 0.64831 0.0
H1199 H 0.6812 0.24636 0.68477 0.0
H1200 H 0.53434 0.33421 0.69735 0.0
H1201 H 0.56493 0.3099 0.67811 0.0
H1202 H 0.55903 0.27443 0.66733 0.0
C1203 C 0.63698 0.21484 0.64632 0.0
C1204 C 0.65474 0.25254 0.68071 0.0
C1205 C 0.65489 0.19995 0.63638 0.0
C1206 C 0.54736 0.32075 0.70285 0.0
C1207 C 0.56481 0.3068 0.69182 0.0
C1208 C 0.58586 0.26857 0.67119 0.0
C1209 C 0.65724 0.23087 0.65397 0.0
C1210 C 0.63842 0.24623 0.66514 0.0
C1211 C 0.58272 0.28935 0.69847 0.0
C1212 C 0.60203 0.27469 0.68685 0.0
H1213 H 0.74341 0.21804 0.63958 0.0
H1214 H 0.71212 0.24412 0.65676 0.0
H1215 H 0.59061 0.25004 0.6485 0.0
H1216 H 0.56495 0.29686 0.74109 0.0
H1217 H 0.59531 0.2726 0.72189 0.0
C1218 C 0.83132 0.28429 0.12703 0.0
C1219 C 0.81811 0.30248 0.13456 0.0
C1220 C 0.84906 0.26939 0.13708 0.0
C1221 C 0.85745 0.25135 0.18199 0.0
H1222 H 0.94758 0.22512 0.16608 0.0
C1223 C 0.94637 0.20195 0.22729 0.0
C1224 C 0.96177 0.18379 0.22072 0.0
C1225 C 0.92937 0.21609 0.21633 0.0
C1226 C 0.92218 0.23211 0.17062 0.0
H1227 H 0.81281 0.31913 0.15861 0.0
H1228 H 0.84398 0.29332 0.17606 0.0
H1229 H 0.9165 0.25023 0.14771 0.0
H1230 H 0.97179 0.16634 0.19743 0.0
H1231 H 0.94174 0.19097 0.17825 0.0
H1232 H 0.86285 0.23327 0.20483 0.0
C1233 C 0.8405 0.2905 0.1624 0.0
C1234 C 0.90439 0.24651 0.16009 0.0
C1235 C 0.82299 0.3054 0.15236 0.0
C1236 C 0.96033 0.18024 0.20288 0.0
C1237 C 0.94319 0.19439 0.19189 0.0
C1238 C 0.87511 0.23694 0.19247 0.0
C1239 C 0.85369 0.2723 0.1549 0.0
C1240 C 0.87201 0.25643 0.16573 0.0
C1241 C 0.9272 0.21241 0.19851 0.0
C1242 C 0.90791 0.22727 0.18701 0.0
H1243 H 0.82823 0.28164 0.11333 0.0
H1244 H 0.85868 0.25548 0.13093 0.0
H1245 H 0.83216 0.25843 0.18658 0.0
H1246 H 0.94733 0.20527 0.24096 0.0
H1247 H 0.91806 0.22999 0.22185 0.0
C1248 C 0.85315 0.70051 0.63609 0.0
C1249 C 0.81533 0.70328 0.63239 0.0
C1250 C 0.87231 0.71476 0.64622 0.0
C1251 C 0.87051 0.7683 0.66099 0.0
H1252 H 0.9294 0.74847 0.69932 0.0
C1253 C 0.92545 0.82299 0.71339 0.0
C1254 C 0.96008 0.81896 0.72093 0.0
C1255 C 0.90915 0.80891 0.70214 0.0
C1256 C 0.91362 0.75431 0.68851 0.0
H1257 H 0.7682 0.7234 0.63598 0.0
H1258 H 0.80176 0.74842 0.65353 0.0
H1259 H 0.89906 0.72401 0.68015 0.0
H1260 H 0.00549 0.79725 0.72203 0.0
H1261 H 0.97775 0.77299 0.70186 0.0
H1262 H 0.88532 0.79855 0.66909 0.0
C1263 C 0.81654 0.73519 0.64865 0.0
C1264 C 0.89614 0.74026 0.67756 0.0
C1265 C 0.79727 0.72081 0.63871 0.0
C1266 C 0.97861 0.80076 0.71655 0.0
C1267 C 0.96251 0.78675 0.7051 0.0
C1268 C 0.88831 0.78235 0.67181 0.0
C1269 C 0.85416 0.73222 0.65265 0.0
C1270 C 0.87411 0.74711 0.66379 0.0
C1271 C 0.92743 0.79058 0.69781 0.0
C1272 C 0.90979 0.77556 0.68584 0.0
H1273 H 0.86769 0.68706 0.6315 0.0
H1274 H 0.90136 0.71216 0.64901 0.0
H1275 H 0.85411 0.77402 0.65033 0.0
H1276 H 0.9109 0.8371 0.71609 0.0
H1277 H 0.88195 0.81236 0.69701 0.0
C1278 C 0.67727 0.80622 0.15244 0.0
C1279 C 0.6956 0.80015 0.13733 0.0
C1280 C 0.65811 0.79188 0.16246 0.0
C1281 C 0.61974 0.7386 0.16139 0.0
H1282 H 0.61846 0.74549 0.21103 0.0
C1283 C 0.57234 0.67574 0.20943 0.0
C1284 C 0.54559 0.6819 0.2215 0.0
C1285 C 0.59001 0.69023 0.199 0.0
C1286 C 0.61844 0.74348 0.19718 0.0
H1287 H 0.70855 0.77439 0.12085 0.0
H1288 H 0.67641 0.74909 0.13865 0.0
H1289 H 0.65121 0.77038 0.19313 0.0
H1290 H 0.51653 0.70787 0.23237 0.0
H1291 H 0.54809 0.7334 0.21427 0.0
H1292 H 0.58803 0.7112 0.16569 0.0
C1293 C 0.67573 0.76502 0.14257 0.0
C1294 C 0.63701 0.75779 0.18686 0.0
C1295 C 0.69435 0.77947 0.13238 0.0
C1296 C 0.53682 0.70277 0.22302 0.0
C1297 C 0.55503 0.71733 0.2128 0.0
C1298 C 0.60174 0.72412 0.17175 0.0
C1299 C 0.65737 0.77101 0.15778 0.0
C1300 C 0.63779 0.75562 0.1688 0.0
C1301 C 0.58166 0.71116 0.20065 0.0
C1302 C 0.60078 0.72649 0.18971 0.0
H1303 H 0.67746 0.82215 0.15641 0.0
H1304 H 0.64364 0.79725 0.1738 0.0
H1305 H 0.61903 0.73654 0.14756 0.0
H1306 H 0.57956 0.6597 0.20805 0.0
H1307 H 0.61066 0.68512 0.18982 0.0
C1308 C 0.3324 0.78415 0.3788 0.0
C1309 C 0.31809 0.80195 0.371 0.0
C1310 C 0.35221 0.76977 0.36909 0.0
C1311 C 0.40327 0.76373 0.32783 0.0
H1312 H 0.38441 0.70574 0.33479 0.0
C1313 C 0.44845 0.70235 0.27876 0.0
C1314 C 0.46306 0.68387 0.28513 0.0
C1315 C 0.43297 0.71675 0.28996 0.0
C1316 C 0.39036 0.72186 0.33284 0.0
H1317 H 0.31431 0.81875 0.34692 0.0
H1318 H 0.34794 0.79355 0.32999 0.0
H1319 H 0.35348 0.73088 0.35308 0.0
H1320 H 0.473 0.66603 0.30824 0.0
H1321 H 0.446 0.69126 0.32785 0.0
H1322 H 0.43967 0.75472 0.30741 0.0
C1323 C 0.34423 0.79075 0.34363 0.0
C1324 C 0.37265 0.73629 0.34334 0.0
C1325 C 0.32447 0.8051 0.35332 0.0
C1326 C 0.46203 0.68015 0.30296 0.0
C1327 C 0.44634 0.69453 0.31417 0.0
C1328 C 0.42085 0.74933 0.31731 0.0
C1329 C 0.35827 0.77286 0.35136 0.0
C1330 C 0.37859 0.75743 0.34084 0.0
C1331 C 0.4316 0.713 0.30779 0.0
C1332 C 0.41433 0.72823 0.31957 0.0
H1333 H 0.32777 0.78116 0.39235 0.0
H1334 H 0.36294 0.75626 0.3755 0.0
H1335 H 0.40908 0.77985 0.32576 0.0
H1336 H 0.44888 0.7057 0.26509 0.0
H1337 H 0.42145 0.7307 0.2846 0.0
C1338 C 0.19111 0.69644 0.85207 0.0
C1339 C 0.19641 0.69942 0.86985 0.0
C1340 C 0.17183 0.71086 0.84222 0.0
C1341 C 0.14173 0.76515 0.84195 0.0
H1342 H 0.07555 0.74633 0.80587 0.0
C1343 C 0.04865 0.82053 0.80253 0.0
C1344 C 0.04705 0.81705 0.78467 0.0
C1345 C 0.06564 0.80626 0.81346 0.0
C1346 C 0.09416 0.75185 0.8158 0.0
H1347 H 0.18567 0.72009 0.89115 0.0
H1348 H 0.15134 0.74507 0.87401 0.0
H1349 H 0.10732 0.72137 0.82396 0.0
H1350 H 0.06186 0.79581 0.76431 0.0
H1351 H 0.09156 0.77106 0.78332 0.0
H1352 H 0.12849 0.79566 0.83372 0.0
C1353 C 0.1625 0.73165 0.86766 0.0
C1354 C 0.11243 0.73753 0.82616 0.0
C1355 C 0.18183 0.7172 0.87752 0.0
C1356 C 0.06261 0.79897 0.77801 0.0
C1357 C 0.07942 0.7847 0.78892 0.0
C1358 C 0.12334 0.77949 0.83159 0.0
C1359 C 0.15722 0.72865 0.84987 0.0
C1360 C 0.13672 0.74398 0.83928 0.0
C1361 C 0.08121 0.78817 0.80678 0.0
C1362 C 0.09959 0.773 0.81829 0.0
H1363 H 0.20152 0.68281 0.84576 0.0
H1364 H 0.16873 0.70815 0.82853 0.0
H1365 H 0.16057 0.77068 0.85177 0.0
H1366 H 0.03703 0.83434 0.80805 0.0
H1367 H 0.06628 0.80932 0.82717 0.0
loop_
_geom_bond_atom_site_label_1
_geom_bond_atom_site_label_2
_geom_bond_distance
_geom_bond_site_symmetry_2
_ccdc_geom_bond_type
C0 C1 1.386 . S
C0 C2 1.397 . S
C0 H24 0.931 . S
C1 C0 1.386 . S
C1 C5 1.397 . S
C2 C0 1.397 . S
C2 C3 1.384 . S
C2 H25 0.930 . S
C3 C2 1.384 . S
C3 C4 1.377 . S
C3 C6 1.481 . S
C4 C3 1.377 . S
C4 C5 1.389 . S
C4 H26 0.929 . S
C5 C1 1.397 . S
C5 C4 1.389 . S
C5 H27 0.931 . S
C6 C3 1.481 . S
C6 C7 1.387 . S
C6 C11 1.390 . S
C7 C6 1.387 . S
C7 C8 1.401 . S
C7 H28 0.930 . S
C8 C7 1.401 . S
C8 C9 1.376 . S
C8 C17 1.511 . S
C9 C8 1.376 . S
C9 C10 1.392 . S
C9 H30 0.931 . S
C10 C9 1.392 . S
C10 C11 1.361 . S
C10 C12 1.500 . S
C11 C6 1.390 . S
C11 C10 1.361 . S
C11 H29 0.931 . S
C12 C10 1.500 . S
C12 C13 1.371 . S
C12 C14 1.365 . S
C13 C12 1.371 . S
C13 C23 1.386 . S
C13 H31 0.931 . S
C14 C12 1.365 . S
C14 C15 1.409 . S
C14 H32 0.929 . S
C15 C14 1.409 . S
C15 C16 1.380 . S
C15 H33 0.930 . S
C16 C15 1.380 . S
C16 C23 1.357 . S
C17 C8 1.511 . S
C17 C18 1.341 . S
C17 C19 1.371 . S
C18 C17 1.341 . S
C18 C22 1.394 . S
C18 H34 0.930 . S
C19 C17 1.371 . S
C19 C20 1.392 . S
C19 H35 0.931 . S
C20 C19 1.392 . S
C20 C21 1.331 . S
C20 H38 0.932 . S
C21 C20 1.331 . S
C21 C22 1.336 . S
C22 C18 1.394 . S
C22 C21 1.336 . S
C22 H37 0.929 . S
C23 C13 1.386 . S
C23 C16 1.357 . S
C23 H36 0.928 . S
H24 C0 0.931 . S
H25 C2 0.930 . S
H26 C4 0.929 . S
H27 C5 0.931 . S
H28 C7 0.930 . S
H29 C11 0.931 . S
H30 C9 0.931 . S
H31 C13 0.931 . S
H32 C14 0.929 . S
H33 C15 0.930 . S
H34 C18 0.930 . S
H35 C19 0.931 . S
H36 C23 0.928 . S
H37 C22 0.929 . S
H38 C20 0.932 . S
C39 C40 1.386 . S
C39 C41 1.397 . S
C39 H63 0.931 . S
C40 C39 1.386 . S
C40 C44 1.397 . S
C41 C39 1.397 . S
C41 C42 1.384 . S
C41 H64 0.930 . S
C42 C41 1.384 . S
C42 C43 1.377 . S
C42 C45 1.481 . S
C43 C42 1.377 . S
C43 C44 1.389 . S
C43 H65 0.929 . S
C44 C40 1.397 . S
C44 C43 1.389 . S
C44 H66 0.931 . S
C45 C42 1.481 . S
C45 C46 1.387 . S
C45 C50 1.390 . S
C46 C45 1.387 . S
C46 C47 1.401 . S
C46 H67 0.930 . S
C47 C46 1.401 . S
C47 C48 1.376 . S
C47 C56 1.511 . S
C48 C47 1.376 . S
C48 C49 1.392 . S
C48 H69 0.931 . S
C49 C48 1.392 . S
C49 C50 1.361 . S
C49 C51 1.500 . S
C50 C45 1.390 . S
C50 C49 1.361 . S
C50 H68 0.931 . S
C51 C49 1.500 . S
C51 C52 1.371 . S
C51 C53 1.365 . S
C52 C51 1.371 . S
C52 C62 1.386 . S
C52 H70 0.931 . S
C53 C51 1.365 . S
C53 C54 1.409 . S
C53 H71 0.929 . S
C54 C53 1.409 . S
C54 C55 1.380 . S
C54 H72 0.930 . S
C55 C54 1.380 . S
C55 C62 1.357 . S
C56 C47 1.511 . S
C56 C57 1.341 . S
C56 C58 1.371 . S
C57 C56 1.341 . S
C57 C61 1.394 . S
C57 H73 0.930 . S
C58 C56 1.371 . S
C58 C59 1.392 . S
C58 H74 0.931 . S
C59 C58 1.392 . S
C59 C60 1.331 . S
C59 H77 0.932 . S
C60 C59 1.331 . S
C60 C61 1.336 . S
C61 C57 1.394 . S
C61 C60 1.336 . S
C61 H76 0.929 . S
C62 C52 1.386 . S
C62 C55 1.357 . S
C62 H75 0.928 . S
H63 C39 0.931 . S
H64 C41 0.930 . S
H65 C43 0.929 . S
H66 C44 0.931 . S
H67 C46 0.930 . S
H68 C50 0.931 . S
H69 C48 0.931 . S
H70 C52 0.931 . S
H71 C53 0.929 . S
H72 C54 0.930 . S
H73 C57 0.930 . S
H74 C58 0.931 . S
H75 C62 0.928 . S
H76 C61 0.929 . S
H77 C59 0.932 . S
C78 C79 1.386 . S
C78 C80 1.397 . S
C78 H102 0.931 . S
C79 C78 1.386 . S
C79 C83 1.397 . S
C80 C78 1.397 . S
C80 C81 1.384 . S
C80 H103 0.930 . S
C81 C80 1.384 . S
C81 C82 1.377 . S
C81 C84 1.481 . S
C82 C81 1.377 . S
C82 C83 1.389 . S
C82 H104 0.929 . S
C83 C79 1.397 . S
C83 C82 1.389 . S
C83 H105 0.931 . S
C84 C81 1.481 . S
C84 C85 1.387 . S
C84 C89 1.390 . S
C85 C84 1.387 . S
C85 C86 1.401 . S
C85 H106 0.930 . S
C86 C85 1.401 . S
C86 C87 1.376 . S
C86 C95 1.511 . S
C87 C86 1.376 . S
C87 C88 1.392 . S
C87 H108 0.931 . S
C88 C87 1.392 . S
C88 C89 1.361 . S
C88 C90 1.500 . S
C89 C84 1.390 . S
C89 C88 1.361 . S
C89 H107 0.931 . S
C90 C88 1.500 . S
C90 C91 1.371 . S
C90 C92 1.365 . S
C91 C90 1.371 . S
C91 C101 1.386 . S
C91 H109 0.931 . S
C92 C90 1.365 . S
C92 C93 1.409 . S
C92 H110 0.929 . S
C93 C92 1.409 . S
C93 C94 1.380 . S
C93 H111 0.930 . S
C94 C93 1.380 . S
C94 C101 1.357 . S
C95 C86 1.511 . S
C95 C96 1.341 . S
C95 C97 1.371 . S
C96 C95 1.341 . S
C96 C100 1.394 . S
C96 H112 0.930 . S
C97 C95 1.371 . S
C97 C98 1.392 . S
C97 H113 0.931 . S
C98 C97 1.392 . S
C98 C99 1.331 . S
C98 H116 0.932 . S
C99 C98 1.331 . S
C99 C100 1.336 . S
C100 C96 1.394 . S
C100 C99 1.336 . S
C100 H115 0.929 . S
C101 C91 1.386 . S
C101 C94 1.357 . S
C101 H114 0.928 . S
H102 C78 0.931 . S
H103 C80 0.930 . S
H104 C82 0.929 . S
H105 C83 0.931 . S
H106 C85 0.930 . S
H107 C89 0.931 . S
H108 C87 0.931 . S
H109 C91 0.931 . S
H110 C92 0.929 . S
H111 C93 0.930 . S
H112 C96 0.930 . S
H113 C97 0.931 . S
H114 C101 0.928 . S
H115 C100 0.929 . S
H116 C98 0.932 . S
C117 C118 1.386 . S
C117 C119 1.397 . S
C117 H141 0.931 . S
C118 C117 1.386 . S
C118 C122 1.397 . S
C119 C117 1.397 . S
C119 C120 1.384 . S
C119 H142 0.930 . S
C120 C119 1.384 . S
C120 C121 1.377 . S
C120 C123 1.481 . S
C121 C120 1.377 . S
C121 C122 1.389 . S
C121 H143 0.929 . S
C122 C118 1.397 . S
C122 C121 1.389 . S
C122 H144 0.931 . S
C123 C120 1.481 . S
C123 C124 1.387 . S
C123 C128 1.390 . S
C124 C123 1.387 . S
C124 C125 1.401 . S
C124 H145 0.930 . S
C125 C124 1.401 . S
C125 C126 1.376 . S
C125 C134 1.511 . S
C126 C125 1.376 . S
C126 C127 1.392 . S
C126 H147 0.931 . S
C127 C126 1.392 . S
C127 C128 1.361 . S
C127 C129 1.500 . S
C128 C123 1.390 . S
C128 C127 1.361 . S
C128 H146 0.931 . S
C129 C127 1.500 . S
C129 C130 1.371 . S
C129 C131 1.365 . S
C130 C129 1.371 . S
C130 C140 1.386 . S
C130 H148 0.931 . S
C131 C129 1.365 . S
C131 C132 1.409 . S
C131 H149 0.929 . S
C132 C131 1.409 . S
C132 C133 1.380 . S
C132 H150 0.930 . S
C133 C132 1.380 . S
C133 C140 1.357 . S
C134 C125 1.511 . S
C134 C135 1.341 . S
C134 C136 1.371 . S
C135 C134 1.341 . S
C135 C139 1.394 . S
C135 H151 0.930 . S
C136 C134 1.371 . S
C136 C137 1.392 . S
C136 H152 0.931 . S
C137 C136 1.392 . S
C137 C138 1.331 . S
C137 H155 0.932 . S
C138 C137 1.331 . S
C138 C139 1.336 . S
C139 C135 1.394 . S
C139 C138 1.336 . S
C139 H154 0.929 . S
C140 C130 1.386 . S
C140 C133 1.357 . S
C140 H153 0.928 . S
H141 C117 0.931 . S
H142 C119 0.930 . S
H143 C121 0.929 . S
H144 C122 0.931 . S
H145 C124 0.930 . S
H146 C128 0.931 . S
H147 C126 0.931 . S
H148 C130 0.931 . S
H149 C131 0.929 . S
H150 C132 0.930 . S
H151 C135 0.930 . S
H152 C136 0.931 . S
H153 C140 0.928 . S
H154 C139 0.929 . S
H155 C137 0.932 . S
C156 C157 1.386 . S
C156 C158 1.397 . S
C156 H180 0.931 . S
C157 C156 1.386 . S
C157 C161 1.397 . S
C158 C156 1.397 . S
C158 C159 1.384 . S
C158 H181 0.930 . S
C159 C158 1.384 . S
C159 C160 1.377 . S
C159 C162 1.481 . S
C160 C159 1.377 . S
C160 C161 1.389 . S
C160 H182 0.929 . S
C161 C157 1.397 . S
C161 C160 1.389 . S
C161 H183 0.931 . S
C162 C159 1.481 . S
C162 C163 1.387 . S
C162 C167 1.390 . S
C163 C162 1.387 . S
C163 C164 1.401 . S
C163 H184 0.930 . S
C164 C163 1.401 . S
C164 C165 1.376 . S
C164 C173 1.511 . S
C165 C164 1.376 . S
C165 C166 1.392 . S
C165 H186 0.931 . S
C166 C165 1.392 . S
C166 C167 1.361 . S
C166 C168 1.500 . S
C167 C162 1.390 . S
C167 C166 1.361 . S
C167 H185 0.931 . S
C168 C166 1.500 . S
C168 C169 1.371 . S
C168 C170 1.365 . S
C169 C168 1.371 . S
C169 C179 1.386 . S
C169 H187 0.931 . S
C170 C168 1.365 . S
C170 C171 1.409 . S
C170 H188 0.929 . S
C171 C170 1.409 . S
C171 C172 1.380 . S
C171 H189 0.930 . S
C172 C171 1.380 . S
C172 C179 1.357 . S
C173 C164 1.511 . S
C173 C174 1.341 . S
C173 C175 1.371 . S
C174 C173 1.341 . S
C174 C178 1.394 . S
C174 H190 0.930 . S
C175 C173 1.371 . S
C175 C176 1.392 . S
C175 H191 0.931 . S
C176 C175 1.392 . S
C176 C177 1.331 . S
C176 H194 0.932 . S
C177 C176 1.331 . S
C177 C178 1.336 . S
C178 C174 1.394 . S
C178 C177 1.336 . S
C178 H193 0.929 . S
C179 C169 1.386 . S
C179 C172 1.357 . S
C179 H192 0.928 . S
H180 C156 0.931 . S
H181 C158 0.930 . S
H182 C160 0.929 . S
H183 C161 0.931 . S
H184 C163 0.930 . S
H185 C167 0.931 . S
H186 C165 0.931 . S
H187 C169 0.931 . S
H188 C170 0.929 . S
H189 C171 0.930 . S
H190 C174 0.930 . S
H191 C175 0.931 . S
H192 C179 0.928 . S
H193 C178 0.929 . S
H194 C176 0.932 . S
C195 C196 1.386 . S
C195 C197 1.397 . S
C195 H219 0.931 . S
C196 C195 1.386 . S
C196 C200 1.397 . S
C197 C195 1.397 . S
C197 C198 1.384 . S
C197 H220 0.930 . S
C198 C197 1.384 . S
C198 C199 1.377 . S
C198 C201 1.481 . S
C199 C198 1.377 . S
C199 C200 1.389 . S
C199 H221 0.929 . S
C200 C196 1.397 . S
C200 C199 1.389 . S
C200 H222 0.931 . S
C201 C198 1.481 . S
C201 C202 1.387 . S
C201 C206 1.390 . S
C202 C201 1.387 . S
C202 C203 1.401 . S
C202 H223 0.930 . S
C203 C202 1.401 . S
C203 C204 1.376 . S
C203 C212 1.511 . S
C204 C203 1.376 . S
C204 C205 1.392 . S
C204 H225 0.931 . S
C205 C204 1.392 . S
C205 C206 1.361 . S
C205 C207 1.500 . S
C206 C201 1.390 . S
C206 C205 1.361 . S
C206 H224 0.931 . S
C207 C205 1.500 . S
C207 C208 1.371 . S
C207 C209 1.365 . S
C208 C207 1.371 . S
C208 C218 1.386 . S
C208 H226 0.931 . S
C209 C207 1.365 . S
C209 C210 1.409 . S
C209 H227 0.929 . S
C210 C209 1.409 . S
C210 C211 1.380 . S
C210 H228 0.930 . S
C211 C210 1.380 . S
C211 C218 1.357 . S
C212 C203 1.511 . S
C212 C213 1.341 . S
C212 C214 1.371 . S
C213 C212 1.341 . S
C213 C217 1.394 . S
C213 H229 0.930 . S
C214 C212 1.371 . S
C214 C215 1.392 . S
C214 H230 0.931 . S
C215 C214 1.392 . S
C215 C216 1.331 . S
C215 H233 0.932 . S
C216 C215 1.331 . S
C216 C217 1.336 . S
C217 C213 1.394 . S
C217 C216 1.336 . S
C217 H232 0.929 . S
C218 C208 1.386 . S
C218 C211 1.357 . S
C218 H231 0.928 . S
H219 C195 0.931 . S
H220 C197 0.930 . S
H221 C199 0.929 . S
H222 C200 0.931 . S
H223 C202 0.930 . S
H224 C206 0.931 . S
H225 C204 0.931 . S
H226 C208 0.931 . S
H227 C209 0.929 . S
H228 C210 0.930 . S
H229 C213 0.930 . S
H230 C214 0.931 . S
H231 C218 0.928 . S
H232 C217 0.929 . S
H233 C215 0.932 . S
C234 C235 1.386 . S
C234 C236 1.397 . S
C234 H258 0.931 . S
C235 C234 1.386 . S
C235 C239 1.397 . S
C236 C234 1.397 . S
C236 C237 1.384 . S
C236 H259 0.930 . S
C237 C236 1.384 . S
C237 C238 1.377 . S
C237 C240 1.481 . S
C238 C237 1.377 . S
C238 C239 1.389 . S
C238 H260 0.929 . S
C239 C235 1.397 . S
C239 C238 1.389 . S
C239 H261 0.931 . S
C240 C237 1.481 . S
C240 C241 1.387 . S
C240 C245 1.390 . S
C241 C240 1.387 . S
C241 C242 1.401 . S
C241 H262 0.930 . S
C242 C241 1.401 . S
C242 C243 1.376 . S
C242 C251 1.511 . S
C243 C242 1.376 . S
C243 C244 1.392 . S
C243 H264 0.931 . S
C244 C243 1.392 . S
C244 C245 1.361 . S
C244 C246 1.500 . S
C245 C240 1.390 . S
C245 C244 1.361 . S
C245 H263 0.931 . S
C246 C244 1.500 . S
C246 C247 1.371 . S
C246 C248 1.365 . S
C247 C246 1.371 . S
C247 C257 1.386 . S
C247 H265 0.931 . S
C248 C246 1.365 . S
C248 C249 1.409 . S
C248 H266 0.929 . S
C249 C248 1.409 . S
C249 C250 1.380 . S
C249 H267 0.930 . S
C250 C249 1.380 . S
C250 C257 1.357 . S
C251 C242 1.511 . S
C251 C252 1.341 . S
C251 C253 1.371 . S
C252 C251 1.341 . S
C252 C256 1.394 . S
C252 H268 0.930 . S
C253 C251 1.371 . S
C253 C254 1.392 . S
C253 H269 0.931 . S
C254 C253 1.392 . S
C254 C255 1.331 . S
C254 H272 0.932 . S
C255 C254 1.331 . S
C255 C256 1.336 . S
C256 C252 1.394 . S
C256 C255 1.336 . S
C256 H271 0.929 . S
C257 C247 1.386 . S
C257 C250 1.357 . S
C257 H270 0.928 . S
H258 C234 0.931 . S
H259 C236 0.930 . S
H260 C238 0.929 . S
H261 C239 0.931 . S
H262 C241 0.930 . S
H263 C245 0.931 . S
H264 C243 0.931 . S
H265 C247 0.931 . S
H266 C248 0.929 . S
H267 C249 0.930 . S
H268 C252 0.930 . S
H269 C253 0.931 . S
H270 C257 0.928 . S
H271 C256 0.929 . S
H272 C254 0.932 . S
C273 C274 1.386 . S
C273 C275 1.397 . S
C273 H297 0.931 . S
C274 C273 1.386 . S
C274 C278 1.397 . S
C275 C273 1.397 . S
C275 C276 1.384 . S
C275 H298 0.930 . S
C276 C275 1.384 . S
C276 C277 1.377 . S
C276 C279 1.481 . S
C277 C276 1.377 . S
C277 C278 1.389 . S
C277 H299 0.929 . S
C278 C274 1.397 . S
C278 C277 1.389 . S
C278 H300 0.931 . S
C279 C276 1.481 . S
C279 C280 1.387 . S
C279 C284 1.390 . S
C280 C279 1.387 . S
C280 C281 1.401 . S
C280 H301 0.930 . S
C281 C280 1.401 . S
C281 C282 1.376 . S
C281 C290 1.511 . S
C282 C281 1.376 . S
C282 C283 1.392 . S
C282 H303 0.931 . S
C283 C282 1.392 . S
C283 C284 1.361 . S
C283 C285 1.500 . S
C284 C279 1.390 . S
C284 C283 1.361 . S
C284 H302 0.931 . S
C285 C283 1.500 . S
C285 C286 1.371 . S
C285 C287 1.365 . S
C286 C285 1.371 . S
C286 C296 1.386 . S
C286 H304 0.931 . S
C287 C285 1.365 . S
C287 C288 1.409 . S
C287 H305 0.929 . S
C288 C287 1.409 . S
C288 C289 1.380 . S
C288 H306 0.930 . S
C289 C288 1.380 . S
C289 C296 1.357 . S
C290 C281 1.511 . S
C290 C291 1.341 . S
C290 C292 1.371 . S
C291 C290 1.341 . S
C291 C295 1.394 . S
C291 H307 0.930 . S
C292 C290 1.371 . S
C292 C293 1.392 . S
C292 H308 0.931 . S
C293 C292 1.392 . S
C293 C294 1.331 . S
C293 H311 0.932 . S
C294 C293 1.331 . S
C294 C295 1.336 . S
C295 C291 1.394 . S
C295 C294 1.336 . S
C295 H310 0.929 . S
C296 C286 1.386 . S
C296 C289 1.357 . S
C296 H309 0.928 . S
H297 C273 0.931 . S
H298 C275 0.930 . S
H299 C277 0.929 . S
H300 C278 0.931 . S
H301 C280 0.930 . S
H302 C284 0.931 . S
H303 C282 0.931 . S
H304 C286 0.931 . S
H305 C287 0.929 . S
H306 C288 0.930 . S
H307 C291 0.930 . S
H308 C292 0.931 . S
H309 C296 0.928 . S
H310 C295 0.929 . S
H311 C293 0.932 . S
Eu312 N341 2.600 . S
Eu312 N347 2.562 . S
Eu312 O356 2.462 . S
Eu312 O357 2.373 . S
Eu312 O359 2.432 . S
Eu312 O360 2.291 . S
Eu312 O364 2.335 . S
Eu312 O367 2.372 . S
Eu312 C376 2.787 . S
C313 N314 1.365 . S
C313 C316 1.405 . S
C313 C320 1.448 . S
N314 C313 1.365 . S
N314 C317 1.319 . S
N314 Eu323 2.600 . S
C315 C317 1.397 . S
C315 C318 1.367 . S
C315 H335 0.931 . S
C316 C313 1.405 . S
C316 C318 1.403 . S
C316 C322 1.439 . S
C317 N314 1.319 . S
C317 C315 1.397 . S
C317 H328 0.930 . S
C318 C315 1.367 . S
C318 C316 1.403 . S
C318 H339 0.929 . S
C319 C320 1.430 . S
C319 C321 1.387 . S
C319 C325 1.404 . S
C320 C313 1.448 . S
C320 C319 1.430 . S
C320 N324 1.351 . S
C321 C319 1.387 . S
C321 C322 1.374 . S
C321 H336 0.931 . S
C322 C316 1.439 . S
C322 C321 1.374 . S
C322 H337 0.931 . S
Eu323 N314 2.600 . S
Eu323 N324 2.562 . S
Eu323 O358 2.335 1_655 S
Eu323 O361 2.372 . S
Eu323 O362 2.462 . S
Eu323 O363 2.373 . S
Eu323 O365 2.432 . S
Eu323 O366 2.291 1_655 S
Eu323 C387 2.787 . S
N324 C320 1.351 . S
N324 Eu323 2.562 . S
N324 C326 1.325 . S
C325 C319 1.404 . S
C325 C327 1.366 . S
C325 H333 0.930 . S
C326 N324 1.325 . S
C326 C327 1.416 . S
C326 H332 0.929 . S
C327 C325 1.366 . S
C327 C326 1.416 . S
C327 H329 0.930 . S
H328 C317 0.930 . S
H329 C327 0.930 . S
H330 C345 0.930 . S
H331 C352 0.930 . S
H332 C326 0.929 . S
H333 C325 0.930 . S
H334 C348 0.929 . S
H335 C315 0.931 . S
H336 C321 0.931 . S
H337 C322 0.931 . S
H338 C343 0.931 . S
H339 C318 0.929 . S
H340 C351 0.930 . S
N341 Eu312 2.600 . S
N341 C342 1.365 . S
N341 C345 1.319 . S
C342 N341 1.365 . S
C342 C344 1.405 . S
C342 C350 1.448 . S
C343 H338 0.931 . S
C343 C345 1.397 . S
C343 C346 1.367 . S
C344 C342 1.405 . S
C344 C346 1.403 . S
C344 C377 1.439 . S
C345 H330 0.930 . S
C345 N341 1.319 . S
C345 C343 1.397 . S
C346 C343 1.367 . S
C346 C344 1.403 . S
C346 H353 0.929 . S
N347 Eu312 2.562 . S
N347 C348 1.325 . S
N347 C350 1.351 . S
C348 H334 0.929 . S
C348 N347 1.325 . S
C348 C352 1.416 . S
C349 C350 1.430 . S
C349 C351 1.404 . S
C349 C378 1.387 . S
C350 C342 1.448 . S
C350 N347 1.351 . S
C350 C349 1.430 . S
C351 H340 0.930 . S
C351 C349 1.404 . S
C351 C352 1.366 . S
C352 H331 0.930 . S
C352 C348 1.416 . S
C352 C351 1.366 . S
H353 C346 0.929 . S
H354 C377 0.931 . S
H355 C378 0.931 . S
O356 Eu312 2.462 . S
O356 C376 1.252 . S
O357 Eu312 2.373 . S
O357 C368 1.249 . S
O358 Eu323 2.335 1_455 S
O358 C368 1.264 . S
O359 Eu312 2.432 . S
O359 C376 1.268 . S
O360 Eu312 2.291 . S
O360 C375 1.255 1_455 S
O361 Eu323 2.372 . S
O361 C375 1.257 . S
O362 Eu323 2.462 . S
O362 C387 1.252 . S
O363 Eu323 2.373 . S
O363 C379 1.249 . S
O364 Eu312 2.335 . S
O364 C379 1.264 1_455 S
O365 Eu323 2.432 . S
O365 C387 1.268 . S
O366 Eu323 2.291 1_455 S
O366 C386 1.255 . S
O367 Eu312 2.372 . S
O367 C386 1.257 . S
C368 O357 1.249 . S
C368 O358 1.264 . S
C369 C372 1.382 . S
C369 C374 1.390 . S
C369 C376 1.506 . S
C370 C371 1.398 . S
C370 C374 1.392 . S
C371 C370 1.398 . S
C371 C373 1.372 . S
C371 H388 0.931 . S
C372 C369 1.382 . S
C372 C373 1.390 . S
C372 H389 0.931 . S
C373 C371 1.372 . S
C373 C372 1.390 . S
C373 H390 0.929 . S
C374 C369 1.390 . S
C374 C370 1.392 . S
C374 H391 0.930 . S
C375 O360 1.255 1_655 S
C375 O361 1.257 . S
C376 Eu312 2.787 . S
C376 O356 1.252 . S
C376 O359 1.268 . S
C376 C369 1.506 . S
C377 C344 1.439 . S
C377 H354 0.931 . S
C377 C378 1.374 . S
C378 C349 1.387 . S
C378 H355 0.931 . S
C378 C377 1.374 . S
C379 O363 1.249 . S
C379 O364 1.264 1_655 S
C380 C383 1.382 . S
C380 C384 1.390 . S
C380 C387 1.506 . S
C381 C382 1.398 . S
C381 C384 1.392 . S
C382 C381 1.398 . S
C382 C385 1.372 . S
C382 H392 0.931 . S
C383 C380 1.382 . S
C383 C385 1.390 . S
C383 H393 0.931 . S
C384 C380 1.390 . S
C384 C381 1.392 . S
C384 H394 0.930 . S
C385 C382 1.372 . S
C385 C383 1.390 . S
C385 H395 0.929 . S
C386 O366 1.255 . S
C386 O367 1.257 . S
C387 Eu323 2.787 . S
C387 O362 1.252 . S
C387 O365 1.268 . S
C387 C380 1.506 . S
H388 C371 0.931 . S
H389 C372 0.931 . S
H390 C373 0.929 . S
H391 C374 0.930 . S
H392 C382 0.931 . S
H393 C383 0.931 . S
H394 C384 0.930 . S
H395 C385 0.929 . S
Eu396 N425 2.600 . S
Eu396 N431 2.562 . S
Eu396 O440 2.462 . S
Eu396 O441 2.373 . S
Eu396 O443 2.432 . S
Eu396 O444 2.291 . S
Eu396 O448 2.335 . S
Eu396 O451 2.372 . S
Eu396 C460 2.787 . S
C397 N398 1.365 . S
C397 C400 1.405 . S
C397 C404 1.448 . S
N398 C397 1.365 . S
N398 C401 1.319 . S
N398 Eu407 2.600 . S
C399 C401 1.397 . S
C399 C402 1.367 . S
C399 H419 0.931 . S
C400 C397 1.405 . S
C400 C402 1.403 . S
C400 C406 1.439 . S
C401 N398 1.319 . S
C401 C399 1.397 . S
C401 H412 0.930 . S
C402 C399 1.367 . S
C402 C400 1.403 . S
C402 H423 0.929 . S
C403 C404 1.430 . S
C403 C405 1.387 . S
C403 C409 1.404 . S
C404 C397 1.448 . S
C404 C403 1.430 . S
C404 N408 1.351 . S
C405 C403 1.387 . S
C405 C406 1.374 . S
C405 H420 0.931 . S
C406 C400 1.439 . S
C406 C405 1.374 . S
C406 H421 0.931 . S
Eu407 N398 2.600 . S
Eu407 N408 2.562 . S
Eu407 O442 2.335 . S
Eu407 O445 2.372 . S
Eu407 O446 2.462 . S
Eu407 O447 2.373 . S
Eu407 O449 2.432 . S
Eu407 O450 2.291 . S
Eu407 C471 2.787 . S
N408 C404 1.351 . S
N408 Eu407 2.562 . S
N408 C410 1.325 . S
C409 C403 1.404 . S
C409 C411 1.366 . S
C409 H417 0.930 . S
C410 N408 1.325 . S
C410 C411 1.416 . S
C410 H416 0.929 . S
C411 C409 1.366 . S
C411 C410 1.416 . S
C411 H413 0.930 . S
H412 C401 0.930 . S
H413 C411 0.930 . S
H414 C429 0.930 . S
H415 C436 0.930 . S
H416 C410 0.929 . S
H417 C409 0.930 . S
H418 C432 0.929 . S
H419 C399 0.931 . S
H420 C405 0.931 . S
H421 C406 0.931 . S
H422 C427 0.931 . S
H423 C402 0.929 . S
H424 C435 0.930 . S
N425 Eu396 2.600 . S
N425 C426 1.365 . S
N425 C429 1.319 . S
C426 N425 1.365 . S
C426 C428 1.405 . S
C426 C434 1.448 . S
C427 H422 0.931 . S
C427 C429 1.397 . S
C427 C430 1.367 . S
C428 C426 1.405 . S
C428 C430 1.403 . S
C428 C461 1.439 . S
C429 H414 0.930 . S
C429 N425 1.319 . S
C429 C427 1.397 . S
C430 C427 1.367 . S
C430 C428 1.403 . S
C430 H437 0.929 . S
N431 Eu396 2.562 . S
N431 C432 1.325 . S
N431 C434 1.351 . S
C432 H418 0.929 . S
C432 N431 1.325 . S
C432 C436 1.416 . S
C433 C434 1.430 . S
C433 C435 1.404 . S
C433 C462 1.387 . S
C434 C426 1.448 . S
C434 N431 1.351 . S
C434 C433 1.430 . S
C435 H424 0.930 . S
C435 C433 1.404 . S
C435 C436 1.366 . S
C436 H415 0.930 . S
C436 C432 1.416 . S
C436 C435 1.366 . S
H437 C430 0.929 . S
H438 C461 0.931 . S
H439 C462 0.931 . S
O440 Eu396 2.462 . S
O440 C460 1.252 . S
O441 Eu396 2.373 . S
O441 C452 1.249 . S
O442 Eu407 2.335 . S
O442 C452 1.264 . S
O443 Eu396 2.432 . S
O443 C460 1.268 . S
O444 Eu396 2.291 . S
O444 C459 1.255 . S
O445 Eu407 2.372 . S
O445 C459 1.257 . S
O446 Eu407 2.462 . S
O446 C471 1.252 . S
O447 Eu407 2.373 . S
O447 C463 1.249 . S
O448 Eu396 2.335 . S
O448 C463 1.264 . S
O449 Eu407 2.432 . S
O449 C471 1.268 . S
O450 Eu407 2.291 . S
O450 C470 1.255 . S
O451 Eu396 2.372 . S
O451 C470 1.257 . S
C452 O441 1.249 . S
C452 O442 1.264 . S
C453 C456 1.382 . S
C453 C458 1.390 . S
C453 C460 1.506 . S
C454 C455 1.398 . S
C454 C458 1.392 . S
C455 C454 1.398 . S
C455 C457 1.372 . S
C455 H472 0.931 . S
C456 C453 1.382 . S
C456 C457 1.390 . S
C456 H473 0.931 . S
C457 C455 1.372 . S
C457 C456 1.390 . S
C457 H474 0.929 . S
C458 C453 1.390 . S
C458 C454 1.392 . S
C458 H475 0.930 . S
C459 O444 1.255 . S
C459 O445 1.257 . S
C460 Eu396 2.787 . S
C460 O440 1.252 . S
C460 O443 1.268 . S
C460 C453 1.506 . S
C461 C428 1.439 . S
C461 H438 0.931 . S
C461 C462 1.374 . S
C462 C433 1.387 . S
C462 H439 0.931 . S
C462 C461 1.374 . S
C463 O447 1.249 . S
C463 O448 1.264 . S
C464 C467 1.382 . S
C464 C468 1.390 . S
C464 C471 1.506 . S
C465 C466 1.398 . S
C465 C468 1.392 . S
C466 C465 1.398 . S
C466 C469 1.372 . S
C466 H476 0.931 . S
C467 C464 1.382 . S
C467 C469 1.390 . S
C467 H477 0.931 . S
C468 C464 1.390 . S
C468 C465 1.392 . S
C468 H478 0.930 . S
C469 C466 1.372 . S
C469 C467 1.390 . S
C469 H479 0.929 . S
C470 O450 1.255 . S
C470 O451 1.257 . S
C471 Eu407 2.787 . S
C471 O446 1.252 . S
C471 O449 1.268 . S
C471 C464 1.506 . S
H472 C455 0.931 . S
H473 C456 0.931 . S
H474 C457 0.929 . S
H475 C458 0.930 . S
H476 C466 0.931 . S
H477 C467 0.931 . S
H478 C468 0.930 . S
H479 C469 0.929 . S
Eu480 N509 2.600 . S
Eu480 N515 2.562 . S
Eu480 O524 2.462 . S
Eu480 O525 2.373 . S
Eu480 O527 2.432 . S
Eu480 O528 2.291 . S
Eu480 O532 2.335 . S
Eu480 O535 2.372 . S
Eu480 C544 2.787 . S
C481 N482 1.365 . S
C481 C484 1.405 . S
C481 C488 1.448 . S
N482 C481 1.365 . S
N482 C485 1.319 . S
N482 Eu491 2.600 . S
C483 C485 1.397 . S
C483 C486 1.367 . S
C483 H503 0.931 . S
C484 C481 1.405 . S
C484 C486 1.403 . S
C484 C490 1.439 . S
C485 N482 1.319 . S
C485 C483 1.397 . S
C485 H496 0.930 . S
C486 C483 1.367 . S
C486 C484 1.403 . S
C486 H507 0.929 . S
C487 C488 1.430 . S
C487 C489 1.387 . S
C487 C493 1.404 . S
C488 C481 1.448 . S
C488 C487 1.430 . S
C488 N492 1.351 . S
C489 C487 1.387 . S
C489 C490 1.374 . S
C489 H504 0.931 . S
C490 C484 1.439 . S
C490 C489 1.374 . S
C490 H505 0.931 . S
Eu491 N482 2.600 . S
Eu491 N492 2.562 . S
Eu491 O526 2.335 1_655 S
Eu491 O529 2.372 . S
Eu491 O530 2.462 . S
Eu491 O531 2.373 . S
Eu491 O533 2.432 . S
Eu491 O534 2.291 1_655 S
Eu491 C555 2.787 . S
N492 C488 1.351 . S
N492 Eu491 2.562 . S
N492 C494 1.325 . S
C493 C487 1.404 . S
C493 C495 1.366 . S
C493 H501 0.930 . S
C494 N492 1.325 . S
C494 C495 1.416 . S
C494 H500 0.929 . S
C495 C493 1.366 . S
C495 C494 1.416 . S
C495 H497 0.930 . S
H496 C485 0.930 . S
H497 C495 0.930 . S
H498 C513 0.930 . S
H499 C520 0.930 . S
H500 C494 0.929 . S
H501 C493 0.930 . S
H502 C516 0.929 . S
H503 C483 0.931 . S
H504 C489 0.931 . S
H505 C490 0.931 . S
H506 C511 0.931 . S
H507 C486 0.929 . S
H508 C519 0.930 . S
N509 Eu480 2.600 . S
N509 C510 1.365 . S
N509 C513 1.319 . S
C510 N509 1.365 . S
C510 C512 1.405 . S
C510 C518 1.448 . S
C511 H506 0.931 . S
C511 C513 1.397 . S
C511 C514 1.367 . S
C512 C510 1.405 . S
C512 C514 1.403 . S
C512 C545 1.439 . S
C513 H498 0.930 . S
C513 N509 1.319 . S
C513 C511 1.397 . S
C514 C511 1.367 . S
C514 C512 1.403 . S
C514 H521 0.929 . S
N515 Eu480 2.562 . S
N515 C516 1.325 . S
N515 C518 1.351 . S
C516 H502 0.929 . S
C516 N515 1.325 . S
C516 C520 1.416 . S
C517 C518 1.430 . S
C517 C519 1.404 . S
C517 C546 1.387 . S
C518 C510 1.448 . S
C518 N515 1.351 . S
C518 C517 1.430 . S
C519 H508 0.930 . S
C519 C517 1.404 . S
C519 C520 1.366 . S
C520 H499 0.930 . S
C520 C516 1.416 . S
C520 C519 1.366 . S
H521 C514 0.929 . S
H522 C545 0.931 . S
H523 C546 0.931 . S
O524 Eu480 2.462 . S
O524 C544 1.252 . S
O525 Eu480 2.373 . S
O525 C536 1.249 . S
O526 Eu491 2.335 1_455 S
O526 C536 1.264 . S
O527 Eu480 2.432 . S
O527 C544 1.268 . S
O528 Eu480 2.291 . S
O528 C543 1.255 1_455 S
O529 Eu491 2.372 . S
O529 C543 1.257 . S
O530 Eu491 2.462 . S
O530 C555 1.252 . S
O531 Eu491 2.373 . S
O531 C547 1.249 . S
O532 Eu480 2.335 . S
O532 C547 1.264 1_455 S
O533 Eu491 2.432 . S
O533 C555 1.268 . S
O534 Eu491 2.291 1_455 S
O534 C554 1.255 . S
O535 Eu480 2.372 . S
O535 C554 1.257 . S
C536 O525 1.249 . S
C536 O526 1.264 . S
C537 C540 1.382 . S
C537 C542 1.390 . S
C537 C544 1.506 . S
C538 C539 1.398 . S
C538 C542 1.392 . S
C539 C538 1.398 . S
C539 C541 1.372 . S
C539 H556 0.931 . S
C540 C537 1.382 . S
C540 C541 1.390 . S
C540 H557 0.931 . S
C541 C539 1.372 . S
C541 C540 1.390 . S
C541 H558 0.929 . S
C542 C537 1.390 . S
C542 C538 1.392 . S
C542 H559 0.930 . S
C543 O528 1.255 1_655 S
C543 O529 1.257 . S
C544 Eu480 2.787 . S
C544 O524 1.252 . S
C544 O527 1.268 . S
C544 C537 1.506 . S
C545 C512 1.439 . S
C545 H522 0.931 . S
C545 C546 1.374 . S
C546 C517 1.387 . S
C546 H523 0.931 . S
C546 C545 1.374 . S
C547 O531 1.249 . S
C547 O532 1.264 1_655 S
C548 C551 1.382 . S
C548 C552 1.390 . S
C548 C555 1.506 . S
C549 C550 1.398 . S
C549 C552 1.392 . S
C550 C549 1.398 . S
C550 C553 1.372 . S
C550 H560 0.931 . S
C551 C548 1.382 . S
C551 C553 1.390 . S
C551 H561 0.931 . S
C552 C548 1.390 . S
C552 C549 1.392 . S
C552 H562 0.930 . S
C553 C550 1.372 . S
C553 C551 1.390 . S
C553 H563 0.929 . S
C554 O534 1.255 . S
C554 O535 1.257 . S
C555 Eu491 2.787 . S
C555 O530 1.252 . S
C555 O533 1.268 . S
C555 C548 1.506 . S
H556 C539 0.931 . S
H557 C540 0.931 . S
H558 C541 0.929 . S
H559 C542 0.930 . S
H560 C550 0.931 . S
H561 C551 0.931 . S
H562 C552 0.930 . S
H563 C553 0.929 . S
Eu564 N593 2.600 . S
Eu564 N599 2.562 . S
Eu564 O608 2.462 . S
Eu564 O609 2.373 . S
Eu564 O611 2.432 . S
Eu564 O612 2.291 . S
Eu564 O616 2.335 . S
Eu564 O619 2.372 . S
Eu564 C628 2.787 . S
C565 N566 1.365 . S
C565 C568 1.405 . S
C565 C572 1.448 . S
N566 C565 1.365 . S
N566 C569 1.319 . S
N566 Eu575 2.600 . S
C567 C569 1.397 . S
C567 C570 1.367 . S
C567 H587 0.931 . S
C568 C565 1.405 . S
C568 C570 1.403 . S
C568 C574 1.439 . S
C569 N566 1.319 . S
C569 C567 1.397 . S
C569 H580 0.930 . S
C570 C567 1.367 . S
C570 C568 1.403 . S
C570 H591 0.929 . S
C571 C572 1.430 . S
C571 C573 1.387 . S
C571 C577 1.404 . S
C572 C565 1.448 . S
C572 C571 1.430 . S
C572 N576 1.351 . S
C573 C571 1.387 . S
C573 C574 1.374 . S
C573 H588 0.931 . S
C574 C568 1.439 . S
C574 C573 1.374 . S
C574 H589 0.931 . S
Eu575 N566 2.600 . S
Eu575 N576 2.562 . S
Eu575 O610 2.335 . S
Eu575 O613 2.372 . S
Eu575 O614 2.462 . S
Eu575 O615 2.373 . S
Eu575 O617 2.432 . S
Eu575 O618 2.291 . S
Eu575 C639 2.787 . S
N576 C572 1.351 . S
N576 Eu575 2.562 . S
N576 C578 1.325 . S
C577 C571 1.404 . S
C577 C579 1.366 . S
C577 H585 0.930 . S
C578 N576 1.325 . S
C578 C579 1.416 . S
C578 H584 0.929 . S
C579 C577 1.366 . S
C579 C578 1.416 . S
C579 H581 0.930 . S
H580 C569 0.930 . S
H581 C579 0.930 . S
H582 C597 0.930 . S
H583 C604 0.930 . S
H584 C578 0.929 . S
H585 C577 0.930 . S
H586 C600 0.929 . S
H587 C567 0.931 . S
H588 C573 0.931 . S
H589 C574 0.931 . S
H590 C595 0.931 . S
H591 C570 0.929 . S
H592 C603 0.930 . S
N593 Eu564 2.600 . S
N593 C594 1.365 . S
N593 C597 1.319 . S
C594 N593 1.365 . S
C594 C596 1.405 . S
C594 C602 1.448 . S
C595 H590 0.931 . S
C595 C597 1.397 . S
C595 C598 1.367 . S
C596 C594 1.405 . S
C596 C598 1.403 . S
C596 C629 1.439 . S
C597 H582 0.930 . S
C597 N593 1.319 . S
C597 C595 1.397 . S
C598 C595 1.367 . S
C598 C596 1.403 . S
C598 H605 0.929 . S
N599 Eu564 2.562 . S
N599 C600 1.325 . S
N599 C602 1.351 . S
C600 H586 0.929 . S
C600 N599 1.325 . S
C600 C604 1.416 . S
C601 C602 1.430 . S
C601 C603 1.404 . S
C601 C630 1.387 . S
C602 C594 1.448 . S
C602 N599 1.351 . S
C602 C601 1.430 . S
C603 H592 0.930 . S
C603 C601 1.404 . S
C603 C604 1.366 . S
C604 H583 0.930 . S
C604 C600 1.416 . S
C604 C603 1.366 . S
H605 C598 0.929 . S
H606 C629 0.931 . S
H607 C630 0.931 . S
O608 Eu564 2.462 . S
O608 C628 1.252 . S
O609 Eu564 2.373 . S
O609 C620 1.249 . S
O610 Eu575 2.335 . S
O610 C620 1.264 . S
O611 Eu564 2.432 . S
O611 C628 1.268 . S
O612 Eu564 2.291 . S
O612 C627 1.255 . S
O613 Eu575 2.372 . S
O613 C627 1.257 . S
O614 Eu575 2.462 . S
O614 C639 1.252 . S
O615 Eu575 2.373 . S
O615 C631 1.249 . S
O616 Eu564 2.335 . S
O616 C631 1.264 . S
O617 Eu575 2.432 . S
O617 C639 1.268 . S
O618 Eu575 2.291 . S
O618 C638 1.255 . S
O619 Eu564 2.372 . S
O619 C638 1.257 . S
C620 O609 1.249 . S
C620 O610 1.264 . S
C621 C624 1.382 . S
C621 C626 1.390 . S
C621 C628 1.506 . S
C622 C623 1.398 . S
C622 C626 1.392 . S
C623 C622 1.398 . S
C623 C625 1.372 . S
C623 H640 0.931 . S
C624 C621 1.382 . S
C624 C625 1.390 . S
C624 H641 0.931 . S
C625 C623 1.372 . S
C625 C624 1.390 . S
C625 H642 0.929 . S
C626 C621 1.390 . S
C626 C622 1.392 . S
C626 H643 0.930 . S
C627 O612 1.255 . S
C627 O613 1.257 . S
C628 Eu564 2.787 . S
C628 O608 1.252 . S
C628 O611 1.268 . S
C628 C621 1.506 . S
C629 C596 1.439 . S
C629 H606 0.931 . S
C629 C630 1.374 . S
C630 C601 1.387 . S
C630 H607 0.931 . S
C630 C629 1.374 . S
C631 O615 1.249 . S
C631 O616 1.264 . S
C632 C635 1.382 . S
C632 C636 1.390 . S
C632 C639 1.506 . S
C633 C634 1.398 . S
C633 C636 1.392 . S
C634 C633 1.398 . S
C634 C637 1.372 . S
C634 H644 0.931 . S
C635 C632 1.382 . S
C635 C637 1.390 . S
C635 H645 0.931 . S
C636 C632 1.390 . S
C636 C633 1.392 . S
C636 H646 0.930 . S
C637 C634 1.372 . S
C637 C635 1.390 . S
C637 H647 0.929 . S
C638 O618 1.255 . S
C638 O619 1.257 . S
C639 Eu575 2.787 . S
C639 O614 1.252 . S
C639 O617 1.268 . S
C639 C632 1.506 . S
H640 C623 0.931 . S
H641 C624 0.931 . S
H642 C625 0.929 . S
H643 C626 0.930 . S
H644 C634 0.931 . S
H645 C635 0.931 . S
H646 C636 0.930 . S
H647 C637 0.929 . S
C648 C649 1.349 . S
C648 C650 1.327 . S
C648 H673 0.950 . S
C649 C648 1.349 . S
C649 C665 1.349 . S
C650 C648 1.327 . S
C650 C669 1.430 1_565 S
C650 H674 0.950 . S
C651 C668 1.574 . S
C651 C670 1.368 . S
C651 H675 0.949 . S
H652 C656 0.949 . S
C653 C654 1.349 . S
C653 C655 1.327 . S
C653 H676 0.950 . S
C654 C653 1.349 . S
C654 C666 1.349 . S
C655 C653 1.327 . S
C655 C671 1.429 . S
C655 H677 0.950 . S
C656 H652 0.949 . S
C656 C664 1.574 . S
C656 C672 1.368 . S
H657 C665 0.950 . S
H658 C663 0.950 . S
H659 C664 0.949 1_565 S
H660 C666 0.950 . S
H661 C667 0.950 . S
H662 C668 0.949 . S
C663 H658 0.950 . S
C663 C665 1.327 1_545 S
C663 C669 1.428 . S
C664 C656 1.574 . S
C664 H659 0.949 1_545 S
C664 C670 1.368 . S
C665 C649 1.349 . S
C665 H657 0.950 . S
C665 C663 1.327 1_565 S
C666 C654 1.349 . S
C666 H660 0.950 . S
C666 C667 1.327 . S
C667 H661 0.950 . S
C667 C666 1.327 . S
C667 C671 1.429 . S
C668 C651 1.574 . S
C668 H662 0.949 . S
C668 C672 1.368 . S
C669 C650 1.430 1_545 S
C669 C663 1.428 . S
C669 C670 1.522 . S
C670 C651 1.368 . S
C670 C664 1.368 . S
C670 C669 1.522 . S
C671 C655 1.429 . S
C671 C667 1.429 . S
C671 C672 1.523 . S
C672 C656 1.368 . S
C672 C668 1.368 . S
C672 C671 1.523 . S
H673 C648 0.950 . S
H674 C650 0.950 . S
H675 C651 0.949 . S
H676 C653 0.950 . S
H677 C655 0.950 . S
C678 C679 1.349 . S
C678 C680 1.327 . S
C678 H703 0.950 . S
C679 C678 1.349 . S
C679 C695 1.349 . S
C680 C678 1.327 . S
C680 C699 1.429 . S
C680 H704 0.950 . S
C681 C698 1.574 . S
C681 C700 1.368 . S
C681 H705 0.949 . S
H682 C686 0.949 . S
C683 C684 1.349 . S
C683 C685 1.327 . S
C683 H706 0.950 . S
C684 C683 1.349 . S
C684 C696 1.349 . S
C685 C683 1.327 . S
C685 C701 1.429 . S
C685 H707 0.950 . S
C686 H682 0.949 . S
C686 C694 1.574 . S
C686 C702 1.368 . S
H687 C695 0.950 . S
H688 C693 0.950 . S
H689 C694 0.949 . S
H690 C696 0.950 . S
H691 C697 0.950 . S
H692 C698 0.949 . S
C693 H688 0.950 . S
C693 C695 1.327 . S
C693 C699 1.429 . S
C694 C686 1.574 . S
C694 H689 0.949 . S
C694 C700 1.368 . S
C695 C679 1.349 . S
C695 H687 0.950 . S
C695 C693 1.327 . S
C696 C684 1.349 . S
C696 H690 0.950 . S
C696 C697 1.327 . S
C697 H691 0.950 . S
C697 C696 1.327 . S
C697 C701 1.429 . S
C698 C681 1.574 . S
C698 H692 0.949 . S
C698 C702 1.368 . S
C699 C680 1.429 . S
C699 C693 1.429 . S
C699 C700 1.523 . S
C700 C681 1.368 . S
C700 C694 1.368 . S
C700 C699 1.523 . S
C701 C685 1.429 . S
C701 C697 1.429 . S
C701 C702 1.523 . S
C702 C686 1.368 . S
C702 C698 1.368 . S
C702 C701 1.523 . S
H703 C678 0.950 . S
H704 C680 0.950 . S
H705 C681 0.949 . S
H706 C683 0.950 . S
H707 C685 0.950 . S
C708 C709 1.349 . S
C708 C710 1.327 . S
C708 H733 0.950 . S
C709 C708 1.349 . S
C709 C725 1.349 . S
C710 C708 1.327 . S
C710 C729 1.429 . S
C710 H734 0.950 . S
C711 C728 1.574 . S
C711 C730 1.368 . S
C711 H735 0.949 . S
H712 C716 0.949 . S
C713 C714 1.349 . S
C713 C715 1.327 . S
C713 H736 0.950 . S
C714 C713 1.349 . S
C714 C726 1.349 . S
C715 C713 1.327 . S
C715 C731 1.429 . S
C715 H737 0.950 . S
C716 H712 0.949 . S
C716 C724 1.574 . S
C716 C732 1.368 . S
H717 C725 0.950 . S
H718 C723 0.950 . S
H719 C724 0.949 . S
H720 C726 0.950 . S
H721 C727 0.950 . S
H722 C728 0.949 . S
C723 H718 0.950 . S
C723 C725 1.327 . S
C723 C729 1.429 . S
C724 C716 1.574 . S
C724 H719 0.949 . S
C724 C730 1.368 . S
C725 C709 1.349 . S
C725 H717 0.950 . S
C725 C723 1.327 . S
C726 C714 1.349 . S
C726 H720 0.950 . S
C726 C727 1.327 . S
C727 H721 0.950 . S
C727 C726 1.327 . S
C727 C731 1.429 . S
C728 C711 1.574 . S
C728 H722 0.949 . S
C728 C732 1.368 . S
C729 C710 1.429 . S
C729 C723 1.429 . S
C729 C730 1.523 . S
C730 C711 1.368 . S
C730 C724 1.368 . S
C730 C729 1.523 . S
C731 C715 1.429 . S
C731 C727 1.429 . S
C731 C732 1.523 . S
C732 C716 1.368 . S
C732 C728 1.368 . S
C732 C731 1.523 . S
H733 C708 0.950 . S
H734 C710 0.950 . S
H735 C711 0.949 . S
H736 C713 0.950 . S
H737 C715 0.950 . S
C738 C739 1.349 . S
C738 C740 1.327 . S
C738 H763 0.950 . S
C739 C738 1.349 . S
C739 C755 1.349 . S
C740 C738 1.327 . S
C740 C759 1.429 1_565 S
C740 H764 0.950 . S
C741 C758 1.574 . S
C741 C760 1.368 . S
C741 H765 0.949 . S
H742 C746 0.949 . S
C743 C744 1.349 . S
C743 C745 1.327 . S
C743 H766 0.950 . S
C744 C743 1.349 . S
C744 C756 1.349 . S
C745 C743 1.327 . S
C745 C761 1.429 . S
C745 H767 0.950 . S
C746 H742 0.949 . S
C746 C754 1.574 . S
C746 C762 1.368 . S
H747 C755 0.950 . S
H748 C753 0.950 . S
H749 C754 0.949 1_565 S
H750 C756 0.950 . S
H751 C757 0.950 . S
H752 C758 0.949 . S
C753 H748 0.950 . S
C753 C755 1.327 1_545 S
C753 C759 1.429 . S
C754 C746 1.574 . S
C754 H749 0.949 1_545 S
C754 C760 1.368 . S
C755 C739 1.349 . S
C755 H747 0.950 . S
C755 C753 1.327 1_565 S
C756 C744 1.349 . S
C756 H750 0.950 . S
C756 C757 1.327 . S
C757 H751 0.950 . S
C757 C756 1.327 . S
C757 C761 1.429 . S
C758 C741 1.574 . S
C758 H752 0.949 . S
C758 C762 1.368 . S
C759 C740 1.429 1_545 S
C759 C753 1.429 . S
C759 C760 1.523 . S
C760 C741 1.368 . S
C760 C754 1.368 . S
C760 C759 1.523 . S
C761 C745 1.429 . S
C761 C757 1.429 . S
C761 C762 1.523 . S
C762 C746 1.368 . S
C762 C758 1.368 . S
C762 C761 1.523 . S
H763 C738 0.950 . S
H764 C740 0.950 . S
H765 C741 0.949 . S
H766 C743 0.950 . S
H767 C745 0.950 . S
C768 C769 1.349 . S
C768 C770 1.327 . S
C768 H793 0.950 . S
C769 C768 1.349 . S
C769 C785 1.349 . S
C770 C768 1.327 . S
C770 C789 1.429 1_545 S
C770 H794 0.950 1_545 S
C771 C788 1.574 . S
C771 C790 1.368 . S
C771 H795 0.949 . S
H772 C776 0.949 . S
C773 C774 1.349 . S
C773 C775 1.327 . S
C773 H796 0.950 . S
C774 C773 1.349 . S
C774 C786 1.349 . S
C775 C773 1.327 . S
C775 C791 1.429 . S
C775 H797 0.950 . S
C776 H772 0.949 . S
C776 C784 1.574 . S
C776 C792 1.368 . S
H777 C785 0.950 . S
H778 C783 0.950 . S
H779 C784 0.949 . S
H780 C786 0.950 . S
H781 C787 0.950 . S
H782 C788 0.949 . S
C783 H778 0.950 . S
C783 C785 1.327 . S
C783 C789 1.431 1_545 S
C784 C776 1.574 . S
C784 H779 0.949 . S
C784 C790 1.368 . S
C785 C769 1.349 . S
C785 H777 0.950 . S
C785 C783 1.327 . S
C786 C774 1.349 . S
C786 H780 0.950 . S
C786 C787 1.327 . S
C787 H781 0.950 . S
C787 C786 1.327 . S
C787 C791 1.429 . S
C788 C771 1.574 . S
C788 H782 0.949 . S
C788 C792 1.368 . S
C789 C770 1.429 1_565 S
C789 C783 1.431 1_565 S
C789 C790 1.520 . S
C790 C771 1.368 . S
C790 C784 1.368 . S
C790 C789 1.520 . S
C791 C775 1.429 . S
C791 C787 1.429 . S
C791 C792 1.523 . S
C792 C776 1.368 . S
C792 C788 1.368 . S
C792 C791 1.523 . S
H793 C768 0.950 . S
H794 C770 0.950 1_565 S
H795 C771 0.949 . S
H796 C773 0.950 . S
H797 C775 0.950 . S
C798 C799 1.349 . S
C798 C800 1.327 . S
C798 H823 0.950 . S
C799 C798 1.349 . S
C799 C815 1.349 . S
C800 C798 1.327 . S
C800 C819 1.429 . S
C800 H824 0.950 . S
C801 C818 1.574 . S
C801 C820 1.368 . S
C801 H825 0.949 . S
H802 C806 0.949 . S
C803 C804 1.349 . S
C803 C805 1.327 . S
C803 H826 0.950 . S
C804 C803 1.349 . S
C804 C816 1.349 . S
C805 C803 1.327 . S
C805 C821 1.429 . S
C805 H827 0.950 . S
C806 H802 0.949 . S
C806 C814 1.574 . S
C806 C822 1.368 . S
H807 C815 0.950 . S
H808 C813 0.950 . S
H809 C814 0.949 . S
H810 C816 0.950 . S
H811 C817 0.950 . S
H812 C818 0.949 . S
C813 H808 0.950 . S
C813 C815 1.327 . S
C813 C819 1.429 . S
C814 C806 1.574 . S
C814 H809 0.949 . S
C814 C820 1.368 . S
C815 C799 1.349 . S
C815 H807 0.950 . S
C815 C813 1.327 . S
C816 C804 1.349 . S
C816 H810 0.950 . S
C816 C817 1.327 . S
C817 H811 0.950 . S
C817 C816 1.327 . S
C817 C821 1.429 . S
C818 C801 1.574 . S
C818 H812 0.949 . S
C818 C822 1.368 . S
C819 C800 1.429 . S
C819 C813 1.429 . S
C819 C820 1.523 . S
C820 C801 1.368 . S
C820 C814 1.368 . S
C820 C819 1.523 . S
C821 C805 1.429 . S
C821 C817 1.429 . S
C821 C822 1.523 . S
C822 C806 1.368 . S
C822 C818 1.368 . S
C822 C821 1.523 . S
H823 C798 0.950 . S
H824 C800 0.950 . S
H825 C801 0.949 . S
H826 C803 0.950 . S
H827 C805 0.950 . S
C828 C829 1.349 . S
C828 C830 1.327 . S
C828 H853 0.950 . S
C829 C828 1.349 . S
C829 C845 1.349 . S
C830 C828 1.327 . S
C830 C849 1.429 . S
C830 H854 0.950 . S
C831 C848 1.574 . S
C831 C850 1.368 . S
C831 H855 0.949 . S
H832 C836 0.949 . S
C833 C834 1.349 . S
C833 C835 1.327 . S
C833 H856 0.950 . S
C834 C833 1.349 . S
C834 C846 1.349 . S
C835 C833 1.327 . S
C835 C851 1.429 . S
C835 H857 0.950 . S
C836 H832 0.949 . S
C836 C844 1.574 . S
C836 C852 1.368 . S
H837 C845 0.950 . S
H838 C843 0.950 . S
H839 C844 0.949 . S
H840 C846 0.950 . S
H841 C847 0.950 . S
H842 C848 0.949 . S
C843 H838 0.950 . S
C843 C845 1.327 . S
C843 C849 1.429 . S
C844 C836 1.574 . S
C844 H839 0.949 . S
C844 C850 1.368 . S
C845 C829 1.349 . S
C845 H837 0.950 . S
C845 C843 1.327 . S
C846 C834 1.349 . S
C846 H840 0.950 . S
C846 C847 1.327 . S
C847 H841 0.950 . S
C847 C846 1.327 . S
C847 C851 1.429 . S
C848 C831 1.574 . S
C848 H842 0.949 . S
C848 C852 1.368 . S
C849 C830 1.429 . S
C849 C843 1.429 . S
C849 C850 1.523 . S
C850 C831 1.368 . S
C850 C844 1.368 . S
C850 C849 1.523 . S
C851 C835 1.429 . S
C851 C847 1.429 . S
C851 C852 1.523 . S
C852 C836 1.368 . S
C852 C848 1.368 . S
C852 C851 1.523 . S
H853 C828 0.950 . S
H854 C830 0.950 . S
H855 C831 0.949 . S
H856 C833 0.950 . S
H857 C835 0.950 . S
C858 C859 1.349 . S
C858 C860 1.327 1_545 S
C858 H883 0.950 . S
C859 C858 1.349 . S
C859 C875 1.349 . S
C860 C858 1.327 1_565 S
C860 C879 1.429 . S
C860 H884 0.950 . S
C861 C878 1.574 . S
C861 C880 1.368 . S
C861 H885 0.949 1_565 S
H862 C866 0.949 . S
C863 C864 1.349 . S
C863 C865 1.327 . S
C863 H886 0.950 . S
C864 C863 1.349 . S
C864 C876 1.349 . S
C865 C863 1.327 . S
C865 C881 1.429 . S
C865 H887 0.950 . S
C866 H862 0.949 . S
C866 C874 1.574 . S
C866 C882 1.368 . S
H867 C875 0.950 . S
H868 C873 0.950 . S
H869 C874 0.949 . S
H870 C876 0.950 . S
H871 C877 0.950 . S
H872 C878 0.949 . S
C873 H868 0.950 . S
C873 C875 1.327 . S
C873 C879 1.429 1_545 S
C874 C866 1.574 . S
C874 H869 0.949 . S
C874 C880 1.368 . S
C875 C859 1.349 . S
C875 H867 0.950 . S
C875 C873 1.327 . S
C876 C864 1.349 . S
C876 H870 0.950 . S
C876 C877 1.327 . S
C877 H871 0.950 . S
C877 C876 1.327 . S
C877 C881 1.429 . S
C878 C861 1.574 . S
C878 H872 0.949 . S
C878 C882 1.368 . S
C879 C860 1.429 . S
C879 C873 1.429 1_565 S
C879 C880 1.523 . S
C880 C861 1.368 . S
C880 C874 1.368 . S
C880 C879 1.523 . S
C881 C865 1.429 . S
C881 C877 1.429 . S
C881 C882 1.523 . S
C882 C866 1.368 . S
C882 C878 1.368 . S
C882 C881 1.523 . S
H883 C858 0.950 . S
H884 C860 0.950 . S
H885 C861 0.949 1_545 S
H886 C863 0.950 . S
H887 C865 0.950 . S
C888 C889 1.349 . S
C888 C890 1.327 . S
C888 H913 0.950 . S
C889 C888 1.349 . S
C889 C905 1.349 . S
C890 C888 1.327 . S
C890 C909 1.429 . S
C890 H914 0.950 . S
C891 C908 1.574 . S
C891 C910 1.368 . S
C891 H915 0.949 . S
H892 C896 0.949 . S
C893 C894 1.349 . S
C893 C895 1.327 . S
C893 H916 0.950 . S
C894 C893 1.349 . S
C894 C906 1.349 . S
C895 C893 1.327 . S
C895 C911 1.429 . S
C895 H917 0.950 . S
C896 H892 0.949 . S
C896 C904 1.574 . S
C896 C912 1.368 . S
H897 C905 0.950 1_556 S
H898 C903 0.950 . S
H899 C904 0.949 . S
H900 C906 0.950 . S
H901 C907 0.950 . S
H902 C908 0.949 . S
C903 H898 0.950 . S
C903 C905 1.327 . S
C903 C909 1.429 . S
C904 C896 1.574 . S
C904 H899 0.949 . S
C904 C910 1.368 . S
C905 C889 1.349 . S
C905 H897 0.950 1_554 S
C905 C903 1.327 . S
C906 C894 1.349 . S
C906 H900 0.950 . S
C906 C907 1.327 . S
C907 H901 0.950 . S
C907 C906 1.327 . S
C907 C911 1.429 . S
C908 C891 1.574 . S
C908 H902 0.949 . S
C908 C912 1.368 . S
C909 C890 1.429 . S
C909 C903 1.429 . S
C909 C910 1.523 . S
C910 C891 1.368 . S
C910 C904 1.368 . S
C910 C909 1.523 . S
C911 C895 1.429 . S
C911 C907 1.429 . S
C911 C912 1.523 . S
C912 C896 1.368 . S
C912 C908 1.368 . S
C912 C911 1.523 . S
H913 C888 0.950 . S
H914 C890 0.950 . S
H915 C891 0.949 . S
H916 C893 0.950 . S
H917 C895 0.950 . S
C918 C919 1.349 . S
C918 C920 1.327 . S
C918 H943 0.950 . S
C919 C918 1.349 . S
C919 C935 1.349 . S
C920 C918 1.327 . S
C920 C939 1.429 . S
C920 H944 0.950 . S
C921 C938 1.574 . S
C921 C940 1.368 . S
C921 H945 0.949 . S
H922 C926 0.949 . S
C923 C924 1.349 . S
C923 C925 1.327 . S
C923 H946 0.950 . S
C924 C923 1.349 . S
C924 C936 1.349 . S
C925 C923 1.327 . S
C925 C941 1.429 . S
C925 H947 0.950 . S
C926 H922 0.949 . S
C926 C934 1.574 . S
C926 C942 1.368 . S
H927 C935 0.950 . S
H928 C933 0.950 . S
H929 C934 0.949 . S
H930 C936 0.950 . S
H931 C937 0.950 . S
H932 C938 0.949 . S
C933 H928 0.950 . S
C933 C935 1.327 . S
C933 C939 1.429 . S
C934 C926 1.574 . S
C934 H929 0.949 . S
C934 C940 1.368 . S
C935 C919 1.349 . S
C935 H927 0.950 . S
C935 C933 1.327 . S
C936 C924 1.349 . S
C936 H930 0.950 . S
C936 C937 1.327 . S
C937 H931 0.950 . S
C937 C936 1.327 . S
C937 C941 1.429 . S
C938 C921 1.574 . S
C938 H932 0.949 . S
C938 C942 1.368 . S
C939 C920 1.429 . S
C939 C933 1.429 . S
C939 C940 1.523 . S
C940 C921 1.368 . S
C940 C934 1.368 . S
C940 C939 1.523 . S
C941 C925 1.429 . S
C941 C937 1.429 . S
C941 C942 1.523 . S
C942 C926 1.368 . S
C942 C938 1.368 . S
C942 C941 1.523 . S
H943 C918 0.950 . S
H944 C920 0.950 . S
H945 C921 0.949 . S
H946 C923 0.950 . S
H947 C925 0.950 . S
C948 C949 1.354 . S
C948 C950 1.327 . S
C948 H973 0.950 1_556 S
C949 C948 1.354 . S
C949 C965 1.364 . S
C950 C948 1.327 . S
C950 C969 1.429 . S
C950 H974 0.950 . S
C951 C968 1.574 . S
C951 C970 1.368 . S
C951 H975 0.949 . S
H952 C956 0.949 . S
C953 C954 1.349 . S
C953 C955 1.327 . S
C953 H976 0.950 . S
C954 C953 1.349 . S
C954 C966 1.349 . S
C955 C953 1.327 . S
C955 C971 1.429 . S
C955 H977 0.950 . S
C956 H952 0.949 . S
C956 C964 1.574 . S
C956 C972 1.368 . S
H957 C965 0.950 . S
H958 C963 0.950 . S
H959 C964 0.949 . S
H960 C966 0.950 . S
H961 C967 0.950 . S
H962 C968 0.949 . S
C963 H958 0.950 . S
C963 C965 1.327 . S
C963 C969 1.429 . S
C964 C956 1.574 . S
C964 H959 0.949 . S
C964 C970 1.368 . S
C965 C949 1.364 . S
C965 H957 0.950 . S
C965 C963 1.327 . S
C966 C954 1.349 . S
C966 H960 0.950 . S
C966 C967 1.327 . S
C967 H961 0.950 . S
C967 C966 1.327 . S
C967 C971 1.429 . S
C968 C951 1.574 . S
C968 H962 0.949 . S
C968 C972 1.368 . S
C969 C950 1.429 . S
C969 C963 1.429 . S
C969 C970 1.523 . S
C970 C951 1.368 . S
C970 C964 1.368 . S
C970 C969 1.523 . S
C971 C955 1.429 . S
C971 C967 1.429 . S
C971 C972 1.523 . S
C972 C956 1.368 . S
C972 C968 1.368 . S
C972 C971 1.523 . S
H973 C948 0.950 1_554 S
H974 C950 0.950 . S
H975 C951 0.949 . S
H976 C953 0.950 . S
H977 C955 0.950 . S
C978 C979 1.349 . S
C978 C980 1.327 . S
C978 H1003 0.950 . S
C979 C978 1.349 . S
C979 C995 1.349 . S
C980 C978 1.327 . S
C980 C999 1.429 . S
C980 H1004 0.950 . S
C981 C998 1.574 . S
C981 C1000 1.368 . S
C981 H1005 0.949 . S
H982 C986 0.949 . S
C983 C984 1.349 . S
C983 C985 1.327 . S
C983 H1006 0.950 . S
C984 C983 1.349 . S
C984 C996 1.349 . S
C985 C983 1.327 . S
C985 C1001 1.429 . S
C985 H1007 0.950 . S
C986 H982 0.949 . S
C986 C994 1.574 . S
C986 C1002 1.368 . S
H987 C995 0.950 . S
H988 C993 0.950 . S
H989 C994 0.949 . S
H990 C996 0.950 . S
H991 C997 0.950 . S
H992 C998 0.949 . S
C993 H988 0.950 . S
C993 C995 1.327 . S
C993 C999 1.429 . S
C994 C986 1.574 . S
C994 H989 0.949 . S
C994 C1000 1.368 . S
C995 C979 1.349 . S
C995 H987 0.950 . S
C995 C993 1.327 . S
C996 C984 1.349 . S
C996 H990 0.950 . S
C996 C997 1.327 . S
C997 H991 0.950 . S
C997 C996 1.327 . S
C997 C1001 1.429 . S
C998 C981 1.574 . S
C998 H992 0.949 . S
C998 C1002 1.368 . S
C999 C980 1.429 . S
C999 C993 1.429 . S
C999 C1000 1.523 . S
C1000 C981 1.368 . S
C1000 C994 1.368 . S
C1000 C999 1.523 . S
C1001 C985 1.429 . S
C1001 C997 1.429 . S
C1001 C1002 1.523 . S
C1002 C986 1.368 . S
C1002 C998 1.368 . S
C1002 C1001 1.523 . S
H1003 C978 0.950 . S
H1004 C980 0.950 . S
H1005 C981 0.949 . S
H1006 C983 0.950 . S
H1007 C985 0.950 . S
C1008 C1009 1.349 . S
C1008 C1010 1.327 . S
C1008 H1033 0.950 . S
C1009 C1008 1.349 . S
C1009 C1025 1.349 . S
C1010 C1008 1.327 . S
C1010 C1029 1.429 . S
C1010 H1034 0.950 . S
C1011 C1028 1.574 . S
C1011 C1030 1.368 . S
C1011 H1035 0.949 . S
H1012 C1016 0.949 . S
C1013 C1014 1.349 . S
C1013 C1015 1.327 . S
C1013 H1036 0.950 . S
C1014 C1013 1.349 . S
C1014 C1026 1.349 . S
C1015 C1013 1.327 . S
C1015 C1031 1.429 . S
C1015 H1037 0.950 . S
C1016 H1012 0.949 . S
C1016 C1024 1.574 . S
C1016 C1032 1.368 . S
H1017 C1025 0.987 . S
H1018 C1023 0.950 . S
H1019 C1024 0.949 . S
H1020 C1026 0.950 . S
H1021 C1027 0.950 . S
H1022 C1028 0.949 . S
C1023 H1018 0.950 . S
C1023 C1025 1.327 . S
C1023 C1029 1.429 . S
C1024 C1016 1.574 . S
C1024 H1019 0.949 . S
C1024 C1030 1.368 . S
C1025 C1009 1.349 . S
C1025 H1017 0.987 . S
C1025 C1023 1.327 . S
C1026 C1014 1.349 . S
C1026 H1020 0.950 . S
C1026 C1027 1.327 . S
C1027 H1021 0.950 . S
C1027 C1026 1.327 . S
C1027 C1031 1.429 . S
C1028 C1011 1.574 . S
C1028 H1022 0.949 . S
C1028 C1032 1.368 . S
C1029 C1010 1.429 . S
C1029 C1023 1.429 . S
C1029 C1030 1.523 . S
C1030 C1011 1.368 . S
C1030 C1024 1.368 . S
C1030 C1029 1.523 . S
C1031 C1015 1.429 . S
C1031 C1027 1.429 . S
C1031 C1032 1.523 . S
C1032 C1016 1.368 . S
C1032 C1028 1.368 . S
C1032 C1031 1.523 . S
H1033 C1008 0.950 . S
H1034 C1010 0.950 . S
H1035 C1011 0.949 . S
H1036 C1013 0.950 . S
H1037 C1015 0.950 . S
C1038 C1039 1.349 . S
C1038 C1040 1.327 . S
C1038 H1063 0.950 . S
C1039 C1038 1.349 . S
C1039 C1055 1.349 . S
C1040 C1038 1.327 . S
C1040 C1059 1.429 . S
C1040 H1064 0.950 . S
C1041 C1058 1.574 . S
C1041 C1060 1.368 . S
C1041 H1065 0.949 . S
H1042 C1046 0.949 . S
C1043 C1044 1.349 . S
C1043 C1045 1.327 . S
C1043 H1066 0.950 . S
C1044 C1043 1.349 . S
C1044 C1056 1.349 . S
C1045 C1043 1.327 . S
C1045 C1061 1.429 . S
C1045 H1067 0.950 . S
C1046 H1042 0.949 . S
C1046 C1054 1.574 . S
C1046 C1062 1.368 . S
H1047 C1055 0.950 . S
H1048 C1053 0.950 . S
H1049 C1054 0.949 . S
H1050 C1056 0.950 . S
H1051 C1057 0.950 . S
H1052 C1058 0.949 . S
C1053 H1048 0.950 . S
C1053 C1055 1.327 . S
C1053 C1059 1.429 . S
C1054 C1046 1.574 . S
C1054 H1049 0.949 . S
C1054 C1060 1.368 . S
C1055 C1039 1.349 . S
C1055 H1047 0.950 . S
C1055 C1053 1.327 . S
C1056 C1044 1.349 . S
C1056 H1050 0.950 . S
C1056 C1057 1.327 . S
C1057 H1051 0.950 . S
C1057 C1056 1.327 . S
C1057 C1061 1.429 . S
C1058 C1041 1.574 . S
C1058 H1052 0.949 . S
C1058 C1062 1.368 . S
C1059 C1040 1.429 . S
C1059 C1053 1.429 . S
C1059 C1060 1.523 . S
C1060 C1041 1.368 . S
C1060 C1054 1.368 . S
C1060 C1059 1.523 . S
C1061 C1045 1.429 . S
C1061 C1057 1.429 . S
C1061 C1062 1.523 . S
C1062 C1046 1.368 . S
C1062 C1058 1.368 . S
C1062 C1061 1.523 . S
H1063 C1038 0.950 . S
H1064 C1040 0.950 . S
H1065 C1041 0.949 . S
H1066 C1043 0.950 . S
H1067 C1045 0.950 . S
C1068 C1069 1.350 . S
C1068 C1070 1.327 . S
C1068 H1093 0.950 1_554 S
C1069 C1068 1.350 . S
C1069 C1085 1.350 . S
C1070 C1068 1.327 . S
C1070 C1089 1.429 . S
C1070 H1094 0.950 . S
C1071 C1088 1.574 . S
C1071 C1090 1.368 . S
C1071 H1095 0.949 . S
H1072 C1076 0.949 . S
C1073 C1074 1.349 . S
C1073 C1075 1.327 . S
C1073 H1096 0.950 . S
C1074 C1073 1.349 . S
C1074 C1086 1.349 . S
C1075 C1073 1.327 . S
C1075 C1091 1.429 . S
C1075 H1097 0.950 . S
C1076 H1072 0.949 . S
C1076 C1084 1.574 . S
C1076 C1092 1.368 . S
H1077 C1085 0.950 . S
H1078 C1083 0.950 . S
H1079 C1084 0.949 . S
H1080 C1086 0.950 . S
H1081 C1087 0.950 . S
H1082 C1088 0.949 . S
C1083 H1078 0.950 . S
C1083 C1085 1.327 . S
C1083 C1089 1.429 . S
C1084 C1076 1.574 . S
C1084 H1079 0.949 . S
C1084 C1090 1.368 . S
C1085 C1069 1.350 . S
C1085 H1077 0.950 . S
C1085 C1083 1.327 . S
C1086 C1074 1.349 . S
C1086 H1080 0.950 . S
C1086 C1087 1.327 . S
C1087 H1081 0.950 . S
C1087 C1086 1.327 . S
C1087 C1091 1.429 . S
C1088 C1071 1.574 . S
C1088 H1082 0.949 . S
C1088 C1092 1.368 . S
C1089 C1070 1.429 . S
C1089 C1083 1.429 . S
C1089 C1090 1.523 . S
C1090 C1071 1.368 . S
C1090 C1084 1.368 . S
C1090 C1089 1.523 . S
C1091 C1075 1.429 . S
C1091 C1087 1.429 . S
C1091 C1092 1.523 . S
C1092 C1076 1.368 . S
C1092 C1088 1.368 . S
C1092 C1091 1.523 . S
H1093 C1068 0.950 1_556 S
H1094 C1070 0.950 . S
H1095 C1071 0.949 . S
H1096 C1073 0.950 . S
H1097 C1075 0.950 . S
C1098 C1099 1.349 . S
C1098 C1100 1.327 . S
C1098 H1123 0.950 . S
C1099 C1098 1.349 . S
C1099 C1115 1.349 . S
C1100 C1098 1.327 . S
C1100 C1119 1.429 . S
C1100 H1124 0.950 . S
C1101 C1118 1.574 . S
C1101 C1120 1.368 . S
C1101 H1125 0.949 . S
H1102 C1106 0.949 . S
C1103 C1104 1.349 . S
C1103 C1105 1.327 . S
C1103 H1126 0.950 . S
C1104 C1103 1.349 . S
C1104 C1116 1.349 . S
C1105 C1103 1.327 . S
C1105 C1121 1.429 . S
C1105 H1127 0.950 . S
C1106 H1102 0.949 . S
C1106 C1114 1.574 . S
C1106 C1122 1.368 . S
H1107 C1115 0.950 . S
H1108 C1113 0.950 . S
H1109 C1114 0.949 . S
H1110 C1116 0.950 . S
H1111 C1117 0.950 . S
H1112 C1118 0.949 . S
C1113 H1108 0.950 . S
C1113 C1115 1.327 . S
C1113 C1119 1.429 . S
C1114 C1106 1.574 . S
C1114 H1109 0.949 . S
C1114 C1120 1.368 . S
C1115 C1099 1.349 . S
C1115 H1107 0.950 . S
C1115 C1113 1.327 . S
C1116 C1104 1.349 . S
C1116 H1110 0.950 . S
C1116 C1117 1.327 . S
C1117 H1111 0.950 . S
C1117 C1116 1.327 . S
C1117 C1121 1.429 . S
C1118 C1101 1.574 . S
C1118 H1112 0.949 . S
C1118 C1122 1.368 . S
C1119 C1100 1.429 . S
C1119 C1113 1.429 . S
C1119 C1120 1.523 . S
C1120 C1101 1.368 . S
C1120 C1114 1.368 . S
C1120 C1119 1.523 . S
C1121 C1105 1.429 . S
C1121 C1117 1.429 . S
C1121 C1122 1.523 . S
C1122 C1106 1.368 . S
C1122 C1118 1.368 . S
C1122 C1121 1.523 . S
H1123 C1098 0.950 . S
H1124 C1100 0.950 . S
H1125 C1101 0.949 . S
H1126 C1103 0.950 . S
H1127 C1105 0.950 . S
C1128 C1129 1.349 . S
C1128 C1130 1.327 . S
C1128 H1153 0.950 . S
C1129 C1128 1.349 . S
C1129 C1145 1.349 . S
C1130 C1128 1.327 . S
C1130 C1149 1.429 . S
C1130 H1154 0.950 . S
C1131 C1148 1.574 . S
C1131 C1150 1.368 . S
C1131 H1155 0.949 . S
H1132 C1136 0.949 . S
C1133 C1134 1.349 . S
C1133 C1135 1.327 . S
C1133 H1156 0.950 . S
C1134 C1133 1.349 . S
C1134 C1146 1.349 . S
C1135 C1133 1.327 . S
C1135 C1151 1.429 . S
C1135 H1157 0.950 . S
C1136 H1132 0.949 . S
C1136 C1144 1.574 . S
C1136 C1152 1.368 . S
H1137 C1145 0.950 . S
H1138 C1143 0.950 . S
H1139 C1144 0.949 . S
H1140 C1146 0.950 . S
H1141 C1147 0.950 . S
H1142 C1148 0.949 . S
C1143 H1138 0.950 . S
C1143 C1145 1.327 . S
C1143 C1149 1.429 . S
C1144 C1136 1.574 . S
C1144 H1139 0.949 . S
C1144 C1150 1.368 . S
C1145 C1129 1.349 . S
C1145 H1137 0.950 . S
C1145 C1143 1.327 . S
C1146 C1134 1.349 . S
C1146 H1140 0.950 . S
C1146 C1147 1.327 . S
C1147 H1141 0.950 . S
C1147 C1146 1.327 . S
C1147 C1151 1.429 . S
C1148 C1131 1.574 . S
C1148 H1142 0.949 . S
C1148 C1152 1.368 . S
C1149 C1130 1.429 . S
C1149 C1143 1.429 . S
C1149 C1150 1.523 . S
C1150 C1131 1.368 . S
C1150 C1144 1.368 . S
C1150 C1149 1.523 . S
C1151 C1135 1.429 . S
C1151 C1147 1.429 . S
C1151 C1152 1.523 . S
C1152 C1136 1.368 . S
C1152 C1148 1.368 . S
C1152 C1151 1.523 . S
H1153 C1128 0.950 . S
H1154 C1130 0.950 . S
H1155 C1131 0.949 . S
H1156 C1133 0.950 . S
H1157 C1135 0.950 . S
C1158 C1159 1.349 . S
C1158 C1160 1.327 . S
C1158 H1183 0.950 . S
C1159 C1158 1.349 . S
C1159 C1175 1.349 . S
C1160 C1158 1.327 . S
C1160 C1179 1.429 . S
C1160 H1184 0.950 . S
C1161 C1178 1.574 . S
C1161 C1180 1.368 . S
C1161 H1185 0.949 . S
H1162 C1166 0.949 . S
C1163 C1164 1.349 . S
C1163 C1165 1.327 . S
C1163 H1186 0.950 . S
C1164 C1163 1.349 . S
C1164 C1176 1.349 . S
C1165 C1163 1.327 . S
C1165 C1181 1.429 . S
C1165 H1187 0.950 . S
C1166 H1162 0.949 . S
C1166 C1174 1.574 . S
C1166 C1182 1.368 . S
H1167 C1175 0.950 . S
H1168 C1173 0.950 . S
H1169 C1174 0.949 . S
H1170 C1176 0.950 . S
H1171 C1177 0.950 . S
H1172 C1178 0.949 . S
C1173 H1168 0.950 . S
C1173 C1175 1.327 . S
C1173 C1179 1.429 . S
C1174 C1166 1.574 . S
C1174 H1169 0.949 . S
C1174 C1180 1.368 . S
C1175 C1159 1.349 . S
C1175 H1167 0.950 . S
C1175 C1173 1.327 . S
C1176 C1164 1.349 . S
C1176 H1170 0.950 . S
C1176 C1177 1.327 . S
C1177 H1171 0.950 . S
C1177 C1176 1.327 . S
C1177 C1181 1.429 . S
C1178 C1161 1.574 . S
C1178 H1172 0.949 . S
C1178 C1182 1.368 . S
C1179 C1160 1.429 . S
C1179 C1173 1.429 . S
C1179 C1180 1.523 . S
C1180 C1161 1.368 . S
C1180 C1174 1.368 . S
C1180 C1179 1.523 . S
C1181 C1165 1.429 . S
C1181 C1177 1.429 . S
C1181 C1182 1.523 . S
C1182 C1166 1.368 . S
C1182 C1178 1.368 . S
C1182 C1181 1.523 . S
H1183 C1158 0.950 . S
H1184 C1160 0.950 . S
H1185 C1161 0.949 . S
H1186 C1163 0.950 . S
H1187 C1165 0.950 . S
C1188 C1189 1.349 . S
C1188 C1190 1.327 . S
C1188 H1213 0.950 . S
C1189 C1188 1.349 . S
C1189 C1205 1.349 . S
C1190 C1188 1.327 . S
C1190 C1209 1.429 . S
C1190 H1214 0.950 . S
C1191 C1208 1.574 . S
C1191 C1210 1.368 . S
C1191 H1215 0.949 . S
H1192 C1196 0.949 . S
C1193 C1194 1.349 . S
C1193 C1195 1.327 . S
C1193 H1216 0.950 . S
C1194 C1193 1.349 . S
C1194 C1206 1.349 . S
C1195 C1193 1.327 . S
C1195 C1211 1.429 . S
C1195 H1217 0.950 . S
C1196 H1192 0.949 . S
C1196 C1204 1.574 . S
C1196 C1212 1.368 . S
H1197 C1205 0.950 . S
H1198 C1203 0.950 . S
H1199 C1204 0.949 . S
H1200 C1206 0.950 . S
H1201 C1207 0.950 . S
H1202 C1208 0.949 . S
C1203 H1198 0.950 . S
C1203 C1205 1.327 . S
C1203 C1209 1.429 . S
C1204 C1196 1.574 . S
C1204 H1199 0.949 . S
C1204 C1210 1.368 . S
C1205 C1189 1.349 . S
C1205 H1197 0.950 . S
C1205 C1203 1.327 . S
C1206 C1194 1.349 . S
C1206 H1200 0.950 . S
C1206 C1207 1.327 . S
C1207 H1201 0.950 . S
C1207 C1206 1.327 . S
C1207 C1211 1.429 . S
C1208 C1191 1.574 . S
C1208 H1202 0.949 . S
C1208 C1212 1.368 . S
C1209 C1190 1.429 . S
C1209 C1203 1.429 . S
C1209 C1210 1.523 . S
C1210 C1191 1.368 . S
C1210 C1204 1.368 . S
C1210 C1209 1.523 . S
C1211 C1195 1.429 . S
C1211 C1207 1.429 . S
C1211 C1212 1.523 . S
C1212 C1196 1.368 . S
C1212 C1208 1.368 . S
C1212 C1211 1.523 . S
H1213 C1188 0.950 . S
H1214 C1190 0.950 . S
H1215 C1191 0.949 . S
H1216 C1193 0.950 . S
H1217 C1195 0.950 . S
C1218 C1219 1.349 . S
C1218 C1220 1.327 . S
C1218 H1243 0.950 . S
C1219 C1218 1.349 . S
C1219 C1235 1.349 . S
C1220 C1218 1.327 . S
C1220 C1239 1.429 . S
C1220 H1244 0.950 . S
C1221 C1238 1.574 . S
C1221 C1240 1.368 . S
C1221 H1245 0.949 . S
H1222 C1226 0.949 . S
C1223 C1224 1.349 . S
C1223 C1225 1.327 . S
C1223 H1246 0.950 . S
C1224 C1223 1.349 . S
C1224 C1236 1.349 . S
C1225 C1223 1.327 . S
C1225 C1241 1.429 . S
C1225 H1247 0.950 . S
C1226 H1222 0.949 . S
C1226 C1234 1.574 . S
C1226 C1242 1.368 . S
H1227 C1235 0.950 . S
H1228 C1233 0.950 . S
H1229 C1234 0.949 . S
H1230 C1236 0.950 . S
H1231 C1237 0.950 . S
H1232 C1238 0.949 . S
C1233 H1228 0.950 . S
C1233 C1235 1.327 . S
C1233 C1239 1.429 . S
C1234 C1226 1.574 . S
C1234 H1229 0.949 . S
C1234 C1240 1.368 . S
C1235 C1219 1.349 . S
C1235 H1227 0.950 . S
C1235 C1233 1.327 . S
C1236 C1224 1.349 . S
C1236 H1230 0.950 . S
C1236 C1237 1.327 . S
C1237 H1231 0.950 . S
C1237 C1236 1.327 . S
C1237 C1241 1.429 . S
C1238 C1221 1.574 . S
C1238 H1232 0.949 . S
C1238 C1242 1.368 . S
C1239 C1220 1.429 . S
C1239 C1233 1.429 . S
C1239 C1240 1.523 . S
C1240 C1221 1.368 . S
C1240 C1234 1.368 . S
C1240 C1239 1.523 . S
C1241 C1225 1.429 . S
C1241 C1237 1.429 . S
C1241 C1242 1.523 . S
C1242 C1226 1.368 . S
C1242 C1238 1.368 . S
C1242 C1241 1.523 . S
H1243 C1218 0.950 . S
H1244 C1220 0.950 . S
H1245 C1221 0.949 . S
H1246 C1223 0.950 . S
H1247 C1225 0.950 . S
C1248 C1249 1.349 . S
C1248 C1250 1.327 . S
C1248 H1273 0.950 . S
C1249 C1248 1.349 . S
C1249 C1265 1.349 . S
C1250 C1248 1.327 . S
C1250 C1269 1.429 . S
C1250 H1274 0.950 . S
C1251 C1268 1.574 . S
C1251 C1270 1.368 . S
C1251 H1275 0.949 . S
H1252 C1256 0.949 . S
C1253 C1254 1.349 . S
C1253 C1255 1.327 . S
C1253 H1276 0.950 . S
C1254 C1253 1.349 . S
C1254 C1266 1.349 . S
C1255 C1253 1.327 . S
C1255 C1271 1.429 . S
C1255 H1277 0.950 . S
C1256 H1252 0.949 . S
C1256 C1264 1.574 . S
C1256 C1272 1.368 . S
H1257 C1265 0.950 . S
H1258 C1263 0.950 . S
H1259 C1264 0.949 . S
H1260 C1266 0.950 . S
H1261 C1267 0.950 . S
H1262 C1268 0.949 . S
C1263 H1258 0.950 . S
C1263 C1265 1.327 . S
C1263 C1269 1.429 . S
C1264 C1256 1.574 . S
C1264 H1259 0.949 . S
C1264 C1270 1.368 . S
C1265 C1249 1.349 . S
C1265 H1257 0.950 . S
C1265 C1263 1.327 . S
C1266 C1254 1.349 . S
C1266 H1260 0.950 . S
C1266 C1267 1.327 . S
C1267 H1261 0.950 . S
C1267 C1266 1.327 . S
C1267 C1271 1.429 . S
C1268 C1251 1.574 . S
C1268 H1262 0.949 . S
C1268 C1272 1.368 . S
C1269 C1250 1.429 . S
C1269 C1263 1.429 . S
C1269 C1270 1.523 . S
C1270 C1251 1.368 . S
C1270 C1264 1.368 . S
C1270 C1269 1.523 . S
C1271 C1255 1.429 . S
C1271 C1267 1.429 . S
C1271 C1272 1.523 . S
C1272 C1256 1.368 . S
C1272 C1268 1.368 . S
C1272 C1271 1.523 . S
H1273 C1248 0.950 . S
H1274 C1250 0.950 . S
H1275 C1251 0.949 . S
H1276 C1253 0.950 . S
H1277 C1255 0.950 . S
C1278 C1279 1.349 . S
C1278 C1280 1.327 . S
C1278 H1303 0.950 . S
C1279 C1278 1.349 . S
C1279 C1295 1.349 . S
C1280 C1278 1.327 . S
C1280 C1299 1.429 . S
C1280 H1304 0.950 . S
C1281 C1298 1.574 . S
C1281 C1300 1.368 . S
C1281 H1305 0.949 . S
H1282 C1286 0.949 . S
C1283 C1284 1.349 . S
C1283 C1285 1.327 . S
C1283 H1306 0.950 . S
C1284 C1283 1.349 . S
C1284 C1296 1.349 . S
C1285 C1283 1.327 . S
C1285 C1301 1.429 . S
C1285 H1307 0.950 . S
C1286 H1282 0.949 . S
C1286 C1294 1.574 . S
C1286 C1302 1.368 . S
H1287 C1295 0.950 . S
H1288 C1293 0.950 . S
H1289 C1294 0.949 . S
H1290 C1296 0.950 . S
H1291 C1297 0.950 . S
H1292 C1298 0.949 . S
C1293 H1288 0.950 . S
C1293 C1295 1.327 . S
C1293 C1299 1.429 . S
C1294 C1286 1.574 . S
C1294 H1289 0.949 . S
C1294 C1300 1.368 . S
C1295 C1279 1.349 . S
C1295 H1287 0.950 . S
C1295 C1293 1.327 . S
C1296 C1284 1.349 . S
C1296 H1290 0.950 . S
C1296 C1297 1.327 . S
C1297 H1291 0.950 . S
C1297 C1296 1.327 . S
C1297 C1301 1.429 . S
C1298 C1281 1.574 . S
C1298 H1292 0.949 . S
C1298 C1302 1.368 . S
C1299 C1280 1.429 . S
C1299 C1293 1.429 . S
C1299 C1300 1.523 . S
C1300 C1281 1.368 . S
C1300 C1294 1.368 . S
C1300 C1299 1.523 . S
C1301 C1285 1.429 . S
C1301 C1297 1.429 . S
C1301 C1302 1.523 . S
C1302 C1286 1.368 . S
C1302 C1298 1.368 . S
C1302 C1301 1.523 . S
H1303 C1278 0.950 . S
H1304 C1280 0.950 . S
H1305 C1281 0.949 . S
H1306 C1283 0.950 . S
H1307 C1285 0.950 . S
C1308 C1309 1.349 . S
C1308 C1310 1.327 . S
C1308 H1333 0.950 . S
C1309 C1308 1.349 . S
C1309 C1325 1.349 . S
C1310 C1308 1.327 . S
C1310 C1329 1.429 . S
C1310 H1334 0.950 . S
C1311 C1328 1.574 . S
C1311 C1330 1.368 . S
C1311 H1335 0.949 . S
H1312 C1316 0.949 . S
C1313 C1314 1.349 . S
C1313 C1315 1.327 . S
C1313 H1336 0.950 . S
C1314 C1313 1.349 . S
C1314 C1326 1.349 . S
C1315 C1313 1.327 . S
C1315 C1331 1.429 . S
C1315 H1337 0.950 . S
C1316 H1312 0.949 . S
C1316 C1324 1.574 . S
C1316 C1332 1.368 . S
H1317 C1325 0.950 . S
H1318 C1323 0.950 . S
H1319 C1324 0.949 . S
H1320 C1326 0.950 . S
H1321 C1327 0.950 . S
H1322 C1328 0.949 . S
C1323 H1318 0.950 . S
C1323 C1325 1.327 . S
C1323 C1329 1.429 . S
C1324 C1316 1.574 . S
C1324 H1319 0.949 . S
C1324 C1330 1.368 . S
C1325 C1309 1.349 . S
C1325 H1317 0.950 . S
C1325 C1323 1.327 . S
C1326 C1314 1.349 . S
C1326 H1320 0.950 . S
C1326 C1327 1.327 . S
C1327 H1321 0.950 . S
C1327 C1326 1.327 . S
C1327 C1331 1.429 . S
C1328 C1311 1.574 . S
C1328 H1322 0.949 . S
C1328 C1332 1.368 . S
C1329 C1310 1.429 . S
C1329 C1323 1.429 . S
C1329 C1330 1.523 . S
C1330 C1311 1.368 . S
C1330 C1324 1.368 . S
C1330 C1329 1.523 . S
C1331 C1315 1.429 . S
C1331 C1327 1.429 . S
C1331 C1332 1.523 . S
C1332 C1316 1.368 . S
C1332 C1328 1.368 . S
C1332 C1331 1.523 . S
H1333 C1308 0.950 . S
H1334 C1310 0.950 . S
H1335 C1311 0.949 . S
H1336 C1313 0.950 . S
H1337 C1315 0.950 . S
C1338 C1339 1.349 . S
C1338 C1340 1.327 . S
C1338 H1363 0.950 . S
C1339 C1338 1.349 . S
C1339 C1355 1.349 . S
C1340 C1338 1.327 . S
C1340 C1359 1.429 . S
C1340 H1364 0.950 . S
C1341 C1358 1.574 . S
C1341 C1360 1.368 . S
C1341 H1365 0.949 . S
H1342 C1346 0.949 . S
C1343 C1344 1.349 . S
C1343 C1345 1.327 . S
C1343 H1366 0.950 . S
C1344 C1343 1.349 . S
C1344 C1356 1.349 . S
C1345 C1343 1.327 . S
C1345 C1361 1.429 . S
C1345 H1367 0.950 . S
C1346 H1342 0.949 . S
C1346 C1354 1.574 . S
C1346 C1362 1.368 . S
H1347 C1355 0.950 . S
H1348 C1353 0.950 . S
H1349 C1354 0.949 . S
H1350 C1356 0.950 . S
H1351 C1357 0.950 . S
H1352 C1358 0.949 . S
C1353 H1348 0.950 . S
C1353 C1355 1.327 . S
C1353 C1359 1.429 . S
C1354 C1346 1.574 . S
C1354 H1349 0.949 . S
C1354 C1360 1.368 . S
C1355 C1339 1.349 . S
C1355 H1347 0.950 . S
C1355 C1353 1.327 . S
C1356 C1344 1.349 . S
C1356 H1350 0.950 . S
C1356 C1357 1.327 . S
C1357 H1351 0.950 . S
C1357 C1356 1.327 . S
C1357 C1361 1.429 . S
C1358 C1341 1.574 . S
C1358 H1352 0.949 . S
C1358 C1362 1.368 . S
C1359 C1340 1.429 . S
C1359 C1353 1.429 . S
C1359 C1360 1.523 . S
C1360 C1341 1.368 . S
C1360 C1354 1.368 . S
C1360 C1359 1.523 . S
C1361 C1345 1.429 . S
C1361 C1357 1.429 . S
C1361 C1362 1.523 . S
C1362 C1346 1.368 . S
C1362 C1358 1.368 . S
C1362 C1361 1.523 . S
H1363 C1338 0.950 . S
H1364 C1340 0.950 . S
H1365 C1341 0.949 . S
H1366 C1343 0.950 . S
H1367 C1345 0.950 . S
C649 C235 1.473 . S
C654 C386 1.458 . S
C684 C470 1.455 . S
C679 C289 1.471 . S
C714 C463 1.464 . S
C709 C157 1.463 . S
C739 C211 1.461 . S
C744 C379 1.461 . S
C774 C543 1.457 . S
C769 C79 1.474 . S
C804 C627 1.460 . S
C799 C118 1.477 . S
C829 C1 1.464 . S
C834 C620 1.463 . S
C859 C40 1.467 . S
C864 C536 1.467 . S
C894 C370 1.346 . S
C889 C55 1.517 1_554 S
C924 C454 1.347 . S
C919 C16 1.517 . S
C954 C465 1.403 . S
C949 C133 1.517 1_556 S
C984 C381 1.403 . S
C979 C94 1.538 . S
C1014 C549 1.350 . S
C1009 C196 1.523 1_556 S
C1039 C172 1.522 . S
C1044 C633 1.350 . S
C1074 C622 1.408 . S
C1069 C274 1.542 1_554 S
C1099 C250 1.544 . S
C1104 C538 1.408 . S
C1134 C368 1.587 . S
C1129 C21 1.587 . S
C1164 C452 1.592 . S
C1159 C60 1.591 . S
C1189 C99 1.578 . S
C1194 C459 1.565 . S
C1224 C375 1.569 . S
C1219 C138 1.583 . S
C1254 C547 1.596 . S
C1249 C177 1.591 . S
C1279 C216 1.589 . S
C1284 C631 1.593 . S
C1309 C255 1.583 . S
C1314 C638 1.574 . S
C1339 C294 1.580 . S
C1344 C554 1.571 . S
