# Generated by pormake.
# Topology ssb, (4,4)-cn, num edge types: 1
# Building blocks:
#     Node 0, Type 0, BuildingBlock: GIZVER_clean_linker_0, # of connection points: 4
#     Node 1, Type 0, BuildingBlock: GIZVER_clean_linker_0, # of connection points: 4
#     Node 2, Type 0, BuildingBlock: GIZVER_clean_linker_0, # of connection points: 4
#     Node 3, Type 0, BuildingBlock: GIZVER_clean_linker_0, # of connection points: 4
#     Node 4, Type 0, BuildingBlock: GIZVER_clean_linker_0, # of connection points: 4
#     Node 5, Type 0, BuildingBlock: GIZVER_clean_linker_0, # of connection points: 4
#     Node 6, Type 0, BuildingBlock: GIZVER_clean_linker_0, # of connection points: 4
#     Node 7, Type 0, BuildingBlock: GIZVER_clean_linker_0, # of connection points: 4
#     Node 8, Type 1, BuildingBlock: NAWXER_clean_sbu_0, # of connection points: 4
#     Node 9, Type 1, BuildingBlock: NAWXER_clean_sbu_0, # of connection points: 4
#     Node 10, Type 1, BuildingBlock: NAWXER_clean_sbu_0, # of connection points: 4
#     Node 11, Type 1, BuildingBlock: NAWXER_clean_sbu_0, # of connection points: 4
#     Node 12, Type 1, BuildingBlock: NAWXER_clean_sbu_0, # of connection points: 4
#     Node 13, Type 1, BuildingBlock: NAWXER_clean_sbu_0, # of connection points: 4
#     Node 14, Type 1, BuildingBlock: NAWXER_clean_sbu_0, # of connection points: 4
#     Node 15, Type 1, BuildingBlock: NAWXER_clean_sbu_0, # of connection points: 4
#     Edge 16, Type (0, 1), BuildingBlock: OJICUG_clean_linker_0, # of connection points: 2
#     Edge 17, Type (0, 1), BuildingBlock: OJICUG_clean_linker_0, # of connection points: 2
#     Edge 18, Type (0, 1), BuildingBlock: OJICUG_clean_linker_0, # of connection points: 2
#     Edge 19, Type (0, 1), BuildingBlock: OJICUG_clean_linker_0, # of connection points: 2
#     Edge 20, Type (0, 1), BuildingBlock: OJICUG_clean_linker_0, # of connection points: 2
#     Edge 21, Type (0, 1), BuildingBlock: OJICUG_clean_linker_0, # of connection points: 2
#     Edge 22, Type (0, 1), BuildingBlock: OJICUG_clean_linker_0, # of connection points: 2
#     Edge 23, Type (0, 1), BuildingBlock: OJICUG_clean_linker_0, # of connection points: 2
#     Edge 24, Type (0, 1), BuildingBlock: OJICUG_clean_linker_0, # of connection points: 2
#     Edge 25, Type (0, 1), BuildingBlock: OJICUG_clean_linker_0, # of connection points: 2
#     Edge 26, Type (0, 1), BuildingBlock: OJICUG_clean_linker_0, # of connection points: 2
#     Edge 27, Type (0, 1), BuildingBlock: OJICUG_clean_linker_0, # of connection points: 2
#     Edge 28, Type (0, 1), BuildingBlock: OJICUG_clean_linker_0, # of connection points: 2
#     Edge 29, Type (0, 1), BuildingBlock: OJICUG_clean_linker_0, # of connection points: 2
#     Edge 30, Type (0, 1), BuildingBlock: OJICUG_clean_linker_0, # of connection points: 2
#     Edge 31, Type (0, 1), BuildingBlock: OJICUG_clean_linker_0, # of connection points: 2
#     Edge 32, Type (0, 1), BuildingBlock: OJICUG_clean_linker_0, # of connection points: 2
#     Edge 33, Type (0, 1), BuildingBlock: OJICUG_clean_linker_0, # of connection points: 2
#     Edge 34, Type (0, 1), BuildingBlock: OJICUG_clean_linker_0, # of connection points: 2
#     Edge 35, Type (0, 1), BuildingBlock: OJICUG_clean_linker_0, # of connection points: 2
#     Edge 36, Type (0, 1), BuildingBlock: OJICUG_clean_linker_0, # of connection points: 2
#     Edge 37, Type (0, 1), BuildingBlock: OJICUG_clean_linker_0, # of connection points: 2
#     Edge 38, Type (0, 1), BuildingBlock: OJICUG_clean_linker_0, # of connection points: 2
#     Edge 39, Type (0, 1), BuildingBlock: OJICUG_clean_linker_0, # of connection points: 2
#     Edge 40, Type (0, 1), BuildingBlock: OJICUG_clean_linker_0, # of connection points: 2
#     Edge 41, Type (0, 1), BuildingBlock: OJICUG_clean_linker_0, # of connection points: 2
#     Edge 42, Type (0, 1), BuildingBlock: OJICUG_clean_linker_0, # of connection points: 2
#     Edge 43, Type (0, 1), BuildingBlock: OJICUG_clean_linker_0, # of connection points: 2
#     Edge 44, Type (0, 1), BuildingBlock: OJICUG_clean_linker_0, # of connection points: 2
#     Edge 45, Type (0, 1), BuildingBlock: OJICUG_clean_linker_0, # of connection points: 2
#     Edge 46, Type (0, 1), BuildingBlock: OJICUG_clean_linker_0, # of connection points: 2
#     Edge 47, Type (0, 1), BuildingBlock: OJICUG_clean_linker_0, # of connection points: 2
# Relax obj value: 0.000
# Max RMSD: 0.030
# Mean RMSD: 0.015
data_MOF--net-ssb--node1-NAWXER_clean_sbu_0--node2-GIZVER_clean_linker_0--edge1-OJICUG_clean_linker_0
_symmetry_space_group_name_H-M    P1
_symmetry_Int_Tables_number       1
_symmetry_cell_setting            triclinic
loop_
_symmetry_equiv_pos_as_xyz
'x, y, z'
_cell_length_a     33.940783
_cell_length_b     34.084686
_cell_length_c     28.733611
_cell_angle_alpha  90.396227
_cell_angle_beta   89.911286
_cell_angle_gamma 89.991452
loop_
_atom_site_label
_atom_site_type_symbol
_atom_site_fract_x
_atom_site_fract_y
_atom_site_fract_z
_atom_type_partial_charge
H0 H 0.28206 0.19236 0.32558 0.0
H1 H 0.21503 0.29926 0.32592 0.0
H2 H 0.22528 0.23158 0.45119 0.0
H3 H 0.26046 0.2194 0.25366 0.0
H4 H 0.22357 0.25647 0.25417 0.0
H5 H 0.33061 0.23664 0.2511 0.0
H6 H 0.35515 0.34805 0.18929 0.0
H7 H 0.24058 0.32545 0.24646 0.0
C8 C 0.26575 0.21463 0.34463 0.0
C9 C 0.25681 0.20883 0.39179 0.0
C10 C 0.25048 0.2471 0.32077 0.0
C11 C 0.22748 0.27482 0.34483 0.0
C12 C 0.21801 0.2696 0.392 0.0
C13 C 0.23354 0.23686 0.41534 0.0
C14 C 0.253 0.24874 0.26848 0.0
C15 C 0.28283 0.2784 0.25235 0.0
C16 C 0.32176 0.26648 0.2435 0.0
C17 C 0.3482 0.29185 0.22131 0.0
C18 C 0.33576 0.32976 0.20984 0.0
C19 C 0.29711 0.3424 0.21842 0.0
C20 C 0.27089 0.31666 0.2407 0.0
H21 H 0.86651 0.24806 0.24904 0.0
H22 H 0.77819 0.15757 0.26318 0.0
H23 H 0.85141 0.18915 0.37921 0.0
H24 H 0.83749 0.21929 0.18062 0.0
H25 H 0.80919 0.17565 0.18566 0.0
H26 H 0.8044 0.28506 0.18697 0.0
H27 H 0.68556 0.28485 0.13443 0.0
H28 H 0.7382 0.17733 0.17932 0.0
C29 C 0.85003 0.2278 0.27049 0.0
C30 C 0.8614 0.22205 0.3169 0.0
C31 C 0.81917 0.20523 0.25092 0.0
C32 C 0.80013 0.17677 0.27855 0.0
C33 C 0.812 0.17088 0.32479 0.0
C34 C 0.8416 0.19443 0.34383 0.0
C35 C 0.81177 0.20628 0.19899 0.0
C36 C 0.7751 0.22894 0.18592 0.0
C37 C 0.77713 0.26985 0.17922 0.0
C38 C 0.74495 0.29065 0.16049 0.0
C39 C 0.71017 0.26991 0.15052 0.0
C40 C 0.70739 0.22934 0.15769 0.0
C41 C 0.73991 0.20887 0.17523 0.0
H42 H 0.80066 0.7292 0.34503 0.0
H43 H 0.69244 0.79513 0.34343 0.0
H44 H 0.79585 0.84502 0.40562 0.0
H45 H 0.73549 0.69609 0.34157 0.0
H46 H 0.69167 0.72381 0.33434 0.0
H47 H 0.77755 0.67873 0.27466 0.0
H48 H 0.72095 0.68406 0.14132 0.0
H49 H 0.67124 0.74644 0.25788 0.0
C50 C 0.78483 0.75613 0.35246 0.0
C51 C 0.80379 0.78704 0.37643 0.0
C52 C 0.7447 0.75865 0.34039 0.0
C53 C 0.72363 0.79324 0.35113 0.0
C54 C 0.74253 0.82478 0.37348 0.0
C55 C 0.78236 0.82142 0.38581 0.0
C56 C 0.72319 0.72225 0.32374 0.0
C57 C 0.72562 0.71565 0.27159 0.0
C58 C 0.75498 0.69094 0.2524 0.0
C59 C 0.75374 0.68002 0.2051 0.0
C60 C 0.72292 0.69387 0.17725 0.0
C61 C 0.69268 0.71722 0.19603 0.0
C62 C 0.69497 0.72922 0.24283 0.0
H63 H 0.15629 0.74354 0.25704 0.0
H64 H 0.2262 0.84766 0.27893 0.0
H65 H 0.17415 0.78863 0.39534 0.0
H66 H 0.16794 0.79631 0.1941 0.0
H67 H 0.20576 0.8318 0.20243 0.0
H68 H 0.18411 0.72667 0.17941 0.0
H69 H 0.29782 0.70412 0.11971 0.0
H70 H 0.27535 0.81461 0.18811 0.0
C71 C 0.17058 0.76414 0.28039 0.0
C72 C 0.16407 0.76132 0.32869 0.0
C73 C 0.19416 0.79466 0.26219 0.0
C74 C 0.21003 0.82292 0.29281 0.0
C75 C 0.20211 0.82137 0.34072 0.0
C76 C 0.18048 0.78973 0.35835 0.0
C77 C 0.19742 0.80094 0.21013 0.0
C78 C 0.22661 0.77349 0.18702 0.0
C79 C 0.21405 0.73605 0.17253 0.0
C80 C 0.2398 0.71082 0.14882 0.0
C81 C 0.27841 0.72329 0.13944 0.0
C82 C 0.29186 0.76055 0.15338 0.0
C83 C 0.26563 0.78566 0.17735 0.0
H84 H 0.36349 0.72916 0.74348 0.0
H85 H 0.27516 0.63773 0.73994 0.0
H86 H 0.34111 0.65973 0.8646 0.0
H87 H 0.34174 0.69197 0.66817 0.0
H88 H 0.29601 0.66655 0.66865 0.0
H89 H 0.34441 0.76395 0.66826 0.0
H90 H 0.23923 0.82252 0.62468 0.0
H91 H 0.23339 0.70295 0.67228 0.0
C92 C 0.3461 0.70706 0.76099 0.0
C93 C 0.35473 0.69745 0.80727 0.0
C94 C 0.31678 0.68605 0.73641 0.0
C95 C 0.29635 0.6554 0.75894 0.0
C96 C 0.30546 0.6458 0.80509 0.0
C97 C 0.33373 0.6676 0.82908 0.0
C98 C 0.31202 0.69176 0.68458 0.0
C99 C 0.29098 0.72947 0.67255 0.0
C100 C 0.31271 0.76379 0.66382 0.0
C101 C 0.2937 0.79749 0.64771 0.0
C102 C 0.25293 0.79685 0.63972 0.0
C103 C 0.23051 0.7629 0.64781 0.0
C104 C 0.24988 0.72953 0.66553 0.0
H105 H 0.27408 0.18082 0.87222 0.0
H106 H 0.17635 0.26102 0.88468 0.0
H107 H 0.2906 0.29511 0.93402 0.0
H108 H 0.20292 0.15769 0.87524 0.0
H109 H 0.16385 0.19243 0.87202 0.0
H110 H 0.23929 0.13724 0.80618 0.0
H111 H 0.18553 0.16092 0.67453 0.0
H112 H 0.14512 0.22212 0.79681 0.0
C113 C 0.26269 0.20934 0.88226 0.0
C114 C 0.28801 0.2374 0.90251 0.0
C115 C 0.22235 0.21776 0.87562 0.0
C116 C 0.20746 0.25468 0.8888 0.0
C117 C 0.23194 0.28242 0.91023 0.0
C118 C 0.27201 0.27369 0.91668 0.0
C119 C 0.19427 0.18615 0.85949 0.0
C120 C 0.19385 0.1819 0.80718 0.0
C121 C 0.21897 0.15439 0.78554 0.0
C122 C 0.2161 0.14727 0.73767 0.0
C123 C 0.18855 0.16777 0.71132 0.0
C124 C 0.16241 0.19422 0.73226 0.0
C125 C 0.16575 0.2022 0.78017 0.0
H126 H 0.6651 0.28978 0.7772 0.0
H127 H 0.77127 0.35835 0.76499 0.0
H128 H 0.71864 0.33964 0.8992 0.0
H129 H 0.68457 0.31253 0.70273 0.0
H130 H 0.72222 0.34865 0.69812 0.0
H131 H 0.70156 0.24073 0.69946 0.0
H132 H 0.80993 0.21369 0.62853 0.0
H133 H 0.78847 0.33105 0.67762 0.0
C134 C 0.68929 0.30552 0.79336 0.0
C135 C 0.68865 0.31251 0.84146 0.0
C136 C 0.71911 0.32171 0.76544 0.0
C137 C 0.74917 0.34432 0.78646 0.0
C138 C 0.74966 0.35013 0.83501 0.0
C139 C 0.71948 0.33376 0.86206 0.0
C140 C 0.7154 0.3194 0.7131 0.0
C141 C 0.74258 0.289 0.69211 0.0
C142 C 0.73024 0.24965 0.68671 0.0
C143 C 0.75467 0.22212 0.66408 0.0
C144 C 0.79129 0.23456 0.64679 0.0
C145 C 0.80359 0.27379 0.65092 0.0
C146 C 0.77949 0.30062 0.67472 0.0
H147 H 0.74644 0.6776 0.80114 0.0
H148 H 0.68658 0.78865 0.78923 0.0
H149 H 0.68516 0.72643 0.91885 0.0
H150 H 0.72866 0.70248 0.72534 0.0
H151 H 0.70135 0.7466 0.71976 0.0
H152 H 0.80124 0.70288 0.72476 0.0
H153 H 0.85674 0.80698 0.67336 0.0
H154 H 0.73379 0.80894 0.71033 0.0
C155 C 0.73035 0.70166 0.8171 0.0
C156 C 0.71729 0.69834 0.86339 0.0
C157 C 0.7198 0.73435 0.79 0.0
C158 C 0.69657 0.76438 0.81032 0.0
C159 C 0.68456 0.76199 0.85719 0.0
C160 C 0.69553 0.72912 0.88328 0.0
C161 C 0.72706 0.73341 0.73786 0.0
C162 C 0.76424 0.75469 0.72301 0.0
C163 C 0.79991 0.73389 0.71683 0.0
C164 C 0.8333 0.75271 0.69838 0.0
C165 C 0.8308 0.79263 0.68706 0.0
C166 C 0.79489 0.81321 0.6892 0.0
C167 C 0.76201 0.79418 0.70885 0.0
C168 C 0.95361 0.30364 0.56571 0.0
C169 C 0.08069 0.31456 0.48611 0.0
O170 O 0.97349 0.33513 0.56194 0.0
Zn171 Zn 0.01773 0.31137 0.52784 0.0
O172 O 0.96765 0.2712 0.55041 0.0
Zn173 Zn 0.01883 0.24938 0.51697 0.0
O174 O 0.04171 0.21612 0.5632 0.0
O175 O 0.04681 0.2787 0.58205 0.0
O176 O 0.06766 0.27956 0.48951 0.0
O177 O 0.06119 0.34316 0.50307 0.0
O178 O 0.98829 0.29026 0.46494 0.0
O179 O 0.99716 0.22605 0.46191 0.0
C180 C 0.05352 0.24254 0.59128 0.0
C181 C 0.98307 0.25712 0.44422 0.0
C182 C 0.72541 0.06934 0.58735 0.0
C183 C 0.70933 0.96107 0.47388 0.0
O184 O 0.75777 0.05425 0.57286 0.0
Zn185 Zn 0.77713 0.00918 0.52684 0.0
O186 O 0.69287 0.05508 0.57317 0.0
Zn187 Zn 0.71479 0.01372 0.53234 0.0
O188 O 0.74165 0.97169 0.57925 0.0
O189 O 0.80554 0.9733 0.56508 0.0
O190 O 0.68103 0.97808 0.4951 0.0
O191 O 0.7449 0.97048 0.48325 0.0
O192 O 0.80582 0.03762 0.48088 0.0
O193 O 0.74176 0.04861 0.47767 0.0
C194 C 0.77658 0.95885 0.58712 0.0
C195 C 0.77666 0.05451 0.46183 0.0
C196 C 0.96501 0.70903 0.591 0.0
C197 C 0.0498 0.70649 0.45051 0.0
O198 O 0.97722 0.74247 0.57707 0.0
Zn199 Zn 0.01174 0.76759 0.5234 0.0
O200 O 0.9754 0.67807 0.56907 0.0
Zn201 Zn 0.00823 0.70388 0.52118 0.0
O202 O 0.05715 0.72697 0.5591 0.0
O203 O 0.05522 0.79166 0.55801 0.0
O204 O 0.03652 0.67598 0.47062 0.0
O205 O 0.04223 0.74051 0.46727 0.0
O206 O 0.97207 0.79789 0.48946 0.0
O207 O 0.96364 0.73386 0.48348 0.0
C208 C 0.0723 0.76013 0.5704 0.0
C209 C 0.95249 0.76875 0.4738 0.0
C210 C 0.25438 0.03052 0.60616 0.0
C211 C 0.23953 0.94724 0.46946 0.0
O212 O 0.28661 0.02807 0.58282 0.0
Zn213 Zn 0.30703 0.99824 0.52013 0.0
O214 O 0.22369 0.0128 0.59191 0.0
Zn215 Zn 0.24624 0.99071 0.53707 0.0
O216 O 0.28482 0.94981 0.56729 0.0
O217 O 0.34618 0.96125 0.54535 0.0
O218 O 0.21353 0.95865 0.49833 0.0
O219 O 0.27494 0.96004 0.47338 0.0
O220 O 0.32204 0.04301 0.48107 0.0
O221 O 0.25852 0.04114 0.49679 0.0
C222 C 0.32142 0.94125 0.56861 0.0
C223 C 0.28793 0.05832 0.47785 0.0
C224 C 0.44456 0.78962 0.07173 0.0
C225 C 0.55765 0.80813 0.96498 0.0
O226 O 0.45872 0.82232 0.0586 0.0
Zn227 Zn 0.50242 0.80158 0.0198 0.0
O228 O 0.46098 0.7578 0.05781 0.0
Zn229 Zn 0.50861 0.73963 1.01459 0.0
O230 O 0.54282 0.71196 0.05555 0.0
O231 O 0.54376 0.77574 0.06881 0.0
O232 O 0.54917 0.7725 0.97417 0.0
O233 O 0.53829 0.83594 0.98414 0.0
O234 O 0.47047 0.77396 0.96307 0.0
O235 O 0.48313 0.71048 0.96629 0.0
C236 C 0.55651 0.74113 0.07799 0.0
C237 C 0.46632 0.73916 0.94643 0.0
C238 C 0.20979 0.56248 0.06089 0.0
C239 C 0.20092 0.43615 0.97802 0.0
O240 O 0.24258 0.54648 0.04992 0.0
Zn241 Zn 0.26518 0.49724 1.01464 0.0
O242 O 0.17759 0.54701 0.04725 0.0
Zn243 Zn 0.20189 0.50138 1.01549 0.0
O244 O 0.22863 0.47108 0.07349 0.0
O245 O 0.29345 0.47334 0.06477 0.0
O246 O 0.17141 0.45793 0.98742 0.0
O247 O 0.23579 0.44818 0.98661 0.0
O248 O 0.29324 0.51838 0.9625 0.0
O249 O 0.22926 0.52826 0.95639 0.0
C250 C 0.26336 0.46277 0.08806 0.0
C251 C 0.26423 0.53237 0.94021 0.0
C252 C 0.55632 0.27367 0.95922 0.0
C253 C 0.47096 0.26088 0.09346 0.0
O254 O 0.54151 0.30024 0.98499 0.0
Zn255 Zn 0.51082 0.26764 0.02447 0.0
O256 O 0.54623 0.23775 0.96536 0.0
Zn257 Zn 0.5089 0.20586 1.0132 0.0
O258 O 0.46541 0.18463 0.97514 0.0
O259 O 0.46255 0.2489 0.98275 0.0
O260 O 0.47677 0.22765 0.07328 0.0
O261 O 0.48554 0.29193 0.07629 0.0
O262 O 0.55421 0.23493 0.06023 0.0
O263 O 0.54841 0.17185 0.04339 0.0
C264 C 0.44799 0.21689 0.96676 0.0
C265 C 0.56573 0.19952 0.06529 0.0
C266 C 0.80451 0.5539 0.09412 0.0
C267 C 0.80514 0.46371 0.95892 0.0
O268 O 0.83505 0.54283 0.07182 0.0
Zn269 Zn 0.8082 0.50803 0.02667 0.0
O270 O 0.77062 0.54118 0.08193 0.0
Zn271 Zn 0.74478 0.50451 0.0308 0.0
O272 O 0.72096 0.46322 0.06791 0.0
O273 O 0.78591 0.46049 0.06777 0.0
O274 O 0.77112 0.4716 0.97575 0.0
O275 O 0.83596 0.47815 0.97768 0.0
O276 O 0.77716 0.55016 0.98579 0.0
O277 O 0.71326 0.54205 0.99608 0.0
C278 C 0.75261 0.44631 0.0805 0.0
C279 C 0.74164 0.56042 0.977 0.0
C280 C 0.15194 0.30259 0.3896 0.0
C281 C 0.18645 0.29362 0.41454 0.0
H282 H 0.09084 0.31797 0.39356 0.0
C283 C 0.18749 0.30202 0.46259 0.0
H284 H 0.14966 0.29611 0.35277 0.0
C285 C 0.15346 0.31467 0.48588 0.0
C286 C 0.11811 0.31965 0.46141 0.0
H287 H 0.21371 0.29599 0.48274 0.0
H288 H 0.15382 0.31686 0.52352 0.0
C289 C 0.1181 0.31539 0.41289 0.0
C290 C 0.76176 0.13519 0.37274 0.0
C291 C 0.79922 0.13666 0.3522 0.0
H292 H 0.72504 0.10773 0.424 0.0
C293 C 0.82767 0.10877 0.36475 0.0
H294 H 0.73961 0.15678 0.36397 0.0
C295 C 0.81979 0.08139 0.3993 0.0
C296 C 0.78314 0.08111 0.42199 0.0
H297 H 0.85687 0.10957 0.34943 0.0
H298 H 0.84292 0.06121 0.4092 0.0
C299 C 0.75367 0.10741 0.40732 0.0
C300 C 0.85509 0.74565 0.41564 0.0
C301 C 0.84395 0.78199 0.39697 0.0
H302 H 0.89754 0.71319 0.45411 0.0
C303 C 0.87001 0.81402 0.40215 0.0
H304 H 0.83571 0.72048 0.41356 0.0
C305 C 0.90547 0.81005 0.42678 0.0
C306 C 0.91594 0.77381 0.44613 0.0
H307 H 0.86282 0.84238 0.3877 0.0
H308 H 0.92451 0.83533 0.43082 0.0
C309 C 0.89059 0.74158 0.43954 0.0
C310 C 0.24952 0.87213 0.37171 0.0
C311 C 0.21194 0.8549 0.37187 0.0
H312 H 0.28791 0.91495 0.40259 0.0
C313 C 0.18305 0.86993 0.40223 0.0
H314 H 0.27227 0.86121 0.34854 0.0
C315 C 0.19177 0.90064 0.43281 0.0
C316 C 0.22967 0.91713 0.4339 0.0
H317 H 0.15351 0.85786 0.40241 0.0
H318 H 0.16889 0.91093 0.45618 0.0
C319 C 0.25838 0.90286 0.40264 0.0
C320 C 0.16408 0.79526 0.63449 0.0
C321 C 0.18816 0.76146 0.63301 0.0
H322 H 0.1089 0.82168 0.61565 0.0
C323 C 0.17239 0.72696 0.6134 0.0
H324 H 0.17468 0.82225 0.65009 0.0
C325 C 0.1344 0.72651 0.59473 0.0
C326 C 0.11111 0.76067 0.59435 0.0
H327 H 0.1899 0.70051 0.61053 0.0
H328 H 0.1239 0.69954 0.57889 0.0
C329 C 0.12619 0.79497 0.61497 0.0
C330 C 0.26562 0.11982 0.68277 0.0
C331 C 0.23541 0.11357 0.71522 0.0
H332 H 0.29601 0.09746 0.62279 0.0
C333 C 0.21588 0.07734 0.71603 0.0
H334 H 0.28029 0.148 0.68104 0.0
C335 C 0.22382 0.04905 0.682 0.0
C336 C 0.2519 0.05642 0.64724 0.0
H337 H 0.1919 0.07241 0.74024 0.0
H338 H 0.20646 0.02239 0.68131 0.0
C339 C 0.27425 0.0911 0.64931 0.0
C340 C 0.86768 0.31178 0.64934 0.0
C341 C 0.84038 0.28664 0.62734 0.0
H342 H 0.92559 0.33764 0.64653 0.0
C343 C 0.849 0.27221 0.58258 0.0
H344 H 0.86174 0.32351 0.68377 0.0
C345 C 0.88515 0.28 0.56182 0.0
C346 C 0.91339 0.30301 0.58483 0.0
H347 H 0.82814 0.25389 0.56396 0.0
H348 H 0.89159 0.2669 0.52816 0.0
C349 C 0.90404 0.32003 0.62808 0.0
C350 C 0.81499 0.86094 0.6267 0.0
C351 C 0.79121 0.85232 0.66567 0.0
H352 H 0.82975 0.90134 0.57296 0.0
C353 C 0.76298 0.88049 0.67961 0.0
H354 H 0.83585 0.8399 0.61284 0.0
C355 C 0.7583 0.91556 0.65472 0.0
C356 C 0.78257 0.92377 0.61632 0.0
H357 H 0.74425 0.87548 0.70949 0.0
H358 H 0.73578 0.93624 0.66548 0.0
C359 C 0.81126 0.89632 0.60312 0.0
C360 C 0.90665 0.74696 0.69254 0.0
C361 C 0.86932 0.73086 0.68339 0.0
H362 H 0.96668 0.752 0.67041 0.0
C363 C 0.86646 0.70007 0.65059 0.0
H364 H 0.90985 0.77057 0.71771 0.0
C365 C 0.89936 0.68904 0.62365 0.0
C366 C 0.93543 0.70882 0.62904 0.0
H367 H 0.83804 0.68735 0.64242 0.0
H368 H 0.89546 0.6681 0.5955 0.0
C369 C 0.93923 0.7363 0.66544 0.0
C370 C 0.30917 0.86769 0.66089 0.0
C371 C 0.3158 0.8332 0.63528 0.0
H372 H 0.30802 0.93037 0.65962 0.0
C373 C 0.33512 0.83534 0.59207 0.0
H374 H 0.29395 0.86662 0.69404 0.0
C375 C 0.34335 0.87195 0.5723 0.0
C376 C 0.33219 0.9065 0.59569 0.0
H377 H 0.33994 0.80899 0.57154 0.0
H378 H 0.35381 0.8731 0.53669 0.0
C379 C 0.31746 0.90409 0.64129 0.0
C380 C 0.12508 0.24835 0.69284 0.0
C381 C 0.12911 0.20853 0.70383 0.0
H382 H 0.09768 0.29058 0.64821 0.0
C383 C 0.1049 0.18085 0.68139 0.0
H384 H 0.14368 0.27012 0.70945 0.0
C385 C 0.07914 0.19224 0.64626 0.0
C386 C 0.0768 0.23168 0.63287 0.0
H387 H 0.10745 0.14993 0.68946 0.0
H388 H 0.06213 0.16984 0.62845 0.0
C389 C 0.09897 0.25989 0.65762 0.0
C390 C 0.76894 0.15012 0.66129 0.0
C391 C 0.74201 0.18089 0.65474 0.0
H392 H 0.7844 0.09069 0.64569 0.0
C393 C 0.70596 0.17257 0.63255 0.0
H394 H 0.7967 0.15542 0.67882 0.0
C395 C 0.69869 0.13506 0.61366 0.0
C396 C 0.72747 0.10544 0.61654 0.0
H397 H 0.6847 0.19573 0.62679 0.0
H398 H 0.67197 0.13018 0.5939 0.0
C399 C 0.76185 0.11299 0.6423 0.0
C400 C 0.93106 0.2145 0.33959 0.0
C401 C 0.89776 0.23882 0.33685 0.0
H402 H 0.98433 0.20121 0.37606 0.0
C403 C 0.89595 0.27278 0.36462 0.0
H404 H 0.93258 0.18768 0.31917 0.0
C405 C 0.92574 0.28074 0.3971 0.0
C406 C 0.95715 0.25425 0.40295 0.0
H407 H 0.87005 0.29134 0.36388 0.0
H408 H 0.92241 0.30575 0.42023 0.0
C409 C 0.96037 0.22198 0.37254 0.0
C410 C 0.73414 0.89706 0.37279 0.0
C411 C 0.72113 0.8605 0.38874 0.0
H412 H 0.73909 0.95847 0.38731 0.0
C413 C 0.69553 0.85913 0.42726 0.0
H414 H 0.7542 0.89877 0.34349 0.0
C415 C 0.68672 0.89353 0.45248 0.0
C416 C 0.70355 0.92943 0.43932 0.0
H417 H 0.6857 0.83114 0.44061 0.0
H418 H 0.67049 0.8913 0.48484 0.0
C419 C 0.72543 0.93119 0.39784 0.0
C420 C 0.09495 0.73806 0.33855 0.0
C421 C 0.13507 0.73362 0.34911 0.0
H422 H 0.03558 0.73192 0.36316 0.0
C423 C 0.14567 0.71075 0.38774 0.0
H424 H 0.08594 0.75612 0.30956 0.0
C425 C 0.11675 0.69623 0.41798 0.0
C426 C 0.07685 0.70477 0.41032 0.0
H427 H 0.17642 0.70736 0.39698 0.0
H428 H 0.12588 0.68235 0.45002 0.0
C429 C 0.06609 0.72413 0.36922 0.0
C430 C 0.23657 0.15087 0.43876 0.0
C431 C 0.26622 0.17076 0.41434 0.0
H432 H 0.22008 0.10034 0.47721 0.0
C433 C 0.30358 0.15307 0.41006 0.0
H434 H 0.20721 0.16312 0.4418 0.0
C435 C 0.31113 0.11646 0.43052 0.0
C436 C 0.28124 0.09673 0.45498 0.0
H437 H 0.32696 0.16767 0.39123 0.0
H438 H 0.34018 0.10363 0.42707 0.0
C439 C 0.24392 0.11448 0.45868 0.0
C440 C 0.66103 0.804 0.92353 0.0
C441 C 0.65521 0.78938 0.8781 0.0
H442 H 0.63363 0.82322 0.98706 0.0
C443 C 0.61751 0.79224 0.85831 0.0
H444 H 0.68976 0.80192 0.93972 0.0
C445 C 0.5854 0.80447 0.88551 0.0
C446 C 0.59061 0.81466 0.93258 0.0
H447 H 0.61201 0.78071 0.8237 0.0
H448 H 0.55597 0.8018 0.87124 0.0
C449 C 0.62896 0.81651 0.95057 0.0
C450 C 0.25242 0.61076 0.84847 0.0
C451 C 0.29005 0.61054 0.82833 0.0
H452 H 0.21444 0.58555 0.89992 0.0
C453 C 0.31682 0.58087 0.8403 0.0
H454 H 0.23165 0.63383 0.84028 0.0
C455 C 0.30751 0.55392 0.8749 0.0
C456 C 0.27107 0.55594 0.89792 0.0
H457 H 0.34619 0.5805 0.82543 0.0
H458 H 0.32964 0.53283 0.88527 0.0
C459 C 0.24285 0.58338 0.88287 0.0
C460 C 0.3431 0.19266 0.92962 0.0
C461 C 0.33061 0.22897 0.91161 0.0
H462 H 0.39036 0.15998 0.96084 0.0
C463 C 0.35881 0.25884 0.9062 0.0
H464 H 0.32223 0.16901 0.93445 0.0
C465 C 0.39746 0.2538 0.9217 0.0
C466 C 0.40935 0.21853 0.94248 0.0
H467 H 0.35065 0.28682 0.89139 0.0
H468 H 0.41776 0.2782 0.91887 0.0
C469 C 0.38216 0.18745 0.94478 0.0
C470 C 0.79706 0.36711 0.89878 0.0
C471 C 0.77714 0.37811 0.85798 0.0
H472 H 0.82341 0.38658 0.96274 0.0
C473 C 0.77595 0.41797 0.846 0.0
H474 H 0.79803 0.33658 0.90899 0.0
C475 C 0.7902 0.44654 0.87697 0.0
C476 C 0.80666 0.43564 0.9198 0.0
H477 H 0.76024 0.42731 0.8152 0.0
H478 H 0.78494 0.47721 0.86944 0.0
C479 C 0.81185 0.39568 0.92938 0.0
C480 C 0.63491 0.22094 0.16238 0.0
C481 C 0.67087 0.20915 0.14275 0.0
H482 H 0.57261 0.22562 0.15315 0.0
C483 C 0.67064 0.18557 0.10236 0.0
H484 H 0.63441 0.23934 0.19329 0.0
C485 C 0.63504 0.17757 0.07922 0.0
C486 C 0.59956 0.19318 0.09641 0.0
H487 H 0.69814 0.17664 0.0863 0.0
H488 H 0.63582 0.16288 0.04568 0.0
C489 C 0.5996 0.21301 0.13943 0.0
C490 C 0.80107 0.65527 0.14455 0.0
C491 C 0.77938 0.64865 0.18552 0.0
H492 H 0.82797 0.62951 0.08389 0.0
C493 C 0.77431 0.60993 0.2008 0.0
H494 H 0.80479 0.68483 0.13167 0.0
C495 C 0.78685 0.57836 0.17305 0.0
C496 C 0.80562 0.58495 0.13018 0.0
H497 H 0.75706 0.604 0.23172 0.0
H498 H 0.77893 0.54883 0.1832 0.0
C499 C 0.81449 0.62362 0.11733 0.0
C500 C 0.36382 0.74526 0.14532 0.0
C501 C 0.33294 0.77245 0.14072 0.0
H502 H 0.42298 0.72961 0.12767 0.0
C503 C 0.34097 0.80842 0.11873 0.0
H504 H 0.35897 0.71761 0.16279 0.0
C505 C 0.37823 0.81556 0.09872 0.0
C506 C 0.40796 0.78677 0.10022 0.0
H507 H 0.31782 0.82995 0.11446 0.0
H508 H 0.3829 0.84248 0.07968 0.0
C509 C 0.40063 0.7522 0.12519 0.0
C510 C 0.24761 0.37896 0.17064 0.0
C511 C 0.28334 0.3789 0.19536 0.0
H512 H 0.21322 0.40606 0.11743 0.0
C513 C 0.30925 0.41088 0.18993 0.0
H514 H 0.22704 0.35481 0.17348 0.0
C515 C 0.30202 0.4394 0.15635 0.0
C516 C 0.26798 0.43735 0.12893 0.0
H517 H 0.33657 0.41232 0.20931 0.0
H518 H 0.32377 0.46212 0.15057 0.0
C519 C 0.23985 0.40817 0.13805 0.0
C520 C 0.38523 0.24274 0.17356 0.0
C521 C 0.38546 0.27734 0.20047 0.0
H522 H 0.41262 0.21032 0.11828 0.0
C523 C 0.41831 0.30238 0.19798 0.0
H524 H 0.36027 0.22295 0.17443 0.0
C525 C 0.4476 0.2958 0.16477 0.0
C526 C 0.44506 0.26347 0.13446 0.0
H527 H 0.41958 0.3289 0.21893 0.0
H528 H 0.47106 0.31712 0.16116 0.0
C529 C 0.415 0.23573 0.14096 0.0
C530 C 0.71544 0.35797 0.14772 0.0
C531 C 0.74841 0.33274 0.14631 0.0
H532 H 0.69065 0.41332 0.12787 0.0
C533 C 0.78358 0.34694 0.12666 0.0
H534 H 0.68805 0.34856 0.16345 0.0
C535 C 0.78521 0.38443 0.1072 0.0
C536 C 0.75162 0.40863 0.10623 0.0
H537 H 0.80945 0.32847 0.12414 0.0
H538 H 0.81247 0.39371 0.09099 0.0
C539 C 0.71691 0.39526 0.12752 0.0
C540 C 0.63874 0.69218 0.14483 0.0
C541 C 0.65641 0.72396 0.16821 0.0
H542 H 0.59341 0.67254 0.09889 0.0
C543 C 0.63932 0.76135 0.16437 0.0
H544 H 0.6507 0.66284 0.14792 0.0
C545 C 0.60616 0.76702 0.13599 0.0
C546 C 0.58926 0.73528 0.11149 0.0
H547 H 0.65222 0.7863 0.18223 0.0
H548 H 0.59426 0.79634 0.13257 0.0
C549 C 0.60563 0.69773 0.11696 0.0
C550 C 0.1929 0.66617 0.10555 0.0
C551 C 0.227 0.67138 0.13282 0.0
H552 H 0.16014 0.6269 0.06101 0.0
C553 C 0.25139 0.63905 0.14125 0.0
H554 H 0.17361 0.69075 0.09859 0.0
C555 C 0.24374 0.60307 0.12007 0.0
C556 C 0.21149 0.59839 0.08989 0.0
H557 H 0.2774 0.64205 0.16282 0.0
H558 H 0.26423 0.57919 0.12581 0.0
C559 C 0.18514 0.62975 0.08416 0.0
C560 C 0.42003 0.68839 0.84312 0.0
C561 C 0.38871 0.71373 0.83269 0.0
H562 H 0.4689 0.67644 0.88763 0.0
C563 C 0.38569 0.74979 0.85618 0.0
H564 H 0.42248 0.66015 0.82578 0.0
C565 C 0.41231 0.75921 0.8918 0.0
C566 C 0.44172 0.73228 0.90479 0.0
H567 H 0.36123 0.76932 0.84926 0.0
H568 H 0.40836 0.78639 0.911 0.0
C569 C 0.44617 0.69746 0.87896 0.0
C570 C 0.19639 0.34683 0.90061 0.0
C571 C 0.21569 0.31958 0.92926 0.0
H572 H 0.17563 0.40631 0.8941 0.0
C573 C 0.22258 0.32929 0.97605 0.0
H574 H 0.19079 0.33989 0.86437 0.0
C575 C 0.21334 0.36654 0.993 0.0
C576 C 0.197 0.39491 0.96359 0.0
H577 H 0.23695 0.30863 0.99896 0.0
H578 H 0.22158 0.37413 0.02838 0.0
C579 C 0.18733 0.38454 0.91764 0.0
C580 C 0.63732 0.26435 0.86837 0.0
C581 C 0.65352 0.30226 0.86953 0.0
H582 H 0.59369 0.22536 0.89605 0.0
C583 C 0.6358 0.3311 0.89774 0.0
H584 H 0.65035 0.2417 0.84667 0.0
C585 C 0.60332 0.32205 0.92535 0.0
C586 C 0.58787 0.28381 0.92574 0.0
H587 H 0.64719 0.36079 0.89854 0.0
H588 H 0.59097 0.34492 0.9473 0.0
C589 C 0.60491 0.25511 0.89653 0.0
C590 C 0.76031 0.64361 0.8924 0.0
C591 C 0.72321 0.66163 0.89027 0.0
H592 H 0.79522 0.59769 0.92158 0.0
C593 C 0.69162 0.64489 0.91506 0.0
H594 H 0.78516 0.6558 0.87374 0.0
C595 C 0.69722 0.6115 0.94235 0.0
C596 C 0.73462 0.5942 0.94572 0.0
H597 H 0.66247 0.65775 0.91347 0.0
H598 H 0.67242 0.59976 0.9615 0.0
C599 C 0.76601 0.61041 0.92002 0.0
loop_
_geom_bond_atom_site_label_1
_geom_bond_atom_site_label_2
_geom_bond_distance
_geom_bond_site_symmetry_2
_ccdc_geom_bond_type
H0 C8 0.930 . S
H1 C11 0.930 . S
H2 C13 0.930 . S
H3 C14 0.970 . S
H4 C14 0.970 . S
H5 C16 0.930 . S
H6 C18 0.930 . S
H7 C20 0.930 . S
C8 H0 0.930 . S
C8 C9 1.382 . S
C8 C10 1.426 . S
C9 C8 1.382 . S
C9 C13 1.389 . S
C10 C8 1.426 . S
C10 C11 1.375 . S
C10 C14 1.532 . S
C11 H1 0.930 . S
C11 C10 1.375 . S
C11 C12 1.416 . S
C12 C11 1.416 . S
C12 C13 1.371 . S
C13 H2 0.930 . S
C13 C9 1.389 . S
C13 C12 1.371 . S
C14 H3 0.970 . S
C14 H4 0.970 . S
C14 C10 1.532 . S
C14 C15 1.499 . S
C15 C14 1.499 . S
C15 C16 1.370 . S
C15 C20 1.415 . S
C16 H5 0.930 . S
C16 C15 1.370 . S
C16 C17 1.407 . S
C17 C16 1.407 . S
C17 C18 1.365 . S
C18 H6 0.930 . S
C18 C17 1.365 . S
C18 C19 1.393 . S
C19 C18 1.393 . S
C19 C20 1.387 . S
C20 H7 0.930 . S
C20 C15 1.415 . S
C20 C19 1.387 . S
H21 C29 0.930 . S
H22 C32 0.930 . S
H23 C34 0.930 . S
H24 C35 0.970 . S
H25 C35 0.970 . S
H26 C37 0.930 . S
H27 C39 0.930 . S
H28 C41 0.930 . S
C29 H21 0.930 . S
C29 C30 1.382 . S
C29 C31 1.426 . S
C30 C29 1.382 . S
C30 C34 1.389 . S
C31 C29 1.426 . S
C31 C32 1.375 . S
C31 C35 1.532 . S
C32 H22 0.930 . S
C32 C31 1.375 . S
C32 C33 1.416 . S
C33 C32 1.416 . S
C33 C34 1.371 . S
C34 H23 0.930 . S
C34 C30 1.389 . S
C34 C33 1.371 . S
C35 H24 0.970 . S
C35 H25 0.970 . S
C35 C31 1.532 . S
C35 C36 1.499 . S
C36 C35 1.499 . S
C36 C37 1.370 . S
C36 C41 1.415 . S
C37 H26 0.930 . S
C37 C36 1.370 . S
C37 C38 1.407 . S
C38 C37 1.407 . S
C38 C39 1.365 . S
C39 H27 0.930 . S
C39 C38 1.365 . S
C39 C40 1.393 . S
C40 C39 1.393 . S
C40 C41 1.387 . S
C41 H28 0.930 . S
C41 C36 1.415 . S
C41 C40 1.387 . S
H42 C50 0.930 . S
H43 C53 0.930 . S
H44 C55 0.930 . S
H45 C56 0.970 . S
H46 C56 0.970 . S
H47 C58 0.930 . S
H48 C60 0.930 . S
H49 C62 0.930 . S
C50 H42 0.930 . S
C50 C51 1.382 . S
C50 C52 1.426 . S
C51 C50 1.382 . S
C51 C55 1.389 . S
C52 C50 1.426 . S
C52 C53 1.375 . S
C52 C56 1.532 . S
C53 H43 0.930 . S
C53 C52 1.375 . S
C53 C54 1.416 . S
C54 C53 1.416 . S
C54 C55 1.371 . S
C55 H44 0.930 . S
C55 C51 1.389 . S
C55 C54 1.371 . S
C56 H45 0.970 . S
C56 H46 0.970 . S
C56 C52 1.532 . S
C56 C57 1.499 . S
C57 C56 1.499 . S
C57 C58 1.370 . S
C57 C62 1.415 . S
C58 H47 0.930 . S
C58 C57 1.370 . S
C58 C59 1.407 . S
C59 C58 1.407 . S
C59 C60 1.365 . S
C60 H48 0.930 . S
C60 C59 1.365 . S
C60 C61 1.393 . S
C61 C60 1.393 . S
C61 C62 1.387 . S
C62 H49 0.930 . S
C62 C57 1.415 . S
C62 C61 1.387 . S
H63 C71 0.930 . S
H64 C74 0.930 . S
H65 C76 0.930 . S
H66 C77 0.970 . S
H67 C77 0.970 . S
H68 C79 0.930 . S
H69 C81 0.930 . S
H70 C83 0.930 . S
C71 H63 0.930 . S
C71 C72 1.382 . S
C71 C73 1.426 . S
C72 C71 1.382 . S
C72 C76 1.389 . S
C73 C71 1.426 . S
C73 C74 1.375 . S
C73 C77 1.532 . S
C74 H64 0.930 . S
C74 C73 1.375 . S
C74 C75 1.416 . S
C75 C74 1.416 . S
C75 C76 1.371 . S
C76 H65 0.930 . S
C76 C72 1.389 . S
C76 C75 1.371 . S
C77 H66 0.970 . S
C77 H67 0.970 . S
C77 C73 1.532 . S
C77 C78 1.499 . S
C78 C77 1.499 . S
C78 C79 1.370 . S
C78 C83 1.415 . S
C79 H68 0.930 . S
C79 C78 1.370 . S
C79 C80 1.407 . S
C80 C79 1.407 . S
C80 C81 1.365 . S
C81 H69 0.930 . S
C81 C80 1.365 . S
C81 C82 1.393 . S
C82 C81 1.393 . S
C82 C83 1.387 . S
C83 H70 0.930 . S
C83 C78 1.415 . S
C83 C82 1.387 . S
H84 C92 0.930 . S
H85 C95 0.930 . S
H86 C97 0.930 . S
H87 C98 0.970 . S
H88 C98 0.970 . S
H89 C100 0.930 . S
H90 C102 0.930 . S
H91 C104 0.930 . S
C92 H84 0.930 . S
C92 C93 1.382 . S
C92 C94 1.426 . S
C93 C92 1.382 . S
C93 C97 1.389 . S
C94 C92 1.426 . S
C94 C95 1.375 . S
C94 C98 1.532 . S
C95 H85 0.930 . S
C95 C94 1.375 . S
C95 C96 1.416 . S
C96 C95 1.416 . S
C96 C97 1.371 . S
C97 H86 0.930 . S
C97 C93 1.389 . S
C97 C96 1.371 . S
C98 H87 0.970 . S
C98 H88 0.970 . S
C98 C94 1.532 . S
C98 C99 1.499 . S
C99 C98 1.499 . S
C99 C100 1.370 . S
C99 C104 1.415 . S
C100 H89 0.930 . S
C100 C99 1.370 . S
C100 C101 1.407 . S
C101 C100 1.407 . S
C101 C102 1.365 . S
C102 H90 0.930 . S
C102 C101 1.365 . S
C102 C103 1.393 . S
C103 C102 1.393 . S
C103 C104 1.387 . S
C104 H91 0.930 . S
C104 C99 1.415 . S
C104 C103 1.387 . S
H105 C113 0.930 . S
H106 C116 0.930 . S
H107 C118 0.930 . S
H108 C119 0.970 . S
H109 C119 0.970 . S
H110 C121 0.930 . S
H111 C123 0.930 . S
H112 C125 0.930 . S
C113 H105 0.930 . S
C113 C114 1.382 . S
C113 C115 1.426 . S
C114 C113 1.382 . S
C114 C118 1.389 . S
C115 C113 1.426 . S
C115 C116 1.375 . S
C115 C119 1.532 . S
C116 H106 0.930 . S
C116 C115 1.375 . S
C116 C117 1.416 . S
C117 C116 1.416 . S
C117 C118 1.371 . S
C118 H107 0.930 . S
C118 C114 1.389 . S
C118 C117 1.371 . S
C119 H108 0.970 . S
C119 H109 0.970 . S
C119 C115 1.532 . S
C119 C120 1.499 . S
C120 C119 1.499 . S
C120 C121 1.370 . S
C120 C125 1.415 . S
C121 H110 0.930 . S
C121 C120 1.370 . S
C121 C122 1.407 . S
C122 C121 1.407 . S
C122 C123 1.365 . S
C123 H111 0.930 . S
C123 C122 1.365 . S
C123 C124 1.393 . S
C124 C123 1.393 . S
C124 C125 1.387 . S
C125 H112 0.930 . S
C125 C120 1.415 . S
C125 C124 1.387 . S
H126 C134 0.930 . S
H127 C137 0.930 . S
H128 C139 0.930 . S
H129 C140 0.970 . S
H130 C140 0.970 . S
H131 C142 0.930 . S
H132 C144 0.930 . S
H133 C146 0.930 . S
C134 H126 0.930 . S
C134 C135 1.382 . S
C134 C136 1.426 . S
C135 C134 1.382 . S
C135 C139 1.389 . S
C136 C134 1.426 . S
C136 C137 1.375 . S
C136 C140 1.532 . S
C137 H127 0.930 . S
C137 C136 1.375 . S
C137 C138 1.416 . S
C138 C137 1.416 . S
C138 C139 1.371 . S
C139 H128 0.930 . S
C139 C135 1.389 . S
C139 C138 1.371 . S
C140 H129 0.970 . S
C140 H130 0.970 . S
C140 C136 1.532 . S
C140 C141 1.499 . S
C141 C140 1.499 . S
C141 C142 1.370 . S
C141 C146 1.415 . S
C142 H131 0.930 . S
C142 C141 1.370 . S
C142 C143 1.407 . S
C143 C142 1.407 . S
C143 C144 1.365 . S
C144 H132 0.930 . S
C144 C143 1.365 . S
C144 C145 1.393 . S
C145 C144 1.393 . S
C145 C146 1.387 . S
C146 H133 0.930 . S
C146 C141 1.415 . S
C146 C145 1.387 . S
H147 C155 0.930 . S
H148 C158 0.930 . S
H149 C160 0.930 . S
H150 C161 0.970 . S
H151 C161 0.970 . S
H152 C163 0.930 . S
H153 C165 0.930 . S
H154 C167 0.930 . S
C155 H147 0.930 . S
C155 C156 1.382 . S
C155 C157 1.426 . S
C156 C155 1.382 . S
C156 C160 1.389 . S
C157 C155 1.426 . S
C157 C158 1.375 . S
C157 C161 1.532 . S
C158 H148 0.930 . S
C158 C157 1.375 . S
C158 C159 1.416 . S
C159 C158 1.416 . S
C159 C160 1.371 . S
C160 H149 0.930 . S
C160 C156 1.389 . S
C160 C159 1.371 . S
C161 H150 0.970 . S
C161 H151 0.970 . S
C161 C157 1.532 . S
C161 C162 1.499 . S
C162 C161 1.499 . S
C162 C163 1.370 . S
C162 C167 1.415 . S
C163 H152 0.930 . S
C163 C162 1.370 . S
C163 C164 1.407 . S
C164 C163 1.407 . S
C164 C165 1.365 . S
C165 H153 0.930 . S
C165 C164 1.365 . S
C165 C166 1.393 . S
C166 C165 1.393 . S
C166 C167 1.387 . S
C167 H154 0.930 . S
C167 C162 1.415 . S
C167 C166 1.387 . S
C168 O170 1.247 . S
C168 O172 1.258 . S
C169 O176 1.247 . S
C169 O177 1.258 . S
O170 C168 1.247 . S
O170 Zn171 2.028 1_655 S
Zn171 O170 2.028 1_455 S
Zn171 O175 2.035 . S
Zn171 O177 2.035 . S
Zn171 O178 2.028 1_455 S
O172 C168 1.258 . S
O172 Zn173 2.035 1_655 S
Zn173 O172 2.035 1_455 S
Zn173 O174 2.028 . S
Zn173 O176 2.028 . S
Zn173 O179 2.035 1_455 S
O174 Zn173 2.028 . S
O174 C180 1.247 . S
O175 Zn171 2.035 . S
O175 C180 1.258 . S
O176 C169 1.247 . S
O176 Zn173 2.028 . S
O177 C169 1.258 . S
O177 Zn171 2.035 . S
O178 Zn171 2.028 1_655 S
O178 C181 1.247 . S
O179 Zn173 2.035 1_655 S
O179 C181 1.258 . S
C180 O174 1.247 . S
C180 O175 1.258 . S
C181 O178 1.247 . S
C181 O179 1.258 . S
C182 O184 1.247 . S
C182 O186 1.258 . S
C183 O190 1.247 . S
C183 O191 1.258 . S
O184 C182 1.247 . S
O184 Zn185 2.028 . S
Zn185 O184 2.028 . S
Zn185 O189 2.035 1_545 S
Zn185 O191 2.035 1_545 S
Zn185 O192 2.028 . S
O186 C182 1.258 . S
O186 Zn187 2.035 . S
Zn187 O186 2.035 . S
Zn187 O188 2.028 1_545 S
Zn187 O190 2.028 1_545 S
Zn187 O193 2.035 . S
O188 Zn187 2.028 1_565 S
O188 C194 1.247 . S
O189 Zn185 2.035 1_565 S
O189 C194 1.258 . S
O190 C183 1.247 . S
O190 Zn187 2.028 1_565 S
O191 C183 1.258 . S
O191 Zn185 2.035 1_565 S
O192 Zn185 2.028 . S
O192 C195 1.247 . S
O193 Zn187 2.035 . S
O193 C195 1.258 . S
C194 O188 1.247 . S
C194 O189 1.258 . S
C195 O192 1.247 . S
C195 O193 1.258 . S
C196 O198 1.247 . S
C196 O200 1.258 . S
C197 O204 1.247 . S
C197 O205 1.258 . S
O198 C196 1.247 . S
O198 Zn199 2.028 1_655 S
Zn199 O198 2.028 1_455 S
Zn199 O203 2.035 . S
Zn199 O205 2.035 . S
Zn199 O206 2.028 1_455 S
O200 C196 1.258 . S
O200 Zn201 2.035 1_655 S
Zn201 O200 2.035 1_455 S
Zn201 O202 2.028 . S
Zn201 O204 2.028 . S
Zn201 O207 2.035 1_455 S
O202 Zn201 2.028 . S
O202 C208 1.247 . S
O203 Zn199 2.035 . S
O203 C208 1.258 . S
O204 C197 1.247 . S
O204 Zn201 2.028 . S
O205 C197 1.258 . S
O205 Zn199 2.035 . S
O206 Zn199 2.028 1_655 S
O206 C209 1.247 . S
O207 Zn201 2.035 1_655 S
O207 C209 1.258 . S
C208 O202 1.247 . S
C208 O203 1.258 . S
C209 O206 1.247 . S
C209 O207 1.258 . S
C210 O212 1.247 . S
C210 O214 1.258 . S
C211 O218 1.247 . S
C211 O219 1.258 . S
O212 C210 1.247 . S
O212 Zn213 2.028 . S
Zn213 O212 2.028 . S
Zn213 O217 2.035 1_545 S
Zn213 O219 2.035 1_545 S
Zn213 O220 2.028 . S
O214 C210 1.258 . S
O214 Zn215 2.035 . S
Zn215 O214 2.035 . S
Zn215 O216 2.028 1_545 S
Zn215 O218 2.028 1_545 S
Zn215 O221 2.035 . S
O216 Zn215 2.028 1_565 S
O216 C222 1.247 . S
O217 Zn213 2.035 1_565 S
O217 C222 1.258 . S
O218 C211 1.247 . S
O218 Zn215 2.028 1_565 S
O219 C211 1.258 . S
O219 Zn213 2.035 1_565 S
O220 Zn213 2.028 . S
O220 C223 1.247 . S
O221 Zn215 2.035 . S
O221 C223 1.258 . S
C222 O216 1.247 . S
C222 O217 1.258 . S
C223 O220 1.247 . S
C223 O221 1.258 . S
C224 O226 1.247 . S
C224 O228 1.258 . S
C225 O232 1.247 . S
C225 O233 1.258 . S
O226 C224 1.247 . S
O226 Zn227 2.042 . S
Zn227 O226 2.042 . S
Zn227 O231 2.049 . S
Zn227 O233 2.021 1_554 S
Zn227 O234 2.014 1_554 S
O228 C224 1.258 . S
O228 Zn229 2.037 . S
Zn229 O228 2.037 . S
Zn229 O230 2.030 . S
Zn229 O232 2.026 1_554 S
Zn229 O235 2.033 1_554 S
O230 Zn229 2.030 . S
O230 C236 1.247 . S
O231 Zn227 2.049 . S
O231 C236 1.258 . S
O232 C225 1.247 . S
O232 Zn229 2.026 1_556 S
O233 C225 1.258 . S
O233 Zn227 2.021 1_556 S
O234 Zn227 2.014 1_556 S
O234 C237 1.247 . S
O235 Zn229 2.033 1_556 S
O235 C237 1.258 . S
C236 O230 1.247 . S
C236 O231 1.258 . S
C237 O234 1.247 . S
C237 O235 1.258 . S
C238 O240 1.247 . S
C238 O242 1.258 . S
C239 O246 1.247 . S
C239 O247 1.258 . S
O240 C238 1.247 . S
O240 Zn241 2.043 . S
Zn241 O240 2.043 . S
Zn241 O245 2.050 . S
Zn241 O247 2.020 1_554 S
Zn241 O248 2.013 1_554 S
O242 C238 1.258 . S
O242 Zn243 2.035 . S
Zn243 O242 2.035 . S
Zn243 O244 2.028 . S
Zn243 O246 2.028 1_554 S
Zn243 O249 2.035 1_554 S
O244 Zn243 2.028 . S
O244 C250 1.247 . S
O245 Zn241 2.050 . S
O245 C250 1.258 . S
O246 C239 1.247 . S
O246 Zn243 2.028 1_556 S
O247 C239 1.258 . S
O247 Zn241 2.020 1_556 S
O248 Zn241 2.013 1_556 S
O248 C251 1.247 . S
O249 Zn243 2.035 1_556 S
O249 C251 1.258 . S
C250 O244 1.247 . S
C250 O245 1.258 . S
C251 O248 1.247 . S
C251 O249 1.258 . S
C252 O254 1.247 . S
C252 O256 1.258 . S
C253 O260 1.247 . S
C253 O261 1.258 . S
O254 C252 1.247 . S
O254 Zn255 2.028 1_556 S
Zn255 O254 2.028 1_554 S
Zn255 O259 2.035 1_554 S
Zn255 O261 2.035 . S
Zn255 O262 2.028 . S
O256 C252 1.258 . S
O256 Zn257 2.035 1_556 S
Zn257 O256 2.035 1_554 S
Zn257 O258 2.028 1_554 S
Zn257 O260 2.028 . S
Zn257 O263 2.035 . S
O258 Zn257 2.028 1_556 S
O258 C264 1.247 . S
O259 Zn255 2.035 1_556 S
O259 C264 1.258 . S
O260 C253 1.247 . S
O260 Zn257 2.028 . S
O261 C253 1.258 . S
O261 Zn255 2.035 . S
O262 Zn255 2.028 . S
O262 C265 1.247 . S
O263 Zn257 2.035 . S
O263 C265 1.258 . S
C264 O258 1.247 . S
C264 O259 1.258 . S
C265 O262 1.247 . S
C265 O263 1.258 . S
C266 O268 1.247 . S
C266 O270 1.258 . S
C267 O274 1.247 . S
C267 O275 1.258 . S
O268 C266 1.247 . S
O268 Zn269 2.028 . S
Zn269 O268 2.028 . S
Zn269 O273 2.035 . S
Zn269 O275 2.035 1_554 S
Zn269 O276 2.028 1_554 S
O270 C266 1.258 . S
O270 Zn271 2.035 . S
Zn271 O270 2.035 . S
Zn271 O272 2.028 . S
Zn271 O274 2.028 1_554 S
Zn271 O277 2.035 1_554 S
O272 Zn271 2.028 . S
O272 C278 1.247 . S
O273 Zn269 2.035 . S
O273 C278 1.258 . S
O274 C267 1.247 . S
O274 Zn271 2.028 1_556 S
O275 C267 1.258 . S
O275 Zn269 2.035 1_556 S
O276 Zn269 2.028 1_556 S
O276 C279 1.247 . S
O277 Zn271 2.035 1_556 S
O277 C279 1.258 . S
C278 O272 1.247 . S
C278 O273 1.258 . S
C279 O276 1.247 . S
C279 O277 1.258 . S
C280 C281 1.387 . S
C280 H284 0.950 . S
C280 C289 1.390 . S
C281 C280 1.387 . S
C281 C283 1.387 . S
H282 C289 0.950 . S
C283 C281 1.387 . S
C283 C285 1.390 . S
C283 H287 0.950 . S
H284 C280 0.950 . S
C285 C283 1.390 . S
C285 C286 1.387 . S
C285 H288 0.950 . S
C286 C285 1.387 . S
C286 C289 1.387 . S
H287 C283 0.950 . S
H288 C285 0.950 . S
C289 C280 1.390 . S
C289 H282 0.950 . S
C289 C286 1.387 . S
C290 C291 1.387 . S
C290 H294 0.950 . S
C290 C299 1.390 . S
C291 C290 1.387 . S
C291 C293 1.387 . S
H292 C299 0.950 . S
C293 C291 1.387 . S
C293 C295 1.390 . S
C293 H297 0.950 . S
H294 C290 0.950 . S
C295 C293 1.390 . S
C295 C296 1.387 . S
C295 H298 0.950 . S
C296 C295 1.387 . S
C296 C299 1.387 . S
H297 C293 0.950 . S
H298 C295 0.950 . S
C299 C290 1.390 . S
C299 H292 0.950 . S
C299 C296 1.387 . S
C300 C301 1.387 . S
C300 H304 0.950 . S
C300 C309 1.390 . S
C301 C300 1.387 . S
C301 C303 1.387 . S
H302 C309 0.950 . S
C303 C301 1.387 . S
C303 C305 1.390 . S
C303 H307 0.950 . S
H304 C300 0.950 . S
C305 C303 1.390 . S
C305 C306 1.387 . S
C305 H308 0.950 . S
C306 C305 1.387 . S
C306 C309 1.387 . S
H307 C303 0.950 . S
H308 C305 0.950 . S
C309 C300 1.390 . S
C309 H302 0.950 . S
C309 C306 1.387 . S
C310 C311 1.387 . S
C310 H314 0.950 . S
C310 C319 1.390 . S
C311 C310 1.387 . S
C311 C313 1.387 . S
H312 C319 0.950 . S
C313 C311 1.387 . S
C313 C315 1.390 . S
C313 H317 0.950 . S
H314 C310 0.950 . S
C315 C313 1.390 . S
C315 C316 1.387 . S
C315 H318 0.950 . S
C316 C315 1.387 . S
C316 C319 1.387 . S
H317 C313 0.950 . S
H318 C315 0.950 . S
C319 C310 1.390 . S
C319 H312 0.950 . S
C319 C316 1.387 . S
C320 C321 1.387 . S
C320 H324 0.950 . S
C320 C329 1.390 . S
C321 C320 1.387 . S
C321 C323 1.387 . S
H322 C329 0.950 . S
C323 C321 1.387 . S
C323 C325 1.390 . S
C323 H327 0.950 . S
H324 C320 0.950 . S
C325 C323 1.390 . S
C325 C326 1.387 . S
C325 H328 0.950 . S
C326 C325 1.387 . S
C326 C329 1.387 . S
H327 C323 0.950 . S
H328 C325 0.950 . S
C329 C320 1.390 . S
C329 H322 0.950 . S
C329 C326 1.387 . S
C330 C331 1.387 . S
C330 H334 0.950 . S
C330 C339 1.390 . S
C331 C330 1.387 . S
C331 C333 1.387 . S
H332 C339 0.950 . S
C333 C331 1.387 . S
C333 C335 1.390 . S
C333 H337 0.950 . S
H334 C330 0.950 . S
C335 C333 1.390 . S
C335 C336 1.387 . S
C335 H338 0.950 . S
C336 C335 1.387 . S
C336 C339 1.387 . S
H337 C333 0.950 . S
H338 C335 0.950 . S
C339 C330 1.390 . S
C339 H332 0.950 . S
C339 C336 1.387 . S
C340 C341 1.387 . S
C340 H344 0.950 . S
C340 C349 1.390 . S
C341 C340 1.387 . S
C341 C343 1.387 . S
H342 C349 0.950 . S
C343 C341 1.387 . S
C343 C345 1.390 . S
C343 H347 0.950 . S
H344 C340 0.950 . S
C345 C343 1.390 . S
C345 C346 1.387 . S
C345 H348 0.950 . S
C346 C345 1.387 . S
C346 C349 1.387 . S
H347 C343 0.950 . S
H348 C345 0.950 . S
C349 C340 1.390 . S
C349 H342 0.950 . S
C349 C346 1.387 . S
C350 C351 1.387 . S
C350 H354 0.950 . S
C350 C359 1.390 . S
C351 C350 1.387 . S
C351 C353 1.387 . S
H352 C359 0.950 . S
C353 C351 1.387 . S
C353 C355 1.390 . S
C353 H357 0.950 . S
H354 C350 0.950 . S
C355 C353 1.390 . S
C355 C356 1.387 . S
C355 H358 0.950 . S
C356 C355 1.387 . S
C356 C359 1.387 . S
H357 C353 0.950 . S
H358 C355 0.950 . S
C359 C350 1.390 . S
C359 H352 0.950 . S
C359 C356 1.387 . S
C360 C361 1.387 . S
C360 H364 0.950 . S
C360 C369 1.390 . S
C361 C360 1.387 . S
C361 C363 1.387 . S
H362 C369 0.950 . S
C363 C361 1.387 . S
C363 C365 1.390 . S
C363 H367 0.950 . S
H364 C360 0.950 . S
C365 C363 1.390 . S
C365 C366 1.387 . S
C365 H368 0.950 . S
C366 C365 1.387 . S
C366 C369 1.387 . S
H367 C363 0.950 . S
H368 C365 0.950 . S
C369 C360 1.390 . S
C369 H362 0.950 . S
C369 C366 1.387 . S
C370 C371 1.387 . S
C370 H374 0.950 . S
C370 C379 1.390 . S
C371 C370 1.387 . S
C371 C373 1.387 . S
H372 C379 0.950 . S
C373 C371 1.387 . S
C373 C375 1.390 . S
C373 H377 0.950 . S
H374 C370 0.950 . S
C375 C373 1.390 . S
C375 C376 1.387 . S
C375 H378 0.950 . S
C376 C375 1.387 . S
C376 C379 1.387 . S
H377 C373 0.950 . S
H378 C375 0.950 . S
C379 C370 1.390 . S
C379 H372 0.950 . S
C379 C376 1.387 . S
C380 C381 1.387 . S
C380 H384 0.950 . S
C380 C389 1.390 . S
C381 C380 1.387 . S
C381 C383 1.387 . S
H382 C389 0.950 . S
C383 C381 1.387 . S
C383 C385 1.390 . S
C383 H387 0.950 . S
H384 C380 0.950 . S
C385 C383 1.390 . S
C385 C386 1.387 . S
C385 H388 0.950 . S
C386 C385 1.387 . S
C386 C389 1.387 . S
H387 C383 0.950 . S
H388 C385 0.950 . S
C389 C380 1.390 . S
C389 H382 0.950 . S
C389 C386 1.387 . S
C390 C391 1.387 . S
C390 H394 0.950 . S
C390 C399 1.390 . S
C391 C390 1.387 . S
C391 C393 1.387 . S
H392 C399 0.950 . S
C393 C391 1.387 . S
C393 C395 1.390 . S
C393 H397 0.950 . S
H394 C390 0.950 . S
C395 C393 1.390 . S
C395 C396 1.387 . S
C395 H398 0.950 . S
C396 C395 1.387 . S
C396 C399 1.387 . S
H397 C393 0.950 . S
H398 C395 0.950 . S
C399 C390 1.390 . S
C399 H392 0.950 . S
C399 C396 1.387 . S
C400 C401 1.387 . S
C400 H404 0.950 . S
C400 C409 1.390 . S
C401 C400 1.387 . S
C401 C403 1.387 . S
H402 C409 0.950 . S
C403 C401 1.387 . S
C403 C405 1.390 . S
C403 H407 0.950 . S
H404 C400 0.950 . S
C405 C403 1.390 . S
C405 C406 1.387 . S
C405 H408 0.950 . S
C406 C405 1.387 . S
C406 C409 1.387 . S
H407 C403 0.950 . S
H408 C405 0.950 . S
C409 C400 1.390 . S
C409 H402 0.950 . S
C409 C406 1.387 . S
C410 C411 1.387 . S
C410 H414 0.950 . S
C410 C419 1.390 . S
C411 C410 1.387 . S
C411 C413 1.387 . S
H412 C419 0.950 . S
C413 C411 1.387 . S
C413 C415 1.390 . S
C413 H417 0.950 . S
H414 C410 0.950 . S
C415 C413 1.390 . S
C415 C416 1.387 . S
C415 H418 0.950 . S
C416 C415 1.387 . S
C416 C419 1.387 . S
H417 C413 0.950 . S
H418 C415 0.950 . S
C419 C410 1.390 . S
C419 H412 0.950 . S
C419 C416 1.387 . S
C420 C421 1.387 . S
C420 H424 0.950 . S
C420 C429 1.390 . S
C421 C420 1.387 . S
C421 C423 1.387 . S
H422 C429 0.950 . S
C423 C421 1.387 . S
C423 C425 1.390 . S
C423 H427 0.950 . S
H424 C420 0.950 . S
C425 C423 1.390 . S
C425 C426 1.387 . S
C425 H428 0.950 . S
C426 C425 1.387 . S
C426 C429 1.387 . S
H427 C423 0.950 . S
H428 C425 0.950 . S
C429 C420 1.390 . S
C429 H422 0.950 . S
C429 C426 1.387 . S
C430 C431 1.387 . S
C430 H434 0.950 . S
C430 C439 1.390 . S
C431 C430 1.387 . S
C431 C433 1.387 . S
H432 C439 0.950 . S
C433 C431 1.387 . S
C433 C435 1.390 . S
C433 H437 0.950 . S
H434 C430 0.950 . S
C435 C433 1.390 . S
C435 C436 1.387 . S
C435 H438 0.950 . S
C436 C435 1.387 . S
C436 C439 1.387 . S
H437 C433 0.950 . S
H438 C435 0.950 . S
C439 C430 1.390 . S
C439 H432 0.950 . S
C439 C436 1.387 . S
C440 C441 1.387 . S
C440 H444 0.950 . S
C440 C449 1.390 . S
C441 C440 1.387 . S
C441 C443 1.387 . S
H442 C449 0.950 . S
C443 C441 1.387 . S
C443 C445 1.390 . S
C443 H447 0.950 . S
H444 C440 0.950 . S
C445 C443 1.390 . S
C445 C446 1.387 . S
C445 H448 0.950 . S
C446 C445 1.387 . S
C446 C449 1.387 . S
H447 C443 0.950 . S
H448 C445 0.950 . S
C449 C440 1.390 . S
C449 H442 0.950 . S
C449 C446 1.387 . S
C450 C451 1.387 . S
C450 H454 0.950 . S
C450 C459 1.390 . S
C451 C450 1.387 . S
C451 C453 1.387 . S
H452 C459 0.950 . S
C453 C451 1.387 . S
C453 C455 1.390 . S
C453 H457 0.950 . S
H454 C450 0.950 . S
C455 C453 1.390 . S
C455 C456 1.387 . S
C455 H458 0.950 . S
C456 C455 1.387 . S
C456 C459 1.387 . S
H457 C453 0.950 . S
H458 C455 0.950 . S
C459 C450 1.390 . S
C459 H452 0.950 . S
C459 C456 1.387 . S
C460 C461 1.387 . S
C460 H464 0.950 . S
C460 C469 1.390 . S
C461 C460 1.387 . S
C461 C463 1.387 . S
H462 C469 0.950 . S
C463 C461 1.387 . S
C463 C465 1.390 . S
C463 H467 0.950 . S
H464 C460 0.950 . S
C465 C463 1.390 . S
C465 C466 1.387 . S
C465 H468 0.950 . S
C466 C465 1.387 . S
C466 C469 1.387 . S
H467 C463 0.950 . S
H468 C465 0.950 . S
C469 C460 1.390 . S
C469 H462 0.950 . S
C469 C466 1.387 . S
C470 C471 1.387 . S
C470 H474 0.950 . S
C470 C479 1.390 . S
C471 C470 1.387 . S
C471 C473 1.387 . S
H472 C479 0.950 . S
C473 C471 1.387 . S
C473 C475 1.390 . S
C473 H477 0.950 . S
H474 C470 0.950 . S
C475 C473 1.390 . S
C475 C476 1.387 . S
C475 H478 0.950 . S
C476 C475 1.387 . S
C476 C479 1.387 . S
H477 C473 0.950 . S
H478 C475 0.950 . S
C479 C470 1.390 . S
C479 H472 0.950 . S
C479 C476 1.387 . S
C480 C481 1.387 . S
C480 H484 0.950 . S
C480 C489 1.390 . S
C481 C480 1.387 . S
C481 C483 1.387 . S
H482 C489 0.950 . S
C483 C481 1.387 . S
C483 C485 1.390 . S
C483 H487 0.950 . S
H484 C480 0.950 . S
C485 C483 1.390 . S
C485 C486 1.387 . S
C485 H488 0.950 . S
C486 C485 1.387 . S
C486 C489 1.387 . S
H487 C483 0.950 . S
H488 C485 0.950 . S
C489 C480 1.390 . S
C489 H482 0.950 . S
C489 C486 1.387 . S
C490 C491 1.387 . S
C490 H494 0.950 . S
C490 C499 1.390 . S
C491 C490 1.387 . S
C491 C493 1.387 . S
H492 C499 0.950 . S
C493 C491 1.387 . S
C493 C495 1.390 . S
C493 H497 0.950 . S
H494 C490 0.950 . S
C495 C493 1.390 . S
C495 C496 1.387 . S
C495 H498 0.950 . S
C496 C495 1.387 . S
C496 C499 1.387 . S
H497 C493 0.950 . S
H498 C495 0.950 . S
C499 C490 1.390 . S
C499 H492 0.950 . S
C499 C496 1.387 . S
C500 C501 1.387 . S
C500 H504 0.950 . S
C500 C509 1.390 . S
C501 C500 1.387 . S
C501 C503 1.387 . S
H502 C509 0.950 . S
C503 C501 1.387 . S
C503 C505 1.390 . S
C503 H507 0.950 . S
H504 C500 0.950 . S
C505 C503 1.390 . S
C505 C506 1.387 . S
C505 H508 0.950 . S
C506 C505 1.387 . S
C506 C509 1.387 . S
H507 C503 0.950 . S
H508 C505 0.950 . S
C509 C500 1.390 . S
C509 H502 0.950 . S
C509 C506 1.387 . S
C510 C511 1.387 . S
C510 H514 0.950 . S
C510 C519 1.390 . S
C511 C510 1.387 . S
C511 C513 1.387 . S
H512 C519 0.950 . S
C513 C511 1.387 . S
C513 C515 1.390 . S
C513 H517 0.950 . S
H514 C510 0.950 . S
C515 C513 1.390 . S
C515 C516 1.387 . S
C515 H518 0.950 . S
C516 C515 1.387 . S
C516 C519 1.387 . S
H517 C513 0.950 . S
H518 C515 0.950 . S
C519 C510 1.390 . S
C519 H512 0.950 . S
C519 C516 1.387 . S
C520 C521 1.387 . S
C520 H524 0.950 . S
C520 C529 1.390 . S
C521 C520 1.387 . S
C521 C523 1.387 . S
H522 C529 0.950 . S
C523 C521 1.387 . S
C523 C525 1.390 . S
C523 H527 0.950 . S
H524 C520 0.950 . S
C525 C523 1.390 . S
C525 C526 1.387 . S
C525 H528 0.950 . S
C526 C525 1.387 . S
C526 C529 1.387 . S
H527 C523 0.950 . S
H528 C525 0.950 . S
C529 C520 1.390 . S
C529 H522 0.950 . S
C529 C526 1.387 . S
C530 C531 1.387 . S
C530 H534 0.950 . S
C530 C539 1.390 . S
C531 C530 1.387 . S
C531 C533 1.387 . S
H532 C539 0.950 . S
C533 C531 1.387 . S
C533 C535 1.390 . S
C533 H537 0.950 . S
H534 C530 0.950 . S
C535 C533 1.390 . S
C535 C536 1.387 . S
C535 H538 0.950 . S
C536 C535 1.387 . S
C536 C539 1.387 . S
H537 C533 0.950 . S
H538 C535 0.950 . S
C539 C530 1.390 . S
C539 H532 0.950 . S
C539 C536 1.387 . S
C540 C541 1.387 . S
C540 H544 0.950 . S
C540 C549 1.390 . S
C541 C540 1.387 . S
C541 C543 1.387 . S
H542 C549 0.950 . S
C543 C541 1.387 . S
C543 C545 1.390 . S
C543 H547 0.950 . S
H544 C540 0.950 . S
C545 C543 1.390 . S
C545 C546 1.387 . S
C545 H548 0.950 . S
C546 C545 1.387 . S
C546 C549 1.387 . S
H547 C543 0.950 . S
H548 C545 0.950 . S
C549 C540 1.390 . S
C549 H542 0.950 . S
C549 C546 1.387 . S
C550 C551 1.387 . S
C550 H554 0.950 . S
C550 C559 1.390 . S
C551 C550 1.387 . S
C551 C553 1.387 . S
H552 C559 0.950 . S
C553 C551 1.387 . S
C553 C555 1.390 . S
C553 H557 0.950 . S
H554 C550 0.950 . S
C555 C553 1.390 . S
C555 C556 1.387 . S
C555 H558 0.950 . S
C556 C555 1.387 . S
C556 C559 1.387 . S
H557 C553 0.950 . S
H558 C555 0.950 . S
C559 C550 1.390 . S
C559 H552 0.950 . S
C559 C556 1.387 . S
C560 C561 1.387 . S
C560 H564 0.950 . S
C560 C569 1.390 . S
C561 C560 1.387 . S
C561 C563 1.387 . S
H562 C569 0.950 . S
C563 C561 1.387 . S
C563 C565 1.390 . S
C563 H567 0.950 . S
H564 C560 0.950 . S
C565 C563 1.390 . S
C565 C566 1.387 . S
C565 H568 0.950 . S
C566 C565 1.387 . S
C566 C569 1.387 . S
H567 C563 0.950 . S
H568 C565 0.950 . S
C569 C560 1.390 . S
C569 H562 0.950 . S
C569 C566 1.387 . S
C570 C571 1.387 . S
C570 H574 0.950 . S
C570 C579 1.390 . S
C571 C570 1.387 . S
C571 C573 1.387 . S
H572 C579 0.950 . S
C573 C571 1.387 . S
C573 C575 1.390 . S
C573 H577 0.950 . S
H574 C570 0.950 . S
C575 C573 1.390 . S
C575 C576 1.387 . S
C575 H578 0.950 . S
C576 C575 1.387 . S
C576 C579 1.387 . S
H577 C573 0.950 . S
H578 C575 0.950 . S
C579 C570 1.390 . S
C579 H572 0.950 . S
C579 C576 1.387 . S
C580 C581 1.387 . S
C580 H584 0.950 . S
C580 C589 1.390 . S
C581 C580 1.387 . S
C581 C583 1.387 . S
H582 C589 0.950 . S
C583 C581 1.387 . S
C583 C585 1.390 . S
C583 H587 0.950 . S
H584 C580 0.950 . S
C585 C583 1.390 . S
C585 C586 1.387 . S
C585 H588 0.950 . S
C586 C585 1.387 . S
C586 C589 1.387 . S
H587 C583 0.950 . S
H588 C585 0.950 . S
C589 C580 1.390 . S
C589 H582 0.950 . S
C589 C586 1.387 . S
C590 C591 1.387 . S
C590 H594 0.950 . S
C590 C599 1.390 . S
C591 C590 1.387 . S
C591 C593 1.387 . S
H592 C599 0.950 . S
C593 C591 1.387 . S
C593 C595 1.390 . S
C593 H597 0.950 . S
H594 C590 0.950 . S
C595 C593 1.390 . S
C595 C596 1.387 . S
C595 H598 0.950 . S
C596 C595 1.387 . S
C596 C599 1.387 . S
H597 C593 0.950 . S
H598 C595 0.950 . S
C599 C590 1.390 . S
C599 H592 0.950 . S
C599 C596 1.387 . S
C286 C169 1.509 . S
C281 C12 1.387 . S
C296 C195 1.513 . S
C291 C33 1.392 . S
C306 C209 1.505 . S
C301 C51 1.416 . S
C316 C211 1.509 . S
C311 C75 1.392 . S
C321 C103 1.431 . S
C326 C208 1.504 . S
C336 C210 1.509 . S
C331 C122 1.397 . S
C346 C168 1.496 . S
C341 C145 1.420 . S
C356 C194 1.499 . S
C351 C166 1.424 . S
C366 C196 1.510 . S
C361 C164 1.403 . S
C376 C222 1.513 . S
C371 C101 1.407 . S
C386 C180 1.500 . S
C381 C124 1.420 . S
C396 C182 1.506 . S
C391 C143 1.399 . S
C406 C181 1.503 . S
C401 C30 1.409 . S
C416 C183 1.509 . S
C411 C54 1.399 . S
C426 C197 1.500 . S
C421 C72 1.409 . S
C436 C223 1.505 . S
C431 C9 1.415 . S
C446 C225 1.509 . S
C441 C159 1.386 . S
C451 C96 1.393 . S
C456 C251 1.513 . S
C461 C114 1.416 . S
C466 C264 1.504 . S
C471 C138 1.392 . S
C476 C267 1.509 . S
C481 C40 1.431 . S
C486 C265 1.504 . S
C491 C59 1.397 . S
C496 C266 1.509 . S
C501 C82 1.423 . S
C506 C224 1.497 . S
C516 C250 1.499 . S
C511 C19 1.423 . S
C526 C253 1.511 . S
C521 C17 1.407 . S
C531 C38 1.406 . S
C536 C278 1.513 . S
C541 C61 1.419 . S
C546 C236 1.500 . S
C551 C80 1.402 . S
C556 C238 1.507 . S
C566 C237 1.503 . S
C561 C93 1.409 . S
C576 C239 1.508 . S
C571 C117 1.399 . S
C581 C135 1.410 . S
C586 C252 1.501 . S
C596 C279 1.505 . S
C591 C156 1.415 . S
