# Generated by pormake.
# Topology llj, (12,3)-cn, num edge types: 1
# Building blocks:
#     Node 0, Type 0, BuildingBlock: QEWDON_clean_sbu_0, # of connection points: 12
#     Node 1, Type 0, BuildingBlock: QEWDON_clean_sbu_0, # of connection points: 12
#     Node 2, Type 1, BuildingBlock: PAMTOO_clean_linker_0, # of connection points: 3
#     Node 3, Type 1, BuildingBlock: PAMTOO_clean_linker_0, # of connection points: 3
#     Node 4, Type 1, BuildingBlock: PAMTOO_clean_linker_0, # of connection points: 3
#     Node 5, Type 1, BuildingBlock: PAMTOO_clean_linker_0, # of connection points: 3
#     Node 6, Type 1, BuildingBlock: PAMTOO_clean_linker_0, # of connection points: 3
#     Node 7, Type 1, BuildingBlock: PAMTOO_clean_linker_0, # of connection points: 3
#     Node 8, Type 1, BuildingBlock: PAMTOO_clean_linker_0, # of connection points: 3
#     Node 9, Type 1, BuildingBlock: PAMTOO_clean_linker_0, # of connection points: 3
#     Edge 10, Type (0, 1), BuildingBlock: MIFKUJ_clean_linker_0, # of connection points: 2
#     Edge 11, Type (0, 1), BuildingBlock: MIFKUJ_clean_linker_0, # of connection points: 2
#     Edge 12, Type (0, 1), BuildingBlock: MIFKUJ_clean_linker_0, # of connection points: 2
#     Edge 13, Type (0, 1), BuildingBlock: MIFKUJ_clean_linker_0, # of connection points: 2
#     Edge 14, Type (0, 1), BuildingBlock: MIFKUJ_clean_linker_0, # of connection points: 2
#     Edge 15, Type (0, 1), BuildingBlock: MIFKUJ_clean_linker_0, # of connection points: 2
#     Edge 16, Type (0, 1), BuildingBlock: MIFKUJ_clean_linker_0, # of connection points: 2
#     Edge 17, Type (0, 1), BuildingBlock: MIFKUJ_clean_linker_0, # of connection points: 2
#     Edge 18, Type (0, 1), BuildingBlock: MIFKUJ_clean_linker_0, # of connection points: 2
#     Edge 19, Type (0, 1), BuildingBlock: MIFKUJ_clean_linker_0, # of connection points: 2
#     Edge 20, Type (0, 1), BuildingBlock: MIFKUJ_clean_linker_0, # of connection points: 2
#     Edge 21, Type (0, 1), BuildingBlock: MIFKUJ_clean_linker_0, # of connection points: 2
#     Edge 22, Type (0, 1), BuildingBlock: MIFKUJ_clean_linker_0, # of connection points: 2
#     Edge 23, Type (0, 1), BuildingBlock: MIFKUJ_clean_linker_0, # of connection points: 2
#     Edge 24, Type (0, 1), BuildingBlock: MIFKUJ_clean_linker_0, # of connection points: 2
#     Edge 25, Type (0, 1), BuildingBlock: MIFKUJ_clean_linker_0, # of connection points: 2
#     Edge 26, Type (0, 1), BuildingBlock: MIFKUJ_clean_linker_0, # of connection points: 2
#     Edge 27, Type (0, 1), BuildingBlock: MIFKUJ_clean_linker_0, # of connection points: 2
#     Edge 28, Type (0, 1), BuildingBlock: MIFKUJ_clean_linker_0, # of connection points: 2
#     Edge 29, Type (0, 1), BuildingBlock: MIFKUJ_clean_linker_0, # of connection points: 2
#     Edge 30, Type (0, 1), BuildingBlock: MIFKUJ_clean_linker_0, # of connection points: 2
#     Edge 31, Type (0, 1), BuildingBlock: MIFKUJ_clean_linker_0, # of connection points: 2
#     Edge 32, Type (0, 1), BuildingBlock: MIFKUJ_clean_linker_0, # of connection points: 2
#     Edge 33, Type (0, 1), BuildingBlock: MIFKUJ_clean_linker_0, # of connection points: 2
# Relax obj value: 0.009
# Max RMSD: 0.108
# Mean RMSD: 0.091
data_MOF--net-llj--node1-QEWDON_clean_sbu_0--node2-PAMTOO_clean_linker_0--edge1-MIFKUJ_clean_linker_0
_symmetry_space_group_name_H-M    P1
_symmetry_Int_Tables_number       1
_symmetry_cell_setting            triclinic
loop_
_symmetry_equiv_pos_as_xyz
'x, y, z'
_cell_length_a     49.791141
_cell_length_b     49.745191
_cell_length_c     31.274729
_cell_angle_alpha  91.266845
_cell_angle_beta   90.342425
_cell_angle_gamma 89.955992
loop_
_atom_site_label
_atom_site_type_symbol
_atom_site_fract_x
_atom_site_fract_y
_atom_site_fract_z
_atom_type_partial_charge
Zn0 Zn 0.9533 0.05886 0.9572 0.0
Zn1 Zn 0.95553 0.05565 0.05918 0.0
O2 O 0.9772 0.04962 0.0065 0.0
H3 H 0.99246 0.03783 0.0033 0.0
C4 C 0.93129 0.99768 0.91149 0.0
O5 O 0.92925 0.00897 0.9497 0.0
Zn6 Zn 0.04393 0.94193 0.06122 0.0
Zn7 Zn 0.05337 0.94064 0.9628 0.0
O8 O 0.02371 0.94087 0.00647 0.0
H9 H 0.00549 0.94684 0.0017 0.0
Zn10 Zn 0.94934 0.95497 0.96455 0.0
O11 O 0.95813 0.98029 0.01457 0.0
Zn12 Zn 0.95076 0.95859 0.06572 0.0
H13 H 0.97195 0.99384 0.0133 0.0
Zn14 Zn 0.0534 0.03517 0.95079 0.0
O15 O 0.04124 0.01545 0.00343 0.0
H16 H 0.02917 0.00023 0.00292 0.0
Zn17 Zn 0.04872 0.04018 0.05341 0.0
C18 C 0.07663 0.99093 0.90238 0.0
O19 O 0.08374 0.98446 0.94134 0.0
O20 O 0.91988 0.08065 0.97448 0.0
O21 O 0.92181 0.07766 0.04528 0.0
O22 O 0.08857 0.92346 0.9849 0.0
O23 O 0.0797 0.92282 0.05457 0.0
O24 O 0.92355 0.92454 0.98074 0.0
O25 O 0.92304 0.92976 0.0515 0.0
C26 C 0.00393 0.0708 0.10237 0.0
O27 O 0.07638 0.06869 0.96446 0.0
O28 O 0.07298 0.07104 0.03535 0.0
O29 O 0.03959 0.93166 0.90181 0.0
C30 C 0.91036 0.086 0.01138 0.0
O31 O 0.97292 0.06794 0.90181 0.0
C32 C 0.99686 0.92624 0.10629 0.0
O33 O 0.94008 0.97376 0.90812 0.0
C34 C 0.09505 0.91735 0.02301 0.0
O35 O 0.06314 0.01229 0.89702 0.0
C36 C 0.93665 0.00776 0.11237 0.0
O37 O 0.97874 0.07501 0.10329 0.0
O38 O 0.01289 0.05477 0.07353 0.0
C39 C 0.91469 0.9181 0.01722 0.0
O40 O 0.02192 0.922 0.10401 0.0
O41 O 0.98666 0.94293 0.08066 0.0
C42 C 0.06453 0.99391 0.10255 0.0
O43 O 0.93633 0.98225 0.11368 0.0
O44 O 0.94713 0.01849 0.07992 0.0
C45 C 0.0821 0.07997 0.00034 0.0
O46 O 0.06705 0.01922 0.10016 0.0
O47 O 0.04969 0.98159 0.07528 0.0
C48 C 0.02197 0.94701 0.88578 0.0
O49 O 0.01433 0.96852 0.90763 0.0
C50 C 0.98783 0.05071 0.88301 0.0
O51 O 0.98988 0.02643 0.89837 0.0
Zn52 Zn 0.47249 0.54812 0.45463 0.0
Zn53 Zn 0.46547 0.54829 0.5568 0.0
O54 O 0.49048 0.53789 0.51001 0.0
H55 H 0.50512 0.52522 0.51201 0.0
C56 C 0.41987 0.4879 0.42212 0.0
O57 O 0.41513 0.49596 0.46165 0.0
Zn58 Zn 0.54629 0.44848 0.56828 0.0
Zn59 Zn 0.53525 0.44245 0.46676 0.0
O60 O 0.52095 0.4586 0.52181 0.0
H61 H 0.51056 0.47498 0.52315 0.0
Zn62 Zn 0.44414 0.44637 0.47013 0.0
O63 O 0.45534 0.47286 0.51616 0.0
Zn64 Zn 0.45143 0.45456 0.57135 0.0
H65 H 0.46508 0.48918 0.51069 0.0
Zn66 Zn 0.55546 0.54678 0.476 0.0
O67 O 0.56221 0.51803 0.51965 0.0
H68 H 0.5725 0.5019 0.51387 0.0
Zn69 Zn 0.56223 0.54059 0.57278 0.0
C70 C 0.59158 0.52844 0.41317 0.0
O71 O 0.60704 0.53274 0.44683 0.0
O72 O 0.43786 0.57065 0.46264 0.0
O73 O 0.43468 0.57089 0.5336 0.0
O74 O 0.56699 0.41639 0.4756 0.0
O75 O 0.57488 0.42286 0.54524 0.0
O76 O 0.42255 0.41459 0.49375 0.0
O77 O 0.42734 0.4218 0.56412 0.0
C78 C 0.51096 0.56612 0.60717 0.0
O79 O 0.57263 0.58299 0.49423 0.0
O80 O 0.5833 0.57466 0.56194 0.0
O81 O 0.50742 0.43447 0.41854 0.0
C82 C 0.42599 0.57794 0.49701 0.0
O83 O 0.49919 0.55942 0.40831 0.0
C84 C 0.50096 0.43167 0.6166 0.0
O85 O 0.43164 0.46552 0.41557 0.0
C86 C 0.58043 0.41145 0.50939 0.0
O87 O 0.56664 0.53343 0.41611 0.0
C88 C 0.43842 0.50526 0.61113 0.0
O89 O 0.4858 0.56923 0.60245 0.0
O90 O 0.52307 0.54927 0.58299 0.0
C91 C 0.41774 0.40833 0.53231 0.0
O92 O 0.52634 0.42971 0.6154 0.0
O93 O 0.48931 0.44534 0.58816 0.0
C94 C 0.57637 0.49381 0.61842 0.0
O95 O 0.43476 0.48014 0.61403 0.0
O96 O 0.45194 0.51347 0.57967 0.0
C97 C 0.58425 0.5896 0.52929 0.0
O98 O 0.57986 0.51913 0.61949 0.0
O99 O 0.56111 0.48406 0.58932 0.0
C100 C 0.48919 0.41721 0.42508 0.0
O101 O 0.48884 0.40484 0.46177 0.0
C102 C 0.51593 0.57762 0.41916 0.0
O103 O 0.51464 0.58842 0.45782 0.0
H104 H 0.38193 0.34934 0.01204 0.0
H105 H 0.31706 0.30673 0.07148 0.0
H106 H 0.32793 0.30063 0.93569 0.0
H107 H 0.27203 0.30595 0.96139 0.0
C108 C 0.27301 0.29666 0.99342 0.0
O109 O 0.29825 0.28608 7e-05 0.0
H110 H 0.2687 0.31266 0.01791 0.0
C111 C 0.36455 0.33625 0.00991 0.0
C112 C 0.35651 0.32591 0.96975 0.0
C113 C 0.35076 0.32923 0.04718 0.0
C114 C 0.32843 0.31202 0.04345 0.0
C115 C 0.32018 0.30192 0.00334 0.0
C116 C 0.33446 0.30851 0.96663 0.0
H117 H 0.67813 0.40543 0.00127 0.0
H118 H 0.70807 0.34909 0.0927 0.0
H119 H 0.7113 0.32957 0.95863 0.0
H120 H 0.6915 0.28806 0.01736 0.0
C121 C 0.70751 0.29028 0.04222 0.0
O122 O 0.72253 0.31306 0.03549 0.0
H123 H 0.69765 0.29193 0.074 0.0
C124 C 0.68753 0.38636 0.00838 0.0
C125 C 0.69419 0.36847 0.9747 0.0
C126 C 0.69232 0.37967 0.05113 0.0
C127 C 0.70444 0.35488 0.05998 0.0
C128 C 0.71112 0.33692 0.02664 0.0
C129 C 0.70601 0.34366 0.98413 0.0
H130 H 0.602 0.66878 0.02334 0.0
H131 H 0.64385 0.72503 0.94551 0.0
H132 H 0.66188 0.72178 0.07924 0.0
H133 H 0.65415 0.77697 0.03963 0.0
C134 C 0.666 0.77249 0.01023 0.0
O135 O 0.67253 0.74557 0.00807 0.0
H136 H 0.65358 0.77778 0.98194 0.0
C137 C 0.61698 0.68441 0.02043 0.0
C138 C 0.63143 0.69357 0.05673 0.0
C139 C 0.62137 0.69547 0.98019 0.0
C140 C 0.6399 0.71646 0.9764 0.0
C141 C 0.65406 0.72605 0.0123 0.0
C142 C 0.65002 0.71458 0.0522 0.0
H143 H 0.35512 0.60915 0.01705 0.0
H144 H 0.30481 0.66375 0.08975 0.0
H145 H 0.31269 0.67281 0.9547 0.0
H146 H 0.31828 0.72227 0.00732 0.0
C147 C 0.3028 0.71815 0.03188 0.0
O148 O 0.292 0.69296 0.02462 0.0
H149 H 0.31263 0.71913 0.06392 0.0
C150 C 0.34125 0.62592 0.01864 0.0
C151 C 0.33478 0.63944 0.98096 0.0
C152 C 0.33059 0.63432 0.0583 0.0
C153 C 0.31356 0.65688 0.05982 0.0
C154 C 0.30765 0.67086 0.02261 0.0
C155 C 0.318 0.66207 0.98331 0.0
H156 H 0.88697 0.85546 0.50833 0.0
H157 H 0.82761 0.81473 0.58211 0.0
H158 H 0.82465 0.80932 0.44479 0.0
H159 H 0.77287 0.81867 0.48911 0.0
C160 C 0.77595 0.80535 0.51688 0.0
O161 O 0.80152 0.79467 0.51542 0.0
H162 H 0.77342 0.81749 0.54688 0.0
C163 C 0.86909 0.84304 0.50955 0.0
C164 C 0.85708 0.83341 0.47156 0.0
C165 C 0.85862 0.83637 0.5493 0.0
C166 C 0.83584 0.81996 0.5514 0.0
C167 C 0.82356 0.81037 0.51358 0.0
C168 C 0.8343 0.81687 0.47379 0.0
H169 H 0.16234 0.88557 0.49018 0.0
H170 H 0.20477 0.82421 0.55923 0.0
H171 H 0.21036 0.82709 0.42266 0.0
H172 H 0.20223 0.77353 0.45716 0.0
C173 C 0.21426 0.77552 0.4872 0.0
O174 O 0.22488 0.80106 0.49094 0.0
H175 H 0.20059 0.77182 0.51448 0.0
C176 C 0.17595 0.86857 0.49106 0.0
C177 C 0.18621 0.85828 0.4524 0.0
C178 C 0.18219 0.85648 0.53016 0.0
C179 C 0.19915 0.83378 0.52972 0.0
C180 C 0.20907 0.82314 0.49103 0.0
C181 C 0.20259 0.83539 0.45245 0.0
H182 H 0.11902 0.13889 0.4993 0.0
H183 H 0.17403 0.19726 0.45051 0.0
H184 H 0.17006 0.18446 0.58563 0.0
H185 H 0.17334 0.24161 0.55982 0.0
C186 C 0.18572 0.23891 0.53051 0.0
O187 O 0.19275 0.2122 0.52571 0.0
H188 H 0.17372 0.24538 0.50241 0.0
C189 C 0.1347 0.15372 0.50476 0.0
C190 C 0.1436 0.15956 0.54655 0.0
C191 C 0.14546 0.1673 0.47 0.0
C192 C 0.16564 0.18653 0.47708 0.0
C193 C 0.17419 0.19286 0.51882 0.0
C194 C 0.16323 0.17942 0.55347 0.0
H195 H 0.8306 0.09803 0.50601 0.0
H196 H 0.77247 0.15105 0.44983 0.0
H197 H 0.78 0.14784 0.58607 0.0
H198 H 0.72458 0.15543 0.5568 0.0
C199 C 0.72864 0.16505 0.52572 0.0
O200 O 0.75559 0.17087 0.52267 0.0
H201 H 0.72242 0.15077 0.49957 0.0
C202 C 0.81442 0.11247 0.50948 0.0
C203 C 0.80659 0.12115 0.55063 0.0
C204 C 0.80224 0.12296 0.47275 0.0
C205 C 0.78223 0.14267 0.47758 0.0
C206 C 0.77442 0.15154 0.5184 0.0
C207 C 0.78652 0.14087 0.55475 0.0
H208 H 0.11137 0.09975 0.93445 0.0
H209 H 0.14337 0.13685 0.93697 0.0
H210 H 0.12649 0.15062 0.07075 0.0
H211 H 0.09444 0.11325 0.06875 0.0
H212 H 0.12848 0.19823 0.022 0.0
H213 H 0.1815 0.11992 0.04829 0.0
H214 H 0.19787 0.07378 0.03442 0.0
H215 H 0.22821 0.09715 0.91251 0.0
H216 H 0.21165 0.14337 0.92539 0.0
H217 H 0.24151 0.28346 0.0614 0.0
H218 H 0.20854 0.24698 0.06513 0.0
H219 H 0.2264 0.22336 0.93475 0.0
H220 H 0.25951 0.25975 0.93117 0.0
H221 H 0.22389 0.18041 0.9859 0.0
H222 H 0.1697 0.258 0.95789 0.0
H223 H 0.15259 0.30402 0.9703 0.0
H224 H 0.12395 0.2821 0.09399 0.0
H225 H 0.14125 0.23601 0.08254 0.0
C226 C 0.11433 0.11066 0.96443 0.0
C227 C 0.10046 0.10338 0.00147 0.0
C228 C 0.13269 0.13183 0.96581 0.0
C229 C 0.13744 0.14625 0.00413 0.0
C230 C 0.1231 0.13964 0.04091 0.0
C231 C 0.10489 0.11824 0.0397 0.0
C232 C 0.15778 0.16792 0.00568 0.0
C233 C 0.14944 0.19434 0.01481 0.0
C234 C 0.18495 0.16278 0.9954 0.0
C235 C 0.19511 0.13505 0.98765 0.0
C236 C 0.19147 0.11517 0.01837 0.0
C237 C 0.20081 0.08901 0.01072 0.0
C238 C 0.21401 0.08252 0.97256 0.0
C239 C 0.21795 0.1022 0.94203 0.0
C240 C 0.20862 0.1284 0.94951 0.0
C241 C 0.23819 0.27055 0.03354 0.0
C242 C 0.25252 0.27462 0.9957 0.0
C243 C 0.21939 0.24978 0.03565 0.0
C244 C 0.21475 0.23271 0.0 0.0
C245 C 0.22957 0.2364 0.96252 0.0
C246 C 0.24832 0.25719 0.9604 0.0
C247 C 0.1946 0.21086 0.00181 0.0
C248 C 0.20298 0.18435 0.99333 0.0
C249 C 0.16745 0.21595 0.01257 0.0
C250 C 0.15705 0.24364 0.01956 0.0
C251 C 0.15997 0.26306 0.9879 0.0
C252 C 0.1502 0.28914 0.99472 0.0
C253 C 0.13726 0.296 0.03296 0.0
C254 C 0.13402 0.27677 0.06441 0.0
C255 C 0.14379 0.25066 0.05776 0.0
H256 H 0.1297 0.3162 0.03818 0.0
H257 H 0.22123 0.06225 0.96669 0.0
H258 H 0.88417 0.10268 0.08424 0.0
H259 H 0.84688 0.13462 0.08966 0.0
H260 H 0.84505 0.14085 0.95234 0.0
H261 H 0.88215 0.10897 0.94643 0.0
H262 H 0.8468 0.19009 0.99379 0.0
H263 H 0.79608 0.1083 0.00044 0.0
H264 H 0.78481 0.0637 0.0281 0.0
H265 H 0.77035 0.09891 0.15245 0.0
H266 H 0.78187 0.14372 0.12564 0.0
H267 H 0.72835 0.26622 0.97081 0.0
H268 H 0.76056 0.22894 0.96642 0.0
H269 H 0.76049 0.22386 0.10398 0.0
H270 H 0.72816 0.26112 0.10835 0.0
H271 H 0.75931 0.17359 0.06373 0.0
H272 H 0.81043 0.25491 0.05812 0.0
H273 H 0.82261 0.2996 0.03175 0.0
H274 H 0.83753 0.26529 0.90694 0.0
H275 H 0.82503 0.22043 0.93243 0.0
C276 C 0.87565 0.11062 0.05511 0.0
C277 C 0.88632 0.10343 0.0149 0.0
C278 C 0.8543 0.1288 0.05832 0.0
C279 C 0.84324 0.14005 0.02139 0.0
C280 C 0.85338 0.13242 0.98121 0.0
C281 C 0.87459 0.11416 0.97791 0.0
C282 C 0.82207 0.16088 0.02468 0.0
C283 C 0.82751 0.18637 0.0085 0.0
C284 C 0.79726 0.15619 0.04501 0.0
C285 C 0.79007 0.12933 0.06113 0.0
C286 C 0.79068 0.10651 0.03376 0.0
C287 C 0.78421 0.0812 0.04927 0.0
C288 C 0.77692 0.07846 0.09203 0.0
C289 C 0.77601 0.10106 0.11934 0.0
C290 C 0.78248 0.12643 0.10399 0.0
C291 C 0.73502 0.25685 -3e-05 0.0
C292 C 0.72568 0.26621 0.03983 0.0
C293 C 0.75343 0.2357 0.9975 0.0
C294 C 0.76299 0.22377 0.03491 0.0
C295 C 0.75325 0.23274 0.07476 0.0
C296 C 0.73488 0.25398 0.07724 0.0
C297 C 0.78398 0.20269 0.03241 0.0
C298 C 0.77857 0.17725 0.0489 0.0
C299 C 0.80892 0.20742 0.0125 0.0
C300 C 0.81651 0.23436 0.99707 0.0
C301 C 0.81608 0.25693 0.02495 0.0
C302 C 0.82308 0.28229 0.01019 0.0
C303 C 0.83077 0.28529 0.96767 0.0
C304 C 0.83153 0.26293 0.93986 0.0
C305 C 0.8245 0.23753 0.95445 0.0
H306 H 0.8362 0.30494 0.9563 0.0
H307 H 0.77194 0.05885 0.10399 0.0
H308 H 0.89928 0.88047 0.95695 0.0
H309 H 0.85812 0.85375 0.95606 0.0
H310 H 0.83708 0.88689 0.08002 0.0
H311 H 0.87869 0.91285 0.08192 0.0
H312 H 0.82521 0.83379 0.07331 0.0
H313 H 0.81132 0.91291 0.98899 0.0
H314 H 0.82206 0.94399 0.93114 0.0
H315 H 0.81143 0.88016 0.83795 0.0
H316 H 0.80104 0.84858 0.89532 0.0
H317 H 0.68661 0.80535 0.07411 0.0
H318 H 0.72965 0.82918 0.07487 0.0
H319 H 0.7461 0.79847 0.94751 0.0
H320 H 0.70262 0.77533 0.94627 0.0
H321 H 0.76099 0.84917 0.95453 0.0
H322 H 0.77381 0.77028 0.03736 0.0
H323 H 0.7646 0.73825 0.09449 0.0
H324 H 0.77898 0.80021 0.18962 0.0
H325 H 0.78786 0.83275 0.13303 0.0
C326 C 0.88609 0.88177 0.98427 0.0
C327 C 0.89208 0.89899 0.01926 0.0
C328 C 0.86254 0.86657 0.98366 0.0
C329 C 0.84435 0.86872 0.01766 0.0
C330 C 0.85087 0.88494 0.05348 0.0
C331 C 0.87466 0.89976 0.05448 0.0
C332 C 0.81798 0.85504 0.0152 0.0
C333 C 0.81106 0.83739 0.04765 0.0
C334 C 0.79979 0.85924 0.98104 0.0
C335 C 0.8056 0.87833 0.94648 0.0
C336 C 0.81142 0.90547 0.95619 0.0
C337 C 0.81744 0.92317 0.92349 0.0
C338 C 0.81743 0.91404 0.88092 0.0
C339 C 0.81142 0.88719 0.87095 0.0
C340 C 0.80545 0.86939 0.90353 0.0
C341 C 0.69934 0.80397 0.04618 0.0
C342 C 0.69146 0.78858 0.0101 0.0
C343 C 0.72396 0.8174 0.04672 0.0
C344 C 0.74129 0.81522 0.01151 0.0
C345 C 0.73309 0.80038 0.97504 0.0
C346 C 0.70836 0.78717 0.97435 0.0
C347 C 0.76815 0.82804 0.01295 0.0
C348 C 0.77518 0.84554 0.98023 0.0
C349 C 0.78654 0.82359 0.04679 0.0
C350 C 0.78118 0.80404 0.0809 0.0
C351 C 0.77476 0.77715 0.07044 0.0
C352 C 0.76964 0.75889 0.10274 0.0
C353 C 0.77111 0.76721 0.14565 0.0
C354 C 0.77778 0.79381 0.15636 0.0
C355 C 0.78287 0.81216 0.12419 0.0
H356 H 0.76715 0.75304 0.1706 0.0
H357 H 0.82199 0.92779 0.85563 0.0
H358 H 0.10535 0.88348 0.08843 0.0
H359 H 0.14207 0.85136 0.09355 0.0
H360 H 0.17757 0.88349 0.97989 0.0
H361 H 0.13988 0.91462 0.97321 0.0
H362 H 0.17399 0.83289 0.97044 0.0
H363 H 0.22327 0.88253 0.09189 0.0
H364 H 0.22847 0.90395 0.16347 0.0
H365 H 0.17746 0.84406 0.21712 0.0
H366 H 0.17313 0.82153 0.14618 0.0
H367 H 0.29671 0.75992 0.97663 0.0
H368 H 0.2614 0.79422 0.97678 0.0
H369 H 0.22393 0.75649 0.08415 0.0
H370 H 0.25968 0.72255 0.08465 0.0
H371 H 0.22777 0.80865 0.09776 0.0
H372 H 0.19685 0.75199 0.98222 0.0
H373 H 0.19978 0.72649 0.9139 0.0
H374 H 0.21626 0.79937 0.84787 0.0
H375 H 0.21382 0.82528 0.91589 0.0
C376 C 0.12127 0.88406 0.06501 0.0
C377 C 0.11962 0.90137 0.03016 0.0
C378 C 0.14251 0.86584 0.06827 0.0
C379 C 0.16291 0.86508 0.03743 0.0
C380 C 0.16207 0.88357 0.00406 0.0
C381 C 0.14053 0.90137 0.00024 0.0
C382 C 0.18297 0.84293 0.03649 0.0
C383 C 0.18609 0.82796 -0.00186 0.0
C384 C 0.19798 0.83549 0.07288 0.0
C385 C 0.19737 0.85082 0.11378 0.0
C386 C 0.21282 0.87424 0.11887 0.0
C387 C 0.21591 0.88634 0.15937 0.0
C388 C 0.20314 0.87549 0.19469 0.0
C389 C 0.18724 0.8525 0.18967 0.0
C390 C 0.18465 0.83994 0.14944 0.0
C391 C 0.28084 0.75895 9e-05 0.0
C392 C 0.2808 0.73874 0.03071 0.0
C393 C 0.2606 0.7784 -3e-05 0.0
C394 C 0.23985 0.77772 0.03016 0.0
C395 C 0.23972 0.75735 0.06053 0.0
C396 C 0.26004 0.73801 0.0608 0.0
C397 C 0.21914 0.7991 0.0316 0.0
C398 C 0.21574 0.81371 0.07001 0.0
C399 C 0.20387 0.8061 0.99523 0.0
C400 C 0.20542 0.79054 0.95426 0.0
C401 C 0.20134 0.76256 0.9532 0.0
C402 C 0.20287 0.74803 0.91451 0.0
C403 C 0.20828 0.76129 0.87659 0.0
C404 C 0.21211 0.78912 0.87727 0.0
C405 C 0.21064 0.80374 0.91589 0.0
H406 H 0.20943 0.75001 0.84667 0.0
H407 H 0.20589 0.88467 0.22603 0.0
H408 H 0.5757 0.63716 0.48967 0.0
H409 H 0.60657 0.67543 0.48651 0.0
H410 H 0.66349 0.6332 0.56515 0.0
H411 H 0.63221 0.5955 0.56984 0.0
H412 H 0.65931 0.68416 0.59084 0.0
H413 H 0.6704 0.63703 0.45506 0.0
H414 H 0.65458 0.61717 0.38644 0.0
H415 H 0.62546 0.69427 0.34807 0.0
H416 H 0.64084 0.71456 0.41669 0.0
H417 H 0.77745 0.75761 0.5592 0.0
H418 H 0.74332 0.72231 0.55982 0.0
H419 H 0.69297 0.76888 0.47644 0.0
H420 H 0.72761 0.80384 0.47457 0.0
H421 H 0.69142 0.71778 0.45203 0.0
H422 H 0.68091 0.76577 0.58465 0.0
H423 H 0.69475 0.7865 0.65365 0.0
H424 H 0.71959 0.70937 0.69858 0.0
H425 H 0.70626 0.68822 0.6296 0.0
C426 C 0.59471 0.63625 0.50657 0.0
C427 C 0.60157 0.61356 0.53025 0.0
C428 C 0.61238 0.65798 0.50451 0.0
C429 C 0.63748 0.65701 0.52516 0.0
C430 C 0.64423 0.63438 0.54899 0.0
C431 C 0.62632 0.61293 0.55184 0.0
C432 C 0.6568 0.67954 0.52232 0.0
C433 C 0.66649 0.69137 0.56049 0.0
C434 C 0.66558 0.68942 0.48266 0.0
C435 C 0.65661 0.67728 0.44117 0.0
C436 C 0.66049 0.64973 0.4321 0.0
C437 C 0.65163 0.6384 0.39319 0.0
C438 C 0.63904 0.65446 0.36294 0.0
C439 C 0.63525 0.68187 0.37154 0.0
C440 C 0.64407 0.6933 0.4104 0.0
C441 C 0.75925 0.76012 0.54056 0.0
C442 C 0.75537 0.78316 0.51611 0.0
C443 C 0.73964 0.74008 0.54124 0.0
C444 C 0.71542 0.74306 0.51852 0.0
C445 C 0.71152 0.76609 0.49408 0.0
C446 C 0.73126 0.78604 0.49307 0.0
C447 C 0.69415 0.72222 0.52066 0.0
C448 C 0.68407 0.71073 0.48237 0.0
C449 C 0.68472 0.7128 0.56024 0.0
C450 C 0.69283 0.72546 0.60177 0.0
C451 C 0.68953 0.75326 0.60911 0.0
C452 C 0.69725 0.76508 0.64824 0.0
C453 C 0.70811 0.74927 0.68044 0.0
C454 C 0.71121 0.7216 0.67359 0.0
C455 C 0.70356 0.70968 0.63449 0.0
H456 H 0.71406 0.75846 0.71072 0.0
H457 H 0.63229 0.64569 0.3328 0.0
H458 H 0.40028 0.59598 0.4253 0.0
H459 H 0.36348 0.62844 0.42195 0.0
H460 H 0.36191 0.63389 0.55978 0.0
H461 H 0.39828 0.60112 0.56353 0.0
H462 H 0.31214 0.63267 0.52782 0.0
H463 H 0.39328 0.68188 0.50068 0.0
H464 H 0.43572 0.69088 0.46333 0.0
H465 H 0.39262 0.69937 0.34507 0.0
H466 H 0.34994 0.69006 0.38163 0.0
H467 H 0.24035 0.7545 0.55594 0.0
H468 H 0.27604 0.72047 0.55597 0.0
H469 H 0.27432 0.71724 0.41796 0.0
H470 H 0.23892 0.75162 0.41801 0.0
H471 H 0.3251 0.71664 0.44768 0.0
H472 H 0.24371 0.66866 0.47561 0.0
H473 H 0.20145 0.65927 0.51317 0.0
H474 H 0.24519 0.64826 0.63023 0.0
H475 H 0.2877 0.65797 0.59349 0.0
C476 C 0.39201 0.60395 0.45494 0.0
C477 C 0.40244 0.59612 0.49469 0.0
C478 C 0.37104 0.6226 0.45295 0.0
C479 C 0.36026 0.63397 0.49062 0.0
C480 C 0.36999 0.62548 0.53031 0.0
C481 C 0.39085 0.60676 0.53236 0.0
C482 C 0.33925 0.65513 0.48885 0.0
C483 C 0.31509 0.65116 0.51069 0.0
C484 C 0.34287 0.67901 0.46573 0.0
C485 C 0.36845 0.68502 0.44381 0.0
C486 C 0.39288 0.68551 0.46666 0.0
C487 C 0.41697 0.69068 0.44564 0.0
C488 C 0.41687 0.69562 0.40183 0.0
C489 C 0.39266 0.69551 0.37899 0.0
C490 C 0.36851 0.69031 0.39985 0.0
C491 C 0.24764 0.74644 0.52571 0.0
C492 C 0.23657 0.75511 0.48701 0.0
C493 C 0.26793 0.727 0.5257 0.0
C494 C 0.27748 0.71591 0.48696 0.0
C495 C 0.26712 0.72536 0.44822 0.0
C496 C 0.24685 0.74485 0.44824 0.0
C497 C 0.29805 0.69426 0.48691 0.0
C498 C 0.32211 0.69812 0.46471 0.0
C499 C 0.29437 0.67028 0.50976 0.0
C500 C 0.26886 0.66429 0.53188 0.0
C501 C 0.24429 0.66444 0.50944 0.0
C502 C 0.2203 0.65903 0.53056 0.0
C503 C 0.22063 0.65324 0.57408 0.0
C504 C 0.24496 0.65278 0.59653 0.0
C505 C 0.26902 0.65821 0.57557 0.0
H506 H 0.20203 0.64906 0.59038 0.0
H507 H 0.43555 0.69959 0.3856 0.0
H508 H 0.38137 0.40621 0.5966 0.0
H509 H 0.34363 0.37531 0.60178 0.0
H510 H 0.37271 0.33046 0.49163 0.0
H511 H 0.40952 0.36256 0.48472 0.0
H512 H 0.32398 0.34182 0.47909 0.0
H513 H 0.36521 0.29625 0.6054 0.0
H514 H 0.3854 0.2947 0.67769 0.0
H515 H 0.32454 0.34817 0.72601 0.0
H516 H 0.30314 0.34882 0.65457 0.0
H517 H 0.23052 0.23551 0.48052 0.0
H518 H 0.27115 0.26304 0.48512 0.0
H519 H 0.23665 0.30936 0.58948 0.0
H520 H 0.19634 0.28111 0.58591 0.0
H521 H 0.287 0.29819 0.60697 0.0
H522 H 0.24039 0.33404 0.48708 0.0
H523 H 0.21669 0.33295 0.41761 0.0
H524 H 0.28714 0.30093 0.35645 0.0
H525 H 0.31116 0.30147 0.42569 0.0
C526 C 0.38 0.38939 0.57408 0.0
C527 C 0.3982 0.3868 0.54009 0.0
C528 C 0.35852 0.37151 0.57734 0.0
C529 C 0.35534 0.35025 0.54739 0.0
C530 C 0.37462 0.34673 0.51506 0.0
C531 C 0.39566 0.36502 0.51111 0.0
C532 C 0.33028 0.33401 0.54601 0.0
C533 C 0.31626 0.33181 0.50693 0.0
C534 C 0.31925 0.32208 0.58262 0.0
C535 C 0.33289 0.3229 0.62471 0.0
C536 C 0.35629 0.30781 0.63143 0.0
C537 C 0.36781 0.30693 0.67227 0.0
C538 C 0.35653 0.32165 0.70623 0.0
C539 C 0.33337 0.33691 0.69963 0.0
C540 C 0.32136 0.3373 0.65914 0.0
C541 C 0.23177 0.25144 0.50464 0.0
C542 C 0.21062 0.2559 0.53345 0.0
C543 C 0.25484 0.26731 0.50701 0.0
C544 C 0.25685 0.28843 0.53741 0.0
C545 C 0.23557 0.29311 0.56589 0.0
C546 C 0.21258 0.27703 0.56382 0.0
C547 C 0.28132 0.30535 0.53981 0.0
C548 C 0.29496 0.30796 0.57906 0.0
C549 C 0.29188 0.31787 0.50339 0.0
C550 C 0.27749 0.31757 0.46167 0.0
C551 C 0.25076 0.32657 0.45888 0.0
C552 C 0.23728 0.32608 0.41953 0.0
C553 C 0.25038 0.31681 0.38266 0.0
C554 C 0.27701 0.30807 0.38505 0.0
C555 C 0.29057 0.30849 0.42433 0.0
H556 H 0.2399 0.31646 0.35223 0.0
H557 H 0.36557 0.32103 0.73772 0.0
H558 H 0.59784 0.3823 0.43957 0.0
H559 H 0.62644 0.3424 0.43942 0.0
H560 H 0.6375 0.35137 0.57589 0.0
H561 H 0.60934 0.39155 0.57636 0.0
H562 H 0.68322 0.33452 0.53737 0.0
H563 H 0.58979 0.3096 0.53563 0.0
H564 H 0.5433 0.30952 0.50796 0.0
H565 H 0.57038 0.27578 0.3882 0.0
H566 H 0.61711 0.27602 0.41499 0.0
H567 H 0.7159 0.20055 0.59027 0.0
H568 H 0.69332 0.24418 0.58461 0.0
H569 H 0.68562 0.23159 0.4481 0.0
H570 H 0.708 0.18783 0.45386 0.0
H571 H 0.63939 0.2507 0.4835 0.0
H572 H 0.73303 0.2731 0.48803 0.0
H573 H 0.7791 0.27274 0.51737 0.0
H574 H 0.75135 0.3107 0.63359 0.0
H575 H 0.70502 0.31092 0.60519 0.0
C576 C 0.60669 0.37608 0.46948 0.0
C577 C 0.60097 0.38992 0.50807 0.0
C578 C 0.62296 0.35321 0.46933 0.0
C579 C 0.6336 0.34363 0.50777 0.0
C580 C 0.62935 0.35835 0.5459 0.0
C581 C 0.61318 0.3813 0.54609 0.0
C582 C 0.64753 0.31734 0.50878 0.0
C583 C 0.67359 0.31615 0.52592 0.0
C584 C 0.63507 0.29346 0.4932 0.0
C585 C 0.60697 0.2931 0.47715 0.0
C586 C 0.58585 0.30235 0.50329 0.0
C587 C 0.55946 0.30225 0.48778 0.0
C588 C 0.5539 0.29273 0.4463 0.0
C589 C 0.57472 0.2832 0.4203 0.0
C590 C 0.60116 0.2833 0.43563 0.0
C591 C 0.70905 0.20705 0.55922 0.0
C592 C 0.7131 0.19077 0.5226 0.0
C593 C 0.6964 0.23199 0.55593 0.0
C594 C 0.688 0.24118 0.51587 0.0
C595 C 0.6919 0.22481 0.47929 0.0
C596 C 0.70457 0.19988 0.48259 0.0
C597 C 0.67508 0.26784 0.51218 0.0
C598 C 0.64914 0.26909 0.49463 0.0
C599 C 0.68762 0.29171 0.52758 0.0
C600 C 0.7155 0.2918 0.54461 0.0
C601 C 0.73671 0.28119 0.51997 0.0
C602 C 0.76288 0.28103 0.53641 0.0
C603 C 0.76814 0.29163 0.57735 0.0
C604 C 0.74724 0.30247 0.6019 0.0
C605 C 0.72103 0.30263 0.58563 0.0
H606 H 0.78841 0.2915 0.59002 0.0
H607 H 0.53345 0.29267 0.43435 0.0
H608 H 0.05894 0.06738 0.11101 0.0
H609 H 0.08711 0.08677 0.16734 0.0
H610 H 0.01777 0.12493 0.22344 0.0
H611 H 0.98917 0.10517 0.16718 0.0
H612 H 0.06096 0.15856 0.22283 0.0
H613 H 0.03941 0.06926 0.261 0.0
H614 H 0.03629 0.01989 0.2563 0.0
H615 H 0.12231 0.01397 0.25561 0.0
H616 H 0.12598 0.06338 0.25819 0.0
H617 H 0.0937 0.17188 0.44432 0.0
H618 H 0.07463 0.15993 0.37405 0.0
H619 H 0.15347 0.13802 0.32859 0.0
H620 H 0.17276 0.15056 0.39891 0.0
H621 H 0.11049 0.09756 0.31888 0.0
H622 H 0.1296 0.18964 0.28775 0.0
H623 H 0.129 0.23863 0.30143 0.0
H624 H 0.04277 0.23823 0.29923 0.0
H625 H 0.04284 0.18915 0.28618 0.0
C626 C 0.04953 0.07969 0.1351 0.0
C627 C 0.02167 0.08412 0.13469 0.0
C628 C 0.06574 0.09093 0.16735 0.0
C629 C 0.05436 0.10705 0.19973 0.0
C630 C 0.02677 0.1125 0.19861 0.0
C631 C 0.01053 0.10107 0.16655 0.0
C632 C 0.07089 0.11738 0.23588 0.0
C633 C 0.07178 0.14523 0.24386 0.0
C634 C 0.08515 0.09989 0.26301 0.0
C635 C 0.08297 0.07014 0.25894 0.0
C636 C 0.05768 0.05751 0.25875 0.0
C637 C 0.0558 0.02947 0.25652 0.0
C638 C 0.07907 0.0138 0.25533 0.0
C639 C 0.10428 0.02613 0.25605 0.0
C640 C 0.10627 0.05416 0.25768 0.0
C641 C 0.10694 0.16482 0.41909 0.0
C642 C 0.1346 0.162 0.42671 0.0
C643 C 0.0961 0.15815 0.37908 0.0
C644 C 0.11272 0.14825 0.3463 0.0
C645 C 0.14044 0.14578 0.35359 0.0
C646 C 0.15139 0.15295 0.3935 0.0
C647 C 0.10055 0.13863 0.30567 0.0
C648 C 0.10026 0.11087 0.29709 0.0
C649 C 0.08635 0.15611 0.27862 0.0
C650 C 0.08624 0.18566 0.28629 0.0
C651 C 0.1105 0.19995 0.29054 0.0
C652 C 0.11026 0.22775 0.29811 0.0
C653 C 0.08586 0.24153 0.30128 0.0
C654 C 0.06165 0.22753 0.29679 0.0
C655 C 0.06179 0.19972 0.28924 0.0
H656 H 0.08571 0.26305 0.30713 0.0
H657 H 0.07754 0.9921 0.25421 0.0
H658 H 0.92632 0.06227 0.11765 0.0
H659 H 0.89979 0.08622 0.17147 0.0
H660 H 0.89353 0.01332 0.24303 0.0
H661 H 0.91855 0.98907 0.18795 0.0
H662 H 0.84634 0.03524 0.23637 0.0
H663 H 0.9365 0.07098 0.2712 0.0
H664 H 0.97803 0.09634 0.25729 0.0
H665 H 0.93133 0.16578 0.22535 0.0
H666 H 0.88959 0.14079 0.23888 0.0
H667 H 0.81382 0.07154 0.4466 0.0
H668 H 0.83252 0.05653 0.37841 0.0
H669 H 0.82812 0.13757 0.33231 0.0
H670 H 0.81057 0.15302 0.40155 0.0
H671 H 0.87512 0.11765 0.31595 0.0
H672 H 0.78668 0.08711 0.29077 0.0
H673 H 0.7435 0.06503 0.30544 0.0
H674 H 0.78353 0.98888 0.3148 0.0
H675 H 0.82703 0.01055 0.30079 0.0
C676 C 0.91926 0.05135 0.14457 0.0
C677 C 0.92411 0.02364 0.14767 0.0
C678 C 0.90429 0.06515 0.17577 0.0
C679 C 0.89458 0.0516 0.21143 0.0
C680 C 0.90052 0.02419 0.2156 0.0
C681 C 0.91499 0.01037 0.18407 0.0
C682 C 0.87732 0.06525 0.24382 0.0
C683 C 0.85277 0.05312 0.25407 0.0
C684 C 0.88483 0.08948 0.2652 0.0
C685 C 0.90998 0.10396 0.25565 0.0
C686 C 0.93513 0.09157 0.2608 0.0
C687 C 0.95869 0.10591 0.25313 0.0
C688 C 0.95728 0.13266 0.24042 0.0
C689 C 0.93237 0.14507 0.23518 0.0
C690 C 0.90878 0.13085 0.24289 0.0
C691 C 0.81681 0.0862 0.42198 0.0
C692 C 0.81094 0.11352 0.42965 0.0
C693 C 0.82715 0.07751 0.38272 0.0
C694 C 0.83143 0.09586 0.34999 0.0
C695 C 0.82486 0.12304 0.35706 0.0
C696 C 0.81466 0.1318 0.39652 0.0
C697 C 0.84488 0.08682 0.30998 0.0
C698 C 0.86852 0.09992 0.298 0.0
C699 C 0.8363 0.06372 0.28653 0.0
C700 C 0.81017 0.05052 0.29497 0.0
C701 C 0.78632 0.06569 0.29626 0.0
C702 C 0.76178 0.05323 0.30441 0.0
C703 C 0.76078 0.02558 0.31111 0.0
C704 C 0.78433 0.01031 0.3096 0.0
C705 C 0.80894 0.02266 0.30149 0.0
H706 H 0.74176 0.01597 0.31741 0.0
H707 H 0.97544 0.1439 0.23477 0.0
H708 H 0.01469 0.88825 0.16069 0.0
H709 H 0.99014 0.86701 0.21789 0.0
H710 H 0.91876 0.91092 0.18354 0.0
H711 H 0.94329 0.9324 0.12634 0.0
H712 H 0.96894 0.89236 0.28531 0.0
H713 H 0.8632 0.86887 0.20957 0.0
H714 H 0.84422 0.85401 0.14015 0.0
H715 H 0.92071 0.82145 0.10298 0.0
H716 H 0.93991 0.83515 0.17284 0.0
H717 H 0.87297 0.88292 0.44649 0.0
H718 H 0.89647 0.89422 0.38099 0.0
H719 H 0.89174 0.81138 0.33765 0.0
H720 H 0.86794 0.79999 0.40324 0.0
H721 H 0.88238 0.8434 0.27338 0.0
H722 H 0.9496 0.83686 0.38103 0.0
H723 H 0.97478 0.84498 0.44818 0.0
H724 H 0.98245 0.92854 0.41899 0.0
H725 H 0.95686 0.92106 0.35207 0.0
C726 C 0.99369 0.89328 0.16489 0.0
C727 C 0.98094 0.91216 0.13873 0.0
C728 C 0.97971 0.88107 0.19765 0.0
C729 C 0.95265 0.88733 0.20481 0.0
C730 C 0.93959 0.90558 0.17816 0.0
C731 C 0.95366 0.91792 0.14542 0.0
C732 C 0.9388 0.87638 0.24226 0.0
C733 C 0.94998 0.88169 0.28277 0.0
C734 C 0.91453 0.86176 0.23857 0.0
C735 C 0.90311 0.85346 0.19633 0.0
C736 C 0.87597 0.85846 0.18668 0.0
C737 C 0.86515 0.85016 0.14722 0.0
C738 C 0.88131 0.83695 0.11699 0.0
C739 C 0.90826 0.83182 0.12631 0.0
C740 C 0.91911 0.83983 0.16588 0.0
C741 C 0.87689 0.86714 0.42292 0.0
C742 C 0.86887 0.84054 0.43002 0.0
C743 C 0.89037 0.87359 0.38562 0.0
C744 C 0.89634 0.85353 0.3549 0.0
C745 C 0.88743 0.82713 0.36109 0.0
C746 C 0.87377 0.82067 0.39841 0.0
C747 C 0.91209 0.86024 0.31659 0.0
C748 C 0.90129 0.85414 0.27593 0.0
C749 C 0.93717 0.87352 0.32001 0.0
C750 C 0.95108 0.87842 0.36163 0.0
C751 C 0.95628 0.85705 0.38922 0.0
C752 C 0.97073 0.86153 0.42719 0.0
C753 C 0.98026 0.88726 0.43778 0.0
C754 C 0.97508 0.90862 0.41071 0.0
C755 C 0.96058 0.90428 0.37279 0.0
H756 H 0.99176 0.89066 0.46686 0.0
H757 H 0.87301 0.8306 0.08638 0.0
H758 H 0.11363 0.00648 0.13634 0.0
H759 H 0.13737 0.98363 0.19367 0.0
H760 H 0.07275 0.92597 0.20034 0.0
H761 H 0.04806 0.951 0.14686 0.0
H762 H 0.08537 0.93772 0.27432 0.0
H763 H 0.13959 0.91316 0.1528 0.0
H764 H 0.1656 0.92338 0.08823 0.0
H765 H 0.22116 0.9702 0.16422 0.0
H766 H 0.1953 0.96064 0.22921 0.0
H767 H 0.15721 0.83671 0.38634 0.0
H768 H 0.13961 0.86035 0.32387 0.0
H769 H 0.18092 0.93251 0.3657 0.0
H770 H 0.19782 0.90916 0.42892 0.0
H771 H 0.18228 0.91493 0.26922 0.0
H772 H 0.12546 0.93612 0.39045 0.0
H773 H 0.09728 0.92526 0.45225 0.0
H774 H 0.04439 0.87919 0.37022 0.0
H775 H 0.07269 0.88922 0.30804 0.0
C776 C 0.10468 0.98879 0.14993 0.0
C777 C 0.07953 0.97943 0.13558 0.0
C778 C 0.11839 0.97552 0.18238 0.0
C779 C 0.10735 0.95244 0.20062 0.0
C780 C 0.08205 0.94339 0.18644 0.0
C781 C 0.06817 0.95709 0.15483 0.0
C782 C 0.12129 0.9385 0.236 0.0
C783 C 0.10642 0.9322 0.2725 0.0
C784 C 0.14897 0.93185 0.23447 0.0
C785 C 0.16537 0.9364 0.19582 0.0
C786 C 0.1573 0.92572 0.15572 0.0
C787 C 0.17195 0.93146 0.11903 0.0
C788 C 0.19488 0.94756 0.12209 0.0
C789 C 0.20332 0.95782 0.16189 0.0
C790 C 0.18872 0.9522 0.19869 0.0
C791 C 0.16284 0.85747 0.38166 0.0
C792 C 0.17878 0.87124 0.41209 0.0
C793 C 0.15279 0.87092 0.34622 0.0
C794 C 0.15898 0.89811 0.34048 0.0
C795 C 0.17605 0.91149 0.36969 0.0
C796 C 0.1856 0.89823 0.40564 0.0
C797 C 0.14596 0.91302 0.30575 0.0
C798 C 0.16109 0.91984 0.26995 0.0
C799 C 0.11833 0.91936 0.3072 0.0
C800 C 0.10147 0.91307 0.34469 0.0
C801 C 0.10808 0.92332 0.38568 0.0
C802 C 0.09203 0.91738 0.42077 0.0
C803 C 0.06912 0.90144 0.4152 0.0
C804 C 0.0622 0.89144 0.37451 0.0
C805 C 0.07826 0.89722 0.33935 0.0
H806 H 0.05666 0.89694 0.44238 0.0
H807 H 0.20622 0.95192 0.09365 0.0
H808 H 0.09925 0.94091 0.90353 0.0
H809 H 0.11286 0.91286 0.84256 0.0
H810 H 0.08677 0.9746 0.75669 0.0
H811 H 0.07106 0.00167 0.81754 0.0
H812 H 0.07625 0.92976 0.72114 0.0
H813 H 0.1564 0.96431 0.79158 0.0
H814 H 0.18648 0.97198 0.85363 0.0
H815 H 0.19517 0.88671 0.86764 0.0
H816 H 0.16489 0.87861 0.80589 0.0
H817 H 0.17146 0.90919 0.55229 0.0
H818 H 0.14948 0.92656 0.61661 0.0
H819 H 0.14584 0.84661 0.66639 0.0
H820 H 0.16616 0.82851 0.60076 0.0
H821 H 0.16966 0.89487 0.72153 0.0
H822 H 0.0926 0.86198 0.64285 0.0
H823 H 0.06299 0.85671 0.57979 0.0
H824 H 0.04982 0.942 0.5793 0.0
H825 H 0.07984 0.94786 0.64186 0.0
C826 C 0.09622 0.94842 0.87164 0.0
C827 C 0.08441 0.9737 0.86536 0.0
C828 C 0.10419 0.93242 0.83674 0.0
C829 C 0.10166 0.94188 0.7949 0.0
C830 C 0.0891 0.9668 0.78856 0.0
C831 C 0.08028 0.98239 0.82342 0.0
C832 C 0.11287 0.92639 0.75785 0.0
C833 C 0.09675 0.92236 0.72122 0.0
C834 C 0.13945 0.91607 0.75805 0.0
C835 C 0.15821 0.92089 0.79443 0.0
C836 C 0.16467 0.94724 0.80801 0.0
C837 C 0.18175 0.95165 0.8431 0.0
C838 C 0.19268 0.92984 0.86463 0.0
C839 C 0.18667 0.90358 0.85096 0.0
C840 C 0.16958 0.89907 0.81588 0.0
C841 C 0.16558 0.89508 0.57636 0.0
C842 C 0.17044 0.86731 0.57083 0.0
C843 C 0.15318 0.90515 0.61327 0.0
C844 C 0.14587 0.8878 0.64585 0.0
C845 C 0.1513 0.86024 0.64135 0.0
C846 C 0.16318 0.85002 0.60395 0.0
C847 C 0.1332 0.89885 0.68501 0.0
C848 C 0.14909 0.90208 0.72185 0.0
C849 C 0.10661 0.9088 0.68472 0.0
C850 C 0.08879 0.90539 0.64675 0.0
C851 C 0.08371 0.87966 0.62896 0.0
C852 C 0.06676 0.87656 0.59337 0.0
C853 C 0.05457 0.89901 0.57548 0.0
C854 C 0.05931 0.92463 0.59315 0.0
C855 C 0.0763 0.92785 0.62867 0.0
H856 H 0.04141 0.89655 0.548 0.0
H857 H 0.20585 0.93329 0.89186 0.0
H858 H 0.01815 0.01851 0.82967 0.0
H859 H 0.04621 0.03289 0.77009 0.0
H860 H 0.02288 0.11528 0.79506 0.0
H861 H 0.99438 0.10115 0.85323 0.0
H862 H 0.02104 0.10434 0.71297 0.0
H863 H 0.08231 0.08753 0.82903 0.0
H864 H 0.10625 0.06119 0.88315 0.0
H865 H 0.13934 0.0102 0.78434 0.0
H866 H 0.11465 0.03536 0.72969 0.0
H867 H 0.1213 0.18233 0.61777 0.0
H868 H 0.09649 0.15949 0.67388 0.0
H869 H 0.11328 0.08279 0.61276 0.0
H870 H 0.13784 0.1056 0.55617 0.0
H871 H 0.11897 0.08612 0.70791 0.0
H872 H 0.05721 0.10353 0.59265 0.0
H873 H 0.03514 0.13183 0.53906 0.0
H874 H 0.0052 0.18404 0.63906 0.0
H875 H 0.02751 0.15629 0.69324 0.0
C876 C 0.01896 0.03967 0.82226 0.0
C877 C 0.00411 0.05873 0.84616 0.0
C878 C 0.0351 0.04784 0.78845 0.0
C879 C 0.0369 0.07518 0.77859 0.0
C880 C 0.02179 0.09408 0.80211 0.0
C881 C 0.00551 0.08595 0.83542 0.0
C882 C 0.05427 0.08454 0.74369 0.0
C883 C 0.04247 0.10043 0.71213 0.0
C884 C 0.08217 0.07889 0.74198 0.0
C885 C 0.09626 0.06315 0.77518 0.0
C886 C 0.0943 0.07041 0.81881 0.0
C887 C 0.10807 0.05572 0.84963 0.0
C888 C 0.12434 0.03407 0.83721 0.0
C889 C 0.12675 0.02696 0.79395 0.0
C890 C 0.11271 0.04132 0.76305 0.0
C891 C 0.12006 0.16059 0.61677 0.0
C892 C 0.13132 0.14566 0.58276 0.0
C893 C 0.10587 0.14761 0.64863 0.0
C894 C 0.10304 0.11954 0.64713 0.0
C895 C 0.11533 0.10447 0.61432 0.0
C896 C 0.12918 0.11748 0.58206 0.0
C897 C 0.0857 0.10624 0.67833 0.0
C898 C 0.09747 0.08964 0.70884 0.0
C899 C 0.05782 0.11133 0.67947 0.0
C900 C 0.04426 0.12798 0.64697 0.0
C901 C 0.04614 0.12119 0.60319 0.0
C902 C 0.03354 0.1371 0.57271 0.0
C903 C 0.01883 0.15976 0.58564 0.0
C904 C 0.01663 0.16651 0.62909 0.0
C905 C 0.02924 0.15069 0.65969 0.0
H906 H 0.00908 0.17205 0.56199 0.0
H907 H 0.13501 0.02274 0.86111 0.0
H908 H 0.91712 0.05045 0.90662 0.0
H909 H 0.89944 0.07381 0.84503 0.0
H910 H 0.90442 0.00032 0.76937 0.0
H911 H 0.92421 0.97753 0.83047 0.0
H912 H 0.91707 0.04051 0.72228 0.0
H913 H 0.84409 0.02386 0.81991 0.0
H914 H 0.82217 0.02633 0.89044 0.0
H915 H 0.82444 0.11258 0.88852 0.0
H916 H 0.84667 0.11062 0.81821 0.0
H917 H 0.8202 0.0687 0.56361 0.0
H918 H 0.84359 0.0501 0.62508 0.0
H919 H 0.84547 0.12863 0.68625 0.0
H920 H 0.82249 0.1476 0.62439 0.0
H921 H 0.83041 0.08859 0.74111 0.0
H922 H 0.90101 0.10516 0.64187 0.0
H923 H 0.92405 0.10287 0.57232 0.0
H924 H 0.92643 0.01672 0.5776 0.0
H925 H 0.90305 0.01847 0.64694 0.0
C926 C 0.9149 0.03939 0.87676 0.0
C927 C 0.92191 0.01209 0.87346 0.0
C928 C 0.9045 0.0527 0.84159 0.0
C929 C 0.89982 0.03866 0.80286 0.0
C930 C 0.90765 0.01157 0.79901 0.0
C931 C 0.91881 0.9985 0.83395 0.0
C932 C 0.88603 0.05192 0.76684 0.0
C933 C 0.89796 0.05071 0.7263 0.0
C934 C 0.86142 0.06591 0.77233 0.0
C935 C 0.84721 0.06709 0.81394 0.0
C936 C 0.83996 0.04335 0.83458 0.0
C937 C 0.82751 0.04466 0.87454 0.0
C938 C 0.822 0.0696 0.89402 0.0
C939 C 0.82877 0.09328 0.87345 0.0
C940 C 0.84125 0.09209 0.83351 0.0
C941 C 0.82579 0.0821 0.58995 0.0
C942 C 0.81968 0.10969 0.58894 0.0
C943 C 0.83908 0.07141 0.62508 0.0
C944 C 0.84654 0.08807 0.6599 0.0
C945 C 0.8399 0.11548 0.6596 0.0
C946 C 0.82667 0.12624 0.62433 0.0
C947 C 0.86127 0.07675 0.69657 0.0
C948 C 0.84953 0.07838 0.73718 0.0
C949 C 0.88598 0.06307 0.69114 0.0
C950 C 0.90004 0.06194 0.64942 0.0
C951 C 0.90624 0.08571 0.62803 0.0
C952 C 0.9194 0.08451 0.58867 0.0
C953 C 0.92664 0.05966 0.57049 0.0
C954 C 0.92078 0.03595 0.59169 0.0
C955 C 0.9076 0.03704 0.63104 0.0
H956 H 0.93683 0.05878 0.54003 0.0
H957 H 0.81244 0.07059 0.92502 0.0
H958 H 0.98324 0.97491 0.84281 0.0
H959 H 0.95593 0.9585 0.78223 0.0
H960 H 0.00112 0.88457 0.77865 0.0
H961 H 0.02903 0.90098 0.83808 0.0
H962 H 0.98879 0.90145 0.69924 0.0
H963 H 0.94421 0.88932 0.83236 0.0
H964 H 0.92402 0.90223 0.90124 0.0
H965 H 0.8661 0.95128 0.83703 0.0
H966 H 0.88657 0.93929 0.76755 0.0
H967 H 0.89885 0.81272 0.5932 0.0
H968 H 0.92684 0.83358 0.64969 0.0
H969 H 0.87776 0.90509 0.64629 0.0
H970 H 0.84968 0.88403 0.59006 0.0
H971 H 0.89134 0.89194 0.7277 0.0
H972 H 0.93573 0.90173 0.59336 0.0
H973 H 0.95554 0.88621 0.52523 0.0
H974 H 0.01339 0.83915 0.59326 0.0
H975 H 0.9935 0.85388 0.66187 0.0
C976 C 0.98758 0.95529 0.8288 0.0
C977 C 0.00793 0.93898 0.84579 0.0
C978 C 0.97184 0.94592 0.79446 0.0
C979 C 0.97599 0.92005 0.777 0.0
C980 C 0.99742 0.9045 0.79202 0.0
C981 C 0.01329 0.91389 0.82608 0.0
C982 C 0.95716 0.90847 0.74476 0.0
C983 C 0.96751 0.89919 0.70554 0.0
C984 C 0.9293 0.906 0.75286 0.0
C985 C 0.91725 0.91373 0.79472 0.0
C986 C 0.92743 0.90318 0.83289 0.0
C987 C 0.91582 0.91026 0.8721 0.0
C988 C 0.89368 0.92751 0.87363 0.0
C989 C 0.88315 0.93778 0.83584 0.0
C990 C 0.89484 0.93095 0.79651 0.0
C991 C 0.89377 0.83261 0.60543 0.0
C992 C 0.87211 0.84679 0.58808 0.0
C993 C 0.90984 0.8446 0.63723 0.0
C994 C 0.90459 0.87103 0.65162 0.0
C995 C 0.88216 0.88471 0.63553 0.0
C996 C 0.86611 0.87271 0.60371 0.0
C997 C 0.92301 0.88474 0.68236 0.0
C998 C 0.91257 0.89445 0.72126 0.0
C999 C 0.9508 0.88746 0.6741 0.0
C1000 C 0.96289 0.87868 0.63279 0.0
C1001 C 0.95251 0.88787 0.59382 0.0
C1002 C 0.96381 0.87924 0.55508 0.0
C1003 C 0.98574 0.86169 0.55489 0.0
C1004 C 0.99641 0.85273 0.59345 0.0
C1005 C 0.98511 0.8612 0.63227 0.0
H1006 H 0.99451 0.85503 0.52491 0.0
H1007 H 0.8847 0.93291 0.90407 0.0
H1008 H 0.50352 0.61888 0.62699 0.0
H1009 H 0.52206 0.64404 0.68867 0.0
H1010 H 0.56728 0.57409 0.725 0.0
H1011 H 0.5487 0.54891 0.66334 0.0
H1012 H 0.53181 0.59853 0.79009 0.0
H1013 H 0.60701 0.62432 0.69649 0.0
H1014 H 0.62522 0.64269 0.63032 0.0
H1015 H 0.57664 0.71347 0.64677 0.0
H1016 H 0.55884 0.69581 0.71421 0.0
H1017 H 0.61654 0.64279 0.95674 0.0
H1018 H 0.59533 0.62384 0.89237 0.0
H1019 H 0.57342 0.70361 0.85302 0.0
H1020 H 0.59539 0.72272 0.91715 0.0
H1021 H 0.59251 0.67754 0.78836 0.0
H1022 H 0.52657 0.65802 0.89054 0.0
H1023 H 0.50672 0.64171 0.95712 0.0
H1024 H 0.53049 0.56101 0.92374 0.0
H1025 H 0.55102 0.57688 0.85734 0.0
C1026 C 0.5179 0.60913 0.64766 0.0
C1027 C 0.52519 0.58216 0.64015 0.0
C1028 C 0.52845 0.62348 0.68274 0.0
C1029 C 0.54606 0.61089 0.71114 0.0
C1030 C 0.55385 0.58414 0.70314 0.0
C1031 C 0.54358 0.56991 0.66768 0.0
C1032 C 0.55471 0.62498 0.7509 0.0
C1033 C 0.54537 0.61559 0.79001 0.0
C1034 C 0.57107 0.64807 0.75031 0.0
C1035 C 0.58147 0.65867 0.70993 0.0
C1036 C 0.60016 0.64374 0.68583 0.0
C1037 C 0.61043 0.65406 0.64813 0.0
C1038 C 0.60181 0.67907 0.63384 0.0
C1039 C 0.58321 0.69404 0.65773 0.0
C1040 C 0.57318 0.68399 0.69587 0.0
C1041 C 0.60691 0.65624 0.93459 0.0
C1042 C 0.60747 0.68419 0.94192 0.0
C1043 C 0.5947 0.64541 0.89789 0.0
C1044 C 0.58234 0.66226 0.86816 0.0
C1045 C 0.58276 0.69022 0.87555 0.0
C1046 C 0.5953 0.70111 0.91209 0.0
C1047 C 0.57039 0.65062 0.82834 0.0
C1048 C 0.57883 0.66059 0.78897 0.0
C1049 C 0.55261 0.62839 0.82882 0.0
C1050 C 0.54057 0.61872 0.86905 0.0
C1051 C 0.52786 0.63683 0.89759 0.0
C1052 C 0.51645 0.62765 0.9353 0.0
C1053 C 0.51738 0.60035 0.94469 0.0
C1054 C 0.52978 0.58216 0.91642 0.0
C1055 C 0.54132 0.59124 0.87874 0.0
H1056 H 0.50845 0.59328 0.97383 0.0
H1057 H 0.60961 0.68691 0.60441 0.0
H1058 H 0.41664 0.49107 0.68655 0.0
H1059 H 0.39808 0.52021 0.74236 0.0
H1060 H 0.41692 0.58994 0.66876 0.0
H1061 H 0.4352 0.56072 0.6121 0.0
H1062 H 0.43168 0.59396 0.75779 0.0
H1063 H 0.35502 0.57408 0.67093 0.0
H1064 H 0.32428 0.54502 0.62863 0.0
H1065 H 0.30555 0.50061 0.74079 0.0
H1066 H 0.33649 0.52917 0.78367 0.0
H1067 H 0.35555 0.66894 0.91586 0.0
H1068 H 0.37241 0.65203 0.84681 0.0
H1069 H 0.35489 0.57083 0.88355 0.0
H1070 H 0.3374 0.58756 0.95179 0.0
H1071 H 0.33749 0.58043 0.80368 0.0
H1072 H 0.41863 0.59603 0.88759 0.0
H1073 H 0.45064 0.6237 0.92993 0.0
H1074 H 0.46171 0.67534 0.82328 0.0
H1075 H 0.42949 0.64818 0.78047 0.0
C1076 C 0.41682 0.51259 0.68193 0.0
C1077 C 0.42755 0.52357 0.64467 0.0
C1078 C 0.40619 0.5292 0.71395 0.0
C1079 C 0.40598 0.55715 0.70943 0.0
C1080 C 0.41697 0.56836 0.67272 0.0
C1081 C 0.4275 0.55164 0.6404 0.0
C1082 C 0.39409 0.57425 0.7435 0.0
C1083 C 0.41091 0.59157 0.76735 0.0
C1084 C 0.36712 0.57075 0.75601 0.0
C1085 C 0.34819 0.55371 0.73048 0.0
C1086 C 0.34447 0.55802 0.68654 0.0
C1087 C 0.32699 0.54165 0.66246 0.0
C1088 C 0.31299 0.52096 0.682 0.0
C1089 C 0.3164 0.51665 0.7257 0.0
C1090 C 0.33387 0.53296 0.74993 0.0
C1091 C 0.35514 0.64751 0.909 0.0
C1092 C 0.34525 0.62954 0.93925 0.0
C1093 C 0.36496 0.63788 0.86976 0.0
C1094 C 0.36504 0.61018 0.86027 0.0
C1095 C 0.35501 0.59229 0.8903 0.0
C1096 C 0.34524 0.60185 0.92941 0.0
C1097 C 0.3753 0.59947 0.81901 0.0
C1098 C 0.3581 0.58335 0.79371 0.0
C1099 C 0.40193 0.60407 0.80531 0.0
C1100 C 0.42131 0.62034 0.83108 0.0
C1101 C 0.42768 0.61345 0.87332 0.0
C1102 C 0.4459 0.629 0.89737 0.0
C1103 C 0.45802 0.65139 0.8794 0.0
C1104 C 0.45218 0.65809 0.83722 0.0
C1105 C 0.43394 0.64263 0.81305 0.0
H1106 H 0.47199 0.66351 0.89813 0.0
H1107 H 0.29948 0.50829 0.6633 0.0
H1108 H 0.51051 0.3823 0.64903 0.0
H1109 H 0.48683 0.36093 0.70792 0.0
H1110 H 0.43504 0.43022 0.7203 0.0
H1111 H 0.45921 0.45169 0.66248 0.0
H1112 H 0.45737 0.4136 0.79737 0.0
H1113 H 0.41235 0.37254 0.67208 0.0
H1114 H 0.41509 0.34704 0.60362 0.0
H1115 H 0.45153 0.28075 0.66749 0.0
H1116 H 0.44941 0.30592 0.73628 0.0
H1117 H 0.35619 0.37501 0.93462 0.0
H1118 H 0.38124 0.38965 0.87225 0.0
H1119 H 0.41509 0.31006 0.85702 0.0
H1120 H 0.38869 0.29511 0.91831 0.0
H1121 H 0.4064 0.32821 0.78219 0.0
H1122 H 0.451 0.36339 0.90436 0.0
H1123 H 0.45692 0.38672 0.97414 0.0
H1124 H 0.4306 0.46078 0.91964 0.0
H1125 H 0.42411 0.43779 0.84964 0.0
C1126 C 0.49384 0.39275 0.66409 0.0
C1127 C 0.48592 0.41827 0.65035 0.0
C1128 C 0.48031 0.38052 0.69751 0.0
C1129 C 0.45891 0.39384 0.71792 0.0
C1130 C 0.45127 0.41947 0.70453 0.0
C1131 C 0.46467 0.43155 0.67099 0.0
C1132 C 0.44495 0.38163 0.75427 0.0
C1133 C 0.44586 0.39515 0.79401 0.0
C1134 C 0.43123 0.35683 0.75019 0.0
C1135 C 0.43088 0.34116 0.70928 0.0
C1136 C 0.421 0.35255 0.67151 0.0
C1137 C 0.42251 0.33821 0.63264 0.0
C1138 C 0.43357 0.3124 0.63117 0.0
C1139 C 0.44303 0.30078 0.66864 0.0
C1140 C 0.44162 0.31504 0.70761 0.0
C1141 C 0.36885 0.36069 0.91762 0.0
C1142 C 0.3708 0.33409 0.93107 0.0
C1143 C 0.38329 0.36904 0.88223 0.0
C1144 C 0.40064 0.35115 0.86051 0.0
C1145 C 0.40197 0.32427 0.87333 0.0
C1146 C 0.38702 0.31576 0.90829 0.0
C1147 C 0.41768 0.36088 0.82517 0.0
C1148 C 0.41767 0.34677 0.7857 0.0
C1149 C 0.43298 0.38481 0.82976 0.0
C1150 C 0.43684 0.39879 0.87182 0.0
C1151 C 0.44627 0.3846 0.90732 0.0
C1152 C 0.44976 0.39777 0.94691 0.0
C1153 C 0.44408 0.4252 0.95134 0.0
C1154 C 0.43496 0.43952 0.91616 0.0
C1155 C 0.43139 0.42644 0.87651 0.0
H1156 H 0.4468 0.43536 0.98201 0.0
H1157 H 0.43466 0.30134 0.60103 0.0
H1158 H 0.57611 0.43864 0.62374 0.0
H1159 H 0.59888 0.41118 0.67643 0.0
H1160 H 0.63195 0.48276 0.73641 0.0
H1161 H 0.60875 0.51042 0.68433 0.0
H1162 H 0.66971 0.44028 0.72319 0.0
H1163 H 0.58066 0.45597 0.78108 0.0
H1164 H 0.53116 0.45473 0.77853 0.0
H1165 H 0.53315 0.36897 0.76009 0.0
H1166 H 0.58276 0.36975 0.76199 0.0
H1167 H 0.70337 0.41612 0.93617 0.0
H1168 H 0.68682 0.43024 0.86666 0.0
H1169 H 0.65352 0.35122 0.84273 0.0
H1170 H 0.66954 0.33715 0.91313 0.0
H1171 H 0.61703 0.38936 0.82848 0.0
H1172 H 0.70627 0.37291 0.78362 0.0
H1173 H 0.75573 0.37424 0.78649 0.0
H1174 H 0.75404 0.4603 0.77893 0.0
H1175 H 0.70453 0.45955 0.77664 0.0
C1176 C 0.5879 0.44861 0.64823 0.0
C1177 C 0.59017 0.47677 0.64999 0.0
C1178 C 0.60109 0.43284 0.67822 0.0
C1179 C 0.61701 0.445 0.71028 0.0
C1180 C 0.6198 0.47304 0.71174 0.0
C1181 C 0.6064 0.48879 0.68205 0.0
C1182 C 0.6302 0.42871 0.74327 0.0
C1183 C 0.65829 0.42918 0.74637 0.0
C1184 C 0.61518 0.41349 0.77232 0.0
C1185 C 0.5854 0.41295 0.77122 0.0
C1186 C 0.57055 0.43687 0.7761 0.0
C1187 C 0.54249 0.43625 0.77486 0.0
C1188 C 0.52904 0.4118 0.76911 0.0
C1189 C 0.54362 0.3879 0.76453 0.0
C1190 C 0.57171 0.38841 0.76572 0.0
C1191 C 0.69278 0.40166 0.9159 0.0
C1192 C 0.68758 0.3756 0.93012 0.0
C1193 C 0.68354 0.40966 0.876 0.0
C1194 C 0.6691 0.39171 0.84933 0.0
C1195 C 0.66471 0.36534 0.86277 0.0
C1196 C 0.67401 0.35729 0.90279 0.0
C1197 C 0.6567 0.4015 0.80939 0.0
C1198 C 0.62865 0.39987 0.80485 0.0
C1199 C 0.6718 0.41554 0.77887 0.0
C1200 C 0.70163 0.41616 0.78019 0.0
C1201 C 0.71642 0.39214 0.78288 0.0
C1202 C 0.74448 0.39279 0.78435 0.0
C1203 C 0.75802 0.41734 0.78296 0.0
C1204 C 0.74352 0.4413 0.78001 0.0
C1205 C 0.71545 0.44076 0.77855 0.0
H1206 H 0.77974 0.4178 0.7841 0.0
H1207 H 0.50733 0.41138 0.76843 0.0
H1208 H 0.64239 0.50953 0.40073 0.0
H1209 H 0.66032 0.48738 0.33662 0.0
H1210 H 0.58446 0.49852 0.27189 0.0
H1211 H 0.56607 0.51987 0.33643 0.0
H1212 H 0.60221 0.44859 0.26114 0.0
H1213 H 0.63954 0.5364 0.25646 0.0
H1214 H 0.66503 0.57583 0.28277 0.0
H1215 H 0.73769 0.52941 0.2818 0.0
H1216 H 0.71251 0.48926 0.25743 0.0
H1217 H 0.64514 0.40745 0.05663 0.0
H1218 H 0.62972 0.43666 0.11513 0.0
H1219 H 0.70326 0.42209 0.18443 0.0
H1220 H 0.71932 0.39339 0.12514 0.0
H1221 H 0.68676 0.47552 0.19068 0.0
H1222 H 0.64891 0.38738 0.20824 0.0
H1223 H 0.62398 0.34671 0.18521 0.0
H1224 H 0.55349 0.39432 0.16303 0.0
H1225 H 0.57814 0.43535 0.18535 0.0
C1226 C 0.62955 0.50743 0.37278 0.0
C1227 C 0.60282 0.51651 0.37358 0.0
C1228 C 0.63987 0.49483 0.33613 0.0
C1229 C 0.62381 0.49156 0.29938 0.0
C1230 C 0.5972 0.50088 0.29993 0.0
C1231 C 0.58676 0.51321 0.33674 0.0
C1232 C 0.63442 0.47748 0.26088 0.0
C1233 C 0.62047 0.45478 0.24536 0.0
C1234 C 0.65868 0.48524 0.24107 0.0
C1235 C 0.67397 0.50959 0.25535 0.0
C1236 C 0.66088 0.53439 0.26238 0.0
C1237 C 0.67529 0.55692 0.277 0.0
C1238 C 0.70296 0.55515 0.28383 0.0
C1239 C 0.71625 0.53077 0.2764 0.0
C1240 C 0.70188 0.50808 0.26233 0.0
C1241 C 0.65828 0.41081 0.08394 0.0
C1242 C 0.68345 0.39806 0.0863 0.0
C1243 C 0.64935 0.42738 0.11746 0.0
C1244 C 0.66525 0.43131 0.15422 0.0
C1245 C 0.6907 0.41926 0.15629 0.0
C1246 C 0.69971 0.40267 0.12265 0.0
C1247 C 0.65457 0.44671 0.1914 0.0
C1248 C 0.66846 0.46957 0.20656 0.0
C1249 C 0.63035 0.43914 0.21122 0.0
C1250 C 0.61545 0.41447 0.19804 0.0
C1251 C 0.62815 0.38921 0.19813 0.0
C1252 C 0.61407 0.36609 0.18525 0.0
C1253 C 0.58719 0.36794 0.17255 0.0
C1254 C 0.57432 0.39292 0.17281 0.0
C1255 C 0.58833 0.41611 0.18559 0.0
H1256 H 0.57631 0.35002 0.16261 0.0
H1257 H 0.7141 0.57267 0.29488 0.0
H1258 H 0.54894 0.62125 0.42754 0.0
H1259 H 0.57882 0.63932 0.37353 0.0
H1260 H 0.55852 0.57329 0.28768 0.0
H1261 H 0.52869 0.55503 0.34164 0.0
H1262 H 0.61152 0.58918 0.27899 0.0
H1263 H 0.52284 0.62885 0.28172 0.0
H1264 H 0.48457 0.65135 0.31719 0.0
H1265 H 0.53503 0.71833 0.35245 0.0
H1266 H 0.57373 0.696 0.31764 0.0
H1267 H 0.62078 0.64065 0.07272 0.0
H1268 H 0.60913 0.62102 0.14037 0.0
H1269 H 0.62304 0.69728 0.20518 0.0
H1270 H 0.63221 0.71785 0.13669 0.0
H1271 H 0.57878 0.67793 0.23102 0.0
H1272 H 0.66754 0.63832 0.22146 0.0
H1273 H 0.70439 0.61453 0.18406 0.0
H1274 H 0.65241 0.54726 0.15778 0.0
H1275 H 0.61533 0.57059 0.1953 0.0
C1276 C 0.55116 0.61035 0.39744 0.0
C1277 C 0.53602 0.58706 0.3884 0.0
C1278 C 0.56829 0.62065 0.36668 0.0
C1279 C 0.57044 0.60787 0.32638 0.0
C1280 C 0.55693 0.58355 0.31848 0.0
C1281 C 0.5397 0.57331 0.34915 0.0
C1282 C 0.58358 0.62158 0.29065 0.0
C1283 C 0.60447 0.60861 0.26846 0.0
C1284 C 0.5745 0.647 0.27724 0.0
C1285 C 0.5512 0.66069 0.29744 0.0
C1286 C 0.52579 0.64832 0.29722 0.0
C1287 C 0.50403 0.66104 0.31719 0.0
C1288 C 0.50738 0.68624 0.33714 0.0
C1289 C 0.53248 0.6988 0.33703 0.0
C1290 C 0.55433 0.68614 0.31717 0.0
C1291 C 0.62115 0.65343 0.10119 0.0
C1292 C 0.62711 0.68101 0.09892 0.0
C1293 C 0.61509 0.64194 0.1402 0.0
C1294 C 0.61578 0.65747 0.17821 0.0
C1295 C 0.62257 0.68481 0.17634 0.0
C1296 C 0.62805 0.69651 0.13711 0.0
C1297 C 0.60696 0.64571 0.21905 0.0
C1298 C 0.58655 0.65891 0.24208 0.0
C1299 C 0.61641 0.62047 0.23297 0.0
C1300 C 0.63873 0.60619 0.21111 0.0
C1301 C 0.66401 0.61846 0.20766 0.0
C1302 C 0.68493 0.60505 0.1865 0.0
C1303 C 0.68073 0.57942 0.16848 0.0
C1304 C 0.65561 0.56714 0.17164 0.0
C1305 C 0.6347 0.58037 0.19309 0.0
H1306 H 0.69695 0.56907 0.15215 0.0
H1307 H 0.49051 0.69605 0.35262 0.0
H1308 H 0.43321 0.48137 0.33782 0.0
H1309 H 0.41909 0.50914 0.27829 0.0
H1310 H 0.37539 0.56112 0.36563 0.0
H1311 H 0.38932 0.5334 0.42526 0.0
H1312 H 0.34475 0.54793 0.30021 0.0
H1313 H 0.43327 0.5835 0.31683 0.0
H1314 H 0.48264 0.58423 0.32319 0.0
H1315 H 0.4894 0.54413 0.20071 0.0
H1316 H 0.44004 0.54319 0.1936 0.0
H1317 H 0.33968 0.65559 0.13895 0.0
H1318 H 0.35336 0.63165 0.20302 0.0
H1319 H 0.35312 0.55676 0.1312 0.0
H1320 H 0.33788 0.58006 0.06753 0.0
H1321 H 0.40541 0.58414 0.19016 0.0
H1322 H 0.31338 0.5457 0.18174 0.0
H1323 H 0.26423 0.55121 0.17666 0.0
H1324 H 0.26537 0.60301 0.28835 0.0
H1325 H 0.31463 0.59807 0.29364 0.0
C1326 C 0.42076 0.49882 0.34438 0.0
C1327 C 0.41215 0.50504 0.38615 0.0
C1328 C 0.41291 0.51483 0.31038 0.0
C1329 C 0.39627 0.53728 0.31755 0.0
C1330 C 0.38812 0.54381 0.35936 0.0
C1331 C 0.3961 0.52793 0.39339 0.0
C1332 C 0.38602 0.55291 0.28113 0.0
C1333 C 0.35812 0.55608 0.27649 0.0
C1334 C 0.40334 0.56347 0.24996 0.0
C1335 C 0.43297 0.56305 0.25487 0.0
C1336 C 0.44528 0.57457 0.29147 0.0
C1337 C 0.47327 0.57511 0.29514 0.0
C1338 C 0.48914 0.56414 0.26241 0.0
C1339 C 0.47707 0.5526 0.22601 0.0
C1340 C 0.4491 0.55212 0.2221 0.0
C1341 C 0.34187 0.63395 0.13688 0.0
C1342 C 0.33774 0.61981 0.09788 0.0
C1343 C 0.34987 0.62038 0.17347 0.0
C1344 C 0.3541 0.59255 0.17157 0.0
C1345 C 0.34983 0.57829 0.13307 0.0
C1346 C 0.34139 0.59172 0.09667 0.0
C1347 C 0.36442 0.57856 0.20926 0.0
C1348 C 0.39226 0.57588 0.21409 0.0
C1349 C 0.34714 0.56884 0.24092 0.0
C1350 C 0.31765 0.57185 0.23767 0.0
C1351 C 0.30317 0.55853 0.20485 0.0
C1352 C 0.2753 0.56147 0.20204 0.0
C1353 C 0.26169 0.57754 0.23206 0.0
C1354 C 0.27593 0.59063 0.26505 0.0
C1355 C 0.30382 0.58776 0.26797 0.0
H1356 H 0.24011 0.57978 0.22985 0.0
H1357 H 0.51078 0.56466 0.26507 0.0
H1358 H 0.47832 0.44462 0.35206 0.0
H1359 H 0.44765 0.4313 0.29386 0.0
H1360 H 0.42491 0.36088 0.36297 0.0
H1361 H 0.45499 0.37434 0.42177 0.0
H1362 H 0.44477 0.35107 0.27863 0.0
H1363 H 0.38207 0.40583 0.35362 0.0
H1364 H 0.36176 0.44571 0.38839 0.0
H1365 H 0.3625 0.48692 0.26927 0.0
H1366 H 0.38409 0.4478 0.2341 0.0
H1367 H 0.35371 0.30185 0.12207 0.0
H1368 H 0.37121 0.31803 0.19109 0.0
H1369 H 0.3871 0.39555 0.13755 0.0
H1370 H 0.36865 0.37986 0.06881 0.0
H1371 H 0.36753 0.4007 0.21789 0.0
H1372 H 0.43685 0.34946 0.14675 0.0
H1373 H 0.45618 0.30954 0.11027 0.0
H1374 H 0.44211 0.26265 0.22157 0.0
H1375 H 0.42235 0.30223 0.25852 0.0
C1376 C 0.46658 0.42644 0.35507 0.0
C1377 C 0.46931 0.41034 0.39127 0.0
C1378 C 0.44893 0.41899 0.32195 0.0
C1379 C 0.43405 0.39515 0.32423 0.0
C1380 C 0.43621 0.3794 0.36076 0.0
C1381 C 0.45345 0.38709 0.39423 0.0
C1382 C 0.41851 0.38521 0.28666 0.0
C1383 C 0.42758 0.3617 0.26578 0.0
C1384 C 0.39655 0.39956 0.26942 0.0
C1385 C 0.38507 0.42383 0.29122 0.0
C1386 C 0.37851 0.42356 0.33494 0.0
C1387 C 0.36664 0.44604 0.35473 0.0
C1388 C 0.36075 0.46879 0.33102 0.0
C1389 C 0.36699 0.46923 0.28757 0.0
C1390 C 0.37924 0.44697 0.26776 0.0
C1391 C 0.36047 0.32249 0.12514 0.0
C1392 C 0.35999 0.33949 0.08979 0.0
C1393 C 0.37067 0.33164 0.16454 0.0
C1394 C 0.38082 0.35787 0.16929 0.0
C1395 C 0.37948 0.3752 0.13455 0.0
C1396 C 0.36919 0.3661 0.09516 0.0
C1397 C 0.39405 0.36684 0.20976 0.0
C1398 C 0.38464 0.39012 0.23104 0.0
C1399 C 0.4159 0.35252 0.22732 0.0
C1400 C 0.42785 0.32872 0.20521 0.0
C1401 C 0.43769 0.33058 0.16332 0.0
C1402 C 0.44875 0.30803 0.14258 0.0
C1403 C 0.4503 0.28355 0.16354 0.0
C1404 C 0.44085 0.28161 0.20534 0.0
C1405 C 0.42973 0.30409 0.22621 0.0
H1406 H 0.45888 0.26611 0.14743 0.0
H1407 H 0.35146 0.48613 0.34635 0.0
loop_
_geom_bond_atom_site_label_1
_geom_bond_atom_site_label_2
_geom_bond_distance
_geom_bond_site_symmetry_2
_ccdc_geom_bond_type
Zn0 O2 1.933 1_556 S
Zn0 O20 1.985 . S
Zn0 O31 1.955 . S
Zn1 O2 1.911 . S
Zn1 O21 1.970 . S
Zn1 O37 1.945 . S
Zn1 O44 1.981 . S
O2 Zn0 1.933 1_554 S
O2 Zn1 1.911 . S
O2 H3 0.841 1_655 S
H3 O2 0.841 1_455 S
C4 O5 1.246 . S
C4 O33 1.251 1_545 S
O5 C4 1.246 . S
Zn6 O8 1.911 . S
Zn6 O23 1.970 . S
Zn6 O40 1.945 . S
Zn6 O47 1.981 . S
Zn7 O8 1.933 1_556 S
Zn7 O22 1.985 . S
Zn7 O29 1.955 . S
O8 Zn6 1.911 . S
O8 Zn7 1.933 1_554 S
O8 H9 0.841 1_455 S
H9 O8 0.841 1_655 S
Zn10 O11 1.933 1_556 S
Zn10 O24 1.985 . S
Zn10 O33 1.965 . S
O11 Zn10 1.933 1_554 S
O11 Zn12 1.911 . S
O11 H13 0.841 1_565 S
Zn12 O11 1.911 . S
Zn12 O25 1.970 . S
Zn12 O41 1.981 . S
Zn12 O43 1.945 . S
H13 O11 0.841 1_545 S
Zn14 O15 1.933 1_556 S
Zn14 O27 1.985 . S
Zn14 O35 1.955 . S
O15 Zn14 1.933 1_554 S
O15 H16 0.841 1_545 S
O15 Zn17 1.911 . S
H16 O15 0.841 1_565 S
Zn17 O15 1.911 . S
Zn17 O28 1.970 . S
Zn17 O38 1.981 . S
Zn17 O46 1.945 . S
C18 O19 1.246 . S
C18 O35 1.276 1_565 S
O19 C18 1.246 . S
O20 Zn0 1.985 . S
O20 C30 1.245 1_556 S
O21 Zn1 1.970 . S
O21 C30 1.263 . S
O22 Zn7 1.985 . S
O22 C34 1.245 1_556 S
O23 Zn6 1.970 . S
O23 C34 1.263 . S
O24 Zn10 1.985 . S
O24 C39 1.245 1_556 S
O25 Zn12 1.970 . S
O25 C39 1.263 . S
C26 O37 1.262 1_455 S
C26 O38 1.245 . S
O27 Zn14 1.985 . S
O27 C45 1.245 1_556 S
O28 Zn17 1.970 . S
O28 C45 1.263 . S
O29 Zn7 1.955 . S
O29 C48 1.276 1_455 S
C30 O20 1.245 1_554 S
C30 O21 1.263 . S
O31 Zn0 1.955 . S
O31 C50 1.276 1_655 S
C32 O40 1.262 1_655 S
C32 O41 1.245 . S
O33 C4 1.251 1_565 S
O33 Zn10 1.965 . S
C34 O22 1.245 1_554 S
C34 O23 1.263 . S
O35 Zn14 1.955 . S
O35 C18 1.276 1_545 S
C36 O43 1.262 1_545 S
C36 O44 1.245 . S
O37 Zn1 1.945 . S
O37 C26 1.262 1_655 S
O38 Zn17 1.981 . S
O38 C26 1.245 . S
C39 O24 1.245 1_554 S
C39 O25 1.263 . S
O40 Zn6 1.945 . S
O40 C32 1.262 1_455 S
O41 Zn12 1.981 . S
O41 C32 1.245 . S
C42 O46 1.262 1_565 S
C42 O47 1.245 . S
O43 Zn12 1.945 . S
O43 C36 1.262 1_565 S
O44 Zn1 1.981 . S
O44 C36 1.245 . S
C45 O27 1.245 1_554 S
C45 O28 1.263 . S
O46 Zn17 1.945 . S
O46 C42 1.262 1_545 S
O47 Zn6 1.981 . S
O47 C42 1.245 . S
C48 O29 1.276 1_655 S
C48 O49 1.246 . S
O49 C48 1.246 . S
C50 O31 1.276 1_455 S
C50 O51 1.246 . S
O51 C50 1.246 . S
Zn52 O54 1.933 . S
Zn52 O72 1.985 . S
Zn52 O83 1.955 . S
Zn53 O54 1.911 . S
Zn53 O73 1.970 . S
Zn53 O89 1.945 . S
Zn53 O96 1.981 . S
O54 Zn52 1.933 . S
O54 Zn53 1.911 . S
O54 H55 0.841 . S
H55 O54 0.841 . S
C56 O57 1.246 . S
C56 O85 1.276 . S
O57 C56 1.246 . S
Zn58 O60 1.911 . S
Zn58 O75 1.970 . S
Zn58 O92 1.945 . S
Zn58 O99 1.981 . S
Zn59 O60 1.933 . S
Zn59 O74 1.985 . S
Zn59 O81 1.955 . S
O60 Zn58 1.911 . S
O60 Zn59 1.933 . S
O60 H61 0.841 . S
H61 O60 0.841 . S
Zn62 O63 1.933 . S
Zn62 O76 1.985 . S
Zn62 O85 1.955 . S
O63 Zn62 1.933 . S
O63 Zn64 1.911 . S
O63 H65 0.841 . S
Zn64 O63 1.911 . S
Zn64 O77 1.970 . S
Zn64 O93 1.981 . S
Zn64 O95 1.945 . S
H65 O63 0.841 . S
Zn66 O67 1.933 . S
Zn66 O79 1.985 . S
Zn66 O87 1.955 . S
O67 Zn66 1.933 . S
O67 H68 0.841 . S
O67 Zn69 1.911 . S
H68 O67 0.841 . S
Zn69 O67 1.911 . S
Zn69 O80 1.970 . S
Zn69 O90 1.981 . S
Zn69 O98 1.945 . S
C70 O71 1.246 . S
C70 O87 1.276 . S
O71 C70 1.246 . S
O72 Zn52 1.985 . S
O72 C82 1.245 . S
O73 Zn53 1.970 . S
O73 C82 1.263 . S
O74 Zn59 1.985 . S
O74 C86 1.245 . S
O75 Zn58 1.970 . S
O75 C86 1.263 . S
O76 Zn62 1.985 . S
O76 C91 1.245 . S
O77 Zn64 1.970 . S
O77 C91 1.263 . S
C78 O89 1.262 . S
C78 O90 1.245 . S
O79 Zn66 1.985 . S
O79 C97 1.245 . S
O80 Zn69 1.970 . S
O80 C97 1.263 . S
O81 Zn59 1.955 . S
O81 C100 1.276 . S
C82 O72 1.245 . S
C82 O73 1.263 . S
O83 Zn52 1.955 . S
O83 C102 1.276 . S
C84 O92 1.262 . S
C84 O93 1.245 . S
O85 C56 1.276 . S
O85 Zn62 1.955 . S
C86 O74 1.245 . S
C86 O75 1.263 . S
O87 Zn66 1.955 . S
O87 C70 1.276 . S
C88 O95 1.262 . S
C88 O96 1.245 . S
O89 Zn53 1.945 . S
O89 C78 1.262 . S
O90 Zn69 1.981 . S
O90 C78 1.245 . S
C91 O76 1.245 . S
C91 O77 1.263 . S
O92 Zn58 1.945 . S
O92 C84 1.262 . S
O93 Zn64 1.981 . S
O93 C84 1.245 . S
C94 O98 1.262 . S
C94 O99 1.245 . S
O95 Zn64 1.945 . S
O95 C88 1.262 . S
O96 Zn53 1.981 . S
O96 C88 1.245 . S
C97 O79 1.245 . S
C97 O80 1.263 . S
O98 Zn69 1.945 . S
O98 C94 1.262 . S
O99 Zn58 1.981 . S
O99 C94 1.245 . S
C100 O81 1.276 . S
C100 O101 1.246 . S
O101 C100 1.246 . S
C102 O83 1.276 . S
C102 O103 1.246 . S
O103 C102 1.246 . S
H104 C111 0.929 . S
H105 C114 0.930 . S
H106 C116 0.929 . S
H107 C108 0.969 . S
C108 H107 0.969 . S
C108 O109 1.550 1_554 S
C108 H110 0.973 . S
O109 C108 1.550 1_556 S
O109 C115 1.412 . S
H110 C108 0.973 . S
C111 H104 0.929 . S
C111 C112 1.400 1_554 S
C111 C113 1.364 . S
C112 C111 1.400 1_556 S
C112 C116 1.377 . S
C113 C111 1.364 . S
C113 C114 1.374 . S
C114 H105 0.930 . S
C114 C113 1.374 . S
C114 C115 1.383 1_554 S
C115 O109 1.412 . S
C115 C114 1.383 1_556 S
C115 C116 1.394 . S
C116 H106 0.929 . S
C116 C112 1.377 . S
C116 C115 1.394 . S
H117 C124 0.929 . S
H118 C127 0.930 . S
H119 C129 0.929 . S
H120 C121 0.969 . S
C121 H120 0.969 . S
C121 O122 1.550 1_554 S
C121 H123 0.973 . S
O122 C121 1.550 1_556 S
O122 C128 1.412 1_556 S
H123 C121 0.973 . S
C124 H117 0.929 . S
C124 C125 1.400 1_554 S
C124 C126 1.364 . S
C125 C124 1.400 1_556 S
C125 C129 1.377 . S
C126 C124 1.364 . S
C126 C127 1.374 . S
C127 H118 0.930 . S
C127 C126 1.374 . S
C127 C128 1.383 . S
C128 O122 1.412 1_554 S
C128 C127 1.383 . S
C128 C129 1.394 1_554 S
C129 H119 0.929 . S
C129 C125 1.377 . S
C129 C128 1.394 1_556 S
H130 C137 0.929 . S
H131 C140 0.930 . S
H132 C142 0.929 . S
H133 C134 0.969 . S
C134 H133 0.969 . S
C134 O135 1.550 1_556 S
C134 H136 0.973 . S
O135 C134 1.550 1_554 S
O135 C141 1.412 . S
H136 C134 0.973 . S
C137 H130 0.929 . S
C137 C138 1.400 . S
C137 C139 1.364 1_554 S
C138 C137 1.400 . S
C138 C142 1.377 . S
C139 C137 1.364 1_556 S
C139 C140 1.374 . S
C140 H131 0.930 . S
C140 C139 1.374 . S
C140 C141 1.383 1_556 S
C141 O135 1.412 . S
C141 C140 1.383 1_554 S
C141 C142 1.394 . S
C142 H132 0.929 . S
C142 C138 1.377 . S
C142 C141 1.394 . S
H143 C150 0.929 . S
H144 C153 0.930 . S
H145 C155 0.929 . S
H146 C147 0.969 . S
C147 H146 0.969 . S
C147 O148 1.550 1_554 S
C147 H149 0.973 . S
O148 C147 1.550 1_556 S
O148 C154 1.411 1_556 S
H149 C147 0.973 . S
C150 H143 0.929 . S
C150 C151 1.400 1_554 S
C150 C152 1.364 . S
C151 C150 1.400 1_556 S
C151 C155 1.377 . S
C152 C150 1.364 . S
C152 C153 1.374 . S
C153 H144 0.930 . S
C153 C152 1.374 . S
C153 C154 1.390 . S
C154 O148 1.411 1_554 S
C154 C153 1.390 . S
C154 C155 1.388 1_554 S
C155 H145 0.929 . S
C155 C151 1.377 . S
C155 C154 1.388 1_556 S
H156 C163 0.929 . S
H157 C166 0.930 . S
H158 C168 0.929 . S
H159 C160 0.969 . S
C160 H159 0.969 . S
C160 O161 1.550 . S
C160 H162 0.973 . S
O161 C160 1.550 . S
O161 C167 1.412 . S
H162 C160 0.973 . S
C163 H156 0.929 . S
C163 C164 1.400 . S
C163 C165 1.364 . S
C164 C163 1.400 . S
C164 C168 1.377 . S
C165 C163 1.364 . S
C165 C166 1.374 . S
C166 H157 0.930 . S
C166 C165 1.374 . S
C166 C167 1.383 . S
C167 O161 1.412 . S
C167 C166 1.383 . S
C167 C168 1.394 . S
C168 H158 0.929 . S
C168 C164 1.377 . S
C168 C167 1.394 . S
H169 C176 0.929 . S
H170 C179 0.930 . S
H171 C181 0.929 . S
H172 C173 0.969 . S
C173 H172 0.969 . S
C173 O174 1.550 . S
C173 H175 0.973 . S
O174 C173 1.550 . S
O174 C180 1.412 . S
H175 C173 0.973 . S
C176 H169 0.929 . S
C176 C177 1.400 . S
C176 C178 1.364 . S
C177 C176 1.400 . S
C177 C181 1.377 . S
C178 C176 1.364 . S
C178 C179 1.374 . S
C179 H170 0.930 . S
C179 C178 1.374 . S
C179 C180 1.383 . S
C180 O174 1.412 . S
C180 C179 1.383 . S
C180 C181 1.394 . S
C181 H171 0.929 . S
C181 C177 1.377 . S
C181 C180 1.394 . S
H182 C189 0.929 . S
H183 C192 0.930 . S
H184 C194 0.929 . S
H185 C186 0.969 . S
C186 H185 0.969 . S
C186 O187 1.550 . S
C186 H188 0.973 . S
O187 C186 1.550 . S
O187 C193 1.412 . S
H188 C186 0.973 . S
C189 H182 0.929 . S
C189 C190 1.400 . S
C189 C191 1.364 . S
C190 C189 1.400 . S
C190 C194 1.377 . S
C191 C189 1.364 . S
C191 C192 1.374 . S
C192 H183 0.930 . S
C192 C191 1.374 . S
C192 C193 1.383 . S
C193 O187 1.412 . S
C193 C192 1.383 . S
C193 C194 1.394 . S
C194 H184 0.929 . S
C194 C190 1.377 . S
C194 C193 1.394 . S
H195 C202 0.929 . S
H196 C205 0.930 . S
H197 C207 0.929 . S
H198 C199 0.969 . S
C199 H198 0.969 . S
C199 O200 1.550 . S
C199 H201 0.973 . S
O200 C199 1.550 . S
O200 C206 1.412 . S
H201 C199 0.973 . S
C202 H195 0.929 . S
C202 C203 1.400 . S
C202 C204 1.364 . S
C203 C202 1.400 . S
C203 C207 1.377 . S
C204 C202 1.364 . S
C204 C205 1.374 . S
C205 H196 0.930 . S
C205 C204 1.374 . S
C205 C206 1.383 . S
C206 O200 1.412 . S
C206 C205 1.383 . S
C206 C207 1.394 . S
C207 H197 0.929 . S
C207 C203 1.377 . S
C207 C206 1.394 . S
H208 C226 0.951 1_556 S
H209 C228 0.951 1_556 S
H210 C230 0.950 . S
H211 C231 0.950 . S
H212 C233 0.950 1_556 S
H213 C236 0.950 . S
H214 C237 0.950 . S
H215 C239 0.950 . S
H216 C240 0.950 . S
H217 C241 0.951 . S
H218 C243 0.951 . S
H219 C245 0.950 . S
H220 C246 0.960 . S
H221 C248 0.950 . S
H222 C251 0.950 . S
H223 C252 0.950 . S
H224 C254 0.950 . S
H225 C255 0.950 1_554 S
C226 H208 0.951 1_554 S
C226 C227 1.366 . S
C226 C228 1.388 . S
C227 C226 1.366 . S
C227 C231 1.385 . S
C228 H209 0.951 1_554 S
C228 C226 1.388 . S
C228 C229 1.366 . S
C229 C228 1.366 . S
C229 C230 1.414 . S
C229 C232 1.499 . S
C230 H210 0.950 . S
C230 C229 1.414 . S
C230 C231 1.374 . S
C231 H211 0.950 . S
C231 C227 1.385 . S
C231 C230 1.374 . S
C232 C229 1.499 . S
C232 C233 1.373 . S
C232 C234 1.389 . S
C233 H212 0.950 1_554 S
C233 C232 1.373 . S
C233 C249 1.377 1_554 S
C234 C232 1.389 . S
C234 C235 1.524 . S
C234 C248 1.377 . S
C235 C234 1.524 . S
C235 C236 1.397 . S
C235 C240 1.363 . S
C236 H213 0.950 . S
C236 C235 1.397 . S
C236 C237 1.334 . S
C237 H214 0.950 . S
C237 C236 1.334 . S
C237 C238 1.287 . S
C238 C237 1.287 . S
C238 C239 1.524 . S
C238 H257 0.913 . S
C239 H215 0.950 . S
C239 C238 1.524 . S
C239 C240 1.415 . S
C240 H216 0.950 . S
C240 C235 1.363 . S
C240 C239 1.415 . S
C241 H217 0.951 . S
C241 C242 1.366 . S
C241 C243 1.388 . S
C242 C241 1.366 . S
C242 C246 1.376 1_554 S
C243 H218 0.951 . S
C243 C241 1.388 . S
C243 C244 1.366 . S
C244 C243 1.366 . S
C244 C245 1.414 1_554 S
C244 C247 1.499 . S
C245 H219 0.950 . S
C245 C244 1.414 1_556 S
C245 C246 1.374 . S
C246 H220 0.960 . S
C246 C242 1.376 1_556 S
C246 C245 1.374 . S
C247 C244 1.499 . S
C247 C248 1.373 . S
C247 C249 1.389 1_554 S
C248 H221 0.950 . S
C248 C234 1.377 . S
C248 C247 1.373 . S
C249 C233 1.377 1_556 S
C249 C247 1.389 1_556 S
C249 C250 1.524 . S
C250 C249 1.524 . S
C250 C251 1.397 . S
C250 C255 1.363 . S
C251 H222 0.950 . S
C251 C250 1.397 . S
C251 C252 1.334 . S
C252 H223 0.950 . S
C252 C251 1.334 . S
C252 C253 1.287 . S
C253 C252 1.287 . S
C253 C254 1.524 . S
C253 H256 0.999 . S
C254 H224 0.950 . S
C254 C253 1.524 . S
C254 C255 1.415 . S
C255 H225 0.950 1_556 S
C255 C250 1.363 . S
C255 C254 1.415 . S
H256 C253 0.999 . S
H257 C238 0.913 . S
H258 C276 0.951 . S
H259 C278 0.951 . S
H260 C280 0.954 . S
H261 C281 0.948 1_556 S
H262 C283 0.950 . S
H263 C286 0.950 . S
H264 C287 0.950 . S
H265 C289 0.950 . S
H266 C290 0.950 1_554 S
H267 C291 0.951 1_556 S
H268 C293 0.951 1_556 S
H269 C295 0.950 . S
H270 C296 0.950 . S
H271 C298 0.950 1_556 S
H272 C301 0.950 . S
H273 C302 0.950 . S
H274 C304 0.950 . S
H275 C305 0.950 . S
C276 H258 0.951 . S
C276 C277 1.366 . S
C276 C278 1.388 . S
C277 C276 1.366 . S
C277 C281 1.386 . S
C278 H259 0.951 . S
C278 C276 1.388 . S
C278 C279 1.366 . S
C279 C278 1.366 . S
C279 C280 1.410 1_554 S
C279 C282 1.499 . S
C280 H260 0.954 . S
C280 C279 1.410 1_556 S
C280 C281 1.373 1_556 S
C281 H261 0.948 1_554 S
C281 C277 1.386 . S
C281 C280 1.373 1_554 S
C282 C279 1.499 . S
C282 C283 1.373 . S
C282 C284 1.389 . S
C283 H262 0.950 . S
C283 C282 1.373 . S
C283 C299 1.377 . S
C284 C282 1.389 . S
C284 C285 1.524 1_554 S
C284 C298 1.377 . S
C285 C284 1.524 1_556 S
C285 C286 1.397 . S
C285 C290 1.363 . S
C286 H263 0.950 . S
C286 C285 1.397 . S
C286 C287 1.334 . S
C287 H264 0.950 . S
C287 C286 1.334 . S
C287 C288 1.287 . S
C288 C287 1.287 . S
C288 C289 1.524 . S
C288 H307 0.913 . S
C289 H265 0.950 . S
C289 C288 1.524 . S
C289 C290 1.415 . S
C290 H266 0.950 1_556 S
C290 C285 1.363 . S
C290 C289 1.415 . S
C291 H267 0.951 1_554 S
C291 C292 1.366 . S
C291 C293 1.388 . S
C292 C291 1.366 . S
C292 C296 1.385 . S
C293 H268 0.951 1_554 S
C293 C291 1.388 . S
C293 C294 1.366 . S
C294 C293 1.366 . S
C294 C295 1.414 . S
C294 C297 1.499 . S
C295 H269 0.950 . S
C295 C294 1.414 . S
C295 C296 1.374 . S
C296 H270 0.950 . S
C296 C292 1.385 . S
C296 C295 1.374 . S
C297 C294 1.499 . S
C297 C298 1.373 . S
C297 C299 1.389 . S
C298 H271 0.950 1_554 S
C298 C284 1.377 . S
C298 C297 1.373 . S
C299 C283 1.377 . S
C299 C297 1.389 . S
C299 C300 1.524 . S
C300 C299 1.524 . S
C300 C301 1.397 . S
C300 C305 1.363 . S
C301 H272 0.950 . S
C301 C300 1.397 . S
C301 C302 1.334 . S
C302 H273 0.950 . S
C302 C301 1.334 . S
C302 C303 1.287 . S
C303 C302 1.287 . S
C303 C304 1.524 . S
C303 H306 0.999 . S
C304 H274 0.950 . S
C304 C303 1.524 . S
C304 C305 1.415 . S
C305 H275 0.950 . S
C305 C300 1.363 . S
C305 C304 1.415 . S
H306 C303 0.999 . S
H307 C288 0.913 . S
H308 C326 0.951 . S
H309 C328 0.951 . S
H310 C330 0.950 . S
H311 C331 0.950 . S
H312 C333 0.950 . S
H313 C336 0.950 . S
H314 C337 0.950 . S
H315 C339 0.950 . S
H316 C340 0.950 . S
H317 C341 0.951 . S
H318 C343 0.951 . S
H319 C345 0.950 . S
H320 C346 0.950 . S
H321 C348 0.950 . S
H322 C351 0.950 . S
H323 C352 0.950 . S
H324 C354 0.950 . S
H325 C355 0.950 . S
C326 H308 0.951 . S
C326 C327 1.366 1_556 S
C326 C328 1.388 . S
C327 C326 1.366 1_554 S
C327 C331 1.385 . S
C328 H309 0.951 . S
C328 C326 1.388 . S
C328 C329 1.366 1_556 S
C329 C328 1.366 1_554 S
C329 C330 1.414 . S
C329 C332 1.499 . S
C330 H310 0.950 . S
C330 C329 1.414 . S
C330 C331 1.374 . S
C331 H311 0.950 . S
C331 C327 1.385 . S
C331 C330 1.374 . S
C332 C329 1.499 . S
C332 C333 1.373 . S
C332 C334 1.389 1_554 S
C333 H312 0.950 . S
C333 C332 1.373 . S
C333 C349 1.377 . S
C334 C332 1.389 1_556 S
C334 C335 1.524 . S
C334 C348 1.377 . S
C335 C334 1.524 . S
C335 C336 1.397 . S
C335 C340 1.363 . S
C336 H313 0.950 . S
C336 C335 1.397 . S
C336 C337 1.334 . S
C337 H314 0.950 . S
C337 C336 1.334 . S
C337 C338 1.287 . S
C338 C337 1.287 . S
C338 C339 1.524 . S
C338 H357 0.913 . S
C339 H315 0.950 . S
C339 C338 1.524 . S
C339 C340 1.415 . S
C340 H316 0.950 . S
C340 C335 1.363 . S
C340 C339 1.415 . S
C341 H317 0.951 . S
C341 C342 1.366 . S
C341 C343 1.388 . S
C342 C341 1.366 . S
C342 C346 1.385 1_554 S
C343 H318 0.951 . S
C343 C341 1.388 . S
C343 C344 1.366 . S
C344 C343 1.366 . S
C344 C345 1.414 1_554 S
C344 C347 1.499 . S
C345 H319 0.950 . S
C345 C344 1.414 1_556 S
C345 C346 1.374 . S
C346 H320 0.950 . S
C346 C342 1.385 1_556 S
C346 C345 1.374 . S
C347 C344 1.499 . S
C347 C348 1.373 1_554 S
C347 C349 1.389 . S
C348 H321 0.950 . S
C348 C334 1.377 . S
C348 C347 1.373 1_556 S
C349 C333 1.377 . S
C349 C347 1.389 . S
C349 C350 1.524 . S
C350 C349 1.524 . S
C350 C351 1.397 . S
C350 C355 1.363 . S
C351 H322 0.950 . S
C351 C350 1.397 . S
C351 C352 1.334 . S
C352 H323 0.950 . S
C352 C351 1.334 . S
C352 C353 1.287 . S
C353 C352 1.287 . S
C353 C354 1.524 . S
C353 H356 0.999 . S
C354 H324 0.950 . S
C354 C353 1.524 . S
C354 C355 1.415 . S
C355 H325 0.950 . S
C355 C350 1.363 . S
C355 C354 1.415 . S
H356 C353 0.999 . S
H357 C338 0.913 . S
H358 C376 0.951 . S
H359 C378 0.951 . S
H360 C380 0.950 . S
H361 C381 0.950 . S
H362 C383 0.950 . S
H363 C386 0.950 . S
H364 C387 0.950 . S
H365 C389 0.950 . S
H366 C390 0.950 . S
H367 C391 0.951 . S
H368 C393 0.951 . S
H369 C395 0.950 . S
H370 C396 0.950 . S
H371 C398 0.950 . S
H372 C401 0.950 . S
H373 C402 0.950 . S
H374 C404 0.950 . S
H375 C405 0.950 . S
C376 H358 0.951 . S
C376 C377 1.366 . S
C376 C378 1.388 . S
C377 C376 1.366 . S
C377 C381 1.385 . S
C378 H359 0.951 . S
C378 C376 1.388 . S
C378 C379 1.366 . S
C379 C378 1.366 . S
C379 C380 1.414 . S
C379 C382 1.499 . S
C380 H360 0.950 . S
C380 C379 1.414 . S
C380 C381 1.374 . S
C381 H361 0.950 . S
C381 C377 1.385 . S
C381 C380 1.374 . S
C382 C379 1.499 . S
C382 C383 1.373 1_554 S
C382 C384 1.389 . S
C383 H362 0.950 . S
C383 C382 1.373 1_556 S
C383 C399 1.377 . S
C384 C382 1.389 . S
C384 C385 1.524 . S
C384 C398 1.377 . S
C385 C384 1.524 . S
C385 C386 1.397 . S
C385 C390 1.363 . S
C386 H363 0.950 . S
C386 C385 1.397 . S
C386 C387 1.334 . S
C387 H364 0.950 . S
C387 C386 1.334 . S
C387 C388 1.287 . S
C388 C387 1.287 . S
C388 C389 1.524 . S
C388 H407 0.913 . S
C389 H365 0.950 . S
C389 C388 1.524 . S
C389 C390 1.415 . S
C390 H366 0.950 . S
C390 C385 1.363 . S
C390 C389 1.415 . S
C391 H367 0.951 . S
C391 C392 1.366 . S
C391 C393 1.388 . S
C392 C391 1.366 . S
C392 C396 1.385 . S
C393 H368 0.951 . S
C393 C391 1.388 . S
C393 C394 1.366 . S
C394 C393 1.366 . S
C394 C395 1.414 . S
C394 C397 1.499 . S
C395 H369 0.950 . S
C395 C394 1.414 . S
C395 C396 1.374 . S
C396 H370 0.950 . S
C396 C392 1.385 . S
C396 C395 1.374 . S
C397 C394 1.499 . S
C397 C398 1.373 . S
C397 C399 1.389 1_554 S
C398 H371 0.950 . S
C398 C384 1.377 . S
C398 C397 1.373 . S
C399 C383 1.377 . S
C399 C397 1.389 1_556 S
C399 C400 1.524 . S
C400 C399 1.524 . S
C400 C401 1.397 . S
C400 C405 1.363 . S
C401 H372 0.950 . S
C401 C400 1.397 . S
C401 C402 1.334 . S
C402 H373 0.950 . S
C402 C401 1.334 . S
C402 C403 1.287 . S
C403 C402 1.287 . S
C403 C404 1.524 . S
C403 H406 0.999 . S
C404 H374 0.950 . S
C404 C403 1.524 . S
C404 C405 1.415 . S
C405 H375 0.950 . S
C405 C400 1.363 . S
C405 C404 1.415 . S
H406 C403 0.999 . S
H407 C388 0.913 . S
H408 C426 0.951 . S
H409 C428 0.951 . S
H410 C430 0.950 . S
H411 C431 0.950 . S
H412 C433 0.950 . S
H413 C436 0.950 . S
H414 C437 0.950 . S
H415 C439 0.950 . S
H416 C440 0.950 . S
H417 C441 0.951 . S
H418 C443 0.951 . S
H419 C445 0.950 . S
H420 C446 0.950 . S
H421 C448 0.950 . S
H422 C451 0.950 . S
H423 C452 0.950 . S
H424 C454 0.950 . S
H425 C455 0.950 . S
C426 H408 0.951 . S
C426 C427 1.366 . S
C426 C428 1.388 . S
C427 C426 1.366 . S
C427 C431 1.385 . S
C428 H409 0.951 . S
C428 C426 1.388 . S
C428 C429 1.366 . S
C429 C428 1.366 . S
C429 C430 1.414 . S
C429 C432 1.499 . S
C430 H410 0.950 . S
C430 C429 1.414 . S
C430 C431 1.374 . S
C431 H411 0.950 . S
C431 C427 1.385 . S
C431 C430 1.374 . S
C432 C429 1.499 . S
C432 C433 1.373 . S
C432 C434 1.389 . S
C433 H412 0.950 . S
C433 C432 1.373 . S
C433 C449 1.377 . S
C434 C432 1.389 . S
C434 C435 1.524 . S
C434 C448 1.377 . S
C435 C434 1.524 . S
C435 C436 1.397 . S
C435 C440 1.363 . S
C436 H413 0.950 . S
C436 C435 1.397 . S
C436 C437 1.334 . S
C437 H414 0.950 . S
C437 C436 1.334 . S
C437 C438 1.287 . S
C438 C437 1.287 . S
C438 C439 1.524 . S
C438 H457 0.913 . S
C439 H415 0.950 . S
C439 C438 1.524 . S
C439 C440 1.415 . S
C440 H416 0.950 . S
C440 C435 1.363 . S
C440 C439 1.415 . S
C441 H417 0.951 . S
C441 C442 1.366 . S
C441 C443 1.388 . S
C442 C441 1.366 . S
C442 C446 1.385 . S
C443 H418 0.951 . S
C443 C441 1.388 . S
C443 C444 1.366 . S
C444 C443 1.366 . S
C444 C445 1.414 . S
C444 C447 1.499 . S
C445 H419 0.950 . S
C445 C444 1.414 . S
C445 C446 1.374 . S
C446 H420 0.950 . S
C446 C442 1.385 . S
C446 C445 1.374 . S
C447 C444 1.499 . S
C447 C448 1.373 . S
C447 C449 1.389 . S
C448 H421 0.950 . S
C448 C434 1.377 . S
C448 C447 1.373 . S
C449 C433 1.377 . S
C449 C447 1.389 . S
C449 C450 1.524 . S
C450 C449 1.524 . S
C450 C451 1.397 . S
C450 C455 1.363 . S
C451 H422 0.950 . S
C451 C450 1.397 . S
C451 C452 1.334 . S
C452 H423 0.950 . S
C452 C451 1.334 . S
C452 C453 1.287 . S
C453 C452 1.287 . S
C453 C454 1.524 . S
C453 H456 0.999 . S
C454 H424 0.950 . S
C454 C453 1.524 . S
C454 C455 1.415 . S
C455 H425 0.950 . S
C455 C450 1.363 . S
C455 C454 1.415 . S
H456 C453 0.999 . S
H457 C438 0.913 . S
H458 C476 0.951 . S
H459 C478 0.951 . S
H460 C480 0.950 . S
H461 C481 0.950 . S
H462 C483 0.950 . S
H463 C486 0.950 . S
H464 C487 0.950 . S
H465 C489 0.950 . S
H466 C490 0.950 . S
H467 C491 0.951 . S
H468 C493 0.951 . S
H469 C495 0.950 . S
H470 C496 0.950 . S
H471 C498 0.950 . S
H472 C501 0.950 . S
H473 C502 0.950 . S
H474 C504 0.950 . S
H475 C505 0.950 . S
C476 H458 0.951 . S
C476 C477 1.366 . S
C476 C478 1.388 . S
C477 C476 1.366 . S
C477 C481 1.385 . S
C478 H459 0.951 . S
C478 C476 1.388 . S
C478 C479 1.366 . S
C479 C478 1.366 . S
C479 C480 1.414 . S
C479 C482 1.499 . S
C480 H460 0.950 . S
C480 C479 1.414 . S
C480 C481 1.374 . S
C481 H461 0.950 . S
C481 C477 1.385 . S
C481 C480 1.374 . S
C482 C479 1.499 . S
C482 C483 1.373 . S
C482 C484 1.389 . S
C483 H462 0.950 . S
C483 C482 1.373 . S
C483 C499 1.377 . S
C484 C482 1.389 . S
C484 C485 1.524 . S
C484 C498 1.377 . S
C485 C484 1.524 . S
C485 C486 1.397 . S
C485 C490 1.363 . S
C486 H463 0.950 . S
C486 C485 1.397 . S
C486 C487 1.334 . S
C487 H464 0.950 . S
C487 C486 1.334 . S
C487 C488 1.287 . S
C488 C487 1.287 . S
C488 C489 1.524 . S
C488 H507 0.913 . S
C489 H465 0.950 . S
C489 C488 1.524 . S
C489 C490 1.415 . S
C490 H466 0.950 . S
C490 C485 1.363 . S
C490 C489 1.415 . S
C491 H467 0.951 . S
C491 C492 1.366 . S
C491 C493 1.388 . S
C492 C491 1.366 . S
C492 C496 1.385 . S
C493 H468 0.951 . S
C493 C491 1.388 . S
C493 C494 1.366 . S
C494 C493 1.366 . S
C494 C495 1.414 . S
C494 C497 1.499 . S
C495 H469 0.950 . S
C495 C494 1.414 . S
C495 C496 1.374 . S
C496 H470 0.950 . S
C496 C492 1.385 . S
C496 C495 1.374 . S
C497 C494 1.499 . S
C497 C498 1.373 . S
C497 C499 1.389 . S
C498 H471 0.950 . S
C498 C484 1.377 . S
C498 C497 1.373 . S
C499 C483 1.377 . S
C499 C497 1.389 . S
C499 C500 1.524 . S
C500 C499 1.524 . S
C500 C501 1.397 . S
C500 C505 1.363 . S
C501 H472 0.950 . S
C501 C500 1.397 . S
C501 C502 1.334 . S
C502 H473 0.950 . S
C502 C501 1.334 . S
C502 C503 1.287 . S
C503 C502 1.287 . S
C503 C504 1.524 . S
C503 H506 0.999 . S
C504 H474 0.950 . S
C504 C503 1.524 . S
C504 C505 1.415 . S
C505 H475 0.950 . S
C505 C500 1.363 . S
C505 C504 1.415 . S
H506 C503 0.999 . S
H507 C488 0.913 . S
H508 C526 0.951 . S
H509 C528 0.951 . S
H510 C530 0.950 . S
H511 C531 0.950 . S
H512 C533 0.950 . S
H513 C536 0.950 . S
H514 C537 0.950 . S
H515 C539 0.950 . S
H516 C540 0.950 . S
H517 C541 0.951 . S
H518 C543 0.951 . S
H519 C545 0.950 . S
H520 C546 0.950 . S
H521 C548 0.950 . S
H522 C551 0.950 . S
H523 C552 0.950 . S
H524 C554 0.950 . S
H525 C555 0.950 . S
C526 H508 0.951 . S
C526 C527 1.366 . S
C526 C528 1.388 . S
C527 C526 1.366 . S
C527 C531 1.385 . S
C528 H509 0.951 . S
C528 C526 1.388 . S
C528 C529 1.366 . S
C529 C528 1.366 . S
C529 C530 1.414 . S
C529 C532 1.499 . S
C530 H510 0.950 . S
C530 C529 1.414 . S
C530 C531 1.374 . S
C531 H511 0.950 . S
C531 C527 1.385 . S
C531 C530 1.374 . S
C532 C529 1.499 . S
C532 C533 1.373 . S
C532 C534 1.389 . S
C533 H512 0.950 . S
C533 C532 1.373 . S
C533 C549 1.377 . S
C534 C532 1.389 . S
C534 C535 1.524 . S
C534 C548 1.377 . S
C535 C534 1.524 . S
C535 C536 1.397 . S
C535 C540 1.363 . S
C536 H513 0.950 . S
C536 C535 1.397 . S
C536 C537 1.334 . S
C537 H514 0.950 . S
C537 C536 1.334 . S
C537 C538 1.287 . S
C538 C537 1.287 . S
C538 C539 1.524 . S
C538 H557 0.913 . S
C539 H515 0.950 . S
C539 C538 1.524 . S
C539 C540 1.415 . S
C540 H516 0.950 . S
C540 C535 1.363 . S
C540 C539 1.415 . S
C541 H517 0.951 . S
C541 C542 1.366 . S
C541 C543 1.388 . S
C542 C541 1.366 . S
C542 C546 1.385 . S
C543 H518 0.951 . S
C543 C541 1.388 . S
C543 C544 1.366 . S
C544 C543 1.366 . S
C544 C545 1.414 . S
C544 C547 1.499 . S
C545 H519 0.950 . S
C545 C544 1.414 . S
C545 C546 1.374 . S
C546 H520 0.950 . S
C546 C542 1.385 . S
C546 C545 1.374 . S
C547 C544 1.499 . S
C547 C548 1.373 . S
C547 C549 1.389 . S
C548 H521 0.950 . S
C548 C534 1.377 . S
C548 C547 1.373 . S
C549 C533 1.377 . S
C549 C547 1.389 . S
C549 C550 1.524 . S
C550 C549 1.524 . S
C550 C551 1.397 . S
C550 C555 1.363 . S
C551 H522 0.950 . S
C551 C550 1.397 . S
C551 C552 1.334 . S
C552 H523 0.950 . S
C552 C551 1.334 . S
C552 C553 1.287 . S
C553 C552 1.287 . S
C553 C554 1.524 . S
C553 H556 0.999 . S
C554 H524 0.950 . S
C554 C553 1.524 . S
C554 C555 1.415 . S
C555 H525 0.950 . S
C555 C550 1.363 . S
C555 C554 1.415 . S
H556 C553 0.999 . S
H557 C538 0.913 . S
H558 C576 0.951 . S
H559 C578 0.951 . S
H560 C580 0.950 . S
H561 C581 0.950 . S
H562 C583 0.950 . S
H563 C586 0.950 . S
H564 C587 0.950 . S
H565 C589 0.950 . S
H566 C590 0.950 . S
H567 C591 0.951 . S
H568 C593 0.951 . S
H569 C595 0.950 . S
H570 C596 0.950 . S
H571 C598 0.950 . S
H572 C601 0.950 . S
H573 C602 0.950 . S
H574 C604 0.950 . S
H575 C605 0.950 . S
C576 H558 0.951 . S
C576 C577 1.366 . S
C576 C578 1.388 . S
C577 C576 1.366 . S
C577 C581 1.385 . S
C578 H559 0.951 . S
C578 C576 1.388 . S
C578 C579 1.366 . S
C579 C578 1.366 . S
C579 C580 1.414 . S
C579 C582 1.499 . S
C580 H560 0.950 . S
C580 C579 1.414 . S
C580 C581 1.374 . S
C581 H561 0.950 . S
C581 C577 1.385 . S
C581 C580 1.374 . S
C582 C579 1.499 . S
C582 C583 1.373 . S
C582 C584 1.389 . S
C583 H562 0.950 . S
C583 C582 1.373 . S
C583 C599 1.377 . S
C584 C582 1.389 . S
C584 C585 1.524 . S
C584 C598 1.377 . S
C585 C584 1.524 . S
C585 C586 1.397 . S
C585 C590 1.363 . S
C586 H563 0.950 . S
C586 C585 1.397 . S
C586 C587 1.334 . S
C587 H564 0.950 . S
C587 C586 1.334 . S
C587 C588 1.287 . S
C588 C587 1.287 . S
C588 C589 1.524 . S
C588 H607 0.913 . S
C589 H565 0.950 . S
C589 C588 1.524 . S
C589 C590 1.415 . S
C590 H566 0.950 . S
C590 C585 1.363 . S
C590 C589 1.415 . S
C591 H567 0.951 . S
C591 C592 1.366 . S
C591 C593 1.388 . S
C592 C591 1.366 . S
C592 C596 1.385 . S
C593 H568 0.951 . S
C593 C591 1.388 . S
C593 C594 1.366 . S
C594 C593 1.366 . S
C594 C595 1.414 . S
C594 C597 1.499 . S
C595 H569 0.950 . S
C595 C594 1.414 . S
C595 C596 1.374 . S
C596 H570 0.950 . S
C596 C592 1.385 . S
C596 C595 1.374 . S
C597 C594 1.499 . S
C597 C598 1.373 . S
C597 C599 1.389 . S
C598 H571 0.950 . S
C598 C584 1.377 . S
C598 C597 1.373 . S
C599 C583 1.377 . S
C599 C597 1.389 . S
C599 C600 1.524 . S
C600 C599 1.524 . S
C600 C601 1.397 . S
C600 C605 1.363 . S
C601 H572 0.950 . S
C601 C600 1.397 . S
C601 C602 1.334 . S
C602 H573 0.950 . S
C602 C601 1.334 . S
C602 C603 1.287 . S
C603 C602 1.287 . S
C603 C604 1.524 . S
C603 H606 0.999 . S
C604 H574 0.950 . S
C604 C603 1.524 . S
C604 C605 1.415 . S
C605 H575 0.950 . S
C605 C600 1.363 . S
C605 C604 1.415 . S
H606 C603 0.999 . S
H607 C588 0.913 . S
H608 C626 0.951 . S
H609 C628 0.951 . S
H610 C630 0.950 . S
H611 C631 0.950 1_655 S
H612 C633 0.950 . S
H613 C636 0.950 . S
H614 C637 0.950 . S
H615 C639 0.950 . S
H616 C640 0.950 . S
H617 C641 0.951 . S
H618 C643 0.951 . S
H619 C645 0.950 . S
H620 C646 0.950 . S
H621 C648 0.950 . S
H622 C651 0.950 . S
H623 C652 0.950 . S
H624 C654 0.950 . S
H625 C655 0.950 1_655 S
C626 H608 0.951 . S
C626 C627 1.366 . S
C626 C628 1.388 . S
C627 C626 1.366 . S
C627 C631 1.385 . S
C628 H609 0.951 . S
C628 C626 1.388 . S
C628 C629 1.366 . S
C629 C628 1.366 . S
C629 C630 1.414 . S
C629 C632 1.499 . S
C630 H610 0.950 . S
C630 C629 1.414 . S
C630 C631 1.374 . S
C631 H611 0.950 1_455 S
C631 C627 1.385 . S
C631 C630 1.374 . S
C632 C629 1.499 . S
C632 C633 1.373 . S
C632 C634 1.389 . S
C633 H612 0.950 . S
C633 C632 1.373 . S
C633 C649 1.377 . S
C634 C632 1.389 . S
C634 C635 1.524 . S
C634 C648 1.377 . S
C635 C634 1.524 . S
C635 C636 1.397 . S
C635 C640 1.363 . S
C636 H613 0.950 . S
C636 C635 1.397 . S
C636 C637 1.334 . S
C637 H614 0.950 . S
C637 C636 1.334 . S
C637 C638 1.287 . S
C638 C637 1.287 . S
C638 C639 1.524 . S
C638 H657 0.913 . S
C639 H615 0.950 . S
C639 C638 1.524 . S
C639 C640 1.415 . S
C640 H616 0.950 . S
C640 C635 1.363 . S
C640 C639 1.415 . S
C641 H617 0.951 . S
C641 C642 1.366 . S
C641 C643 1.388 . S
C642 C641 1.366 . S
C642 C646 1.385 . S
C643 H618 0.951 . S
C643 C641 1.388 . S
C643 C644 1.366 . S
C644 C643 1.366 . S
C644 C645 1.414 . S
C644 C647 1.499 . S
C645 H619 0.950 . S
C645 C644 1.414 . S
C645 C646 1.374 . S
C646 H620 0.950 . S
C646 C642 1.385 . S
C646 C645 1.374 . S
C647 C644 1.499 . S
C647 C648 1.373 . S
C647 C649 1.389 . S
C648 H621 0.950 . S
C648 C634 1.377 . S
C648 C647 1.373 . S
C649 C633 1.377 . S
C649 C647 1.389 . S
C649 C650 1.524 . S
C650 C649 1.524 . S
C650 C651 1.397 . S
C650 C655 1.363 . S
C651 H622 0.950 . S
C651 C650 1.397 . S
C651 C652 1.334 . S
C652 H623 0.950 . S
C652 C651 1.334 . S
C652 C653 1.287 . S
C653 C652 1.287 . S
C653 C654 1.524 1_455 S
C653 H656 0.999 . S
C654 H624 0.950 . S
C654 C653 1.524 1_655 S
C654 C655 1.415 1_655 S
C655 H625 0.950 1_455 S
C655 C650 1.363 . S
C655 C654 1.415 1_455 S
H656 C653 0.999 . S
H657 C638 0.913 . S
H658 C676 0.951 . S
H659 C678 0.951 . S
H660 C680 0.950 . S
H661 C681 0.945 1_565 S
H662 C683 0.950 . S
H663 C686 0.950 . S
H664 C687 0.950 . S
H665 C689 0.950 . S
H666 C690 0.950 . S
H667 C691 0.951 . S
H668 C693 0.951 . S
H669 C695 0.950 . S
H670 C696 0.950 . S
H671 C698 0.950 . S
H672 C701 0.950 . S
H673 C702 0.950 . S
H674 C704 0.950 . S
H675 C705 0.950 1_565 S
C676 H658 0.951 . S
C676 C677 1.366 . S
C676 C678 1.388 . S
C677 C676 1.366 . S
C677 C681 1.385 . S
C678 H659 0.951 . S
C678 C676 1.388 . S
C678 C679 1.366 . S
C679 C678 1.366 . S
C679 C680 1.414 . S
C679 C682 1.499 . S
C680 H660 0.950 . S
C680 C679 1.414 . S
C680 C681 1.374 . S
C681 H661 0.945 1_545 S
C681 C677 1.385 . S
C681 C680 1.374 . S
C682 C679 1.499 . S
C682 C683 1.373 . S
C682 C684 1.389 . S
C683 H662 0.950 . S
C683 C682 1.373 . S
C683 C699 1.377 . S
C684 C682 1.389 . S
C684 C685 1.524 . S
C684 C698 1.377 . S
C685 C684 1.524 . S
C685 C686 1.397 . S
C685 C690 1.363 . S
C686 H663 0.950 . S
C686 C685 1.397 . S
C686 C687 1.334 . S
C687 H664 0.950 . S
C687 C686 1.334 . S
C687 C688 1.287 . S
C688 C687 1.287 . S
C688 C689 1.524 . S
C688 H707 0.913 . S
C689 H665 0.950 . S
C689 C688 1.524 . S
C689 C690 1.415 . S
C690 H666 0.950 . S
C690 C685 1.363 . S
C690 C689 1.415 . S
C691 H667 0.951 . S
C691 C692 1.366 . S
C691 C693 1.388 . S
C692 C691 1.366 . S
C692 C696 1.385 . S
C693 H668 0.951 . S
C693 C691 1.388 . S
C693 C694 1.366 . S
C694 C693 1.366 . S
C694 C695 1.414 . S
C694 C697 1.499 . S
C695 H669 0.950 . S
C695 C694 1.414 . S
C695 C696 1.374 . S
C696 H670 0.950 . S
C696 C692 1.385 . S
C696 C695 1.374 . S
C697 C694 1.499 . S
C697 C698 1.373 . S
C697 C699 1.389 . S
C698 H671 0.950 . S
C698 C684 1.377 . S
C698 C697 1.373 . S
C699 C683 1.377 . S
C699 C697 1.389 . S
C699 C700 1.524 . S
C700 C699 1.524 . S
C700 C701 1.397 . S
C700 C705 1.363 . S
C701 H672 0.950 . S
C701 C700 1.397 . S
C701 C702 1.334 . S
C702 H673 0.950 . S
C702 C701 1.334 . S
C702 C703 1.244 1_545 S
C703 C702 1.244 1_565 S
C703 C704 1.545 . S
C703 H706 1.027 . S
C704 H674 0.950 . S
C704 C703 1.545 . S
C704 C705 1.415 1_565 S
C705 H675 0.950 1_545 S
C705 C700 1.363 . S
C705 C704 1.415 1_545 S
H706 C703 1.027 . S
H707 C688 0.913 . S
H708 C726 0.951 . S
H709 C728 0.951 . S
H710 C730 0.950 . S
H711 C731 0.950 . S
H712 C733 0.950 . S
H713 C736 0.950 . S
H714 C737 0.950 . S
H715 C739 0.950 . S
H716 C740 0.950 . S
H717 C741 0.951 . S
H718 C743 0.951 . S
H719 C745 0.950 . S
H720 C746 0.950 . S
H721 C748 0.950 . S
H722 C751 0.950 . S
H723 C752 0.950 . S
H724 C754 0.950 . S
H725 C755 0.950 . S
C726 H708 0.951 . S
C726 C727 1.366 . S
C726 C728 1.388 . S
C727 C726 1.366 . S
C727 C731 1.385 . S
C728 H709 0.951 . S
C728 C726 1.388 . S
C728 C729 1.366 . S
C729 C728 1.366 . S
C729 C730 1.414 . S
C729 C732 1.499 . S
C730 H710 0.950 . S
C730 C729 1.414 . S
C730 C731 1.374 . S
C731 H711 0.950 . S
C731 C727 1.385 . S
C731 C730 1.374 . S
C732 C729 1.499 . S
C732 C733 1.373 . S
C732 C734 1.389 . S
C733 H712 0.950 . S
C733 C732 1.373 . S
C733 C749 1.377 . S
C734 C732 1.389 . S
C734 C735 1.524 . S
C734 C748 1.377 . S
C735 C734 1.524 . S
C735 C736 1.397 . S
C735 C740 1.363 . S
C736 H713 0.950 . S
C736 C735 1.397 . S
C736 C737 1.334 . S
C737 H714 0.950 . S
C737 C736 1.334 . S
C737 C738 1.287 . S
C738 C737 1.287 . S
C738 C739 1.524 . S
C738 H757 0.913 . S
C739 H715 0.950 . S
C739 C738 1.524 . S
C739 C740 1.415 . S
C740 H716 0.950 . S
C740 C735 1.363 . S
C740 C739 1.415 . S
C741 H717 0.951 . S
C741 C742 1.366 . S
C741 C743 1.388 . S
C742 C741 1.366 . S
C742 C746 1.385 . S
C743 H718 0.951 . S
C743 C741 1.388 . S
C743 C744 1.366 . S
C744 C743 1.366 . S
C744 C745 1.414 . S
C744 C747 1.499 . S
C745 H719 0.950 . S
C745 C744 1.414 . S
C745 C746 1.374 . S
C746 H720 0.950 . S
C746 C742 1.385 . S
C746 C745 1.374 . S
C747 C744 1.499 . S
C747 C748 1.373 . S
C747 C749 1.389 . S
C748 H721 0.950 . S
C748 C734 1.377 . S
C748 C747 1.373 . S
C749 C733 1.377 . S
C749 C747 1.389 . S
C749 C750 1.524 . S
C750 C749 1.524 . S
C750 C751 1.397 . S
C750 C755 1.363 . S
C751 H722 0.950 . S
C751 C750 1.397 . S
C751 C752 1.334 1_655 S
C752 H723 0.950 . S
C752 C751 1.334 1_455 S
C752 C753 1.287 . S
C753 C752 1.287 . S
C753 C754 1.524 . S
C753 H756 0.999 . S
C754 H724 0.950 . S
C754 C753 1.524 . S
C754 C755 1.415 1_455 S
C755 H725 0.950 . S
C755 C750 1.363 . S
C755 C754 1.415 1_655 S
H756 C753 0.999 . S
H757 C738 0.913 . S
H758 C776 0.951 . S
H759 C778 0.951 . S
H760 C780 0.950 . S
H761 C781 0.950 . S
H762 C783 0.950 . S
H763 C786 0.950 . S
H764 C787 0.950 . S
H765 C789 0.950 . S
H766 C790 0.950 . S
H767 C791 0.951 . S
H768 C793 0.951 . S
H769 C795 0.950 . S
H770 C796 0.950 . S
H771 C798 0.950 . S
H772 C801 0.950 . S
H773 C802 0.950 1_545 S
H774 C804 0.950 . S
H775 C805 0.950 . S
C776 H758 0.951 . S
C776 C777 1.366 . S
C776 C778 1.388 . S
C777 C776 1.366 . S
C777 C781 1.385 . S
C778 H759 0.951 . S
C778 C776 1.388 . S
C778 C779 1.366 . S
C779 C778 1.366 . S
C779 C780 1.414 . S
C779 C782 1.499 . S
C780 H760 0.950 . S
C780 C779 1.414 . S
C780 C781 1.374 . S
C781 H761 0.950 . S
C781 C777 1.385 . S
C781 C780 1.374 . S
C782 C779 1.499 . S
C782 C783 1.373 . S
C782 C784 1.389 . S
C783 H762 0.950 . S
C783 C782 1.373 . S
C783 C799 1.377 . S
C784 C782 1.389 . S
C784 C785 1.524 . S
C784 C798 1.377 . S
C785 C784 1.524 . S
C785 C786 1.397 . S
C785 C790 1.363 . S
C786 H763 0.950 . S
C786 C785 1.397 . S
C786 C787 1.334 . S
C787 H764 0.950 . S
C787 C786 1.334 . S
C787 C788 1.287 . S
C788 C787 1.287 . S
C788 C789 1.524 . S
C788 H807 0.913 . S
C789 H765 0.950 . S
C789 C788 1.524 . S
C789 C790 1.415 . S
C790 H766 0.950 . S
C790 C785 1.363 . S
C790 C789 1.415 . S
C791 H767 0.951 . S
C791 C792 1.366 . S
C791 C793 1.388 . S
C792 C791 1.366 . S
C792 C796 1.385 . S
C793 H768 0.951 . S
C793 C791 1.388 . S
C793 C794 1.366 . S
C794 C793 1.366 . S
C794 C795 1.414 . S
C794 C797 1.499 . S
C795 H769 0.950 . S
C795 C794 1.414 . S
C795 C796 1.374 . S
C796 H770 0.950 . S
C796 C792 1.385 . S
C796 C795 1.374 . S
C797 C794 1.499 . S
C797 C798 1.373 . S
C797 C799 1.389 . S
C798 H771 0.950 . S
C798 C784 1.377 . S
C798 C797 1.373 . S
C799 C783 1.377 . S
C799 C797 1.389 . S
C799 C800 1.524 . S
C800 C799 1.524 . S
C800 C801 1.397 . S
C800 C805 1.363 . S
C801 H772 0.950 . S
C801 C800 1.397 . S
C801 C802 1.334 . S
C802 H773 0.950 1_565 S
C802 C801 1.334 . S
C802 C803 1.287 . S
C803 C802 1.287 . S
C803 C804 1.524 . S
C803 H806 0.999 1_565 S
C804 H774 0.950 . S
C804 C803 1.524 . S
C804 C805 1.415 . S
C805 H775 0.950 . S
C805 C800 1.363 . S
C805 C804 1.415 . S
H806 C803 0.999 1_545 S
H807 C788 0.913 . S
H808 C826 0.951 . S
H809 C828 0.951 . S
H810 C830 0.950 . S
H811 C831 0.950 1_545 S
H812 C833 0.950 . S
H813 C836 0.950 . S
H814 C837 0.950 . S
H815 C839 0.950 . S
H816 C840 0.950 . S
H817 C841 0.951 . S
H818 C843 0.951 . S
H819 C845 0.950 . S
H820 C846 0.950 . S
H821 C848 0.950 . S
H822 C851 0.950 . S
H823 C852 0.950 . S
H824 C854 0.950 1_545 S
H825 C855 0.950 . S
C826 H808 0.951 . S
C826 C827 1.366 . S
C826 C828 1.388 . S
C827 C826 1.366 . S
C827 C831 1.385 . S
C828 H809 0.951 . S
C828 C826 1.388 . S
C828 C829 1.366 . S
C829 C828 1.366 . S
C829 C830 1.414 . S
C829 C832 1.499 . S
C830 H810 0.950 . S
C830 C829 1.414 . S
C830 C831 1.374 . S
C831 H811 0.950 1_565 S
C831 C827 1.385 . S
C831 C830 1.374 . S
C832 C829 1.499 . S
C832 C833 1.373 . S
C832 C834 1.389 . S
C833 H812 0.950 . S
C833 C832 1.373 . S
C833 C849 1.377 . S
C834 C832 1.389 . S
C834 C835 1.524 . S
C834 C848 1.377 . S
C835 C834 1.524 . S
C835 C836 1.397 . S
C835 C840 1.363 . S
C836 H813 0.950 . S
C836 C835 1.397 . S
C836 C837 1.334 . S
C837 H814 0.950 . S
C837 C836 1.334 . S
C837 C838 1.287 . S
C838 C837 1.287 . S
C838 C839 1.524 . S
C838 H857 0.913 . S
C839 H815 0.950 . S
C839 C838 1.524 . S
C839 C840 1.415 . S
C840 H816 0.950 . S
C840 C835 1.363 . S
C840 C839 1.415 . S
C841 H817 0.951 . S
C841 C842 1.366 . S
C841 C843 1.388 . S
C842 C841 1.366 . S
C842 C846 1.385 . S
C843 H818 0.951 . S
C843 C841 1.388 . S
C843 C844 1.366 . S
C844 C843 1.366 . S
C844 C845 1.414 . S
C844 C847 1.499 . S
C845 H819 0.950 . S
C845 C844 1.414 . S
C845 C846 1.374 . S
C846 H820 0.950 . S
C846 C842 1.385 . S
C846 C845 1.374 . S
C847 C844 1.499 . S
C847 C848 1.373 . S
C847 C849 1.389 . S
C848 H821 0.950 . S
C848 C834 1.377 . S
C848 C847 1.373 . S
C849 C833 1.377 . S
C849 C847 1.389 . S
C849 C850 1.524 . S
C850 C849 1.524 . S
C850 C851 1.397 . S
C850 C855 1.363 . S
C851 H822 0.950 . S
C851 C850 1.397 . S
C851 C852 1.334 . S
C852 H823 0.950 . S
C852 C851 1.334 . S
C852 C853 1.287 . S
C853 C852 1.287 . S
C853 C854 1.524 . S
C853 H856 0.999 . S
C854 H824 0.950 1_565 S
C854 C853 1.524 . S
C854 C855 1.415 . S
C855 H825 0.950 . S
C855 C850 1.363 . S
C855 C854 1.415 . S
H856 C853 0.999 . S
H857 C838 0.913 . S
H858 C876 0.951 . S
H859 C878 0.951 . S
H860 C880 0.950 . S
H861 C881 0.950 . S
H862 C883 0.950 . S
H863 C886 0.950 . S
H864 C887 0.950 . S
H865 C889 0.950 . S
H866 C890 0.950 . S
H867 C891 0.951 . S
H868 C893 0.951 . S
H869 C895 0.950 . S
H870 C896 0.950 . S
H871 C898 0.950 . S
H872 C901 0.950 . S
H873 C902 0.953 . S
H874 C904 0.950 . S
H875 C905 0.950 . S
C876 H858 0.951 . S
C876 C877 1.366 . S
C876 C878 1.388 . S
C877 C876 1.366 . S
C877 C881 1.385 . S
C878 H859 0.951 . S
C878 C876 1.388 . S
C878 C879 1.366 . S
C879 C878 1.366 . S
C879 C880 1.414 . S
C879 C882 1.499 . S
C880 H860 0.950 . S
C880 C879 1.414 . S
C880 C881 1.374 . S
C881 H861 0.950 . S
C881 C877 1.385 . S
C881 C880 1.374 . S
C882 C879 1.499 . S
C882 C883 1.373 . S
C882 C884 1.389 . S
C883 H862 0.950 . S
C883 C882 1.373 . S
C883 C899 1.377 . S
C884 C882 1.389 . S
C884 C885 1.524 . S
C884 C898 1.377 . S
C885 C884 1.524 . S
C885 C886 1.397 . S
C885 C890 1.363 . S
C886 H863 0.950 . S
C886 C885 1.397 . S
C886 C887 1.334 . S
C887 H864 0.950 . S
C887 C886 1.334 . S
C887 C888 1.287 . S
C888 C887 1.287 . S
C888 C889 1.524 . S
C888 H907 0.913 . S
C889 H865 0.950 . S
C889 C888 1.524 . S
C889 C890 1.415 . S
C890 H866 0.950 . S
C890 C885 1.363 . S
C890 C889 1.415 . S
C891 H867 0.951 . S
C891 C892 1.366 . S
C891 C893 1.388 . S
C892 C891 1.366 . S
C892 C896 1.385 . S
C893 H868 0.951 . S
C893 C891 1.388 . S
C893 C894 1.366 . S
C894 C893 1.366 . S
C894 C895 1.414 . S
C894 C897 1.499 . S
C895 H869 0.950 . S
C895 C894 1.414 . S
C895 C896 1.374 . S
C896 H870 0.950 . S
C896 C892 1.385 . S
C896 C895 1.374 . S
C897 C894 1.499 . S
C897 C898 1.373 . S
C897 C899 1.389 . S
C898 H871 0.950 . S
C898 C884 1.377 . S
C898 C897 1.373 . S
C899 C883 1.377 . S
C899 C897 1.389 . S
C899 C900 1.524 . S
C900 C899 1.524 . S
C900 C901 1.397 . S
C900 C905 1.363 1_455 S
C901 H872 0.950 . S
C901 C900 1.397 . S
C901 C902 1.334 1_455 S
C902 H873 0.953 . S
C902 C901 1.334 1_655 S
C902 C903 1.287 . S
C903 C902 1.287 . S
C903 C904 1.524 . S
C903 H906 0.999 . S
C904 H874 0.950 . S
C904 C903 1.524 . S
C904 C905 1.415 . S
C905 H875 0.950 . S
C905 C900 1.363 1_655 S
C905 C904 1.415 . S
H906 C903 0.999 . S
H907 C888 0.913 . S
H908 C926 0.951 . S
H909 C928 0.951 . S
H910 C930 0.950 . S
H911 C931 0.950 . S
H912 C933 0.950 . S
H913 C936 0.950 . S
H914 C937 0.950 . S
H915 C939 0.950 . S
H916 C940 0.950 . S
H917 C941 0.951 . S
H918 C943 0.951 . S
H919 C945 0.950 . S
H920 C946 0.950 . S
H921 C948 0.950 . S
H922 C951 0.950 . S
H923 C952 0.950 . S
H924 C954 0.950 . S
H925 C955 0.950 . S
C926 H908 0.951 . S
C926 C927 1.366 . S
C926 C928 1.388 . S
C927 C926 1.366 . S
C927 C931 1.385 . S
C928 H909 0.951 . S
C928 C926 1.388 . S
C928 C929 1.366 . S
C929 C928 1.366 . S
C929 C930 1.414 . S
C929 C932 1.499 . S
C930 H910 0.950 . S
C930 C929 1.414 . S
C930 C931 1.374 . S
C931 H911 0.950 . S
C931 C927 1.385 . S
C931 C930 1.374 . S
C932 C929 1.499 . S
C932 C933 1.373 . S
C932 C934 1.389 . S
C933 H912 0.950 . S
C933 C932 1.373 . S
C933 C949 1.377 . S
C934 C932 1.389 . S
C934 C935 1.524 . S
C934 C948 1.377 . S
C935 C934 1.524 . S
C935 C936 1.397 . S
C935 C940 1.363 . S
C936 H913 0.950 . S
C936 C935 1.397 . S
C936 C937 1.334 . S
C937 H914 0.950 . S
C937 C936 1.334 . S
C937 C938 1.287 . S
C938 C937 1.287 . S
C938 C939 1.524 . S
C938 H957 0.913 . S
C939 H915 0.950 . S
C939 C938 1.524 . S
C939 C940 1.415 . S
C940 H916 0.950 . S
C940 C935 1.363 . S
C940 C939 1.415 . S
C941 H917 0.951 . S
C941 C942 1.366 . S
C941 C943 1.388 . S
C942 C941 1.366 . S
C942 C946 1.385 . S
C943 H918 0.951 . S
C943 C941 1.388 . S
C943 C944 1.366 . S
C944 C943 1.366 . S
C944 C945 1.414 . S
C944 C947 1.499 . S
C945 H919 0.950 . S
C945 C944 1.414 . S
C945 C946 1.374 . S
C946 H920 0.950 . S
C946 C942 1.385 . S
C946 C945 1.374 . S
C947 C944 1.499 . S
C947 C948 1.373 . S
C947 C949 1.389 . S
C948 H921 0.950 . S
C948 C934 1.377 . S
C948 C947 1.373 . S
C949 C933 1.377 . S
C949 C947 1.389 . S
C949 C950 1.524 . S
C950 C949 1.524 . S
C950 C951 1.397 . S
C950 C955 1.363 . S
C951 H922 0.950 . S
C951 C950 1.397 . S
C951 C952 1.334 . S
C952 H923 0.950 . S
C952 C951 1.334 . S
C952 C953 1.287 . S
C953 C952 1.287 . S
C953 C954 1.524 . S
C953 H956 0.999 . S
C954 H924 0.950 . S
C954 C953 1.524 . S
C954 C955 1.415 . S
C955 H925 0.950 . S
C955 C950 1.363 . S
C955 C954 1.415 . S
H956 C953 0.999 . S
H957 C938 0.913 . S
H958 C976 0.951 . S
H959 C978 0.951 . S
H960 C980 0.950 . S
H961 C981 0.950 . S
H962 C983 0.950 . S
H963 C986 0.950 . S
H964 C987 0.950 . S
H965 C989 0.950 . S
H966 C990 0.950 . S
H967 C991 0.951 . S
H968 C993 0.951 . S
H969 C995 0.950 . S
H970 C996 0.950 . S
H971 C998 0.950 . S
H972 C1001 0.950 . S
H973 C1002 0.950 . S
H974 C1004 0.950 . S
H975 C1005 0.950 . S
C976 H958 0.951 . S
C976 C977 1.366 . S
C976 C978 1.388 . S
C977 C976 1.366 . S
C977 C981 1.385 . S
C978 H959 0.951 . S
C978 C976 1.388 . S
C978 C979 1.366 . S
C979 C978 1.366 . S
C979 C980 1.414 . S
C979 C982 1.499 . S
C980 H960 0.950 . S
C980 C979 1.414 . S
C980 C981 1.374 . S
C981 H961 0.950 . S
C981 C977 1.385 . S
C981 C980 1.374 . S
C982 C979 1.499 . S
C982 C983 1.373 . S
C982 C984 1.389 . S
C983 H962 0.950 . S
C983 C982 1.373 . S
C983 C999 1.377 . S
C984 C982 1.389 . S
C984 C985 1.524 . S
C984 C998 1.377 . S
C985 C984 1.524 . S
C985 C986 1.397 . S
C985 C990 1.363 . S
C986 H963 0.950 . S
C986 C985 1.397 . S
C986 C987 1.334 . S
C987 H964 0.950 . S
C987 C986 1.334 . S
C987 C988 1.287 . S
C988 C987 1.287 . S
C988 C989 1.524 . S
C988 H1007 0.913 . S
C989 H965 0.950 . S
C989 C988 1.524 . S
C989 C990 1.415 . S
C990 H966 0.950 . S
C990 C985 1.363 . S
C990 C989 1.415 . S
C991 H967 0.951 . S
C991 C992 1.366 . S
C991 C993 1.388 . S
C992 C991 1.366 . S
C992 C996 1.385 . S
C993 H968 0.951 . S
C993 C991 1.388 . S
C993 C994 1.366 . S
C994 C993 1.366 . S
C994 C995 1.414 . S
C994 C997 1.499 . S
C995 H969 0.950 . S
C995 C994 1.414 . S
C995 C996 1.374 . S
C996 H970 0.950 . S
C996 C992 1.385 . S
C996 C995 1.374 . S
C997 C994 1.499 . S
C997 C998 1.373 . S
C997 C999 1.389 . S
C998 H971 0.950 . S
C998 C984 1.377 . S
C998 C997 1.373 . S
C999 C983 1.377 . S
C999 C997 1.389 . S
C999 C1000 1.524 . S
C1000 C999 1.524 . S
C1000 C1001 1.397 . S
C1000 C1005 1.363 1_655 S
C1001 H972 0.950 . S
C1001 C1000 1.397 . S
C1001 C1002 1.334 . S
C1002 H973 0.950 . S
C1002 C1001 1.334 . S
C1002 C1003 1.287 1_655 S
C1003 C1002 1.287 1_455 S
C1003 C1004 1.524 . S
C1003 H1006 0.999 . S
C1004 H974 0.950 . S
C1004 C1003 1.524 . S
C1004 C1005 1.415 . S
C1005 H975 0.950 . S
C1005 C1000 1.363 1_455 S
C1005 C1004 1.415 . S
H1006 C1003 0.999 . S
H1007 C988 0.913 . S
H1008 C1026 0.951 . S
H1009 C1028 0.951 . S
H1010 C1030 0.950 . S
H1011 C1031 0.950 . S
H1012 C1033 0.950 . S
H1013 C1036 0.950 . S
H1014 C1037 0.950 . S
H1015 C1039 0.950 . S
H1016 C1040 0.950 . S
H1017 C1041 0.951 . S
H1018 C1043 0.951 . S
H1019 C1045 0.950 . S
H1020 C1046 0.950 . S
H1021 C1048 0.950 . S
H1022 C1051 0.950 . S
H1023 C1052 0.950 . S
H1024 C1054 0.950 . S
H1025 C1055 0.950 . S
C1026 H1008 0.951 . S
C1026 C1027 1.366 . S
C1026 C1028 1.388 . S
C1027 C1026 1.366 . S
C1027 C1031 1.385 . S
C1028 H1009 0.951 . S
C1028 C1026 1.388 . S
C1028 C1029 1.366 . S
C1029 C1028 1.366 . S
C1029 C1030 1.414 . S
C1029 C1032 1.499 . S
C1030 H1010 0.950 . S
C1030 C1029 1.414 . S
C1030 C1031 1.374 . S
C1031 H1011 0.950 . S
C1031 C1027 1.385 . S
C1031 C1030 1.374 . S
C1032 C1029 1.499 . S
C1032 C1033 1.373 . S
C1032 C1034 1.389 . S
C1033 H1012 0.950 . S
C1033 C1032 1.373 . S
C1033 C1049 1.377 . S
C1034 C1032 1.389 . S
C1034 C1035 1.524 . S
C1034 C1048 1.377 . S
C1035 C1034 1.524 . S
C1035 C1036 1.397 . S
C1035 C1040 1.363 . S
C1036 H1013 0.950 . S
C1036 C1035 1.397 . S
C1036 C1037 1.334 . S
C1037 H1014 0.950 . S
C1037 C1036 1.334 . S
C1037 C1038 1.287 . S
C1038 C1037 1.287 . S
C1038 C1039 1.524 . S
C1038 H1057 0.913 . S
C1039 H1015 0.950 . S
C1039 C1038 1.524 . S
C1039 C1040 1.415 . S
C1040 H1016 0.950 . S
C1040 C1035 1.363 . S
C1040 C1039 1.415 . S
C1041 H1017 0.951 . S
C1041 C1042 1.366 . S
C1041 C1043 1.388 . S
C1042 C1041 1.366 . S
C1042 C1046 1.385 . S
C1043 H1018 0.951 . S
C1043 C1041 1.388 . S
C1043 C1044 1.366 . S
C1044 C1043 1.366 . S
C1044 C1045 1.414 . S
C1044 C1047 1.499 . S
C1045 H1019 0.950 . S
C1045 C1044 1.414 . S
C1045 C1046 1.374 . S
C1046 H1020 0.950 . S
C1046 C1042 1.385 . S
C1046 C1045 1.374 . S
C1047 C1044 1.499 . S
C1047 C1048 1.373 . S
C1047 C1049 1.389 . S
C1048 H1021 0.950 . S
C1048 C1034 1.377 . S
C1048 C1047 1.373 . S
C1049 C1033 1.377 . S
C1049 C1047 1.389 . S
C1049 C1050 1.524 . S
C1050 C1049 1.524 . S
C1050 C1051 1.397 . S
C1050 C1055 1.363 . S
C1051 H1022 0.950 . S
C1051 C1050 1.397 . S
C1051 C1052 1.334 . S
C1052 H1023 0.950 . S
C1052 C1051 1.334 . S
C1052 C1053 1.287 . S
C1053 C1052 1.287 . S
C1053 C1054 1.524 . S
C1053 H1056 0.999 . S
C1054 H1024 0.950 . S
C1054 C1053 1.524 . S
C1054 C1055 1.415 . S
C1055 H1025 0.950 . S
C1055 C1050 1.363 . S
C1055 C1054 1.415 . S
H1056 C1053 0.999 . S
H1057 C1038 0.913 . S
H1058 C1076 0.951 . S
H1059 C1078 0.951 . S
H1060 C1080 0.950 . S
H1061 C1081 0.950 . S
H1062 C1083 0.950 . S
H1063 C1086 0.950 . S
H1064 C1087 0.950 . S
H1065 C1089 0.950 . S
H1066 C1090 0.950 . S
H1067 C1091 0.951 . S
H1068 C1093 0.951 . S
H1069 C1095 0.950 . S
H1070 C1096 0.950 . S
H1071 C1098 0.950 . S
H1072 C1101 0.950 . S
H1073 C1102 0.950 . S
H1074 C1104 0.950 . S
H1075 C1105 0.950 . S
C1076 H1058 0.951 . S
C1076 C1077 1.366 . S
C1076 C1078 1.388 . S
C1077 C1076 1.366 . S
C1077 C1081 1.385 . S
C1078 H1059 0.951 . S
C1078 C1076 1.388 . S
C1078 C1079 1.366 . S
C1079 C1078 1.366 . S
C1079 C1080 1.414 . S
C1079 C1082 1.499 . S
C1080 H1060 0.950 . S
C1080 C1079 1.414 . S
C1080 C1081 1.374 . S
C1081 H1061 0.950 . S
C1081 C1077 1.385 . S
C1081 C1080 1.374 . S
C1082 C1079 1.499 . S
C1082 C1083 1.373 . S
C1082 C1084 1.389 . S
C1083 H1062 0.950 . S
C1083 C1082 1.373 . S
C1083 C1099 1.377 . S
C1084 C1082 1.389 . S
C1084 C1085 1.524 . S
C1084 C1098 1.377 . S
C1085 C1084 1.524 . S
C1085 C1086 1.397 . S
C1085 C1090 1.363 . S
C1086 H1063 0.950 . S
C1086 C1085 1.397 . S
C1086 C1087 1.334 . S
C1087 H1064 0.950 . S
C1087 C1086 1.334 . S
C1087 C1088 1.287 . S
C1088 C1087 1.287 . S
C1088 C1089 1.524 . S
C1088 H1107 0.913 . S
C1089 H1065 0.950 . S
C1089 C1088 1.524 . S
C1089 C1090 1.415 . S
C1090 H1066 0.950 . S
C1090 C1085 1.363 . S
C1090 C1089 1.415 . S
C1091 H1067 0.951 . S
C1091 C1092 1.366 . S
C1091 C1093 1.388 . S
C1092 C1091 1.366 . S
C1092 C1096 1.385 . S
C1093 H1068 0.951 . S
C1093 C1091 1.388 . S
C1093 C1094 1.366 . S
C1094 C1093 1.366 . S
C1094 C1095 1.414 . S
C1094 C1097 1.499 . S
C1095 H1069 0.950 . S
C1095 C1094 1.414 . S
C1095 C1096 1.374 . S
C1096 H1070 0.950 . S
C1096 C1092 1.385 . S
C1096 C1095 1.374 . S
C1097 C1094 1.499 . S
C1097 C1098 1.373 . S
C1097 C1099 1.389 . S
C1098 H1071 0.950 . S
C1098 C1084 1.377 . S
C1098 C1097 1.373 . S
C1099 C1083 1.377 . S
C1099 C1097 1.389 . S
C1099 C1100 1.524 . S
C1100 C1099 1.524 . S
C1100 C1101 1.397 . S
C1100 C1105 1.363 . S
C1101 H1072 0.950 . S
C1101 C1100 1.397 . S
C1101 C1102 1.334 . S
C1102 H1073 0.950 . S
C1102 C1101 1.334 . S
C1102 C1103 1.287 . S
C1103 C1102 1.287 . S
C1103 C1104 1.524 . S
C1103 H1106 0.999 . S
C1104 H1074 0.950 . S
C1104 C1103 1.524 . S
C1104 C1105 1.415 . S
C1105 H1075 0.950 . S
C1105 C1100 1.363 . S
C1105 C1104 1.415 . S
H1106 C1103 0.999 . S
H1107 C1088 0.913 . S
H1108 C1126 0.951 . S
H1109 C1128 0.951 . S
H1110 C1130 0.950 . S
H1111 C1131 0.950 . S
H1112 C1133 0.950 . S
H1113 C1136 0.950 . S
H1114 C1137 0.950 . S
H1115 C1139 0.950 . S
H1116 C1140 0.950 . S
H1117 C1141 0.951 . S
H1118 C1143 0.951 . S
H1119 C1145 0.950 . S
H1120 C1146 0.950 . S
H1121 C1148 0.950 . S
H1122 C1151 0.950 . S
H1123 C1152 0.950 . S
H1124 C1154 0.950 . S
H1125 C1155 0.950 . S
C1126 H1108 0.951 . S
C1126 C1127 1.366 . S
C1126 C1128 1.388 . S
C1127 C1126 1.366 . S
C1127 C1131 1.385 . S
C1128 H1109 0.951 . S
C1128 C1126 1.388 . S
C1128 C1129 1.366 . S
C1129 C1128 1.366 . S
C1129 C1130 1.414 . S
C1129 C1132 1.499 . S
C1130 H1110 0.950 . S
C1130 C1129 1.414 . S
C1130 C1131 1.374 . S
C1131 H1111 0.950 . S
C1131 C1127 1.385 . S
C1131 C1130 1.374 . S
C1132 C1129 1.499 . S
C1132 C1133 1.373 . S
C1132 C1134 1.389 . S
C1133 H1112 0.950 . S
C1133 C1132 1.373 . S
C1133 C1149 1.377 . S
C1134 C1132 1.389 . S
C1134 C1135 1.524 . S
C1134 C1148 1.377 . S
C1135 C1134 1.524 . S
C1135 C1136 1.397 . S
C1135 C1140 1.363 . S
C1136 H1113 0.950 . S
C1136 C1135 1.397 . S
C1136 C1137 1.334 . S
C1137 H1114 0.950 . S
C1137 C1136 1.334 . S
C1137 C1138 1.287 . S
C1138 C1137 1.287 . S
C1138 C1139 1.524 . S
C1138 H1157 0.913 . S
C1139 H1115 0.950 . S
C1139 C1138 1.524 . S
C1139 C1140 1.415 . S
C1140 H1116 0.950 . S
C1140 C1135 1.363 . S
C1140 C1139 1.415 . S
C1141 H1117 0.951 . S
C1141 C1142 1.366 . S
C1141 C1143 1.388 . S
C1142 C1141 1.366 . S
C1142 C1146 1.385 . S
C1143 H1118 0.951 . S
C1143 C1141 1.388 . S
C1143 C1144 1.366 . S
C1144 C1143 1.366 . S
C1144 C1145 1.414 . S
C1144 C1147 1.499 . S
C1145 H1119 0.950 . S
C1145 C1144 1.414 . S
C1145 C1146 1.374 . S
C1146 H1120 0.950 . S
C1146 C1142 1.385 . S
C1146 C1145 1.374 . S
C1147 C1144 1.499 . S
C1147 C1148 1.373 . S
C1147 C1149 1.389 . S
C1148 H1121 0.950 . S
C1148 C1134 1.377 . S
C1148 C1147 1.373 . S
C1149 C1133 1.377 . S
C1149 C1147 1.389 . S
C1149 C1150 1.524 . S
C1150 C1149 1.524 . S
C1150 C1151 1.397 . S
C1150 C1155 1.363 . S
C1151 H1122 0.950 . S
C1151 C1150 1.397 . S
C1151 C1152 1.334 . S
C1152 H1123 0.950 . S
C1152 C1151 1.334 . S
C1152 C1153 1.287 . S
C1153 C1152 1.287 . S
C1153 C1154 1.524 . S
C1153 H1156 0.999 . S
C1154 H1124 0.950 . S
C1154 C1153 1.524 . S
C1154 C1155 1.415 . S
C1155 H1125 0.950 . S
C1155 C1150 1.363 . S
C1155 C1154 1.415 . S
H1156 C1153 0.999 . S
H1157 C1138 0.913 . S
H1158 C1176 0.951 . S
H1159 C1178 0.951 . S
H1160 C1180 0.950 . S
H1161 C1181 0.950 . S
H1162 C1183 0.950 . S
H1163 C1186 0.950 . S
H1164 C1187 0.950 . S
H1165 C1189 0.950 . S
H1166 C1190 0.950 . S
H1167 C1191 0.951 . S
H1168 C1193 0.951 . S
H1169 C1195 0.950 . S
H1170 C1196 0.950 . S
H1171 C1198 0.950 . S
H1172 C1201 0.950 . S
H1173 C1202 0.950 . S
H1174 C1204 0.950 . S
H1175 C1205 0.950 . S
C1176 H1158 0.951 . S
C1176 C1177 1.366 . S
C1176 C1178 1.388 . S
C1177 C1176 1.366 . S
C1177 C1181 1.385 . S
C1178 H1159 0.951 . S
C1178 C1176 1.388 . S
C1178 C1179 1.366 . S
C1179 C1178 1.366 . S
C1179 C1180 1.414 . S
C1179 C1182 1.499 . S
C1180 H1160 0.950 . S
C1180 C1179 1.414 . S
C1180 C1181 1.374 . S
C1181 H1161 0.950 . S
C1181 C1177 1.385 . S
C1181 C1180 1.374 . S
C1182 C1179 1.499 . S
C1182 C1183 1.373 . S
C1182 C1184 1.389 . S
C1183 H1162 0.950 . S
C1183 C1182 1.373 . S
C1183 C1199 1.377 . S
C1184 C1182 1.389 . S
C1184 C1185 1.524 . S
C1184 C1198 1.377 . S
C1185 C1184 1.524 . S
C1185 C1186 1.397 . S
C1185 C1190 1.363 . S
C1186 H1163 0.950 . S
C1186 C1185 1.397 . S
C1186 C1187 1.334 . S
C1187 H1164 0.950 . S
C1187 C1186 1.334 . S
C1187 C1188 1.287 . S
C1188 C1187 1.287 . S
C1188 C1189 1.524 . S
C1188 H1207 0.913 . S
C1189 H1165 0.950 . S
C1189 C1188 1.524 . S
C1189 C1190 1.415 . S
C1190 H1166 0.950 . S
C1190 C1185 1.363 . S
C1190 C1189 1.415 . S
C1191 H1167 0.951 . S
C1191 C1192 1.366 . S
C1191 C1193 1.388 . S
C1192 C1191 1.366 . S
C1192 C1196 1.385 . S
C1193 H1168 0.951 . S
C1193 C1191 1.388 . S
C1193 C1194 1.366 . S
C1194 C1193 1.366 . S
C1194 C1195 1.414 . S
C1194 C1197 1.499 . S
C1195 H1169 0.950 . S
C1195 C1194 1.414 . S
C1195 C1196 1.374 . S
C1196 H1170 0.950 . S
C1196 C1192 1.385 . S
C1196 C1195 1.374 . S
C1197 C1194 1.499 . S
C1197 C1198 1.373 . S
C1197 C1199 1.389 . S
C1198 H1171 0.950 . S
C1198 C1184 1.377 . S
C1198 C1197 1.373 . S
C1199 C1183 1.377 . S
C1199 C1197 1.389 . S
C1199 C1200 1.524 . S
C1200 C1199 1.524 . S
C1200 C1201 1.397 . S
C1200 C1205 1.363 . S
C1201 H1172 0.950 . S
C1201 C1200 1.397 . S
C1201 C1202 1.334 . S
C1202 H1173 0.950 . S
C1202 C1201 1.334 . S
C1202 C1203 1.287 . S
C1203 C1202 1.287 . S
C1203 C1204 1.524 . S
C1203 H1206 0.999 . S
C1204 H1174 0.950 . S
C1204 C1203 1.524 . S
C1204 C1205 1.415 . S
C1205 H1175 0.950 . S
C1205 C1200 1.363 . S
C1205 C1204 1.415 . S
H1206 C1203 0.999 . S
H1207 C1188 0.913 . S
H1208 C1226 0.951 . S
H1209 C1228 0.951 . S
H1210 C1230 0.950 . S
H1211 C1231 0.950 . S
H1212 C1233 0.950 . S
H1213 C1236 0.950 . S
H1214 C1237 0.950 . S
H1215 C1239 0.950 . S
H1216 C1240 0.950 . S
H1217 C1241 0.951 . S
H1218 C1243 0.951 . S
H1219 C1245 0.950 . S
H1220 C1246 0.950 . S
H1221 C1248 0.950 . S
H1222 C1251 0.950 . S
H1223 C1252 0.950 . S
H1224 C1254 0.950 . S
H1225 C1255 0.950 . S
C1226 H1208 0.951 . S
C1226 C1227 1.366 . S
C1226 C1228 1.388 . S
C1227 C1226 1.366 . S
C1227 C1231 1.385 . S
C1228 H1209 0.951 . S
C1228 C1226 1.388 . S
C1228 C1229 1.366 . S
C1229 C1228 1.366 . S
C1229 C1230 1.414 . S
C1229 C1232 1.499 . S
C1230 H1210 0.950 . S
C1230 C1229 1.414 . S
C1230 C1231 1.374 . S
C1231 H1211 0.950 . S
C1231 C1227 1.385 . S
C1231 C1230 1.374 . S
C1232 C1229 1.499 . S
C1232 C1233 1.373 . S
C1232 C1234 1.389 . S
C1233 H1212 0.950 . S
C1233 C1232 1.373 . S
C1233 C1249 1.377 . S
C1234 C1232 1.389 . S
C1234 C1235 1.524 . S
C1234 C1248 1.377 . S
C1235 C1234 1.524 . S
C1235 C1236 1.397 . S
C1235 C1240 1.363 . S
C1236 H1213 0.950 . S
C1236 C1235 1.397 . S
C1236 C1237 1.334 . S
C1237 H1214 0.950 . S
C1237 C1236 1.334 . S
C1237 C1238 1.287 . S
C1238 C1237 1.287 . S
C1238 C1239 1.524 . S
C1238 H1257 0.913 . S
C1239 H1215 0.950 . S
C1239 C1238 1.524 . S
C1239 C1240 1.415 . S
C1240 H1216 0.950 . S
C1240 C1235 1.363 . S
C1240 C1239 1.415 . S
C1241 H1217 0.951 . S
C1241 C1242 1.366 . S
C1241 C1243 1.388 . S
C1242 C1241 1.366 . S
C1242 C1246 1.385 . S
C1243 H1218 0.951 . S
C1243 C1241 1.388 . S
C1243 C1244 1.366 . S
C1244 C1243 1.366 . S
C1244 C1245 1.414 . S
C1244 C1247 1.499 . S
C1245 H1219 0.950 . S
C1245 C1244 1.414 . S
C1245 C1246 1.374 . S
C1246 H1220 0.950 . S
C1246 C1242 1.385 . S
C1246 C1245 1.374 . S
C1247 C1244 1.499 . S
C1247 C1248 1.373 . S
C1247 C1249 1.389 . S
C1248 H1221 0.950 . S
C1248 C1234 1.377 . S
C1248 C1247 1.373 . S
C1249 C1233 1.377 . S
C1249 C1247 1.389 . S
C1249 C1250 1.524 . S
C1250 C1249 1.524 . S
C1250 C1251 1.397 . S
C1250 C1255 1.363 . S
C1251 H1222 0.950 . S
C1251 C1250 1.397 . S
C1251 C1252 1.334 . S
C1252 H1223 0.950 . S
C1252 C1251 1.334 . S
C1252 C1253 1.287 . S
C1253 C1252 1.287 . S
C1253 C1254 1.524 . S
C1253 H1256 0.999 . S
C1254 H1224 0.950 . S
C1254 C1253 1.524 . S
C1254 C1255 1.415 . S
C1255 H1225 0.950 . S
C1255 C1250 1.363 . S
C1255 C1254 1.415 . S
H1256 C1253 0.999 . S
H1257 C1238 0.913 . S
H1258 C1276 0.951 . S
H1259 C1278 0.951 . S
H1260 C1280 0.950 . S
H1261 C1281 0.950 . S
H1262 C1283 0.950 . S
H1263 C1286 0.950 . S
H1264 C1287 0.950 . S
H1265 C1289 0.950 . S
H1266 C1290 0.950 . S
H1267 C1291 0.951 . S
H1268 C1293 0.951 . S
H1269 C1295 0.950 . S
H1270 C1296 0.950 . S
H1271 C1298 0.950 . S
H1272 C1301 0.950 . S
H1273 C1302 0.950 . S
H1274 C1304 0.950 . S
H1275 C1305 0.950 . S
C1276 H1258 0.951 . S
C1276 C1277 1.366 . S
C1276 C1278 1.388 . S
C1277 C1276 1.366 . S
C1277 C1281 1.385 . S
C1278 H1259 0.951 . S
C1278 C1276 1.388 . S
C1278 C1279 1.366 . S
C1279 C1278 1.366 . S
C1279 C1280 1.414 . S
C1279 C1282 1.499 . S
C1280 H1260 0.950 . S
C1280 C1279 1.414 . S
C1280 C1281 1.374 . S
C1281 H1261 0.950 . S
C1281 C1277 1.385 . S
C1281 C1280 1.374 . S
C1282 C1279 1.499 . S
C1282 C1283 1.373 . S
C1282 C1284 1.389 . S
C1283 H1262 0.950 . S
C1283 C1282 1.373 . S
C1283 C1299 1.377 . S
C1284 C1282 1.389 . S
C1284 C1285 1.524 . S
C1284 C1298 1.377 . S
C1285 C1284 1.524 . S
C1285 C1286 1.397 . S
C1285 C1290 1.363 . S
C1286 H1263 0.950 . S
C1286 C1285 1.397 . S
C1286 C1287 1.334 . S
C1287 H1264 0.950 . S
C1287 C1286 1.334 . S
C1287 C1288 1.287 . S
C1288 C1287 1.287 . S
C1288 C1289 1.524 . S
C1288 H1307 0.913 . S
C1289 H1265 0.950 . S
C1289 C1288 1.524 . S
C1289 C1290 1.415 . S
C1290 H1266 0.950 . S
C1290 C1285 1.363 . S
C1290 C1289 1.415 . S
C1291 H1267 0.951 . S
C1291 C1292 1.366 . S
C1291 C1293 1.388 . S
C1292 C1291 1.366 . S
C1292 C1296 1.385 . S
C1293 H1268 0.951 . S
C1293 C1291 1.388 . S
C1293 C1294 1.366 . S
C1294 C1293 1.366 . S
C1294 C1295 1.414 . S
C1294 C1297 1.499 . S
C1295 H1269 0.950 . S
C1295 C1294 1.414 . S
C1295 C1296 1.374 . S
C1296 H1270 0.950 . S
C1296 C1292 1.385 . S
C1296 C1295 1.374 . S
C1297 C1294 1.499 . S
C1297 C1298 1.373 . S
C1297 C1299 1.389 . S
C1298 H1271 0.950 . S
C1298 C1284 1.377 . S
C1298 C1297 1.373 . S
C1299 C1283 1.377 . S
C1299 C1297 1.389 . S
C1299 C1300 1.524 . S
C1300 C1299 1.524 . S
C1300 C1301 1.397 . S
C1300 C1305 1.363 . S
C1301 H1272 0.950 . S
C1301 C1300 1.397 . S
C1301 C1302 1.334 . S
C1302 H1273 0.950 . S
C1302 C1301 1.334 . S
C1302 C1303 1.287 . S
C1303 C1302 1.287 . S
C1303 C1304 1.524 . S
C1303 H1306 0.999 . S
C1304 H1274 0.950 . S
C1304 C1303 1.524 . S
C1304 C1305 1.415 . S
C1305 H1275 0.950 . S
C1305 C1300 1.363 . S
C1305 C1304 1.415 . S
H1306 C1303 0.999 . S
H1307 C1288 0.913 . S
H1308 C1326 0.951 . S
H1309 C1328 0.951 . S
H1310 C1330 0.950 . S
H1311 C1331 0.950 . S
H1312 C1333 0.950 . S
H1313 C1336 0.950 . S
H1314 C1337 0.950 . S
H1315 C1339 0.950 . S
H1316 C1340 0.950 . S
H1317 C1341 0.951 . S
H1318 C1343 0.951 . S
H1319 C1345 0.950 . S
H1320 C1346 0.950 . S
H1321 C1348 0.950 . S
H1322 C1351 0.950 . S
H1323 C1352 0.950 . S
H1324 C1354 0.950 . S
H1325 C1355 0.950 . S
C1326 H1308 0.951 . S
C1326 C1327 1.366 . S
C1326 C1328 1.388 . S
C1327 C1326 1.366 . S
C1327 C1331 1.385 . S
C1328 H1309 0.951 . S
C1328 C1326 1.388 . S
C1328 C1329 1.366 . S
C1329 C1328 1.366 . S
C1329 C1330 1.414 . S
C1329 C1332 1.499 . S
C1330 H1310 0.950 . S
C1330 C1329 1.414 . S
C1330 C1331 1.374 . S
C1331 H1311 0.950 . S
C1331 C1327 1.385 . S
C1331 C1330 1.374 . S
C1332 C1329 1.499 . S
C1332 C1333 1.373 . S
C1332 C1334 1.389 . S
C1333 H1312 0.950 . S
C1333 C1332 1.373 . S
C1333 C1349 1.377 . S
C1334 C1332 1.389 . S
C1334 C1335 1.524 . S
C1334 C1348 1.377 . S
C1335 C1334 1.524 . S
C1335 C1336 1.397 . S
C1335 C1340 1.363 . S
C1336 H1313 0.950 . S
C1336 C1335 1.397 . S
C1336 C1337 1.334 . S
C1337 H1314 0.950 . S
C1337 C1336 1.334 . S
C1337 C1338 1.287 . S
C1338 C1337 1.287 . S
C1338 C1339 1.524 . S
C1338 H1357 0.913 . S
C1339 H1315 0.950 . S
C1339 C1338 1.524 . S
C1339 C1340 1.415 . S
C1340 H1316 0.950 . S
C1340 C1335 1.363 . S
C1340 C1339 1.415 . S
C1341 H1317 0.951 . S
C1341 C1342 1.366 . S
C1341 C1343 1.388 . S
C1342 C1341 1.366 . S
C1342 C1346 1.385 . S
C1343 H1318 0.951 . S
C1343 C1341 1.388 . S
C1343 C1344 1.366 . S
C1344 C1343 1.366 . S
C1344 C1345 1.414 . S
C1344 C1347 1.499 . S
C1345 H1319 0.950 . S
C1345 C1344 1.414 . S
C1345 C1346 1.374 . S
C1346 H1320 0.950 . S
C1346 C1342 1.385 . S
C1346 C1345 1.374 . S
C1347 C1344 1.499 . S
C1347 C1348 1.373 . S
C1347 C1349 1.389 . S
C1348 H1321 0.950 . S
C1348 C1334 1.377 . S
C1348 C1347 1.373 . S
C1349 C1333 1.377 . S
C1349 C1347 1.389 . S
C1349 C1350 1.524 . S
C1350 C1349 1.524 . S
C1350 C1351 1.397 . S
C1350 C1355 1.363 . S
C1351 H1322 0.950 . S
C1351 C1350 1.397 . S
C1351 C1352 1.334 . S
C1352 H1323 0.950 . S
C1352 C1351 1.334 . S
C1352 C1353 1.287 . S
C1353 C1352 1.287 . S
C1353 C1354 1.524 . S
C1353 H1356 0.999 . S
C1354 H1324 0.950 . S
C1354 C1353 1.524 . S
C1354 C1355 1.415 . S
C1355 H1325 0.950 . S
C1355 C1350 1.363 . S
C1355 C1354 1.415 . S
H1356 C1353 0.999 . S
H1357 C1338 0.913 . S
H1358 C1376 0.951 . S
H1359 C1378 0.951 . S
H1360 C1380 0.950 . S
H1361 C1381 0.950 . S
H1362 C1383 0.950 . S
H1363 C1386 0.950 . S
H1364 C1387 0.950 . S
H1365 C1389 0.950 . S
H1366 C1390 0.950 . S
H1367 C1391 0.951 . S
H1368 C1393 0.951 . S
H1369 C1395 0.950 . S
H1370 C1396 0.950 . S
H1371 C1398 0.950 . S
H1372 C1401 0.950 . S
H1373 C1402 0.950 . S
H1374 C1404 0.950 . S
H1375 C1405 0.950 . S
C1376 H1358 0.951 . S
C1376 C1377 1.366 . S
C1376 C1378 1.388 . S
C1377 C1376 1.366 . S
C1377 C1381 1.385 . S
C1378 H1359 0.951 . S
C1378 C1376 1.388 . S
C1378 C1379 1.366 . S
C1379 C1378 1.366 . S
C1379 C1380 1.414 . S
C1379 C1382 1.499 . S
C1380 H1360 0.950 . S
C1380 C1379 1.414 . S
C1380 C1381 1.374 . S
C1381 H1361 0.950 . S
C1381 C1377 1.385 . S
C1381 C1380 1.374 . S
C1382 C1379 1.499 . S
C1382 C1383 1.373 . S
C1382 C1384 1.389 . S
C1383 H1362 0.950 . S
C1383 C1382 1.373 . S
C1383 C1399 1.377 . S
C1384 C1382 1.389 . S
C1384 C1385 1.524 . S
C1384 C1398 1.377 . S
C1385 C1384 1.524 . S
C1385 C1386 1.397 . S
C1385 C1390 1.363 . S
C1386 H1363 0.950 . S
C1386 C1385 1.397 . S
C1386 C1387 1.334 . S
C1387 H1364 0.950 . S
C1387 C1386 1.334 . S
C1387 C1388 1.287 . S
C1388 C1387 1.287 . S
C1388 C1389 1.524 . S
C1388 H1407 0.913 . S
C1389 H1365 0.950 . S
C1389 C1388 1.524 . S
C1389 C1390 1.415 . S
C1390 H1366 0.950 . S
C1390 C1385 1.363 . S
C1390 C1389 1.415 . S
C1391 H1367 0.951 . S
C1391 C1392 1.366 . S
C1391 C1393 1.388 . S
C1392 C1391 1.366 . S
C1392 C1396 1.385 . S
C1393 H1368 0.951 . S
C1393 C1391 1.388 . S
C1393 C1394 1.366 . S
C1394 C1393 1.366 . S
C1394 C1395 1.414 . S
C1394 C1397 1.499 . S
C1395 H1369 0.950 . S
C1395 C1394 1.414 . S
C1395 C1396 1.374 . S
C1396 H1370 0.950 . S
C1396 C1392 1.385 . S
C1396 C1395 1.374 . S
C1397 C1394 1.499 . S
C1397 C1398 1.373 . S
C1397 C1399 1.389 . S
C1398 H1371 0.950 . S
C1398 C1384 1.377 . S
C1398 C1397 1.373 . S
C1399 C1383 1.377 . S
C1399 C1397 1.389 . S
C1399 C1400 1.524 . S
C1400 C1399 1.524 . S
C1400 C1401 1.397 . S
C1400 C1405 1.363 . S
C1401 H1372 0.950 . S
C1401 C1400 1.397 . S
C1401 C1402 1.334 . S
C1402 H1373 0.950 . S
C1402 C1401 1.334 . S
C1402 C1403 1.287 . S
C1403 C1402 1.287 . S
C1403 C1404 1.524 . S
C1403 H1406 0.999 . S
C1404 H1374 0.950 . S
C1404 C1403 1.524 . S
C1404 C1405 1.415 . S
C1405 H1375 0.950 . S
C1405 C1400 1.363 . S
C1405 C1404 1.415 . S
H1406 C1403 0.999 . S
H1407 C1388 0.913 . S
C227 C45 1.577 . S
C242 C108 1.505 . S
C277 C30 1.576 . S
C292 C121 1.506 . S
C327 C39 1.576 . S
C342 C134 1.561 1_554 S
C392 C147 1.512 . S
C377 C34 1.578 . S
C427 C97 1.576 . S
C442 C160 1.507 . S
C492 C173 1.509 . S
C477 C82 1.578 . S
C542 C186 1.560 . S
C527 C91 1.577 . S
C592 C199 1.562 . S
C577 C86 1.577 . S
C642 C191 1.537 . S
C627 C26 1.502 . S
C692 C204 1.564 . S
C677 C36 1.527 . S
C742 C164 1.527 . S
C727 C32 1.484 . S
C792 C177 1.500 . S
C777 C42 1.461 . S
C827 C18 1.635 . S
C842 C178 1.683 . S
C892 C190 1.653 . S
C877 C50 1.589 . S
C927 C4 1.566 . S
C942 C203 1.625 . S
C977 C48 1.610 . S
C992 C165 1.654 . S
C1042 C139 1.564 . S
C1027 C78 1.529 . S
C1077 C88 1.421 . S
C1092 C151 1.462 . S
C1142 C112 1.562 . S
C1127 C84 1.519 . S
C1192 C125 1.517 . S
C1177 C94 1.478 . S
C1242 C126 1.666 . S
C1227 C70 1.618 . S
C1292 C138 1.626 . S
C1277 C102 1.564 . S
C1327 C56 1.675 . S
C1342 C152 1.720 . S
C1377 C100 1.574 . S
C1392 C113 1.620 . S
