# Generated by pormake.
# Topology pyr, (3,6)-cn, num edge types: 1
# Building blocks:
#     Node 0, Type 0, BuildingBlock: PAMTOO_clean_linker_0, # of connection points: 3
#     Node 1, Type 0, BuildingBlock: PAMTOO_clean_linker_0, # of connection points: 3
#     Node 2, Type 0, BuildingBlock: PAMTOO_clean_linker_0, # of connection points: 3
#     Node 3, Type 0, BuildingBlock: PAMTOO_clean_linker_0, # of connection points: 3
#     Node 4, Type 0, BuildingBlock: PAMTOO_clean_linker_0, # of connection points: 3
#     Node 5, Type 0, BuildingBlock: PAMTOO_clean_linker_0, # of connection points: 3
#     Node 6, Type 0, BuildingBlock: PAMTOO_clean_linker_0, # of connection points: 3
#     Node 7, Type 0, BuildingBlock: PAMTOO_clean_linker_0, # of connection points: 3
#     Node 8, Type 1, BuildingBlock: BETDAH_clean_sbu_0, # of connection points: 6
#     Node 9, Type 1, BuildingBlock: BETDAH_clean_sbu_0, # of connection points: 6
#     Node 10, Type 1, BuildingBlock: BETDAH_clean_sbu_0, # of connection points: 6
#     Node 11, Type 1, BuildingBlock: BETDAH_clean_sbu_0, # of connection points: 6
#     Edge 12, Type (0, 1), None
#     Edge 13, Type (0, 1), None
#     Edge 14, Type (0, 1), None
#     Edge 15, Type (0, 1), None
#     Edge 16, Type (0, 1), None
#     Edge 17, Type (0, 1), None
#     Edge 18, Type (0, 1), None
#     Edge 19, Type (0, 1), None
#     Edge 20, Type (0, 1), None
#     Edge 21, Type (0, 1), None
#     Edge 22, Type (0, 1), None
#     Edge 23, Type (0, 1), None
#     Edge 24, Type (0, 1), None
#     Edge 25, Type (0, 1), None
#     Edge 26, Type (0, 1), None
#     Edge 27, Type (0, 1), None
#     Edge 28, Type (0, 1), None
#     Edge 29, Type (0, 1), None
#     Edge 30, Type (0, 1), None
#     Edge 31, Type (0, 1), None
#     Edge 32, Type (0, 1), None
#     Edge 33, Type (0, 1), None
#     Edge 34, Type (0, 1), None
#     Edge 35, Type (0, 1), None
# Relax obj value: 0.499
# Max RMSD: 0.277
# Mean RMSD: 0.169
data_MOF--net-pyr--node1-BETDAH_clean_sbu_0--node2-PAMTOO_clean_linker_0--edge1-none
_symmetry_space_group_name_H-M    P1
_symmetry_Int_Tables_number       1
_symmetry_cell_setting            triclinic
loop_
_symmetry_equiv_pos_as_xyz
'x, y, z'
_cell_length_a     16.931262
_cell_length_b     17.789943
_cell_length_c     16.092714
_cell_angle_alpha  92.227725
_cell_angle_beta   86.518824
_cell_angle_gamma 112.603
loop_
_atom_site_label
_atom_site_type_symbol
_atom_site_fract_x
_atom_site_fract_y
_atom_site_fract_z
_atom_type_partial_charge
H0 H 0.4315 0.56437 0.27305 0.0
H1 H 0.60709 0.50199 0.40547 0.0
H2 H 0.495 0.36159 0.19153 0.0
H3 H 0.51472 0.30393 0.36988 0.0
C4 C 0.58258 0.31973 0.34702 0.0
O5 O 0.6137 0.3904 0.30142 0.0
H6 H 0.62213 0.32786 0.4018 0.0
C7 C 0.47222 0.53039 0.27736 0.0
C8 C 0.45677 0.46241 0.22416 0.0
C9 C 0.50679 0.5289 0.35391 0.0
C10 C 0.57045 0.49641 0.35145 0.0
C11 C 0.56776 0.43641 0.29142 0.0
C12 C 0.50704 0.41596 0.22979 0.0
H13 H 0.25001 1.11898 0.81898 0.0
H14 H 0.25868 1.03618 0.56607 0.0
H15 H 0.24954 0.87914 0.76514 0.0
H16 H 0.36355 0.9612 0.52704 0.0
C17 C 0.33578 0.90228 0.56023 0.0
O18 O 0.26013 0.89561 0.60277 0.0
H19 H 0.32056 0.85277 0.51225 0.0
C20 C 0.25015 1.07133 0.7749 0.0
C21 C 0.24583 0.99596 0.80314 0.0
C22 C 0.25465 1.08649 0.69019 0.0
C23 C 0.25681 1.02627 0.6323 0.0
C24 C 0.25578 0.95212 0.65936 0.0
C25 C 0.25029 0.93675 0.74474 0.0
H26 H 0.82668 0.38459 1.11762 0.0
H27 H 0.64651 0.38093 0.93577 0.0
H28 H 0.88767 0.58386 0.94847 0.0
H29 H 0.79708 0.64891 0.89207 0.0
C30 C 0.73584 0.60141 0.87269 0.0
O31 O 0.74512 0.52582 0.86815 0.0
H32 H 0.68585 0.5984 0.92198 0.0
C33 C 0.809 0.41265 1.06717 0.0
C34 C 0.86661 0.49021 1.03891 0.0
C35 C 0.72872 0.37116 1.03068 0.0
C36 C 0.70696 0.41108 0.96492 0.0
C37 C 0.76349 0.4891 0.93528 0.0
C38 C 0.84314 0.52606 0.97229 0.0
H39 H 0.89839 0.93337 0.61991 0.0
H40 H 0.89304 0.71504 0.49133 0.0
H41 H 0.10755 0.94312 0.44971 0.0
H42 H 1.03883 0.81008 0.28946 0.0
C43 C 1.02606 0.75655 0.32924 0.0
O44 O 1.04422 0.78356 0.41127 0.0
H45 H 0.95691 0.71729 0.32578 0.0
C46 C 0.92654 0.90334 0.57407 0.0
C47 C 1.00582 0.94953 0.53508 0.0
C48 C 0.88523 0.8192 0.55978 0.0
C49 C 0.92317 0.78021 0.50137 0.0
C50 C 1.00281 0.82455 0.45917 0.0
C51 C 1.04404 0.9097 0.47689 0.0
H52 H 0.62509 0.9406 0.90996 0.0
H53 H 0.69994 1.01208 0.15947 0.0
H54 H 0.73761 0.80856 1.04882 0.0
H55 H 0.74543 0.8009 0.20472 0.0
C56 C 0.80304 0.85879 0.20152 0.0
O57 O 0.78458 0.91939 0.16615 0.0
H58 H 0.8215 0.87834 0.26631 0.0
C59 C 0.64822 0.92799 0.96689 0.0
C60 C 0.69112 0.87361 0.96695 0.0
C61 C 0.65172 0.9789 1.03614 0.0
C62 C 0.68893 0.96844 1.10861 0.0
C63 C 0.72216 0.90835 1.11215 0.0
C64 C 0.71224 0.85473 1.04458 0.0
H65 H 0.93002 0.19404 0.52771 0.0
H66 H 1.02111 0.45542 0.52231 0.0
H67 H 0.98907 0.33413 0.75504 0.0
H68 H 1.02119 0.57327 0.7399 0.0
C69 C 0.98298 0.50782 0.7273 0.0
O70 O 1.03605 0.47505 0.68495 0.0
H71 H 0.96045 0.47709 0.78811 0.0
C72 C 0.94942 0.25259 0.56001 0.0
C73 C 0.95713 0.25557 0.64585 0.0
C74 C 0.97269 0.32414 0.5147 0.0
C75 C 1.00087 0.39956 0.55687 0.0
C76 C 1.00582 0.40257 0.64391 0.0
C77 C 0.98164 0.33058 0.68843 0.0
H78 H 0.39864 0.91139 0.17524 0.0
H79 H 0.36532 0.70563 0.32848 0.0
H80 H 0.57221 0.93492 0.37033 0.0
H81 H 0.61801 0.79323 0.39259 0.0
C82 C 0.5564 0.74775 0.41801 0.0
O83 O 0.49593 0.78403 0.42397 0.0
H84 H 0.53594 0.69661 0.37205 0.0
C85 C 0.41901 0.88496 0.22516 0.0
C86 C 0.49316 0.93475 0.26889 0.0
C87 C 0.37108 0.80126 0.24557 0.0
C88 C 0.40046 0.76835 0.31097 0.0
C89 C 0.47263 0.81599 0.35668 0.0
C90 C 0.51738 0.89868 0.33516 0.0
H91 H 0.08925 0.39274 0.922 0.0
H92 H 0.29557 0.6301 0.89269 0.0
H93 H 0.28355 0.43516 0.72398 0.0
H94 H 0.42825 0.50013 0.7762 0.0
C95 C 0.44286 0.56618 0.76875 0.0
O96 O 0.3696 0.58151 0.76141 0.0
H97 H 0.47413 0.59816 0.82597 0.0
C98 C 0.14844 0.43246 0.89115 0.0
C99 C 0.18502 0.40116 0.82219 0.0
C100 C 0.18728 0.51672 0.91771 0.0
C101 C 0.26386 0.56668 0.87467 0.0
C102 C 0.29659 0.53607 0.80442 0.0
C103 C 0.25603 0.45577 0.77857 0.0
Ho104 Ho 0.14084 0.22153 0.59808 0.0
Ho105 Ho 0.07144 1.12881 0.75555 0.0
C106 C 0.14941 0.31721 0.78242 0.0
C107 C 0.19422 0.33852 0.49373 0.0
C108 C 0.27962 0.40303 0.48371 0.0
C109 C 0.29078 0.47914 0.45309 0.0
C110 C 0.37286 0.53318 0.42767 0.0
C111 C 0.44282 0.50828 0.42678 0.0
C112 C 0.43283 0.44001 0.47461 0.0
C113 C 0.3516 0.38748 0.50216 0.0
C114 C 0.24696 0.16109 0.66295 0.0
C115 C 1.05182 1.0322 0.57334 0.0
C116 C 1.01136 1.00839 0.85361 0.0
C117 C 0.92306 0.95074 0.85093 0.0
C118 C 0.89502 0.87373 0.88553 0.0
C119 C 0.80724 0.83147 0.90198 0.0
C120 C 0.7503 0.87179 0.8942 0.0
C121 C 0.77758 0.93787 0.83951 0.0
C122 C 0.86367 0.97648 0.81735 0.0
C123 C 0.96422 0.18538 0.68382 0.0
O124 O 0.14634 0.31593 0.70004 0.0
O125 O 0.138 0.24952 0.82194 0.0
O126 O 0.18941 0.26477 0.47437 0.0
O127 O 0.15246 0.34166 0.56349 0.0
O128 O 0.24651 0.1746 0.58476 0.0
O129 O 0.20098 0.19264 0.70307 0.0
O130 O 0.06239 1.03295 0.65429 0.0
O131 O 0.06312 1.10097 0.53581 0.0
O132 O 1.02022 1.08227 0.8777 0.0
O133 O 0.0588 1.00743 0.78726 0.0
O134 O 0.96754 0.18012 0.76326 0.0
O135 O 1.01177 1.15333 0.64883 0.0
H136 H 0.23589 0.49421 0.44314 0.0
H137 H 0.3789 0.58858 0.39762 0.0
H138 H 0.48494 0.42013 0.4813 0.0
H139 H 0.34458 0.33117 0.53113 0.0
H140 H 0.9404 0.84935 0.90488 0.0
H141 H 0.78711 0.77454 0.93425 0.0
H142 H 0.73727 0.96961 0.82515 0.0
H143 H 0.88431 1.03223 0.78301 0.0
Ho144 Ho 0.68502 0.16136 0.18726 0.0
Ho145 Ho 0.53353 1.151 1.12121 0.0
C146 C 0.58923 0.25336 0.29197 0.0
C147 C 0.84308 0.18981 0.21473 0.0
C148 C 0.90143 0.24805 0.27147 0.0
C149 C 0.96535 0.22834 0.30424 0.0
C150 C 0.99865 0.26293 0.37983 0.0
C151 C 0.96744 0.31672 0.42352 0.0
C152 C 0.91324 0.34566 0.3844 0.0
C153 C 0.88024 0.31129 0.30825 0.0
C154 C 0.54685 1.02375 0.24628 0.0
C155 C 0.63442 1.05352 1.03006 0.0
C156 C 0.37565 1.11698 1.092 0.0
C157 C 0.31536 1.04979 1.04535 0.0
C158 C 0.2398 1.05633 1.02401 0.0
C159 C 0.20471 1.02279 0.94887 0.0
C160 C 0.24753 0.98606 0.89367 0.0
C161 C 0.31187 0.96454 0.9237 0.0
C162 C 0.3453 0.99596 1.00037 0.0
C163 C 0.66868 0.28607 1.05991 0.0
O164 O 0.66514 0.2517 0.27565 0.0
O165 O 0.52493 0.21199 0.24529 0.0
O166 O 0.77815 1.1335 0.25224 0.0
O167 O 0.82024 0.22043 0.1527 0.0
O168 O 0.60937 1.07198 0.28949 0.0
O169 O 0.56164 1.05114 0.17313 0.0
O170 O 0.55621 1.04693 1.05243 0.0
O171 O 0.69525 1.11982 1.05544 0.0
O172 O 0.43994 0.16524 1.04579 0.0
O173 O 0.39928 1.09875 0.16156 0.0
O174 O 0.6076 0.23585 1.01635 0.0
O175 O 0.65542 0.26148 0.13494 0.0
H176 H 0.98258 0.17993 0.2764 0.0
H177 H 1.04093 0.24015 0.40865 0.0
H178 H 0.8887 0.38734 0.41678 0.0
H179 H 0.83166 0.32803 0.28281 0.0
H180 H 0.21491 1.09642 1.05904 0.0
H181 H 0.15341 1.03806 0.92853 0.0
H182 H 0.34494 0.93458 0.88355 0.0
H183 H 0.40222 0.98819 1.0179 0.0
Ho184 Ho 0.64738 0.60571 0.59969 0.0
Ho185 Ho 0.65466 0.75704 0.68994 0.0
C186 C 0.71205 0.6318 0.79188 0.0
C187 C 0.70374 0.50048 0.53792 0.0
C188 C 0.77401 0.48522 0.57447 0.0
C189 C 0.8591 0.53326 0.54921 0.0
C190 C 0.92582 0.54253 0.60021 0.0
C191 C 0.90943 0.50084 0.67537 0.0
C192 C 0.82581 0.4473 0.69749 0.0
C193 C 0.75843 0.43973 0.64759 0.0
C194 C 0.50502 0.59445 0.69529 0.0
C195 C 0.5764 0.71669 0.49991 0.0
C196 C 0.59494 0.86167 0.74822 0.0
C197 C 0.5218 0.87442 0.71512 0.0
C198 C 0.44869 0.80667 0.69303 0.0
C199 C 0.38734 0.81629 0.6453 0.0
C200 C 0.398 0.89362 0.61842 0.0
C201 C 0.46842 0.96199 0.64403 0.0
C202 C 0.5301 0.95241 0.69199 0.0
C203 C 0.80667 0.77472 0.61307 0.0
O204 O 0.71246 0.59501 0.71847 0.0
O205 O 0.68856 0.6956 0.79772 0.0
O206 O 0.63121 0.47908 0.58228 0.0
O207 O 0.72671 0.57326 0.50721 0.0
O208 O 0.50166 0.55343 0.62563 0.0
O209 O 0.58171 0.63155 0.70917 0.0
O210 O 0.58587 0.76015 0.57039 0.0
O211 O 0.59896 0.65319 0.49427 0.0
O212 O 0.66342 0.88182 0.69808 0.0
O213 O 0.57703 0.79162 0.78347 0.0
O214 O 0.79686 0.80588 0.68588 0.0
O215 O 0.73334 0.73631 0.58386 0.0
H216 H 0.87356 0.56825 0.49272 0.0
H217 H 0.99049 0.58225 0.58107 0.0
H218 H 0.81239 0.41279 0.75424 0.0
H219 H 0.69379 0.40202 0.66888 0.0
H220 H 0.44088 0.74552 0.70881 0.0
H221 H 0.33311 0.76298 0.62672 0.0
H222 H 0.47711 1.02239 0.62457 0.0
H223 H 0.58623 1.00529 0.70753 0.0
Ho224 Ho 0.12523 0.58926 0.16565 0.0
Ho225 Ho 0.11917 0.68933 1.10367 0.0
C226 C 0.28915 0.74762 0.20193 0.0
C227 C 0.13927 0.46598 0.23299 0.0
C228 C 0.20744 0.43629 0.20877 0.0
C229 C 0.26586 0.47458 0.14283 0.0
C230 C 0.34641 0.46993 0.1357 0.0
C231 C 0.36913 0.42667 0.1944 0.0
C232 C 0.3052 0.37701 0.25107 0.0
C233 C 0.22502 0.38304 0.2593 0.0
C234 C 0.08037 0.70999 0.29223 0.0
C235 C 0.95099 0.53744 1.07828 0.0
C236 C 0.09141 0.80405 1.03481 0.0
C237 C 1.01768 0.82627 1.06379 0.0
C238 C 1.03041 0.89768 1.11139 0.0
C239 C 0.961 0.90907 0.15455 0.0
C240 C 0.87789 0.84836 0.15276 0.0
C241 C 0.8652 0.77784 1.10434 0.0
C242 C 0.93338 0.76817 1.05853 0.0
C243 C 0.14213 0.55348 0.98232 0.0
O244 O 0.2631 0.66786 0.19839 0.0
O245 O 0.23686 0.77662 0.17086 0.0
O246 O 0.16694 0.53876 0.26677 0.0
O247 O 0.08523 0.45838 0.17595 0.0
O248 O 1.05115 0.65765 0.23101 0.0
O249 O 0.05387 0.65828 0.23143 0.0
O250 O 0.97924 0.61661 1.08346 0.0
O251 O 1.00332 0.50502 1.1026 0.0
O252 O 0.15143 0.81908 1.08768 0.0
O253 O 0.07161 0.7319 1.00052 0.0
O254 O 0.18423 0.61425 1.03271 0.0
O255 O 0.18042 0.61311 1.03281 0.0
H256 H 0.2532 0.51567 1.10278 0.0
H257 H 0.39463 0.5095 1.09243 0.0
H258 H 0.32167 0.34403 0.29788 0.0
H259 H 0.18065 0.35275 0.31011 0.0
H260 H 0.09436 0.94303 1.11817 0.0
H261 H 0.97254 0.96416 0.19145 0.0
H262 H 0.8023 0.72954 1.10205 0.0
H263 H 0.9199 0.71301 1.02165 0.0
loop_
_geom_bond_atom_site_label_1
_geom_bond_atom_site_label_2
_geom_bond_distance
_geom_bond_site_symmetry_2
_ccdc_geom_bond_type
H0 C7 0.929 . S
H1 C10 0.930 . S
H2 C12 0.929 . S
H3 C4 0.969 . S
C4 H3 0.969 . S
C4 O5 1.550 . S
C4 H6 0.973 . S
O5 C4 1.550 . S
O5 C11 1.412 . S
H6 C4 0.973 . S
C7 H0 0.929 . S
C7 C8 1.400 . S
C7 C9 1.364 . S
C8 C7 1.400 . S
C8 C12 1.377 . S
C9 C7 1.364 . S
C9 C10 1.374 . S
C10 H1 0.930 . S
C10 C9 1.374 . S
C10 C11 1.383 . S
C11 O5 1.412 . S
C11 C10 1.383 . S
C11 C12 1.394 . S
C12 H2 0.929 . S
C12 C8 1.377 . S
C12 C11 1.394 . S
H13 C20 0.929 . S
H14 C23 0.930 . S
H15 C25 0.929 . S
H16 C17 0.969 . S
C17 H16 0.969 . S
C17 O18 1.550 . S
C17 H19 0.973 . S
O18 C17 1.550 . S
O18 C24 1.412 . S
H19 C17 0.973 . S
C20 H13 0.929 . S
C20 C21 1.400 . S
C20 C22 1.364 . S
C21 C20 1.400 . S
C21 C25 1.377 . S
C22 C20 1.364 . S
C22 C23 1.374 . S
C23 H14 0.930 . S
C23 C22 1.374 . S
C23 C24 1.383 . S
C24 O18 1.412 . S
C24 C23 1.383 . S
C24 C25 1.394 . S
C25 H15 0.929 . S
C25 C21 1.377 . S
C25 C24 1.394 . S
H26 C33 0.929 . S
H27 C36 0.930 . S
H28 C38 0.929 . S
H29 C30 0.969 . S
C30 H29 0.969 . S
C30 O31 1.550 . S
C30 H32 0.973 . S
O31 C30 1.550 . S
O31 C37 1.412 . S
H32 C30 0.973 . S
C33 H26 0.929 . S
C33 C34 1.400 . S
C33 C35 1.364 . S
C34 C33 1.400 . S
C34 C38 1.377 . S
C35 C33 1.364 . S
C35 C36 1.374 . S
C36 H27 0.930 . S
C36 C35 1.374 . S
C36 C37 1.383 . S
C37 O31 1.412 . S
C37 C36 1.383 . S
C37 C38 1.394 . S
C38 H28 0.929 . S
C38 C34 1.377 . S
C38 C37 1.394 . S
H39 C46 0.929 . S
H40 C49 0.930 . S
H41 C51 0.929 1_455 S
H42 C43 0.969 . S
C43 H42 0.969 . S
C43 O44 1.550 1_655 S
C43 H45 0.973 . S
O44 C43 1.550 1_455 S
O44 C50 1.412 1_455 S
H45 C43 0.973 . S
C46 H39 0.929 . S
C46 C47 1.400 . S
C46 C48 1.364 . S
C47 C46 1.400 . S
C47 C51 1.377 . S
C48 C46 1.364 . S
C48 C49 1.374 . S
C49 H40 0.930 . S
C49 C48 1.374 . S
C49 C50 1.383 . S
C50 O44 1.412 1_655 S
C50 C49 1.383 . S
C50 C51 1.394 . S
C51 H41 0.929 1_655 S
C51 C47 1.377 . S
C51 C50 1.394 . S
H52 C59 0.929 . S
H53 C62 0.930 . S
H54 C64 0.929 . S
H55 C56 0.969 . S
C56 H55 0.969 . S
C56 O57 1.550 . S
C56 H58 0.973 . S
O57 C56 1.550 . S
O57 C63 1.412 . S
H58 C56 0.973 . S
C59 H52 0.929 . S
C59 C60 1.400 . S
C59 C61 1.364 . S
C60 C59 1.400 . S
C60 C64 1.377 . S
C61 C59 1.364 . S
C61 C62 1.374 . S
C62 H53 0.930 . S
C62 C61 1.374 . S
C62 C63 1.383 . S
C63 O57 1.412 . S
C63 C62 1.383 . S
C63 C64 1.394 . S
C64 H54 0.929 . S
C64 C60 1.377 . S
C64 C63 1.394 . S
H65 C72 0.929 1_455 S
H66 C75 0.930 . S
H67 C77 0.929 . S
H68 C69 0.969 . S
C69 H68 0.969 . S
C69 O70 1.550 . S
C69 H71 0.973 . S
O70 C69 1.550 . S
O70 C76 1.412 . S
H71 C69 0.973 . S
C72 H65 0.929 1_655 S
C72 C73 1.400 1_655 S
C72 C74 1.364 . S
C73 C72 1.400 1_455 S
C73 C77 1.377 . S
C74 C72 1.364 . S
C74 C75 1.374 . S
C75 H66 0.930 . S
C75 C74 1.374 . S
C75 C76 1.383 . S
C76 O70 1.412 . S
C76 C75 1.383 . S
C76 C77 1.394 1_655 S
C77 H67 0.929 . S
C77 C73 1.377 . S
C77 C76 1.394 1_455 S
H78 C85 0.929 . S
H79 C88 0.930 . S
H80 C90 0.929 . S
H81 C82 0.969 . S
C82 H81 0.969 . S
C82 O83 1.550 . S
C82 H84 0.973 . S
O83 C82 1.550 . S
O83 C89 1.412 . S
H84 C82 0.973 . S
C85 H78 0.929 . S
C85 C86 1.400 . S
C85 C87 1.364 . S
C86 C85 1.400 . S
C86 C90 1.377 . S
C87 C85 1.364 . S
C87 C88 1.374 . S
C88 H79 0.930 . S
C88 C87 1.374 . S
C88 C89 1.383 . S
C89 O83 1.412 . S
C89 C88 1.383 . S
C89 C90 1.394 . S
C90 H80 0.929 . S
C90 C86 1.377 . S
C90 C89 1.394 . S
H91 C98 0.929 . S
H92 C101 0.930 . S
H93 C103 0.929 . S
H94 C95 0.969 . S
C95 H94 0.969 . S
C95 O96 1.550 . S
C95 H97 0.973 . S
O96 C95 1.550 . S
O96 C102 1.412 . S
H97 C95 0.973 . S
C98 H91 0.929 . S
C98 C99 1.400 . S
C98 C100 1.364 . S
C99 C98 1.400 . S
C99 C103 1.377 . S
C100 C98 1.364 . S
C100 C101 1.374 . S
C101 H92 0.930 . S
C101 C100 1.374 . S
C101 C102 1.383 . S
C102 O96 1.412 . S
C102 C101 1.383 . S
C102 C103 1.394 . S
C103 H93 0.929 . S
C103 C99 1.377 . S
C103 C102 1.394 . S
Ho104 C107 2.811 . S
Ho104 O124 2.322 . S
Ho104 O126 2.378 . S
Ho104 O127 2.524 . S
Ho104 O128 2.381 1_545 S
Ho104 O129 2.669 1_545 S
Ho104 O131 2.346 1_445 S
Ho104 O135 2.305 1_455 S
Ho105 C116 2.811 1_545 S
Ho105 O125 2.346 1_655 S
Ho105 O129 2.305 1_645 S
Ho105 O130 2.322 1_545 S
Ho105 O132 2.378 1_545 S
Ho105 O133 2.524 1_545 S
Ho105 O134 2.381 . S
Ho105 O135 2.669 . S
C106 O124 1.259 . S
C106 O125 1.268 . S
C107 Ho104 2.811 . S
C107 C108 1.488 . S
C107 O126 1.215 . S
C107 O127 1.289 . S
C108 C107 1.488 . S
C108 C109 1.348 . S
C108 C113 1.413 . S
C109 C108 1.348 . S
C109 C110 1.442 . S
C109 H136 0.930 . S
C110 C109 1.442 . S
C110 C111 1.381 . S
C110 H137 0.931 . S
C111 C110 1.381 . S
C111 C112 1.321 . S
C112 C111 1.321 . S
C112 C113 1.403 . S
C112 H138 0.934 . S
C113 C108 1.413 . S
C113 C112 1.403 . S
C113 H139 0.930 . S
C114 O128 1.275 . S
C114 O129 1.256 . S
C115 O130 1.259 . S
C115 O131 1.268 . S
C116 Ho105 2.811 1_565 S
C116 C117 1.488 . S
C116 O132 1.215 . S
C116 O133 1.289 . S
C117 C116 1.488 . S
C117 C118 1.348 . S
C117 C122 1.413 . S
C118 C117 1.348 . S
C118 C119 1.442 . S
C118 H140 0.930 . S
C119 C118 1.442 . S
C119 C120 1.381 . S
C119 H141 0.931 . S
C120 C119 1.381 . S
C120 C121 1.321 . S
C121 C120 1.321 . S
C121 C122 1.403 . S
C121 H142 0.934 . S
C122 C117 1.413 . S
C122 C121 1.403 . S
C122 H143 0.930 . S
C123 O134 1.275 . S
C123 O135 1.256 . S
O124 Ho104 2.322 . S
O124 C106 1.259 . S
O125 Ho105 2.346 1_455 S
O125 C106 1.268 . S
O126 Ho104 2.378 . S
O126 C107 1.215 . S
O127 Ho104 2.524 . S
O127 C107 1.289 . S
O128 Ho104 2.381 1_565 S
O128 C114 1.275 . S
O129 Ho104 2.669 1_565 S
O129 Ho105 2.305 1_465 S
O129 C114 1.256 . S
O130 Ho105 2.322 1_565 S
O130 C115 1.259 . S
O131 Ho104 2.346 1_665 S
O131 C115 1.268 . S
O132 Ho105 2.378 1_565 S
O132 C116 1.215 . S
O133 Ho105 2.524 1_565 S
O133 C116 1.289 . S
O134 Ho105 2.381 . S
O134 C123 1.275 . S
O135 Ho104 2.305 1_655 S
O135 Ho105 2.669 . S
O135 C123 1.256 . S
H136 C109 0.930 . S
H137 C110 0.931 . S
H138 C112 0.934 . S
H139 C113 0.930 . S
H140 C118 0.930 . S
H141 C119 0.931 . S
H142 C121 0.934 . S
H143 C122 0.930 . S
Ho144 C147 2.811 . S
Ho144 O164 2.322 . S
Ho144 O166 2.378 . S
Ho144 O167 2.524 . S
Ho144 O168 2.381 1_545 S
Ho144 O169 2.669 1_545 S
Ho144 O171 2.346 1_544 S
Ho144 O175 2.305 1_554 S
Ho145 C156 2.811 1_545 S
Ho145 O165 2.346 1_556 S
Ho145 O169 2.305 1_546 S
Ho145 O170 2.322 1_545 S
Ho145 O172 2.378 1_545 S
Ho145 O173 2.524 1_545 S
Ho145 O174 2.381 . S
Ho145 O175 2.669 . S
C146 O164 1.259 . S
C146 O165 1.268 . S
C147 Ho144 2.811 . S
C147 C148 1.488 . S
C147 O166 1.215 . S
C147 O167 1.289 . S
C148 C147 1.488 . S
C148 C149 1.348 . S
C148 C153 1.413 . S
C149 C148 1.348 . S
C149 C150 1.442 . S
C149 H176 0.930 . S
C150 C149 1.442 . S
C150 C151 1.381 . S
C150 H177 0.931 . S
C151 C150 1.381 . S
C151 C152 1.321 . S
C152 C151 1.321 . S
C152 C153 1.403 . S
C152 H178 0.934 . S
C153 C148 1.413 . S
C153 C152 1.403 . S
C153 H179 0.930 . S
C154 O168 1.275 . S
C154 O169 1.256 . S
C155 O170 1.259 . S
C155 O171 1.268 . S
C156 Ho145 2.811 1_565 S
C156 C157 1.488 . S
C156 O172 1.215 . S
C156 O173 1.289 . S
C157 C156 1.488 . S
C157 C158 1.348 . S
C157 C162 1.413 . S
C158 C157 1.348 . S
C158 C159 1.442 . S
C158 H180 0.930 . S
C159 C158 1.442 . S
C159 C160 1.381 . S
C159 H181 0.931 . S
C160 C159 1.381 . S
C160 C161 1.321 . S
C161 C160 1.321 . S
C161 C162 1.403 . S
C161 H182 0.934 . S
C162 C157 1.413 . S
C162 C161 1.403 . S
C162 H183 0.930 . S
C163 O174 1.275 . S
C163 O175 1.256 . S
O164 Ho144 2.322 . S
O164 C146 1.259 . S
O165 Ho145 2.346 1_554 S
O165 C146 1.268 . S
O166 Ho144 2.378 . S
O166 C147 1.215 . S
O167 Ho144 2.524 . S
O167 C147 1.289 . S
O168 Ho144 2.381 1_565 S
O168 C154 1.275 . S
O169 Ho144 2.669 1_565 S
O169 Ho145 2.305 1_564 S
O169 C154 1.256 . S
O170 Ho145 2.322 1_565 S
O170 C155 1.259 . S
O171 Ho144 2.346 1_566 S
O171 C155 1.268 . S
O172 Ho145 2.378 1_565 S
O172 C156 1.215 . S
O173 Ho145 2.524 1_565 S
O173 C156 1.289 . S
O174 Ho145 2.381 . S
O174 C163 1.275 . S
O175 Ho144 2.305 1_556 S
O175 Ho145 2.669 . S
O175 C163 1.256 . S
H176 C149 0.930 . S
H177 C150 0.931 . S
H178 C152 0.934 . S
H179 C153 0.930 . S
H180 C158 0.930 . S
H181 C159 0.931 . S
H182 C161 0.934 . S
H183 C162 0.930 . S
Ho184 C187 2.811 . S
Ho184 O204 2.322 . S
Ho184 O206 2.378 . S
Ho184 O207 2.524 . S
Ho184 O208 2.381 . S
Ho184 O209 2.669 . S
Ho184 O211 2.346 . S
Ho184 O215 2.305 . S
Ho185 C196 2.811 . S
Ho185 O205 2.346 . S
Ho185 O209 2.305 . S
Ho185 O210 2.322 . S
Ho185 O212 2.378 . S
Ho185 O213 2.524 . S
Ho185 O214 2.381 . S
Ho185 O215 2.669 . S
C186 O204 1.259 . S
C186 O205 1.268 . S
C187 Ho184 2.811 . S
C187 C188 1.488 . S
C187 O206 1.215 . S
C187 O207 1.289 . S
C188 C187 1.488 . S
C188 C189 1.348 . S
C188 C193 1.413 . S
C189 C188 1.348 . S
C189 C190 1.442 . S
C189 H216 0.930 . S
C190 C189 1.442 . S
C190 C191 1.381 . S
C190 H217 0.931 . S
C191 C190 1.381 . S
C191 C192 1.321 . S
C192 C191 1.321 . S
C192 C193 1.403 . S
C192 H218 0.934 . S
C193 C188 1.413 . S
C193 C192 1.403 . S
C193 H219 0.930 . S
C194 O208 1.275 . S
C194 O209 1.256 . S
C195 O210 1.259 . S
C195 O211 1.268 . S
C196 Ho185 2.811 . S
C196 C197 1.488 . S
C196 O212 1.215 . S
C196 O213 1.289 . S
C197 C196 1.488 . S
C197 C198 1.348 . S
C197 C202 1.413 . S
C198 C197 1.348 . S
C198 C199 1.442 . S
C198 H220 0.930 . S
C199 C198 1.442 . S
C199 C200 1.381 . S
C199 H221 0.931 . S
C200 C199 1.381 . S
C200 C201 1.321 . S
C201 C200 1.321 . S
C201 C202 1.403 . S
C201 H222 0.934 . S
C202 C197 1.413 . S
C202 C201 1.403 . S
C202 H223 0.930 . S
C203 O214 1.275 . S
C203 O215 1.256 . S
O204 Ho184 2.322 . S
O204 C186 1.259 . S
O205 Ho185 2.346 . S
O205 C186 1.268 . S
O206 Ho184 2.378 . S
O206 C187 1.215 . S
O207 Ho184 2.524 . S
O207 C187 1.289 . S
O208 Ho184 2.381 . S
O208 C194 1.275 . S
O209 Ho184 2.669 . S
O209 Ho185 2.305 . S
O209 C194 1.256 . S
O210 Ho185 2.322 . S
O210 C195 1.259 . S
O211 Ho184 2.346 . S
O211 C195 1.268 . S
O212 Ho185 2.378 . S
O212 C196 1.215 . S
O213 Ho185 2.524 . S
O213 C196 1.289 . S
O214 Ho185 2.381 . S
O214 C203 1.275 . S
O215 Ho184 2.305 . S
O215 Ho185 2.669 . S
O215 C203 1.256 . S
H216 C189 0.930 . S
H217 C190 0.931 . S
H218 C192 0.934 . S
H219 C193 0.930 . S
H220 C198 0.930 . S
H221 C199 0.931 . S
H222 C201 0.934 . S
H223 C202 0.930 . S
Ho224 C227 2.811 . S
Ho224 O244 2.322 . S
Ho224 O246 2.378 . S
Ho224 O247 2.524 . S
Ho224 O248 2.381 . S
Ho224 O249 2.669 . S
Ho224 O251 2.346 1_455 S
Ho224 O255 2.305 . S
Ho225 C236 2.811 1_454 S
Ho225 O245 2.346 . S
Ho225 O249 2.305 . S
Ho225 O250 2.322 1_454 S
Ho225 O252 2.378 1_454 S
Ho225 O253 2.524 1_455 S
Ho225 O254 2.381 1_554 S
Ho225 O255 2.669 . S
C226 O244 1.259 . S
C226 O245 1.268 . S
C227 Ho224 2.811 . S
C227 C228 1.488 . S
C227 O246 1.215 . S
C227 O247 1.289 . S
C228 C227 1.488 . S
C228 C229 1.348 . S
C228 C233 1.413 . S
C229 C228 1.348 . S
C229 C230 1.442 . S
C229 H256 0.930 . S
C230 C229 1.442 . S
C230 C231 1.381 . S
C230 H257 0.931 . S
C231 C230 1.381 . S
C231 C232 1.321 . S
C232 C231 1.321 . S
C232 C233 1.403 . S
C232 H258 0.934 . S
C233 C228 1.413 . S
C233 C232 1.403 . S
C233 H259 0.930 . S
C234 O248 1.275 1_655 S
C234 O249 1.256 1_655 S
C235 O250 1.259 1_554 S
C235 O251 1.268 . S
C236 Ho225 2.811 1_656 S
C236 C237 1.488 . S
C236 O252 1.215 . S
C236 O253 1.289 1_556 S
C237 C236 1.488 . S
C237 C238 1.348 . S
C237 C242 1.413 . S
C238 C237 1.348 . S
C238 C239 1.442 . S
C238 H260 0.930 1_556 S
C239 C238 1.442 . S
C239 C240 1.381 . S
C239 H261 0.931 . S
C240 C239 1.381 . S
C240 C241 1.321 . S
C241 C240 1.321 . S
C241 C242 1.403 . S
C241 H262 0.934 . S
C242 C237 1.413 . S
C242 C241 1.403 . S
C242 H263 0.930 . S
C243 O254 1.275 . S
C243 O255 1.256 1_556 S
O244 Ho224 2.322 . S
O244 C226 1.259 . S
O245 Ho225 2.346 . S
O245 C226 1.268 . S
O246 Ho224 2.378 . S
O246 C227 1.215 . S
O247 Ho224 2.524 . S
O247 C227 1.289 . S
O248 Ho224 2.381 . S
O248 C234 1.275 1_455 S
O249 Ho224 2.669 . S
O249 Ho225 2.305 . S
O249 C234 1.256 1_455 S
O250 Ho225 2.322 1_656 S
O250 C235 1.259 1_556 S
O251 Ho224 2.346 1_655 S
O251 C235 1.268 . S
O252 Ho225 2.378 1_656 S
O252 C236 1.215 . S
O253 Ho225 2.524 1_655 S
O253 C236 1.289 1_554 S
O254 Ho225 2.381 1_556 S
O254 C243 1.275 . S
O255 Ho224 2.305 . S
O255 Ho225 2.669 . S
O255 C243 1.256 1_554 S
H256 C229 0.930 . S
H257 C230 0.931 . S
H258 C232 0.934 . S
H259 C233 0.930 . S
H260 C238 0.930 1_554 S
H261 C239 0.931 . S
H262 C241 0.934 . S
H263 C242 0.930 . S
C9 C111 1.992 . S
C21 C160 2.309 . S
C186 C30 3.475 . S
C43 C234 3.378 . S
C146 C4 2.965 . S
C114 C22 1.371 . S
C235 C34 2.272 1_554 S
C203 C48 2.359 . S
C8 C231 2.187 . S
C163 C35 3.459 . S
C47 C115 4.097 . S
C17 C200 2.659 . S
C120 C60 1.422 . S
C74 C151 2.022 . S
C82 C195 2.848 . S
C100 C243 4.395 . S
C61 C155 3.494 . S
C123 C73 1.575 1_655 S
C226 C87 3.056 . S
C194 C95 2.368 . S
C56 C240 2.229 . S
C154 C86 3.686 . S
C106 C99 3.955 . S
C69 C191 1.692 . S
