# Generated by pormake.
# Topology pyr, (3,6)-cn, num edge types: 1
# Building blocks:
#     Node 0, Type 0, BuildingBlock: QEWDON_clean_linker_0, # of connection points: 3
#     Node 1, Type 0, BuildingBlock: QEWDON_clean_linker_0, # of connection points: 3
#     Node 2, Type 0, BuildingBlock: QEWDON_clean_linker_0, # of connection points: 3
#     Node 3, Type 0, BuildingBlock: QEWDON_clean_linker_0, # of connection points: 3
#     Node 4, Type 0, BuildingBlock: QEWDON_clean_linker_0, # of connection points: 3
#     Node 5, Type 0, BuildingBlock: QEWDON_clean_linker_0, # of connection points: 3
#     Node 6, Type 0, BuildingBlock: QEWDON_clean_linker_0, # of connection points: 3
#     Node 7, Type 0, BuildingBlock: QEWDON_clean_linker_0, # of connection points: 3
#     Node 8, Type 1, BuildingBlock: BETFEN_clean_sbu_0, # of connection points: 6
#     Node 9, Type 1, BuildingBlock: BETFEN_clean_sbu_0, # of connection points: 6
#     Node 10, Type 1, BuildingBlock: BETFEN_clean_sbu_0, # of connection points: 6
#     Node 11, Type 1, BuildingBlock: BETFEN_clean_sbu_0, # of connection points: 6
#     Edge 12, Type (0, 1), BuildingBlock: EZIPEK_clean_linker_0, # of connection points: 2
#     Edge 13, Type (0, 1), BuildingBlock: EZIPEK_clean_linker_0, # of connection points: 2
#     Edge 14, Type (0, 1), BuildingBlock: EZIPEK_clean_linker_0, # of connection points: 2
#     Edge 15, Type (0, 1), BuildingBlock: EZIPEK_clean_linker_0, # of connection points: 2
#     Edge 16, Type (0, 1), BuildingBlock: EZIPEK_clean_linker_0, # of connection points: 2
#     Edge 17, Type (0, 1), BuildingBlock: EZIPEK_clean_linker_0, # of connection points: 2
#     Edge 18, Type (0, 1), BuildingBlock: EZIPEK_clean_linker_0, # of connection points: 2
#     Edge 19, Type (0, 1), BuildingBlock: EZIPEK_clean_linker_0, # of connection points: 2
#     Edge 20, Type (0, 1), BuildingBlock: EZIPEK_clean_linker_0, # of connection points: 2
#     Edge 21, Type (0, 1), BuildingBlock: EZIPEK_clean_linker_0, # of connection points: 2
#     Edge 22, Type (0, 1), BuildingBlock: EZIPEK_clean_linker_0, # of connection points: 2
#     Edge 23, Type (0, 1), BuildingBlock: EZIPEK_clean_linker_0, # of connection points: 2
#     Edge 24, Type (0, 1), BuildingBlock: EZIPEK_clean_linker_0, # of connection points: 2
#     Edge 25, Type (0, 1), BuildingBlock: EZIPEK_clean_linker_0, # of connection points: 2
#     Edge 26, Type (0, 1), BuildingBlock: EZIPEK_clean_linker_0, # of connection points: 2
#     Edge 27, Type (0, 1), BuildingBlock: EZIPEK_clean_linker_0, # of connection points: 2
#     Edge 28, Type (0, 1), BuildingBlock: EZIPEK_clean_linker_0, # of connection points: 2
#     Edge 29, Type (0, 1), BuildingBlock: EZIPEK_clean_linker_0, # of connection points: 2
#     Edge 30, Type (0, 1), BuildingBlock: EZIPEK_clean_linker_0, # of connection points: 2
#     Edge 31, Type (0, 1), BuildingBlock: EZIPEK_clean_linker_0, # of connection points: 2
#     Edge 32, Type (0, 1), BuildingBlock: EZIPEK_clean_linker_0, # of connection points: 2
#     Edge 33, Type (0, 1), BuildingBlock: EZIPEK_clean_linker_0, # of connection points: 2
#     Edge 34, Type (0, 1), BuildingBlock: EZIPEK_clean_linker_0, # of connection points: 2
#     Edge 35, Type (0, 1), BuildingBlock: EZIPEK_clean_linker_0, # of connection points: 2
# Relax obj value: 0.228
# Max RMSD: 0.339
# Mean RMSD: 0.186
data_MOF--net-pyr--node1-BETFEN_clean_sbu_0--node2-QEWDON_clean_linker_0--edge1-EZIPEK_clean_linker_0
_symmetry_space_group_name_H-M    P1
_symmetry_Int_Tables_number       1
_symmetry_cell_setting            triclinic
loop_
_symmetry_equiv_pos_as_xyz
'x, y, z'
_cell_length_a     27.701511
_cell_length_b     31.377808
_cell_length_c     30.246649
_cell_angle_alpha  91.431072
_cell_angle_beta   102.72975
_cell_angle_gamma 126.19411
loop_
_atom_site_label
_atom_site_type_symbol
_atom_site_fract_x
_atom_site_fract_y
_atom_site_fract_z
_atom_type_partial_charge
H0 H 0.46372 0.37734 0.23749 0.0
C1 C 0.44464 0.37364 0.2661 0.0
C2 C 0.41328 0.3247 0.28121 0.0
C3 C 0.44865 0.4167 0.2863 0.0
H4 H 0.36044 0.28019 0.32736 0.0
C5 C 0.38531 0.31848 0.31621 0.0
C6 C 0.39034 0.36164 0.33759 0.0
C7 C 0.42288 0.41102 0.32299 0.0
C8 C 0.471 0.46409 0.26446 0.0
H9 H 0.42638 0.44435 0.33914 0.0
C10 C 0.43147 0.47823 0.2506 0.0
C11 C 0.44679 0.5183 0.22453 0.0
C12 C 0.52746 0.49155 0.25289 0.0
H13 H 0.55849 0.48088 0.26296 0.0
C14 C 0.54369 0.53267 0.2277 0.0
H15 H 0.38706 0.45638 0.25838 0.0
C16 C 0.50317 0.54579 0.21307 0.0
H17 H 0.51544 0.57689 0.19282 0.0
H18 H 0.5872 0.55376 0.21885 0.0
H19 H 0.27009 0.92247 0.79383 0.0
C20 C 0.28805 0.90507 0.77849 0.0
C21 C 0.33123 0.90034 0.80763 0.0
C22 C 0.27082 0.88955 0.73009 0.0
H23 H 0.38606 0.87271 0.81196 0.0
C24 C 0.35222 0.87516 0.78875 0.0
C25 C 0.3306 0.85332 0.74116 0.0
C26 C 0.29637 0.86722 0.71225 0.0
C27 C 0.22557 0.89495 0.69744 0.0
H28 H 0.2907 0.86277 0.67593 0.0
C29 C 0.21478 0.93239 0.70909 0.0
C30 C 0.17262 0.9362 0.67653 0.0
C31 C 0.19105 0.86065 0.65339 0.0
H32 H 0.19354 0.82882 0.64343 0.0
C33 C 0.15141 0.86576 0.62107 0.0
H34 H 0.23842 0.95834 0.74286 0.0
C35 C 0.14276 0.90346 0.63226 0.0
H36 H 0.11045 0.9056 0.60666 0.0
H37 H 0.12623 0.83952 0.58733 0.0
H38 H 0.67678 0.4432 0.90148 0.0
C39 C 0.65048 0.40829 0.91665 0.0
C40 C 0.68034 0.40769 0.96023 0.0
C41 C 0.58996 0.36242 0.89142 0.0
H42 H 0.67443 0.3615 1.01281 0.0
C43 C 0.64986 0.36225 0.97983 0.0
C44 C 0.59093 0.3159 0.95563 0.0
C45 C 0.56024 0.31605 0.91178 0.0
C46 C 0.56131 0.36175 0.84266 0.0
H47 H 0.51445 0.27956 0.89347 0.0
C48 C 0.5767 0.40981 0.82787 0.0
C49 C 0.55236 0.40923 0.78151 0.0
C50 C 0.52076 0.31326 0.80956 0.0
H51 H 0.5091 0.27568 0.81837 0.0
C52 C 0.49601 0.3126 0.76378 0.0
H53 H 0.60755 0.44778 0.85201 0.0
C54 C 0.51171 0.36018 0.74977 0.0
H55 H 0.49244 0.35884 0.714 0.0
H56 H 0.46507 0.27499 0.73885 0.0
H57 H 0.92057 0.80427 0.39142 0.0
C58 C 0.89457 0.78223 0.41508 0.0
C59 C 0.89376 0.81043 0.45218 0.0
C60 C 0.85935 0.7253 0.40769 0.0
H61 H 0.85516 0.80301 0.50862 0.0
C62 C 0.85735 0.78162 0.48133 0.0
C63 C 0.82185 0.72564 0.4749 0.0
C64 C 0.82465 0.69805 0.43916 0.0
C65 C 0.84925 0.69213 0.36413 0.0
H66 H 0.79668 0.65459 0.43444 0.0
C67 C 0.89717 0.70349 0.34398 0.0
C68 C 0.88222 0.66763 0.30385 0.0
C69 C 0.78743 0.64629 0.34201 0.0
H70 H 0.74906 0.63696 0.35452 0.0
C71 C 0.7732 0.6116 0.30341 0.0
H72 H 0.94498 0.739 0.35933 0.0
C73 C 0.81985 0.62176 0.28489 0.0
H74 H 0.80681 0.59381 0.25467 0.0
H75 H 0.72527 0.57648 0.2875 0.0
H76 H 0.56028 0.6216 0.90191 0.0
C77 C 0.58666 0.64171 0.87782 0.0
C78 C 0.64729 0.6577 0.88608 0.0
C79 C 0.5628 0.65659 0.84114 0.0
H80 H 0.73312 0.70513 0.86736 0.0
C81 C 0.68453 0.68942 0.85847 0.0
C82 C 0.66034 0.70285 0.82072 0.0
C83 C 0.59849 0.68488 0.8114 0.0
C84 C 0.51376 0.66084 0.8438 0.0
H85 H 0.58086 0.69852 0.78439 0.0
C86 C 0.53306 0.70832 0.87015 0.0
C87 C 0.49278 0.72187 0.86592 0.0
C88 C 0.45188 0.62394 0.81595 0.0
H89 H 0.4369 0.5876 0.79465 0.0
C90 C 0.40958 0.635 0.81483 0.0
H91 H 0.58169 0.73755 0.89038 0.0
C92 C 0.42985 0.68385 0.83954 0.0
H93 H 0.39697 0.69247 0.83687 0.0
H94 H 0.36174 0.60679 0.79328 0.0
H95 H 0.77725 0.18915 0.49064 0.0
C96 C 0.77167 0.19573 0.45544 0.0
C97 C 0.80192 0.18837 0.42831 0.0
C98 C 0.73224 0.20913 0.43696 0.0
H99 H 0.81543 0.18683 0.36221 0.0
C100 C 0.7949 0.19684 0.38269 0.0
C101 C 0.7603 0.21554 0.36393 0.0
C102 C 0.72611 0.21802 0.39137 0.0
C103 C 0.69359 0.20942 0.4642 0.0
H104 H 0.69136 0.22359 0.37715 0.0
C105 C 0.68775 0.25116 0.46719 0.0
C106 C 0.6502 0.24984 0.4929 0.0
C107 C 0.66142 0.16674 0.48716 0.0
H108 H 0.66423 0.13379 0.485 0.0
C109 C 0.62434 0.16549 0.51248 0.0
H110 H 0.71242 0.28455 0.44997 0.0
C111 C 0.61871 0.20668 0.51537 0.0
H112 H 0.58964 0.20494 0.53521 0.0
H113 H 0.59968 0.13231 0.52984 0.0
H114 H 0.58648 0.85036 0.2769 0.0
C115 C 0.53694 0.8298 0.27108 0.0
C116 C 0.50769 0.84772 0.24207 0.0
C117 C 0.50172 0.78511 0.29198 0.0
H118 H 0.42046 0.83264 0.20957 0.0
C119 C 0.44373 0.82062 0.23358 0.0
C120 C 0.40818 0.77499 0.25175 0.0
C121 C 0.43706 0.75851 0.28234 0.0
C122 C 0.52982 0.76202 0.31948 0.0
H123 H 0.40804 0.72241 0.29539 0.0
C124 C 0.50902 0.73777 0.35694 0.0
C125 C 0.53191 0.71199 0.38007 0.0
C126 C 0.57473 0.76074 0.30641 0.0
H127 H 0.59069 0.77759 0.27725 0.0
C128 C 0.59821 0.73602 0.32985 0.0
H129 H 0.47555 0.7392 0.36846 0.0
C130 C 0.57693 0.71173 0.36633 0.0
H131 H 0.5959 0.69298 0.38417 0.0
H132 H 0.63264 0.73522 0.31939 0.0
H133 H 0.27241 0.52142 0.80231 0.0
C134 C 0.23507 0.47892 0.7889 0.0
C135 C 0.23374 0.45399 0.74856 0.0
C136 C 0.19125 0.44865 0.81395 0.0
H137 H 0.18727 0.37902 0.70244 0.0
C138 C 0.18752 0.39852 0.73273 0.0
C139 C 0.14492 0.36693 0.75715 0.0
C140 C 0.14632 0.39209 0.79763 0.0
C141 C 0.20317 0.47471 0.86195 0.0
H142 H 0.11506 0.3675 0.81757 0.0
C143 C 0.16038 0.47917 0.87699 0.0
C144 C 0.17787 0.50683 0.92291 0.0
C145 C 0.26167 0.49715 0.89367 0.0
H146 H 0.29514 0.49433 0.88378 0.0
C147 C 0.27815 0.52329 0.93835 0.0
H148 H 0.11513 0.46258 0.85326 0.0
C149 C 0.237 0.52823 0.95274 0.0
H150 H 0.25161 0.54926 0.98764 0.0
H151 H 0.32353 0.5402 0.96205 0.0
Pr152 Pr 0.94925 0.04726 0.60141 0.0
Pr153 Pr 0.07112 0.13354 0.58398 0.0
C154 C 0.84583 0.95244 0.60709 0.0
C155 C 0.82777 0.91554 0.63953 0.0
C156 C 0.76882 0.86501 0.62633 0.0
C157 C 0.74904 0.83132 0.65825 0.0
C158 C 0.78807 0.84807 0.70363 0.0
C159 C 0.84798 0.89777 0.71636 0.0
C160 C 0.86784 0.93137 0.68437 0.0
C161 C 1.0103 0.14771 0.65796 0.0
C162 C 0.07403 0.05386 0.65211 0.0
C163 C 0.17505 0.2299 0.58108 0.0
C164 C 0.20286 0.25826 0.54558 0.0
C165 C 0.1736 0.2328 0.49885 0.0
C166 C 0.20435 0.25664 0.46574 0.0
C167 C 0.26453 0.30609 0.47912 0.0
C168 C 0.29237 0.33291 0.52552 0.0
C169 C 0.26165 0.30896 0.55867 0.0
C170 C 1.0133 0.03461 0.52736 0.0
C171 C 0.94243 0.11873 0.52577 0.0
O172 O 0.88415 0.95602 0.586 0.0
O173 O 0.85937 0.99901 0.62108 0.0
O174 O 0.03742 0.12882 0.64806 0.0
O175 O 0.94999 0.11179 0.64254 0.0
O176 O 0.10799 0.09691 0.63464 0.0
O177 O 1.0151 0.03183 0.64815 0.0
O178 O 0.12402 0.22259 0.58296 0.0
O179 O 0.17253 0.18739 0.58537 0.0
O180 O 0.98436 0.05139 0.53801 0.0
O181 O 0.07286 0.07367 0.53829 0.0
O182 O 0.90936 0.07647 0.54431 0.0
O183 O 1.00331 0.14542 0.53401 0.0
H184 H 0.73755 0.85222 0.59176 0.0
H185 H 0.7027 0.79297 0.64802 0.0
H186 H 0.87847 0.91107 0.75132 0.0
H187 H 0.91367 0.97023 0.69491 0.0
H188 H 0.12822 0.19353 0.48833 0.0
H189 H 0.18251 0.2354 0.43008 0.0
H190 H 0.33887 0.37103 0.53628 0.0
H191 H 0.28479 0.32898 0.59468 0.0
Pr192 Pr 0.5061 0.06003 0.10242 0.0
Pr193 Pr 0.61089 0.08716 0.07453 0.0
C194 C 0.42294 0.03708 0.14813 0.0
C195 C 0.4064 0.06996 0.1644 0.0
C196 C 0.40331 0.10445 0.13722 0.0
C197 C 0.39794 0.14214 0.15547 0.0
C198 C 0.39595 0.14598 0.20112 0.0
C199 C 0.39639 0.11022 0.22779 0.0
C200 C 0.40157 0.07226 0.20944 0.0
C201 C 0.53944 0.14124 0.05036 0.0
C202 C 0.64991 0.15585 0.17159 0.0
C203 C 0.68641 0.09239 0.02889 0.0
C204 C 0.66888 0.04678 0.99557 0.0
C205 C 0.69493 0.02011 1.00834 0.0
C206 C 0.66697 0.96873 0.98407 0.0
C207 C 0.6129 0.94351 0.94652 0.0
C208 C 0.58932 0.97137 0.93153 0.0
C209 C 0.61709 0.02266 0.95581 0.0
C210 C 0.57907 0.01285 0.13336 0.0
C211 C 0.46884 0.99934 1.00069 0.0
O212 O 0.47939 0.05359 0.16895 0.0
O213 O 0.4074 0.02273 0.10341 0.0
O214 O 0.57907 0.14034 0.07985 0.0
O215 O 0.48301 0.10317 0.05042 0.0
O216 O 0.66933 0.16171 0.13461 0.0
O217 O 0.59123 0.11667 0.16903 0.0
O218 O 0.65698 0.11272 1.01676 0.0
O219 O 0.69103 0.08576 0.07158 0.0
O220 O 0.53981 0.00889 0.09902 0.0
O221 O 0.63515 0.05541 0.13785 0.0
O222 O 0.4476 0.99123 0.03676 0.0
O223 O 0.52829 0.0373 1.00563 0.0
H224 H 0.40775 0.10394 0.10255 0.0
H225 H 0.39816 0.1699 0.13474 0.0
H226 H 0.39531 0.11323 0.26327 0.0
H227 H 0.4046 0.0464 0.23101 0.0
H228 H 0.73442 0.03749 0.03892 0.0
H229 H 0.68592 0.94771 0.99572 0.0
H230 H 0.54782 0.95245 0.90233 0.0
H231 H 0.59555 0.04182 0.94496 0.0
Pr232 Pr 0.56393 0.64532 0.64275 0.0
Pr233 Pr 0.49773 0.53196 0.58342 0.0
C234 C 0.57668 0.73492 0.67098 0.0
C235 C 0.5448 0.75075 0.69208 0.0
C236 C 0.56754 0.80473 0.69836 0.0
C237 C 0.53014 0.81859 0.70682 0.0
C238 C 0.46882 0.77844 0.70807 0.0
C239 C 0.44739 0.72479 0.7041 0.0
C240 C 0.48523 0.71119 0.69665 0.0
C241 C 0.58232 0.57871 0.68924 0.0
C242 C 0.41681 0.53998 0.64403 0.0
C243 C 0.47513 0.43847 0.55285 0.0
C244 C 0.50944 0.41933 0.54164 0.0
C245 C 0.49186 0.36914 0.55067 0.0
C246 C 0.52379 0.34995 0.54129 0.0
C247 C 0.57456 0.3809 0.52322 0.0
C248 C 0.59383 0.43216 0.51573 0.0
C249 C 0.56116 0.45109 0.52453 0.0
C250 C 0.48744 0.60344 0.53458 0.0
C251 C 0.64569 0.63317 0.58534 0.0
O252 O 0.54345 0.70411 0.63 0.0
O253 O 0.6078 0.72053 0.69643 0.0
O254 O 0.53176 0.56428 0.66124 0.0
O255 O 0.62525 0.63085 0.69701 0.0
O256 O 0.41536 0.50727 0.61422 0.0
O257 O 0.46522 0.59166 0.65735 0.0
O258 O 0.49014 0.45791 0.5965 0.0
O259 O 0.46477 0.46536 0.52503 0.0
O260 O 0.53404 0.61411 0.56521 0.0
O261 O 0.44311 0.55136 0.52634 0.0
O262 O 0.6424 0.66818 0.60723 0.0
O263 O 0.60234 0.58052 0.5802 0.0
H264 H 0.61294 0.83582 0.69429 0.0
H265 H 0.54795 0.86028 0.71038 0.0
H266 H 0.40067 0.69321 0.70567 0.0
H267 H 0.46657 0.66933 0.69187 0.0
H268 H 0.45298 0.34451 0.56476 0.0
H269 H 0.50866 0.31068 0.54794 0.0
H270 H 0.63355 0.45708 0.50258 0.0
H271 H 0.57645 0.4905 0.51825 0.0
Pr272 Pr 0.04752 0.64719 0.08246 0.0
Pr273 Pr 0.04296 0.5665 0.14206 0.0
C274 C 1.01595 0.69972 0.03082 0.0
C275 C 0.95588 0.68981 1.01953 0.0
C276 C 0.94479 0.72014 0.99233 0.0
C277 C 0.88544 0.70735 0.98002 0.0
C278 C 0.83737 0.66463 0.9953 0.0
C279 C 0.84936 0.63571 0.02394 0.0
C280 C 0.90797 0.64744 0.03501 0.0
C281 C 0.16239 0.68398 0.14055 0.0
C282 C 0.99957 0.63559 0.18024 0.0
C283 C 0.08301 0.51917 0.19396 0.0
C284 C 0.13619 0.51924 0.19489 0.0
C285 C 0.15196 0.49354 0.22528 0.0
C286 C 0.20447 0.49612 0.22645 0.0
C287 C 0.24093 0.52398 0.19694 0.0
C288 C 0.2246 0.549 0.16628 0.0
C289 C 0.17318 0.54731 0.1658 0.0
C290 C 0.92733 0.52797 0.08321 0.0
C291 C 0.07762 0.57025 0.03951 0.0
O292 O 1.01335 0.65984 1.01297 0.0
O293 O 0.04826 0.71903 0.07445 0.0
O294 O 0.11149 0.65722 0.15022 0.0
O295 O 0.1566 0.69769 0.10061 0.0
O296 O 1.0134 0.60238 0.19031 0.0
O297 O 1.0051 0.654 0.14103 0.0
O298 O 0.0985 0.56637 0.20892 0.0
O299 O 0.03659 0.49294 0.15571 0.0
O300 O 0.97871 0.55629 0.07409 0.0
O301 O 0.9335 0.51312 0.12267 0.0
O302 O 0.05882 0.59985 0.02886 0.0
O303 O 0.08166 0.55805 0.08128 0.0
H304 H 0.98135 0.7527 0.97996 0.0
H305 H 0.8766 0.73012 0.95795 0.0
H306 H 0.81282 0.603 0.03615 0.0
H307 H 0.91584 0.6228 0.05487 0.0
H308 H 0.12423 0.47212 0.24825 0.0
H309 H 0.2168 0.4766 0.25033 0.0
H310 H 0.25217 0.5704 0.14324 0.0
H311 H 0.16287 0.56862 0.14315 0.0
C312 C 0.38255 0.33853 0.41538 0.0
C313 C 0.36288 0.35455 0.37641 0.0
C314 C 0.2874 0.34961 0.41026 0.0
C315 C 0.30103 0.32612 0.44542 0.0
N316 N 0.35365 0.28898 0.47677 0.0
N317 N 0.28936 0.36734 0.33297 0.0
C318 C 0.3466 0.31814 0.44684 0.0
C319 C 0.31368 0.3585 0.3729 0.0
N320 N 0.43626 0.34359 0.42255 0.0
N321 N 0.24957 0.36351 0.41268 0.0
H322 H 0.30561 0.37213 0.30413 0.0
H323 H 0.2493 0.36502 0.32687 0.0
H324 H 0.22922 0.357 0.43947 0.0
H325 H 0.24296 0.38568 0.39056 0.0
H326 H 0.45453 0.3348 0.45146 0.0
H327 H 0.46568 0.36145 0.40157 0.0
H328 H 0.38045 0.27613 0.47508 0.0
H329 H 0.32858 0.27348 0.50078 0.0
C330 C 0.35006 0.89116 0.89137 0.0
C331 C 0.35859 0.92442 0.85804 0.0
C332 C 0.42538 1.00369 0.92031 0.0
C333 C 0.4255 0.97176 0.95281 0.0
N334 N 0.39257 0.88475 0.96806 0.0
N335 N 0.41526 0.01389 0.84082 0.0
C336 C 0.38863 0.91518 0.93815 0.0
C337 C 0.39903 0.98111 0.87249 0.0
N338 N 0.30452 0.83675 0.87839 0.0
N339 N 0.44836 0.05536 0.93515 0.0
H340 H 0.39852 0.99954 0.80523 0.0
H341 H 0.45029 0.05542 0.85012 0.0
H342 H 0.46453 0.07209 0.96994 0.0
H343 H 0.44414 0.07887 0.9133 0.0
H344 H 0.29242 0.81081 0.90174 0.0
H345 H 0.27474 0.81829 0.84472 0.0
H346 H 0.37225 0.84426 0.95788 0.0
H347 H 0.42029 0.90104 1.0024 0.0
C348 C 0.53935 0.48213 0.77296 0.0
C349 C 0.56944 0.45974 0.76507 0.0
C350 C 0.61615 0.52164 0.71253 0.0
C351 C 0.58496 0.54312 0.71966 0.0
N352 N 0.52911 0.55353 0.764 0.0
N353 N 0.64729 0.46576 0.73634 0.0
C354 C 0.55065 0.52653 0.75247 0.0
C355 C 0.61139 0.48205 0.73767 0.0
N356 N 0.49788 0.45936 0.79839 0.0
N357 N 0.64813 0.53747 0.68028 0.0
H358 H 0.64497 0.43706 0.75452 0.0
H359 H 0.68293 0.48363 0.72059 0.0
H360 H 0.65507 0.56819 0.66305 0.0
H361 H 0.66514 0.5186 0.66885 0.0
H362 H 0.47009 0.47041 0.8023 0.0
H363 H 0.48898 0.42732 0.8143 0.0
H364 H 0.50837 0.54695 0.79042 0.0
H365 H 0.53598 0.58562 0.74909 0.0
C366 C 0.9693 0.66352 0.29355 0.0
C367 C 0.92734 0.67575 0.27772 0.0
C368 C 0.93277 0.66306 0.19841 0.0
C369 C 0.97713 0.65279 0.21407 0.0
N370 N 0.05312 0.66395 0.28098 0.0
N371 N 0.88658 0.7044 0.21773 0.0
C372 C 1.00003 0.65916 0.26301 0.0
C373 C 0.91571 0.68179 0.23111 0.0
N374 N 0.97862 0.65432 0.33733 0.0
N375 N 0.90244 0.65105 0.15252 0.0
H376 H 0.87363 0.71827 0.24093 0.0
H377 H 0.88175 0.71463 0.18539 0.0
H378 H 0.90806 0.63285 0.12725 0.0
H379 H 0.8655 0.6527 0.14 0.0
H380 H 1.00281 0.63907 0.34908 0.0
H381 H 0.95875 0.65882 0.36084 0.0
H382 H 0.07447 0.6729 0.3164 0.0
H383 H 0.08035 0.66614 0.26089 0.0
C384 C 0.46277 0.28105 0.27047 0.0
C385 C 0.40903 0.27924 0.26002 0.0
C386 C 0.34536 0.18787 0.21443 0.0
C387 C 0.39994 0.19123 0.22225 0.0
N388 N 0.51213 0.24321 0.25092 0.0
N389 N 0.30202 0.23591 0.21595 0.0
C390 C 0.45918 0.23851 0.24835 0.0
C391 C 0.35098 0.23397 0.23029 0.0
N392 N 0.51663 0.32262 0.3026 0.0
N393 N 0.28817 0.1403 0.19265 0.0
H394 H 0.30466 0.2693 0.22657 0.0
H395 H 0.26063 0.20651 0.19053 0.0
H396 H 0.28259 0.10595 0.17998 0.0
H397 H 0.24601 0.13354 0.19027 0.0
H398 H 0.55544 0.32354 0.31504 0.0
H399 H 0.52111 0.35456 0.31976 0.0
H400 H 0.5572 0.2789 0.26481 0.0
H401 H 0.51131 0.21243 0.23589 0.0
C402 C 0.19253 0.02653 0.69267 0.0
C403 C 0.15287 0.96965 0.68759 0.0
C404 C 0.06132 0.96757 0.66416 0.0
C405 C 0.10029 0.02514 0.67083 0.0
N406 N 0.20303 0.10835 0.70793 0.0
N407 N 0.05219 0.89067 0.68803 0.0
C408 C 0.16605 0.05439 0.69057 0.0
C409 C 0.08836 0.9423 0.68118 0.0
N410 N 0.25461 0.05383 0.69724 0.0
N411 N 1.00072 0.9359 0.63667 0.0
H412 H 0.07126 0.87121 0.7 0.0
H413 H 1.00532 0.87009 0.68659 0.0
H414 H 0.98059 0.95011 0.61529 0.0
H415 H 0.97332 0.894 0.62894 0.0
H416 H 0.28411 0.09459 0.69597 0.0
H417 H 0.27556 0.0349 0.69935 0.0
H418 H 0.25049 0.1307 0.72543 0.0
H419 H 0.18462 0.12907 0.70986 0.0
C420 C 0.7923 0.44822 0.97182 0.0
C421 C 0.74729 0.4506 0.98396 0.0
C422 C 0.8202 0.5044 0.06015 0.0
C423 C 0.86603 0.50263 0.04831 0.0
N424 N 0.8981 0.47774 0.99039 0.0
N425 N 0.72196 0.49108 0.03313 0.0
C426 C 0.85326 0.47701 1.0031 0.0
C427 C 0.76283 0.48246 0.02602 0.0
N428 N 0.77513 0.41455 0.93213 0.0
N429 N 0.8304 0.52532 0.10433 0.0
H430 H 0.67994 0.47555 1.00803 0.0
H431 H 0.73212 0.51756 0.06142 0.0
H432 H 0.87217 0.54314 0.13034 0.0
H433 H 0.79608 0.52213 0.11622 0.0
H434 H 0.80246 0.40444 0.92455 0.0
H435 H 0.73166 0.39397 0.90746 0.0
H436 H 0.89522 0.46855 0.95613 0.0
H437 H 0.9389 0.4883 1.0136 0.0
C438 C 0.79843 0.70096 0.5511 0.0
C439 C 0.77635 0.6964 0.5027 0.0
C440 C 0.66843 0.64315 0.50803 0.0
C441 C 0.69103 0.65265 0.55718 0.0
N442 N 0.77749 0.69163 0.6259 0.0
N443 N 0.69115 0.67036 0.43639 0.0
C444 C 0.75615 0.68196 0.5788 0.0
C445 C 0.7115 0.66898 0.48149 0.0
N446 N 0.85972 0.7224 0.57025 0.0
N447 N 0.60553 0.60933 0.48629 0.0
H448 H 0.72061 0.68927 0.41561 0.0
H449 H 0.64579 0.65666 0.42039 0.0
H450 H 0.57167 0.59152 0.50361 0.0
H451 H 0.58652 0.59521 0.45068 0.0
H452 H 0.87843 0.72303 0.60431 0.0
H453 H 0.89128 0.73606 0.55084 0.0
H454 H 0.82457 0.71732 0.64465 0.0
H455 H 0.7475 0.67557 0.64664 0.0
C456 C 0.34423 0.4889 0.17418 0.0
C457 C 0.40085 0.52868 0.20861 0.0
C458 C 0.35621 0.57231 0.22698 0.0
C459 C 0.29688 0.52753 0.19831 0.0
N460 N 0.23283 0.44337 0.14364 0.0
N461 N 0.46286 0.60881 0.2676 0.0
C462 C 0.29052 0.48611 0.17112 0.0
C463 C 0.40788 0.57125 0.23434 0.0
N464 N 0.34241 0.45398 0.1446 0.0
N465 N 0.36297 0.61568 0.24716 0.0
H466 H 0.5023 0.61019 0.27308 0.0
H467 H 0.46877 0.63727 0.29115 0.0
H468 H 0.32568 0.61703 0.24421 0.0
H469 H 0.40622 0.65197 0.26379 0.0
H470 H 0.3043 0.42662 0.1162 0.0
H471 H 0.38163 0.45578 0.14619 0.0
H472 H 0.22364 0.40887 0.12694 0.0
H473 H 0.19286 0.44104 0.13936 0.0
C474 C 0.53903 0.25547 1.00979 0.0
C475 C 0.56866 0.26589 0.97446 0.0
C476 C 0.57842 0.19414 0.98823 0.0
C477 C 0.5541 0.18695 0.02648 0.0
N478 N 0.51885 0.21563 0.07777 0.0
N479 N 0.62349 0.24991 0.93322 0.0
C480 C 0.5361 0.2188 0.03823 0.0
C481 C 0.58999 0.23633 0.96444 0.0
N482 N 0.51355 0.28068 1.01588 0.0
N483 N 0.58813 0.15917 0.97329 0.0
H484 H 0.6302 0.27849 0.91314 0.0
H485 H 0.6479 0.23527 0.92915 0.0
H486 H 0.58049 0.12823 0.99003 0.0
H487 H 0.59818 0.15771 0.94233 0.0
H488 H 0.48619 0.27156 0.03805 0.0
H489 H 0.51541 0.30775 0.99557 0.0
H490 H 0.51048 0.24098 0.09075 0.0
H491 H 0.51831 0.19065 0.10012 0.0
C492 C 0.8967 0.89266 0.44981 0.0
C493 C 0.92894 0.87043 0.46189 0.0
C494 C 1.01582 0.955 0.51641 0.0
C495 C 0.98461 0.9784 0.50345 0.0
N496 N 0.90371 0.97335 0.44733 0.0
N497 N 0.02493 0.8846 0.49807 0.0
C498 C 0.9273 0.94826 0.46715 0.0
C499 C 0.99058 0.90327 0.49207 0.0
N500 N 0.83616 0.86025 0.42236 0.0
N501 N 0.06747 0.98017 0.55402 0.0
H502 H 1.00729 0.84649 0.48168 0.0
H503 H 0.07255 0.90859 0.51544 0.0
H504 H 0.0873 0.01678 0.57449 0.0
H505 H 0.0874 0.96218 0.56818 0.0
H506 H 0.80739 0.8719 0.41709 0.0
H507 H 0.81369 0.82048 0.40686 0.0
H508 H 0.86504 0.95475 0.41819 0.0
H509 H 0.92705 0.01459 0.45658 0.0
C510 C 0.36127 0.79223 0.75607 0.0
C511 C 0.34796 0.81897 0.72454 0.0
C512 C 0.40119 0.80691 0.67607 0.0
C513 C 0.42619 0.79174 0.71297 0.0
N514 N 0.43206 0.77367 0.79007 0.0
N515 N 0.31394 0.8068 0.64171 0.0
C516 C 0.40597 0.78462 0.75316 0.0
C517 C 0.35675 0.81508 0.68045 0.0
N518 N 0.32724 0.77024 0.78661 0.0
N519 N 0.41837 0.81221 0.63637 0.0
H520 H 0.26963 0.79317 0.64268 0.0
H521 H 0.31607 0.80117 0.60831 0.0
H522 H 0.44659 0.80243 0.63012 0.0
H523 H 0.40716 0.82919 0.61084 0.0
H524 H 0.33106 0.74609 0.80786 0.0
H525 H 0.28981 0.77079 0.78616 0.0
H526 H 0.42608 0.77697 0.82249 0.0
H527 H 0.46362 0.76614 0.78902 0.0
C528 C 0.71042 0.7931 0.7985 0.0
C529 C 0.70235 0.74388 0.79631 0.0
C530 C 0.76532 0.771 0.74252 0.0
C531 C 0.76398 0.81522 0.73867 0.0
N532 N 0.7317 0.86712 0.76083 0.0
N533 N 0.73236 0.69071 0.77 0.0
C534 C 0.73612 0.82632 0.76644 0.0
C535 C 0.73317 0.73454 0.77018 0.0
N536 N 0.69637 0.80931 0.83275 0.0
N537 N 0.79559 0.76139 0.71896 0.0
H538 H 0.70802 0.65985 0.78758 0.0
H539 H 0.70802 0.65985 0.78758 0.0
H540 H 0.8209 0.78612 0.69767 0.0
H541 H 0.8209 0.78612 0.69767 0.0
H542 H 0.70724 0.84727 0.83898 0.0
H543 H 0.68037 0.78728 0.85832 0.0
H544 H 0.70486 0.8726 0.77586 0.0
H545 H 0.75108 0.89323 0.73841 0.0
C546 C 0.7809 0.21611 0.28487 0.0
C547 C 0.75253 0.22444 0.31407 0.0
C548 C 0.67859 0.21522 0.24525 0.0
C549 C 0.69387 0.18975 0.2179 0.0
N550 N 0.76484 0.16949 0.21235 0.0
N551 N 0.71436 0.2759 0.3164 0.0
C552 C 0.74747 0.1923 0.23747 0.0
C553 C 0.7125 0.23704 0.29297 0.0
N554 N 0.84242 0.23753 0.30078 0.0
N555 N 0.63133 0.21801 0.22594 0.0
H556 H 0.74681 0.29838 0.34874 0.0
H557 H 0.69039 0.29042 0.30161 0.0
H558 H 0.6087 0.20626 0.1905 0.0
H559 H 0.61359 0.23036 0.24555 0.0
H560 H 0.86715 0.2369 0.27964 0.0
H561 H 0.86997 0.26209 0.33354 0.0
H562 H 0.79922 0.16539 0.22743 0.0
H563 H 0.74289 0.15182 0.17746 0.0
C564 C 0.45521 0.64049 0.41843 0.0
C565 C 0.51446 0.68977 0.42186 0.0
C566 C 0.55136 0.6908 0.50359 0.0
C567 C 0.49328 0.63911 0.49971 0.0
N568 N 0.38292 0.58019 0.45957 0.0
N569 N 0.61053 0.77003 0.47061 0.0
C570 C 0.4429 0.61858 0.45894 0.0
C571 C 0.55991 0.71735 0.46539 0.0
N572 N 0.4112 0.61373 0.37638 0.0
N573 N 0.59903 0.7152 0.54359 0.0
H574 H 0.61769 0.79101 0.44351 0.0
H575 H 0.6422 0.79468 0.50245 0.0
H576 H 0.59175 0.70617 0.57516 0.0
H577 H 0.64556 0.74549 0.54548 0.0
H578 H 0.37022 0.57454 0.3708 0.0
H579 H 0.41744 0.62959 0.3465 0.0
H580 H 0.34395 0.56641 0.43191 0.0
H581 H 0.37194 0.56785 0.48993 0.0
C582 C 0.10109 0.48132 0.96955 0.0
C583 C 0.13813 0.5164 0.9424 0.0
C584 C 0.13559 0.58681 0.97814 0.0
C585 C 0.09625 0.55104 1.00424 0.0
N586 N 0.02984 0.45923 1.01506 0.0
N587 N 0.1783 0.59799 0.91326 0.0
C588 C 0.07562 0.49683 0.99704 0.0
C589 C 0.1508 0.56746 0.94411 0.0
N590 N 0.09193 0.43357 0.97039 0.0
N591 N 0.16269 0.64043 0.98799 0.0
H592 H 0.19034 0.58509 0.88851 0.0
H593 H 0.18329 0.63312 0.9091 0.0
H594 H 0.15598 0.65749 1.01361 0.0
H595 H 0.19718 0.66927 0.97407 0.0
H596 H 0.07293 0.40931 0.99398 0.0
H597 H 0.10675 0.41973 0.949 0.0
H598 H 1.00817 0.4182 1.00706 0.0
H599 H 1.00891 0.468 0.03439 0.0
C600 C 0.56641 0.82158 0.86741 0.0
C601 C 0.51988 0.77838 0.88467 0.0
C602 C 0.53084 0.84409 0.94007 0.0
C603 C 0.57936 0.88684 0.92421 0.0
N604 N 0.64196 0.91477 0.87067 0.0
N605 N 0.45883 0.74924 0.93887 0.0
C606 C 0.59666 0.87522 0.88771 0.0
C607 C 0.50217 0.78989 0.92111 0.0
N608 N 0.58254 0.81335 0.83041 0.0
N609 N 0.51123 0.85371 0.97389 0.0
H610 H 0.43803 0.70879 0.92764 0.0
H611 H 0.44481 0.75638 0.96567 0.0
H612 H 0.52906 0.89206 0.98985 0.0
H613 H 0.52906 0.89206 0.98985 0.0
H614 H 0.56149 0.77566 0.81079 0.0
H615 H 0.56149 0.77566 0.81079 0.0
H616 H 0.66706 0.9559 0.88296 0.0
H617 H 0.66706 0.9559 0.88296 0.0
C618 C 0.81392 0.11554 0.44222 0.0
C619 C 0.8407 0.17099 0.44819 0.0
C620 C 0.93587 0.19339 0.50324 0.0
C621 C 0.91018 0.13777 0.49614 0.0
N622 N 0.83159 0.04869 0.44901 0.0
N623 N 0.93201 0.26342 0.47507 0.0
C624 C 0.85111 0.09964 0.46271 0.0
C625 C 0.90335 0.21008 0.47558 0.0
N626 N 0.75241 0.07786 0.41785 0.0
N627 N 0.98905 0.23016 0.53835 0.0
H628 H 0.90924 0.27713 0.45598 0.0
H629 H 0.97975 0.29352 0.48996 0.0
H630 H 1.01421 0.22085 0.56095 0.0
H631 H 1.00511 0.26946 0.54838 0.0
H632 H 0.72808 0.0367 0.41691 0.0
H633 H 0.72437 0.088 0.40104 0.0
H634 H 0.79203 0.02071 0.42164 0.0
H635 H 0.85852 0.03617 0.46161 0.0
C636 C 0.31648 0.70657 0.18685 0.0
C637 C 0.33999 0.73977 0.23045 0.0
C638 C 0.24263 0.72856 0.21873 0.0
C639 C 0.22231 0.70122 0.17245 0.0
N640 N 0.23984 0.66481 0.11174 0.0
N641 N 0.32814 0.78214 0.28974 0.0
C642 C 0.25906 0.69006 0.15641 0.0
C643 C 0.3032 0.74968 0.24736 0.0
N644 N 0.34995 0.6916 0.17459 0.0
N645 N 0.20523 0.7361 0.23482 0.0
H646 H 0.37122 0.7958 0.31206 0.0
H647 H 0.30779 0.79706 0.3024 0.0
H648 H 0.16458 0.72832 0.21385 0.0
H649 H 0.21341 0.74891 0.26954 0.0
H650 H 0.33397 0.66421 0.14484 0.0
H651 H 0.39256 0.70347 0.19613 0.0
H652 H 0.26776 0.66177 0.09598 0.0
H653 H 0.19629 0.64854 0.08916 0.0
C654 C 0.32634 0.46845 0.7307 0.0
C655 C 0.28543 0.48244 0.7258 0.0
C656 C 0.33258 0.53671 0.66865 0.0
C657 C 0.36845 0.51764 0.66978 0.0
N658 N 0.39474 0.46069 0.6995 0.0
N659 N 0.24589 0.52676 0.68788 0.0
C660 C 0.3637 0.48199 0.69999 0.0
C661 C 0.28795 0.51617 0.69443 0.0
N662 N 0.33096 0.4436 0.76613 0.0
N663 N 0.34093 0.57433 0.64268 0.0
H664 H 0.21409 0.51366 0.70701 0.0
H665 H 0.23994 0.5458 0.66192 0.0
H666 H 0.3692 0.58712 0.6207 0.0
H667 H 0.32254 0.59496 0.64463 0.0
H668 H 0.36364 0.43635 0.77464 0.0
H669 H 0.30593 0.43471 0.79011 0.0
H670 H 0.38626 0.42896 0.71565 0.0
H671 H 0.42651 0.47212 0.68076 0.0
C672 C 0.67491 0.60137 0.91891 0.0
C673 C 0.6759 0.64638 0.9262 0.0
C674 C 0.76542 0.68734 0.99461 0.0
C675 C 0.77424 0.64998 0.97952 0.0
N676 N 0.73554 0.56827 0.92948 0.0
N677 N 0.71464 0.72889 0.9737 0.0
C678 C 0.7274 0.6049 0.94323 0.0
C679 C 0.71794 0.68775 0.96579 0.0
N680 N 0.62466 0.55636 0.8876 0.0
N681 N 0.80362 0.72287 0.0357 0.0
H682 H 0.67846 0.72855 0.9537 0.0
H683 H 0.74819 0.76366 0.99888 0.0
H684 H 0.83852 0.72256 0.05716 0.0
H685 H 0.79739 0.74907 0.05027 0.0
H686 H 0.61823 0.52019 0.8838 0.0
H687 H 0.58622 0.55389 0.86921 0.0
H688 H 0.70673 0.5387 0.89953 0.0
H689 H 0.77306 0.56897 0.94663 0.0
C690 C 0.57494 0.94563 0.23801 0.0
C691 C 0.54001 0.89132 0.21582 0.0
C692 C 0.53979 0.91807 0.13989 0.0
C693 C 0.56622 0.97089 0.16162 0.0
N694 N 0.60981 0.0358 0.23171 0.0
N695 N 0.49041 0.82472 0.14623 0.0
C696 C 0.58504 0.98513 0.21086 0.0
C697 C 0.52344 0.87741 0.16687 0.0
N698 N 0.59813 0.9593 0.28516 0.0
N699 N 0.53301 0.9074 0.09388 0.0
H700 H 0.48231 0.79482 0.16506 0.0
H701 H 0.46898 0.81016 0.11081 0.0
H702 H 0.54569 0.93634 0.07322 0.0
H703 H 0.52001 0.87134 0.07688 0.0
H704 H 0.62972 0.99878 0.30365 0.0
H705 H 0.58994 0.93107 0.30598 0.0
H706 H 0.61702 0.04707 0.26658 0.0
H707 H 0.62002 0.06646 0.2137 0.0
C708 C 0.04547 0.28139 0.70669 0.0
C709 C 0.10372 0.30691 0.74056 0.0
C710 C 0.09447 0.22404 0.72702 0.0
C711 C 0.04171 0.20197 0.68763 0.0
N712 N 0.97083 0.21402 0.63741 0.0
N713 N 0.18633 0.30396 0.78171 0.0
C714 C 1.01766 0.23148 0.67718 0.0
C715 C 0.12877 0.27845 0.75048 0.0
N716 N 1.01699 0.30539 0.70238 0.0
N717 N 0.11009 0.19236 0.74374 0.0
H718 H 0.21083 0.34226 0.80168 0.0
H719 H 0.21106 0.28838 0.78596 0.0
H720 H 0.08416 0.1516 0.72975 0.0
H721 H 0.1444 0.20474 0.77469 0.0
H722 H 0.97138 0.28654 0.68191 0.0
H723 H 0.03685 0.34221 0.72301 0.0
H724 H 0.95632 0.23672 0.6256 0.0
H725 H 0.95047 0.17958 0.61322 0.0
C726 C 0.60451 0.29624 0.46031 0.0
C727 C 0.64316 0.29328 0.49755 0.0
C728 C 0.64684 0.35671 0.5503 0.0
C729 C 0.60718 0.3588 0.51323 0.0
N730 N 0.56459 0.34423 0.43107 0.0
N731 N 0.71429 0.33082 0.57454 0.0
C732 C 0.59153 0.33312 0.46755 0.0
C733 C 0.66868 0.32699 0.54149 0.0
N734 N 0.57734 0.26179 0.41875 0.0
N735 N 0.66213 0.38196 0.59414 0.0
H736 H 0.73158 0.30997 0.56873 0.0
H737 H 0.7389 0.35805 0.60594 0.0
H738 H 0.65016 0.40674 0.60129 0.0
H739 H 0.68416 0.37657 0.62357 0.0
H740 H 0.54276 0.25739 0.39209 0.0
H741 H 0.58609 0.23463 0.41184 0.0
H742 H 0.55665 0.33024 0.39677 0.0
H743 H 0.55668 0.37243 0.43517 0.0
loop_
_geom_bond_atom_site_label_1
_geom_bond_atom_site_label_2
_geom_bond_distance
_geom_bond_site_symmetry_2
_ccdc_geom_bond_type
H0 C1 0.949 . S
C1 H0 0.949 . S
C1 C2 1.395 . S
C1 C3 1.391 . S
C2 C1 1.395 . S
C2 C5 1.390 . S
C3 C1 1.391 . S
C3 C7 1.387 . S
C3 C8 1.491 . S
H4 C5 0.950 . S
C5 C2 1.390 . S
C5 H4 0.950 . S
C5 C6 1.378 . S
C6 C5 1.378 . S
C6 C7 1.409 . S
C7 C3 1.387 . S
C7 C6 1.409 . S
C7 H9 0.951 . S
C8 C3 1.491 . S
C8 C10 1.382 . S
C8 C12 1.404 . S
H9 C7 0.951 . S
C10 C8 1.382 . S
C10 C11 1.390 . S
C10 H15 0.949 . S
C11 C10 1.390 . S
C11 C16 1.399 . S
C12 C8 1.404 . S
C12 H13 0.950 . S
C12 C14 1.375 . S
H13 C12 0.950 . S
C14 C12 1.375 . S
C14 C16 1.382 . S
C14 H18 0.950 . S
H15 C10 0.949 . S
C16 C11 1.399 . S
C16 C14 1.382 . S
C16 H17 0.952 . S
H17 C16 0.952 . S
H18 C14 0.950 . S
H19 C20 0.949 . S
C20 H19 0.949 . S
C20 C21 1.395 . S
C20 C22 1.391 . S
C21 C20 1.395 . S
C21 C24 1.390 . S
C22 C20 1.391 . S
C22 C26 1.387 . S
C22 C27 1.491 . S
H23 C24 0.950 . S
C24 C21 1.390 . S
C24 H23 0.950 . S
C24 C25 1.378 . S
C25 C24 1.378 . S
C25 C26 1.409 . S
C26 C22 1.387 . S
C26 C25 1.409 . S
C26 H28 0.951 . S
C27 C22 1.491 . S
C27 C29 1.382 . S
C27 C31 1.404 . S
H28 C26 0.951 . S
C29 C27 1.382 . S
C29 C30 1.390 . S
C29 H34 0.949 . S
C30 C29 1.390 . S
C30 C35 1.399 1_455 S
C31 C27 1.404 . S
C31 H32 0.950 . S
C31 C33 1.375 1_455 S
H32 C31 0.950 . S
C33 C31 1.375 1_655 S
C33 C35 1.382 . S
C33 H37 0.950 . S
H34 C29 0.949 . S
C35 C30 1.399 1_655 S
C35 C33 1.382 . S
C35 H36 0.952 . S
H36 C35 0.952 . S
H37 C33 0.950 . S
H38 C39 0.949 . S
C39 H38 0.949 . S
C39 C40 1.395 . S
C39 C41 1.391 . S
C40 C39 1.395 . S
C40 C43 1.390 . S
C41 C39 1.391 . S
C41 C45 1.387 . S
C41 C46 1.491 . S
H42 C43 0.950 . S
C43 C40 1.390 . S
C43 H42 0.950 . S
C43 C44 1.378 . S
C44 C43 1.378 . S
C44 C45 1.409 . S
C45 C41 1.387 . S
C45 C44 1.409 . S
C45 H47 0.951 . S
C46 C41 1.491 . S
C46 C48 1.382 . S
C46 C50 1.404 . S
H47 C45 0.951 . S
C48 C46 1.382 . S
C48 C49 1.390 . S
C48 H53 0.949 . S
C49 C48 1.390 . S
C49 C54 1.399 . S
C50 C46 1.404 . S
C50 H51 0.950 . S
C50 C52 1.375 . S
H51 C50 0.950 . S
C52 C50 1.375 . S
C52 C54 1.382 . S
C52 H56 0.950 . S
H53 C48 0.949 . S
C54 C49 1.399 . S
C54 C52 1.382 . S
C54 H55 0.952 . S
H55 C54 0.952 . S
H56 C52 0.950 . S
H57 C58 0.949 . S
C58 H57 0.949 . S
C58 C59 1.395 . S
C58 C60 1.391 . S
C59 C58 1.395 . S
C59 C62 1.390 . S
C60 C58 1.391 . S
C60 C64 1.387 . S
C60 C65 1.491 . S
H61 C62 0.950 . S
C62 C59 1.390 . S
C62 H61 0.950 . S
C62 C63 1.378 . S
C63 C62 1.378 . S
C63 C64 1.409 . S
C64 C60 1.387 . S
C64 C63 1.409 . S
C64 H66 0.951 . S
C65 C60 1.491 . S
C65 C67 1.382 . S
C65 C69 1.404 . S
H66 C64 0.951 . S
C67 C65 1.382 . S
C67 C68 1.390 . S
C67 H72 0.949 . S
C68 C67 1.390 . S
C68 C73 1.399 . S
C69 C65 1.404 . S
C69 H70 0.950 . S
C69 C71 1.375 . S
H70 C69 0.950 . S
C71 C69 1.375 . S
C71 C73 1.382 . S
C71 H75 0.950 . S
H72 C67 0.949 . S
C73 C68 1.399 . S
C73 C71 1.382 . S
C73 H74 0.952 . S
H74 C73 0.952 . S
H75 C71 0.950 . S
H76 C77 0.949 . S
C77 H76 0.949 . S
C77 C78 1.395 . S
C77 C79 1.391 . S
C78 C77 1.395 . S
C78 C81 1.390 . S
C79 C77 1.391 . S
C79 C83 1.387 . S
C79 C84 1.491 . S
H80 C81 0.950 . S
C81 C78 1.390 . S
C81 H80 0.950 . S
C81 C82 1.378 . S
C82 C81 1.378 . S
C82 C83 1.409 . S
C83 C79 1.387 . S
C83 C82 1.409 . S
C83 H85 0.951 . S
C84 C79 1.491 . S
C84 C86 1.382 . S
C84 C88 1.404 . S
H85 C83 0.951 . S
C86 C84 1.382 . S
C86 C87 1.390 . S
C86 H91 0.949 . S
C87 C86 1.390 . S
C87 C92 1.399 . S
C88 C84 1.404 . S
C88 H89 0.950 . S
C88 C90 1.375 . S
H89 C88 0.950 . S
C90 C88 1.375 . S
C90 C92 1.382 . S
C90 H94 0.950 . S
H91 C86 0.949 . S
C92 C87 1.399 . S
C92 C90 1.382 . S
C92 H93 0.952 . S
H93 C92 0.952 . S
H94 C90 0.950 . S
H95 C96 0.949 . S
C96 H95 0.949 . S
C96 C97 1.395 . S
C96 C98 1.391 . S
C97 C96 1.395 . S
C97 C100 1.390 . S
C98 C96 1.391 . S
C98 C102 1.387 . S
C98 C103 1.491 . S
H99 C100 0.950 . S
C100 C97 1.390 . S
C100 H99 0.950 . S
C100 C101 1.378 . S
C101 C100 1.378 . S
C101 C102 1.409 . S
C102 C98 1.387 . S
C102 C101 1.409 . S
C102 H104 0.951 . S
C103 C98 1.491 . S
C103 C105 1.382 . S
C103 C107 1.404 . S
H104 C102 0.951 . S
C105 C103 1.382 . S
C105 C106 1.390 . S
C105 H110 0.949 . S
C106 C105 1.390 . S
C106 C111 1.399 . S
C107 C103 1.404 . S
C107 H108 0.950 . S
C107 C109 1.375 . S
H108 C107 0.950 . S
C109 C107 1.375 . S
C109 C111 1.382 . S
C109 H113 0.950 . S
H110 C105 0.949 . S
C111 C106 1.399 . S
C111 C109 1.382 . S
C111 H112 0.952 . S
H112 C111 0.952 . S
H113 C109 0.950 . S
H114 C115 0.949 . S
C115 H114 0.949 . S
C115 C116 1.395 . S
C115 C117 1.391 . S
C116 C115 1.395 . S
C116 C119 1.390 . S
C117 C115 1.391 . S
C117 C121 1.387 . S
C117 C122 1.491 . S
H118 C119 0.950 . S
C119 C116 1.390 . S
C119 H118 0.950 . S
C119 C120 1.378 . S
C120 C119 1.378 . S
C120 C121 1.409 . S
C121 C117 1.387 . S
C121 C120 1.409 . S
C121 H123 0.951 . S
C122 C117 1.491 . S
C122 C124 1.382 . S
C122 C126 1.404 . S
H123 C121 0.951 . S
C124 C122 1.382 . S
C124 C125 1.390 . S
C124 H129 0.949 . S
C125 C124 1.390 . S
C125 C130 1.399 . S
C126 C122 1.404 . S
C126 H127 0.950 . S
C126 C128 1.375 . S
H127 C126 0.950 . S
C128 C126 1.375 . S
C128 C130 1.382 . S
C128 H132 0.950 . S
H129 C124 0.949 . S
C130 C125 1.399 . S
C130 C128 1.382 . S
C130 H131 0.952 . S
H131 C130 0.952 . S
H132 C128 0.950 . S
H133 C134 0.949 . S
C134 H133 0.949 . S
C134 C135 1.395 . S
C134 C136 1.391 . S
C135 C134 1.395 . S
C135 C138 1.390 . S
C136 C134 1.391 . S
C136 C140 1.387 . S
C136 C141 1.491 . S
H137 C138 0.950 . S
C138 C135 1.390 . S
C138 H137 0.950 . S
C138 C139 1.378 . S
C139 C138 1.378 . S
C139 C140 1.409 . S
C140 C136 1.387 . S
C140 C139 1.409 . S
C140 H142 0.951 . S
C141 C136 1.491 . S
C141 C143 1.382 . S
C141 C145 1.404 . S
H142 C140 0.951 . S
C143 C141 1.382 . S
C143 C144 1.390 . S
C143 H148 0.949 . S
C144 C143 1.390 . S
C144 C149 1.399 . S
C145 C141 1.404 . S
C145 H146 0.950 . S
C145 C147 1.375 . S
H146 C145 0.950 . S
C147 C145 1.375 . S
C147 C149 1.382 . S
C147 H151 0.950 . S
H148 C143 0.949 . S
C149 C144 1.399 . S
C149 C147 1.382 . S
C149 H150 0.952 . S
H150 C149 0.952 . S
H151 C147 0.950 . S
Pr152 C154 2.880 1_545 S
Pr152 O172 2.562 1_545 S
Pr152 O173 2.490 1_545 S
Pr152 O174 2.695 1_655 S
Pr152 O175 2.512 1_655 S
Pr152 O177 2.437 1_655 S
Pr152 O180 2.436 1_545 S
Pr152 O182 2.438 . S
Pr153 C163 2.880 . S
Pr153 O174 2.436 . S
Pr153 O176 2.438 . S
Pr153 O178 2.562 . S
Pr153 O179 2.490 . S
Pr153 O180 2.695 1_445 S
Pr153 O181 2.512 1_545 S
Pr153 O183 2.437 . S
C154 Pr152 2.880 1_565 S
C154 C155 1.491 . S
C154 O172 1.254 . S
C154 O173 1.225 . S
C155 C154 1.491 . S
C155 C156 1.392 . S
C155 C160 1.356 . S
C156 C155 1.392 . S
C156 C157 1.368 . S
C156 H184 0.929 . S
C157 C156 1.368 . S
C157 C158 1.386 . S
C157 H185 0.929 . S
C158 C157 1.386 . S
C158 C159 1.373 . S
C159 C158 1.373 . S
C159 C160 1.409 . S
C159 H186 0.931 . S
C160 C155 1.356 . S
C160 C159 1.409 . S
C160 H187 0.930 . S
C161 O174 1.270 . S
C161 O175 1.248 . S
C162 O176 1.267 1_565 S
C162 O177 1.278 1_565 S
C163 Pr153 2.880 . S
C163 C164 1.491 . S
C163 O178 1.254 . S
C163 O179 1.225 . S
C164 C163 1.491 . S
C164 C165 1.392 . S
C164 C169 1.356 . S
C165 C164 1.392 . S
C165 C166 1.368 . S
C165 H188 0.929 . S
C166 C165 1.368 . S
C166 C167 1.386 . S
C166 H189 0.929 . S
C167 C166 1.386 . S
C167 C168 1.373 . S
C168 C167 1.373 . S
C168 C169 1.409 . S
C168 H190 0.931 . S
C169 C164 1.356 . S
C169 C168 1.409 . S
C169 H191 0.930 . S
C170 O180 1.270 . S
C170 O181 1.248 1_655 S
C171 O182 1.267 . S
C171 O183 1.278 1_655 S
O172 Pr152 2.562 1_565 S
O172 C154 1.254 . S
O173 Pr152 2.490 1_565 S
O173 C154 1.225 . S
O174 Pr152 2.695 1_455 S
O174 Pr153 2.436 . S
O174 C161 1.270 . S
O175 Pr152 2.512 1_455 S
O175 C161 1.248 . S
O176 Pr153 2.438 . S
O176 C162 1.267 1_545 S
O177 Pr152 2.437 1_455 S
O177 C162 1.278 1_545 S
O178 Pr153 2.562 . S
O178 C163 1.254 . S
O179 Pr153 2.490 . S
O179 C163 1.225 . S
O180 Pr152 2.436 1_565 S
O180 Pr153 2.695 1_665 S
O180 C170 1.270 . S
O181 Pr153 2.512 1_565 S
O181 C170 1.248 1_455 S
O182 Pr152 2.438 . S
O182 C171 1.267 . S
O183 Pr153 2.437 . S
O183 C171 1.278 1_455 S
H184 C156 0.929 . S
H185 C157 0.929 . S
H186 C159 0.931 . S
H187 C160 0.930 . S
H188 C165 0.929 . S
H189 C166 0.929 . S
H190 C168 0.931 . S
H191 C169 0.930 . S
Pr192 C194 2.880 . S
Pr192 O212 2.562 . S
Pr192 O213 2.490 . S
Pr192 O214 2.695 . S
Pr192 O215 2.512 . S
Pr192 O217 2.437 . S
Pr192 O220 2.436 1_545 S
Pr192 O222 2.438 1_545 S
Pr193 C203 2.880 . S
Pr193 O214 2.436 1_565 S
Pr193 O216 2.438 1_565 S
Pr193 O218 2.562 . S
Pr193 O219 2.490 . S
Pr193 O220 2.695 . S
Pr193 O221 2.512 . S
Pr193 O223 2.437 . S
C194 Pr192 2.880 . S
C194 C195 1.491 . S
C194 O212 1.254 . S
C194 O213 1.225 . S
C195 C194 1.491 . S
C195 C196 1.392 . S
C195 C200 1.356 . S
C196 C195 1.392 . S
C196 C197 1.368 . S
C196 H224 0.929 . S
C197 C196 1.368 . S
C197 C198 1.386 . S
C197 H225 0.929 . S
C198 C197 1.386 . S
C198 C199 1.373 . S
C199 C198 1.373 . S
C199 C200 1.409 . S
C199 H226 0.931 . S
C200 C195 1.356 . S
C200 C199 1.409 . S
C200 H227 0.930 . S
C201 O214 1.270 . S
C201 O215 1.248 . S
C202 O216 1.267 . S
C202 O217 1.278 . S
C203 Pr193 2.880 . S
C203 C204 1.491 . S
C203 O218 1.254 . S
C203 O219 1.225 . S
C204 C203 1.491 . S
C204 C205 1.392 . S
C204 C209 1.356 1_554 S
C205 C204 1.392 . S
C205 C206 1.368 1_554 S
C205 H228 0.929 . S
C206 C205 1.368 1_556 S
C206 C207 1.386 . S
C206 H229 0.929 . S
C207 C206 1.386 . S
C207 C208 1.373 . S
C208 C207 1.373 . S
C208 C209 1.409 . S
C208 H230 0.931 . S
C209 C204 1.356 1_556 S
C209 C208 1.409 . S
C209 H231 0.930 . S
C210 O220 1.270 . S
C210 O221 1.248 . S
C211 O222 1.267 . S
C211 O223 1.278 . S
O212 Pr192 2.562 . S
O212 C194 1.254 . S
O213 Pr192 2.490 . S
O213 C194 1.225 . S
O214 Pr192 2.695 . S
O214 Pr193 2.436 1_545 S
O214 C201 1.270 . S
O215 Pr192 2.512 . S
O215 C201 1.248 . S
O216 Pr193 2.438 1_545 S
O216 C202 1.267 . S
O217 Pr192 2.437 . S
O217 C202 1.278 . S
O218 Pr193 2.562 . S
O218 C203 1.254 . S
O219 Pr193 2.490 . S
O219 C203 1.225 . S
O220 Pr192 2.436 1_565 S
O220 Pr193 2.695 . S
O220 C210 1.270 . S
O221 Pr193 2.512 . S
O221 C210 1.248 . S
O222 Pr192 2.438 1_565 S
O222 C211 1.267 . S
O223 Pr193 2.437 . S
O223 C211 1.278 . S
H224 C196 0.929 . S
H225 C197 0.929 . S
H226 C199 0.931 . S
H227 C200 0.930 . S
H228 C205 0.929 . S
H229 C206 0.929 . S
H230 C208 0.931 . S
H231 C209 0.930 . S
Pr232 C234 2.880 . S
Pr232 O252 2.562 . S
Pr232 O253 2.490 . S
Pr232 O254 2.695 . S
Pr232 O255 2.512 . S
Pr232 O257 2.437 . S
Pr232 O260 2.436 . S
Pr232 O262 2.438 . S
Pr233 C243 2.880 . S
Pr233 O254 2.436 . S
Pr233 O256 2.438 . S
Pr233 O258 2.562 . S
Pr233 O259 2.490 . S
Pr233 O260 2.695 . S
Pr233 O261 2.512 . S
Pr233 O263 2.437 . S
C234 Pr232 2.880 . S
C234 C235 1.491 . S
C234 O252 1.254 . S
C234 O253 1.225 . S
C235 C234 1.491 . S
C235 C236 1.392 . S
C235 C240 1.356 . S
C236 C235 1.392 . S
C236 C237 1.368 . S
C236 H264 0.929 . S
C237 C236 1.368 . S
C237 C238 1.386 . S
C237 H265 0.929 . S
C238 C237 1.386 . S
C238 C239 1.373 . S
C239 C238 1.373 . S
C239 C240 1.409 . S
C239 H266 0.931 . S
C240 C235 1.356 . S
C240 C239 1.409 . S
C240 H267 0.930 . S
C241 O254 1.270 . S
C241 O255 1.248 . S
C242 O256 1.267 . S
C242 O257 1.278 . S
C243 Pr233 2.880 . S
C243 C244 1.491 . S
C243 O258 1.254 . S
C243 O259 1.225 . S
C244 C243 1.491 . S
C244 C245 1.392 . S
C244 C249 1.356 . S
C245 C244 1.392 . S
C245 C246 1.368 . S
C245 H268 0.929 . S
C246 C245 1.368 . S
C246 C247 1.386 . S
C246 H269 0.929 . S
C247 C246 1.386 . S
C247 C248 1.373 . S
C248 C247 1.373 . S
C248 C249 1.409 . S
C248 H270 0.931 . S
C249 C244 1.356 . S
C249 C248 1.409 . S
C249 H271 0.930 . S
C250 O260 1.270 . S
C250 O261 1.248 . S
C251 O262 1.267 . S
C251 O263 1.278 . S
O252 Pr232 2.562 . S
O252 C234 1.254 . S
O253 Pr232 2.490 . S
O253 C234 1.225 . S
O254 Pr232 2.695 . S
O254 Pr233 2.436 . S
O254 C241 1.270 . S
O255 Pr232 2.512 . S
O255 C241 1.248 . S
O256 Pr233 2.438 . S
O256 C242 1.267 . S
O257 Pr232 2.437 . S
O257 C242 1.278 . S
O258 Pr233 2.562 . S
O258 C243 1.254 . S
O259 Pr233 2.490 . S
O259 C243 1.225 . S
O260 Pr232 2.436 . S
O260 Pr233 2.695 . S
O260 C250 1.270 . S
O261 Pr233 2.512 . S
O261 C250 1.248 . S
O262 Pr232 2.438 . S
O262 C251 1.267 . S
O263 Pr233 2.437 . S
O263 C251 1.278 . S
H264 C236 0.929 . S
H265 C237 0.929 . S
H266 C239 0.931 . S
H267 C240 0.930 . S
H268 C245 0.929 . S
H269 C246 0.929 . S
H270 C248 0.931 . S
H271 C249 0.930 . S
Pr272 C274 2.880 . S
Pr272 O292 2.562 1_455 S
Pr272 O293 2.490 . S
Pr272 O294 2.695 1_556 S
Pr272 O295 2.512 1_556 S
Pr272 O297 2.437 1_556 S
Pr272 O300 2.436 1_455 S
Pr272 O302 2.438 . S
Pr273 C283 2.880 . S
Pr273 O294 2.436 . S
Pr273 O296 2.438 . S
Pr273 O298 2.562 . S
Pr273 O299 2.490 . S
Pr273 O300 2.695 1_454 S
Pr273 O301 2.512 1_455 S
Pr273 O303 2.437 . S
C274 Pr272 2.880 . S
C274 C275 1.491 1_455 S
C274 O292 1.254 1_455 S
C274 O293 1.225 . S
C275 C274 1.491 1_655 S
C275 C276 1.392 1_655 S
C275 C280 1.356 . S
C276 C275 1.392 1_455 S
C276 C277 1.368 1_455 S
C276 H304 0.929 . S
C277 C276 1.368 1_655 S
C277 C278 1.386 . S
C277 H305 0.929 1_655 S
C278 C277 1.386 . S
C278 C279 1.373 . S
C279 C278 1.373 . S
C279 C280 1.409 . S
C279 H306 0.931 . S
C280 C275 1.356 . S
C280 C279 1.409 . S
C280 H307 0.930 . S
C281 O294 1.270 . S
C281 O295 1.248 . S
C282 O296 1.267 . S
C282 O297 1.278 . S
C283 Pr273 2.880 . S
C283 C284 1.491 . S
C283 O298 1.254 . S
C283 O299 1.225 . S
C284 C283 1.491 . S
C284 C285 1.392 . S
C284 C289 1.356 . S
C285 C284 1.392 . S
C285 C286 1.368 . S
C285 H308 0.929 . S
C286 C285 1.368 . S
C286 C287 1.386 . S
C286 H309 0.929 . S
C287 C286 1.386 . S
C287 C288 1.373 . S
C288 C287 1.373 . S
C288 C289 1.409 . S
C288 H310 0.931 . S
C289 C284 1.356 . S
C289 C288 1.409 . S
C289 H311 0.930 . S
C290 O300 1.270 . S
C290 O301 1.248 1_556 S
C291 O302 1.267 . S
C291 O303 1.278 1_556 S
O292 Pr272 2.562 1_655 S
O292 C274 1.254 1_655 S
O293 Pr272 2.490 . S
O293 C274 1.225 . S
O294 Pr272 2.695 1_554 S
O294 Pr273 2.436 . S
O294 C281 1.270 . S
O295 Pr272 2.512 1_554 S
O295 C281 1.248 . S
O296 Pr273 2.438 . S
O296 C282 1.267 . S
O297 Pr272 2.437 1_554 S
O297 C282 1.278 . S
O298 Pr273 2.562 . S
O298 C283 1.254 . S
O299 Pr273 2.490 . S
O299 C283 1.225 . S
O300 Pr272 2.436 1_655 S
O300 Pr273 2.695 1_656 S
O300 C290 1.270 . S
O301 Pr273 2.512 1_655 S
O301 C290 1.248 1_554 S
O302 Pr272 2.438 . S
O302 C291 1.267 . S
O303 Pr273 2.437 . S
O303 C291 1.278 1_554 S
H304 C276 0.929 . S
H305 C277 0.929 1_455 S
H306 C279 0.931 . S
H307 C280 0.930 . S
H308 C285 0.929 . S
H309 C286 0.929 . S
H310 C288 0.931 . S
H311 C289 0.930 . S
C312 C313 1.363 . S
C312 C318 1.379 . S
C312 N320 1.356 . S
C313 C312 1.363 . S
C313 C319 1.363 . S
C314 C315 1.363 . S
C314 C319 1.379 . S
C314 N321 1.356 . S
C315 C314 1.363 . S
C315 C318 1.363 . S
N316 C318 1.356 . S
N316 H328 0.984 . S
N316 H329 0.985 . S
N317 C319 1.356 . S
N317 H322 0.984 . S
N317 H323 0.985 . S
C318 C312 1.379 . S
C318 C315 1.363 . S
C318 N316 1.356 . S
C319 C313 1.363 . S
C319 C314 1.379 . S
C319 N317 1.356 . S
N320 C312 1.356 . S
N320 H326 0.984 . S
N320 H327 0.984 . S
N321 C314 1.356 . S
N321 H324 0.984 . S
N321 H325 0.985 . S
H322 N317 0.984 . S
H323 N317 0.985 . S
H324 N321 0.984 . S
H325 N321 0.985 . S
H326 N320 0.984 . S
H327 N320 0.984 . S
H328 N316 0.984 . S
H329 N316 0.985 . S
C330 C331 1.363 . S
C330 C336 1.379 . S
C330 N338 1.356 . S
C331 C330 1.363 . S
C331 C337 1.363 . S
C332 C333 1.363 . S
C332 C337 1.379 . S
C332 N339 1.356 . S
C333 C332 1.363 . S
C333 C336 1.363 . S
N334 C336 1.356 1_554 S
N334 H346 0.984 . S
N334 H347 0.985 . S
N335 C337 1.356 . S
N335 H340 0.984 . S
N335 H341 0.985 . S
C336 C330 1.379 . S
C336 C333 1.363 . S
C336 N334 1.356 1_556 S
C337 C331 1.363 . S
C337 C332 1.379 . S
C337 N335 1.356 . S
N338 C330 1.356 . S
N338 H344 0.984 . S
N338 H345 0.984 . S
N339 C332 1.356 . S
N339 H342 0.984 . S
N339 H343 0.985 . S
H340 N335 0.984 . S
H341 N335 0.985 . S
H342 N339 0.984 . S
H343 N339 0.985 . S
H344 N338 0.984 . S
H345 N338 0.984 . S
H346 N334 0.984 . S
H347 N334 0.985 . S
C348 C349 1.363 . S
C348 C354 1.379 . S
C348 N356 1.356 . S
C349 C348 1.363 . S
C349 C355 1.363 . S
C350 C351 1.363 . S
C350 C355 1.379 . S
C350 N357 1.356 . S
C351 C350 1.363 . S
C351 C354 1.363 . S
N352 C354 1.356 . S
N352 H364 0.984 . S
N352 H365 0.985 . S
N353 C355 1.356 . S
N353 H358 0.984 . S
N353 H359 0.985 . S
C354 C348 1.379 . S
C354 C351 1.363 . S
C354 N352 1.356 . S
C355 C349 1.363 . S
C355 C350 1.379 . S
C355 N353 1.356 . S
N356 C348 1.356 . S
N356 H362 0.984 . S
N356 H363 0.984 . S
N357 C350 1.356 . S
N357 H360 0.984 . S
N357 H361 0.985 . S
H358 N353 0.984 . S
H359 N353 0.985 . S
H360 N357 0.984 . S
H361 N357 0.985 . S
H362 N356 0.984 . S
H363 N356 0.984 . S
H364 N352 0.984 . S
H365 N352 0.985 . S
C366 C367 1.363 . S
C366 C372 1.379 . S
C366 N374 1.356 . S
C367 C366 1.363 . S
C367 C373 1.363 . S
C368 C369 1.363 . S
C368 C373 1.379 . S
C368 N375 1.356 . S
C369 C368 1.363 . S
C369 C372 1.363 . S
N370 C372 1.356 . S
N370 H382 0.984 . S
N370 H383 0.985 . S
N371 C373 1.356 . S
N371 H376 0.984 . S
N371 H377 0.985 . S
C372 C366 1.379 . S
C372 C369 1.363 . S
C372 N370 1.356 . S
C373 C367 1.363 . S
C373 C368 1.379 . S
C373 N371 1.356 . S
N374 C366 1.356 . S
N374 H380 0.984 . S
N374 H381 0.984 . S
N375 C368 1.356 . S
N375 H378 0.984 . S
N375 H379 0.985 . S
H376 N371 0.984 . S
H377 N371 0.985 . S
H378 N375 0.984 . S
H379 N375 0.985 . S
H380 N374 0.984 . S
H381 N374 0.984 . S
H382 N370 0.984 . S
H383 N370 0.985 . S
C384 C385 1.363 . S
C384 C390 1.379 . S
C384 N392 1.356 . S
C385 C384 1.363 . S
C385 C391 1.363 . S
C386 C387 1.363 . S
C386 C391 1.379 . S
C386 N393 1.356 . S
C387 C386 1.363 . S
C387 C390 1.363 . S
N388 C390 1.356 . S
N388 H400 0.984 . S
N388 H401 0.985 . S
N389 C391 1.356 . S
N389 H394 0.984 . S
N389 H395 0.985 . S
C390 C384 1.379 . S
C390 C387 1.363 . S
C390 N388 1.356 . S
C391 C385 1.363 . S
C391 C386 1.379 . S
C391 N389 1.356 . S
N392 C384 1.356 . S
N392 H398 0.984 . S
N392 H399 0.984 . S
N393 C386 1.356 . S
N393 H396 0.984 . S
N393 H397 0.985 . S
H394 N389 0.984 . S
H395 N389 0.985 . S
H396 N393 0.984 . S
H397 N393 0.985 . S
H398 N392 0.984 . S
H399 N392 0.984 . S
H400 N388 0.984 . S
H401 N388 0.985 . S
C402 C403 1.363 . S
C402 C408 1.379 . S
C402 N410 1.356 . S
C403 C402 1.363 . S
C403 C409 1.363 1_455 S
C404 C405 1.363 1_655 S
C404 C409 1.379 . S
C404 N411 1.356 . S
C405 C404 1.363 1_455 S
C405 C408 1.363 . S
N406 C408 1.356 . S
N406 H418 0.984 1_565 S
N406 H419 0.985 1_565 S
N407 C409 1.356 . S
N407 H412 0.984 . S
N407 H413 0.985 . S
C408 C402 1.379 . S
C408 C405 1.363 . S
C408 N406 1.356 . S
C409 C403 1.363 1_655 S
C409 C404 1.379 . S
C409 N407 1.356 . S
N410 C402 1.356 . S
N410 H416 0.984 . S
N410 H417 0.984 . S
N411 C404 1.356 . S
N411 H414 0.984 . S
N411 H415 0.985 . S
H412 N407 0.984 . S
H413 N407 0.985 . S
H414 N411 0.984 . S
H415 N411 0.985 . S
H416 N410 0.984 . S
H417 N410 0.984 . S
H418 N406 0.984 1_545 S
H419 N406 0.985 1_545 S
C420 C421 1.363 . S
C420 C426 1.379 . S
C420 N428 1.356 . S
C421 C420 1.363 . S
C421 C427 1.363 . S
C422 C423 1.363 . S
C422 C427 1.379 . S
C422 N429 1.356 1_556 S
C423 C422 1.363 . S
C423 C426 1.363 . S
N424 C426 1.356 . S
N424 H436 0.984 . S
N424 H437 0.985 . S
N425 C427 1.356 . S
N425 H430 0.984 . S
N425 H431 0.985 . S
C426 C420 1.379 . S
C426 C423 1.363 . S
C426 N424 1.356 . S
C427 C421 1.363 . S
C427 C422 1.379 . S
C427 N425 1.356 . S
N428 C420 1.356 . S
N428 H434 0.984 . S
N428 H435 0.984 . S
N429 C422 1.356 1_554 S
N429 H432 0.984 . S
N429 H433 0.985 . S
H430 N425 0.984 . S
H431 N425 0.985 . S
H432 N429 0.984 . S
H433 N429 0.985 . S
H434 N428 0.984 . S
H435 N428 0.984 . S
H436 N424 0.984 . S
H437 N424 0.985 . S
C438 C439 1.363 . S
C438 C444 1.379 . S
C438 N446 1.356 . S
C439 C438 1.363 . S
C439 C445 1.363 . S
C440 C441 1.363 . S
C440 C445 1.379 . S
C440 N447 1.356 . S
C441 C440 1.363 . S
C441 C444 1.363 . S
N442 C444 1.356 . S
N442 H454 0.984 . S
N442 H455 0.985 . S
N443 C445 1.356 . S
N443 H448 0.984 . S
N443 H449 0.985 . S
C444 C438 1.379 . S
C444 C441 1.363 . S
C444 N442 1.356 . S
C445 C439 1.363 . S
C445 C440 1.379 . S
C445 N443 1.356 . S
N446 C438 1.356 . S
N446 H452 0.984 . S
N446 H453 0.984 . S
N447 C440 1.356 . S
N447 H450 0.984 . S
N447 H451 0.985 . S
H448 N443 0.984 . S
H449 N443 0.985 . S
H450 N447 0.984 . S
H451 N447 0.985 . S
H452 N446 0.984 . S
H453 N446 0.984 . S
H454 N442 0.984 . S
H455 N442 0.985 . S
C456 C457 1.363 . S
C456 C462 1.379 . S
C456 N464 1.356 . S
C457 C456 1.363 . S
C457 C463 1.363 . S
C458 C459 1.363 . S
C458 C463 1.379 . S
C458 N465 1.356 . S
C459 C458 1.363 . S
C459 C462 1.363 . S
N460 C462 1.356 . S
N460 H472 0.984 . S
N460 H473 0.985 . S
N461 C463 1.356 . S
N461 H466 0.984 . S
N461 H467 0.985 . S
C462 C456 1.379 . S
C462 C459 1.363 . S
C462 N460 1.356 . S
C463 C457 1.363 . S
C463 C458 1.379 . S
C463 N461 1.356 . S
N464 C456 1.356 . S
N464 H470 0.984 . S
N464 H471 0.984 . S
N465 C458 1.356 . S
N465 H468 0.984 . S
N465 H469 0.985 . S
H466 N461 0.984 . S
H467 N461 0.985 . S
H468 N465 0.984 . S
H469 N465 0.985 . S
H470 N464 0.984 . S
H471 N464 0.984 . S
H472 N460 0.984 . S
H473 N460 0.985 . S
C474 C475 1.363 . S
C474 C480 1.379 1_556 S
C474 N482 1.356 . S
C475 C474 1.363 . S
C475 C481 1.363 . S
C476 C477 1.363 1_556 S
C476 C481 1.379 . S
C476 N483 1.356 . S
C477 C476 1.363 1_554 S
C477 C480 1.363 . S
N478 C480 1.356 . S
N478 H490 0.984 . S
N478 H491 0.985 . S
N479 C481 1.356 . S
N479 H484 0.984 . S
N479 H485 0.985 . S
C480 C474 1.379 1_554 S
C480 C477 1.363 . S
C480 N478 1.356 . S
C481 C475 1.363 . S
C481 C476 1.379 . S
C481 N479 1.356 . S
N482 C474 1.356 . S
N482 H488 0.984 1_556 S
N482 H489 0.984 . S
N483 C476 1.356 . S
N483 H486 0.984 . S
N483 H487 0.985 . S
H484 N479 0.984 . S
H485 N479 0.985 . S
H486 N483 0.984 . S
H487 N483 0.985 . S
H488 N482 0.984 1_554 S
H489 N482 0.984 . S
H490 N478 0.984 . S
H491 N478 0.985 . S
C492 C493 1.363 . S
C492 C498 1.379 . S
C492 N500 1.356 . S
C493 C492 1.363 . S
C493 C499 1.363 . S
C494 C495 1.363 . S
C494 C499 1.379 . S
C494 N501 1.356 . S
C495 C494 1.363 . S
C495 C498 1.363 . S
N496 C498 1.356 . S
N496 H508 0.984 . S
N496 H509 0.985 . S
N497 C499 1.356 . S
N497 H502 0.984 . S
N497 H503 0.985 . S
C498 C492 1.379 . S
C498 C495 1.363 . S
C498 N496 1.356 . S
C499 C493 1.363 . S
C499 C494 1.379 . S
C499 N497 1.356 . S
N500 C492 1.356 . S
N500 H506 0.984 . S
N500 H507 0.984 . S
N501 C494 1.356 . S
N501 H504 0.984 . S
N501 H505 0.985 . S
H502 N497 0.984 . S
H503 N497 0.985 . S
H504 N501 0.984 . S
H505 N501 0.985 . S
H506 N500 0.984 . S
H507 N500 0.984 . S
H508 N496 0.984 . S
H509 N496 0.985 . S
C510 C511 1.363 . S
C510 C516 1.379 . S
C510 N518 1.356 . S
C511 C510 1.363 . S
C511 C517 1.363 . S
C512 C513 1.363 . S
C512 C517 1.379 . S
C512 N519 1.356 . S
C513 C512 1.363 . S
C513 C516 1.363 . S
N514 C516 1.356 . S
N514 H526 0.984 . S
N514 H527 0.985 . S
N515 C517 1.356 . S
N515 H520 0.984 . S
N515 H521 0.985 . S
C516 C510 1.379 . S
C516 C513 1.363 . S
C516 N514 1.356 . S
C517 C511 1.363 . S
C517 C512 1.379 . S
C517 N515 1.356 . S
N518 C510 1.356 . S
N518 H524 0.984 . S
N518 H525 0.984 . S
N519 C512 1.356 . S
N519 H522 0.984 . S
N519 H523 0.985 . S
H520 N515 0.984 . S
H521 N515 0.985 . S
H522 N519 0.984 . S
H523 N519 0.985 . S
H524 N518 0.984 . S
H525 N518 0.984 . S
H526 N514 0.984 . S
H527 N514 0.985 . S
C528 C529 1.363 . S
C528 C534 1.379 . S
C528 N536 1.356 . S
C529 C528 1.363 . S
C529 C535 1.363 . S
C530 C531 1.363 . S
C530 C535 1.379 . S
C530 N537 1.356 . S
C531 C530 1.363 . S
C531 C534 1.363 . S
N532 C534 1.356 . S
N532 H544 0.984 . S
N532 H545 0.985 . S
N533 C535 1.356 . S
N533 H538 0.984 . S
N533 H539 0.985 . S
C534 C528 1.379 . S
C534 C531 1.363 . S
C534 N532 1.356 . S
C535 C529 1.363 . S
C535 C530 1.379 . S
C535 N533 1.356 . S
N536 C528 1.356 . S
N536 H542 0.984 . S
N536 H543 0.984 . S
N537 C530 1.356 . S
N537 H540 0.984 . S
N537 H541 0.985 . S
H538 N533 0.984 . S
H539 N533 0.985 . S
H540 N537 0.984 . S
H541 N537 0.985 . S
H542 N536 0.984 . S
H543 N536 0.984 . S
H544 N532 0.984 . S
H545 N532 0.985 . S
C546 C547 1.363 . S
C546 C552 1.379 . S
C546 N554 1.356 . S
C547 C546 1.363 . S
C547 C553 1.363 . S
C548 C549 1.363 . S
C548 C553 1.379 . S
C548 N555 1.356 . S
C549 C548 1.363 . S
C549 C552 1.363 . S
N550 C552 1.356 . S
N550 H562 0.984 . S
N550 H563 0.985 . S
N551 C553 1.356 . S
N551 H556 0.984 . S
N551 H557 0.985 . S
C552 C546 1.379 . S
C552 C549 1.363 . S
C552 N550 1.356 . S
C553 C547 1.363 . S
C553 C548 1.379 . S
C553 N551 1.356 . S
N554 C546 1.356 . S
N554 H560 0.984 . S
N554 H561 0.984 . S
N555 C548 1.356 . S
N555 H558 0.984 . S
N555 H559 0.985 . S
H556 N551 0.984 . S
H557 N551 0.985 . S
H558 N555 0.984 . S
H559 N555 0.985 . S
H560 N554 0.984 . S
H561 N554 0.984 . S
H562 N550 0.984 . S
H563 N550 0.985 . S
C564 C565 1.363 . S
C564 C570 1.379 . S
C564 N572 1.356 . S
C565 C564 1.363 . S
C565 C571 1.363 . S
C566 C567 1.363 . S
C566 C571 1.379 . S
C566 N573 1.356 . S
C567 C566 1.363 . S
C567 C570 1.363 . S
N568 C570 1.356 . S
N568 H580 0.984 . S
N568 H581 0.985 . S
N569 C571 1.356 . S
N569 H574 0.984 . S
N569 H575 0.985 . S
C570 C564 1.379 . S
C570 C567 1.363 . S
C570 N568 1.356 . S
C571 C565 1.363 . S
C571 C566 1.379 . S
C571 N569 1.356 . S
N572 C564 1.356 . S
N572 H578 0.984 . S
N572 H579 0.984 . S
N573 C566 1.356 . S
N573 H576 0.984 . S
N573 H577 0.985 . S
H574 N569 0.984 . S
H575 N569 0.985 . S
H576 N573 0.984 . S
H577 N573 0.985 . S
H578 N572 0.984 . S
H579 N572 0.984 . S
H580 N568 0.984 . S
H581 N568 0.985 . S
C582 C583 1.363 . S
C582 C588 1.379 . S
C582 N590 1.356 . S
C583 C582 1.363 . S
C583 C589 1.363 . S
C584 C585 1.363 . S
C584 C589 1.379 . S
C584 N591 1.356 . S
C585 C584 1.363 . S
C585 C588 1.363 . S
N586 C588 1.356 . S
N586 H598 0.984 1_556 S
N586 H599 0.992 . S
N587 C589 1.356 . S
N587 H592 0.984 . S
N587 H593 0.985 . S
C588 C582 1.379 . S
C588 C585 1.363 . S
C588 N586 1.356 . S
C589 C583 1.363 . S
C589 C584 1.379 . S
C589 N587 1.356 . S
N590 C582 1.356 . S
N590 H596 0.984 . S
N590 H597 0.984 . S
N591 C584 1.356 . S
N591 H594 0.984 . S
N591 H595 0.985 . S
H592 N587 0.984 . S
H593 N587 0.985 . S
H594 N591 0.984 . S
H595 N591 0.985 . S
H596 N590 0.984 . S
H597 N590 0.984 . S
H598 N586 0.984 1_554 S
H599 N586 0.992 . S
C600 C601 1.363 . S
C600 C606 1.379 . S
C600 N608 1.356 . S
C601 C600 1.363 . S
C601 C607 1.363 . S
C602 C603 1.363 . S
C602 C607 1.379 . S
C602 N609 1.356 . S
C603 C602 1.363 . S
C603 C606 1.363 . S
N604 C606 1.356 . S
N604 H616 0.984 . S
N604 H617 0.985 . S
N605 C607 1.356 . S
N605 H610 0.984 . S
N605 H611 0.985 . S
C606 C600 1.379 . S
C606 C603 1.363 . S
C606 N604 1.356 . S
C607 C601 1.363 . S
C607 C602 1.379 . S
C607 N605 1.356 . S
N608 C600 1.356 . S
N608 H614 0.984 . S
N608 H615 0.984 . S
N609 C602 1.356 . S
N609 H612 0.984 . S
N609 H613 0.985 1_556 S
H610 N605 0.984 . S
H611 N605 0.985 . S
H612 N609 0.984 . S
H613 N609 0.985 1_554 S
H614 N608 0.984 . S
H615 N608 0.984 . S
H616 N604 0.984 . S
H617 N604 0.985 . S
C618 C619 1.363 . S
C618 C624 1.379 . S
C618 N626 1.356 . S
C619 C618 1.363 . S
C619 C625 1.363 . S
C620 C621 1.363 . S
C620 C625 1.379 . S
C620 N627 1.356 1_655 S
C621 C620 1.363 . S
C621 C624 1.363 . S
N622 C624 1.356 . S
N622 H634 0.984 . S
N622 H635 0.985 . S
N623 C625 1.356 1_455 S
N623 H628 0.984 1_455 S
N623 H629 0.985 . S
C624 C618 1.379 . S
C624 C621 1.363 . S
C624 N622 1.356 . S
C625 C619 1.363 . S
C625 C620 1.379 . S
C625 N623 1.356 1_655 S
N626 C618 1.356 . S
N626 H632 0.984 . S
N626 H633 0.984 . S
N627 C620 1.356 1_455 S
N627 H630 0.984 . S
N627 H631 0.985 . S
H628 N623 0.984 1_655 S
H629 N623 0.985 . S
H630 N627 0.984 . S
H631 N627 0.985 . S
H632 N626 0.984 . S
H633 N626 0.984 . S
H634 N622 0.984 . S
H635 N622 0.985 . S
C636 C637 1.363 . S
C636 C642 1.379 . S
C636 N644 1.356 . S
C637 C636 1.363 . S
C637 C643 1.363 . S
C638 C639 1.363 . S
C638 C643 1.379 . S
C638 N645 1.356 . S
C639 C638 1.363 . S
C639 C642 1.363 . S
N640 C642 1.356 . S
N640 H652 0.984 . S
N640 H653 0.985 . S
N641 C643 1.356 . S
N641 H646 0.984 . S
N641 H647 0.985 . S
C642 C636 1.379 . S
C642 C639 1.363 . S
C642 N640 1.356 . S
C643 C637 1.363 . S
C643 C638 1.379 . S
C643 N641 1.356 . S
N644 C636 1.356 . S
N644 H650 0.984 . S
N644 H651 0.984 . S
N645 C638 1.356 . S
N645 H648 0.984 . S
N645 H649 0.985 . S
H646 N641 0.984 . S
H647 N641 0.985 . S
H648 N645 0.984 . S
H649 N645 0.985 . S
H650 N644 0.984 . S
H651 N644 0.984 . S
H652 N640 0.984 . S
H653 N640 0.985 . S
C654 C655 1.363 . S
C654 C660 1.379 . S
C654 N662 1.356 . S
C655 C654 1.363 . S
C655 C661 1.363 . S
C656 C657 1.363 . S
C656 C661 1.379 . S
C656 N663 1.356 . S
C657 C656 1.363 . S
C657 C660 1.363 . S
N658 C660 1.356 . S
N658 H670 0.984 . S
N658 H671 0.985 . S
N659 C661 1.356 . S
N659 H664 0.984 . S
N659 H665 0.985 . S
C660 C654 1.379 . S
C660 C657 1.363 . S
C660 N658 1.356 . S
C661 C655 1.363 . S
C661 C656 1.379 . S
C661 N659 1.356 . S
N662 C654 1.356 . S
N662 H668 0.984 . S
N662 H669 0.984 . S
N663 C656 1.356 . S
N663 H666 0.984 . S
N663 H667 0.985 . S
H664 N659 0.984 . S
H665 N659 0.985 . S
H666 N663 0.984 . S
H667 N663 0.985 . S
H668 N662 0.984 . S
H669 N662 0.984 . S
H670 N658 0.984 . S
H671 N658 0.985 . S
C672 C673 1.363 . S
C672 C678 1.379 . S
C672 N680 1.356 . S
C673 C672 1.363 . S
C673 C679 1.363 . S
C674 C675 1.363 . S
C674 C679 1.379 . S
C674 N681 1.356 . S
C675 C674 1.363 . S
C675 C678 1.363 . S
N676 C678 1.356 . S
N676 H688 0.984 . S
N676 H689 0.985 . S
N677 C679 1.356 . S
N677 H682 0.984 . S
N677 H683 0.985 . S
C678 C672 1.379 . S
C678 C675 1.363 . S
C678 N676 1.356 . S
C679 C673 1.363 . S
C679 C674 1.379 . S
C679 N677 1.356 . S
N680 C672 1.356 . S
N680 H686 0.984 . S
N680 H687 0.984 . S
N681 C674 1.356 . S
N681 H684 0.984 . S
N681 H685 0.985 . S
H682 N677 0.984 . S
H683 N677 0.985 . S
H684 N681 0.984 . S
H685 N681 0.985 . S
H686 N680 0.984 . S
H687 N680 0.984 . S
H688 N676 0.984 . S
H689 N676 0.985 . S
C690 C691 1.363 . S
C690 C696 1.379 . S
C690 N698 1.356 . S
C691 C690 1.363 . S
C691 C697 1.363 . S
C692 C693 1.363 . S
C692 C697 1.379 . S
C692 N699 1.356 . S
C693 C692 1.363 . S
C693 C696 1.363 . S
N694 C696 1.356 . S
N694 H706 0.984 1_565 S
N694 H707 0.985 . S
N695 C697 1.356 . S
N695 H700 0.984 . S
N695 H701 0.985 . S
C696 C690 1.379 . S
C696 C693 1.363 . S
C696 N694 1.356 . S
C697 C691 1.363 . S
C697 C692 1.379 . S
C697 N695 1.356 . S
N698 C690 1.356 . S
N698 H704 0.984 . S
N698 H705 0.984 . S
N699 C692 1.356 . S
N699 H702 0.984 . S
N699 H703 0.985 . S
H700 N695 0.984 . S
H701 N695 0.985 . S
H702 N699 0.984 . S
H703 N699 0.985 . S
H704 N698 0.984 . S
H705 N698 0.984 . S
H706 N694 0.984 1_545 S
H707 N694 0.985 . S
C708 C709 1.363 . S
C708 C714 1.379 . S
C708 N716 1.356 . S
C709 C708 1.363 . S
C709 C715 1.363 . S
C710 C711 1.363 . S
C710 C715 1.379 . S
C710 N717 1.356 . S
C711 C710 1.363 . S
C711 C714 1.363 . S
N712 C714 1.356 . S
N712 H724 0.984 . S
N712 H725 0.985 . S
N713 C715 1.356 . S
N713 H718 0.984 . S
N713 H719 0.985 . S
C714 C708 1.379 . S
C714 C711 1.363 . S
C714 N712 1.356 . S
C715 C709 1.363 . S
C715 C710 1.379 . S
C715 N713 1.356 . S
N716 C708 1.356 . S
N716 H722 0.984 . S
N716 H723 0.984 . S
N717 C710 1.356 . S
N717 H720 0.984 . S
N717 H721 0.985 . S
H718 N713 0.984 . S
H719 N713 0.985 . S
H720 N717 0.984 . S
H721 N717 0.985 . S
H722 N716 0.984 . S
H723 N716 0.984 . S
H724 N712 0.984 . S
H725 N712 0.985 . S
C726 C727 1.363 . S
C726 C732 1.379 . S
C726 N734 1.356 . S
C727 C726 1.363 . S
C727 C733 1.363 . S
C728 C729 1.363 . S
C728 C733 1.379 . S
C728 N735 1.356 . S
C729 C728 1.363 . S
C729 C732 1.363 . S
N730 C732 1.356 . S
N730 H742 0.984 . S
N730 H743 0.985 . S
N731 C733 1.356 . S
N731 H736 0.984 . S
N731 H737 0.985 . S
C732 C726 1.379 . S
C732 C729 1.363 . S
C732 N730 1.356 . S
C733 C727 1.363 . S
C733 C728 1.379 . S
C733 N731 1.356 . S
N734 C726 1.356 . S
N734 H740 0.984 . S
N734 H741 0.984 . S
N735 C728 1.356 . S
N735 H738 0.984 . S
N735 H739 0.985 . S
H736 N731 0.984 . S
H737 N731 0.985 . S
H738 N735 0.984 . S
H739 N735 0.985 . S
H740 N734 0.984 . S
H741 N734 0.984 . S
H742 N730 0.984 . S
H743 N730 0.985 . S
C313 C6 1.271 . S
C315 C167 1.326 . S
C331 C21 1.805 . S
C333 C211 1.846 1_556 S
C351 C241 2.212 . S
C349 C49 2.108 . S
C367 C68 2.602 . S
C369 C282 2.622 1_655 S
C387 C198 1.787 . S
C385 C2 1.648 . S
C405 C162 2.050 . S
C403 C30 1.997 . S
C423 C290 1.316 . S
C421 C40 1.427 . S
C441 C251 2.405 . S
C439 C63 2.501 . S
C457 C11 1.698 . S
C459 C287 1.621 . S
C477 C201 2.341 . S
C475 C44 2.390 . S
C493 C59 1.547 . S
C495 C170 1.564 . S
C511 C25 2.799 . S
C513 C238 2.696 . S
C531 C158 1.441 . S
C529 C82 1.401 . S
C547 C101 1.505 . S
C549 C202 1.539 . S
C565 C125 1.709 . S
C567 C250 1.983 . S
C583 C144 2.427 . S
C585 C291 2.374 . S
C601 C87 0.997 . S
C603 C207 1.058 . S
C621 C171 2.980 . S
C619 C97 2.917 . S
C639 C281 1.420 . S
C637 C120 1.331 . S
C657 C242 1.819 . S
C655 C135 1.834 . S
C673 C78 2.464 . S
C675 C278 2.511 . S
C693 C210 1.416 . S
C691 C116 1.365 . S
C711 C161 2.095 . S
C709 C139 2.164 . S
C727 C106 1.666 . S
C729 C247 2.109 . S
