# Generated by pormake.
# Topology rtl, (3,6)-cn, num edge types: 1
# Building blocks:
#     Node 0, Type 0, BuildingBlock: ESEHIV_clean_linker_0, # of connection points: 3
#     Node 1, Type 0, BuildingBlock: ESEHIV_clean_linker_0, # of connection points: 3
#     Node 2, Type 0, BuildingBlock: ESEHIV_clean_linker_0, # of connection points: 3
#     Node 3, Type 0, BuildingBlock: ESEHIV_clean_linker_0, # of connection points: 3
#     Node 4, Type 1, BuildingBlock: KUMJIN_clean_sbu_1, # of connection points: 6
#     Node 5, Type 1, BuildingBlock: KUMJIN_clean_sbu_1, # of connection points: 6
#     Edge 6, Type (0, 1), BuildingBlock: TEMPAE_clean_linker_10, # of connection points: 2
#     Edge 7, Type (0, 1), BuildingBlock: TEMPAE_clean_linker_10, # of connection points: 2
#     Edge 8, Type (0, 1), BuildingBlock: TEMPAE_clean_linker_10, # of connection points: 2
#     Edge 9, Type (0, 1), BuildingBlock: TEMPAE_clean_linker_10, # of connection points: 2
#     Edge 10, Type (0, 1), BuildingBlock: TEMPAE_clean_linker_10, # of connection points: 2
#     Edge 11, Type (0, 1), BuildingBlock: TEMPAE_clean_linker_10, # of connection points: 2
#     Edge 12, Type (0, 1), BuildingBlock: TEMPAE_clean_linker_10, # of connection points: 2
#     Edge 13, Type (0, 1), BuildingBlock: TEMPAE_clean_linker_10, # of connection points: 2
#     Edge 14, Type (0, 1), BuildingBlock: TEMPAE_clean_linker_10, # of connection points: 2
#     Edge 15, Type (0, 1), BuildingBlock: TEMPAE_clean_linker_10, # of connection points: 2
#     Edge 16, Type (0, 1), BuildingBlock: TEMPAE_clean_linker_10, # of connection points: 2
#     Edge 17, Type (0, 1), BuildingBlock: TEMPAE_clean_linker_10, # of connection points: 2
# Relax obj value: 0.018
# Max RMSD: 0.116
# Mean RMSD: 0.069
data_MOF--net-rtl--node1-KUMJIN_clean_sbu_1--node2-ESEHIV_clean_linker_0--edge1-TEMPAE_clean_linker_10
_symmetry_space_group_name_H-M    P1
_symmetry_Int_Tables_number       1
_symmetry_cell_setting            triclinic
loop_
_symmetry_equiv_pos_as_xyz
'x, y, z'
_cell_length_a     31.107418
_cell_length_b     31.848399
_cell_length_c     28.293901
_cell_angle_alpha  77.440503
_cell_angle_beta   99.899016
_cell_angle_gamma 90.794475
loop_
_atom_site_label
_atom_site_type_symbol
_atom_site_fract_x
_atom_site_fract_y
_atom_site_fract_z
_atom_type_partial_charge
H0 H 0.1703 0.91452 0.01679 0.0
H1 H 0.26196 0.81795 0.10833 0.0
H2 H 0.23722 0.82921 0.95275 0.0
C3 C 0.19364 0.88867 0.02044 0.0
C4 C 0.2023 0.87608 0.97809 0.0
C5 C 0.21389 0.86702 0.06781 0.0
C6 C 0.24519 0.83429 0.07232 0.0
C7 C 0.25349 0.82085 0.03082 0.0
C8 C 0.23154 0.8412 0.9842 0.0
H9 H 0.64105 0.63279 0.62748 0.0
H10 H 0.71404 0.72949 0.54662 0.0
H11 H 0.69776 0.73637 0.69214 0.0
C12 C 0.65878 0.66245 0.62512 0.0
C13 C 0.66628 0.68255 0.66561 0.0
C14 C 0.6757 0.67927 0.58204 0.0
C15 C 0.70055 0.71651 0.57953 0.0
C16 C 0.70918 0.73665 0.61943 0.0
C17 C 0.69177 0.71982 0.66211 0.0
H18 H 0.83388 0.10308 0.07556 0.0
H19 H 0.753 0.17682 0.13851 0.0
H20 H 0.74147 0.1968 0.98147 0.0
C21 C 0.80847 0.1272 0.07149 0.0
C22 C 0.7894 0.14896 0.02412 0.0
C23 C 0.79566 0.13678 0.11326 0.0
C24 C 0.76214 0.16773 0.10677 0.0
C25 C 0.74215 0.18926 0.05945 0.0
C26 C 0.7559 0.17964 0.01812 0.0
H27 H 0.38107 0.3643 0.45438 0.0
H28 H 0.29447 0.27456 0.52377 0.0
H29 H 0.29608 0.28862 0.36987 0.0
C30 C 0.35626 0.3403 0.45192 0.0
C31 C 0.34114 0.32892 0.40655 0.0
C32 C 0.33905 0.32154 0.49415 0.0
C33 C 0.30754 0.28986 0.49127 0.0
C34 C 0.29239 0.27775 0.44679 0.0
C35 C 0.30887 0.29744 0.4044 0.0
Eu36 Eu 0.03531 0.95986 0.52714 0.0
C37 C 0.94126 0.14558 0.48881 0.0
N38 N 0.97733 0.1295 0.52202 0.0
C39 C 0.01235 0.19722 0.50437 0.0
C40 C 0.93968 0.18837 0.46146 0.0
C41 C 0.01237 0.15465 0.53073 0.0
C42 C 0.97591 0.21413 0.46947 0.0
C43 C 0.86861 0.13445 0.44641 0.0
C44 C 0.90607 0.11889 0.48141 0.0
C45 C 0.86687 0.17713 0.41934 0.0
C46 C 0.90228 0.20399 0.42682 0.0
Eu47 Eu 0.97491 0.05704 0.56343 0.0
N48 N 0.90934 0.07715 0.50677 0.0
C49 C 0.83425 0.10644 0.43911 0.0
C50 C 0.87535 0.05015 0.50094 0.0
C51 C 0.83756 0.06421 0.4667 0.0
H52 H 0.03995 0.14209 0.55878 0.0
H53 H 0.81095 0.04246 0.46169 0.0
H54 H 0.99383 0.87056 0.58677 0.0
H55 H 0.20455 0.01425 0.5481 0.0
H56 H 0.87711 0.01775 0.52239 0.0
H57 H 0.80502 0.11712 0.41241 0.0
H58 H 0.12941 0.01129 0.50512 0.0
H59 H 0.04033 0.21701 0.5112 0.0
H60 H 0.83842 0.18956 0.39218 0.0
H61 H 0.90053 0.23675 0.40539 0.0
H62 H 0.01755 0.80958 0.65712 0.0
H63 H 0.97598 0.24714 0.44909 0.0
H64 H 0.23043 0.96248 0.62643 0.0
N65 N 0.05487 0.90122 0.59423 0.0
C66 C 0.09669 0.89965 0.61854 0.0
C67 C 0.04006 0.83473 0.64672 0.0
C68 C 0.11149 0.86569 0.65907 0.0
C69 C 0.02669 0.8692 0.60706 0.0
C70 C 0.08259 0.83305 0.67299 0.0
N71 N 0.10993 0.96372 0.56248 0.0
C72 C 0.1389 0.99092 0.54109 0.0
C73 C 0.16829 0.93111 0.62748 0.0
C74 C 0.12463 0.93226 0.60295 0.0
C75 C 0.1967 0.96224 0.60863 0.0
C76 C 0.18217 0.99167 0.56461 0.0
H77 H 0.09277 0.80645 0.70393 0.0
H78 H 0.16627 0.83974 0.71588 0.0
H79 H 0.21603 0.89695 0.68826 0.0
O80 O 0.06818 0.94899 0.46715 0.0
O81 O 0.02822 0.95803 0.60643 0.0
O82 O 0.03778 0.02803 0.61116 0.0
O83 O 0.02629 0.90034 0.50146 0.0
O84 O 0.05356 0.02916 0.49721 0.0
O85 O 0.0471 0.06187 0.56068 0.0
O86 O 0.93612 0.04591 0.62223 0.0
O87 O 0.96979 0.05924 0.48205 0.0
O88 O 0.97551 0.9892 0.47316 0.0
O89 O 0.97033 0.10543 0.6065 0.0
O90 O 0.94552 0.99049 0.58152 0.0
O91 O 0.96368 0.94948 0.52881 0.0
C92 C 0.04293 0.98697 0.63137 0.0
C93 C 0.05919 0.88199 0.43699 0.0
C94 C 0.08259 0.86903 0.36336 0.0
C95 C 0.06758 0.8268 0.374 0.0
C96 C 0.04472 0.83945 0.44712 0.0
C97 C 0.04908 0.81207 0.41586 0.0
C98 C 0.07886 0.89651 0.39529 0.0
C99 C 0.06346 0.06013 0.52124 0.0
C100 C 0.05121 0.9112 0.46868 0.0
C101 C 0.15445 0.86539 0.68443 0.0
C102 C 0.18272 0.89807 0.6688 0.0
C103 C 0.96326 0.02968 0.45584 0.0
C104 C 0.96239 0.07796 0.68855 0.0
C105 C 0.94683 0.07956 0.76955 0.0
C106 C 0.99053 0.0676 0.79001 0.0
C107 C 0.00612 0.06724 0.70929 0.0
C108 C 0.93287 0.08455 0.71866 0.0
C109 C 0.02005 0.06183 0.75986 0.0
C110 C 0.93966 0.95741 0.56007 0.0
C111 C 0.94719 0.08172 0.63576 0.0
H112 H 0.07047 0.80511 0.34997 0.0
H113 H 0.0296 0.82737 0.47901 0.0
H114 H 0.03772 0.77943 0.42388 0.0
H115 H 0.08996 0.92928 0.38683 0.0
H116 H 1.00205 0.06385 0.82911 0.0
H117 H 0.02936 0.0634 0.68621 0.0
H118 H 0.89911 0.0933 0.7026 0.0
H119 H 0.05385 0.05359 0.77564 0.0
Eu120 Eu 0.45467 0.49656 0.9903 0.0
C121 C 0.62383 0.58802 0.0261 0.0
N122 N 0.61749 0.5464 0.04722 0.0
C123 C 0.68225 0.5242 0.02322 0.0
C124 C 0.65898 0.59917 1.00071 0.0
C125 C 0.64687 0.51472 0.04795 0.0
C126 C 0.68804 0.56654 0.99896 0.0
C127 C 0.60133 0.66306 0.00947 0.0
C128 C 0.5952 0.61943 0.03036 0.0
C129 C 0.63538 0.67424 0.98262 0.0
C130 C 0.66427 0.64239 0.97849 0.0
Eu131 Eu 0.5556 0.53229 0.08548 0.0
N132 N 0.5628 0.6076 0.05696 0.0
C133 C 0.57397 0.6943 0.0176 0.0
C134 C 0.53878 0.63829 0.06863 0.0
C135 C 0.54313 0.6819 0.04811 0.0
H136 H 0.64203 0.482 0.06643 0.0
H137 H 0.52311 0.70595 0.05642 0.0
H138 H 0.38511 0.58176 0.9517 0.0
H139 H 0.41976 0.3293 0.06566 0.0
H140 H 0.51643 0.62956 0.0942 0.0
H141 H 0.57757 0.72815 1.00214 0.0
H142 H 0.46275 0.38934 0.02738 0.0
H143 H 0.70491 0.49889 0.02272 0.0
H144 H 0.64036 0.70755 0.96601 0.0
H145 H 0.69111 0.65162 0.95889 0.0
H146 H 0.31142 0.60214 0.96122 0.0
H147 H 0.71537 0.5738 0.97964 0.0
H148 H 0.34741 0.3443 0.08444 0.0
N149 N 0.38373 0.51859 0.99556 0.0
C150 C 0.35886 0.48799 0.01841 0.0
C151 C 0.3246 0.57016 0.97829 0.0
C152 C 0.3161 0.49785 0.02368 0.0
C153 C 0.36659 0.55868 0.97352 0.0
C154 C 0.29948 0.53984 0.00422 0.0
N155 N 0.41601 0.43745 0.02708 0.0
C156 C 0.43132 0.39593 0.03591 0.0
C157 C 0.34946 0.41295 0.05547 0.0
C158 C 0.37529 0.4461 0.03424 0.0
C159 C 0.36621 0.37064 0.06794 0.0
C160 C 0.40706 0.36203 0.05742 0.0
H161 H 0.26679 0.54874 0.00747 0.0
H162 H 0.25809 0.47233 0.05138 0.0
H163 H 0.2873 0.39798 0.07917 0.0
O164 O 0.46967 0.4666 0.93201 0.0
O165 O 0.4641 0.46294 0.07161 0.0
O166 O 0.49461 0.51165 0.11694 0.0
O167 O 0.40928 0.50239 0.92106 0.0
O168 O 0.51714 0.45628 0.00604 0.0
O169 O 0.55439 0.46142 0.08335 0.0
O170 O 0.58806 0.55854 0.14847 0.0
O171 O 0.56046 0.52739 0.00728 0.0
O172 O 0.49457 0.55425 0.96424 0.0
O173 O 0.59671 0.4907 0.14762 0.0
O174 O 0.48852 0.56247 0.07973 0.0
O175 O 0.46011 0.56596 0.99841 0.0
C176 C 0.47032 0.47833 0.11174 0.0
C177 C 0.40803 0.44215 0.88514 0.0
C178 C 0.3923 0.39877 0.82314 0.0
C179 C 0.36269 0.37514 0.85034 0.0
C180 C 0.37753 0.41872 0.91093 0.0
C181 C 0.35539 0.38517 0.89388 0.0
C182 C 0.41516 0.43225 0.841 0.0
C183 C 0.54575 0.44172 0.04639 0.0
C184 C 0.43199 0.47709 0.90386 0.0
C185 C 0.29087 0.46529 0.04665 0.0
C186 C 0.30748 0.42292 0.06243 0.0
C187 C 0.53695 0.55102 0.96786 0.0
C188 C 0.63562 0.51362 0.21906 0.0
C189 C 0.65811 0.52728 0.30156 0.0
C190 C 0.69179 0.49603 0.31018 0.0
C191 C 0.66911 0.48225 0.22901 0.0
C192 C 0.63036 0.53639 0.25529 0.0
C193 C 0.69715 0.47378 0.27418 0.0
C194 C 0.46021 0.57829 0.03977 0.0
C195 C 0.60596 0.52133 0.17123 0.0
H196 H 0.34414 0.34968 0.83718 0.0
H197 H 0.3703 0.42661 0.9439 0.0
H198 H 0.33198 0.3673 0.9141 0.0
H199 H 0.43828 0.45059 0.82061 0.0
H200 H 0.71437 0.48897 0.34475 0.0
H201 H 0.6738 0.46442 0.20166 0.0
H202 H 0.60405 0.56011 0.248 0.0
H203 H 0.72315 0.44979 0.28137 0.0
C204 C 0.21425 0.25794 0.43472 0.0
C205 C 0.25832 0.2451 0.44565 0.0
C206 C 0.18146 0.22767 0.44244 0.0
C207 C 0.19325 0.18365 0.46152 0.0
C208 C 0.23777 0.17042 0.47041 0.0
C209 C 0.26985 0.20143 0.46269 0.0
C210 C 0.13444 0.24311 0.43285 0.0
C211 C 0.25168 0.12381 0.4905 0.0
C212 C 0.11928 0.11448 0.53888 0.0
C213 C 0.09628 0.09197 0.50553 0.0
C214 C 0.1505 0.14468 0.52479 0.0
C215 C 0.15956 0.15209 0.47632 0.0
C216 C 0.13678 0.12916 0.44255 0.0
C217 C 0.10527 0.09947 0.45751 0.0
C218 C 0.17389 0.16857 0.56191 0.0
C219 C 0.14582 0.13587 0.39074 0.0
H220 H 0.20562 0.2919 0.42229 0.0
H221 H 0.30411 0.19181 0.47173 0.0
H222 H 0.11374 0.22397 0.40977 0.0
H223 H 0.12221 0.23844 0.46819 0.0
H224 H 0.13037 0.27768 0.41426 0.0
H225 H 0.2869 0.11826 0.49071 0.0
H226 H 0.24541 0.11357 0.52872 0.0
H227 H 0.23231 0.10302 0.46844 0.0
H228 H 0.11313 0.10827 0.57632 0.0
H229 H 0.08765 0.0821 0.43157 0.0
H230 H 0.16898 0.20378 0.54754 0.0
H231 H 0.2095 0.1615 0.56828 0.0
H232 H 0.16232 0.15979 0.59774 0.0
H233 H 0.13963 0.17009 0.37166 0.0
H234 H 0.12537 0.11545 0.36899 0.0
H235 H 0.1807 0.12836 0.39153 0.0
C236 C 0.32728 0.78522 0.05876 0.0
C237 C 0.28372 0.78412 0.03602 0.0
C238 C 0.35678 0.75152 0.0612 0.0
C239 C 0.34193 0.71567 0.04134 0.0
C240 C 0.29753 0.7139 0.01984 0.0
C241 C 0.26907 0.74844 0.01692 0.0
C242 C 0.404 0.75476 0.08383 0.0
C243 C 0.28023 0.67606 0.99886 0.0
C244 C 0.42248 0.6487 1.00038 0.0
C245 C 0.43075 0.61371 0.04055 0.0
C246 C 0.39416 0.6825 1.00054 0.0
C247 C 0.3731 0.6807 0.0415 0.0
C248 C 0.38133 0.64521 0.08211 0.0
C249 C 0.41057 0.61231 0.08139 0.0
C250 C 0.38675 0.7201 0.95688 0.0
C251 C 0.3586 0.6416 0.12582 0.0
H252 H 0.33847 0.81301 0.07332 0.0
H253 H 0.2352 0.74761 0.99968 0.0
H254 H 0.41397 0.72651 0.11437 0.0
H255 H 0.4251 0.75449 0.05599 0.0
H256 H 0.41014 0.78449 0.0982 0.0
H257 H 0.24401 0.67676 0.99009 0.0
H258 H 0.29311 0.67655 0.96456 0.0
H259 H 0.29131 0.64531 0.025 0.0
H260 H 0.43853 0.64977 0.96902 0.0
H261 H 0.41686 0.58491 0.11225 0.0
H262 H 0.39428 0.75061 0.96914 0.0
H263 H 0.35193 0.72215 0.93913 0.0
H264 H 0.40713 0.71744 0.92899 0.0
H265 H 0.36569 0.66994 0.14251 0.0
H266 H 0.36873 0.61197 0.15446 0.0
H267 H 0.32274 0.64137 0.11369 0.0
C268 C 0.73094 0.80892 0.57635 0.0
C269 C 0.73851 0.77393 0.61675 0.0
C270 C 0.76149 0.84163 0.56978 0.0
C271 C 0.80096 0.83881 0.60393 0.0
C272 C 0.80793 0.8044 0.64588 0.0
C273 C 0.7764 0.77253 0.65199 0.0
C274 C 0.75239 0.87817 0.52509 0.0
C275 C 0.84979 0.79987 0.68279 0.0
C276 C 0.89941 0.88967 0.55317 0.0
C277 C 0.90385 0.92745 0.57136 0.0
C278 C 0.86652 0.86044 0.56415 0.0
C279 C 0.83653 0.86945 0.59324 0.0
C280 C 0.84037 0.9077 0.61131 0.0
C281 C 0.87418 0.93608 0.6005 0.0
C282 C 0.86396 0.81977 0.54461 0.0
C283 C 0.8086 0.91878 0.64176 0.0
H284 H 0.70149 0.81012 0.54924 0.0
H285 H 0.78245 0.74526 0.68301 0.0
H286 H 0.7584 0.90952 0.53581 0.0
H287 H 0.77486 0.8753 0.49939 0.0
H288 H 0.71829 0.87834 0.50525 0.0
H289 H 0.84863 0.77346 0.71543 0.0
H290 H 0.87739 0.79309 0.66516 0.0
H291 H 0.85676 0.83032 0.69529 0.0
H292 H 0.92192 0.88258 0.53051 0.0
H293 H 0.87708 0.96521 0.61459 0.0
H294 H 0.83227 0.81914 0.51987 0.0
H295 H 0.86562 0.79121 0.57543 0.0
H296 H 0.89068 0.81684 0.52395 0.0
H297 H 0.77489 0.92068 0.62063 0.0
H298 H 0.81587 0.94988 0.65281 0.0
H299 H 0.8094 0.89307 0.67539 0.0
C300 C 0.7143 0.26477 0.02435 0.0
C301 C 0.70941 0.22412 0.05384 0.0
C302 C 0.68597 0.29925 0.02234 0.0
C303 C 0.65169 0.29271 0.05005 0.0
C304 C 0.64575 0.25135 0.07863 0.0
C305 C 0.67492 0.21759 0.08046 0.0
C306 C 0.69362 0.34301 0.99187 0.0
C307 C 0.60918 0.24301 0.10806 0.0
C308 C 0.60846 0.39028 0.08547 0.0
C309 C 0.5714 0.40216 0.04904 0.0
C310 C 0.63467 0.35453 0.08641 0.0
C311 C 0.62315 0.32959 0.05058 0.0
C312 C 0.58511 0.3406 0.0146 0.0
C313 C 0.55986 0.37693 0.01404 0.0
C314 C 0.67527 0.34405 0.12509 0.0
C315 C 0.57143 0.31438 0.97626 0.0
H316 H 0.74129 0.26998 0.00425 0.0
H317 H 0.67101 0.18606 0.10304 0.0
H318 H 0.66366 0.3552 0.96518 0.0
H319 H 0.70121 0.36623 0.01607 0.0
H320 H 0.72092 0.34241 0.97133 0.0
H321 H 0.60743 0.20847 0.12592 0.0
H322 H 0.61388 0.26203 0.137 0.0
H323 H 0.57742 0.25356 0.08397 0.0
H324 H 0.6177 0.40948 0.11271 0.0
H325 H 0.53115 0.38562 0.9859 0.0
H326 H 0.7045 0.34583 0.10717 0.0
H327 H 0.6741 0.31068 0.14679 0.0
H328 H 0.67933 0.36634 0.15069 0.0
H329 H 0.59664 0.31597 0.9526 0.0
H330 H 0.53971 0.32587 0.95251 0.0
H331 H 0.56868 0.28007 0.99426 0.0
C332 C 0.1943 0.84067 0.15116 0.0
C333 C 0.19938 0.8754 0.11255 0.0
C334 C 0.17761 0.8468 0.19212 0.0
C335 C 0.16478 0.88866 0.19441 0.0
C336 C 0.17068 0.92412 0.15631 0.0
C337 C 0.18809 0.9171 0.11585 0.0
C338 C 0.17208 0.80803 0.23206 0.0
C339 C 0.15718 0.96918 0.15741 0.0
C340 C 0.07714 0.88148 0.27274 0.0
C341 C 0.10175 0.88355 0.31846 0.0
C342 C 0.09668 0.88704 0.23081 0.0
C343 C 0.14212 0.89399 0.23504 0.0
C344 C 0.16648 0.89916 0.28051 0.0
C345 C 0.14585 0.89407 0.32181 0.0
C346 C 0.06933 0.88203 0.18291 0.0
C347 C 0.21496 0.90643 0.28658 0.0
H348 H 0.20189 0.8082 0.14869 0.0
H349 H 0.19235 0.94423 0.08656 0.0
H350 H 0.18733 0.81355 0.26856 0.0
H351 H 0.13683 0.80279 0.23275 0.0
H352 H 0.1868 0.77824 0.2266 0.0
H353 H 0.16788 0.99371 0.12763 0.0
H354 H 0.12111 0.97153 0.15318 0.0
H355 H 0.17092 0.97683 0.19333 0.0
H356 H 0.04291 0.8736 0.27032 0.0
H357 H 0.1648 0.8955 0.35735 0.0
H358 H 0.07752 0.85067 0.17516 0.0
H359 H 0.07639 0.90768 0.15202 0.0
H360 H 0.03382 0.8831 0.18393 0.0
H361 H 0.23224 0.876 0.28724 0.0
H362 H 0.22757 0.91691 0.32126 0.0
H363 H 0.22299 0.93094 0.25518 0.0
C364 C 0.60832 0.64263 0.70906 0.0
C365 C 0.64812 0.66425 0.71149 0.0
C366 C 0.59149 0.62425 0.75174 0.0
C367 C 0.61398 0.62882 0.79821 0.0
C368 C 0.65356 0.65134 0.80109 0.0
C369 C 0.67049 0.66806 0.75798 0.0
C370 C 0.54967 0.59965 0.74706 0.0
C371 C 0.67783 0.65816 0.84971 0.0
C372 C 0.54489 0.6131 0.8993 0.0
C373 C 0.55776 0.57148 0.92579 0.0
C374 C 0.56425 0.63288 0.85895 0.0
C375 C 0.59604 0.60979 0.84369 0.0
C376 C 0.60933 0.56776 0.87078 0.0
C377 C 0.59051 0.5494 0.91203 0.0
C378 C 0.55052 0.67838 0.83253 0.0
C379 C 0.64246 0.54166 0.85538 0.0
H380 H 0.58989 0.64017 0.67368 0.0
H381 H 0.70161 0.68377 0.76104 0.0
H382 H 0.555 0.56668 0.77043 0.0
H383 H 0.52413 0.61571 0.76029 0.0
H384 H 0.53726 0.59714 0.70857 0.0
H385 H 0.70831 0.6762 0.84588 0.0
H386 H 0.65652 0.67633 0.86633 0.0
H387 H 0.68626 0.62678 0.87568 0.0
H388 H 0.52009 0.63042 0.91065 0.0
H389 H 0.60048 0.51719 0.93271 0.0
H390 H 0.53382 0.67877 0.7945 0.0
H391 H 0.57965 0.69869 0.82982 0.0
H392 H 0.52811 0.69305 0.85139 0.0
H393 H 0.63029 0.53699 0.81768 0.0
H394 H 0.64942 0.50959 0.88056 0.0
H395 H 0.67348 0.55913 0.85436 0.0
C396 C 0.86465 0.10895 0.17129 0.0
C397 C 0.81934 0.11673 0.16333 0.0
C398 C 0.8879 0.09171 0.21837 0.0
C399 C 0.86561 0.08311 0.25884 0.0
C400 C 0.81995 0.09049 0.2513 0.0
C401 C 0.79726 0.10675 0.20354 0.0
C402 C 0.93659 0.08396 0.22498 0.0
C403 C 0.7953 0.08235 0.29386 0.0
C404 C 0.92143 0.01205 0.37896 0.0
C405 C 0.93921 0.04283 0.40494 0.0
C406 C 0.89739 0.02463 0.33121 0.0
C407 C 0.89065 0.06897 0.30937 0.0
C408 C 0.90875 0.10012 0.33532 0.0
C409 C 0.9333 0.08664 0.38245 0.0
C410 C 0.87931 0.99057 0.30408 0.0
C411 C 0.90188 0.14774 0.31354 0.0
H412 H 0.88237 0.11742 0.14091 0.0
H413 H 0.76223 0.11197 0.1978 0.0
H414 H 0.95398 0.10629 0.24644 0.0
H415 H 0.94559 0.05072 0.24605 0.0
H416 H 0.94835 0.0888 0.1893 0.0
H417 H 0.75959 0.08822 0.28162 0.0
H418 H 0.80111 0.0487 0.3151 0.0
H419 H 0.80739 0.10367 0.31926 0.0
H420 H 0.926 0.97811 0.396 0.0
H421 H 0.9479 0.11064 0.40165 0.0
H422 H 0.89209 0.99468 0.26911 0.0
H423 H 0.84325 0.99413 0.29446 0.0
H424 H 0.88787 0.95747 0.32605 0.0
H425 H 0.91267 0.15616 0.27734 0.0
H426 H 0.91986 0.16772 0.33773 0.0
H427 H 0.86658 0.15627 0.30735 0.0
C428 C 0.32097 0.34325 0.56829 0.0
C429 C 0.3526 0.33591 0.54099 0.0
C430 C 0.33276 0.35546 0.61334 0.0
C431 C 0.37737 0.36068 0.63164 0.0
C432 C 0.40948 0.35434 0.60379 0.0
C433 C 0.39671 0.342 0.55872 0.0
C434 C 0.29743 0.36208 0.64177 0.0
C435 C 0.45731 0.35971 0.62209 0.0
C436 C 0.39387 0.42304 0.73308 0.0
C437 C 0.39686 0.38956 0.77498 0.0
C438 C 0.39037 0.41421 0.68604 0.0
C439 C 0.38989 0.37092 0.68098 0.0
C440 C 0.39605 0.33713 0.72346 0.0
C441 C 0.39946 0.34688 0.76994 0.0
C442 C 0.38415 0.45114 0.64165 0.0
C443 C 0.3961 0.29054 0.71974 0.0
H444 H 0.28677 0.33947 0.5543 0.0
H445 H 0.42132 0.33617 0.53788 0.0
H446 H 0.30241 0.33878 0.67774 0.0
H447 H 0.29916 0.39485 0.64938 0.0
H448 H 0.26421 0.35791 0.62174 0.0
H449 H 0.4779 0.35644 0.5946 0.0
H450 H 0.46267 0.39171 0.63133 0.0
H451 H 0.46837 0.33512 0.65627 0.0
H452 H 0.39167 0.45609 0.73675 0.0
H453 H 0.40252 0.32094 0.80236 0.0
H454 H 0.34978 0.45244 0.62247 0.0
H455 H 0.4052 0.44642 0.61523 0.0
H456 H 0.39162 0.48255 0.65186 0.0
H457 H 0.36279 0.28204 0.70396 0.0
H458 H 0.40625 0.26843 0.75611 0.0
H459 H 0.4183 0.28519 0.69474 0.0
C460 C 0.62758 0.64348 0.52211 0.0
C461 C 0.66902 0.65724 0.54009 0.0
C462 C 0.6211 0.62336 0.48188 0.0
C463 C 0.65701 0.61644 0.45949 0.0
C464 C 0.6989 0.63022 0.47764 0.0
C465 C 0.70434 0.65048 0.51755 0.0
C466 C 0.57589 0.60948 0.46335 0.0
C467 C 0.73819 0.62303 0.45531 0.0
C468 C 0.65801 0.52694 0.39028 0.0
C469 C 0.65261 0.54988 0.3412 0.0
C470 C 0.65782 0.54803 0.42893 0.0
C471 C 0.6516 0.59326 0.4184 0.0
C472 C 0.6438 0.61642 0.36881 0.0
C473 C 0.64449 0.59448 0.33078 0.0
C474 C 0.66619 0.52205 0.48121 0.0
C475 C 0.63658 0.66462 0.35603 0.0
H476 H 0.6001 0.64899 0.53912 0.0
H477 H 0.73656 0.66053 0.53168 0.0
H478 H 0.56598 0.62449 0.42375 0.0
H479 H 0.57583 0.57411 0.46683 0.0
H480 H 0.5512 0.61833 0.4838 0.0
H481 H 0.76835 0.63636 0.47314 0.0
H482 H 0.74371 0.58806 0.45879 0.0
H483 H 0.73231 0.63825 0.41551 0.0
H484 H 0.66325 0.49235 0.39864 0.0
H485 H 0.6404 0.61251 0.29305 0.0
H486 H 0.64034 0.52897 0.50119 0.0
H487 H 0.69772 0.53131 0.50078 0.0
H488 H 0.66749 0.48688 0.48306 0.0
H489 H 0.61133 0.67393 0.3754 0.0
H490 H 0.62636 0.67723 0.31587 0.0
H491 H 0.66723 0.68035 0.36843 0.0
C492 C 0.7813 0.12607 0.94391 0.0
C493 C 0.80739 0.14161 0.98156 0.0
C494 C 0.79962 0.1157 0.90567 0.0
C495 C 0.84473 0.12187 0.90497 0.0
C496 C 0.87069 0.1391 0.94211 0.0
C497 C 0.85174 0.14839 0.98019 0.0
C498 C 0.77115 0.09683 0.86706 0.0
C499 C 0.91873 0.14691 0.94224 0.0
C500 C 0.91201 0.05824 0.84408 0.0
C501 C 0.91648 0.08841 0.80124 0.0
C502 C 0.88641 0.06781 0.87678 0.0
C503 C 0.86568 0.10888 0.8668 0.0
C504 C 0.86892 0.13891 0.82267 0.0
C505 C 0.89405 0.12813 0.79014 0.0
C506 C 0.88309 0.03465 0.92302 0.0
C507 C 0.84795 0.18326 0.81117 0.0
H508 H 0.74701 0.12072 0.94533 0.0
H509 H 0.87169 0.16074 0.0093 0.0
H510 H 0.77364 0.11566 0.82978 0.0
H511 H 0.78264 0.06349 0.86937 0.0
H512 H 0.73631 0.09607 0.87144 0.0
H513 H 0.93359 0.16295 0.97208 0.0
H514 H 0.93644 0.11586 0.94707 0.0
H515 H 0.92365 0.16722 0.90648 0.0
H516 H 0.9291 0.02737 0.85231 0.0
H517 H 0.89782 0.15152 0.75709 0.0
H518 H 0.84851 0.03078 0.92786 0.0
H519 H 0.901 0.0456 0.95543 0.0
H520 H 0.89693 0.00279 0.92258 0.0
H521 H 0.81314 0.18115 0.81532 0.0
H522 H 0.85004 0.20125 0.77334 0.0
H523 H 0.86448 0.20194 0.83764 0.0
C524 C 0.36629 0.32757 0.3267 0.0
C525 C 0.3587 0.35059 0.36169 0.0
C526 C 0.38382 0.34765 0.28503 0.0
C527 C 0.39474 0.3916 0.27857 0.0
C528 C 0.38694 0.41507 0.31347 0.0
C529 C 0.36861 0.39448 0.35417 0.0
C530 C 0.39086 0.32182 0.24803 0.0
C531 C 0.39792 0.46206 0.30778 0.0
C532 C 0.47807 0.43462 0.19712 0.0
C533 C 0.45111 0.45599 0.15405 0.0
C534 C 0.46015 0.4132 0.23789 0.0
C535 C 0.41421 0.41327 0.23525 0.0
C536 C 0.38699 0.43542 0.1918 0.0
C537 C 0.40591 0.45686 0.15191 0.0
C538 C 0.49033 0.39089 0.28392 0.0
C539 C 0.33791 0.43629 0.18719 0.0
H540 H 0.3592 0.29362 0.33221 0.0
H541 H 0.36184 0.413 0.38006 0.0
H542 H 0.37312 0.33749 0.21102 0.0
H543 H 0.42604 0.32085 0.24559 0.0
H544 H 0.3796 0.28828 0.25767 0.0
H545 H 0.39084 0.47549 0.3388 0.0
H546 H 0.43302 0.46635 0.30544 0.0
H547 H 0.37893 0.48103 0.27306 0.0
H548 H 0.51317 0.43461 0.19879 0.0
H549 H 0.38538 0.47516 0.11946 0.0
H550 H 0.48261 0.35627 0.29324 0.0
H551 H 0.4854 0.4049 0.31528 0.0
H552 H 0.52523 0.39372 0.27995 0.0
H553 H 0.32545 0.40402 0.18404 0.0
H554 H 0.32205 0.46027 0.15438 0.0
H555 H 0.32793 0.44385 0.22026 0.0
C556 C 0.13707 0.91461 0.91938 0.0
C557 C 0.17986 0.89762 0.92759 0.0
C558 C 0.11513 0.93252 0.87165 0.0
C559 C 0.1356 0.93173 0.83085 0.0
C560 C 0.1789 0.91546 0.83872 0.0
C561 C 0.20075 0.89964 0.88686 0.0
C562 C 0.06974 0.95166 0.86479 0.0
C563 C 0.20156 0.91222 0.79647 0.0
C564 C 0.06053 0.93181 0.70994 0.0
C565 C 0.06614 0.97317 0.68259 0.0
C566 C 0.08354 0.91765 0.75789 0.0
C567 C 0.11113 0.94635 0.77995 0.0
C568 C 0.11597 0.98862 0.75301 0.0
C569 C 0.09427 0.00114 0.70421 0.0
C570 C 0.07925 0.87161 0.78437 0.0
C571 C 0.14435 0.02048 0.77556 0.0
H572 H 0.12002 0.91304 0.94997 0.0
H573 H 0.2342 0.88811 0.89228 0.0
H574 H 0.06822 0.98488 0.84205 0.0
H575 H 0.04584 0.93261 0.84489 0.0
H576 H 0.05962 0.95263 0.90034 0.0
H577 H 0.23746 0.90772 0.80818 0.0
H578 H 0.189 0.88398 0.78186 0.0
H579 H 0.19491 0.94102 0.76597 0.0
H580 H 0.03839 0.91027 0.69367 0.0
H581 H 0.0993 0.03297 0.68301 0.0
H582 H 0.0698 0.87034 0.82067 0.0
H583 H 0.11132 0.85451 0.79109 0.0
H584 H 0.05474 0.85408 0.76303 0.0
H585 H 0.13615 0.02175 0.8119 0.0
H586 H 0.14058 0.0534 0.75179 0.0
H587 H 0.17911 0.01007 0.7817 0.0
loop_
_geom_bond_atom_site_label_1
_geom_bond_atom_site_label_2
_geom_bond_distance
_geom_bond_site_symmetry_2
_ccdc_geom_bond_type
H0 C3 0.931 . S
H1 C6 0.928 . S
H2 C8 0.930 . S
C3 H0 0.931 . S
C3 C4 1.413 1_554 S
C3 C5 1.360 . S
C4 C3 1.413 1_556 S
C4 C8 1.429 . S
C5 C3 1.360 . S
C5 C6 1.372 . S
C6 H1 0.928 . S
C6 C5 1.372 . S
C6 C7 1.404 . S
C7 C6 1.404 . S
C7 C8 1.391 1_554 S
C8 H2 0.930 . S
C8 C4 1.429 . S
C8 C7 1.391 1_556 S
H9 C12 0.931 . S
H10 C15 0.928 . S
H11 C17 0.930 . S
C12 H9 0.931 . S
C12 C13 1.413 . S
C12 C14 1.360 . S
C13 C12 1.413 . S
C13 C17 1.429 . S
C14 C12 1.360 . S
C14 C15 1.372 . S
C15 H10 0.928 . S
C15 C14 1.372 . S
C15 C16 1.404 . S
C16 C15 1.404 . S
C16 C17 1.391 . S
C17 H11 0.930 . S
C17 C13 1.429 . S
C17 C16 1.391 . S
H18 C21 0.931 . S
H19 C24 0.928 . S
H20 C26 0.930 1_556 S
C21 H18 0.931 . S
C21 C22 1.413 . S
C21 C23 1.360 . S
C22 C21 1.413 . S
C22 C26 1.429 . S
C23 C21 1.360 . S
C23 C24 1.372 . S
C24 H19 0.928 . S
C24 C23 1.372 . S
C24 C25 1.404 . S
C25 C24 1.404 . S
C25 C26 1.391 . S
C26 H20 0.930 1_554 S
C26 C22 1.429 . S
C26 C25 1.391 . S
H27 C30 0.931 . S
H28 C33 0.928 . S
H29 C35 0.930 . S
C30 H27 0.931 . S
C30 C31 1.413 . S
C30 C32 1.360 . S
C31 C30 1.413 . S
C31 C35 1.429 . S
C32 C30 1.360 . S
C32 C33 1.372 . S
C33 H28 0.928 . S
C33 C32 1.372 . S
C33 C34 1.404 . S
C34 C33 1.404 . S
C34 C35 1.391 . S
C35 H29 0.930 . S
C35 C31 1.429 . S
C35 C34 1.391 . S
Eu36 N65 2.600 . S
Eu36 N71 2.562 . S
Eu36 O80 2.462 . S
Eu36 O81 2.373 . S
Eu36 O83 2.432 . S
Eu36 O84 2.291 1_565 S
Eu36 O88 2.334 1_455 S
Eu36 O91 2.372 1_455 S
Eu36 C100 2.787 . S
C37 N38 1.365 . S
C37 C40 1.405 . S
C37 C44 1.448 . S
N38 C37 1.365 . S
N38 C41 1.319 . S
N38 Eu47 2.600 . S
C39 C41 1.397 . S
C39 C42 1.367 . S
C39 H59 0.931 1_655 S
C40 C37 1.405 . S
C40 C42 1.403 . S
C40 C46 1.439 . S
C41 N38 1.319 . S
C41 C39 1.397 . S
C41 H52 0.930 1_655 S
C42 C39 1.367 . S
C42 C40 1.403 . S
C42 H63 0.929 . S
C43 C44 1.430 . S
C43 C45 1.387 . S
C43 C49 1.404 . S
C44 C37 1.448 . S
C44 C43 1.430 . S
C44 N48 1.351 . S
C45 C43 1.387 . S
C45 C46 1.374 . S
C45 H60 0.931 . S
C46 C40 1.439 . S
C46 C45 1.374 . S
C46 H61 0.931 . S
Eu47 N38 2.600 . S
Eu47 N48 2.562 . S
Eu47 O82 2.335 1_655 S
Eu47 O85 2.372 1_655 S
Eu47 O86 2.462 . S
Eu47 O87 2.373 . S
Eu47 O89 2.432 . S
Eu47 O90 2.291 1_545 S
Eu47 C111 2.787 . S
N48 C44 1.351 . S
N48 Eu47 2.562 . S
N48 C50 1.325 . S
C49 C43 1.404 . S
C49 C51 1.366 . S
C49 H57 0.930 . S
C50 N48 1.325 . S
C50 C51 1.416 . S
C50 H56 0.929 . S
C51 C49 1.366 . S
C51 C50 1.416 . S
C51 H53 0.930 . S
H52 C41 0.930 1_455 S
H53 C51 0.930 . S
H54 C69 0.930 1_655 S
H55 C76 0.930 . S
H56 C50 0.929 . S
H57 C49 0.930 . S
H58 C72 0.929 . S
H59 C39 0.931 1_455 S
H60 C45 0.931 . S
H61 C46 0.931 . S
H62 C67 0.931 1_655 S
H63 C42 0.929 . S
H64 C75 0.930 . S
N65 Eu36 2.600 . S
N65 C66 1.365 . S
N65 C69 1.319 . S
C66 N65 1.365 . S
C66 C68 1.405 . S
C66 C74 1.448 . S
C67 H62 0.931 1_455 S
C67 C69 1.397 . S
C67 C70 1.367 . S
C68 C66 1.405 . S
C68 C70 1.403 . S
C68 C101 1.439 . S
C69 H54 0.930 1_455 S
C69 N65 1.319 . S
C69 C67 1.397 . S
C70 C67 1.367 . S
C70 C68 1.403 . S
C70 H77 0.929 . S
N71 Eu36 2.562 . S
N71 C72 1.325 . S
N71 C74 1.351 . S
C72 H58 0.929 . S
C72 N71 1.325 . S
C72 C76 1.416 . S
C73 C74 1.430 . S
C73 C75 1.404 . S
C73 C102 1.387 . S
C74 C66 1.448 . S
C74 N71 1.351 . S
C74 C73 1.430 . S
C75 H64 0.930 . S
C75 C73 1.404 . S
C75 C76 1.366 . S
C76 H55 0.930 . S
C76 C72 1.416 . S
C76 C75 1.366 . S
H77 C70 0.929 . S
H78 C101 0.931 . S
H79 C102 0.931 . S
O80 Eu36 2.462 . S
O80 C100 1.252 . S
O81 Eu36 2.373 . S
O81 C92 1.249 . S
O82 Eu47 2.335 1_455 S
O82 C92 1.264 1_545 S
O83 Eu36 2.432 . S
O83 C100 1.268 . S
O84 Eu36 2.291 1_545 S
O84 C99 1.255 . S
O85 Eu47 2.372 1_455 S
O85 C99 1.257 . S
O86 Eu47 2.462 . S
O86 C111 1.252 . S
O87 Eu47 2.373 . S
O87 C103 1.249 . S
O88 Eu36 2.334 1_655 S
O88 C103 1.266 1_565 S
O89 Eu47 2.432 . S
O89 C111 1.268 . S
O90 Eu47 2.291 1_565 S
O90 C110 1.255 . S
O91 Eu36 2.372 1_655 S
O91 C110 1.257 . S
C92 O81 1.249 . S
C92 O82 1.264 1_565 S
C93 C96 1.382 . S
C93 C98 1.390 . S
C93 C100 1.506 . S
C94 C95 1.398 . S
C94 C98 1.392 . S
C95 C94 1.398 . S
C95 C97 1.372 . S
C95 H112 0.931 . S
C96 C93 1.382 . S
C96 C97 1.390 . S
C96 H113 0.931 . S
C97 C95 1.372 . S
C97 C96 1.390 . S
C97 H114 0.929 . S
C98 C93 1.390 . S
C98 C94 1.392 . S
C98 H115 0.930 . S
C99 O84 1.255 . S
C99 O85 1.257 . S
C100 Eu36 2.787 . S
C100 O80 1.252 . S
C100 O83 1.268 . S
C100 C93 1.506 . S
C101 C68 1.439 . S
C101 H78 0.931 . S
C101 C102 1.374 . S
C102 C73 1.387 . S
C102 H79 0.931 . S
C102 C101 1.374 . S
C103 O87 1.249 . S
C103 O88 1.266 1_545 S
C104 C107 1.382 . S
C104 C108 1.390 . S
C104 C111 1.506 . S
C105 C106 1.398 . S
C105 C108 1.392 . S
C106 C105 1.398 . S
C106 C109 1.372 . S
C106 H116 0.931 . S
C107 C104 1.382 . S
C107 C109 1.390 . S
C107 H117 0.931 . S
C108 C104 1.390 . S
C108 C105 1.392 . S
C108 H118 0.930 . S
C109 C106 1.372 . S
C109 C107 1.390 . S
C109 H119 0.929 . S
C110 O90 1.255 . S
C110 O91 1.257 . S
C111 Eu47 2.787 . S
C111 O86 1.252 . S
C111 O89 1.268 . S
C111 C104 1.506 . S
H112 C95 0.931 . S
H113 C96 0.931 . S
H114 C97 0.929 . S
H115 C98 0.930 . S
H116 C106 0.931 . S
H117 C107 0.931 . S
H118 C108 0.930 . S
H119 C109 0.929 . S
Eu120 N149 2.600 . S
Eu120 N155 2.562 1_556 S
Eu120 O164 2.462 . S
Eu120 O165 2.373 1_556 S
Eu120 O167 2.432 . S
Eu120 O168 2.291 1_556 S
Eu120 O172 2.335 . S
Eu120 O175 2.372 1_556 S
Eu120 C184 2.787 . S
C121 N122 1.365 . S
C121 C124 1.405 . S
C121 C128 1.448 . S
N122 C121 1.365 . S
N122 C125 1.319 . S
N122 Eu131 2.600 . S
C123 C125 1.397 . S
C123 C126 1.367 . S
C123 H143 0.931 . S
C124 C121 1.405 . S
C124 C126 1.403 . S
C124 C130 1.439 . S
C125 N122 1.319 . S
C125 C123 1.397 . S
C125 H136 0.930 . S
C126 C123 1.367 . S
C126 C124 1.403 . S
C126 H147 0.929 . S
C127 C128 1.430 . S
C127 C129 1.387 . S
C127 C133 1.404 . S
C128 C121 1.448 . S
C128 C127 1.430 . S
C128 N132 1.351 . S
C129 C127 1.387 . S
C129 C130 1.374 . S
C129 H144 0.931 . S
C130 C124 1.439 . S
C130 C129 1.374 . S
C130 H145 0.931 . S
Eu131 N122 2.600 . S
Eu131 N132 2.562 . S
Eu131 O166 2.335 . S
Eu131 O169 2.372 . S
Eu131 O170 2.462 . S
Eu131 O171 2.373 . S
Eu131 O173 2.432 . S
Eu131 O174 2.291 . S
Eu131 C195 2.787 . S
N132 C128 1.351 . S
N132 Eu131 2.562 . S
N132 C134 1.325 . S
C133 C127 1.404 . S
C133 C135 1.366 . S
C133 H141 0.930 . S
C134 N132 1.325 . S
C134 C135 1.416 . S
C134 H140 0.929 . S
C135 C133 1.366 . S
C135 C134 1.416 . S
C135 H137 0.930 . S
H136 C125 0.930 . S
H137 C135 0.930 . S
H138 C153 0.930 . S
H139 C160 0.930 . S
H140 C134 0.929 . S
H141 C133 0.930 . S
H142 C156 0.929 . S
H143 C123 0.931 . S
H144 C129 0.931 . S
H145 C130 0.931 . S
H146 C151 0.931 . S
H147 C126 0.929 . S
H148 C159 0.930 . S
N149 Eu120 2.600 . S
N149 C150 1.365 1_556 S
N149 C153 1.319 . S
C150 N149 1.365 1_554 S
C150 C152 1.405 . S
C150 C158 1.448 . S
C151 H146 0.931 . S
C151 C153 1.397 . S
C151 C154 1.367 1_556 S
C152 C150 1.405 . S
C152 C154 1.403 . S
C152 C185 1.439 . S
C153 H138 0.930 . S
C153 N149 1.319 . S
C153 C151 1.397 . S
C154 C151 1.367 1_554 S
C154 C152 1.403 . S
C154 H161 0.929 . S
N155 Eu120 2.562 1_554 S
N155 C156 1.325 . S
N155 C158 1.351 . S
C156 H142 0.929 . S
C156 N155 1.325 . S
C156 C160 1.416 . S
C157 C158 1.430 . S
C157 C159 1.404 . S
C157 C186 1.387 . S
C158 C150 1.448 . S
C158 N155 1.351 . S
C158 C157 1.430 . S
C159 H148 0.930 . S
C159 C157 1.404 . S
C159 C160 1.366 . S
C160 H139 0.930 . S
C160 C156 1.416 . S
C160 C159 1.366 . S
H161 C154 0.929 . S
H162 C185 0.931 . S
H163 C186 0.931 . S
O164 Eu120 2.462 . S
O164 C184 1.252 . S
O165 Eu120 2.373 1_554 S
O165 C176 1.249 . S
O166 Eu131 2.335 . S
O166 C176 1.264 . S
O167 Eu120 2.432 . S
O167 C184 1.268 . S
O168 Eu120 2.291 1_554 S
O168 C183 1.255 . S
O169 Eu131 2.372 . S
O169 C183 1.257 . S
O170 Eu131 2.462 . S
O170 C195 1.252 . S
O171 Eu131 2.373 . S
O171 C187 1.249 1_554 S
O172 Eu120 2.335 . S
O172 C187 1.264 . S
O173 Eu131 2.432 . S
O173 C195 1.268 . S
O174 Eu131 2.291 . S
O174 C194 1.255 . S
O175 Eu120 2.372 1_554 S
O175 C194 1.257 . S
C176 O165 1.249 . S
C176 O166 1.264 . S
C177 C180 1.382 . S
C177 C182 1.390 . S
C177 C184 1.506 . S
C178 C179 1.398 . S
C178 C182 1.392 . S
C179 C178 1.398 . S
C179 C181 1.372 . S
C179 H196 0.931 . S
C180 C177 1.382 . S
C180 C181 1.390 . S
C180 H197 0.931 . S
C181 C179 1.372 . S
C181 C180 1.390 . S
C181 H198 0.929 . S
C182 C177 1.390 . S
C182 C178 1.392 . S
C182 H199 0.930 . S
C183 O168 1.255 . S
C183 O169 1.257 . S
C184 Eu120 2.787 . S
C184 O164 1.252 . S
C184 O167 1.268 . S
C184 C177 1.506 . S
C185 C152 1.439 . S
C185 H162 0.931 . S
C185 C186 1.374 . S
C186 C157 1.387 . S
C186 H163 0.931 . S
C186 C185 1.374 . S
C187 O171 1.249 1_556 S
C187 O172 1.264 . S
C188 C191 1.382 . S
C188 C192 1.390 . S
C188 C195 1.506 . S
C189 C190 1.398 . S
C189 C192 1.392 . S
C190 C189 1.398 . S
C190 C193 1.372 . S
C190 H200 0.931 . S
C191 C188 1.382 . S
C191 C193 1.390 . S
C191 H201 0.931 . S
C192 C188 1.390 . S
C192 C189 1.392 . S
C192 H202 0.930 . S
C193 C190 1.372 . S
C193 C191 1.390 . S
C193 H203 0.929 . S
C194 O174 1.255 . S
C194 O175 1.257 . S
C195 Eu131 2.787 . S
C195 O170 1.252 . S
C195 O173 1.268 . S
C195 C188 1.506 . S
H196 C179 0.931 . S
H197 C180 0.931 . S
H198 C181 0.929 . S
H199 C182 0.930 . S
H200 C190 0.931 . S
H201 C191 0.931 . S
H202 C192 0.930 . S
H203 C193 0.929 . S
C204 C205 1.391 . S
C204 C206 1.394 . S
C204 H220 0.931 . S
C205 C204 1.391 . S
C205 C209 1.376 . S
C206 C204 1.394 . S
C206 C207 1.369 . S
C206 C210 1.531 . S
C207 C206 1.369 . S
C207 C208 1.410 . S
C207 C215 1.503 . S
C208 C207 1.410 . S
C208 C209 1.392 . S
C208 C211 1.511 . S
C209 C205 1.376 . S
C209 C208 1.392 . S
C209 H221 0.929 . S
C210 C206 1.531 . S
C210 H222 0.960 . S
C210 H223 0.962 . S
C210 H224 0.960 . S
C211 C208 1.511 . S
C211 H225 0.961 . S
C211 H226 0.961 . S
C211 H227 0.961 . S
C212 C213 1.370 . S
C212 C214 1.363 . S
C212 H228 0.931 . S
C213 C212 1.370 . S
C213 C217 1.408 . S
C214 C212 1.363 . S
C214 C215 1.370 . S
C214 C218 1.524 . S
C215 C207 1.503 . S
C215 C214 1.370 . S
C215 C216 1.403 . S
C216 C215 1.403 . S
C216 C217 1.404 . S
C216 C219 1.539 . S
C217 C213 1.408 . S
C217 C216 1.404 . S
C217 H229 0.930 . S
C218 C214 1.524 . S
C218 H230 0.956 . S
C218 H231 0.961 . S
C218 H232 0.961 . S
C219 C216 1.539 . S
C219 H233 0.958 . S
C219 H234 0.961 . S
C219 H235 0.960 . S
H220 C204 0.931 . S
H221 C209 0.929 . S
H222 C210 0.960 . S
H223 C210 0.962 . S
H224 C210 0.960 . S
H225 C211 0.961 . S
H226 C211 0.961 . S
H227 C211 0.961 . S
H228 C212 0.931 . S
H229 C217 0.930 . S
H230 C218 0.956 . S
H231 C218 0.961 . S
H232 C218 0.961 . S
H233 C219 0.958 . S
H234 C219 0.961 . S
H235 C219 0.960 . S
C236 C237 1.391 . S
C236 C238 1.394 . S
C236 H252 0.931 . S
C237 C236 1.391 . S
C237 C241 1.376 . S
C238 C236 1.394 . S
C238 C239 1.369 . S
C238 C242 1.531 . S
C239 C238 1.369 . S
C239 C240 1.410 . S
C239 C247 1.503 . S
C240 C239 1.410 . S
C240 C241 1.392 . S
C240 C243 1.511 . S
C241 C237 1.376 . S
C241 C240 1.392 . S
C241 H253 0.929 . S
C242 C238 1.531 . S
C242 H254 0.960 . S
C242 H255 0.962 . S
C242 H256 0.960 . S
C243 C240 1.511 . S
C243 H257 0.961 . S
C243 H258 0.961 . S
C243 H259 0.961 . S
C244 C245 1.370 1_556 S
C244 C246 1.366 . S
C244 H260 0.931 . S
C245 C244 1.370 1_554 S
C245 C249 1.408 . S
C246 C244 1.366 . S
C246 C247 1.362 1_556 S
C246 C250 1.530 . S
C247 C239 1.503 . S
C247 C246 1.362 1_554 S
C247 C248 1.403 . S
C248 C247 1.403 . S
C248 C249 1.404 . S
C248 C251 1.539 . S
C249 C245 1.408 . S
C249 C248 1.404 . S
C249 H261 0.930 . S
C250 C246 1.530 . S
C250 H262 0.956 . S
C250 H263 0.961 . S
C250 H264 0.961 . S
C251 C248 1.539 . S
C251 H265 0.958 . S
C251 H266 0.961 . S
C251 H267 0.960 . S
H252 C236 0.931 . S
H253 C241 0.929 . S
H254 C242 0.960 . S
H255 C242 0.962 . S
H256 C242 0.960 . S
H257 C243 0.961 . S
H258 C243 0.961 . S
H259 C243 0.961 . S
H260 C244 0.931 . S
H261 C249 0.930 . S
H262 C250 0.956 . S
H263 C250 0.961 . S
H264 C250 0.961 . S
H265 C251 0.958 . S
H266 C251 0.961 . S
H267 C251 0.960 . S
C268 C269 1.391 . S
C268 C270 1.394 . S
C268 H284 0.931 . S
C269 C268 1.391 . S
C269 C273 1.376 . S
C270 C268 1.394 . S
C270 C271 1.369 . S
C270 C274 1.531 . S
C271 C270 1.369 . S
C271 C272 1.410 . S
C271 C279 1.503 . S
C272 C271 1.410 . S
C272 C273 1.392 . S
C272 C275 1.511 . S
C273 C269 1.376 . S
C273 C272 1.392 . S
C273 H285 0.929 . S
C274 C270 1.531 . S
C274 H286 0.960 . S
C274 H287 0.962 . S
C274 H288 0.960 . S
C275 C272 1.511 . S
C275 H289 0.961 . S
C275 H290 0.961 . S
C275 H291 0.961 . S
C276 C277 1.370 . S
C276 C278 1.363 . S
C276 H292 0.931 . S
C277 C276 1.370 . S
C277 C281 1.408 . S
C278 C276 1.363 . S
C278 C279 1.370 . S
C278 C282 1.524 . S
C279 C271 1.503 . S
C279 C278 1.370 . S
C279 C280 1.403 . S
C280 C279 1.403 . S
C280 C281 1.404 . S
C280 C283 1.539 . S
C281 C277 1.408 . S
C281 C280 1.404 . S
C281 H293 0.930 . S
C282 C278 1.524 . S
C282 H294 0.956 . S
C282 H295 0.961 . S
C282 H296 0.961 . S
C283 C280 1.539 . S
C283 H297 0.958 . S
C283 H298 0.961 . S
C283 H299 0.960 . S
H284 C268 0.931 . S
H285 C273 0.929 . S
H286 C274 0.960 . S
H287 C274 0.962 . S
H288 C274 0.960 . S
H289 C275 0.961 . S
H290 C275 0.961 . S
H291 C275 0.961 . S
H292 C276 0.931 . S
H293 C281 0.930 . S
H294 C282 0.956 . S
H295 C282 0.961 . S
H296 C282 0.961 . S
H297 C283 0.958 . S
H298 C283 0.961 . S
H299 C283 0.960 . S
C300 C301 1.391 . S
C300 C302 1.394 . S
C300 H316 0.931 . S
C301 C300 1.391 . S
C301 C305 1.376 . S
C302 C300 1.394 . S
C302 C303 1.369 . S
C302 C306 1.531 . S
C303 C302 1.369 . S
C303 C304 1.410 . S
C303 C311 1.503 . S
C304 C303 1.410 . S
C304 C305 1.392 . S
C304 C307 1.511 . S
C305 C301 1.376 . S
C305 C304 1.392 . S
C305 H317 0.929 . S
C306 C302 1.531 . S
C306 H318 0.960 1_554 S
C306 H319 0.962 . S
C306 H320 0.960 1_554 S
C307 C304 1.511 . S
C307 H321 0.961 . S
C307 H322 0.961 . S
C307 H323 0.961 . S
C308 C309 1.370 . S
C308 C310 1.363 . S
C308 H324 0.931 . S
C309 C308 1.370 . S
C309 C313 1.408 1_554 S
C310 C308 1.363 . S
C310 C311 1.370 . S
C310 C314 1.524 . S
C311 C303 1.503 . S
C311 C310 1.370 . S
C311 C312 1.403 1_554 S
C312 C311 1.403 1_556 S
C312 C313 1.404 . S
C312 C315 1.539 . S
C313 C309 1.408 1_556 S
C313 C312 1.404 . S
C313 H325 0.930 . S
C314 C310 1.524 . S
C314 H326 0.956 . S
C314 H327 0.961 . S
C314 H328 0.961 . S
C315 C312 1.539 . S
C315 H329 0.958 . S
C315 H330 0.961 . S
C315 H331 0.960 . S
H316 C300 0.931 . S
H317 C305 0.929 . S
H318 C306 0.960 1_556 S
H319 C306 0.962 . S
H320 C306 0.960 1_556 S
H321 C307 0.961 . S
H322 C307 0.961 . S
H323 C307 0.961 . S
H324 C308 0.931 . S
H325 C313 0.930 . S
H326 C314 0.956 . S
H327 C314 0.961 . S
H328 C314 0.961 . S
H329 C315 0.958 . S
H330 C315 0.961 . S
H331 C315 0.960 . S
C332 C333 1.391 . S
C332 C334 1.394 . S
C332 H348 0.931 . S
C333 C332 1.391 . S
C333 C337 1.376 . S
C334 C332 1.394 . S
C334 C335 1.369 . S
C334 C338 1.531 . S
C335 C334 1.369 . S
C335 C336 1.410 . S
C335 C343 1.503 . S
C336 C335 1.410 . S
C336 C337 1.392 . S
C336 C339 1.511 . S
C337 C333 1.376 . S
C337 C336 1.392 . S
C337 H349 0.929 . S
C338 C334 1.531 . S
C338 H350 0.960 . S
C338 H351 0.962 . S
C338 H352 0.960 . S
C339 C336 1.511 . S
C339 H353 0.961 1_565 S
C339 H354 0.961 . S
C339 H355 0.961 . S
C340 C341 1.370 . S
C340 C342 1.363 . S
C340 H356 0.931 . S
C341 C340 1.370 . S
C341 C345 1.408 . S
C342 C340 1.363 . S
C342 C343 1.370 . S
C342 C346 1.524 . S
C343 C335 1.503 . S
C343 C342 1.370 . S
C343 C344 1.403 . S
C344 C343 1.403 . S
C344 C345 1.404 . S
C344 C347 1.539 . S
C345 C341 1.408 . S
C345 C344 1.404 . S
C345 H357 0.930 . S
C346 C342 1.524 . S
C346 H358 0.956 . S
C346 H359 0.961 . S
C346 H360 0.961 . S
C347 C344 1.539 . S
C347 H361 0.958 . S
C347 H362 0.961 . S
C347 H363 0.960 . S
H348 C332 0.931 . S
H349 C337 0.929 . S
H350 C338 0.960 . S
H351 C338 0.962 . S
H352 C338 0.960 . S
H353 C339 0.961 1_545 S
H354 C339 0.961 . S
H355 C339 0.961 . S
H356 C340 0.931 . S
H357 C345 0.930 . S
H358 C346 0.956 . S
H359 C346 0.961 . S
H360 C346 0.961 . S
H361 C347 0.958 . S
H362 C347 0.961 . S
H363 C347 0.960 . S
C364 C365 1.391 . S
C364 C366 1.394 . S
C364 H380 0.931 . S
C365 C364 1.391 . S
C365 C369 1.376 . S
C366 C364 1.394 . S
C366 C367 1.369 . S
C366 C370 1.531 . S
C367 C366 1.369 . S
C367 C368 1.410 . S
C367 C375 1.503 . S
C368 C367 1.410 . S
C368 C369 1.392 . S
C368 C371 1.511 . S
C369 C365 1.376 . S
C369 C368 1.392 . S
C369 H381 0.929 . S
C370 C366 1.531 . S
C370 H382 0.960 . S
C370 H383 0.962 . S
C370 H384 0.960 . S
C371 C368 1.511 . S
C371 H385 0.961 . S
C371 H386 0.961 . S
C371 H387 0.961 . S
C372 C373 1.370 . S
C372 C374 1.363 . S
C372 H388 0.931 . S
C373 C372 1.370 . S
C373 C377 1.408 . S
C374 C372 1.363 . S
C374 C375 1.370 . S
C374 C378 1.524 . S
C375 C367 1.503 . S
C375 C374 1.370 . S
C375 C376 1.403 . S
C376 C375 1.403 . S
C376 C377 1.404 . S
C376 C379 1.539 . S
C377 C373 1.408 . S
C377 C376 1.404 . S
C377 H389 0.930 . S
C378 C374 1.524 . S
C378 H390 0.956 . S
C378 H391 0.961 . S
C378 H392 0.961 . S
C379 C376 1.539 . S
C379 H393 0.958 . S
C379 H394 0.961 . S
C379 H395 0.960 . S
H380 C364 0.931 . S
H381 C369 0.929 . S
H382 C370 0.960 . S
H383 C370 0.962 . S
H384 C370 0.960 . S
H385 C371 0.961 . S
H386 C371 0.961 . S
H387 C371 0.961 . S
H388 C372 0.931 . S
H389 C377 0.930 . S
H390 C378 0.956 . S
H391 C378 0.961 . S
H392 C378 0.961 . S
H393 C379 0.958 . S
H394 C379 0.961 . S
H395 C379 0.960 . S
C396 C397 1.391 . S
C396 C398 1.394 . S
C396 H412 0.931 . S
C397 C396 1.391 . S
C397 C401 1.376 . S
C398 C396 1.394 . S
C398 C399 1.369 . S
C398 C402 1.531 . S
C399 C398 1.369 . S
C399 C400 1.410 . S
C399 C407 1.503 . S
C400 C399 1.410 . S
C400 C401 1.392 . S
C400 C403 1.511 . S
C401 C397 1.376 . S
C401 C400 1.392 . S
C401 H413 0.929 . S
C402 C398 1.531 . S
C402 H414 0.960 . S
C402 H415 0.962 . S
C402 H416 0.960 . S
C403 C400 1.511 . S
C403 H417 0.961 . S
C403 H418 0.961 . S
C403 H419 0.961 . S
C404 C405 1.370 . S
C404 C406 1.363 . S
C404 H420 0.931 1_545 S
C405 C404 1.370 . S
C405 C409 1.408 . S
C406 C404 1.363 . S
C406 C407 1.370 . S
C406 C410 1.524 . S
C407 C399 1.503 . S
C407 C406 1.370 . S
C407 C408 1.403 . S
C408 C407 1.403 . S
C408 C409 1.404 . S
C408 C411 1.539 . S
C409 C405 1.408 . S
C409 C408 1.404 . S
C409 H421 0.930 . S
C410 C406 1.524 . S
C410 H422 0.956 . S
C410 H423 0.961 1_545 S
C410 H424 0.961 1_545 S
C411 C408 1.539 . S
C411 H425 0.958 . S
C411 H426 0.961 . S
C411 H427 0.960 . S
H412 C396 0.931 . S
H413 C401 0.929 . S
H414 C402 0.960 . S
H415 C402 0.962 . S
H416 C402 0.960 . S
H417 C403 0.961 . S
H418 C403 0.961 . S
H419 C403 0.961 . S
H420 C404 0.931 1_565 S
H421 C409 0.930 . S
H422 C410 0.956 . S
H423 C410 0.961 1_565 S
H424 C410 0.961 1_565 S
H425 C411 0.958 . S
H426 C411 0.961 . S
H427 C411 0.960 . S
C428 C429 1.391 . S
C428 C430 1.394 . S
C428 H444 0.931 . S
C429 C428 1.391 . S
C429 C433 1.376 . S
C430 C428 1.394 . S
C430 C431 1.369 . S
C430 C434 1.531 . S
C431 C430 1.369 . S
C431 C432 1.410 . S
C431 C439 1.503 . S
C432 C431 1.410 . S
C432 C433 1.392 . S
C432 C435 1.511 . S
C433 C429 1.376 . S
C433 C432 1.392 . S
C433 H445 0.929 . S
C434 C430 1.531 . S
C434 H446 0.960 . S
C434 H447 0.962 . S
C434 H448 0.960 . S
C435 C432 1.511 . S
C435 H449 0.961 . S
C435 H450 0.961 . S
C435 H451 0.961 . S
C436 C437 1.370 . S
C436 C438 1.363 . S
C436 H452 0.931 . S
C437 C436 1.370 . S
C437 C441 1.408 . S
C438 C436 1.363 . S
C438 C439 1.370 . S
C438 C442 1.524 . S
C439 C431 1.503 . S
C439 C438 1.370 . S
C439 C440 1.403 . S
C440 C439 1.403 . S
C440 C441 1.404 . S
C440 C443 1.539 . S
C441 C437 1.408 . S
C441 C440 1.404 . S
C441 H453 0.930 . S
C442 C438 1.524 . S
C442 H454 0.956 . S
C442 H455 0.961 . S
C442 H456 0.961 . S
C443 C440 1.539 . S
C443 H457 0.958 . S
C443 H458 0.961 . S
C443 H459 0.960 . S
H444 C428 0.931 . S
H445 C433 0.929 . S
H446 C434 0.960 . S
H447 C434 0.962 . S
H448 C434 0.960 . S
H449 C435 0.961 . S
H450 C435 0.961 . S
H451 C435 0.961 . S
H452 C436 0.931 . S
H453 C441 0.930 . S
H454 C442 0.956 . S
H455 C442 0.961 . S
H456 C442 0.961 . S
H457 C443 0.958 . S
H458 C443 0.961 . S
H459 C443 0.960 . S
C460 C461 1.391 . S
C460 C462 1.394 . S
C460 H476 0.931 . S
C461 C460 1.391 . S
C461 C465 1.376 . S
C462 C460 1.394 . S
C462 C463 1.369 . S
C462 C466 1.531 . S
C463 C462 1.369 . S
C463 C464 1.410 . S
C463 C471 1.503 . S
C464 C463 1.410 . S
C464 C465 1.392 . S
C464 C467 1.511 . S
C465 C461 1.376 . S
C465 C464 1.392 . S
C465 H477 0.929 . S
C466 C462 1.531 . S
C466 H478 0.960 . S
C466 H479 0.962 . S
C466 H480 0.960 . S
C467 C464 1.511 . S
C467 H481 0.961 . S
C467 H482 0.961 . S
C467 H483 0.961 . S
C468 C469 1.370 . S
C468 C470 1.363 . S
C468 H484 0.931 . S
C469 C468 1.370 . S
C469 C473 1.408 . S
C470 C468 1.363 . S
C470 C471 1.370 . S
C470 C474 1.524 . S
C471 C463 1.503 . S
C471 C470 1.370 . S
C471 C472 1.403 . S
C472 C471 1.403 . S
C472 C473 1.404 . S
C472 C475 1.539 . S
C473 C469 1.408 . S
C473 C472 1.404 . S
C473 H485 0.930 . S
C474 C470 1.524 . S
C474 H486 0.956 . S
C474 H487 0.961 . S
C474 H488 0.961 . S
C475 C472 1.539 . S
C475 H489 0.958 . S
C475 H490 0.961 . S
C475 H491 0.960 . S
H476 C460 0.931 . S
H477 C465 0.929 . S
H478 C466 0.960 . S
H479 C466 0.962 . S
H480 C466 0.960 . S
H481 C467 0.961 . S
H482 C467 0.961 . S
H483 C467 0.961 . S
H484 C468 0.931 . S
H485 C473 0.930 . S
H486 C474 0.956 . S
H487 C474 0.961 . S
H488 C474 0.961 . S
H489 C475 0.958 . S
H490 C475 0.961 . S
H491 C475 0.960 . S
C492 C493 1.391 . S
C492 C494 1.394 . S
C492 H508 0.931 . S
C493 C492 1.391 . S
C493 C497 1.376 . S
C494 C492 1.394 . S
C494 C495 1.369 . S
C494 C498 1.531 . S
C495 C494 1.369 . S
C495 C496 1.410 . S
C495 C503 1.503 . S
C496 C495 1.410 . S
C496 C497 1.392 . S
C496 C499 1.511 . S
C497 C493 1.376 . S
C497 C496 1.392 . S
C497 H509 0.929 1_556 S
C498 C494 1.531 . S
C498 H510 0.960 . S
C498 H511 0.962 . S
C498 H512 0.960 . S
C499 C496 1.511 . S
C499 H513 0.961 . S
C499 H514 0.961 . S
C499 H515 0.961 . S
C500 C501 1.370 . S
C500 C502 1.363 . S
C500 H516 0.931 . S
C501 C500 1.370 . S
C501 C505 1.408 . S
C502 C500 1.363 . S
C502 C503 1.370 . S
C502 C506 1.524 . S
C503 C495 1.503 . S
C503 C502 1.370 . S
C503 C504 1.403 . S
C504 C503 1.403 . S
C504 C505 1.404 . S
C504 C507 1.539 . S
C505 C501 1.408 . S
C505 C504 1.404 . S
C505 H517 0.930 . S
C506 C502 1.524 . S
C506 H518 0.956 . S
C506 H519 0.961 . S
C506 H520 0.961 1_545 S
C507 C504 1.539 . S
C507 H521 0.958 . S
C507 H522 0.961 . S
C507 H523 0.960 . S
H508 C492 0.931 . S
H509 C497 0.929 1_554 S
H510 C498 0.960 . S
H511 C498 0.962 . S
H512 C498 0.960 . S
H513 C499 0.961 . S
H514 C499 0.961 . S
H515 C499 0.961 . S
H516 C500 0.931 . S
H517 C505 0.930 . S
H518 C506 0.956 . S
H519 C506 0.961 . S
H520 C506 0.961 1_565 S
H521 C507 0.958 . S
H522 C507 0.961 . S
H523 C507 0.960 . S
C524 C525 1.391 . S
C524 C526 1.394 . S
C524 H540 0.931 . S
C525 C524 1.391 . S
C525 C529 1.376 . S
C526 C524 1.394 . S
C526 C527 1.369 . S
C526 C530 1.531 . S
C527 C526 1.369 . S
C527 C528 1.410 . S
C527 C535 1.503 . S
C528 C527 1.410 . S
C528 C529 1.392 . S
C528 C531 1.511 . S
C529 C525 1.376 . S
C529 C528 1.392 . S
C529 H541 0.929 . S
C530 C526 1.531 . S
C530 H542 0.960 . S
C530 H543 0.962 . S
C530 H544 0.960 . S
C531 C528 1.511 . S
C531 H545 0.961 . S
C531 H546 0.961 . S
C531 H547 0.961 . S
C532 C533 1.370 . S
C532 C534 1.363 . S
C532 H548 0.931 . S
C533 C532 1.370 . S
C533 C537 1.408 . S
C534 C532 1.363 . S
C534 C535 1.370 . S
C534 C538 1.524 . S
C535 C527 1.503 . S
C535 C534 1.370 . S
C535 C536 1.403 . S
C536 C535 1.403 . S
C536 C537 1.404 . S
C536 C539 1.539 . S
C537 C533 1.408 . S
C537 C536 1.404 . S
C537 H549 0.930 . S
C538 C534 1.524 . S
C538 H550 0.956 . S
C538 H551 0.961 . S
C538 H552 0.961 . S
C539 C536 1.539 . S
C539 H553 0.958 . S
C539 H554 0.961 . S
C539 H555 0.960 . S
H540 C524 0.931 . S
H541 C529 0.929 . S
H542 C530 0.960 . S
H543 C530 0.962 . S
H544 C530 0.960 . S
H545 C531 0.961 . S
H546 C531 0.961 . S
H547 C531 0.961 . S
H548 C532 0.931 . S
H549 C537 0.930 . S
H550 C538 0.956 . S
H551 C538 0.961 . S
H552 C538 0.961 . S
H553 C539 0.958 . S
H554 C539 0.961 . S
H555 C539 0.960 . S
C556 C557 1.391 . S
C556 C558 1.394 . S
C556 H572 0.931 . S
C557 C556 1.391 . S
C557 C561 1.376 . S
C558 C556 1.394 . S
C558 C559 1.369 . S
C558 C562 1.531 . S
C559 C558 1.369 . S
C559 C560 1.410 . S
C559 C567 1.503 . S
C560 C559 1.410 . S
C560 C561 1.392 . S
C560 C563 1.511 . S
C561 C557 1.376 . S
C561 C560 1.392 . S
C561 H573 0.929 . S
C562 C558 1.531 . S
C562 H574 0.960 . S
C562 H575 0.962 . S
C562 H576 0.960 . S
C563 C560 1.511 . S
C563 H577 0.961 . S
C563 H578 0.961 . S
C563 H579 0.961 . S
C564 C565 1.370 . S
C564 C566 1.363 . S
C564 H580 0.931 . S
C565 C564 1.370 . S
C565 C569 1.408 . S
C566 C564 1.363 . S
C566 C567 1.370 . S
C566 C570 1.524 . S
C567 C559 1.503 . S
C567 C566 1.370 . S
C567 C568 1.403 . S
C568 C567 1.403 . S
C568 C569 1.404 . S
C568 C571 1.539 1_565 S
C569 C565 1.408 . S
C569 C568 1.404 . S
C569 H581 0.930 1_565 S
C570 C566 1.524 . S
C570 H582 0.956 . S
C570 H583 0.961 . S
C570 H584 0.961 . S
C571 C568 1.539 1_545 S
C571 H585 0.958 . S
C571 H586 0.961 . S
C571 H587 0.960 . S
H572 C556 0.931 . S
H573 C561 0.929 . S
H574 C562 0.960 . S
H575 C562 0.962 . S
H576 C562 0.960 . S
H577 C563 0.961 . S
H578 C563 0.961 . S
H579 C563 0.961 . S
H580 C564 0.931 . S
H581 C569 0.930 1_545 S
H582 C570 0.956 . S
H583 C570 0.961 . S
H584 C570 0.961 . S
H585 C571 0.958 . S
H586 C571 0.961 . S
H587 C571 0.960 . S
C213 C99 1.559 . S
C205 C34 1.576 . S
C237 C7 1.549 . S
C245 C194 1.544 . S
C269 C16 1.578 . S
C277 C110 1.559 . S
C301 C25 1.554 . S
C309 C183 1.543 . S
C341 C94 1.373 . S
C333 C5 1.526 . S
C373 C187 1.563 . S
C365 C13 1.546 . S
C397 C23 1.527 . S
C405 C103 1.551 . S
C429 C32 1.516 . S
C437 C178 1.389 . S
C469 C189 1.375 . S
C461 C14 1.511 . S
C501 C105 1.344 . S
C493 C22 1.516 1_556 S
C533 C176 1.562 . S
C525 C31 1.558 . S
C557 C4 1.547 . S
C565 C92 1.549 . S
