# Generated by pormake.
# Topology rtl, (3,6)-cn, num edge types: 1
# Building blocks:
#     Node 0, Type 0, BuildingBlock: BETDIP_clean_linker_0, # of connection points: 3
#     Node 1, Type 0, BuildingBlock: BETDIP_clean_linker_0, # of connection points: 3
#     Node 2, Type 0, BuildingBlock: BETDIP_clean_linker_0, # of connection points: 3
#     Node 3, Type 0, BuildingBlock: BETDIP_clean_linker_0, # of connection points: 3
#     Node 4, Type 1, BuildingBlock: FUNLAD_clean_sbu_0, # of connection points: 6
#     Node 5, Type 1, BuildingBlock: FUNLAD_clean_sbu_0, # of connection points: 6
#     Edge 6, Type (0, 1), BuildingBlock: FUNLAD_clean_linker_1, # of connection points: 2
#     Edge 7, Type (0, 1), BuildingBlock: FUNLAD_clean_linker_1, # of connection points: 2
#     Edge 8, Type (0, 1), BuildingBlock: FUNLAD_clean_linker_1, # of connection points: 2
#     Edge 9, Type (0, 1), BuildingBlock: FUNLAD_clean_linker_1, # of connection points: 2
#     Edge 10, Type (0, 1), BuildingBlock: FUNLAD_clean_linker_1, # of connection points: 2
#     Edge 11, Type (0, 1), BuildingBlock: FUNLAD_clean_linker_1, # of connection points: 2
#     Edge 12, Type (0, 1), BuildingBlock: FUNLAD_clean_linker_1, # of connection points: 2
#     Edge 13, Type (0, 1), BuildingBlock: FUNLAD_clean_linker_1, # of connection points: 2
#     Edge 14, Type (0, 1), BuildingBlock: FUNLAD_clean_linker_1, # of connection points: 2
#     Edge 15, Type (0, 1), BuildingBlock: FUNLAD_clean_linker_1, # of connection points: 2
#     Edge 16, Type (0, 1), BuildingBlock: FUNLAD_clean_linker_1, # of connection points: 2
#     Edge 17, Type (0, 1), BuildingBlock: FUNLAD_clean_linker_1, # of connection points: 2
# Relax obj value: 0.002
# Max RMSD: 0.041
# Mean RMSD: 0.029
data_MOF--net-rtl--node1-FUNLAD_clean_sbu_0--node2-BETDIP_clean_linker_0--edge1-FUNLAD_clean_linker_1
_symmetry_space_group_name_H-M    P1
_symmetry_Int_Tables_number       1
_symmetry_cell_setting            triclinic
loop_
_symmetry_equiv_pos_as_xyz
'x, y, z'
_cell_length_a     41.4853
_cell_length_b     41.653191
_cell_length_c     21.736622
_cell_angle_alpha  90.830023
_cell_angle_beta   91.84926
_cell_angle_gamma 90.206279
loop_
_atom_site_label
_atom_site_type_symbol
_atom_site_fract_x
_atom_site_fract_y
_atom_site_fract_z
_atom_type_partial_charge
H0 H 0.20681 0.83803 0.91696 0.0
H1 H 0.18432 0.82254 0.10647 0.0
H2 H 0.12334 0.88212 0.99361 0.0
H3 H 0.25824 0.83064 0.95694 0.0
C4 C 0.25448 0.81 0.98583 0.0
C5 C 0.19156 0.84219 0.95575 0.0
C6 C 0.16395 0.86122 0.94767 0.0
C7 C 0.19905 0.82811 0.01303 0.0
C8 C 0.17862 0.83333 0.06239 0.0
C9 C 0.15116 0.8527 0.05504 0.0
C10 C 0.14388 0.86624 0.99774 0.0
N11 N 0.22649 0.80809 0.02176 0.0
H12 H 0.71499 0.69226 0.62988 0.0
H13 H 0.713 0.68928 0.43167 0.0
H14 H 0.65012 0.62804 0.53019 0.0
H15 H 0.76737 0.70014 0.45109 0.0
C16 C 0.76546 0.71911 0.48555 0.0
C17 C 0.7049 0.68277 0.5867 0.0
C18 C 0.68008 0.65974 0.5869 0.0
C19 C 0.71732 0.69321 0.53109 0.0
C20 C 0.70422 0.68088 0.475 0.0
C21 C 0.67923 0.65812 0.47432 0.0
C22 C 0.6677 0.6473 0.53045 0.0
N23 N 0.7426 0.71642 0.53265 0.0
H24 H 0.83593 0.1995 0.88966 0.0
H25 H 0.83525 0.20138 0.08787 0.0
H26 H 0.88879 0.12899 0.99346 0.0
H27 H 0.79021 0.23017 0.07344 0.0
C28 C 0.79243 0.24285 0.03049 0.0
C29 C 0.84373 0.18961 0.93353 0.0
C30 C 0.8646 0.16324 0.93501 0.0
C31 C 0.83267 0.20344 0.98805 0.0
C32 C 0.84289 0.19068 0.04514 0.0
C33 C 0.86397 0.16437 0.04743 0.0
C34 C 0.87426 0.15051 0.99212 0.0
N35 N 0.81202 0.23056 0.98326 0.0
H36 H 0.31834 0.34223 0.40703 0.0
H37 H 0.32667 0.35138 0.60478 0.0
H38 H 0.37543 0.4181 0.4922 0.0
H39 H 0.28373 0.32142 0.60531 0.0
C40 C 0.2813 0.30774 0.56264 0.0
C41 C 0.32796 0.35449 0.44799 0.0
C42 C 0.34899 0.38067 0.44232 0.0
C43 C 0.31924 0.34387 0.50623 0.0
C44 C 0.33238 0.35948 0.55946 0.0
C45 C 0.3528 0.38621 0.55417 0.0
C46 C 0.36039 0.39692 0.49574 0.0
N47 N 0.2975 0.3174 0.50915 0.0
C48 C 0.05213 0.98185 0.40738 0.0
N49 N 0.07799 0.06691 0.50228 0.0
C50 C 0.10919 0.05695 0.5017 0.0
C51 C 0.13435 0.07938 0.50174 0.0
C52 C 0.12743 0.11232 0.50314 0.0
C53 C 0.09496 0.12191 0.50364 0.0
C54 C 0.07057 0.0987 0.50328 0.0
Zn55 Zn 0.04114 0.03391 0.49913 0.0
C56 C 0.98957 0.05193 0.40599 0.0
N57 N 0.96319 0.96588 0.49084 0.0
C58 C 0.97067 0.93412 0.48879 0.0
C59 C 0.93202 0.97568 0.49357 0.0
C60 C 0.90702 0.95315 0.49549 0.0
C61 C 0.91398 0.92016 0.49456 0.0
C62 C 0.94644 0.91079 0.49031 0.0
Zn63 Zn 1.00002 0.99897 0.49343 0.0
O64 O 0.06466 0.00724 0.43076 0.0
C65 C 0.05141 0.98081 0.58625 0.0
O66 O 0.02465 0.97248 0.42452 0.0
H67 H 0.92654 1.00104 0.49506 0.0
H68 H 0.11459 0.03157 0.5007 0.0
H69 H 0.99559 0.92678 0.48665 0.0
O70 O 0.06484 0.00639 0.56843 0.0
O71 O 0.02426 0.97228 0.56272 0.0
H72 H 0.04562 0.10613 0.50303 0.0
O73 O 0.97646 0.02607 0.5626 0.0
O74 O 0.01716 0.06002 0.56794 0.0
O75 O 0.97632 0.02632 0.42413 0.0
O76 O 0.01671 0.06067 0.42943 0.0
C77 C 0.98979 0.05113 0.58606 0.0
H78 H 0.15904 0.07104 0.50084 0.0
H79 H 0.08819 0.14695 0.50273 0.0
H80 H 0.8824 0.96149 0.49835 0.0
H81 H 0.95357 0.88591 0.48836 0.0
C82 C 0.48429 0.48374 0.92276 0.0
N83 N 0.57111 0.46745 0.0214 0.0
C84 C 0.56193 0.43607 0.02162 0.0
C85 C 0.58493 0.41181 0.02575 0.0
C86 C 0.61784 0.41966 0.02928 0.0
C87 C 0.62677 0.45232 0.02885 0.0
C88 C 0.60285 0.47592 0.02481 0.0
Zn89 Zn 0.53535 0.50138 0.01769 0.0
C90 C 0.54783 0.5534 0.92936 0.0
N91 N 0.45841 0.56985 0.0106 0.0
C92 C 0.42718 0.55968 0.00859 0.0
C93 C 0.46584 0.60169 0.01171 0.0
C94 C 0.44142 0.62474 0.01121 0.0
C95 C 0.40887 0.61493 0.01009 0.0
C96 C 0.40202 0.58189 0.00826 0.0
Zn97 Zn 0.49481 0.53664 0.01345 0.0
O98 O 0.51103 0.47463 0.94646 0.0
C99 C 0.48201 0.48464 0.10103 0.0
O100 O 0.47162 0.5097 0.94144 0.0
H101 H 0.49081 0.60929 0.01307 0.0
H102 H 0.53662 0.42976 0.019 0.0
H103 H 0.42174 0.53426 0.00753 0.0
O104 O 0.50974 0.47574 0.0847 0.0
O105 O 0.46959 0.50987 0.07846 0.0
H106 H 0.60963 0.50102 0.02499 0.0
O107 O 0.5187 0.5629 0.08624 0.0
O108 O 0.55888 0.52859 0.08885 0.0
O109 O 0.52061 0.56273 0.94778 0.0
O110 O 0.56027 0.52781 0.95072 0.0
C111 C 0.5457 0.55396 0.10923 0.0
H112 H 0.57699 0.38701 0.02615 0.0
H113 H 0.65173 0.45983 0.03275 0.0
H114 H 0.44837 0.64975 0.01121 0.0
H115 H 0.37734 0.57325 0.0069 0.0
H116 H 0.24815 0.2759 0.60369 0.0
C117 C 0.26033 0.28139 0.56157 0.0
H118 H 0.26468 0.26794 0.46557 0.0
H119 H 0.19525 0.14203 0.59918 0.0
H120 H 0.24671 0.1352 0.6532 0.0
H121 H 0.2911 0.17387 0.64049 0.0
H122 H 0.28401 0.21995 0.57447 0.0
C123 C 0.25388 0.2623 0.50901 0.0
C124 C 0.22898 0.23647 0.50983 0.0
C125 C 0.23396 0.20893 0.54653 0.0
C126 C 0.20884 0.18584 0.55163 0.0
C127 C 0.21386 0.15962 0.59156 0.0
C128 C 0.24325 0.15552 0.62322 0.0
C129 C 0.2682 0.17735 0.61624 0.0
C130 C 0.26374 0.2038 0.57847 0.0
H131 H 0.17707 0.12786 0.48284 0.0
C132 C 0.15441 0.13587 0.50155 0.0
H133 H 0.13038 0.17485 0.5434 0.0
H134 H 0.21198 0.28589 0.43375 0.0
H135 H 0.16141 0.29151 0.37591 0.0
H136 H 0.11865 0.25046 0.38154 0.0
H137 H 0.1261 0.20363 0.44534 0.0
C138 C 0.15242 0.16615 0.52354 0.0
C139 C 0.17927 0.18966 0.51788 0.0
C140 C 0.17473 0.21667 0.47962 0.0
C141 C 0.19958 0.24012 0.47566 0.0
C142 C 0.19409 0.26716 0.43799 0.0
C143 C 0.16515 0.27072 0.40455 0.0
C144 C 0.14106 0.24762 0.40777 0.0
C145 C 0.14564 0.22088 0.44473 0.0
H146 H 0.29924 0.78983 0.95965 0.0
C147 C 0.27826 0.78632 0.98747 0.0
H148 H 0.25589 0.75457 0.05175 0.0
H149 H 0.36655 0.66742 0.90444 0.0
H150 H 0.33284 0.67511 0.81285 0.0
H151 H 0.28391 0.70848 0.81628 0.0
H152 H 0.26887 0.73495 0.91112 0.0
C153 C 0.27601 0.75824 0.02183 0.0
C154 C 0.30244 0.73408 0.02175 0.0
C155 C 0.30994 0.71738 0.96668 0.0
C156 C 0.33715 0.69669 0.96553 0.0
C157 C 0.34535 0.68219 0.90881 0.0
C158 C 0.32632 0.68658 0.85566 0.0
C159 C 0.29886 0.70548 0.85753 0.0
C160 C 0.29064 0.72074 0.91221 0.0
H161 H 0.35728 0.62822 0.00122 0.0
C162 C 0.38141 0.63795 0.00968 0.0
H163 H 0.40761 0.68058 0.03222 0.0
H164 H 0.29396 0.76127 0.13553 0.0
H165 H 0.32575 0.75109 0.22872 0.0
H166 H 0.37123 0.71312 0.22801 0.0
H167 H 0.38538 0.68528 0.134 0.0
C168 C 0.38445 0.66981 0.01989 0.0
C169 C 0.35577 0.6913 0.02035 0.0
C170 C 0.34747 0.70703 0.07593 0.0
C171 C 0.32088 0.72852 0.07658 0.0
C172 C 0.31363 0.7444 0.1325 0.0
C173 C 0.33171 0.73882 0.18637 0.0
C174 C 0.35734 0.71747 0.18596 0.0
C175 C 0.36524 0.7017 0.13158 0.0
H176 H 0.80459 0.74442 0.44731 0.0
C177 C 0.78699 0.74492 0.48326 0.0
H178 H 0.76993 0.77206 0.5613 0.0
H179 H 0.90068 0.84761 0.61365 0.0
H180 H 0.89575 0.8168 0.70669 0.0
H181 H 0.85249 0.77651 0.71532 0.0
H182 H 0.81371 0.76695 0.63123 0.0
C183 C 0.78671 0.77131 0.52396 0.0
C184 C 0.81135 0.79734 0.52019 0.0
C185 C 0.83393 0.80252 0.56974 0.0
C186 C 0.85927 0.82533 0.56431 0.0
C187 C 0.88128 0.83022 0.61481 0.0
C188 C 0.87869 0.81276 0.66861 0.0
C189 C 0.85431 0.7901 0.6735 0.0
C190 C 0.83216 0.7849 0.62481 0.0
H191 H 0.86241 0.90634 0.49837 0.0
C192 C 0.88677 0.89676 0.49831 0.0
H193 H 0.91403 0.85388 0.50579 0.0
H194 H 0.76853 0.79813 0.42162 0.0
H195 H 0.7741 0.82789 0.32746 0.0
H196 H 0.82085 0.86359 0.31404 0.0
H197 H 0.86182 0.87034 0.39514 0.0
C198 C 0.89036 0.86471 0.50257 0.0
C199 C 0.86225 0.84272 0.50912 0.0
C200 C 0.83927 0.83802 0.45998 0.0
C201 C 0.81328 0.81602 0.46629 0.0
C202 C 0.78959 0.81329 0.41807 0.0
C203 C 0.79235 0.83044 0.36396 0.0
C204 C 0.81859 0.85063 0.35652 0.0
C205 C 0.84186 0.85445 0.40372 0.0
H206 H 0.77628 0.28259 0.97605 0.0
C207 C 0.77419 0.2704 0.01964 0.0
H208 H 0.75134 0.27083 0.10738 0.0
H209 H 0.70894 0.41525 0.11564 0.0
H210 H 0.74953 0.41383 0.19841 0.0
H211 H 0.78341 0.36591 0.21407 0.0
H212 H 0.77675 0.31901 0.14744 0.0
C213 C 0.75267 0.28215 0.06277 0.0
C214 C 0.73302 0.31148 0.05112 0.0
C215 C 0.73757 0.33893 0.0899 0.0
C216 C 0.71839 0.36679 0.08028 0.0
C217 C 0.72305 0.39359 0.12049 0.0
C218 C 0.74626 0.3931 0.16821 0.0
C219 C 0.76531 0.3661 0.17707 0.0
C220 C 0.76116 0.33929 0.13853 0.0
H221 H 0.63217 0.36948 0.04659 0.0
C222 C 0.6415 0.39301 0.03498 0.0
H223 H 0.68395 0.4184 0.01287 0.0
H224 H 0.71515 0.26198 0.97213 0.0
H225 H 0.67678 0.2646 0.88609 0.0
H226 H 0.64737 0.31466 0.86357 0.0
H227 H 0.65566 0.36215 0.92806 0.0
C228 C 0.67321 0.39564 0.02466 0.0
C229 C 0.69484 0.36729 0.03162 0.0
C230 C 0.69108 0.3403 0.9914 0.0
C231 C 0.70946 0.31203 0.00225 0.0
C232 C 0.70324 0.28464 0.96423 0.0
C233 C 0.681 0.28571 0.91491 0.0
C234 C 0.66434 0.31383 0.9024 0.0
C235 C 0.66918 0.34086 0.94006 0.0
H236 H 0.10451 0.86409 0.09572 0.0
C237 C 0.13008 0.86085 0.10652 0.0
H238 H 0.16748 0.86909 0.17332 0.0
H239 H 0.05101 0.97221 0.24176 0.0
H240 H 0.06329 0.99711 0.14512 0.0
H241 H 0.10353 0.97332 0.07703 0.0
H242 H 0.13102 0.92419 0.10445 0.0
C243 C 0.14189 0.8709 0.16175 0.0
C244 C 0.12068 0.88742 0.20622 0.0
C245 C 0.10634 0.91736 0.19109 0.0
C246 C 0.08471 0.93219 0.23209 0.0
C247 C 0.06886 0.96075 0.21377 0.0
C248 C 0.0755 0.97519 0.15818 0.0
C249 C 0.09803 0.96173 0.11973 0.0
C250 C 0.11341 0.93325 0.13582 0.0
H251 H 0.09275 0.97385 0.34654 0.0
C252 C 0.07 0.96378 0.36086 0.0
H253 H 0.03764 0.92455 0.35147 0.0
H254 H 0.1444 0.83062 0.2495 0.0
H255 H 0.13403 0.80708 0.34853 0.0
H256 H 0.09881 0.83431 0.42208 0.0
H257 H 0.07347 0.88508 0.39692 0.0
C258 C 0.05963 0.93571 0.33612 0.0
C259 C 0.07926 0.91835 0.29012 0.0
C260 C 0.0939 0.88871 0.3056 0.0
C261 C 0.11456 0.87319 0.26351 0.0
C262 C 0.12871 0.84352 0.27997 0.0
C263 C 0.12296 0.82975 0.33664 0.0
C264 C 0.10311 0.84507 0.37804 0.0
C265 C 0.0887 0.87421 0.36299 0.0
H266 H 0.68625 0.64598 0.68487 0.0
C267 C 0.66899 0.64702 0.64623 0.0
H268 H 0.62108 0.63742 0.61522 0.0
H269 H 0.59191 0.52005 0.77885 0.0
H270 H 0.59656 0.49453 0.67863 0.0
H271 H 0.6168 0.52473 0.59093 0.0
H272 H 0.63232 0.58064 0.60284 0.0
C273 C 0.63878 0.63598 0.65298 0.0
C274 C 0.62931 0.61763 0.7079 0.0
C275 C 0.62096 0.58469 0.7005 0.0
C276 C 0.6098 0.56712 0.75129 0.0
C277 C 0.60091 0.53448 0.74209 0.0
C278 C 0.60342 0.5195 0.68474 0.0
C279 C 0.61477 0.53651 0.63536 0.0
C280 C 0.6235 0.56868 0.64285 0.0
H281 H 0.55149 0.59294 0.86371 0.0
C282 C 0.56409 0.57222 0.88239 0.0
H283 H 0.60566 0.54324 0.87792 0.0
H284 H 0.64157 0.68081 0.73748 0.0
H285 H 0.63915 0.70567 0.83876 0.0
H286 H 0.62338 0.67419 0.92831 0.0
H287 H 0.60936 0.61776 0.91683 0.0
C288 C 0.59314 0.56443 0.86117 0.0
C289 C 0.60715 0.58244 0.80956 0.0
C290 C 0.61667 0.61504 0.81758 0.0
C291 C 0.62714 0.63285 0.76642 0.0
C292 C 0.63462 0.66584 0.77506 0.0
C293 C 0.63316 0.68047 0.83294 0.0
C294 C 0.62417 0.66277 0.88332 0.0
C295 C 0.616 0.63044 0.87602 0.0
H296 H 0.85696 0.15133 0.1448 0.0
C297 C 0.87391 0.15053 0.1077 0.0
H298 H 0.9204 0.13661 0.08107 0.0
H299 H 0.93263 0.11944 0.38486 0.0
H300 H 0.92315 0.17676 0.39306 0.0
H301 H 0.90949 0.20838 0.30079 0.0
H302 H 0.90457 0.18279 0.20006 0.0
C303 C 0.90301 0.13696 0.11737 0.0
C304 C 0.9114 0.11859 0.17386 0.0
C305 C 0.91526 0.13423 0.23206 0.0
C306 C 0.9247 0.11628 0.28486 0.0
C307 C 0.92684 0.13215 0.34291 0.0
C308 C 0.92124 0.165 0.34834 0.0
C309 C 0.91343 0.18278 0.29642 0.0
C310 C 0.91049 0.16773 0.23885 0.0
H311 H 0.98799 0.09151 0.33982 0.0
C312 C 0.97436 0.07135 0.35696 0.0
H313 H 0.93135 0.04419 0.34784 0.0
H314 H 0.90438 0.0808 0.06988 0.0
H315 H 0.91545 0.02389 0.06135 0.0
H316 H 0.93432 0.99335 0.15192 0.0
H317 H 0.94201 0.01953 0.25161 0.0
C318 C 0.94492 0.06474 0.3323 0.0
C319 C 0.93175 0.08308 0.27882 0.0
C320 C 0.9274 0.06738 0.22083 0.0
C321 C 0.91708 0.08511 0.16841 0.0
C322 C 0.9127 0.0687 0.1111 0.0
C323 C 0.91886 0.03596 0.10554 0.0
C324 C 0.92944 0.01877 0.15653 0.0
C325 C 0.93371 0.03414 0.21357 0.0
H326 H 0.37225 0.4294 0.60226 0.0
C327 C 0.36655 0.40413 0.60826 0.0
H328 H 0.37131 0.36494 0.66891 0.0
H329 H 0.47956 0.47757 0.75786 0.0
H330 H 0.50565 0.46425 0.66279 0.0
H331 H 0.48171 0.42422 0.58989 0.0
H332 H 0.43111 0.39796 0.61106 0.0
C333 C 0.37584 0.39023 0.66126 0.0
C334 C 0.39331 0.40935 0.7103 0.0
C335 C 0.42398 0.42291 0.69901 0.0
C336 C 0.43879 0.44443 0.74279 0.0
C337 C 0.46805 0.45972 0.72789 0.0
C338 C 0.48318 0.4525 0.67314 0.0
C339 C 0.46963 0.4301 0.63198 0.0
C340 C 0.44041 0.41539 0.6445 0.0
H341 H 0.47997 0.44154 0.86079 0.0
C342 C 0.46826 0.46372 0.87444 0.0
H343 H 0.42744 0.49337 0.86175 0.0
H344 H 0.33546 0.38607 0.74742 0.0
H345 H 0.31085 0.39678 0.84537 0.0
H346 H 0.33792 0.43174 0.92389 0.0
H347 H 0.3896 0.45645 0.9048 0.0
C348 C 0.44 0.47185 0.84717 0.0
C349 C 0.424 0.45056 0.79973 0.0
C350 C 0.39396 0.436 0.81199 0.0
C351 C 0.37855 0.41546 0.76711 0.0
C352 C 0.34832 0.40167 0.7801 0.0
C353 C 0.33393 0.4076 0.83614 0.0
C354 C 0.34916 0.4273 0.88033 0.0
C355 C 0.37881 0.44139 0.8687 0.0
H356 H 0.68315 0.64313 0.37656 0.0
C357 C 0.66681 0.6445 0.41462 0.0
H358 H 0.61934 0.63565 0.44298 0.0
H359 H 0.60504 0.61928 0.13771 0.0
H360 H 0.6188 0.67583 0.13361 0.0
H361 H 0.63447 0.70625 0.22819 0.0
H362 H 0.63708 0.68016 0.32719 0.0
C363 C 0.63628 0.63395 0.40602 0.0
C364 C 0.62539 0.61652 0.34881 0.0
C365 C 0.62287 0.63252 0.29168 0.0
C366 C 0.61235 0.61535 0.23757 0.0
C367 C 0.61162 0.63145 0.1806 0.0
C368 C 0.61966 0.66387 0.17752 0.0
C369 C 0.6286 0.68097 0.23074 0.0
C370 C 0.63019 0.66562 0.28727 0.0
H371 H 0.54785 0.59325 0.17832 0.0
C372 C 0.56092 0.57277 0.16033 0.0
H373 H 0.6026 0.54404 0.16967 0.0
H374 H 0.62833 0.57844 0.4507 0.0
H375 H 0.61284 0.52242 0.45527 0.0
H376 H 0.59244 0.49328 0.36227 0.0
H377 H 0.58758 0.51998 0.26409 0.0
C378 C 0.58971 0.56502 0.18594 0.0
C379 C 0.603 0.58264 0.24124 0.0
C380 C 0.60559 0.56667 0.29833 0.0
C381 C 0.61687 0.5836 0.35212 0.0
C382 C 0.61948 0.56694 0.40848 0.0
C383 C 0.61075 0.53471 0.41178 0.0
C384 C 0.5993 0.5183 0.35943 0.0
C385 C 0.59668 0.53395 0.30329 0.0
H386 H 0.85832 0.14925 0.83652 0.0
C387 C 0.87478 0.14827 0.8764 0.0
H388 H 0.92063 0.13335 0.9099 0.0
H389 H 0.94125 0.01696 0.73203 0.0
H390 H 0.93345 0.99025 0.82875 0.0
H391 H 0.91528 0.02046 0.91965 0.0
H392 H 0.90504 0.07759 0.91447 0.0
C393 C 0.90362 0.134 0.87091 0.0
C394 C 0.91229 0.11591 0.81428 0.0
C395 C 0.91752 0.08233 0.81772 0.0
C396 C 0.92745 0.0648 0.76503 0.0
C397 C 0.93329 0.03143 0.77032 0.0
C398 C 0.92894 0.01576 0.82564 0.0
C399 C 0.91875 0.03277 0.87682 0.0
C400 C 0.91305 0.06563 0.8732 0.0
H401 H 0.98804 0.08975 0.65601 0.0
C402 C 0.97447 0.06978 0.63517 0.0
H403 H 0.93155 0.0424 0.63647 0.0
H404 H 0.90703 0.1805 0.79266 0.0
H405 H 0.91193 0.20662 0.69453 0.0
H406 H 0.92435 0.17533 0.60108 0.0
H407 H 0.93269 0.11779 0.60566 0.0
C408 C 0.94507 0.06281 0.65555 0.0
C409 C 0.93187 0.08082 0.70881 0.0
C410 C 0.92528 0.11414 0.70463 0.0
C411 C 0.91636 0.1319 0.75782 0.0
C412 C 0.91234 0.16555 0.75325 0.0
C413 C 0.91532 0.18092 0.69722 0.0
C414 C 0.92245 0.16333 0.64467 0.0
C415 C 0.9274 0.13034 0.64804 0.0
H416 H 0.34068 0.38929 0.34232 0.0
C417 C 0.3581 0.39175 0.38057 0.0
H418 H 0.40502 0.40699 0.40873 0.0
H419 H 0.42768 0.41368 0.11213 0.0
H420 H 0.42187 0.35565 0.11079 0.0
H421 H 0.40425 0.32716 0.20269 0.0
H422 H 0.39182 0.35657 0.29614 0.0
C423 C 0.38708 0.40513 0.37134 0.0
C424 C 0.39473 0.42175 0.31363 0.0
C425 C 0.40237 0.40409 0.25989 0.0
C426 C 0.41363 0.42042 0.20764 0.0
C427 C 0.42014 0.40237 0.15381 0.0
C428 C 0.41669 0.36908 0.1523 0.0
C429 C 0.40669 0.35305 0.204 0.0
C430 C 0.39959 0.37022 0.25732 0.0
H431 H 0.4782 0.44735 0.17138 0.0
C432 C 0.46489 0.46588 0.14678 0.0
H433 H 0.4204 0.48992 0.13541 0.0
H434 H 0.37884 0.46291 0.40713 0.0
H435 H 0.38448 0.52088 0.40842 0.0
H436 H 0.40567 0.54908 0.31916 0.0
H437 H 0.42122 0.51952 0.22807 0.0
C438 C 0.43381 0.47117 0.15915 0.0
C439 C 0.41815 0.45422 0.21012 0.0
C440 C 0.40898 0.47198 0.26279 0.0
C441 C 0.39721 0.45571 0.31454 0.0
C442 C 0.38836 0.474 0.3668 0.0
C443 C 0.39137 0.50732 0.36811 0.0
C444 C 0.40326 0.52319 0.31783 0.0
C445 C 0.41206 0.50588 0.26574 0.0
H446 H 0.17826 0.88269 0.85974 0.0
C447 C 0.15779 0.87757 0.8881 0.0
H448 H 0.10718 0.88173 0.89539 0.0
H449 H 0.0917 0.00947 0.75025 0.0
H450 H 0.09054 0.03009 0.85511 0.0
H451 H 0.10472 0.99541 0.94292 0.0
H452 H 0.12006 0.9399 0.9264 0.0
C453 C 0.12823 0.88702 0.86891 0.0
C454 C 0.12329 0.90834 0.81531 0.0
C455 C 0.1149 0.94089 0.82575 0.0
C456 C 0.10702 0.96095 0.77517 0.0
C457 C 0.09811 0.99321 0.78698 0.0
C458 C 0.09734 1.00536 0.84697 0.0
C459 C 0.1053 0.98584 0.8964 0.0
C460 C 0.11399 0.95398 0.88623 0.0
H461 H 0.05343 0.93962 0.64834 0.0
C462 C 0.06649 0.96087 0.63445 0.0
H463 H 0.10797 0.9898 0.6508 0.0
H464 H 0.13889 0.84719 0.77932 0.0
H465 H 0.14222 0.82723 0.67427 0.0
H466 H 0.13068 0.86271 0.58639 0.0
H467 H 0.1154 0.91831 0.6031 0.0
C468 C 0.09496 0.96814 0.6624 0.0
C469 C 0.10742 0.94835 0.71432 0.0
C470 C 0.11746 0.91628 0.70372 0.0
C471 C 0.12503 0.89609 0.75435 0.0
C472 C 0.13358 0.86376 0.74255 0.0
C473 C 0.1355 0.85197 0.68247 0.0
C474 C 0.12893 0.87193 0.63298 0.0
C475 C 0.12001 0.90373 0.6432 0.0
loop_
_geom_bond_atom_site_label_1
_geom_bond_atom_site_label_2
_geom_bond_distance
_geom_bond_site_symmetry_2
_ccdc_geom_bond_type
H0 C5 0.930 . S
H1 C8 0.930 . S
H2 C10 0.930 . S
H3 C4 1.016 . S
C4 H3 1.016 . S
C4 N11 1.286 1_554 S
C5 H0 0.930 . S
C5 C6 1.397 . S
C5 C7 1.367 . S
C6 C5 1.397 . S
C6 C10 1.390 1_556 S
C7 C5 1.367 . S
C7 C8 1.387 1_556 S
C7 N11 1.414 . S
C8 H1 0.930 . S
C8 C7 1.387 1_554 S
C8 C9 1.399 . S
C9 C8 1.399 . S
C9 C10 1.381 . S
C10 H2 0.930 . S
C10 C6 1.390 1_554 S
C10 C9 1.381 . S
N11 C4 1.286 1_556 S
N11 C7 1.414 . S
H12 C17 0.930 . S
H13 C20 0.930 . S
H14 C22 0.930 . S
H15 C16 1.016 . S
C16 H15 1.016 . S
C16 N23 1.286 . S
C17 H12 0.930 . S
C17 C18 1.397 . S
C17 C19 1.361 . S
C18 C17 1.397 . S
C18 C22 1.390 . S
C19 C17 1.361 . S
C19 C20 1.393 . S
C19 N23 1.413 . S
C20 H13 0.930 . S
C20 C19 1.393 . S
C20 C21 1.399 . S
C21 C20 1.399 . S
C21 C22 1.381 . S
C22 H14 0.930 . S
C22 C18 1.390 . S
C22 C21 1.381 . S
N23 C16 1.286 . S
N23 C19 1.413 . S
H24 C29 0.930 . S
H25 C32 0.930 . S
H26 C34 0.930 1_554 S
H27 C28 1.016 . S
C28 H27 1.016 . S
C28 N35 1.286 1_554 S
C29 H24 0.930 . S
C29 C30 1.397 . S
C29 C31 1.361 . S
C30 C29 1.397 . S
C30 C34 1.390 . S
C31 C29 1.361 . S
C31 C32 1.393 1_556 S
C31 N35 1.413 . S
C32 H25 0.930 . S
C32 C31 1.393 1_554 S
C32 C33 1.399 . S
C33 C32 1.399 . S
C33 C34 1.381 1_554 S
C34 H26 0.930 1_556 S
C34 C30 1.390 . S
C34 C33 1.381 1_556 S
N35 C28 1.286 1_556 S
N35 C31 1.413 . S
H36 C41 0.930 . S
H37 C44 0.930 . S
H38 C46 0.930 . S
H39 C40 1.016 . S
C40 H39 1.016 . S
C40 N47 1.286 . S
C41 H36 0.930 . S
C41 C42 1.397 . S
C41 C43 1.361 . S
C42 C41 1.397 . S
C42 C46 1.390 . S
C43 C41 1.361 . S
C43 C44 1.393 . S
C43 N47 1.413 . S
C44 H37 0.930 . S
C44 C43 1.393 . S
C44 C45 1.399 . S
C45 C44 1.399 . S
C45 C46 1.381 . S
C46 H38 0.930 . S
C46 C42 1.390 . S
C46 C45 1.381 . S
N47 C40 1.286 . S
N47 C43 1.413 . S
C48 O64 1.251 1_565 S
C48 O66 1.254 . S
N49 C50 1.333 . S
N49 C54 1.307 . S
N49 Zn55 2.020 . S
C50 N49 1.333 . S
C50 C51 1.379 . S
C50 H68 0.952 . S
C51 C50 1.379 . S
C51 C52 1.390 . S
C51 H78 0.949 . S
C52 C51 1.390 . S
C52 C53 1.357 . S
C53 C52 1.357 . S
C53 C54 1.370 . S
C53 H79 0.950 . S
C54 N49 1.307 . S
C54 C53 1.370 . S
C54 H72 0.948 . S
Zn55 N49 2.020 . S
Zn55 O64 2.039 . S
Zn55 O70 2.034 . S
Zn55 O74 2.025 . S
Zn55 O76 2.024 . S
C56 O75 1.246 . S
C56 O76 1.249 1_655 S
N57 C58 1.307 . S
N57 C59 1.333 . S
N57 Zn63 2.020 . S
C58 N57 1.307 . S
C58 C62 1.370 . S
C58 H69 0.948 . S
C59 N57 1.333 . S
C59 C60 1.379 . S
C59 H67 0.952 . S
C60 C59 1.379 . S
C60 C61 1.390 . S
C60 H80 0.949 . S
C61 C60 1.390 . S
C61 C62 1.357 . S
C62 C58 1.370 . S
C62 C61 1.357 . S
C62 H81 0.950 . S
Zn63 N57 2.020 . S
Zn63 O66 2.025 1_655 S
Zn63 O71 2.024 1_655 S
Zn63 O73 2.039 1_565 S
Zn63 O75 2.034 1_565 S
O64 C48 1.251 1_545 S
O64 Zn55 2.039 . S
C65 O70 1.246 1_565 S
C65 O71 1.249 . S
O66 C48 1.254 . S
O66 Zn63 2.025 1_455 S
H67 C59 0.952 . S
H68 C50 0.952 . S
H69 C58 0.948 . S
O70 Zn55 2.034 . S
O70 C65 1.246 1_545 S
O71 Zn63 2.024 1_455 S
O71 C65 1.249 . S
H72 C54 0.948 . S
O73 Zn63 2.039 1_545 S
O73 C77 1.251 . S
O74 Zn55 2.025 . S
O74 C77 1.254 1_455 S
O75 C56 1.246 . S
O75 Zn63 2.034 1_545 S
O76 Zn55 2.024 . S
O76 C56 1.249 1_455 S
C77 O73 1.251 . S
C77 O74 1.254 1_655 S
H78 C51 0.949 . S
H79 C53 0.950 . S
H80 C60 0.949 . S
H81 C62 0.950 . S
C82 O98 1.251 . S
C82 O100 1.254 . S
N83 C84 1.329 1_554 S
N83 C88 1.307 . S
N83 Zn89 2.020 . S
C84 N83 1.329 1_556 S
C84 C85 1.380 . S
C84 H102 0.955 . S
C85 C84 1.380 . S
C85 C86 1.390 1_556 S
C85 H112 0.949 . S
C86 C85 1.390 1_554 S
C86 C87 1.357 . S
C87 C86 1.357 . S
C87 C88 1.370 . S
C87 H113 0.950 . S
C88 N83 1.307 . S
C88 C87 1.370 . S
C88 H106 0.948 . S
Zn89 N83 2.020 . S
Zn89 O98 2.039 1_554 S
Zn89 O104 2.034 . S
Zn89 O108 2.025 . S
Zn89 O110 2.024 1_554 S
C90 O109 1.246 . S
C90 O110 1.249 . S
N91 C92 1.307 . S
N91 C93 1.333 . S
N91 Zn97 2.020 . S
C92 N91 1.307 . S
C92 C96 1.370 . S
C92 H103 0.948 1_554 S
C93 N91 1.333 . S
C93 C94 1.379 . S
C93 H101 0.952 . S
C94 C93 1.379 . S
C94 C95 1.390 . S
C94 H114 0.949 . S
C95 C94 1.390 . S
C95 C96 1.357 . S
C96 C92 1.370 . S
C96 C95 1.357 . S
C96 H115 0.950 1_554 S
Zn97 N91 2.020 . S
Zn97 O100 2.025 1_554 S
Zn97 O105 2.024 . S
Zn97 O107 2.039 . S
Zn97 O109 2.034 1_554 S
O98 C82 1.251 . S
O98 Zn89 2.039 1_556 S
C99 O104 1.246 . S
C99 O105 1.249 . S
O100 C82 1.254 . S
O100 Zn97 2.025 1_556 S
H101 C93 0.952 . S
H102 C84 0.955 . S
H103 C92 0.948 1_556 S
O104 Zn89 2.034 . S
O104 C99 1.246 . S
O105 Zn97 2.024 . S
O105 C99 1.249 . S
H106 C88 0.948 . S
O107 Zn97 2.039 . S
O107 C111 1.251 . S
O108 Zn89 2.025 . S
O108 C111 1.254 . S
O109 C90 1.246 . S
O109 Zn97 2.034 1_556 S
O110 Zn89 2.024 1_556 S
O110 C90 1.249 . S
C111 O107 1.251 . S
C111 O108 1.254 . S
H112 C85 0.949 . S
H113 C87 0.950 . S
H114 C94 0.949 . S
H115 C96 0.950 1_556 S
H116 C117 0.951 . S
C117 H116 0.951 . S
C117 C123 1.265 . S
H118 C123 0.950 . S
H119 C127 0.949 . S
H120 C128 0.950 . S
H121 C129 0.951 . S
H122 C130 0.951 . S
C123 C117 1.265 . S
C123 H118 0.950 . S
C123 C124 1.478 . S
C124 C123 1.478 . S
C124 C125 1.397 . S
C124 C141 1.394 . S
C125 C124 1.397 . S
C125 C126 1.438 . S
C125 C130 1.429 . S
C126 C125 1.438 . S
C126 C127 1.428 . S
C126 C139 1.394 . S
C127 H119 0.949 . S
C127 C126 1.428 . S
C127 C128 1.345 . S
C128 H120 0.950 . S
C128 C127 1.345 . S
C128 C129 1.424 . S
C129 H121 0.951 . S
C129 C128 1.424 . S
C129 C130 1.347 . S
C130 H122 0.951 . S
C130 C125 1.429 . S
C130 C129 1.347 . S
H131 C132 0.951 . S
C132 H131 0.951 . S
C132 C138 1.265 . S
H133 C138 0.950 . S
H134 C142 0.949 . S
H135 C143 0.950 . S
H136 C144 0.951 . S
H137 C145 0.951 . S
C138 C132 1.265 . S
C138 H133 0.950 . S
C138 C139 1.478 . S
C139 C126 1.394 . S
C139 C138 1.478 . S
C139 C140 1.397 . S
C140 C139 1.397 . S
C140 C141 1.438 . S
C140 C145 1.429 . S
C141 C124 1.394 . S
C141 C140 1.438 . S
C141 C142 1.428 . S
C142 H134 0.949 . S
C142 C141 1.428 . S
C142 C143 1.345 . S
C143 H135 0.950 . S
C143 C142 1.345 . S
C143 C144 1.424 . S
C144 H136 0.951 . S
C144 C143 1.424 . S
C144 C145 1.347 . S
C145 H137 0.951 . S
C145 C140 1.429 . S
C145 C144 1.347 . S
H146 C147 0.951 . S
C147 H146 0.951 . S
C147 C153 1.265 . S
H148 C153 0.950 . S
H149 C157 0.949 . S
H150 C158 0.950 . S
H151 C159 0.951 . S
H152 C160 0.951 . S
C153 C147 1.265 . S
C153 H148 0.950 . S
C153 C154 1.478 . S
C154 C153 1.478 . S
C154 C155 1.397 1_554 S
C154 C171 1.394 . S
C155 C154 1.397 1_556 S
C155 C156 1.438 . S
C155 C160 1.429 . S
C156 C155 1.438 . S
C156 C157 1.428 . S
C156 C169 1.394 1_556 S
C157 H149 0.949 . S
C157 C156 1.428 . S
C157 C158 1.345 . S
C158 H150 0.950 . S
C158 C157 1.345 . S
C158 C159 1.424 . S
C159 H151 0.951 . S
C159 C158 1.424 . S
C159 C160 1.347 . S
C160 H152 0.951 . S
C160 C155 1.429 . S
C160 C159 1.347 . S
H161 C162 0.951 . S
C162 H161 0.951 . S
C162 C168 1.265 . S
H163 C168 0.950 . S
H164 C172 0.949 . S
H165 C173 0.950 . S
H166 C174 0.951 . S
H167 C175 0.951 . S
C168 C162 1.265 . S
C168 H163 0.950 . S
C168 C169 1.478 . S
C169 C156 1.394 1_554 S
C169 C168 1.478 . S
C169 C170 1.397 . S
C170 C169 1.397 . S
C170 C171 1.438 . S
C170 C175 1.429 . S
C171 C154 1.394 . S
C171 C170 1.438 . S
C171 C172 1.428 . S
C172 H164 0.949 . S
C172 C171 1.428 . S
C172 C173 1.345 . S
C173 H165 0.950 . S
C173 C172 1.345 . S
C173 C174 1.424 . S
C174 H166 0.951 . S
C174 C173 1.424 . S
C174 C175 1.347 . S
C175 H167 0.951 . S
C175 C170 1.429 . S
C175 C174 1.347 . S
H176 C177 0.951 . S
C177 H176 0.951 . S
C177 C183 1.265 . S
H178 C183 0.950 . S
H179 C187 0.949 . S
H180 C188 0.950 . S
H181 C189 0.951 . S
H182 C190 0.951 . S
C183 C177 1.265 . S
C183 H178 0.950 . S
C183 C184 1.478 . S
C184 C183 1.478 . S
C184 C185 1.397 . S
C184 C201 1.394 . S
C185 C184 1.397 . S
C185 C186 1.438 . S
C185 C190 1.429 . S
C186 C185 1.438 . S
C186 C187 1.428 . S
C186 C199 1.394 . S
C187 H179 0.949 . S
C187 C186 1.428 . S
C187 C188 1.345 . S
C188 H180 0.950 . S
C188 C187 1.345 . S
C188 C189 1.424 . S
C189 H181 0.951 . S
C189 C188 1.424 . S
C189 C190 1.347 . S
C190 H182 0.951 . S
C190 C185 1.429 . S
C190 C189 1.347 . S
H191 C192 0.951 . S
C192 H191 0.951 . S
C192 C198 1.265 . S
H193 C198 0.950 . S
H194 C202 0.949 . S
H195 C203 0.950 . S
H196 C204 0.951 . S
H197 C205 0.951 . S
C198 C192 1.265 . S
C198 H193 0.950 . S
C198 C199 1.478 . S
C199 C186 1.394 . S
C199 C198 1.478 . S
C199 C200 1.397 . S
C200 C199 1.397 . S
C200 C201 1.438 . S
C200 C205 1.429 . S
C201 C184 1.394 . S
C201 C200 1.438 . S
C201 C202 1.428 . S
C202 H194 0.949 . S
C202 C201 1.428 . S
C202 C203 1.345 . S
C203 H195 0.950 . S
C203 C202 1.345 . S
C203 C204 1.424 . S
C204 H196 0.951 . S
C204 C203 1.424 . S
C204 C205 1.347 . S
C205 H197 0.951 . S
C205 C200 1.429 . S
C205 C204 1.347 . S
H206 C207 0.951 . S
C207 H206 0.951 . S
C207 C213 1.265 . S
H208 C213 0.950 . S
H209 C217 0.949 . S
H210 C218 0.950 . S
H211 C219 0.951 . S
H212 C220 0.951 . S
C213 C207 1.265 . S
C213 H208 0.950 . S
C213 C214 1.478 . S
C214 C213 1.478 . S
C214 C215 1.397 . S
C214 C231 1.394 1_554 S
C215 C214 1.397 . S
C215 C216 1.438 . S
C215 C220 1.429 . S
C216 C215 1.438 . S
C216 C217 1.428 . S
C216 C229 1.394 . S
C217 H209 0.949 . S
C217 C216 1.428 . S
C217 C218 1.345 . S
C218 H210 0.950 . S
C218 C217 1.345 . S
C218 C219 1.424 . S
C219 H211 0.951 . S
C219 C218 1.424 . S
C219 C220 1.347 . S
C220 H212 0.951 . S
C220 C215 1.429 . S
C220 C219 1.347 . S
H221 C222 0.951 . S
C222 H221 0.951 . S
C222 C228 1.265 . S
H223 C228 0.950 . S
H224 C232 0.949 . S
H225 C233 0.950 . S
H226 C234 0.951 . S
H227 C235 0.951 . S
C228 C222 1.265 . S
C228 H223 0.950 . S
C228 C229 1.478 . S
C229 C216 1.394 . S
C229 C228 1.478 . S
C229 C230 1.397 1_554 S
C230 C229 1.397 1_556 S
C230 C231 1.438 . S
C230 C235 1.429 . S
C231 C214 1.394 1_556 S
C231 C230 1.438 . S
C231 C232 1.428 . S
C232 H224 0.949 . S
C232 C231 1.428 . S
C232 C233 1.345 . S
C233 H225 0.950 . S
C233 C232 1.345 . S
C233 C234 1.424 . S
C234 H226 0.951 . S
C234 C233 1.424 . S
C234 C235 1.347 . S
C235 H227 0.951 . S
C235 C230 1.429 . S
C235 C234 1.347 . S
H236 C237 0.951 . S
C237 H236 0.951 . S
C237 C243 1.265 . S
H238 C243 0.950 . S
H239 C247 0.949 . S
H240 C248 0.950 . S
H241 C249 0.951 1_545 S
H242 C250 0.951 . S
C243 C237 1.265 . S
C243 H238 0.950 . S
C243 C244 1.478 . S
C244 C243 1.478 . S
C244 C245 1.397 . S
C244 C261 1.394 . S
C245 C244 1.397 . S
C245 C246 1.438 . S
C245 C250 1.429 . S
C246 C245 1.438 . S
C246 C247 1.428 . S
C246 C259 1.394 . S
C247 H239 0.949 . S
C247 C246 1.428 . S
C247 C248 1.345 1_565 S
C248 H240 0.950 . S
C248 C247 1.345 1_545 S
C248 C249 1.424 1_545 S
C249 H241 0.951 1_565 S
C249 C248 1.424 1_565 S
C249 C250 1.347 . S
C250 H242 0.951 . S
C250 C245 1.429 . S
C250 C249 1.347 . S
H251 C252 0.951 . S
C252 H251 0.951 . S
C252 C258 1.265 . S
H253 C258 0.950 . S
H254 C262 0.949 . S
H255 C263 0.950 . S
H256 C264 0.951 . S
H257 C265 0.951 . S
C258 C252 1.265 . S
C258 H253 0.950 . S
C258 C259 1.478 . S
C259 C246 1.394 . S
C259 C258 1.478 . S
C259 C260 1.397 . S
C260 C259 1.397 . S
C260 C261 1.438 . S
C260 C265 1.429 . S
C261 C244 1.394 . S
C261 C260 1.438 . S
C261 C262 1.428 . S
C262 H254 0.949 . S
C262 C261 1.428 . S
C262 C263 1.345 . S
C263 H255 0.950 . S
C263 C262 1.345 . S
C263 C264 1.424 . S
C264 H256 0.951 . S
C264 C263 1.424 . S
C264 C265 1.347 . S
C265 H257 0.951 . S
C265 C260 1.429 . S
C265 C264 1.347 . S
H266 C267 0.951 . S
C267 H266 0.951 . S
C267 C273 1.265 . S
H268 C273 0.950 . S
H269 C277 0.949 . S
H270 C278 0.950 . S
H271 C279 0.951 . S
H272 C280 0.951 . S
C273 C267 1.265 . S
C273 H268 0.950 . S
C273 C274 1.478 . S
C274 C273 1.478 . S
C274 C275 1.397 . S
C274 C291 1.394 . S
C275 C274 1.397 . S
C275 C276 1.438 . S
C275 C280 1.429 . S
C276 C275 1.438 . S
C276 C277 1.428 . S
C276 C289 1.394 . S
C277 H269 0.949 . S
C277 C276 1.428 . S
C277 C278 1.345 . S
C278 H270 0.950 . S
C278 C277 1.345 . S
C278 C279 1.424 . S
C279 H271 0.951 . S
C279 C278 1.424 . S
C279 C280 1.347 . S
C280 H272 0.951 . S
C280 C275 1.429 . S
C280 C279 1.347 . S
H281 C282 0.951 . S
C282 H281 0.951 . S
C282 C288 1.265 . S
H283 C288 0.950 . S
H284 C292 0.949 . S
H285 C293 0.950 . S
H286 C294 0.951 . S
H287 C295 0.951 . S
C288 C282 1.265 . S
C288 H283 0.950 . S
C288 C289 1.478 . S
C289 C276 1.394 . S
C289 C288 1.478 . S
C289 C290 1.397 . S
C290 C289 1.397 . S
C290 C291 1.438 . S
C290 C295 1.429 . S
C291 C274 1.394 . S
C291 C290 1.438 . S
C291 C292 1.428 . S
C292 H284 0.949 . S
C292 C291 1.428 . S
C292 C293 1.345 . S
C293 H285 0.950 . S
C293 C292 1.345 . S
C293 C294 1.424 . S
C294 H286 0.951 . S
C294 C293 1.424 . S
C294 C295 1.347 . S
C295 H287 0.951 . S
C295 C290 1.429 . S
C295 C294 1.347 . S
H296 C297 0.951 . S
C297 H296 0.951 . S
C297 C303 1.265 . S
H298 C303 0.950 . S
H299 C307 0.949 . S
H300 C308 0.950 . S
H301 C309 0.951 . S
H302 C310 0.951 . S
C303 C297 1.265 . S
C303 H298 0.950 . S
C303 C304 1.478 . S
C304 C303 1.478 . S
C304 C305 1.397 . S
C304 C321 1.394 . S
C305 C304 1.397 . S
C305 C306 1.438 . S
C305 C310 1.429 . S
C306 C305 1.438 . S
C306 C307 1.428 . S
C306 C319 1.394 . S
C307 H299 0.949 . S
C307 C306 1.428 . S
C307 C308 1.345 . S
C308 H300 0.950 . S
C308 C307 1.345 . S
C308 C309 1.424 . S
C309 H301 0.951 . S
C309 C308 1.424 . S
C309 C310 1.347 . S
C310 H302 0.951 . S
C310 C305 1.429 . S
C310 C309 1.347 . S
H311 C312 0.951 . S
C312 H311 0.951 . S
C312 C318 1.265 . S
H313 C318 0.950 . S
H314 C322 0.949 . S
H315 C323 0.950 . S
H316 C324 0.951 . S
H317 C325 0.951 . S
C318 C312 1.265 . S
C318 H313 0.950 . S
C318 C319 1.478 . S
C319 C306 1.394 . S
C319 C318 1.478 . S
C319 C320 1.397 . S
C320 C319 1.397 . S
C320 C321 1.438 . S
C320 C325 1.429 . S
C321 C304 1.394 . S
C321 C320 1.438 . S
C321 C322 1.428 . S
C322 H314 0.949 . S
C322 C321 1.428 . S
C322 C323 1.345 . S
C323 H315 0.950 . S
C323 C322 1.345 . S
C323 C324 1.424 . S
C324 H316 0.951 . S
C324 C323 1.424 . S
C324 C325 1.347 . S
C325 H317 0.951 . S
C325 C320 1.429 . S
C325 C324 1.347 . S
H326 C327 0.951 . S
C327 H326 0.951 . S
C327 C333 1.265 . S
H328 C333 0.950 . S
H329 C337 0.949 . S
H330 C338 0.950 . S
H331 C339 0.951 . S
H332 C340 0.951 . S
C333 C327 1.265 . S
C333 H328 0.950 . S
C333 C334 1.478 . S
C334 C333 1.478 . S
C334 C335 1.397 . S
C334 C351 1.394 . S
C335 C334 1.397 . S
C335 C336 1.438 . S
C335 C340 1.429 . S
C336 C335 1.438 . S
C336 C337 1.428 . S
C336 C349 1.394 . S
C337 H329 0.949 . S
C337 C336 1.428 . S
C337 C338 1.345 . S
C338 H330 0.950 . S
C338 C337 1.345 . S
C338 C339 1.424 . S
C339 H331 0.951 . S
C339 C338 1.424 . S
C339 C340 1.347 . S
C340 H332 0.951 . S
C340 C335 1.429 . S
C340 C339 1.347 . S
H341 C342 0.951 . S
C342 H341 0.951 . S
C342 C348 1.265 . S
H343 C348 0.950 . S
H344 C352 0.949 . S
H345 C353 0.950 . S
H346 C354 0.951 . S
H347 C355 0.951 . S
C348 C342 1.265 . S
C348 H343 0.950 . S
C348 C349 1.478 . S
C349 C336 1.394 . S
C349 C348 1.478 . S
C349 C350 1.397 . S
C350 C349 1.397 . S
C350 C351 1.438 . S
C350 C355 1.429 . S
C351 C334 1.394 . S
C351 C350 1.438 . S
C351 C352 1.428 . S
C352 H344 0.949 . S
C352 C351 1.428 . S
C352 C353 1.345 . S
C353 H345 0.950 . S
C353 C352 1.345 . S
C353 C354 1.424 . S
C354 H346 0.951 . S
C354 C353 1.424 . S
C354 C355 1.347 . S
C355 H347 0.951 . S
C355 C350 1.429 . S
C355 C354 1.347 . S
H356 C357 0.951 . S
C357 H356 0.951 . S
C357 C363 1.265 . S
H358 C363 0.950 . S
H359 C367 0.949 . S
H360 C368 0.950 . S
H361 C369 0.951 . S
H362 C370 0.951 . S
C363 C357 1.265 . S
C363 H358 0.950 . S
C363 C364 1.478 . S
C364 C363 1.478 . S
C364 C365 1.397 . S
C364 C381 1.394 . S
C365 C364 1.397 . S
C365 C366 1.438 . S
C365 C370 1.429 . S
C366 C365 1.438 . S
C366 C367 1.428 . S
C366 C379 1.394 . S
C367 H359 0.949 . S
C367 C366 1.428 . S
C367 C368 1.345 . S
C368 H360 0.950 . S
C368 C367 1.345 . S
C368 C369 1.424 . S
C369 H361 0.951 . S
C369 C368 1.424 . S
C369 C370 1.347 . S
C370 H362 0.951 . S
C370 C365 1.429 . S
C370 C369 1.347 . S
H371 C372 0.951 . S
C372 H371 0.951 . S
C372 C378 1.265 . S
H373 C378 0.950 . S
H374 C382 0.949 . S
H375 C383 0.950 . S
H376 C384 0.951 . S
H377 C385 0.951 . S
C378 C372 1.265 . S
C378 H373 0.950 . S
C378 C379 1.478 . S
C379 C366 1.394 . S
C379 C378 1.478 . S
C379 C380 1.397 . S
C380 C379 1.397 . S
C380 C381 1.438 . S
C380 C385 1.429 . S
C381 C364 1.394 . S
C381 C380 1.438 . S
C381 C382 1.428 . S
C382 H374 0.949 . S
C382 C381 1.428 . S
C382 C383 1.345 . S
C383 H375 0.950 . S
C383 C382 1.345 . S
C383 C384 1.424 . S
C384 H376 0.951 . S
C384 C383 1.424 . S
C384 C385 1.347 . S
C385 H377 0.951 . S
C385 C380 1.429 . S
C385 C384 1.347 . S
H386 C387 0.951 . S
C387 H386 0.951 . S
C387 C393 1.265 . S
H388 C393 0.950 . S
H389 C397 0.949 . S
H390 C398 0.950 . S
H391 C399 0.951 . S
H392 C400 0.951 . S
C393 C387 1.265 . S
C393 H388 0.950 . S
C393 C394 1.478 . S
C394 C393 1.478 . S
C394 C395 1.397 . S
C394 C411 1.394 . S
C395 C394 1.397 . S
C395 C396 1.438 . S
C395 C400 1.429 . S
C396 C395 1.438 . S
C396 C397 1.428 . S
C396 C409 1.394 . S
C397 H389 0.949 . S
C397 C396 1.428 . S
C397 C398 1.345 . S
C398 H390 0.950 . S
C398 C397 1.345 . S
C398 C399 1.424 . S
C399 H391 0.951 . S
C399 C398 1.424 . S
C399 C400 1.347 . S
C400 H392 0.951 . S
C400 C395 1.429 . S
C400 C399 1.347 . S
H401 C402 0.951 . S
C402 H401 0.951 . S
C402 C408 1.265 . S
H403 C408 0.950 . S
H404 C412 0.949 . S
H405 C413 0.950 . S
H406 C414 0.951 . S
H407 C415 0.951 . S
C408 C402 1.265 . S
C408 H403 0.950 . S
C408 C409 1.478 . S
C409 C396 1.394 . S
C409 C408 1.478 . S
C409 C410 1.397 . S
C410 C409 1.397 . S
C410 C411 1.438 . S
C410 C415 1.429 . S
C411 C394 1.394 . S
C411 C410 1.438 . S
C411 C412 1.428 . S
C412 H404 0.949 . S
C412 C411 1.428 . S
C412 C413 1.345 . S
C413 H405 0.950 . S
C413 C412 1.345 . S
C413 C414 1.424 . S
C414 H406 0.951 . S
C414 C413 1.424 . S
C414 C415 1.347 . S
C415 H407 0.951 . S
C415 C410 1.429 . S
C415 C414 1.347 . S
H416 C417 0.951 . S
C417 H416 0.951 . S
C417 C423 1.265 . S
H418 C423 0.950 . S
H419 C427 0.949 . S
H420 C428 0.950 . S
H421 C429 0.951 . S
H422 C430 0.951 . S
C423 C417 1.265 . S
C423 H418 0.950 . S
C423 C424 1.478 . S
C424 C423 1.478 . S
C424 C425 1.397 . S
C424 C441 1.394 . S
C425 C424 1.397 . S
C425 C426 1.438 . S
C425 C430 1.429 . S
C426 C425 1.438 . S
C426 C427 1.428 . S
C426 C439 1.394 . S
C427 H419 0.949 . S
C427 C426 1.428 . S
C427 C428 1.345 . S
C428 H420 0.950 . S
C428 C427 1.345 . S
C428 C429 1.424 . S
C429 H421 0.951 . S
C429 C428 1.424 . S
C429 C430 1.347 . S
C430 H422 0.951 . S
C430 C425 1.429 . S
C430 C429 1.347 . S
H431 C432 0.951 . S
C432 H431 0.951 . S
C432 C438 1.265 . S
H433 C438 0.950 . S
H434 C442 0.949 . S
H435 C443 0.950 . S
H436 C444 0.951 . S
H437 C445 0.951 . S
C438 C432 1.265 . S
C438 H433 0.950 . S
C438 C439 1.478 . S
C439 C426 1.394 . S
C439 C438 1.478 . S
C439 C440 1.397 . S
C440 C439 1.397 . S
C440 C441 1.438 . S
C440 C445 1.429 . S
C441 C424 1.394 . S
C441 C440 1.438 . S
C441 C442 1.428 . S
C442 H434 0.949 . S
C442 C441 1.428 . S
C442 C443 1.345 . S
C443 H435 0.950 . S
C443 C442 1.345 . S
C443 C444 1.424 . S
C444 H436 0.951 . S
C444 C443 1.424 . S
C444 C445 1.347 . S
C445 H437 0.951 . S
C445 C440 1.429 . S
C445 C444 1.347 . S
H446 C447 0.951 . S
C447 H446 0.951 . S
C447 C453 1.265 . S
H448 C453 0.950 . S
H449 C457 0.942 1_545 S
H450 C458 0.950 . S
H451 C459 0.951 1_545 S
H452 C460 0.951 . S
C453 C447 1.265 . S
C453 H448 0.950 . S
C453 C454 1.478 . S
C454 C453 1.478 . S
C454 C455 1.397 . S
C454 C471 1.394 . S
C455 C454 1.397 . S
C455 C456 1.438 . S
C455 C460 1.429 . S
C456 C455 1.438 . S
C456 C457 1.428 . S
C456 C469 1.394 . S
C457 H449 0.942 1_565 S
C457 C456 1.428 . S
C457 C458 1.345 1_565 S
C458 H450 0.950 . S
C458 C457 1.345 1_545 S
C458 C459 1.424 1_545 S
C459 H451 0.951 1_565 S
C459 C458 1.424 1_565 S
C459 C460 1.347 . S
C460 H452 0.951 . S
C460 C455 1.429 . S
C460 C459 1.347 . S
H461 C462 0.951 . S
C462 H461 0.951 . S
C462 C468 1.265 . S
H463 C468 0.950 . S
H464 C472 0.949 . S
H465 C473 0.950 . S
H466 C474 0.951 . S
H467 C475 0.951 . S
C468 C462 1.265 . S
C468 H463 0.950 . S
C468 C469 1.478 . S
C469 C456 1.394 . S
C469 C468 1.478 . S
C469 C470 1.397 . S
C470 C469 1.397 . S
C470 C471 1.438 . S
C470 C475 1.429 . S
C471 C454 1.394 . S
C471 C470 1.438 . S
C471 C472 1.428 . S
C472 H464 0.949 . S
C472 C471 1.428 . S
C472 C473 1.345 . S
C473 H465 0.950 . S
C473 C472 1.345 . S
C473 C474 1.424 . S
C474 H466 0.951 . S
C474 C473 1.424 . S
C474 C475 1.347 . S
C475 H467 0.951 . S
C475 C470 1.429 . S
C475 C474 1.347 . S
C132 C52 1.508 . S
C117 C40 1.482 . S
C147 C4 1.497 . S
C162 C95 1.496 . S
C177 C16 1.485 . S
C192 C61 1.505 . S
C207 C28 1.498 . S
C222 C86 1.504 . S
C252 C48 1.543 . S
C237 C9 1.505 . S
C282 C90 1.539 . S
C267 C18 1.540 . S
C297 C33 1.553 . S
C312 C56 1.550 . S
C327 C45 1.486 . S
C342 C82 1.528 . S
C372 C111 1.475 . S
C357 C21 1.475 . S
C402 C77 1.461 . S
C387 C30 1.467 . S
C432 C99 1.481 . S
C417 C42 1.471 . S
C447 C6 1.470 . S
C462 C65 1.462 . S
