# Generated by pormake.
# Topology pth, (4,4)-cn, num edge types: 1
# Building blocks:
#     Node 0, Type 0, BuildingBlock: QUQFOY_clean_sbu_1, # of connection points: 4
#     Node 1, Type 0, BuildingBlock: QUQFOY_clean_sbu_1, # of connection points: 4
#     Node 2, Type 0, BuildingBlock: QUQFOY_clean_sbu_1, # of connection points: 4
#     Node 3, Type 1, BuildingBlock: MUDLON_clean_linker_0, # of connection points: 4
#     Node 4, Type 1, BuildingBlock: MUDLON_clean_linker_0, # of connection points: 4
#     Node 5, Type 1, BuildingBlock: MUDLON_clean_linker_0, # of connection points: 4
#     Edge 6, Type (0, 1), BuildingBlock: ZUJKAS_clean_linker_0, # of connection points: 2
#     Edge 7, Type (0, 1), BuildingBlock: ZUJKAS_clean_linker_0, # of connection points: 2
#     Edge 8, Type (0, 1), BuildingBlock: ZUJKAS_clean_linker_0, # of connection points: 2
#     Edge 9, Type (0, 1), BuildingBlock: ZUJKAS_clean_linker_0, # of connection points: 2
#     Edge 10, Type (0, 1), BuildingBlock: ZUJKAS_clean_linker_0, # of connection points: 2
#     Edge 11, Type (0, 1), BuildingBlock: ZUJKAS_clean_linker_0, # of connection points: 2
#     Edge 12, Type (0, 1), BuildingBlock: ZUJKAS_clean_linker_0, # of connection points: 2
#     Edge 13, Type (0, 1), BuildingBlock: ZUJKAS_clean_linker_0, # of connection points: 2
#     Edge 14, Type (0, 1), BuildingBlock: ZUJKAS_clean_linker_0, # of connection points: 2
#     Edge 15, Type (0, 1), BuildingBlock: ZUJKAS_clean_linker_0, # of connection points: 2
#     Edge 16, Type (0, 1), BuildingBlock: ZUJKAS_clean_linker_0, # of connection points: 2
#     Edge 17, Type (0, 1), BuildingBlock: ZUJKAS_clean_linker_0, # of connection points: 2
# Relax obj value: 0.048
# Max RMSD: 0.151
# Mean RMSD: 0.117
data_MOF--net-pth--node1-QUQFOY_clean_sbu_1--node2-MUDLON_clean_linker_0--edge1-ZUJKAS_clean_linker_0
_symmetry_space_group_name_H-M    P1
_symmetry_Int_Tables_number       1
_symmetry_cell_setting            triclinic
loop_
_symmetry_equiv_pos_as_xyz
'x, y, z'
_cell_length_a     39.816538
_cell_length_b     42.657006
_cell_length_c     86.054817
_cell_angle_alpha  89.979719
_cell_angle_beta   90.00967
_cell_angle_gamma 119.99579
loop_
_atom_site_label
_atom_site_type_symbol
_atom_site_fract_x
_atom_site_fract_y
_atom_site_fract_z
_atom_type_partial_charge
O0 O 0.0318 0.06025 0.01775 0.0
Cd1 Cd 0.98739 0.02391 0.03192 0.0
Cd2 Cd 0.0294 0.99004 0.02982 0.0
O3 O 0.0711 0.03811 0.02008 0.0
O4 O 0.96147 0.0511 0.03888 0.0
O5 O 0.99317 0.03444 0.05489 0.0
C6 C 0.9742 0.05134 0.05268 0.0
C7 C 0.04368 0.96185 0.04989 0.0
C8 C 0.06441 0.06257 0.01517 0.0
C9 C 0.94981 0.95263 0.01569 0.0
O10 O 0.98299 0.95522 0.01621 0.0
O11 O 0.94404 0.976 0.02247 0.0
O12 O 0.05451 0.9615 0.0358 0.0
O13 O 0.02623 0.9799 0.05275 0.0
O14 O 0.97727 0.03197 0.37113 0.0
Cd15 Cd 0.02587 0.04558 0.35797 0.0
Cd16 Cd 0.99269 0.97124 0.35747 0.0
O17 O 0.94745 0.9726 0.36868 0.0
O18 O 0.04563 0.0974 0.35277 0.0
O19 O 0.0243 0.05423 0.33501 0.0
C20 C 0.03764 0.08792 0.33843 0.0
C21 C 0.98006 0.93016 0.3373 0.0
C22 C 0.9482 1.00091 0.37379 0.0
C23 C 0.07071 0.01497 0.37319 0.0
O24 O 0.04174 0.98402 0.37024 0.0
O25 O 0.0712 0.0436 0.3687 0.0
O26 O 0.97196 0.91967 0.35153 0.0
O27 O 0.99425 0.9642 0.33437 0.0
O28 O 0.94243 0.97569 0.68527 0.0
Cd29 Cd 0.97906 0.96602 0.69879 0.0
Cd30 Cd 0.02098 0.03908 0.69865 0.0
O31 O 0.97236 0.03495 0.68801 0.0
O32 O 0.94657 0.91467 0.70542 0.0
O33 O 0.97032 0.96055 0.72192 0.0
C34 C 0.94935 0.92614 0.71948 0.0
C35 C 0.05024 0.07826 0.71955 0.0
C36 C 0.94411 0.0058 0.68278 0.0
C37 C 0.05611 0.99916 0.68299 0.0
O38 O 0.05784 0.02937 0.68528 0.0
O39 O 0.02774 0.97012 0.68827 0.0
O40 O 0.05278 0.09026 0.70559 0.0
O41 O 0.02975 0.04372 0.72177 0.0
H42 H 0.90795 0.60079 0.20709 0.0
N43 N 0.9667 0.60648 0.19031 0.0
H44 H 0.91132 0.63986 0.22862 0.0
H45 H 0.03273 0.65538 0.20544 0.0
H46 H 0.03642 0.6945 0.22687 0.0
H47 H 0.03996 0.64739 0.17869 0.0
H48 H 0.05948 0.69343 0.15825 0.0
H49 H 0.92022 0.61598 0.1713 0.0
H50 H 0.93922 0.66131 0.15071 0.0
H51 H 0.91143 0.54112 0.18208 0.0
H52 H 0.02887 0.59943 0.19895 0.0
H53 H 0.91287 0.48459 0.18299 0.0
H54 H 0.03032 0.54273 0.2005 0.0
H55 H 0.91757 0.31961 0.21533 0.0
H56 H 0.9357 0.29245 0.2364 0.0
H57 H 0.05652 0.3705 0.22853 0.0
H58 H 0.03788 0.39776 0.20756 0.0
H59 H 0.0304 0.38321 0.18069 0.0
H60 H 0.03366 0.34618 0.15975 0.0
H61 H 0.90852 0.28315 0.15885 0.0
H62 H 0.90562 0.32059 0.1798 0.0
H63 H 0.90943 0.38558 0.20317 0.0
H64 H 0.91183 0.44385 0.20198 0.0
H65 H 0.03035 0.49428 0.18575 0.0
N66 N 0.96476 0.3711 0.19594 0.0
H67 H 0.02788 0.4358 0.18757 0.0
C68 C 0.96991 0.62513 0.20465 0.0
C69 C 0.93602 0.62057 0.21166 0.0
C70 C 0.93804 0.64293 0.22393 0.0
C71 C 0.97417 0.67051 0.22933 0.0
C72 C 0.00818 0.67381 0.22281 0.0
C73 C 0.00609 0.65123 0.21061 0.0
C74 C 0.97859 0.62855 0.17655 0.0
C75 C 0.01785 0.64998 0.17247 0.0
C76 C 0.02894 0.6763 0.16084 0.0
C77 C 1.00089 0.68114 0.15295 0.0
C78 C 0.9615 0.65806 0.15646 0.0
C79 C 0.95056 0.63217 0.16819 0.0
C80 C 0.96972 0.57427 0.19059 0.0
C81 C 0.9375 0.54158 0.18604 0.0
C82 C 0.93834 0.50929 0.18669 0.0
C83 C 0.97152 0.50888 0.19206 0.0
C84 C 0.00434 0.54199 0.19626 0.0
C85 C 0.00348 0.57446 0.19549 0.0
C86 C 0.97627 0.36043 0.20988 0.0
C87 C 0.94786 0.33138 0.21846 0.0
C88 C 0.95831 0.31595 0.23046 0.0
C89 C 0.99759 0.32918 0.23405 0.0
C90 C 0.02606 0.35947 0.2259 0.0
C91 C 0.01546 0.37515 0.21396 0.0
C92 C 0.96762 0.3546 0.1818 0.0
C93 C 0.00366 0.36204 0.17576 0.0
C94 C 0.0055 0.3406 0.16387 0.0
C95 C 0.97136 0.31148 0.15775 0.0
C96 C 0.93534 0.30552 0.16321 0.0
C97 C 0.93358 0.32685 0.17516 0.0
C98 C 0.96817 0.40627 0.19532 0.0
C99 C 0.93592 0.40929 0.19941 0.0
C100 C 0.93733 0.4426 0.19859 0.0
C101 C 0.97113 0.47382 0.19354 0.0
C102 C 0.0039 0.47089 0.18975 0.0
C103 C 0.00247 0.43739 0.19067 0.0
H104 H 0.71175 0.08845 0.53881 0.0
N105 N 0.64519 0.03939 0.52617 0.0
H106 H 0.74298 0.08223 0.56214 0.0
H107 H 0.61511 0.98086 0.54569 0.0
H108 H 0.6455 0.97463 0.56932 0.0
H109 H 0.6385 0.97353 0.51989 0.0
H110 H 0.66661 0.95878 0.49784 0.0
H111 H 0.68334 0.08177 0.50225 0.0
H112 H 0.7124 0.06757 0.48024 0.0
H113 H 0.61367 0.06877 0.544 0.0
H114 H 0.58353 0.98532 0.50949 0.0
H115 H 0.54577 0.05236 0.54589 0.0
H116 H 0.51677 0.97076 0.51051 0.0
H117 H 0.36691 0.03633 0.53809 0.0
H118 H 0.33582 0.04384 0.56113 0.0
H119 H 0.29749 0.9333 0.57446 0.0
H120 H 0.32935 0.9263 0.55147 0.0
H121 H 0.30093 0.92673 0.51456 0.0
H122 H 0.27077 0.93691 0.49184 0.0
H123 H 0.36678 0.04658 0.4886 0.0
H124 H 0.39562 0.03665 0.51158 0.0
H125 H 0.42903 0.0408 0.53444 0.0
H126 H 0.49648 0.05599 0.53344 0.0
H127 H 0.45994 0.94348 0.5247 0.0
N128 N 0.36536 0.97406 0.52898 0.0
H129 H 0.39244 0.92929 0.52452 0.0
C130 C 0.66124 0.03531 0.54055 0.0
C131 C 0.6971 0.06369 0.54552 0.0
C132 C 0.71472 0.06011 0.5589 0.0
C133 C 0.6967 0.02795 0.56765 0.0
C134 C 0.66037 0.99961 0.56276 0.0
C135 C 0.64283 0.00319 0.54932 0.0
C136 C 0.65901 0.02894 0.51272 0.0
C137 C 0.65442 0.99415 0.51126 0.0
C138 C 0.67061 0.98578 0.49865 0.0
C139 C 0.69194 0.01203 0.48729 0.0
C140 C 0.69571 0.04653 0.48864 0.0
C141 C 0.67935 0.05481 0.50123 0.0
C142 C 0.60436 0.02846 0.52675 0.0
C143 C 0.59254 0.04708 0.53677 0.0
C144 C 0.55364 0.03786 0.5377 0.0
C145 C 0.52545 0.01021 0.52832 0.0
C146 C 0.5373 0.99167 0.51818 0.0
C147 C 0.57608 1.00037 0.5175 0.0
C148 C 0.35029 0.98057 0.54306 0.0
C149 C 0.35233 0.01388 0.54606 0.0
C150 C 0.33429 0.01806 0.55921 0.0
C151 C 0.31399 0.9891 0.5696 0.0
C152 C 0.31323 0.95627 0.56681 0.0
C153 C 0.33121 0.95213 0.55366 0.0
C154 C 0.35059 0.98059 0.51477 0.0
C155 C 0.31555 0.95282 0.50882 0.0
C156 C 0.29851 0.95869 0.49578 0.0
C157 C 0.31635 0.99261 0.48833 0.0
C158 C 0.35194 0.02028 0.49415 0.0
C159 C 0.36877 0.01446 0.50728 0.0
C160 C 0.40564 0.98389 0.52922 0.0
C161 C 0.43548 0.01949 0.53209 0.0
C162 C 0.47425 0.02804 0.53174 0.0
C163 C 0.48404 1.00104 0.52892 0.0
C164 C 0.45385 0.96525 0.52651 0.0
C165 C 0.41518 0.95694 0.52654 0.0
H166 H 0.63974 0.66708 0.87867 0.0
N167 N 0.64242 0.60477 0.87406 0.0
H168 H 0.66777 0.70884 0.90048 0.0
H169 H 0.67201 0.59455 0.90008 0.0
H170 H 0.69974 0.63622 0.92218 0.0
H171 H 0.71155 0.61837 0.86416 0.0
H172 H 0.74963 0.65792 0.84277 0.0
H173 H 0.6169 0.63602 0.85281 0.0
H174 H 0.65434 0.67498 0.83111 0.0
H175 H 0.57894 0.60502 0.88727 0.0
H176 H 0.6127 0.54422 0.85739 0.0
H177 H 0.51215 0.55746 0.88569 0.0
H178 H 0.54487 0.49739 0.85469 0.0
H179 H 0.2998 0.40104 0.88465 0.0
H180 H 0.26752 0.36289 0.9073 0.0
H181 H 0.35899 0.33676 0.91081 0.0
H182 H 0.39103 0.37491 0.88842 0.0
H183 H 0.3636 0.34752 0.86257 0.0
H184 H 0.32628 0.30525 0.84195 0.0
H185 H 0.28792 0.37854 0.82624 0.0
H186 H 0.32418 0.41998 0.84744 0.0
H187 H 0.38925 0.47992 0.87192 0.0
H188 H 0.4566 0.52881 0.87128 0.0
H189 H 0.4938 0.44961 0.86698 0.0
N190 N 0.36249 0.40939 0.87015 0.0
H191 H 0.42636 0.40156 0.86622 0.0
C192 C 0.65429 0.62778 0.88765 0.0
C193 C 0.65263 0.65999 0.88811 0.0
C194 C 0.66863 0.68386 0.90059 0.0
C195 C 0.68622 0.67591 0.91294 0.0
C196 C 0.68617 0.64293 0.91285 0.0
C197 C 0.67047 0.61918 0.90026 0.0
C198 C 0.6615 0.62414 0.86005 0.0
C199 C 0.69873 0.63019 0.8568 0.0
C200 C 0.72037 0.65274 0.84455 0.0
C201 C 0.70513 0.66979 0.83524 0.0
C202 C 0.66717 0.6627 0.83819 0.0
C203 C 0.64556 0.64014 0.85049 0.0
C204 C 0.60154 0.5783 0.87253 0.0
C205 C 0.57223 0.58176 0.88015 0.0
C206 C 0.53344 0.55437 0.87908 0.0
C207 C 0.52259 0.52317 0.87007 0.0
C208 C 0.55185 0.5204 0.86206 0.0
C209 C 0.59074 0.54741 0.86344 0.0
C210 C 0.34783 0.39109 0.8848 0.0
C211 C 0.31322 0.38766 0.89054 0.0
C212 C 0.29472 0.36565 0.90337 0.0
C213 C 0.31059 0.3466 0.91076 0.0
C214 C 0.34623 0.35135 0.90546 0.0
C215 C 0.36462 0.37325 0.89257 0.0
C216 C 0.34634 0.38686 0.85662 0.0
C217 C 0.34764 0.35477 0.85458 0.0
C218 C 0.3263 0.3306 0.84269 0.0
C219 C 0.30355 0.33817 0.83251 0.0
C220 C 0.30429 0.37135 0.83408 0.0
C221 C 0.32534 0.3953 0.84605 0.0
C222 C 0.40273 0.43715 0.86945 0.0
C223 C 0.4121 0.47332 0.87074 0.0
C224 C 0.45074 0.5012 0.87052 0.0
C225 C 0.48116 0.49346 0.86933 0.0
C226 C 0.47149 0.45697 0.86776 0.0
C227 C 0.43272 0.42918 0.86759 0.0
H228 H 0.01001 0.0697 0.08111 0.0
H229 H 0.00799 0.11144 0.1002 0.0
H230 H 0.92701 0.12397 0.0713 0.0
H231 H 0.9288 0.08246 0.05223 0.0
H232 H 0.02869 0.1852 0.09284 0.0
H233 H 0.87827 0.10508 0.11536 0.0
H234 H 0.90267 0.08453 0.10563 0.0
H235 H 0.88247 0.10683 0.09454 0.0
C236 C 0.99123 0.08083 0.07897 0.0
C237 C 0.96955 0.07277 0.06516 0.0
C238 C 0.99023 0.10475 0.08985 0.0
C239 C 0.96712 0.12054 0.08721 0.0
C240 C 0.94458 0.11166 0.07367 0.0
H241 H 0.92728 0.28134 0.13164 0.0
H242 H 0.92779 0.23581 0.11444 0.0
C243 C 0.94577 0.08802 0.06275 0.0
C244 C 0.9686 0.14831 0.09797 0.0
H245 H 0.91279 0.16758 0.12181 0.0
C246 C 0.00349 0.1813 0.0993 0.0
C247 C 0.93555 0.14319 0.10623 0.0
C248 C 0.89765 0.1079 0.10552 0.0
C249 C 0.006 0.20972 0.1084 0.0
C250 C 0.97292 0.20465 0.11667 0.0
C251 C 0.9381 0.17149 0.11543 0.0
C252 C 0.97379 0.23329 0.12676 0.0
C253 C 0.04372 0.24526 0.10866 0.0
C254 C 0.9994 0.24695 0.1394 0.0
C255 C 0.9993 0.27306 0.14918 0.0
C256 C 0.97323 0.28574 0.14662 0.0
C257 C 0.94761 0.27203 0.13394 0.0
C258 C 0.94789 0.24605 0.12411 0.0
H259 H 0.06212 0.24815 0.09844 0.0
H260 H 0.03852 0.26852 0.10884 0.0
H261 H 0.06018 0.24654 0.11928 0.0
H262 H 0.01894 0.23685 0.14192 0.0
H263 H 0.01881 0.28245 0.15904 0.0
H264 H 0.93938 0.05602 0.38526 0.0
H265 H 0.89038 0.05183 0.40348 0.0
H266 H 0.83577 0.93545 0.40317 0.0
H267 H 0.88468 0.93924 0.38476 0.0
H268 H 0.78293 0.96378 0.40206 0.0
H269 H 0.89137 0.02345 0.44951 0.0
H270 H 0.90485 0.04992 0.432 0.0
H271 H 0.9003 0.00582 0.43189 0.0
C272 C 0.91684 0.02945 0.38895 0.0
C273 C 0.91624 0.99795 0.38367 0.0
C274 C 0.88891 0.02715 0.3994 0.0
C275 C 0.85993 0.99339 0.40486 0.0
C276 C 0.8581 0.96178 0.39914 0.0
H277 H 0.7304 0.97399 0.48908 0.0
H278 H 0.76685 0.96446 0.46863 0.0
C279 C 0.88608 0.96402 0.38863 0.0
C280 C 0.83266 0.99145 0.41701 0.0
H281 H 0.8299 0.01807 0.45414 0.0
C282 C 0.79304 0.97538 0.41349 0.0
C283 C 0.84593 0.00611 0.43198 0.0
C284 C 0.88787 0.02201 0.43667 0.0
C285 C 0.76646 0.97468 0.42444 0.0
C286 C 0.78009 0.99087 0.43917 0.0
C287 C 0.81953 0.00591 0.4428 0.0
C288 C 0.75433 0.99328 0.45097 0.0
C289 C 0.72408 0.95644 0.42018 0.0
C290 C 0.73493 0.01244 0.4478 0.0
C291 C 0.71373 0.01767 0.45945 0.0
C292 C 0.71182 0.00411 0.47453 0.0
C293 C 0.73073 0.98434 0.47755 0.0
C294 C 0.7518 0.97905 0.4659 0.0
H295 H 0.71695 0.93666 0.41059 0.0
H296 H 0.70543 0.94219 0.43033 0.0
H297 H 0.71701 0.97722 0.4162 0.0
H298 H 0.73711 0.02429 0.43645 0.0
H299 H 0.69925 0.03274 0.45669 0.0
H300 H 0.90145 0.85314 0.71724 0.0
H301 H 0.86108 0.81131 0.73757 0.0
H302 H 0.90622 0.8988 0.77069 0.0
H303 H 0.94702 0.94112 0.75036 0.0
H304 H 0.90156 0.83195 0.78141 0.0
H305 H 0.76374 0.81066 0.75569 0.0
H306 H 0.79468 0.8042 0.74246 0.0
H307 H 0.81048 0.84835 0.75041 0.0
C308 C 0.90305 0.86356 0.72886 0.0
C309 C 0.92732 0.90055 0.73216 0.0
C310 C 0.87978 0.8396 0.74044 0.0
C311 C 0.88022 0.8521 0.75554 0.0
C312 C 0.90532 0.88873 0.75905 0.0
H313 H 0.71025 0.73461 0.82797 0.0
H314 H 0.75292 0.7794 0.8089 0.0
C315 C 0.9286 0.91283 0.74744 0.0
C316 C 0.85405 0.82682 0.76756 0.0
H317 H 0.75838 0.77148 0.77635 0.0
C318 C 0.87026 0.81883 0.78037 0.0
C319 C 0.81326 0.81011 0.76623 0.0
C320 C 0.79438 0.81892 0.75304 0.0
C321 C 0.84665 0.79377 0.79171 0.0
C322 C 0.80584 0.77607 0.79007 0.0
C323 C 0.78967 0.78481 0.77748 0.0
C324 C 0.77941 0.74843 0.80133 0.0
C325 C 0.8655 0.7866 0.80541 0.0
C326 C 0.77955 0.7158 0.80313 0.0
C327 C 0.75492 0.68995 0.81389 0.0
C328 C 0.72958 0.6962 0.82307 0.0
C329 C 0.72898 0.72866 0.82097 0.0
C330 C 0.75356 0.75443 0.81017 0.0
H331 H 0.89614 0.80837 0.80691 0.0
H332 H 0.84939 0.78413 0.8163 0.0
H333 H 0.86518 0.76072 0.80354 0.0
H334 H 0.79869 0.71031 0.79617 0.0
H335 H 0.75567 0.66502 0.81501 0.0
H336 H 0.02538 0.95717 0.08086 0.0
H337 H 0.02633 0.91508 0.1 0.0
H338 H 0.07119 0.87289 0.06521 0.0
H339 H 0.07142 0.91539 0.04624 0.0
H340 H 0.98472 0.84355 0.09879 0.0
H341 H 0.13944 0.88242 0.10121 0.0
H342 H 0.1232 0.9109 0.09236 0.0
H343 H 0.12162 0.8739 0.08165 0.0
C344 C 0.03623 0.93946 0.07739 0.0
C345 C 0.04839 0.93969 0.06203 0.0
C346 C 0.03669 0.91536 0.08833 0.0
C347 C 0.04931 0.89109 0.08412 0.0
C348 C 0.06231 0.89194 0.06889 0.0
H349 H 0.96992 0.68001 0.12443 0.0
H350 H 0.98363 0.73187 0.10796 0.0
C351 C 0.06215 0.91615 0.058 0.0
C352 C 0.04545 0.86261 0.09514 0.0
H353 H 0.09398 0.82271 0.11058 0.0
C354 C 0.00875 0.8393 0.1015 0.0
C355 C 0.07686 0.85722 0.09885 0.0
C356 C 0.11756 0.8827 0.09329 0.0
C357 C 0.0023 0.81013 0.11105 0.0
C358 C 0.03313 0.80341 0.11398 0.0
C359 C 0.07017 0.82745 0.10808 0.0
C360 C 0.02739 0.77169 0.12322 0.0
C361 C 0.96251 0.787 0.11802 0.0
C362 C 0.04889 0.77662 0.13684 0.0
C363 C 0.04146 0.74695 0.14616 0.0
C364 C 0.01235 0.71182 0.14203 0.0
C365 C 0.99211 0.70681 0.12802 0.0
C366 C 0.99978 0.73643 0.11865 0.0
H367 H 0.94611 0.80175 0.11852 0.0
H368 H 0.94576 0.76263 0.11068 0.0
H369 H 0.96439 0.77804 0.12994 0.0
H370 H 0.07051 0.80356 0.14054 0.0
H371 H 0.05732 0.7517 0.15695 0.0
H372 H 0.129 0.07482 0.38758 0.0
H373 H 0.17837 0.07703 0.4053 0.0
H374 H 0.13447 0.96305 0.39811 0.0
H375 H 0.08504 0.96045 0.38049 0.0
H376 H 0.15787 0.03135 0.43312 0.0
H377 H 0.25495 0.01151 0.393 0.0
H378 H 0.22341 0.02804 0.38654 0.0
H379 H 0.20393 0.9807 0.39042 0.0
C380 C 0.13023 0.05035 0.38958 0.0
C381 C 0.10301 0.01743 0.38266 0.0
C382 C 0.15841 0.05167 0.39971 0.0
C383 C 0.16022 0.02029 0.40287 0.0
C384 C 0.13387 0.98767 0.39563 0.0
H385 H 0.27546 0.94638 0.4645 0.0
H386 H 0.23975 0.956 0.44373 0.0
C387 C 0.10551 0.98622 0.38564 0.0
C388 C 0.18734 0.02068 0.41471 0.0
H389 H 0.2626 0.00498 0.42002 0.0
C390 C 0.18113 0.02606 0.43028 0.0
C391 C 0.21731 0.01345 0.41092 0.0
C392 C 0.22565 0.00835 0.3943 0.0
C393 C 0.20323 0.02305 0.44228 0.0
C394 C 0.23306 0.01545 0.43852 0.0
C395 C 0.23978 0.01084 0.42288 0.0
C396 C 0.25645 0.01063 0.4507 0.0
C397 C 0.19322 0.02645 0.45888 0.0
C398 C 0.27837 0.0384 0.46133 0.0
C399 C 0.29826 0.03276 0.4734 0.0
C400 C 0.29712 0.99938 0.47494 0.0
C401 C 0.27635 0.97213 0.46388 0.0
C402 C 0.25621 0.97771 0.4519 0.0
H403 H 0.1636 0.0227 0.45988 0.0
H404 H 0.19502 0.00628 0.46647 0.0
H405 H 0.21406 0.0539 0.46327 0.0
H406 H 0.27967 0.06431 0.46043 0.0
H407 H 0.31368 0.05429 0.48174 0.0
H408 H 0.08387 0.15176 0.71959 0.0
H409 H 0.12556 0.19396 0.73956 0.0
H410 H 0.10963 0.10436 0.76808 0.0
H411 H 0.06677 0.0618 0.7483 0.0
H412 H 0.10788 0.15631 0.78528 0.0
H413 H 0.23619 0.21904 0.74666 0.0
H414 H 0.19601 0.22165 0.73873 0.0
H415 H 0.19219 0.17814 0.74152 0.0
C416 C 0.08899 0.14099 0.73016 0.0
C417 C 0.0723 0.10344 0.73232 0.0
C418 C 0.1131 0.16517 0.74151 0.0
C419 C 0.12165 0.15237 0.75512 0.0
C420 C 0.10376 0.11485 0.7576 0.0
H421 H 0.31744 0.29199 0.8149 0.0
H422 H 0.27297 0.24503 0.79697 0.0
C423 C 0.07921 0.09057 0.7463 0.0
C424 C 0.14946 0.1782 0.76666 0.0
H425 H 0.24136 0.24999 0.77041 0.0
C426 C 0.13715 0.17664 0.78206 0.0
C427 C 0.18795 0.20426 0.76254 0.0
C428 C 0.20403 0.20568 0.7465 0.0
C429 C 0.16187 0.20111 0.79334 0.0
C430 C 0.19961 0.22848 0.78899 0.0
C431 C 0.21228 0.22935 0.7737 0.0
C432 C 0.22635 0.25667 0.80007 0.0
C433 C 0.14744 0.19701 0.80985 0.0
C434 C 0.21522 0.27924 0.80758 0.0
C435 C 0.24035 0.30575 0.81799 0.0
C436 C 0.27751 0.31075 0.82094 0.0
C437 C 0.28889 0.2886 0.81311 0.0
C438 C 0.26357 0.26186 0.80278 0.0
H439 H 0.12386 0.16892 0.81223 0.0
H440 H 0.17121 0.20414 0.81833 0.0
H441 H 0.13553 0.21532 0.81174 0.0
H442 H 0.18705 0.2764 0.80539 0.0
H443 H 0.23029 0.32191 0.82392 0.0
H444 H 0.88243 0.94909 0.6684 0.0
H445 H 0.83607 0.95146 0.65054 0.0
H446 H 0.89107 0.06693 0.65693 0.0
H447 H 0.93777 0.06499 0.67489 0.0
H448 H 0.80428 0.02508 0.65737 0.0
H449 H 0.87115 0.9979 0.60615 0.0
H450 H 0.85919 0.96729 0.62227 0.0
H451 H 0.89623 0.01381 0.62445 0.0
C452 C 0.88458 0.97502 0.66614 0.0
C453 C 0.91408 0.00692 0.67299 0.0
C454 C 0.85809 0.97628 0.65589 0.0
C455 C 0.86052 0.0094 0.6523 0.0
C456 C 0.88889 0.04112 0.65954 0.0
H457 H 0.73907 0.0785 0.5899 0.0
H458 H 0.77661 0.07301 0.61109 0.0
C459 C 0.91555 0.03994 0.66977 0.0
C460 C 0.83444 0.01104 0.6405 0.0
H461 H 0.81422 1.00054 0.6017 0.0
C462 C 0.80637 0.01977 0.64519 0.0
C463 C 0.83732 0.00399 0.62466 0.0
C464 C 0.86774 0.99547 0.61898 0.0
C465 C 0.78059 0.02112 0.63442 0.0
C466 C 0.78368 0.01436 0.61852 0.0
C467 C 0.81178 0.00557 0.61389 0.0
C468 C 0.75877 0.01698 0.60637 0.0
C469 C 0.74983 0.02905 0.6402 0.0
C470 C 0.73672 0.9875 0.5965 0.0
C471 C 0.71579 0.99076 0.58418 0.0
C472 C 0.71658 0.02365 0.58145 0.0
C473 C 0.73811 0.05291 0.59157 0.0
C474 C 0.75918 0.04966 0.60384 0.0
H475 H 0.74389 0.02281 0.65278 0.0
H476 H 0.76002 0.05826 0.63858 0.0
H477 H 0.72232 0.01325 0.63366 0.0
H478 H 0.73626 0.96211 0.59816 0.0
H479 H 0.70003 0.96785 0.5765 0.0
H480 H 0.8719 0.92929 0.01672 0.0
H481 H 0.81985 0.87876 0.00234 0.0
H482 H 0.90419 0.85831 0.98017 0.0
H483 H 0.95593 0.90764 0.99484 0.0
H484 H 0.80579 0.86863 0.97238 0.0
H485 H 0.82758 0.75841 0.9941 0.0
H486 H 0.85088 0.8027 0.00293 0.0
H487 H 0.87172 0.794 0.98602 0.0
C488 C 0.87928 0.91381 0.00887 0.0
C489 C 0.91803 0.9223 0.00702 0.0
C490 C 0.8495 0.88493 0.00067 0.0
C491 C 0.85795 0.86414 0.99044 0.0
C492 C 0.89672 0.87308 0.98838 0.0
H493 H 0.73762 0.74764 0.90929 0.0
H494 H 0.77458 0.79207 0.92934 0.0
C495 C 0.92637 0.90156 0.9967 0.0
C496 C 0.82673 0.83429 0.98126 0.0
H497 H 0.79305 0.74699 0.96978 0.0
C498 C 0.80261 0.84186 0.972 0.0
C499 C 0.82178 0.79903 0.98101 0.0
C500 C 0.8441 0.78796 0.9917 0.0
C501 C 0.77521 0.81579 0.96189 0.0
C502 C 0.77275 0.7816 0.96062 0.0
C503 C 0.79534 0.77338 0.97051 0.0
C504 C 0.74867 0.75476 0.94857 0.0
C505 C 0.74928 0.82529 0.95267 0.0
C506 C 0.72261 0.71859 0.9526 0.0
C507 C 0.70192 0.69291 0.94108 0.0
C508 C 0.70677 0.70303 0.92534 0.0
C509 C 0.73268 0.73924 0.92135 0.0
C510 C 0.75368 0.76472 0.93282 0.0
H511 H 0.74455 0.84557 0.95891 0.0
H512 H 0.7634 0.83746 0.94142 0.0
H513 H 0.72064 0.80104 0.95031 0.0
H514 H 0.71848 0.71017 0.96466 0.0
H515 H 0.68211 0.66518 0.94446 0.0
H516 H 0.00923 0.94458 0.30766 0.0
H517 H 0.00673 0.90093 0.28845 0.0
H518 H 0.93847 0.81331 0.32003 0.0
H519 H 0.94096 0.85653 0.33928 0.0
H520 H 0.03416 0.84871 0.29544 0.0
H521 H 0.87974 0.78285 0.27707 0.0
H522 H 0.90491 0.82755 0.28559 0.0
H523 H 0.88871 0.78827 0.29766 0.0
C524 C 0.99319 0.91598 0.31041 0.0
C525 C 0.97529 0.904 0.32499 0.0
C526 C 0.99191 0.89113 0.29945 0.0
C527 C 0.97221 0.85395 0.30281 0.0
C528 C 0.95344 0.84187 0.31716 0.0
H529 H 0.93195 0.65792 0.2561 0.0
H530 H 0.93303 0.70291 0.27412 0.0
C531 C 0.95501 0.86664 0.32816 0.0
C532 C 0.97316 0.8278 0.29176 0.0
H533 H 0.91578 0.75569 0.26856 0.0
C534 C 0.0084 0.82851 0.28945 0.0
C535 C 0.93938 0.80131 0.28416 0.0
C536 C 0.901 0.7999 0.2861 0.0
C537 C 0.01062 0.80286 0.27993 0.0
C538 C 0.97685 0.77641 0.27221 0.0
C539 C 0.94164 0.7759 0.27449 0.0
C540 C 0.9774 0.74917 0.26161 0.0
C541 C 0.04887 0.80369 0.27866 0.0
C542 C 1.00187 0.76019 0.24858 0.0
C543 C 1.00152 0.73457 0.23837 0.0
C544 C 0.97626 0.69737 0.24084 0.0
C545 C 0.95167 0.68637 0.25387 0.0
C546 C 0.95227 0.71204 0.26417 0.0
H547 H 0.06809 0.8179 0.28869 0.0
H548 H 0.04456 0.77592 0.278 0.0
H549 H 0.06402 0.81851 0.26795 0.0
H550 H 0.02071 0.78867 0.24611 0.0
H551 H 0.02019 0.74394 0.22825 0.0
H552 H 0.06042 0.93929 0.67457 0.0
H553 H 0.10823 0.93698 0.65748 0.0
H554 H 0.1675 0.0531 0.65259 0.0
H555 H 0.12027 0.05581 0.66978 0.0
H556 H 0.12185 0.9598 0.62693 0.0
H557 H 0.2565 0.03404 0.66168 0.0
H558 H 0.20878 0.01636 0.67003 0.0
H559 H 0.23067 0.05824 0.65938 0.0
C560 C 0.08391 0.96441 0.67003 0.0
C561 C 0.08646 0.99774 0.67355 0.0
C562 C 0.11119 0.96302 0.66026 0.0
C563 C 0.14168 0.9949 0.65393 0.0
C564 C 0.14469 0.02824 0.65761 0.0
H565 H 0.26893 0.02076 0.56946 0.0
H566 H 0.22856 0.02225 0.5905 0.0
C567 C 0.11746 0.02969 0.66737 0.0
C568 C 0.16857 0.99312 0.64253 0.0
H569 H 0.26439 0.02472 0.63482 0.0
C570 C 0.15299 0.97374 0.62872 0.0
C571 C 0.20914 0.01106 0.64495 0.0
C572 C 0.2273 0.03082 0.65988 0.0
C573 C 0.17697 0.97266 0.61705 0.0
C574 C 0.21763 0.9919 0.61917 0.0
C575 C 0.23321 0.01038 0.63317 0.0
C576 C 0.24431 0.99327 0.60687 0.0
C577 C 0.15857 0.95083 0.60256 0.0
C578 C 0.26756 0.9776 0.60931 0.0
C579 C 0.29096 0.97696 0.59734 0.0
C580 C 0.2917 0.99226 0.58276 0.0
C581 C 0.26932 0.00903 0.58057 0.0
C582 C 0.24591 0.00958 0.59253 0.0
H583 H 0.12744 0.93066 0.60437 0.0
H584 H 0.16056 0.96932 0.59308 0.0
H585 H 0.17385 0.93639 0.59871 0.0
H586 H 0.2669 0.96511 0.62036 0.0
H587 H 0.30825 0.96426 0.59945 0.0
H588 H 0.13632 0.0754 0.00613 0.0
H589 H 0.18453 0.12619 0.99061 0.0
H590 H 0.10823 0.17051 0.98819 0.0
H591 H 0.06014 0.12027 0.00375 0.0
H592 H 0.17431 0.14466 0.96059 0.0
H593 H 0.21158 0.25796 0.00137 0.0
H594 H 0.18689 0.21119 0.00751 0.0
H595 H 0.16036 0.22994 0.99824 0.0
C596 C 0.12993 0.09612 0.00241 0.0
C597 C 0.09434 0.09374 0.00621 0.0
C598 C 0.15752 0.12511 0.99356 0.0
C599 C 0.1502 0.15239 0.98847 0.0
C600 C 0.11484 0.15019 0.99229 0.0
H601 H 0.23342 0.29676 0.91116 0.0
H602 H 0.19759 0.25034 0.93075 0.0
C603 C 0.08724 0.12124 0.0011 0.0
C604 C 0.17831 0.182 0.97832 0.0
H605 H 0.23033 0.27407 0.97478 0.0
C606 C 0.18694 0.17294 0.96377 0.0
C607 C 0.19505 0.21887 0.98256 0.0
C608 C 0.18834 0.23015 0.99833 0.0
C609 C 0.21054 0.19981 0.95307 0.0
C610 C 0.22557 0.23662 0.95699 0.0
C611 C 0.21837 0.24577 0.97178 0.0
C612 C 0.24733 0.2658 0.94557 0.0
C613 C 0.21888 0.1887 0.93755 0.0
C614 C 0.28696 0.29037 0.94764 0.0
C615 C 0.30757 0.31706 0.93647 0.0
C616 C 0.28868 0.31984 0.92316 0.0
C617 C 0.24872 0.29564 0.92136 0.0
C618 C 0.22828 0.26889 0.93246 0.0
H619 H 0.21279 0.16028 0.93769 0.0
H620 H 0.20025 0.19097 0.92854 0.0
H621 H 0.24961 0.20675 0.93415 0.0
H622 H 0.30205 0.28847 0.95776 0.0
H623 H 0.33825 0.33549 0.93822 0.0
H624 H 0.06055 0.15909 0.34295 0.0
H625 H 0.05899 0.20141 0.32431 0.0
H626 H 0.02162 0.12022 0.28842 0.0
H627 H 0.0222 0.0772 0.30717 0.0
H628 H 0.09537 0.22994 0.29666 0.0
H629 H 0.93611 0.14588 0.28826 0.0
H630 H 0.96143 0.13695 0.30344 0.0
H631 H 0.96257 0.12312 0.2838 0.0
C632 C 0.05228 0.15022 0.33106 0.0
C633 C 0.04108 0.1146 0.32658 0.0
C634 C 0.05147 0.17453 0.32041 0.0
C635 C 0.03947 0.16379 0.30505 0.0
C636 C 0.03012 0.12882 0.30031 0.0
H637 H 0.05338 0.31017 0.23092 0.0
H638 H 0.06605 0.27169 0.2482 0.0
C639 C 0.03072 0.10435 0.31101 0.0
C640 C 0.03533 0.18889 0.29429 0.0
H641 H 0.96883 0.19876 0.273 0.0
C642 C 0.06774 0.22312 0.29144 0.0
C643 C 0.9991 0.18018 0.28772 0.0
C644 C 0.9627 0.14469 0.29104 0.0
C645 C 0.06492 0.24886 0.28218 0.0
C646 C 0.02885 0.23984 0.27535 0.0
C647 C 0.9965 0.20559 0.27819 0.0
C648 C 0.02358 0.26556 0.26543 0.0
C649 C 0.1003 0.28578 0.28016 0.0
C650 C 0.99535 0.2748 0.26931 0.0
C651 C 0.98788 0.29657 0.2594 0.0
C652 C 0.0085 0.30957 0.24541 0.0
C653 C 0.03749 0.30111 0.24175 0.0
C654 C 0.04478 0.27911 0.25162 0.0
H655 H 0.1221 0.29166 0.28943 0.0
H656 H 0.11409 0.28685 0.26882 0.0
H657 H 0.0924 0.30733 0.28027 0.0
H658 H 0.97864 0.26466 0.2799 0.0
H659 H 0.96554 0.3028 0.26258 0.0
loop_
_geom_bond_atom_site_label_1
_geom_bond_atom_site_label_2
_geom_bond_distance
_geom_bond_site_symmetry_2
_ccdc_geom_bond_type
O0 Cd1 2.223 1_455 S
O0 C8 1.315 . S
Cd1 O0 2.223 1_655 S
Cd1 O4 2.297 . S
Cd1 O5 2.439 . S
Cd1 O11 2.240 1_545 S
Cd2 O3 2.240 1_565 S
Cd2 O10 2.223 1_455 S
Cd2 O12 2.297 . S
Cd2 O13 2.439 . S
O3 Cd2 2.240 1_545 S
O3 C8 1.279 . S
O4 Cd1 2.297 . S
O4 C6 1.247 . S
O5 Cd1 2.439 . S
O5 C6 1.208 . S
C6 O4 1.247 . S
C6 O5 1.208 . S
C7 O12 1.247 . S
C7 O13 1.208 . S
C8 O0 1.315 . S
C8 O3 1.279 . S
C9 O10 1.315 . S
C9 O11 1.279 . S
O10 Cd2 2.223 1_655 S
O10 C9 1.315 . S
O11 Cd1 2.240 1_565 S
O11 C9 1.279 . S
O12 Cd2 2.297 . S
O12 C7 1.247 . S
O13 Cd2 2.439 . S
O13 C7 1.208 . S
O14 Cd15 2.223 1_655 S
O14 C22 1.315 . S
Cd15 O14 2.223 1_455 S
Cd15 O18 2.297 . S
Cd15 O19 2.439 . S
Cd15 O25 2.240 . S
Cd16 O17 2.240 . S
Cd16 O24 2.223 1_655 S
Cd16 O26 2.297 . S
Cd16 O27 2.453 . S
O17 Cd16 2.240 . S
O17 C22 1.279 1_565 S
O18 Cd15 2.297 . S
O18 C20 1.247 . S
O19 Cd15 2.439 . S
O19 C20 1.208 . S
C20 O18 1.247 . S
C20 O19 1.208 . S
C21 O26 1.247 . S
C21 O27 1.193 . S
C22 O14 1.315 . S
C22 O17 1.279 1_545 S
C23 O24 1.315 . S
C23 O25 1.279 1_565 S
O24 Cd16 2.223 1_455 S
O24 C23 1.315 . S
O25 Cd15 2.240 . S
O25 C23 1.279 1_545 S
O26 Cd16 2.297 . S
O26 C21 1.247 . S
O27 Cd16 2.453 . S
O27 C21 1.193 . S
O28 Cd29 2.223 . S
O28 C36 1.315 . S
Cd29 O28 2.223 . S
Cd29 O32 2.297 . S
Cd29 O33 2.439 . S
Cd29 O39 2.240 1_655 S
Cd30 O31 2.240 1_455 S
Cd30 O38 2.223 . S
Cd30 O40 2.297 . S
Cd30 O41 2.439 . S
O31 Cd30 2.240 1_655 S
O31 C36 1.279 1_545 S
O32 Cd29 2.297 . S
O32 C34 1.247 . S
O33 Cd29 2.439 . S
O33 C34 1.208 . S
C34 O32 1.247 . S
C34 O33 1.208 . S
C35 O40 1.247 . S
C35 O41 1.208 . S
C36 O28 1.315 . S
C36 O31 1.279 1_565 S
C37 O38 1.315 . S
C37 O39 1.279 1_545 S
O38 Cd30 2.223 . S
O38 C37 1.315 . S
O39 Cd29 2.240 1_455 S
O39 C37 1.279 1_565 S
O40 Cd30 2.297 . S
O40 C35 1.247 . S
O41 Cd30 2.439 . S
O41 C35 1.208 . S
H42 C69 0.929 . S
N43 C68 1.433 . S
N43 C74 1.435 . S
N43 C80 1.423 . S
H44 C70 0.930 . S
H45 C73 0.931 . S
H46 C72 0.929 . S
H47 C75 0.930 . S
H48 C76 0.932 . S
H49 C79 0.929 . S
H50 C78 0.931 . S
H51 C81 0.929 . S
H52 C85 0.932 1_455 S
H53 C82 0.931 . S
H54 C84 0.929 1_455 S
H55 C87 0.929 . S
H56 C88 0.930 . S
H57 C90 0.929 . S
H58 C91 0.931 . S
H59 C93 0.930 . S
H60 C94 0.932 . S
H61 C96 0.931 . S
H62 C97 0.929 . S
H63 C99 0.929 . S
H64 C100 0.931 . S
H65 C102 0.929 1_455 S
N66 C86 1.433 . S
N66 C92 1.435 . S
N66 C98 1.423 . S
H67 C103 0.932 1_455 S
C68 N43 1.433 . S
C68 C69 1.363 . S
C68 C73 1.370 1_655 S
C69 H42 0.929 . S
C69 C68 1.363 . S
C69 C70 1.385 . S
C70 H44 0.930 . S
C70 C69 1.385 . S
C70 C71 1.357 . S
C71 C70 1.357 . S
C71 C72 1.406 1_655 S
C72 H46 0.929 . S
C72 C71 1.406 1_455 S
C72 C73 1.391 . S
C73 H45 0.931 . S
C73 C68 1.370 1_455 S
C73 C72 1.391 . S
C74 N43 1.435 . S
C74 C75 1.358 1_655 S
C74 C79 1.371 . S
C75 H47 0.930 . S
C75 C74 1.358 1_455 S
C75 C76 1.405 . S
C76 H48 0.932 . S
C76 C75 1.405 . S
C76 C77 1.383 1_455 S
C77 C76 1.383 1_655 S
C77 C78 1.393 . S
C78 H50 0.931 . S
C78 C77 1.393 . S
C78 C79 1.382 . S
C79 H49 0.929 . S
C79 C74 1.371 . S
C79 C78 1.382 . S
C80 N43 1.423 . S
C80 C81 1.362 . S
C80 C85 1.388 . S
C81 H51 0.929 . S
C81 C80 1.362 . S
C81 C82 1.376 . S
C82 H53 0.931 . S
C82 C81 1.376 . S
C82 C83 1.396 . S
C83 C82 1.396 . S
C83 C84 1.348 . S
C83 C101 1.472 . S
C84 H54 0.929 1_655 S
C84 C83 1.348 . S
C84 C85 1.443 . S
C85 H52 0.932 1_655 S
C85 C80 1.388 . S
C85 C84 1.443 . S
C86 N66 1.433 . S
C86 C87 1.363 . S
C86 C91 1.370 1_655 S
C87 H55 0.929 . S
C87 C86 1.363 . S
C87 C88 1.385 . S
C88 H56 0.930 . S
C88 C87 1.385 . S
C88 C89 1.357 . S
C89 C88 1.357 . S
C89 C90 1.406 1_655 S
C90 H57 0.929 . S
C90 C89 1.406 1_455 S
C90 C91 1.391 . S
C91 H58 0.931 . S
C91 C86 1.370 1_455 S
C91 C90 1.391 . S
C92 N66 1.435 . S
C92 C93 1.358 1_655 S
C92 C97 1.371 . S
C93 H59 0.930 . S
C93 C92 1.358 1_455 S
C93 C94 1.405 . S
C94 H60 0.932 . S
C94 C93 1.405 . S
C94 C95 1.383 1_455 S
C95 C94 1.383 1_655 S
C95 C96 1.393 . S
C96 H61 0.931 . S
C96 C95 1.393 . S
C96 C97 1.382 . S
C97 H62 0.929 . S
C97 C92 1.371 . S
C97 C96 1.382 . S
C98 N66 1.423 . S
C98 C99 1.362 . S
C98 C103 1.388 . S
C99 H63 0.929 . S
C99 C98 1.362 . S
C99 C100 1.376 . S
C100 H64 0.931 . S
C100 C99 1.376 . S
C100 C101 1.396 . S
C101 C83 1.472 . S
C101 C100 1.396 . S
C101 C102 1.348 . S
C102 H65 0.929 1_655 S
C102 C101 1.348 . S
C102 C103 1.443 . S
C103 H67 0.932 1_655 S
C103 C98 1.388 . S
C103 C102 1.443 . S
H104 C131 0.929 . S
N105 C130 1.433 . S
N105 C136 1.435 . S
N105 C142 1.423 . S
H106 C132 0.930 . S
H107 C135 0.931 . S
H108 C134 0.929 . S
H109 C137 0.930 . S
H110 C138 0.932 . S
H111 C141 0.929 . S
H112 C140 0.931 . S
H113 C143 0.929 . S
H114 C147 0.932 1_565 S
H115 C144 0.931 . S
H116 C146 0.929 1_565 S
H117 C149 0.929 . S
H118 C150 0.930 . S
H119 C152 0.929 . S
H120 C153 0.931 . S
H121 C155 0.930 . S
H122 C156 0.932 . S
H123 C158 0.931 . S
H124 C159 0.929 . S
H125 C161 0.929 . S
H126 C162 0.931 . S
H127 C164 0.929 1_565 S
N128 C148 1.433 . S
N128 C154 1.435 . S
N128 C160 1.423 . S
H129 C165 0.932 1_565 S
C130 N105 1.433 . S
C130 C131 1.363 . S
C130 C135 1.370 1_545 S
C131 H104 0.929 . S
C131 C130 1.363 . S
C131 C132 1.385 . S
C132 H106 0.930 . S
C132 C131 1.385 . S
C132 C133 1.357 . S
C133 C132 1.357 . S
C133 C134 1.406 1_545 S
C134 H108 0.929 . S
C134 C133 1.406 1_565 S
C134 C135 1.391 . S
C135 H107 0.931 . S
C135 C130 1.370 1_565 S
C135 C134 1.391 . S
C136 N105 1.435 . S
C136 C137 1.358 1_545 S
C136 C141 1.371 . S
C137 H109 0.930 . S
C137 C136 1.358 1_565 S
C137 C138 1.405 . S
C138 H110 0.932 . S
C138 C137 1.405 . S
C138 C139 1.383 1_565 S
C139 C138 1.383 1_545 S
C139 C140 1.393 . S
C140 H112 0.931 . S
C140 C139 1.393 . S
C140 C141 1.382 . S
C141 H111 0.929 . S
C141 C136 1.371 . S
C141 C140 1.382 . S
C142 N105 1.423 . S
C142 C143 1.362 . S
C142 C147 1.388 . S
C143 H113 0.929 . S
C143 C142 1.362 . S
C143 C144 1.376 . S
C144 H115 0.931 . S
C144 C143 1.376 . S
C144 C145 1.396 . S
C145 C144 1.396 . S
C145 C146 1.348 . S
C145 C163 1.472 . S
C146 H116 0.929 1_545 S
C146 C145 1.348 . S
C146 C147 1.443 . S
C147 H114 0.932 1_545 S
C147 C142 1.388 . S
C147 C146 1.443 . S
C148 N128 1.433 . S
C148 C149 1.363 . S
C148 C153 1.370 1_545 S
C149 H117 0.929 . S
C149 C148 1.363 . S
C149 C150 1.385 . S
C150 H118 0.930 . S
C150 C149 1.385 . S
C150 C151 1.357 . S
C151 C150 1.357 . S
C151 C152 1.406 1_545 S
C152 H119 0.929 . S
C152 C151 1.406 1_565 S
C152 C153 1.391 . S
C153 H120 0.931 . S
C153 C148 1.370 1_565 S
C153 C152 1.391 . S
C154 N128 1.435 . S
C154 C155 1.358 1_545 S
C154 C159 1.371 . S
C155 H121 0.930 . S
C155 C154 1.358 1_565 S
C155 C156 1.405 . S
C156 H122 0.932 . S
C156 C155 1.405 . S
C156 C157 1.383 1_565 S
C157 C156 1.383 1_545 S
C157 C158 1.393 . S
C158 H123 0.931 . S
C158 C157 1.393 . S
C158 C159 1.382 . S
C159 H124 0.929 . S
C159 C154 1.371 . S
C159 C158 1.382 . S
C160 N128 1.423 . S
C160 C161 1.362 . S
C160 C165 1.388 . S
C161 H125 0.929 . S
C161 C160 1.362 . S
C161 C162 1.376 . S
C162 H126 0.931 . S
C162 C161 1.376 . S
C162 C163 1.396 . S
C163 C145 1.472 . S
C163 C162 1.396 . S
C163 C164 1.348 . S
C164 H127 0.929 1_545 S
C164 C163 1.348 . S
C164 C165 1.443 . S
C165 H129 0.932 1_545 S
C165 C160 1.388 . S
C165 C164 1.443 . S
H166 C193 0.929 . S
N167 C192 1.433 . S
N167 C198 1.435 . S
N167 C204 1.423 . S
H168 C194 0.930 . S
H169 C197 0.931 . S
H170 C196 0.929 . S
H171 C199 0.930 . S
H172 C200 0.932 . S
H173 C203 0.929 . S
H174 C202 0.931 . S
H175 C205 0.929 . S
H176 C209 0.932 . S
H177 C206 0.931 . S
H178 C208 0.929 . S
H179 C211 0.929 . S
H180 C212 0.930 . S
H181 C214 0.929 . S
H182 C215 0.931 . S
H183 C217 0.930 . S
H184 C218 0.932 . S
H185 C220 0.931 . S
H186 C221 0.929 . S
H187 C223 0.929 . S
H188 C224 0.931 . S
H189 C226 0.929 . S
N190 C210 1.433 . S
N190 C216 1.435 . S
N190 C222 1.423 . S
H191 C227 0.932 . S
C192 N167 1.433 . S
C192 C193 1.363 . S
C192 C197 1.370 . S
C193 H166 0.929 . S
C193 C192 1.363 . S
C193 C194 1.385 . S
C194 H168 0.930 . S
C194 C193 1.385 . S
C194 C195 1.357 . S
C195 C194 1.357 . S
C195 C196 1.406 . S
C196 H170 0.929 . S
C196 C195 1.406 . S
C196 C197 1.391 . S
C197 H169 0.931 . S
C197 C192 1.370 . S
C197 C196 1.391 . S
C198 N167 1.435 . S
C198 C199 1.358 . S
C198 C203 1.371 . S
C199 H171 0.930 . S
C199 C198 1.358 . S
C199 C200 1.405 . S
C200 H172 0.932 . S
C200 C199 1.405 . S
C200 C201 1.383 . S
C201 C200 1.383 . S
C201 C202 1.393 . S
C202 H174 0.931 . S
C202 C201 1.393 . S
C202 C203 1.382 . S
C203 H173 0.929 . S
C203 C198 1.371 . S
C203 C202 1.382 . S
C204 N167 1.423 . S
C204 C205 1.362 . S
C204 C209 1.388 . S
C205 H175 0.929 . S
C205 C204 1.362 . S
C205 C206 1.376 . S
C206 H177 0.931 . S
C206 C205 1.376 . S
C206 C207 1.396 . S
C207 C206 1.396 . S
C207 C208 1.348 . S
C207 C225 1.472 . S
C208 H178 0.929 . S
C208 C207 1.348 . S
C208 C209 1.443 . S
C209 H176 0.932 . S
C209 C204 1.388 . S
C209 C208 1.443 . S
C210 N190 1.433 . S
C210 C211 1.363 . S
C210 C215 1.370 . S
C211 H179 0.929 . S
C211 C210 1.363 . S
C211 C212 1.385 . S
C212 H180 0.930 . S
C212 C211 1.385 . S
C212 C213 1.357 . S
C213 C212 1.357 . S
C213 C214 1.406 . S
C214 H181 0.929 . S
C214 C213 1.406 . S
C214 C215 1.391 . S
C215 H182 0.931 . S
C215 C210 1.370 . S
C215 C214 1.391 . S
C216 N190 1.435 . S
C216 C217 1.358 . S
C216 C221 1.371 . S
C217 H183 0.930 . S
C217 C216 1.358 . S
C217 C218 1.405 . S
C218 H184 0.932 . S
C218 C217 1.405 . S
C218 C219 1.383 . S
C219 C218 1.383 . S
C219 C220 1.393 . S
C220 H185 0.931 . S
C220 C219 1.393 . S
C220 C221 1.382 . S
C221 H186 0.929 . S
C221 C216 1.371 . S
C221 C220 1.382 . S
C222 N190 1.423 . S
C222 C223 1.362 . S
C222 C227 1.388 . S
C223 H187 0.929 . S
C223 C222 1.362 . S
C223 C224 1.376 . S
C224 H188 0.931 . S
C224 C223 1.376 . S
C224 C225 1.396 . S
C225 C207 1.472 . S
C225 C224 1.396 . S
C225 C226 1.348 . S
C226 H189 0.929 . S
C226 C225 1.348 . S
C226 C227 1.443 . S
C227 H191 0.932 . S
C227 C222 1.388 . S
C227 C226 1.443 . S
H228 C236 0.929 . S
H229 C238 0.930 . S
H230 C240 0.930 . S
H231 C243 0.929 . S
H232 C246 0.930 . S
H233 C248 0.960 . S
H234 C248 0.960 . S
H235 C248 0.960 . S
C236 H228 0.929 . S
C236 C237 1.385 . S
C236 C238 1.384 . S
C237 C236 1.385 . S
C237 C243 1.373 1_455 S
C238 H229 0.930 . S
C238 C236 1.384 . S
C238 C239 1.372 . S
C239 C238 1.372 . S
C239 C240 1.400 1_455 S
C239 C244 1.490 . S
C240 H230 0.930 . S
C240 C239 1.400 1_655 S
C240 C243 1.386 . S
H241 C257 0.930 . S
H242 C258 0.932 . S
C243 H231 0.929 . S
C243 C237 1.373 1_655 S
C243 C240 1.386 . S
C244 C239 1.490 . S
C244 C246 1.395 . S
C244 C247 1.403 1_455 S
H245 C251 0.930 . S
C246 H232 0.930 . S
C246 C244 1.395 . S
C246 C249 1.403 . S
C247 C244 1.403 1_655 S
C247 C248 1.524 . S
C247 C251 1.400 . S
C248 H233 0.960 . S
C248 H234 0.960 . S
C248 H235 0.960 . S
C248 C247 1.524 . S
C249 C246 1.403 . S
C249 C250 1.392 . S
C249 C253 1.495 . S
C250 C249 1.392 . S
C250 C251 1.385 1_455 S
C250 C252 1.478 . S
C251 H245 0.930 . S
C251 C247 1.400 . S
C251 C250 1.385 1_655 S
C252 C250 1.478 . S
C252 C254 1.381 . S
C252 C258 1.381 1_455 S
C253 C249 1.495 . S
C253 H259 0.959 . S
C253 H260 0.961 . S
C253 H261 0.960 . S
C254 C252 1.381 . S
C254 C255 1.394 . S
C254 H262 0.930 . S
C255 C254 1.394 . S
C255 C256 1.383 . S
C255 H263 0.929 . S
C256 C255 1.383 . S
C256 C257 1.377 1_455 S
C257 H241 0.930 . S
C257 C256 1.377 1_655 S
C257 C258 1.381 . S
C258 H242 0.932 . S
C258 C252 1.381 1_655 S
C258 C257 1.381 . S
H259 C253 0.959 . S
H260 C253 0.961 . S
H261 C253 0.960 . S
H262 C254 0.930 . S
H263 C255 0.929 . S
H264 C272 0.929 . S
H265 C274 0.930 . S
H266 C276 0.930 . S
H267 C279 0.929 . S
H268 C282 0.930 . S
H269 C284 0.960 . S
H270 C284 0.960 . S
H271 C284 0.960 . S
C272 H264 0.929 . S
C272 C273 1.377 . S
C272 C274 1.384 . S
C273 C272 1.377 . S
C273 C279 1.390 1_545 S
C274 H265 0.930 . S
C274 C272 1.384 . S
C274 C275 1.372 . S
C275 C274 1.372 . S
C275 C276 1.400 1_545 S
C275 C280 1.490 . S
C276 H266 0.930 . S
C276 C275 1.400 1_565 S
C276 C279 1.386 . S
H277 C293 0.930 . S
H278 C294 0.931 . S
C279 H267 0.929 . S
C279 C273 1.390 1_565 S
C279 C276 1.386 . S
C280 C275 1.490 . S
C280 C282 1.395 1_545 S
C280 C283 1.403 . S
H281 C287 0.930 . S
C282 H268 0.930 . S
C282 C280 1.395 1_565 S
C282 C285 1.403 . S
C283 C280 1.403 . S
C283 C284 1.524 . S
C283 C287 1.400 . S
C284 H269 0.960 . S
C284 H270 0.960 . S
C284 H271 0.960 . S
C284 C283 1.524 . S
C285 C282 1.403 . S
C285 C286 1.395 . S
C285 C289 1.495 . S
C286 C285 1.395 . S
C286 C287 1.387 1_565 S
C286 C288 1.473 . S
C287 H281 0.930 . S
C287 C283 1.400 . S
C287 C286 1.387 1_545 S
C288 C286 1.473 . S
C288 C290 1.381 1_565 S
C288 C294 1.383 . S
C289 C285 1.495 . S
C289 H295 0.959 . S
C289 H296 0.961 . S
C289 H297 0.960 . S
C290 C288 1.381 1_545 S
C290 C291 1.394 . S
C290 H298 0.930 . S
C291 C290 1.394 . S
C291 C292 1.364 1_545 S
C291 H299 0.929 . S
C292 C291 1.364 1_565 S
C292 C293 1.410 . S
C293 H277 0.930 . S
C293 C292 1.410 . S
C293 C294 1.379 . S
C294 H278 0.931 . S
C294 C288 1.383 . S
C294 C293 1.379 . S
H295 C289 0.959 . S
H296 C289 0.961 . S
H297 C289 0.960 . S
H298 C290 0.930 . S
H299 C291 0.929 . S
H300 C308 0.929 . S
H301 C310 0.930 . S
H302 C312 0.930 . S
H303 C315 0.929 . S
H304 C318 0.930 . S
H305 C320 0.960 . S
H306 C320 0.960 . S
H307 C320 0.960 . S
C308 H300 0.929 . S
C308 C309 1.377 . S
C308 C310 1.384 . S
C309 C308 1.377 . S
C309 C315 1.390 . S
C310 H301 0.930 . S
C310 C308 1.384 . S
C310 C311 1.372 . S
C311 C310 1.372 . S
C311 C312 1.400 . S
C311 C316 1.490 . S
C312 H302 0.930 . S
C312 C311 1.400 . S
C312 C315 1.386 . S
H313 C329 0.930 . S
H314 C330 0.931 . S
C315 H303 0.929 . S
C315 C309 1.390 . S
C315 C312 1.386 . S
C316 C311 1.490 . S
C316 C318 1.395 . S
C316 C319 1.403 . S
H317 C323 0.930 . S
C318 H304 0.930 . S
C318 C316 1.395 . S
C318 C321 1.403 . S
C319 C316 1.403 . S
C319 C320 1.524 . S
C319 C323 1.400 . S
C320 H305 0.960 . S
C320 H306 0.960 . S
C320 H307 0.960 . S
C320 C319 1.524 . S
C321 C318 1.403 . S
C321 C322 1.392 . S
C321 C325 1.495 . S
C322 C321 1.392 . S
C322 C323 1.385 . S
C322 C324 1.478 . S
C323 H317 0.930 . S
C323 C319 1.400 . S
C323 C322 1.385 . S
C324 C322 1.478 . S
C324 C326 1.381 . S
C324 C330 1.383 . S
C325 C321 1.495 . S
C325 H331 0.959 . S
C325 H332 0.961 . S
C325 H333 0.960 . S
C326 C324 1.381 . S
C326 C327 1.394 . S
C326 H334 0.930 . S
C327 C326 1.394 . S
C327 C328 1.383 . S
C327 H335 0.929 . S
C328 C327 1.383 . S
C328 C329 1.377 . S
C329 H313 0.930 . S
C329 C328 1.377 . S
C329 C330 1.379 . S
C330 H314 0.931 . S
C330 C324 1.383 . S
C330 C329 1.379 . S
H331 C325 0.959 . S
H332 C325 0.961 . S
H333 C325 0.960 . S
H334 C326 0.930 . S
H335 C327 0.929 . S
H336 C344 0.929 . S
H337 C346 0.930 . S
H338 C348 0.930 . S
H339 C351 0.929 . S
H340 C354 0.930 . S
H341 C356 0.960 . S
H342 C356 0.960 . S
H343 C356 0.960 . S
C344 H336 0.929 . S
C344 C345 1.374 1_455 S
C344 C346 1.384 . S
C345 C344 1.374 1_655 S
C345 C351 1.390 . S
C346 H337 0.930 . S
C346 C344 1.384 . S
C346 C347 1.372 . S
C347 C346 1.372 . S
C347 C348 1.400 1_455 S
C347 C352 1.481 . S
C348 H338 0.930 . S
C348 C347 1.400 1_655 S
C348 C351 1.386 . S
H349 C365 0.930 . S
H350 C366 0.931 . S
C351 H339 0.929 . S
C351 C345 1.390 . S
C351 C348 1.386 . S
C352 C347 1.481 . S
C352 C354 1.387 1_455 S
C352 C355 1.420 . S
H353 C359 0.930 . S
C354 H340 0.930 . S
C354 C352 1.387 1_655 S
C354 C357 1.403 . S
C355 C352 1.420 . S
C355 C356 1.524 . S
C355 C359 1.400 . S
C356 H341 0.960 . S
C356 H342 0.960 . S
C356 H343 0.960 . S
C356 C355 1.524 . S
C357 C354 1.403 . S
C357 C358 1.392 . S
C357 C361 1.495 . S
C358 C357 1.392 . S
C358 C359 1.385 1_655 S
C358 C360 1.478 . S
C359 H353 0.930 . S
C359 C355 1.400 . S
C359 C358 1.385 1_455 S
C360 C358 1.478 . S
C360 C362 1.381 1_655 S
C360 C366 1.383 . S
C361 C357 1.495 . S
C361 H367 0.959 . S
C361 H368 0.961 . S
C361 H369 0.960 . S
C362 C360 1.381 1_455 S
C362 C363 1.394 . S
C362 H370 0.930 . S
C363 C362 1.394 . S
C363 C364 1.383 1_455 S
C363 H371 0.929 . S
C364 C363 1.383 1_655 S
C364 C365 1.377 . S
C365 H349 0.930 . S
C365 C364 1.377 . S
C365 C366 1.379 . S
C366 H350 0.931 . S
C366 C360 1.383 . S
C366 C365 1.379 . S
H367 C361 0.959 . S
H368 C361 0.961 . S
H369 C361 0.960 . S
H370 C362 0.930 . S
H371 C363 0.929 . S
H372 C380 0.929 . S
H373 C382 0.930 . S
H374 C384 0.930 . S
H375 C387 0.929 . S
H376 C390 0.930 . S
H377 C392 0.960 . S
H378 C392 0.960 1_545 S
H379 C392 0.960 . S
C380 H372 0.929 . S
C380 C381 1.377 1_545 S
C380 C382 1.384 . S
C381 C380 1.377 1_565 S
C381 C387 1.390 . S
C382 H373 0.930 . S
C382 C380 1.384 . S
C382 C383 1.370 . S
C383 C382 1.370 . S
C383 C384 1.401 1_545 S
C383 C388 1.498 . S
C384 H374 0.930 . S
C384 C383 1.401 1_565 S
C384 C387 1.386 . S
H385 C401 0.930 . S
H386 C402 0.931 . S
C387 H375 0.929 . S
C387 C381 1.390 . S
C387 C384 1.386 . S
C388 C383 1.498 . S
C388 C390 1.399 . S
C388 C391 1.392 1_545 S
H389 C395 0.930 . S
C390 H376 0.930 . S
C390 C388 1.399 . S
C390 C393 1.403 . S
C391 C388 1.392 1_565 S
C391 C392 1.524 . S
C391 C395 1.400 . S
C392 H377 0.960 . S
C392 H378 0.960 1_565 S
C392 H379 0.960 . S
C392 C391 1.524 . S
C393 C390 1.403 . S
C393 C394 1.392 . S
C393 C397 1.495 . S
C394 C393 1.392 . S
C394 C395 1.385 1_545 S
C394 C396 1.483 . S
C395 H389 0.930 . S
C395 C391 1.400 . S
C395 C394 1.385 1_565 S
C396 C394 1.483 . S
C396 C398 1.389 . S
C396 C402 1.369 1_545 S
C397 C393 1.495 . S
C397 H403 0.959 . S
C397 H404 0.961 1_545 S
C397 H405 0.960 . S
C398 C396 1.389 . S
C398 C399 1.394 . S
C398 H406 0.930 . S
C399 C398 1.394 . S
C399 C400 1.381 . S
C399 H407 0.929 . S
C400 C399 1.381 . S
C400 C401 1.378 1_545 S
C401 H385 0.930 . S
C401 C400 1.378 1_565 S
C401 C402 1.379 . S
C402 H386 0.931 . S
C402 C396 1.369 1_565 S
C402 C401 1.379 . S
H403 C397 0.959 . S
H404 C397 0.961 1_565 S
H405 C397 0.960 . S
H406 C398 0.930 . S
H407 C399 0.929 . S
H408 C416 0.929 . S
H409 C418 0.930 . S
H410 C420 0.930 . S
H411 C423 0.929 . S
H412 C426 0.930 . S
H413 C428 0.960 . S
H414 C428 0.960 . S
H415 C428 0.960 . S
C416 H408 0.929 . S
C416 C417 1.377 . S
C416 C418 1.384 . S
C417 C416 1.377 . S
C417 C423 1.390 . S
C418 H409 0.930 . S
C418 C416 1.384 . S
C418 C419 1.372 . S
C419 C418 1.372 . S
C419 C420 1.400 . S
C419 C424 1.490 . S
C420 H410 0.930 . S
C420 C419 1.400 . S
C420 C423 1.386 . S
H421 C437 0.930 . S
H422 C438 0.931 . S
C423 H411 0.929 . S
C423 C417 1.390 . S
C423 C420 1.386 . S
C424 C419 1.490 . S
C424 C426 1.395 . S
C424 C427 1.403 . S
H425 C431 0.930 . S
C426 H412 0.930 . S
C426 C424 1.395 . S
C426 C429 1.403 . S
C427 C424 1.403 . S
C427 C428 1.524 . S
C427 C431 1.400 . S
C428 H413 0.960 . S
C428 H414 0.960 . S
C428 H415 0.960 . S
C428 C427 1.524 . S
C429 C426 1.403 . S
C429 C430 1.392 . S
C429 C433 1.495 . S
C430 C429 1.392 . S
C430 C431 1.385 . S
C430 C432 1.478 . S
C431 H425 0.930 . S
C431 C427 1.400 . S
C431 C430 1.385 . S
C432 C430 1.478 . S
C432 C434 1.381 . S
C432 C438 1.383 . S
C433 C429 1.495 . S
C433 H439 0.959 . S
C433 H440 0.961 . S
C433 H441 0.960 . S
C434 C432 1.381 . S
C434 C435 1.394 . S
C434 H442 0.930 . S
C435 C434 1.394 . S
C435 C436 1.383 . S
C435 H443 0.929 . S
C436 C435 1.383 . S
C436 C437 1.377 . S
C437 H421 0.930 . S
C437 C436 1.377 . S
C437 C438 1.379 . S
C438 H422 0.931 . S
C438 C432 1.383 . S
C438 C437 1.379 . S
H439 C433 0.959 . S
H440 C433 0.961 . S
H441 C433 0.960 . S
H442 C434 0.930 . S
H443 C435 0.929 . S
H444 C452 0.929 . S
H445 C454 0.930 . S
H446 C456 0.930 . S
H447 C459 0.929 . S
H448 C462 0.930 . S
H449 C464 0.960 . S
H450 C464 0.960 . S
H451 C464 0.960 . S
C452 H444 0.929 . S
C452 C453 1.377 . S
C452 C454 1.384 . S
C453 C452 1.377 . S
C453 C459 1.390 1_565 S
C454 H445 0.930 . S
C454 C452 1.384 . S
C454 C455 1.372 . S
C455 C454 1.372 . S
C455 C456 1.400 1_565 S
C455 C460 1.490 . S
C456 H446 0.930 . S
C456 C455 1.400 1_545 S
C456 C459 1.386 . S
H457 C473 0.930 . S
H458 C474 0.931 . S
C459 H447 0.929 . S
C459 C453 1.390 1_545 S
C459 C456 1.386 . S
C460 C455 1.490 . S
C460 C462 1.395 1_565 S
C460 C463 1.403 . S
H461 C467 0.930 . S
C462 H448 0.930 . S
C462 C460 1.395 1_545 S
C462 C465 1.403 . S
C463 C460 1.403 . S
C463 C464 1.524 . S
C463 C467 1.400 . S
C464 H449 0.960 . S
C464 H450 0.960 . S
C464 H451 0.960 . S
C464 C463 1.524 . S
C465 C462 1.403 . S
C465 C466 1.398 . S
C465 C469 1.495 . S
C466 C465 1.398 . S
C466 C467 1.372 1_545 S
C466 C468 1.485 . S
C467 H461 0.930 . S
C467 C463 1.400 . S
C467 C466 1.372 1_565 S
C468 C466 1.485 . S
C468 C470 1.381 1_545 S
C468 C474 1.383 . S
C469 C465 1.495 . S
C469 H475 0.959 . S
C469 H476 0.961 . S
C469 H477 0.960 . S
C470 C468 1.381 1_565 S
C470 C471 1.394 . S
C470 H478 0.930 . S
C471 C470 1.394 . S
C471 C472 1.383 1_565 S
C471 H479 0.929 . S
C472 C471 1.383 1_545 S
C472 C473 1.377 . S
C473 H457 0.930 . S
C473 C472 1.377 . S
C473 C474 1.379 . S
C474 H458 0.931 . S
C474 C468 1.383 . S
C474 C473 1.379 . S
H475 C469 0.959 . S
H476 C469 0.961 . S
H477 C469 0.960 . S
H478 C470 0.930 . S
H479 C471 0.929 . S
H480 C488 0.929 . S
H481 C490 0.930 1_554 S
H482 C492 0.930 . S
H483 C495 0.929 . S
H484 C498 0.930 . S
H485 C500 0.960 . S
H486 C500 0.960 . S
H487 C500 0.960 . S
C488 H480 0.929 . S
C488 C489 1.377 1_554 S
C488 C490 1.384 1_554 S
C489 C488 1.377 1_556 S
C489 C495 1.390 . S
C490 H481 0.930 1_556 S
C490 C488 1.384 1_556 S
C490 C491 1.372 . S
C491 C490 1.372 . S
C491 C492 1.400 . S
C491 C496 1.490 . S
C492 H482 0.930 . S
C492 C491 1.400 . S
C492 C495 1.386 . S
H493 C509 0.930 . S
H494 C510 0.931 . S
C495 H483 0.929 . S
C495 C489 1.390 . S
C495 C492 1.386 . S
C496 C491 1.490 . S
C496 C498 1.395 . S
C496 C499 1.403 . S
H497 C503 0.930 . S
C498 H484 0.930 . S
C498 C496 1.395 . S
C498 C501 1.403 . S
C499 C496 1.403 . S
C499 C500 1.524 . S
C499 C503 1.400 . S
C500 H485 0.960 . S
C500 H486 0.960 . S
C500 H487 0.960 . S
C500 C499 1.524 . S
C501 C498 1.403 . S
C501 C502 1.392 . S
C501 C505 1.495 . S
C502 C501 1.392 . S
C502 C503 1.385 . S
C502 C504 1.478 . S
C503 H497 0.930 . S
C503 C499 1.400 . S
C503 C502 1.385 . S
C504 C502 1.478 . S
C504 C506 1.381 . S
C504 C510 1.383 . S
C505 C501 1.495 . S
C505 H511 0.959 . S
C505 H512 0.961 . S
C505 H513 0.960 . S
C506 C504 1.381 . S
C506 C507 1.394 . S
C506 H514 0.930 . S
C507 C506 1.394 . S
C507 C508 1.383 . S
C507 H515 0.929 . S
C508 C507 1.383 . S
C508 C509 1.377 . S
C509 H493 0.930 . S
C509 C508 1.377 . S
C509 C510 1.379 . S
C510 H494 0.931 . S
C510 C504 1.383 . S
C510 C509 1.379 . S
H511 C505 0.959 . S
H512 C505 0.961 . S
H513 C505 0.960 . S
H514 C506 0.930 . S
H515 C507 0.929 . S
H516 C524 0.929 . S
H517 C526 0.930 . S
H518 C528 0.930 . S
H519 C531 0.929 . S
H520 C534 0.930 . S
H521 C536 0.960 . S
H522 C536 0.960 . S
H523 C536 0.960 . S
C524 H516 0.929 . S
C524 C525 1.377 . S
C524 C526 1.384 . S
C525 C524 1.377 . S
C525 C531 1.390 1_455 S
C526 H517 0.930 . S
C526 C524 1.384 . S
C526 C527 1.372 . S
C527 C526 1.372 . S
C527 C528 1.400 1_455 S
C527 C532 1.490 . S
C528 H518 0.930 . S
C528 C527 1.400 1_655 S
C528 C531 1.386 . S
H529 C545 0.930 . S
H530 C546 0.931 . S
C531 H519 0.929 . S
C531 C525 1.390 1_655 S
C531 C528 1.386 . S
C532 C527 1.490 . S
C532 C534 1.395 . S
C532 C535 1.403 1_455 S
H533 C539 0.930 . S
C534 H520 0.930 . S
C534 C532 1.395 . S
C534 C537 1.403 . S
C535 C532 1.403 1_655 S
C535 C536 1.524 . S
C535 C539 1.400 . S
C536 H521 0.960 . S
C536 H522 0.960 . S
C536 H523 0.960 . S
C536 C535 1.524 . S
C537 C534 1.403 . S
C537 C538 1.392 . S
C537 C541 1.495 . S
C538 C537 1.392 . S
C538 C539 1.385 1_455 S
C538 C540 1.478 . S
C539 H533 0.930 . S
C539 C535 1.400 . S
C539 C538 1.385 1_655 S
C540 C538 1.478 . S
C540 C542 1.381 . S
C540 C546 1.383 1_455 S
C541 C537 1.495 . S
C541 H547 0.959 . S
C541 H548 0.961 . S
C541 H549 0.960 . S
C542 C540 1.381 . S
C542 C543 1.394 . S
C542 H550 0.930 . S
C543 C542 1.394 . S
C543 C544 1.383 . S
C543 H551 0.929 . S
C544 C543 1.383 . S
C544 C545 1.377 1_455 S
C545 H529 0.930 . S
C545 C544 1.377 1_655 S
C545 C546 1.379 . S
C546 H530 0.931 . S
C546 C540 1.383 1_655 S
C546 C545 1.379 . S
H547 C541 0.959 . S
H548 C541 0.961 . S
H549 C541 0.960 . S
H550 C542 0.930 . S
H551 C543 0.929 . S
H552 C560 0.929 . S
H553 C562 0.930 . S
H554 C564 0.930 . S
H555 C567 0.929 . S
H556 C570 0.930 . S
H557 C572 0.960 . S
H558 C572 0.960 . S
H559 C572 0.960 . S
C560 H552 0.929 . S
C560 C561 1.377 1_565 S
C560 C562 1.384 . S
C561 C560 1.377 1_545 S
C561 C567 1.390 . S
C562 H553 0.930 . S
C562 C560 1.384 . S
C562 C563 1.372 1_565 S
C563 C562 1.372 1_545 S
C563 C564 1.400 . S
C563 C568 1.490 . S
C564 H554 0.930 . S
C564 C563 1.400 . S
C564 C567 1.386 . S
H565 C581 0.930 . S
H566 C582 0.931 . S
C567 H555 0.929 . S
C567 C561 1.390 . S
C567 C564 1.386 . S
C568 C563 1.490 . S
C568 C570 1.395 1_545 S
C568 C571 1.403 . S
H569 C575 0.930 . S
C570 H556 0.930 . S
C570 C568 1.395 1_565 S
C570 C573 1.403 . S
C571 C568 1.403 . S
C571 C572 1.524 . S
C571 C575 1.400 . S
C572 H557 0.960 . S
C572 H558 0.960 . S
C572 H559 0.960 . S
C572 C571 1.524 . S
C573 C570 1.403 . S
C573 C574 1.392 . S
C573 C577 1.495 . S
C574 C573 1.392 . S
C574 C575 1.385 1_565 S
C574 C576 1.478 . S
C575 H569 0.930 . S
C575 C571 1.400 . S
C575 C574 1.385 1_545 S
C576 C574 1.478 . S
C576 C578 1.381 . S
C576 C582 1.383 1_565 S
C577 C573 1.495 . S
C577 H583 0.959 . S
C577 H584 0.961 . S
C577 H585 0.960 . S
C578 C576 1.381 . S
C578 C579 1.394 . S
C578 H586 0.930 . S
C579 C578 1.394 . S
C579 C580 1.383 . S
C579 H587 0.929 . S
C580 C579 1.383 . S
C580 C581 1.377 1_565 S
C581 H565 0.930 . S
C581 C580 1.377 1_545 S
C581 C582 1.379 . S
C582 H566 0.931 . S
C582 C576 1.383 1_545 S
C582 C581 1.379 . S
H583 C577 0.959 . S
H584 C577 0.961 . S
H585 C577 0.960 . S
H586 C578 0.930 . S
H587 C579 0.929 . S
H588 C596 0.929 . S
H589 C598 0.930 1_554 S
H590 C600 0.930 . S
H591 C603 0.929 . S
H592 C606 0.930 . S
H593 C608 0.960 . S
H594 C608 0.960 . S
H595 C608 0.960 . S
C596 H588 0.929 . S
C596 C597 1.377 1_554 S
C596 C598 1.384 1_554 S
C597 C596 1.377 1_556 S
C597 C603 1.390 . S
C598 H589 0.930 1_556 S
C598 C596 1.384 1_556 S
C598 C599 1.372 . S
C599 C598 1.372 . S
C599 C600 1.400 . S
C599 C604 1.490 . S
C600 H590 0.930 . S
C600 C599 1.400 . S
C600 C603 1.386 . S
H601 C617 0.930 . S
H602 C618 0.931 . S
C603 H591 0.929 . S
C603 C597 1.390 . S
C603 C600 1.386 . S
C604 C599 1.490 . S
C604 C606 1.395 . S
C604 C607 1.403 . S
H605 C611 0.930 . S
C606 H592 0.930 . S
C606 C604 1.395 . S
C606 C609 1.403 . S
C607 C604 1.403 . S
C607 C608 1.524 . S
C607 C611 1.400 . S
C608 H593 0.960 . S
C608 H594 0.960 . S
C608 H595 0.960 . S
C608 C607 1.524 . S
C609 C606 1.403 . S
C609 C610 1.392 . S
C609 C613 1.495 . S
C610 C609 1.392 . S
C610 C611 1.385 . S
C610 C612 1.478 . S
C611 H605 0.930 . S
C611 C607 1.400 . S
C611 C610 1.385 . S
C612 C610 1.478 . S
C612 C614 1.381 . S
C612 C618 1.383 . S
C613 C609 1.495 . S
C613 H619 0.959 . S
C613 H620 0.961 . S
C613 H621 0.960 . S
C614 C612 1.381 . S
C614 C615 1.394 . S
C614 H622 0.930 . S
C615 C614 1.394 . S
C615 C616 1.383 . S
C615 H623 0.929 . S
C616 C615 1.383 . S
C616 C617 1.377 . S
C617 H601 0.930 . S
C617 C616 1.377 . S
C617 C618 1.379 . S
C618 H602 0.931 . S
C618 C612 1.383 . S
C618 C617 1.379 . S
H619 C613 0.959 . S
H620 C613 0.961 . S
H621 C613 0.960 . S
H622 C614 0.930 . S
H623 C615 0.929 . S
H624 C632 0.929 . S
H625 C634 0.930 . S
H626 C636 0.930 . S
H627 C639 0.929 . S
H628 C642 0.932 . S
H629 C644 0.960 . S
H630 C644 0.960 . S
H631 C644 0.960 1_455 S
C632 H624 0.929 . S
C632 C633 1.377 . S
C632 C634 1.384 . S
C633 C632 1.377 . S
C633 C639 1.390 1_655 S
C634 H625 0.930 . S
C634 C632 1.384 . S
C634 C635 1.372 . S
C635 C634 1.372 . S
C635 C636 1.400 1_655 S
C635 C640 1.490 . S
C636 H626 0.930 . S
C636 C635 1.400 1_455 S
C636 C639 1.386 . S
H637 C653 0.930 . S
H638 C654 0.931 . S
C639 H627 0.929 . S
C639 C633 1.390 1_455 S
C639 C636 1.386 . S
C640 C635 1.490 . S
C640 C642 1.395 . S
C640 C643 1.403 . S
H641 C647 0.930 . S
C642 H628 0.932 . S
C642 C640 1.395 . S
C642 C645 1.395 . S
C643 C640 1.403 . S
C643 C644 1.524 . S
C643 C647 1.400 . S
C644 H629 0.960 . S
C644 H630 0.960 . S
C644 H631 0.960 1_655 S
C644 C643 1.524 . S
C645 C642 1.395 . S
C645 C646 1.393 . S
C645 C649 1.503 1_655 S
C646 C645 1.393 . S
C646 C647 1.385 . S
C646 C648 1.470 . S
C647 H641 0.930 . S
C647 C643 1.400 . S
C647 C646 1.385 . S
C648 C646 1.470 . S
C648 C650 1.400 . S
C648 C654 1.372 1_655 S
C649 C645 1.503 1_455 S
C649 H655 0.959 . S
C649 H656 0.961 . S
C649 H657 0.960 1_455 S
C650 C648 1.400 . S
C650 C651 1.394 . S
C650 H658 0.930 . S
C651 C650 1.394 . S
C651 C652 1.379 1_655 S
C651 H659 0.929 . S
C652 C651 1.379 1_455 S
C652 C653 1.384 . S
C653 H637 0.930 . S
C653 C652 1.384 . S
C653 C654 1.379 . S
C654 H638 0.931 . S
C654 C648 1.372 1_455 S
C654 C653 1.379 . S
H655 C649 0.959 . S
H656 C649 0.961 . S
H657 C649 0.960 1_655 S
H658 C650 0.930 . S
H659 C651 0.929 . S
C256 C95 1.338 1_455 S
C237 C6 1.337 1_455 S
C273 C22 1.532 . S
C292 C139 1.545 1_565 S
C309 C34 1.084 . S
C328 C201 1.081 . S
C345 C7 1.332 1_655 S
C364 C77 1.321 . S
C400 C157 1.533 . S
C381 C23 1.535 . S
C417 C35 1.085 . S
C436 C219 1.076 . S
C472 C133 1.779 . S
C453 C36 1.836 . S
C489 C9 2.118 1_556 S
C508 C195 2.049 . S
C544 C71 1.645 1_455 S
C525 C21 1.704 1_455 S
C580 C151 1.766 1_565 S
C561 C37 1.830 . S
C616 C213 2.055 . S
C597 C8 2.115 1_556 S
C633 C20 1.701 1_655 S
C652 C89 1.648 1_455 S
