# Generated by pormake.
# Topology sqc, (4,8)-cn, num edge types: 1
# Building blocks:
#     Node 0, Type 0, BuildingBlock: AZAVOO_clean_linker_0, # of connection points: 4
#     Node 1, Type 0, BuildingBlock: AZAVOO_clean_linker_0, # of connection points: 4
#     Node 2, Type 0, BuildingBlock: AZAVOO_clean_linker_0, # of connection points: 4
#     Node 3, Type 0, BuildingBlock: AZAVOO_clean_linker_0, # of connection points: 4
#     Node 4, Type 0, BuildingBlock: AZAVOO_clean_linker_0, # of connection points: 4
#     Node 5, Type 0, BuildingBlock: AZAVOO_clean_linker_0, # of connection points: 4
#     Node 6, Type 0, BuildingBlock: AZAVOO_clean_linker_0, # of connection points: 4
#     Node 7, Type 0, BuildingBlock: AZAVOO_clean_linker_0, # of connection points: 4
#     Node 8, Type 1, BuildingBlock: VETTIZ_charged_sbu_0, # of connection points: 8
#     Node 9, Type 1, BuildingBlock: VETTIZ_charged_sbu_0, # of connection points: 8
#     Node 10, Type 1, BuildingBlock: VETTIZ_charged_sbu_0, # of connection points: 8
#     Node 11, Type 1, BuildingBlock: VETTIZ_charged_sbu_0, # of connection points: 8
#     Edge 12, Type (0, 1), BuildingBlock: UVAHIK_clean_linker_0, # of connection points: 2
#     Edge 13, Type (0, 1), BuildingBlock: UVAHIK_clean_linker_0, # of connection points: 2
#     Edge 14, Type (0, 1), BuildingBlock: UVAHIK_clean_linker_0, # of connection points: 2
#     Edge 15, Type (0, 1), BuildingBlock: UVAHIK_clean_linker_0, # of connection points: 2
#     Edge 16, Type (0, 1), BuildingBlock: UVAHIK_clean_linker_0, # of connection points: 2
#     Edge 17, Type (0, 1), BuildingBlock: UVAHIK_clean_linker_0, # of connection points: 2
#     Edge 18, Type (0, 1), BuildingBlock: UVAHIK_clean_linker_0, # of connection points: 2
#     Edge 19, Type (0, 1), BuildingBlock: UVAHIK_clean_linker_0, # of connection points: 2
#     Edge 20, Type (0, 1), BuildingBlock: UVAHIK_clean_linker_0, # of connection points: 2
#     Edge 21, Type (0, 1), BuildingBlock: UVAHIK_clean_linker_0, # of connection points: 2
#     Edge 22, Type (0, 1), BuildingBlock: UVAHIK_clean_linker_0, # of connection points: 2
#     Edge 23, Type (0, 1), BuildingBlock: UVAHIK_clean_linker_0, # of connection points: 2
#     Edge 24, Type (0, 1), BuildingBlock: UVAHIK_clean_linker_0, # of connection points: 2
#     Edge 25, Type (0, 1), BuildingBlock: UVAHIK_clean_linker_0, # of connection points: 2
#     Edge 26, Type (0, 1), BuildingBlock: UVAHIK_clean_linker_0, # of connection points: 2
#     Edge 27, Type (0, 1), BuildingBlock: UVAHIK_clean_linker_0, # of connection points: 2
#     Edge 28, Type (0, 1), BuildingBlock: UVAHIK_clean_linker_0, # of connection points: 2
#     Edge 29, Type (0, 1), BuildingBlock: UVAHIK_clean_linker_0, # of connection points: 2
#     Edge 30, Type (0, 1), BuildingBlock: UVAHIK_clean_linker_0, # of connection points: 2
#     Edge 31, Type (0, 1), BuildingBlock: UVAHIK_clean_linker_0, # of connection points: 2
#     Edge 32, Type (0, 1), BuildingBlock: UVAHIK_clean_linker_0, # of connection points: 2
#     Edge 33, Type (0, 1), BuildingBlock: UVAHIK_clean_linker_0, # of connection points: 2
#     Edge 34, Type (0, 1), BuildingBlock: UVAHIK_clean_linker_0, # of connection points: 2
#     Edge 35, Type (0, 1), BuildingBlock: UVAHIK_clean_linker_0, # of connection points: 2
#     Edge 36, Type (0, 1), BuildingBlock: UVAHIK_clean_linker_0, # of connection points: 2
#     Edge 37, Type (0, 1), BuildingBlock: UVAHIK_clean_linker_0, # of connection points: 2
#     Edge 38, Type (0, 1), BuildingBlock: UVAHIK_clean_linker_0, # of connection points: 2
#     Edge 39, Type (0, 1), BuildingBlock: UVAHIK_clean_linker_0, # of connection points: 2
#     Edge 40, Type (0, 1), BuildingBlock: UVAHIK_clean_linker_0, # of connection points: 2
#     Edge 41, Type (0, 1), BuildingBlock: UVAHIK_clean_linker_0, # of connection points: 2
#     Edge 42, Type (0, 1), BuildingBlock: UVAHIK_clean_linker_0, # of connection points: 2
#     Edge 43, Type (0, 1), BuildingBlock: UVAHIK_clean_linker_0, # of connection points: 2
# Relax obj value: 0.160
# Max RMSD: 0.277
# Mean RMSD: 0.234
data_MOF--net-sqc--node1-VETTIZ_charged_sbu_0--node2-AZAVOO_clean_linker_0--edge1-UVAHIK_clean_linker_0
_symmetry_space_group_name_H-M    P1
_symmetry_Int_Tables_number       1
_symmetry_cell_setting            triclinic
loop_
_symmetry_equiv_pos_as_xyz
'x, y, z'
_cell_length_a     32.741343
_cell_length_b     32.804259
_cell_length_c     110.8324
_cell_angle_alpha  90.663904
_cell_angle_beta   90.115678
_cell_angle_gamma 90.431968
loop_
_atom_site_label
_atom_site_type_symbol
_atom_site_fract_x
_atom_site_fract_y
_atom_site_fract_z
_atom_type_partial_charge
H0 H 0.03182 0.14489 0.61666 0.0
H1 H 0.75846 0.86488 0.5386 0.0
H2 H 0.06188 0.08654 0.55363 0.0
H3 H 0.12757 0.11347 0.56071 0.0
H4 H 0.16918 0.99038 0.5666 0.0
H5 H 0.10395 0.96394 0.55895 0.0
H6 H 0.97974 0.08579 0.56903 0.0
H7 H 0.99469 0.12055 0.58821 0.0
H8 H 0.06543 0.01686 0.59951 0.0
H9 H 0.04988 0.98231 0.58033 0.0
H10 H 0.90078 0.04563 0.55615 0.0
H11 H 0.84136 0.05232 0.5693 0.0
H12 H 0.895 0.96767 0.59424 0.0
H13 H 0.95442 0.96059 0.58084 0.0
H14 H 0.90274 0.00759 0.53196 0.0
H15 H 0.83587 0.97936 0.52639 0.0
H16 H 0.85275 0.88228 0.55196 0.0
H17 H 0.91999 0.91042 0.55726 0.0
H18 H 0.98035 0.00945 0.51744 0.0
H19 H 0.93901 0.98301 0.50066 0.0
H20 H 0.9314 0.86606 0.51814 0.0
H21 H 0.9741 0.8923 0.53454 0.0
H22 H 0.06351 0.0533 0.53014 0.0
H23 H 0.11793 0.05231 0.51502 0.0
H24 H 0.12029 0.92081 0.51652 0.0
H25 H 0.06625 0.9221 0.53179 0.0
O26 O 0.026 0.13047 0.60919 0.0
O27 O 0.06201 0.07638 0.61457 0.0
O28 O 0.77807 0.92673 0.52743 0.0
O29 O 0.78462 0.87692 0.54072 0.0
C30 C 0.03687 0.00743 0.55288 0.0
C31 C 0.00539 0.01105 0.56155 0.0
C32 C 0.96583 0.99617 0.55889 0.0
C33 C 0.95807 0.97658 0.54771 0.0
C34 C 0.98965 0.97246 0.53908 0.0
C35 C 0.02886 0.9888 0.54153 0.0
C36 C 0.07825 0.02336 0.55581 0.0
C37 C 0.08556 0.06548 0.55624 0.0
C38 C 0.12299 0.08075 0.5604 0.0
C39 C 0.15362 0.05416 0.56439 0.0
C40 C 0.14661 0.01181 0.56348 0.0
C41 C 0.10929 0.99658 0.55917 0.0
C42 C 0.0137 0.03157 0.57332 0.0
C43 C 0.99824 0.07058 0.5757 0.0
C44 C 0.00693 0.09038 0.58664 0.0
C45 C 0.0313 0.0715 0.59539 0.0
C46 C 0.04659 0.03227 0.59297 0.0
C47 C 0.03779 0.01248 0.58203 0.0
C48 C 0.93174 0.00244 0.56751 0.0
C49 C 0.89972 0.02852 0.56445 0.0
C50 C 0.86574 0.0321 0.57193 0.0
C51 C 0.86335 0.01004 0.5827 0.0
C52 C 0.89609 0.98493 0.58597 0.0
C53 C 0.92999 0.98097 0.57838 0.0
C54 C 0.91631 0.96083 0.54493 0.0
C55 C 0.89194 0.9802 0.53633 0.0
C56 C 0.85374 0.96405 0.53319 0.0
C57 C 0.83902 0.92845 0.5387 0.0
C58 C 0.8632 0.90965 0.54752 0.0
C59 C 0.90154 0.92572 0.5506 0.0
C60 C 0.9797 0.95294 0.52727 0.0
C61 C 0.97156 0.97754 0.51732 0.0
C62 C 0.94733 0.96253 0.50784 0.0
C63 C 0.93079 0.92281 0.50825 0.0
C64 C 0.94348 0.89677 0.51751 0.0
C65 C 0.96804 0.91169 0.52691 0.0
C66 C 0.06111 0.98778 0.53213 0.0
C67 C 0.07598 0.0243 0.52726 0.0
C68 C 0.10704 0.0237 0.51864 0.0
C69 C 0.12337 0.9865 0.5146 0.0
C70 C 0.108 0.94991 0.51937 0.0
C71 C 0.07723 0.95057 0.5281 0.0
C72 C 0.04077 0.09277 0.60697 0.0
C73 C 0.79872 0.9108 0.53526 0.0
H74 H 0.3293 0.65424 0.72957 0.0
H75 H 0.31321 0.01578 0.821 0.0
H76 H 0.23426 0.66618 0.78884 0.0
H77 H 0.24567 0.60533 0.77641 0.0
H78 H 0.36426 0.59104 0.79292 0.0
H79 H 0.35221 0.65167 0.80544 0.0
H80 H 0.26053 0.73524 0.77213 0.0
H81 H 0.2791 0.7056 0.75253 0.0
H82 H 0.39737 0.67351 0.76688 0.0
H83 H 0.37845 0.70351 0.78638 0.0
H84 H 0.26123 0.83089 0.78238 0.0
H85 H 0.28793 0.88427 0.76931 0.0
H86 H 0.41087 0.84213 0.77579 0.0
H87 H 0.38378 0.78974 0.78921 0.0
H88 H 0.22235 0.83701 0.80902 0.0
H89 H 0.21728 0.90985 0.81372 0.0
H90 H 0.3491 0.91879 0.81489 0.0
H91 H 0.35369 0.84576 0.8104 0.0
H92 H 0.20279 0.76154 0.82533 0.0
H93 H 0.17682 0.80678 0.84116 0.0
H94 H 0.29988 0.85067 0.84789 0.0
H95 H 0.32537 0.80308 0.83283 0.0
H96 H 0.2135 0.67282 0.81535 0.0
H97 H 0.20473 0.6155 0.82907 0.0
H98 H 0.32238 0.64307 0.84515 0.0
H99 H 0.33018 0.70097 0.8316 0.0
O100 O 0.32307 0.66694 0.73726 0.0
O101 O 0.38364 0.65161 0.74503 0.0
O102 O 0.24667 0.98057 0.81859 0.0
O103 O 0.31433 0.98696 0.81912 0.0
C104 C 0.29245 0.70732 0.80152 0.0
C105 C 0.30519 0.73572 0.79281 0.0
C106 C 0.30506 0.77756 0.79558 0.0
C107 C 0.29112 0.79158 0.8069 0.0
C108 C 0.27962 0.76329 0.81585 0.0
C109 C 0.28066 0.72103 0.81315 0.0
C110 C 0.29241 0.66339 0.79804 0.0
C111 C 0.26183 0.64874 0.7902 0.0
C112 C 0.26875 0.61438 0.78294 0.0
C113 C 0.30633 0.59395 0.78344 0.0
C114 C 0.335 0.60603 0.7923 0.0
C115 C 0.32803 0.64051 0.79956 0.0
C116 C 0.31812 0.72137 0.78065 0.0
C117 C 0.29061 0.72225 0.77096 0.0
C118 C 0.30123 0.70512 0.7598 0.0
C119 C 0.33964 0.68696 0.75816 0.0
C120 C 0.36751 0.68713 0.76784 0.0
C121 C 0.35685 0.70432 0.77898 0.0
C122 C 0.32068 0.80683 0.78671 0.0
C123 C 0.29385 0.83306 0.78086 0.0
C124 C 0.30916 0.86324 0.77336 0.0
C125 C 0.35152 0.8673 0.77156 0.0
C126 C 0.37817 0.83994 0.77713 0.0
C127 C 0.3628 0.8099 0.78469 0.0
C128 C 0.28836 0.83615 0.80937 0.0
C129 C 0.25007 0.85477 0.8103 0.0
C130 C 0.24728 0.89637 0.81298 0.0
C131 C 0.28281 0.92016 0.81469 0.0
C132 C 0.32115 0.90139 0.81363 0.0
C133 C 0.32388 0.85973 0.81102 0.0
C134 C 0.26596 0.77921 0.82782 0.0
C135 C 0.22425 0.77952 0.83065 0.0
C136 C 0.20939 0.80626 0.83954 0.0
C137 C 0.2359 0.83377 0.84563 0.0
C138 C 0.2782 0.83022 0.84354 0.0
C139 C 0.29303 0.80283 0.83488 0.0
C140 C 0.27237 0.69084 0.82255 0.0
C141 C 0.23688 0.66687 0.82202 0.0
C142 C 0.2322 0.63397 0.82976 0.0
C143 C 0.26317 0.62443 0.83806 0.0
C144 C 0.29789 0.64979 0.83891 0.0
C145 C 0.30241 0.68281 0.8312 0.0
C146 C 0.35029 0.66749 0.74644 0.0
C147 C 0.28001 0.96434 0.81758 0.0
H148 H 0.51184 0.88444 0.11075 0.0
H149 H 0.77075 0.18627 0.03525 0.0
H150 H 0.47881 0.94638 0.05007 0.0
H151 H 0.41458 0.92059 0.05838 0.0
H152 H 0.37148 0.04423 0.06243 0.0
H153 H 0.43557 0.06959 0.0539 0.0
H154 H 0.56327 0.94737 0.06396 0.0
H155 H 0.54899 0.9113 0.08271 0.0
H156 H 0.47442 0.01198 0.09484 0.0
H157 H 0.48939 0.04791 0.07612 0.0
H158 H 0.64214 0.99109 0.05184 0.0
H159 H 0.69907 0.98291 0.06591 0.0
H160 H 0.63959 0.06334 0.09142 0.0
H161 H 0.58282 0.0717 0.07719 0.0
H162 H 0.64041 0.03012 0.02878 0.0
H163 H 0.7051 0.06321 0.02352 0.0
H164 H 0.67868 0.16124 0.04867 0.0
H165 H 0.61383 0.12798 0.05374 0.0
H166 H 0.5706 0.03331 0.01329 0.0
H167 H 0.6115 0.07001 0.99844 0.0
H168 H 0.5923 0.18235 0.01829 0.0
H169 H 0.5521 0.14521 0.03317 0.0
H170 H 0.47517 0.98227 0.02556 0.0
H171 H 0.4187 0.98424 0.01105 0.0
H172 H 0.41692 0.11557 0.01411 0.0
H173 H 0.47269 0.11335 0.02888 0.0
O174 O 0.51741 0.89939 0.10346 0.0
O175 O 0.47925 0.95187 0.10924 0.0
O176 O 0.75805 0.12079 0.02463 0.0
O177 O 0.74589 0.17201 0.0374 0.0
C178 C 0.50337 0.02565 0.04858 0.0
C179 C 0.53519 0.0215 0.05716 0.0
C180 C 0.57445 0.03743 0.05475 0.0
C181 C 0.58157 0.05854 0.04394 0.0
C182 C 0.54973 0.06318 0.03541 0.0
C183 C 0.51081 0.04588 0.03757 0.0
C184 C 0.46193 0.00984 0.05148 0.0
C185 C 0.45509 0.96778 0.05251 0.0
C186 C 0.4185 0.95317 0.05733 0.0
C187 C 0.38811 0.98038 0.06124 0.0
C188 C 0.39407 0.02241 0.05944 0.0
C189 C 0.4307 0.037 0.05459 0.0
C190 C 0.52734 0.00019 0.06869 0.0
C191 C 0.54409 0.96166 0.07072 0.0
C192 C 0.53577 0.9411 0.08142 0.0
C193 C 0.51049 0.95872 0.09027 0.0
C194 C 0.49397 0.99751 0.08821 0.0
C195 C 0.50243 0.01809 0.07753 0.0
C196 C 0.60841 0.03202 0.06349 0.0
C197 C 0.64153 0.00711 0.06044 0.0
C198 C 0.67406 0.00263 0.06846 0.0
C199 C 0.67389 0.02268 0.07974 0.0
C200 C 0.64044 0.04734 0.08282 0.0
C201 C 0.60805 0.05213 0.07472 0.0
C202 C 0.62245 0.07679 0.04159 0.0
C203 C 0.6488 0.05863 0.03319 0.0
C204 C 0.68569 0.07761 0.0302 0.0
C205 C 0.69699 0.11499 0.03564 0.0
C206 C 0.67088 0.13254 0.04429 0.0
C207 C 0.63393 0.11355 0.04725 0.0
C208 C 0.55863 0.08656 0.02433 0.0
C209 C 0.57349 0.06615 0.01408 0.0
C210 C 0.59709 0.08721 0.00564 0.0
C211 C 0.60594 0.12894 0.00736 0.0
C212 C 0.58672 0.15007 0.01686 0.0
C213 C 0.56322 0.12902 0.02527 0.0
C214 C 0.47816 0.04768 0.02827 0.0
C215 C 0.46257 0.01148 0.02311 0.0
C216 C 0.43031 0.01261 0.01485 0.0
C217 C 0.41347 0.05004 0.01146 0.0
C218 C 0.42962 0.08633 0.01647 0.0
C219 C 0.46151 0.08513 0.02487 0.0
C220 C 0.50136 0.93661 0.10157 0.0
C221 C 0.73554 0.13591 0.03222 0.0
H222 H 0.12604 0.21834 0.23273 0.0
H223 H 0.33182 0.53969 0.31557 0.0
H224 H 0.17162 0.20423 0.29654 0.0
H225 H 0.15786 0.13659 0.28805 0.0
H226 H 0.28755 0.11249 0.2874 0.0
H227 H 0.30097 0.18112 0.29544 0.0
H228 H 0.16087 0.28259 0.28115 0.0
H229 H 0.135 0.26068 0.26137 0.0
H230 H 0.25253 0.20802 0.25309 0.0
H231 H 0.27814 0.23061 0.27284 0.0
H232 H 0.18012 0.36606 0.29355 0.0
H233 H 0.16362 0.41812 0.27871 0.0
H234 H 0.26765 0.38144 0.25736 0.0
H235 H 0.28423 0.32974 0.27239 0.0
H236 H 0.2133 0.3739 0.31924 0.0
H237 H 0.22808 0.44455 0.32519 0.0
H238 H 0.33433 0.4441 0.30207 0.0
H239 H 0.31957 0.37317 0.29636 0.0
H240 H 0.22361 0.30083 0.33389 0.0
H241 H 0.24068 0.34424 0.35135 0.0
H242 H 0.36105 0.36496 0.33664 0.0
H243 H 0.34373 0.32156 0.31927 0.0
H244 H 0.21077 0.20663 0.32461 0.0
H245 H 0.2302 0.15144 0.33826 0.0
H246 H 0.3573 0.17386 0.33013 0.0
H247 H 0.33767 0.22894 0.3166 0.0
O248 O 0.13698 0.22698 0.24047 0.0
O249 O 0.1979 0.2002 0.2367 0.0
O250 O 0.27063 0.51022 0.32524 0.0
O251 O 0.32493 0.51199 0.31323 0.0
C252 C 0.24537 0.2412 0.29931 0.0
C253 C 0.23678 0.27095 0.2905 0.0
C254 C 0.24318 0.3127 0.29316 0.0
C255 C 0.25835 0.32459 0.30459 0.0
C256 C 0.26762 0.29478 0.31331 0.0
C257 C 0.26132 0.25306 0.31068 0.0
C258 C 0.23725 0.19762 0.29649 0.0
C259 C 0.19697 0.18398 0.29479 0.0
C260 C 0.18919 0.14517 0.29001 0.0
C261 C 0.22165 0.1192 0.28694 0.0
C262 C 0.26192 0.13199 0.28949 0.0
C263 C 0.26966 0.171 0.29419 0.0
C264 C 0.22135 0.25822 0.27841 0.0
C265 C 0.18103 0.26656 0.27501 0.0
C266 C 0.16631 0.25389 0.26373 0.0
C267 C 0.19169 0.23255 0.25565 0.0
C268 C 0.23217 0.22437 0.25909 0.0
C269 C 0.24687 0.23718 0.27037 0.0
C270 C 0.23335 0.34414 0.28405 0.0
C271 C 0.19936 0.36935 0.28568 0.0
C272 C 0.18985 0.39887 0.27715 0.0
C273 C 0.21426 0.40387 0.26682 0.0
C274 C 0.24846 0.37862 0.26526 0.0
C275 C 0.25784 0.34894 0.27378 0.0
C276 C 0.26547 0.36845 0.30742 0.0
C277 C 0.23968 0.38918 0.31545 0.0
C278 C 0.2482 0.42951 0.31883 0.0
C279 C 0.28249 0.44994 0.31413 0.0
C280 C 0.30774 0.42926 0.30587 0.0
C281 C 0.29929 0.38884 0.30255 0.0
C282 C 0.2824 0.30835 0.32533 0.0
C283 C 0.25424 0.31328 0.33473 0.0
C284 C 0.26387 0.33838 0.34461 0.0
C285 C 0.30193 0.3584 0.34523 0.0
C286 C 0.33157 0.34976 0.33642 0.0
C287 C 0.3218 0.32492 0.32651 0.0
C288 C 0.27283 0.22173 0.31962 0.0
C289 C 0.2428 0.19983 0.3259 0.0
C290 C 0.25393 0.16847 0.33369 0.0
C291 C 0.29525 0.1582 0.33521 0.0
C292 C 0.32522 0.18079 0.32906 0.0
C293 C 0.3141 0.21238 0.32139 0.0
C294 C 0.17588 0.21888 0.2437 0.0
C295 C 0.29215 0.49252 0.31789 0.0
H296 H 0.87905 0.19201 0.22837 0.0
H297 H 0.77198 0.52399 0.3278 0.0
H298 H 0.74546 0.18202 0.28375 0.0
H299 H 0.76358 0.12085 0.27227 0.0
H300 H 0.87702 0.11387 0.29214 0.0
H301 H 0.85898 0.17587 0.30333 0.0
H302 H 0.77796 0.25484 0.26778 0.0
H303 H 0.81054 0.23136 0.24911 0.0
H304 H 0.92205 0.20909 0.26888 0.0
H305 H 0.88915 0.23304 0.28744 0.0
H306 H 0.76124 0.34687 0.2781 0.0
H307 H 0.78761 0.40337 0.2662 0.0
H308 H 0.9101 0.37672 0.27838 0.0
H309 H 0.88288 0.32144 0.29074 0.0
H310 H 0.71503 0.35443 0.29824 0.0
H311 H 0.70075 0.42458 0.3046 0.0
H312 H 0.81833 0.43108 0.32241 0.0
H313 H 0.83208 0.3608 0.31601 0.0
H314 H 0.68658 0.29408 0.31307 0.0
H315 H 0.65314 0.33445 0.32887 0.0
H316 H 0.76437 0.3342 0.34985 0.0
H317 H 0.79787 0.29414 0.33389 0.0
H318 H 0.69822 0.21153 0.31418 0.0
H319 H 0.67797 0.16556 0.33044 0.0
H320 H 0.805 0.14728 0.33934 0.0
H321 H 0.82495 0.194 0.32327 0.0
O322 O 0.86702 0.20197 0.2358 0.0
O323 O 0.92351 0.19079 0.2464 0.0
O324 O 0.71706 0.49156 0.31566 0.0
O325 O 0.77718 0.49653 0.32495 0.0
C326 C 0.79596 0.22636 0.29814 0.0
C327 C 0.81038 0.25701 0.29033 0.0
C328 C 0.80371 0.29835 0.29317 0.0
C329 C 0.78171 0.30919 0.3036 0.0
C330 C 0.76739 0.27867 0.31143 0.0
C331 C 0.77517 0.23724 0.30882 0.0
C332 C 0.80078 0.18317 0.29441 0.0
C333 C 0.77342 0.16627 0.28597 0.0
C334 C 0.78395 0.13137 0.27938 0.0
C335 C 0.82206 0.11282 0.28116 0.0
C336 C 0.84776 0.12786 0.29042 0.0
C337 C 0.83723 0.16285 0.29697 0.0
C338 C 0.83123 0.24554 0.27892 0.0
C339 C 0.80954 0.24526 0.26801 0.0
C340 C 0.82818 0.23167 0.25739 0.0
C341 C 0.86886 0.21817 0.25751 0.0
C342 C 0.89067 0.2192 0.26847 0.0
C343 C 0.87201 0.23289 0.27907 0.0
C344 C 0.82018 0.33046 0.2853 0.0
C345 C 0.79373 0.35335 0.27818 0.0
C346 C 0.80896 0.38532 0.27131 0.0
C347 C 0.85101 0.39453 0.27134 0.0
C348 C 0.87753 0.37077 0.2783 0.0
C349 C 0.86215 0.33902 0.28527 0.0
C350 C 0.77461 0.35274 0.30664 0.0
C351 C 0.73778 0.37124 0.30342 0.0
C352 C 0.72967 0.41123 0.3071 0.0
C353 C 0.75838 0.43341 0.31405 0.0
C354 C 0.79557 0.41487 0.31708 0.0
C355 C 0.80359 0.37484 0.3134 0.0
C356 C 0.74457 0.29127 0.32237 0.0
C357 C 0.70322 0.30138 0.32129 0.0
C358 C 0.68432 0.32465 0.33025 0.0
C359 C 0.7064 0.3377 0.34048 0.0
C360 C 0.74669 0.32429 0.34207 0.0
C361 C 0.76577 0.30135 0.33301 0.0
C362 C 0.763 0.20584 0.31755 0.0
C363 C 0.7216 0.19731 0.31959 0.0
C364 C 0.71014 0.17133 0.32888 0.0
C365 C 0.74 0.15321 0.33615 0.0
C366 C 0.78148 0.16073 0.33381 0.0
C367 C 0.79288 0.18714 0.32462 0.0
C368 C 0.88826 0.20284 0.24627 0.0
C369 C 0.7495 0.47557 0.31823 0.0
H370 H 0.67425 0.83308 0.72614 0.0
H371 H 0.79236 0.52199 0.82856 0.0
H372 H 0.79954 0.85814 0.78291 0.0
H373 H 0.7803 0.91692 0.77094 0.0
H374 H 0.66478 0.92233 0.78967 0.0
H375 H 0.6842 0.86267 0.80145 0.0
H376 H 0.77479 0.78533 0.76725 0.0
H377 H 0.74309 0.80359 0.74804 0.0
H378 H 0.62678 0.81662 0.76606 0.0
H379 H 0.65888 0.79795 0.78517 0.0
H380 H 0.78113 0.70469 0.77323 0.0
H381 H 0.75966 0.64076 0.76342 0.0
H382 H 0.65419 0.63558 0.78683 0.0
H383 H 0.67519 0.7002 0.7962 0.0
H384 H 0.82977 0.6873 0.79568 0.0
H385 H 0.84836 0.61825 0.80169 0.0
H386 H 0.74125 0.61271 0.8244 0.0
H387 H 0.72293 0.68164 0.81823 0.0
H388 H 0.85747 0.75215 0.81391 0.0
H389 H 0.88985 0.70867 0.82891 0.0
H390 H 0.77725 0.70461 0.84901 0.0
H391 H 0.74461 0.74691 0.83377 0.0
H392 H 0.82253 0.86709 0.80995 0.0
H393 H 0.83107 0.91658 0.82665 0.0
H394 H 0.72817 0.86245 0.84498 0.0
H395 H 0.71898 0.8142 0.82816 0.0
O396 O 0.68603 0.82532 0.73378 0.0
O397 O 0.62708 0.83209 0.7435 0.0
O398 O 0.83886 0.55253 0.81358 0.0
O399 O 0.78512 0.54883 0.82577 0.0
C400 C 0.74986 0.81379 0.79721 0.0
C401 C 0.73887 0.78151 0.78926 0.0
C402 C 0.74559 0.74097 0.79263 0.0
C403 C 0.76559 0.73227 0.80352 0.0
C404 C 0.77626 0.76413 0.81159 0.0
C405 C 0.7667 0.80486 0.80865 0.0
C406 C 0.74346 0.85631 0.79314 0.0
C407 C 0.77077 0.87304 0.78477 0.0
C408 C 0.75955 0.90659 0.77787 0.0
C409 C 0.72069 0.92416 0.7792 0.0
C410 C 0.69464 0.90915 0.78826 0.0
C411 C 0.70594 0.87551 0.79516 0.0
C412 C 0.71905 0.79026 0.77754 0.0
C413 C 0.7424 0.79175 0.76698 0.0
C414 C 0.72424 0.80236 0.75605 0.0
C415 C 0.6824 0.81167 0.75552 0.0
C416 C 0.65906 0.80966 0.76615 0.0
C417 C 0.67725 0.79893 0.77706 0.0
C418 C 0.72941 0.70691 0.78528 0.0
C419 C 0.75283 0.6902 0.77595 0.0
C420 C 0.74084 0.65348 0.77053 0.0
C421 C 0.70553 0.63291 0.77449 0.0
C422 C 0.68131 0.65084 0.78352 0.0
C423 C 0.69317 0.68767 0.78886 0.0
C424 C 0.77514 0.68938 0.80657 0.0
C425 C 0.81021 0.67091 0.80186 0.0
C426 C 0.82079 0.63156 0.80534 0.0
C427 C 0.79637 0.61003 0.81358 0.0
C428 C 0.76078 0.62846 0.81808 0.0
C429 C 0.7502 0.66777 0.81456 0.0
C430 C 0.79877 0.75333 0.82278 0.0
C431 C 0.84034 0.74363 0.82185 0.0
C432 C 0.85864 0.71832 0.83034 0.0
C433 C 0.8359 0.70301 0.84005 0.0
C434 C 0.79555 0.71626 0.84167 0.0
C435 C 0.77699 0.74095 0.83304 0.0
C436 C 0.77055 0.83688 0.818 0.0
C437 C 0.80158 0.86641 0.8175 0.0
C438 C 0.80636 0.89448 0.82699 0.0
C439 C 0.78044 0.8928 0.83708 0.0
C440 C 0.74875 0.86389 0.83735 0.0
C441 C 0.74358 0.83642 0.8278 0.0
C442 C 0.66336 0.82362 0.74393 0.0
C443 C 0.80815 0.56873 0.81759 0.0
H444 H 0.46264 0.4788 0.96573 0.0
H445 H 0.76361 0.47735 0.07532 0.0
H446 H 0.4619 0.59153 0.02239 0.0
H447 H 0.40082 0.59362 0.00966 0.0
H448 H 0.34541 0.49874 0.0309 0.0
H449 H 0.40729 0.49596 0.04348 0.0
H450 H 0.53309 0.54821 0.01002 0.0
H451 H 0.51107 0.52728 0.98975 0.0
H452 H 0.43678 0.43161 0.00514 0.0
H453 H 0.45953 0.45249 0.02534 0.0
H454 H 0.6132 0.54969 0.02489 0.0
H455 H 0.66708 0.51912 0.0126 0.0
H456 H 0.60958 0.4009 0.01619 0.0
H457 H 0.5558 0.43182 0.02866 0.0
H458 H 0.61925 0.58537 0.04795 0.0
H459 H 0.68793 0.58126 0.05657 0.0
H460 H 0.66657 0.45422 0.06467 0.0
H461 H 0.59769 0.45898 0.05616 0.0
H462 H 0.54654 0.62368 0.05886 0.0
H463 H 0.59637 0.65011 0.07326 0.0
H464 H 0.59763 0.53328 0.09099 0.0
H465 H 0.54921 0.50664 0.07602 0.0
H466 H 0.43996 0.61385 0.04982 0.0
H467 H 0.38127 0.62861 0.06286 0.0
H468 H 0.4091 0.52284 0.08414 0.0
H469 H 0.46699 0.50787 0.07099 0.0
O470 O 0.47157 0.48607 0.9738 0.0
O471 O 0.4335 0.43769 0.98219 0.0
O472 O 0.74628 0.54499 0.06727 0.0
O473 O 0.73692 0.47957 0.07162 0.0
C474 C 0.47982 0.53486 0.03895 0.0
C475 C 0.50941 0.51612 0.03147 0.0
C476 C 0.5497 0.51146 0.03566 0.0
C477 C 0.56066 0.52609 0.04723 0.0
C478 C 0.53089 0.54397 0.05483 0.0
C479 C 0.49008 0.54719 0.05085 0.0
C480 C 0.43905 0.54335 0.03376 0.0
C481 C 0.43607 0.57211 0.02454 0.0
C482 C 0.40134 0.57325 0.01728 0.0
C483 C 0.3688 0.54619 0.01931 0.0
C484 C 0.37016 0.52006 0.02926 0.0
C485 C 0.40531 0.51848 0.03643 0.0
C486 C 0.49799 0.50178 0.01913 0.0
C487 C 0.51247 0.52243 0.00897 0.0
C488 C 0.49966 0.51054 0.99741 0.0
C489 C 0.47206 0.47784 0.99582 0.0
C490 C 0.45801 0.45694 0.00604 0.0
C491 C 0.47097 0.46876 0.01759 0.0
C492 C 0.58102 0.49284 0.02777 0.0
C493 C 0.61235 0.51718 0.02306 0.0
C494 C 0.64302 0.49969 0.01607 0.0
C495 C 0.64262 0.4576 0.01356 0.0
C496 C 0.61048 0.43342 0.01798 0.0
C497 C 0.57993 0.45095 0.02509 0.0
C498 C 0.60353 0.52253 0.0515 0.0
C499 C 0.62957 0.55665 0.05155 0.0
C500 C 0.66876 0.55421 0.05648 0.0
C501 C 0.6827 0.51742 0.06136 0.0
C502 C 0.65677 0.48303 0.06102 0.0
C503 C 0.61751 0.48558 0.05612 0.0
C504 C 0.54465 0.56317 0.06631 0.0
C505 C 0.55607 0.6044 0.06621 0.0
C506 C 0.58491 0.6194 0.07446 0.0
C507 C 0.60221 0.59346 0.0831 0.0
C508 C 0.58611 0.55372 0.0842 0.0
C509 C 0.55771 0.53861 0.07582 0.0
C510 C 0.45767 0.55969 0.05943 0.0
C511 C 0.43347 0.59404 0.05734 0.0
C512 C 0.39993 0.60231 0.06474 0.0
C513 C 0.39053 0.57671 0.07446 0.0
C514 C 0.41578 0.54326 0.07678 0.0
C515 C 0.44892 0.53475 0.0693 0.0
C516 C 0.45782 0.46585 0.98356 0.0
C517 C 0.72391 0.51497 0.06689 0.0
H518 H 0.93435 0.3664 0.61085 0.0
H519 H 0.27984 0.57513 0.53882 0.0
H520 H 0.92005 0.46016 0.54234 0.0
H521 H 0.851 0.44432 0.54893 0.0
H522 H 0.86203 0.53727 0.57687 0.0
H523 H 0.92886 0.55596 0.56913 0.0
H524 H 0.98414 0.42334 0.56324 0.0
H525 H 0.96222 0.38832 0.58153 0.0
H526 H 0.97192 0.50192 0.60158 0.0
H527 H 0.99351 0.53654 0.58318 0.0
H528 H 0.09456 0.4428 0.55701 0.0
H529 H 0.1527 0.42787 0.57001 0.0
H530 H 0.12386 0.53299 0.59227 0.0
H531 H 0.0675 0.54901 0.57869 0.0
H532 H 0.1018 0.47717 0.5318 0.0
H533 H 0.17435 0.48402 0.52688 0.0
H534 H 0.18357 0.58821 0.55103 0.0
H535 H 0.1109 0.58115 0.5558 0.0
H536 H 0.0266 0.49654 0.51683 0.0
H537 H 0.07123 0.5122 0.49971 0.0
H538 H 0.10661 0.62548 0.51704 0.0
H539 H 0.0613 0.61026 0.53398 0.0
H540 H 0.94509 0.48908 0.52357 0.0
H541 H 0.89101 0.51366 0.51017 0.0
H542 H 0.9041 0.63437 0.52572 0.0
H543 H 0.95726 0.60924 0.53937 0.0
O544 O 0.94316 0.38081 0.60374 0.0
O545 O 0.94873 0.43995 0.61364 0.0
O546 O 0.24467 0.51816 0.52825 0.0
O547 O 0.25123 0.57146 0.5407 0.0
C548 C 0.97325 0.51525 0.55226 0.0
C549 C 0.00314 0.50327 0.56073 0.0
C550 C 0.04495 0.50869 0.55816 0.0
C551 C 0.057 0.52473 0.54697 0.0
C552 C 0.02722 0.53639 0.53844 0.0
C553 C 0.98536 0.5321 0.54112 0.0
C554 C 0.92938 0.50945 0.55518 0.0
C555 C 0.90673 0.47826 0.54952 0.0
C556 C 0.86747 0.46861 0.55354 0.0
C557 C 0.85069 0.48878 0.56366 0.0
C558 C 0.87311 0.52122 0.56897 0.0
C559 C 0.91174 0.53178 0.56464 0.0
C560 C 0.9907 0.48231 0.57194 0.0
C561 C 0.98164 0.44051 0.57161 0.0
C562 C 0.96909 0.42063 0.58206 0.0
C563 C 0.9654 0.4423 0.59303 0.0
C564 C 0.97456 0.4843 0.59329 0.0
C565 C 0.98707 0.50412 0.58282 0.0
C566 C 0.0766 0.4967 0.567 0.0
C567 C 0.10065 0.46229 0.56478 0.0
C568 C 0.13378 0.45377 0.57226 0.0
C569 C 0.14315 0.47923 0.58223 0.0
C570 C 0.11808 0.51308 0.58459 0.0
C571 C 0.08535 0.52191 0.57697 0.0
C572 C 0.10116 0.52877 0.54411 0.0
C573 C 0.11957 0.50148 0.53599 0.0
C574 C 0.16101 0.50539 0.53324 0.0
C575 C 0.18477 0.53669 0.53857 0.0
C576 C 0.16618 0.5638 0.54676 0.0
C577 C 0.12472 0.55984 0.54951 0.0
C578 C 0.04096 0.5522 0.52665 0.0
C579 C 0.04218 0.52578 0.51661 0.0
C580 C 0.06775 0.53462 0.50688 0.0
C581 C 0.09235 0.56981 0.50719 0.0
C582 C 0.08772 0.59823 0.51664 0.0
C583 C 0.0618 0.58966 0.52627 0.0
C584 C 0.9544 0.54725 0.53257 0.0
C585 C 0.93603 0.52073 0.52413 0.0
C586 C 0.90535 0.53479 0.51649 0.0
C587 C 0.89338 0.57582 0.51699 0.0
C588 C 0.91292 0.60265 0.52515 0.0
C589 C 0.94307 0.58836 0.53295 0.0
C590 C 0.95195 0.42111 0.60411 0.0
C591 C 0.22866 0.54137 0.53551 0.0
Fe592 Fe 0.02898 0.77973 0.18432 0.0
O593 O 0.06162 0.80562 0.17131 0.0
Fe594 Fe 0.93436 0.76274 0.1713 0.0
Fe595 Fe 0.12132 0.80036 0.17065 0.0
O596 O 0.99392 0.7591 0.17086 0.0
O597 O 0.99385 0.75914 0.16971 0.0
O598 O 0.06155 0.80564 0.17013 0.0
Fe599 Fe 0.02616 0.78514 0.15655 0.0
C600 C 0.09908 0.83261 0.19546 0.0
O601 O 0.0623 0.72748 0.18312 0.0
O602 O 0.12467 0.754 0.18332 0.0
O603 O 0.98385 0.75994 0.14411 0.0
O604 O 0.93678 0.72617 0.15604 0.0
O605 O 0.9415 0.71865 0.18417 0.0
O606 O 0.99105 0.7483 0.1963 0.0
O607 O 0.12314 0.75701 0.15719 0.0
O608 O 0.05972 0.73267 0.15456 0.0
C609 C 0.96236 0.72145 0.19414 0.0
O610 O 0.99202 0.83765 0.15748 0.0
O611 O 0.92946 0.8109 0.15971 0.0
O612 O 0.06977 0.80597 0.19692 0.0
O613 O 0.1178 0.8392 0.18533 0.0
C614 C 0.09993 0.72496 0.18564 0.0
C615 C 0.09825 0.72981 0.15336 0.0
C616 C 0.09713 0.83944 0.14671 0.0
O617 O 0.11689 0.84242 0.1569 0.0
O618 O 0.06584 0.8154 0.14463 0.0
C619 C 0.95385 0.73415 0.14575 0.0
O620 O 0.9331 0.80362 0.18566 0.0
O621 O 0.99504 0.83166 0.18612 0.0
C622 C 0.95324 0.84004 0.15677 0.0
C623 C 0.95748 0.83211 0.18895 0.0
Fe624 Fe 0.47453 0.76727 0.45283 0.0
O625 O 0.47545 0.76671 0.43513 0.0
Fe626 Fe 0.50309 0.81536 0.42617 0.0
Fe627 Fe 0.50125 0.72166 0.42572 0.0
O628 O 0.47473 0.77066 0.43504 0.0
O629 O 0.52811 0.77 0.41662 0.0
O630 O 0.52869 0.76632 0.41669 0.0
Fe631 Fe 0.53074 0.7683 0.39902 0.0
C632 C 0.54885 0.71481 0.44859 0.0
O633 O 0.43247 0.72147 0.44977 0.0
O634 O 0.46747 0.68033 0.43625 0.0
O635 O 0.48819 0.81353 0.39692 0.0
O636 O 0.45469 0.82062 0.41432 0.0
O637 O 0.47244 0.85738 0.43746 0.0
O638 O 0.43668 0.81649 0.45072 0.0
O639 O 0.45274 0.72135 0.41405 0.0
O640 O 0.48536 0.72474 0.39648 0.0
C641 C 0.44331 0.85063 0.44522 0.0
O642 O 0.572 0.81557 0.40204 0.0
O643 O 0.53739 0.85593 0.41582 0.0
O644 O 0.5165 0.72095 0.45465 0.0
O645 O 0.5503 0.72064 0.4373 0.0
C646 C 0.438 0.68753 0.44386 0.0
C647 C 0.45493 0.71346 0.40282 0.0
C648 C 0.5604 0.68466 0.4065 0.0
O649 O 0.53234 0.67974 0.4147 0.0
O650 O 0.56909 0.7191 0.40135 0.0
C651 C 0.45806 0.82683 0.40303 0.0
O652 O 0.55196 0.81286 0.4376 0.0
O653 O 0.5218 0.8089 0.45551 0.0
C654 C 0.56613 0.84968 0.40791 0.0
C655 C 0.55317 0.81554 0.44901 0.0
Fe656 Fe 0.51354 0.26015 0.68662 0.0
O657 O 0.54564 0.28605 0.67346 0.0
Fe658 Fe 0.41912 0.2401 0.67367 0.0
Fe659 Fe 0.60549 0.28252 0.67255 0.0
O660 O 0.47883 0.23744 0.67336 0.0
O661 O 0.4788 0.23733 0.67231 0.0
O662 O 0.54559 0.28593 0.67234 0.0
Fe663 Fe 0.51124 0.26227 0.65903 0.0
C664 C 0.58318 0.31388 0.69745 0.0
O665 O 0.54861 0.20863 0.68598 0.0
O666 O 0.61046 0.23658 0.68528 0.0
O667 O 0.47077 0.23407 0.64677 0.0
O668 O 0.42237 0.20209 0.65861 0.0
O669 O 0.42693 0.19754 0.68695 0.0
O670 O 0.47631 0.22909 0.69877 0.0
O671 O 0.60805 0.23992 0.65887 0.0
O672 O 0.54659 0.21045 0.65801 0.0
C673 C 0.44803 0.20166 0.69685 0.0
O674 O 0.47587 0.31391 0.65909 0.0
O675 O 0.41359 0.28693 0.66166 0.0
O676 O 0.55355 0.28781 0.69897 0.0
O677 O 0.60178 0.32093 0.68732 0.0
C678 C 0.58648 0.20779 0.68842 0.0
C679 C 0.58458 0.21074 0.65564 0.0
C680 C 0.57944 0.31849 0.6486 0.0
O681 O 0.59908 0.32414 0.65873 0.0
O682 O 0.54998 0.29205 0.64685 0.0
C683 C 0.44068 0.20842 0.64837 0.0
O684 O 0.41679 0.28241 0.68773 0.0
O685 O 0.47828 0.31148 0.68807 0.0
C686 C 0.43711 0.31578 0.65836 0.0
C687 C 0.44068 0.31149 0.6909 0.0
Fe688 Fe 0.06097 0.27237 0.95068 0.0
O689 O 0.06163 0.26488 0.93299 0.0
Fe690 Fe 0.03859 0.31344 0.9229 0.0
Fe691 Fe 0.03035 0.22012 0.92469 0.0
O692 O 0.06117 0.26907 0.93302 0.0
O693 O 0.01058 0.26814 0.91395 0.0
O694 O 0.01036 0.26451 0.91403 0.0
Fe695 Fe 0.0109 0.26142 0.89636 0.0
C696 C 0.08732 0.18604 0.94446 0.0
O697 O 0.01207 0.23327 0.95348 0.0
O698 O 0.9809 0.22955 0.93568 0.0
O699 O 0.97674 0.31456 0.89707 0.0
O700 O 0.01127 0.35469 0.91102 0.0
O701 O 0.98824 0.31838 0.93381 0.0
O702 O 0.02074 0.32047 0.95143 0.0
O703 O 0.99319 0.17987 0.91465 0.0
O704 O 0.965 0.2195 0.89964 0.0
C705 C 0.9888 0.32563 0.94509 0.0
O706 O 0.06099 0.29908 0.8939 0.0
O707 O 0.08888 0.30948 0.91209 0.0
O708 O 0.09635 0.22106 0.94942 0.0
O709 O 0.05719 0.17915 0.93694 0.0
C710 C 0.97987 0.22875 0.94713 0.0
C711 C 0.96602 0.18703 0.90631 0.0
C712 C 0.07671 0.19767 0.90253 0.0
O713 O 0.07915 0.20776 0.91362 0.0
O714 O 0.04902 0.21147 0.89563 0.0
C715 C 0.98541 0.34951 0.90217 0.0
O716 O 0.07157 0.35564 0.93361 0.0
O717 O 0.10523 0.31596 0.94748 0.0
C718 C 0.09077 0.31012 0.90065 0.0
C719 C 0.09997 0.34962 0.94163 0.0
C720 C 0.19031 0.01231 0.50657 0.0
C721 C 0.15651 0.9858 0.50549 0.0
C722 C 0.22236 0.01034 0.49825 0.0
C723 C 0.24965 0.97139 0.46785 0.0
H724 H 0.35829 0.95954 0.48127 0.0
C725 C 0.37206 0.8739 0.44597 0.0
C726 C 0.41356 0.88283 0.44775 0.0
C727 C 0.3422 0.89915 0.45085 0.0
C728 C 0.32843 0.9639 0.47729 0.0
H729 H 0.12909 0.93749 0.49464 0.0
H730 H 0.18499 0.93387 0.48016 0.0
H731 H 0.30208 0.97945 0.49438 0.0
H732 H 0.45691 0.92599 0.45541 0.0
H733 H 0.40433 0.97074 0.46407 0.0
H734 H 0.27565 0.95433 0.45084 0.0
C735 C 0.18671 0.95631 0.48739 0.0
C736 C 0.29613 0.97516 0.48483 0.0
C737 C 0.15492 0.95802 0.49576 0.0
C738 C 0.42496 0.91887 0.45384 0.0
C739 C 0.39491 0.94413 0.45887 0.0
C740 C 0.28194 0.96036 0.46029 0.0
C741 C 0.22099 0.98214 0.48861 0.0
C742 C 0.25614 0.97746 0.48027 0.0
C743 C 0.35321 0.93373 0.45776 0.0
C744 C 0.3214 0.95485 0.46502 0.0
H745 H 0.19246 0.03388 0.51402 0.0
H746 H 0.24833 0.03067 0.4994 0.0
H747 H 0.21927 0.97375 0.46403 0.0
H748 H 0.36272 0.84601 0.44137 0.0
H749 H 0.31054 0.88979 0.44994 0.0
C750 C 0.40143 0.92439 0.76861 0.0
C751 C 0.36766 0.90149 0.76443 0.0
C752 C 0.41384 0.95938 0.76255 0.0
C753 C 0.37129 0.0386 0.74412 0.0
H754 H 0.48124 0.05887 0.73256 0.0
C755 C 0.40437 0.14812 0.70611 0.0
C756 C 0.43969 0.17259 0.70657 0.0
C757 C 0.3974 0.11894 0.71487 0.0
C758 C 0.45063 0.05401 0.73597 0.0
H759 H 0.32209 0.89562 0.75027 0.0
H760 H 0.34337 0.95717 0.73982 0.0
H761 H 0.46697 0.9981 0.74452 0.0
H762 H 0.49525 0.18606 0.71666 0.0
H763 H 0.48277 0.13481 0.73205 0.0
H764 H 0.35458 0.0939 0.73551 0.0
C765 C 0.3598 0.94826 0.74786 0.0
C766 C 0.44251 0.01927 0.74274 0.0
C767 C 0.34764 0.91318 0.75383 0.0
C768 C 0.4676 0.16778 0.7161 0.0
C769 C 0.46066 0.13834 0.72487 0.0
C770 C 0.37942 0.07336 0.73747 0.0
C771 C 0.39237 0.97203 0.75232 0.0
C772 C 0.4025 0.01078 0.7465 0.0
C773 C 0.42557 0.11357 0.72427 0.0
C774 C 0.41883 0.08065 0.73299 0.0
H775 H 0.41718 0.91627 0.77683 0.0
H776 H 0.43907 0.9774 0.76612 0.0
H777 H 0.34037 0.03294 0.74718 0.0
H778 H 0.38224 0.15108 0.6989 0.0
H779 H 0.37043 0.09975 0.71407 0.0
C780 C 0.37937 0.07858 0.9932 0.0
C781 C 0.3788 0.05125 0.00285 0.0
C782 C 0.34625 0.08057 0.98526 0.0
C783 C 0.23636 0.06514 0.98402 0.0
H784 H 0.25189 0.07802 0.9496 0.0
C785 C 0.10434 0.11971 0.95414 0.0
C786 C 0.11594 0.15311 0.94712 0.0
C787 C 0.13429 0.09465 0.95918 0.0
C788 C 0.24696 0.07436 0.95919 0.0
H789 H 0.34327 0.00447 0.01177 0.0
H790 H 0.28491 0.00845 0.99796 0.0
H791 H 0.30971 0.05957 0.9623 0.0
H792 H 0.16683 0.18529 0.93913 0.0
H793 H 0.21879 0.14203 0.94776 0.0
H794 H 0.1743 0.08237 0.98109 0.0
C795 C 0.31117 0.02804 0.9965 0.0
C796 C 0.28009 0.06381 0.96645 0.0
C797 C 0.34459 0.02565 0.00435 0.0
C798 C 0.15731 0.1594 0.94446 0.0
C799 C 0.18705 0.13442 0.94939 0.0
C800 C 0.20327 0.07611 0.97678 0.0
C801 C 0.31164 0.05562 0.9869 0.0
C802 C 0.27541 0.06038 0.97899 0.0
C803 C 0.17611 0.10267 0.95719 0.0
C804 C 0.20851 0.08228 0.96433 0.0
H805 H 0.40546 0.09845 0.99179 0.0
H806 H 0.34726 0.1025 0.97803 0.0
H807 H 0.2319 0.06287 0.99367 0.0
H808 H 0.07252 0.1147 0.95639 0.0
H809 H 0.12484 0.07019 0.96505 0.0
C810 C 0.23848 0.07215 0.26978 0.0
C811 C 0.21359 0.08152 0.27974 0.0
C812 C 0.22762 0.0408 0.26178 0.0
C813 C 0.16024 0.95112 0.25688 0.0
H814 H 0.16864 0.98354 0.22343 0.0
C815 C 0.08867 0.85971 0.21656 0.0
C816 C 0.11268 0.85699 0.20607 0.0
C817 C 0.10118 0.88445 0.22629 0.0
C818 C 0.16652 0.97378 0.23271 0.0
H819 H 0.15927 0.06337 0.28955 0.0
H820 H 0.13985 0.00894 0.27537 0.0
H821 H 0.19156 0.03003 0.23928 0.0
H822 H 0.16944 0.87685 0.1978 0.0
H823 H 0.19119 0.9193 0.21471 0.0
H824 H 0.13483 0.89474 0.25018 0.0
C825 C 0.16785 0.02585 0.27381 0.0
C826 C 0.17974 0.0004 0.2418 0.0
C827 C 0.17879 0.05724 0.28187 0.0
C828 C 0.14985 0.87863 0.20565 0.0
C829 C 0.16232 0.90311 0.21534 0.0
C830 C 0.14697 0.92431 0.24773 0.0
C831 C 0.19151 0.01822 0.26348 0.0
C832 C 0.17717 0.98928 0.25398 0.0
C833 C 0.13789 0.90684 0.22569 0.0
C834 C 0.15039 0.93527 0.23555 0.0
H835 H 0.26525 0.09041 0.26777 0.0
H836 H 0.24688 0.03513 0.25401 0.0
H837 H 0.15791 0.94175 0.26619 0.0
H838 H 0.0598 0.84352 0.21716 0.0
H839 H 0.08159 0.88695 0.23412 0.0
C840 C 0.22916 0.05081 0.56889 0.0
C841 C 0.19137 0.07052 0.57028 0.0
C842 C 0.26371 0.06467 0.57522 0.0
C843 C 0.30631 0.15362 0.5918 0.0
H844 H 0.36358 0.07382 0.61091 0.0
C845 C 0.39756 0.15317 0.63897 0.0
C846 C 0.42375 0.18697 0.63761 0.0
C847 C 0.37734 0.13605 0.62901 0.0
C848 C 0.3481 0.09639 0.60555 0.0
H849 H 0.16067 0.12048 0.57945 0.0
H850 H 0.22088 0.14501 0.59017 0.0
H851 H 0.31181 0.05115 0.59633 0.0
H852 H 0.45076 0.22797 0.62456 0.0
H853 H 0.41507 0.19814 0.60717 0.0
H854 H 0.34127 0.19897 0.60135 0.0
C855 C 0.22388 0.11909 0.5841 0.0
C856 C 0.31872 0.08341 0.59714 0.0
C857 C 0.18933 0.10503 0.5779 0.0
C858 C 0.43077 0.20199 0.62595 0.0
C859 C 0.41019 0.18508 0.61599 0.0
C860 C 0.3359 0.16656 0.60012 0.0
C861 C 0.26129 0.09879 0.58295 0.0
C862 C 0.29669 0.112 0.59044 0.0
C863 C 0.38258 0.15251 0.61747 0.0
C864 C 0.35627 0.13817 0.60733 0.0
H865 H 0.23204 0.02452 0.56297 0.0
H866 H 0.29227 0.04862 0.57411 0.0
H867 H 0.29005 0.17628 0.58667 0.0
H868 H 0.39168 0.14061 0.6478 0.0
H869 H 0.35601 0.1112 0.63047 0.0
C870 C 0.24239 0.88601 0.86261 0.0
C871 C 0.21955 0.86856 0.85305 0.0
C872 C 0.22926 0.92158 0.86852 0.0
C873 C 0.15672 0.00844 0.86446 0.0
H874 H 0.18618 0.03279 0.89764 0.0
C875 C 0.11362 0.16307 0.88559 0.0
C876 C 0.10255 0.16425 0.89781 0.0
C877 C 0.13221 0.12851 0.8806 0.0
C878 C 0.17715 0.02646 0.88841 0.0
H879 H 0.16379 0.87514 0.84259 0.0
H880 H 0.13958 0.93441 0.85342 0.0
H881 H 0.20617 0.96828 0.88859 0.0
H882 H 0.10319 0.13058 0.9145 0.0
H883 H 0.13359 0.06957 0.90576 0.0
H884 H 0.12533 0.06506 0.86446 0.0
C885 C 0.16867 0.92182 0.85607 0.0
C886 C 0.1893 0.98945 0.88311 0.0
C887 C 0.18222 0.88686 0.84998 0.0
C888 C 0.11182 0.13071 0.90506 0.0
C889 C 0.12941 0.09564 0.90001 0.0
C890 C 0.14384 0.04491 0.86982 0.0
C891 C 0.19241 0.94044 0.86523 0.0
C892 C 0.17928 0.97979 0.87104 0.0
C893 C 0.13904 0.09358 0.88761 0.0
C894 C 0.15392 0.05473 0.88188 0.0
H895 H 0.27089 0.87267 0.86546 0.0
H896 H 0.24878 0.9348 0.87544 0.0
H897 H 0.14902 0.003 0.85508 0.0
H898 H 0.10711 0.18864 0.87981 0.0
H899 H 0.1404 0.12907 0.87115 0.0
C900 C 0.35802 0.93571 0.07713 0.0
C901 C 0.35243 0.96541 0.06825 0.0
C902 C 0.3258 0.92408 0.08458 0.0
C903 C 0.21381 0.92461 0.08832 0.0
H904 H 0.24227 0.91587 0.12216 0.0
C905 C 0.11211 0.84699 0.12463 0.0
C906 C 0.11467 0.8624 0.1365 0.0
C907 C 0.13588 0.86412 0.11546 0.0
C908 C 0.23354 0.91868 0.11278 0.0
H909 H 0.308 0.00504 0.05995 0.0
H910 H 0.25156 0.98492 0.07313 0.0
H911 H 0.29426 0.93528 0.10773 0.0
H912 H 0.14089 0.91025 0.14781 0.0
H913 H 0.18135 0.94063 0.13182 0.0
H914 H 0.15279 0.90797 0.0935 0.0
C915 C 0.28099 0.97057 0.07424 0.0
C916 C 0.26357 0.92924 0.10447 0.0
C917 C 0.31338 0.98232 0.06677 0.0
C918 C 0.13878 0.89725 0.1388 0.0
C919 C 0.16214 0.91453 0.12964 0.0
C920 C 0.1836 0.91383 0.09668 0.0
C921 C 0.28713 0.94191 0.0834 0.0
C922 C 0.25425 0.93193 0.09213 0.0
C923 C 0.16237 0.89711 0.118 0.0
C924 C 0.19322 0.91063 0.10902 0.0
H925 H 0.38776 0.92243 0.07865 0.0
H926 H 0.33139 0.90148 0.09143 0.0
H927 H 0.20574 0.92636 0.07886 0.0
H928 H 0.09389 0.82007 0.12259 0.0
H929 H 0.13538 0.84991 0.10659 0.0
C930 C 0.3353 0.0945 0.33839 0.0
C931 C 0.30725 0.12316 0.3428 0.0
C932 C 0.34743 0.06182 0.34548 0.0
C933 C 0.3207 0.00248 0.37294 0.0
H934 H 0.43307 0.96764 0.36974 0.0
C935 C 0.40616 0.88351 0.40337 0.0
C936 C 0.42986 0.85516 0.39687 0.0
C937 C 0.38629 0.91524 0.39735 0.0
C938 C 0.40153 0.97689 0.37069 0.0
H939 H 0.26956 0.13983 0.35809 0.0
H940 H 0.29159 0.08322 0.37068 0.0
H941 H 0.40944 0.0258 0.35838 0.0
H942 H 0.44821 0.83602 0.37886 0.0
H943 H 0.414 0.89104 0.36853 0.0
H944 H 0.31364 0.95354 0.38556 0.0
C945 C 0.30367 0.08553 0.36163 0.0
C946 C 0.38783 0.01015 0.36412 0.0
C947 C 0.29113 0.11808 0.35444 0.0
C948 C 0.43079 0.85759 0.3842 0.0
C949 C 0.41129 0.88921 0.37826 0.0
C950 C 0.33467 0.96933 0.37967 0.0
C951 C 0.3323 0.05712 0.35728 0.0
C952 C 0.34702 0.023 0.36494 0.0
C953 C 0.39003 0.91916 0.38477 0.0
C954 C 0.37505 0.95577 0.37841 0.0
H955 H 0.34763 0.09714 0.32936 0.0
H956 H 0.36859 0.04005 0.34165 0.0
H957 H 0.28902 0.01128 0.37378 0.0
H958 H 0.40484 0.88258 0.41313 0.0
H959 H 0.36996 0.93793 0.40259 0.0
C960 C 0.78755 0.0128 0.5853 0.0
C961 C 0.82677 0.014 0.59046 0.0
C962 C 0.75322 0.02168 0.59227 0.0
C963 C 0.71655 0.04108 0.62366 0.0
H964 H 0.64985 0.12239 0.6081 0.0
C965 C 0.59245 0.1381 0.64851 0.0
C966 C 0.6017 0.17977 0.64742 0.0
C967 C 0.61229 0.10935 0.64114 0.0
C968 C 0.66775 0.09922 0.61251 0.0
H969 H 0.86069 0.02313 0.60708 0.0
H970 H 0.80079 0.0395 0.61925 0.0
H971 H 0.70021 0.08519 0.59635 0.0
H972 H 0.63699 0.22442 0.63752 0.0
H973 H 0.67056 0.17476 0.62458 0.0
H974 H 0.68532 0.05738 0.64002 0.0
C975 C 0.79641 0.03106 0.60986 0.0
C976 C 0.69648 0.07768 0.60577 0.0
C977 C 0.83078 0.02188 0.60289 0.0
C978 C 0.62958 0.1924 0.6386 0.0
C979 C 0.64855 0.16402 0.63113 0.0
C980 C 0.68752 0.06261 0.63041 0.0
C981 C 0.75737 0.03228 0.60454 0.0
C982 C 0.72222 0.04936 0.61134 0.0
C983 C 0.64057 0.12222 0.63241 0.0
C984 C 0.66399 0.09293 0.62496 0.0
H985 H 0.78354 0.00599 0.57578 0.0
H986 H 0.72352 0.02158 0.58795 0.0
H987 H 0.73558 0.01909 0.62818 0.0
H988 H 0.5711 0.12777 0.6553 0.0
H989 H 0.60576 0.07721 0.64228 0.0
C990 C 0.74571 0.08889 0.34784 0.0
C991 C 0.72783 0.12721 0.34632 0.0
C992 C 0.73303 0.06371 0.3572 0.0
C993 C 0.64411 0.04624 0.37669 0.0
H994 H 0.7166 0.96952 0.39208 0.0
C995 C 0.58143 0.92459 0.4083 0.0
C996 C 0.59223 0.88486 0.40469 0.0
C997 C 0.60287 0.95822 0.40394 0.0
C998 C 0.69611 0.99098 0.3879 0.0
H999 H 0.68436 0.17033 0.35363 0.0
H1000 H 0.66266 0.12672 0.37014 0.0
H1001 H 0.74503 0.02228 0.37909 0.0
H1002 H 0.63607 0.84926 0.39443 0.0
H1003 H 0.67323 0.90801 0.38679 0.0
H1004 H 0.59519 0.01449 0.38528 0.0
C1005 C 0.68568 0.11559 0.36395 0.0
C1006 C 0.71229 0.02101 0.38042 0.0
C1007 C 0.69804 0.14054 0.35451 0.0
C1008 C 0.6266 0.87944 0.39728 0.0
C1009 C 0.64818 0.91308 0.39299 0.0
C1010 C 0.62803 0.01651 0.38423 0.0
C1011 C 0.70253 0.07659 0.36528 0.0
C1012 C 0.68633 0.04826 0.37447 0.0
C1013 C 0.6357 0.95277 0.39598 0.0
C1014 C 0.65375 0.98795 0.38965 0.0
H1015 H 0.76862 0.07792 0.34158 0.0
H1016 H 0.74615 0.0336 0.35782 0.0
H1017 H 0.62313 0.06627 0.37213 0.0
H1018 H 0.55532 0.92992 0.41408 0.0
H1019 H 0.59293 0.98856 0.40647 0.0
C1020 C 0.74882 0.01792 0.08426 0.0
C1021 C 0.70819 0.01704 0.08832 0.0
C1022 C 0.781 0.00992 0.09218 0.0
C1023 C 0.80685 -0.00114 0.12478 0.0
H1024 H 0.88882 0.92447 0.11254 0.0
C1025 C 0.89407 0.88612 0.15405 0.0
C1026 C 0.93437 0.87572 0.15107 0.0
C1027 C 0.87261 0.9141 0.14716 0.0
C1028 C 0.86679 0.946 0.11606 0.0
H1029 H 0.66946 0.00784 0.1039 0.0
H1030 H 0.72541 0.99318 0.11767 0.0
H1031 H 0.83875 0.95254 0.09878 0.0
H1032 H 0.9848 0.88833 0.13901 0.0
H1033 H 0.94698 0.93729 0.12681 0.0
H1034 H 0.83389 0.99051 0.14219 0.0
C1035 C 0.73263 0.00089 0.10844 0.0
C1036 C 0.83796 0.96211 0.10816 0.0
C1037 C 0.70048 0.00914 0.10054 0.0
C1038 C 0.95379 0.89591 0.14153 0.0
C1039 C 0.93206 0.92363 0.1345 0.0
C1040 C 0.83558 0.98257 0.13269 0.0
C1041 C 0.77327 0.00061 0.10432 0.0
C1042 C 0.80696 0.9879 0.11247 0.0
C1043 C 0.89084 0.93203 0.13704 0.0
C1044 C 0.8652 0.95512 0.12846 0.0
H1045 H 0.75572 0.02458 0.07493 0.0
H1046 H 0.81194 0.01066 0.08874 0.0
H1047 H 0.78394 0.01931 0.12836 0.0
H1048 H 0.87844 0.87116 0.16141 0.0
H1049 H 0.84085 0.91961 0.14931 0.0
C1050 C 0.79033 0.9623 0.84595 0.0
C1051 C 0.78734 0.92007 0.84753 0.0
C1052 C 0.79851 0.98789 0.85581 0.0
C1053 C 0.85527 0.99003 0.88321 0.0
H1054 H 0.80088 0.09324 0.88857 0.0
C1055 C 0.93456 0.11817 0.91003 0.0
C1056 C 0.93472 0.1553 0.9038 0.0
C1057 C 0.90711 0.08707 0.90678 0.0
C1058 C 0.8163 0.06445 0.88724 0.0
H1059 H 0.78998 0.87116 0.86048 0.0
H1060 H 0.80565 0.9161 0.87774 0.0
H1061 H 0.76949 0.04178 0.87534 0.0
H1062 H 0.90427 0.18966 0.88979 0.0
H1063 H 0.8578 0.13558 0.88396 0.0
H1064 H 0.90376 0.01366 0.89418 0.0
C1065 C 0.80092 0.9293 0.86894 0.0
C1066 C 0.79825 0.03505 0.87972 0.0
C1067 C 0.79199 0.90376 0.85911 0.0
C1068 C 0.90542 0.1614 0.89473 0.0
C1069 C 0.87823 0.13042 0.89148 0.0
C1070 C 0.87366 0.01965 0.89058 0.0
C1071 C 0.80447 0.97151 0.86733 0.0
C1072 C 0.81844 0.99836 0.87727 0.0
C1073 C 0.87935 0.09255 0.89725 0.0
C1074 C 0.85525 0.05791 0.8922 0.0
H1075 H 0.78667 0.97542 0.83709 0.0
H1076 H 0.80175 0.02035 0.85434 0.0
H1077 H 0.87145 0.96193 0.88139 0.0
H1078 H 0.95635 0.11262 0.91718 0.0
H1079 H 0.9084 0.05837 0.91149 0.0
C1080 C 0.89117 0.87054 0.49601 0.0
C1081 C 0.89593 0.91081 0.50032 0.0
C1082 C 0.8557 0.85862 0.48978 0.0
C1083 C 0.76802 0.89954 0.47292 0.0
H1084 H 0.71301 0.79944 0.48206 0.0
C1085 C 0.62561 0.83975 0.44773 0.0
C1086 C 0.59284 0.82578 0.45479 0.0
C1087 C 0.66357 0.84823 0.45295 0.0
C1088 C 0.72799 0.82753 0.47945 0.0
H1089 H 0.8667 0.96993 0.50153 0.0
H1090 H 0.80568 0.94942 0.49051 0.0
H1091 H 0.77844 0.81791 0.49142 0.0
H1092 H 0.57464 0.80891 0.47288 0.0
H1093 H 0.64114 0.82414 0.48205 0.0
H1094 H 0.71741 0.90968 0.46114 0.0
C1095 C 0.82954 0.92718 0.49178 0.0
C1096 C 0.76564 0.83787 0.4847 0.0
C1097 C 0.86476 0.939 0.49804 0.0
C1098 C 0.5991 0.82009 0.46721 0.0
C1099 C 0.63729 0.82838 0.47244 0.0
C1100 C 0.73061 0.88912 0.46763 0.0
C1101 C 0.82439 0.88679 0.48769 0.0
C1102 C 0.78584 0.87422 0.48157 0.0
C1103 C 0.66984 0.84279 0.46536 0.0
C1104 C 0.71001 0.85315 0.47089 0.0
H1105 H 0.91464 0.84811 0.49757 0.0
H1106 H 0.85273 0.82737 0.48662 0.0
H1107 H 0.783 0.92758 0.47025 0.0
H1108 H 0.62203 0.84422 0.43811 0.0
H1109 H 0.68817 0.85876 0.44723 0.0
C1110 C 0.87693 0.08323 0.26808 0.0
C1111 C 0.83676 0.08126 0.27251 0.0
C1112 C 0.89001 0.05613 0.25911 0.0
C1113 C 0.86456 0.9578 0.24397 0.0
H1114 H 0.93299 0.00066 0.21848 0.0
C1115 C 0.90161 0.86411 0.20114 0.0
C1116 C 0.94268 0.86394 0.19744 0.0
C1117 C 0.88834 0.8915 0.21001 0.0
C1118 C 0.91417 0.98818 0.22558 0.0
H1119 H 0.77908 0.04863 0.27115 0.0
H1120 H 0.80164 0.00176 0.2553 0.0
H1121 H 0.91072 0.04567 0.2348 0.0
H1122 H 0.00177 0.89337 0.19998 0.0
H1123 H 0.97846 0.94124 0.21544 0.0
H1124 H 0.86777 0.90038 0.23467 0.0
C1125 C 0.82323 0.02396 0.25889 0.0
C1126 C 0.90148 0.01392 0.23496 0.0
C1127 C 0.81017 0.05103 0.2679 0.0
C1128 C 0.96988 0.89272 0.20256 0.0
C1129 C 0.95653 0.92023 0.21142 0.0
C1130 C 0.87708 0.93212 0.23456 0.0
C1131 C 0.86318 0.0265 0.25428 0.0
C1132 C 0.87661 -0.00098 0.2443 0.0
C1133 C 0.91576 0.91949 0.21537 0.0
C1134 C 0.90207 0.94702 0.22527 0.0
H1135 H 0.89802 0.1066 0.27127 0.0
H1136 H 0.92114 0.05861 0.25591 0.0
H1137 H 0.84594 0.94516 0.2511 0.0
H1138 H 0.87976 0.84253 0.19736 0.0
H1139 H 0.85659 0.89063 0.21273 0.0
C1140 C 0.66936 0.17186 0.00679 0.0
C1141 C 0.63971 0.14856 0.00055 0.0
C1142 C 0.70414 0.18615 0.00089 0.0
C1143 C 0.74941 0.20597 0.971 0.0
H1144 H 0.8516 0.18456 0.98742 0.0
C1145 C 0.90552 0.20976 0.94673 0.0
C1146 C 0.93995 0.22362 0.95322 0.0
C1147 C 0.86778 0.20525 0.95246 0.0
C1148 C 0.82341 0.1915 0.98278 0.0
H1149 H 0.62265 0.12336 0.98308 0.0
H1150 H 0.68362 0.14852 0.9727 0.0
H1151 H 0.78729 0.16921 0.99738 0.0
H1152 H 0.96124 0.24549 0.97069 0.0
H1153 H 0.89535 0.23819 0.98064 0.0
H1154 H 0.78565 0.22819 0.95637 0.0
C1155 C 0.67974 0.15578 0.98219 0.0
C1156 C 0.78648 0.18259 0.98849 0.0
C1157 C 0.64498 0.14116 0.98814 0.0
C1158 C 0.93554 0.23386 0.96549 0.0
C1159 C 0.89773 0.22968 0.9712 0.0
C1160 C 0.78642 0.21517 0.9653 0.0
C1161 C 0.71011 0.17767 0.98857 0.0
C1162 C 0.74907 0.18935 0.98263 0.0
C1163 C 0.86346 0.21482 0.9648 0.0
C1164 C 0.82391 0.2076 0.97107 0.0
H1165 H 0.66662 0.17763 0.0164 0.0
H1166 H 0.72681 0.20321 0.00603 0.0
H1167 H 0.72104 0.21195 0.96632 0.0
H1168 H 0.90781 0.20181 0.93724 0.0
H1169 H 0.84223 0.19327 0.94727 0.0
C1170 C 0.73303 0.98545 0.76605 0.0
C1171 C 0.70629 0.95534 0.77046 0.0
C1172 C 0.72028 0.01253 0.75714 0.0
C1173 C 0.64164 0.02407 0.73314 0.0
H1174 H 0.67805 0.13678 0.73353 0.0
C1175 C 0.57491 0.14583 0.70121 0.0
C1176 C 0.60183 0.17533 0.69652 0.0
C1177 C 0.5882 0.11814 0.70987 0.0
C1178 C 0.66798 0.10526 0.7332 0.0
H1179 H 0.64491 0.93042 0.76885 0.0
H1180 H 0.62236 0.97832 0.75366 0.0
H1181 H 0.69932 0.09149 0.74961 0.0
H1182 H 0.66433 0.19775 0.69709 0.0
H1183 H 0.68756 0.1491 0.71205 0.0
H1184 H 0.60999 0.03803 0.71677 0.0
C1185 C 0.65345 0.98068 0.75696 0.0
C1186 C 0.6802 0.07923 0.74244 0.0
C1187 C 0.66622 0.95356 0.76585 0.0
C1188 C 0.64269 0.17555 0.70048 0.0
C1189 C 0.65596 0.14785 0.70915 0.0
C1190 C 0.62931 0.05015 0.72392 0.0
C1191 C 0.68041 0.0103 0.75238 0.0
C1192 C 0.6672 0.03823 0.74255 0.0
C1193 C 0.62876 0.11914 0.71409 0.0
C1194 C 0.64233 0.0911 0.72382 0.0
H1195 H 0.76401 0.98795 0.76943 0.0
H1196 H 0.74208 0.03461 0.75378 0.0
H1197 H 0.63158 0.99256 0.73277 0.0
H1198 H 0.54316 0.14479 0.69845 0.0
H1199 H 0.56626 0.09677 0.71355 0.0
C1200 C 0.66843 0.41238 0.99686 0.0
C1201 C 0.67633 0.43926 0.00657 0.0
C1202 C 0.70057 0.39764 0.98979 0.0
C1203 C 0.80614 0.42498 0.98159 0.0
H1204 H 0.81327 0.31362 0.96964 0.0
C1205 C 0.95381 0.35975 0.96233 0.0
C1206 C 0.95123 0.33891 0.95122 0.0
C1207 C 0.91848 0.37061 0.96852 0.0
C1208 C 0.81131 0.3449 0.97282 0.0
H1209 H 0.72384 0.46977 0.01697 0.0
H1210 H 0.77981 0.44372 0.0048 0.0
H1211 H 0.75448 0.33425 0.98189 0.0
H1212 H 0.90981 0.31196 0.93802 0.0
H1213 H 0.84765 0.33083 0.94899 0.0
H1214 H 0.86315 0.43552 0.97276 0.0
C1215 C 0.74887 0.43494 0.00239 0.0
C1216 C 0.77776 0.35671 0.97982 0.0
C1217 C 0.71688 0.4498 0.00938 0.0
C1218 C 0.91259 0.3287 0.94647 0.0
C1219 C 0.87714 0.33903 0.95278 0.0
C1220 C 0.8396 0.41316 0.9747 0.0
C1221 C 0.74107 0.40945 0.99235 0.0
C1222 C 0.77522 0.39676 0.98442 0.0
C1223 C 0.87986 0.36039 0.96381 0.0
C1224 C 0.84279 0.37295 0.97039 0.0
H1225 H 0.63736 0.4039 0.99451 0.0
H1226 H 0.6936 0.37816 0.98209 0.0
H1227 H 0.80457 0.45632 0.98472 0.0
H1228 H 0.98318 0.36774 0.96625 0.0
H1229 H 0.92137 0.38668 0.97708 0.0
C1230 C 0.89722 0.45541 0.26915 0.0
C1231 C 0.86677 0.42941 0.26433 0.0
C1232 C 0.91017 0.48967 0.2628 0.0
C1233 C 0.87339 0.56158 0.24077 0.0
H1234 H 0.98697 0.58301 0.23302 0.0
C1235 C 0.91844 0.66596 0.20238 0.0
C1236 C 0.95252 0.69192 0.20369 0.0
C1237 C 0.90939 0.63727 0.21113 0.0
C1238 C 0.95522 0.57788 0.23532 0.0
H1239 H 0.82751 0.41791 0.24884 0.0
H1240 H 0.84939 0.47824 0.23794 0.0
H1241 H 0.96918 0.52542 0.24591 0.0
H1242 H 0.00395 0.70796 0.21527 0.0
H1243 H 0.98767 0.65776 0.23069 0.0
H1244 H 0.8591 0.61357 0.23021 0.0
C1245 C 0.86287 0.47224 0.24667 0.0
C1246 C 0.9451 0.54492 0.24264 0.0
C1247 C 0.8503 0.43783 0.25293 0.0
C1248 C 0.9773 0.68859 0.21402 0.0
C1249 C 0.96818 0.65971 0.22281 0.0
C1250 C 0.88346 0.59462 0.23358 0.0
C1251 C 0.8925 0.49867 0.25161 0.0
C1252 C 0.90401 0.53592 0.24511 0.0
C1253 C 0.93406 0.63384 0.22144 0.0
C1254 C 0.92434 0.60237 0.23047 0.0
H1255 H 0.9102 0.45001 0.27798 0.0
H1256 H 0.93303 0.50978 0.26677 0.0
H1257 H 0.84153 0.5556 0.24277 0.0
H1258 H 0.89872 0.6675 0.19455 0.0
H1259 H 0.88338 0.61719 0.20969 0.0
C1260 C 0.86454 0.62503 0.50214 0.0
C1261 C 0.85965 0.59026 0.50927 0.0
C1262 C 0.83241 0.63861 0.49493 0.0
C1263 C 0.73173 0.60479 0.48218 0.0
H1264 H 0.71631 0.72067 0.47752 0.0
C1265 C 0.5818 0.67476 0.46489 0.0
C1266 C 0.58558 0.7004 0.45489 0.0
C1267 C 0.61651 0.66146 0.47098 0.0
C1268 C 0.72052 0.68823 0.4787 0.0
H1269 H 0.81738 0.54297 0.51474 0.0
H1270 H 0.76078 0.56739 0.50261 0.0
H1271 H 0.77429 0.69724 0.4894 0.0
H1272 H 0.62828 0.7334 0.44364 0.0
H1273 H 0.6892 0.71098 0.45458 0.0
H1274 H 0.67676 0.59621 0.4719 0.0
C1275 C 0.78971 0.58348 0.50215 0.0
C1276 C 0.75383 0.67469 0.48544 0.0
C1277 C 0.82204 0.56954 0.50917 0.0
C1278 C 0.62465 0.71314 0.45122 0.0
C1279 C 0.65937 0.70063 0.45751 0.0
C1280 C 0.69807 0.6184 0.47566 0.0
C1281 C 0.79444 0.6181 0.49486 0.0
C1282 C 0.75978 0.63274 0.48734 0.0
C1283 C 0.65555 0.67438 0.46737 0.0
C1284 C 0.69209 0.6602 0.47391 0.0
H1285 H 0.89343 0.64135 0.50203 0.0
H1286 H 0.83756 0.66492 0.48931 0.0
H1287 H 0.73571 0.57226 0.48314 0.0
H1288 H 0.552 0.66462 0.46791 0.0
H1289 H 0.61286 0.64147 0.47862 0.0
C1290 C 0.65394 0.58186 0.76699 0.0
C1291 C 0.69482 0.59225 0.76951 0.0
C1292 C 0.6442 0.54402 0.76185 0.0
C1293 C 0.68684 0.47237 0.74111 0.0
H1294 H 0.59695 0.40142 0.75013 0.0
C1295 C 0.63999 0.34184 0.70983 0.0
C1296 C 0.59794 0.33626 0.7081 0.0
C1297 C 0.65436 0.36522 0.71951 0.0
C1298 C 0.62199 0.42106 0.74746 0.0
H1299 H 0.7572 0.57026 0.76938 0.0
H1300 H 0.74017 0.50468 0.75997 0.0
H1301 H 0.61697 0.45813 0.76346 0.0
H1302 H 0.53777 0.3487 0.71523 0.0
H1303 H 0.56256 0.39219 0.73171 0.0
H1304 H 0.69045 0.43798 0.7248 0.0
C1305 C 0.71585 0.52591 0.76198 0.0
C1306 C 0.63353 0.45324 0.75512 0.0
C1307 C 0.72556 0.56353 0.76722 0.0
C1308 C 0.57038 0.35299 0.7164 0.0
C1309 C 0.58469 0.37746 0.72591 0.0
C1310 C 0.67492 0.44083 0.73337 0.0
C1311 C 0.67521 0.5162 0.75908 0.0
C1312 C 0.66569 0.47937 0.7519 0.0
C1313 C 0.62688 0.3846 0.72741 0.0
C1314 C 0.64197 0.41511 0.73635 0.0
H1315 H 0.62963 0.60345 0.76859 0.0
H1316 H 0.61269 0.5373 0.75952 0.0
H1317 H 0.71132 0.49262 0.73835 0.0
H1318 H 0.66175 0.32829 0.70365 0.0
H1319 H 0.68706 0.36893 0.72061 0.0
C1320 C 0.64775 0.6468 0.09291 0.0
C1321 C 0.64033 0.60583 0.08961 0.0
C1322 C 0.68565 0.65892 0.09764 0.0
C1323 C 0.77311 0.62371 0.11437 0.0
H1324 H 0.83341 0.71145 0.09921 0.0
C1325 C 0.92595 0.67453 0.13445 0.0
C1326 C 0.93273 0.71671 0.13519 0.0
C1327 C 0.8958 0.65856 0.12677 0.0
C1328 C 0.8169 0.68719 0.10365 0.0
H1329 H 0.66756 0.54557 0.08881 0.0
H1330 H 0.73261 0.56657 0.0976 0.0
H1331 H 0.76743 0.68973 0.09094 0.0
H1332 H 0.91507 0.77529 0.12823 0.0
H1333 H 0.8613 0.74797 0.1152 0.0
H1334 H 0.8207 0.62225 0.12747 0.0
C1335 C 0.70904 0.5892 0.09643 0.0
C1336 C 0.77916 0.67474 0.09887 0.0
C1337 C 0.67148 0.57717 0.09151 0.0
C1338 C 0.91086 0.74252 0.12759 0.0
C1339 C 0.8799 0.72671 0.12014 0.0
C1340 C 0.81035 0.63665 0.11929 0.0
C1341 C 0.71666 0.63025 0.09936 0.0
C1342 C 0.7569 0.64304 0.10424 0.0
C1343 C 0.87075 0.68463 0.12003 0.0
C1344 C 0.83279 0.66874 0.11406 0.0
H1345 H 0.62445 0.66967 0.09175 0.0
H1346 H 0.69071 0.69071 0.09999 0.0
H1347 H 0.75633 0.59937 0.1187 0.0
H1348 H 0.94239 0.65415 0.14032 0.0
H1349 H 0.89077 0.62591 0.12664 0.0
C1350 C 0.68933 0.36561 0.36108 0.0
C1351 C 0.68947 0.3697 0.34849 0.0
C1352 C 0.67444 0.39709 0.36847 0.0
C1353 C 0.61283 0.49232 0.36701 0.0
H1354 H 0.66654 0.5191 0.39735 0.0
C1355 C 0.59806 0.64818 0.39008 0.0
C1356 C 0.58063 0.64767 0.40167 0.0
C1357 C 0.61197 0.61229 0.38468 0.0
C1358 C 0.65116 0.51162 0.38894 0.0
H1359 H 0.67587 0.41016 0.33373 0.0
H1360 H 0.65126 0.46529 0.34649 0.0
H1361 H 0.68857 0.45942 0.38564 0.0
H1362 H 0.56635 0.60928 0.41693 0.0
H1363 H 0.59196 0.54642 0.40751 0.0
H1364 H 0.57685 0.54567 0.37007 0.0
C1365 C 0.66084 0.43741 0.35075 0.0
C1366 C 0.66353 0.47739 0.38225 0.0
C1367 C 0.67509 0.40585 0.34341 0.0
C1368 C 0.57947 0.61068 0.40798 0.0
C1369 C 0.59415 0.57478 0.40263 0.0
C1370 C 0.60106 0.52678 0.37357 0.0
C1371 C 0.66004 0.43346 0.36338 0.0
C1372 C 0.64495 0.4677 0.37109 0.0
C1373 C 0.60947 0.57523 0.39082 0.0
C1374 C 0.62048 0.53703 0.38448 0.0
H1375 H 0.70047 0.338 0.36518 0.0
H1376 H 0.67397 0.39278 0.37813 0.0
H1377 H 0.59693 0.48527 0.35866 0.0
H1378 H 0.59933 0.67598 0.38491 0.0
H1379 H 0.62395 0.61331 0.37558 0.0
C1380 C 0.7871 0.49993 0.57617 0.0
C1381 C 0.81217 0.47366 0.56936 0.0
C1382 C 0.7547 0.48451 0.58299 0.0
C1383 C 0.72053 0.38619 0.5963 0.0
H1384 H 0.62768 0.45047 0.60659 0.0
C1385 C 0.59318 0.3223 0.62649 0.0
C1386 C 0.59463 0.34078 0.638 0.0
C1387 C 0.61291 0.34044 0.61675 0.0
C1388 C 0.65338 0.43223 0.60368 0.0
H1389 H 0.82024 0.41028 0.5639 0.0
H1390 H 0.76211 0.38443 0.57473 0.0
H1391 H 0.67418 0.47735 0.5913 0.0
H1392 H 0.61544 0.39389 0.64816 0.0
H1393 H 0.64903 0.42618 0.63094 0.0
H1394 H 0.69891 0.34081 0.60851 0.0
C1395 C 0.76875 0.41675 0.57538 0.0
C1396 C 0.68028 0.44765 0.59502 0.0
C1397 C 0.80185 0.43193 0.56888 0.0
C1398 C 0.614 0.37893 0.6394 0.0
C1399 C 0.63296 0.3975 0.62957 0.0
C1400 C 0.69314 0.37049 0.60469 0.0
C1401 C 0.7457 0.44249 0.58294 0.0
C1402 C 0.71467 0.42508 0.59134 0.0
C1403 C 0.63352 0.37779 0.61827 0.0
C1404 C 0.65976 0.39357 0.60857 0.0
H1405 H 0.79304 0.53242 0.57654 0.0
H1406 H 0.73793 0.50553 0.58868 0.0
H1407 H 0.74705 0.36816 0.59406 0.0
H1408 H 0.57874 0.29276 0.62516 0.0
H1409 H 0.61324 0.3247 0.6081 0.0
C1410 C 0.85138 0.67062 0.86005 0.0
C1411 C 0.85212 0.66911 0.84737 0.0
C1412 C 0.86483 0.63729 0.86678 0.0
C1413 C 0.87398 0.52681 0.86524 0.0
H1414 H 0.9583 0.53759 0.88969 0.0
C1415 C 0.95125 0.38528 0.88505 0.0
C1416 C 0.96624 0.38636 0.89695 0.0
C1417 C 0.93562 0.42032 0.87973 0.0
C1418 C 0.93413 0.53396 0.88308 0.0
H1419 H 0.86673 0.63147 0.8318 0.0
H1420 H 0.88909 0.573 0.84352 0.0
H1421 H 0.93418 0.59804 0.87925 0.0
H1422 H 0.97552 0.42523 0.91268 0.0
H1423 H 0.94663 0.48602 0.90359 0.0
H1424 H 0.87266 0.46326 0.86917 0.0
C1425 C 0.87881 0.60011 0.84826 0.0
C1426 C 0.92052 0.5687 0.87705 0.0
C1427 C 0.86631 0.63365 0.84156 0.0
C1428 C 0.96441 0.42333 0.90347 0.0
C1429 C 0.94809 0.45834 0.8982 0.0
C1430 C 0.88695 0.49224 0.87141 0.0
C1431 C 0.87817 0.60152 0.86093 0.0
C1432 C 0.89082 0.56533 0.86793 0.0
C1433 C 0.93376 0.45748 0.88619 0.0
C1434 C 0.91781 0.49507 0.88027 0.0
H1435 H 0.84038 0.69753 0.86473 0.0
H1436 H 0.86388 0.63908 0.87654 0.0
H1437 H 0.8506 0.52343 0.85836 0.0
H1438 H 0.95267 0.35756 0.87967 0.0
H1439 H 0.92597 0.41829 0.87039 0.0
C1440 C 0.3161 0.59255 0.07668 0.0
C1441 C 0.354 0.58413 0.08203 0.0
C1442 C 0.28146 0.59857 0.08382 0.0
C1443 C 0.24191 0.58422 0.11505 0.0
H1444 H 0.17089 0.67385 0.10688 0.0
C1445 C 0.1538 0.68068 0.14926 0.0
C1446 C 0.11548 0.69627 0.14613 0.0
C1447 C 0.17514 0.65597 0.14118 0.0
C1448 C 0.18981 0.64809 0.10915 0.0
H1449 H 0.38555 0.57581 0.09901 0.0
H1450 H 0.32558 0.5874 0.1115 0.0
H1451 H 0.22462 0.65365 0.09297 0.0
H1452 H 0.06805 0.69635 0.13248 0.0
H1453 H 0.10593 0.65346 0.11814 0.0
H1454 H 0.20838 0.5805 0.1316 0.0
C1455 C 0.32213 0.5882 0.10179 0.0
C1456 C 0.22072 0.63651 0.10118 0.0
C1457 C 0.35662 0.58185 0.09464 0.0
C1458 C 0.09749 0.68443 0.13511 0.0
C1459 C 0.11923 0.66021 0.1269 0.0
C1460 C 0.21122 0.59607 0.12307 0.0
C1461 C 0.28408 0.59661 0.09648 0.0
C1462 C 0.24793 0.60522 0.10419 0.0
C1463 C 0.15884 0.64692 0.12972 0.0
C1464 C 0.1856 0.62885 0.12035 0.0
H1465 H 0.3131 0.59384 0.06696 0.0
H1466 H 0.2526 0.60449 0.07942 0.0
H1467 H 0.26164 0.55931 0.11753 0.0
H1468 H 0.16821 0.68939 0.15773 0.0
H1469 H 0.20569 0.64647 0.14358 0.0
C1470 C 0.24499 0.55074 0.84012 0.0
C1471 C 0.26011 0.58702 0.84536 0.0
C1472 C 0.24096 0.51562 0.84698 0.0
C1473 C 0.22597 0.48499 0.87823 0.0
H1474 H 0.23358 0.37663 0.86405 0.0
C1475 C 0.15645 0.34929 0.90235 0.0
C1476 C 0.12694 0.32941 0.89509 0.0
C1477 C 0.18623 0.37405 0.89714 0.0
C1478 C 0.23174 0.40667 0.86816 0.0
H1479 H 0.28415 0.61459 0.86181 0.0
H1480 H 0.27782 0.55285 0.87376 0.0
H1481 H 0.26153 0.43503 0.85325 0.0
H1482 H 0.10819 0.31663 0.87663 0.0
H1483 H 0.15993 0.36008 0.86758 0.0
H1484 H 0.19483 0.457 0.8929 0.0
C1485 C 0.26857 0.5518 0.86438 0.0
C1486 C 0.24752 0.44009 0.86198 0.0
C1487 C 0.27242 0.58707 0.85752 0.0
C1488 C 0.13013 0.3319 0.88248 0.0
C1489 C 0.16004 0.35653 0.87728 0.0
C1490 C 0.21049 0.45159 0.88443 0.0
C1491 C 0.25224 0.51585 0.85922 0.0
C1492 C 0.24328 0.47979 0.86673 0.0
C1493 C 0.18725 0.37916 0.88459 0.0
C1494 C 0.21181 0.41234 0.87925 0.0
H1495 H 0.23605 0.54947 0.83071 0.0
H1496 H 0.22767 0.48869 0.84275 0.0
H1497 H 0.22178 0.51513 0.8821 0.0
H1498 H 0.15523 0.34766 0.9121 0.0
H1499 H 0.2072 0.3908 0.90296 0.0
C1500 C 0.20303 0.50318 0.59485 0.0
C1501 C 0.17937 0.47094 0.58995 0.0
C1502 C 0.23712 0.49526 0.60205 0.0
C1503 C 0.31312 0.41715 0.60843 0.0
H1504 H 0.31925 0.46454 0.64062 0.0
C1505 C 0.43617 0.3667 0.64177 0.0
C1506 C 0.41808 0.35019 0.65212 0.0
C1507 C 0.41361 0.39211 0.63424 0.0
C1508 C 0.31825 0.45159 0.63158 0.0
H1509 H 0.17306 0.40502 0.589 0.0
H1510 H 0.23315 0.3914 0.60123 0.0
H1511 H 0.26582 0.48655 0.62667 0.0
H1512 H 0.36404 0.35011 0.66336 0.0
H1513 H 0.32504 0.39503 0.6504 0.0
H1514 H 0.36446 0.38108 0.61344 0.0
C1515 C 0.22529 0.42277 0.59942 0.0
C1516 C 0.28781 0.46421 0.62362 0.0
C1517 C 0.1909 0.43064 0.59238 0.0
C1518 C 0.37856 0.36234 0.65539 0.0
C1519 C 0.35635 0.38823 0.648 0.0
C1520 C 0.34385 0.40494 0.61632 0.0
C1521 C 0.24867 0.45498 0.60433 0.0
C1522 C 0.28422 0.44612 0.61211 0.0
C1523 C 0.373 0.40195 0.6371 0.0
C1524 C 0.34594 0.42112 0.6281 0.0
H1525 H 0.19562 0.5346 0.59299 0.0
H1526 H 0.25479 0.5206 0.6057 0.0
H1527 H 0.31117 0.40303 0.59956 0.0
H1528 H 0.46655 0.35761 0.63902 0.0
H1529 H 0.42718 0.40249 0.6259 0.0
C1530 C 0.27911 0.42342 0.35485 0.0
C1531 C 0.3086 0.39266 0.35383 0.0
C1532 C 0.2874 0.45898 0.36146 0.0
C1533 C 0.35581 0.50495 0.38437 0.0
H1534 H 0.3359 0.60557 0.36732 0.0
C1535 C 0.40036 0.66028 0.40504 0.0
C1536 C 0.42529 0.68406 0.3975 0.0
C1537 C 0.37831 0.62713 0.40033 0.0
C1538 C 0.34139 0.57774 0.37221 0.0
H1539 H 0.36917 0.37416 0.3593 0.0
H1540 H 0.38367 0.43635 0.37098 0.0
H1541 H 0.3131 0.54067 0.3585 0.0
H1542 H 0.44418 0.69346 0.37899 0.0
H1543 H 0.40545 0.63574 0.37077 0.0
H1544 H 0.38529 0.54186 0.39789 0.0
C1545 C 0.35408 0.43285 0.36669 0.0
C1546 C 0.32809 0.54065 0.36722 0.0
C1547 C 0.34591 0.39739 0.35997 0.0
C1548 C 0.4254 0.67568 0.38504 0.0
C1549 C 0.40308 0.6427 0.38032 0.0
C1550 C 0.36879 0.54206 0.38941 0.0
C1551 C 0.32525 0.46438 0.36726 0.0
C1552 C 0.33583 0.50383 0.37315 0.0
C1553 C 0.38042 0.61731 0.38799 0.0
C1554 C 0.36236 0.57875 0.38328 0.0
H1555 H 0.25034 0.42089 0.35004 0.0
H1556 H 0.26455 0.48267 0.36182 0.0
H1557 H 0.36193 0.47705 0.38917 0.0
H1558 H 0.39964 0.66577 0.41468 0.0
H1559 H 0.36069 0.60835 0.40642 0.0
C1560 C 0.34856 0.52896 0.9983 0.0
C1561 C 0.33698 0.54071 0.00999 0.0
C1562 C 0.31909 0.52003 0.98956 0.0
C1563 C 0.21022 0.48945 0.98694 0.0
H1564 H 0.23583 0.4943 0.95281 0.0
C1565 C 0.10641 0.42076 0.94944 0.0
C1566 C 0.12513 0.38453 0.94557 0.0
C1567 C 0.12914 0.45053 0.95568 0.0
C1568 C 0.22807 0.49345 0.96231 0.0
H1569 H 0.286 0.55383 0.02174 0.0
H1570 H 0.23398 0.54022 0.00628 0.0
H1571 H 0.28024 0.52909 0.96744 0.0
H1572 H 0.18217 0.35186 0.94433 0.0
H1573 H 0.22236 0.40487 0.95477 0.0
H1574 H 0.1579 0.45384 0.98165 0.0
C1575 C 0.2658 0.53662 0.0039 0.0
C1576 C 0.25368 0.51285 0.97072 0.0
C1577 C 0.29545 0.5447 0.01275 0.0
C1578 C 0.16729 0.37972 0.9472 0.0
C1579 C 0.19017 0.40994 0.95312 0.0
C1580 C 0.18413 0.47098 0.97849 0.0
C1581 C 0.27721 0.52335 0.99224 0.0
C1582 C 0.24606 0.50963 0.9832 0.0
C1583 C 0.17098 0.44483 0.95776 0.0
C1584 C 0.19366 0.47169 0.96618 0.0
H1585 H 0.38052 0.52506 0.99606 0.0
H1586 H 0.32937 0.50889 0.98087 0.0
H1587 H 0.20338 0.48568 0.99641 0.0
H1588 H 0.07377 0.42473 0.94841 0.0
H1589 H 0.11383 0.47713 0.95931 0.0
C1590 C 0.30802 0.57132 0.76173 0.0
C1591 C 0.3174 0.56364 0.77389 0.0
C1592 C 0.32051 0.54456 0.75258 0.0
C1593 C 0.33138 0.47206 0.73556 0.0
H1594 H 0.43959 0.42523 0.73719 0.0
C1595 C 0.38459 0.34299 0.70326 0.0
C1596 C 0.42532 0.34376 0.69924 0.0
C1597 C 0.37103 0.37101 0.71196 0.0
C1598 C 0.40941 0.43831 0.73653 0.0
H1599 H 0.34702 0.52143 0.78593 0.0
H1600 H 0.36856 0.47438 0.76993 0.0
H1601 H 0.41667 0.47104 0.75325 0.0
H1602 H 0.48328 0.37586 0.70095 0.0
H1603 H 0.45956 0.42479 0.71606 0.0
H1604 H 0.32435 0.43984 0.71876 0.0
C1605 C 0.35192 0.50147 0.76748 0.0
C1606 C 0.39605 0.46417 0.74583 0.0
C1607 C 0.33945 0.52834 0.77666 0.0
C1608 C 0.4518 0.3741 0.70389 0.0
C1609 C 0.43826 0.40204 0.71262 0.0
C1610 C 0.3447 0.44612 0.72628 0.0
C1611 C 0.34278 0.50935 0.75531 0.0
C1612 C 0.35685 0.48139 0.74548 0.0
C1613 C 0.39782 0.40054 0.71689 0.0
C1614 C 0.38389 0.42889 0.72664 0.0
H1615 H 0.29201 0.59874 0.75923 0.0
H1616 H 0.31358 0.55206 0.74331 0.0
H1617 H 0.30088 0.48446 0.73503 0.0
H1618 H 0.36329 0.3201 0.69991 0.0
H1619 H 0.3398 0.36868 0.7151 0.0
C1620 C 0.12471 0.57683 0.48677 0.0
C1621 C 0.12835 0.57267 0.4993 0.0
C1622 C 0.15984 0.57988 0.47962 0.0
C1623 C 0.27055 0.60455 0.4827 0.0
H1624 H 0.27527 0.5681 0.44932 0.0
C1625 C 0.41561 0.62906 0.4561 0.0
C1626 C 0.40854 0.65508 0.4464 0.0
C1627 C 0.38318 0.60733 0.46117 0.0
C1628 C 0.27436 0.57799 0.45868 0.0
H1629 H 0.17055 0.56608 0.51415 0.0
H1630 H 0.23146 0.56888 0.50178 0.0
H1631 H 0.21407 0.55388 0.46131 0.0
H1632 H 0.36342 0.67738 0.43388 0.0
H1633 H 0.30676 0.63858 0.44253 0.0
H1634 H 0.33062 0.62852 0.4801 0.0
C1635 C 0.20207 0.5719 0.4974 0.0
C1636 C 0.23923 0.5703 0.46551 0.0
C1637 C 0.1672 0.56996 0.50452 0.0
C1638 C 0.36957 0.65661 0.44118 0.0
C1639 C 0.33721 0.63453 0.44615 0.0
C1640 C 0.3057 0.61146 0.47597 0.0
C1641 C 0.19904 0.57786 0.48488 0.0
C1642 C 0.23674 0.58392 0.47759 0.0
C1643 C 0.34337 0.61144 0.45657 0.0
C1644 C 0.30785 0.59869 0.46387 0.0
H1645 H 0.09485 0.57864 0.4826 0.0
H1646 H 0.15621 0.58483 0.47004 0.0
H1647 H 0.26959 0.61666 0.49182 0.0
H1648 H 0.4454 0.62816 0.46037 0.0
H1649 H 0.38864 0.58965 0.4692 0.0
C1650 C 0.23449 0.46007 0.25269 0.0
C1651 C 0.20391 0.43531 0.25775 0.0
C1652 C 0.22444 0.49044 0.24444 0.0
C1653 C 0.13677 0.5526 0.23433 0.0
H1654 H 0.20589 0.5756 0.20682 0.0
C1655 C 0.08526 0.66049 0.19682 0.0
C1656 C 0.11389 0.68928 0.19265 0.0
C1657 C 0.09734 0.62877 0.20429 0.0
C1658 C 0.18648 0.56978 0.21452 0.0
H1659 H 0.13893 0.42216 0.25778 0.0
H1660 H 0.12142 0.47466 0.24334 0.0
H1661 H 0.22473 0.52161 0.22074 0.0
H1662 H 0.17803 0.70631 0.19283 0.0
H1663 H 0.19915 0.65065 0.20589 0.0
H1664 H 0.09842 0.60053 0.22811 0.0
C1665 C 0.15311 0.47138 0.24594 0.0
C1666 C 0.19729 0.53886 0.22251 0.0
C1667 C 0.16314 0.44119 0.25422 0.0
C1668 C 0.15518 0.68472 0.19586 0.0
C1669 C 0.16731 0.65274 0.20332 0.0
C1670 C 0.12591 0.58332 0.22633 0.0
C1671 C 0.18355 0.49668 0.24102 0.0
C1672 C 0.17247 0.52976 0.2325 0.0
C1673 C 0.13839 0.62477 0.20777 0.0
C1674 C 0.15052 0.59222 0.2163 0.0
H1675 H 0.26614 0.45662 0.25532 0.0
H1676 H 0.24864 0.50964 0.24096 0.0
H1677 H 0.11735 0.54714 0.24205 0.0
H1678 H 0.05318 0.66287 0.19454 0.0
H1679 H 0.07437 0.60741 0.20739 0.0
loop_
_geom_bond_atom_site_label_1
_geom_bond_atom_site_label_2
_geom_bond_distance
_geom_bond_site_symmetry_2
_ccdc_geom_bond_type
H0 O26 0.856 . S
H1 O29 0.854 . S
H2 C37 0.930 . S
H3 C38 0.930 . S
H4 C40 0.930 1_565 S
H5 C41 0.930 1_565 S
H6 C43 0.935 . S
H7 C44 0.930 . S
H8 C46 0.930 . S
H9 C47 0.929 . S
H10 C49 0.930 . S
H11 C50 0.931 . S
H12 C52 0.930 . S
H13 C53 0.929 1_565 S
H14 C55 0.931 . S
H15 C56 0.930 . S
H16 C58 0.930 . S
H17 C59 0.932 . S
H18 C61 0.930 1_545 S
H19 C62 0.929 . S
H20 C64 0.931 . S
H21 C65 0.930 . S
H22 C67 0.929 . S
H23 C68 0.931 1_545 S
H24 C70 0.930 . S
H25 C71 0.929 . S
O26 H0 0.856 . S
O26 C72 1.300 . S
O27 C72 1.209 . S
O28 C73 1.199 . S
O29 H1 0.854 . S
O29 C73 1.297 . S
C30 C31 1.404 1_455 S
C30 C35 1.397 . S
C30 C36 1.492 . S
C31 C30 1.404 1_655 S
C31 C32 1.396 . S
C31 C42 1.492 1_655 S
C32 C31 1.396 . S
C32 C33 1.397 . S
C32 C48 1.509 . S
C33 C32 1.397 . S
C33 C34 1.412 1_545 S
C33 C54 1.484 1_545 S
C34 C33 1.412 1_565 S
C34 C35 1.388 1_665 S
C34 C60 1.490 . S
C35 C30 1.397 . S
C35 C34 1.388 1_445 S
C35 C66 1.519 1_545 S
C36 C30 1.492 . S
C36 C37 1.363 . S
C36 C41 1.390 . S
C37 H2 0.930 . S
C37 C36 1.363 . S
C37 C38 1.372 . S
C38 H3 0.930 . S
C38 C37 1.372 . S
C38 C39 1.383 . S
C39 C38 1.383 . S
C39 C40 1.395 . S
C40 H4 0.930 1_545 S
C40 C39 1.395 . S
C40 C41 1.362 . S
C41 H5 0.930 1_545 S
C41 C36 1.390 . S
C41 C40 1.362 . S
C42 C31 1.492 1_455 S
C42 C43 1.375 1_455 S
C42 C47 1.397 . S
C43 H6 0.935 . S
C43 C42 1.375 1_655 S
C43 C44 1.373 1_655 S
C44 H7 0.930 . S
C44 C43 1.373 1_455 S
C44 C45 1.376 . S
C45 C44 1.376 . S
C45 C46 1.378 . S
C45 C72 1.486 . S
C46 H8 0.930 . S
C46 C45 1.378 . S
C46 C47 1.376 . S
C47 H9 0.929 . S
C47 C42 1.397 . S
C47 C46 1.376 . S
C48 C32 1.509 . S
C48 C49 1.391 . S
C48 C53 1.386 . S
C49 H10 0.930 . S
C49 C48 1.391 . S
C49 C50 1.375 . S
C50 H11 0.931 . S
C50 C49 1.375 . S
C50 C51 1.375 . S
C51 C50 1.375 . S
C51 C52 1.361 . S
C52 H12 0.930 . S
C52 C51 1.361 . S
C52 C53 1.399 . S
C53 H13 0.929 1_545 S
C53 C48 1.386 . S
C53 C52 1.399 . S
C54 C33 1.484 1_565 S
C54 C55 1.391 1_565 S
C54 C59 1.364 . S
C55 H14 0.931 . S
C55 C54 1.391 1_545 S
C55 C56 1.372 . S
C56 H15 0.930 . S
C56 C55 1.372 . S
C56 C57 1.397 1_545 S
C57 C56 1.397 1_565 S
C57 C58 1.390 . S
C57 C73 1.476 . S
C58 H16 0.930 . S
C58 C57 1.390 . S
C58 C59 1.366 . S
C59 H17 0.932 . S
C59 C54 1.364 . S
C59 C58 1.366 . S
C60 C34 1.490 . S
C60 C61 1.380 . S
C60 C65 1.386 . S
C61 H18 0.930 1_565 S
C61 C60 1.380 . S
C61 C62 1.381 . S
C62 H19 0.929 . S
C62 C61 1.381 . S
C62 C63 1.371 . S
C63 C62 1.371 . S
C63 C64 1.380 . S
C64 H20 0.931 . S
C64 C63 1.380 . S
C64 C65 1.387 . S
C65 H21 0.930 . S
C65 C60 1.386 . S
C65 C64 1.387 . S
C66 C35 1.519 1_565 S
C66 C67 1.377 1_565 S
C66 C71 1.361 . S
C67 H22 0.929 . S
C67 C66 1.377 1_545 S
C67 C68 1.386 1_545 S
C68 H23 0.931 1_565 S
C68 C67 1.386 1_565 S
C68 C69 1.363 . S
C69 C68 1.363 . S
C69 C70 1.385 . S
C70 H24 0.930 . S
C70 C69 1.385 . S
C70 C71 1.396 . S
C71 H25 0.929 . S
C71 C66 1.361 . S
C71 C70 1.396 . S
C72 O26 1.300 . S
C72 O27 1.209 . S
C72 C45 1.486 . S
C73 O28 1.199 . S
C73 O29 1.297 . S
C73 C57 1.476 . S
H74 O100 0.856 . S
H75 O103 0.854 . S
H76 C111 0.930 . S
H77 C112 0.930 . S
H78 C114 0.930 . S
H79 C115 0.930 . S
H80 C117 0.931 . S
H81 C118 0.930 . S
H82 C120 0.930 . S
H83 C121 0.929 . S
H84 C123 0.930 . S
H85 C124 0.931 . S
H86 C126 0.930 . S
H87 C127 0.929 . S
H88 C129 0.931 . S
H89 C130 0.930 . S
H90 C132 0.930 . S
H91 C133 0.932 . S
H92 C135 0.930 . S
H93 C136 0.929 . S
H94 C138 0.931 . S
H95 C139 0.930 . S
H96 C141 0.929 . S
H97 C142 0.931 . S
H98 C144 0.930 . S
H99 C145 0.929 . S
O100 H74 0.856 . S
O100 C146 1.300 . S
O101 C146 1.209 . S
O102 C147 1.199 . S
O103 H75 0.854 . S
O103 C147 1.297 . S
C104 C105 1.404 . S
C104 C109 1.397 . S
C104 C110 1.492 . S
C105 C104 1.404 . S
C105 C106 1.396 . S
C105 C116 1.492 . S
C106 C105 1.396 . S
C106 C107 1.397 . S
C106 C122 1.509 . S
C107 C106 1.397 . S
C107 C108 1.412 . S
C107 C128 1.485 . S
C108 C107 1.412 . S
C108 C109 1.388 . S
C108 C134 1.490 . S
C109 C104 1.397 . S
C109 C108 1.388 . S
C109 C140 1.519 . S
C110 C104 1.492 . S
C110 C111 1.363 . S
C110 C115 1.390 . S
C111 H76 0.930 . S
C111 C110 1.363 . S
C111 C112 1.372 . S
C112 H77 0.930 . S
C112 C111 1.372 . S
C112 C113 1.383 . S
C113 C112 1.383 . S
C113 C114 1.395 . S
C114 H78 0.930 . S
C114 C113 1.395 . S
C114 C115 1.362 . S
C115 H79 0.930 . S
C115 C110 1.390 . S
C115 C114 1.362 . S
C116 C105 1.492 . S
C116 C117 1.377 . S
C116 C121 1.397 . S
C117 H80 0.931 . S
C117 C116 1.377 . S
C117 C118 1.376 . S
C118 H81 0.930 . S
C118 C117 1.376 . S
C118 C119 1.376 . S
C119 C118 1.376 . S
C119 C120 1.378 . S
C119 C146 1.486 . S
C120 H82 0.930 . S
C120 C119 1.378 . S
C120 C121 1.376 . S
C121 H83 0.929 . S
C121 C116 1.397 . S
C121 C120 1.376 . S
C122 C106 1.509 . S
C122 C123 1.391 . S
C122 C127 1.386 . S
C123 H84 0.930 . S
C123 C122 1.391 . S
C123 C124 1.375 . S
C124 H85 0.931 . S
C124 C123 1.375 . S
C124 C125 1.375 . S
C125 C124 1.375 . S
C125 C126 1.361 . S
C126 H86 0.930 . S
C126 C125 1.361 . S
C126 C127 1.399 . S
C127 H87 0.929 . S
C127 C122 1.386 . S
C127 C126 1.399 . S
C128 C107 1.485 . S
C128 C129 1.394 . S
C128 C133 1.360 . S
C129 H88 0.931 . S
C129 C128 1.394 . S
C129 C130 1.372 . S
C130 H89 0.930 . S
C130 C129 1.372 . S
C130 C131 1.397 . S
C131 C130 1.397 . S
C131 C132 1.390 . S
C131 C147 1.476 1_565 S
C132 H90 0.930 . S
C132 C131 1.390 . S
C132 C133 1.366 . S
C133 H91 0.932 . S
C133 C128 1.360 . S
C133 C132 1.366 . S
C134 C108 1.490 . S
C134 C135 1.380 . S
C134 C139 1.386 . S
C135 H92 0.930 . S
C135 C134 1.380 . S
C135 C136 1.381 . S
C136 H93 0.929 . S
C136 C135 1.381 . S
C136 C137 1.371 . S
C137 C136 1.371 . S
C137 C138 1.380 . S
C138 H94 0.931 . S
C138 C137 1.380 . S
C138 C139 1.387 . S
C139 H95 0.930 . S
C139 C134 1.386 . S
C139 C138 1.387 . S
C140 C109 1.519 . S
C140 C141 1.377 . S
C140 C145 1.361 . S
C141 H96 0.929 . S
C141 C140 1.377 . S
C141 C142 1.386 . S
C142 H97 0.931 . S
C142 C141 1.386 . S
C142 C143 1.363 . S
C143 C142 1.363 . S
C143 C144 1.385 . S
C144 H98 0.930 . S
C144 C143 1.385 . S
C144 C145 1.396 . S
C145 H99 0.929 . S
C145 C140 1.361 . S
C145 C144 1.396 . S
C146 O100 1.300 . S
C146 O101 1.209 . S
C146 C119 1.486 . S
C147 O102 1.199 . S
C147 O103 1.297 . S
C147 C131 1.476 1_545 S
H148 O174 0.856 . S
H149 O177 0.854 . S
H150 C185 0.930 . S
H151 C186 0.930 . S
H152 C188 0.930 . S
H153 C189 0.930 . S
H154 C191 0.931 . S
H155 C192 0.930 . S
H156 C194 0.930 1_545 S
H157 C195 0.929 . S
H158 C197 0.930 . S
H159 C198 0.931 . S
H160 C200 0.930 . S
H161 C201 0.929 . S
H162 C203 0.931 . S
H163 C204 0.930 . S
H164 C206 0.930 . S
H165 C207 0.932 . S
H166 C209 0.930 . S
H167 C210 0.929 . S
H168 C212 0.931 . S
H169 C213 0.930 . S
H170 C215 0.929 . S
H171 C216 0.931 . S
H172 C218 0.930 . S
H173 C219 0.929 . S
O174 H148 0.856 . S
O174 C220 1.300 . S
O175 C220 1.209 . S
O176 C221 1.199 . S
O177 H149 0.854 . S
O177 C221 1.297 . S
C178 C179 1.404 . S
C178 C183 1.397 . S
C178 C184 1.492 . S
C179 C178 1.404 . S
C179 C180 1.396 . S
C179 C190 1.492 1_545 S
C180 C179 1.396 . S
C180 C181 1.397 . S
C180 C196 1.515 . S
C181 C180 1.397 . S
C181 C182 1.412 . S
C181 C202 1.485 . S
C182 C181 1.412 . S
C182 C183 1.388 . S
C182 C208 1.490 . S
C183 C178 1.397 . S
C183 C182 1.388 . S
C183 C214 1.519 . S
C184 C178 1.492 . S
C184 C185 1.363 1_545 S
C184 C189 1.390 . S
C185 H150 0.930 . S
C185 C184 1.363 1_565 S
C185 C186 1.372 . S
C186 H151 0.930 . S
C186 C185 1.372 . S
C186 C187 1.383 . S
C187 C186 1.383 . S
C187 C188 1.395 1_565 S
C188 H152 0.930 . S
C188 C187 1.395 1_545 S
C188 C189 1.362 . S
C189 H153 0.930 . S
C189 C184 1.390 . S
C189 C188 1.362 . S
C190 C179 1.492 1_565 S
C190 C191 1.377 . S
C190 C195 1.397 1_565 S
C191 H154 0.931 . S
C191 C190 1.377 . S
C191 C192 1.376 . S
C192 H155 0.930 . S
C192 C191 1.376 . S
C192 C193 1.376 . S
C193 C192 1.376 . S
C193 C194 1.378 . S
C193 C220 1.486 . S
C194 H156 0.930 1_565 S
C194 C193 1.378 . S
C194 C195 1.376 1_565 S
C195 H157 0.929 . S
C195 C190 1.397 1_545 S
C195 C194 1.376 1_545 S
C196 C180 1.515 . S
C196 C197 1.374 1_545 S
C196 C201 1.397 . S
C197 H158 0.930 . S
C197 C196 1.374 1_565 S
C197 C198 1.375 . S
C198 H159 0.931 . S
C198 C197 1.375 . S
C198 C199 1.375 . S
C199 C198 1.375 . S
C199 C200 1.361 1_565 S
C200 H160 0.930 . S
C200 C199 1.361 1_545 S
C200 C201 1.399 . S
C201 H161 0.929 . S
C201 C196 1.397 . S
C201 C200 1.399 . S
C202 C181 1.485 . S
C202 C203 1.394 . S
C202 C207 1.360 . S
C203 H162 0.931 . S
C203 C202 1.394 . S
C203 C204 1.372 . S
C204 H163 0.930 . S
C204 C203 1.372 . S
C204 C205 1.397 . S
C205 C204 1.397 . S
C205 C206 1.390 . S
C205 C221 1.476 . S
C206 H164 0.930 . S
C206 C205 1.390 . S
C206 C207 1.366 . S
C207 H165 0.932 . S
C207 C202 1.360 . S
C207 C206 1.366 . S
C208 C182 1.490 . S
C208 C209 1.380 . S
C208 C213 1.386 . S
C209 H166 0.930 . S
C209 C208 1.380 . S
C209 C210 1.381 . S
C210 H167 0.929 . S
C210 C209 1.381 . S
C210 C211 1.371 . S
C211 C210 1.371 . S
C211 C212 1.380 . S
C212 H168 0.931 . S
C212 C211 1.380 . S
C212 C213 1.387 . S
C213 H169 0.930 . S
C213 C208 1.386 . S
C213 C212 1.387 . S
C214 C183 1.519 . S
C214 C215 1.377 . S
C214 C219 1.361 . S
C215 H170 0.929 . S
C215 C214 1.377 . S
C215 C216 1.386 . S
C216 H171 0.931 . S
C216 C215 1.386 . S
C216 C217 1.363 . S
C217 C216 1.363 . S
C217 C218 1.385 . S
C218 H172 0.930 . S
C218 C217 1.385 . S
C218 C219 1.396 . S
C219 H173 0.929 . S
C219 C214 1.361 . S
C219 C218 1.396 . S
C220 O174 1.300 . S
C220 O175 1.209 . S
C220 C193 1.486 . S
C221 O176 1.199 . S
C221 O177 1.297 . S
C221 C205 1.476 . S
H222 O248 0.856 . S
H223 O251 0.854 . S
H224 C259 0.930 . S
H225 C260 0.930 . S
H226 C262 0.930 . S
H227 C263 0.930 . S
H228 C265 0.931 . S
H229 C266 0.930 . S
H230 C268 0.930 . S
H231 C269 0.929 . S
H232 C271 0.930 . S
H233 C272 0.931 . S
H234 C274 0.930 . S
H235 C275 0.929 . S
H236 C277 0.931 . S
H237 C278 0.930 . S
H238 C280 0.930 . S
H239 C281 0.932 . S
H240 C283 0.930 . S
H241 C284 0.929 . S
H242 C286 0.931 . S
H243 C287 0.930 . S
H244 C289 0.929 . S
H245 C290 0.931 . S
H246 C292 0.930 . S
H247 C293 0.929 . S
O248 H222 0.856 . S
O248 C294 1.300 . S
O249 C294 1.209 . S
O250 C295 1.199 . S
O251 H223 0.854 . S
O251 C295 1.297 . S
C252 C253 1.404 . S
C252 C257 1.397 . S
C252 C258 1.492 . S
C253 C252 1.404 . S
C253 C254 1.396 . S
C253 C264 1.492 . S
C254 C253 1.396 . S
C254 C255 1.397 . S
C254 C270 1.509 . S
C255 C254 1.397 . S
C255 C256 1.412 . S
C255 C276 1.485 . S
C256 C255 1.412 . S
C256 C257 1.388 . S
C256 C282 1.490 . S
C257 C252 1.397 . S
C257 C256 1.388 . S
C257 C288 1.519 . S
C258 C252 1.492 . S
C258 C259 1.363 . S
C258 C263 1.390 . S
C259 H224 0.930 . S
C259 C258 1.363 . S
C259 C260 1.372 . S
C260 H225 0.930 . S
C260 C259 1.372 . S
C260 C261 1.383 . S
C261 C260 1.383 . S
C261 C262 1.395 . S
C262 H226 0.930 . S
C262 C261 1.395 . S
C262 C263 1.362 . S
C263 H227 0.930 . S
C263 C258 1.390 . S
C263 C262 1.362 . S
C264 C253 1.492 . S
C264 C265 1.377 . S
C264 C269 1.397 . S
C265 H228 0.931 . S
C265 C264 1.377 . S
C265 C266 1.376 . S
C266 H229 0.930 . S
C266 C265 1.376 . S
C266 C267 1.376 . S
C267 C266 1.376 . S
C267 C268 1.378 . S
C267 C294 1.486 . S
C268 H230 0.930 . S
C268 C267 1.378 . S
C268 C269 1.376 . S
C269 H231 0.929 . S
C269 C264 1.397 . S
C269 C268 1.376 . S
C270 C254 1.509 . S
C270 C271 1.391 . S
C270 C275 1.386 . S
C271 H232 0.930 . S
C271 C270 1.391 . S
C271 C272 1.375 . S
C272 H233 0.931 . S
C272 C271 1.375 . S
C272 C273 1.375 . S
C273 C272 1.375 . S
C273 C274 1.361 . S
C274 H234 0.930 . S
C274 C273 1.361 . S
C274 C275 1.399 . S
C275 H235 0.929 . S
C275 C270 1.386 . S
C275 C274 1.399 . S
C276 C255 1.485 . S
C276 C277 1.394 . S
C276 C281 1.360 . S
C277 H236 0.931 . S
C277 C276 1.394 . S
C277 C278 1.372 . S
C278 H237 0.930 . S
C278 C277 1.372 . S
C278 C279 1.397 . S
C279 C278 1.397 . S
C279 C280 1.390 . S
C279 C295 1.476 . S
C280 H238 0.930 . S
C280 C279 1.390 . S
C280 C281 1.366 . S
C281 H239 0.932 . S
C281 C276 1.360 . S
C281 C280 1.366 . S
C282 C256 1.490 . S
C282 C283 1.380 . S
C282 C287 1.386 . S
C283 H240 0.930 . S
C283 C282 1.380 . S
C283 C284 1.381 . S
C284 H241 0.929 . S
C284 C283 1.381 . S
C284 C285 1.371 . S
C285 C284 1.371 . S
C285 C286 1.380 . S
C286 H242 0.931 . S
C286 C285 1.380 . S
C286 C287 1.387 . S
C287 H243 0.930 . S
C287 C282 1.386 . S
C287 C286 1.387 . S
C288 C257 1.519 . S
C288 C289 1.377 . S
C288 C293 1.361 . S
C289 H244 0.929 . S
C289 C288 1.377 . S
C289 C290 1.386 . S
C290 H245 0.931 . S
C290 C289 1.386 . S
C290 C291 1.363 . S
C291 C290 1.363 . S
C291 C292 1.385 . S
C292 H246 0.930 . S
C292 C291 1.385 . S
C292 C293 1.396 . S
C293 H247 0.929 . S
C293 C288 1.361 . S
C293 C292 1.396 . S
C294 O248 1.300 . S
C294 O249 1.209 . S
C294 C267 1.486 . S
C295 O250 1.199 . S
C295 O251 1.297 . S
C295 C279 1.476 . S
H296 O322 0.856 . S
H297 O325 0.854 . S
H298 C333 0.930 . S
H299 C334 0.930 . S
H300 C336 0.930 . S
H301 C337 0.930 . S
H302 C339 0.931 . S
H303 C340 0.930 . S
H304 C342 0.930 . S
H305 C343 0.929 . S
H306 C345 0.930 . S
H307 C346 0.931 . S
H308 C348 0.930 . S
H309 C349 0.929 . S
H310 C351 0.931 . S
H311 C352 0.930 . S
H312 C354 0.930 . S
H313 C355 0.932 . S
H314 C357 0.930 . S
H315 C358 0.929 . S
H316 C360 0.931 . S
H317 C361 0.930 . S
H318 C363 0.929 . S
H319 C364 0.931 . S
H320 C366 0.930 . S
H321 C367 0.929 . S
O322 H296 0.856 . S
O322 C368 1.300 . S
O323 C368 1.209 . S
O324 C369 1.199 . S
O325 H297 0.854 . S
O325 C369 1.297 . S
C326 C327 1.404 . S
C326 C331 1.397 . S
C326 C332 1.492 . S
C327 C326 1.404 . S
C327 C328 1.396 . S
C327 C338 1.492 . S
C328 C327 1.396 . S
C328 C329 1.397 . S
C328 C344 1.509 . S
C329 C328 1.397 . S
C329 C330 1.412 . S
C329 C350 1.485 . S
C330 C329 1.412 . S
C330 C331 1.388 . S
C330 C356 1.490 . S
C331 C326 1.397 . S
C331 C330 1.388 . S
C331 C362 1.519 . S
C332 C326 1.492 . S
C332 C333 1.363 . S
C332 C337 1.390 . S
C333 H298 0.930 . S
C333 C332 1.363 . S
C333 C334 1.372 . S
C334 H299 0.930 . S
C334 C333 1.372 . S
C334 C335 1.383 . S
C335 C334 1.383 . S
C335 C336 1.395 . S
C336 H300 0.930 . S
C336 C335 1.395 . S
C336 C337 1.362 . S
C337 H301 0.930 . S
C337 C332 1.390 . S
C337 C336 1.362 . S
C338 C327 1.492 . S
C338 C339 1.377 . S
C338 C343 1.397 . S
C339 H302 0.931 . S
C339 C338 1.377 . S
C339 C340 1.376 . S
C340 H303 0.930 . S
C340 C339 1.376 . S
C340 C341 1.376 . S
C341 C340 1.376 . S
C341 C342 1.378 . S
C341 C368 1.486 . S
C342 H304 0.930 . S
C342 C341 1.378 . S
C342 C343 1.376 . S
C343 H305 0.929 . S
C343 C338 1.397 . S
C343 C342 1.376 . S
C344 C328 1.509 . S
C344 C345 1.391 . S
C344 C349 1.386 . S
C345 H306 0.930 . S
C345 C344 1.391 . S
C345 C346 1.375 . S
C346 H307 0.931 . S
C346 C345 1.375 . S
C346 C347 1.375 . S
C347 C346 1.375 . S
C347 C348 1.361 . S
C348 H308 0.930 . S
C348 C347 1.361 . S
C348 C349 1.399 . S
C349 H309 0.929 . S
C349 C344 1.386 . S
C349 C348 1.399 . S
C350 C329 1.485 . S
C350 C351 1.394 . S
C350 C355 1.360 . S
C351 H310 0.931 . S
C351 C350 1.394 . S
C351 C352 1.372 . S
C352 H311 0.930 . S
C352 C351 1.372 . S
C352 C353 1.397 . S
C353 C352 1.397 . S
C353 C354 1.390 . S
C353 C369 1.476 . S
C354 H312 0.930 . S
C354 C353 1.390 . S
C354 C355 1.366 . S
C355 H313 0.932 . S
C355 C350 1.360 . S
C355 C354 1.366 . S
C356 C330 1.490 . S
C356 C357 1.380 . S
C356 C361 1.386 . S
C357 H314 0.930 . S
C357 C356 1.380 . S
C357 C358 1.381 . S
C358 H315 0.929 . S
C358 C357 1.381 . S
C358 C359 1.371 . S
C359 C358 1.371 . S
C359 C360 1.380 . S
C360 H316 0.931 . S
C360 C359 1.380 . S
C360 C361 1.387 . S
C361 H317 0.930 . S
C361 C356 1.386 . S
C361 C360 1.387 . S
C362 C331 1.519 . S
C362 C363 1.377 . S
C362 C367 1.361 . S
C363 H318 0.929 . S
C363 C362 1.377 . S
C363 C364 1.386 . S
C364 H319 0.931 . S
C364 C363 1.386 . S
C364 C365 1.363 . S
C365 C364 1.363 . S
C365 C366 1.385 . S
C366 H320 0.930 . S
C366 C365 1.385 . S
C366 C367 1.396 . S
C367 H321 0.929 . S
C367 C362 1.361 . S
C367 C366 1.396 . S
C368 O322 1.300 . S
C368 O323 1.209 . S
C368 C341 1.486 . S
C369 O324 1.199 . S
C369 O325 1.297 . S
C369 C353 1.476 . S
H370 O396 0.856 . S
H371 O399 0.854 . S
H372 C407 0.930 . S
H373 C408 0.930 . S
H374 C410 0.930 . S
H375 C411 0.930 . S
H376 C413 0.931 . S
H377 C414 0.930 . S
H378 C416 0.930 . S
H379 C417 0.929 . S
H380 C419 0.930 . S
H381 C420 0.931 . S
H382 C422 0.930 . S
H383 C423 0.929 . S
H384 C425 0.931 . S
H385 C426 0.930 . S
H386 C428 0.930 . S
H387 C429 0.932 . S
H388 C431 0.930 . S
H389 C432 0.929 . S
H390 C434 0.931 . S
H391 C435 0.930 . S
H392 C437 0.929 . S
H393 C438 0.931 . S
H394 C440 0.930 . S
H395 C441 0.929 . S
O396 H370 0.856 . S
O396 C442 1.300 . S
O397 C442 1.209 . S
O398 C443 1.199 . S
O399 H371 0.854 . S
O399 C443 1.297 . S
C400 C401 1.404 . S
C400 C405 1.397 . S
C400 C406 1.492 . S
C401 C400 1.404 . S
C401 C402 1.396 . S
C401 C412 1.492 . S
C402 C401 1.396 . S
C402 C403 1.397 . S
C402 C418 1.509 . S
C403 C402 1.397 . S
C403 C404 1.412 . S
C403 C424 1.485 . S
C404 C403 1.412 . S
C404 C405 1.388 . S
C404 C430 1.490 . S
C405 C400 1.397 . S
C405 C404 1.388 . S
C405 C436 1.519 . S
C406 C400 1.492 . S
C406 C407 1.363 . S
C406 C411 1.390 . S
C407 H372 0.930 . S
C407 C406 1.363 . S
C407 C408 1.372 . S
C408 H373 0.930 . S
C408 C407 1.372 . S
C408 C409 1.383 . S
C409 C408 1.383 . S
C409 C410 1.395 . S
C410 H374 0.930 . S
C410 C409 1.395 . S
C410 C411 1.362 . S
C411 H375 0.930 . S
C411 C406 1.390 . S
C411 C410 1.362 . S
C412 C401 1.492 . S
C412 C413 1.377 . S
C412 C417 1.397 . S
C413 H376 0.931 . S
C413 C412 1.377 . S
C413 C414 1.376 . S
C414 H377 0.930 . S
C414 C413 1.376 . S
C414 C415 1.376 . S
C415 C414 1.376 . S
C415 C416 1.378 . S
C415 C442 1.486 . S
C416 H378 0.930 . S
C416 C415 1.378 . S
C416 C417 1.376 . S
C417 H379 0.929 . S
C417 C412 1.397 . S
C417 C416 1.376 . S
C418 C402 1.509 . S
C418 C419 1.391 . S
C418 C423 1.386 . S
C419 H380 0.930 . S
C419 C418 1.391 . S
C419 C420 1.375 . S
C420 H381 0.931 . S
C420 C419 1.375 . S
C420 C421 1.375 . S
C421 C420 1.375 . S
C421 C422 1.361 . S
C422 H382 0.930 . S
C422 C421 1.361 . S
C422 C423 1.399 . S
C423 H383 0.929 . S
C423 C418 1.386 . S
C423 C422 1.399 . S
C424 C403 1.485 . S
C424 C425 1.394 . S
C424 C429 1.360 . S
C425 H384 0.931 . S
C425 C424 1.394 . S
C425 C426 1.372 . S
C426 H385 0.930 . S
C426 C425 1.372 . S
C426 C427 1.397 . S
C427 C426 1.397 . S
C427 C428 1.390 . S
C427 C443 1.476 . S
C428 H386 0.930 . S
C428 C427 1.390 . S
C428 C429 1.366 . S
C429 H387 0.932 . S
C429 C424 1.360 . S
C429 C428 1.366 . S
C430 C404 1.490 . S
C430 C431 1.380 . S
C430 C435 1.386 . S
C431 H388 0.930 . S
C431 C430 1.380 . S
C431 C432 1.381 . S
C432 H389 0.929 . S
C432 C431 1.381 . S
C432 C433 1.371 . S
C433 C432 1.371 . S
C433 C434 1.380 . S
C434 H390 0.931 . S
C434 C433 1.380 . S
C434 C435 1.387 . S
C435 H391 0.930 . S
C435 C430 1.386 . S
C435 C434 1.387 . S
C436 C405 1.519 . S
C436 C437 1.377 . S
C436 C441 1.361 . S
C437 H392 0.929 . S
C437 C436 1.377 . S
C437 C438 1.386 . S
C438 H393 0.931 . S
C438 C437 1.386 . S
C438 C439 1.363 . S
C439 C438 1.363 . S
C439 C440 1.385 . S
C440 H394 0.930 . S
C440 C439 1.385 . S
C440 C441 1.396 . S
C441 H395 0.929 . S
C441 C436 1.361 . S
C441 C440 1.396 . S
C442 O396 1.300 . S
C442 O397 1.209 . S
C442 C415 1.486 . S
C443 O398 1.199 . S
C443 O399 1.297 . S
C443 C427 1.476 . S
H444 O470 0.856 . S
H445 O473 0.854 . S
H446 C481 0.930 . S
H447 C482 0.930 . S
H448 C484 0.930 . S
H449 C485 0.930 . S
H450 C487 0.931 . S
H451 C488 0.935 . S
H452 C490 0.930 . S
H453 C491 0.929 . S
H454 C493 0.930 . S
H455 C494 0.931 . S
H456 C496 0.930 . S
H457 C497 0.929 . S
H458 C499 0.931 . S
H459 C500 0.930 . S
H460 C502 0.930 . S
H461 C503 0.932 . S
H462 C505 0.930 . S
H463 C506 0.929 . S
H464 C508 0.931 . S
H465 C509 0.930 . S
H466 C511 0.929 . S
H467 C512 0.931 . S
H468 C514 0.930 . S
H469 C515 0.929 . S
O470 H444 0.856 . S
O470 C516 1.300 . S
O471 C516 1.209 . S
O472 C517 1.199 . S
O473 H445 0.854 . S
O473 C517 1.297 . S
C474 C475 1.404 . S
C474 C479 1.397 . S
C474 C480 1.492 . S
C475 C474 1.404 . S
C475 C476 1.396 . S
C475 C486 1.492 . S
C476 C475 1.396 . S
C476 C477 1.397 . S
C476 C492 1.509 . S
C477 C476 1.397 . S
C477 C478 1.412 . S
C477 C498 1.485 . S
C478 C477 1.412 . S
C478 C479 1.388 . S
C478 C504 1.490 . S
C479 C474 1.397 . S
C479 C478 1.388 . S
C479 C510 1.519 . S
C480 C474 1.492 . S
C480 C481 1.363 . S
C480 C485 1.390 . S
C481 H446 0.930 . S
C481 C480 1.363 . S
C481 C482 1.372 . S
C482 H447 0.930 . S
C482 C481 1.372 . S
C482 C483 1.383 . S
C483 C482 1.383 . S
C483 C484 1.395 . S
C484 H448 0.930 . S
C484 C483 1.395 . S
C484 C485 1.362 . S
C485 H449 0.930 . S
C485 C480 1.390 . S
C485 C484 1.362 . S
C486 C475 1.492 . S
C486 C487 1.377 . S
C486 C491 1.397 . S
C487 H450 0.931 . S
C487 C486 1.377 . S
C487 C488 1.371 1_554 S
C488 H451 0.935 . S
C488 C487 1.371 1_556 S
C488 C489 1.376 1_556 S
C489 C488 1.376 1_554 S
C489 C490 1.378 . S
C489 C516 1.486 1_554 S
C490 H452 0.930 . S
C490 C489 1.378 . S
C490 C491 1.376 . S
C491 H453 0.929 . S
C491 C486 1.397 . S
C491 C490 1.376 . S
C492 C476 1.509 . S
C492 C493 1.391 . S
C492 C497 1.386 . S
C493 H454 0.930 . S
C493 C492 1.391 . S
C493 C494 1.375 . S
C494 H455 0.931 . S
C494 C493 1.375 . S
C494 C495 1.375 . S
C495 C494 1.375 . S
C495 C496 1.361 . S
C496 H456 0.930 . S
C496 C495 1.361 . S
C496 C497 1.399 . S
C497 H457 0.929 . S
C497 C492 1.386 . S
C497 C496 1.399 . S
C498 C477 1.485 . S
C498 C499 1.394 . S
C498 C503 1.360 . S
C499 H458 0.931 . S
C499 C498 1.394 . S
C499 C500 1.372 . S
C500 H459 0.930 . S
C500 C499 1.372 . S
C500 C501 1.397 . S
C501 C500 1.397 . S
C501 C502 1.390 . S
C501 C517 1.476 . S
C502 H460 0.930 . S
C502 C501 1.390 . S
C502 C503 1.366 . S
C503 H461 0.932 . S
C503 C498 1.360 . S
C503 C502 1.366 . S
C504 C478 1.490 . S
C504 C505 1.380 . S
C504 C509 1.386 . S
C505 H462 0.930 . S
C505 C504 1.380 . S
C505 C506 1.381 . S
C506 H463 0.929 . S
C506 C505 1.381 . S
C506 C507 1.371 . S
C507 C506 1.371 . S
C507 C508 1.380 . S
C508 H464 0.931 . S
C508 C507 1.380 . S
C508 C509 1.387 . S
C509 H465 0.930 . S
C509 C504 1.386 . S
C509 C508 1.387 . S
C510 C479 1.519 . S
C510 C511 1.377 . S
C510 C515 1.361 . S
C511 H466 0.929 . S
C511 C510 1.377 . S
C511 C512 1.386 . S
C512 H467 0.931 . S
C512 C511 1.386 . S
C512 C513 1.363 . S
C513 C512 1.363 . S
C513 C514 1.385 . S
C514 H468 0.930 . S
C514 C513 1.385 . S
C514 C515 1.396 . S
C515 H469 0.929 . S
C515 C510 1.361 . S
C515 C514 1.396 . S
C516 O470 1.300 . S
C516 O471 1.209 . S
C516 C489 1.486 1_556 S
C517 O472 1.199 . S
C517 O473 1.297 . S
C517 C501 1.476 . S
H518 O544 0.856 1_655 S
H519 O547 0.854 . S
H520 C555 0.930 . S
H521 C556 0.930 . S
H522 C558 0.930 . S
H523 C559 0.930 . S
H524 C561 0.931 . S
H525 C562 0.930 . S
H526 C564 0.930 . S
H527 C565 0.929 1_655 S
H528 C567 0.930 . S
H529 C568 0.931 . S
H530 C570 0.930 . S
H531 C571 0.929 . S
H532 C573 0.931 . S
H533 C574 0.930 . S
H534 C576 0.930 . S
H535 C577 0.932 . S
H536 C579 0.930 . S
H537 C580 0.929 . S
H538 C582 0.931 . S
H539 C583 0.930 . S
H540 C585 0.929 . S
H541 C586 0.931 . S
H542 C588 0.930 . S
H543 C589 0.929 1_455 S
O544 H518 0.856 1_455 S
O544 C590 1.300 1_455 S
O545 C590 1.209 . S
O546 C591 1.199 . S
O547 H519 0.854 . S
O547 C591 1.297 . S
C548 C549 1.404 . S
C548 C553 1.397 . S
C548 C554 1.492 1_455 S
C549 C548 1.404 . S
C549 C550 1.396 . S
C549 C560 1.492 . S
C550 C549 1.396 . S
C550 C551 1.397 . S
C550 C566 1.509 . S
C551 C550 1.397 . S
C551 C552 1.412 . S
C551 C572 1.485 . S
C552 C551 1.412 . S
C552 C553 1.388 . S
C552 C578 1.490 . S
C553 C548 1.397 . S
C553 C552 1.388 . S
C553 C584 1.519 1_455 S
C554 C548 1.492 1_655 S
C554 C555 1.363 . S
C554 C559 1.390 . S
C555 H520 0.930 . S
C555 C554 1.363 . S
C555 C556 1.372 . S
C556 H521 0.930 . S
C556 C555 1.372 . S
C556 C557 1.383 . S
C557 C556 1.383 . S
C557 C558 1.395 . S
C558 H522 0.930 . S
C558 C557 1.395 . S
C558 C559 1.362 . S
C559 H523 0.930 . S
C559 C554 1.390 . S
C559 C558 1.362 . S
C560 C549 1.492 . S
C560 C561 1.377 . S
C560 C565 1.397 . S
C561 H524 0.931 . S
C561 C560 1.377 . S
C561 C562 1.376 . S
C562 H525 0.930 . S
C562 C561 1.376 . S
C562 C563 1.376 . S
C563 C562 1.376 . S
C563 C564 1.378 1_455 S
C563 C590 1.486 1_455 S
C564 H526 0.930 . S
C564 C563 1.378 1_655 S
C564 C565 1.376 1_655 S
C565 H527 0.929 1_455 S
C565 C560 1.397 . S
C565 C564 1.376 1_455 S
C566 C550 1.509 . S
C566 C567 1.391 . S
C566 C571 1.386 . S
C567 H528 0.930 . S
C567 C566 1.391 . S
C567 C568 1.375 . S
C568 H529 0.931 . S
C568 C567 1.375 . S
C568 C569 1.375 . S
C569 C568 1.375 . S
C569 C570 1.361 . S
C570 H530 0.930 . S
C570 C569 1.361 . S
C570 C571 1.399 . S
C571 H531 0.929 . S
C571 C566 1.386 . S
C571 C570 1.399 . S
C572 C551 1.485 . S
C572 C573 1.394 . S
C572 C577 1.360 . S
C573 H532 0.931 . S
C573 C572 1.394 . S
C573 C574 1.372 . S
C574 H533 0.930 . S
C574 C573 1.372 . S
C574 C575 1.397 . S
C575 C574 1.397 . S
C575 C576 1.390 . S
C575 C591 1.476 . S
C576 H534 0.930 . S
C576 C575 1.390 . S
C576 C577 1.366 . S
C577 H535 0.932 . S
C577 C572 1.360 . S
C577 C576 1.366 . S
C578 C552 1.490 . S
C578 C579 1.380 . S
C578 C583 1.386 . S
C579 H536 0.930 . S
C579 C578 1.380 . S
C579 C580 1.381 . S
C580 H537 0.929 . S
C580 C579 1.381 . S
C580 C581 1.371 . S
C581 C580 1.371 . S
C581 C582 1.380 . S
C582 H538 0.931 . S
C582 C581 1.380 . S
C582 C583 1.387 . S
C583 H539 0.930 . S
C583 C578 1.386 . S
C583 C582 1.387 . S
C584 C553 1.519 1_655 S
C584 C585 1.377 . S
C584 C589 1.361 . S
C585 H540 0.929 . S
C585 C584 1.377 . S
C585 C586 1.386 . S
C586 H541 0.931 . S
C586 C585 1.386 . S
C586 C587 1.363 . S
C587 C586 1.363 . S
C587 C588 1.385 . S
C588 H542 0.930 . S
C588 C587 1.385 . S
C588 C589 1.396 . S
C589 H543 0.929 1_655 S
C589 C584 1.361 . S
C589 C588 1.396 . S
C590 O544 1.300 1_655 S
C590 O545 1.209 . S
C590 C563 1.486 1_655 S
C591 O546 1.199 . S
C591 O547 1.297 . S
C591 C575 1.476 . S
Fe592 O593 1.886 . S
Fe592 O596 1.715 1_455 S
Fe592 O601 2.077 . S
Fe592 O606 1.935 1_455 S
Fe592 O612 2.077 . S
Fe592 O621 1.935 1_455 S
O593 Fe592 1.886 . S
O593 Fe595 1.715 . S
Fe594 O596 1.886 . S
Fe594 O597 1.715 . S
Fe594 O604 1.935 . S
Fe594 O605 2.077 . S
Fe594 O611 1.935 . S
Fe594 O620 2.077 . S
Fe595 O593 1.715 . S
Fe595 O598 1.886 . S
Fe595 O602 1.935 . S
Fe595 O607 2.077 . S
Fe595 O613 1.935 . S
Fe595 O617 2.077 . S
O596 Fe592 1.715 1_655 S
O596 Fe594 1.886 . S
O597 Fe594 1.715 . S
O597 Fe599 1.886 1_655 S
O598 Fe595 1.886 . S
O598 Fe599 1.715 . S
Fe599 O597 1.886 1_455 S
Fe599 O598 1.715 . S
Fe599 O603 2.077 1_455 S
Fe599 O608 1.935 . S
Fe599 O610 2.077 1_455 S
Fe599 O618 1.935 . S
C600 O612 1.381 . S
C600 O613 1.421 . S
O601 Fe592 2.077 . S
O601 C614 1.381 . S
O602 Fe595 1.935 . S
O602 C614 1.421 . S
O603 Fe599 2.077 1_655 S
O603 C619 1.381 . S
O604 Fe594 1.935 . S
O604 C619 1.421 . S
O605 Fe594 2.077 . S
O605 C609 1.381 . S
O606 Fe592 1.935 1_655 S
O606 C609 1.421 . S
O607 Fe595 2.077 . S
O607 C615 1.381 . S
O608 Fe599 1.935 . S
O608 C615 1.421 . S
C609 O605 1.381 . S
C609 O606 1.421 . S
O610 Fe599 2.077 1_655 S
O610 C622 1.381 . S
O611 Fe594 1.935 . S
O611 C622 1.421 . S
O612 Fe592 2.077 . S
O612 C600 1.381 . S
O613 Fe595 1.935 . S
O613 C600 1.421 . S
C614 O601 1.381 . S
C614 O602 1.421 . S
C615 O607 1.381 . S
C615 O608 1.421 . S
C616 O617 1.381 . S
C616 O618 1.421 . S
O617 Fe595 2.077 . S
O617 C616 1.381 . S
O618 Fe599 1.935 . S
O618 C616 1.421 . S
C619 O603 1.381 . S
C619 O604 1.421 . S
O620 Fe594 2.077 . S
O620 C623 1.381 . S
O621 Fe592 1.935 1_655 S
O621 C623 1.421 . S
C622 O610 1.381 . S
C622 O611 1.421 . S
C623 O620 1.381 . S
C623 O621 1.421 . S
Fe624 O625 1.886 . S
Fe624 O628 1.715 . S
Fe624 O633 2.077 . S
Fe624 O638 1.935 . S
Fe624 O644 2.077 . S
Fe624 O653 1.935 . S
O625 Fe624 1.886 . S
O625 Fe627 1.715 . S
Fe626 O628 1.886 . S
Fe626 O629 1.715 . S
Fe626 O636 1.935 . S
Fe626 O637 2.077 . S
Fe626 O643 1.935 . S
Fe626 O652 2.077 . S
Fe627 O625 1.715 . S
Fe627 O630 1.886 . S
Fe627 O634 1.935 . S
Fe627 O639 2.077 . S
Fe627 O645 1.935 . S
Fe627 O649 2.077 . S
O628 Fe624 1.715 . S
O628 Fe626 1.886 . S
O629 Fe626 1.715 . S
O629 Fe631 1.886 . S
O630 Fe627 1.886 . S
O630 Fe631 1.715 . S
Fe631 O629 1.886 . S
Fe631 O630 1.715 . S
Fe631 O635 2.077 . S
Fe631 O640 1.935 . S
Fe631 O642 2.077 . S
Fe631 O650 1.935 . S
C632 O644 1.381 . S
C632 O645 1.421 . S
O633 Fe624 2.077 . S
O633 C646 1.381 . S
O634 Fe627 1.935 . S
O634 C646 1.421 . S
O635 Fe631 2.077 . S
O635 C651 1.381 . S
O636 Fe626 1.935 . S
O636 C651 1.421 . S
O637 Fe626 2.077 . S
O637 C641 1.381 . S
O638 Fe624 1.935 . S
O638 C641 1.421 . S
O639 Fe627 2.077 . S
O639 C647 1.381 . S
O640 Fe631 1.935 . S
O640 C647 1.421 . S
C641 O637 1.381 . S
C641 O638 1.421 . S
O642 Fe631 2.077 . S
O642 C654 1.381 . S
O643 Fe626 1.935 . S
O643 C654 1.421 . S
O644 Fe624 2.077 . S
O644 C632 1.381 . S
O645 Fe627 1.935 . S
O645 C632 1.421 . S
C646 O633 1.381 . S
C646 O634 1.421 . S
C647 O639 1.381 . S
C647 O640 1.421 . S
C648 O649 1.381 . S
C648 O650 1.421 . S
O649 Fe627 2.077 . S
O649 C648 1.381 . S
O650 Fe631 1.935 . S
O650 C648 1.421 . S
C651 O635 1.381 . S
C651 O636 1.421 . S
O652 Fe626 2.077 . S
O652 C655 1.381 . S
O653 Fe624 1.935 . S
O653 C655 1.421 . S
C654 O642 1.381 . S
C654 O643 1.421 . S
C655 O652 1.381 . S
C655 O653 1.421 . S
Fe656 O657 1.886 . S
Fe656 O660 1.715 . S
Fe656 O665 2.077 . S
Fe656 O670 1.935 . S
Fe656 O676 2.077 . S
Fe656 O685 1.935 . S
O657 Fe656 1.886 . S
O657 Fe659 1.715 . S
Fe658 O660 1.886 . S
Fe658 O661 1.715 . S
Fe658 O668 1.935 . S
Fe658 O669 2.077 . S
Fe658 O675 1.935 . S
Fe658 O684 2.077 . S
Fe659 O657 1.715 . S
Fe659 O662 1.886 . S
Fe659 O666 1.935 . S
Fe659 O671 2.077 . S
Fe659 O677 1.935 . S
Fe659 O681 2.077 . S
O660 Fe656 1.715 . S
O660 Fe658 1.886 . S
O661 Fe658 1.715 . S
O661 Fe663 1.886 . S
O662 Fe659 1.886 . S
O662 Fe663 1.715 . S
Fe663 O661 1.886 . S
Fe663 O662 1.715 . S
Fe663 O667 2.077 . S
Fe663 O672 1.935 . S
Fe663 O674 2.077 . S
Fe663 O682 1.935 . S
C664 O676 1.381 . S
C664 O677 1.421 . S
O665 Fe656 2.077 . S
O665 C678 1.381 . S
O666 Fe659 1.935 . S
O666 C678 1.421 . S
O667 Fe663 2.077 . S
O667 C683 1.381 . S
O668 Fe658 1.935 . S
O668 C683 1.421 . S
O669 Fe658 2.077 . S
O669 C673 1.381 . S
O670 Fe656 1.935 . S
O670 C673 1.421 . S
O671 Fe659 2.077 . S
O671 C679 1.381 . S
O672 Fe663 1.935 . S
O672 C679 1.421 . S
C673 O669 1.381 . S
C673 O670 1.421 . S
O674 Fe663 2.077 . S
O674 C686 1.381 . S
O675 Fe658 1.935 . S
O675 C686 1.421 . S
O676 Fe656 2.077 . S
O676 C664 1.381 . S
O677 Fe659 1.935 . S
O677 C664 1.421 . S
C678 O665 1.381 . S
C678 O666 1.421 . S
C679 O671 1.381 . S
C679 O672 1.421 . S
C680 O681 1.381 . S
C680 O682 1.421 . S
O681 Fe659 2.077 . S
O681 C680 1.381 . S
O682 Fe663 1.935 . S
O682 C680 1.421 . S
C683 O667 1.381 . S
C683 O668 1.421 . S
O684 Fe658 2.077 . S
O684 C687 1.381 . S
O685 Fe656 1.935 . S
O685 C687 1.421 . S
C686 O674 1.381 . S
C686 O675 1.421 . S
C687 O684 1.381 . S
C687 O685 1.421 . S
Fe688 O689 1.886 . S
Fe688 O692 1.715 . S
Fe688 O697 2.077 1_455 S
Fe688 O702 1.935 1_455 S
Fe688 O708 2.077 . S
Fe688 O717 1.935 . S
O689 Fe688 1.886 . S
O689 Fe691 1.715 . S
Fe690 O692 1.886 . S
Fe690 O693 1.715 . S
Fe690 O700 1.935 1_455 S
Fe690 O701 2.077 1_455 S
Fe690 O707 1.935 . S
Fe690 O716 2.077 . S
Fe691 O689 1.715 . S
Fe691 O694 1.886 . S
Fe691 O698 1.935 1_455 S
Fe691 O703 2.077 1_455 S
Fe691 O709 1.935 . S
Fe691 O713 2.077 . S
O692 Fe688 1.715 . S
O692 Fe690 1.886 . S
O693 Fe690 1.715 . S
O693 Fe695 1.886 . S
O694 Fe691 1.886 . S
O694 Fe695 1.715 . S
Fe695 O693 1.886 . S
Fe695 O694 1.715 . S
Fe695 O699 2.077 1_455 S
Fe695 O704 1.935 1_455 S
Fe695 O706 2.077 . S
Fe695 O714 1.935 . S
C696 O708 1.381 . S
C696 O709 1.421 . S
O697 Fe688 2.077 1_655 S
O697 C710 1.381 . S
O698 Fe691 1.935 1_655 S
O698 C710 1.421 . S
O699 Fe695 2.077 1_655 S
O699 C715 1.381 . S
O700 Fe690 1.935 1_655 S
O700 C715 1.421 . S
O701 Fe690 2.077 1_655 S
O701 C705 1.381 . S
O702 Fe688 1.935 1_655 S
O702 C705 1.421 . S
O703 Fe691 2.077 1_655 S
O703 C711 1.381 . S
O704 Fe695 1.935 1_655 S
O704 C711 1.421 . S
C705 O701 1.381 . S
C705 O702 1.421 . S
O706 Fe695 2.077 . S
O706 C718 1.381 . S
O707 Fe690 1.935 . S
O707 C718 1.421 . S
O708 Fe688 2.077 . S
O708 C696 1.381 . S
O709 Fe691 1.935 . S
O709 C696 1.421 . S
C710 O697 1.381 . S
C710 O698 1.421 . S
C711 O703 1.381 . S
C711 O704 1.421 . S
C712 O713 1.381 . S
C712 O714 1.421 . S
O713 Fe691 2.077 . S
O713 C712 1.381 . S
O714 Fe695 1.935 . S
O714 C712 1.421 . S
C715 O699 1.381 . S
C715 O700 1.421 . S
O716 Fe690 2.077 . S
O716 C719 1.381 . S
O717 Fe688 1.935 . S
O717 C719 1.421 . S
C718 O706 1.381 . S
C718 O707 1.421 . S
C719 O716 1.381 . S
C719 O717 1.421 . S
C720 C721 1.349 . S
C720 C722 1.327 . S
C720 H745 0.950 . S
C721 C720 1.349 . S
C721 C737 1.349 . S
C722 C720 1.327 . S
C722 C741 1.429 . S
C722 H746 0.950 . S
C723 C740 1.574 . S
C723 C742 1.368 . S
C723 H747 0.949 . S
H724 C728 0.949 . S
C725 C726 1.349 . S
C725 C727 1.327 . S
C725 H748 0.950 . S
C726 C725 1.349 . S
C726 C738 1.349 . S
C727 C725 1.327 . S
C727 C743 1.429 . S
C727 H749 0.950 . S
C728 H724 0.949 . S
C728 C736 1.574 . S
C728 C744 1.368 . S
H729 C737 0.950 . S
H730 C735 0.950 . S
H731 C736 0.949 . S
H732 C738 0.950 . S
H733 C739 0.950 . S
H734 C740 0.949 . S
C735 H730 0.950 . S
C735 C737 1.327 . S
C735 C741 1.429 . S
C736 C728 1.574 . S
C736 H731 0.949 . S
C736 C742 1.368 . S
C737 C721 1.349 . S
C737 H729 0.950 . S
C737 C735 1.327 . S
C738 C726 1.349 . S
C738 H732 0.950 . S
C738 C739 1.327 . S
C739 H733 0.950 . S
C739 C738 1.327 . S
C739 C743 1.429 . S
C740 C723 1.574 . S
C740 H734 0.949 . S
C740 C744 1.368 . S
C741 C722 1.429 . S
C741 C735 1.429 . S
C741 C742 1.523 . S
C742 C723 1.368 . S
C742 C736 1.368 . S
C742 C741 1.523 . S
C743 C727 1.429 . S
C743 C739 1.429 . S
C743 C744 1.523 . S
C744 C728 1.368 . S
C744 C740 1.368 . S
C744 C743 1.523 . S
H745 C720 0.950 . S
H746 C722 0.950 . S
H747 C723 0.949 . S
H748 C725 0.950 . S
H749 C727 0.950 . S
C750 C751 1.349 . S
C750 C752 1.321 1_565 S
C750 H775 0.950 . S
C751 C750 1.349 . S
C751 C767 1.349 . S
C752 C750 1.321 1_545 S
C752 C771 1.428 1_545 S
C752 H776 0.957 . S
C753 C770 1.574 . S
C753 C772 1.368 . S
C753 H777 0.949 1_545 S
H754 C758 0.949 . S
C755 C756 1.349 . S
C755 C757 1.327 . S
C755 H778 0.950 . S
C756 C755 1.349 . S
C756 C768 1.349 . S
C757 C755 1.327 . S
C757 C773 1.429 . S
C757 H779 0.950 . S
C758 H754 0.949 . S
C758 C766 1.574 . S
C758 C774 1.368 . S
H759 C767 0.950 . S
H760 C765 0.950 . S
H761 C766 0.949 . S
H762 C768 0.950 . S
H763 C769 0.950 . S
H764 C770 0.949 . S
C765 H760 0.950 . S
C765 C767 1.327 . S
C765 C771 1.429 . S
C766 C758 1.574 . S
C766 H761 0.949 . S
C766 C772 1.368 . S
C767 C751 1.349 . S
C767 H759 0.950 . S
C767 C765 1.327 . S
C768 C756 1.349 . S
C768 H762 0.950 . S
C768 C769 1.327 . S
C769 H763 0.950 . S
C769 C768 1.327 . S
C769 C773 1.429 . S
C770 C753 1.574 . S
C770 H764 0.949 . S
C770 C774 1.368 . S
C771 C752 1.428 1_565 S
C771 C765 1.429 . S
C771 C772 1.523 1_565 S
C772 C753 1.368 . S
C772 C766 1.368 . S
C772 C771 1.523 1_545 S
C773 C757 1.429 . S
C773 C769 1.429 . S
C773 C774 1.523 . S
C774 C758 1.368 . S
C774 C770 1.368 . S
C774 C773 1.523 . S
H775 C750 0.950 . S
H776 C752 0.957 . S
H777 C753 0.949 1_565 S
H778 C755 0.950 . S
H779 C757 0.950 . S
C780 C781 1.349 . S
C780 C782 1.327 . S
C780 H805 0.950 . S
C781 C780 1.349 . S
C781 C797 1.349 . S
C782 C780 1.327 . S
C782 C801 1.429 . S
C782 H806 0.950 1_554 S
C783 C800 1.574 1_554 S
C783 C802 1.368 1_554 S
C783 H807 0.949 . S
H784 C788 0.949 . S
C785 C786 1.349 . S
C785 C787 1.327 . S
C785 H808 0.950 . S
C786 C785 1.349 . S
C786 C798 1.349 . S
C787 C785 1.327 . S
C787 C803 1.429 . S
C787 H809 0.950 . S
C788 H784 0.949 . S
C788 C796 1.574 . S
C788 C804 1.368 . S
H789 C797 0.950 . S
H790 C795 0.950 . S
H791 C796 0.949 . S
H792 C798 0.950 . S
H793 C799 0.950 . S
H794 C800 0.949 . S
C795 H790 0.950 . S
C795 C797 1.327 . S
C795 C801 1.429 . S
C796 C788 1.574 . S
C796 H791 0.949 . S
C796 C802 1.368 . S
C797 C781 1.349 . S
C797 H789 0.950 . S
C797 C795 1.327 . S
C798 C786 1.349 . S
C798 H792 0.950 . S
C798 C799 1.327 . S
C799 H793 0.950 . S
C799 C798 1.327 . S
C799 C803 1.429 . S
C800 C783 1.574 1_556 S
C800 H794 0.949 . S
C800 C804 1.368 . S
C801 C782 1.429 . S
C801 C795 1.429 . S
C801 C802 1.523 1_554 S
C802 C783 1.368 1_556 S
C802 C796 1.368 . S
C802 C801 1.523 1_556 S
C803 C787 1.429 . S
C803 C799 1.429 . S
C803 C804 1.523 . S
C804 C788 1.368 . S
C804 C800 1.368 . S
C804 C803 1.523 . S
H805 C780 0.950 . S
H806 C782 0.950 1_556 S
H807 C783 0.949 . S
H808 C785 0.950 . S
H809 C787 0.950 . S
C810 C811 1.349 . S
C810 C812 1.327 . S
C810 H835 0.950 . S
C811 C810 1.349 . S
C811 C827 1.349 . S
C812 C810 1.327 . S
C812 C831 1.429 . S
C812 H836 0.950 . S
C813 C830 1.574 . S
C813 C832 1.368 1_565 S
C813 H837 0.949 . S
H814 C818 0.949 . S
C815 C816 1.349 . S
C815 C817 1.327 . S
C815 H838 0.950 . S
C816 C815 1.349 . S
C816 C828 1.349 . S
C817 C815 1.327 . S
C817 C833 1.429 . S
C817 H839 0.950 . S
C818 H814 0.949 . S
C818 C826 1.574 1_565 S
C818 C834 1.368 . S
H819 C827 0.950 . S
H820 C825 0.950 . S
H821 C826 0.949 . S
H822 C828 0.950 . S
H823 C829 0.950 . S
H824 C830 0.949 . S
C825 H820 0.950 . S
C825 C827 1.327 . S
C825 C831 1.429 . S
C826 C818 1.574 1_545 S
C826 H821 0.949 . S
C826 C832 1.368 . S
C827 C811 1.349 . S
C827 H819 0.950 . S
C827 C825 1.327 . S
C828 C816 1.349 . S
C828 H822 0.950 . S
C828 C829 1.327 . S
C829 H823 0.950 . S
C829 C828 1.327 . S
C829 C833 1.429 . S
C830 C813 1.574 . S
C830 H824 0.949 . S
C830 C834 1.368 . S
C831 C812 1.429 . S
C831 C825 1.429 . S
C831 C832 1.523 . S
C832 C813 1.368 1_545 S
C832 C826 1.368 . S
C832 C831 1.523 . S
C833 C817 1.429 . S
C833 C829 1.429 . S
C833 C834 1.523 . S
C834 C818 1.368 . S
C834 C830 1.368 . S
C834 C833 1.523 . S
H835 C810 0.950 . S
H836 C812 0.950 . S
H837 C813 0.949 . S
H838 C815 0.950 . S
H839 C817 0.950 . S
C840 C841 1.349 . S
C840 C842 1.327 . S
C840 H865 0.950 . S
C841 C840 1.349 . S
C841 C857 1.349 . S
C842 C840 1.327 . S
C842 C861 1.429 . S
C842 H866 0.950 . S
C843 C860 1.574 . S
C843 C862 1.368 . S
C843 H867 0.949 . S
H844 C848 0.949 . S
C845 C846 1.349 . S
C845 C847 1.327 . S
C845 H868 0.950 . S
C846 C845 1.349 . S
C846 C858 1.349 . S
C847 C845 1.327 . S
C847 C863 1.429 . S
C847 H869 0.950 . S
C848 H844 0.949 . S
C848 C856 1.574 . S
C848 C864 1.368 . S
H849 C857 0.950 . S
H850 C855 0.950 . S
H851 C856 0.949 . S
H852 C858 0.950 . S
H853 C859 0.950 . S
H854 C860 0.949 . S
C855 H850 0.950 . S
C855 C857 1.327 . S
C855 C861 1.429 . S
C856 C848 1.574 . S
C856 H851 0.949 . S
C856 C862 1.368 . S
C857 C841 1.349 . S
C857 H849 0.950 . S
C857 C855 1.327 . S
C858 C846 1.349 . S
C858 H852 0.950 . S
C858 C859 1.327 . S
C859 H853 0.950 . S
C859 C858 1.327 . S
C859 C863 1.429 . S
C860 C843 1.574 . S
C860 H854 0.949 . S
C860 C864 1.368 . S
C861 C842 1.429 . S
C861 C855 1.429 . S
C861 C862 1.523 . S
C862 C843 1.368 . S
C862 C856 1.368 . S
C862 C861 1.523 . S
C863 C847 1.429 . S
C863 C859 1.429 . S
C863 C864 1.523 . S
C864 C848 1.368 . S
C864 C860 1.368 . S
C864 C863 1.523 . S
H865 C840 0.950 . S
H866 C842 0.950 . S
H867 C843 0.949 . S
H868 C845 0.950 . S
H869 C847 0.950 . S
C870 C871 1.349 . S
C870 C872 1.327 . S
C870 H895 0.950 . S
C871 C870 1.349 . S
C871 C887 1.349 . S
C872 C870 1.327 . S
C872 C891 1.429 . S
C872 H896 0.950 . S
C873 C890 1.574 . S
C873 C892 1.368 1_545 S
C873 H897 0.949 . S
H874 C878 0.949 . S
C875 C876 1.349 . S
C875 C877 1.327 . S
C875 H898 0.950 . S
C876 C875 1.349 . S
C876 C888 1.349 . S
C877 C875 1.327 . S
C877 C893 1.429 . S
C877 H899 0.950 . S
C878 H874 0.949 . S
C878 C886 1.574 1_545 S
C878 C894 1.368 . S
H879 C887 0.950 . S
H880 C885 0.950 . S
H881 C886 0.949 . S
H882 C888 0.950 . S
H883 C889 0.950 . S
H884 C890 0.949 . S
C885 H880 0.950 . S
C885 C887 1.327 . S
C885 C891 1.429 . S
C886 C878 1.574 1_565 S
C886 H881 0.949 . S
C886 C892 1.368 . S
C887 C871 1.349 . S
C887 H879 0.950 . S
C887 C885 1.327 . S
C888 C876 1.349 . S
C888 H882 0.950 . S
C888 C889 1.327 . S
C889 H883 0.950 . S
C889 C888 1.327 . S
C889 C893 1.429 . S
C890 C873 1.574 . S
C890 H884 0.949 . S
C890 C894 1.368 . S
C891 C872 1.429 . S
C891 C885 1.429 . S
C891 C892 1.523 . S
C892 C873 1.368 1_565 S
C892 C886 1.368 . S
C892 C891 1.523 . S
C893 C877 1.429 . S
C893 C889 1.429 . S
C893 C894 1.523 . S
C894 C878 1.368 . S
C894 C890 1.368 . S
C894 C893 1.523 . S
H895 C870 0.950 . S
H896 C872 0.950 . S
H897 C873 0.949 . S
H898 C875 0.950 . S
H899 C877 0.950 . S
C900 C901 1.349 . S
C900 C902 1.327 . S
C900 H925 0.950 . S
C901 C900 1.349 . S
C901 C917 1.349 . S
C902 C900 1.327 . S
C902 C921 1.429 . S
C902 H926 0.950 . S
C903 C920 1.574 . S
C903 C922 1.368 . S
C903 H927 0.949 . S
H904 C908 0.949 . S
C905 C906 1.349 . S
C905 C907 1.327 . S
C905 H928 0.950 . S
C906 C905 1.349 . S
C906 C918 1.349 . S
C907 C905 1.327 . S
C907 C923 1.429 . S
C907 H929 0.950 . S
C908 H904 0.949 . S
C908 C916 1.574 . S
C908 C924 1.368 . S
H909 C917 0.950 1_545 S
H910 C915 0.950 . S
H911 C916 0.949 . S
H912 C918 0.950 . S
H913 C919 0.950 . S
H914 C920 0.949 . S
C915 H910 0.950 . S
C915 C917 1.327 . S
C915 C921 1.429 . S
C916 C908 1.574 . S
C916 H911 0.949 . S
C916 C922 1.368 . S
C917 C901 1.349 . S
C917 H909 0.950 1_565 S
C917 C915 1.327 . S
C918 C906 1.349 . S
C918 H912 0.950 . S
C918 C919 1.327 . S
C919 H913 0.950 . S
C919 C918 1.327 . S
C919 C923 1.429 . S
C920 C903 1.574 . S
C920 H914 0.949 . S
C920 C924 1.368 . S
C921 C902 1.429 . S
C921 C915 1.429 . S
C921 C922 1.523 . S
C922 C903 1.368 . S
C922 C916 1.368 . S
C922 C921 1.523 . S
C923 C907 1.429 . S
C923 C919 1.429 . S
C923 C924 1.523 . S
C924 C908 1.368 . S
C924 C920 1.368 . S
C924 C923 1.523 . S
H925 C900 0.950 . S
H926 C902 0.950 . S
H927 C903 0.949 . S
H928 C905 0.950 . S
H929 C907 0.950 . S
C930 C931 1.349 . S
C930 C932 1.327 . S
C930 H955 0.950 . S
C931 C930 1.349 . S
C931 C947 1.349 . S
C932 C930 1.327 . S
C932 C951 1.429 . S
C932 H956 0.950 . S
C933 C950 1.574 1_545 S
C933 C952 1.368 . S
C933 H957 0.949 . S
H934 C938 0.949 . S
C935 C936 1.349 . S
C935 C937 1.327 . S
C935 H958 0.950 . S
C936 C935 1.349 . S
C936 C948 1.349 . S
C937 C935 1.327 . S
C937 C953 1.429 . S
C937 H959 0.950 . S
C938 H934 0.949 . S
C938 C946 1.574 . S
C938 C954 1.368 . S
H939 C947 0.950 . S
H940 C945 0.950 . S
H941 C946 0.949 . S
H942 C948 0.950 . S
H943 C949 0.950 . S
H944 C950 0.949 . S
C945 H940 0.950 . S
C945 C947 1.327 . S
C945 C951 1.429 . S
C946 C938 1.574 . S
C946 H941 0.949 . S
C946 C952 1.368 1_565 S
C947 C931 1.349 . S
C947 H939 0.950 . S
C947 C945 1.327 . S
C948 C936 1.349 . S
C948 H942 0.950 . S
C948 C949 1.327 . S
C949 H943 0.950 . S
C949 C948 1.327 . S
C949 C953 1.429 . S
C950 C933 1.574 1_565 S
C950 H944 0.949 . S
C950 C954 1.368 . S
C951 C932 1.429 . S
C951 C945 1.429 . S
C951 C952 1.523 . S
C952 C933 1.368 . S
C952 C946 1.368 1_545 S
C952 C951 1.523 . S
C953 C937 1.429 . S
C953 C949 1.429 . S
C953 C954 1.523 . S
C954 C938 1.368 . S
C954 C950 1.368 . S
C954 C953 1.523 . S
H955 C930 0.950 . S
H956 C932 0.950 . S
H957 C933 0.949 . S
H958 C935 0.950 . S
H959 C937 0.950 . S
C960 C961 1.349 . S
C960 C962 1.327 . S
C960 H985 0.950 . S
C961 C960 1.349 . S
C961 C977 1.349 . S
C962 C960 1.327 . S
C962 C981 1.429 . S
C962 H986 0.950 . S
C963 C980 1.574 . S
C963 C982 1.368 . S
C963 H987 0.949 . S
H964 C968 0.949 . S
C965 C966 1.349 . S
C965 C967 1.327 . S
C965 H988 0.950 . S
C966 C965 1.349 . S
C966 C978 1.349 . S
C967 C965 1.327 . S
C967 C983 1.429 . S
C967 H989 0.950 . S
C968 H964 0.949 . S
C968 C976 1.574 . S
C968 C984 1.368 . S
H969 C977 0.950 . S
H970 C975 0.950 . S
H971 C976 0.949 . S
H972 C978 0.950 . S
H973 C979 0.950 . S
H974 C980 0.949 . S
C975 H970 0.950 . S
C975 C977 1.327 . S
C975 C981 1.429 . S
C976 C968 1.574 . S
C976 H971 0.949 . S
C976 C982 1.368 . S
C977 C961 1.349 . S
C977 H969 0.950 . S
C977 C975 1.327 . S
C978 C966 1.349 . S
C978 H972 0.950 . S
C978 C979 1.327 . S
C979 H973 0.950 . S
C979 C978 1.327 . S
C979 C983 1.429 . S
C980 C963 1.574 . S
C980 H974 0.949 . S
C980 C984 1.368 . S
C981 C962 1.429 . S
C981 C975 1.429 . S
C981 C982 1.523 . S
C982 C963 1.368 . S
C982 C976 1.368 . S
C982 C981 1.523 . S
C983 C967 1.429 . S
C983 C979 1.429 . S
C983 C984 1.523 . S
C984 C968 1.368 . S
C984 C980 1.368 . S
C984 C983 1.523 . S
H985 C960 0.950 . S
H986 C962 0.950 . S
H987 C963 0.949 . S
H988 C965 0.950 . S
H989 C967 0.950 . S
C990 C991 1.349 . S
C990 C992 1.327 . S
C990 H1015 0.950 . S
C991 C990 1.349 . S
C991 C1007 1.349 . S
C992 C990 1.327 . S
C992 C1011 1.429 . S
C992 H1016 0.950 . S
C993 C1010 1.574 1_545 S
C993 C1012 1.368 . S
C993 H1017 0.949 . S
H994 C998 0.949 . S
C995 C996 1.349 . S
C995 C997 1.327 . S
C995 H1018 0.950 . S
C996 C995 1.349 . S
C996 C1008 1.349 . S
C997 C995 1.327 . S
C997 C1013 1.429 . S
C997 H1019 0.950 . S
C998 H994 0.949 . S
C998 C1006 1.574 . S
C998 C1014 1.368 . S
H999 C1007 0.950 . S
H1000 C1005 0.950 . S
H1001 C1006 0.949 . S
H1002 C1008 0.950 . S
H1003 C1009 0.950 . S
H1004 C1010 0.949 . S
C1005 H1000 0.950 . S
C1005 C1007 1.327 . S
C1005 C1011 1.429 . S
C1006 C998 1.574 . S
C1006 H1001 0.949 . S
C1006 C1012 1.368 1_565 S
C1007 C991 1.349 . S
C1007 H999 0.950 . S
C1007 C1005 1.327 . S
C1008 C996 1.349 . S
C1008 H1002 0.950 . S
C1008 C1009 1.327 . S
C1009 H1003 0.950 . S
C1009 C1008 1.327 . S
C1009 C1013 1.429 . S
C1010 C993 1.574 1_565 S
C1010 H1004 0.949 . S
C1010 C1014 1.368 . S
C1011 C992 1.429 . S
C1011 C1005 1.429 . S
C1011 C1012 1.523 . S
C1012 C993 1.368 . S
C1012 C1006 1.368 1_545 S
C1012 C1011 1.523 . S
C1013 C997 1.429 . S
C1013 C1009 1.429 . S
C1013 C1014 1.523 . S
C1014 C998 1.368 . S
C1014 C1010 1.368 . S
C1014 C1013 1.523 . S
H1015 C990 0.950 . S
H1016 C992 0.950 . S
H1017 C993 0.949 . S
H1018 C995 0.950 . S
H1019 C997 0.950 . S
C1020 C1021 1.349 . S
C1020 C1022 1.327 . S
C1020 H1045 0.950 . S
C1021 C1020 1.349 . S
C1021 C1037 1.349 . S
C1022 C1020 1.327 . S
C1022 C1041 1.429 . S
C1022 H1046 0.950 . S
C1023 C1040 1.574 . S
C1023 C1042 1.368 . S
C1023 H1047 0.949 . S
H1024 C1028 0.949 . S
C1025 C1026 1.349 . S
C1025 C1027 1.327 . S
C1025 H1048 0.950 . S
C1026 C1025 1.349 . S
C1026 C1038 1.349 . S
C1027 C1025 1.327 . S
C1027 C1043 1.429 . S
C1027 H1049 0.950 . S
C1028 H1024 0.949 . S
C1028 C1036 1.574 . S
C1028 C1044 1.368 . S
H1029 C1037 0.950 1_545 S
H1030 C1035 0.950 . S
H1031 C1036 0.949 . S
H1032 C1038 0.950 . S
H1033 C1039 0.950 . S
H1034 C1040 0.949 . S
C1035 H1030 0.950 . S
C1035 C1037 1.327 . S
C1035 C1041 1.429 . S
C1036 C1028 1.574 . S
C1036 H1031 0.949 . S
C1036 C1042 1.368 . S
C1037 C1021 1.349 . S
C1037 H1029 0.950 1_565 S
C1037 C1035 1.327 . S
C1038 C1026 1.349 . S
C1038 H1032 0.950 . S
C1038 C1039 1.327 . S
C1039 H1033 0.950 . S
C1039 C1038 1.327 . S
C1039 C1043 1.429 . S
C1040 C1023 1.574 . S
C1040 H1034 0.949 . S
C1040 C1044 1.368 . S
C1041 C1022 1.429 . S
C1041 C1035 1.429 . S
C1041 C1042 1.523 . S
C1042 C1023 1.368 . S
C1042 C1036 1.368 . S
C1042 C1041 1.523 . S
C1043 C1027 1.429 . S
C1043 C1039 1.429 . S
C1043 C1044 1.523 . S
C1044 C1028 1.368 . S
C1044 C1040 1.368 . S
C1044 C1043 1.523 . S
H1045 C1020 0.950 . S
H1046 C1022 0.950 . S
H1047 C1023 0.949 . S
H1048 C1025 0.950 . S
H1049 C1027 0.950 . S
C1050 C1051 1.349 . S
C1050 C1052 1.327 . S
C1050 H1075 0.950 . S
C1051 C1050 1.349 . S
C1051 C1067 1.349 . S
C1052 C1050 1.327 . S
C1052 C1071 1.429 . S
C1052 H1076 0.952 . S
C1053 C1070 1.574 1_565 S
C1053 C1072 1.368 1_565 S
C1053 H1077 0.949 . S
H1054 C1058 0.949 . S
C1055 C1056 1.349 . S
C1055 C1057 1.327 . S
C1055 H1078 0.950 . S
C1056 C1055 1.349 . S
C1056 C1068 1.349 . S
C1057 C1055 1.327 . S
C1057 C1073 1.429 . S
C1057 H1079 0.950 . S
C1058 H1054 0.949 . S
C1058 C1066 1.574 . S
C1058 C1074 1.368 . S
H1059 C1067 0.950 . S
H1060 C1065 0.950 . S
H1061 C1066 0.949 . S
H1062 C1068 0.950 . S
H1063 C1069 0.950 . S
H1064 C1070 0.949 . S
C1065 H1060 0.950 . S
C1065 C1067 1.327 . S
C1065 C1071 1.429 . S
C1066 C1058 1.574 . S
C1066 H1061 0.949 . S
C1066 C1072 1.368 . S
C1067 C1051 1.349 . S
C1067 H1059 0.950 . S
C1067 C1065 1.327 . S
C1068 C1056 1.349 . S
C1068 H1062 0.950 . S
C1068 C1069 1.327 . S
C1069 H1063 0.950 . S
C1069 C1068 1.327 . S
C1069 C1073 1.429 . S
C1070 C1053 1.574 1_545 S
C1070 H1064 0.949 . S
C1070 C1074 1.368 . S
C1071 C1052 1.429 . S
C1071 C1065 1.429 . S
C1071 C1072 1.523 1_565 S
C1072 C1053 1.368 1_545 S
C1072 C1066 1.368 . S
C1072 C1071 1.523 1_545 S
C1073 C1057 1.429 . S
C1073 C1069 1.429 . S
C1073 C1074 1.523 . S
C1074 C1058 1.368 . S
C1074 C1070 1.368 . S
C1074 C1073 1.523 . S
H1075 C1050 0.950 . S
H1076 C1052 0.952 . S
H1077 C1053 0.949 . S
H1078 C1055 0.950 . S
H1079 C1057 0.950 . S
C1080 C1081 1.349 . S
C1080 C1082 1.327 . S
C1080 H1105 0.950 . S
C1081 C1080 1.349 . S
C1081 C1097 1.349 . S
C1082 C1080 1.327 . S
C1082 C1101 1.429 . S
C1082 H1106 0.950 . S
C1083 C1100 1.574 . S
C1083 C1102 1.368 . S
C1083 H1107 0.949 . S
H1084 C1088 0.949 . S
C1085 C1086 1.349 . S
C1085 C1087 1.327 . S
C1085 H1108 0.950 . S
C1086 C1085 1.349 . S
C1086 C1098 1.349 . S
C1087 C1085 1.327 . S
C1087 C1103 1.429 . S
C1087 H1109 0.950 . S
C1088 H1084 0.949 . S
C1088 C1096 1.574 . S
C1088 C1104 1.368 . S
H1089 C1097 0.950 . S
H1090 C1095 0.950 . S
H1091 C1096 0.949 . S
H1092 C1098 0.950 . S
H1093 C1099 0.950 . S
H1094 C1100 0.949 . S
C1095 H1090 0.950 . S
C1095 C1097 1.327 . S
C1095 C1101 1.429 . S
C1096 C1088 1.574 . S
C1096 H1091 0.949 . S
C1096 C1102 1.368 . S
C1097 C1081 1.349 . S
C1097 H1089 0.950 . S
C1097 C1095 1.327 . S
C1098 C1086 1.349 . S
C1098 H1092 0.950 . S
C1098 C1099 1.327 . S
C1099 H1093 0.950 . S
C1099 C1098 1.327 . S
C1099 C1103 1.429 . S
C1100 C1083 1.574 . S
C1100 H1094 0.949 . S
C1100 C1104 1.368 . S
C1101 C1082 1.429 . S
C1101 C1095 1.429 . S
C1101 C1102 1.523 . S
C1102 C1083 1.368 . S
C1102 C1096 1.368 . S
C1102 C1101 1.523 . S
C1103 C1087 1.429 . S
C1103 C1099 1.429 . S
C1103 C1104 1.523 . S
C1104 C1088 1.368 . S
C1104 C1100 1.368 . S
C1104 C1103 1.523 . S
H1105 C1080 0.950 . S
H1106 C1082 0.950 . S
H1107 C1083 0.949 . S
H1108 C1085 0.950 . S
H1109 C1087 0.950 . S
C1110 C1111 1.349 . S
C1110 C1112 1.327 . S
C1110 H1135 0.950 . S
C1111 C1110 1.349 . S
C1111 C1127 1.349 . S
C1112 C1110 1.327 . S
C1112 C1131 1.429 . S
C1112 H1136 0.950 . S
C1113 C1130 1.574 . S
C1113 C1132 1.368 1_565 S
C1113 H1137 0.949 . S
H1114 C1118 0.952 . S
C1115 C1116 1.349 . S
C1115 C1117 1.327 . S
C1115 H1138 0.950 . S
C1116 C1115 1.349 . S
C1116 C1128 1.349 . S
C1117 C1115 1.327 . S
C1117 C1133 1.429 . S
C1117 H1139 0.950 . S
C1118 H1114 0.952 . S
C1118 C1126 1.574 1_565 S
C1118 C1134 1.368 . S
H1119 C1127 0.950 . S
H1120 C1125 0.939 1_565 S
H1121 C1126 0.949 . S
H1122 C1128 0.950 . S
H1123 C1129 0.950 . S
H1124 C1130 0.949 . S
C1125 H1120 0.939 1_545 S
C1125 C1127 1.327 . S
C1125 C1131 1.429 . S
C1126 C1118 1.574 1_545 S
C1126 H1121 0.949 . S
C1126 C1132 1.368 . S
C1127 C1111 1.349 . S
C1127 H1119 0.950 . S
C1127 C1125 1.327 . S
C1128 C1116 1.349 . S
C1128 H1122 0.950 . S
C1128 C1129 1.327 . S
C1129 H1123 0.950 . S
C1129 C1128 1.327 . S
C1129 C1133 1.429 . S
C1130 C1113 1.574 . S
C1130 H1124 0.949 . S
C1130 C1134 1.368 . S
C1131 C1112 1.429 . S
C1131 C1125 1.429 . S
C1131 C1132 1.523 . S
C1132 C1113 1.368 1_545 S
C1132 C1126 1.368 . S
C1132 C1131 1.523 . S
C1133 C1117 1.429 . S
C1133 C1129 1.429 . S
C1133 C1134 1.523 . S
C1134 C1118 1.368 . S
C1134 C1130 1.368 . S
C1134 C1133 1.523 . S
H1135 C1110 0.950 . S
H1136 C1112 0.950 . S
H1137 C1113 0.949 . S
H1138 C1115 0.950 . S
H1139 C1117 0.950 . S
C1140 C1141 1.349 . S
C1140 C1142 1.327 . S
C1140 H1165 0.950 . S
C1141 C1140 1.349 . S
C1141 C1157 1.349 1_554 S
C1142 C1140 1.327 . S
C1142 C1161 1.429 1_554 S
C1142 H1166 0.950 . S
C1143 C1160 1.574 . S
C1143 C1162 1.368 . S
C1143 H1167 0.949 . S
H1144 C1148 0.949 . S
C1145 C1146 1.349 . S
C1145 C1147 1.327 . S
C1145 H1168 0.950 . S
C1146 C1145 1.349 . S
C1146 C1158 1.349 . S
C1147 C1145 1.327 . S
C1147 C1163 1.429 . S
C1147 H1169 0.950 . S
C1148 H1144 0.949 . S
C1148 C1156 1.574 . S
C1148 C1164 1.368 . S
H1149 C1157 0.950 . S
H1150 C1155 0.950 . S
H1151 C1156 0.949 . S
H1152 C1158 0.950 . S
H1153 C1159 0.950 . S
H1154 C1160 0.949 . S
C1155 H1150 0.950 . S
C1155 C1157 1.327 . S
C1155 C1161 1.429 . S
C1156 C1148 1.574 . S
C1156 H1151 0.949 . S
C1156 C1162 1.368 . S
C1157 C1141 1.349 1_556 S
C1157 H1149 0.950 . S
C1157 C1155 1.327 . S
C1158 C1146 1.349 . S
C1158 H1152 0.950 . S
C1158 C1159 1.327 . S
C1159 H1153 0.950 . S
C1159 C1158 1.327 . S
C1159 C1163 1.429 . S
C1160 C1143 1.574 . S
C1160 H1154 0.949 . S
C1160 C1164 1.368 . S
C1161 C1142 1.429 1_556 S
C1161 C1155 1.429 . S
C1161 C1162 1.523 . S
C1162 C1143 1.368 . S
C1162 C1156 1.368 . S
C1162 C1161 1.523 . S
C1163 C1147 1.429 . S
C1163 C1159 1.429 . S
C1163 C1164 1.523 . S
C1164 C1148 1.368 . S
C1164 C1160 1.368 . S
C1164 C1163 1.523 . S
H1165 C1140 0.950 . S
H1166 C1142 0.950 . S
H1167 C1143 0.949 . S
H1168 C1145 0.950 . S
H1169 C1147 0.950 . S
C1170 C1171 1.349 . S
C1170 C1172 1.327 1_565 S
C1170 H1195 0.950 . S
C1171 C1170 1.349 . S
C1171 C1187 1.349 . S
C1172 C1170 1.327 1_545 S
C1172 C1191 1.433 . S
C1172 H1196 0.950 . S
C1173 C1190 1.574 . S
C1173 C1192 1.368 . S
C1173 H1197 0.949 1_545 S
H1174 C1178 0.949 . S
C1175 C1176 1.349 . S
C1175 C1177 1.327 . S
C1175 H1198 0.950 . S
C1176 C1175 1.349 . S
C1176 C1188 1.349 . S
C1177 C1175 1.327 . S
C1177 C1193 1.429 . S
C1177 H1199 0.950 . S
C1178 H1174 0.949 . S
C1178 C1186 1.574 . S
C1178 C1194 1.368 . S
H1179 C1187 0.950 . S
H1180 C1185 0.950 . S
H1181 C1186 0.949 . S
H1182 C1188 0.950 . S
H1183 C1189 0.950 . S
H1184 C1190 0.949 . S
C1185 H1180 0.950 . S
C1185 C1187 1.327 . S
C1185 C1191 1.404 1_565 S
C1186 C1178 1.574 . S
C1186 H1181 0.949 . S
C1186 C1192 1.368 . S
C1187 C1171 1.349 . S
C1187 H1179 0.950 . S
C1187 C1185 1.327 . S
C1188 C1176 1.349 . S
C1188 H1182 0.950 . S
C1188 C1189 1.327 . S
C1189 H1183 0.950 . S
C1189 C1188 1.327 . S
C1189 C1193 1.429 . S
C1190 C1173 1.574 . S
C1190 H1184 0.949 . S
C1190 C1194 1.368 . S
C1191 C1172 1.433 . S
C1191 C1185 1.404 1_545 S
C1191 C1192 1.542 . S
C1192 C1173 1.368 . S
C1192 C1186 1.368 . S
C1192 C1191 1.542 . S
C1193 C1177 1.429 . S
C1193 C1189 1.429 . S
C1193 C1194 1.523 . S
C1194 C1178 1.368 . S
C1194 C1190 1.368 . S
C1194 C1193 1.523 . S
H1195 C1170 0.950 . S
H1196 C1172 0.950 . S
H1197 C1173 0.949 1_565 S
H1198 C1175 0.950 . S
H1199 C1177 0.950 . S
C1200 C1201 1.349 . S
C1200 C1202 1.327 1_554 S
C1200 H1225 0.950 . S
C1201 C1200 1.349 . S
C1201 C1217 1.349 . S
C1202 C1200 1.327 1_556 S
C1202 C1221 1.429 . S
C1202 H1226 0.950 . S
C1203 C1220 1.574 . S
C1203 C1222 1.368 . S
C1203 H1227 0.949 . S
H1204 C1208 0.949 . S
C1205 C1206 1.349 . S
C1205 C1207 1.327 . S
C1205 H1228 0.950 . S
C1206 C1205 1.349 . S
C1206 C1218 1.349 . S
C1207 C1205 1.327 . S
C1207 C1223 1.429 . S
C1207 H1229 0.950 . S
C1208 H1204 0.949 . S
C1208 C1216 1.574 . S
C1208 C1224 1.368 . S
H1209 C1217 0.950 . S
H1210 C1215 0.950 . S
H1211 C1216 0.949 . S
H1212 C1218 0.950 . S
H1213 C1219 0.950 . S
H1214 C1220 0.949 . S
C1215 H1210 0.950 . S
C1215 C1217 1.327 . S
C1215 C1221 1.429 1_554 S
C1216 C1208 1.574 . S
C1216 H1211 0.949 . S
C1216 C1222 1.368 . S
C1217 C1201 1.349 . S
C1217 H1209 0.950 . S
C1217 C1215 1.327 . S
C1218 C1206 1.349 . S
C1218 H1212 0.950 . S
C1218 C1219 1.327 . S
C1219 H1213 0.950 . S
C1219 C1218 1.327 . S
C1219 C1223 1.429 . S
C1220 C1203 1.574 . S
C1220 H1214 0.949 . S
C1220 C1224 1.368 . S
C1221 C1202 1.429 . S
C1221 C1215 1.429 1_556 S
C1221 C1222 1.523 . S
C1222 C1203 1.368 . S
C1222 C1216 1.368 . S
C1222 C1221 1.523 . S
C1223 C1207 1.429 . S
C1223 C1219 1.429 . S
C1223 C1224 1.523 . S
C1224 C1208 1.368 . S
C1224 C1220 1.368 . S
C1224 C1223 1.523 . S
H1225 C1200 0.950 . S
H1226 C1202 0.950 . S
H1227 C1203 0.949 . S
H1228 C1205 0.950 . S
H1229 C1207 0.950 . S
C1230 C1231 1.349 . S
C1230 C1232 1.327 . S
C1230 H1255 0.950 . S
C1231 C1230 1.349 . S
C1231 C1247 1.349 . S
C1232 C1230 1.327 . S
C1232 C1251 1.429 . S
C1232 H1256 0.950 . S
C1233 C1250 1.574 . S
C1233 C1252 1.368 . S
C1233 H1257 0.949 . S
H1234 C1238 0.949 . S
C1235 C1236 1.349 . S
C1235 C1237 1.327 . S
C1235 H1258 0.950 . S
C1236 C1235 1.349 . S
C1236 C1248 1.349 . S
C1237 C1235 1.327 . S
C1237 C1253 1.429 . S
C1237 H1259 0.950 . S
C1238 H1234 0.949 . S
C1238 C1246 1.574 . S
C1238 C1254 1.368 . S
H1239 C1247 0.950 . S
H1240 C1245 0.950 . S
H1241 C1246 0.949 . S
H1242 C1248 0.950 . S
H1243 C1249 0.950 . S
H1244 C1250 0.949 . S
C1245 H1240 0.950 . S
C1245 C1247 1.327 . S
C1245 C1251 1.429 . S
C1246 C1238 1.574 . S
C1246 H1241 0.949 . S
C1246 C1252 1.368 . S
C1247 C1231 1.349 . S
C1247 H1239 0.950 . S
C1247 C1245 1.327 . S
C1248 C1236 1.349 . S
C1248 H1242 0.950 . S
C1248 C1249 1.327 . S
C1249 H1243 0.950 . S
C1249 C1248 1.327 . S
C1249 C1253 1.429 . S
C1250 C1233 1.574 . S
C1250 H1244 0.949 . S
C1250 C1254 1.368 . S
C1251 C1232 1.429 . S
C1251 C1245 1.429 . S
C1251 C1252 1.523 . S
C1252 C1233 1.368 . S
C1252 C1246 1.368 . S
C1252 C1251 1.523 . S
C1253 C1237 1.429 . S
C1253 C1249 1.429 . S
C1253 C1254 1.523 . S
C1254 C1238 1.368 . S
C1254 C1250 1.368 . S
C1254 C1253 1.523 . S
H1255 C1230 0.950 . S
H1256 C1232 0.950 . S
H1257 C1233 0.949 . S
H1258 C1235 0.950 . S
H1259 C1237 0.950 . S
C1260 C1261 1.349 . S
C1260 C1262 1.327 . S
C1260 H1285 0.950 . S
C1261 C1260 1.349 . S
C1261 C1277 1.349 . S
C1262 C1260 1.327 . S
C1262 C1281 1.429 . S
C1262 H1286 0.950 . S
C1263 C1280 1.574 . S
C1263 C1282 1.368 . S
C1263 H1287 0.949 . S
H1264 C1268 0.949 . S
C1265 C1266 1.349 . S
C1265 C1267 1.327 . S
C1265 H1288 0.950 . S
C1266 C1265 1.349 . S
C1266 C1278 1.349 . S
C1267 C1265 1.327 . S
C1267 C1283 1.429 . S
C1267 H1289 0.950 . S
C1268 H1264 0.949 . S
C1268 C1276 1.574 . S
C1268 C1284 1.368 . S
H1269 C1277 0.950 . S
H1270 C1275 0.950 . S
H1271 C1276 0.949 . S
H1272 C1278 0.950 . S
H1273 C1279 0.950 . S
H1274 C1280 0.949 . S
C1275 H1270 0.950 . S
C1275 C1277 1.327 . S
C1275 C1281 1.429 . S
C1276 C1268 1.574 . S
C1276 H1271 0.949 . S
C1276 C1282 1.368 . S
C1277 C1261 1.349 . S
C1277 H1269 0.950 . S
C1277 C1275 1.327 . S
C1278 C1266 1.349 . S
C1278 H1272 0.950 . S
C1278 C1279 1.327 . S
C1279 H1273 0.950 . S
C1279 C1278 1.327 . S
C1279 C1283 1.429 . S
C1280 C1263 1.574 . S
C1280 H1274 0.949 . S
C1280 C1284 1.368 . S
C1281 C1262 1.429 . S
C1281 C1275 1.429 . S
C1281 C1282 1.523 . S
C1282 C1263 1.368 . S
C1282 C1276 1.368 . S
C1282 C1281 1.523 . S
C1283 C1267 1.429 . S
C1283 C1279 1.429 . S
C1283 C1284 1.523 . S
C1284 C1268 1.368 . S
C1284 C1280 1.368 . S
C1284 C1283 1.523 . S
H1285 C1260 0.950 . S
H1286 C1262 0.950 . S
H1287 C1263 0.949 . S
H1288 C1265 0.950 . S
H1289 C1267 0.950 . S
C1290 C1291 1.349 . S
C1290 C1292 1.327 . S
C1290 H1315 0.950 . S
C1291 C1290 1.349 . S
C1291 C1307 1.349 . S
C1292 C1290 1.327 . S
C1292 C1311 1.429 . S
C1292 H1316 0.950 . S
C1293 C1310 1.574 . S
C1293 C1312 1.368 . S
C1293 H1317 0.949 . S
H1294 C1298 0.949 . S
C1295 C1296 1.349 . S
C1295 C1297 1.327 . S
C1295 H1318 0.950 . S
C1296 C1295 1.349 . S
C1296 C1308 1.349 . S
C1297 C1295 1.327 . S
C1297 C1313 1.429 . S
C1297 H1319 0.950 . S
C1298 H1294 0.949 . S
C1298 C1306 1.574 . S
C1298 C1314 1.368 . S
H1299 C1307 0.950 . S
H1300 C1305 0.950 . S
H1301 C1306 0.949 . S
H1302 C1308 0.950 . S
H1303 C1309 0.950 . S
H1304 C1310 0.949 . S
C1305 H1300 0.950 . S
C1305 C1307 1.327 . S
C1305 C1311 1.429 . S
C1306 C1298 1.574 . S
C1306 H1301 0.949 . S
C1306 C1312 1.368 . S
C1307 C1291 1.349 . S
C1307 H1299 0.950 . S
C1307 C1305 1.327 . S
C1308 C1296 1.349 . S
C1308 H1302 0.950 . S
C1308 C1309 1.327 . S
C1309 H1303 0.950 . S
C1309 C1308 1.327 . S
C1309 C1313 1.429 . S
C1310 C1293 1.574 . S
C1310 H1304 0.949 . S
C1310 C1314 1.368 . S
C1311 C1292 1.429 . S
C1311 C1305 1.429 . S
C1311 C1312 1.523 . S
C1312 C1293 1.368 . S
C1312 C1306 1.368 . S
C1312 C1311 1.523 . S
C1313 C1297 1.429 . S
C1313 C1309 1.429 . S
C1313 C1314 1.523 . S
C1314 C1298 1.368 . S
C1314 C1310 1.368 . S
C1314 C1313 1.523 . S
H1315 C1290 0.950 . S
H1316 C1292 0.950 . S
H1317 C1293 0.949 . S
H1318 C1295 0.950 . S
H1319 C1297 0.950 . S
C1320 C1321 1.349 . S
C1320 C1322 1.327 . S
C1320 H1345 0.950 . S
C1321 C1320 1.349 . S
C1321 C1337 1.349 . S
C1322 C1320 1.327 . S
C1322 C1341 1.429 . S
C1322 H1346 0.950 . S
C1323 C1340 1.574 . S
C1323 C1342 1.368 . S
C1323 H1347 0.949 . S
H1324 C1328 0.949 . S
C1325 C1326 1.349 . S
C1325 C1327 1.327 . S
C1325 H1348 0.950 . S
C1326 C1325 1.349 . S
C1326 C1338 1.349 . S
C1327 C1325 1.327 . S
C1327 C1343 1.429 . S
C1327 H1349 0.950 . S
C1328 H1324 0.949 . S
C1328 C1336 1.574 . S
C1328 C1344 1.368 . S
H1329 C1337 0.950 . S
H1330 C1335 0.950 . S
H1331 C1336 0.949 . S
H1332 C1338 0.950 . S
H1333 C1339 0.950 . S
H1334 C1340 0.949 . S
C1335 H1330 0.950 . S
C1335 C1337 1.327 . S
C1335 C1341 1.429 . S
C1336 C1328 1.574 . S
C1336 H1331 0.949 . S
C1336 C1342 1.368 . S
C1337 C1321 1.349 . S
C1337 H1329 0.950 . S
C1337 C1335 1.327 . S
C1338 C1326 1.349 . S
C1338 H1332 0.950 . S
C1338 C1339 1.327 . S
C1339 H1333 0.950 . S
C1339 C1338 1.327 . S
C1339 C1343 1.429 . S
C1340 C1323 1.574 . S
C1340 H1334 0.949 . S
C1340 C1344 1.368 . S
C1341 C1322 1.429 . S
C1341 C1335 1.429 . S
C1341 C1342 1.523 . S
C1342 C1323 1.368 . S
C1342 C1336 1.368 . S
C1342 C1341 1.523 . S
C1343 C1327 1.429 . S
C1343 C1339 1.429 . S
C1343 C1344 1.523 . S
C1344 C1328 1.368 . S
C1344 C1340 1.368 . S
C1344 C1343 1.523 . S
H1345 C1320 0.950 . S
H1346 C1322 0.950 . S
H1347 C1323 0.949 . S
H1348 C1325 0.950 . S
H1349 C1327 0.950 . S
C1350 C1351 1.349 . S
C1350 C1352 1.327 . S
C1350 H1375 0.950 . S
C1351 C1350 1.349 . S
C1351 C1367 1.349 . S
C1352 C1350 1.327 . S
C1352 C1371 1.429 . S
C1352 H1376 0.950 . S
C1353 C1370 1.574 . S
C1353 C1372 1.368 . S
C1353 H1377 0.949 . S
H1354 C1358 0.949 . S
C1355 C1356 1.349 . S
C1355 C1357 1.327 . S
C1355 H1378 0.950 . S
C1356 C1355 1.349 . S
C1356 C1368 1.349 . S
C1357 C1355 1.327 . S
C1357 C1373 1.429 . S
C1357 H1379 0.950 . S
C1358 H1354 0.949 . S
C1358 C1366 1.574 . S
C1358 C1374 1.368 . S
H1359 C1367 0.950 . S
H1360 C1365 0.950 . S
H1361 C1366 0.949 . S
H1362 C1368 0.950 . S
H1363 C1369 0.950 . S
H1364 C1370 0.949 . S
C1365 H1360 0.950 . S
C1365 C1367 1.327 . S
C1365 C1371 1.429 . S
C1366 C1358 1.574 . S
C1366 H1361 0.949 . S
C1366 C1372 1.368 . S
C1367 C1351 1.349 . S
C1367 H1359 0.950 . S
C1367 C1365 1.327 . S
C1368 C1356 1.349 . S
C1368 H1362 0.950 . S
C1368 C1369 1.327 . S
C1369 H1363 0.950 . S
C1369 C1368 1.327 . S
C1369 C1373 1.429 . S
C1370 C1353 1.574 . S
C1370 H1364 0.949 . S
C1370 C1374 1.368 . S
C1371 C1352 1.429 . S
C1371 C1365 1.429 . S
C1371 C1372 1.523 . S
C1372 C1353 1.368 . S
C1372 C1366 1.368 . S
C1372 C1371 1.523 . S
C1373 C1357 1.429 . S
C1373 C1369 1.429 . S
C1373 C1374 1.523 . S
C1374 C1358 1.368 . S
C1374 C1370 1.368 . S
C1374 C1373 1.523 . S
H1375 C1350 0.950 . S
H1376 C1352 0.950 . S
H1377 C1353 0.949 . S
H1378 C1355 0.950 . S
H1379 C1357 0.950 . S
C1380 C1381 1.349 . S
C1380 C1382 1.327 . S
C1380 H1405 0.950 . S
C1381 C1380 1.349 . S
C1381 C1397 1.349 . S
C1382 C1380 1.327 . S
C1382 C1401 1.429 . S
C1382 H1406 0.950 . S
C1383 C1400 1.574 . S
C1383 C1402 1.368 . S
C1383 H1407 0.949 . S
H1384 C1388 0.949 . S
C1385 C1386 1.349 . S
C1385 C1387 1.327 . S
C1385 H1408 0.950 . S
C1386 C1385 1.349 . S
C1386 C1398 1.349 . S
C1387 C1385 1.327 . S
C1387 C1403 1.429 . S
C1387 H1409 0.950 . S
C1388 H1384 0.949 . S
C1388 C1396 1.574 . S
C1388 C1404 1.368 . S
H1389 C1397 0.950 . S
H1390 C1395 0.950 . S
H1391 C1396 0.949 . S
H1392 C1398 0.950 . S
H1393 C1399 0.950 . S
H1394 C1400 0.949 . S
C1395 H1390 0.950 . S
C1395 C1397 1.327 . S
C1395 C1401 1.429 . S
C1396 C1388 1.574 . S
C1396 H1391 0.949 . S
C1396 C1402 1.368 . S
C1397 C1381 1.349 . S
C1397 H1389 0.950 . S
C1397 C1395 1.327 . S
C1398 C1386 1.349 . S
C1398 H1392 0.950 . S
C1398 C1399 1.327 . S
C1399 H1393 0.950 . S
C1399 C1398 1.327 . S
C1399 C1403 1.429 . S
C1400 C1383 1.574 . S
C1400 H1394 0.949 . S
C1400 C1404 1.368 . S
C1401 C1382 1.429 . S
C1401 C1395 1.429 . S
C1401 C1402 1.523 . S
C1402 C1383 1.368 . S
C1402 C1396 1.368 . S
C1402 C1401 1.523 . S
C1403 C1387 1.429 . S
C1403 C1399 1.429 . S
C1403 C1404 1.523 . S
C1404 C1388 1.368 . S
C1404 C1400 1.368 . S
C1404 C1403 1.523 . S
H1405 C1380 0.950 . S
H1406 C1382 0.950 . S
H1407 C1383 0.949 . S
H1408 C1385 0.950 . S
H1409 C1387 0.950 . S
C1410 C1411 1.349 . S
C1410 C1412 1.327 . S
C1410 H1435 0.950 . S
C1411 C1410 1.349 . S
C1411 C1427 1.349 . S
C1412 C1410 1.327 . S
C1412 C1431 1.429 . S
C1412 H1436 0.950 . S
C1413 C1430 1.574 . S
C1413 C1432 1.368 . S
C1413 H1437 0.949 . S
H1414 C1418 0.949 . S
C1415 C1416 1.349 . S
C1415 C1417 1.327 . S
C1415 H1438 0.950 . S
C1416 C1415 1.349 . S
C1416 C1428 1.349 . S
C1417 C1415 1.327 . S
C1417 C1433 1.429 . S
C1417 H1439 0.950 . S
C1418 H1414 0.949 . S
C1418 C1426 1.574 . S
C1418 C1434 1.368 . S
H1419 C1427 0.950 . S
H1420 C1425 0.950 . S
H1421 C1426 0.949 . S
H1422 C1428 0.950 . S
H1423 C1429 0.950 . S
H1424 C1430 0.949 . S
C1425 H1420 0.950 . S
C1425 C1427 1.327 . S
C1425 C1431 1.429 . S
C1426 C1418 1.574 . S
C1426 H1421 0.949 . S
C1426 C1432 1.368 . S
C1427 C1411 1.349 . S
C1427 H1419 0.950 . S
C1427 C1425 1.327 . S
C1428 C1416 1.349 . S
C1428 H1422 0.950 . S
C1428 C1429 1.327 . S
C1429 H1423 0.950 . S
C1429 C1428 1.327 . S
C1429 C1433 1.429 . S
C1430 C1413 1.574 . S
C1430 H1424 0.949 . S
C1430 C1434 1.368 . S
C1431 C1412 1.429 . S
C1431 C1425 1.429 . S
C1431 C1432 1.523 . S
C1432 C1413 1.368 . S
C1432 C1426 1.368 . S
C1432 C1431 1.523 . S
C1433 C1417 1.429 . S
C1433 C1429 1.429 . S
C1433 C1434 1.523 . S
C1434 C1418 1.368 . S
C1434 C1430 1.368 . S
C1434 C1433 1.523 . S
H1435 C1410 0.950 . S
H1436 C1412 0.950 . S
H1437 C1413 0.949 . S
H1438 C1415 0.950 . S
H1439 C1417 0.950 . S
C1440 C1441 1.349 . S
C1440 C1442 1.327 . S
C1440 H1465 0.950 . S
C1441 C1440 1.349 . S
C1441 C1457 1.349 . S
C1442 C1440 1.327 . S
C1442 C1461 1.429 . S
C1442 H1466 0.950 . S
C1443 C1460 1.574 . S
C1443 C1462 1.368 . S
C1443 H1467 0.949 . S
H1444 C1448 0.949 . S
C1445 C1446 1.349 . S
C1445 C1447 1.327 . S
C1445 H1468 0.950 . S
C1446 C1445 1.349 . S
C1446 C1458 1.349 . S
C1447 C1445 1.327 . S
C1447 C1463 1.429 . S
C1447 H1469 0.950 . S
C1448 H1444 0.949 . S
C1448 C1456 1.574 . S
C1448 C1464 1.368 . S
H1449 C1457 0.950 . S
H1450 C1455 0.950 . S
H1451 C1456 0.949 . S
H1452 C1458 0.950 . S
H1453 C1459 0.950 . S
H1454 C1460 0.949 . S
C1455 H1450 0.950 . S
C1455 C1457 1.327 . S
C1455 C1461 1.429 . S
C1456 C1448 1.574 . S
C1456 H1451 0.949 . S
C1456 C1462 1.368 . S
C1457 C1441 1.349 . S
C1457 H1449 0.950 . S
C1457 C1455 1.327 . S
C1458 C1446 1.349 . S
C1458 H1452 0.950 . S
C1458 C1459 1.327 . S
C1459 H1453 0.950 . S
C1459 C1458 1.327 . S
C1459 C1463 1.429 . S
C1460 C1443 1.574 . S
C1460 H1454 0.949 . S
C1460 C1464 1.368 . S
C1461 C1442 1.429 . S
C1461 C1455 1.429 . S
C1461 C1462 1.523 . S
C1462 C1443 1.368 . S
C1462 C1456 1.368 . S
C1462 C1461 1.523 . S
C1463 C1447 1.429 . S
C1463 C1459 1.429 . S
C1463 C1464 1.523 . S
C1464 C1448 1.368 . S
C1464 C1460 1.368 . S
C1464 C1463 1.523 . S
H1465 C1440 0.950 . S
H1466 C1442 0.950 . S
H1467 C1443 0.949 . S
H1468 C1445 0.950 . S
H1469 C1447 0.950 . S
C1470 C1471 1.349 . S
C1470 C1472 1.327 . S
C1470 H1495 0.950 . S
C1471 C1470 1.349 . S
C1471 C1487 1.349 . S
C1472 C1470 1.327 . S
C1472 C1491 1.429 . S
C1472 H1496 0.950 . S
C1473 C1490 1.574 . S
C1473 C1492 1.368 . S
C1473 H1497 0.949 . S
H1474 C1478 0.949 . S
C1475 C1476 1.349 . S
C1475 C1477 1.327 . S
C1475 H1498 0.950 . S
C1476 C1475 1.349 . S
C1476 C1488 1.349 . S
C1477 C1475 1.327 . S
C1477 C1493 1.429 . S
C1477 H1499 0.950 . S
C1478 H1474 0.949 . S
C1478 C1486 1.574 . S
C1478 C1494 1.368 . S
H1479 C1487 0.950 . S
H1480 C1485 0.950 . S
H1481 C1486 0.949 . S
H1482 C1488 0.950 . S
H1483 C1489 0.950 . S
H1484 C1490 0.949 . S
C1485 H1480 0.950 . S
C1485 C1487 1.327 . S
C1485 C1491 1.429 . S
C1486 C1478 1.574 . S
C1486 H1481 0.949 . S
C1486 C1492 1.368 . S
C1487 C1471 1.349 . S
C1487 H1479 0.950 . S
C1487 C1485 1.327 . S
C1488 C1476 1.349 . S
C1488 H1482 0.950 . S
C1488 C1489 1.327 . S
C1489 H1483 0.950 . S
C1489 C1488 1.327 . S
C1489 C1493 1.429 . S
C1490 C1473 1.574 . S
C1490 H1484 0.949 . S
C1490 C1494 1.368 . S
C1491 C1472 1.429 . S
C1491 C1485 1.429 . S
C1491 C1492 1.523 . S
C1492 C1473 1.368 . S
C1492 C1486 1.368 . S
C1492 C1491 1.523 . S
C1493 C1477 1.429 . S
C1493 C1489 1.429 . S
C1493 C1494 1.523 . S
C1494 C1478 1.368 . S
C1494 C1490 1.368 . S
C1494 C1493 1.523 . S
H1495 C1470 0.950 . S
H1496 C1472 0.950 . S
H1497 C1473 0.949 . S
H1498 C1475 0.950 . S
H1499 C1477 0.950 . S
C1500 C1501 1.349 . S
C1500 C1502 1.327 . S
C1500 H1525 0.950 . S
C1501 C1500 1.349 . S
C1501 C1517 1.349 . S
C1502 C1500 1.327 . S
C1502 C1521 1.429 . S
C1502 H1526 0.950 . S
C1503 C1520 1.574 . S
C1503 C1522 1.368 . S
C1503 H1527 0.949 . S
H1504 C1508 0.949 . S
C1505 C1506 1.349 . S
C1505 C1507 1.327 . S
C1505 H1528 0.950 . S
C1506 C1505 1.349 . S
C1506 C1518 1.349 . S
C1507 C1505 1.327 . S
C1507 C1523 1.429 . S
C1507 H1529 0.950 . S
C1508 H1504 0.949 . S
C1508 C1516 1.574 . S
C1508 C1524 1.368 . S
H1509 C1517 0.950 . S
H1510 C1515 0.950 . S
H1511 C1516 0.949 . S
H1512 C1518 0.950 . S
H1513 C1519 0.950 . S
H1514 C1520 0.949 . S
C1515 H1510 0.950 . S
C1515 C1517 1.327 . S
C1515 C1521 1.429 . S
C1516 C1508 1.574 . S
C1516 H1511 0.949 . S
C1516 C1522 1.368 . S
C1517 C1501 1.349 . S
C1517 H1509 0.950 . S
C1517 C1515 1.327 . S
C1518 C1506 1.349 . S
C1518 H1512 0.950 . S
C1518 C1519 1.327 . S
C1519 H1513 0.950 . S
C1519 C1518 1.327 . S
C1519 C1523 1.429 . S
C1520 C1503 1.574 . S
C1520 H1514 0.949 . S
C1520 C1524 1.368 . S
C1521 C1502 1.429 . S
C1521 C1515 1.429 . S
C1521 C1522 1.523 . S
C1522 C1503 1.368 . S
C1522 C1516 1.368 . S
C1522 C1521 1.523 . S
C1523 C1507 1.429 . S
C1523 C1519 1.429 . S
C1523 C1524 1.523 . S
C1524 C1508 1.368 . S
C1524 C1520 1.368 . S
C1524 C1523 1.523 . S
H1525 C1500 0.950 . S
H1526 C1502 0.950 . S
H1527 C1503 0.949 . S
H1528 C1505 0.950 . S
H1529 C1507 0.950 . S
C1530 C1531 1.349 . S
C1530 C1532 1.327 . S
C1530 H1555 0.950 . S
C1531 C1530 1.349 . S
C1531 C1547 1.349 . S
C1532 C1530 1.327 . S
C1532 C1551 1.429 . S
C1532 H1556 0.950 . S
C1533 C1550 1.574 . S
C1533 C1552 1.368 . S
C1533 H1557 0.949 . S
H1534 C1538 0.949 . S
C1535 C1536 1.349 . S
C1535 C1537 1.327 . S
C1535 H1558 0.950 . S
C1536 C1535 1.349 . S
C1536 C1548 1.349 . S
C1537 C1535 1.327 . S
C1537 C1553 1.429 . S
C1537 H1559 0.950 . S
C1538 H1534 0.949 . S
C1538 C1546 1.574 . S
C1538 C1554 1.368 . S
H1539 C1547 0.950 . S
H1540 C1545 0.950 . S
H1541 C1546 0.949 . S
H1542 C1548 0.950 . S
H1543 C1549 0.950 . S
H1544 C1550 0.949 . S
C1545 H1540 0.950 . S
C1545 C1547 1.327 . S
C1545 C1551 1.429 . S
C1546 C1538 1.574 . S
C1546 H1541 0.949 . S
C1546 C1552 1.368 . S
C1547 C1531 1.349 . S
C1547 H1539 0.950 . S
C1547 C1545 1.327 . S
C1548 C1536 1.349 . S
C1548 H1542 0.950 . S
C1548 C1549 1.327 . S
C1549 H1543 0.950 . S
C1549 C1548 1.327 . S
C1549 C1553 1.429 . S
C1550 C1533 1.574 . S
C1550 H1544 0.949 . S
C1550 C1554 1.368 . S
C1551 C1532 1.429 . S
C1551 C1545 1.429 . S
C1551 C1552 1.523 . S
C1552 C1533 1.368 . S
C1552 C1546 1.368 . S
C1552 C1551 1.523 . S
C1553 C1537 1.429 . S
C1553 C1549 1.429 . S
C1553 C1554 1.523 . S
C1554 C1538 1.368 . S
C1554 C1550 1.368 . S
C1554 C1553 1.523 . S
H1555 C1530 0.950 . S
H1556 C1532 0.950 . S
H1557 C1533 0.949 . S
H1558 C1535 0.950 . S
H1559 C1537 0.950 . S
C1560 C1561 1.349 . S
C1560 C1562 1.327 . S
C1560 H1585 0.950 . S
C1561 C1560 1.349 . S
C1561 C1577 1.349 . S
C1562 C1560 1.327 . S
C1562 C1581 1.429 . S
C1562 H1586 0.950 1_554 S
C1563 C1580 1.574 1_554 S
C1563 C1582 1.368 1_554 S
C1563 H1587 0.949 . S
H1564 C1568 0.949 . S
C1565 C1566 1.349 . S
C1565 C1567 1.327 . S
C1565 H1588 0.950 . S
C1566 C1565 1.349 . S
C1566 C1578 1.349 . S
C1567 C1565 1.327 . S
C1567 C1583 1.429 . S
C1567 H1589 0.950 . S
C1568 H1564 0.949 . S
C1568 C1576 1.574 . S
C1568 C1584 1.368 . S
H1569 C1577 0.950 . S
H1570 C1575 0.950 . S
H1571 C1576 0.949 . S
H1572 C1578 0.950 . S
H1573 C1579 0.950 . S
H1574 C1580 0.949 . S
C1575 H1570 0.950 . S
C1575 C1577 1.327 . S
C1575 C1581 1.429 . S
C1576 C1568 1.574 . S
C1576 H1571 0.949 . S
C1576 C1582 1.368 . S
C1577 C1561 1.349 . S
C1577 H1569 0.950 . S
C1577 C1575 1.327 . S
C1578 C1566 1.349 . S
C1578 H1572 0.950 . S
C1578 C1579 1.327 . S
C1579 H1573 0.950 . S
C1579 C1578 1.327 . S
C1579 C1583 1.429 . S
C1580 C1563 1.574 1_556 S
C1580 H1574 0.949 . S
C1580 C1584 1.368 . S
C1581 C1562 1.429 . S
C1581 C1575 1.429 . S
C1581 C1582 1.523 1_554 S
C1582 C1563 1.368 1_556 S
C1582 C1576 1.368 . S
C1582 C1581 1.523 1_556 S
C1583 C1567 1.429 . S
C1583 C1579 1.429 . S
C1583 C1584 1.523 . S
C1584 C1568 1.368 . S
C1584 C1580 1.368 . S
C1584 C1583 1.523 . S
H1585 C1560 0.950 . S
H1586 C1562 0.950 1_556 S
H1587 C1563 0.949 . S
H1588 C1565 0.950 . S
H1589 C1567 0.950 . S
C1590 C1591 1.349 . S
C1590 C1592 1.327 . S
C1590 H1615 0.950 . S
C1591 C1590 1.349 . S
C1591 C1607 1.349 . S
C1592 C1590 1.327 . S
C1592 C1611 1.429 . S
C1592 H1616 0.950 . S
C1593 C1610 1.574 . S
C1593 C1612 1.368 . S
C1593 H1617 0.949 . S
H1594 C1598 0.949 . S
C1595 C1596 1.349 . S
C1595 C1597 1.327 . S
C1595 H1618 0.950 . S
C1596 C1595 1.349 . S
C1596 C1608 1.349 . S
C1597 C1595 1.327 . S
C1597 C1613 1.429 . S
C1597 H1619 0.950 . S
C1598 H1594 0.949 . S
C1598 C1606 1.574 . S
C1598 C1614 1.368 . S
H1599 C1607 0.950 . S
H1600 C1605 0.950 . S
H1601 C1606 0.949 . S
H1602 C1608 0.950 . S
H1603 C1609 0.950 . S
H1604 C1610 0.949 . S
C1605 H1600 0.950 . S
C1605 C1607 1.327 . S
C1605 C1611 1.429 . S
C1606 C1598 1.574 . S
C1606 H1601 0.949 . S
C1606 C1612 1.368 . S
C1607 C1591 1.349 . S
C1607 H1599 0.950 . S
C1607 C1605 1.327 . S
C1608 C1596 1.349 . S
C1608 H1602 0.950 . S
C1608 C1609 1.327 . S
C1609 H1603 0.950 . S
C1609 C1608 1.327 . S
C1609 C1613 1.429 . S
C1610 C1593 1.574 . S
C1610 H1604 0.949 . S
C1610 C1614 1.368 . S
C1611 C1592 1.429 . S
C1611 C1605 1.429 . S
C1611 C1612 1.523 . S
C1612 C1593 1.368 . S
C1612 C1606 1.368 . S
C1612 C1611 1.523 . S
C1613 C1597 1.429 . S
C1613 C1609 1.429 . S
C1613 C1614 1.523 . S
C1614 C1598 1.368 . S
C1614 C1610 1.368 . S
C1614 C1613 1.523 . S
H1615 C1590 0.950 . S
H1616 C1592 0.950 . S
H1617 C1593 0.949 . S
H1618 C1595 0.950 . S
H1619 C1597 0.950 . S
C1620 C1621 1.349 . S
C1620 C1622 1.327 . S
C1620 H1645 0.950 . S
C1621 C1620 1.349 . S
C1621 C1637 1.349 . S
C1622 C1620 1.327 . S
C1622 C1641 1.429 . S
C1622 H1646 0.950 . S
C1623 C1640 1.574 . S
C1623 C1642 1.368 . S
C1623 H1647 0.949 . S
H1624 C1628 0.949 . S
C1625 C1626 1.349 . S
C1625 C1627 1.327 . S
C1625 H1648 0.950 . S
C1626 C1625 1.349 . S
C1626 C1638 1.349 . S
C1627 C1625 1.327 . S
C1627 C1643 1.429 . S
C1627 H1649 0.950 . S
C1628 H1624 0.949 . S
C1628 C1636 1.574 . S
C1628 C1644 1.368 . S
H1629 C1637 0.950 . S
H1630 C1635 0.950 . S
H1631 C1636 0.949 . S
H1632 C1638 0.950 . S
H1633 C1639 0.950 . S
H1634 C1640 0.949 . S
C1635 H1630 0.950 . S
C1635 C1637 1.327 . S
C1635 C1641 1.429 . S
C1636 C1628 1.574 . S
C1636 H1631 0.949 . S
C1636 C1642 1.368 . S
C1637 C1621 1.349 . S
C1637 H1629 0.950 . S
C1637 C1635 1.327 . S
C1638 C1626 1.349 . S
C1638 H1632 0.950 . S
C1638 C1639 1.327 . S
C1639 H1633 0.950 . S
C1639 C1638 1.327 . S
C1639 C1643 1.429 . S
C1640 C1623 1.574 . S
C1640 H1634 0.949 . S
C1640 C1644 1.368 . S
C1641 C1622 1.429 . S
C1641 C1635 1.429 . S
C1641 C1642 1.523 . S
C1642 C1623 1.368 . S
C1642 C1636 1.368 . S
C1642 C1641 1.523 . S
C1643 C1627 1.429 . S
C1643 C1639 1.429 . S
C1643 C1644 1.523 . S
C1644 C1628 1.368 . S
C1644 C1640 1.368 . S
C1644 C1643 1.523 . S
H1645 C1620 0.950 . S
H1646 C1622 0.950 . S
H1647 C1623 0.949 . S
H1648 C1625 0.950 . S
H1649 C1627 0.950 . S
C1650 C1651 1.349 . S
C1650 C1652 1.327 . S
C1650 H1675 0.950 . S
C1651 C1650 1.349 . S
C1651 C1667 1.349 . S
C1652 C1650 1.327 . S
C1652 C1671 1.429 . S
C1652 H1676 0.950 . S
C1653 C1670 1.574 . S
C1653 C1672 1.368 . S
C1653 H1677 0.949 . S
H1654 C1658 0.949 . S
C1655 C1656 1.349 . S
C1655 C1657 1.327 . S
C1655 H1678 0.950 . S
C1656 C1655 1.349 . S
C1656 C1668 1.349 . S
C1657 C1655 1.327 . S
C1657 C1673 1.429 . S
C1657 H1679 0.950 . S
C1658 H1654 0.949 . S
C1658 C1666 1.574 . S
C1658 C1674 1.368 . S
H1659 C1667 0.950 . S
H1660 C1665 0.950 . S
H1661 C1666 0.949 . S
H1662 C1668 0.950 . S
H1663 C1669 0.950 . S
H1664 C1670 0.949 . S
C1665 H1660 0.950 . S
C1665 C1667 1.327 . S
C1665 C1671 1.429 . S
C1666 C1658 1.574 . S
C1666 H1661 0.949 . S
C1666 C1672 1.368 . S
C1667 C1651 1.349 . S
C1667 H1659 0.950 . S
C1667 C1665 1.327 . S
C1668 C1656 1.349 . S
C1668 H1662 0.950 . S
C1668 C1669 1.327 . S
C1669 H1663 0.950 . S
C1669 C1668 1.327 . S
C1669 C1673 1.429 . S
C1670 C1653 1.574 . S
C1670 H1664 0.949 . S
C1670 C1674 1.368 . S
C1671 C1652 1.429 . S
C1671 C1665 1.429 . S
C1671 C1672 1.523 . S
C1672 C1653 1.368 . S
C1672 C1666 1.368 . S
C1672 C1671 1.523 . S
C1673 C1657 1.429 . S
C1673 C1669 1.429 . S
C1673 C1674 1.523 . S
C1674 C1658 1.368 . S
C1674 C1670 1.368 . S
C1674 C1673 1.523 . S
H1675 C1650 0.950 . S
H1676 C1652 0.950 . S
H1677 C1653 0.949 . S
H1678 C1655 0.950 . S
H1679 C1657 0.950 . S
C726 C641 1.962 . S
C721 C69 1.991 . S
C751 C125 0.571 . S
C756 C673 0.585 . S
C781 C217 1.974 . S
C786 C696 1.970 . S
C816 C600 1.476 . S
C811 C261 1.430 . S
C846 C683 1.569 . S
C841 C39 1.620 . S
C876 C712 1.634 . S
C871 C137 1.706 . S
C906 C616 1.608 . S
C901 C187 1.664 . S
C936 C651 1.961 . S
C931 C291 2.147 . S
C961 C51 0.550 . S
C966 C679 0.617 . S
C991 C365 2.066 . S
C996 C654 1.886 . S
C1021 C199 0.609 . S
C1026 C622 0.658 . S
C1056 C711 1.667 . S
C1051 C439 1.826 . S
C1086 C655 1.679 . S
C1081 C63 1.595 . S
C1111 C335 1.435 . S
C1116 C623 1.466 . S
C1141 C211 1.576 . S
C1146 C710 1.672 . S
C1176 C678 1.775 . S
C1171 C409 1.724 . S
C1201 C495 0.573 . S
C1206 C705 0.586 . S
C1231 C347 0.750 . S
C1236 C609 0.750 . S
C1261 C587 1.927 . S
C1266 C632 1.922 . S
C1291 C421 0.572 . S
C1296 C664 0.575 . S
C1326 C619 1.535 . S
C1321 C507 1.621 . S
C1351 C359 1.419 . S
C1356 C648 1.360 . S
C1381 C557 1.653 . S
C1386 C680 1.597 . S
C1416 C715 1.534 . S
C1411 C433 1.625 . S
C1441 C513 1.924 . S
C1446 C615 1.778 . S
C1471 C143 1.852 . S
C1476 C718 1.689 . S
C1501 C569 0.577 . S
C1506 C686 0.640 . S
C1536 C647 1.281 . S
C1531 C285 1.333 . S
C1566 C719 1.578 . S
C1561 C483 1.548 . S
C1596 C687 1.760 . S
C1591 C113 1.725 . S
C1626 C646 1.638 . S
C1621 C581 1.540 . S
C1656 C614 0.882 . S
C1651 C273 0.884 . S
