# Generated by pormake.
# Topology ptr, (4,4)-cn, num edge types: 1
# Building blocks:
#     Node 0, Type 0, BuildingBlock: CEKHIL_clean_sbu_0, # of connection points: 4
#     Node 1, Type 0, BuildingBlock: CEKHIL_clean_sbu_0, # of connection points: 4
#     Node 2, Type 0, BuildingBlock: CEKHIL_clean_sbu_0, # of connection points: 4
#     Node 3, Type 0, BuildingBlock: CEKHIL_clean_sbu_0, # of connection points: 4
#     Node 4, Type 0, BuildingBlock: CEKHIL_clean_sbu_0, # of connection points: 4
#     Node 5, Type 0, BuildingBlock: CEKHIL_clean_sbu_0, # of connection points: 4
#     Node 6, Type 0, BuildingBlock: CEKHIL_clean_sbu_0, # of connection points: 4
#     Node 7, Type 0, BuildingBlock: CEKHIL_clean_sbu_0, # of connection points: 4
#     Node 8, Type 0, BuildingBlock: CEKHIL_clean_sbu_0, # of connection points: 4
#     Node 9, Type 0, BuildingBlock: CEKHIL_clean_sbu_0, # of connection points: 4
#     Node 10, Type 0, BuildingBlock: CEKHIL_clean_sbu_0, # of connection points: 4
#     Node 11, Type 0, BuildingBlock: CEKHIL_clean_sbu_0, # of connection points: 4
#     Node 12, Type 0, BuildingBlock: CEKHIL_clean_sbu_0, # of connection points: 4
#     Node 13, Type 0, BuildingBlock: CEKHIL_clean_sbu_0, # of connection points: 4
#     Node 14, Type 0, BuildingBlock: CEKHIL_clean_sbu_0, # of connection points: 4
#     Node 15, Type 0, BuildingBlock: CEKHIL_clean_sbu_0, # of connection points: 4
#     Node 16, Type 0, BuildingBlock: CEKHIL_clean_sbu_0, # of connection points: 4
#     Node 17, Type 0, BuildingBlock: CEKHIL_clean_sbu_0, # of connection points: 4
#     Node 18, Type 1, BuildingBlock: GIZVER_clean_linker_0, # of connection points: 4
#     Node 19, Type 1, BuildingBlock: GIZVER_clean_linker_0, # of connection points: 4
#     Node 20, Type 1, BuildingBlock: GIZVER_clean_linker_0, # of connection points: 4
#     Node 21, Type 1, BuildingBlock: GIZVER_clean_linker_0, # of connection points: 4
#     Node 22, Type 1, BuildingBlock: GIZVER_clean_linker_0, # of connection points: 4
#     Node 23, Type 1, BuildingBlock: GIZVER_clean_linker_0, # of connection points: 4
#     Node 24, Type 1, BuildingBlock: GIZVER_clean_linker_0, # of connection points: 4
#     Node 25, Type 1, BuildingBlock: GIZVER_clean_linker_0, # of connection points: 4
#     Node 26, Type 1, BuildingBlock: GIZVER_clean_linker_0, # of connection points: 4
#     Node 27, Type 1, BuildingBlock: GIZVER_clean_linker_0, # of connection points: 4
#     Node 28, Type 1, BuildingBlock: GIZVER_clean_linker_0, # of connection points: 4
#     Node 29, Type 1, BuildingBlock: GIZVER_clean_linker_0, # of connection points: 4
#     Node 30, Type 1, BuildingBlock: GIZVER_clean_linker_0, # of connection points: 4
#     Node 31, Type 1, BuildingBlock: GIZVER_clean_linker_0, # of connection points: 4
#     Node 32, Type 1, BuildingBlock: GIZVER_clean_linker_0, # of connection points: 4
#     Node 33, Type 1, BuildingBlock: GIZVER_clean_linker_0, # of connection points: 4
#     Node 34, Type 1, BuildingBlock: GIZVER_clean_linker_0, # of connection points: 4
#     Node 35, Type 1, BuildingBlock: GIZVER_clean_linker_0, # of connection points: 4
#     Edge 36, Type (0, 1), BuildingBlock: UVAHIK_clean_linker_0, # of connection points: 2
#     Edge 37, Type (0, 1), BuildingBlock: UVAHIK_clean_linker_0, # of connection points: 2
#     Edge 38, Type (0, 1), BuildingBlock: UVAHIK_clean_linker_0, # of connection points: 2
#     Edge 39, Type (0, 1), BuildingBlock: UVAHIK_clean_linker_0, # of connection points: 2
#     Edge 40, Type (0, 1), BuildingBlock: UVAHIK_clean_linker_0, # of connection points: 2
#     Edge 41, Type (0, 1), BuildingBlock: UVAHIK_clean_linker_0, # of connection points: 2
#     Edge 42, Type (0, 1), BuildingBlock: UVAHIK_clean_linker_0, # of connection points: 2
#     Edge 43, Type (0, 1), BuildingBlock: UVAHIK_clean_linker_0, # of connection points: 2
#     Edge 44, Type (0, 1), BuildingBlock: UVAHIK_clean_linker_0, # of connection points: 2
#     Edge 45, Type (0, 1), BuildingBlock: UVAHIK_clean_linker_0, # of connection points: 2
#     Edge 46, Type (0, 1), BuildingBlock: UVAHIK_clean_linker_0, # of connection points: 2
#     Edge 47, Type (0, 1), BuildingBlock: UVAHIK_clean_linker_0, # of connection points: 2
#     Edge 48, Type (0, 1), BuildingBlock: UVAHIK_clean_linker_0, # of connection points: 2
#     Edge 49, Type (0, 1), BuildingBlock: UVAHIK_clean_linker_0, # of connection points: 2
#     Edge 50, Type (0, 1), BuildingBlock: UVAHIK_clean_linker_0, # of connection points: 2
#     Edge 51, Type (0, 1), BuildingBlock: UVAHIK_clean_linker_0, # of connection points: 2
#     Edge 52, Type (0, 1), BuildingBlock: UVAHIK_clean_linker_0, # of connection points: 2
#     Edge 53, Type (0, 1), BuildingBlock: UVAHIK_clean_linker_0, # of connection points: 2
#     Edge 54, Type (0, 1), BuildingBlock: UVAHIK_clean_linker_0, # of connection points: 2
#     Edge 55, Type (0, 1), BuildingBlock: UVAHIK_clean_linker_0, # of connection points: 2
#     Edge 56, Type (0, 1), BuildingBlock: UVAHIK_clean_linker_0, # of connection points: 2
#     Edge 57, Type (0, 1), BuildingBlock: UVAHIK_clean_linker_0, # of connection points: 2
#     Edge 58, Type (0, 1), BuildingBlock: UVAHIK_clean_linker_0, # of connection points: 2
#     Edge 59, Type (0, 1), BuildingBlock: UVAHIK_clean_linker_0, # of connection points: 2
#     Edge 60, Type (0, 1), BuildingBlock: UVAHIK_clean_linker_0, # of connection points: 2
#     Edge 61, Type (0, 1), BuildingBlock: UVAHIK_clean_linker_0, # of connection points: 2
#     Edge 62, Type (0, 1), BuildingBlock: UVAHIK_clean_linker_0, # of connection points: 2
#     Edge 63, Type (0, 1), BuildingBlock: UVAHIK_clean_linker_0, # of connection points: 2
#     Edge 64, Type (0, 1), BuildingBlock: UVAHIK_clean_linker_0, # of connection points: 2
#     Edge 65, Type (0, 1), BuildingBlock: UVAHIK_clean_linker_0, # of connection points: 2
#     Edge 66, Type (0, 1), BuildingBlock: UVAHIK_clean_linker_0, # of connection points: 2
#     Edge 67, Type (0, 1), BuildingBlock: UVAHIK_clean_linker_0, # of connection points: 2
#     Edge 68, Type (0, 1), BuildingBlock: UVAHIK_clean_linker_0, # of connection points: 2
#     Edge 69, Type (0, 1), BuildingBlock: UVAHIK_clean_linker_0, # of connection points: 2
#     Edge 70, Type (0, 1), BuildingBlock: UVAHIK_clean_linker_0, # of connection points: 2
#     Edge 71, Type (0, 1), BuildingBlock: UVAHIK_clean_linker_0, # of connection points: 2
#     Edge 72, Type (0, 1), BuildingBlock: UVAHIK_clean_linker_0, # of connection points: 2
#     Edge 73, Type (0, 1), BuildingBlock: UVAHIK_clean_linker_0, # of connection points: 2
#     Edge 74, Type (0, 1), BuildingBlock: UVAHIK_clean_linker_0, # of connection points: 2
#     Edge 75, Type (0, 1), BuildingBlock: UVAHIK_clean_linker_0, # of connection points: 2
#     Edge 76, Type (0, 1), BuildingBlock: UVAHIK_clean_linker_0, # of connection points: 2
#     Edge 77, Type (0, 1), BuildingBlock: UVAHIK_clean_linker_0, # of connection points: 2
#     Edge 78, Type (0, 1), BuildingBlock: UVAHIK_clean_linker_0, # of connection points: 2
#     Edge 79, Type (0, 1), BuildingBlock: UVAHIK_clean_linker_0, # of connection points: 2
#     Edge 80, Type (0, 1), BuildingBlock: UVAHIK_clean_linker_0, # of connection points: 2
#     Edge 81, Type (0, 1), BuildingBlock: UVAHIK_clean_linker_0, # of connection points: 2
#     Edge 82, Type (0, 1), BuildingBlock: UVAHIK_clean_linker_0, # of connection points: 2
#     Edge 83, Type (0, 1), BuildingBlock: UVAHIK_clean_linker_0, # of connection points: 2
#     Edge 84, Type (0, 1), BuildingBlock: UVAHIK_clean_linker_0, # of connection points: 2
#     Edge 85, Type (0, 1), BuildingBlock: UVAHIK_clean_linker_0, # of connection points: 2
#     Edge 86, Type (0, 1), BuildingBlock: UVAHIK_clean_linker_0, # of connection points: 2
#     Edge 87, Type (0, 1), BuildingBlock: UVAHIK_clean_linker_0, # of connection points: 2
#     Edge 88, Type (0, 1), BuildingBlock: UVAHIK_clean_linker_0, # of connection points: 2
#     Edge 89, Type (0, 1), BuildingBlock: UVAHIK_clean_linker_0, # of connection points: 2
#     Edge 90, Type (0, 1), BuildingBlock: UVAHIK_clean_linker_0, # of connection points: 2
#     Edge 91, Type (0, 1), BuildingBlock: UVAHIK_clean_linker_0, # of connection points: 2
#     Edge 92, Type (0, 1), BuildingBlock: UVAHIK_clean_linker_0, # of connection points: 2
#     Edge 93, Type (0, 1), BuildingBlock: UVAHIK_clean_linker_0, # of connection points: 2
#     Edge 94, Type (0, 1), BuildingBlock: UVAHIK_clean_linker_0, # of connection points: 2
#     Edge 95, Type (0, 1), BuildingBlock: UVAHIK_clean_linker_0, # of connection points: 2
#     Edge 96, Type (0, 1), BuildingBlock: UVAHIK_clean_linker_0, # of connection points: 2
#     Edge 97, Type (0, 1), BuildingBlock: UVAHIK_clean_linker_0, # of connection points: 2
#     Edge 98, Type (0, 1), BuildingBlock: UVAHIK_clean_linker_0, # of connection points: 2
#     Edge 99, Type (0, 1), BuildingBlock: UVAHIK_clean_linker_0, # of connection points: 2
#     Edge 100, Type (0, 1), BuildingBlock: UVAHIK_clean_linker_0, # of connection points: 2
#     Edge 101, Type (0, 1), BuildingBlock: UVAHIK_clean_linker_0, # of connection points: 2
#     Edge 102, Type (0, 1), BuildingBlock: UVAHIK_clean_linker_0, # of connection points: 2
#     Edge 103, Type (0, 1), BuildingBlock: UVAHIK_clean_linker_0, # of connection points: 2
#     Edge 104, Type (0, 1), BuildingBlock: UVAHIK_clean_linker_0, # of connection points: 2
#     Edge 105, Type (0, 1), BuildingBlock: UVAHIK_clean_linker_0, # of connection points: 2
#     Edge 106, Type (0, 1), BuildingBlock: UVAHIK_clean_linker_0, # of connection points: 2
#     Edge 107, Type (0, 1), BuildingBlock: UVAHIK_clean_linker_0, # of connection points: 2
# Relax obj value: 0.048
# Max RMSD: 0.105
# Mean RMSD: 0.077
data_MOF--net-ptr--node1-CEKHIL_clean_sbu_0--node2-GIZVER_clean_linker_0--edge1-UVAHIK_clean_linker_0
_symmetry_space_group_name_H-M    P1
_symmetry_Int_Tables_number       1
_symmetry_cell_setting            triclinic
loop_
_symmetry_equiv_pos_as_xyz
'x, y, z'
_cell_length_a     102.69311
_cell_length_b     101.64834
_cell_length_c     63.22721
_cell_angle_alpha  91.025683
_cell_angle_beta   89.824036
_cell_angle_gamma 120.84131
loop_
_atom_site_label
_atom_site_type_symbol
_atom_site_fract_x
_atom_site_fract_y
_atom_site_fract_z
_atom_type_partial_charge
Co0 Co 0.00724 0.35202 0.00792 0.0
O1 O 0.01565 0.34261 0.02484 0.0
O2 O 0.0292 0.3634 0.0059 0.0
C3 C 0.98889 0.32981 0.99294 0.0
O4 O 1.00251 0.36471 0.98809 0.0
Co5 Co 0.97374 0.34364 0.01483 0.0
O6 O 0.97804 0.35808 0.99155 0.0
C7 C 0.99775 0.36511 0.04447 0.0
C8 C 0.02886 0.35315 0.0183 0.0
C9 C 0.99111 0.36616 0.98336 0.0
O10 O 0.00808 0.36535 0.0326 0.0
O11 O 0.98353 0.35601 0.0412 0.0
O12 O 0.00256 0.33668 0.98539 0.0
O13 O 0.98712 0.33588 0.00993 0.0
Co14 Co 0.65571 0.65509 0.0145 0.0
O15 O 0.67179 0.66399 0.99405 0.0
O16 O 0.66665 0.64432 0.01423 0.0
C17 C 0.66076 0.67774 0.02875 0.0
O18 O 0.64077 0.6429 0.03759 0.0
Co19 Co 0.62912 0.66124 0.01601 0.0
O20 O 0.62306 0.64932 0.04241 0.0
C21 C 0.62893 0.63928 0.98432 0.0
C22 C 0.67528 0.65402 8e-05 0.0
C23 C 0.62914 0.64156 0.04729 0.0
O24 O 0.64094 0.6405 0.99262 0.0
O25 O 0.62333 0.64747 0.99025 0.0
O26 O 0.66845 0.6715 0.03463 0.0
O27 O 0.65089 0.67059 0.01388 0.0
Co28 Co 0.34937 0.00272 0.00587 0.0
O29 O 0.34125 0.01147 0.98713 0.0
O30 O 0.36132 0.02491 0.00784 0.0
C31 C 0.32666 0.98531 0.01946 0.0
O32 O 0.36075 0.99781 0.02776 0.0
Co33 Co 0.33994 0.96841 0.00154 0.0
O34 O 0.35155 0.97242 0.02821 0.0
C35 C 0.36297 0.99124 0.97271 0.0
C36 C 0.35177 0.02478 0.99424 0.0
C37 C 0.36044 0.98597 0.03535 0.0
O38 O 0.36286 0.0023 0.98283 0.0
O39 O 0.35388 0.97709 0.97678 0.0
O40 O 0.33388 0.99932 0.02674 0.0
O41 O 0.33279 0.98259 0.00343 0.0
Co42 Co 0.99536 0.65207 0.0096 0.0
O43 O 0.98574 0.66011 0.99249 0.0
O44 O 0.97364 0.64082 0.01442 0.0
C45 C 0.01431 0.67523 0.02106 0.0
O46 O 1.00162 0.64104 0.03019 0.0
Co47 Co 0.02832 0.66003 -0.00025 0.0
O48 O 0.02642 0.64926 0.02646 0.0
C49 C 0.00273 0.63692 0.97352 0.0
C50 C 0.97306 0.65009 0.00104 0.0
C51 C 0.01374 0.64111 0.03566 0.0
O52 O 0.99311 0.63719 0.98634 0.0
O53 O 0.01707 0.64619 0.97498 0.0
O54 O 1.00119 0.66878 0.03026 0.0
O55 O 0.01516 0.66809 0.00455 0.0
Co56 Co 0.3506 0.35306 0.01056 0.0
O57 O 0.33487 0.3449 0.03153 0.0
O58 O 0.33968 0.3639 0.01018 0.0
C59 C 0.34503 0.32976 -0.00208 0.0
O60 O 0.36525 0.36439 0.98664 0.0
Co61 Co 0.37674 0.34617 0.00894 0.0
O62 O 0.38119 0.35576 0.98078 0.0
C63 C 0.37852 0.37021 0.03857 0.0
C64 C 0.33122 0.3546 0.02483 0.0
C65 C 0.37585 0.3642 0.97599 0.0
O66 O 0.36589 0.36834 0.03153 0.0
O67 O 0.38394 0.36189 0.03252 0.0
O68 O 0.33741 0.33593 0.99144 0.0
O69 O 0.35519 0.33746 0.01223 0.0
Co70 Co 0.65535 0.00198 0.00837 0.0
O71 O 0.66404 0.99417 0.02777 0.0
O72 O 0.64447 0.97974 0.00668 0.0
C73 C 0.67786 0.02024 0.99523 0.0
O74 O 0.64365 0.00593 0.98574 0.0
Co75 Co 0.66276 0.03569 0.01228 0.0
O76 O 0.65232 0.0312 0.98449 0.0
C77 C 0.64018 0.01224 0.0408 0.0
C78 C 0.65415 0.98059 0.02067 0.0
C79 C 0.64391 0.01754 0.9774 0.0
O80 O 0.64103 0.00158 0.03072 0.0
O81 O 0.64878 0.02651 0.03694 0.0
O82 O 0.67145 0.0062 0.98812 0.0
O83 O 0.67112 0.0225 0.01089 0.0
Co84 Co 0.67034 0.68573 0.33637 0.0
O85 O 0.6769 0.67773 0.35871 0.0
O86 O 0.69227 0.69698 0.3383 0.0
C87 C 0.65337 0.66233 0.32266 0.0
O88 O 0.66819 0.69693 0.31133 0.0
Co89 Co 0.63698 0.67785 0.33111 0.0
O90 O 0.64371 0.68804 0.30355 0.0
C91 C 0.65772 0.70232 0.36163 0.0
C92 C 0.69068 0.68765 0.35324 0.0
C93 C 0.65777 0.69667 0.29969 0.0
O94 O 0.66895 0.70063 0.35652 0.0
O95 O 0.64427 0.69391 0.35413 0.0
O96 O 0.66763 0.66884 0.31779 0.0
O97 O 0.64997 0.6697 0.33621 0.0
Co98 Co 0.32262 0.9869 0.34594 0.0
O99 O 0.33883 0.99513 0.32567 0.0
O100 O 0.33228 0.97486 0.3453 0.0
C101 C 0.32906 0.00982 0.36081 0.0
O102 O 0.30719 0.97523 0.36888 0.0
Co103 Co 0.29777 0.99572 0.34741 0.0
O104 O 0.29111 0.98379 0.37375 0.0
C105 C 0.29642 0.97375 0.31471 0.0
C106 C 0.34138 0.98444 0.33136 0.0
C107 C 0.29609 0.97505 0.37864 0.0
O108 O 0.30748 0.97332 0.32354 0.0
O109 O 0.29196 0.98289 0.32078 0.0
O110 O 0.33599 0.00274 0.36651 0.0
O111 O 0.31925 0.00334 0.34573 0.0
Co112 Co 0.01762 0.33532 0.33968 0.0
O113 O 0.00982 0.34346 0.31941 0.0
O114 O 0.02981 0.35754 0.34002 0.0
C115 C 0.99473 0.31864 0.35357 0.0
O116 O 0.02868 0.33112 0.36294 0.0
Co117 Co 0.00791 0.30089 0.33827 0.0
O118 O 0.01912 0.30576 0.36544 0.0
C119 C 0.03141 0.32245 0.30885 0.0
C120 C 0.02043 0.35697 0.32573 0.0
C121 C 0.02807 0.31951 0.37182 0.0
O122 O 0.03119 0.33387 0.31768 0.0
O123 O 0.02224 0.30849 0.31378 0.0
O124 O 1.00207 0.3329 0.35981 0.0
O125 O 1.00087 0.31522 0.33826 0.0
Co126 Co 0.66385 0.98556 0.34165 0.0
O127 O 0.65547 0.99397 0.32292 0.0
O128 O 0.64186 0.97387 0.34306 0.0
C129 C 0.68158 0.00852 0.35549 0.0
O130 O 0.66863 0.97401 0.36343 0.0
Co131 Co 0.69759 0.99437 0.3375 0.0
O132 O 0.69372 0.98301 0.36413 0.0
C133 C 0.6745 0.97198 0.3074 0.0
C134 C 0.64223 0.98355 0.3295 0.0
C135 C 0.68037 0.97429 0.37116 0.0
O136 O 0.66374 0.97168 0.31832 0.0
O137 O 0.68858 0.98123 0.31145 0.0
O138 O 0.66783 0.00157 0.36278 0.0
O139 O 0.68381 0.0019 0.3395 0.0
Co140 Co 0.01802 0.68565 0.34599 0.0
O141 O 1.00189 0.6769 0.36621 0.0
O142 O 0.00668 0.69611 0.34532 0.0
C143 C 0.01329 0.66279 0.33266 0.0
O144 O 0.03321 0.69733 0.32269 0.0
Co145 Co 0.04442 0.67894 0.34701 0.0
O146 O 0.05024 0.68977 0.31978 0.0
C147 C 0.04475 0.70226 0.3764 0.0
C148 C 0.99805 0.68644 0.35954 0.0
C149 C 0.04466 0.69774 0.31362 0.0
O150 O 0.03268 0.70077 0.3678 0.0
O151 O 0.05019 0.69377 0.37141 0.0
O152 O 0.00553 0.66878 0.32606 0.0
O153 O 0.0228 0.67023 0.34776 0.0
Co154 Co 0.31942 0.33204 0.34153 0.0
O155 O 0.32844 0.32478 0.36126 0.0
O156 O 0.30797 0.30982 0.34194 0.0
C157 C 0.3416 0.34909 0.3263 0.0
O158 O 0.30719 0.33524 0.31894 0.0
Co159 Co 0.32786 0.36614 0.34211 0.0
O160 O 0.31613 0.36041 0.31527 0.0
C161 C 0.30649 0.34483 0.37377 0.0
C162 C 0.31806 0.31101 0.35547 0.0
C163 C 0.30728 0.34647 0.30964 0.0
O164 O 0.30627 0.33336 0.36437 0.0
O165 O 0.31533 0.35877 0.3684 0.0
O166 O 0.3346 0.33474 0.32049 0.0
O167 O 0.3356 0.35242 0.34189 0.0
Co168 Co 0.33973 0.02116 0.67342 0.0
O169 O 0.34743 0.01287 0.69374 0.0
O170 O 0.36167 0.03299 0.67395 0.0
C171 C 0.32271 0.99817 0.65879 0.0
O172 O 0.33622 0.03278 0.65028 0.0
Co173 Co 0.30606 0.01268 0.67273 0.0
O174 O 0.31136 0.0239 0.64579 0.0
C175 C 0.32742 0.03535 0.70434 0.0
C176 C 0.3609 0.02341 0.68797 0.0
C177 C 0.32516 0.03264 0.64053 0.0
O178 O 0.33867 0.03509 0.69568 0.0
O179 O 0.31361 0.02642 0.69853 0.0
O180 O 0.33682 0.00514 0.65301 0.0
O181 O 0.31957 0.00476 0.6739 0.0
Co182 Co 0.9894 0.32098 0.67746 0.0
O183 O 0.00715 0.33075 0.66003 0.0
O184 O 1.0014 0.31145 0.68127 0.0
C185 C 0.99159 0.34297 0.68997 0.0
O186 O 0.97252 0.30833 0.69822 0.0
Co187 Co 0.96205 0.32546 0.66968 0.0
O188 O 0.95422 0.3142 0.69649 0.0
C189 C 0.96665 0.30453 0.6419 0.0
C190 C 0.01083 0.32138 0.66791 0.0
C191 C 0.96 0.30696 0.70471 0.0
O192 O 0.97733 0.30591 0.65403 0.0
O193 O 0.96027 0.31247 0.64426 0.0
O194 O 0.99931 0.33754 0.69857 0.0
O195 O 0.98377 0.33562 0.6734 0.0
Co196 Co 0.68429 0.6684 0.67376 0.0
O197 O 0.6753 0.67448 0.65224 0.0
O198 O 0.6954 0.69048 0.67155 0.0
C199 C 0.66189 0.6517 0.68882 0.0
O200 O 0.69663 0.66689 0.69775 0.0
Co201 Co 0.67694 0.63499 0.6788 0.0
O202 O 0.68802 0.64241 0.7061 0.0
C203 C 0.69845 0.65467 0.64565 0.0
C204 C 0.68548 0.68852 0.65723 0.0
C205 C 0.69676 0.65674 0.70946 0.0
O206 O 0.69784 0.66638 0.65239 0.0
O207 O 0.69022 0.64121 0.65313 0.0
O208 O 0.66866 0.66623 0.6936 0.0
O209 O 0.66845 0.64787 0.67462 0.0
Co210 Co 0.33301 0.31951 0.67637 0.0
O211 O 0.32491 0.32872 0.65851 0.0
O212 O 0.31103 0.30786 0.67715 0.0
C213 C 0.35051 0.34187 0.69192 0.0
O214 O 0.33731 0.30696 0.69702 0.0
Co215 Co 0.36677 0.32837 0.67252 0.0
O216 O 0.36206 0.31433 0.69641 0.0
C217 C 0.34415 0.3073 0.64091 0.0
C218 C 0.31158 0.31808 0.66448 0.0
C219 C 0.34866 0.30591 0.70338 0.0
O220 O 0.33323 0.30657 0.65193 0.0
O221 O 0.35817 0.31643 0.64548 0.0
O222 O 0.33665 0.33462 0.69872 0.0
O223 O 0.35306 0.33595 0.6754 0.0
Co224 Co 0.68299 0.01603 0.67444 0.0
O225 O 0.66628 0.00816 0.69373 0.0
O226 O 0.67295 0.02778 0.6727 0.0
C227 C 0.67683 0.99251 0.66204 0.0
O228 O 0.69907 0.02707 0.65186 0.0
Co229 Co 0.70775 0.0073 0.67704 0.0
O230 O 0.71507 0.01821 0.65001 0.0
C231 C 0.70836 0.03047 0.70696 0.0
C232 C 0.6636 0.01845 0.68668 0.0
C233 C 0.71036 0.0268 0.64338 0.0
O234 O 0.6974 0.03041 0.69699 0.0
O235 O 0.71303 0.02125 0.70242 0.0
O236 O 0.67037 0.99949 0.65415 0.0
O237 O 0.68625 0.99961 0.67736 0.0
Co238 Co 0.98579 0.66904 0.67188 0.0
O239 O 0.99514 0.66309 0.69297 0.0
O240 O 0.97513 0.64688 0.6737 0.0
C241 C 0.00796 0.68627 0.65676 0.0
O242 O 0.97332 0.67078 0.64809 0.0
Co243 Co 0.99281 0.70259 0.66926 0.0
O244 O 0.98177 0.69559 0.64193 0.0
C245 C 0.97104 0.68174 0.70109 0.0
C246 C 0.98523 0.649 0.68787 0.0
C247 C 0.97321 0.68139 0.63736 0.0
O248 O 0.97205 0.67039 0.69367 0.0
O249 O 0.97912 0.69545 0.69443 0.0
O250 O 1.0015 0.67181 0.65172 0.0
O251 O 1.00139 0.68967 0.67146 0.0
H252 H 0.14842 0.31926 0.17086 0.0
H253 H 0.14784 0.3219 0.10295 0.0
H254 H 0.13019 0.34428 0.14152 0.0
H255 H 0.15099 0.3008 0.14756 0.0
H256 H 0.1523 0.30303 0.11955 0.0
H257 H 0.17323 0.31664 0.17081 0.0
H258 H 0.21685 0.33943 0.14089 0.0
H259 H 0.17648 0.32089 0.10289 0.0
C260 C 0.14616 0.32373 0.15679 0.0
C261 C 0.13924 0.33256 0.15866 0.0
C262 C 0.14958 0.32007 0.13675 0.0
C263 C 0.14587 0.32522 0.11847 0.0
C264 C 0.13912 0.3342 0.12023 0.0
C265 C 0.13615 0.33805 0.14031 0.0
C266 C 0.15581 0.30948 0.1349 0.0
C267 C 0.17289 0.31826 0.13671 0.0
C268 C 0.18002 0.32089 0.15666 0.0
C269 C 0.19591 0.32869 0.15826 0.0
C270 C 0.20459 0.33395 0.13986 0.0
C271 C 0.19769 0.33108 0.11995 0.0
C272 C 0.18184 0.32333 0.11836 0.0
H273 H 0.69281 0.83737 0.17254 0.0
H274 H 0.69524 0.83709 0.10433 0.0
H275 H 0.67655 0.79498 0.13792 0.0
H276 H 0.7089 0.86142 0.15269 0.0
H277 H 0.70906 0.86117 0.12443 0.0
H278 H 0.6872 0.85991 0.17221 0.0
H279 H 0.6614 0.87555 0.13888 0.0
H280 H 0.69059 0.86431 0.10446 0.0
C281 C 0.69048 0.83116 0.15759 0.0
C282 C 0.68387 0.81516 0.15744 0.0
C283 C 0.69423 0.83914 0.13838 0.0
C284 C 0.69181 0.83102 0.11911 0.0
C285 C 0.68531 0.81509 0.11902 0.0
C286 C 0.68111 0.80727 0.13809 0.0
C287 C 0.70156 0.85634 0.13841 0.0
C288 C 0.68971 0.86092 0.13827 0.0
C289 C 0.6835 0.86226 0.15746 0.0
C290 C 0.67323 0.8675 0.15781 0.0
C291 C 0.66871 0.87076 0.13867 0.0
C292 C 0.67497 0.86975 0.11943 0.0
C293 C 0.68543 0.86474 0.11924 0.0
H294 H 0.15946 0.81788 0.17132 0.0
H295 H 0.15449 0.817 0.10366 0.0
H296 H 0.11509 0.79505 0.14326 0.0
H297 H 0.18015 0.82135 0.14682 0.0
H298 H 0.17844 0.82295 0.11906 0.0
H299 H 0.18436 0.84269 0.1717 0.0
H300 H 0.20812 0.8874 0.14487 0.0
H301 H 0.18645 0.84756 0.10397 0.0
C302 C 0.15228 0.81499 0.15744 0.0
C303 C 0.13645 0.80673 0.15967 0.0
C304 C 0.15885 0.81886 0.13726 0.0
C305 C 0.14943 0.81441 0.11923 0.0
C306 C 0.13356 0.80582 0.1212 0.0
C307 C 0.12725 0.8024 0.14153 0.0
C308 C 0.17577 0.82602 0.13481 0.0
C309 C 0.18392 0.8432 0.13753 0.0
C310 C 0.18763 0.84989 0.15795 0.0
C311 C 0.19611 0.86586 0.16061 0.0
C312 C 0.20076 0.87511 0.14275 0.0
C313 C 0.19752 0.86869 0.12226 0.0
C314 C 0.18886 0.85267 0.11973 0.0
H315 H 0.34884 0.19396 0.84905 0.0
H316 H 0.34213 0.1887 0.91621 0.0
H317 H 0.3203 0.20755 0.88016 0.0
H318 H 0.36628 0.1908 0.87128 0.0
H319 H 0.36406 0.18957 0.89926 0.0
H320 H 0.35045 0.16767 0.84802 0.0
H321 H 0.3367 0.12467 0.87697 0.0
H322 H 0.35106 0.16497 0.91597 0.0
C323 C 0.34303 0.19442 0.86312 0.0
C324 C 0.33392 0.20104 0.86224 0.0
C325 C 0.34583 0.18972 0.88254 0.0
C326 C 0.33932 0.19157 0.90113 0.0
C327 C 0.33028 0.19828 0.90054 0.0
C328 C 0.32704 0.20216 0.88084 0.0
C329 C 0.35775 0.18525 0.88402 0.0
C330 C 0.35093 0.16814 0.88224 0.0
C331 C 0.34809 0.16096 0.86216 0.0
C332 C 0.34276 0.14523 0.86033 0.0
C333 C 0.34013 0.13667 0.87859 0.0
C334 C 0.34323 0.14366 0.89874 0.0
C335 C 0.34846 0.15941 0.90049 0.0
H336 H 0.86042 0.16932 0.84157 0.0
H337 H 0.86559 0.17131 0.90951 0.0
H338 H 0.88501 0.2128 0.87424 0.0
H339 H 0.85565 0.14637 0.86217 0.0
H340 H 0.85596 0.14707 0.89044 0.0
H341 H 0.8345 0.14644 0.84223 0.0
H342 H 0.79195 0.12596 0.87485 0.0
H343 H 0.83298 0.13998 0.90959 0.0
C344 C 0.86433 0.17589 0.85625 0.0
C345 C 0.87265 0.19195 0.85573 0.0
C346 C 0.86131 0.16832 0.87572 0.0
C347 C 0.86723 0.177 0.89456 0.0
C348 C 0.87571 0.19303 0.89396 0.0
C349 C 0.87804 0.20039 0.87466 0.0
C350 C 0.85269 0.15104 0.87622 0.0
C351 C 0.83579 0.1447 0.87608 0.0
C352 C 0.82818 0.14311 0.85687 0.0
C353 C 0.81236 0.13648 0.85632 0.0
C354 C 0.80424 0.13182 0.87526 0.0
C355 C 0.81155 0.1329 0.8944 0.0
C356 C 0.82735 0.13946 0.89485 0.0
H357 H 0.8388 0.65052 0.84121 0.0
H358 H 0.83639 0.64807 0.90924 0.0
H359 H 0.87887 0.66353 0.8777 0.0
H360 H 0.81463 0.63433 0.85874 0.0
H361 H 0.81363 0.63266 0.88675 0.0
H362 H 0.81457 0.65602 0.84157 0.0
H363 H 0.79174 0.67446 0.87735 0.0
H364 H 0.80945 0.64983 0.90887 0.0
C365 C 0.84436 0.65267 0.85649 0.0
C366 C 0.85989 0.65786 0.8575 0.0
C367 C 0.83579 0.64912 0.87515 0.0
C368 C 0.84302 0.65122 0.89487 0.0
C369 C 0.85865 0.65669 0.89596 0.0
C370 C 0.86696 0.66005 0.87716 0.0
C371 C 0.81873 0.64108 0.87381 0.0
C372 C 0.81306 0.65214 0.87517 0.0
C373 C 0.81101 0.65835 0.85662 0.0
C374 C 0.8035 0.66667 0.8573 0.0
C375 C 0.79853 0.66908 0.87691 0.0
C376 C 0.80059 0.66311 0.8956 0.0
C377 C 0.80813 0.65486 0.89465 0.0
H378 H 0.81412 0.6522 0.50041 0.0
H379 H 0.81137 0.65501 0.43278 0.0
H380 H 0.79347 0.67585 0.47389 0.0
H381 H 0.81614 0.6339 0.47549 0.0
H382 H 0.81768 0.63711 0.44771 0.0
H383 H 0.83799 0.64987 0.49972 0.0
H384 H 0.88192 0.67302 0.47079 0.0
H385 H 0.84199 0.65483 0.43193 0.0
C386 C 0.81129 0.65659 0.48678 0.0
C387 C 0.80382 0.66484 0.48967 0.0
C388 C 0.81438 0.65327 0.4663 0.0
C389 C 0.80976 0.65817 0.44862 0.0
C390 C 0.80248 0.66658 0.45142 0.0
C391 C 0.79988 0.67013 0.47189 0.0
C392 C 0.82096 0.64303 0.46344 0.0
C393 C 0.83803 0.65196 0.46566 0.0
C394 C 0.84494 0.65435 0.48575 0.0
C395 C 0.86081 0.66216 0.48769 0.0
C396 C 0.86969 0.66763 0.46949 0.0
C397 C 0.86303 0.66493 0.44942 0.0
C398 C 0.84718 0.65719 0.44751 0.0
H399 H 0.35868 0.17028 0.50616 0.0
H400 H 0.36293 0.16845 0.43832 0.0
H401 H 0.34395 0.12724 0.4741 0.0
H402 H 0.37593 0.19389 0.48493 0.0
H403 H 0.37516 0.19295 0.4567 0.0
H404 H 0.35542 0.19357 0.5057 0.0
H405 H 0.32812 0.20782 0.4734 0.0
H406 H 0.35562 0.195 0.43762 0.0
C407 C 0.3568 0.16375 0.49159 0.0
C408 C 0.35043 0.14781 0.49232 0.0
C409 C 0.36094 0.17126 0.47201 0.0
C410 C 0.35918 0.16273 0.45334 0.0
C411 C 0.35297 0.14686 0.45415 0.0
C412 C 0.34834 0.13948 0.47351 0.0
C413 C 0.36814 0.18843 0.47116 0.0
C414 C 0.35625 0.19297 0.47158 0.0
C415 C 0.35098 0.19521 0.49109 0.0
C416 C 0.34077 0.20051 0.49185 0.0
C417 C 0.33536 0.20295 0.4729 0.0
C418 C 0.34073 0.20114 0.45333 0.0
C419 C 0.35112 0.19603 0.45268 0.0
H420 H 0.82727 0.14989 0.50232 0.0
H421 H 0.81957 0.15257 0.43608 0.0
H422 H 0.78187 0.12904 0.47823 0.0
H423 H 0.84626 0.15325 0.47419 0.0
H424 H 0.84376 0.15732 0.44774 0.0
H425 H 0.85364 0.17283 0.50299 0.0
H426 H 0.87889 0.21938 0.48293 0.0
H427 H 0.8524 0.18334 0.43754 0.0
C428 C 0.81956 0.14791 0.48936 0.0
C429 C 0.80385 0.13973 0.49286 0.0
C430 C 0.82531 0.15276 0.46891 0.0
C431 C 0.81517 0.14935 0.45194 0.0
C432 C 0.79941 0.14072 0.45509 0.0
C433 C 0.79395 0.13643 0.47573 0.0
C434 C 0.84198 0.15934 0.46459 0.0
C435 C 0.85124 0.17624 0.46988 0.0
C436 C 0.85653 0.18116 0.49068 0.0
C437 C 0.86626 0.19674 0.49537 0.0
C438 C 0.87062 0.20746 0.47931 0.0
C439 C 0.8659 0.20279 0.45832 0.0
C440 C 0.85593 0.18713 0.45375 0.0
H441 H 0.02629 0.52881 0.17496 0.0
H442 H 0.02105 0.52885 0.24255 0.0
H443 H 1.00083 0.54739 0.20249 0.0
H444 H 0.04395 0.52657 0.19918 0.0
H445 H 0.04138 0.52619 0.22714 0.0
H446 H 0.02534 0.50345 0.1766 0.0
H447 H 0.00913 0.46047 0.20706 0.0
H448 H 0.02844 0.50199 0.24448 0.0
C449 C 0.02129 0.53093 0.18876 0.0
C450 C 0.01243 0.5377 0.18634 0.0
C451 C 0.02427 0.52752 0.20903 0.0
C452 C 0.01836 0.53103 0.22692 0.0
C453 C 0.00984 0.53823 0.22476 0.0
C454 C 0.00665 0.54111 0.20436 0.0
C455 C 0.03521 0.52189 0.21179 0.0
C456 C 0.02718 0.50463 0.21074 0.0
C457 C 0.02299 0.49697 0.19096 0.0
C458 C 0.01627 0.481 0.18963 0.0
C459 C 0.01363 0.47272 0.20819 0.0
C460 C 0.01805 0.48014 0.228 0.0
C461 C 0.02476 0.49615 0.22925 0.0
H462 H 0.5308 0.50042 0.1785 0.0
H463 H 0.52886 0.50048 0.24676 0.0
H464 H 0.55599 0.54258 0.21409 0.0
H465 H 0.521 0.47653 0.19786 0.0
H466 H 0.52083 0.4766 0.2261 0.0
H467 H 0.50178 0.48129 0.17833 0.0
H468 H 0.45797 0.45854 0.20778 0.0
H469 H 0.49736 0.46801 0.24351 0.0
C470 C 0.53372 0.50661 0.19353 0.0
C471 C 0.54403 0.52246 0.19409 0.0
C472 C 0.52799 0.49857 0.21251 0.0
C473 C 0.53263 0.50662 0.23205 0.0
C474 C 0.54261 0.52253 0.23252 0.0
C475 C 0.54795 0.53032 0.21357 0.0
C476 C 0.51827 0.48132 0.212 0.0
C477 C 0.50159 0.47602 0.21132 0.0
C478 C 0.49485 0.47662 0.19228 0.0
C479 C 0.47909 0.47043 0.1909 0.0
C480 C 0.47022 0.46407 0.20895 0.0
C481 C 0.47669 0.46307 0.22785 0.0
C482 C 0.4924 0.46915 0.22905 0.0
H483 H 0.50002 0.97484 0.16917 0.0
H484 H 0.49987 0.97202 0.23716 0.0
H485 H 0.54202 0.99384 0.20354 0.0
H486 H 0.47689 0.95633 0.18839 0.0
H487 H 0.47673 0.95592 0.21659 0.0
H488 H 0.47491 0.97646 0.16952 0.0
H489 H 0.45274 0.99616 0.2039 0.0
H490 H 0.47107 0.97271 0.23728 0.0
C491 C 0.50611 0.97763 0.1841 0.0
C492 C 0.52202 0.98534 0.18419 0.0
C493 C 0.49804 0.97306 0.20322 0.0
C494 C 0.50602 0.97604 0.22247 0.0
C495 C 0.52193 0.98372 0.22267 0.0
C496 C 0.52978 0.98857 0.20353 0.0
C497 C 0.48094 0.96374 0.2029 0.0
C498 C 0.47419 0.9739 0.20342 0.0
C499 C 0.4716 0.97925 0.18445 0.0
C500 C 0.46406 0.98752 0.1846 0.0
C501 C 0.4594 0.99064 0.20395 0.0
C502 C 0.46173 0.98527 0.22303 0.0
C503 C 0.46939 0.97711 0.22269 0.0
H504 H 0.48791 0.99793 0.83948 0.0
H505 H 0.48676 0.00084 0.77168 0.0
H506 H 0.4674 0.0211 0.81111 0.0
H507 H 0.49115 0.98018 0.81564 0.0
H508 H 0.49231 0.98264 0.78772 0.0
H509 H 0.5133 0.99621 0.83887 0.0
H510 H 0.55678 0.01864 0.80863 0.0
H511 H 0.51625 1.00066 0.77104 0.0
C512 C 0.4854 0.00234 0.82558 0.0
C513 C 0.47765 0.01035 0.82778 0.0
C514 C 0.48908 0.99917 0.80539 0.0
C515 C 0.48477 0.00398 0.78732 0.0
C516 C 0.4772 0.01215 0.78942 0.0
C517 C 0.47407 0.01562 0.80964 0.0
C518 C 0.49575 0.98899 0.80314 0.0
C519 C 0.51285 0.99807 0.80485 0.0
C520 C 0.52005 1.00057 0.8247 0.0
C521 C 0.53594 0.00818 0.82616 0.0
C522 C 0.54456 0.01348 0.80769 0.0
C523 C 0.53759 0.01071 0.78779 0.0
C524 C 0.52171 0.00313 0.78643 0.0
H525 H 0.01581 0.49814 0.84347 0.0
H526 H 0.01051 0.49253 0.77561 0.0
H527 H 0.99438 0.45318 0.81477 0.0
H528 H 0.03031 0.52012 0.82012 0.0
H529 H 0.02856 0.51761 0.79202 0.0
H530 H 0.00692 0.51703 0.8406 0.0
H531 H 0.98748 0.54032 0.80942 0.0
H532 H 0.0142 0.52645 0.77409 0.0
C533 C 0.01162 0.49077 0.8295 0.0
C534 C 0.00438 0.47481 0.83158 0.0
C535 C 0.0136 0.49725 0.80932 0.0
C536 C 0.0086 0.48762 0.7912 0.0
C537 C 1.00146 0.47169 0.79319 0.0
C538 C 0.99929 0.46545 0.81335 0.0
C539 C 0.02197 0.51443 0.80697 0.0
C540 C 0.01122 0.52044 0.80718 0.0
C541 C 0.00467 0.52131 0.82635 0.0
C542 C 0.99603 0.52845 0.82743 0.0
C543 C 0.99342 0.53406 0.80877 0.0
C544 C 0.99984 0.53333 0.78954 0.0
C545 C 0.00878 0.52654 0.78878 0.0
H546 H 0.49463 0.4865 0.8369 0.0
H547 H 0.48842 0.48493 0.76939 0.0
H548 H 0.44976 0.46464 0.81005 0.0
H549 H 0.51405 0.48773 0.81114 0.0
H550 H 0.51223 0.49007 0.78367 0.0
H551 H 0.52325 0.50923 0.8362 0.0
H552 H 0.54686 0.55418 0.80994 0.0
H553 H 0.51877 0.51518 0.76976 0.0
C554 C 0.48717 0.48361 0.82333 0.0
C555 C 0.47136 0.47574 0.82615 0.0
C556 C 0.4934 0.48703 0.80287 0.0
C557 C 0.48371 0.4828 0.78518 0.0
C558 C 0.46792 0.47495 0.78776 0.0
C559 C 0.46194 0.47169 0.80823 0.0
C560 C 0.5101 0.49319 0.79974 0.0
C561 C 0.51933 0.51034 0.80285 0.0
C562 C 0.52551 0.51668 0.82291 0.0
C563 C 0.53564 0.53247 0.82537 0.0
C564 C 0.5388 0.542 0.80804 0.0
C565 C 0.53284 0.53593 0.78793 0.0
C566 C 0.52303 0.52004 0.78539 0.0
H567 H 0.68074 0.85995 0.51332 0.0
H568 H 0.67463 0.85216 0.58025 0.0
H569 H 0.65292 0.87278 0.54833 0.0
H570 H 0.69709 0.85392 0.53291 0.0
H571 H 0.69605 0.8529 0.56103 0.0
H572 H 0.67852 0.83103 0.5106 0.0
H573 H 0.66478 0.78773 0.53881 0.0
H574 H 0.68336 0.82841 0.57788 0.0
C575 C 0.67506 0.85986 0.52784 0.0
C576 C 0.66633 0.86692 0.52856 0.0
C577 C 0.67775 0.85409 0.54638 0.0
C578 C 0.67162 0.85546 0.56567 0.0
C579 C 0.66266 0.86222 0.56642 0.0
C580 C 0.65942 0.8671 0.54763 0.0
C581 C 0.68907 0.8488 0.5463 0.0
C582 C 0.68133 0.83158 0.54452 0.0
C583 C 0.67681 0.82428 0.52453 0.0
C584 C 0.67066 0.8084 0.5224 0.0
C585 C 0.66878 0.79986 0.54051 0.0
C586 C 0.67331 0.80691 0.56053 0.0
C587 C 0.67954 0.82282 0.56251 0.0
H588 H 0.19519 0.83525 0.51113 0.0
H589 H 0.20021 0.83745 0.57908 0.0
H590 H 0.22008 0.8788 0.54344 0.0
H591 H 0.18992 0.81226 0.53195 0.0
H592 H 0.19 0.81302 0.56022 0.0
H593 H 0.16952 0.81462 0.51178 0.0
H594 H 0.12637 0.79312 0.54285 0.0
H595 H 0.16648 0.80436 0.57814 0.0
C596 C 0.19908 0.84186 0.52577 0.0
C597 C 0.20755 0.85791 0.5251 0.0
C598 C 0.19589 0.83435 0.54529 0.0
C599 C 0.20193 0.8431 0.56408 0.0
C600 C 0.21057 0.85914 0.56337 0.0
C601 C 0.21297 0.86641 0.54398 0.0
C602 C 0.18696 0.81706 0.54585 0.0
C603 C 0.17009 0.81096 0.54527 0.0
C604 C 0.16292 0.81056 0.5261 0.0
C605 C 0.14715 0.80432 0.52515 0.0
C606 C 0.13864 0.79867 0.54362 0.0
C607 C 0.14549 0.7985 0.56262 0.0
C608 C 0.16123 0.80475 0.56351 0.0
H609 H 0.17443 0.32171 0.50955 0.0
H610 H 0.17461 0.3186 0.57738 0.0
H611 H 0.21643 0.33809 0.54299 0.0
H612 H 0.15149 0.30297 0.52915 0.0
H613 H 0.15142 0.30295 0.5573 0.0
H614 H 0.14794 0.32156 0.50959 0.0
H615 H 0.1249 0.34048 0.54358 0.0
H616 H 0.14672 0.32072 0.57761 0.0
C617 C 0.18063 0.32422 0.52436 0.0
C618 C 0.19647 0.33106 0.52413 0.0
C619 C 0.17268 0.31989 0.54357 0.0
C620 C 0.18075 0.32245 0.56264 0.0
C621 C 0.19659 0.32915 0.56259 0.0
C622 C 0.20432 0.3337 0.54331 0.0
C623 C 0.15558 0.31062 0.54344 0.0
C624 C 0.14867 0.32063 0.54362 0.0
C625 C 0.14499 0.32481 0.52446 0.0
C626 C 0.13657 0.33219 0.52437 0.0
C627 C 0.13228 0.33577 0.54371 0.0
C628 C 0.13572 0.33159 0.56303 0.0
C629 C 0.14424 0.3243 0.56286 0.0
C630 C 0.99128 0.37592 0.07575 0.0
C631 C 1.00209 0.37722 0.06093 0.0
C632 C 0.99386 0.3885 0.08816 0.0
C633 C 0.02255 0.4268 0.10793 0.0
H634 H 0.98823 0.43293 0.10971 0.0
C635 C 0.0258 0.47733 0.15493 0.0
C636 C 0.01373 0.47281 0.16909 0.0
C637 C 0.02471 0.46748 0.1384 0.0
C638 C 0.99791 0.43138 0.10938 0.0
H639 H 0.02463 0.3925 0.04871 0.0
H640 H 0.02918 0.41455 0.07066 0.0
H641 H 0.9864 0.41148 0.08929 0.0
H642 H 0.99068 0.45518 0.17612 0.0
H643 H 0.98872 0.43801 0.14734 0.0
H644 H 0.03392 0.44647 0.12853 0.0
C645 C 0.01866 0.40375 0.07249 0.0
C646 C 0.99685 0.41906 0.09777 0.0
C647 C 0.01607 0.3911 0.06 0.0
C648 C 1.00014 0.45889 0.1654 0.0
C649 C 0.99903 0.4491 0.14886 0.0
C650 C 0.0236 0.43912 0.11964 0.0
C651 C 0.00732 0.4027 0.08609 0.0
C652 C 0.00902 0.41644 0.09731 0.0
C653 C 0.01151 0.45301 0.1357 0.0
C654 C 0.01117 0.44135 0.12085 0.0
H655 H 0.98047 0.36534 0.0771 0.0
H656 H 0.9851 0.38725 0.09896 0.0
H657 H 0.0321 0.42505 0.10786 0.0
H658 H 0.03644 0.48796 0.15754 0.0
H659 H 0.03443 0.4709 0.12829 0.0
C660 C 0.61042 0.62856 0.0765 0.0
C661 C 0.62134 0.62904 0.06259 0.0
C662 C 0.60185 0.61576 0.08908 0.0
C663 C 0.60044 0.5806 0.10854 0.0
H664 H 0.55887 0.56853 0.12133 0.0
C665 C 0.56803 0.54028 0.17587 0.0
C666 C 0.55217 0.53097 0.17501 0.0
C667 C 0.57593 0.55031 0.15965 0.0
C668 C 0.57035 0.57153 0.11758 0.0
H669 H 0.63185 0.61644 0.05105 0.0
H670 H 0.61668 0.59409 0.07229 0.0
H671 H 0.57377 0.59021 0.09855 0.0
H672 H 0.53216 0.52401 0.15588 0.0
H673 H 0.54608 0.54143 0.1269 0.0
H674 H 0.59689 0.56164 0.12692 0.0
C675 C 0.61496 0.6037 0.07408 0.0
C676 C 0.57903 0.5842 0.10484 0.0
C677 C 0.62369 0.61657 0.06182 0.0
C678 C 0.5444 0.53113 0.1569 0.0
C679 C 0.55236 0.54121 0.14048 0.0
C680 C 0.5917 0.56782 0.12096 0.0
C681 C 0.60381 0.60303 0.08777 0.0
C682 C 0.5943 0.5891 0.10051 0.0
C683 C 0.5682 0.5512 0.14194 0.0
C684 C 0.57667 0.56334 0.12612 0.0
H685 H 0.60836 0.63799 0.07748 0.0
H686 H 0.59365 0.61585 0.09979 0.0
H687 H 0.61215 0.58402 0.10575 0.0
H688 H 0.57432 0.54023 0.18958 0.0
H689 H 0.58805 0.5579 0.16158 0.0
C690 C 0.38237 0.0028 0.05979 0.0
C691 C 0.37196 0.98816 0.05139 0.0
C692 C 0.3943 0.00493 0.07294 0.0
C693 C 0.41751 0.9879 0.08395 0.0
H694 H 0.4261 0.00897 0.13834 0.0
C695 C 0.45065 0.97916 0.14969 0.0
C696 C 0.45878 0.99091 0.16473 0.0
C697 C 0.4426 0.98111 0.13349 0.0
C698 C 0.42412 0.00335 0.12299 0.0
H699 H 0.36571 0.96423 0.05094 0.0
H700 H 0.38643 0.96803 0.07364 0.0
H701 H 0.40655 0.00802 0.11544 0.0
H702 H 0.46593 0.01435 0.17362 0.0
H703 H 0.45222 0.01794 0.14495 0.0
H704 H 0.43496 0.98312 0.09139 0.0
C705 C 0.38546 0.97786 0.06989 0.0
C706 C 0.41285 0.00276 0.10994 0.0
C707 C 0.37349 0.97568 0.05701 0.0
C708 C 0.45964 0.00505 0.16231 0.0
C709 C 0.45168 0.00705 0.14601 0.0
C710 C 0.42887 0.98862 0.09687 0.0
C711 C 0.39614 0.99252 0.07769 0.0
C712 C 0.40916 0.99467 0.09055 0.0
C713 C 0.44259 0.9949 0.13187 0.0
C714 C 0.43206 0.996 0.11681 0.0
H715 H 0.38154 0.01266 0.05581 0.0
H716 H 0.40236 0.01636 0.07883 0.0
H717 H 0.41508 0.98183 0.06888 0.0
H718 H 0.4496 0.96806 0.15132 0.0
H719 H 0.43562 0.97142 0.12308 0.0
C720 C 0.37579 0.98277 0.94685 0.0
C721 C 0.37495 0.9948 0.95679 0.0
C722 C 0.38786 0.98576 0.93368 0.0
C723 C 0.42739 0.01555 0.92139 0.0
H724 H 0.42041 0.98828 0.87351 0.0
C725 C 0.47048 0.02397 0.85465 0.0
C726 C 0.47053 0.0107 0.84807 0.0
C727 C 0.46044 0.02319 0.87028 0.0
C728 C 0.42255 0.99589 0.88697 0.0
H729 H 0.38605 0.01954 0.96 0.0
H730 H 0.40702 0.0248 0.93634 0.0
H731 H 0.39898 0.98524 0.8939 0.0
H732 H 0.46093 0.98649 0.85375 0.0
H733 H 0.44346 0.98515 0.88103 0.0
H734 H 0.45107 0.02647 0.91374 0.0
C735 C 0.39842 0.013 0.93922 0.0
C736 C 0.41027 0.99416 0.89869 0.0
C737 C 0.38632 0.00999 0.95261 0.0
C738 C 0.46126 0.99693 0.85861 0.0
C739 C 0.45114 0.99612 0.87405 0.0
C740 C 0.43972 0.01743 0.9094 0.0
C741 C 0.39941 0.00089 0.92978 0.0
C742 C 0.41251 0.00377 0.9163 0.0
C743 C 0.4502 0.00909 0.87938 0.0
C744 C 0.4374 0.00743 0.89231 0.0
H745 H 0.36733 0.97091 0.9497 0.0
H746 H 0.38833 0.97611 0.92707 0.0
H747 H 0.42957 0.02308 0.93495 0.0
H748 H 0.47753 0.03473 0.84678 0.0
H749 H 0.45994 0.03335 0.87413 0.0
C750 C 0.9855 0.38637 0.97383 0.0
C751 C 0.99345 0.37878 0.96957 0.0
C752 C 0.98769 0.39859 0.96156 0.0
C753 C 0.01275 0.42584 0.92013 0.0
H754 H 0.97766 0.42998 0.91176 0.0
C755 C 0.0155 0.47241 0.86569 0.0
C756 C 0.00289 0.46746 0.85226 0.0
C757 C 0.0148 0.46342 0.88274 0.0
C758 C 0.98758 0.42897 0.91373 0.0
H759 H 0.01011 0.37816 0.94922 0.0
H760 H 0.0133 0.39896 0.92672 0.0
H761 H 0.97566 0.41007 0.93416 0.0
H762 H 0.97938 0.4499 0.84706 0.0
H763 H 0.97822 0.43413 0.87605 0.0
H764 H 0.02427 0.44408 0.89827 0.0
C765 C 0.0057 0.39581 0.94004 0.0
C766 C 0.98652 0.41764 0.92699 0.0
C767 C 0.00378 0.38377 0.95277 0.0
C768 C 0.98932 0.45395 0.85705 0.0
C769 C 0.98864 0.44494 0.87386 0.0
C770 C 0.01372 0.43702 0.90648 0.0
C771 C 0.9976 0.40335 0.94421 0.0
C772 C 0.99904 0.41581 0.93034 0.0
C773 C 1.00148 0.44931 0.88664 0.0
C774 C 1.00107 0.4386 0.90287 0.0
H775 H 0.97774 0.38305 0.98702 0.0
H776 H 0.98163 0.40434 0.96586 0.0
H777 H 0.02275 0.42503 0.92254 0.0
H778 H 0.02614 0.48275 0.86232 0.0
H779 H 0.02482 0.46732 0.89247 0.0
C780 C 0.60919 0.62728 0.95587 0.0
C781 C 0.62028 0.62696 0.96842 0.0
C782 C 0.59975 0.61487 0.94263 0.0
C783 C 0.57525 0.58412 0.926 0.0
H784 H 0.59096 0.56289 0.89298 0.0
C785 C 0.53763 0.53707 0.86479 0.0
C786 C 0.5446 0.53909 0.84503 0.0
C787 C 0.54634 0.545 0.88269 0.0
C788 C 0.58638 0.56868 0.90214 0.0
H789 H 0.63037 0.61347 0.97661 0.0
H790 H 0.61372 0.59168 0.95368 0.0
H791 H 0.60763 0.58322 0.91771 0.0
H792 H 0.5661 0.54995 0.82864 0.0
H793 H 0.58116 0.56393 0.85943 0.0
H794 H 0.55427 0.57024 0.90946 0.0
C795 C 0.61245 0.60162 0.95387 0.0
C796 C 0.59591 0.58025 0.91648 0.0
C797 C 0.62202 0.61412 0.96699 0.0
C798 C 0.56043 0.54839 0.84367 0.0
C799 C 0.56909 0.55625 0.86141 0.0
C800 C 0.56576 0.57264 0.91154 0.0
C801 C 0.60104 0.60176 0.94178 0.0
C802 C 0.59057 0.5884 0.92815 0.0
C803 C 0.56215 0.55495 0.88106 0.0
C804 C 0.57134 0.56509 0.89899 0.0
H805 H 0.60765 0.63705 0.95645 0.0
H806 H 0.5914 0.61557 0.93308 0.0
H807 H 0.57065 0.5899 0.93515 0.0
H808 H 0.52543 0.52988 0.86621 0.0
H809 H 0.54069 0.54363 0.89767 0.0
C810 C 0.98544 0.60951 0.96258 0.0
C811 C 0.99743 0.62426 0.95782 0.0
C812 C 0.98271 0.59686 0.94996 0.0
C813 C 0.00397 0.58596 0.9137 0.0
H814 H 0.96485 0.5498 0.90154 0.0
C815 C 1.00223 0.53782 0.86514 0.0
C816 C 0.99188 0.53255 0.84811 0.0
C817 C 1.00051 0.54567 0.88223 0.0
C818 C 0.97587 0.55983 0.90479 0.0
H819 H 0.01497 0.6376 0.93514 0.0
H820 H 0.0098 0.61577 0.91264 0.0
H821 H 0.96617 0.57127 0.92154 0.0
H822 H 0.97043 0.52945 0.8373 0.0
H823 H 0.96794 0.54393 0.86634 0.0
H824 H 0.01373 0.57515 0.89619 0.0
C825 C 0.00291 0.61378 0.92657 0.0
C826 C 0.97662 0.57209 0.91638 0.0
C827 C 0.00579 0.62632 0.93932 0.0
C828 C 0.97889 0.53381 0.84981 0.0
C829 C 0.97735 0.54197 0.86667 0.0
C830 C 0.00322 0.57385 0.90204 0.0
C831 C 0.99182 0.59882 0.93225 0.0
C832 C 0.99069 0.58542 0.92062 0.0
C833 C 0.98861 0.54875 0.88249 0.0
C834 C 0.98917 0.56067 0.89718 0.0
H835 H 0.97886 0.60758 0.97684 0.0
H836 H 0.97406 0.58552 0.95479 0.0
H837 H 0.01504 0.59585 0.91715 0.0
H838 H 0.01234 0.53704 0.86457 0.0
H839 H 0.00909 0.55022 0.89456 0.0
C840 C 0.38633 0.39081 0.96336 0.0
C841 C 0.38392 0.37603 0.95993 0.0
C842 C 0.39612 0.40286 0.9504 0.0
C843 C 0.42708 0.4132 0.91095 0.0
H844 H 0.42283 0.44856 0.90373 0.0
C845 C 0.47011 0.46277 0.86029 0.0
C846 C 0.46424 0.46946 0.847 0.0
C847 C 0.46148 0.45353 0.87699 0.0
C848 C 0.42416 0.43873 0.90529 0.0
H849 H 0.38912 0.36203 0.93957 0.0
H850 H 0.40524 0.38269 0.91584 0.0
H851 H 0.40414 0.42718 0.92388 0.0
H852 H 0.44542 0.47315 0.84253 0.0
H853 H 0.43004 0.45636 0.87035 0.0
H854 H 0.44633 0.42411 0.89088 0.0
C855 C 0.40029 0.3853 0.9292 0.0
C856 C 0.4135 0.42647 0.91728 0.0
C857 C 0.39084 0.37334 0.94259 0.0
C858 C 0.45014 0.46782 0.85207 0.0
C859 C 0.44135 0.45828 0.86835 0.0
C860 C 0.43749 0.42525 0.89848 0.0
C861 C 0.40347 0.40037 0.93328 0.0
C862 C 0.41475 0.41346 0.92026 0.0
C863 C 0.44661 0.45046 0.88053 0.0
C864 C 0.43619 0.43821 0.89535 0.0
H865 H 0.38133 0.39327 0.97685 0.0
H866 H 0.39836 0.41422 0.95446 0.0
H867 H 0.42881 0.40367 0.91322 0.0
H868 H 0.48094 0.46379 0.857 0.0
H869 H 0.46626 0.44828 0.88651 0.0
C870 C 0.63467 0.02756 0.94886 0.0
C871 C 0.63302 0.01502 0.96018 0.0
C872 C 0.62355 0.02574 0.93451 0.0
C873 C 0.58286 0.00108 0.92239 0.0
H874 H 0.59416 0.02389 0.87039 0.0
C875 C 0.54019 0.99558 0.85691 0.0
C876 C 0.54388 0.00903 0.84614 0.0
C877 C 0.55004 0.99574 0.87235 0.0
C878 C 0.5908 0.0176 0.88499 0.0
H879 H 0.61849 0.99056 0.96472 0.0
H880 H 0.59904 0.98737 0.9394 0.0
H881 H 0.61371 0.02448 0.89264 0.0
H882 H 0.55999 0.03337 0.84427 0.0
H883 H 0.57696 0.03376 0.87151 0.0
H884 H 0.55987 0.99422 0.91458 0.0
C885 C 0.60893 0.99865 0.94188 0.0
C886 C 0.60202 0.01789 0.89771 0.0
C887 C 0.62016 1.00046 0.95622 0.0
C888 C 0.55694 0.02283 0.85225 0.0
C889 C 0.56672 0.02301 0.86768 0.0
C890 C 0.57158 1.00077 0.90959 0.0
C891 C 0.61043 0.01133 0.93107 0.0
C892 C 0.59824 0.00983 0.91673 0.0
C893 C 0.56373 0.00936 0.87726 0.0
C894 C 0.57546 0.00925 0.8909 0.0
H895 H 0.64442 0.03894 0.95146 0.0
H896 H 0.62501 0.03578 0.92663 0.0
H897 H 0.57958 0.99485 0.93704 0.0
H898 H 0.53028 0.98475 0.85232 0.0
H899 H 0.5474 0.98504 0.87943 0.0
C900 C 0.62799 0.0193 0.06959 0.0
C901 C 0.62778 0.00799 0.05621 0.0
C902 C 0.61541 0.01608 0.08184 0.0
C903 C 0.57958 0.98484 0.1036 0.0
H904 H 0.56925 0.01659 0.10639 0.0
C905 C 0.52748 0.97648 0.14992 0.0
C906 C 0.5308 0.98846 0.16439 0.0
C907 C 0.53775 0.97847 0.13391 0.0
C908 C 0.57199 0.00762 0.10578 0.0
H909 H 0.61434 0.98417 0.046 0.0
H910 H 0.59229 0.97856 0.06742 0.0
H911 H 0.59071 0.02039 0.08515 0.0
H912 H 0.54686 0.01218 0.17265 0.0
H913 H 0.56469 0.01574 0.14464 0.0
H914 H 0.56093 0.97217 0.12448 0.0
C915 C 0.60226 0.98993 0.06844 0.0
C916 C 0.58434 0.00982 0.09371 0.0
C917 C 0.61492 0.99314 0.05619 0.0
C918 C 0.54403 0.00277 0.16166 0.0
C919 C 0.55422 0.0048 0.14559 0.0
C920 C 0.56718 0.98262 0.11565 0.0
C921 C 0.60224 0.00148 0.081 0.0
C922 C 0.58848 0.99859 0.0928 0.0
C923 C 0.55144 0.99252 0.13198 0.0
C924 C 0.56342 0.99411 0.11718 0.0
H925 H 0.63776 0.03082 0.07022 0.0
H926 H 0.61595 0.02513 0.09179 0.0
H927 H 0.58251 0.97601 0.10334 0.0
H928 H 0.51743 0.96529 0.15181 0.0
H929 H 0.53522 0.96886 0.12349 0.0
C930 C 0.02583 0.63005 0.05795 0.0
C931 C 0.01274 0.6302 0.05183 0.0
C932 C 0.02479 0.61867 0.0711 0.0
C933 C 1.00018 0.58958 0.1095 0.0
H934 H 0.02466 0.57167 0.09535 0.0
C935 C 0.99686 0.54145 0.15943 0.0
C936 C 0.01093 0.54354 0.16571 0.0
C937 C 0.99599 0.54998 0.143 0.0
C938 C 0.01781 0.57659 0.09958 0.0
H939 H 0.98831 0.6187 0.05547 0.0
H940 H 0.98654 0.59884 0.07853 0.0
H941 H 0.0254 0.59129 0.07286 0.0
H942 H 0.03495 0.55544 0.15885 0.0
H943 H 0.03348 0.57037 0.13018 0.0
H944 H 0.99281 0.57515 0.13644 0.0
C945 C 0.99761 0.60759 0.07311 0.0
C946 C 0.01826 0.58787 0.08672 0.0
C947 C 0.99864 0.61899 0.05989 0.0
C948 C 0.02393 0.55346 0.15418 0.0
C949 C 0.02307 0.56206 0.13778 0.0
C950 C 0.99976 0.57834 0.12239 0.0
C951 C 0.01066 0.60714 0.07853 0.0
C952 C 0.0096 0.59464 0.09169 0.0
C953 C 0.00917 0.56084 0.13255 0.0
C954 C 0.00869 0.57181 0.11772 0.0
H955 H 0.03691 0.63854 0.0522 0.0
H956 H 0.0351 0.61886 0.07536 0.0
H957 H 0.99349 0.59467 0.11389 0.0
H958 H 0.98665 0.53378 0.16799 0.0
H959 H 0.98505 0.54848 0.13903 0.0
C960 C 0.403 0.3871 0.05759 0.0
C961 C 0.38805 0.38333 0.0531 0.0
C962 C 0.41265 0.40008 0.06972 0.0
C963 C 0.41374 0.42572 0.11095 0.0
H964 H 0.45549 0.45101 0.0929 0.0
C965 C 0.45858 0.46959 0.16838 0.0
C966 C 0.47131 0.46794 0.17018 0.0
C967 C 0.44883 0.46338 0.1509 0.0
C968 C 0.44388 0.4441 0.09816 0.0
H969 H 0.37146 0.3902 0.05837 0.0
H970 H 0.38839 0.41286 0.08021 0.0
H971 H 0.43678 0.43137 0.06891 0.0
H972 H 0.48448 0.4596 0.15425 0.0
H973 H 0.46761 0.44882 0.12389 0.0
H974 H 0.42095 0.43778 0.14063 0.0
C975 C 0.39257 0.40572 0.07398 0.0
C976 C 0.43317 0.43288 0.08442 0.0
C977 C 0.38289 0.39275 0.06154 0.0
C978 C 0.47486 0.46121 0.15326 0.0
C979 C 0.46512 0.45499 0.13581 0.0
C980 C 0.42448 0.43689 0.12478 0.0
C981 C 0.40761 0.40961 0.07788 0.0
C982 C 0.41813 0.42323 0.09095 0.0
C983 C 0.45164 0.45539 0.13487 0.0
C984 C 0.4398 0.44585 0.11881 0.0
H985 H 0.40745 0.38019 0.05142 0.0
H986 H 0.42408 0.4026 0.07285 0.0
H987 H 0.40225 0.41839 0.11642 0.0
H988 H 0.45567 0.4749 0.18108 0.0
H989 H 0.43872 0.46418 0.15044 0.0
C990 C 0.67124 0.72077 0.39201 0.0
C991 C 0.66031 0.71518 0.37577 0.0
C992 C 0.67279 0.73247 0.40578 0.0
C993 C 0.65108 0.75061 0.42421 0.0
H994 H 0.6895 0.78075 0.44962 0.0
C995 C 0.65501 0.786 0.49821 0.0
C996 C 0.66783 0.80065 0.50138 0.0
C997 C 0.65393 0.77709 0.48052 0.0
C998 C 0.6787 0.7726 0.44239 0.0
H999 H 0.64318 0.71813 0.36025 0.0
H1000 H 0.64627 0.73875 0.38346 0.0
H1001 H 0.68873 0.76249 0.42343 0.0
H1002 H 0.68904 0.81793 0.48772 0.0
H1003 H 0.68689 0.80258 0.4563 0.0
H1004 H 0.64108 0.7609 0.44268 0.0
C1005 C 0.65319 0.73375 0.38636 0.0
C1006 C 0.67823 0.76193 0.42762 0.0
C1007 C 0.65146 0.72194 0.37296 0.0
C1008 C 0.67899 0.8067 0.48565 0.0
C1009 C 0.67788 0.7978 0.46784 0.0
C1010 C 0.65157 0.76135 0.43873 0.0
C1011 C 0.66361 0.73896 0.40326 0.0
C1012 C 0.66438 0.7507 0.4185 0.0
C1013 C 0.66558 0.78268 0.46544 0.0
C1014 C 0.66534 0.77234 0.44828 0.0
H1015 H 0.67824 0.71578 0.39446 0.0
H1016 H 0.68087 0.73611 0.41871 0.0
H1017 H 0.64014 0.74202 0.41781 0.0
H1018 H 0.64618 0.78109 0.51001 0.0
H1019 H 0.64434 0.76549 0.47936 0.0
C1020 C 0.27582 0.96275 0.40611 0.0
C1021 C 0.28762 0.963 0.39444 0.0
C1022 C 0.26649 0.95031 0.41882 0.0
C1023 C 0.26354 0.91636 0.44449 0.0
H1024 H 0.2206 0.90243 0.44478 0.0
C1025 C 0.22121 0.8632 0.49073 0.0
C1026 C 0.21241 0.86612 0.50491 0.0
C1027 C 0.229 0.87338 0.47443 0.0
C1028 C 0.23256 0.90618 0.44482 0.0
H1029 H 0.29916 0.95052 0.38764 0.0
H1030 H 0.2828 0.9288 0.40958 0.0
H1031 H 0.2378 0.92414 0.42318 0.0
H1032 H 0.20388 0.88119 0.51239 0.0
H1033 H 0.21723 0.89883 0.48373 0.0
H1034 H 0.25827 0.89841 0.46623 0.0
C1035 C 0.28084 0.93829 0.40908 0.0
C1036 C 0.24244 0.91869 0.43259 0.0
C1037 C 0.29023 0.95077 0.39646 0.0
C1038 C 0.21057 0.8787 0.50157 0.0
C1039 C 0.2182 0.88876 0.48516 0.0
C1040 C 0.25364 0.90378 0.45661 0.0
C1041 C 0.26867 0.93777 0.4201 0.0
C1042 C 0.2581 0.92409 0.43253 0.0
C1043 C 0.22795 0.88653 0.47193 0.0
C1044 C 0.23807 0.8987 0.45714 0.0
H1045 H 0.27354 0.97201 0.40506 0.0
H1046 H 0.25747 0.95047 0.4275 0.0
H1047 H 0.27553 0.92028 0.44501 0.0
H1048 H 0.22291 0.85365 0.49314 0.0
H1049 H 0.23631 0.8713 0.4643 0.0
C1050 C 0.04956 0.33695 0.39654 0.0
C1051 C 0.03914 0.32211 0.38882 0.0
C1052 C 0.06089 0.33933 0.41107 0.0
C1053 C 0.07163 0.31828 0.44821 0.0
H1054 H 0.1123 0.35334 0.44244 0.0
C1055 C 0.12154 0.32073 0.49118 0.0
C1056 C 0.12969 0.33361 0.50457 0.0
C1057 C 0.11192 0.32063 0.47553 0.0
C1058 C 0.10097 0.34353 0.44421 0.0
H1059 H 0.03245 0.29813 0.39064 0.0
H1060 H 0.05219 0.30227 0.41527 0.0
H1061 H 0.0919 0.35061 0.41935 0.0
H1062 H 0.13514 0.35692 0.51095 0.0
H1063 H 0.11843 0.3568 0.48326 0.0
H1064 H 0.08076 0.31102 0.47264 0.0
C1065 C 0.0515 0.3121 0.41059 0.0
C1066 C 0.08925 0.342 0.43113 0.0
C1067 C 0.04015 0.30972 0.3963 0.0
C1068 C 0.12895 0.34683 0.50086 0.0
C1069 C 0.11942 0.34677 0.48503 0.0
C1070 C 0.08334 0.3197 0.46099 0.0
C1071 C 0.06209 0.32692 0.4181 0.0
C1072 C 0.07445 0.32925 0.43283 0.0
C1073 C 0.11035 0.33344 0.47283 0.0
C1074 C 0.09814 0.33223 0.459 0.0
H1075 H 0.04913 0.34677 0.39114 0.0
H1076 H 0.06872 0.35088 0.41673 0.0
H1077 H 0.06033 0.30854 0.45042 0.0
H1078 H 0.12174 0.31033 0.49376 0.0
H1079 H 0.10518 0.31026 0.46615 0.0
C1080 C 0.04503 0.3132 0.28573 0.0
C1081 C 0.04358 0.32545 0.29352 0.0
C1082 C 0.05731 0.31589 0.27317 0.0
C1083 C 0.08622 0.34311 0.23754 0.0
H1084 H 0.10641 0.32073 0.2505 0.0
C1085 C 0.13432 0.34828 0.18493 0.0
C1086 C 0.13308 0.33427 0.17912 0.0
C1087 C 0.12583 0.34908 0.20169 0.0
C1088 C 0.10087 0.32702 0.24659 0.0
H1089 H 0.05376 0.35016 0.29344 0.0
H1090 H 0.07518 0.35481 0.27107 0.0
H1091 H 0.08621 0.31845 0.27337 0.0
H1092 H 0.1226 0.3103 0.187 0.0
H1093 H 0.10773 0.31162 0.21607 0.0
H1094 H 0.1004 0.35121 0.2103 0.0
C1095 C 0.06677 0.34314 0.27495 0.0
C1096 C 0.08931 0.32572 0.25971 0.0
C1097 C 0.0545 0.34046 0.28774 0.0
C1098 C 0.12395 0.32131 0.19128 0.0
C1099 C 0.1154 0.32208 0.20796 0.0
C1100 C 0.09771 0.34432 0.2243 0.0
C1101 C 0.06843 0.33088 0.2679 0.0
C1102 C 0.08166 0.3335 0.25508 0.0
C1103 C 0.11585 0.33587 0.21293 0.0
C1104 C 0.10498 0.33604 0.22843 0.0
H1105 H 0.03686 0.30147 0.28972 0.0
H1106 H 0.05811 0.30619 0.26761 0.0
H1107 H 0.08045 0.34916 0.23352 0.0
H1108 H 0.14138 0.35849 0.17592 0.0
H1109 H 0.12672 0.35996 0.2054 0.0
C1110 C 0.65106 0.70753 0.2692 0.0
C1111 C 0.66215 0.70827 0.28298 0.0
C1112 C 0.65444 0.71964 0.25581 0.0
C1113 C 0.6805 0.76126 0.25107 0.0
H1114 H 0.66263 0.75398 0.19504 0.0
C1115 C 0.69313 0.8089 0.19009 0.0
C1116 C 0.68098 0.80634 0.17702 0.0
C1117 C 0.69124 0.79789 0.20479 0.0
C1118 C 0.66755 0.75622 0.21077 0.0
H1119 H 0.68574 0.72212 0.2927 0.0
H1120 H 0.69168 0.7432 0.26904 0.0
H1121 H 0.65946 0.73247 0.21538 0.0
H1122 H 0.65714 0.79107 0.17014 0.0
H1123 H 0.65369 0.77211 0.19614 0.0
H1124 H 0.68863 0.7851 0.24627 0.0
C1125 C 0.68029 0.73331 0.26889 0.0
C1126 C 0.66578 0.74387 0.2224 0.0
C1127 C 0.67692 0.72114 0.28228 0.0
C1128 C 0.66666 0.79328 0.18007 0.0
C1129 C 0.66476 0.78235 0.19475 0.0
C1130 C 0.68232 0.77366 0.23935 0.0
C1131 C 0.66899 0.73283 0.25581 0.0
C1132 C 0.67204 0.74618 0.24282 0.0
C1133 C 0.67718 0.78418 0.20658 0.0
C1134 C 0.67565 0.77124 0.21919 0.0
H1135 H 0.63956 0.69782 0.26928 0.0
H1136 H 0.64541 0.7189 0.24609 0.0
H1137 H 0.68535 0.76343 0.26683 0.0
H1138 H 0.70433 0.81879 0.1878 0.0
H1139 H 0.70103 0.79965 0.21367 0.0
C1140 C 0.28798 0.949 0.29475 0.0
C1141 C 0.28749 0.96249 0.29772 0.0
C1142 C 0.278 0.93756 0.28047 0.0
C1143 C 0.25268 0.93095 0.23489 0.0
H1144 H 0.23078 0.88873 0.25303 0.0
C1145 C 0.20174 0.88632 0.18756 0.0
C1146 C 0.20222 0.87323 0.1815 0.0
C1147 C 0.21102 0.8959 0.20391 0.0
C1148 C 0.23687 0.90047 0.24776 0.0
H1149 H 0.27662 0.97481 0.28731 0.0
H1150 H 0.25937 0.95502 0.26267 0.0
H1151 H 0.25071 0.90857 0.27578 0.0
H1152 H 0.21177 0.85915 0.18884 0.0
H1153 H 0.22802 0.8759 0.21759 0.0
H1154 H 0.23889 0.92299 0.20702 0.0
C1155 C 0.26742 0.95322 0.27125 0.0
C1156 C 0.24833 0.9118 0.26068 0.0
C1157 C 0.27729 0.96456 0.2855 0.0
C1158 C 0.2111 0.86912 0.19335 0.0
C1159 C 0.22045 0.87874 0.20973 0.0
C1160 C 0.24124 0.91969 0.22209 0.0
C1161 C 0.26749 0.9395 0.26877 0.0
C1162 C 0.25623 0.92719 0.25446 0.0
C1163 C 0.22102 0.8926 0.21445 0.0
C1164 C 0.23307 0.90436 0.22847 0.0
H1165 H 0.29567 0.94703 0.30397 0.0
H1166 H 0.27842 0.92717 0.2787 0.0
H1167 H 0.25875 0.94264 0.22945 0.0
H1168 H 0.19489 0.88966 0.17874 0.0
H1169 H 0.21096 0.90632 0.20758 0.0
C1170 C 0.65627 0.94708 0.28881 0.0
C1171 C 0.67071 0.96041 0.29029 0.0
C1172 C 0.65355 0.93532 0.27433 0.0
C1173 C 0.66969 0.92716 0.22666 0.0
H1174 H 0.65008 0.88561 0.24738 0.0
C1175 C 0.68119 0.88242 0.19178 0.0
C1176 C 0.66943 0.87251 0.17787 0.0
C1177 C 0.67868 0.89076 0.20734 0.0
C1178 C 0.65544 0.89716 0.24144 0.0
H1179 H 0.69336 0.97213 0.27699 0.0
H1180 H 0.68868 0.95179 0.25216 0.0
H1181 H 0.65039 0.90598 0.26934 0.0
H1182 H 0.6455 0.86238 0.1707 0.0
H1183 H 0.64112 0.87696 0.19828 0.0
H1184 H 0.67536 0.91848 0.19927 0.0
C1185 C 0.67939 0.95035 0.26197 0.0
C1186 C 0.65554 0.90877 0.25385 0.0
C1187 C 0.68211 0.96202 0.27637 0.0
C1188 C 0.65476 0.86999 0.18118 0.0
C1189 C 0.65223 0.87826 0.19692 0.0
C1190 C 0.66972 0.91564 0.21444 0.0
C1191 C 0.66518 0.93676 0.26098 0.0
C1192 C 0.66301 0.92398 0.24678 0.0
C1193 C 0.66435 0.88915 0.20944 0.0
C1194 C 0.66288 0.90067 0.22193 0.0
H1195 H 0.64725 0.94548 0.29933 0.0
H1196 H 0.64243 0.92504 0.27379 0.0
H1197 H 0.67526 0.93867 0.22055 0.0
H1198 H 0.69264 0.88477 0.18947 0.0
H1199 H 0.68817 0.8992 0.21684 0.0
C1200 C 0.0481 0.71928 0.29061 0.0
C1201 C 0.05287 0.7092 0.29697 0.0
C1202 C 0.05706 0.73135 0.27704 0.0
C1203 C 0.09674 0.75565 0.26089 0.0
H1204 H 0.08037 0.76476 0.2119 0.0
C1205 C 0.13391 0.792 0.19221 0.0
C1206 C 0.12922 0.80038 0.18029 0.0
C1207 C 0.12507 0.78305 0.20894 0.0
C1208 C 0.08512 0.76261 0.22577 0.0
H1209 H 0.07053 0.70358 0.29317 0.0
H1210 H 0.08599 0.72452 0.26963 0.0
H1211 H 0.06335 0.74424 0.23527 0.0
H1212 H 0.11232 0.80698 0.17756 0.0
H1213 H 0.09707 0.79166 0.20717 0.0
H1214 H 0.1185 0.77392 0.25145 0.0
C1215 C 0.07545 0.72323 0.27539 0.0
C1216 C 0.07534 0.75078 0.23909 0.0
C1217 C 0.06649 0.71113 0.28876 0.0
C1218 C 0.11612 0.80052 0.18641 0.0
C1219 C 0.10733 0.79164 0.20324 0.0
C1220 C 0.1065 0.76754 0.24769 0.0
C1221 C 0.071 0.73364 0.26973 0.0
C1222 C 0.0811 0.74696 0.25651 0.0
C1223 C 0.1114 0.78235 0.2142 0.0
C1224 C 0.10086 0.77098 0.2297 0.0
H1225 H 0.03769 0.71815 0.2966 0.0
H1226 H 0.05333 0.7392 0.27288 0.0
H1227 H 0.10146 0.75315 0.27447 0.0
H1228 H 0.14383 0.7915 0.18767 0.0
H1229 H 0.12851 0.77595 0.21686 0.0
C1230 C 0.29668 0.35524 0.28125 0.0
C1231 C 0.29581 0.34318 0.29293 0.0
C1232 C 0.28514 0.35262 0.26712 0.0
C1233 C 0.24457 0.32612 0.25571 0.0
H1234 H 0.25459 0.34796 0.20293 0.0
C1235 C 0.20089 0.31708 0.18953 0.0
C1236 C 0.20387 0.3302 0.17846 0.0
C1237 C 0.21099 0.31805 0.20521 0.0
C1238 C 0.25158 0.34192 0.21774 0.0
H1239 H 0.28221 0.31875 0.29841 0.0
H1240 H 0.26207 0.31415 0.27346 0.0
H1241 H 0.27479 0.35012 0.22537 0.0
H1242 H 0.21887 0.35473 0.17624 0.0
H1243 H 0.23625 0.35652 0.20388 0.0
H1244 H 0.22126 0.31789 0.24787 0.0
C1245 C 0.27165 0.32568 0.2755 0.0
C1246 C 0.26318 0.34312 0.23058 0.0
C1247 C 0.28327 0.3283 0.28964 0.0
C1248 C 0.21638 0.34445 0.18449 0.0
C1249 C 0.2264 0.34543 0.20014 0.0
C1250 C 0.23291 0.32488 0.24278 0.0
C1251 C 0.27239 0.33786 0.26424 0.0
C1252 C 0.25986 0.33544 0.24988 0.0
C1253 C 0.2242 0.33216 0.21003 0.0
C1254 C 0.23632 0.33299 0.22381 0.0
H1255 H 0.30613 0.36685 0.28333 0.0
H1256 H 0.28601 0.3623 0.25891 0.0
H1257 H 0.24163 0.32015 0.27057 0.0
H1258 H 0.1914 0.30594 0.18499 0.0
H1259 H 0.20897 0.30763 0.21254 0.0
C1260 C 0.2971 0.35413 0.40361 0.0
C1261 C 0.29511 0.34201 0.39026 0.0
C1262 C 0.28548 0.35239 0.41689 0.0
C1263 C 0.24913 0.32391 0.4411 0.0
H1264 H 0.24324 0.35866 0.445 0.0
C1265 C 0.20023 0.32122 0.48949 0.0
C1266 C 0.20487 0.33342 0.5041 0.0
C1267 C 0.20987 0.32217 0.47314 0.0
C1268 C 0.24475 0.34887 0.4441 0.0
H1269 H 0.27952 0.31831 0.38113 0.0
H1270 H 0.2591 0.3153 0.40428 0.0
H1271 H 0.26316 0.35998 0.42248 0.0
H1272 H 0.22269 0.35654 0.51223 0.0
H1273 H 0.23946 0.3583 0.4836 0.0
H1274 H 0.23075 0.31287 0.46287 0.0
C1275 C 0.26973 0.32613 0.40454 0.0
C1276 C 0.25622 0.34965 0.43129 0.0
C1277 C 0.28145 0.32785 0.39129 0.0
C1278 C 0.21885 0.34698 0.50117 0.0
C1279 C 0.22843 0.34798 0.48475 0.0
C1280 C 0.2376 0.32312 0.45386 0.0
C1281 C 0.27149 0.33853 0.41709 0.0
C1282 C 0.25874 0.33728 0.42991 0.0
C1283 C 0.22427 0.33539 0.47099 0.0
C1284 C 0.23544 0.33568 0.45574 0.0
H1285 H 0.30755 0.36515 0.40341 0.0
H1286 H 0.28739 0.36204 0.42679 0.0
H1287 H 0.25082 0.31423 0.44054 0.0
H1288 H 0.18958 0.31058 0.4915 0.0
H1289 H 0.20628 0.31237 0.4626 0.0
C1290 C 0.69109 0.96336 0.39614 0.0
C1291 C 0.67836 0.96328 0.38779 0.0
C1292 C 0.68936 0.95235 0.41054 0.0
C1293 C 0.68341 0.93386 0.44977 0.0
H1294 H 0.65149 0.89128 0.44313 0.0
C1295 C 0.66959 0.89155 0.51604 0.0
C1296 C 0.6668 0.87677 0.51109 0.0
C1297 C 0.6705 0.90129 0.50022 0.0
C1298 C 0.66054 0.9031 0.44504 0.0
H1299 H 0.65378 0.95153 0.38836 0.0
H1300 H 0.6508 0.93243 0.41395 0.0
H1301 H 0.65392 0.91003 0.41718 0.0
H1302 H 0.66296 0.86073 0.48545 0.0
H1303 H 0.66478 0.87806 0.45738 0.0
H1304 H 0.69023 0.92703 0.47731 0.0
C1305 C 0.66211 0.94093 0.40899 0.0
C1306 C 0.66182 0.91387 0.43036 0.0
C1307 C 0.66384 0.95198 0.3945 0.0
C1308 C 0.66506 0.87202 0.48974 0.0
C1309 C 0.66599 0.88189 0.47374 0.0
C1310 C 0.68216 0.92315 0.46434 0.0
C1311 C 0.67487 0.94097 0.41712 0.0
C1312 C 0.67326 0.9294 0.43262 0.0
C1313 C 0.66888 0.8967 0.47887 0.0
C1314 C 0.67063 0.90768 0.46231 0.0
H1315 H 0.70246 0.9718 0.39131 0.0
H1316 H 0.69943 0.95262 0.41623 0.0
H1317 H 0.69226 0.94572 0.45215 0.0
H1318 H 0.67136 0.89577 0.53225 0.0
H1319 H 0.67253 0.91252 0.50476 0.0
C1320 C 0.06812 0.7181 0.39818 0.0
C1321 C 0.05387 0.71528 0.3913 0.0
C1322 C 0.07779 0.73123 0.40996 0.0
C1323 C 0.08019 0.75922 0.44724 0.0
H1324 H 0.12194 0.78253 0.42841 0.0
C1325 C 0.12653 0.8034 0.50284 0.0
C1326 C 0.139 0.80132 0.50467 0.0
C1327 C 0.1165 0.797 0.48568 0.0
C1328 C 0.11034 0.77619 0.43389 0.0
H1329 H 0.03842 0.7239 0.39235 0.0
H1330 H 0.05539 0.74685 0.41381 0.0
H1331 H 0.10264 0.7625 0.40546 0.0
H1332 H 0.15137 0.7919 0.48919 0.0
H1333 H 0.13397 0.78071 0.45943 0.0
H1334 H 0.08798 0.77209 0.47627 0.0
C1335 C 0.059 0.73885 0.40954 0.0
C1336 C 0.09929 0.76479 0.42071 0.0
C1337 C 0.0493 0.72571 0.39736 0.0
C1338 C 0.14197 0.79385 0.48813 0.0
C1339 C 0.13193 0.7874 0.47103 0.0
C1340 C 0.09128 0.77054 0.46056 0.0
C1341 C 0.07346 0.74185 0.41546 0.0
C1342 C 0.08425 0.75584 0.42758 0.0
C1343 C 0.11873 0.78835 0.47004 0.0
C1344 C 0.1066 0.77876 0.45434 0.0
H1345 H 0.07208 0.71037 0.39398 0.0
H1346 H 0.08876 0.73312 0.41474 0.0
H1347 H 0.06867 0.75241 0.45291 0.0
H1348 H 0.12408 0.80926 0.51528 0.0
H1349 H 0.10664 0.79823 0.48518 0.0
C1350 C 0.34523 0.05953 0.72482 0.0
C1351 C 0.33043 0.04726 0.72068 0.0
C1352 C 0.34766 0.07165 0.73838 0.0
C1353 C 0.3273 0.09013 0.76018 0.0
H1354 H 0.35994 0.10846 0.80154 0.0
C1355 C 0.32777 0.12483 0.83334 0.0
C1356 C 0.34156 0.13775 0.83963 0.0
C1357 C 0.32724 0.11575 0.81615 0.0
C1358 C 0.35093 0.10363 0.7898 0.0
H1359 H 0.30668 0.03779 0.72852 0.0
H1360 H 0.31096 0.05865 0.75223 0.0
H1361 H 0.35764 0.08818 0.77767 0.0
H1362 H 0.36551 0.15163 0.83281 0.0
H1363 H 0.36464 0.13562 0.80271 0.0
H1364 H 0.3203 0.10523 0.77278 0.0
C1365 C 0.32066 0.05915 0.7446 0.0
C1366 C 0.3496 0.092 0.77616 0.0
C1367 C 0.31823 0.0471 0.7311 0.0
C1368 C 0.35471 0.14184 0.82797 0.0
C1369 C 0.35424 0.1326 0.81096 0.0
C1370 C 0.32858 0.10167 0.77387 0.0
C1371 C 0.33534 0.07174 0.74805 0.0
C1372 C 0.33758 0.08491 0.76148 0.0
C1373 C 0.34055 0.11928 0.8052 0.0
C1374 C 0.34025 0.10835 0.78906 0.0
H1375 H 0.35489 0.06003 0.71706 0.0
H1376 H 0.35912 0.08118 0.74073 0.0
H1377 H 0.31812 0.08517 0.74869 0.0
H1378 H 0.31755 0.1214 0.84232 0.0
H1379 H 0.31656 0.10548 0.81219 0.0
C1380 C 0.9545 0.28403 0.72588 0.0
C1381 C 0.9512 0.29548 0.72104 0.0
C1382 C 0.94518 0.2722 0.73951 0.0
C1383 C 0.91717 0.26173 0.78182 0.0
H1384 H 0.90388 0.21987 0.76459 0.0
C1385 C 0.87426 0.212 0.83198 0.0
C1386 C 0.87738 0.20032 0.83567 0.0
C1387 C 0.88174 0.22249 0.81594 0.0
C1388 C 0.90758 0.23149 0.76974 0.0
H1389 H 0.93579 0.30372 0.72737 0.0
H1390 H 0.9197 0.28321 0.75138 0.0
H1391 H 0.92095 0.24097 0.74192 0.0
H1392 H 0.89016 0.18993 0.82507 0.0
H1393 H 0.90351 0.20842 0.79725 0.0
H1394 H 0.90425 0.25246 0.80985 0.0
C1395 C 0.92945 0.28336 0.74452 0.0
C1396 C 0.91737 0.24357 0.75675 0.0
C1397 C 0.93866 0.2951 0.73073 0.0
C1398 C 0.88742 0.19872 0.82226 0.0
C1399 C 0.89508 0.20936 0.80637 0.0
C1400 C 0.90752 0.2497 0.79489 0.0
C1401 C 0.93247 0.27166 0.74879 0.0
C1402 C 0.92225 0.25882 0.76266 0.0
C1403 C 0.89273 0.22171 0.80353 0.0
C1404 C 0.90255 0.23439 0.78902 0.0
H1405 H 0.96403 0.28393 0.71866 0.0
H1406 H 0.9479 0.26344 0.74273 0.0
H1407 H 0.9209 0.27338 0.78693 0.0
H1408 H 0.86657 0.21344 0.84219 0.0
H1409 H 0.87932 0.23158 0.81383 0.0
C1410 C 0.70685 0.6526 0.74313 0.0
C1411 C 0.70886 0.66176 0.72561 0.0
C1412 C 0.71898 0.65635 0.75684 0.0
C1413 C 0.75892 0.67192 0.75699 0.0
H1414 H 0.75746 0.67668 0.8178 0.0
C1415 C 0.79215 0.66011 0.8207 0.0
C1416 C 0.79844 0.67073 0.83767 0.0
C1417 C 0.78392 0.66209 0.80476 0.0
C1418 C 0.75809 0.67554 0.80081 0.0
H1419 H 0.72505 0.68215 0.70891 0.0
H1420 H 0.74636 0.68838 0.7326 0.0
H1421 H 0.73674 0.67406 0.79554 0.0
H1422 H 0.80245 0.69262 0.84982 0.0
H1423 H 0.78759 0.69572 0.82238 0.0
H1424 H 0.77986 0.67251 0.76241 0.0
C1425 C 0.73534 0.67848 0.73581 0.0
C1426 C 0.74623 0.67397 0.78815 0.0
C1427 C 0.72312 0.67496 0.7224 0.0
C1428 C 0.79746 0.68404 0.83726 0.0
C1429 C 0.789 0.68586 0.82156 0.0
C1430 C 0.77063 0.67313 0.76972 0.0
C1431 C 0.73339 0.6691 0.75297 0.0
C1432 C 0.74649 0.67202 0.76618 0.0
C1433 C 0.78169 0.67462 0.80564 0.0
C1434 C 0.77025 0.67485 0.79175 0.0
H1435 H 0.696 0.64237 0.74596 0.0
H1436 H 0.71726 0.64894 0.76997 0.0
H1437 H 0.75927 0.67031 0.74006 0.0
H1438 H 0.79255 0.64967 0.82054 0.0
H1439 H 0.77834 0.65324 0.79265 0.0
C1440 C 0.7202 0.67128 0.62153 0.0
C1441 C 0.70976 0.65673 0.62936 0.0
C1442 C 0.73149 0.67309 0.60732 0.0
C1443 C 0.74132 0.65083 0.5702 0.0
H1444 H 0.78242 0.68531 0.57636 0.0
C1445 C 0.7892 0.65243 0.52232 0.0
C1446 C 0.7977 0.66578 0.51057 0.0
C1447 C 0.78013 0.65218 0.53899 0.0
C1448 C 0.77098 0.67565 0.57446 0.0
H1449 H 0.70299 0.63265 0.62809 0.0
H1450 H 0.7226 0.63585 0.60387 0.0
H1451 H 0.76255 0.68335 0.59994 0.0
H1452 H 0.80448 0.6897 0.50828 0.0
H1453 H 0.78863 0.68929 0.5375 0.0
H1454 H 0.74967 0.64305 0.54489 0.0
C1455 C 0.722 0.64586 0.60834 0.0
C1456 C 0.75958 0.67457 0.58784 0.0
C1457 C 0.71075 0.64405 0.62239 0.0
C1458 C 0.79796 0.67923 0.517 0.0
C1459 C 0.78893 0.679 0.53376 0.0
C1460 C 0.75269 0.65184 0.557 0.0
C1461 C 0.73256 0.66039 0.60066 0.0
C1462 C 0.74463 0.66208 0.58593 0.0
C1463 C 0.77942 0.6653 0.54429 0.0
C1464 C 0.76765 0.6642 0.55904 0.0
H1465 H 0.71979 0.6813 0.62656 0.0
H1466 H 0.73935 0.68442 0.60151 0.0
H1467 H 0.72988 0.64124 0.56793 0.0
H1468 H 0.78867 0.64185 0.51767 0.0
H1469 H 0.77311 0.64152 0.54709 0.0
C1470 C 0.34333 0.0568 0.62164 0.0
C1471 C 0.32855 0.04417 0.62402 0.0
C1472 C 0.34611 0.06866 0.60802 0.0
C1473 C 0.32982 0.07807 0.56274 0.0
H1474 H 0.35472 0.12004 0.58319 0.0
C1475 C 0.33266 0.12685 0.51579 0.0
C1476 C 0.34718 0.13953 0.51242 0.0
C1477 C 0.33034 0.11629 0.53134 0.0
C1478 C 0.34783 0.1084 0.57719 0.0
H1479 H 0.30524 0.03389 0.61321 0.0
H1480 H 0.3101 0.05446 0.58949 0.0
H1481 H 0.35143 0.09897 0.60511 0.0
H1482 H 0.37049 0.15167 0.5233 0.0
H1483 H 0.36652 0.13315 0.55052 0.0
H1484 H 0.32628 0.08735 0.5348 0.0
C1485 C 0.31955 0.05521 0.59814 0.0
C1486 C 0.34599 0.09633 0.58971 0.0
C1487 C 0.31676 0.04342 0.61182 0.0
C1488 C 0.35914 0.14209 0.52586 0.0
C1489 C 0.35686 0.13143 0.54136 0.0
C1490 C 0.33168 0.09009 0.55024 0.0
C1491 C 0.3342 0.0681 0.59633 0.0
C1492 C 0.33685 0.08101 0.58268 0.0
C1493 C 0.34255 0.11808 0.54366 0.0
C1494 C 0.34058 0.10541 0.55736 0.0
H1495 H 0.35269 0.05778 0.63082 0.0
H1496 H 0.35756 0.07834 0.60675 0.0
H1497 H 0.32293 0.06643 0.55668 0.0
H1498 H 0.32329 0.12463 0.50552 0.0
H1499 H 0.31909 0.10636 0.53306 0.0
C1500 C 0.95368 0.29356 0.60729 0.0
C1501 C 0.95996 0.29194 0.62605 0.0
C1502 C 0.94487 0.28087 0.5941 0.0
C1503 C 0.91638 0.24288 0.59629 0.0
H1504 H 0.92442 0.23741 0.5378 0.0
C1505 C 0.87235 0.21219 0.52878 0.0
C1506 C 0.87424 0.20195 0.51585 0.0
C1507 C 0.88262 0.22022 0.54522 0.0
C1508 C 0.92213 0.23868 0.55421 0.0
H1509 H 0.96239 0.27595 0.64547 0.0
H1510 H 0.94646 0.25356 0.62259 0.0
H1511 H 0.94447 0.2581 0.55951 0.0
H1512 H 0.88783 0.19158 0.51012 0.0
H1513 H 0.90609 0.20596 0.53862 0.0
H1514 H 0.8937 0.22417 0.59054 0.0
C1515 C 0.94867 0.26474 0.61801 0.0
C1516 C 0.93354 0.25049 0.56653 0.0
C1517 C 0.95783 0.27753 0.63095 0.0
C1518 C 0.88605 0.19923 0.52021 0.0
C1519 C 0.89651 0.20751 0.53633 0.0
C1520 C 0.90485 0.23129 0.58382 0.0
C1521 C 0.94194 0.26632 0.59973 0.0
C1522 C 0.93068 0.25275 0.58755 0.0
C1523 C 0.89511 0.21838 0.54854 0.0
C1524 C 0.9076 0.22922 0.56263 0.0
H1525 H 0.95513 0.30455 0.60322 0.0
H1526 H 0.93968 0.28226 0.58008 0.0
H1527 H 0.91395 0.2446 0.61245 0.0
H1528 H 0.86346 0.21461 0.52537 0.0
H1529 H 0.88143 0.22867 0.55433 0.0
C1530 C 0.35243 0.29773 0.61019 0.0
C1531 C 0.34065 0.2962 0.62324 0.0
C1532 C 0.34996 0.28624 0.59561 0.0
C1533 C 0.32498 0.24483 0.58557 0.0
H1534 H 0.34816 0.25481 0.53371 0.0
C1535 C 0.3236 0.20401 0.51661 0.0
C1536 C 0.3381 0.20659 0.51181 0.0
C1537 C 0.32185 0.21304 0.53201 0.0
C1538 C 0.34163 0.25189 0.54817 0.0
H1539 H 0.31674 0.28167 0.63033 0.0
H1540 H 0.31232 0.26164 0.60434 0.0
H1541 H 0.34802 0.27513 0.55449 0.0
H1542 H 0.36195 0.21985 0.52032 0.0
H1543 H 0.35887 0.23564 0.54702 0.0
H1544 H 0.31846 0.22142 0.5787 0.0
C1545 C 0.32358 0.27166 0.60581 0.0
C1546 C 0.34157 0.2635 0.5601 0.0
C1547 C 0.32608 0.28321 0.62053 0.0
C1548 C 0.35062 0.21747 0.52383 0.0
C1549 C 0.3489 0.2266 0.53897 0.0
C1550 C 0.32485 0.23312 0.57335 0.0
C1551 C 0.33559 0.27293 0.59348 0.0
C1552 C 0.33363 0.26021 0.57929 0.0
C1553 C 0.33461 0.22485 0.54255 0.0
C1554 C 0.33354 0.23669 0.5549 0.0
H1555 H 0.3638 0.30758 0.61173 0.0
H1556 H 0.35956 0.28756 0.58667 0.0
H1557 H 0.31884 0.2419 0.60034 0.0
H1558 H 0.31378 0.19569 0.50753 0.0
H1559 H 0.31073 0.21155 0.53456 0.0
C1560 C 0.73226 0.0387 0.61829 0.0
C1561 C 0.71923 0.03801 0.62673 0.0
C1562 C 0.74171 0.05034 0.60455 0.0
C1563 C 0.7521 0.08946 0.58897 0.0
H1564 H 0.77183 0.08138 0.54241 0.0
C1565 C 0.78456 0.13192 0.52163 0.0
C1566 C 0.79734 0.13211 0.51323 0.0
C1567 C 0.77607 0.12174 0.53758 0.0
C1568 C 0.7666 0.08389 0.55555 0.0
H1569 H 0.70567 0.04881 0.62654 0.0
H1570 H 0.72202 0.06894 0.60217 0.0
H1571 H 0.75398 0.06036 0.56431 0.0
H1572 H 0.81184 0.12252 0.51592 0.0
H1573 H 0.79717 0.10491 0.54403 0.0
H1574 H 0.76459 0.113 0.57983 0.0
C1575 C 0.72508 0.06063 0.6066 0.0
C1576 C 0.75632 0.07181 0.56809 0.0
C1577 C 0.71562 0.04898 0.62042 0.0
C1578 C 0.80213 0.12273 0.5222 0.0
C1579 C 0.79359 0.11249 0.53807 0.0
C1580 C 0.76235 0.10155 0.57632 0.0
C1581 C 0.73837 0.06159 0.59876 0.0
C1582 C 0.74896 0.07443 0.58501 0.0
C1583 C 0.78016 0.11148 0.54537 0.0
C1584 C 0.76976 0.0989 0.55952 0.0
H1585 H 0.73546 0.0305 0.62278 0.0
H1586 H 0.75191 0.05078 0.59903 0.0
H1587 H 0.74683 0.09195 0.60206 0.0
H1588 H 0.78064 0.13905 0.51501 0.0
H1589 H 0.76578 0.12125 0.54284 0.0
C1590 C 0.94895 0.66226 0.6186 0.0
C1591 C 0.96169 0.67717 0.62039 0.0
C1592 C 0.93713 0.65902 0.60444 0.0
C1593 C 0.92799 0.67455 0.55762 0.0
H1594 H 0.8865 0.6512 0.57739 0.0
C1595 C 0.88124 0.67744 0.51418 0.0
C1596 C 0.8686 0.66334 0.50796 0.0
C1597 C 0.89129 0.67809 0.52952 0.0
C1598 C 0.89803 0.65765 0.57164 0.0
H1599 H 0.97222 0.70015 0.60796 0.0
H1600 H 0.95179 0.69456 0.5836 0.0
H1601 H 0.90721 0.6536 0.59954 0.0
H1602 H 0.85587 0.63901 0.51406 0.0
H1603 H 0.87345 0.64016 0.54127 0.0
H1604 H 0.91895 0.67889 0.52999 0.0
C1605 C 0.95087 0.6853 0.59297 0.0
C1606 C 0.90988 0.65896 0.58423 0.0
C1607 C 0.9626 0.68854 0.60708 0.0
C1608 C 0.86546 0.65005 0.51873 0.0
C1609 C 0.87557 0.6507 0.53418 0.0
C1610 C 0.91622 0.67335 0.54518 0.0
C1611 C 0.93787 0.67058 0.59166 0.0
C1612 C 0.92505 0.66769 0.57752 0.0
C1613 C 0.88894 0.66465 0.539 0.0
C1614 C 0.90115 0.66515 0.5522 0.0
H1615 H 0.94785 0.65323 0.62865 0.0
H1616 H 0.92736 0.64751 0.60365 0.0
H1617 H 0.93947 0.68103 0.55169 0.0
H1618 H 0.88387 0.68785 0.50618 0.0
H1619 H 0.90132 0.68905 0.53328 0.0
C1620 C 0.95578 0.69026 0.72173 0.0
C1621 C 0.95938 0.67889 0.71718 0.0
C1622 C 0.94429 0.68756 0.7359 0.0
C1623 C 0.91039 0.65633 0.76198 0.0
H1624 H 0.91533 0.68954 0.79882 0.0
C1625 C 0.87275 0.64811 0.83439 0.0
C1626 C 0.86853 0.65904 0.83827 0.0
C1627 C 0.88261 0.65002 0.81794 0.0
C1628 C 0.91369 0.68022 0.78841 0.0
H1629 H 0.95376 0.65577 0.7243 0.0
H1630 H 0.9339 0.65119 0.74965 0.0
H1631 H 0.93557 0.6938 0.77467 0.0
H1632 H 0.87086 0.68031 0.82801 0.0
H1633 H 0.88832 0.6838 0.79904 0.0
H1634 H 0.88864 0.64265 0.77633 0.0
C1635 C 0.93981 0.66211 0.74181 0.0
C1636 C 0.9253 0.68264 0.77456 0.0
C1637 C 0.95127 0.66477 0.72741 0.0
C1638 C 0.87393 0.67172 0.82511 0.0
C1639 C 0.88396 0.67373 0.80872 0.0
C1640 C 0.89883 0.65387 0.776 0.0
C1641 C 0.93613 0.67347 0.74615 0.0
C1642 C 0.92381 0.67073 0.76115 0.0
C1643 C 0.88858 0.66301 0.80521 0.0
C1644 C 0.90037 0.66579 0.78937 0.0
H1645 H 0.96163 0.70122 0.714 0.0
H1646 H 0.9416 0.69647 0.73846 0.0
H1647 H 0.90873 0.64697 0.75164 0.0
H1648 H 0.86877 0.63832 0.84455 0.0
H1649 H 0.88609 0.64167 0.81579 0.0
C1650 C 0.35559 0.28754 0.71743 0.0
C1651 C 0.34597 0.29357 0.71802 0.0
C1652 C 0.35302 0.27553 0.73048 0.0
C1653 C 0.32432 0.24554 0.76577 0.0
H1654 H 0.3599 0.2473 0.78983 0.0
C1655 C 0.3349 0.22362 0.84541 0.0
C1656 C 0.33354 0.20916 0.84306 0.0
C1657 C 0.335 0.23172 0.82784 0.0
C1658 C 0.3499 0.24654 0.78288 0.0
H1659 H 0.326 0.29165 0.7327 0.0
H1660 H 0.32189 0.27112 0.75642 0.0
H1661 H 0.36302 0.26635 0.76431 0.0
H1662 H 0.33145 0.19203 0.82015 0.0
H1663 H 0.33203 0.20663 0.78906 0.0
H1664 H 0.31135 0.22617 0.7857 0.0
C1665 C 0.33121 0.27538 0.74537 0.0
C1666 C 0.35163 0.25742 0.76824 0.0
C1667 C 0.33363 0.28725 0.73194 0.0
C1668 C 0.33245 0.20308 0.82251 0.0
C1669 C 0.33266 0.21133 0.80479 0.0
C1670 C 0.32262 0.23469 0.78059 0.0
C1671 C 0.34092 0.2694 0.74485 0.0
C1672 C 0.33888 0.25721 0.75964 0.0
C1673 C 0.33396 0.2257 0.80746 0.0
C1674 C 0.33542 0.23523 0.78932 0.0
H1675 H 0.36501 0.2919 0.70653 0.0
H1676 H 0.36052 0.27101 0.72916 0.0
H1677 H 0.31424 0.24487 0.75932 0.0
H1678 H 0.33628 0.22896 0.86087 0.0
H1679 H 0.33625 0.24291 0.83015 0.0
C1680 C 0.728 0.04157 0.73551 0.0
C1681 C 0.71687 0.04231 0.72359 0.0
C1682 C 0.73734 0.05335 0.74956 0.0
C1683 C 0.75286 0.0944 0.76086 0.0
H1684 H 0.76671 0.08449 0.81186 0.0
C1685 C 0.79107 0.13312 0.83309 0.0
C1686 C 0.80379 0.13157 0.83607 0.0
C1687 C 0.78048 0.1247 0.8171 0.0
C1688 C 0.76291 0.08739 0.79766 0.0
H1689 H 0.70655 0.05594 0.71769 0.0
H1690 H 0.72282 0.07656 0.74279 0.0
H1691 H 0.74643 0.06401 0.79075 0.0
H1692 H 0.81603 0.12099 0.82368 0.0
H1693 H 0.79746 0.10621 0.79595 0.0
H1694 H 0.76942 0.11796 0.76835 0.0
C1695 C 0.72439 0.06686 0.74087 0.0
C1696 C 0.75135 0.07569 0.78552 0.0
C1697 C 0.71499 0.05499 0.72665 0.0
C1698 C 0.80644 0.12255 0.82163 0.0
C1699 C 0.79579 0.11403 0.80586 0.0
C1700 C 0.76435 0.10619 0.77328 0.0
C1701 C 0.73578 0.06622 0.75233 0.0
C1702 C 0.74648 0.07898 0.76663 0.0
C1703 C 0.78246 0.11457 0.80407 0.0
C1704 C 0.76968 0.10266 0.79143 0.0
H1705 H 0.72983 0.03202 0.73364 0.0
H1706 H 0.74614 0.05255 0.75777 0.0
H1707 H 0.74943 0.09731 0.74635 0.0
H1708 H 0.78879 0.14002 0.84402 0.0
H1709 H 0.77021 0.12518 0.81601 0.0
C1710 C 0.04129 0.33914 0.03096 0.0
C1711 C 0.04265 0.35288 0.02415 0.0
C1712 C 0.05411 0.33856 0.03661 0.0
C1713 C 0.09134 0.36128 0.05945 0.0
H1714 H 0.0976 0.32878 0.03883 0.0
C1715 C 0.13714 0.353 0.09762 0.0
C1716 C 0.13292 0.33779 0.10159 0.0
C1717 C 0.12872 0.35622 0.08351 0.0
C1718 C 0.09599 0.33787 0.04491 0.0
H1719 H 0.05853 0.3768 0.01789 0.0
H1720 H 0.08106 0.37591 0.02862 0.0
H1721 H 0.07746 0.33172 0.02354 0.0
H1722 H 0.11707 0.31405 0.09346 0.0
H1723 H 0.10202 0.31949 0.06945 0.0
H1724 H 0.10901 0.36685 0.08182 0.0
C1725 C 0.07001 0.36556 0.02921 0.0
C1726 C 0.08451 0.3396 0.03601 0.0
C1727 C 0.05715 0.36606 0.02308 0.0
C1728 C 0.12068 0.32589 0.09035 0.0
C1729 C 0.11207 0.32906 0.07655 0.0
C1730 C 0.10263 0.35938 0.06863 0.0
C1731 C 0.06857 0.35178 0.03598 0.0
C1732 C 0.08191 0.35115 0.04346 0.0
C1733 C 0.11564 0.34427 0.07349 0.0
C1734 C 0.10495 0.34746 0.06179 0.0
H1735 H 0.03027 0.32876 0.03183 0.0
H1736 H 0.05267 0.32784 0.042 0.0
H1737 H 0.08945 0.37017 0.06564 0.0
H1738 H 0.14653 0.36236 0.10621 0.0
H1739 H 0.13213 0.36808 0.08116 0.0
C1740 C 0.6785 0.70343 0.04504 0.0
C1741 C 0.66415 0.69291 0.03662 0.0
C1742 C 0.68222 0.71839 0.05029 0.0
C1743 C 0.66922 0.74622 0.04159 0.0
H1744 H 0.69501 0.76709 0.09021 0.0
C1745 C 0.67041 0.79463 0.09225 0.0
C1746 C 0.68455 0.80636 0.09978 0.0
C1747 C 0.66944 0.78293 0.0792 0.0
C1748 C 0.68802 0.76151 0.07634 0.0
H1749 H 0.64223 0.68946 0.02783 0.0
H1750 H 0.64834 0.71519 0.03809 0.0
H1751 H 0.68989 0.74172 0.07992 0.0
H1752 H 0.7088 0.81577 0.09872 0.0
H1753 H 0.70713 0.79515 0.07603 0.0
H1754 H 0.66663 0.76579 0.0391 0.0
C1755 C 0.65702 0.71224 0.03982 0.0
C1756 C 0.68507 0.74694 0.07041 0.0
C1757 C 0.65342 0.69741 0.03419 0.0
C1758 C 0.6978 0.80695 0.09274 0.0
C1759 C 0.69684 0.79511 0.07998 0.0
C1760 C 0.67195 0.76069 0.04781 0.0
C1761 C 0.67155 0.72304 0.04762 0.0
C1762 C 0.67545 0.73898 0.05313 0.0
C1763 C 0.68261 0.78267 0.07391 0.0
C1764 C 0.68125 0.76838 0.06536 0.0
H1765 H 0.68704 0.70029 0.04683 0.0
H1766 H 0.69359 0.72639 0.05598 0.0
H1767 H 0.66207 0.74065 0.02788 0.0
H1768 H 0.66006 0.79386 0.09785 0.0
H1769 H 0.65834 0.7734 0.07485 0.0
C1770 C 0.30622 0.95787 0.02264 0.0
C1771 C 0.31211 0.97334 0.0283 0.0
C1772 C 0.29219 0.94654 0.03033 0.0
C1773 C 0.26423 0.93952 0.07257 0.0
H1774 H 0.23815 0.90345 0.03806 0.0
C1775 C 0.20681 0.8934 0.10351 0.0
C1776 C 0.20538 0.8789 0.10423 0.0
C1777 C 0.21773 0.9048 0.09072 0.0
C1778 C 0.24531 0.91349 0.04781 0.0
H1779 H 0.30792 0.98913 0.04625 0.0
H1780 H 0.28323 0.96947 0.05918 0.0
H1781 H 0.26181 0.92399 0.02343 0.0
H1782 H 0.21324 0.86451 0.09052 0.0
H1783 H 0.23211 0.88435 0.06782 0.0
H1784 H 0.24769 0.92904 0.09689 0.0
C1785 C 0.28957 0.96597 0.04925 0.0
C1786 C 0.25893 0.92522 0.03953 0.0
C1787 C 0.30371 0.97727 0.04179 0.0
C1788 C 0.21398 0.87553 0.09021 0.0
C1789 C 0.22485 0.88692 0.07728 0.0
C1790 C 0.25055 0.92792 0.08071 0.0
C1791 C 0.28361 0.95043 0.04363 0.0
C1792 C 0.26868 0.9383 0.05192 0.0
C1793 C 0.22733 0.90187 0.07823 0.0
C1794 C 0.24103 0.91471 0.06852 0.0
H1795 H 0.31248 0.95449 0.01232 0.0
H1796 H 0.28819 0.93471 0.02601 0.0
H1797 H 0.27151 0.94923 0.08277 0.0
H1798 H 0.20018 0.89625 0.11393 0.0
H1799 H 0.21922 0.91614 0.09145 0.0
C1800 C 0.33986 0.03771 0.97629 0.0
C1801 C 0.35196 0.03889 0.9882 0.0
C1802 C 0.33928 0.05074 0.97156 0.0
C1803 C 0.3626 0.09192 0.96427 0.0
H1804 H 0.32405 0.09018 0.96851 0.0
C1805 C 0.35548 0.14004 0.93056 0.0
C1806 C 0.34276 0.13463 0.91723 0.0
C1807 C 0.35659 0.13013 0.94458 0.0
C1808 C 0.3349 0.09087 0.96721 0.0
H1809 H 0.37308 0.05474 0.00424 0.0
H1810 H 0.37219 0.07771 0.99552 0.0
H1811 H 0.3265 0.0692 0.98195 0.0
H1812 H 0.32066 0.11509 0.90944 0.0
H1813 H 0.32258 0.09781 0.93358 0.0
H1814 H 0.37083 0.1132 0.94859 0.0
C1815 C 0.36312 0.0666 0.99002 0.0
C1816 C 0.3363 0.07885 0.97493 0.0
C1817 C 0.36363 0.05348 0.99499 0.0
C1818 C 0.33064 0.11953 0.91944 0.0
C1819 C 0.33173 0.10965 0.93341 0.0
C1820 C 0.36117 0.10391 0.95639 0.0
C1821 C 0.35083 0.06532 0.97846 0.0
C1822 C 0.35003 0.07904 0.97299 0.0
C1823 C 0.34496 0.11465 0.94557 0.0
C1824 C 0.34717 0.10332 0.95722 0.0
H1825 H 0.33067 0.02665 0.97083 0.0
H1826 H 0.3298 0.04941 0.96229 0.0
H1827 H 0.3733 0.09235 0.96247 0.0
H1828 H 0.36504 0.1516 0.92913 0.0
H1829 H 0.36682 0.13443 0.95399 0.0
C1830 C 0.97937 0.30581 0.97106 0.0
C1831 C 0.97638 0.31536 0.9839 0.0
C1832 C 0.96751 0.29145 0.96424 0.0
C1833 C 0.92716 0.26999 0.95257 0.0
H1834 H 0.92966 0.23377 0.96212 0.0
C1835 C 0.87938 0.21162 0.92277 0.0
C1836 C 0.88413 0.20248 0.91252 0.0
C1837 C 0.88945 0.22391 0.93582 0.0
C1838 C 0.92881 0.24375 0.95915 0.0
H1839 H 0.95868 0.31764 -0.00084 0.0
H1840 H 0.93794 0.29278 0.98664 0.0
H1841 H 0.9502 0.25883 0.97432 0.0
H1842 H 0.90265 0.19839 0.90831 0.0
H1843 H 0.9204 0.21999 0.9305 0.0
H1844 H 0.90627 0.2553 0.93646 0.0
C1845 C 0.94945 0.29631 0.98212 0.0
C1846 C 0.94058 0.25809 0.96618 0.0
C1847 C 0.96131 0.31051 0.98927 0.0
C1848 C 0.89871 0.20515 0.91648 0.0
C1849 C 0.90887 0.21757 0.92921 0.0
C1850 C 0.91553 0.25573 0.94521 0.0
C1851 C 0.95246 0.28656 0.96981 0.0
C1852 C 0.9399 0.27133 0.96279 0.0
C1853 C 0.90458 0.22752 0.93835 0.0
C1854 C 0.91623 0.2424 0.94823 0.0
H1855 H 0.9909 0.30924 0.96679 0.0
H1856 H 0.97008 0.28417 0.95457 0.0
H1857 H 0.92643 0.28007 0.94966 0.0
H1858 H 0.86821 0.20983 0.91965 0.0
H1859 H 0.8856 0.23105 0.94304 0.0
C1860 C 0.70006 0.66713 0.98117 0.0
C1861 C 0.68906 0.65442 0.99232 0.0
C1862 C 0.71356 0.66803 0.97497 0.0
C1863 C 0.72991 0.64459 0.96172 0.0
H1864 H 0.76843 0.68243 0.96988 0.0
C1865 C 0.78361 0.64997 0.92636 0.0
C1866 C 0.79249 0.66344 0.91498 0.0
C1867 C 0.7729 0.64906 0.94089 0.0
C1868 C 0.75778 0.67179 0.96739 0.0
H1869 H 0.68347 0.6326 0.0055 0.0
H1870 H 0.70697 0.63403 0.99418 0.0
H1871 H 0.74529 0.68028 0.98411 0.0
H1872 H 0.79833 0.68704 0.91171 0.0
H1873 H 0.77936 0.68532 0.93633 0.0
H1874 H 0.74207 0.6363 0.94408 0.0
C1875 C 0.70516 0.64333 0.99042 0.0
C1876 C 0.74454 0.67057 0.97557 0.0
C1877 C 0.69173 0.64251 0.99688 0.0
C1878 C 0.79145 0.6764 0.91996 0.0
C1879 C 0.78063 0.67544 0.93427 0.0
C1880 C 0.7431 0.64586 0.95332 0.0
C1881 C 0.71625 0.65616 0.97956 0.0
C1882 C 0.73045 0.65705 0.9725 0.0
C1883 C 0.77073 0.66153 0.94419 0.0
C1884 C 0.75718 0.65958 0.95571 0.0
H1885 H 0.69836 0.67652 0.9775 0.0
H1886 H 0.72183 0.67796 0.96636 0.0
H1887 H 0.71919 0.63408 0.95897 0.0
H1888 H 0.78409 0.63975 0.92294 0.0
H1889 H 0.76577 0.63829 0.9487 0.0
C1890 C 0.95972 0.66236 0.98555 0.0
C1891 C 0.9589 0.64996 0.99624 0.0
C1892 C 0.94661 0.66266 0.98096 0.0
C1893 C 0.9065 0.63795 0.96998 0.0
H1894 H 0.90639 0.67599 0.97506 0.0
C1895 C 0.86027 0.64407 0.92873 0.0
C1896 C 0.86626 0.65711 0.91608 0.0
C1897 C 0.86916 0.64304 0.94462 0.0
C1898 C 0.9062 0.66526 0.97357 0.0
H1899 H 0.94368 0.62814 0.0106 0.0
H1900 H 0.92052 0.6285 0.00205 0.0
H1901 H 0.92694 0.67408 0.9911 0.0
H1902 H 0.88564 0.67982 0.91135 0.0
H1903 H 0.90116 0.67804 0.93878 0.0
H1904 H 0.88629 0.62938 0.95141 0.0
C1905 C 0.93142 0.63803 -0.00257 0.0
C1906 C 0.91795 0.66417 0.98279 0.0
C1907 C 0.94464 0.63783 0.00231 0.0
C1908 C 0.88078 0.66959 0.9208 0.0
C1909 C 0.88964 0.66859 0.93665 0.0
C1910 C 0.89478 0.63907 0.96063 0.0
C1911 C 0.93231 0.6505 0.98676 0.0
C1912 C 0.91849 0.65068 0.98046 0.0
C1913 C 0.88418 0.65505 0.94817 0.0
C1914 C 0.89478 0.65292 0.96168 0.0
H1915 H 0.97053 0.67193 0.98071 0.0
H1916 H 0.94766 0.67229 0.9724 0.0
H1917 H 0.90667 0.62744 0.96782 0.0
H1918 H 0.84913 0.63425 0.92538 0.0
H1919 H 0.86452 0.63256 0.95344 0.0
C1920 C 0.35175 0.30945 0.99666 0.0
C1921 C 0.3421 0.31465 0.99027 0.0
C1922 C 0.34887 0.29497 0.99039 0.0
C1923 C 0.31918 0.25686 0.97123 0.0
H1924 H 0.35337 0.25462 0.94966 0.0
C1925 C 0.31444 0.20639 0.92113 0.0
C1926 C 0.32727 0.20478 0.92001 0.0
C1927 C 0.31444 0.21749 0.93451 0.0
C1928 C 0.34373 0.25487 0.95614 0.0
H1929 H 0.32175 0.30871 0.97245 0.0
H1930 H 0.31672 0.28325 0.96132 0.0
H1931 H 0.3571 0.27902 0.96192 0.0
H1932 H 0.34895 0.21175 0.93492 0.0
H1933 H 0.34841 0.23018 0.95915 0.0
H1934 H 0.30577 0.23262 0.96522 0.0
C1935 C 0.32647 0.29042 0.97131 0.0
C1936 C 0.34588 0.26895 0.963 0.0
C1937 C 0.32943 0.30503 0.97749 0.0
C1938 C 0.33892 0.21271 0.93505 0.0
C1939 C 0.33876 0.22356 0.94873 0.0
C1940 C 0.31703 0.24266 0.96446 0.0
C1941 C 0.33622 0.28529 0.97765 0.0
C1942 C 0.33365 0.27014 0.97053 0.0
C1943 C 0.3271 0.22693 0.94742 0.0
C1944 C 0.32929 0.24151 0.95674 0.0
H1945 H 0.36156 0.31654 0.00661 0.0
H1946 H 0.3565 0.29129 0.9957 0.0
H1947 H 0.30958 0.25744 0.97715 0.0
H1948 H 0.30502 0.20009 0.91024 0.0
H1949 H 0.30512 0.21955 0.93326 0.0
C1950 C 0.69683 0.04809 0.9911 0.0
C1951 C 0.69224 0.03271 0.98667 0.0
C1952 C 0.71071 0.05993 0.98371 0.0
C1953 C 0.74859 0.06913 0.96818 0.0
H1954 H 0.74942 0.10137 0.93535 0.0
C1955 C 0.80001 0.1104 0.91777 0.0
C1956 C 0.80201 0.12467 0.91263 0.0
C1957 C 0.78784 0.1003 0.93034 0.0
C1958 C 0.74955 0.09273 0.94494 0.0
H1959 H 0.69858 0.01763 0.9712 0.0
H1960 H 0.72305 0.03838 0.95865 0.0
H1961 H 0.72555 0.08139 0.94974 0.0
H1962 H 0.79368 0.14016 0.91762 0.0
H1963 H 0.77301 0.12305 0.9408 0.0
H1964 H 0.77259 0.08052 0.96383 0.0
C1965 C 0.71583 0.04123 0.96772 0.0
C1966 C 0.73579 0.08118 0.95301 0.0
C1967 C 0.70181 0.02939 0.97475 0.0
C1968 C 0.79239 0.12923 0.92157 0.0
C1969 C 0.7804 0.11928 0.93452 0.0
C1970 C 0.76244 0.08084 0.96046 0.0
C1971 C 0.7204 0.0566 0.97214 0.0
C1972 C 0.73514 0.06917 0.96443 0.0
C1973 C 0.77751 0.10438 0.93826 0.0
C1974 C 0.7631 0.09271 0.94844 0.0
H1975 H 0.68969 0.051 0.00025 0.0
H1976 H 0.71399 0.07169 0.98735 0.0
H1977 H 0.74839 0.06006 0.97719 0.0
H1978 H 0.80712 0.10654 0.91065 0.0
H1979 H 0.78599 0.08894 0.93258 0.0
C1980 C 0.6426 0.95205 0.0236 0.0
C1981 C 0.65482 0.96703 0.0272 0.0
C1982 C 0.64368 0.93939 0.02951 0.0
C1983 C 0.67112 0.92733 0.03938 0.0
H1984 H 0.64183 0.89834 0.07857 0.0
C1985 C 0.68422 0.89001 0.0923 0.0
C1986 C 0.67225 0.87648 0.1006 0.0
C1987 C 0.68126 0.89895 0.07883 0.0
C1988 C 0.64994 0.90602 0.06719 0.0
H1989 H 0.67781 0.98049 0.03947 0.0
H1990 H 0.67975 0.95849 0.0493 0.0
H1991 H 0.63789 0.91796 0.06369 0.0
H1992 H 0.64795 0.86101 0.10015 0.0
H1993 H 0.64277 0.87607 0.0756 0.0
H1994 H 0.6832 0.91549 0.04268 0.0
C1995 C 0.66933 0.95651 0.04207 0.0
C1996 C 0.64769 0.91734 0.05877 0.0
C1997 C 0.66815 0.9691 0.03659 0.0
C1998 C 0.65737 0.87139 0.09386 0.0
C1999 C 0.65442 0.88017 0.08006 0.0
C2000 C 0.67326 0.91585 0.04749 0.0
C2001 C 0.65713 0.94154 0.03862 0.0
C2002 C 0.65845 0.92834 0.04523 0.0
C2003 C 0.66625 0.89445 0.07313 0.0
C2004 C 0.66292 0.90527 0.06199 0.0
H2005 H 0.6322 0.95011 0.01635 0.0
H2006 H 0.6341 0.92794 0.02673 0.0
H2007 H 0.67952 0.9356 0.02876 0.0
H2008 H 0.69576 0.8943 0.09759 0.0
H2009 H 0.69072 0.9099 0.07412 0.0
C2010 C 0.02522 0.69933 0.04307 0.0
C2011 C 0.02727 0.69009 0.02826 0.0
C2012 C 0.03742 0.71372 0.04907 0.0
C2013 C 0.07857 0.73501 0.05374 0.0
H2014 H 0.07468 0.77098 0.05709 0.0
C2015 C 0.12766 0.79078 0.08712 0.0
C2016 C 0.1235 0.79804 0.10258 0.0
C2017 C 0.11683 0.77998 0.07305 0.0
C2018 C 0.07595 0.76105 0.05634 0.0
H2019 H 0.04365 0.68857 0.00822 0.0
H2020 H 0.06499 0.71354 0.01906 0.0
H2021 H 0.0535 0.74669 0.04369 0.0
H2022 H 0.10518 0.80111 0.11352 0.0
H2023 H 0.08619 0.78184 0.08981 0.0
H2024 H 0.10058 0.7489 0.06734 0.0
C2025 C 0.05395 0.7097 0.02591 0.0
C2026 C 0.06382 0.74715 0.04866 0.0
C2027 C 0.04174 0.69543 0.01971 0.0
C2028 C 0.10867 0.79544 0.10214 0.0
C2029 C 0.09778 0.78446 0.08833 0.0
C2030 C 0.0906 0.74881 0.06166 0.0
C2031 C 0.0519 0.71901 0.04058 0.0
C2032 C 0.06497 0.73397 0.04754 0.0
C2033 C 0.10156 0.77603 0.07434 0.0
C2034 C 0.08941 0.76198 0.06334 0.0
H2035 H 0.01418 0.69553 0.04985 0.0
H2036 H 0.03558 0.7206 0.06061 0.0
H2037 H 0.07971 0.72499 0.05325 0.0
H2038 H 0.13897 0.79248 0.0869 0.0
H2039 H 0.12027 0.77409 0.062 0.0
C2040 C 0.30572 0.34064 0.04156 0.0
C2041 C 0.31723 0.35398 0.0321 0.0
C2042 C 0.29191 0.33935 0.04688 0.0
C2043 C 0.27437 0.3605 0.06331 0.0
H2044 H 0.23688 0.32515 0.04314 0.0
C2045 C 0.21771 0.34965 0.09595 0.0
C2046 C 0.20739 0.33443 0.10122 0.0
C2047 C 0.22986 0.35309 0.08252 0.0
C2048 C 0.2472 0.33504 0.04908 0.0
H2049 H 0.32346 0.37656 0.02123 0.0
H2050 H 0.29938 0.3745 0.03145 0.0
H2051 H 0.26115 0.32913 0.03072 0.0
H2052 H 0.20114 0.31082 0.0962 0.0
H2053 H 0.22248 0.31667 0.07341 0.0
H2054 H 0.26074 0.36594 0.08283 0.0
C2055 C 0.30105 0.36499 0.03432 0.0
C2056 C 0.26109 0.33734 0.04183 0.0
C2057 C 0.31479 0.36617 0.02854 0.0
C2058 C 0.20882 0.32262 0.09193 0.0
C2059 C 0.22111 0.32605 0.07885 0.0
C2060 C 0.26051 0.35805 0.07091 0.0
C2061 C 0.28943 0.35147 0.04325 0.0
C2062 C 0.27478 0.34994 0.04917 0.0
C2063 C 0.23215 0.34138 0.07462 0.0
C2064 C 0.24671 0.3451 0.06422 0.0
H2065 H 0.30722 0.33102 0.04437 0.0
H2066 H 0.28317 0.32888 0.05397 0.0
H2067 H 0.28481 0.37025 0.0693 0.0
H2068 H 0.21687 0.35893 0.10319 0.0
H2069 H 0.23785 0.36499 0.0792 0.0
C2070 C 0.70141 0.67381 0.37186 0.0
C2071 C 0.70377 0.68715 0.36204 0.0
C2072 C 0.7137 0.67256 0.37845 0.0
C2073 C 0.75238 0.69385 0.39698 0.0
H2074 H 0.75488 0.65882 0.37748 0.0
C2075 C 0.79946 0.68477 0.4289 0.0
C2076 C 0.79516 0.66966 0.43365 0.0
C2077 C 0.79014 0.68776 0.41624 0.0
C2078 C 0.75432 0.6686 0.38331 0.0
H2079 H 0.72086 0.70981 0.35192 0.0
H2080 H 0.74244 0.70784 0.36431 0.0
H2081 H 0.73457 0.66238 0.36446 0.0
H2082 H 0.77812 0.6458 0.4286 0.0
H2083 H 0.76158 0.65086 0.40719 0.0
H2084 H 0.77141 0.69966 0.41685 0.0
C2085 C 0.73102 0.69829 0.36653 0.0
C2086 C 0.74272 0.67066 0.37571 0.0
C2087 C 0.7187 0.69941 0.35948 0.0
C2088 C 0.78181 0.65755 0.42472 0.0
C2089 C 0.77232 0.66051 0.41244 0.0
C2090 C 0.7638 0.69163 0.40494 0.0
C2091 C 0.72862 0.68475 0.37575 0.0
C2092 C 0.74155 0.68321 0.38266 0.0
C2093 C 0.77609 0.67569 0.40859 0.0
C2094 C 0.76485 0.67886 0.39843 0.0
H2095 H 0.69005 0.66411 0.37393 0.0
H2096 H 0.71156 0.66207 0.38571 0.0
H2097 H 0.75164 0.70356 0.40269 0.0
H2098 H 0.80966 0.69428 0.43584 0.0
H2099 H 0.7937 0.69957 0.41319 0.0
C2100 C 0.3469 0.03479 0.37904 0.0
C2101 C 0.33271 0.02484 0.36969 0.0
C2102 C 0.35084 0.0497 0.38517 0.0
C2103 C 0.33918 0.07855 0.37667 0.0
H2104 H 0.36298 0.09758 0.42749 0.0
C2105 C 0.33903 0.12631 0.42709 0.0
C2106 C 0.3529 0.13781 0.43571 0.0
C2107 C 0.33843 0.1146 0.41446 0.0
C2108 C 0.35655 0.09251 0.41304 0.0
H2109 H 0.31126 0.02232 0.36029 0.0
H2110 H 0.31774 0.04787 0.3719 0.0
H2111 H 0.35792 0.07236 0.41614 0.0
H2112 H 0.37705 0.14668 0.43728 0.0
H2113 H 0.376 0.12604 0.4153 0.0
H2114 H 0.33712 0.09844 0.37446 0.0
C2115 C 0.32615 0.04455 0.37372 0.0
C2116 C 0.35364 0.07804 0.40651 0.0
C2117 C 0.32234 0.02981 0.36729 0.0
C2118 C 0.36629 0.13805 0.43041 0.0
C2119 C 0.36567 0.12619 0.41808 0.0
C2120 C 0.34189 0.09291 0.38342 0.0
C2121 C 0.34056 0.05483 0.38235 0.0
C2122 C 0.34468 0.07074 0.38844 0.0
C2123 C 0.35165 0.11407 0.41069 0.0
C2124 C 0.35043 0.09991 0.40181 0.0
H2125 H 0.35515 0.03127 0.38088 0.0
H2126 H 0.36208 0.0573 0.3916 0.0
H2127 H 0.33259 0.0735 0.36235 0.0
H2128 H 0.32856 0.1258 0.43139 0.0
H2129 H 0.32748 0.10531 0.40909 0.0
C2130 C 0.97254 0.3116 0.37717 0.0
C2131 C 0.98006 0.30714 0.36276 0.0
C2132 C 0.95839 0.30077 0.3852 0.0
C2133 C 0.92578 0.26114 0.37555 0.0
H2134 H 0.91771 0.26404 0.43483 0.0
C2135 C 0.88067 0.21076 0.42466 0.0
C2136 C 0.87366 0.21409 0.44133 0.0
C2137 C 0.89146 0.22251 0.41208 0.0
C2138 C 0.91964 0.2632 0.41814 0.0
H2139 H 0.97875 0.28783 0.34563 0.0
H2140 H 0.95432 0.26888 0.36006 0.0
H2141 H 0.94134 0.28376 0.41961 0.0
H2142 H 0.87122 0.23201 0.45642 0.0
H2143 H 0.88995 0.2525 0.43435 0.0
H2144 H 0.90421 0.2402 0.3744 0.0
C2145 C 0.95912 0.28078 0.3648 0.0
C2146 C 0.93323 0.27453 0.40939 0.0
C2147 C 0.97321 0.29163 0.35667 0.0
C2148 C 0.87659 0.22914 0.44386 0.0
C2149 C 0.88738 0.24088 0.43132 0.0
C2150 C 0.9122 0.24973 0.38435 0.0
C2151 C 0.95148 0.28521 0.37912 0.0
C2152 C 0.93658 0.27357 0.38805 0.0
C2153 C 0.89543 0.2378 0.41594 0.0
C2154 C 0.90904 0.25056 0.40581 0.0
H2155 H 0.97749 0.3235 0.38204 0.0
H2156 H 0.95278 0.30464 0.39599 0.0
H2157 H 0.92784 0.26017 0.35895 0.0
H2158 H 0.87878 0.19932 0.42244 0.0
H2159 H 0.89748 0.21975 0.4004 0.0
C2160 C 0.03326 0.38565 0.32251 0.0
C2161 C 0.02099 0.37088 0.31784 0.0
C2162 C 0.03328 0.39864 0.3153 0.0
C2163 C 0.01429 0.40988 0.27543 0.0
H2164 H 0.03051 0.44729 0.30927 0.0
C2165 C 0.00394 0.45688 0.24996 0.0
C2166 C 0.01728 0.47095 0.24641 0.0
C2167 C 0.00427 0.44585 0.26237 0.0
C2168 C 0.02596 0.43689 0.29971 0.0
H2169 H 0.99897 0.35817 0.30242 0.0
H2170 H 0.99878 0.38056 0.2905 0.0
H2171 H 0.03178 0.42548 0.32274 0.0
H2172 H 0.04107 0.48511 0.25471 0.0
H2173 H 0.04159 0.46579 0.27679 0.0
H2174 H 0.00824 0.4211 0.25261 0.0
C2175 C 0.00865 0.38226 0.29909 0.0
C2176 C 0.02677 0.42444 0.30731 0.0
C2177 C 0.00872 0.36937 0.30604 0.0
C2178 C 0.0306 0.4744 0.25734 0.0
C2179 C 0.03092 0.46332 0.26987 0.0
C2180 C 0.0133 0.42216 0.26804 0.0
C2181 C 0.02096 0.39709 0.30343 0.0
C2182 C 0.02081 0.41071 0.29531 0.0
C2183 C 0.01793 0.44867 0.27156 0.0
C2184 C 0.01898 0.43575 0.28013 0.0
H2185 H 0.04287 0.38717 0.33163 0.0
H2186 H 0.04303 0.40985 0.31878 0.0
H2187 H 0.01 0.39972 0.26541 0.0
H2188 H 0.99351 0.45398 0.2418 0.0
H2189 H 0.99403 0.43473 0.26373 0.0
C2190 C 0.64587 0.63647 0.30738 0.0
C2191 C 0.64178 0.64698 0.31467 0.0
C2192 C 0.63468 0.6214 0.30201 0.0
C2193 C 0.59316 0.59334 0.30873 0.0
H2194 H 0.59964 0.5718 0.26255 0.0
C2195 C 0.54681 0.54282 0.25872 0.0
C2196 C 0.54968 0.53128 0.25219 0.0
C2197 C 0.5573 0.55504 0.27151 0.0
C2198 C 0.59777 0.57757 0.27574 0.0
H2199 H 0.62289 0.65022 0.32125 0.0
H2200 H 0.60345 0.62434 0.31085 0.0
H2201 H 0.61976 0.59747 0.27269 0.0
H2202 H 0.56506 0.52278 0.25487 0.0
H2203 H 0.58348 0.54419 0.27722 0.0
H2204 H 0.57074 0.57361 0.31073 0.0
C2205 C 0.6152 0.62738 0.31009 0.0
C2206 C 0.60932 0.59232 0.28159 0.0
C2207 C 0.62636 0.64232 0.31582 0.0
C2208 C 0.56249 0.5314 0.26011 0.0
C2209 C 0.5731 0.54373 0.27263 0.0
C2210 C 0.58151 0.57867 0.3026 0.0
C2211 C 0.61916 0.6166 0.30347 0.0
C2212 C 0.60713 0.60052 0.298 0.0
C2213 C 0.57093 0.55601 0.27758 0.0
C2214 C 0.58367 0.57071 0.28594 0.0
H2215 H 0.65768 0.63973 0.30657 0.0
H2216 H 0.63822 0.61344 0.29723 0.0
H2217 H 0.59114 0.59908 0.32179 0.0
H2218 H 0.53717 0.5431 0.25236 0.0
H2219 H 0.5554 0.56439 0.27499 0.0
C2220 C 0.3659 0.99616 0.31185 0.0
C2221 C 0.35464 0.98388 0.32337 0.0
C2222 C 0.3789 0.99615 0.30528 0.0
C2223 C 0.39317 0.97081 0.29199 0.0
H2224 H 0.43264 0.00785 0.29757 0.0
C2225 C 0.44516 0.97326 0.25455 0.0
C2226 C 0.45401 0.98632 0.24238 0.0
C2227 C 0.43491 0.97305 0.26935 0.0
C2228 C 0.42171 0.99742 0.29581 0.0
H2229 H 0.34808 0.96188 0.33687 0.0
H2230 H 0.37072 0.96175 0.32496 0.0
H2231 H 0.41041 0.00707 0.31289 0.0
H2232 H 0.4602 0.0099 0.23777 0.0
H2233 H 0.44211 0.00944 0.26302 0.0
H2234 H 0.40418 0.96135 0.27406 0.0
C2235 C 0.36949 0.9714 0.32116 0.0
C2236 C 0.40899 0.99698 0.30461 0.0
C2237 C 0.35655 0.97148 0.32796 0.0
C2238 C 0.45337 0.99959 0.24669 0.0
C2239 C 0.44305 0.99935 0.26134 0.0
C2240 C 0.40585 0.97129 0.28301 0.0
C2241 C 0.38085 0.9838 0.3099 0.0
C2242 C 0.39455 0.98377 0.30242 0.0
C2243 C 0.43322 0.98586 0.27221 0.0
C2244 C 0.42025 0.98471 0.28442 0.0
H2245 H 0.3648 0.0059 0.30812 0.0
H2246 H 0.38736 0.00576 0.29635 0.0
H2247 H 0.38216 0.96051 0.28991 0.0
H2248 H 0.44535 0.96283 0.2516 0.0
H2249 H 0.42778 0.96259 0.27781 0.0
C2250 C 0.61386 0.97067 0.32522 0.0
C2251 C 0.62847 0.9834 0.32233 0.0
C2252 C 0.60108 0.9708 0.31771 0.0
C2253 C 0.59098 0.99099 0.27868 0.0
H2254 H 0.5524 0.97235 0.30772 0.0
C2255 C 0.54407 0.99883 0.24683 0.0
C2256 C 0.53064 0.985 0.24201 0.0
C2257 C 0.5547 0.9991 0.26077 0.0
C2258 C 0.56313 0.9776 0.29951 0.0
H2259 H 0.6411 0.00649 0.3103 0.0
H2260 H 0.61904 0.00691 0.29793 0.0
H2261 H 0.57379 0.9715 0.32343 0.0
H2262 H 0.51711 0.96093 0.24948 0.0
H2263 H 0.53575 0.96141 0.27403 0.0
H2264 H 0.58049 0.99715 0.25487 0.0
C2265 C 0.61734 0.99659 0.30524 0.0
C2266 C 0.57534 0.97704 0.30839 0.0
C2267 C 0.63002 0.99638 0.31244 0.0
C2268 C 0.52733 0.97177 0.25304 0.0
C2269 C 0.53802 0.97203 0.26703 0.0
C2270 C 0.57892 0.99169 0.27 0.0
C2271 C 0.60271 0.98372 0.30738 0.0
C2272 C 0.58945 0.98383 0.2981 0.0
C2273 C 0.55213 0.98554 0.27013 0.0
C2274 C 0.56489 0.9851 0.28032 0.0
H2275 H 0.61234 0.96053 0.33288 0.0
H2276 H 0.58999 0.96066 0.31952 0.0
H2277 H 0.60149 0.99594 0.26994 0.0
H2278 H 0.54681 0.00922 0.23866 0.0
H2279 H 0.56537 0.00974 0.26321 0.0
C2280 C 0.02158 0.6437 0.33005 0.0
C2281 C 0.01158 0.64848 0.32368 0.0
C2282 C 0.02001 0.63009 0.32208 0.0
C2283 C 0.9932 0.59286 0.29754 0.0
H2284 H 0.02968 0.59479 0.27676 0.0
C2285 C 0.99353 0.54656 0.24343 0.0
C2286 C 0.00658 0.54535 0.24324 0.0
C2287 C 0.99262 0.55706 0.25698 0.0
C2288 C 0.01941 0.59388 0.28294 0.0
H2289 H 0.99195 0.64264 0.30418 0.0
H2290 H 0.98919 0.61866 0.29016 0.0
H2291 H 0.03116 0.61761 0.29189 0.0
H2292 H 0.02804 0.55285 0.25918 0.0
H2293 H 0.02602 0.5704 0.28359 0.0
H2294 H 0.98142 0.56906 0.28852 0.0
C2295 C 0.99821 0.62551 0.30141 0.0
C2296 C 0.02027 0.60704 0.29147 0.0
C2297 C 0.99986 0.63927 0.30927 0.0
C2298 C 0.01782 0.55347 0.25874 0.0
C2299 C 0.0168 0.56378 0.27253 0.0
C2300 C 0.99234 0.57959 0.28915 0.0
C2301 C 0.00834 0.62086 0.30766 0.0
C2302 C 0.00719 0.60671 0.29876 0.0
C2303 C 0.00464 0.56639 0.27092 0.0
C2304 C 0.00545 0.57996 0.28165 0.0
H2305 H 0.03067 0.65049 0.34122 0.0
H2306 H 0.02789 0.62671 0.32733 0.0
H2307 H 0.98296 0.59226 0.30326 0.0
H2308 H 0.98448 0.54018 0.23202 0.0
H2309 H 0.98301 0.55864 0.25535 0.0
C2310 C 0.36512 0.35652 0.30561 0.0
C2311 C 0.35596 0.36078 0.31671 0.0
C2312 C 0.37931 0.3677 0.29808 0.0
C2313 C 0.40837 0.40941 0.30456 0.0
H2314 H 0.42372 0.40253 0.25202 0.0
C2315 C 0.45553 0.45644 0.25306 0.0
C2316 C 0.46643 0.4534 0.24472 0.0
C2317 C 0.44352 0.44545 0.26505 0.0
C2318 C 0.41965 0.40451 0.26687 0.0
H2319 H 0.35414 0.38003 0.32798 0.0
H2320 H 0.37843 0.39949 0.31397 0.0
H2321 H 0.39927 0.38263 0.26517 0.0
H2322 H 0.47374 0.43688 0.24288 0.0
H2323 H 0.45256 0.41751 0.26362 0.0
H2324 H 0.42852 0.43169 0.30546 0.0
C2325 C 0.37506 0.38757 0.31176 0.0
C2326 C 0.40564 0.39309 0.27447 0.0
C2327 C 0.36103 0.3764 0.31961 0.0
C2328 C 0.46559 0.43955 0.24945 0.0
C2329 C 0.45342 0.42844 0.26109 0.0
C2330 C 0.42225 0.42094 0.29673 0.0
C2331 C 0.38453 0.3834 0.30115 0.0
C2332 C 0.39972 0.3954 0.29336 0.0
C2333 C 0.44207 0.43114 0.26848 0.0
C2334 C 0.42799 0.41861 0.27778 0.0
H2335 H 0.36154 0.34454 0.30332 0.0
H2336 H 0.3863 0.36397 0.29028 0.0
H2337 H 0.40443 0.41152 0.31942 0.0
H2338 H 0.45588 0.46698 0.24936 0.0
H2339 H 0.43486 0.44777 0.27046 0.0
C2340 C 0.30623 0.28257 0.35997 0.0
C2341 C 0.31867 0.29755 0.36262 0.0
C2342 C 0.30733 0.26996 0.36601 0.0
C2343 C 0.3347 0.25762 0.37383 0.0
H2344 H 0.30677 0.22949 0.41503 0.0
C2345 C 0.34914 0.22064 0.42526 0.0
C2346 C 0.33741 0.20739 0.43451 0.0
C2347 C 0.34582 0.22943 0.41203 0.0
C2348 C 0.31448 0.23692 0.40308 0.0
H2349 H 0.34204 0.31104 0.37345 0.0
H2350 H 0.344 0.28908 0.38351 0.0
H2351 H 0.3026 0.24911 0.40072 0.0
H2352 H 0.3131 0.19221 0.43592 0.0
H2353 H 0.30723 0.20698 0.41177 0.0
H2354 H 0.34658 0.2455 0.37596 0.0
C2355 C 0.3334 0.28709 0.37691 0.0
C2356 C 0.3121 0.24825 0.39501 0.0
C2357 C 0.33221 0.29966 0.37132 0.0
C2358 C 0.32234 0.20237 0.42887 0.0
C2359 C 0.31901 0.21099 0.41532 0.0
C2360 C 0.33694 0.24612 0.38159 0.0
C2361 C 0.321 0.27212 0.3743 0.0
C2362 C 0.32241 0.25895 0.38074 0.0
C2363 C 0.33067 0.22505 0.40752 0.0
C2364 C 0.3271 0.23585 0.3968 0.0
H2365 H 0.29567 0.28061 0.35327 0.0
H2366 H 0.2976 0.25851 0.36389 0.0
H2367 H 0.34273 0.26564 0.36263 0.0
H2368 H 0.36084 0.22489 0.42969 0.0
H2369 H 0.35516 0.24021 0.40662 0.0
C2370 C 0.70858 0.02966 0.35616 0.0
C2371 C 0.69377 0.02344 0.36388 0.0
C2372 C 0.72011 0.04408 0.36309 0.0
C2373 C 0.72757 0.08048 0.38727 0.0
H2374 H 0.76585 0.08448 0.40328 0.0
C2375 C 0.77363 0.13016 0.43849 0.0
C2376 C 0.78865 0.13333 0.43701 0.0
C2377 C 0.76226 0.11898 0.4254 0.0
C2378 C 0.7554 0.08374 0.39839 0.0
H2379 H 0.67936 0.02744 0.38487 0.0
H2380 H 0.69966 0.05276 0.39715 0.0
H2381 H 0.74541 0.06003 0.39006 0.0
H2382 H 0.80379 0.12876 0.41846 0.0
H2383 H 0.7842 0.11005 0.39492 0.0
H2384 H 0.73759 0.10425 0.39585 0.0
C2385 C 0.70226 0.04646 0.3856 0.0
C2386 C 0.74362 0.06964 0.39096 0.0
C2387 C 0.6907 0.03193 0.37873 0.0
C2388 C 0.79237 0.12662 0.42023 0.0
C2389 C 0.78105 0.11564 0.40692 0.0
C2390 C 0.73944 0.09469 0.39461 0.0
C2391 C 0.71709 0.05265 0.37785 0.0
C2392 C 0.72955 0.06781 0.38544 0.0
C2393 C 0.76574 0.11095 0.41029 0.0
C2394 C 0.75349 0.09646 0.40039 0.0
H2395 H 0.71129 0.02344 0.34462 0.0
H2396 H 0.73138 0.04861 0.3567 0.0
H2397 H 0.71687 0.07942 0.3829 0.0
H2398 H 0.77044 0.13543 0.45091 0.0
H2399 H 0.75062 0.1158 0.42835 0.0
C2400 C 0.98094 0.69724 0.36398 0.0
C2401 C 0.9837 0.68518 0.36646 0.0
C2402 C 0.96702 0.69553 0.37013 0.0
C2403 C 0.93279 0.67008 0.4024 0.0
H2404 H 0.91515 0.69055 0.3732 0.0
C2405 C 0.87261 0.6558 0.42004 0.0
C2406 C 0.87295 0.66813 0.43091 0.0
C2407 C 0.88499 0.6582 0.40784 0.0
C2408 C 0.91997 0.68473 0.38134 0.0
H2409 H 0.97393 0.66173 0.37659 0.0
H2410 H 0.94965 0.65845 0.38622 0.0
H2411 H 0.9395 0.69409 0.3614 0.0
H2412 H 0.88571 0.69268 0.43625 0.0
H2413 H 0.90717 0.69697 0.41413 0.0
H2414 H 0.91306 0.66041 0.4219 0.0
C2415 C 0.9583 0.66951 0.38052 0.0
C2416 C 0.93398 0.68686 0.3748 0.0
C2417 C 0.97226 0.67135 0.37486 0.0
C2418 C 0.88514 0.68306 0.42771 0.0
C2419 C 0.8974 0.6855 0.41516 0.0
C2420 C 0.91871 0.66769 0.40855 0.0
C2421 C 0.95548 0.6816 0.37848 0.0
C2422 C 0.94061 0.67956 0.38528 0.0
C2423 C 0.89773 0.67299 0.40604 0.0
C2424 C 0.91218 0.67499 0.39813 0.0
H2425 H 0.98957 0.70803 0.3575 0.0
H2426 H 0.96541 0.70519 0.36856 0.0
H2427 H 0.93762 0.66462 0.41138 0.0
H2428 H 0.86346 0.64417 0.4226 0.0
H2429 H 0.88506 0.64839 0.40097 0.0
C2430 C 0.38905 0.03688 0.69411 0.0
C2431 C 0.37458 0.02373 0.69594 0.0
C2432 C 0.40195 0.03682 0.70111 0.0
C2433 C 0.41689 0.01171 0.70991 0.0
H2434 H 0.44276 0.04107 0.75297 0.0
C2435 C 0.45745 0.00216 0.76122 0.0
C2436 C 0.4699 0.01474 0.77115 0.0
C2437 C 0.44769 0.00429 0.74827 0.0
C2438 C 0.43598 0.033 0.74054 0.0
H2439 H 0.3623 1.00017 0.70627 0.0
H2440 H 0.38485 0.99999 0.71797 0.0
H2441 H 0.42207 0.04302 0.73784 0.0
H2442 H 0.48261 0.03944 0.77434 0.0
H2443 H 0.46624 0.04336 0.75058 0.0
H2444 H 0.43078 0.00176 0.71219 0.0
C2445 C 0.38618 0.01036 0.71131 0.0
C2446 C 0.42402 0.03409 0.73201 0.0
C2447 C 0.37328 0.01052 0.70477 0.0
C2448 C 0.47312 0.02958 0.76668 0.0
C2449 C 0.46355 0.03176 0.75336 0.0
C2450 C 0.42903 0.01079 0.71809 0.0
C2451 C 0.40062 0.0235 0.70956 0.0
C2452 C 0.41418 0.02326 0.71697 0.0
C2453 C 0.4503 0.01911 0.74473 0.0
C2454 C 0.43856 0.02121 0.73392 0.0
H2455 H 0.39038 0.04722 0.68735 0.0
H2456 H 0.41299 0.0471 0.69963 0.0
H2457 H 0.40952 0.00331 0.69813 0.0
H2458 H 0.45458 0.99059 0.76481 0.0
H2459 H 0.43758 0.99421 0.74225 0.0
C2460 C 0.98557 0.36369 0.68629 0.0
C2461 C 0.99177 0.3567 0.69832 0.0
C2462 C 0.98591 0.37685 0.69389 0.0
C2463 C 0.98729 0.39691 0.74286 0.0
H2464 H 1.00131 0.43278 0.70812 0.0
C2465 C 0.00907 0.46319 0.76057 0.0
C2466 C 0.99764 0.46124 0.77466 0.0
C2467 C 0.00693 0.45101 0.7474 0.0
C2468 C 0.9973 0.4228 0.71791 0.0
H2469 H 0.00317 0.35795 0.72773 0.0
H2470 H 0.00352 0.38084 0.74124 0.0
H2471 H 1.001 0.41004 0.69368 0.0
H2472 H 0.97451 0.44583 0.78442 0.0
H2473 H 0.97071 0.42463 0.7613 0.0
H2474 H 0.9837 0.40958 0.76714 0.0
C2475 C 0.99844 0.37614 0.72588 0.0
C2476 C 0.99708 0.40981 0.70967 0.0
C2477 C 0.99828 0.36308 0.71815 0.0
C2478 C 0.98352 0.44754 0.77377 0.0
C2479 C 0.9814 0.43541 0.76068 0.0
C2480 C 0.98731 0.40976 0.75097 0.0
C2481 C 0.99228 0.38315 0.7138 0.0
C2482 C 0.99222 0.39681 0.72217 0.0
C2483 C 0.99335 0.43676 0.74821 0.0
C2484 C 0.99238 0.42287 0.73864 0.0
H2485 H 0.98051 0.35905 0.67091 0.0
H2486 H 0.98098 0.38197 0.68436 0.0
H2487 H 0.98338 0.38701 0.75277 0.0
H2488 H 0.0201 0.4736 0.76111 0.0
H2489 H 0.01634 0.45235 0.73793 0.0
C2490 C 0.6385 0.64482 0.70972 0.0
C2491 C 0.64706 0.64027 0.69765 0.0
C2492 C 0.62397 0.63393 0.71661 0.0
C2493 C 0.59268 0.59375 0.70617 0.0
H2494 H 0.58053 0.59711 0.76313 0.0
C2495 C 0.54726 0.54318 0.75417 0.0
C2496 C 0.53931 0.54624 0.76969 0.0
C2497 C 0.55778 0.55494 0.74135 0.0
C2498 C 0.58358 0.59614 0.747 0.0
H2499 H 0.6473 0.62073 0.68374 0.0
H2500 H 0.62226 0.60178 0.69621 0.0
H2501 H 0.60471 0.61729 0.74986 0.0
H2502 H 0.53469 0.56337 0.78231 0.0
H2503 H 0.55283 0.58383 0.75965 0.0
H2504 H 0.57173 0.57225 0.70372 0.0
C2505 C 0.62651 0.61375 0.69991 0.0
C2506 C 0.59749 0.60773 0.73941 0.0
C2507 C 0.64095 0.62462 0.69294 0.0
C2508 C 0.54077 0.56076 0.77053 0.0
C2509 C 0.55125 0.5725 0.75772 0.0
C2510 C 0.57877 0.58211 0.71383 0.0
C2511 C 0.61775 0.61826 0.71165 0.0
C2512 C 0.60236 0.60656 0.71904 0.0
C2513 C 0.56048 0.56993 0.74385 0.0
C2514 C 0.57417 0.58306 0.73446 0.0
H2515 H 0.64287 0.65682 0.71346 0.0
H2516 H 0.6175 0.63783 0.7255 0.0
H2517 H 0.59593 0.59263 0.69024 0.0
H2518 H 0.54646 0.53214 0.75333 0.0
H2519 H 0.56471 0.55257 0.73084 0.0
C2520 C 0.69649 0.71677 0.6524 0.0
C2521 C 0.68488 0.70157 0.64832 0.0
C2522 C 0.69528 0.72902 0.64501 0.0
C2523 C 0.67374 0.73787 0.6062 0.0
H2524 H 0.68851 0.77512 0.64003 0.0
C2525 C 0.66025 0.78302 0.58152 0.0
C2526 C 0.67313 0.79753 0.57835 0.0
C2527 C 0.66125 0.77219 0.59353 0.0
C2528 C 0.68435 0.76477 0.63046 0.0
H2529 H 0.66285 0.68728 0.63349 0.0
H2530 H 0.66054 0.70846 0.62118 0.0
H2531 H 0.69153 0.75428 0.65307 0.0
H2532 H 0.69675 0.8126 0.58689 0.0
H2533 H 0.69845 0.79365 0.60825 0.0
H2534 H 0.66638 0.74823 0.58378 0.0
C2535 C 0.6708 0.71105 0.62953 0.0
C2536 C 0.68617 0.75287 0.63781 0.0
C2537 C 0.67209 0.69886 0.63667 0.0
C2538 C 0.68662 0.80154 0.58921 0.0
C2539 C 0.68761 0.79067 0.60134 0.0
C2540 C 0.67176 0.74963 0.59904 0.0
C2541 C 0.68236 0.72632 0.63356 0.0
C2542 C 0.68083 0.73923 0.62577 0.0
C2543 C 0.67513 0.77566 0.60269 0.0
C2544 C 0.67697 0.76317 0.61109 0.0
H2545 H 0.70648 0.71921 0.66137 0.0
H2546 H 0.70451 0.7406 0.64817 0.0
H2547 H 0.66984 0.72777 0.59619 0.0
H2548 H 0.64968 0.7797 0.57346 0.0
H2549 H 0.65137 0.76079 0.59467 0.0
C2550 C 0.31526 0.97324 0.64043 0.0
C2551 C 0.3111 0.9831 0.64998 0.0
C2552 C 0.30416 0.9584 0.63396 0.0
C2553 C 0.26292 0.92932 0.64088 0.0
H2554 H 0.26921 0.91066 0.59094 0.0
C2555 C 0.21617 0.87998 0.58955 0.0
C2556 C 0.21908 0.8687 0.58189 0.0
C2557 C 0.22693 0.89216 0.60213 0.0
C2558 C 0.2674 0.91563 0.60512 0.0
H2559 H 0.29211 0.98545 0.65953 0.0
H2560 H 0.27276 0.96001 0.64724 0.0
H2561 H 0.2891 0.93602 0.60272 0.0
H2562 H 0.235 0.86076 0.58204 0.0
H2563 H 0.25396 0.88221 0.6039 0.0
H2564 H 0.24079 0.90913 0.64232 0.0
C2565 C 0.28455 0.96335 0.64551 0.0
C2566 C 0.27882 0.9302 0.61193 0.0
C2567 C 0.29565 0.97804 0.65234 0.0
C2568 C 0.23242 0.86919 0.58814 0.0
C2569 C 0.24331 0.88152 0.6004 0.0
C2570 C 0.2514 0.91486 0.6338 0.0
C2571 C 0.28863 0.9532 0.63653 0.0
C2572 C 0.2767 0.93734 0.6298 0.0
C2573 C 0.24088 0.8934 0.60682 0.0
C2574 C 0.2535 0.90794 0.61578 0.0
H2575 H 0.32711 0.97679 0.63862 0.0
H2576 H 0.30782 0.95092 0.6274 0.0
H2577 H 0.26096 0.93421 0.65501 0.0
H2578 H 0.20607 0.87994 0.58453 0.0
H2579 H 0.22483 0.90123 0.60675 0.0
C2580 C 0.03625 0.33506 0.65087 0.0
C2581 C 0.02532 0.32244 0.66226 0.0
C2582 C 0.05002 0.33631 0.64546 0.0
C2583 C 0.06712 0.31324 0.63437 0.0
H2584 H 0.10484 0.35239 0.63741 0.0
C2585 C 0.12047 0.31972 0.59565 0.0
C2586 C 0.12805 0.3325 0.58254 0.0
C2587 C 0.11015 0.31898 0.61077 0.0
C2588 C 0.09441 0.34138 0.6364 0.0
H2589 H 0.02029 0.30127 0.67703 0.0
H2590 H 0.04437 0.30333 0.66717 0.0
H2591 H 0.08193 0.34985 0.65311 0.0
H2592 H 0.13192 0.35515 0.57654 0.0
H2593 H 0.11369 0.35372 0.60237 0.0
H2594 H 0.07926 0.30491 0.61675 0.0
C2595 C 0.04224 0.31227 0.66255 0.0
C2596 C 0.0813 0.33993 0.64543 0.0
C2597 C 0.02848 0.31111 0.66821 0.0
C2598 C 0.12609 0.34506 0.58619 0.0
C2599 C 0.1157 0.34427 0.60117 0.0
C2600 C 0.08019 0.31472 0.62518 0.0
C2601 C 0.05315 0.32491 0.65112 0.0
C2602 C 0.06744 0.32594 0.64406 0.0
C2603 C 0.10712 0.33095 0.61302 0.0
C2604 C 0.09393 0.3289 0.62564 0.0
H2605 H 0.03419 0.34402 0.64611 0.0
H2606 H 0.05809 0.34605 0.63637 0.0
H2607 H 0.05657 0.30236 0.63288 0.0
H2608 H 0.12165 0.30981 0.59325 0.0
H2609 H 0.10401 0.3087 0.61997 0.0
C2610 C 0.28325 0.30638 0.66302 0.0
C2611 C 0.29789 0.31837 0.65804 0.0
C2612 C 0.27048 0.30718 0.65737 0.0
C2613 C 0.25881 0.33478 0.64327 0.0
H2614 H 0.22605 0.30073 0.61221 0.0
C2615 C 0.21971 0.34173 0.58589 0.0
C2616 C 0.20504 0.32929 0.58173 0.0
C2617 C 0.2292 0.34041 0.60037 0.0
C2618 C 0.23488 0.31023 0.62132 0.0
H2619 H 0.31061 0.34057 0.64332 0.0
H2620 H 0.28847 0.34193 0.63358 0.0
H2621 H 0.24626 0.29794 0.62735 0.0
H2622 H 0.18836 0.30619 0.59088 0.0
H2623 H 0.20476 0.30407 0.6167 0.0
H2624 H 0.24764 0.3472 0.63691 0.0
C2625 C 0.28681 0.33199 0.64195 0.0
C2626 C 0.2465 0.30863 0.62992 0.0
C2627 C 0.2995 0.33112 0.64737 0.0
C2628 C 0.19959 0.31601 0.59377 0.0
C2629 C 0.20907 0.31471 0.60835 0.0
C2630 C 0.24713 0.33635 0.63481 0.0
C2631 C 0.27217 0.32007 0.64692 0.0
C2632 C 0.25881 0.32103 0.64044 0.0
C2633 C 0.2242 0.32665 0.61114 0.0
C2634 C 0.23524 0.32425 0.62319 0.0
H2635 H 0.28166 0.29643 0.67129 0.0
H2636 H 0.25931 0.29782 0.66138 0.0
H2637 H 0.26804 0.34445 0.65163 0.0
H2638 H 0.22417 0.35217 0.577 0.0
H2639 H 0.24078 0.34985 0.602 0.0
C2640 C 0.66721 0.97085 0.63545 0.0
C2641 C 0.67262 0.97677 0.65582 0.0
C2642 C 0.66364 0.95596 0.62988 0.0
C2643 C 0.67043 0.92507 0.64782 0.0
H2644 H 0.6414 0.902 0.60322 0.0
C2645 C 0.64604 0.86693 0.59052 0.0
C2646 C 0.66011 0.86822 0.58652 0.0
C2647 C 0.64505 0.87718 0.60454 0.0
C2648 C 0.64929 0.90803 0.61609 0.0
H2649 H 0.67782 0.97163 0.68669 0.0
H2650 H 0.67083 0.94555 0.6775 0.0
H2651 H 0.64405 0.92584 0.61609 0.0
H2652 H 0.68383 0.88019 0.59553 0.0
H2653 H 0.68229 0.89816 0.61943 0.0
H2654 H 0.67527 0.907 0.64837 0.0
C2655 C 0.66999 0.95246 0.66536 0.0
C2656 C 0.65106 0.92197 0.62317 0.0
C2657 C 0.67393 0.96743 0.67071 0.0
C2658 C 0.67279 0.8788 0.5985 0.0
C2659 C 0.67188 0.88919 0.61222 0.0
C2660 C 0.66841 0.91098 0.64108 0.0
C2661 C 0.66505 0.94655 0.64476 0.0
C2662 C 0.66199 0.93094 0.63868 0.0
C2663 C 0.65817 0.88909 0.61452 0.0
C2664 C 0.65819 0.90249 0.62461 0.0
H2665 H 0.66611 0.97786 0.6237 0.0
H2666 H 0.66014 0.952 0.61374 0.0
H2667 H 0.67907 0.93158 0.65966 0.0
H2668 H 0.63608 0.85883 0.58148 0.0
H2669 H 0.63419 0.87639 0.60644 0.0
C2670 C 0.03189 0.69403 0.63677 0.0
C2671 C 0.02241 0.69809 0.64749 0.0
C2672 C 0.04615 0.70539 0.62966 0.0
C2673 C 0.06761 0.74552 0.61417 0.0
H2674 H 0.10337 0.74346 0.62742 0.0
C2675 C 0.12586 0.79406 0.5893 0.0
C2676 C 0.13547 0.7896 0.58011 0.0
C2677 C 0.11331 0.78366 0.60102 0.0
C2678 C 0.0935 0.74416 0.62342 0.0
H2679 H 0.02022 0.71714 0.65872 0.0
H2680 H 0.04491 0.73691 0.64587 0.0
H2681 H 0.07845 0.72316 0.63905 0.0
H2682 H 0.14009 0.77119 0.57662 0.0
H2683 H 0.11802 0.75284 0.5966 0.0
H2684 H 0.08234 0.76609 0.5979 0.0
C2685 C 0.04139 0.72499 0.64312 0.0
C2686 C 0.07924 0.73252 0.63009 0.0
C2687 C 0.02727 0.71367 0.65049 0.0
C2688 C 0.13296 0.77494 0.58395 0.0
C2689 C 0.12026 0.76442 0.59536 0.0
C2690 C 0.0818 0.75703 0.60728 0.0
C2691 C 0.05105 0.72098 0.63284 0.0
C2692 C 0.06617 0.73311 0.62553 0.0
C2693 C 0.10991 0.76846 0.60328 0.0
C2694 C 0.09497 0.75655 0.61183 0.0
H2695 H 0.02845 0.6821 0.63434 0.0
H2696 H 0.05333 0.702 0.6216 0.0
H2697 H 0.0577 0.74616 0.61023 0.0
H2698 H 0.12754 0.8053 0.58634 0.0
H2699 H 0.10587 0.78734 0.60739 0.0
C2700 C 0.97434 0.62093 0.69466 0.0
C2701 C 0.98632 0.63619 0.69666 0.0
C2702 C 0.97586 0.60895 0.7025 0.0
C2703 C 1.0003 0.60185 0.73876 0.0
H2704 H 0.98037 0.56185 0.711 0.0
C2705 C 0.01201 0.55518 0.7648 0.0
C2706 C 0.99888 0.54193 0.77156 0.0
C2707 C 0.01085 0.5658 0.75239 0.0
C2708 C 0.98602 0.573 0.71883 0.0
H2709 H 0.00941 0.65082 0.70796 0.0
H2710 H 0.01231 0.63014 0.72071 0.0
H2711 H 0.97743 0.58236 0.69656 0.0
H2712 H 0.97437 0.5288 0.76956 0.0
H2713 H 0.97236 0.54714 0.74721 0.0
H2714 H 0.00911 0.59253 0.76074 0.0
C2715 C 1.00149 0.62729 0.7139 0.0
C2716 C 0.98424 0.58473 0.71072 0.0
C2717 C 0.99986 0.63921 0.70645 0.0
C2718 C 0.98465 0.53887 0.76431 0.0
C2719 C 0.98351 0.54936 0.75159 0.0
C2720 C 1.00229 0.59024 0.74658 0.0
C2721 C 0.9895 0.61197 0.71219 0.0
C2722 C 0.99132 0.59934 0.72063 0.0
C2723 C 0.99656 0.56323 0.74628 0.0
C2724 C 0.99515 0.57569 0.73677 0.0
H2725 H 0.96376 0.61825 0.68717 0.0
H2726 H 0.96627 0.59737 0.70113 0.0
H2727 H 0.00562 0.61273 0.74726 0.0
H2728 H 0.02308 0.55789 0.77046 0.0
H2729 H 0.02109 0.57638 0.7484 0.0
C2730 C 0.37749 0.36293 0.69504 0.0
C2731 C 0.36227 0.35684 0.70075 0.0
C2732 C 0.38855 0.37766 0.70173 0.0
C2733 C 0.39598 0.40818 0.74114 0.0
H2734 H 0.42981 0.43293 0.70416 0.0
C2735 C 0.44333 0.46679 0.7693 0.0
C2736 C 0.45737 0.4675 0.76959 0.0
C2737 C 0.43143 0.45585 0.75667 0.0
C2738 C 0.42037 0.42617 0.71457 0.0
H2739 H 0.34663 0.36128 0.71803 0.0
H2740 H 0.36586 0.38718 0.72937 0.0
H2741 H 0.40914 0.40806 0.69157 0.0
H2742 H 0.47048 0.45855 0.75507 0.0
H2743 H 0.44981 0.4397 0.73269 0.0
H2744 H 0.40728 0.42625 0.76416 0.0
C2745 C 0.36936 0.38049 0.72006 0.0
C2746 C 0.40859 0.41187 0.70747 0.0
C2747 C 0.35832 0.36565 0.71357 0.0
C2748 C 0.45983 0.45835 0.75512 0.0
C2749 C 0.44795 0.44749 0.74235 0.0
C2750 C 0.40765 0.42254 0.74812 0.0
C2751 C 0.3846 0.38674 0.71406 0.0
C2752 C 0.39643 0.40253 0.72087 0.0
C2753 C 0.43343 0.44557 0.74393 0.0
C2754 C 0.42011 0.43154 0.73507 0.0
H2755 H 0.38088 0.35635 0.68525 0.0
H2756 H 0.4002 0.38189 0.69728 0.0
H2757 H 0.38694 0.40127 0.75202 0.0
H2758 H 0.4412 0.47387 0.78009 0.0
H2759 H 0.42041 0.45479 0.75787 0.0
C2760 C 0.63729 0.00499 0.70036 0.0
C2761 C 0.6499 0.01861 0.69341 0.0
C2762 C 0.62418 0.00471 0.70686 0.0
C2763 C 0.6046 0.02729 0.70756 0.0
H2764 H 0.58224 0.99937 0.7527 0.0
C2765 C 0.56033 0.0277 0.76607 0.0
C2766 C 0.54708 0.01339 0.76886 0.0
C2767 C 0.57166 0.02908 0.75232 0.0
C2768 C 0.58827 0.00709 0.73991 0.0
H2769 H 0.6587 0.04263 0.68757 0.0
H2770 H 0.63601 0.04243 0.70016 0.0
H2771 H 0.60503 1.00072 0.73937 0.0
H2772 H 0.53477 0.98961 0.7585 0.0
H2773 H 0.5547 0.99198 0.73476 0.0
H2774 H 0.58804 0.03426 0.70945 0.0
C2775 C 0.63604 0.0318 0.69996 0.0
C2776 C 0.60134 0.00784 0.73213 0.0
C2777 C 0.64911 0.03198 0.69291 0.0
C2778 C 0.54478 1.0008 0.75641 0.0
C2779 C 0.55621 0.00212 0.74297 0.0
C2780 C 0.59164 0.02678 0.71577 0.0
C2781 C 0.62342 0.01815 0.70721 0.0
C2782 C 0.60964 0.01781 0.71566 0.0
C2783 C 0.56997 0.01612 0.74149 0.0
C2784 C 0.58331 0.01654 0.73185 0.0
H2785 H 0.63746 0.99443 0.70051 0.0
H2786 H 0.6146 0.99384 0.71157 0.0
H2787 H 0.61055 0.03501 0.69477 0.0
H2788 H 0.56238 0.03753 0.77566 0.0
H2789 H 0.58222 0.03996 0.75153 0.0
loop_
_geom_bond_atom_site_label_1
_geom_bond_atom_site_label_2
_geom_bond_distance
_geom_bond_site_symmetry_2
_ccdc_geom_bond_type
Co0 O1 2.216 . S
Co0 O2 2.091 . S
Co0 O4 2.004 1_554 S
Co0 O10 2.021 . S
Co0 O12 2.137 1_454 S
Co0 O13 2.244 1_455 S
O1 Co0 2.216 . S
O1 C8 1.247 . S
O2 Co0 2.091 . S
O2 C8 1.261 . S
C3 O12 1.247 . S
C3 O13 1.272 1_556 S
O4 Co0 2.004 1_556 S
O4 C9 1.212 1_455 S
Co5 O6 2.061 1_554 S
Co5 O11 2.052 . S
Co5 O13 2.135 . S
O6 Co5 2.061 1_556 S
O6 C9 1.281 . S
C7 O10 1.238 1_655 S
C7 O11 1.241 . S
C8 O1 1.247 . S
C8 O2 1.261 . S
C9 O4 1.212 1_655 S
C9 O6 1.281 . S
O10 Co0 2.021 . S
O10 C7 1.238 1_455 S
O11 Co5 2.052 . S
O11 C7 1.241 . S
O12 Co0 2.137 1_656 S
O12 C3 1.247 . S
O13 Co0 2.244 1_655 S
O13 C3 1.272 1_554 S
O13 Co5 2.135 . S
Co14 O15 2.216 1_554 S
Co14 O16 2.091 . S
Co14 O18 2.004 . S
Co14 O24 2.021 1_554 S
Co14 O26 2.137 . S
Co14 O27 2.244 . S
O15 Co14 2.216 1_556 S
O15 C22 1.247 . S
O16 Co14 2.091 . S
O16 C22 1.261 1_554 S
C17 O26 1.247 . S
C17 O27 1.272 . S
O18 Co14 2.004 . S
O18 C23 1.259 . S
Co19 O20 2.061 . S
Co19 O25 2.052 1_554 S
Co19 O27 2.135 . S
O20 Co19 2.061 . S
O20 C23 1.235 . S
C21 O24 1.238 . S
C21 O25 1.241 . S
C22 O15 1.247 . S
C22 O16 1.261 1_556 S
C23 O18 1.259 . S
C23 O20 1.235 . S
O24 Co14 2.021 1_556 S
O24 C21 1.238 . S
O25 Co19 2.052 1_556 S
O25 C21 1.241 . S
O26 Co14 2.137 . S
O26 C17 1.247 . S
O27 Co14 2.244 . S
O27 C17 1.272 . S
O27 Co19 2.135 . S
Co28 O29 2.216 1_554 S
Co28 O30 2.091 . S
Co28 O32 2.004 . S
Co28 O38 2.021 1_554 S
Co28 O40 2.137 1_545 S
Co28 O41 2.244 1_545 S
O29 Co28 2.216 1_556 S
O29 C36 1.247 . S
O30 Co28 2.091 . S
O30 C36 1.261 1_554 S
C31 O40 1.247 . S
C31 O41 1.272 . S
O32 Co28 2.004 . S
O32 C37 1.259 . S
Co33 O34 2.061 . S
Co33 O39 2.052 1_554 S
Co33 O41 2.135 . S
O34 Co33 2.061 . S
O34 C37 1.235 1_565 S
C35 O38 1.188 1_565 S
C35 O39 1.290 . S
C36 O29 1.247 . S
C36 O30 1.261 1_556 S
C37 O32 1.259 . S
C37 O34 1.235 1_545 S
O38 Co28 2.021 1_556 S
O38 C35 1.188 1_545 S
O39 Co33 2.052 1_556 S
O39 C35 1.290 . S
O40 Co28 2.137 1_565 S
O40 C31 1.247 . S
O41 Co28 2.244 1_565 S
O41 C31 1.272 . S
O41 Co33 2.135 . S
Co42 O43 2.216 1_554 S
Co42 O44 2.091 . S
Co42 O46 2.004 . S
Co42 O52 2.021 1_554 S
Co42 O54 2.137 1_655 S
Co42 O55 2.244 1_655 S
O43 Co42 2.216 1_556 S
O43 C50 1.247 . S
O44 Co42 2.091 . S
O44 C50 1.261 1_554 S
C45 O54 1.247 . S
C45 O55 1.272 . S
O46 Co42 2.004 . S
O46 C51 1.259 1_655 S
Co47 O48 2.061 . S
Co47 O53 2.052 1_554 S
Co47 O55 2.135 . S
O48 Co47 2.061 . S
O48 C51 1.235 . S
C49 O52 1.238 1_455 S
C49 O53 1.241 . S
C50 O43 1.247 . S
C50 O44 1.261 1_556 S
C51 O46 1.259 1_455 S
C51 O48 1.235 . S
O52 Co42 2.021 1_556 S
O52 C49 1.238 1_655 S
O53 Co47 2.052 1_556 S
O53 C49 1.241 . S
O54 Co42 2.137 1_455 S
O54 C45 1.247 . S
O55 Co42 2.244 1_455 S
O55 C45 1.272 . S
O55 Co47 2.135 . S
Co56 O57 2.216 . S
Co56 O58 2.091 . S
Co56 O60 2.004 1_554 S
Co56 O66 2.021 . S
Co56 O68 2.137 1_554 S
Co56 O69 2.244 . S
O57 Co56 2.216 . S
O57 C64 1.247 . S
O58 Co56 2.091 . S
O58 C64 1.261 . S
C59 O68 1.247 . S
C59 O69 1.272 1_556 S
O60 Co56 2.004 1_556 S
O60 C65 1.259 . S
Co61 O62 2.061 1_554 S
Co61 O67 2.052 . S
Co61 O69 2.135 . S
O62 Co61 2.061 1_556 S
O62 C65 1.235 . S
C63 O66 1.238 . S
C63 O67 1.241 . S
C64 O57 1.247 . S
C64 O58 1.261 . S
C65 O60 1.259 . S
C65 O62 1.235 . S
O66 Co56 2.021 . S
O66 C63 1.238 . S
O67 Co61 2.052 . S
O67 C63 1.241 . S
O68 Co56 2.137 1_556 S
O68 C59 1.247 . S
O69 Co56 2.244 . S
O69 C59 1.272 1_554 S
O69 Co61 2.135 . S
Co70 O71 2.216 . S
Co70 O72 2.091 . S
Co70 O74 2.004 1_554 S
Co70 O80 2.021 . S
Co70 O82 2.137 1_564 S
Co70 O83 2.244 1_565 S
O71 Co70 2.216 . S
O71 C78 1.247 . S
O72 Co70 2.091 . S
O72 C78 1.261 . S
C73 O82 1.247 . S
C73 O83 1.272 1_556 S
O74 Co70 2.004 1_556 S
O74 C79 1.259 1_565 S
Co75 O76 2.061 1_554 S
Co75 O81 2.052 . S
Co75 O83 2.135 . S
O76 Co75 2.061 1_556 S
O76 C79 1.235 . S
C77 O80 1.238 1_545 S
C77 O81 1.241 . S
C78 O71 1.247 . S
C78 O72 1.261 . S
C79 O74 1.259 1_545 S
C79 O76 1.235 . S
O80 Co70 2.021 . S
O80 C77 1.238 1_565 S
O81 Co75 2.052 . S
O81 C77 1.241 . S
O82 Co70 2.137 1_546 S
O82 C73 1.247 . S
O83 Co70 2.244 1_545 S
O83 C73 1.272 1_554 S
O83 Co75 2.135 . S
Co84 O85 2.216 . S
Co84 O86 2.091 . S
Co84 O88 2.004 . S
Co84 O94 2.021 . S
Co84 O96 2.137 . S
Co84 O97 2.244 . S
O85 Co84 2.216 . S
O85 C92 1.247 . S
O86 Co84 2.091 . S
O86 C92 1.261 . S
C87 O96 1.247 . S
C87 O97 1.272 . S
O88 Co84 2.004 . S
O88 C93 1.259 . S
Co89 O90 2.061 . S
Co89 O95 2.052 . S
Co89 O97 2.135 . S
O90 Co89 2.061 . S
O90 C93 1.235 . S
C91 O94 1.238 . S
C91 O95 1.241 . S
C92 O85 1.247 . S
C92 O86 1.261 . S
C93 O88 1.259 . S
C93 O90 1.235 . S
O94 Co84 2.021 . S
O94 C91 1.238 . S
O95 Co89 2.052 . S
O95 C91 1.241 . S
O96 Co84 2.137 . S
O96 C87 1.247 . S
O97 Co84 2.244 . S
O97 C87 1.272 . S
O97 Co89 2.135 . S
Co98 O99 2.216 . S
Co98 O100 2.091 . S
Co98 O102 2.004 . S
Co98 O108 2.021 . S
Co98 O110 2.137 1_565 S
Co98 O111 2.284 . S
O99 Co98 2.216 . S
O99 C106 1.247 . S
O100 Co98 2.091 . S
O100 C106 1.261 . S
C101 O110 1.247 . S
C101 O111 1.263 1_545 S
O102 Co98 2.004 . S
O102 C107 1.259 . S
Co103 O104 2.061 . S
Co103 O109 2.052 . S
Co103 O111 2.140 . S
O104 Co103 2.061 . S
O104 C107 1.235 . S
C105 O108 1.238 . S
C105 O109 1.241 . S
C106 O99 1.247 . S
C106 O100 1.261 . S
C107 O102 1.259 . S
C107 O104 1.235 . S
O108 Co98 2.021 . S
O108 C105 1.238 . S
O109 Co103 2.052 . S
O109 C105 1.241 . S
O110 Co98 2.137 1_545 S
O110 C101 1.247 . S
O111 Co98 2.284 . S
O111 C101 1.263 1_565 S
O111 Co103 2.140 . S
Co112 O113 2.216 . S
Co112 O114 2.091 . S
Co112 O116 2.004 . S
Co112 O122 2.021 . S
Co112 O124 2.119 1_455 S
Co112 O125 2.244 . S
O113 Co112 2.216 . S
O113 C120 1.247 . S
O114 Co112 2.091 . S
O114 C120 1.261 . S
C115 O124 1.241 . S
C115 O125 1.272 1_655 S
O116 Co112 2.004 . S
O116 C121 1.259 . S
Co117 O118 2.061 . S
Co117 O123 2.052 . S
Co117 O125 2.135 . S
O118 Co117 2.061 . S
O118 C121 1.235 . S
C119 O122 1.238 . S
C119 O123 1.241 . S
C120 O113 1.247 . S
C120 O114 1.261 . S
C121 O116 1.259 . S
C121 O118 1.235 . S
O122 Co112 2.021 . S
O122 C119 1.238 . S
O123 Co117 2.052 . S
O123 C119 1.241 . S
O124 Co112 2.119 1_655 S
O124 C115 1.241 . S
O125 Co112 2.244 . S
O125 C115 1.272 1_455 S
O125 Co117 2.135 . S
Co126 O127 2.216 . S
Co126 O128 2.091 . S
Co126 O130 2.004 . S
Co126 O136 2.021 . S
Co126 O138 2.137 1_565 S
Co126 O139 2.246 . S
O127 Co126 2.216 . S
O127 C134 1.247 . S
O128 Co126 2.091 . S
O128 C134 1.261 . S
C129 O138 1.247 . S
C129 O139 1.259 1_545 S
O130 Co126 2.004 . S
O130 C135 1.259 . S
Co131 O132 2.061 . S
Co131 O137 2.052 . S
Co131 O139 2.149 . S
O132 Co131 2.061 . S
O132 C135 1.235 . S
C133 O136 1.238 . S
C133 O137 1.241 . S
C134 O127 1.247 . S
C134 O128 1.261 . S
C135 O130 1.259 . S
C135 O132 1.235 . S
O136 Co126 2.021 . S
O136 C133 1.238 . S
O137 Co131 2.052 . S
O137 C133 1.241 . S
O138 Co126 2.137 1_545 S
O138 C129 1.247 . S
O139 Co126 2.246 . S
O139 C129 1.259 1_565 S
O139 Co131 2.149 . S
Co140 O141 2.216 1_455 S
Co140 O142 2.091 1_455 S
Co140 O144 2.004 . S
Co140 O150 2.021 . S
Co140 O152 2.138 . S
Co140 O153 2.244 . S
O141 Co140 2.216 1_655 S
O141 C148 1.247 . S
O142 Co140 2.091 1_655 S
O142 C148 1.261 . S
C143 O152 1.262 . S
C143 O153 1.272 . S
O144 Co140 2.004 . S
O144 C149 1.259 . S
Co145 O146 2.061 . S
Co145 O151 2.052 . S
Co145 O153 2.135 . S
O146 Co145 2.061 . S
O146 C149 1.235 . S
C147 O150 1.238 . S
C147 O151 1.241 . S
C148 O141 1.247 . S
C148 O142 1.261 . S
C149 O144 1.259 . S
C149 O146 1.235 . S
O150 Co140 2.021 . S
O150 C147 1.238 . S
O151 Co145 2.052 . S
O151 C147 1.241 . S
O152 Co140 2.138 . S
O152 C143 1.262 . S
O153 Co140 2.244 . S
O153 C143 1.272 . S
O153 Co145 2.135 . S
Co154 O155 2.216 . S
Co154 O156 2.091 . S
Co154 O158 2.004 . S
Co154 O164 2.021 . S
Co154 O166 2.137 . S
Co154 O167 2.244 . S
O155 Co154 2.216 . S
O155 C162 1.247 . S
O156 Co154 2.091 . S
O156 C162 1.261 . S
C157 O166 1.247 . S
C157 O167 1.272 . S
O158 Co154 2.004 . S
O158 C163 1.259 . S
Co159 O160 2.061 . S
Co159 O165 2.052 . S
Co159 O167 2.135 . S
O160 Co159 2.061 . S
O160 C163 1.235 . S
C161 O164 1.238 . S
C161 O165 1.241 . S
C162 O155 1.247 . S
C162 O156 1.261 . S
C163 O158 1.259 . S
C163 O160 1.235 . S
O164 Co154 2.021 . S
O164 C161 1.238 . S
O165 Co159 2.052 . S
O165 C161 1.241 . S
O166 Co154 2.137 . S
O166 C157 1.247 . S
O167 Co154 2.244 . S
O167 C157 1.272 . S
O167 Co159 2.135 . S
Co168 O169 2.216 . S
Co168 O170 2.091 . S
Co168 O172 2.004 . S
Co168 O178 2.021 . S
Co168 O180 2.137 1_545 S
Co168 O181 2.244 . S
O169 Co168 2.216 . S
O169 C176 1.247 . S
O170 Co168 2.091 . S
O170 C176 1.261 . S
C171 O180 1.247 . S
C171 O181 1.272 1_565 S
O172 Co168 2.004 . S
O172 C177 1.259 . S
Co173 O174 2.061 . S
Co173 O179 2.052 . S
Co173 O181 2.135 . S
O174 Co173 2.061 . S
O174 C177 1.235 . S
C175 O178 1.238 . S
C175 O179 1.241 . S
C176 O169 1.247 . S
C176 O170 1.261 . S
C177 O172 1.259 . S
C177 O174 1.235 . S
O178 Co168 2.021 . S
O178 C175 1.238 . S
O179 Co173 2.052 . S
O179 C175 1.241 . S
O180 Co168 2.137 1_565 S
O180 C171 1.247 . S
O181 Co168 2.244 . S
O181 C171 1.272 1_545 S
O181 Co173 2.135 . S
Co182 O183 2.216 1_655 S
Co182 O184 2.091 1_655 S
Co182 O186 2.004 . S
Co182 O192 2.021 . S
Co182 O194 2.137 . S
Co182 O195 2.244 . S
O183 Co182 2.216 1_455 S
O183 C190 1.247 . S
O184 Co182 2.091 1_455 S
O184 C190 1.261 . S
C185 O194 1.245 . S
C185 O195 1.272 . S
O186 Co182 2.004 . S
O186 C191 1.259 . S
Co187 O188 2.061 . S
Co187 O193 2.052 . S
Co187 O195 2.135 . S
O188 Co187 2.061 . S
O188 C191 1.235 . S
C189 O192 1.238 . S
C189 O193 1.241 . S
C190 O183 1.247 . S
C190 O184 1.261 . S
C191 O186 1.259 . S
C191 O188 1.235 . S
O192 Co182 2.021 . S
O192 C189 1.238 . S
O193 Co187 2.052 . S
O193 C189 1.241 . S
O194 Co182 2.137 . S
O194 C185 1.245 . S
O195 Co182 2.244 . S
O195 C185 1.272 . S
O195 Co187 2.135 . S
Co196 O197 2.216 . S
Co196 O198 2.091 . S
Co196 O200 2.004 . S
Co196 O206 2.021 . S
Co196 O208 2.137 . S
Co196 O209 2.244 . S
O197 Co196 2.216 . S
O197 C204 1.247 . S
O198 Co196 2.091 . S
O198 C204 1.261 . S
C199 O208 1.247 . S
C199 O209 1.272 . S
O200 Co196 2.004 . S
O200 C205 1.259 . S
Co201 O202 2.061 . S
Co201 O207 2.052 . S
Co201 O209 2.135 . S
O202 Co201 2.061 . S
O202 C205 1.235 . S
C203 O206 1.238 . S
C203 O207 1.241 . S
C204 O197 1.247 . S
C204 O198 1.261 . S
C205 O200 1.259 . S
C205 O202 1.235 . S
O206 Co196 2.021 . S
O206 C203 1.238 . S
O207 Co201 2.052 . S
O207 C203 1.241 . S
O208 Co196 2.137 . S
O208 C199 1.247 . S
O209 Co196 2.244 . S
O209 C199 1.272 . S
O209 Co201 2.135 . S
Co210 O211 2.216 . S
Co210 O212 2.091 . S
Co210 O214 2.004 . S
Co210 O220 2.021 . S
Co210 O222 2.137 . S
Co210 O223 2.244 . S
O211 Co210 2.216 . S
O211 C218 1.247 . S
O212 Co210 2.091 . S
O212 C218 1.261 . S
C213 O222 1.247 . S
C213 O223 1.272 . S
O214 Co210 2.004 . S
O214 C219 1.259 . S
Co215 O216 2.061 . S
Co215 O221 2.052 . S
Co215 O223 2.135 . S
O216 Co215 2.061 . S
O216 C219 1.235 . S
C217 O220 1.238 . S
C217 O221 1.241 . S
C218 O211 1.247 . S
C218 O212 1.261 . S
C219 O214 1.259 . S
C219 O216 1.235 . S
O220 Co210 2.021 . S
O220 C217 1.238 . S
O221 Co215 2.052 . S
O221 C217 1.241 . S
O222 Co210 2.137 . S
O222 C213 1.247 . S
O223 Co210 2.244 . S
O223 C213 1.272 . S
O223 Co215 2.135 . S
Co224 O225 2.216 . S
Co224 O226 2.091 . S
Co224 O228 2.004 . S
Co224 O234 2.021 . S
Co224 O236 2.137 1_545 S
Co224 O237 2.244 . S
O225 Co224 2.216 . S
O225 C232 1.247 . S
O226 Co224 2.091 . S
O226 C232 1.261 . S
C227 O236 1.247 . S
C227 O237 1.272 1_565 S
O228 Co224 2.004 . S
O228 C233 1.259 . S
Co229 O230 2.061 . S
Co229 O235 2.052 . S
Co229 O237 2.135 . S
O230 Co229 2.061 . S
O230 C233 1.235 . S
C231 O234 1.238 . S
C231 O235 1.241 . S
C232 O225 1.247 . S
C232 O226 1.261 . S
C233 O228 1.259 . S
C233 O230 1.235 . S
O234 Co224 2.021 . S
O234 C231 1.238 . S
O235 Co229 2.052 . S
O235 C231 1.241 . S
O236 Co224 2.137 1_565 S
O236 C227 1.247 . S
O237 Co224 2.244 . S
O237 C227 1.272 1_545 S
O237 Co229 2.135 . S
Co238 O239 2.216 . S
Co238 O240 2.091 . S
Co238 O242 2.004 . S
Co238 O248 2.021 . S
Co238 O250 2.105 1_655 S
Co238 O251 2.244 . S
O239 Co238 2.216 . S
O239 C246 1.247 . S
O240 Co238 2.091 . S
O240 C246 1.261 . S
C241 O250 1.237 . S
C241 O251 1.272 1_455 S
O242 Co238 2.004 . S
O242 C247 1.259 . S
Co243 O244 2.061 . S
Co243 O249 2.052 . S
Co243 O251 2.135 . S
O244 Co243 2.061 . S
O244 C247 1.235 . S
C245 O248 1.238 . S
C245 O249 1.241 . S
C246 O239 1.247 . S
C246 O240 1.261 . S
C247 O242 1.259 . S
C247 O244 1.235 . S
O248 Co238 2.021 . S
O248 C245 1.238 . S
O249 Co243 2.052 . S
O249 C245 1.241 . S
O250 Co238 2.105 1_455 S
O250 C241 1.237 . S
O251 Co238 2.244 . S
O251 C241 1.272 1_655 S
O251 Co243 2.135 . S
H252 C260 0.930 . S
H253 C263 0.930 . S
H254 C265 0.930 . S
H255 C266 0.970 . S
H256 C266 0.970 . S
H257 C268 0.930 . S
H258 C270 0.930 . S
H259 C272 0.930 . S
C260 H252 0.930 . S
C260 C261 1.382 . S
C260 C262 1.426 . S
C261 C260 1.382 . S
C261 C265 1.389 . S
C262 C260 1.426 . S
C262 C263 1.375 . S
C262 C266 1.532 . S
C263 H253 0.930 . S
C263 C262 1.375 . S
C263 C264 1.416 . S
C264 C263 1.416 . S
C264 C265 1.371 . S
C265 H254 0.930 . S
C265 C261 1.389 . S
C265 C264 1.371 . S
C266 H255 0.970 . S
C266 H256 0.970 . S
C266 C262 1.532 . S
C266 C267 1.499 . S
C267 C266 1.499 . S
C267 C268 1.370 . S
C267 C272 1.415 . S
C268 H257 0.930 . S
C268 C267 1.370 . S
C268 C269 1.407 . S
C269 C268 1.407 . S
C269 C270 1.365 . S
C270 H258 0.930 . S
C270 C269 1.365 . S
C270 C271 1.393 . S
C271 C270 1.393 . S
C271 C272 1.387 . S
C272 H259 0.930 . S
C272 C267 1.415 . S
C272 C271 1.387 . S
H273 C281 0.930 . S
H274 C284 0.930 . S
H275 C286 0.930 . S
H276 C287 0.970 . S
H277 C287 0.970 . S
H278 C289 0.930 . S
H279 C291 0.930 . S
H280 C293 0.930 . S
C281 H273 0.930 . S
C281 C282 1.382 . S
C281 C283 1.426 . S
C282 C281 1.382 . S
C282 C286 1.389 . S
C283 C281 1.426 . S
C283 C284 1.375 . S
C283 C287 1.532 . S
C284 H274 0.930 . S
C284 C283 1.375 . S
C284 C285 1.416 . S
C285 C284 1.416 . S
C285 C286 1.371 . S
C286 H275 0.930 . S
C286 C282 1.389 . S
C286 C285 1.371 . S
C287 H276 0.970 . S
C287 H277 0.970 . S
C287 C283 1.532 . S
C287 C288 1.499 . S
C288 C287 1.499 . S
C288 C289 1.370 . S
C288 C293 1.415 . S
C289 H278 0.930 . S
C289 C288 1.370 . S
C289 C290 1.407 . S
C290 C289 1.407 . S
C290 C291 1.365 . S
C291 H279 0.930 . S
C291 C290 1.365 . S
C291 C292 1.393 . S
C292 C291 1.393 . S
C292 C293 1.387 . S
C293 H280 0.930 . S
C293 C288 1.415 . S
C293 C292 1.387 . S
H294 C302 0.930 . S
H295 C305 0.930 . S
H296 C307 0.930 . S
H297 C308 0.970 . S
H298 C308 0.970 . S
H299 C310 0.930 . S
H300 C312 0.930 . S
H301 C314 0.930 . S
C302 H294 0.930 . S
C302 C303 1.382 . S
C302 C304 1.426 . S
C303 C302 1.382 . S
C303 C307 1.389 . S
C304 C302 1.426 . S
C304 C305 1.375 . S
C304 C308 1.532 . S
C305 H295 0.930 . S
C305 C304 1.375 . S
C305 C306 1.416 . S
C306 C305 1.416 . S
C306 C307 1.371 . S
C307 H296 0.930 . S
C307 C303 1.389 . S
C307 C306 1.371 . S
C308 H297 0.970 . S
C308 H298 0.970 . S
C308 C304 1.532 . S
C308 C309 1.499 . S
C309 C308 1.499 . S
C309 C310 1.370 . S
C309 C314 1.415 . S
C310 H299 0.930 . S
C310 C309 1.370 . S
C310 C311 1.407 . S
C311 C310 1.407 . S
C311 C312 1.365 . S
C312 H300 0.930 . S
C312 C311 1.365 . S
C312 C313 1.393 . S
C313 C312 1.393 . S
C313 C314 1.387 . S
C314 H301 0.930 . S
C314 C309 1.415 . S
C314 C313 1.387 . S
H315 C323 0.930 . S
H316 C326 0.930 . S
H317 C328 0.930 . S
H318 C329 0.970 . S
H319 C329 0.970 . S
H320 C331 0.930 . S
H321 C333 0.930 . S
H322 C335 0.930 . S
C323 H315 0.930 . S
C323 C324 1.382 . S
C323 C325 1.426 . S
C324 C323 1.382 . S
C324 C328 1.389 . S
C325 C323 1.426 . S
C325 C326 1.375 . S
C325 C329 1.532 . S
C326 H316 0.930 . S
C326 C325 1.375 . S
C326 C327 1.416 . S
C327 C326 1.416 . S
C327 C328 1.371 . S
C328 H317 0.930 . S
C328 C324 1.389 . S
C328 C327 1.371 . S
C329 H318 0.970 . S
C329 H319 0.970 . S
C329 C325 1.532 . S
C329 C330 1.499 . S
C330 C329 1.499 . S
C330 C331 1.370 . S
C330 C335 1.415 . S
C331 H320 0.930 . S
C331 C330 1.370 . S
C331 C332 1.407 . S
C332 C331 1.407 . S
C332 C333 1.365 . S
C333 H321 0.930 . S
C333 C332 1.365 . S
C333 C334 1.393 . S
C334 C333 1.393 . S
C334 C335 1.387 . S
C335 H322 0.930 . S
C335 C330 1.415 . S
C335 C334 1.387 . S
H336 C344 0.930 . S
H337 C347 0.930 . S
H338 C349 0.930 . S
H339 C350 0.970 . S
H340 C350 0.970 . S
H341 C352 0.930 . S
H342 C354 0.930 . S
H343 C356 0.930 . S
C344 H336 0.930 . S
C344 C345 1.382 . S
C344 C346 1.426 . S
C345 C344 1.382 . S
C345 C349 1.389 . S
C346 C344 1.426 . S
C346 C347 1.375 . S
C346 C350 1.532 . S
C347 H337 0.930 . S
C347 C346 1.375 . S
C347 C348 1.416 . S
C348 C347 1.416 . S
C348 C349 1.371 . S
C349 H338 0.930 . S
C349 C345 1.389 . S
C349 C348 1.371 . S
C350 H339 0.970 . S
C350 H340 0.970 . S
C350 C346 1.532 . S
C350 C351 1.499 . S
C351 C350 1.499 . S
C351 C352 1.370 . S
C351 C356 1.415 . S
C352 H341 0.930 . S
C352 C351 1.370 . S
C352 C353 1.407 . S
C353 C352 1.407 . S
C353 C354 1.365 . S
C354 H342 0.930 . S
C354 C353 1.365 . S
C354 C355 1.393 . S
C355 C354 1.393 . S
C355 C356 1.387 . S
C356 H343 0.930 . S
C356 C351 1.415 . S
C356 C355 1.387 . S
H357 C365 0.930 . S
H358 C368 0.930 . S
H359 C370 0.930 . S
H360 C371 0.970 . S
H361 C371 0.970 . S
H362 C373 0.930 . S
H363 C375 0.930 . S
H364 C377 0.930 . S
C365 H357 0.930 . S
C365 C366 1.382 . S
C365 C367 1.426 . S
C366 C365 1.382 . S
C366 C370 1.389 . S
C367 C365 1.426 . S
C367 C368 1.375 . S
C367 C371 1.532 . S
C368 H358 0.930 . S
C368 C367 1.375 . S
C368 C369 1.416 . S
C369 C368 1.416 . S
C369 C370 1.371 . S
C370 H359 0.930 . S
C370 C366 1.389 . S
C370 C369 1.371 . S
C371 H360 0.970 . S
C371 H361 0.970 . S
C371 C367 1.532 . S
C371 C372 1.499 . S
C372 C371 1.499 . S
C372 C373 1.370 . S
C372 C377 1.415 . S
C373 H362 0.930 . S
C373 C372 1.370 . S
C373 C374 1.407 . S
C374 C373 1.407 . S
C374 C375 1.365 . S
C375 H363 0.930 . S
C375 C374 1.365 . S
C375 C376 1.393 . S
C376 C375 1.393 . S
C376 C377 1.387 . S
C377 H364 0.930 . S
C377 C372 1.415 . S
C377 C376 1.387 . S
H378 C386 0.930 . S
H379 C389 0.930 . S
H380 C391 0.930 . S
H381 C392 0.970 . S
H382 C392 0.970 . S
H383 C394 0.930 . S
H384 C396 0.930 . S
H385 C398 0.930 . S
C386 H378 0.930 . S
C386 C387 1.382 . S
C386 C388 1.426 . S
C387 C386 1.382 . S
C387 C391 1.389 . S
C388 C386 1.426 . S
C388 C389 1.375 . S
C388 C392 1.532 . S
C389 H379 0.930 . S
C389 C388 1.375 . S
C389 C390 1.416 . S
C390 C389 1.416 . S
C390 C391 1.371 . S
C391 H380 0.930 . S
C391 C387 1.389 . S
C391 C390 1.371 . S
C392 H381 0.970 . S
C392 H382 0.970 . S
C392 C388 1.532 . S
C392 C393 1.499 . S
C393 C392 1.499 . S
C393 C394 1.370 . S
C393 C398 1.415 . S
C394 H383 0.930 . S
C394 C393 1.370 . S
C394 C395 1.407 . S
C395 C394 1.407 . S
C395 C396 1.365 . S
C396 H384 0.930 . S
C396 C395 1.365 . S
C396 C397 1.393 . S
C397 C396 1.393 . S
C397 C398 1.387 . S
C398 H385 0.930 . S
C398 C393 1.415 . S
C398 C397 1.387 . S
H399 C407 0.930 . S
H400 C410 0.930 . S
H401 C412 0.930 . S
H402 C413 0.970 . S
H403 C413 0.970 . S
H404 C415 0.930 . S
H405 C417 0.930 . S
H406 C419 0.930 . S
C407 H399 0.930 . S
C407 C408 1.382 . S
C407 C409 1.426 . S
C408 C407 1.382 . S
C408 C412 1.389 . S
C409 C407 1.426 . S
C409 C410 1.375 . S
C409 C413 1.532 . S
C410 H400 0.930 . S
C410 C409 1.375 . S
C410 C411 1.416 . S
C411 C410 1.416 . S
C411 C412 1.371 . S
C412 H401 0.930 . S
C412 C408 1.389 . S
C412 C411 1.371 . S
C413 H402 0.970 . S
C413 H403 0.970 . S
C413 C409 1.532 . S
C413 C414 1.499 . S
C414 C413 1.499 . S
C414 C415 1.370 . S
C414 C419 1.415 . S
C415 H404 0.930 . S
C415 C414 1.370 . S
C415 C416 1.407 . S
C416 C415 1.407 . S
C416 C417 1.365 . S
C417 H405 0.930 . S
C417 C416 1.365 . S
C417 C418 1.393 . S
C418 C417 1.393 . S
C418 C419 1.387 . S
C419 H406 0.930 . S
C419 C414 1.415 . S
C419 C418 1.387 . S
H420 C428 0.930 . S
H421 C431 0.930 . S
H422 C433 0.930 . S
H423 C434 0.970 . S
H424 C434 0.970 . S
H425 C436 0.930 . S
H426 C438 0.930 . S
H427 C440 0.930 . S
C428 H420 0.930 . S
C428 C429 1.382 . S
C428 C430 1.426 . S
C429 C428 1.382 . S
C429 C433 1.389 . S
C430 C428 1.426 . S
C430 C431 1.375 . S
C430 C434 1.532 . S
C431 H421 0.930 . S
C431 C430 1.375 . S
C431 C432 1.416 . S
C432 C431 1.416 . S
C432 C433 1.371 . S
C433 H422 0.930 . S
C433 C429 1.389 . S
C433 C432 1.371 . S
C434 H423 0.970 . S
C434 H424 0.970 . S
C434 C430 1.532 . S
C434 C435 1.499 . S
C435 C434 1.499 . S
C435 C436 1.370 . S
C435 C440 1.415 . S
C436 H425 0.930 . S
C436 C435 1.370 . S
C436 C437 1.407 . S
C437 C436 1.407 . S
C437 C438 1.365 . S
C438 H426 0.930 . S
C438 C437 1.365 . S
C438 C439 1.393 . S
C439 C438 1.393 . S
C439 C440 1.387 . S
C440 H427 0.930 . S
C440 C435 1.415 . S
C440 C439 1.387 . S
H441 C449 0.930 . S
H442 C452 0.930 . S
H443 C454 0.930 . S
H444 C455 0.970 . S
H445 C455 0.970 . S
H446 C457 0.930 . S
H447 C459 0.930 . S
H448 C461 0.930 . S
C449 H441 0.930 . S
C449 C450 1.382 . S
C449 C451 1.426 . S
C450 C449 1.382 . S
C450 C454 1.389 1_455 S
C451 C449 1.426 . S
C451 C452 1.375 . S
C451 C455 1.532 . S
C452 H442 0.930 . S
C452 C451 1.375 . S
C452 C453 1.416 . S
C453 C452 1.416 . S
C453 C454 1.371 1_455 S
C454 H443 0.930 . S
C454 C450 1.389 1_655 S
C454 C453 1.371 1_655 S
C455 H444 0.970 . S
C455 H445 0.970 . S
C455 C451 1.532 . S
C455 C456 1.499 . S
C456 C455 1.499 . S
C456 C457 1.370 . S
C456 C461 1.415 . S
C457 H446 0.930 . S
C457 C456 1.370 . S
C457 C458 1.412 . S
C458 C457 1.412 . S
C458 C459 1.373 1_455 S
C459 H447 0.930 . S
C459 C458 1.373 1_655 S
C459 C460 1.393 1_655 S
C460 C459 1.393 1_455 S
C460 C461 1.387 . S
C461 H448 0.930 . S
C461 C456 1.415 . S
C461 C460 1.387 . S
H462 C470 0.930 . S
H463 C473 0.930 . S
H464 C475 0.930 . S
H465 C476 0.970 . S
H466 C476 0.970 . S
H467 C478 0.930 . S
H468 C480 0.930 . S
H469 C482 0.930 . S
C470 H462 0.930 . S
C470 C471 1.382 . S
C470 C472 1.426 . S
C471 C470 1.382 . S
C471 C475 1.389 . S
C472 C470 1.426 . S
C472 C473 1.375 . S
C472 C476 1.532 . S
C473 H463 0.930 . S
C473 C472 1.375 . S
C473 C474 1.416 . S
C474 C473 1.416 . S
C474 C475 1.371 . S
C475 H464 0.930 . S
C475 C471 1.389 . S
C475 C474 1.371 . S
C476 H465 0.970 . S
C476 H466 0.970 . S
C476 C472 1.532 . S
C476 C477 1.499 . S
C477 C476 1.499 . S
C477 C478 1.370 . S
C477 C482 1.415 . S
C478 H467 0.930 . S
C478 C477 1.370 . S
C478 C479 1.407 . S
C479 C478 1.407 . S
C479 C480 1.365 . S
C480 H468 0.930 . S
C480 C479 1.365 . S
C480 C481 1.393 . S
C481 C480 1.393 . S
C481 C482 1.387 . S
C482 H469 0.930 . S
C482 C477 1.415 . S
C482 C481 1.387 . S
H483 C491 0.930 . S
H484 C494 0.930 . S
H485 C496 0.930 . S
H486 C497 0.970 . S
H487 C497 0.970 . S
H488 C499 0.930 . S
H489 C501 0.930 . S
H490 C503 0.930 . S
C491 H483 0.930 . S
C491 C492 1.382 . S
C491 C493 1.426 . S
C492 C491 1.382 . S
C492 C496 1.389 1_565 S
C493 C491 1.426 . S
C493 C494 1.375 . S
C493 C497 1.532 . S
C494 H484 0.930 . S
C494 C493 1.375 . S
C494 C495 1.416 . S
C495 C494 1.416 . S
C495 C496 1.371 1_565 S
C496 H485 0.930 . S
C496 C492 1.389 1_545 S
C496 C495 1.371 1_545 S
C497 H486 0.970 . S
C497 H487 0.970 . S
C497 C493 1.532 . S
C497 C498 1.499 . S
C498 C497 1.499 . S
C498 C499 1.370 . S
C498 C503 1.415 . S
C499 H488 0.930 . S
C499 C498 1.370 . S
C499 C500 1.432 . S
C500 C499 1.432 . S
C500 C501 1.355 1_565 S
C501 H489 0.930 . S
C501 C500 1.355 1_545 S
C501 C502 1.393 1_545 S
C502 C501 1.393 1_565 S
C502 C503 1.387 . S
C503 H490 0.930 . S
C503 C498 1.415 . S
C503 C502 1.387 . S
H504 C512 0.930 . S
H505 C515 0.930 . S
H506 C517 0.930 . S
H507 C518 0.970 . S
H508 C518 0.970 . S
H509 C520 0.930 . S
H510 C522 0.930 . S
H511 C524 0.930 . S
C512 H504 0.930 . S
C512 C513 1.382 . S
C512 C514 1.426 . S
C513 C512 1.382 . S
C513 C517 1.389 1_565 S
C514 C512 1.426 . S
C514 C515 1.375 . S
C514 C518 1.532 . S
C515 H505 0.930 . S
C515 C514 1.375 . S
C515 C516 1.484 . S
C516 C515 1.484 . S
C516 C517 1.347 1_565 S
C517 H506 0.930 . S
C517 C513 1.389 1_545 S
C517 C516 1.347 1_545 S
C518 H507 0.970 . S
C518 H508 0.970 . S
C518 C514 1.532 . S
C518 C519 1.499 . S
C519 C518 1.499 . S
C519 C520 1.370 . S
C519 C524 1.415 . S
C520 H509 0.930 . S
C520 C519 1.370 . S
C520 C521 1.407 . S
C521 C520 1.407 . S
C521 C522 1.365 1_565 S
C522 H510 0.930 . S
C522 C521 1.365 1_545 S
C522 C523 1.393 1_545 S
C523 C522 1.393 1_565 S
C523 C524 1.387 . S
C524 H511 0.930 . S
C524 C519 1.415 . S
C524 C523 1.387 . S
H525 C533 0.930 . S
H526 C536 0.930 . S
H527 C538 0.930 . S
H528 C539 0.970 . S
H529 C539 0.970 . S
H530 C541 0.930 . S
H531 C543 0.930 . S
H532 C545 0.930 . S
C533 H525 0.930 . S
C533 C534 1.382 . S
C533 C535 1.426 . S
C534 C533 1.382 . S
C534 C538 1.389 1_455 S
C535 C533 1.426 . S
C535 C536 1.375 . S
C535 C539 1.532 . S
C536 H526 0.930 . S
C536 C535 1.375 . S
C536 C537 1.416 . S
C537 C536 1.416 . S
C537 C538 1.371 1_455 S
C538 H527 0.930 . S
C538 C534 1.389 1_655 S
C538 C537 1.371 1_655 S
C539 H528 0.970 . S
C539 H529 0.970 . S
C539 C535 1.532 . S
C539 C540 1.499 . S
C540 C539 1.499 . S
C540 C541 1.370 . S
C540 C545 1.415 . S
C541 H530 0.930 . S
C541 C540 1.370 . S
C541 C542 1.407 . S
C542 C541 1.407 . S
C542 C543 1.365 1_455 S
C543 H531 0.930 . S
C543 C542 1.365 1_655 S
C543 C544 1.393 1_655 S
C544 C543 1.393 1_455 S
C544 C545 1.387 . S
C545 H532 0.930 . S
C545 C540 1.415 . S
C545 C544 1.387 . S
H546 C554 0.930 . S
H547 C557 0.930 . S
H548 C559 0.930 . S
H549 C560 0.970 . S
H550 C560 0.970 . S
H551 C562 0.930 . S
H552 C564 0.930 . S
H553 C566 0.930 . S
C554 H546 0.930 . S
C554 C555 1.382 . S
C554 C556 1.426 . S
C555 C554 1.382 . S
C555 C559 1.389 . S
C556 C554 1.426 . S
C556 C557 1.375 . S
C556 C560 1.532 . S
C557 H547 0.930 . S
C557 C556 1.375 . S
C557 C558 1.416 . S
C558 C557 1.416 . S
C558 C559 1.371 . S
C559 H548 0.930 . S
C559 C555 1.389 . S
C559 C558 1.371 . S
C560 H549 0.970 . S
C560 H550 0.970 . S
C560 C556 1.532 . S
C560 C561 1.499 . S
C561 C560 1.499 . S
C561 C562 1.370 . S
C561 C566 1.415 . S
C562 H551 0.930 . S
C562 C561 1.370 . S
C562 C563 1.407 . S
C563 C562 1.407 . S
C563 C564 1.365 . S
C564 H552 0.930 . S
C564 C563 1.365 . S
C564 C565 1.393 . S
C565 C564 1.393 . S
C565 C566 1.387 . S
C566 H553 0.930 . S
C566 C561 1.415 . S
C566 C565 1.387 . S
H567 C575 0.930 . S
H568 C578 0.930 . S
H569 C580 0.930 . S
H570 C581 0.970 . S
H571 C581 0.970 . S
H572 C583 0.930 . S
H573 C585 0.930 . S
H574 C587 0.930 . S
C575 H567 0.930 . S
C575 C576 1.382 . S
C575 C577 1.426 . S
C576 C575 1.382 . S
C576 C580 1.389 . S
C577 C575 1.426 . S
C577 C578 1.375 . S
C577 C581 1.532 . S
C578 H568 0.930 . S
C578 C577 1.375 . S
C578 C579 1.416 . S
C579 C578 1.416 . S
C579 C580 1.371 . S
C580 H569 0.930 . S
C580 C576 1.389 . S
C580 C579 1.371 . S
C581 H570 0.970 . S
C581 H571 0.970 . S
C581 C577 1.532 . S
C581 C582 1.499 . S
C582 C581 1.499 . S
C582 C583 1.370 . S
C582 C587 1.415 . S
C583 H572 0.930 . S
C583 C582 1.370 . S
C583 C584 1.407 . S
C584 C583 1.407 . S
C584 C585 1.365 . S
C585 H573 0.930 . S
C585 C584 1.365 . S
C585 C586 1.393 . S
C586 C585 1.393 . S
C586 C587 1.387 . S
C587 H574 0.930 . S
C587 C582 1.415 . S
C587 C586 1.387 . S
H588 C596 0.930 . S
H589 C599 0.930 . S
H590 C601 0.930 . S
H591 C602 0.970 . S
H592 C602 0.970 . S
H593 C604 0.930 . S
H594 C606 0.930 . S
H595 C608 0.930 . S
C596 H588 0.930 . S
C596 C597 1.382 . S
C596 C598 1.426 . S
C597 C596 1.382 . S
C597 C601 1.389 . S
C598 C596 1.426 . S
C598 C599 1.375 . S
C598 C602 1.532 . S
C599 H589 0.930 . S
C599 C598 1.375 . S
C599 C600 1.416 . S
C600 C599 1.416 . S
C600 C601 1.371 . S
C601 H590 0.930 . S
C601 C597 1.389 . S
C601 C600 1.371 . S
C602 H591 0.970 . S
C602 H592 0.970 . S
C602 C598 1.532 . S
C602 C603 1.499 . S
C603 C602 1.499 . S
C603 C604 1.370 . S
C603 C608 1.415 . S
C604 H593 0.930 . S
C604 C603 1.370 . S
C604 C605 1.407 . S
C605 C604 1.407 . S
C605 C606 1.365 . S
C606 H594 0.930 . S
C606 C605 1.365 . S
C606 C607 1.393 . S
C607 C606 1.393 . S
C607 C608 1.387 . S
C608 H595 0.930 . S
C608 C603 1.415 . S
C608 C607 1.387 . S
H609 C617 0.930 . S
H610 C620 0.930 . S
H611 C622 0.930 . S
H612 C623 0.970 . S
H613 C623 0.970 . S
H614 C625 0.930 . S
H615 C627 0.930 . S
H616 C629 0.930 . S
C617 H609 0.930 . S
C617 C618 1.382 . S
C617 C619 1.426 . S
C618 C617 1.382 . S
C618 C622 1.389 . S
C619 C617 1.426 . S
C619 C620 1.375 . S
C619 C623 1.532 . S
C620 H610 0.930 . S
C620 C619 1.375 . S
C620 C621 1.416 . S
C621 C620 1.416 . S
C621 C622 1.371 . S
C622 H611 0.930 . S
C622 C618 1.389 . S
C622 C621 1.371 . S
C623 H612 0.970 . S
C623 H613 0.970 . S
C623 C619 1.532 . S
C623 C624 1.499 . S
C624 C623 1.499 . S
C624 C625 1.370 . S
C624 C629 1.415 . S
C625 H614 0.930 . S
C625 C624 1.370 . S
C625 C626 1.407 . S
C626 C625 1.407 . S
C626 C627 1.365 . S
C627 H615 0.930 . S
C627 C626 1.365 . S
C627 C628 1.393 . S
C628 C627 1.393 . S
C628 C629 1.387 . S
C629 H616 0.930 . S
C629 C624 1.415 . S
C629 C628 1.387 . S
C630 C631 1.410 . S
C630 C632 1.327 . S
C630 H655 0.950 . S
C631 C630 1.410 . S
C631 C647 1.321 1_655 S
C632 C630 1.327 . S
C632 C651 1.429 . S
C632 H656 0.950 . S
C633 C650 1.574 . S
C633 C652 1.368 1_455 S
C633 H657 0.949 . S
H634 C638 0.949 . S
C635 C636 1.349 1_455 S
C635 C637 1.327 . S
C635 H658 0.950 . S
C636 C635 1.349 1_655 S
C636 C648 1.349 . S
C637 C635 1.327 . S
C637 C653 1.429 1_455 S
C637 H659 0.950 . S
C638 H634 0.949 . S
C638 C646 1.574 . S
C638 C654 1.368 . S
H639 C647 0.950 . S
H640 C645 0.950 . S
H641 C646 0.949 . S
H642 C648 0.950 . S
H643 C649 0.950 . S
H644 C650 0.949 . S
C645 H640 0.950 . S
C645 C647 1.327 . S
C645 C651 1.429 1_455 S
C646 C638 1.574 . S
C646 H641 0.949 . S
C646 C652 1.368 . S
C647 C631 1.321 1_455 S
C647 H639 0.950 . S
C647 C645 1.327 . S
C648 C636 1.349 . S
C648 H642 0.950 . S
C648 C649 1.327 . S
C649 H643 0.950 . S
C649 C648 1.327 . S
C649 C653 1.429 . S
C650 C633 1.574 . S
C650 H644 0.949 . S
C650 C654 1.368 1_455 S
C651 C632 1.429 . S
C651 C645 1.429 1_655 S
C651 C652 1.523 . S
C652 C633 1.368 1_655 S
C652 C646 1.368 . S
C652 C651 1.523 . S
C653 C637 1.429 1_655 S
C653 C649 1.429 . S
C653 C654 1.523 . S
C654 C638 1.368 . S
C654 C650 1.368 1_655 S
C654 C653 1.523 . S
H655 C630 0.950 . S
H656 C632 0.950 . S
H657 C633 0.949 . S
H658 C635 0.950 . S
H659 C637 0.950 . S
C660 C661 1.349 . S
C660 C662 1.327 . S
C660 H685 0.950 . S
C661 C660 1.349 . S
C661 C677 1.349 . S
C662 C660 1.327 . S
C662 C681 1.429 . S
C662 H686 0.950 . S
C663 C680 1.574 . S
C663 C682 1.368 . S
C663 H687 0.949 . S
H664 C668 0.949 . S
C665 C666 1.349 . S
C665 C667 1.327 . S
C665 H688 0.950 . S
C666 C665 1.349 . S
C666 C678 1.349 . S
C667 C665 1.327 . S
C667 C683 1.429 . S
C667 H689 0.950 . S
C668 H664 0.949 . S
C668 C676 1.574 . S
C668 C684 1.368 . S
H669 C677 0.950 . S
H670 C675 0.950 . S
H671 C676 0.949 . S
H672 C678 0.950 . S
H673 C679 0.950 . S
H674 C680 0.949 . S
C675 H670 0.950 . S
C675 C677 1.327 . S
C675 C681 1.429 . S
C676 C668 1.574 . S
C676 H671 0.949 . S
C676 C682 1.368 . S
C677 C661 1.349 . S
C677 H669 0.950 . S
C677 C675 1.327 . S
C678 C666 1.349 . S
C678 H672 0.950 . S
C678 C679 1.327 . S
C679 H673 0.950 . S
C679 C678 1.327 . S
C679 C683 1.429 . S
C680 C663 1.574 . S
C680 H674 0.949 . S
C680 C684 1.368 . S
C681 C662 1.429 . S
C681 C675 1.429 . S
C681 C682 1.523 . S
C682 C663 1.368 . S
C682 C676 1.368 . S
C682 C681 1.523 . S
C683 C667 1.429 . S
C683 C679 1.429 . S
C683 C684 1.523 . S
C684 C668 1.368 . S
C684 C680 1.368 . S
C684 C683 1.523 . S
H685 C660 0.950 . S
H686 C662 0.950 . S
H687 C663 0.949 . S
H688 C665 0.950 . S
H689 C667 0.950 . S
C690 C691 1.349 . S
C690 C692 1.327 . S
C690 H715 0.950 . S
C691 C690 1.349 . S
C691 C707 1.349 1_545 S
C692 C690 1.327 . S
C692 C711 1.429 . S
C692 H716 0.950 . S
C693 C710 1.574 . S
C693 C712 1.368 1_565 S
C693 H717 0.949 . S
H694 C698 0.949 . S
C695 C696 1.349 1_565 S
C695 C697 1.327 . S
C695 H718 0.950 . S
C696 C695 1.349 1_545 S
C696 C708 1.349 . S
C697 C695 1.327 . S
C697 C713 1.429 1_565 S
C697 H719 0.950 . S
C698 H694 0.949 . S
C698 C706 1.574 . S
C698 C714 1.368 . S
H699 C707 0.950 . S
H700 C705 0.950 . S
H701 C706 0.949 . S
H702 C708 0.950 . S
H703 C709 0.950 . S
H704 C710 0.949 . S
C705 H700 0.950 . S
C705 C707 1.327 . S
C705 C711 1.429 1_565 S
C706 C698 1.574 . S
C706 H701 0.949 . S
C706 C712 1.368 . S
C707 C691 1.349 1_565 S
C707 H699 0.950 . S
C707 C705 1.327 . S
C708 C696 1.349 . S
C708 H702 0.950 . S
C708 C709 1.327 . S
C709 H703 0.950 . S
C709 C708 1.327 . S
C709 C713 1.429 . S
C710 C693 1.574 . S
C710 H704 0.949 . S
C710 C714 1.368 1_565 S
C711 C692 1.429 . S
C711 C705 1.429 1_545 S
C711 C712 1.523 . S
C712 C693 1.368 1_545 S
C712 C706 1.368 . S
C712 C711 1.523 . S
C713 C697 1.429 1_545 S
C713 C709 1.429 . S
C713 C714 1.523 . S
C714 C698 1.368 . S
C714 C710 1.368 1_545 S
C714 C713 1.523 . S
H715 C690 0.950 . S
H716 C692 0.950 . S
H717 C693 0.949 . S
H718 C695 0.950 . S
H719 C697 0.950 . S
C720 C721 1.349 1_565 S
C720 C722 1.327 . S
C720 H745 0.950 . S
C721 C720 1.349 1_545 S
C721 C737 1.349 . S
C722 C720 1.327 . S
C722 C741 1.425 1_565 S
C722 H746 0.950 . S
C723 C740 1.574 . S
C723 C742 1.367 1_545 S
C723 H747 0.949 . S
H724 C728 0.949 . S
C725 C726 1.349 1_545 S
C725 C727 1.327 . S
C725 H748 0.950 . S
C726 C725 1.349 1_565 S
C726 C738 1.349 . S
C727 C725 1.327 . S
C727 C743 1.429 1_545 S
C727 H749 0.950 . S
C728 H724 0.949 . S
C728 C736 1.574 . S
C728 C744 1.397 . S
H729 C737 0.950 . S
H730 C735 0.950 . S
H731 C736 0.949 . S
H732 C738 0.950 . S
H733 C739 0.950 . S
H734 C740 0.949 . S
C735 H730 0.950 . S
C735 C737 1.327 . S
C735 C741 1.443 . S
C736 C728 1.574 . S
C736 H731 0.949 . S
C736 C742 1.372 . S
C737 C721 1.349 . S
C737 H729 0.950 . S
C737 C735 1.327 . S
C738 C726 1.349 . S
C738 H732 0.950 . S
C738 C739 1.327 . S
C739 H733 0.950 . S
C739 C738 1.327 . S
C739 C743 1.429 . S
C740 C723 1.574 . S
C740 H734 0.949 . S
C740 C744 1.316 1_545 S
C741 C722 1.425 1_545 S
C741 C735 1.443 . S
C741 C742 1.511 1_545 S
C742 C723 1.367 1_565 S
C742 C736 1.372 . S
C742 C741 1.511 1_565 S
C743 C727 1.429 1_565 S
C743 C739 1.429 . S
C743 C744 1.562 . S
C744 C728 1.397 . S
C744 C740 1.316 1_565 S
C744 C743 1.562 . S
H745 C720 0.950 . S
H746 C722 0.950 . S
H747 C723 0.949 . S
H748 C725 0.950 . S
H749 C727 0.950 . S
C750 C751 1.349 1_655 S
C750 C752 1.327 . S
C750 H775 0.950 . S
C751 C750 1.349 1_455 S
C751 C767 1.349 . S
C752 C750 1.327 . S
C752 C771 1.429 1_655 S
C752 H776 0.950 . S
C753 C770 1.574 . S
C753 C772 1.368 . S
C753 H777 0.949 . S
H754 C758 0.949 . S
C755 C756 1.349 . S
C755 C757 1.327 . S
C755 H778 0.950 . S
C756 C755 1.349 . S
C756 C768 1.349 1_455 S
C757 C755 1.327 . S
C757 C773 1.429 . S
C757 H779 0.950 . S
C758 H754 0.949 . S
C758 C766 1.574 . S
C758 C774 1.368 1_655 S
H759 C767 0.950 . S
H760 C765 0.950 . S
H761 C766 0.949 . S
H762 C768 0.950 . S
H763 C769 0.950 . S
H764 C770 0.949 . S
C765 H760 0.950 . S
C765 C767 1.327 . S
C765 C771 1.429 . S
C766 C758 1.574 . S
C766 H761 0.949 . S
C766 C772 1.368 1_655 S
C767 C751 1.349 . S
C767 H759 0.950 . S
C767 C765 1.327 . S
C768 C756 1.349 1_655 S
C768 H762 0.950 . S
C768 C769 1.327 . S
C769 H763 0.950 . S
C769 C768 1.327 . S
C769 C773 1.429 1_655 S
C770 C753 1.574 . S
C770 H764 0.949 . S
C770 C774 1.368 . S
C771 C752 1.429 1_455 S
C771 C765 1.429 . S
C771 C772 1.523 . S
C772 C753 1.368 . S
C772 C766 1.368 1_455 S
C772 C771 1.523 . S
C773 C757 1.429 . S
C773 C769 1.429 1_455 S
C773 C774 1.523 . S
C774 C758 1.368 1_455 S
C774 C770 1.368 . S
C774 C773 1.523 . S
H775 C750 0.950 . S
H776 C752 0.950 . S
H777 C753 0.949 . S
H778 C755 0.950 . S
H779 C757 0.950 . S
C780 C781 1.349 . S
C780 C782 1.327 . S
C780 H805 0.950 . S
C781 C780 1.349 . S
C781 C797 1.349 . S
C782 C780 1.327 . S
C782 C801 1.429 . S
C782 H806 0.950 . S
C783 C800 1.574 . S
C783 C802 1.368 . S
C783 H807 0.949 . S
H784 C788 0.949 . S
C785 C786 1.349 . S
C785 C787 1.327 . S
C785 H808 0.950 . S
C786 C785 1.349 . S
C786 C798 1.349 . S
C787 C785 1.327 . S
C787 C803 1.429 . S
C787 H809 0.950 . S
C788 H784 0.949 . S
C788 C796 1.574 . S
C788 C804 1.368 . S
H789 C797 0.950 . S
H790 C795 0.950 . S
H791 C796 0.949 . S
H792 C798 0.950 . S
H793 C799 0.950 . S
H794 C800 0.949 . S
C795 H790 0.950 . S
C795 C797 1.327 . S
C795 C801 1.429 . S
C796 C788 1.574 . S
C796 H791 0.949 . S
C796 C802 1.368 . S
C797 C781 1.349 . S
C797 H789 0.950 . S
C797 C795 1.327 . S
C798 C786 1.349 . S
C798 H792 0.950 . S
C798 C799 1.327 . S
C799 H793 0.950 . S
C799 C798 1.327 . S
C799 C803 1.429 . S
C800 C783 1.574 . S
C800 H794 0.949 . S
C800 C804 1.368 . S
C801 C782 1.429 . S
C801 C795 1.429 . S
C801 C802 1.523 . S
C802 C783 1.368 . S
C802 C796 1.368 . S
C802 C801 1.523 . S
C803 C787 1.429 . S
C803 C799 1.429 . S
C803 C804 1.523 . S
C804 C788 1.368 . S
C804 C800 1.368 . S
C804 C803 1.523 . S
H805 C780 0.950 . S
H806 C782 0.950 . S
H807 C783 0.949 . S
H808 C785 0.950 . S
H809 C787 0.950 . S
C810 C811 1.349 1_655 S
C810 C812 1.327 . S
C810 H835 0.950 . S
C811 C810 1.349 1_455 S
C811 C827 1.349 . S
C812 C810 1.327 . S
C812 C831 1.429 1_655 S
C812 H836 0.950 . S
C813 C830 1.574 . S
C813 C832 1.368 . S
C813 H837 0.949 . S
H814 C818 0.949 . S
C815 C816 1.359 . S
C815 C817 1.327 . S
C815 H838 0.950 . S
C816 C815 1.359 . S
C816 C828 1.329 1_455 S
C817 C815 1.327 . S
C817 C833 1.475 . S
C817 H839 0.950 . S
C818 H814 0.949 . S
C818 C826 1.574 . S
C818 C834 1.309 1_655 S
H819 C827 0.950 . S
H820 C825 0.950 . S
H821 C826 0.949 . S
H822 C828 0.950 . S
H823 C829 0.950 . S
H824 C830 0.949 . S
C825 H820 0.950 . S
C825 C827 1.327 . S
C825 C831 1.429 . S
C826 C818 1.574 . S
C826 H821 0.949 . S
C826 C832 1.368 1_655 S
C827 C811 1.349 . S
C827 H819 0.950 . S
C827 C825 1.327 . S
C828 C816 1.329 1_655 S
C828 H822 0.950 . S
C828 C829 1.327 . S
C829 H823 0.950 . S
C829 C828 1.327 . S
C829 C833 1.408 1_655 S
C830 C813 1.574 . S
C830 H824 0.949 . S
C830 C834 1.407 . S
C831 C812 1.429 1_455 S
C831 C825 1.429 . S
C831 C832 1.523 . S
C832 C813 1.368 . S
C832 C826 1.368 1_455 S
C832 C831 1.523 . S
C833 C817 1.475 . S
C833 C829 1.408 1_455 S
C833 C834 1.530 . S
C834 C818 1.309 1_455 S
C834 C830 1.407 . S
C834 C833 1.530 . S
H835 C810 0.950 . S
H836 C812 0.950 . S
H837 C813 0.949 . S
H838 C815 0.950 . S
H839 C817 0.950 . S
C840 C841 1.349 . S
C840 C842 1.327 . S
C840 H865 0.950 . S
C841 C840 1.349 . S
C841 C857 1.349 . S
C842 C840 1.327 . S
C842 C861 1.429 . S
C842 H866 0.950 . S
C843 C860 1.574 . S
C843 C862 1.368 . S
C843 H867 0.949 . S
H844 C848 0.949 . S
C845 C846 1.349 . S
C845 C847 1.327 . S
C845 H868 0.950 . S
C846 C845 1.349 . S
C846 C858 1.349 . S
C847 C845 1.327 . S
C847 C863 1.429 . S
C847 H869 0.950 . S
C848 H844 0.949 . S
C848 C856 1.574 . S
C848 C864 1.368 . S
H849 C857 0.950 . S
H850 C855 0.950 . S
H851 C856 0.949 . S
H852 C858 0.950 . S
H853 C859 0.950 . S
H854 C860 0.949 . S
C855 H850 0.950 . S
C855 C857 1.327 . S
C855 C861 1.429 . S
C856 C848 1.574 . S
C856 H851 0.949 . S
C856 C862 1.368 . S
C857 C841 1.349 . S
C857 H849 0.950 . S
C857 C855 1.327 . S
C858 C846 1.349 . S
C858 H852 0.950 . S
C858 C859 1.327 . S
C859 H853 0.950 . S
C859 C858 1.327 . S
C859 C863 1.429 . S
C860 C843 1.574 . S
C860 H854 0.949 . S
C860 C864 1.368 . S
C861 C842 1.429 . S
C861 C855 1.429 . S
C861 C862 1.523 . S
C862 C843 1.368 . S
C862 C856 1.368 . S
C862 C861 1.523 . S
C863 C847 1.429 . S
C863 C859 1.429 . S
C863 C864 1.523 . S
C864 C848 1.368 . S
C864 C860 1.368 . S
C864 C863 1.523 . S
H865 C840 0.950 . S
H866 C842 0.950 . S
H867 C843 0.949 . S
H868 C845 0.950 . S
H869 C847 0.950 . S
C870 C871 1.349 1_545 S
C870 C872 1.327 . S
C870 H895 0.950 . S
C871 C870 1.349 1_565 S
C871 C887 1.349 . S
C872 C870 1.327 . S
C872 C891 1.413 1_545 S
C872 H896 0.950 . S
C873 C890 1.574 . S
C873 C892 1.394 . S
C873 H897 0.949 . S
H874 C878 0.949 . S
C875 C876 1.372 . S
C875 C877 1.327 . S
C875 H898 0.950 . S
C876 C875 1.372 . S
C876 C888 1.341 1_565 S
C877 C875 1.327 . S
C877 C893 1.440 . S
C877 H899 0.950 . S
C878 H874 0.949 . S
C878 C886 1.574 . S
C878 C894 1.350 1_545 S
H879 C887 0.950 . S
H880 C885 0.950 . S
H881 C886 0.949 . S
H882 C888 0.950 . S
H883 C889 0.950 . S
H884 C890 0.949 . S
C885 H880 0.950 . S
C885 C887 1.327 . S
C885 C891 1.486 . S
C886 C878 1.574 . S
C886 H881 0.949 . S
C886 C892 1.321 1_545 S
C887 C871 1.349 . S
C887 H879 0.950 . S
C887 C885 1.327 . S
C888 C876 1.341 1_545 S
C888 H882 0.950 . S
C888 C889 1.327 . S
C889 H883 0.950 . S
C889 C888 1.327 . S
C889 C893 1.395 1_545 S
C890 C873 1.574 . S
C890 H884 0.949 . S
C890 C894 1.408 . S
C891 C872 1.413 1_565 S
C891 C885 1.486 . S
C891 C892 1.519 . S
C892 C873 1.394 . S
C892 C886 1.321 1_565 S
C892 C891 1.519 . S
C893 C877 1.440 . S
C893 C889 1.395 1_565 S
C893 C894 1.519 . S
C894 C878 1.350 1_565 S
C894 C890 1.408 . S
C894 C893 1.519 . S
H895 C870 0.950 . S
H896 C872 0.950 . S
H897 C873 0.949 . S
H898 C875 0.950 . S
H899 C877 0.950 . S
C900 C901 1.349 . S
C900 C902 1.327 . S
C900 H925 0.950 . S
C901 C900 1.349 . S
C901 C917 1.349 1_545 S
C902 C900 1.327 . S
C902 C921 1.429 . S
C902 H926 0.950 . S
C903 C920 1.574 . S
C903 C922 1.368 1_565 S
C903 H927 0.949 . S
H904 C908 0.949 . S
C905 C906 1.310 1_565 S
C905 C907 1.327 . S
C905 H928 0.950 . S
C906 C905 1.310 1_545 S
C906 C918 1.373 . S
C907 C905 1.327 . S
C907 C923 1.383 1_565 S
C907 H929 0.950 . S
C908 H904 0.949 . S
C908 C916 1.574 . S
C908 C924 1.368 . S
H909 C917 0.950 . S
H910 C915 0.950 . S
H911 C916 0.949 . S
H912 C918 0.950 . S
H913 C919 0.950 . S
H914 C920 0.949 . S
C915 H910 0.950 . S
C915 C917 1.327 . S
C915 C921 1.429 1_565 S
C916 C908 1.574 . S
C916 H911 0.949 . S
C916 C922 1.368 . S
C917 C901 1.349 1_565 S
C917 H909 0.950 . S
C917 C915 1.327 . S
C918 C906 1.373 . S
C918 H912 0.950 . S
C918 C919 1.327 . S
C919 H913 0.950 . S
C919 C918 1.327 . S
C919 C923 1.510 . S
C920 C903 1.574 . S
C920 H914 0.949 . S
C920 C924 1.368 1_565 S
C921 C902 1.429 . S
C921 C915 1.429 1_545 S
C921 C922 1.523 . S
C922 C903 1.368 1_545 S
C922 C916 1.368 . S
C922 C921 1.523 . S
C923 C907 1.383 1_545 S
C923 C919 1.510 . S
C923 C924 1.494 . S
C924 C908 1.368 . S
C924 C920 1.368 1_545 S
C924 C923 1.494 . S
H925 C900 0.950 . S
H926 C902 0.950 . S
H927 C903 0.949 . S
H928 C905 0.950 . S
H929 C907 0.950 . S
C930 C931 1.268 1_455 S
C930 C932 1.327 . S
C930 H955 0.950 . S
C931 C930 1.268 1_655 S
C931 C947 1.399 . S
C932 C930 1.327 . S
C932 C951 1.390 1_455 S
C932 H956 0.950 . S
C933 C950 1.574 . S
C933 C952 1.416 . S
C933 H957 0.949 . S
H934 C938 0.949 . S
C935 C936 1.395 . S
C935 C937 1.327 . S
C935 H958 0.950 . S
C936 C935 1.395 . S
C936 C948 1.322 1_655 S
C937 C935 1.327 . S
C937 C953 1.460 . S
C937 H959 0.950 . S
C938 H934 0.949 . S
C938 C946 1.574 . S
C938 C954 1.328 1_455 S
H939 C947 0.950 . S
H940 C945 0.950 . S
H941 C946 0.949 . S
H942 C948 0.950 . S
H943 C949 0.950 . S
H944 C950 0.949 . S
C945 H940 0.950 . S
C945 C947 1.327 . S
C945 C951 1.501 . S
C946 C938 1.574 . S
C946 H941 0.949 . S
C946 C952 1.300 1_455 S
C947 C931 1.399 . S
C947 H939 0.950 . S
C947 C945 1.327 . S
C948 C936 1.322 1_455 S
C948 H942 0.950 . S
C948 C949 1.327 . S
C949 H943 0.950 . S
C949 C948 1.327 . S
C949 C953 1.374 1_455 S
C950 C933 1.574 . S
C950 H944 0.949 . S
C950 C954 1.428 . S
C951 C932 1.390 1_655 S
C951 C945 1.501 . S
C951 C952 1.521 . S
C952 C933 1.416 . S
C952 C946 1.300 1_655 S
C952 C951 1.521 . S
C953 C937 1.460 . S
C953 C949 1.374 1_655 S
C953 C954 1.521 . S
C954 C938 1.328 1_655 S
C954 C950 1.428 . S
C954 C953 1.521 . S
H955 C930 0.950 . S
H956 C932 0.950 . S
H957 C933 0.949 . S
H958 C935 0.950 . S
H959 C937 0.950 . S
C960 C961 1.349 . S
C960 C962 1.327 . S
C960 H985 0.950 . S
C961 C960 1.349 . S
C961 C977 1.349 . S
C962 C960 1.327 . S
C962 C981 1.429 . S
C962 H986 0.950 . S
C963 C980 1.574 . S
C963 C982 1.368 . S
C963 H987 0.949 . S
H964 C968 0.949 . S
C965 C966 1.349 . S
C965 C967 1.327 . S
C965 H988 0.950 . S
C966 C965 1.349 . S
C966 C978 1.349 . S
C967 C965 1.327 . S
C967 C983 1.429 . S
C967 H989 0.950 . S
C968 H964 0.949 . S
C968 C976 1.574 . S
C968 C984 1.368 . S
H969 C977 0.950 . S
H970 C975 0.950 . S
H971 C976 0.949 . S
H972 C978 0.950 . S
H973 C979 0.950 . S
H974 C980 0.949 . S
C975 H970 0.950 . S
C975 C977 1.327 . S
C975 C981 1.429 . S
C976 C968 1.574 . S
C976 H971 0.949 . S
C976 C982 1.368 . S
C977 C961 1.349 . S
C977 H969 0.950 . S
C977 C975 1.327 . S
C978 C966 1.349 . S
C978 H972 0.950 . S
C978 C979 1.327 . S
C979 H973 0.950 . S
C979 C978 1.327 . S
C979 C983 1.429 . S
C980 C963 1.574 . S
C980 H974 0.949 . S
C980 C984 1.368 . S
C981 C962 1.429 . S
C981 C975 1.429 . S
C981 C982 1.523 . S
C982 C963 1.368 . S
C982 C976 1.368 . S
C982 C981 1.523 . S
C983 C967 1.429 . S
C983 C979 1.429 . S
C983 C984 1.523 . S
C984 C968 1.368 . S
C984 C980 1.368 . S
C984 C983 1.523 . S
H985 C960 0.950 . S
H986 C962 0.950 . S
H987 C963 0.949 . S
H988 C965 0.950 . S
H989 C967 0.950 . S
C990 C991 1.349 . S
C990 C992 1.327 . S
C990 H1015 0.950 . S
C991 C990 1.349 . S
C991 C1007 1.349 . S
C992 C990 1.327 . S
C992 C1011 1.429 . S
C992 H1016 0.950 . S
C993 C1010 1.574 . S
C993 C1012 1.368 . S
C993 H1017 0.949 . S
H994 C998 0.949 . S
C995 C996 1.349 . S
C995 C997 1.327 . S
C995 H1018 0.950 . S
C996 C995 1.349 . S
C996 C1008 1.349 . S
C997 C995 1.327 . S
C997 C1013 1.429 . S
C997 H1019 0.950 . S
C998 H994 0.949 . S
C998 C1006 1.574 . S
C998 C1014 1.368 . S
H999 C1007 0.950 . S
H1000 C1005 0.950 . S
H1001 C1006 0.949 . S
H1002 C1008 0.950 . S
H1003 C1009 0.950 . S
H1004 C1010 0.949 . S
C1005 H1000 0.950 . S
C1005 C1007 1.327 . S
C1005 C1011 1.429 . S
C1006 C998 1.574 . S
C1006 H1001 0.949 . S
C1006 C1012 1.368 . S
C1007 C991 1.349 . S
C1007 H999 0.950 . S
C1007 C1005 1.327 . S
C1008 C996 1.349 . S
C1008 H1002 0.950 . S
C1008 C1009 1.327 . S
C1009 H1003 0.950 . S
C1009 C1008 1.327 . S
C1009 C1013 1.429 . S
C1010 C993 1.574 . S
C1010 H1004 0.949 . S
C1010 C1014 1.368 . S
C1011 C992 1.429 . S
C1011 C1005 1.429 . S
C1011 C1012 1.523 . S
C1012 C993 1.368 . S
C1012 C1006 1.368 . S
C1012 C1011 1.523 . S
C1013 C997 1.429 . S
C1013 C1009 1.429 . S
C1013 C1014 1.523 . S
C1014 C998 1.368 . S
C1014 C1010 1.368 . S
C1014 C1013 1.523 . S
H1015 C990 0.950 . S
H1016 C992 0.950 . S
H1017 C993 0.949 . S
H1018 C995 0.950 . S
H1019 C997 0.950 . S
C1020 C1021 1.349 . S
C1020 C1022 1.327 . S
C1020 H1045 0.950 . S
C1021 C1020 1.349 . S
C1021 C1037 1.349 . S
C1022 C1020 1.327 . S
C1022 C1041 1.429 . S
C1022 H1046 0.950 . S
C1023 C1040 1.574 . S
C1023 C1042 1.368 . S
C1023 H1047 0.949 . S
H1024 C1028 0.949 . S
C1025 C1026 1.349 . S
C1025 C1027 1.327 . S
C1025 H1048 0.950 . S
C1026 C1025 1.349 . S
C1026 C1038 1.349 . S
C1027 C1025 1.327 . S
C1027 C1043 1.429 . S
C1027 H1049 0.950 . S
C1028 H1024 0.949 . S
C1028 C1036 1.574 . S
C1028 C1044 1.368 . S
H1029 C1037 0.950 . S
H1030 C1035 0.950 . S
H1031 C1036 0.949 . S
H1032 C1038 0.950 . S
H1033 C1039 0.950 . S
H1034 C1040 0.949 . S
C1035 H1030 0.950 . S
C1035 C1037 1.327 . S
C1035 C1041 1.429 . S
C1036 C1028 1.574 . S
C1036 H1031 0.949 . S
C1036 C1042 1.368 . S
C1037 C1021 1.349 . S
C1037 H1029 0.950 . S
C1037 C1035 1.327 . S
C1038 C1026 1.349 . S
C1038 H1032 0.950 . S
C1038 C1039 1.327 . S
C1039 H1033 0.950 . S
C1039 C1038 1.327 . S
C1039 C1043 1.429 . S
C1040 C1023 1.574 . S
C1040 H1034 0.949 . S
C1040 C1044 1.368 . S
C1041 C1022 1.429 . S
C1041 C1035 1.429 . S
C1041 C1042 1.523 . S
C1042 C1023 1.368 . S
C1042 C1036 1.368 . S
C1042 C1041 1.523 . S
C1043 C1027 1.429 . S
C1043 C1039 1.429 . S
C1043 C1044 1.523 . S
C1044 C1028 1.368 . S
C1044 C1040 1.368 . S
C1044 C1043 1.523 . S
H1045 C1020 0.950 . S
H1046 C1022 0.950 . S
H1047 C1023 0.949 . S
H1048 C1025 0.950 . S
H1049 C1027 0.950 . S
C1050 C1051 1.349 . S
C1050 C1052 1.327 . S
C1050 H1075 0.950 . S
C1051 C1050 1.349 . S
C1051 C1067 1.349 . S
C1052 C1050 1.327 . S
C1052 C1071 1.429 . S
C1052 H1076 0.950 . S
C1053 C1070 1.574 . S
C1053 C1072 1.368 . S
C1053 H1077 0.949 . S
H1054 C1058 0.949 . S
C1055 C1056 1.349 . S
C1055 C1057 1.327 . S
C1055 H1078 0.950 . S
C1056 C1055 1.349 . S
C1056 C1068 1.349 . S
C1057 C1055 1.327 . S
C1057 C1073 1.429 . S
C1057 H1079 0.950 . S
C1058 H1054 0.949 . S
C1058 C1066 1.574 . S
C1058 C1074 1.368 . S
H1059 C1067 0.950 . S
H1060 C1065 0.950 . S
H1061 C1066 0.949 . S
H1062 C1068 0.950 . S
H1063 C1069 0.950 . S
H1064 C1070 0.949 . S
C1065 H1060 0.950 . S
C1065 C1067 1.327 . S
C1065 C1071 1.429 . S
C1066 C1058 1.574 . S
C1066 H1061 0.949 . S
C1066 C1072 1.368 . S
C1067 C1051 1.349 . S
C1067 H1059 0.950 . S
C1067 C1065 1.327 . S
C1068 C1056 1.349 . S
C1068 H1062 0.950 . S
C1068 C1069 1.327 . S
C1069 H1063 0.950 . S
C1069 C1068 1.327 . S
C1069 C1073 1.429 . S
C1070 C1053 1.574 . S
C1070 H1064 0.949 . S
C1070 C1074 1.368 . S
C1071 C1052 1.429 . S
C1071 C1065 1.429 . S
C1071 C1072 1.523 . S
C1072 C1053 1.368 . S
C1072 C1066 1.368 . S
C1072 C1071 1.523 . S
C1073 C1057 1.429 . S
C1073 C1069 1.429 . S
C1073 C1074 1.523 . S
C1074 C1058 1.368 . S
C1074 C1070 1.368 . S
C1074 C1073 1.523 . S
H1075 C1050 0.950 . S
H1076 C1052 0.950 . S
H1077 C1053 0.949 . S
H1078 C1055 0.950 . S
H1079 C1057 0.950 . S
C1080 C1081 1.349 . S
C1080 C1082 1.327 . S
C1080 H1105 0.950 . S
C1081 C1080 1.349 . S
C1081 C1097 1.349 . S
C1082 C1080 1.327 . S
C1082 C1101 1.429 . S
C1082 H1106 0.950 . S
C1083 C1100 1.574 . S
C1083 C1102 1.368 . S
C1083 H1107 0.949 . S
H1084 C1088 0.949 . S
C1085 C1086 1.349 . S
C1085 C1087 1.327 . S
C1085 H1108 0.950 . S
C1086 C1085 1.349 . S
C1086 C1098 1.349 . S
C1087 C1085 1.327 . S
C1087 C1103 1.429 . S
C1087 H1109 0.950 . S
C1088 H1084 0.949 . S
C1088 C1096 1.574 . S
C1088 C1104 1.368 . S
H1089 C1097 0.950 . S
H1090 C1095 0.950 . S
H1091 C1096 0.949 . S
H1092 C1098 0.950 . S
H1093 C1099 0.950 . S
H1094 C1100 0.949 . S
C1095 H1090 0.950 . S
C1095 C1097 1.327 . S
C1095 C1101 1.429 . S
C1096 C1088 1.574 . S
C1096 H1091 0.949 . S
C1096 C1102 1.368 . S
C1097 C1081 1.349 . S
C1097 H1089 0.950 . S
C1097 C1095 1.327 . S
C1098 C1086 1.349 . S
C1098 H1092 0.950 . S
C1098 C1099 1.327 . S
C1099 H1093 0.950 . S
C1099 C1098 1.327 . S
C1099 C1103 1.429 . S
C1100 C1083 1.574 . S
C1100 H1094 0.949 . S
C1100 C1104 1.368 . S
C1101 C1082 1.429 . S
C1101 C1095 1.429 . S
C1101 C1102 1.523 . S
C1102 C1083 1.368 . S
C1102 C1096 1.368 . S
C1102 C1101 1.523 . S
C1103 C1087 1.429 . S
C1103 C1099 1.429 . S
C1103 C1104 1.523 . S
C1104 C1088 1.368 . S
C1104 C1100 1.368 . S
C1104 C1103 1.523 . S
H1105 C1080 0.950 . S
H1106 C1082 0.950 . S
H1107 C1083 0.949 . S
H1108 C1085 0.950 . S
H1109 C1087 0.950 . S
C1110 C1111 1.349 . S
C1110 C1112 1.327 . S
C1110 H1135 0.950 . S
C1111 C1110 1.349 . S
C1111 C1127 1.349 . S
C1112 C1110 1.327 . S
C1112 C1131 1.429 . S
C1112 H1136 0.950 . S
C1113 C1130 1.574 . S
C1113 C1132 1.368 . S
C1113 H1137 0.949 . S
H1114 C1118 0.949 . S
C1115 C1116 1.349 . S
C1115 C1117 1.327 . S
C1115 H1138 0.950 . S
C1116 C1115 1.349 . S
C1116 C1128 1.349 . S
C1117 C1115 1.327 . S
C1117 C1133 1.429 . S
C1117 H1139 0.950 . S
C1118 H1114 0.949 . S
C1118 C1126 1.574 . S
C1118 C1134 1.368 . S
H1119 C1127 0.950 . S
H1120 C1125 0.950 . S
H1121 C1126 0.949 . S
H1122 C1128 0.950 . S
H1123 C1129 0.950 . S
H1124 C1130 0.949 . S
C1125 H1120 0.950 . S
C1125 C1127 1.327 . S
C1125 C1131 1.429 . S
C1126 C1118 1.574 . S
C1126 H1121 0.949 . S
C1126 C1132 1.368 . S
C1127 C1111 1.349 . S
C1127 H1119 0.950 . S
C1127 C1125 1.327 . S
C1128 C1116 1.349 . S
C1128 H1122 0.950 . S
C1128 C1129 1.327 . S
C1129 H1123 0.950 . S
C1129 C1128 1.327 . S
C1129 C1133 1.429 . S
C1130 C1113 1.574 . S
C1130 H1124 0.949 . S
C1130 C1134 1.368 . S
C1131 C1112 1.429 . S
C1131 C1125 1.429 . S
C1131 C1132 1.523 . S
C1132 C1113 1.368 . S
C1132 C1126 1.368 . S
C1132 C1131 1.523 . S
C1133 C1117 1.429 . S
C1133 C1129 1.429 . S
C1133 C1134 1.523 . S
C1134 C1118 1.368 . S
C1134 C1130 1.368 . S
C1134 C1133 1.523 . S
H1135 C1110 0.950 . S
H1136 C1112 0.950 . S
H1137 C1113 0.949 . S
H1138 C1115 0.950 . S
H1139 C1117 0.950 . S
C1140 C1141 1.349 . S
C1140 C1142 1.327 . S
C1140 H1165 0.950 . S
C1141 C1140 1.349 . S
C1141 C1157 1.349 . S
C1142 C1140 1.327 . S
C1142 C1161 1.429 . S
C1142 H1166 0.950 . S
C1143 C1160 1.574 . S
C1143 C1162 1.368 . S
C1143 H1167 0.949 . S
H1144 C1148 0.949 . S
C1145 C1146 1.349 . S
C1145 C1147 1.327 . S
C1145 H1168 0.950 . S
C1146 C1145 1.349 . S
C1146 C1158 1.349 . S
C1147 C1145 1.327 . S
C1147 C1163 1.429 . S
C1147 H1169 0.950 . S
C1148 H1144 0.949 . S
C1148 C1156 1.574 . S
C1148 C1164 1.368 . S
H1149 C1157 0.950 . S
H1150 C1155 0.950 . S
H1151 C1156 0.949 . S
H1152 C1158 0.950 . S
H1153 C1159 0.950 . S
H1154 C1160 0.949 . S
C1155 H1150 0.950 . S
C1155 C1157 1.327 . S
C1155 C1161 1.429 . S
C1156 C1148 1.574 . S
C1156 H1151 0.949 . S
C1156 C1162 1.368 . S
C1157 C1141 1.349 . S
C1157 H1149 0.950 . S
C1157 C1155 1.327 . S
C1158 C1146 1.349 . S
C1158 H1152 0.950 . S
C1158 C1159 1.327 . S
C1159 H1153 0.950 . S
C1159 C1158 1.327 . S
C1159 C1163 1.429 . S
C1160 C1143 1.574 . S
C1160 H1154 0.949 . S
C1160 C1164 1.368 . S
C1161 C1142 1.429 . S
C1161 C1155 1.429 . S
C1161 C1162 1.523 . S
C1162 C1143 1.368 . S
C1162 C1156 1.368 . S
C1162 C1161 1.523 . S
C1163 C1147 1.429 . S
C1163 C1159 1.429 . S
C1163 C1164 1.523 . S
C1164 C1148 1.368 . S
C1164 C1160 1.368 . S
C1164 C1163 1.523 . S
H1165 C1140 0.950 . S
H1166 C1142 0.950 . S
H1167 C1143 0.949 . S
H1168 C1145 0.950 . S
H1169 C1147 0.950 . S
C1170 C1171 1.349 . S
C1170 C1172 1.327 . S
C1170 H1195 0.950 . S
C1171 C1170 1.349 . S
C1171 C1187 1.349 . S
C1172 C1170 1.327 . S
C1172 C1191 1.429 . S
C1172 H1196 0.950 . S
C1173 C1190 1.574 . S
C1173 C1192 1.368 . S
C1173 H1197 0.949 . S
H1174 C1178 0.949 . S
C1175 C1176 1.349 . S
C1175 C1177 1.327 . S
C1175 H1198 0.950 . S
C1176 C1175 1.349 . S
C1176 C1188 1.349 . S
C1177 C1175 1.327 . S
C1177 C1193 1.429 . S
C1177 H1199 0.950 . S
C1178 H1174 0.949 . S
C1178 C1186 1.574 . S
C1178 C1194 1.368 . S
H1179 C1187 0.950 . S
H1180 C1185 0.950 . S
H1181 C1186 0.949 . S
H1182 C1188 0.950 . S
H1183 C1189 0.950 . S
H1184 C1190 0.949 . S
C1185 H1180 0.950 . S
C1185 C1187 1.327 . S
C1185 C1191 1.429 . S
C1186 C1178 1.574 . S
C1186 H1181 0.949 . S
C1186 C1192 1.368 . S
C1187 C1171 1.349 . S
C1187 H1179 0.950 . S
C1187 C1185 1.327 . S
C1188 C1176 1.349 . S
C1188 H1182 0.950 . S
C1188 C1189 1.327 . S
C1189 H1183 0.950 . S
C1189 C1188 1.327 . S
C1189 C1193 1.429 . S
C1190 C1173 1.574 . S
C1190 H1184 0.949 . S
C1190 C1194 1.368 . S
C1191 C1172 1.429 . S
C1191 C1185 1.429 . S
C1191 C1192 1.523 . S
C1192 C1173 1.368 . S
C1192 C1186 1.368 . S
C1192 C1191 1.523 . S
C1193 C1177 1.429 . S
C1193 C1189 1.429 . S
C1193 C1194 1.523 . S
C1194 C1178 1.368 . S
C1194 C1190 1.368 . S
C1194 C1193 1.523 . S
H1195 C1170 0.950 . S
H1196 C1172 0.950 . S
H1197 C1173 0.949 . S
H1198 C1175 0.950 . S
H1199 C1177 0.950 . S
C1200 C1201 1.349 . S
C1200 C1202 1.327 . S
C1200 H1225 0.950 . S
C1201 C1200 1.349 . S
C1201 C1217 1.349 . S
C1202 C1200 1.327 . S
C1202 C1221 1.429 . S
C1202 H1226 0.950 . S
C1203 C1220 1.574 . S
C1203 C1222 1.368 . S
C1203 H1227 0.949 . S
H1204 C1208 0.949 . S
C1205 C1206 1.349 . S
C1205 C1207 1.327 . S
C1205 H1228 0.950 . S
C1206 C1205 1.349 . S
C1206 C1218 1.349 . S
C1207 C1205 1.327 . S
C1207 C1223 1.429 . S
C1207 H1229 0.950 . S
C1208 H1204 0.949 . S
C1208 C1216 1.574 . S
C1208 C1224 1.368 . S
H1209 C1217 0.950 . S
H1210 C1215 0.950 . S
H1211 C1216 0.949 . S
H1212 C1218 0.950 . S
H1213 C1219 0.950 . S
H1214 C1220 0.949 . S
C1215 H1210 0.950 . S
C1215 C1217 1.327 . S
C1215 C1221 1.429 . S
C1216 C1208 1.574 . S
C1216 H1211 0.949 . S
C1216 C1222 1.368 . S
C1217 C1201 1.349 . S
C1217 H1209 0.950 . S
C1217 C1215 1.327 . S
C1218 C1206 1.349 . S
C1218 H1212 0.950 . S
C1218 C1219 1.327 . S
C1219 H1213 0.950 . S
C1219 C1218 1.327 . S
C1219 C1223 1.429 . S
C1220 C1203 1.574 . S
C1220 H1214 0.949 . S
C1220 C1224 1.368 . S
C1221 C1202 1.429 . S
C1221 C1215 1.429 . S
C1221 C1222 1.523 . S
C1222 C1203 1.368 . S
C1222 C1216 1.368 . S
C1222 C1221 1.523 . S
C1223 C1207 1.429 . S
C1223 C1219 1.429 . S
C1223 C1224 1.523 . S
C1224 C1208 1.368 . S
C1224 C1220 1.368 . S
C1224 C1223 1.523 . S
H1225 C1200 0.950 . S
H1226 C1202 0.950 . S
H1227 C1203 0.949 . S
H1228 C1205 0.950 . S
H1229 C1207 0.950 . S
C1230 C1231 1.349 . S
C1230 C1232 1.327 . S
C1230 H1255 0.950 . S
C1231 C1230 1.349 . S
C1231 C1247 1.349 . S
C1232 C1230 1.327 . S
C1232 C1251 1.429 . S
C1232 H1256 0.950 . S
C1233 C1250 1.574 . S
C1233 C1252 1.368 . S
C1233 H1257 0.949 . S
H1234 C1238 0.949 . S
C1235 C1236 1.349 . S
C1235 C1237 1.327 . S
C1235 H1258 0.950 . S
C1236 C1235 1.349 . S
C1236 C1248 1.349 . S
C1237 C1235 1.327 . S
C1237 C1253 1.429 . S
C1237 H1259 0.950 . S
C1238 H1234 0.949 . S
C1238 C1246 1.574 . S
C1238 C1254 1.368 . S
H1239 C1247 0.950 . S
H1240 C1245 0.950 . S
H1241 C1246 0.949 . S
H1242 C1248 0.950 . S
H1243 C1249 0.950 . S
H1244 C1250 0.949 . S
C1245 H1240 0.950 . S
C1245 C1247 1.327 . S
C1245 C1251 1.429 . S
C1246 C1238 1.574 . S
C1246 H1241 0.949 . S
C1246 C1252 1.368 . S
C1247 C1231 1.349 . S
C1247 H1239 0.950 . S
C1247 C1245 1.327 . S
C1248 C1236 1.349 . S
C1248 H1242 0.950 . S
C1248 C1249 1.327 . S
C1249 H1243 0.950 . S
C1249 C1248 1.327 . S
C1249 C1253 1.429 . S
C1250 C1233 1.574 . S
C1250 H1244 0.949 . S
C1250 C1254 1.368 . S
C1251 C1232 1.429 . S
C1251 C1245 1.429 . S
C1251 C1252 1.523 . S
C1252 C1233 1.368 . S
C1252 C1246 1.368 . S
C1252 C1251 1.523 . S
C1253 C1237 1.429 . S
C1253 C1249 1.429 . S
C1253 C1254 1.523 . S
C1254 C1238 1.368 . S
C1254 C1250 1.368 . S
C1254 C1253 1.523 . S
H1255 C1230 0.950 . S
H1256 C1232 0.950 . S
H1257 C1233 0.949 . S
H1258 C1235 0.950 . S
H1259 C1237 0.950 . S
C1260 C1261 1.349 . S
C1260 C1262 1.327 . S
C1260 H1285 0.950 . S
C1261 C1260 1.349 . S
C1261 C1277 1.349 . S
C1262 C1260 1.327 . S
C1262 C1281 1.429 . S
C1262 H1286 0.950 . S
C1263 C1280 1.574 . S
C1263 C1282 1.368 . S
C1263 H1287 0.949 . S
H1264 C1268 0.949 . S
C1265 C1266 1.349 . S
C1265 C1267 1.327 . S
C1265 H1288 0.950 . S
C1266 C1265 1.349 . S
C1266 C1278 1.349 . S
C1267 C1265 1.327 . S
C1267 C1283 1.429 . S
C1267 H1289 0.950 . S
C1268 H1264 0.949 . S
C1268 C1276 1.574 . S
C1268 C1284 1.368 . S
H1269 C1277 0.950 . S
H1270 C1275 0.950 . S
H1271 C1276 0.949 . S
H1272 C1278 0.950 . S
H1273 C1279 0.950 . S
H1274 C1280 0.949 . S
C1275 H1270 0.950 . S
C1275 C1277 1.327 . S
C1275 C1281 1.429 . S
C1276 C1268 1.574 . S
C1276 H1271 0.949 . S
C1276 C1282 1.368 . S
C1277 C1261 1.349 . S
C1277 H1269 0.950 . S
C1277 C1275 1.327 . S
C1278 C1266 1.349 . S
C1278 H1272 0.950 . S
C1278 C1279 1.327 . S
C1279 H1273 0.950 . S
C1279 C1278 1.327 . S
C1279 C1283 1.429 . S
C1280 C1263 1.574 . S
C1280 H1274 0.949 . S
C1280 C1284 1.368 . S
C1281 C1262 1.429 . S
C1281 C1275 1.429 . S
C1281 C1282 1.523 . S
C1282 C1263 1.368 . S
C1282 C1276 1.368 . S
C1282 C1281 1.523 . S
C1283 C1267 1.429 . S
C1283 C1279 1.429 . S
C1283 C1284 1.523 . S
C1284 C1268 1.368 . S
C1284 C1280 1.368 . S
C1284 C1283 1.523 . S
H1285 C1260 0.950 . S
H1286 C1262 0.950 . S
H1287 C1263 0.949 . S
H1288 C1265 0.950 . S
H1289 C1267 0.950 . S
C1290 C1291 1.349 . S
C1290 C1292 1.327 . S
C1290 H1315 0.950 . S
C1291 C1290 1.349 . S
C1291 C1307 1.349 . S
C1292 C1290 1.327 . S
C1292 C1311 1.429 . S
C1292 H1316 0.950 . S
C1293 C1310 1.574 . S
C1293 C1312 1.368 . S
C1293 H1317 0.949 . S
H1294 C1298 0.949 . S
C1295 C1296 1.349 . S
C1295 C1297 1.327 . S
C1295 H1318 0.950 . S
C1296 C1295 1.349 . S
C1296 C1308 1.349 . S
C1297 C1295 1.327 . S
C1297 C1313 1.429 . S
C1297 H1319 0.950 . S
C1298 H1294 0.949 . S
C1298 C1306 1.574 . S
C1298 C1314 1.368 . S
H1299 C1307 0.950 . S
H1300 C1305 0.950 . S
H1301 C1306 0.949 . S
H1302 C1308 0.950 . S
H1303 C1309 0.950 . S
H1304 C1310 0.949 . S
C1305 H1300 0.950 . S
C1305 C1307 1.327 . S
C1305 C1311 1.429 . S
C1306 C1298 1.574 . S
C1306 H1301 0.949 . S
C1306 C1312 1.368 . S
C1307 C1291 1.349 . S
C1307 H1299 0.950 . S
C1307 C1305 1.327 . S
C1308 C1296 1.349 . S
C1308 H1302 0.950 . S
C1308 C1309 1.327 . S
C1309 H1303 0.950 . S
C1309 C1308 1.327 . S
C1309 C1313 1.429 . S
C1310 C1293 1.574 . S
C1310 H1304 0.949 . S
C1310 C1314 1.368 . S
C1311 C1292 1.429 . S
C1311 C1305 1.429 . S
C1311 C1312 1.523 . S
C1312 C1293 1.368 . S
C1312 C1306 1.368 . S
C1312 C1311 1.523 . S
C1313 C1297 1.429 . S
C1313 C1309 1.429 . S
C1313 C1314 1.523 . S
C1314 C1298 1.368 . S
C1314 C1310 1.368 . S
C1314 C1313 1.523 . S
H1315 C1290 0.950 . S
H1316 C1292 0.950 . S
H1317 C1293 0.949 . S
H1318 C1295 0.950 . S
H1319 C1297 0.950 . S
C1320 C1321 1.349 . S
C1320 C1322 1.327 . S
C1320 H1345 0.950 . S
C1321 C1320 1.349 . S
C1321 C1337 1.349 . S
C1322 C1320 1.327 . S
C1322 C1341 1.429 . S
C1322 H1346 0.950 . S
C1323 C1340 1.574 . S
C1323 C1342 1.368 . S
C1323 H1347 0.949 . S
H1324 C1328 0.949 . S
C1325 C1326 1.349 . S
C1325 C1327 1.327 . S
C1325 H1348 0.950 . S
C1326 C1325 1.349 . S
C1326 C1338 1.349 . S
C1327 C1325 1.327 . S
C1327 C1343 1.429 . S
C1327 H1349 0.950 . S
C1328 H1324 0.949 . S
C1328 C1336 1.574 . S
C1328 C1344 1.368 . S
H1329 C1337 0.950 . S
H1330 C1335 0.950 . S
H1331 C1336 0.949 . S
H1332 C1338 0.950 . S
H1333 C1339 0.950 . S
H1334 C1340 0.949 . S
C1335 H1330 0.950 . S
C1335 C1337 1.327 . S
C1335 C1341 1.429 . S
C1336 C1328 1.574 . S
C1336 H1331 0.949 . S
C1336 C1342 1.368 . S
C1337 C1321 1.349 . S
C1337 H1329 0.950 . S
C1337 C1335 1.327 . S
C1338 C1326 1.349 . S
C1338 H1332 0.950 . S
C1338 C1339 1.327 . S
C1339 H1333 0.950 . S
C1339 C1338 1.327 . S
C1339 C1343 1.429 . S
C1340 C1323 1.574 . S
C1340 H1334 0.949 . S
C1340 C1344 1.368 . S
C1341 C1322 1.429 . S
C1341 C1335 1.429 . S
C1341 C1342 1.523 . S
C1342 C1323 1.368 . S
C1342 C1336 1.368 . S
C1342 C1341 1.523 . S
C1343 C1327 1.429 . S
C1343 C1339 1.429 . S
C1343 C1344 1.523 . S
C1344 C1328 1.368 . S
C1344 C1340 1.368 . S
C1344 C1343 1.523 . S
H1345 C1320 0.950 . S
H1346 C1322 0.950 . S
H1347 C1323 0.949 . S
H1348 C1325 0.950 . S
H1349 C1327 0.950 . S
C1350 C1351 1.349 . S
C1350 C1352 1.327 . S
C1350 H1375 0.950 . S
C1351 C1350 1.349 . S
C1351 C1367 1.349 . S
C1352 C1350 1.327 . S
C1352 C1371 1.429 . S
C1352 H1376 0.950 . S
C1353 C1370 1.574 . S
C1353 C1372 1.368 . S
C1353 H1377 0.949 . S
H1354 C1358 0.949 . S
C1355 C1356 1.349 . S
C1355 C1357 1.327 . S
C1355 H1378 0.950 . S
C1356 C1355 1.349 . S
C1356 C1368 1.349 . S
C1357 C1355 1.327 . S
C1357 C1373 1.429 . S
C1357 H1379 0.950 . S
C1358 H1354 0.949 . S
C1358 C1366 1.574 . S
C1358 C1374 1.368 . S
H1359 C1367 0.950 . S
H1360 C1365 0.950 . S
H1361 C1366 0.949 . S
H1362 C1368 0.950 . S
H1363 C1369 0.950 . S
H1364 C1370 0.949 . S
C1365 H1360 0.950 . S
C1365 C1367 1.327 . S
C1365 C1371 1.429 . S
C1366 C1358 1.574 . S
C1366 H1361 0.949 . S
C1366 C1372 1.368 . S
C1367 C1351 1.349 . S
C1367 H1359 0.950 . S
C1367 C1365 1.327 . S
C1368 C1356 1.349 . S
C1368 H1362 0.950 . S
C1368 C1369 1.327 . S
C1369 H1363 0.950 . S
C1369 C1368 1.327 . S
C1369 C1373 1.429 . S
C1370 C1353 1.574 . S
C1370 H1364 0.949 . S
C1370 C1374 1.368 . S
C1371 C1352 1.429 . S
C1371 C1365 1.429 . S
C1371 C1372 1.523 . S
C1372 C1353 1.368 . S
C1372 C1366 1.368 . S
C1372 C1371 1.523 . S
C1373 C1357 1.429 . S
C1373 C1369 1.429 . S
C1373 C1374 1.523 . S
C1374 C1358 1.368 . S
C1374 C1370 1.368 . S
C1374 C1373 1.523 . S
H1375 C1350 0.950 . S
H1376 C1352 0.950 . S
H1377 C1353 0.949 . S
H1378 C1355 0.950 . S
H1379 C1357 0.950 . S
C1380 C1381 1.349 . S
C1380 C1382 1.327 . S
C1380 H1405 0.950 . S
C1381 C1380 1.349 . S
C1381 C1397 1.349 . S
C1382 C1380 1.327 . S
C1382 C1401 1.429 . S
C1382 H1406 0.950 . S
C1383 C1400 1.574 . S
C1383 C1402 1.368 . S
C1383 H1407 0.949 . S
H1384 C1388 0.949 . S
C1385 C1386 1.349 . S
C1385 C1387 1.327 . S
C1385 H1408 0.950 . S
C1386 C1385 1.349 . S
C1386 C1398 1.349 . S
C1387 C1385 1.327 . S
C1387 C1403 1.429 . S
C1387 H1409 0.950 . S
C1388 H1384 0.949 . S
C1388 C1396 1.574 . S
C1388 C1404 1.368 . S
H1389 C1397 0.950 . S
H1390 C1395 0.950 . S
H1391 C1396 0.949 . S
H1392 C1398 0.950 . S
H1393 C1399 0.950 . S
H1394 C1400 0.949 . S
C1395 H1390 0.950 . S
C1395 C1397 1.327 . S
C1395 C1401 1.429 . S
C1396 C1388 1.574 . S
C1396 H1391 0.949 . S
C1396 C1402 1.368 . S
C1397 C1381 1.349 . S
C1397 H1389 0.950 . S
C1397 C1395 1.327 . S
C1398 C1386 1.349 . S
C1398 H1392 0.950 . S
C1398 C1399 1.327 . S
C1399 H1393 0.950 . S
C1399 C1398 1.327 . S
C1399 C1403 1.429 . S
C1400 C1383 1.574 . S
C1400 H1394 0.949 . S
C1400 C1404 1.368 . S
C1401 C1382 1.429 . S
C1401 C1395 1.429 . S
C1401 C1402 1.523 . S
C1402 C1383 1.368 . S
C1402 C1396 1.368 . S
C1402 C1401 1.523 . S
C1403 C1387 1.429 . S
C1403 C1399 1.429 . S
C1403 C1404 1.523 . S
C1404 C1388 1.368 . S
C1404 C1400 1.368 . S
C1404 C1403 1.523 . S
H1405 C1380 0.950 . S
H1406 C1382 0.950 . S
H1407 C1383 0.949 . S
H1408 C1385 0.950 . S
H1409 C1387 0.950 . S
C1410 C1411 1.349 . S
C1410 C1412 1.327 . S
C1410 H1435 0.950 . S
C1411 C1410 1.349 . S
C1411 C1427 1.349 . S
C1412 C1410 1.327 . S
C1412 C1431 1.429 . S
C1412 H1436 0.950 . S
C1413 C1430 1.574 . S
C1413 C1432 1.368 . S
C1413 H1437 0.949 . S
H1414 C1418 0.949 . S
C1415 C1416 1.349 . S
C1415 C1417 1.327 . S
C1415 H1438 0.950 . S
C1416 C1415 1.349 . S
C1416 C1428 1.349 . S
C1417 C1415 1.327 . S
C1417 C1433 1.429 . S
C1417 H1439 0.950 . S
C1418 H1414 0.949 . S
C1418 C1426 1.574 . S
C1418 C1434 1.368 . S
H1419 C1427 0.950 . S
H1420 C1425 0.950 . S
H1421 C1426 0.949 . S
H1422 C1428 0.950 . S
H1423 C1429 0.950 . S
H1424 C1430 0.949 . S
C1425 H1420 0.950 . S
C1425 C1427 1.327 . S
C1425 C1431 1.429 . S
C1426 C1418 1.574 . S
C1426 H1421 0.949 . S
C1426 C1432 1.368 . S
C1427 C1411 1.349 . S
C1427 H1419 0.950 . S
C1427 C1425 1.327 . S
C1428 C1416 1.349 . S
C1428 H1422 0.950 . S
C1428 C1429 1.327 . S
C1429 H1423 0.950 . S
C1429 C1428 1.327 . S
C1429 C1433 1.429 . S
C1430 C1413 1.574 . S
C1430 H1424 0.949 . S
C1430 C1434 1.368 . S
C1431 C1412 1.429 . S
C1431 C1425 1.429 . S
C1431 C1432 1.523 . S
C1432 C1413 1.368 . S
C1432 C1426 1.368 . S
C1432 C1431 1.523 . S
C1433 C1417 1.429 . S
C1433 C1429 1.429 . S
C1433 C1434 1.523 . S
C1434 C1418 1.368 . S
C1434 C1430 1.368 . S
C1434 C1433 1.523 . S
H1435 C1410 0.950 . S
H1436 C1412 0.950 . S
H1437 C1413 0.949 . S
H1438 C1415 0.950 . S
H1439 C1417 0.950 . S
C1440 C1441 1.349 . S
C1440 C1442 1.327 . S
C1440 H1465 0.950 . S
C1441 C1440 1.349 . S
C1441 C1457 1.349 . S
C1442 C1440 1.327 . S
C1442 C1461 1.429 . S
C1442 H1466 0.950 . S
C1443 C1460 1.574 . S
C1443 C1462 1.368 . S
C1443 H1467 0.949 . S
H1444 C1448 0.949 . S
C1445 C1446 1.349 . S
C1445 C1447 1.327 . S
C1445 H1468 0.950 . S
C1446 C1445 1.349 . S
C1446 C1458 1.349 . S
C1447 C1445 1.327 . S
C1447 C1463 1.429 . S
C1447 H1469 0.950 . S
C1448 H1444 0.949 . S
C1448 C1456 1.574 . S
C1448 C1464 1.368 . S
H1449 C1457 0.950 . S
H1450 C1455 0.950 . S
H1451 C1456 0.949 . S
H1452 C1458 0.950 . S
H1453 C1459 0.950 . S
H1454 C1460 0.949 . S
C1455 H1450 0.950 . S
C1455 C1457 1.327 . S
C1455 C1461 1.429 . S
C1456 C1448 1.574 . S
C1456 H1451 0.949 . S
C1456 C1462 1.368 . S
C1457 C1441 1.349 . S
C1457 H1449 0.950 . S
C1457 C1455 1.327 . S
C1458 C1446 1.349 . S
C1458 H1452 0.950 . S
C1458 C1459 1.327 . S
C1459 H1453 0.950 . S
C1459 C1458 1.327 . S
C1459 C1463 1.429 . S
C1460 C1443 1.574 . S
C1460 H1454 0.949 . S
C1460 C1464 1.368 . S
C1461 C1442 1.429 . S
C1461 C1455 1.429 . S
C1461 C1462 1.523 . S
C1462 C1443 1.368 . S
C1462 C1456 1.368 . S
C1462 C1461 1.523 . S
C1463 C1447 1.429 . S
C1463 C1459 1.429 . S
C1463 C1464 1.523 . S
C1464 C1448 1.368 . S
C1464 C1460 1.368 . S
C1464 C1463 1.523 . S
H1465 C1440 0.950 . S
H1466 C1442 0.950 . S
H1467 C1443 0.949 . S
H1468 C1445 0.950 . S
H1469 C1447 0.950 . S
C1470 C1471 1.349 . S
C1470 C1472 1.327 . S
C1470 H1495 0.950 . S
C1471 C1470 1.349 . S
C1471 C1487 1.349 . S
C1472 C1470 1.327 . S
C1472 C1491 1.429 . S
C1472 H1496 0.950 . S
C1473 C1490 1.574 . S
C1473 C1492 1.368 . S
C1473 H1497 0.949 . S
H1474 C1478 0.949 . S
C1475 C1476 1.349 . S
C1475 C1477 1.327 . S
C1475 H1498 0.950 . S
C1476 C1475 1.349 . S
C1476 C1488 1.349 . S
C1477 C1475 1.327 . S
C1477 C1493 1.429 . S
C1477 H1499 0.950 . S
C1478 H1474 0.949 . S
C1478 C1486 1.574 . S
C1478 C1494 1.368 . S
H1479 C1487 0.950 . S
H1480 C1485 0.950 . S
H1481 C1486 0.949 . S
H1482 C1488 0.950 . S
H1483 C1489 0.950 . S
H1484 C1490 0.949 . S
C1485 H1480 0.950 . S
C1485 C1487 1.327 . S
C1485 C1491 1.429 . S
C1486 C1478 1.574 . S
C1486 H1481 0.949 . S
C1486 C1492 1.368 . S
C1487 C1471 1.349 . S
C1487 H1479 0.950 . S
C1487 C1485 1.327 . S
C1488 C1476 1.349 . S
C1488 H1482 0.950 . S
C1488 C1489 1.327 . S
C1489 H1483 0.950 . S
C1489 C1488 1.327 . S
C1489 C1493 1.429 . S
C1490 C1473 1.574 . S
C1490 H1484 0.949 . S
C1490 C1494 1.368 . S
C1491 C1472 1.429 . S
C1491 C1485 1.429 . S
C1491 C1492 1.523 . S
C1492 C1473 1.368 . S
C1492 C1486 1.368 . S
C1492 C1491 1.523 . S
C1493 C1477 1.429 . S
C1493 C1489 1.429 . S
C1493 C1494 1.523 . S
C1494 C1478 1.368 . S
C1494 C1490 1.368 . S
C1494 C1493 1.523 . S
H1495 C1470 0.950 . S
H1496 C1472 0.950 . S
H1497 C1473 0.949 . S
H1498 C1475 0.950 . S
H1499 C1477 0.950 . S
C1500 C1501 1.349 . S
C1500 C1502 1.327 . S
C1500 H1525 0.950 . S
C1501 C1500 1.349 . S
C1501 C1517 1.349 . S
C1502 C1500 1.327 . S
C1502 C1521 1.429 . S
C1502 H1526 0.950 . S
C1503 C1520 1.574 . S
C1503 C1522 1.368 . S
C1503 H1527 0.949 . S
H1504 C1508 0.949 . S
C1505 C1506 1.349 . S
C1505 C1507 1.327 . S
C1505 H1528 0.950 . S
C1506 C1505 1.349 . S
C1506 C1518 1.349 . S
C1507 C1505 1.327 . S
C1507 C1523 1.429 . S
C1507 H1529 0.950 . S
C1508 H1504 0.949 . S
C1508 C1516 1.574 . S
C1508 C1524 1.368 . S
H1509 C1517 0.950 . S
H1510 C1515 0.950 . S
H1511 C1516 0.949 . S
H1512 C1518 0.950 . S
H1513 C1519 0.950 . S
H1514 C1520 0.949 . S
C1515 H1510 0.950 . S
C1515 C1517 1.327 . S
C1515 C1521 1.429 . S
C1516 C1508 1.574 . S
C1516 H1511 0.949 . S
C1516 C1522 1.368 . S
C1517 C1501 1.349 . S
C1517 H1509 0.950 . S
C1517 C1515 1.327 . S
C1518 C1506 1.349 . S
C1518 H1512 0.950 . S
C1518 C1519 1.327 . S
C1519 H1513 0.950 . S
C1519 C1518 1.327 . S
C1519 C1523 1.429 . S
C1520 C1503 1.574 . S
C1520 H1514 0.949 . S
C1520 C1524 1.368 . S
C1521 C1502 1.429 . S
C1521 C1515 1.429 . S
C1521 C1522 1.523 . S
C1522 C1503 1.368 . S
C1522 C1516 1.368 . S
C1522 C1521 1.523 . S
C1523 C1507 1.429 . S
C1523 C1519 1.429 . S
C1523 C1524 1.523 . S
C1524 C1508 1.368 . S
C1524 C1520 1.368 . S
C1524 C1523 1.523 . S
H1525 C1500 0.950 . S
H1526 C1502 0.950 . S
H1527 C1503 0.949 . S
H1528 C1505 0.950 . S
H1529 C1507 0.950 . S
C1530 C1531 1.349 . S
C1530 C1532 1.327 . S
C1530 H1555 0.950 . S
C1531 C1530 1.349 . S
C1531 C1547 1.349 . S
C1532 C1530 1.327 . S
C1532 C1551 1.429 . S
C1532 H1556 0.950 . S
C1533 C1550 1.574 . S
C1533 C1552 1.368 . S
C1533 H1557 0.949 . S
H1534 C1538 0.949 . S
C1535 C1536 1.349 . S
C1535 C1537 1.327 . S
C1535 H1558 0.950 . S
C1536 C1535 1.349 . S
C1536 C1548 1.349 . S
C1537 C1535 1.327 . S
C1537 C1553 1.429 . S
C1537 H1559 0.950 . S
C1538 H1534 0.949 . S
C1538 C1546 1.574 . S
C1538 C1554 1.368 . S
H1539 C1547 0.950 . S
H1540 C1545 0.950 . S
H1541 C1546 0.949 . S
H1542 C1548 0.950 . S
H1543 C1549 0.950 . S
H1544 C1550 0.949 . S
C1545 H1540 0.950 . S
C1545 C1547 1.327 . S
C1545 C1551 1.429 . S
C1546 C1538 1.574 . S
C1546 H1541 0.949 . S
C1546 C1552 1.368 . S
C1547 C1531 1.349 . S
C1547 H1539 0.950 . S
C1547 C1545 1.327 . S
C1548 C1536 1.349 . S
C1548 H1542 0.950 . S
C1548 C1549 1.327 . S
C1549 H1543 0.950 . S
C1549 C1548 1.327 . S
C1549 C1553 1.429 . S
C1550 C1533 1.574 . S
C1550 H1544 0.949 . S
C1550 C1554 1.368 . S
C1551 C1532 1.429 . S
C1551 C1545 1.429 . S
C1551 C1552 1.523 . S
C1552 C1533 1.368 . S
C1552 C1546 1.368 . S
C1552 C1551 1.523 . S
C1553 C1537 1.429 . S
C1553 C1549 1.429 . S
C1553 C1554 1.523 . S
C1554 C1538 1.368 . S
C1554 C1550 1.368 . S
C1554 C1553 1.523 . S
H1555 C1530 0.950 . S
H1556 C1532 0.950 . S
H1557 C1533 0.949 . S
H1558 C1535 0.950 . S
H1559 C1537 0.950 . S
C1560 C1561 1.349 . S
C1560 C1562 1.327 . S
C1560 H1585 0.950 . S
C1561 C1560 1.349 . S
C1561 C1577 1.349 . S
C1562 C1560 1.327 . S
C1562 C1581 1.429 . S
C1562 H1586 0.950 . S
C1563 C1580 1.574 . S
C1563 C1582 1.368 . S
C1563 H1587 0.949 . S
H1564 C1568 0.949 . S
C1565 C1566 1.349 . S
C1565 C1567 1.327 . S
C1565 H1588 0.950 . S
C1566 C1565 1.349 . S
C1566 C1578 1.349 . S
C1567 C1565 1.327 . S
C1567 C1583 1.429 . S
C1567 H1589 0.950 . S
C1568 H1564 0.949 . S
C1568 C1576 1.574 . S
C1568 C1584 1.368 . S
H1569 C1577 0.950 . S
H1570 C1575 0.950 . S
H1571 C1576 0.949 . S
H1572 C1578 0.950 . S
H1573 C1579 0.950 . S
H1574 C1580 0.949 . S
C1575 H1570 0.950 . S
C1575 C1577 1.327 . S
C1575 C1581 1.429 . S
C1576 C1568 1.574 . S
C1576 H1571 0.949 . S
C1576 C1582 1.368 . S
C1577 C1561 1.349 . S
C1577 H1569 0.950 . S
C1577 C1575 1.327 . S
C1578 C1566 1.349 . S
C1578 H1572 0.950 . S
C1578 C1579 1.327 . S
C1579 H1573 0.950 . S
C1579 C1578 1.327 . S
C1579 C1583 1.429 . S
C1580 C1563 1.574 . S
C1580 H1574 0.949 . S
C1580 C1584 1.368 . S
C1581 C1562 1.429 . S
C1581 C1575 1.429 . S
C1581 C1582 1.523 . S
C1582 C1563 1.368 . S
C1582 C1576 1.368 . S
C1582 C1581 1.523 . S
C1583 C1567 1.429 . S
C1583 C1579 1.429 . S
C1583 C1584 1.523 . S
C1584 C1568 1.368 . S
C1584 C1580 1.368 . S
C1584 C1583 1.523 . S
H1585 C1560 0.950 . S
H1586 C1562 0.950 . S
H1587 C1563 0.949 . S
H1588 C1565 0.950 . S
H1589 C1567 0.950 . S
C1590 C1591 1.349 . S
C1590 C1592 1.327 . S
C1590 H1615 0.950 . S
C1591 C1590 1.349 . S
C1591 C1607 1.349 . S
C1592 C1590 1.327 . S
C1592 C1611 1.429 . S
C1592 H1616 0.950 . S
C1593 C1610 1.574 . S
C1593 C1612 1.368 . S
C1593 H1617 0.949 . S
H1594 C1598 0.949 . S
C1595 C1596 1.349 . S
C1595 C1597 1.327 . S
C1595 H1618 0.950 . S
C1596 C1595 1.349 . S
C1596 C1608 1.349 . S
C1597 C1595 1.327 . S
C1597 C1613 1.429 . S
C1597 H1619 0.950 . S
C1598 H1594 0.949 . S
C1598 C1606 1.574 . S
C1598 C1614 1.368 . S
H1599 C1607 0.950 . S
H1600 C1605 0.950 . S
H1601 C1606 0.949 . S
H1602 C1608 0.950 . S
H1603 C1609 0.950 . S
H1604 C1610 0.949 . S
C1605 H1600 0.950 . S
C1605 C1607 1.327 . S
C1605 C1611 1.429 . S
C1606 C1598 1.574 . S
C1606 H1601 0.949 . S
C1606 C1612 1.368 . S
C1607 C1591 1.349 . S
C1607 H1599 0.950 . S
C1607 C1605 1.327 . S
C1608 C1596 1.349 . S
C1608 H1602 0.950 . S
C1608 C1609 1.327 . S
C1609 H1603 0.950 . S
C1609 C1608 1.327 . S
C1609 C1613 1.429 . S
C1610 C1593 1.574 . S
C1610 H1604 0.949 . S
C1610 C1614 1.368 . S
C1611 C1592 1.429 . S
C1611 C1605 1.429 . S
C1611 C1612 1.523 . S
C1612 C1593 1.368 . S
C1612 C1606 1.368 . S
C1612 C1611 1.523 . S
C1613 C1597 1.429 . S
C1613 C1609 1.429 . S
C1613 C1614 1.523 . S
C1614 C1598 1.368 . S
C1614 C1610 1.368 . S
C1614 C1613 1.523 . S
H1615 C1590 0.950 . S
H1616 C1592 0.950 . S
H1617 C1593 0.949 . S
H1618 C1595 0.950 . S
H1619 C1597 0.950 . S
C1620 C1621 1.349 . S
C1620 C1622 1.327 . S
C1620 H1645 0.950 . S
C1621 C1620 1.349 . S
C1621 C1637 1.349 . S
C1622 C1620 1.327 . S
C1622 C1641 1.429 . S
C1622 H1646 0.950 . S
C1623 C1640 1.574 . S
C1623 C1642 1.368 . S
C1623 H1647 0.949 . S
H1624 C1628 0.949 . S
C1625 C1626 1.349 . S
C1625 C1627 1.327 . S
C1625 H1648 0.950 . S
C1626 C1625 1.349 . S
C1626 C1638 1.349 . S
C1627 C1625 1.327 . S
C1627 C1643 1.429 . S
C1627 H1649 0.950 . S
C1628 H1624 0.949 . S
C1628 C1636 1.574 . S
C1628 C1644 1.368 . S
H1629 C1637 0.950 . S
H1630 C1635 0.950 . S
H1631 C1636 0.949 . S
H1632 C1638 0.950 . S
H1633 C1639 0.950 . S
H1634 C1640 0.949 . S
C1635 H1630 0.950 . S
C1635 C1637 1.327 . S
C1635 C1641 1.429 . S
C1636 C1628 1.574 . S
C1636 H1631 0.949 . S
C1636 C1642 1.368 . S
C1637 C1621 1.349 . S
C1637 H1629 0.950 . S
C1637 C1635 1.327 . S
C1638 C1626 1.349 . S
C1638 H1632 0.950 . S
C1638 C1639 1.327 . S
C1639 H1633 0.950 . S
C1639 C1638 1.327 . S
C1639 C1643 1.429 . S
C1640 C1623 1.574 . S
C1640 H1634 0.949 . S
C1640 C1644 1.368 . S
C1641 C1622 1.429 . S
C1641 C1635 1.429 . S
C1641 C1642 1.523 . S
C1642 C1623 1.368 . S
C1642 C1636 1.368 . S
C1642 C1641 1.523 . S
C1643 C1627 1.429 . S
C1643 C1639 1.429 . S
C1643 C1644 1.523 . S
C1644 C1628 1.368 . S
C1644 C1640 1.368 . S
C1644 C1643 1.523 . S
H1645 C1620 0.950 . S
H1646 C1622 0.950 . S
H1647 C1623 0.949 . S
H1648 C1625 0.950 . S
H1649 C1627 0.950 . S
C1650 C1651 1.349 . S
C1650 C1652 1.327 . S
C1650 H1675 0.950 . S
C1651 C1650 1.349 . S
C1651 C1667 1.349 . S
C1652 C1650 1.327 . S
C1652 C1671 1.429 . S
C1652 H1676 0.950 . S
C1653 C1670 1.574 . S
C1653 C1672 1.368 . S
C1653 H1677 0.949 . S
H1654 C1658 0.949 . S
C1655 C1656 1.349 . S
C1655 C1657 1.327 . S
C1655 H1678 0.950 . S
C1656 C1655 1.349 . S
C1656 C1668 1.349 . S
C1657 C1655 1.327 . S
C1657 C1673 1.429 . S
C1657 H1679 0.950 . S
C1658 H1654 0.949 . S
C1658 C1666 1.574 . S
C1658 C1674 1.368 . S
H1659 C1667 0.950 . S
H1660 C1665 0.950 . S
H1661 C1666 0.949 . S
H1662 C1668 0.950 . S
H1663 C1669 0.950 . S
H1664 C1670 0.949 . S
C1665 H1660 0.950 . S
C1665 C1667 1.327 . S
C1665 C1671 1.429 . S
C1666 C1658 1.574 . S
C1666 H1661 0.949 . S
C1666 C1672 1.368 . S
C1667 C1651 1.349 . S
C1667 H1659 0.950 . S
C1667 C1665 1.327 . S
C1668 C1656 1.349 . S
C1668 H1662 0.950 . S
C1668 C1669 1.327 . S
C1669 H1663 0.950 . S
C1669 C1668 1.327 . S
C1669 C1673 1.429 . S
C1670 C1653 1.574 . S
C1670 H1664 0.949 . S
C1670 C1674 1.368 . S
C1671 C1652 1.429 . S
C1671 C1665 1.429 . S
C1671 C1672 1.523 . S
C1672 C1653 1.368 . S
C1672 C1666 1.368 . S
C1672 C1671 1.523 . S
C1673 C1657 1.429 . S
C1673 C1669 1.429 . S
C1673 C1674 1.523 . S
C1674 C1658 1.368 . S
C1674 C1670 1.368 . S
C1674 C1673 1.523 . S
H1675 C1650 0.950 . S
H1676 C1652 0.950 . S
H1677 C1653 0.949 . S
H1678 C1655 0.950 . S
H1679 C1657 0.950 . S
C1680 C1681 1.349 . S
C1680 C1682 1.327 . S
C1680 H1705 0.950 . S
C1681 C1680 1.349 . S
C1681 C1697 1.349 . S
C1682 C1680 1.327 . S
C1682 C1701 1.429 . S
C1682 H1706 0.950 . S
C1683 C1700 1.574 . S
C1683 C1702 1.368 . S
C1683 H1707 0.949 . S
H1684 C1688 0.949 . S
C1685 C1686 1.349 . S
C1685 C1687 1.327 . S
C1685 H1708 0.950 . S
C1686 C1685 1.349 . S
C1686 C1698 1.349 . S
C1687 C1685 1.327 . S
C1687 C1703 1.429 . S
C1687 H1709 0.950 . S
C1688 H1684 0.949 . S
C1688 C1696 1.574 . S
C1688 C1704 1.368 . S
H1689 C1697 0.950 . S
H1690 C1695 0.950 . S
H1691 C1696 0.949 . S
H1692 C1698 0.950 . S
H1693 C1699 0.950 . S
H1694 C1700 0.949 . S
C1695 H1690 0.950 . S
C1695 C1697 1.327 . S
C1695 C1701 1.429 . S
C1696 C1688 1.574 . S
C1696 H1691 0.949 . S
C1696 C1702 1.368 . S
C1697 C1681 1.349 . S
C1697 H1689 0.950 . S
C1697 C1695 1.327 . S
C1698 C1686 1.349 . S
C1698 H1692 0.950 . S
C1698 C1699 1.327 . S
C1699 H1693 0.950 . S
C1699 C1698 1.327 . S
C1699 C1703 1.429 . S
C1700 C1683 1.574 . S
C1700 H1694 0.949 . S
C1700 C1704 1.368 . S
C1701 C1682 1.429 . S
C1701 C1695 1.429 . S
C1701 C1702 1.523 . S
C1702 C1683 1.368 . S
C1702 C1696 1.368 . S
C1702 C1701 1.523 . S
C1703 C1687 1.429 . S
C1703 C1699 1.429 . S
C1703 C1704 1.523 . S
C1704 C1688 1.368 . S
C1704 C1700 1.368 . S
C1704 C1703 1.523 . S
H1705 C1680 0.950 . S
H1706 C1682 0.950 . S
H1707 C1683 0.949 . S
H1708 C1685 0.950 . S
H1709 C1687 0.950 . S
C1710 C1711 1.349 . S
C1710 C1712 1.327 . S
C1710 H1735 0.950 . S
C1711 C1710 1.349 . S
C1711 C1727 1.349 . S
C1712 C1710 1.327 . S
C1712 C1731 1.429 . S
C1712 H1736 0.950 . S
C1713 C1730 1.574 . S
C1713 C1732 1.368 . S
C1713 H1737 0.949 . S
H1714 C1718 0.949 . S
C1715 C1716 1.349 . S
C1715 C1717 1.327 . S
C1715 H1738 0.950 . S
C1716 C1715 1.349 . S
C1716 C1728 1.349 . S
C1717 C1715 1.327 . S
C1717 C1733 1.429 . S
C1717 H1739 0.950 . S
C1718 H1714 0.949 . S
C1718 C1726 1.574 . S
C1718 C1734 1.368 . S
H1719 C1727 0.950 . S
H1720 C1725 0.950 . S
H1721 C1726 0.949 . S
H1722 C1728 0.950 . S
H1723 C1729 0.950 . S
H1724 C1730 0.949 . S
C1725 H1720 0.950 . S
C1725 C1727 1.327 . S
C1725 C1731 1.429 . S
C1726 C1718 1.574 . S
C1726 H1721 0.949 . S
C1726 C1732 1.368 . S
C1727 C1711 1.349 . S
C1727 H1719 0.950 . S
C1727 C1725 1.327 . S
C1728 C1716 1.349 . S
C1728 H1722 0.950 . S
C1728 C1729 1.327 . S
C1729 H1723 0.950 . S
C1729 C1728 1.327 . S
C1729 C1733 1.429 . S
C1730 C1713 1.574 . S
C1730 H1724 0.949 . S
C1730 C1734 1.368 . S
C1731 C1712 1.429 . S
C1731 C1725 1.429 . S
C1731 C1732 1.523 . S
C1732 C1713 1.368 . S
C1732 C1726 1.368 . S
C1732 C1731 1.523 . S
C1733 C1717 1.429 . S
C1733 C1729 1.429 . S
C1733 C1734 1.523 . S
C1734 C1718 1.368 . S
C1734 C1730 1.368 . S
C1734 C1733 1.523 . S
H1735 C1710 0.950 . S
H1736 C1712 0.950 . S
H1737 C1713 0.949 . S
H1738 C1715 0.950 . S
H1739 C1717 0.950 . S
C1740 C1741 1.349 . S
C1740 C1742 1.327 . S
C1740 H1765 0.950 . S
C1741 C1740 1.349 . S
C1741 C1757 1.349 . S
C1742 C1740 1.327 . S
C1742 C1761 1.429 . S
C1742 H1766 0.950 . S
C1743 C1760 1.574 . S
C1743 C1762 1.368 . S
C1743 H1767 0.949 . S
H1744 C1748 0.949 . S
C1745 C1746 1.349 . S
C1745 C1747 1.327 . S
C1745 H1768 0.950 . S
C1746 C1745 1.349 . S
C1746 C1758 1.349 . S
C1747 C1745 1.327 . S
C1747 C1763 1.429 . S
C1747 H1769 0.950 . S
C1748 H1744 0.949 . S
C1748 C1756 1.574 . S
C1748 C1764 1.368 . S
H1749 C1757 0.950 . S
H1750 C1755 0.950 . S
H1751 C1756 0.949 . S
H1752 C1758 0.950 . S
H1753 C1759 0.950 . S
H1754 C1760 0.949 . S
C1755 H1750 0.950 . S
C1755 C1757 1.327 . S
C1755 C1761 1.429 . S
C1756 C1748 1.574 . S
C1756 H1751 0.949 . S
C1756 C1762 1.368 . S
C1757 C1741 1.349 . S
C1757 H1749 0.950 . S
C1757 C1755 1.327 . S
C1758 C1746 1.349 . S
C1758 H1752 0.950 . S
C1758 C1759 1.327 . S
C1759 H1753 0.950 . S
C1759 C1758 1.327 . S
C1759 C1763 1.429 . S
C1760 C1743 1.574 . S
C1760 H1754 0.949 . S
C1760 C1764 1.368 . S
C1761 C1742 1.429 . S
C1761 C1755 1.429 . S
C1761 C1762 1.523 . S
C1762 C1743 1.368 . S
C1762 C1756 1.368 . S
C1762 C1761 1.523 . S
C1763 C1747 1.429 . S
C1763 C1759 1.429 . S
C1763 C1764 1.523 . S
C1764 C1748 1.368 . S
C1764 C1760 1.368 . S
C1764 C1763 1.523 . S
H1765 C1740 0.950 . S
H1766 C1742 0.950 . S
H1767 C1743 0.949 . S
H1768 C1745 0.950 . S
H1769 C1747 0.950 . S
C1770 C1771 1.349 . S
C1770 C1772 1.327 . S
C1770 H1795 0.950 . S
C1771 C1770 1.349 . S
C1771 C1787 1.349 . S
C1772 C1770 1.327 . S
C1772 C1791 1.429 . S
C1772 H1796 0.950 . S
C1773 C1790 1.574 . S
C1773 C1792 1.368 . S
C1773 H1797 0.949 . S
H1774 C1778 0.949 . S
C1775 C1776 1.349 . S
C1775 C1777 1.327 . S
C1775 H1798 0.950 . S
C1776 C1775 1.349 . S
C1776 C1788 1.349 . S
C1777 C1775 1.327 . S
C1777 C1793 1.429 . S
C1777 H1799 0.950 . S
C1778 H1774 0.949 . S
C1778 C1786 1.574 . S
C1778 C1794 1.368 . S
H1779 C1787 0.950 . S
H1780 C1785 0.950 . S
H1781 C1786 0.949 . S
H1782 C1788 0.950 . S
H1783 C1789 0.950 . S
H1784 C1790 0.949 . S
C1785 H1780 0.950 . S
C1785 C1787 1.327 . S
C1785 C1791 1.429 . S
C1786 C1778 1.574 . S
C1786 H1781 0.949 . S
C1786 C1792 1.368 . S
C1787 C1771 1.349 . S
C1787 H1779 0.950 . S
C1787 C1785 1.327 . S
C1788 C1776 1.349 . S
C1788 H1782 0.950 . S
C1788 C1789 1.327 . S
C1789 H1783 0.950 . S
C1789 C1788 1.327 . S
C1789 C1793 1.429 . S
C1790 C1773 1.574 . S
C1790 H1784 0.949 . S
C1790 C1794 1.368 . S
C1791 C1772 1.429 . S
C1791 C1785 1.429 . S
C1791 C1792 1.523 . S
C1792 C1773 1.368 . S
C1792 C1786 1.368 . S
C1792 C1791 1.523 . S
C1793 C1777 1.429 . S
C1793 C1789 1.429 . S
C1793 C1794 1.523 . S
C1794 C1778 1.368 . S
C1794 C1790 1.368 . S
C1794 C1793 1.523 . S
H1795 C1770 0.950 . S
H1796 C1772 0.950 . S
H1797 C1773 0.949 . S
H1798 C1775 0.950 . S
H1799 C1777 0.950 . S
C1800 C1801 1.349 . S
C1800 C1802 1.327 . S
C1800 H1825 0.950 . S
C1801 C1800 1.349 . S
C1801 C1817 1.349 . S
C1802 C1800 1.327 . S
C1802 C1821 1.429 . S
C1802 H1826 0.950 . S
C1803 C1820 1.574 . S
C1803 C1822 1.368 . S
C1803 H1827 0.949 . S
H1804 C1808 0.949 . S
C1805 C1806 1.349 . S
C1805 C1807 1.327 . S
C1805 H1828 0.950 . S
C1806 C1805 1.349 . S
C1806 C1818 1.349 . S
C1807 C1805 1.327 . S
C1807 C1823 1.429 . S
C1807 H1829 0.950 . S
C1808 H1804 0.949 . S
C1808 C1816 1.574 . S
C1808 C1824 1.368 . S
H1809 C1817 0.950 . S
H1810 C1815 0.950 . S
H1811 C1816 0.949 . S
H1812 C1818 0.950 . S
H1813 C1819 0.950 . S
H1814 C1820 0.949 . S
C1815 H1810 0.950 . S
C1815 C1817 1.327 . S
C1815 C1821 1.429 . S
C1816 C1808 1.574 . S
C1816 H1811 0.949 . S
C1816 C1822 1.368 . S
C1817 C1801 1.349 . S
C1817 H1809 0.950 . S
C1817 C1815 1.327 . S
C1818 C1806 1.349 . S
C1818 H1812 0.950 . S
C1818 C1819 1.327 . S
C1819 H1813 0.950 . S
C1819 C1818 1.327 . S
C1819 C1823 1.429 . S
C1820 C1803 1.574 . S
C1820 H1814 0.949 . S
C1820 C1824 1.368 . S
C1821 C1802 1.429 . S
C1821 C1815 1.429 . S
C1821 C1822 1.523 . S
C1822 C1803 1.368 . S
C1822 C1816 1.368 . S
C1822 C1821 1.523 . S
C1823 C1807 1.429 . S
C1823 C1819 1.429 . S
C1823 C1824 1.523 . S
C1824 C1808 1.368 . S
C1824 C1820 1.368 . S
C1824 C1823 1.523 . S
H1825 C1800 0.950 . S
H1826 C1802 0.950 . S
H1827 C1803 0.949 . S
H1828 C1805 0.950 . S
H1829 C1807 0.950 . S
C1830 C1831 1.349 . S
C1830 C1832 1.327 . S
C1830 H1855 0.950 1_556 S
C1831 C1830 1.349 . S
C1831 C1847 1.349 . S
C1832 C1830 1.327 . S
C1832 C1851 1.429 . S
C1832 H1856 0.950 . S
C1833 C1850 1.574 . S
C1833 C1852 1.368 . S
C1833 H1857 0.949 . S
H1834 C1838 0.949 . S
C1835 C1836 1.349 . S
C1835 C1837 1.327 . S
C1835 H1858 0.950 . S
C1836 C1835 1.349 . S
C1836 C1848 1.349 . S
C1837 C1835 1.327 . S
C1837 C1853 1.429 . S
C1837 H1859 0.950 . S
C1838 H1834 0.949 . S
C1838 C1846 1.574 . S
C1838 C1854 1.368 . S
H1839 C1847 0.950 . S
H1840 C1845 0.950 . S
H1841 C1846 0.949 . S
H1842 C1848 0.950 . S
H1843 C1849 0.950 . S
H1844 C1850 0.949 . S
C1845 H1840 0.950 . S
C1845 C1847 1.327 . S
C1845 C1851 1.429 . S
C1846 C1838 1.574 . S
C1846 H1841 0.949 . S
C1846 C1852 1.368 . S
C1847 C1831 1.349 . S
C1847 H1839 0.950 . S
C1847 C1845 1.327 . S
C1848 C1836 1.349 . S
C1848 H1842 0.950 . S
C1848 C1849 1.327 . S
C1849 H1843 0.950 . S
C1849 C1848 1.327 . S
C1849 C1853 1.429 . S
C1850 C1833 1.574 . S
C1850 H1844 0.949 . S
C1850 C1854 1.368 . S
C1851 C1832 1.429 . S
C1851 C1845 1.429 . S
C1851 C1852 1.523 . S
C1852 C1833 1.368 . S
C1852 C1846 1.368 . S
C1852 C1851 1.523 . S
C1853 C1837 1.429 . S
C1853 C1849 1.429 . S
C1853 C1854 1.523 . S
C1854 C1838 1.368 . S
C1854 C1850 1.368 . S
C1854 C1853 1.523 . S
H1855 C1830 0.950 1_554 S
H1856 C1832 0.950 . S
H1857 C1833 0.949 . S
H1858 C1835 0.950 . S
H1859 C1837 0.950 . S
C1860 C1861 1.349 . S
C1860 C1862 1.327 . S
C1860 H1885 0.950 1_556 S
C1861 C1860 1.349 . S
C1861 C1877 1.349 . S
C1862 C1860 1.327 . S
C1862 C1881 1.429 . S
C1862 H1886 0.950 . S
C1863 C1880 1.574 . S
C1863 C1882 1.368 . S
C1863 H1887 0.949 . S
H1864 C1868 0.949 . S
C1865 C1866 1.349 . S
C1865 C1867 1.327 . S
C1865 H1888 0.950 . S
C1866 C1865 1.349 . S
C1866 C1878 1.349 . S
C1867 C1865 1.327 . S
C1867 C1883 1.429 . S
C1867 H1889 0.950 . S
C1868 H1864 0.949 . S
C1868 C1876 1.574 . S
C1868 C1884 1.368 . S
H1869 C1877 0.950 . S
H1870 C1875 0.950 . S
H1871 C1876 0.949 . S
H1872 C1878 0.950 . S
H1873 C1879 0.950 . S
H1874 C1880 0.949 . S
C1875 H1870 0.950 . S
C1875 C1877 1.327 . S
C1875 C1881 1.429 . S
C1876 C1868 1.574 . S
C1876 H1871 0.949 . S
C1876 C1882 1.368 . S
C1877 C1861 1.349 . S
C1877 H1869 0.950 . S
C1877 C1875 1.327 . S
C1878 C1866 1.349 . S
C1878 H1872 0.950 . S
C1878 C1879 1.327 . S
C1879 H1873 0.950 . S
C1879 C1878 1.327 . S
C1879 C1883 1.429 . S
C1880 C1863 1.574 . S
C1880 H1874 0.949 . S
C1880 C1884 1.368 . S
C1881 C1862 1.429 . S
C1881 C1875 1.429 . S
C1881 C1882 1.523 . S
C1882 C1863 1.368 . S
C1882 C1876 1.368 . S
C1882 C1881 1.523 . S
C1883 C1867 1.429 . S
C1883 C1879 1.429 . S
C1883 C1884 1.523 . S
C1884 C1868 1.368 . S
C1884 C1880 1.368 . S
C1884 C1883 1.523 . S
H1885 C1860 0.950 1_554 S
H1886 C1862 0.950 . S
H1887 C1863 0.949 . S
H1888 C1865 0.950 . S
H1889 C1867 0.950 . S
C1890 C1891 1.349 . S
C1890 C1892 1.327 . S
C1890 H1915 0.950 . S
C1891 C1890 1.349 . S
C1891 C1907 1.349 . S
C1892 C1890 1.327 . S
C1892 C1911 1.429 . S
C1892 H1916 0.950 . S
C1893 C1910 1.574 . S
C1893 C1912 1.368 . S
C1893 H1917 0.949 . S
H1894 C1898 0.949 . S
C1895 C1896 1.349 . S
C1895 C1897 1.327 . S
C1895 H1918 0.950 . S
C1896 C1895 1.349 . S
C1896 C1908 1.349 . S
C1897 C1895 1.327 . S
C1897 C1913 1.429 . S
C1897 H1919 0.950 . S
C1898 H1894 0.949 . S
C1898 C1906 1.574 . S
C1898 C1914 1.368 . S
H1899 C1907 0.950 . S
H1900 C1905 0.950 . S
H1901 C1906 0.949 . S
H1902 C1908 0.950 . S
H1903 C1909 0.950 . S
H1904 C1910 0.949 . S
C1905 H1900 0.950 . S
C1905 C1907 1.327 . S
C1905 C1911 1.429 . S
C1906 C1898 1.574 . S
C1906 H1901 0.949 . S
C1906 C1912 1.368 . S
C1907 C1891 1.349 . S
C1907 H1899 0.950 . S
C1907 C1905 1.327 . S
C1908 C1896 1.349 . S
C1908 H1902 0.950 . S
C1908 C1909 1.327 . S
C1909 H1903 0.950 . S
C1909 C1908 1.327 . S
C1909 C1913 1.429 . S
C1910 C1893 1.574 . S
C1910 H1904 0.949 . S
C1910 C1914 1.368 . S
C1911 C1892 1.429 . S
C1911 C1905 1.429 . S
C1911 C1912 1.523 . S
C1912 C1893 1.368 . S
C1912 C1906 1.368 . S
C1912 C1911 1.523 . S
C1913 C1897 1.429 . S
C1913 C1909 1.429 . S
C1913 C1914 1.523 . S
C1914 C1898 1.368 . S
C1914 C1910 1.368 . S
C1914 C1913 1.523 . S
H1915 C1890 0.950 . S
H1916 C1892 0.950 . S
H1917 C1893 0.949 . S
H1918 C1895 0.950 . S
H1919 C1897 0.950 . S
C1920 C1921 1.349 . S
C1920 C1922 1.327 . S
C1920 H1945 0.950 . S
C1921 C1920 1.349 . S
C1921 C1937 1.349 . S
C1922 C1920 1.327 . S
C1922 C1941 1.429 . S
C1922 H1946 0.950 . S
C1923 C1940 1.574 . S
C1923 C1942 1.368 . S
C1923 H1947 0.949 . S
H1924 C1928 0.949 . S
C1925 C1926 1.349 . S
C1925 C1927 1.327 . S
C1925 H1948 0.950 . S
C1926 C1925 1.349 . S
C1926 C1938 1.349 . S
C1927 C1925 1.327 . S
C1927 C1943 1.429 . S
C1927 H1949 0.950 . S
C1928 H1924 0.949 . S
C1928 C1936 1.574 . S
C1928 C1944 1.368 . S
H1929 C1937 0.950 . S
H1930 C1935 0.950 . S
H1931 C1936 0.949 . S
H1932 C1938 0.950 . S
H1933 C1939 0.950 . S
H1934 C1940 0.949 . S
C1935 H1930 0.950 . S
C1935 C1937 1.327 . S
C1935 C1941 1.429 . S
C1936 C1928 1.574 . S
C1936 H1931 0.949 . S
C1936 C1942 1.368 . S
C1937 C1921 1.349 . S
C1937 H1929 0.950 . S
C1937 C1935 1.327 . S
C1938 C1926 1.349 . S
C1938 H1932 0.950 . S
C1938 C1939 1.327 . S
C1939 H1933 0.950 . S
C1939 C1938 1.327 . S
C1939 C1943 1.429 . S
C1940 C1923 1.574 . S
C1940 H1934 0.949 . S
C1940 C1944 1.368 . S
C1941 C1922 1.429 . S
C1941 C1935 1.429 . S
C1941 C1942 1.523 . S
C1942 C1923 1.368 . S
C1942 C1936 1.368 . S
C1942 C1941 1.523 . S
C1943 C1927 1.429 . S
C1943 C1939 1.429 . S
C1943 C1944 1.523 . S
C1944 C1928 1.368 . S
C1944 C1940 1.368 . S
C1944 C1943 1.523 . S
H1945 C1920 0.950 . S
H1946 C1922 0.950 . S
H1947 C1923 0.949 . S
H1948 C1925 0.950 . S
H1949 C1927 0.950 . S
C1950 C1951 1.349 . S
C1950 C1952 1.327 . S
C1950 H1975 0.950 . S
C1951 C1950 1.349 . S
C1951 C1967 1.349 . S
C1952 C1950 1.327 . S
C1952 C1971 1.429 . S
C1952 H1976 0.950 . S
C1953 C1970 1.574 . S
C1953 C1972 1.368 . S
C1953 H1977 0.949 . S
H1954 C1958 0.949 . S
C1955 C1956 1.349 . S
C1955 C1957 1.327 . S
C1955 H1978 0.950 . S
C1956 C1955 1.349 . S
C1956 C1968 1.349 . S
C1957 C1955 1.327 . S
C1957 C1973 1.429 . S
C1957 H1979 0.950 . S
C1958 H1954 0.949 . S
C1958 C1966 1.574 . S
C1958 C1974 1.368 . S
H1959 C1967 0.950 1_554 S
H1960 C1965 0.950 . S
H1961 C1966 0.949 . S
H1962 C1968 0.950 . S
H1963 C1969 0.950 . S
H1964 C1970 0.949 . S
C1965 H1960 0.950 . S
C1965 C1967 1.327 . S
C1965 C1971 1.429 . S
C1966 C1958 1.574 . S
C1966 H1961 0.949 . S
C1966 C1972 1.368 . S
C1967 C1951 1.349 . S
C1967 H1959 0.950 1_556 S
C1967 C1965 1.327 . S
C1968 C1956 1.349 . S
C1968 H1962 0.950 . S
C1968 C1969 1.327 . S
C1969 H1963 0.950 . S
C1969 C1968 1.327 . S
C1969 C1973 1.429 . S
C1970 C1953 1.574 . S
C1970 H1964 0.949 . S
C1970 C1974 1.368 . S
C1971 C1952 1.429 . S
C1971 C1965 1.429 . S
C1971 C1972 1.523 . S
C1972 C1953 1.368 . S
C1972 C1966 1.368 . S
C1972 C1971 1.523 . S
C1973 C1957 1.429 . S
C1973 C1969 1.429 . S
C1973 C1974 1.523 . S
C1974 C1958 1.368 . S
C1974 C1970 1.368 . S
C1974 C1973 1.523 . S
H1975 C1950 0.950 . S
H1976 C1952 0.950 . S
H1977 C1953 0.949 . S
H1978 C1955 0.950 . S
H1979 C1957 0.950 . S
C1980 C1981 1.349 . S
C1980 C1982 1.327 . S
C1980 H2005 0.950 . S
C1981 C1980 1.349 . S
C1981 C1997 1.349 . S
C1982 C1980 1.327 . S
C1982 C2001 1.429 . S
C1982 H2006 0.950 . S
C1983 C2000 1.574 . S
C1983 C2002 1.368 . S
C1983 H2007 0.949 . S
H1984 C1988 0.949 . S
C1985 C1986 1.349 . S
C1985 C1987 1.327 . S
C1985 H2008 0.950 . S
C1986 C1985 1.349 . S
C1986 C1998 1.349 . S
C1987 C1985 1.327 . S
C1987 C2003 1.429 . S
C1987 H2009 0.950 . S
C1988 H1984 0.949 . S
C1988 C1996 1.574 . S
C1988 C2004 1.368 . S
H1989 C1997 0.950 . S
H1990 C1995 0.950 . S
H1991 C1996 0.949 . S
H1992 C1998 0.950 . S
H1993 C1999 0.950 . S
H1994 C2000 0.949 . S
C1995 H1990 0.950 . S
C1995 C1997 1.327 . S
C1995 C2001 1.429 . S
C1996 C1988 1.574 . S
C1996 H1991 0.949 . S
C1996 C2002 1.368 . S
C1997 C1981 1.349 . S
C1997 H1989 0.950 . S
C1997 C1995 1.327 . S
C1998 C1986 1.349 . S
C1998 H1992 0.950 . S
C1998 C1999 1.327 . S
C1999 H1993 0.950 . S
C1999 C1998 1.327 . S
C1999 C2003 1.429 . S
C2000 C1983 1.574 . S
C2000 H1994 0.949 . S
C2000 C2004 1.368 . S
C2001 C1982 1.429 . S
C2001 C1995 1.429 . S
C2001 C2002 1.523 . S
C2002 C1983 1.368 . S
C2002 C1996 1.368 . S
C2002 C2001 1.523 . S
C2003 C1987 1.429 . S
C2003 C1999 1.429 . S
C2003 C2004 1.523 . S
C2004 C1988 1.368 . S
C2004 C2000 1.368 . S
C2004 C2003 1.523 . S
H2005 C1980 0.950 . S
H2006 C1982 0.950 . S
H2007 C1983 0.949 . S
H2008 C1985 0.950 . S
H2009 C1987 0.950 . S
C2010 C2011 1.349 . S
C2010 C2012 1.327 . S
C2010 H2035 0.950 . S
C2011 C2010 1.349 . S
C2011 C2027 1.349 . S
C2012 C2010 1.327 . S
C2012 C2031 1.429 . S
C2012 H2036 0.950 . S
C2013 C2030 1.574 . S
C2013 C2032 1.368 . S
C2013 H2037 0.949 . S
H2014 C2018 0.949 . S
C2015 C2016 1.349 . S
C2015 C2017 1.327 . S
C2015 H2038 0.950 . S
C2016 C2015 1.349 . S
C2016 C2028 1.349 . S
C2017 C2015 1.327 . S
C2017 C2033 1.429 . S
C2017 H2039 0.950 . S
C2018 H2014 0.949 . S
C2018 C2026 1.574 . S
C2018 C2034 1.368 . S
H2019 C2027 0.950 . S
H2020 C2025 0.950 . S
H2021 C2026 0.949 . S
H2022 C2028 0.950 . S
H2023 C2029 0.950 . S
H2024 C2030 0.949 . S
C2025 H2020 0.950 . S
C2025 C2027 1.327 . S
C2025 C2031 1.429 . S
C2026 C2018 1.574 . S
C2026 H2021 0.949 . S
C2026 C2032 1.368 . S
C2027 C2011 1.349 . S
C2027 H2019 0.950 . S
C2027 C2025 1.327 . S
C2028 C2016 1.349 . S
C2028 H2022 0.950 . S
C2028 C2029 1.327 . S
C2029 H2023 0.950 . S
C2029 C2028 1.327 . S
C2029 C2033 1.429 . S
C2030 C2013 1.574 . S
C2030 H2024 0.949 . S
C2030 C2034 1.368 . S
C2031 C2012 1.429 . S
C2031 C2025 1.429 . S
C2031 C2032 1.523 . S
C2032 C2013 1.368 . S
C2032 C2026 1.368 . S
C2032 C2031 1.523 . S
C2033 C2017 1.429 . S
C2033 C2029 1.429 . S
C2033 C2034 1.523 . S
C2034 C2018 1.368 . S
C2034 C2030 1.368 . S
C2034 C2033 1.523 . S
H2035 C2010 0.950 . S
H2036 C2012 0.950 . S
H2037 C2013 0.949 . S
H2038 C2015 0.950 . S
H2039 C2017 0.950 . S
C2040 C2041 1.349 . S
C2040 C2042 1.327 . S
C2040 H2065 0.950 . S
C2041 C2040 1.349 . S
C2041 C2057 1.349 . S
C2042 C2040 1.327 . S
C2042 C2061 1.429 . S
C2042 H2066 0.950 . S
C2043 C2060 1.574 . S
C2043 C2062 1.368 . S
C2043 H2067 0.949 . S
H2044 C2048 0.949 . S
C2045 C2046 1.349 . S
C2045 C2047 1.327 . S
C2045 H2068 0.950 . S
C2046 C2045 1.349 . S
C2046 C2058 1.349 . S
C2047 C2045 1.327 . S
C2047 C2063 1.429 . S
C2047 H2069 0.950 . S
C2048 H2044 0.949 . S
C2048 C2056 1.574 . S
C2048 C2064 1.368 . S
H2049 C2057 0.950 . S
H2050 C2055 0.950 . S
H2051 C2056 0.949 . S
H2052 C2058 0.950 . S
H2053 C2059 0.950 . S
H2054 C2060 0.949 . S
C2055 H2050 0.950 . S
C2055 C2057 1.327 . S
C2055 C2061 1.429 . S
C2056 C2048 1.574 . S
C2056 H2051 0.949 . S
C2056 C2062 1.368 . S
C2057 C2041 1.349 . S
C2057 H2049 0.950 . S
C2057 C2055 1.327 . S
C2058 C2046 1.349 . S
C2058 H2052 0.950 . S
C2058 C2059 1.327 . S
C2059 H2053 0.950 . S
C2059 C2058 1.327 . S
C2059 C2063 1.429 . S
C2060 C2043 1.574 . S
C2060 H2054 0.949 . S
C2060 C2064 1.368 . S
C2061 C2042 1.429 . S
C2061 C2055 1.429 . S
C2061 C2062 1.523 . S
C2062 C2043 1.368 . S
C2062 C2056 1.368 . S
C2062 C2061 1.523 . S
C2063 C2047 1.429 . S
C2063 C2059 1.429 . S
C2063 C2064 1.523 . S
C2064 C2048 1.368 . S
C2064 C2060 1.368 . S
C2064 C2063 1.523 . S
H2065 C2040 0.950 . S
H2066 C2042 0.950 . S
H2067 C2043 0.949 . S
H2068 C2045 0.950 . S
H2069 C2047 0.950 . S
C2070 C2071 1.349 . S
C2070 C2072 1.327 . S
C2070 H2095 0.950 . S
C2071 C2070 1.349 . S
C2071 C2087 1.349 . S
C2072 C2070 1.327 . S
C2072 C2091 1.429 . S
C2072 H2096 0.950 . S
C2073 C2090 1.574 . S
C2073 C2092 1.368 . S
C2073 H2097 0.949 . S
H2074 C2078 0.949 . S
C2075 C2076 1.349 . S
C2075 C2077 1.327 . S
C2075 H2098 0.950 . S
C2076 C2075 1.349 . S
C2076 C2088 1.349 . S
C2077 C2075 1.327 . S
C2077 C2093 1.429 . S
C2077 H2099 0.950 . S
C2078 H2074 0.949 . S
C2078 C2086 1.574 . S
C2078 C2094 1.368 . S
H2079 C2087 0.950 . S
H2080 C2085 0.950 . S
H2081 C2086 0.949 . S
H2082 C2088 0.950 . S
H2083 C2089 0.950 . S
H2084 C2090 0.949 . S
C2085 H2080 0.950 . S
C2085 C2087 1.327 . S
C2085 C2091 1.429 . S
C2086 C2078 1.574 . S
C2086 H2081 0.949 . S
C2086 C2092 1.368 . S
C2087 C2071 1.349 . S
C2087 H2079 0.950 . S
C2087 C2085 1.327 . S
C2088 C2076 1.349 . S
C2088 H2082 0.950 . S
C2088 C2089 1.327 . S
C2089 H2083 0.950 . S
C2089 C2088 1.327 . S
C2089 C2093 1.429 . S
C2090 C2073 1.574 . S
C2090 H2084 0.949 . S
C2090 C2094 1.368 . S
C2091 C2072 1.429 . S
C2091 C2085 1.429 . S
C2091 C2092 1.523 . S
C2092 C2073 1.368 . S
C2092 C2086 1.368 . S
C2092 C2091 1.523 . S
C2093 C2077 1.429 . S
C2093 C2089 1.429 . S
C2093 C2094 1.523 . S
C2094 C2078 1.368 . S
C2094 C2090 1.368 . S
C2094 C2093 1.523 . S
H2095 C2070 0.950 . S
H2096 C2072 0.950 . S
H2097 C2073 0.949 . S
H2098 C2075 0.950 . S
H2099 C2077 0.950 . S
C2100 C2101 1.349 . S
C2100 C2102 1.327 . S
C2100 H2125 0.950 . S
C2101 C2100 1.349 . S
C2101 C2117 1.349 . S
C2102 C2100 1.327 . S
C2102 C2121 1.429 . S
C2102 H2126 0.950 . S
C2103 C2120 1.574 . S
C2103 C2122 1.368 . S
C2103 H2127 0.949 . S
H2104 C2108 0.949 . S
C2105 C2106 1.349 . S
C2105 C2107 1.327 . S
C2105 H2128 0.950 . S
C2106 C2105 1.349 . S
C2106 C2118 1.349 . S
C2107 C2105 1.327 . S
C2107 C2123 1.429 . S
C2107 H2129 0.950 . S
C2108 H2104 0.949 . S
C2108 C2116 1.574 . S
C2108 C2124 1.368 . S
H2109 C2117 0.950 . S
H2110 C2115 0.950 . S
H2111 C2116 0.949 . S
H2112 C2118 0.950 . S
H2113 C2119 0.950 . S
H2114 C2120 0.949 . S
C2115 H2110 0.950 . S
C2115 C2117 1.327 . S
C2115 C2121 1.429 . S
C2116 C2108 1.574 . S
C2116 H2111 0.949 . S
C2116 C2122 1.368 . S
C2117 C2101 1.349 . S
C2117 H2109 0.950 . S
C2117 C2115 1.327 . S
C2118 C2106 1.349 . S
C2118 H2112 0.950 . S
C2118 C2119 1.327 . S
C2119 H2113 0.950 . S
C2119 C2118 1.327 . S
C2119 C2123 1.429 . S
C2120 C2103 1.574 . S
C2120 H2114 0.949 . S
C2120 C2124 1.368 . S
C2121 C2102 1.429 . S
C2121 C2115 1.429 . S
C2121 C2122 1.523 . S
C2122 C2103 1.368 . S
C2122 C2116 1.368 . S
C2122 C2121 1.523 . S
C2123 C2107 1.429 . S
C2123 C2119 1.429 . S
C2123 C2124 1.523 . S
C2124 C2108 1.368 . S
C2124 C2120 1.368 . S
C2124 C2123 1.523 . S
H2125 C2100 0.950 . S
H2126 C2102 0.950 . S
H2127 C2103 0.949 . S
H2128 C2105 0.950 . S
H2129 C2107 0.950 . S
C2130 C2131 1.349 . S
C2130 C2132 1.327 . S
C2130 H2155 0.950 . S
C2131 C2130 1.349 . S
C2131 C2147 1.349 . S
C2132 C2130 1.327 . S
C2132 C2151 1.429 . S
C2132 H2156 0.950 . S
C2133 C2150 1.574 . S
C2133 C2152 1.368 . S
C2133 H2157 0.949 . S
H2134 C2138 0.949 . S
C2135 C2136 1.349 . S
C2135 C2137 1.327 . S
C2135 H2158 0.950 . S
C2136 C2135 1.349 . S
C2136 C2148 1.349 . S
C2137 C2135 1.327 . S
C2137 C2153 1.429 . S
C2137 H2159 0.950 . S
C2138 H2134 0.949 . S
C2138 C2146 1.574 . S
C2138 C2154 1.368 . S
H2139 C2147 0.950 . S
H2140 C2145 0.950 . S
H2141 C2146 0.949 . S
H2142 C2148 0.950 . S
H2143 C2149 0.950 . S
H2144 C2150 0.949 . S
C2145 H2140 0.950 . S
C2145 C2147 1.327 . S
C2145 C2151 1.429 . S
C2146 C2138 1.574 . S
C2146 H2141 0.949 . S
C2146 C2152 1.368 . S
C2147 C2131 1.349 . S
C2147 H2139 0.950 . S
C2147 C2145 1.327 . S
C2148 C2136 1.349 . S
C2148 H2142 0.950 . S
C2148 C2149 1.327 . S
C2149 H2143 0.950 . S
C2149 C2148 1.327 . S
C2149 C2153 1.429 . S
C2150 C2133 1.574 . S
C2150 H2144 0.949 . S
C2150 C2154 1.368 . S
C2151 C2132 1.429 . S
C2151 C2145 1.429 . S
C2151 C2152 1.523 . S
C2152 C2133 1.368 . S
C2152 C2146 1.368 . S
C2152 C2151 1.523 . S
C2153 C2137 1.429 . S
C2153 C2149 1.429 . S
C2153 C2154 1.523 . S
C2154 C2138 1.368 . S
C2154 C2150 1.368 . S
C2154 C2153 1.523 . S
H2155 C2130 0.950 . S
H2156 C2132 0.950 . S
H2157 C2133 0.949 . S
H2158 C2135 0.950 . S
H2159 C2137 0.950 . S
C2160 C2161 1.349 . S
C2160 C2162 1.327 . S
C2160 H2185 0.950 . S
C2161 C2160 1.349 . S
C2161 C2177 1.349 . S
C2162 C2160 1.327 . S
C2162 C2181 1.429 . S
C2162 H2186 0.950 . S
C2163 C2180 1.574 . S
C2163 C2182 1.368 1_655 S
C2163 H2187 0.949 . S
H2164 C2168 0.949 . S
C2165 C2166 1.349 1_655 S
C2165 C2167 1.327 . S
C2165 H2188 0.950 . S
C2166 C2165 1.349 1_455 S
C2166 C2178 1.349 . S
C2167 C2165 1.327 . S
C2167 C2183 1.429 1_655 S
C2167 H2189 0.950 . S
C2168 H2164 0.949 . S
C2168 C2176 1.574 . S
C2168 C2184 1.368 . S
H2169 C2177 0.950 1_655 S
H2170 C2175 0.947 . S
H2171 C2176 0.949 . S
H2172 C2178 0.950 . S
H2173 C2179 0.950 . S
H2174 C2180 0.949 . S
C2175 H2170 0.947 . S
C2175 C2177 1.329 1_655 S
C2175 C2181 1.429 1_655 S
C2176 C2168 1.574 . S
C2176 H2171 0.949 . S
C2176 C2182 1.368 . S
C2177 C2161 1.349 . S
C2177 H2169 0.950 1_455 S
C2177 C2175 1.329 1_455 S
C2178 C2166 1.349 . S
C2178 H2172 0.950 . S
C2178 C2179 1.327 . S
C2179 H2173 0.950 . S
C2179 C2178 1.327 . S
C2179 C2183 1.429 . S
C2180 C2163 1.574 . S
C2180 H2174 0.949 . S
C2180 C2184 1.368 1_655 S
C2181 C2162 1.429 . S
C2181 C2175 1.429 1_455 S
C2181 C2182 1.523 . S
C2182 C2163 1.368 1_455 S
C2182 C2176 1.368 . S
C2182 C2181 1.523 . S
C2183 C2167 1.429 1_455 S
C2183 C2179 1.429 . S
C2183 C2184 1.523 . S
C2184 C2168 1.368 . S
C2184 C2180 1.368 1_455 S
C2184 C2183 1.523 . S
H2185 C2160 0.950 . S
H2186 C2162 0.950 . S
H2187 C2163 0.949 . S
H2188 C2165 0.950 . S
H2189 C2167 0.950 . S
C2190 C2191 1.349 . S
C2190 C2192 1.327 . S
C2190 H2215 0.950 . S
C2191 C2190 1.349 . S
C2191 C2207 1.349 . S
C2192 C2190 1.327 . S
C2192 C2211 1.429 . S
C2192 H2216 0.950 . S
C2193 C2210 1.574 . S
C2193 C2212 1.368 . S
C2193 H2217 0.949 . S
H2194 C2198 0.949 . S
C2195 C2196 1.349 . S
C2195 C2197 1.327 . S
C2195 H2218 0.950 . S
C2196 C2195 1.349 . S
C2196 C2208 1.349 . S
C2197 C2195 1.327 . S
C2197 C2213 1.429 . S
C2197 H2219 0.950 . S
C2198 H2194 0.949 . S
C2198 C2206 1.574 . S
C2198 C2214 1.368 . S
H2199 C2207 0.950 . S
H2200 C2205 0.950 . S
H2201 C2206 0.949 . S
H2202 C2208 0.950 . S
H2203 C2209 0.950 . S
H2204 C2210 0.949 . S
C2205 H2200 0.950 . S
C2205 C2207 1.327 . S
C2205 C2211 1.429 . S
C2206 C2198 1.574 . S
C2206 H2201 0.949 . S
C2206 C2212 1.368 . S
C2207 C2191 1.349 . S
C2207 H2199 0.950 . S
C2207 C2205 1.327 . S
C2208 C2196 1.349 . S
C2208 H2202 0.950 . S
C2208 C2209 1.327 . S
C2209 H2203 0.950 . S
C2209 C2208 1.327 . S
C2209 C2213 1.429 . S
C2210 C2193 1.574 . S
C2210 H2204 0.949 . S
C2210 C2214 1.368 . S
C2211 C2192 1.429 . S
C2211 C2205 1.429 . S
C2211 C2212 1.523 . S
C2212 C2193 1.368 . S
C2212 C2206 1.368 . S
C2212 C2211 1.523 . S
C2213 C2197 1.429 . S
C2213 C2209 1.429 . S
C2213 C2214 1.523 . S
C2214 C2198 1.368 . S
C2214 C2210 1.368 . S
C2214 C2213 1.523 . S
H2215 C2190 0.950 . S
H2216 C2192 0.950 . S
H2217 C2193 0.949 . S
H2218 C2195 0.950 . S
H2219 C2197 0.950 . S
C2220 C2221 1.349 1_545 S
C2220 C2222 1.327 . S
C2220 H2245 0.950 . S
C2221 C2220 1.349 1_565 S
C2221 C2237 1.349 . S
C2222 C2220 1.327 . S
C2222 C2241 1.429 1_545 S
C2222 H2246 0.950 . S
C2223 C2240 1.574 . S
C2223 C2242 1.368 . S
C2223 H2247 0.949 . S
H2224 C2228 0.949 . S
C2225 C2226 1.349 . S
C2225 C2227 1.327 . S
C2225 H2248 0.950 . S
C2226 C2225 1.349 . S
C2226 C2238 1.349 1_565 S
C2227 C2225 1.327 . S
C2227 C2243 1.429 . S
C2227 H2249 0.950 . S
C2228 H2224 0.949 . S
C2228 C2236 1.574 . S
C2228 C2244 1.368 1_545 S
H2229 C2237 0.950 . S
H2230 C2235 0.950 . S
H2231 C2236 0.949 . S
H2232 C2238 0.950 . S
H2233 C2239 0.950 . S
H2234 C2240 0.949 . S
C2235 H2230 0.950 . S
C2235 C2237 1.327 . S
C2235 C2241 1.429 . S
C2236 C2228 1.574 . S
C2236 H2231 0.949 . S
C2236 C2242 1.368 1_545 S
C2237 C2221 1.349 . S
C2237 H2229 0.950 . S
C2237 C2235 1.327 . S
C2238 C2226 1.349 1_545 S
C2238 H2232 0.950 . S
C2238 C2239 1.327 . S
C2239 H2233 0.950 . S
C2239 C2238 1.327 . S
C2239 C2243 1.429 1_545 S
C2240 C2223 1.574 . S
C2240 H2234 0.949 . S
C2240 C2244 1.368 . S
C2241 C2222 1.429 1_565 S
C2241 C2235 1.429 . S
C2241 C2242 1.523 . S
C2242 C2223 1.368 . S
C2242 C2236 1.368 1_565 S
C2242 C2241 1.523 . S
C2243 C2227 1.429 . S
C2243 C2239 1.429 1_565 S
C2243 C2244 1.523 . S
C2244 C2228 1.368 1_565 S
C2244 C2240 1.368 . S
C2244 C2243 1.523 . S
H2245 C2220 0.950 . S
H2246 C2222 0.950 . S
H2247 C2223 0.949 . S
H2248 C2225 0.950 . S
H2249 C2227 0.950 . S
C2250 C2251 1.349 . S
C2250 C2252 1.327 . S
C2250 H2275 0.950 . S
C2251 C2250 1.349 . S
C2251 C2267 1.349 1_565 S
C2252 C2250 1.327 . S
C2252 C2271 1.429 . S
C2252 H2276 0.950 . S
C2253 C2270 1.574 . S
C2253 C2272 1.368 1_545 S
C2253 H2277 0.949 . S
H2254 C2258 0.949 . S
C2255 C2256 1.349 1_545 S
C2255 C2257 1.327 . S
C2255 H2278 0.950 . S
C2256 C2255 1.349 1_565 S
C2256 C2268 1.349 . S
C2257 C2255 1.327 . S
C2257 C2273 1.429 1_545 S
C2257 H2279 0.950 . S
C2258 H2254 0.949 . S
C2258 C2266 1.574 . S
C2258 C2274 1.368 . S
H2259 C2267 0.950 . S
H2260 C2265 0.950 . S
H2261 C2266 0.949 . S
H2262 C2268 0.950 . S
H2263 C2269 0.950 . S
H2264 C2270 0.949 . S
C2265 H2260 0.950 . S
C2265 C2267 1.327 . S
C2265 C2271 1.429 1_545 S
C2266 C2258 1.574 . S
C2266 H2261 0.949 . S
C2266 C2272 1.368 . S
C2267 C2251 1.349 1_545 S
C2267 H2259 0.950 . S
C2267 C2265 1.327 . S
C2268 C2256 1.349 . S
C2268 H2262 0.950 . S
C2268 C2269 1.327 . S
C2269 H2263 0.950 . S
C2269 C2268 1.327 . S
C2269 C2273 1.429 . S
C2270 C2253 1.574 . S
C2270 H2264 0.949 . S
C2270 C2274 1.368 1_545 S
C2271 C2252 1.429 . S
C2271 C2265 1.429 1_565 S
C2271 C2272 1.523 . S
C2272 C2253 1.368 1_565 S
C2272 C2266 1.368 . S
C2272 C2271 1.523 . S
C2273 C2257 1.429 1_565 S
C2273 C2269 1.429 . S
C2273 C2274 1.523 . S
C2274 C2258 1.368 . S
C2274 C2270 1.368 1_565 S
C2274 C2273 1.523 . S
H2275 C2250 0.950 . S
H2276 C2252 0.950 . S
H2277 C2253 0.949 . S
H2278 C2255 0.950 . S
H2279 C2257 0.950 . S
C2280 C2281 1.349 . S
C2280 C2282 1.327 . S
C2280 H2305 0.950 . S
C2281 C2280 1.349 . S
C2281 C2297 1.349 1_455 S
C2282 C2280 1.327 . S
C2282 C2301 1.429 . S
C2282 H2306 0.950 . S
C2283 C2300 1.574 . S
C2283 C2302 1.368 1_655 S
C2283 H2307 0.949 . S
H2284 C2288 0.949 . S
C2285 C2286 1.301 1_655 S
C2285 C2287 1.327 . S
C2285 H2308 0.950 . S
C2286 C2285 1.301 1_455 S
C2286 C2298 1.374 . S
C2287 C2285 1.327 . S
C2287 C2303 1.429 1_655 S
C2287 H2309 0.950 . S
C2288 H2284 0.949 . S
C2288 C2296 1.574 . S
C2288 C2304 1.368 . S
H2289 C2297 0.950 . S
H2290 C2295 0.950 . S
H2291 C2296 0.949 . S
H2292 C2298 0.950 . S
H2293 C2299 0.950 . S
H2294 C2300 0.949 . S
C2295 H2290 0.950 . S
C2295 C2297 1.327 . S
C2295 C2301 1.429 1_655 S
C2296 C2288 1.574 . S
C2296 H2291 0.949 . S
C2296 C2302 1.368 . S
C2297 C2281 1.349 1_655 S
C2297 H2289 0.950 . S
C2297 C2295 1.327 . S
C2298 C2286 1.374 . S
C2298 H2292 0.950 . S
C2298 C2299 1.327 . S
C2299 H2293 0.950 . S
C2299 C2298 1.327 . S
C2299 C2303 1.429 . S
C2300 C2283 1.574 . S
C2300 H2294 0.949 . S
C2300 C2304 1.368 1_655 S
C2301 C2282 1.429 . S
C2301 C2295 1.429 1_455 S
C2301 C2302 1.523 . S
C2302 C2283 1.368 1_455 S
C2302 C2296 1.368 . S
C2302 C2301 1.523 . S
C2303 C2287 1.429 1_455 S
C2303 C2299 1.429 . S
C2303 C2304 1.523 . S
C2304 C2288 1.368 . S
C2304 C2300 1.368 1_455 S
C2304 C2303 1.523 . S
H2305 C2280 0.950 . S
H2306 C2282 0.950 . S
H2307 C2283 0.949 . S
H2308 C2285 0.950 . S
H2309 C2287 0.950 . S
C2310 C2311 1.349 . S
C2310 C2312 1.327 . S
C2310 H2335 0.950 . S
C2311 C2310 1.349 . S
C2311 C2327 1.349 . S
C2312 C2310 1.327 . S
C2312 C2331 1.429 . S
C2312 H2336 0.950 . S
C2313 C2330 1.574 . S
C2313 C2332 1.368 . S
C2313 H2337 0.949 . S
H2314 C2318 0.949 . S
C2315 C2316 1.349 . S
C2315 C2317 1.327 . S
C2315 H2338 0.950 . S
C2316 C2315 1.349 . S
C2316 C2328 1.349 . S
C2317 C2315 1.327 . S
C2317 C2333 1.429 . S
C2317 H2339 0.950 . S
C2318 H2314 0.949 . S
C2318 C2326 1.574 . S
C2318 C2334 1.368 . S
H2319 C2327 0.950 . S
H2320 C2325 0.950 . S
H2321 C2326 0.949 . S
H2322 C2328 0.950 . S
H2323 C2329 0.950 . S
H2324 C2330 0.949 . S
C2325 H2320 0.950 . S
C2325 C2327 1.327 . S
C2325 C2331 1.429 . S
C2326 C2318 1.574 . S
C2326 H2321 0.949 . S
C2326 C2332 1.368 . S
C2327 C2311 1.349 . S
C2327 H2319 0.950 . S
C2327 C2325 1.327 . S
C2328 C2316 1.349 . S
C2328 H2322 0.950 . S
C2328 C2329 1.327 . S
C2329 H2323 0.950 . S
C2329 C2328 1.327 . S
C2329 C2333 1.429 . S
C2330 C2313 1.574 . S
C2330 H2324 0.949 . S
C2330 C2334 1.368 . S
C2331 C2312 1.429 . S
C2331 C2325 1.429 . S
C2331 C2332 1.523 . S
C2332 C2313 1.368 . S
C2332 C2326 1.368 . S
C2332 C2331 1.523 . S
C2333 C2317 1.429 . S
C2333 C2329 1.429 . S
C2333 C2334 1.523 . S
C2334 C2318 1.368 . S
C2334 C2330 1.368 . S
C2334 C2333 1.523 . S
H2335 C2310 0.950 . S
H2336 C2312 0.950 . S
H2337 C2313 0.949 . S
H2338 C2315 0.950 . S
H2339 C2317 0.950 . S
C2340 C2341 1.349 . S
C2340 C2342 1.327 . S
C2340 H2365 0.950 . S
C2341 C2340 1.349 . S
C2341 C2357 1.349 . S
C2342 C2340 1.327 . S
C2342 C2361 1.429 . S
C2342 H2366 0.950 . S
C2343 C2360 1.574 . S
C2343 C2362 1.368 . S
C2343 H2367 0.949 . S
H2344 C2348 0.949 . S
C2345 C2346 1.349 . S
C2345 C2347 1.327 . S
C2345 H2368 0.950 . S
C2346 C2345 1.349 . S
C2346 C2358 1.349 . S
C2347 C2345 1.327 . S
C2347 C2363 1.429 . S
C2347 H2369 0.950 . S
C2348 H2344 0.949 . S
C2348 C2356 1.574 . S
C2348 C2364 1.368 . S
H2349 C2357 0.950 . S
H2350 C2355 0.950 . S
H2351 C2356 0.949 . S
H2352 C2358 0.950 . S
H2353 C2359 0.950 . S
H2354 C2360 0.949 . S
C2355 H2350 0.950 . S
C2355 C2357 1.327 . S
C2355 C2361 1.429 . S
C2356 C2348 1.574 . S
C2356 H2351 0.949 . S
C2356 C2362 1.368 . S
C2357 C2341 1.349 . S
C2357 H2349 0.950 . S
C2357 C2355 1.327 . S
C2358 C2346 1.349 . S
C2358 H2352 0.950 . S
C2358 C2359 1.327 . S
C2359 H2353 0.950 . S
C2359 C2358 1.327 . S
C2359 C2363 1.429 . S
C2360 C2343 1.574 . S
C2360 H2354 0.949 . S
C2360 C2364 1.368 . S
C2361 C2342 1.429 . S
C2361 C2355 1.429 . S
C2361 C2362 1.523 . S
C2362 C2343 1.368 . S
C2362 C2356 1.368 . S
C2362 C2361 1.523 . S
C2363 C2347 1.429 . S
C2363 C2359 1.429 . S
C2363 C2364 1.523 . S
C2364 C2348 1.368 . S
C2364 C2360 1.368 . S
C2364 C2363 1.523 . S
H2365 C2340 0.950 . S
H2366 C2342 0.950 . S
H2367 C2343 0.949 . S
H2368 C2345 0.950 . S
H2369 C2347 0.950 . S
C2370 C2371 1.349 . S
C2370 C2372 1.327 . S
C2370 H2395 0.950 . S
C2371 C2370 1.349 . S
C2371 C2387 1.349 . S
C2372 C2370 1.327 . S
C2372 C2391 1.429 . S
C2372 H2396 0.950 . S
C2373 C2390 1.574 . S
C2373 C2392 1.368 . S
C2373 H2397 0.949 . S
H2374 C2378 0.949 . S
C2375 C2376 1.349 . S
C2375 C2377 1.327 . S
C2375 H2398 0.950 . S
C2376 C2375 1.349 . S
C2376 C2388 1.349 . S
C2377 C2375 1.327 . S
C2377 C2393 1.429 . S
C2377 H2399 0.950 . S
C2378 H2374 0.949 . S
C2378 C2386 1.574 . S
C2378 C2394 1.368 . S
H2379 C2387 0.950 . S
H2380 C2385 0.950 . S
H2381 C2386 0.949 . S
H2382 C2388 0.950 . S
H2383 C2389 0.950 . S
H2384 C2390 0.949 . S
C2385 H2380 0.950 . S
C2385 C2387 1.327 . S
C2385 C2391 1.429 . S
C2386 C2378 1.574 . S
C2386 H2381 0.949 . S
C2386 C2392 1.368 . S
C2387 C2371 1.349 . S
C2387 H2379 0.950 . S
C2387 C2385 1.327 . S
C2388 C2376 1.349 . S
C2388 H2382 0.950 . S
C2388 C2389 1.327 . S
C2389 H2383 0.950 . S
C2389 C2388 1.327 . S
C2389 C2393 1.429 . S
C2390 C2373 1.574 . S
C2390 H2384 0.949 . S
C2390 C2394 1.368 . S
C2391 C2372 1.429 . S
C2391 C2385 1.429 . S
C2391 C2392 1.523 . S
C2392 C2373 1.368 . S
C2392 C2386 1.368 . S
C2392 C2391 1.523 . S
C2393 C2377 1.429 . S
C2393 C2389 1.429 . S
C2393 C2394 1.523 . S
C2394 C2378 1.368 . S
C2394 C2390 1.368 . S
C2394 C2393 1.523 . S
H2395 C2370 0.950 . S
H2396 C2372 0.950 . S
H2397 C2373 0.949 . S
H2398 C2375 0.950 . S
H2399 C2377 0.950 . S
C2400 C2401 1.349 . S
C2400 C2402 1.327 . S
C2400 H2425 0.950 . S
C2401 C2400 1.349 . S
C2401 C2417 1.349 . S
C2402 C2400 1.327 . S
C2402 C2421 1.429 . S
C2402 H2426 0.950 . S
C2403 C2420 1.574 . S
C2403 C2422 1.368 . S
C2403 H2427 0.949 . S
H2404 C2408 0.949 . S
C2405 C2406 1.349 . S
C2405 C2407 1.327 . S
C2405 H2428 0.950 . S
C2406 C2405 1.349 . S
C2406 C2418 1.349 . S
C2407 C2405 1.327 . S
C2407 C2423 1.429 . S
C2407 H2429 0.950 . S
C2408 H2404 0.949 . S
C2408 C2416 1.574 . S
C2408 C2424 1.368 . S
H2409 C2417 0.950 . S
H2410 C2415 0.950 . S
H2411 C2416 0.949 . S
H2412 C2418 0.950 . S
H2413 C2419 0.950 . S
H2414 C2420 0.949 . S
C2415 H2410 0.950 . S
C2415 C2417 1.327 . S
C2415 C2421 1.429 . S
C2416 C2408 1.574 . S
C2416 H2411 0.949 . S
C2416 C2422 1.368 . S
C2417 C2401 1.349 . S
C2417 H2409 0.950 . S
C2417 C2415 1.327 . S
C2418 C2406 1.349 . S
C2418 H2412 0.950 . S
C2418 C2419 1.327 . S
C2419 H2413 0.950 . S
C2419 C2418 1.327 . S
C2419 C2423 1.429 . S
C2420 C2403 1.574 . S
C2420 H2414 0.949 . S
C2420 C2424 1.368 . S
C2421 C2402 1.429 . S
C2421 C2415 1.429 . S
C2421 C2422 1.523 . S
C2422 C2403 1.368 . S
C2422 C2416 1.368 . S
C2422 C2421 1.523 . S
C2423 C2407 1.429 . S
C2423 C2419 1.429 . S
C2423 C2424 1.523 . S
C2424 C2408 1.368 . S
C2424 C2420 1.368 . S
C2424 C2423 1.523 . S
H2425 C2400 0.950 . S
H2426 C2402 0.950 . S
H2427 C2403 0.949 . S
H2428 C2405 0.950 . S
H2429 C2407 0.950 . S
C2430 C2431 1.349 . S
C2430 C2432 1.327 . S
C2430 H2455 0.950 . S
C2431 C2430 1.349 . S
C2431 C2447 1.319 1_545 S
C2432 C2430 1.327 . S
C2432 C2451 1.429 . S
C2432 H2456 0.950 . S
C2433 C2450 1.574 . S
C2433 C2452 1.368 1_565 S
C2433 H2457 0.949 . S
H2434 C2438 0.949 . S
C2435 C2436 1.349 1_565 S
C2435 C2437 1.327 . S
C2435 H2458 0.950 . S
C2436 C2435 1.349 1_545 S
C2436 C2448 1.349 . S
C2437 C2435 1.327 . S
C2437 C2453 1.429 1_565 S
C2437 H2459 0.950 . S
C2438 H2434 0.949 . S
C2438 C2446 1.574 . S
C2438 C2454 1.368 . S
H2439 C2447 0.963 . S
H2440 C2445 0.950 . S
H2441 C2446 0.949 . S
H2442 C2448 0.950 . S
H2443 C2449 0.950 . S
H2444 C2450 0.949 . S
C2445 H2440 0.950 . S
C2445 C2447 1.345 . S
C2445 C2451 1.429 1_565 S
C2446 C2438 1.574 . S
C2446 H2441 0.949 . S
C2446 C2452 1.368 . S
C2447 C2431 1.319 1_565 S
C2447 H2439 0.963 . S
C2447 C2445 1.345 . S
C2448 C2436 1.349 . S
C2448 H2442 0.950 . S
C2448 C2449 1.327 . S
C2449 H2443 0.950 . S
C2449 C2448 1.327 . S
C2449 C2453 1.429 . S
C2450 C2433 1.574 . S
C2450 H2444 0.949 . S
C2450 C2454 1.368 1_565 S
C2451 C2432 1.429 . S
C2451 C2445 1.429 1_545 S
C2451 C2452 1.523 . S
C2452 C2433 1.368 1_545 S
C2452 C2446 1.368 . S
C2452 C2451 1.523 . S
C2453 C2437 1.429 1_545 S
C2453 C2449 1.429 . S
C2453 C2454 1.523 . S
C2454 C2438 1.368 . S
C2454 C2450 1.368 1_545 S
C2454 C2453 1.523 . S
H2455 C2430 0.950 . S
H2456 C2432 0.950 . S
H2457 C2433 0.949 . S
H2458 C2435 0.950 . S
H2459 C2437 0.950 . S
C2460 C2461 1.349 . S
C2460 C2462 1.327 . S
C2460 H2485 0.950 . S
C2461 C2460 1.349 . S
C2461 C2477 1.349 . S
C2462 C2460 1.327 . S
C2462 C2481 1.429 . S
C2462 H2486 0.950 . S
C2463 C2480 1.574 . S
C2463 C2482 1.368 . S
C2463 H2487 0.949 . S
H2464 C2468 0.949 . S
C2465 C2466 1.349 . S
C2465 C2467 1.327 . S
C2465 H2488 0.947 1_655 S
C2466 C2465 1.349 . S
C2466 C2478 1.349 . S
C2467 C2465 1.327 . S
C2467 C2483 1.429 . S
C2467 H2489 0.974 . S
C2468 H2464 0.949 . S
C2468 C2476 1.574 . S
C2468 C2484 1.368 . S
H2469 C2477 0.950 . S
H2470 C2475 0.950 . S
H2471 C2476 0.949 . S
H2472 C2478 0.950 . S
H2473 C2479 0.950 . S
H2474 C2480 0.949 . S
C2475 H2470 0.950 . S
C2475 C2477 1.327 . S
C2475 C2481 1.429 . S
C2476 C2468 1.574 . S
C2476 H2471 0.949 . S
C2476 C2482 1.368 . S
C2477 C2461 1.349 . S
C2477 H2469 0.950 . S
C2477 C2475 1.327 . S
C2478 C2466 1.349 . S
C2478 H2472 0.950 . S
C2478 C2479 1.327 . S
C2479 H2473 0.950 . S
C2479 C2478 1.327 . S
C2479 C2483 1.429 . S
C2480 C2463 1.574 . S
C2480 H2474 0.949 . S
C2480 C2484 1.368 . S
C2481 C2462 1.429 . S
C2481 C2475 1.429 . S
C2481 C2482 1.523 . S
C2482 C2463 1.368 . S
C2482 C2476 1.368 . S
C2482 C2481 1.523 . S
C2483 C2467 1.429 . S
C2483 C2479 1.429 . S
C2483 C2484 1.523 . S
C2484 C2468 1.368 . S
C2484 C2480 1.368 . S
C2484 C2483 1.523 . S
H2485 C2460 0.950 . S
H2486 C2462 0.950 . S
H2487 C2463 0.949 . S
H2488 C2465 0.947 1_455 S
H2489 C2467 0.974 . S
C2490 C2491 1.349 . S
C2490 C2492 1.327 . S
C2490 H2515 0.950 . S
C2491 C2490 1.349 . S
C2491 C2507 1.349 . S
C2492 C2490 1.327 . S
C2492 C2511 1.429 . S
C2492 H2516 0.950 . S
C2493 C2510 1.574 . S
C2493 C2512 1.368 . S
C2493 H2517 0.949 . S
H2494 C2498 0.949 . S
C2495 C2496 1.349 . S
C2495 C2497 1.327 . S
C2495 H2518 0.950 . S
C2496 C2495 1.349 . S
C2496 C2508 1.349 . S
C2497 C2495 1.327 . S
C2497 C2513 1.429 . S
C2497 H2519 0.950 . S
C2498 H2494 0.949 . S
C2498 C2506 1.574 . S
C2498 C2514 1.368 . S
H2499 C2507 0.950 . S
H2500 C2505 0.950 . S
H2501 C2506 0.949 . S
H2502 C2508 0.950 . S
H2503 C2509 0.950 . S
H2504 C2510 0.949 . S
C2505 H2500 0.950 . S
C2505 C2507 1.327 . S
C2505 C2511 1.429 . S
C2506 C2498 1.574 . S
C2506 H2501 0.949 . S
C2506 C2512 1.368 . S
C2507 C2491 1.349 . S
C2507 H2499 0.950 . S
C2507 C2505 1.327 . S
C2508 C2496 1.349 . S
C2508 H2502 0.950 . S
C2508 C2509 1.327 . S
C2509 H2503 0.950 . S
C2509 C2508 1.327 . S
C2509 C2513 1.429 . S
C2510 C2493 1.574 . S
C2510 H2504 0.949 . S
C2510 C2514 1.368 . S
C2511 C2492 1.429 . S
C2511 C2505 1.429 . S
C2511 C2512 1.523 . S
C2512 C2493 1.368 . S
C2512 C2506 1.368 . S
C2512 C2511 1.523 . S
C2513 C2497 1.429 . S
C2513 C2509 1.429 . S
C2513 C2514 1.523 . S
C2514 C2498 1.368 . S
C2514 C2510 1.368 . S
C2514 C2513 1.523 . S
H2515 C2490 0.950 . S
H2516 C2492 0.950 . S
H2517 C2493 0.949 . S
H2518 C2495 0.950 . S
H2519 C2497 0.950 . S
C2520 C2521 1.349 . S
C2520 C2522 1.327 . S
C2520 H2545 0.950 . S
C2521 C2520 1.349 . S
C2521 C2537 1.349 . S
C2522 C2520 1.327 . S
C2522 C2541 1.429 . S
C2522 H2546 0.950 . S
C2523 C2540 1.574 . S
C2523 C2542 1.368 . S
C2523 H2547 0.949 . S
H2524 C2528 0.949 . S
C2525 C2526 1.349 . S
C2525 C2527 1.327 . S
C2525 H2548 0.950 . S
C2526 C2525 1.349 . S
C2526 C2538 1.349 . S
C2527 C2525 1.327 . S
C2527 C2543 1.429 . S
C2527 H2549 0.950 . S
C2528 H2524 0.949 . S
C2528 C2536 1.574 . S
C2528 C2544 1.368 . S
H2529 C2537 0.950 . S
H2530 C2535 0.950 . S
H2531 C2536 0.949 . S
H2532 C2538 0.950 . S
H2533 C2539 0.950 . S
H2534 C2540 0.949 . S
C2535 H2530 0.950 . S
C2535 C2537 1.327 . S
C2535 C2541 1.429 . S
C2536 C2528 1.574 . S
C2536 H2531 0.949 . S
C2536 C2542 1.368 . S
C2537 C2521 1.349 . S
C2537 H2529 0.950 . S
C2537 C2535 1.327 . S
C2538 C2526 1.349 . S
C2538 H2532 0.950 . S
C2538 C2539 1.327 . S
C2539 H2533 0.950 . S
C2539 C2538 1.327 . S
C2539 C2543 1.429 . S
C2540 C2523 1.574 . S
C2540 H2534 0.949 . S
C2540 C2544 1.368 . S
C2541 C2522 1.429 . S
C2541 C2535 1.429 . S
C2541 C2542 1.523 . S
C2542 C2523 1.368 . S
C2542 C2536 1.368 . S
C2542 C2541 1.523 . S
C2543 C2527 1.429 . S
C2543 C2539 1.429 . S
C2543 C2544 1.523 . S
C2544 C2528 1.368 . S
C2544 C2540 1.368 . S
C2544 C2543 1.523 . S
H2545 C2520 0.950 . S
H2546 C2522 0.950 . S
H2547 C2523 0.949 . S
H2548 C2525 0.950 . S
H2549 C2527 0.950 . S
C2550 C2551 1.349 . S
C2550 C2552 1.327 . S
C2550 H2575 0.950 . S
C2551 C2550 1.349 . S
C2551 C2567 1.349 . S
C2552 C2550 1.327 . S
C2552 C2571 1.429 . S
C2552 H2576 0.950 . S
C2553 C2570 1.574 . S
C2553 C2572 1.368 . S
C2553 H2577 0.949 . S
H2554 C2558 0.949 . S
C2555 C2556 1.349 . S
C2555 C2557 1.327 . S
C2555 H2578 0.950 . S
C2556 C2555 1.349 . S
C2556 C2568 1.349 . S
C2557 C2555 1.327 . S
C2557 C2573 1.429 . S
C2557 H2579 0.950 . S
C2558 H2554 0.949 . S
C2558 C2566 1.574 . S
C2558 C2574 1.368 . S
H2559 C2567 0.950 . S
H2560 C2565 0.950 . S
H2561 C2566 0.949 . S
H2562 C2568 0.950 . S
H2563 C2569 0.950 . S
H2564 C2570 0.949 . S
C2565 H2560 0.950 . S
C2565 C2567 1.327 . S
C2565 C2571 1.429 . S
C2566 C2558 1.574 . S
C2566 H2561 0.949 . S
C2566 C2572 1.368 . S
C2567 C2551 1.349 . S
C2567 H2559 0.950 . S
C2567 C2565 1.327 . S
C2568 C2556 1.349 . S
C2568 H2562 0.950 . S
C2568 C2569 1.327 . S
C2569 H2563 0.950 . S
C2569 C2568 1.327 . S
C2569 C2573 1.429 . S
C2570 C2553 1.574 . S
C2570 H2564 0.949 . S
C2570 C2574 1.368 . S
C2571 C2552 1.429 . S
C2571 C2565 1.429 . S
C2571 C2572 1.523 . S
C2572 C2553 1.368 . S
C2572 C2566 1.368 . S
C2572 C2571 1.523 . S
C2573 C2557 1.429 . S
C2573 C2569 1.429 . S
C2573 C2574 1.523 . S
C2574 C2558 1.368 . S
C2574 C2570 1.368 . S
C2574 C2573 1.523 . S
H2575 C2550 0.950 . S
H2576 C2552 0.950 . S
H2577 C2553 0.949 . S
H2578 C2555 0.950 . S
H2579 C2557 0.950 . S
C2580 C2581 1.349 . S
C2580 C2582 1.327 . S
C2580 H2605 0.950 . S
C2581 C2580 1.349 . S
C2581 C2597 1.349 . S
C2582 C2580 1.327 . S
C2582 C2601 1.429 . S
C2582 H2606 0.950 . S
C2583 C2600 1.574 . S
C2583 C2602 1.368 . S
C2583 H2607 0.949 . S
H2584 C2588 0.949 . S
C2585 C2586 1.349 . S
C2585 C2587 1.327 . S
C2585 H2608 0.950 . S
C2586 C2585 1.349 . S
C2586 C2598 1.349 . S
C2587 C2585 1.327 . S
C2587 C2603 1.429 . S
C2587 H2609 0.950 . S
C2588 H2584 0.949 . S
C2588 C2596 1.574 . S
C2588 C2604 1.368 . S
H2589 C2597 0.950 . S
H2590 C2595 0.950 . S
H2591 C2596 0.949 . S
H2592 C2598 0.950 . S
H2593 C2599 0.950 . S
H2594 C2600 0.949 . S
C2595 H2590 0.950 . S
C2595 C2597 1.327 . S
C2595 C2601 1.429 . S
C2596 C2588 1.574 . S
C2596 H2591 0.949 . S
C2596 C2602 1.368 . S
C2597 C2581 1.349 . S
C2597 H2589 0.950 . S
C2597 C2595 1.327 . S
C2598 C2586 1.349 . S
C2598 H2592 0.950 . S
C2598 C2599 1.327 . S
C2599 H2593 0.950 . S
C2599 C2598 1.327 . S
C2599 C2603 1.429 . S
C2600 C2583 1.574 . S
C2600 H2594 0.949 . S
C2600 C2604 1.368 . S
C2601 C2582 1.429 . S
C2601 C2595 1.429 . S
C2601 C2602 1.523 . S
C2602 C2583 1.368 . S
C2602 C2596 1.368 . S
C2602 C2601 1.523 . S
C2603 C2587 1.429 . S
C2603 C2599 1.429 . S
C2603 C2604 1.523 . S
C2604 C2588 1.368 . S
C2604 C2600 1.368 . S
C2604 C2603 1.523 . S
H2605 C2580 0.950 . S
H2606 C2582 0.950 . S
H2607 C2583 0.949 . S
H2608 C2585 0.950 . S
H2609 C2587 0.950 . S
C2610 C2611 1.349 . S
C2610 C2612 1.327 . S
C2610 H2635 0.950 . S
C2611 C2610 1.349 . S
C2611 C2627 1.349 . S
C2612 C2610 1.327 . S
C2612 C2631 1.429 . S
C2612 H2636 0.950 . S
C2613 C2630 1.574 . S
C2613 C2632 1.368 . S
C2613 H2637 0.949 . S
H2614 C2618 0.949 . S
C2615 C2616 1.349 . S
C2615 C2617 1.327 . S
C2615 H2638 0.950 . S
C2616 C2615 1.349 . S
C2616 C2628 1.349 . S
C2617 C2615 1.327 . S
C2617 C2633 1.429 . S
C2617 H2639 0.950 . S
C2618 H2614 0.949 . S
C2618 C2626 1.574 . S
C2618 C2634 1.368 . S
H2619 C2627 0.950 . S
H2620 C2625 0.950 . S
H2621 C2626 0.949 . S
H2622 C2628 0.950 . S
H2623 C2629 0.950 . S
H2624 C2630 0.949 . S
C2625 H2620 0.950 . S
C2625 C2627 1.327 . S
C2625 C2631 1.429 . S
C2626 C2618 1.574 . S
C2626 H2621 0.949 . S
C2626 C2632 1.368 . S
C2627 C2611 1.349 . S
C2627 H2619 0.950 . S
C2627 C2625 1.327 . S
C2628 C2616 1.349 . S
C2628 H2622 0.950 . S
C2628 C2629 1.327 . S
C2629 H2623 0.950 . S
C2629 C2628 1.327 . S
C2629 C2633 1.429 . S
C2630 C2613 1.574 . S
C2630 H2624 0.949 . S
C2630 C2634 1.368 . S
C2631 C2612 1.429 . S
C2631 C2625 1.429 . S
C2631 C2632 1.523 . S
C2632 C2613 1.368 . S
C2632 C2626 1.368 . S
C2632 C2631 1.523 . S
C2633 C2617 1.429 . S
C2633 C2629 1.429 . S
C2633 C2634 1.523 . S
C2634 C2618 1.368 . S
C2634 C2630 1.368 . S
C2634 C2633 1.523 . S
H2635 C2610 0.950 . S
H2636 C2612 0.950 . S
H2637 C2613 0.949 . S
H2638 C2615 0.950 . S
H2639 C2617 0.950 . S
C2640 C2641 1.349 . S
C2640 C2642 1.327 . S
C2640 H2665 0.950 . S
C2641 C2640 1.349 . S
C2641 C2657 1.349 . S
C2642 C2640 1.327 . S
C2642 C2661 1.429 . S
C2642 H2666 0.950 . S
C2643 C2660 1.574 . S
C2643 C2662 1.368 . S
C2643 H2667 0.949 . S
H2644 C2648 0.949 . S
C2645 C2646 1.349 . S
C2645 C2647 1.327 . S
C2645 H2668 0.950 . S
C2646 C2645 1.349 . S
C2646 C2658 1.349 . S
C2647 C2645 1.327 . S
C2647 C2663 1.429 . S
C2647 H2669 0.950 . S
C2648 H2644 0.949 . S
C2648 C2656 1.574 . S
C2648 C2664 1.368 . S
H2649 C2657 0.950 . S
H2650 C2655 0.950 . S
H2651 C2656 0.949 . S
H2652 C2658 0.950 . S
H2653 C2659 0.950 . S
H2654 C2660 0.949 . S
C2655 H2650 0.950 . S
C2655 C2657 1.327 . S
C2655 C2661 1.429 . S
C2656 C2648 1.574 . S
C2656 H2651 0.949 . S
C2656 C2662 1.368 . S
C2657 C2641 1.349 . S
C2657 H2649 0.950 . S
C2657 C2655 1.327 . S
C2658 C2646 1.349 . S
C2658 H2652 0.950 . S
C2658 C2659 1.327 . S
C2659 H2653 0.950 . S
C2659 C2658 1.327 . S
C2659 C2663 1.429 . S
C2660 C2643 1.574 . S
C2660 H2654 0.949 . S
C2660 C2664 1.368 . S
C2661 C2642 1.429 . S
C2661 C2655 1.429 . S
C2661 C2662 1.523 . S
C2662 C2643 1.368 . S
C2662 C2656 1.368 . S
C2662 C2661 1.523 . S
C2663 C2647 1.429 . S
C2663 C2659 1.429 . S
C2663 C2664 1.523 . S
C2664 C2648 1.368 . S
C2664 C2660 1.368 . S
C2664 C2663 1.523 . S
H2665 C2640 0.950 . S
H2666 C2642 0.950 . S
H2667 C2643 0.949 . S
H2668 C2645 0.950 . S
H2669 C2647 0.950 . S
C2670 C2671 1.349 . S
C2670 C2672 1.327 . S
C2670 H2695 0.950 . S
C2671 C2670 1.349 . S
C2671 C2687 1.349 . S
C2672 C2670 1.327 . S
C2672 C2691 1.429 . S
C2672 H2696 0.950 . S
C2673 C2690 1.574 . S
C2673 C2692 1.368 . S
C2673 H2697 0.949 . S
H2674 C2678 0.949 . S
C2675 C2676 1.349 . S
C2675 C2677 1.327 . S
C2675 H2698 0.950 . S
C2676 C2675 1.349 . S
C2676 C2688 1.349 . S
C2677 C2675 1.327 . S
C2677 C2693 1.429 . S
C2677 H2699 0.950 . S
C2678 H2674 0.949 . S
C2678 C2686 1.574 . S
C2678 C2694 1.368 . S
H2679 C2687 0.950 . S
H2680 C2685 0.950 . S
H2681 C2686 0.949 . S
H2682 C2688 0.950 . S
H2683 C2689 0.950 . S
H2684 C2690 0.949 . S
C2685 H2680 0.950 . S
C2685 C2687 1.327 . S
C2685 C2691 1.429 . S
C2686 C2678 1.574 . S
C2686 H2681 0.949 . S
C2686 C2692 1.368 . S
C2687 C2671 1.349 . S
C2687 H2679 0.950 . S
C2687 C2685 1.327 . S
C2688 C2676 1.349 . S
C2688 H2682 0.950 . S
C2688 C2689 1.327 . S
C2689 H2683 0.950 . S
C2689 C2688 1.327 . S
C2689 C2693 1.429 . S
C2690 C2673 1.574 . S
C2690 H2684 0.949 . S
C2690 C2694 1.368 . S
C2691 C2672 1.429 . S
C2691 C2685 1.429 . S
C2691 C2692 1.523 . S
C2692 C2673 1.368 . S
C2692 C2686 1.368 . S
C2692 C2691 1.523 . S
C2693 C2677 1.429 . S
C2693 C2689 1.429 . S
C2693 C2694 1.523 . S
C2694 C2678 1.368 . S
C2694 C2690 1.368 . S
C2694 C2693 1.523 . S
H2695 C2670 0.950 . S
H2696 C2672 0.950 . S
H2697 C2673 0.949 . S
H2698 C2675 0.950 . S
H2699 C2677 0.950 . S
C2700 C2701 1.349 . S
C2700 C2702 1.327 . S
C2700 H2725 0.950 . S
C2701 C2700 1.349 . S
C2701 C2717 1.349 . S
C2702 C2700 1.327 . S
C2702 C2721 1.429 . S
C2702 H2726 0.950 . S
C2703 C2720 1.574 . S
C2703 C2722 1.368 . S
C2703 H2727 0.949 . S
H2704 C2708 0.949 . S
C2705 C2706 1.349 . S
C2705 C2707 1.327 . S
C2705 H2728 0.950 . S
C2706 C2705 1.349 . S
C2706 C2718 1.349 . S
C2707 C2705 1.327 . S
C2707 C2723 1.429 . S
C2707 H2729 0.950 . S
C2708 H2704 0.949 . S
C2708 C2716 1.574 . S
C2708 C2724 1.368 . S
H2709 C2717 0.950 . S
H2710 C2715 0.950 . S
H2711 C2716 0.949 . S
H2712 C2718 0.955 1_455 S
H2713 C2719 0.949 . S
H2714 C2720 0.949 . S
C2715 H2710 0.950 . S
C2715 C2717 1.327 . S
C2715 C2721 1.429 . S
C2716 C2708 1.574 . S
C2716 H2711 0.949 . S
C2716 C2722 1.368 . S
C2717 C2701 1.349 . S
C2717 H2709 0.950 . S
C2717 C2715 1.327 . S
C2718 C2706 1.349 . S
C2718 H2712 0.955 1_655 S
C2718 C2719 1.322 . S
C2719 H2713 0.949 . S
C2719 C2718 1.322 . S
C2719 C2723 1.429 . S
C2720 C2703 1.574 . S
C2720 H2714 0.949 . S
C2720 C2724 1.368 . S
C2721 C2702 1.429 . S
C2721 C2715 1.429 . S
C2721 C2722 1.523 . S
C2722 C2703 1.368 . S
C2722 C2716 1.368 . S
C2722 C2721 1.523 . S
C2723 C2707 1.429 . S
C2723 C2719 1.429 . S
C2723 C2724 1.523 . S
C2724 C2708 1.368 . S
C2724 C2720 1.368 . S
C2724 C2723 1.523 . S
H2725 C2700 0.950 . S
H2726 C2702 0.950 . S
H2727 C2703 0.949 . S
H2728 C2705 0.950 . S
H2729 C2707 0.950 . S
C2730 C2731 1.349 . S
C2730 C2732 1.327 . S
C2730 H2755 0.950 . S
C2731 C2730 1.349 . S
C2731 C2747 1.349 . S
C2732 C2730 1.327 . S
C2732 C2751 1.429 . S
C2732 H2756 0.950 . S
C2733 C2750 1.574 . S
C2733 C2752 1.368 . S
C2733 H2757 0.949 . S
H2734 C2738 0.949 . S
C2735 C2736 1.349 . S
C2735 C2737 1.327 . S
C2735 H2758 0.950 . S
C2736 C2735 1.349 . S
C2736 C2748 1.349 . S
C2737 C2735 1.327 . S
C2737 C2753 1.429 . S
C2737 H2759 0.950 . S
C2738 H2734 0.949 . S
C2738 C2746 1.574 . S
C2738 C2754 1.368 . S
H2739 C2747 0.950 . S
H2740 C2745 0.950 . S
H2741 C2746 0.949 . S
H2742 C2748 0.950 . S
H2743 C2749 0.950 . S
H2744 C2750 0.949 . S
C2745 H2740 0.950 . S
C2745 C2747 1.327 . S
C2745 C2751 1.429 . S
C2746 C2738 1.574 . S
C2746 H2741 0.949 . S
C2746 C2752 1.368 . S
C2747 C2731 1.349 . S
C2747 H2739 0.950 . S
C2747 C2745 1.327 . S
C2748 C2736 1.349 . S
C2748 H2742 0.950 . S
C2748 C2749 1.327 . S
C2749 H2743 0.950 . S
C2749 C2748 1.327 . S
C2749 C2753 1.429 . S
C2750 C2733 1.574 . S
C2750 H2744 0.949 . S
C2750 C2754 1.368 . S
C2751 C2732 1.429 . S
C2751 C2745 1.429 . S
C2751 C2752 1.523 . S
C2752 C2733 1.368 . S
C2752 C2746 1.368 . S
C2752 C2751 1.523 . S
C2753 C2737 1.429 . S
C2753 C2749 1.429 . S
C2753 C2754 1.523 . S
C2754 C2738 1.368 . S
C2754 C2750 1.368 . S
C2754 C2753 1.523 . S
H2755 C2730 0.950 . S
H2756 C2732 0.950 . S
H2757 C2733 0.949 . S
H2758 C2735 0.950 . S
H2759 C2737 0.950 . S
C2760 C2761 1.349 . S
C2760 C2762 1.327 . S
C2760 H2785 0.950 . S
C2761 C2760 1.349 . S
C2761 C2777 1.349 . S
C2762 C2760 1.327 . S
C2762 C2781 1.429 . S
C2762 H2786 0.950 . S
C2763 C2780 1.574 . S
C2763 C2782 1.368 . S
C2763 H2787 0.949 . S
H2764 C2768 0.949 . S
C2765 C2766 1.360 . S
C2765 C2767 1.327 . S
C2765 H2788 0.950 . S
C2766 C2765 1.360 . S
C2766 C2778 1.298 1_545 S
C2767 C2765 1.327 . S
C2767 C2783 1.429 . S
C2767 H2789 0.950 . S
C2768 H2764 0.949 . S
C2768 C2776 1.574 . S
C2768 C2784 1.368 . S
H2769 C2777 0.950 . S
H2770 C2775 0.950 . S
H2771 C2776 0.949 . S
H2772 C2778 0.954 . S
H2773 C2779 0.914 1_565 S
H2774 C2780 0.949 . S
C2775 H2770 0.950 . S
C2775 C2777 1.327 . S
C2775 C2781 1.429 . S
C2776 C2768 1.574 . S
C2776 H2771 0.949 . S
C2776 C2782 1.368 . S
C2777 C2761 1.349 . S
C2777 H2769 0.950 . S
C2777 C2775 1.327 . S
C2778 C2766 1.298 1_565 S
C2778 H2772 0.954 . S
C2778 C2779 1.370 1_565 S
C2779 H2773 0.914 1_545 S
C2779 C2778 1.370 1_545 S
C2779 C2783 1.436 . S
C2780 C2763 1.574 . S
C2780 H2774 0.949 . S
C2780 C2784 1.368 . S
C2781 C2762 1.429 . S
C2781 C2775 1.429 . S
C2781 C2782 1.523 . S
C2782 C2763 1.368 . S
C2782 C2776 1.368 . S
C2782 C2781 1.523 . S
C2783 C2767 1.429 . S
C2783 C2779 1.436 . S
C2783 C2784 1.523 . S
C2784 C2768 1.368 . S
C2784 C2780 1.368 . S
C2784 C2783 1.523 . S
H2785 C2760 0.950 . S
H2786 C2762 0.950 . S
H2787 C2763 0.949 . S
H2788 C2765 0.950 . S
H2789 C2767 0.950 . S
C631 C7 1.499 . S
C636 C458 1.499 1_655 S
C661 C23 1.577 . S
C666 C471 1.556 . S
C696 C500 1.477 1_545 S
C691 C37 1.536 . S
C721 C35 1.523 1_545 S
C726 C513 1.503 . S
C751 C9 1.557 1_455 S
C756 C534 1.526 . S
C781 C21 1.546 . S
C786 C563 1.510 . S
C811 C49 1.508 . S
C816 C542 1.494 . S
C846 C555 1.511 . S
C841 C65 1.560 . S
C876 C521 1.504 . S
C871 C79 1.542 1_565 S
C901 C77 1.493 . S
C906 C492 1.479 1_545 S
C936 C450 1.489 1_655 S
C931 C51 1.564 1_655 S
C961 C63 1.532 . S
C966 C479 1.531 . S
C991 C91 1.599 . S
C996 C584 1.562 . S
C1021 C107 1.617 . S
C1026 C597 1.595 . S
C1056 C626 1.544 . S
C1051 C121 1.624 . S
C1081 C119 1.574 . S
C1086 C261 1.586 . S
C1111 C93 1.630 . S
C1116 C282 1.609 . S
C1141 C105 1.573 . S
C1146 C311 1.531 . S
C1171 C133 1.537 . S
C1176 C290 1.537 . S
C1201 C149 1.585 . S
C1206 C303 1.534 . S
C1236 C269 1.574 . S
C1231 C163 1.604 . S
C1266 C618 1.569 . S
C1261 C161 1.599 . S
C1296 C576 1.540 . S
C1291 C135 1.601 . S
C1326 C605 1.582 . S
C1321 C147 1.576 . S
C1351 C175 1.556 . S
C1356 C332 1.516 . S
C1381 C191 1.598 . S
C1386 C345 1.579 . S
C1411 C205 1.620 . S
C1416 C374 1.543 . S
C1441 C203 1.613 . S
C1446 C387 1.629 . S
C1476 C408 1.605 . S
C1471 C177 1.628 . S
C1506 C437 1.558 . S
C1501 C189 1.593 . S
C1536 C416 1.594 . S
C1531 C217 1.590 . S
C1566 C429 1.550 . S
C1561 C233 1.605 . S
C1591 C247 1.601 . S
C1596 C395 1.570 . S
C1626 C366 1.520 . S
C1621 C245 1.552 . S
C1651 C219 1.608 . S
C1656 C324 1.550 . S
C1686 C353 1.562 . S
C1681 C231 1.562 . S
C1716 C264 1.431 . S
C1711 C8 1.536 . S
C1741 C17 1.469 . S
C1746 C285 1.363 . S
C1776 C313 1.417 . S
C1771 C31 1.526 . S
C1806 C334 1.422 . S
C1801 C36 1.532 . S
C1836 C348 1.400 . S
C1831 C3 1.506 . S
C1866 C376 1.362 . S
C1861 C22 1.472 . S
C1891 C50 1.557 . S
C1896 C369 1.406 . S
C1921 C59 1.482 . S
C1926 C327 1.328 . S
C1951 C73 1.520 . S
C1956 C355 1.440 . S
C1981 C78 1.566 . S
C1986 C292 1.490 . S
C2016 C306 1.360 . S
C2011 C45 1.513 . S
C2041 C64 1.492 . S
C2046 C271 1.413 . S
C2076 C390 1.422 . S
C2071 C92 1.528 . S
C2101 C101 1.564 . S
C2106 C411 1.450 . S
C2131 C115 1.581 . S
C2136 C439 1.465 . S
C2166 C460 1.374 . S
C2161 C120 1.460 . S
C2191 C87 1.518 . S
C2196 C474 1.406 . S
C2221 C106 1.438 . S
C2226 C502 1.355 . S
C2251 C134 1.468 . S
C2256 C495 1.343 . S
C2281 C143 1.460 . S
C2286 C453 1.363 . S
C2316 C481 1.459 . S
C2311 C157 1.545 . S
C2341 C162 1.538 . S
C2346 C418 1.455 . S
C2371 C129 1.590 . S
C2376 C432 1.424 . S
C2406 C397 1.488 . S
C2401 C148 1.572 . S
C2436 C516 1.312 1_545 S
C2431 C176 1.467 . S
C2461 C185 1.454 . S
C2466 C537 1.335 1_655 S
C2491 C199 1.528 . S
C2496 C565 1.420 . S
C2526 C586 1.403 . S
C2521 C204 1.513 . S
C2556 C600 1.458 . S
C2551 C171 1.577 . S
C2581 C190 1.557 . S
C2586 C628 1.442 . S
C2611 C218 1.551 . S
C2616 C621 1.392 . S
C2641 C227 1.575 . S
C2646 C579 1.413 . S
C2676 C607 1.494 . S
C2671 C241 1.585 . S
C2706 C544 1.378 1_655 S
C2701 C246 1.457 . S
C2736 C558 1.378 . S
C2731 C213 1.535 . S
C2761 C232 1.448 . S
C2766 C523 1.383 1_545 S
