# Generated by pormake.
# Topology dag, (6,3)-cn, num edge types: 1
# Building blocks:
#     Node 0, Type 0, BuildingBlock: IZENUY_clean_sbu_0, # of connection points: 6
#     Node 1, Type 0, BuildingBlock: IZENUY_clean_sbu_0, # of connection points: 6
#     Node 2, Type 0, BuildingBlock: IZENUY_clean_sbu_0, # of connection points: 6
#     Node 3, Type 0, BuildingBlock: IZENUY_clean_sbu_0, # of connection points: 6
#     Node 4, Type 1, BuildingBlock: MIDCAF_clean_linker_0, # of connection points: 3
#     Node 5, Type 1, BuildingBlock: MIDCAF_clean_linker_0, # of connection points: 3
#     Node 6, Type 1, BuildingBlock: MIDCAF_clean_linker_0, # of connection points: 3
#     Node 7, Type 1, BuildingBlock: MIDCAF_clean_linker_0, # of connection points: 3
#     Node 8, Type 1, BuildingBlock: MIDCAF_clean_linker_0, # of connection points: 3
#     Node 9, Type 1, BuildingBlock: MIDCAF_clean_linker_0, # of connection points: 3
#     Node 10, Type 1, BuildingBlock: MIDCAF_clean_linker_0, # of connection points: 3
#     Node 11, Type 1, BuildingBlock: MIDCAF_clean_linker_0, # of connection points: 3
#     Edge 12, Type (0, 1), BuildingBlock: AJUNOK_clean_linker_0, # of connection points: 2
#     Edge 13, Type (0, 1), BuildingBlock: AJUNOK_clean_linker_0, # of connection points: 2
#     Edge 14, Type (0, 1), BuildingBlock: AJUNOK_clean_linker_0, # of connection points: 2
#     Edge 15, Type (0, 1), BuildingBlock: AJUNOK_clean_linker_0, # of connection points: 2
#     Edge 16, Type (0, 1), BuildingBlock: AJUNOK_clean_linker_0, # of connection points: 2
#     Edge 17, Type (0, 1), BuildingBlock: AJUNOK_clean_linker_0, # of connection points: 2
#     Edge 18, Type (0, 1), BuildingBlock: AJUNOK_clean_linker_0, # of connection points: 2
#     Edge 19, Type (0, 1), BuildingBlock: AJUNOK_clean_linker_0, # of connection points: 2
#     Edge 20, Type (0, 1), BuildingBlock: AJUNOK_clean_linker_0, # of connection points: 2
#     Edge 21, Type (0, 1), BuildingBlock: AJUNOK_clean_linker_0, # of connection points: 2
#     Edge 22, Type (0, 1), BuildingBlock: AJUNOK_clean_linker_0, # of connection points: 2
#     Edge 23, Type (0, 1), BuildingBlock: AJUNOK_clean_linker_0, # of connection points: 2
#     Edge 24, Type (0, 1), BuildingBlock: AJUNOK_clean_linker_0, # of connection points: 2
#     Edge 25, Type (0, 1), BuildingBlock: AJUNOK_clean_linker_0, # of connection points: 2
#     Edge 26, Type (0, 1), BuildingBlock: AJUNOK_clean_linker_0, # of connection points: 2
#     Edge 27, Type (0, 1), BuildingBlock: AJUNOK_clean_linker_0, # of connection points: 2
#     Edge 28, Type (0, 1), BuildingBlock: AJUNOK_clean_linker_0, # of connection points: 2
#     Edge 29, Type (0, 1), BuildingBlock: AJUNOK_clean_linker_0, # of connection points: 2
#     Edge 30, Type (0, 1), BuildingBlock: AJUNOK_clean_linker_0, # of connection points: 2
#     Edge 31, Type (0, 1), BuildingBlock: AJUNOK_clean_linker_0, # of connection points: 2
#     Edge 32, Type (0, 1), BuildingBlock: AJUNOK_clean_linker_0, # of connection points: 2
#     Edge 33, Type (0, 1), BuildingBlock: AJUNOK_clean_linker_0, # of connection points: 2
#     Edge 34, Type (0, 1), BuildingBlock: AJUNOK_clean_linker_0, # of connection points: 2
#     Edge 35, Type (0, 1), BuildingBlock: AJUNOK_clean_linker_0, # of connection points: 2
# Relax obj value: 0.260
# Max RMSD: 0.197
# Mean RMSD: 0.161
data_MOF--net-dag--node1-IZENUY_clean_sbu_0--node2-MIDCAF_clean_linker_0--edge1-AJUNOK_clean_linker_0
_symmetry_space_group_name_H-M    P1
_symmetry_Int_Tables_number       1
_symmetry_cell_setting            triclinic
loop_
_symmetry_equiv_pos_as_xyz
'x, y, z'
_cell_length_a     36.621118
_cell_length_b     38.010267
_cell_length_c     32.17138
_cell_angle_alpha  95.046424
_cell_angle_beta   90.126396
_cell_angle_gamma 90.062876
loop_
_atom_site_label
_atom_site_type_symbol
_atom_site_fract_x
_atom_site_fract_y
_atom_site_fract_z
_atom_type_partial_charge
Fe0 Fe 0.20278 0.84506 0.09988 0.0
Fe1 Fe 0.13178 0.87024 0.06242 0.0
O2 O 0.16195 0.83567 0.07143 0.0
Fe3 Fe 0.15113 0.79178 0.05219 0.0
O4 O 0.17302 0.77142 0.09594 0.0
O5 O 0.18876 0.81694 0.13921 0.0
O6 O 0.18359 0.88237 0.13347 0.0
C7 C 0.15069 0.88985 0.14279 0.0
C8 C 0.22411 0.79287 0.03586 0.0
O9 O 0.12521 0.8809 0.11772 0.0
C10 C 0.12867 0.83277 0.98667 0.0
O11 O 0.21924 0.87415 0.06229 0.0
O12 O 0.16772 0.90359 0.0596 0.0
O13 O 0.19227 0.78853 0.02139 0.0
O14 O 0.22932 0.80941 0.07139 0.0
C15 C 0.08423 0.81468 0.07917 0.0
O16 O 0.13674 0.86151 0.00695 0.0
O17 O 0.12728 0.80442 0.00485 0.0
C18 C 0.20143 0.90023 0.05159 0.0
O19 O 0.09024 0.84325 0.06301 0.0
O20 O 0.10908 0.79218 0.08194 0.0
C21 C 0.18074 0.78471 0.13247 0.0
Fe22 Fe 0.70235 0.66044 0.49356 0.0
Fe23 Fe 0.64892 0.71743 0.53111 0.0
O24 O 0.65968 0.6724 0.51665 0.0
Fe25 Fe 0.62752 0.63939 0.52562 0.0
O26 O 0.65888 0.61858 0.55962 0.0
O27 O 0.7062 0.61873 0.51781 0.0
O28 O 0.72714 0.68102 0.53816 0.0
C29 C 0.72315 0.71257 0.55303 0.0
C30 C 0.65686 0.61509 0.44748 0.0
O31 O 0.69599 0.73058 0.5432 0.0
C32 C 0.58257 0.68946 0.49812 0.0
O33 O 0.70554 0.70001 0.46546 0.0
O34 O 0.65348 0.7283 0.47738 0.0
O35 O 0.6405 0.60954 0.48072 0.0
O36 O 0.68098 0.63871 0.44696 0.0
C37 C 0.62288 0.68591 0.59822 0.0
O38 O 0.59958 0.71237 0.52164 0.0
O39 O 0.59438 0.65831 0.49205 0.0
C40 C 0.68115 0.72106 0.45479 0.0
O41 O 0.64391 0.7092 0.58592 0.0
O42 O 0.6085 0.66303 0.57235 0.0
C43 C 0.69054 0.60801 0.5494 0.0
Fe44 Fe 0.849 0.20586 0.03093 0.0
Fe45 Fe 0.8659 0.12665 0.02346 0.0
O46 O 0.8364 0.16176 0.01427 0.0
Fe47 Fe 0.79432 0.15249 0.98853 0.0
O48 O 0.79369 0.19348 0.96288 0.0
O49 O 0.84679 0.21878 0.97789 0.0
O50 O 0.89827 0.1985 0.02261 0.0
C51 C 0.91501 0.17483 -0.00021 0.0
C52 C 0.77364 0.20308 0.04949 0.0
O53 O 0.90145 0.14439 0.99228 0.0
C54 C 0.80032 0.09833 0.0427 0.0
O55 O 0.85209 0.19592 0.08531 0.0
O56 O 0.88496 0.14819 0.07158 0.0
O57 O 0.76905 0.17203 0.03305 0.0
O58 O 0.80196 0.22063 0.04193 0.0
C59 C 0.83919 0.10701 0.9429 0.0
O60 O 0.8319 0.10727 0.05532 0.0
O61 O 0.78748 0.10962 0.00979 0.0
C62 C 0.87152 0.17142 0.09758 0.0
O63 O 0.85231 0.09841 0.97689 0.0
O64 O 0.8173 0.13248 0.9423 0.0
C65 C 0.81961 0.21349 0.954 0.0
Fe66 Fe 0.36634 0.35765 0.55752 0.0
Fe67 Fe 0.29442 0.34271 0.60005 0.0
O68 O 0.33502 0.32707 0.5751 0.0
Fe69 Fe 0.34419 0.28108 0.56803 0.0
O70 O 0.39411 0.28591 0.57344 0.0
O71 O 0.40186 0.34273 0.59087 0.0
O72 O 0.35661 0.39233 0.5993 0.0
C73 C 0.34369 0.39033 0.63551 0.0
C74 C 0.36701 0.30183 0.49322 0.0
O75 O 0.31999 0.36723 0.64175 0.0
C76 C 0.26893 0.28645 0.54972 0.0
O77 O 0.33264 0.3745 0.5231 0.0
O78 O 0.29003 0.38186 0.57063 0.0
O79 O 0.3467 0.2814 0.5116 0.0
O80 O 0.38176 0.32855 0.51266 0.0
C81 C 0.31526 0.28613 0.64644 0.0
O82 O 0.26693 0.31921 0.55986 0.0
O83 O 0.29585 0.26853 0.56101 0.0
C84 C 0.30272 0.38797 0.53538 0.0
O85 O 0.29109 0.30648 0.63383 0.0
O86 O 0.34247 0.27735 0.62394 0.0
C87 C 0.41296 0.31136 0.5901 0.0
C88 C 0.93086 0.14708 0.29033 0.0
C89 C 0.93661 0.17267 0.26201 0.0
C90 C 0.96795 0.19409 0.26651 0.0
C91 C 0.99517 0.18693 0.29519 0.0
H92 H 0.06724 0.21157 0.42012 0.0
H93 H 0.11072 0.24611 0.46474 0.0
H94 H 0.19403 0.168 0.4334 0.0
H95 H 0.15069 0.13302 0.39006 0.0
H96 H 0.12779 0.05776 0.34954 0.0
H97 H 0.15017 0.00397 0.31079 0.0
H98 H 0.05314 0.00012 0.23402 0.0
H99 H 0.03019 0.05289 0.27323 0.0
H100 H 0.95501 0.117 0.3365 0.0
H101 H 0.90648 0.13085 0.28828 0.0
H102 H 0.97307 0.21405 0.24518 0.0
H103 H 0.0206 0.20155 0.29538 0.0
N104 N 0.04739 0.16232 0.36217 0.0
N105 N 0.08835 0.11463 0.35984 0.0
N106 N 0.03339 0.10903 0.32282 0.0
C107 C 0.07941 0.14819 0.37438 0.0
C108 C 0.06553 0.09487 0.334 0.0
C109 C 0.02409 0.14252 0.33685 0.0
C110 C 0.10542 0.16951 0.40147 0.0
C111 C 0.09484 0.20179 0.42273 0.0
C112 C 0.11978 0.22169 0.44808 0.0
C113 C 0.15585 0.20988 0.45225 0.0
C114 C 0.16633 0.17763 0.43107 0.0
C115 C 0.14143 0.15763 0.4061 0.0
C116 C 0.07732 0.05998 0.31427 0.0
C117 C 0.11098 0.04519 0.32476 0.0
C118 C 0.12398 0.01452 0.30237 0.0
C119 C 0.10373 0.99819 0.26888 0.0
C120 C 0.06936 0.01202 0.25975 0.0
C121 C 0.05626 0.04244 0.28221 0.0
C122 C 0.99146 0.15804 0.31917 0.0
C123 C 0.95843 0.13931 0.31809 0.0
C124 C 0.4302 0.50788 0.76445 0.0
C125 C 0.39305 0.49858 0.7633 0.0
C126 C 0.3684 0.51908 0.78852 0.0
C127 C 0.38041 0.54942 0.81259 0.0
H128 H 0.34828 0.62964 0.89846 0.0
H129 H 0.30475 0.66597 0.93985 0.0
H130 H 0.37938 0.75415 0.94426 0.0
H131 H 0.42351 0.71779 0.90307 0.0
H132 H 0.4762 0.70615 0.80027 0.0
H133 H 0.52356 0.72276 0.75236 0.0
H134 H 0.58644 0.63118 0.77872 0.0
H135 H 0.53791 0.61353 0.82445 0.0
H136 H 0.47081 0.54517 0.78713 0.0
H137 H 0.44987 0.49233 0.74563 0.0
H138 H 0.33954 0.51281 0.78788 0.0
H139 H 0.36042 0.56554 0.83017 0.0
N140 N 0.40619 0.61517 0.8564 0.0
N141 N 0.44729 0.6628 0.85796 0.0
N142 N 0.46125 0.60907 0.81976 0.0
C143 C 0.41527 0.64889 0.87044 0.0
C144 C 0.47056 0.64277 0.83306 0.0
C145 C 0.42904 0.59506 0.83105 0.0
C146 C 0.38947 0.67075 0.89718 0.0
C147 C 0.3557 0.65667 0.90835 0.0
C148 C 0.33065 0.67748 0.93202 0.0
C149 C 0.33876 0.71279 0.94529 0.0
C150 C 0.37267 0.72684 0.93487 0.0
C151 C 0.39781 0.70602 0.91105 0.0
C152 C 0.50331 0.65833 0.81543 0.0
C153 C 0.50079 0.69035 0.79693 0.0
C154 C 0.52811 0.69999 0.76969 0.0
C155 C 0.55864 0.67808 0.76135 0.0
C156 C 0.56298 0.64832 0.78401 0.0
C157 C 0.53529 0.63822 0.81024 0.0
C158 C 0.41726 0.55997 0.81163 0.0
C159 C 0.44217 0.53818 0.78829 0.0
C160 C 0.7046 0.80957 0.2841 0.0
C161 C 0.72516 0.78732 0.30775 0.0
C162 C 0.76148 0.77971 0.2963 0.0
C163 C 0.77682 0.79345 0.2616 0.0
H164 H 0.86787 0.78324 0.18657 0.0
H165 H 0.9313 0.7705 0.16672 0.0
H166 H 0.92074 0.83678 0.06504 0.0
H167 H 0.85771 0.84853 0.08357 0.0
H168 H 0.78055 0.88769 0.06952 0.0
H169 H 0.77366 0.94629 0.04609 0.0
H170 H 0.72599 0.98311 0.16465 0.0
H171 H 0.73357 0.92409 0.18865 0.0
H172 H 0.7035 0.84044 0.23149 0.0
H173 H 0.67637 0.81546 0.29184 0.0
H174 H 0.77815 0.76299 0.31426 0.0
H175 H 0.80488 0.78683 0.25378 0.0
N176 N 0.80508 0.81604 0.18508 0.0
N177 N 0.80426 0.85559 0.13349 0.0
N178 N 0.75683 0.85662 0.18234 0.0
C179 C 0.82089 0.82895 0.15146 0.0
C180 C 0.7724 0.86956 0.14854 0.0
C181 C 0.77285 0.82946 0.20044 0.0
C182 C 0.85763 0.81709 0.13686 0.0
C183 C 0.87885 0.79442 0.1594 0.0
C184 C 0.9152 0.7872 0.14817 0.0
C185 C 0.93092 0.80234 0.11409 0.0
C186 C 0.90927 0.82391 0.09077 0.0
C187 C 0.87308 0.83099 0.1018 0.0
C188 C 0.75833 0.90156 0.1312 0.0
C189 C 0.7677 0.908 0.09026 0.0
C190 C 0.76353 0.94155 0.07673 0.0
C191 C 0.75003 0.96941 0.1039 0.0
C192 C 0.73714 0.96218 0.14341 0.0
C193 C 0.74118 0.92837 0.15697 0.0
C194 C 0.75632 0.81545 0.23758 0.0
C195 C 0.7201 0.82365 0.24941 0.0
C196 C 0.79475 0.31694 0.79709 0.0
C197 C 0.77696 0.28936 0.81519 0.0
C198 C 0.74129 0.2801 0.80254 0.0
C199 C 0.72415 0.297 0.77124 0.0
H200 H 0.62855 0.29604 0.70656 0.0
H201 H 0.56551 0.2813 0.68644 0.0
H202 H 0.5757 0.34249 0.58025 0.0
H203 H 0.63844 0.35699 0.59971 0.0
H204 H 0.74479 0.44332 0.71409 0.0
H205 H 0.74861 0.50221 0.68843 0.0
H206 H 0.72937 0.45602 0.56287 0.0
H207 H 0.72502 0.3977 0.58843 0.0
H208 H 0.79204 0.35479 0.75151 0.0
H209 H 0.82217 0.3247 0.80669 0.0
H210 H 0.72657 0.25959 0.81688 0.0
H211 H 0.69675 0.28873 0.76214 0.0
N212 N 0.69196 0.32657 0.70157 0.0
N213 N 0.69007 0.36897 0.65336 0.0
N214 N 0.73848 0.36924 0.70135 0.0
C215 C 0.67488 0.34074 0.66957 0.0
C216 C 0.72166 0.38334 0.66897 0.0
C217 C 0.72393 0.34035 0.71737 0.0
C218 C 0.63852 0.32787 0.65488 0.0
C219 C 0.6176 0.30578 0.67846 0.0
C220 C 0.58152 0.29743 0.66711 0.0
C221 C 0.56595 0.31058 0.63171 0.0
C222 C 0.58727 0.33148 0.60728 0.0
C223 C 0.62315 0.34001 0.61869 0.0
C224 C 0.73457 0.41621 0.65312 0.0
C225 C 0.74289 0.44574 0.68086 0.0
C226 C 0.74483 0.47933 0.66628 0.0
C227 C 0.73934 0.48349 0.62375 0.0
C228 C 0.73424 0.45347 0.5957 0.0
C229 C 0.73162 0.42015 0.61031 0.0
C230 C 0.74212 0.3239 0.75196 0.0
C231 C 0.77748 0.33406 0.76558 0.0
C232 C 0.45602 0.34402 0.34705 0.0
C233 C 0.44763 0.30786 0.34591 0.0
C234 C 0.46886 0.28383 0.32034 0.0
C235 C 0.49914 0.29569 0.29864 0.0
H236 H 0.57923 0.27741 0.19421 0.0
H237 H 0.61938 0.24328 0.14505 0.0
H238 H 0.70898 0.31299 0.18266 0.0
H239 H 0.6691 0.34752 0.23039 0.0
H240 H 0.6409 0.43286 0.25725 0.0
H241 H 0.65944 0.49201 0.28697 0.0
H242 H 0.58088 0.48574 0.38591 0.0
H243 H 0.5617 0.42808 0.35612 0.0
H244 H 0.49155 0.38382 0.32832 0.0
H245 H 0.44078 0.36342 0.36664 0.0
H246 H 0.46269 0.25588 0.31793 0.0
H247 H 0.51594 0.27652 0.28064 0.0
N248 N 0.56435 0.3245 0.25792 0.0
N249 N 0.60791 0.37029 0.25926 0.0
N250 N 0.55487 0.37768 0.29904 0.0
C251 C 0.59684 0.33723 0.24483 0.0
C252 C 0.58703 0.39063 0.28645 0.0
C253 C 0.54312 0.34491 0.28506 0.0
C254 C 0.62085 0.31533 0.21605 0.0
C255 C 0.60754 0.28531 0.19204 0.0
C256 C 0.63055 0.26566 0.16409 0.0
C257 C 0.66734 0.27544 0.16009 0.0
C258 C 0.68065 0.30506 0.18463 0.0
C259 C 0.65772 0.32482 0.2121 0.0
C260 C 0.5994 0.42598 0.30392 0.0
C261 C 0.6275 0.44433 0.28519 0.0
C262 C 0.63812 0.4781 0.30212 0.0
C263 C 0.62083 0.49387 0.33799 0.0
C264 C 0.5937 0.47491 0.35728 0.0
C265 C 0.58287 0.44165 0.34028 0.0
C266 C 0.50851 0.33176 0.30205 0.0
C267 C 0.48571 0.35576 0.32532 0.0
C268 C 0.29322 0.18889 0.80844 0.0
C269 C 0.28342 0.22361 0.80126 0.0
C270 C 0.261 0.24294 0.83031 0.0
C271 C 0.2469 0.22735 0.86444 0.0
H272 H 0.13497 0.20137 0.89611 0.0
H273 H 0.06906 0.20761 0.90707 0.0
H274 H 0.08002 0.16712 0.02755 0.0
H275 H 0.14577 0.16022 0.01661 0.0
H276 H 0.22815 0.11314 0.03053 0.0
H277 H 0.23428 0.05407 0.0538 0.0
H278 H 0.27079 0.01482 0.93097 0.0
H279 H 0.26531 0.0744 0.90774 0.0
H280 H 0.28619 0.1461 0.84705 0.0
H281 H 0.31006 0.17319 0.78628 0.0
H282 H 0.25342 0.26991 0.82591 0.0
H283 H 0.22877 0.24272 0.88549 0.0
N284 N 0.20258 0.18648 0.91636 0.0
N285 N 0.1994 0.14314 0.96343 0.0
N286 N 0.25097 0.14631 0.92061 0.0
C287 C 0.18397 0.17071 0.94602 0.0
C288 C 0.23276 0.13083 0.95103 0.0
C289 C 0.23626 0.17483 0.90393 0.0
C290 C 0.14552 0.1801 0.95543 0.0
C291 C 0.12347 0.19446 0.9253 0.0
C292 C 0.0858 0.19785 0.93137 0.0
C293 C 0.06974 0.18759 0.96796 0.0
C294 C 0.09195 0.17521 0.9991 0.0
C295 C 0.12948 0.17122 0.99277 0.0
C296 C 0.24613 0.09818 0.96735 0.0
C297 C 0.23886 0.09218 0.00897 0.0
C298 C 0.24257 0.05844 0.02235 0.0
C299 C 0.25305 0.03001 0.99415 0.0
C300 C 0.26291 0.03646 0.9533 0.0
C301 C 0.2599 0.07048 0.9401 0.0
C302 C 0.25519 0.19214 0.87066 0.0
C303 C 0.27941 0.17334 0.84309 0.0
C304 C 0.24817 0.72496 0.29549 0.0
C305 C 0.22078 0.70686 0.27174 0.0
C306 C 0.20971 0.67333 0.28206 0.0
C307 C 0.22598 0.65818 0.3157 0.0
H308 H 0.24556 0.55931 0.37768 0.0
H309 H 0.24016 0.49975 0.40119 0.0
H310 H 0.27662 0.53972 0.52409 0.0
H311 H 0.28193 0.59869 0.50089 0.0
H312 H 0.35934 0.64472 0.49069 0.0
H313 H 0.42212 0.66027 0.50872 0.0
H314 H 0.42687 0.72683 0.40687 0.0
H315 H 0.36392 0.71088 0.38803 0.0
H316 H 0.28563 0.72474 0.34611 0.0
H317 H 0.25738 0.75075 0.28795 0.0
H318 H 0.18841 0.659 0.26433 0.0
H319 H 0.21708 0.63224 0.32294 0.0
N320 N 0.25907 0.63063 0.38938 0.0
N321 N 0.30709 0.63267 0.43799 0.0
N322 N 0.30323 0.67567 0.39067 0.0
C323 C 0.27635 0.61692 0.42177 0.0
C324 C 0.32087 0.6619 0.42255 0.0
C325 C 0.27217 0.6605 0.37416 0.0
C326 C 0.26459 0.58341 0.43738 0.0
C327 C 0.25129 0.55545 0.41001 0.0
C328 C 0.24847 0.52142 0.42333 0.0
C329 C 0.25846 0.51517 0.46426 0.0
C330 C 0.26866 0.5438 0.49241 0.0
C331 C 0.27189 0.57752 0.47906 0.0
C332 C 0.35672 0.67605 0.43744 0.0
C333 C 0.37347 0.66302 0.47233 0.0
C334 C 0.40941 0.67208 0.48288 0.0
C335 C 0.42945 0.6943 0.45878 0.0
C336 C 0.41215 0.70912 0.42546 0.0
C337 C 0.37604 0.70013 0.41491 0.0
C338 C 0.25375 0.67627 0.33922 0.0
C339 C 0.26449 0.70988 0.32872 0.0
C340 C 0.92455 0.00571 0.80368 0.0
C341 C 0.88671 0.01142 0.80483 0.0
C342 C 0.86367 0.9885 0.7804 0.0
C343 C 0.87803 0.95907 0.75698 0.0
H344 H 0.85936 0.87982 0.65969 0.0
H345 H 0.81395 0.84156 0.62378 0.0
H346 H 0.87102 0.74977 0.66008 0.0
H347 H 0.91723 0.78804 0.69575 0.0
H348 H 0.96768 0.81579 0.79716 0.0
H349 H 0.01369 0.80217 0.84834 0.0
H350 H 0.08855 0.87472 0.79668 0.0
H351 H 0.04103 0.89062 0.74814 0.0
H352 H 0.968 0.97104 0.78241 0.0
H353 H 0.94272 0.02296 0.8227 0.0
H354 H 0.83437 0.99241 0.78111 0.0
H355 H 0.85923 0.94097 0.74012 0.0
N356 N 0.9078 0.89485 0.71633 0.0
N357 N 0.94803 0.84763 0.72259 0.0
N358 N 0.9607 0.90347 0.75685 0.0
C359 C 0.91711 0.86058 0.70622 0.0
C360 C 0.97023 0.8692 0.74721 0.0
C361 C 0.92935 0.91649 0.74165 0.0
C362 C 0.8917 0.83703 0.68111 0.0
C363 C 0.86246 0.8515 0.65999 0.0
C364 C 0.83631 0.82963 0.63959 0.0
C365 C 0.83858 0.79283 0.64014 0.0
C366 C 0.8686 0.77813 0.65953 0.0
C367 C 0.89499 0.80006 0.67988 0.0
C368 C 0.0009 0.85456 0.76941 0.0
C369 C 0.9943 0.82818 0.79631 0.0
C370 C 0.02072 0.82032 0.82547 0.0
C371 C 0.05439 0.83825 0.82753 0.0
C372 C 0.06232 0.8616 0.79711 0.0
C373 C 0.03541 0.87041 0.76901 0.0
C374 C 0.91564 0.95158 0.75842 0.0
C375 C 0.93891 0.9759 0.78083 0.0
C376 C 0.10752 0.91295 0.19832 0.0
C377 C 0.14203 0.91456 0.17949 0.0
C378 C 0.09617 0.93907 0.22895 0.0
C379 C 0.11874 0.96805 0.24162 0.0
H380 H 0.08868 0.89181 0.18846 0.0
H381 H 0.06902 0.93715 0.24187 0.0
S382 S 0.21199 0.98426 0.20233 0.0
N383 N 0.19927 0.94671 0.17666 0.0
N384 N 0.17761 0.99639 0.23347 0.0
C385 C 0.15391 0.96927 0.22418 0.0
C386 C 0.16563 0.94239 0.19328 0.0
C387 C 0.6012 0.65294 0.65627 0.0
C388 C 0.61214 0.68541 0.64248 0.0
C389 C 0.58595 0.65093 0.69561 0.0
C390 C 0.58094 0.68131 0.72324 0.0
H391 H 0.60331 0.62876 0.63588 0.0
H392 H 0.57621 0.62541 0.70342 0.0
S393 S 0.60928 0.77233 0.70441 0.0
N394 N 0.62011 0.74837 0.66082 0.0
N395 N 0.59137 0.74462 0.73559 0.0
C396 C 0.59367 0.71382 0.71092 0.0
C397 C 0.60948 0.71584 0.67047 0.0
C398 C 0.75863 0.04606 0.03735 0.0
C399 C 0.78153 0.06936 0.06183 0.0
C400 C 0.74584 0.01488 0.05247 0.0
C401 C 0.75516 0.0061 0.09272 0.0
H402 H 0.75236 0.05077 0.00538 0.0
H403 H 0.73018 0.99657 0.03173 0.0
S404 S 0.8093 0.06124 0.17148 0.0
N405 N 0.80893 0.08396 0.13005 0.0
N406 N 0.78541 0.0251 0.15832 0.0
C407 C 0.77547 0.03063 0.11869 0.0
C408 C 0.78859 0.06231 0.10323 0.0
C409 C 0.46317 0.31618 0.64232 0.0
C410 C 0.45112 0.30566 0.60166 0.0
C411 C 0.5004 0.31561 0.65248 0.0
C412 C 0.52671 0.3053 0.622 0.0
H413 H 0.44378 0.32579 0.66605 0.0
H414 H 0.50879 0.32504 0.68382 0.0
S415 S 0.50874 0.2752 0.51118 0.0
N416 N 0.46788 0.28401 0.53109 0.0
N417 N 0.53798 0.28328 0.54999 0.0
C418 C 0.51477 0.29384 0.58154 0.0
C419 C 0.47689 0.29394 0.5714 0.0
C420 C 0.6769 0.56781 0.39356 0.0
C421 C 0.64944 0.59045 0.41064 0.0
C422 C 0.66787 0.53762 0.36703 0.0
C423 C 0.63119 0.52954 0.35682 0.0
H424 H 0.70502 0.57183 0.40341 0.0
H425 H 0.68937 0.51926 0.35703 0.0
S426 S 0.55032 0.58411 0.3881 0.0
N427 N 0.58499 0.60505 0.41208 0.0
N428 N 0.56817 0.54957 0.36079 0.0
C429 C 0.60412 0.554 0.37057 0.0
C430 C 0.61321 0.58414 0.39796 0.0
C431 C 0.97559 0.20371 0.01417 0.0
C432 C 0.95348 0.18066 0.9883 0.0
C433 C 0.01314 0.20659 0.00677 0.0
C434 C 0.02964 0.18717 0.97272 0.0
H435 H 0.96417 0.21853 0.04138 0.0
H436 H 0.02952 0.22362 0.02823 0.0
S437 S 0.98361 0.12497 0.89415 0.0
N438 N 0.95065 0.13923 0.92628 0.0
N439 N 0.02114 0.14525 0.91199 0.0
C440 C 0.00768 0.16516 0.94565 0.0
C441 C 0.96959 0.16175 0.95355 0.0
C442 C 0.26024 0.43927 0.53258 0.0
C443 C 0.28637 0.41646 0.51263 0.0
C444 C 0.24911 0.47002 0.51516 0.0
C445 C 0.26326 0.4789 0.47689 0.0
H446 H 0.24974 0.43449 0.56303 0.0
H447 H 0.23063 0.4879 0.53275 0.0
S448 S 0.32846 0.4259 0.40923 0.0
N449 N 0.32303 0.40314 0.45017 0.0
N450 N 0.30216 0.46103 0.41767 0.0
C451 C 0.28718 0.45506 0.45504 0.0
C452 C 0.29873 0.42383 0.47286 0.0
C453 C 0.10218 0.80284 0.92048 0.0
C454 C 0.11456 0.83385 0.94339 0.0
C455 C 0.08445 0.80412 0.88188 0.0
C456 C 0.07833 0.83646 0.86474 0.0
H457 H 0.10513 0.77745 0.93299 0.0
H458 H 0.07454 0.77968 0.8659 0.0
S459 S 0.1065 0.9253 0.91139 0.0
N460 N 0.12107 0.89783 0.94464 0.0
N461 N 0.08661 0.90022 0.87349 0.0
C462 C 0.09172 0.86752 0.88662 0.0
C463 C 0.1101 0.86621 0.92554 0.0
C464 C 0.83973 0.04805 0.90348 0.0
C465 C 0.84692 0.0844 0.90461 0.0
C466 C 0.85119 0.02496 0.86979 0.0
C467 C 0.87101 0.03737 0.83666 0.0
H468 H 0.82586 0.03733 0.9293 0.0
H469 H 0.84591 0.99696 0.8705 0.0
S470 S 0.89624 0.13033 0.82476 0.0
N471 N 0.87394 0.13205 0.86951 0.0
N472 N 0.89659 0.0883 0.80647 0.0
C473 C 0.87782 0.07375 0.83705 0.0
C474 C 0.86541 0.0974 0.87099 0.0
C475 C 0.36824 0.31646 0.42012 0.0
C476 C 0.37797 0.29314 0.44965 0.0
C477 C 0.38813 0.31765 0.38318 0.0
C478 C 0.41936 0.29644 0.37527 0.0
H479 H 0.34691 0.33576 0.42709 0.0
H480 H 0.38102 0.33766 0.36258 0.0
S481 S 0.45018 0.225 0.43884 0.0
N482 N 0.41549 0.24347 0.46523 0.0
N483 N 0.45452 0.2467 0.39683 0.0
C484 C 0.42647 0.26999 0.40233 0.0
C485 C 0.40547 0.26827 0.43951 0.0
C486 C 0.20757 0.94128 0.99642 0.0
C487 C 0.22033 0.92957 0.03397 0.0
C488 C 0.22077 0.97255 0.98201 0.0
C489 C 0.24657 0.99356 0.00522 0.0
H490 H 0.1863 0.92679 0.97883 0.0
H491 H 0.20893 0.98149 0.95389 0.0
S492 S 0.28972 0.97338 0.10469 0.0
N493 N 0.26152 0.93998 0.09301 0.0
N494 N 0.28572 -0.00044 0.06654 0.0
C495 C 0.2606 0.98137 0.04204 0.0
C496 C 0.24764 0.9491 0.05627 0.0
C497 C 0.51905 0.70661 0.51722 0.0
C498 C 0.54474 0.69638 0.48615 0.0
C499 C 0.48175 0.70772 0.50771 0.0
C500 C 0.46907 0.69914 0.46674 0.0
H501 H 0.52763 0.71195 0.54942 0.0
H502 H 0.46256 0.71414 0.53282 0.0
S503 S 0.52643 0.67549 0.37352 0.0
N504 N 0.55587 0.68099 0.41254 0.0
N505 N 0.48569 0.68304 0.39433 0.0
C506 C 0.4949 0.69109 0.435 0.0
C507 C 0.5328 0.68962 0.44483 0.0
C508 C 0.37896 0.44456 0.65985 0.0
C509 C 0.35506 0.41734 0.66942 0.0
C510 C 0.39105 0.47029 0.6905 0.0
C511 C 0.37987 0.47011 0.73222 0.0
H512 H 0.38855 0.44624 0.62826 0.0
H513 H 0.40903 0.49085 0.68124 0.0
S514 S 0.31853 0.40435 0.77463 0.0
N515 N 0.32117 0.39152 0.72432 0.0
N516 N 0.34413 0.44018 0.78204 0.0
C517 C 0.35604 0.44319 0.74255 0.0
C518 C 0.34366 0.41673 0.71119 0.0
C519 C 0.03353 0.80893 0.12933 0.0
C520 C 0.0464 0.80545 0.08816 0.0
C521 C 0.99614 0.80573 0.13773 0.0
C522 C 0.9706 0.79892 0.10515 0.0
H523 H 0.05219 0.81587 0.15494 0.0
H524 H 0.98701 0.81058 0.16972 0.0
S525 S 0.99206 0.78319 0.99232 0.0
N526 N 0.03196 0.79212 0.01488 0.0
N527 N 0.96179 0.78501 0.03046 0.0
C528 C 0.98376 0.79324 0.06402 0.0
C529 C 0.02168 0.79685 0.05556 0.0
C530 C 0.69161 0.56923 0.60834 0.0
C531 C 0.70734 0.57924 0.57123 0.0
C532 C 0.70413 0.53957 0.62701 0.0
C533 C 0.73269 0.51874 0.60918 0.0
H534 H 0.6686 0.58365 0.62238 0.0
H535 H 0.6899 0.53172 0.65421 0.0
S536 S 0.78632 0.53566 0.51553 0.0
N537 N 0.75568 0.5676 0.51977 0.0
N538 N 0.77871 0.51169 0.555 0.0
C539 C 0.75014 0.52952 0.57368 0.0
C540 C 0.73763 0.55985 0.55472 0.0
C541 C 0.88591 0.20299 0.16791 0.0
C542 C 0.88294 0.17139 0.14178 0.0
C543 C 0.90185 0.20328 0.2078 0.0
C544 C 0.91464 0.17192 0.22307 0.0
H545 H 0.87752 0.22781 0.15677 0.0
H546 H 0.90514 0.22829 0.22634 0.0
S547 S 0.91107 0.082 0.16768 0.0
N548 N 0.89217 0.10775 0.13504 0.0
N549 N 0.92224 0.10838 0.2092 0.0
C550 C 0.91024 0.14003 0.19785 0.0
C551 C 0.89433 0.13975 0.15745 0.0
C552 C 0.18304 0.77756 0.20847 0.0
C553 C 0.18534 0.76205 0.16721 0.0
C554 C 0.19245 0.75869 0.24226 0.0
C555 C 0.20459 0.72358 0.23616 0.0
H556 H 0.17501 0.80495 0.21472 0.0
H557 H 0.1915 0.77212 0.27338 0.0
S558 S 0.21313 0.66989 0.13475 0.0
N559 N 0.19843 0.70867 0.12229 0.0
N560 N 0.21654 0.67324 0.18616 0.0
C561 C 0.2051 0.70702 0.19536 0.0
C562 C 0.19536 0.72626 0.16076 0.0
C563 C 0.78921 0.72187 0.57096 0.0
C564 C 0.75232 0.73043 0.57851 0.0
C565 C 0.81719 0.74153 0.59191 0.0
C566 C 0.80905 0.77015 0.62115 0.0
H567 H 0.79653 0.70083 0.54756 0.0
H568 H 0.84531 0.73511 0.58412 0.0
S569 S 0.7168 0.79916 0.65702 0.0
N570 N 0.70914 0.76674 0.62045 0.0
N571 N 0.76164 0.80321 0.66025 0.0
C572 C 0.77227 0.77752 0.63069 0.0
C573 C 0.74392 0.75777 0.60925 0.0
C574 C 0.74081 0.2572 0.07822 0.0
C575 C 0.74458 0.22029 0.07576 0.0
C576 C 0.71496 0.27453 0.10456 0.0
C577 C 0.69213 0.25571 0.12993 0.0
H578 H 0.75806 0.27292 0.05971 0.0
H579 H 0.71309 0.30303 0.10536 0.0
S580 S 0.69175 0.15865 0.1358 0.0
N581 N 0.72333 0.1653 0.10077 0.0
N582 N 0.67523 0.19806 0.15121 0.0
C583 C 0.69524 0.2187 0.1274 0.0
C584 C 0.72138 0.20096 0.10014 0.0
C585 C 0.27321 0.26996 0.70246 0.0
C586 C 0.3087 0.26945 0.68573 0.0
C587 C 0.26559 0.25487 0.73951 0.0
C588 C 0.29311 0.23882 0.76176 0.0
H589 H 0.25084 0.28186 0.68667 0.0
H590 H 0.23767 0.25557 0.75065 0.0
S591 S 0.39089 0.23148 0.73251 0.0
N592 N 0.37195 0.25194 0.69471 0.0
N593 N 0.35752 0.22388 0.76503 0.0
C594 C 0.32878 0.23802 0.74558 0.0
C595 C 0.3366 0.25331 0.70749 0.0
C596 C 0.7045 0.71871 0.38256 0.0
C597 C 0.68714 0.73819 0.41601 0.0
C598 C 0.71505 0.7346 0.34699 0.0
C599 C 0.70911 0.77076 0.34359 0.0
H600 H 0.71066 0.69098 0.38422 0.0
H601 H 0.72884 0.71856 0.32232 0.0
S602 S 0.66317 0.83316 0.42185 0.0
N603 N 0.66263 0.79505 0.44289 0.0
N604 N 0.6834 0.82542 0.3761 0.0
C605 C 0.69036 0.79032 0.37607 0.0
C606 C 0.67917 0.77391 0.4123 0.0
C607 C 0.81902 0.26944 0.91839 0.0
C608 C 0.81581 0.23248 0.91637 0.0
C609 C 0.80847 0.28796 0.88437 0.0
C610 C 0.79481 0.26988 0.84749 0.0
H611 H 0.8275 0.28418 0.94714 0.0
H612 H 0.80901 0.31656 0.88779 0.0
S613 S 0.78807 0.17278 0.82441 0.0
N614 N 0.80245 0.17834 0.87321 0.0
N615 N 0.78394 0.21289 0.80899 0.0
C616 C 0.79456 0.2328 0.84413 0.0
C617 C 0.8047 0.21414 0.87872 0.0
C618 C 0.23264 0.23198 0.5295 0.0
C619 C 0.2385 0.26823 0.52645 0.0
C620 C 0.20524 0.21364 0.50622 0.0
C621 C 0.18283 0.23073 0.47867 0.0
H622 H 0.24941 0.21758 0.54999 0.0
H623 H 0.20172 0.18574 0.50964 0.0
S624 S 0.18792 0.32514 0.45808 0.0
N625 N 0.21988 0.32058 0.49347 0.0
N626 N 0.16883 0.28583 0.44898 0.0
C627 C 0.18818 0.26704 0.47551 0.0
C628 C 0.21593 0.28583 0.49954 0.0
C629 C 0.24782 0.75538 0.97407 0.0
C630 C 0.25479 0.77457 0.01279 0.0
C631 C 0.27526 0.73596 0.95243 0.0
C632 C 0.31094 0.73503 0.96834 0.0
H633 H 0.22075 0.75487 0.96039 0.0
H634 H 0.26843 0.72144 0.92293 0.0
S635 S 0.34428 0.78102 0.06763 0.0
N636 N 0.3007 0.79189 0.06565 0.0
N637 N 0.35227 0.75515 0.02465 0.0
C638 C 0.31873 0.7546 0.00644 0.0
C639 C 0.29069 0.77439 0.02872 0.0
loop_
_geom_bond_atom_site_label_1
_geom_bond_atom_site_label_2
_geom_bond_distance
_geom_bond_site_symmetry_2
_ccdc_geom_bond_type
Fe0 O2 1.918 . S
Fe0 O5 1.997 . S
Fe0 O6 2.002 . S
Fe0 O11 1.976 . S
Fe0 O14 1.996 . S
Fe1 O2 1.918 . S
Fe1 O9 1.997 . S
Fe1 O12 1.996 . S
Fe1 O16 1.976 . S
Fe1 O19 2.002 . S
O2 Fe0 1.918 . S
O2 Fe1 1.918 . S
O2 Fe3 1.918 . S
Fe3 O2 1.918 . S
Fe3 O4 2.002 . S
Fe3 O13 1.976 . S
Fe3 O17 1.996 . S
Fe3 O20 1.997 . S
O4 Fe3 2.002 . S
O4 C21 1.295 . S
O5 Fe0 1.997 . S
O5 C21 1.235 . S
O6 Fe0 2.002 . S
O6 C7 1.295 . S
C7 O6 1.295 . S
C7 O9 1.235 . S
C8 O13 1.287 . S
C8 O14 1.255 . S
O9 Fe1 1.997 . S
O9 C7 1.235 . S
C10 O16 1.287 1_556 S
C10 O17 1.255 1_556 S
O11 Fe0 1.976 . S
O11 C18 1.287 . S
O12 Fe1 1.996 . S
O12 C18 1.255 . S
O13 Fe3 1.976 . S
O13 C8 1.287 . S
O14 Fe0 1.996 . S
O14 C8 1.255 . S
C15 O19 1.295 . S
C15 O20 1.235 . S
O16 Fe1 1.976 . S
O16 C10 1.287 1_554 S
O17 Fe3 1.996 . S
O17 C10 1.255 1_554 S
C18 O11 1.287 . S
C18 O12 1.255 . S
O19 Fe1 2.002 . S
O19 C15 1.295 . S
O20 Fe3 1.997 . S
O20 C15 1.235 . S
C21 O4 1.295 . S
C21 O5 1.235 . S
Fe22 O24 1.918 . S
Fe22 O27 1.997 . S
Fe22 O28 2.002 . S
Fe22 O33 1.976 . S
Fe22 O36 1.996 . S
Fe23 O24 1.918 . S
Fe23 O31 1.997 . S
Fe23 O34 1.996 . S
Fe23 O38 1.976 . S
Fe23 O41 2.002 . S
O24 Fe22 1.918 . S
O24 Fe23 1.918 . S
O24 Fe25 1.918 . S
Fe25 O24 1.918 . S
Fe25 O26 2.002 . S
Fe25 O35 1.976 . S
Fe25 O39 1.996 . S
Fe25 O42 1.997 . S
O26 Fe25 2.002 . S
O26 C43 1.295 . S
O27 Fe22 1.997 . S
O27 C43 1.235 . S
O28 Fe22 2.002 . S
O28 C29 1.295 . S
C29 O28 1.295 . S
C29 O31 1.235 . S
C30 O35 1.287 . S
C30 O36 1.255 . S
O31 Fe23 1.997 . S
O31 C29 1.235 . S
C32 O38 1.287 . S
C32 O39 1.255 . S
O33 Fe22 1.976 . S
O33 C40 1.287 . S
O34 Fe23 1.996 . S
O34 C40 1.255 . S
O35 Fe25 1.976 . S
O35 C30 1.287 . S
O36 Fe22 1.996 . S
O36 C30 1.255 . S
C37 O41 1.295 . S
C37 O42 1.235 . S
O38 Fe23 1.976 . S
O38 C32 1.287 . S
O39 Fe25 1.996 . S
O39 C32 1.255 . S
C40 O33 1.287 . S
C40 O34 1.255 . S
O41 Fe23 2.002 . S
O41 C37 1.295 . S
O42 Fe25 1.997 . S
O42 C37 1.235 . S
C43 O26 1.295 . S
C43 O27 1.235 . S
Fe44 O46 1.918 . S
Fe44 O49 1.997 1_554 S
Fe44 O50 2.002 . S
Fe44 O55 1.976 . S
Fe44 O58 1.996 . S
Fe45 O46 1.918 . S
Fe45 O53 1.997 . S
Fe45 O56 1.996 . S
Fe45 O60 1.976 . S
Fe45 O63 2.002 1_554 S
O46 Fe44 1.918 . S
O46 Fe45 1.918 . S
O46 Fe47 1.918 1_554 S
Fe47 O46 1.918 1_556 S
Fe47 O48 2.002 . S
Fe47 O57 1.976 1_556 S
Fe47 O61 1.996 1_556 S
Fe47 O64 1.997 . S
O48 Fe47 2.002 . S
O48 C65 1.295 . S
O49 Fe44 1.997 1_556 S
O49 C65 1.235 . S
O50 Fe44 2.002 . S
O50 C51 1.295 1_554 S
C51 O50 1.295 1_556 S
C51 O53 1.235 1_556 S
C52 O57 1.287 . S
C52 O58 1.255 . S
O53 Fe45 1.997 . S
O53 C51 1.235 1_554 S
C54 O60 1.287 . S
C54 O61 1.255 . S
O55 Fe44 1.976 . S
O55 C62 1.287 . S
O56 Fe45 1.996 . S
O56 C62 1.255 . S
O57 Fe47 1.976 1_554 S
O57 C52 1.287 . S
O58 Fe44 1.996 . S
O58 C52 1.255 . S
C59 O63 1.295 . S
C59 O64 1.235 . S
O60 Fe45 1.976 . S
O60 C54 1.287 . S
O61 Fe47 1.996 1_554 S
O61 C54 1.255 . S
C62 O55 1.287 . S
C62 O56 1.255 . S
O63 Fe45 2.002 1_556 S
O63 C59 1.295 . S
O64 Fe47 1.997 . S
O64 C59 1.235 . S
C65 O48 1.295 . S
C65 O49 1.235 . S
Fe66 O68 1.918 . S
Fe66 O71 1.997 . S
Fe66 O72 2.002 . S
Fe66 O77 1.976 . S
Fe66 O80 1.996 . S
Fe67 O68 1.918 . S
Fe67 O75 1.997 . S
Fe67 O78 1.996 . S
Fe67 O82 1.976 . S
Fe67 O85 2.002 . S
O68 Fe66 1.918 . S
O68 Fe67 1.918 . S
O68 Fe69 1.918 . S
Fe69 O68 1.918 . S
Fe69 O70 2.002 . S
Fe69 O79 1.976 . S
Fe69 O83 1.996 . S
Fe69 O86 1.997 . S
O70 Fe69 2.002 . S
O70 C87 1.295 . S
O71 Fe66 1.997 . S
O71 C87 1.235 . S
O72 Fe66 2.002 . S
O72 C73 1.295 . S
C73 O72 1.295 . S
C73 O75 1.235 . S
C74 O79 1.287 . S
C74 O80 1.255 . S
O75 Fe67 1.997 . S
O75 C73 1.235 . S
C76 O82 1.287 . S
C76 O83 1.255 . S
O77 Fe66 1.976 . S
O77 C84 1.287 . S
O78 Fe67 1.996 . S
O78 C84 1.255 . S
O79 Fe69 1.976 . S
O79 C74 1.287 . S
O80 Fe66 1.996 . S
O80 C74 1.255 . S
C81 O85 1.295 . S
C81 O86 1.235 . S
O82 Fe67 1.976 . S
O82 C76 1.287 . S
O83 Fe69 1.996 . S
O83 C76 1.255 . S
C84 O77 1.287 . S
C84 O78 1.255 . S
O85 Fe67 2.002 . S
O85 C81 1.295 . S
O86 Fe69 1.997 . S
O86 C81 1.235 . S
C87 O70 1.295 . S
C87 O71 1.235 . S
C88 C89 1.384 . S
C88 H101 0.947 . S
C88 C123 1.382 . S
C89 C88 1.384 . S
C89 C90 1.378 . S
C90 C89 1.378 . S
C90 C91 1.378 1_655 S
C90 H102 0.952 . S
C91 C90 1.378 1_455 S
C91 H103 0.950 . S
C91 C122 1.383 . S
H92 C111 0.947 . S
H93 C112 0.946 . S
H94 C114 0.953 . S
H95 C115 0.945 . S
H96 C117 0.952 . S
H97 C118 0.949 . S
H98 C120 0.944 1_565 S
H99 C121 0.948 . S
H100 C123 0.951 . S
H101 C88 0.947 . S
H102 C90 0.952 . S
H103 C91 0.950 . S
N104 C107 1.382 . S
N104 C109 1.363 . S
N105 C107 1.371 . S
N105 C108 1.372 . S
N106 C108 1.361 . S
N106 C109 1.377 . S
C107 N104 1.382 . S
C107 N105 1.371 . S
C107 C110 1.480 . S
C108 N105 1.372 . S
C108 N106 1.361 . S
C108 C116 1.457 . S
C109 N104 1.363 . S
C109 N106 1.377 . S
C109 C122 1.479 . S
C110 C107 1.480 . S
C110 C111 1.383 . S
C110 C115 1.385 . S
C111 H92 0.947 . S
C111 C110 1.383 . S
C111 C112 1.388 . S
C112 H93 0.946 . S
C112 C111 1.388 . S
C112 C113 1.384 . S
C113 C112 1.384 . S
C113 C114 1.377 . S
C114 H94 0.953 . S
C114 C113 1.377 . S
C114 C115 1.369 . S
C115 H95 0.945 . S
C115 C110 1.385 . S
C115 C114 1.369 . S
C116 C108 1.457 . S
C116 C117 1.372 . S
C116 C121 1.364 . S
C117 H96 0.952 . S
C117 C116 1.372 . S
C117 C118 1.389 . S
C118 H97 0.949 . S
C118 C117 1.389 . S
C118 C119 1.387 1_545 S
C119 C118 1.387 1_565 S
C119 C120 1.372 1_565 S
C120 H98 0.944 1_545 S
C120 C119 1.372 1_545 S
C120 C121 1.379 . S
C121 H99 0.948 . S
C121 C116 1.364 . S
C121 C120 1.379 . S
C122 C91 1.383 . S
C122 C109 1.479 . S
C122 C123 1.398 1_455 S
C123 C88 1.382 . S
C123 H100 0.951 . S
C123 C122 1.398 1_655 S
C124 C125 1.384 . S
C124 H137 0.947 . S
C124 C159 1.382 . S
C125 C124 1.384 . S
C125 C126 1.378 . S
C126 C125 1.378 . S
C126 C127 1.378 . S
C126 H138 0.952 . S
C127 C126 1.378 . S
C127 H139 0.950 . S
C127 C158 1.383 . S
H128 C147 0.947 . S
H129 C148 0.946 . S
H130 C150 0.953 . S
H131 C151 0.945 . S
H132 C153 0.952 . S
H133 C154 0.949 . S
H134 C156 0.950 . S
H135 C157 0.948 . S
H136 C159 0.951 . S
H137 C124 0.947 . S
H138 C126 0.952 . S
H139 C127 0.950 . S
N140 C143 1.382 . S
N140 C145 1.363 . S
N141 C143 1.371 . S
N141 C144 1.372 . S
N142 C144 1.361 . S
N142 C145 1.377 . S
C143 N140 1.382 . S
C143 N141 1.371 . S
C143 C146 1.480 . S
C144 N141 1.372 . S
C144 N142 1.361 . S
C144 C152 1.457 . S
C145 N140 1.363 . S
C145 N142 1.377 . S
C145 C158 1.479 . S
C146 C143 1.480 . S
C146 C147 1.383 . S
C146 C151 1.385 . S
C147 H128 0.947 . S
C147 C146 1.383 . S
C147 C148 1.388 . S
C148 H129 0.946 . S
C148 C147 1.388 . S
C148 C149 1.384 . S
C149 C148 1.384 . S
C149 C150 1.377 . S
C150 H130 0.953 . S
C150 C149 1.377 . S
C150 C151 1.369 . S
C151 H131 0.945 . S
C151 C146 1.385 . S
C151 C150 1.369 . S
C152 C144 1.457 . S
C152 C153 1.372 . S
C152 C157 1.364 . S
C153 H132 0.952 . S
C153 C152 1.372 . S
C153 C154 1.389 . S
C154 H133 0.949 . S
C154 C153 1.389 . S
C154 C155 1.387 . S
C155 C154 1.387 . S
C155 C156 1.372 . S
C156 H134 0.950 . S
C156 C155 1.372 . S
C156 C157 1.379 . S
C157 H135 0.948 . S
C157 C152 1.364 . S
C157 C156 1.379 . S
C158 C127 1.383 . S
C158 C145 1.479 . S
C158 C159 1.398 . S
C159 C124 1.382 . S
C159 H136 0.951 . S
C159 C158 1.398 . S
C160 C161 1.384 . S
C160 H173 0.947 . S
C160 C195 1.382 . S
C161 C160 1.384 . S
C161 C162 1.378 . S
C162 C161 1.378 . S
C162 C163 1.378 . S
C162 H174 0.952 . S
C163 C162 1.378 . S
C163 H175 0.950 . S
C163 C194 1.383 . S
H164 C183 0.947 . S
H165 C184 0.946 . S
H166 C186 0.953 . S
H167 C187 0.945 . S
H168 C189 0.952 . S
H169 C190 0.949 . S
H170 C192 0.950 . S
H171 C193 0.948 . S
H172 C195 0.951 . S
H173 C160 0.947 . S
H174 C162 0.952 . S
H175 C163 0.950 . S
N176 C179 1.382 . S
N176 C181 1.363 . S
N177 C179 1.371 . S
N177 C180 1.372 . S
N178 C180 1.361 . S
N178 C181 1.377 . S
C179 N176 1.382 . S
C179 N177 1.371 . S
C179 C182 1.480 . S
C180 N177 1.372 . S
C180 N178 1.361 . S
C180 C188 1.457 . S
C181 N176 1.363 . S
C181 N178 1.377 . S
C181 C194 1.479 . S
C182 C179 1.480 . S
C182 C183 1.383 . S
C182 C187 1.385 . S
C183 H164 0.947 . S
C183 C182 1.383 . S
C183 C184 1.388 . S
C184 H165 0.946 . S
C184 C183 1.388 . S
C184 C185 1.384 . S
C185 C184 1.384 . S
C185 C186 1.377 . S
C186 H166 0.953 . S
C186 C185 1.377 . S
C186 C187 1.369 . S
C187 H167 0.945 . S
C187 C182 1.385 . S
C187 C186 1.369 . S
C188 C180 1.457 . S
C188 C189 1.372 . S
C188 C193 1.364 . S
C189 H168 0.952 . S
C189 C188 1.372 . S
C189 C190 1.389 . S
C190 H169 0.949 . S
C190 C189 1.389 . S
C190 C191 1.387 . S
C191 C190 1.387 . S
C191 C192 1.372 . S
C192 H170 0.950 . S
C192 C191 1.372 . S
C192 C193 1.379 . S
C193 H171 0.948 . S
C193 C188 1.364 . S
C193 C192 1.379 . S
C194 C163 1.383 . S
C194 C181 1.479 . S
C194 C195 1.398 . S
C195 C160 1.382 . S
C195 H172 0.951 . S
C195 C194 1.398 . S
C196 C197 1.384 . S
C196 H209 0.947 . S
C196 C231 1.382 . S
C197 C196 1.384 . S
C197 C198 1.378 . S
C198 C197 1.378 . S
C198 C199 1.378 . S
C198 H210 0.952 . S
C199 C198 1.378 . S
C199 H211 0.950 . S
C199 C230 1.383 . S
H200 C219 0.947 . S
H201 C220 0.946 . S
H202 C222 0.953 . S
H203 C223 0.945 . S
H204 C225 0.952 . S
H205 C226 0.949 . S
H206 C228 0.950 . S
H207 C229 0.948 . S
H208 C231 0.951 . S
H209 C196 0.947 . S
H210 C198 0.952 . S
H211 C199 0.950 . S
N212 C215 1.382 . S
N212 C217 1.363 . S
N213 C215 1.371 . S
N213 C216 1.372 . S
N214 C216 1.361 . S
N214 C217 1.377 . S
C215 N212 1.382 . S
C215 N213 1.371 . S
C215 C218 1.480 . S
C216 N213 1.372 . S
C216 N214 1.361 . S
C216 C224 1.457 . S
C217 N212 1.363 . S
C217 N214 1.377 . S
C217 C230 1.479 . S
C218 C215 1.480 . S
C218 C219 1.383 . S
C218 C223 1.385 . S
C219 H200 0.947 . S
C219 C218 1.383 . S
C219 C220 1.388 . S
C220 H201 0.946 . S
C220 C219 1.388 . S
C220 C221 1.384 . S
C221 C220 1.384 . S
C221 C222 1.377 . S
C222 H202 0.953 . S
C222 C221 1.377 . S
C222 C223 1.369 . S
C223 H203 0.945 . S
C223 C218 1.385 . S
C223 C222 1.369 . S
C224 C216 1.457 . S
C224 C225 1.372 . S
C224 C229 1.364 . S
C225 H204 0.952 . S
C225 C224 1.372 . S
C225 C226 1.389 . S
C226 H205 0.949 . S
C226 C225 1.389 . S
C226 C227 1.387 . S
C227 C226 1.387 . S
C227 C228 1.372 . S
C228 H206 0.950 . S
C228 C227 1.372 . S
C228 C229 1.379 . S
C229 H207 0.948 . S
C229 C224 1.364 . S
C229 C228 1.379 . S
C230 C199 1.383 . S
C230 C217 1.479 . S
C230 C231 1.398 . S
C231 C196 1.382 . S
C231 H208 0.951 . S
C231 C230 1.398 . S
C232 C233 1.384 . S
C232 H245 0.947 . S
C232 C267 1.382 . S
C233 C232 1.384 . S
C233 C234 1.378 . S
C234 C233 1.378 . S
C234 C235 1.378 . S
C234 H246 0.952 . S
C235 C234 1.378 . S
C235 H247 0.950 . S
C235 C266 1.383 . S
H236 C255 0.947 . S
H237 C256 0.946 . S
H238 C258 0.953 . S
H239 C259 0.945 . S
H240 C261 0.952 . S
H241 C262 0.949 . S
H242 C264 0.950 . S
H243 C265 0.948 . S
H244 C267 0.951 . S
H245 C232 0.947 . S
H246 C234 0.952 . S
H247 C235 0.950 . S
N248 C251 1.382 . S
N248 C253 1.363 . S
N249 C251 1.371 . S
N249 C252 1.372 . S
N250 C252 1.361 . S
N250 C253 1.377 . S
C251 N248 1.382 . S
C251 N249 1.371 . S
C251 C254 1.480 . S
C252 N249 1.372 . S
C252 N250 1.361 . S
C252 C260 1.457 . S
C253 N248 1.363 . S
C253 N250 1.377 . S
C253 C266 1.479 . S
C254 C251 1.480 . S
C254 C255 1.383 . S
C254 C259 1.385 . S
C255 H236 0.947 . S
C255 C254 1.383 . S
C255 C256 1.388 . S
C256 H237 0.946 . S
C256 C255 1.388 . S
C256 C257 1.384 . S
C257 C256 1.384 . S
C257 C258 1.377 . S
C258 H238 0.953 . S
C258 C257 1.377 . S
C258 C259 1.369 . S
C259 H239 0.945 . S
C259 C254 1.385 . S
C259 C258 1.369 . S
C260 C252 1.457 . S
C260 C261 1.372 . S
C260 C265 1.364 . S
C261 H240 0.952 . S
C261 C260 1.372 . S
C261 C262 1.389 . S
C262 H241 0.949 . S
C262 C261 1.389 . S
C262 C263 1.387 . S
C263 C262 1.387 . S
C263 C264 1.372 . S
C264 H242 0.950 . S
C264 C263 1.372 . S
C264 C265 1.379 . S
C265 H243 0.948 . S
C265 C260 1.364 . S
C265 C264 1.379 . S
C266 C235 1.383 . S
C266 C253 1.479 . S
C266 C267 1.398 . S
C267 C232 1.382 . S
C267 H244 0.951 . S
C267 C266 1.398 . S
C268 C269 1.384 . S
C268 H281 0.947 . S
C268 C303 1.382 . S
C269 C268 1.384 . S
C269 C270 1.378 . S
C270 C269 1.378 . S
C270 C271 1.378 . S
C270 H282 0.952 . S
C271 C270 1.378 . S
C271 H283 0.950 . S
C271 C302 1.383 . S
H272 C291 0.947 . S
H273 C292 0.946 . S
H274 C294 0.955 1_554 S
H275 C295 0.945 1_554 S
H276 C297 0.952 . S
H277 C298 0.949 . S
H278 C300 0.950 . S
H279 C301 0.948 . S
H280 C303 0.951 . S
H281 C268 0.947 . S
H282 C270 0.952 . S
H283 C271 0.950 . S
N284 C287 1.382 . S
N284 C289 1.363 . S
N285 C287 1.371 . S
N285 C288 1.372 . S
N286 C288 1.361 . S
N286 C289 1.377 . S
C287 N284 1.382 . S
C287 N285 1.371 . S
C287 C290 1.480 . S
C288 N285 1.372 . S
C288 N286 1.361 . S
C288 C296 1.457 . S
C289 N284 1.363 . S
C289 N286 1.377 . S
C289 C302 1.479 . S
C290 C287 1.480 . S
C290 C291 1.383 . S
C290 C295 1.385 . S
C291 H272 0.947 . S
C291 C290 1.383 . S
C291 C292 1.388 . S
C292 H273 0.946 . S
C292 C291 1.388 . S
C292 C293 1.384 . S
C293 C292 1.384 . S
C293 C294 1.375 . S
C294 H274 0.955 1_556 S
C294 C293 1.375 . S
C294 C295 1.369 . S
C295 H275 0.945 1_556 S
C295 C290 1.385 . S
C295 C294 1.369 . S
C296 C288 1.457 . S
C296 C297 1.372 . S
C296 C301 1.364 . S
C297 H276 0.952 . S
C297 C296 1.372 . S
C297 C298 1.389 1_556 S
C298 H277 0.949 . S
C298 C297 1.389 1_554 S
C298 C299 1.387 1_554 S
C299 C298 1.387 1_556 S
C299 C300 1.372 . S
C300 H278 0.950 . S
C300 C299 1.372 . S
C300 C301 1.379 . S
C301 H279 0.948 . S
C301 C296 1.364 . S
C301 C300 1.379 . S
C302 C271 1.383 . S
C302 C289 1.479 . S
C302 C303 1.398 . S
C303 C268 1.382 . S
C303 H280 0.951 . S
C303 C302 1.398 . S
C304 C305 1.384 . S
C304 H317 0.947 . S
C304 C339 1.382 . S
C305 C304 1.384 . S
C305 C306 1.378 . S
C306 C305 1.378 . S
C306 C307 1.378 . S
C306 H318 0.952 . S
C307 C306 1.378 . S
C307 H319 0.950 . S
C307 C338 1.383 . S
H308 C327 0.947 . S
H309 C328 0.946 . S
H310 C330 0.953 . S
H311 C331 0.945 . S
H312 C333 0.952 . S
H313 C334 0.949 . S
H314 C336 0.950 . S
H315 C337 0.948 . S
H316 C339 0.951 . S
H317 C304 0.947 . S
H318 C306 0.952 . S
H319 C307 0.950 . S
N320 C323 1.382 . S
N320 C325 1.363 . S
N321 C323 1.371 . S
N321 C324 1.372 . S
N322 C324 1.361 . S
N322 C325 1.377 . S
C323 N320 1.382 . S
C323 N321 1.371 . S
C323 C326 1.480 . S
C324 N321 1.372 . S
C324 N322 1.361 . S
C324 C332 1.457 . S
C325 N320 1.363 . S
C325 N322 1.377 . S
C325 C338 1.479 . S
C326 C323 1.480 . S
C326 C327 1.383 . S
C326 C331 1.385 . S
C327 H308 0.947 . S
C327 C326 1.383 . S
C327 C328 1.388 . S
C328 H309 0.946 . S
C328 C327 1.388 . S
C328 C329 1.384 . S
C329 C328 1.384 . S
C329 C330 1.377 . S
C330 H310 0.953 . S
C330 C329 1.377 . S
C330 C331 1.369 . S
C331 H311 0.945 . S
C331 C326 1.385 . S
C331 C330 1.369 . S
C332 C324 1.457 . S
C332 C333 1.372 . S
C332 C337 1.364 . S
C333 H312 0.952 . S
C333 C332 1.372 . S
C333 C334 1.389 . S
C334 H313 0.949 . S
C334 C333 1.389 . S
C334 C335 1.387 . S
C335 C334 1.387 . S
C335 C336 1.372 . S
C336 H314 0.950 . S
C336 C335 1.372 . S
C336 C337 1.379 . S
C337 H315 0.948 . S
C337 C332 1.364 . S
C337 C336 1.379 . S
C338 C307 1.383 . S
C338 C325 1.479 . S
C338 C339 1.398 . S
C339 C304 1.382 . S
C339 H316 0.951 . S
C339 C338 1.398 . S
C340 C341 1.384 1_565 S
C340 H353 0.947 1_565 S
C340 C375 1.382 . S
C341 C340 1.384 1_545 S
C341 C342 1.378 1_545 S
C342 C341 1.378 1_565 S
C342 C343 1.378 . S
C342 H354 0.952 . S
C343 C342 1.378 . S
C343 H355 0.950 . S
C343 C374 1.383 . S
H344 C363 0.947 . S
H345 C364 0.946 . S
H346 C366 0.953 . S
H347 C367 0.945 . S
H348 C369 0.952 . S
H349 C370 0.949 . S
H350 C372 0.950 . S
H351 C373 0.948 1_655 S
H352 C375 0.951 . S
H353 C340 0.947 1_545 S
H354 C342 0.952 . S
H355 C343 0.950 . S
N356 C359 1.382 . S
N356 C361 1.363 . S
N357 C359 1.371 . S
N357 C360 1.372 . S
N358 C360 1.361 . S
N358 C361 1.377 . S
C359 N356 1.382 . S
C359 N357 1.371 . S
C359 C362 1.480 . S
C360 N357 1.372 . S
C360 N358 1.361 . S
C360 C368 1.457 . S
C361 N356 1.363 . S
C361 N358 1.377 . S
C361 C374 1.479 . S
C362 C359 1.480 . S
C362 C363 1.383 . S
C362 C367 1.385 . S
C363 H344 0.947 . S
C363 C362 1.383 . S
C363 C364 1.388 . S
C364 H345 0.946 . S
C364 C363 1.388 . S
C364 C365 1.384 . S
C365 C364 1.384 . S
C365 C366 1.377 . S
C366 H346 0.953 . S
C366 C365 1.377 . S
C366 C367 1.369 . S
C367 H347 0.945 . S
C367 C362 1.385 . S
C367 C366 1.369 . S
C368 C360 1.457 . S
C368 C369 1.372 . S
C368 C373 1.364 1_655 S
C369 H348 0.952 . S
C369 C368 1.372 . S
C369 C370 1.388 1_655 S
C370 H349 0.949 . S
C370 C369 1.388 1_455 S
C370 C371 1.387 . S
C371 C370 1.387 . S
C371 C372 1.372 . S
C372 H350 0.950 . S
C372 C371 1.372 . S
C372 C373 1.379 . S
C373 H351 0.948 1_455 S
C373 C368 1.364 1_455 S
C373 C372 1.379 . S
C374 C343 1.383 . S
C374 C361 1.479 . S
C374 C375 1.398 . S
C375 C340 1.382 . S
C375 H352 0.951 . S
C375 C374 1.398 . S
C376 C377 1.369 . S
C376 C378 1.419 . S
C376 H380 0.930 . S
C377 C376 1.369 . S
C377 C386 1.429 . S
C378 C376 1.419 . S
C378 C379 1.363 . S
C378 H381 0.929 . S
C379 C378 1.363 . S
C379 C385 1.428 . S
H380 C376 0.930 . S
H381 C378 0.929 . S
S382 N383 1.613 . S
S382 N384 1.610 . S
N383 S382 1.613 . S
N383 C386 1.350 . S
N384 S382 1.610 . S
N384 C385 1.351 . S
C385 C379 1.428 . S
C385 N384 1.351 . S
C385 C386 1.434 . S
C386 C377 1.429 . S
C386 N383 1.350 . S
C386 C385 1.434 . S
C387 C388 1.369 . S
C387 C389 1.419 . S
C387 H391 0.930 . S
C388 C387 1.369 . S
C388 C397 1.429 . S
C389 C387 1.419 . S
C389 C390 1.363 . S
C389 H392 0.929 . S
C390 C389 1.363 . S
C390 C396 1.428 . S
H391 C387 0.930 . S
H392 C389 0.929 . S
S393 N394 1.613 . S
S393 N395 1.610 . S
N394 S393 1.613 . S
N394 C397 1.350 . S
N395 S393 1.610 . S
N395 C396 1.351 . S
C396 C390 1.428 . S
C396 N395 1.351 . S
C396 C397 1.434 . S
C397 C388 1.429 . S
C397 N394 1.350 . S
C397 C396 1.434 . S
C398 C399 1.369 . S
C398 C400 1.419 1_545 S
C398 H402 0.930 . S
C399 C398 1.369 . S
C399 C408 1.429 . S
C400 C398 1.419 1_565 S
C400 C401 1.363 . S
C400 H403 0.929 . S
C401 C400 1.363 . S
C401 C407 1.428 1_565 S
H402 C398 0.930 . S
H403 C400 0.929 . S
S404 N405 1.613 . S
S404 N406 1.610 . S
N405 S404 1.613 . S
N405 C408 1.350 . S
N406 S404 1.610 . S
N406 C407 1.351 . S
C407 C401 1.428 1_545 S
C407 N406 1.351 . S
C407 C408 1.434 . S
C408 C399 1.429 . S
C408 N405 1.350 . S
C408 C407 1.434 . S
C409 C410 1.369 . S
C409 C411 1.419 . S
C409 H413 0.930 . S
C410 C409 1.369 . S
C410 C419 1.429 . S
C411 C409 1.419 . S
C411 C412 1.363 . S
C411 H414 0.929 . S
C412 C411 1.363 . S
C412 C418 1.428 . S
H413 C409 0.930 . S
H414 C411 0.929 . S
S415 N416 1.613 . S
S415 N417 1.610 . S
N416 S415 1.613 . S
N416 C419 1.350 . S
N417 S415 1.610 . S
N417 C418 1.351 . S
C418 C412 1.428 . S
C418 N417 1.351 . S
C418 C419 1.434 . S
C419 C410 1.429 . S
C419 N416 1.350 . S
C419 C418 1.434 . S
C420 C421 1.369 . S
C420 C422 1.419 . S
C420 H424 0.930 . S
C421 C420 1.369 . S
C421 C430 1.429 . S
C422 C420 1.419 . S
C422 C423 1.363 . S
C422 H425 0.929 . S
C423 C422 1.363 . S
C423 C429 1.428 . S
H424 C420 0.930 . S
H425 C422 0.929 . S
S426 N427 1.613 . S
S426 N428 1.610 . S
N427 S426 1.613 . S
N427 C430 1.350 . S
N428 S426 1.610 . S
N428 C429 1.351 . S
C429 C423 1.428 . S
C429 N428 1.351 . S
C429 C430 1.434 . S
C430 C421 1.429 . S
C430 N427 1.350 . S
C430 C429 1.434 . S
C431 C432 1.368 . S
C431 C433 1.418 1_656 S
C431 H435 0.931 1_556 S
C432 C431 1.368 . S
C432 C441 1.429 . S
C433 C431 1.418 1_454 S
C433 C434 1.364 1_554 S
C433 H436 0.928 . S
C434 C433 1.364 1_556 S
C434 C440 1.428 . S
H435 C431 0.931 1_554 S
H436 C433 0.928 . S
S437 N438 1.613 1_455 S
S437 N439 1.610 . S
N438 S437 1.613 1_655 S
N438 C441 1.350 . S
N439 S437 1.610 . S
N439 C440 1.351 . S
C440 C434 1.428 . S
C440 N439 1.351 . S
C440 C441 1.434 1_455 S
C441 C432 1.429 . S
C441 N438 1.350 . S
C441 C440 1.434 1_655 S
C442 C443 1.369 . S
C442 C444 1.419 . S
C442 H446 0.930 . S
C443 C442 1.369 . S
C443 C452 1.429 . S
C444 C442 1.419 . S
C444 C445 1.363 . S
C444 H447 0.929 . S
C445 C444 1.363 . S
C445 C451 1.428 . S
H446 C442 0.930 . S
H447 C444 0.929 . S
S448 N449 1.613 . S
S448 N450 1.610 . S
N449 S448 1.613 . S
N449 C452 1.350 . S
N450 S448 1.610 . S
N450 C451 1.351 . S
C451 C445 1.428 . S
C451 N450 1.351 . S
C451 C452 1.434 . S
C452 C443 1.429 . S
C452 N449 1.350 . S
C452 C451 1.434 . S
C453 C454 1.369 . S
C453 C455 1.419 . S
C453 H457 0.930 . S
C454 C453 1.369 . S
C454 C463 1.429 . S
C455 C453 1.419 . S
C455 C456 1.363 . S
C455 H458 0.929 . S
C456 C455 1.363 . S
C456 C462 1.428 . S
H457 C453 0.930 . S
H458 C455 0.929 . S
S459 N460 1.613 . S
S459 N461 1.610 . S
N460 S459 1.613 . S
N460 C463 1.350 . S
N461 S459 1.610 . S
N461 C462 1.351 . S
C462 C456 1.428 . S
C462 N461 1.351 . S
C462 C463 1.434 . S
C463 C454 1.429 . S
C463 N460 1.350 . S
C463 C462 1.434 . S
C464 C465 1.369 . S
C464 C466 1.419 . S
C464 H468 0.930 . S
C465 C464 1.369 . S
C465 C474 1.429 . S
C466 C464 1.419 . S
C466 C467 1.363 . S
C466 H469 0.929 1_545 S
C467 C466 1.363 . S
C467 C473 1.428 . S
H468 C464 0.930 . S
H469 C466 0.929 1_565 S
S470 N471 1.613 . S
S470 N472 1.610 . S
N471 S470 1.613 . S
N471 C474 1.350 . S
N472 S470 1.610 . S
N472 C473 1.351 . S
C473 C467 1.428 . S
C473 N472 1.351 . S
C473 C474 1.434 . S
C474 C465 1.429 . S
C474 N471 1.350 . S
C474 C473 1.434 . S
C475 C476 1.369 . S
C475 C477 1.419 . S
C475 H479 0.930 . S
C476 C475 1.369 . S
C476 C485 1.429 . S
C477 C475 1.419 . S
C477 C478 1.363 . S
C477 H480 0.929 . S
C478 C477 1.363 . S
C478 C484 1.428 . S
H479 C475 0.930 . S
H480 C477 0.929 . S
S481 N482 1.613 . S
S481 N483 1.610 . S
N482 S481 1.613 . S
N482 C485 1.350 . S
N483 S481 1.610 . S
N483 C484 1.351 . S
C484 C478 1.428 . S
C484 N483 1.351 . S
C484 C485 1.434 . S
C485 C476 1.429 . S
C485 N482 1.350 . S
C485 C484 1.434 . S
C486 C487 1.369 . S
C486 C488 1.419 1_565 S
C486 H490 0.930 . S
C487 C486 1.369 . S
C487 C496 1.429 . S
C488 C486 1.419 1_545 S
C488 C489 1.363 . S
C488 H491 0.929 . S
C489 C488 1.363 . S
C489 C495 1.428 1_545 S
H490 C486 0.930 . S
H491 C488 0.929 . S
S492 N493 1.613 . S
S492 N494 1.610 . S
N493 S492 1.613 . S
N493 C496 1.350 . S
N494 S492 1.610 . S
N494 C495 1.351 . S
C495 C489 1.428 1_565 S
C495 N494 1.351 . S
C495 C496 1.434 . S
C496 C487 1.429 . S
C496 N493 1.350 . S
C496 C495 1.434 . S
C497 C498 1.369 . S
C497 C499 1.419 . S
C497 H501 0.930 . S
C498 C497 1.369 . S
C498 C507 1.429 . S
C499 C497 1.419 . S
C499 C500 1.363 . S
C499 H502 0.929 . S
C500 C499 1.363 . S
C500 C506 1.428 . S
H501 C497 0.930 . S
H502 C499 0.929 . S
S503 N504 1.613 . S
S503 N505 1.610 . S
N504 S503 1.613 . S
N504 C507 1.350 . S
N505 S503 1.610 . S
N505 C506 1.351 . S
C506 C500 1.428 . S
C506 N505 1.351 . S
C506 C507 1.434 . S
C507 C498 1.429 . S
C507 N504 1.350 . S
C507 C506 1.434 . S
C508 C509 1.369 . S
C508 C510 1.419 . S
C508 H512 0.930 . S
C509 C508 1.369 . S
C509 C518 1.429 . S
C510 C508 1.419 . S
C510 C511 1.363 . S
C510 H513 0.929 . S
C511 C510 1.363 . S
C511 C517 1.428 . S
H512 C508 0.930 . S
H513 C510 0.929 . S
S514 N515 1.613 . S
S514 N516 1.610 . S
N515 S514 1.613 . S
N515 C518 1.350 . S
N516 S514 1.610 . S
N516 C517 1.351 . S
C517 C511 1.428 . S
C517 N516 1.351 . S
C517 C518 1.434 . S
C518 C509 1.429 . S
C518 N515 1.350 . S
C518 C517 1.434 . S
C519 C520 1.369 . S
C519 C521 1.419 1_455 S
C519 H523 0.930 . S
C520 C519 1.369 . S
C520 C529 1.429 . S
C521 C519 1.419 1_655 S
C521 C522 1.363 . S
C521 H524 0.929 . S
C522 C521 1.363 . S
C522 C528 1.428 . S
H523 C519 0.930 . S
H524 C521 0.929 . S
S525 N526 1.613 1_655 S
S525 N527 1.610 . S
N526 S525 1.613 1_455 S
N526 C529 1.350 . S
N527 S525 1.610 . S
N527 C528 1.351 . S
C528 C522 1.428 . S
C528 N527 1.351 . S
C528 C529 1.434 1_655 S
C529 C520 1.429 . S
C529 N526 1.350 . S
C529 C528 1.434 1_455 S
C530 C531 1.369 . S
C530 C532 1.419 . S
C530 H534 0.930 . S
C531 C530 1.369 . S
C531 C540 1.429 . S
C532 C530 1.419 . S
C532 C533 1.363 . S
C532 H535 0.929 . S
C533 C532 1.363 . S
C533 C539 1.428 . S
H534 C530 0.930 . S
H535 C532 0.929 . S
S536 N537 1.613 . S
S536 N538 1.610 . S
N537 S536 1.613 . S
N537 C540 1.350 . S
N538 S536 1.610 . S
N538 C539 1.351 . S
C539 C533 1.428 . S
C539 N538 1.351 . S
C539 C540 1.434 . S
C540 C531 1.429 . S
C540 N537 1.350 . S
C540 C539 1.434 . S
C541 C542 1.369 . S
C541 C543 1.419 . S
C541 H545 0.930 . S
C542 C541 1.369 . S
C542 C551 1.429 . S
C543 C541 1.419 . S
C543 C544 1.363 . S
C543 H546 0.929 . S
C544 C543 1.363 . S
C544 C550 1.428 . S
H545 C541 0.930 . S
H546 C543 0.929 . S
S547 N548 1.613 . S
S547 N549 1.610 . S
N548 S547 1.613 . S
N548 C551 1.350 . S
N549 S547 1.610 . S
N549 C550 1.351 . S
C550 C544 1.428 . S
C550 N549 1.351 . S
C550 C551 1.434 . S
C551 C542 1.429 . S
C551 N548 1.350 . S
C551 C550 1.434 . S
C552 C553 1.369 . S
C552 C554 1.419 . S
C552 H556 0.930 . S
C553 C552 1.369 . S
C553 C562 1.429 . S
C554 C552 1.419 . S
C554 C555 1.363 . S
C554 H557 0.929 . S
C555 C554 1.363 . S
C555 C561 1.428 . S
H556 C552 0.930 . S
H557 C554 0.929 . S
S558 N559 1.613 . S
S558 N560 1.610 . S
N559 S558 1.613 . S
N559 C562 1.350 . S
N560 S558 1.610 . S
N560 C561 1.351 . S
C561 C555 1.428 . S
C561 N560 1.351 . S
C561 C562 1.434 . S
C562 C553 1.429 . S
C562 N559 1.350 . S
C562 C561 1.434 . S
C563 C564 1.369 . S
C563 C565 1.419 . S
C563 H567 0.930 . S
C564 C563 1.369 . S
C564 C573 1.429 . S
C565 C563 1.419 . S
C565 C566 1.363 . S
C565 H568 0.929 . S
C566 C565 1.363 . S
C566 C572 1.428 . S
H567 C563 0.930 . S
H568 C565 0.929 . S
S569 N570 1.613 . S
S569 N571 1.610 . S
N570 S569 1.613 . S
N570 C573 1.350 . S
N571 S569 1.610 . S
N571 C572 1.351 . S
C572 C566 1.428 . S
C572 N571 1.351 . S
C572 C573 1.434 . S
C573 C564 1.429 . S
C573 N570 1.350 . S
C573 C572 1.434 . S
C574 C575 1.369 . S
C574 C576 1.419 . S
C574 H578 0.930 . S
C575 C574 1.369 . S
C575 C584 1.429 . S
C576 C574 1.419 . S
C576 C577 1.363 . S
C576 H579 0.929 . S
C577 C576 1.363 . S
C577 C583 1.428 . S
H578 C574 0.930 . S
H579 C576 0.929 . S
S580 N581 1.613 . S
S580 N582 1.610 . S
N581 S580 1.613 . S
N581 C584 1.350 . S
N582 S580 1.610 . S
N582 C583 1.351 . S
C583 C577 1.428 . S
C583 N582 1.351 . S
C583 C584 1.434 . S
C584 C575 1.429 . S
C584 N581 1.350 . S
C584 C583 1.434 . S
C585 C586 1.369 . S
C585 C587 1.419 . S
C585 H589 0.930 . S
C586 C585 1.369 . S
C586 C595 1.429 . S
C587 C585 1.419 . S
C587 C588 1.363 . S
C587 H590 0.929 . S
C588 C587 1.363 . S
C588 C594 1.428 . S
H589 C585 0.930 . S
H590 C587 0.929 . S
S591 N592 1.613 . S
S591 N593 1.610 . S
N592 S591 1.613 . S
N592 C595 1.350 . S
N593 S591 1.610 . S
N593 C594 1.351 . S
C594 C588 1.428 . S
C594 N593 1.351 . S
C594 C595 1.434 . S
C595 C586 1.429 . S
C595 N592 1.350 . S
C595 C594 1.434 . S
C596 C597 1.369 . S
C596 C598 1.419 . S
C596 H600 0.930 . S
C597 C596 1.369 . S
C597 C606 1.429 . S
C598 C596 1.419 . S
C598 C599 1.363 . S
C598 H601 0.929 . S
C599 C598 1.363 . S
C599 C605 1.428 . S
H600 C596 0.930 . S
H601 C598 0.929 . S
S602 N603 1.613 . S
S602 N604 1.610 . S
N603 S602 1.613 . S
N603 C606 1.350 . S
N604 S602 1.610 . S
N604 C605 1.351 . S
C605 C599 1.428 . S
C605 N604 1.351 . S
C605 C606 1.434 . S
C606 C597 1.429 . S
C606 N603 1.350 . S
C606 C605 1.434 . S
C607 C608 1.369 . S
C607 C609 1.419 . S
C607 H611 0.930 . S
C608 C607 1.369 . S
C608 C617 1.429 . S
C609 C607 1.419 . S
C609 C610 1.363 . S
C609 H612 0.929 . S
C610 C609 1.363 . S
C610 C616 1.428 . S
H611 C607 0.930 . S
H612 C609 0.929 . S
S613 N614 1.613 . S
S613 N615 1.610 . S
N614 S613 1.613 . S
N614 C617 1.350 . S
N615 S613 1.610 . S
N615 C616 1.351 . S
C616 C610 1.428 . S
C616 N615 1.351 . S
C616 C617 1.434 . S
C617 C608 1.429 . S
C617 N614 1.350 . S
C617 C616 1.434 . S
C618 C619 1.369 . S
C618 C620 1.419 . S
C618 H622 0.930 . S
C619 C618 1.369 . S
C619 C628 1.429 . S
C620 C618 1.419 . S
C620 C621 1.363 . S
C620 H623 0.929 . S
C621 C620 1.363 . S
C621 C627 1.428 . S
H622 C618 0.930 . S
H623 C620 0.929 . S
S624 N625 1.613 . S
S624 N626 1.610 . S
N625 S624 1.613 . S
N625 C628 1.350 . S
N626 S624 1.610 . S
N626 C627 1.351 . S
C627 C621 1.428 . S
C627 N626 1.351 . S
C627 C628 1.434 . S
C628 C619 1.429 . S
C628 N625 1.350 . S
C628 C627 1.434 . S
C629 C630 1.369 1_556 S
C629 C631 1.419 . S
C629 H633 0.930 . S
C630 C629 1.369 1_554 S
C630 C639 1.429 . S
C631 C629 1.419 . S
C631 C632 1.363 . S
C631 H634 0.929 . S
C632 C631 1.363 . S
C632 C638 1.428 1_556 S
H633 C629 0.930 . S
H634 C631 0.929 . S
S635 N636 1.613 . S
S635 N637 1.610 . S
N636 S635 1.613 . S
N636 C639 1.350 . S
N637 S635 1.610 . S
N637 C638 1.351 . S
C638 C632 1.428 1_554 S
C638 N637 1.351 . S
C638 C639 1.434 . S
C639 C630 1.429 . S
C639 N636 1.350 . S
C639 C638 1.434 . S
C377 C7 1.733 . S
C379 C119 1.566 . S
C388 C37 1.762 . S
C390 C155 1.525 . S
C399 C54 1.902 . S
C401 C191 1.690 . S
C412 C221 1.561 . S
C410 C87 1.583 . S
C423 C263 1.519 . S
C421 C30 1.680 . S
C432 C51 1.637 . S
C434 C293 1.601 . S
C443 C84 1.944 . S
C445 C329 1.750 . S
C454 C10 1.720 . S
C456 C371 1.482 . S
C465 C59 1.723 . S
C467 C341 1.597 . S
C478 C233 1.509 . S
C476 C74 1.705 . S
C489 C299 1.794 1_554 S
C487 C18 1.942 . S
C498 C32 1.630 . S
C500 C335 1.587 . S
C511 C125 1.590 . S
C509 C73 1.723 . S
C520 C15 1.621 . S
C522 C185 1.522 . S
C533 C227 1.837 . S
C531 C43 1.971 . S
C544 C89 1.514 . S
C542 C62 1.703 . S
C555 C305 1.662 . S
C553 C21 1.734 . S
C566 C365 1.408 . S
C564 C29 1.465 . S
C575 C52 1.437 . S
C577 C257 1.346 . S
C588 C269 1.633 . S
C586 C81 1.714 . S
C599 C161 1.558 . S
C597 C40 1.685 . S
C608 C65 1.697 . S
C610 C197 1.616 . S
C621 C113 1.355 . S
C619 C76 1.447 . S
C632 C149 1.408 . S
C630 C8 1.479 . S
