# Generated by pormake.
# Topology wbl, (4,4)-cn, num edge types: 1
# Building blocks:
#     Node 0, Type 0, BuildingBlock: NAWXER_clean_linker_0, # of connection points: 4
#     Node 1, Type 0, BuildingBlock: NAWXER_clean_linker_0, # of connection points: 4
#     Node 2, Type 0, BuildingBlock: NAWXER_clean_linker_0, # of connection points: 4
#     Node 3, Type 0, BuildingBlock: NAWXER_clean_linker_0, # of connection points: 4
#     Node 4, Type 0, BuildingBlock: NAWXER_clean_linker_0, # of connection points: 4
#     Node 5, Type 0, BuildingBlock: NAWXER_clean_linker_0, # of connection points: 4
#     Node 6, Type 0, BuildingBlock: NAWXER_clean_linker_0, # of connection points: 4
#     Node 7, Type 0, BuildingBlock: NAWXER_clean_linker_0, # of connection points: 4
#     Node 8, Type 1, BuildingBlock: GALJAG_clean_sbu_0, # of connection points: 4
#     Node 9, Type 1, BuildingBlock: GALJAG_clean_sbu_0, # of connection points: 4
#     Node 10, Type 1, BuildingBlock: GALJAG_clean_sbu_0, # of connection points: 4
#     Node 11, Type 1, BuildingBlock: GALJAG_clean_sbu_0, # of connection points: 4
#     Node 12, Type 1, BuildingBlock: GALJAG_clean_sbu_0, # of connection points: 4
#     Node 13, Type 1, BuildingBlock: GALJAG_clean_sbu_0, # of connection points: 4
#     Node 14, Type 1, BuildingBlock: GALJAG_clean_sbu_0, # of connection points: 4
#     Node 15, Type 1, BuildingBlock: GALJAG_clean_sbu_0, # of connection points: 4
#     Edge 16, Type (0, 1), None
#     Edge 17, Type (0, 1), None
#     Edge 18, Type (0, 1), None
#     Edge 19, Type (0, 1), None
#     Edge 20, Type (0, 1), None
#     Edge 21, Type (0, 1), None
#     Edge 22, Type (0, 1), None
#     Edge 23, Type (0, 1), None
#     Edge 24, Type (0, 1), None
#     Edge 25, Type (0, 1), None
#     Edge 26, Type (0, 1), None
#     Edge 27, Type (0, 1), None
#     Edge 28, Type (0, 1), None
#     Edge 29, Type (0, 1), None
#     Edge 30, Type (0, 1), None
#     Edge 31, Type (0, 1), None
#     Edge 32, Type (0, 1), None
#     Edge 33, Type (0, 1), None
#     Edge 34, Type (0, 1), None
#     Edge 35, Type (0, 1), None
#     Edge 36, Type (0, 1), None
#     Edge 37, Type (0, 1), None
#     Edge 38, Type (0, 1), None
#     Edge 39, Type (0, 1), None
#     Edge 40, Type (0, 1), None
#     Edge 41, Type (0, 1), None
#     Edge 42, Type (0, 1), None
#     Edge 43, Type (0, 1), None
#     Edge 44, Type (0, 1), None
#     Edge 45, Type (0, 1), None
#     Edge 46, Type (0, 1), None
#     Edge 47, Type (0, 1), None
# Relax obj value: 0.140
# Max RMSD: 0.149
# Mean RMSD: 0.132
data_MOF--net-wbl--node1-GALJAG_clean_sbu_0--node2-NAWXER_clean_linker_0--edge1-none
_symmetry_space_group_name_H-M    P1
_symmetry_Int_Tables_number       1
_symmetry_cell_setting            triclinic
loop_
_symmetry_equiv_pos_as_xyz
'x, y, z'
_cell_length_a     23.6835
_cell_length_b     23.742948
_cell_length_c     45.185993
_cell_angle_alpha  89.932853
_cell_angle_beta   89.954573
_cell_angle_gamma 89.909685
loop_
_atom_site_label
_atom_site_type_symbol
_atom_site_fract_x
_atom_site_fract_y
_atom_site_fract_z
_atom_type_partial_charge
C0 C 0.08376 0.85393 0.42393 0.0
C1 C 0.11223 0.88218 0.44683 0.0
C2 C 0.05983 0.8843 0.40047 0.0
C3 C 0.06513 0.94317 0.39936 0.0
C4 C 0.11821 0.94084 0.44534 0.0
C5 C 0.09495 0.97095 0.42187 0.0
C6 C 0.03341 0.9776 0.37774 0.0
C7 C 0.15677 0.87753 0.32548 0.0
C8 C 0.13694 0.8497 0.3002 0.0
C9 C 0.12292 0.91647 0.34021 0.0
C10 C 0.06696 0.9263 0.33115 0.0
C11 C 0.08209 0.8609 0.29007 0.0
C12 C 0.04703 0.8983 0.30572 0.0
C13 C 0.03083 0.96836 0.34681 0.0
C14 C 0.87754 0.16484 0.31003 0.0
C15 C 0.84218 0.13549 0.29046 0.0
C16 C 0.91941 0.13615 0.32596 0.0
C17 C 0.92576 0.07742 0.32308 0.0
C18 C 0.85195 0.07774 0.28575 0.0
C19 C 0.89328 0.04907 0.30187 0.0
C20 C 0.96415 0.04453 0.34256 0.0
C21 C 0.84566 0.11985 0.41375 0.0
C22 C 0.87462 0.14492 0.43746 0.0
C23 C 0.87588 0.09416 0.39071 0.0
C24 C 0.93523 0.09493 0.39081 0.0
C25 C 0.93355 0.14899 0.43641 0.0
C26 C 0.96349 0.12477 0.41315 0.0
C27 C 0.96842 0.054 0.37335 0.0
H28 H 0.0787 0.80861 0.42454 0.0
H29 H 0.03577 0.86208 0.3838 0.0
H30 H 0.14046 0.96367 0.46248 0.0
H31 H 0.09918 0.0164 0.42163 0.0
H32 H 0.19992 0.87162 0.33289 0.0
H33 H 0.14163 0.94002 0.35816 0.0
H34 H 0.06664 0.84119 0.27006 0.0
H35 H 0.00462 0.90594 0.29769 0.0
H36 H 0.87141 0.20943 0.31393 0.0
H37 H 0.94557 0.15967 0.34119 0.0
H38 H 0.82569 0.05389 0.27068 0.0
H39 H 0.89786 0.00404 0.29878 0.0
H40 H 0.80007 0.11621 0.41421 0.0
H41 H 0.85308 0.07019 0.37422 0.0
H42 H 0.95669 0.16867 0.45429 0.0
H43 H 0.00923 0.12559 0.41383 0.0
N44 N 0.00261 0.02008 0.38932 0.0
N45 N 0.99564 0.00196 0.33052 0.0
C46 C 0.84967 0.41062 0.67687 0.0
C47 C 0.87383 0.36182 0.68906 0.0
C48 C 0.87653 0.43863 0.65356 0.0
C49 C 0.9263 0.41673 0.64119 0.0
C50 C 0.923 0.33933 0.67628 0.0
C51 C 0.94883 0.36643 0.6524 0.0
C52 C 0.96207 0.45281 0.62253 0.0
C53 C 0.91348 0.35132 0.53322 0.0
C54 C 0.8569 0.34113 0.54096 0.0
C55 C 0.94588 0.38959 0.54923 0.0
C56 C 0.92254 0.41879 0.57328 0.0
C57 C 0.83223 0.3732 0.56365 0.0
C58 C 0.86467 0.41225 0.57946 0.0
C59 C 0.96002 0.45502 0.59138 0.0
C60 C 0.16475 0.60469 0.56395 0.0
C61 C 0.13934 0.63529 0.5409 0.0
C62 C 0.13382 0.56384 0.57948 0.0
C63 C 0.07625 0.55503 0.57307 0.0
C64 C 0.08388 0.62181 0.53251 0.0
C65 C 0.05266 0.58259 0.54852 0.0
C66 C 0.03901 0.51842 0.59136 0.0
C67 C 0.11954 0.63075 0.66327 0.0
C68 C 0.14301 0.59946 0.68667 0.0
C69 C 0.08817 0.60361 0.6412 0.0
C70 C 0.08175 0.54477 0.64184 0.0
C71 C 0.13808 0.5407 0.68666 0.0
C72 C 0.10812 0.51363 0.66436 0.0
C73 C 0.04091 0.51536 0.62263 0.0
H74 H 0.81208 0.42903 0.68656 0.0
H75 H 0.85987 0.47869 0.64604 0.0
H76 H 0.94236 0.30169 0.68532 0.0
H77 H 0.98826 0.34996 0.6438 0.0
H78 H 0.93378 0.32757 0.51572 0.0
H79 H 0.99006 0.3945 0.54354 0.0
H80 H 0.78855 0.36672 0.56989 0.0
H81 H 0.84448 0.43674 0.59658 0.0
H82 H 0.20771 0.61366 0.57064 0.0
H83 H 0.15455 0.54065 0.597 0.0
H84 H 0.06301 0.64428 0.51472 0.0
H85 H 0.00893 0.57589 0.54246 0.0
H86 H 0.12228 0.67629 0.6631 0.0
H87 H 0.06692 0.62869 0.62454 0.0
H88 H 0.15587 0.51576 0.70447 0.0
H89 H 0.10337 0.46828 0.66545 0.0
N90 N 0.00246 0.48261 0.63669 0.0
N91 N -0.00138 0.48781 0.57712 0.0
C92 C 0.61125 0.36949 0.9193 0.0
C93 C 0.63142 0.39621 0.94494 0.0
C94 C 0.58872 0.40148 0.89594 0.0
C95 C 0.58726 0.4607 0.89768 0.0
C96 C 0.63134 0.45525 0.94618 0.0
C97 C 0.60982 0.487 0.92284 0.0
C98 C 0.55505 0.49573 0.87625 0.0
C99 C 0.69249 0.42919 0.81809 0.0
C100 C 0.67524 0.38433 0.79996 0.0
C101 C 0.65296 0.46158 0.83327 0.0
C102 C 0.59521 0.45052 0.83028 0.0
C103 C 0.61739 0.37248 0.79726 0.0
C104 C 0.57745 0.40618 0.81194 0.0
C105 C 0.5543 0.48762 0.84535 0.0
C106 C 0.39553 0.67897 0.80687 0.0
C107 C 0.36566 0.64836 0.78544 0.0
C108 C 0.43822 0.65288 0.82344 0.0
C109 C 0.44964 0.595 0.81988 0.0
C110 C 0.38181 0.59251 0.77954 0.0
C111 C 0.42296 0.56605 0.79671 0.0
C112 C 0.48742 0.56302 0.8402 0.0
C113 C 0.36825 0.64619 0.9089 0.0
C114 C 0.39748 0.67482 0.93139 0.0
C115 C 0.39805 0.6155 0.88748 0.0
C116 C 0.45737 0.6146 0.88788 0.0
C117 C 0.45658 0.67662 0.9306 0.0
C118 C 0.48619 0.64707 0.90896 0.0
C119 C 0.48991 0.57209 0.87114 0.0
H120 H 0.61092 0.32397 0.91778 0.0
H121 H 0.5701 0.37974 0.87733 0.0
H122 H 0.64735 0.47715 0.96545 0.0
H123 H 0.60924 0.53248 0.92491 0.0
H124 H 0.73687 0.43895 0.82083 0.0
H125 H 0.66749 0.49598 0.84703 0.0
H126 H 0.60317 0.33808 0.78343 0.0
H127 H 0.53288 0.39738 0.80925 0.0
H128 H 0.38449 0.72233 0.81158 0.0
H129 H 0.46065 0.67764 0.8397 0.0
H130 H 0.35974 0.56772 0.76311 0.0
H131 H 0.43166 0.52185 0.79283 0.0
H132 H 0.32258 0.64364 0.90931 0.0
H133 H 0.37488 0.5897 0.87193 0.0
H134 H 0.48002 0.69835 0.94771 0.0
H135 H 0.53193 0.6466 0.90984 0.0
N136 N 0.52323 0.53788 0.88762 0.0
N137 N 0.52019 0.52111 0.82856 0.0
C138 C 0.36926 0.84249 0.07337 0.0
C139 C 0.34102 0.86009 0.04772 0.0
C140 C 0.40438 0.87921 0.08867 0.0
C141 C 0.40959 0.93586 0.07995 0.0
C142 C 0.34777 0.91578 0.03789 0.0
C143 C 0.38114 0.95368 0.05417 0.0
C144 C 0.4482 0.9746 0.09625 0.0
C145 C 0.33427 0.91043 0.1713 0.0
C146 C 0.36381 0.88036 0.19324 0.0
C147 C 0.36378 0.93885 0.1489 0.0
C148 C 0.42306 0.93684 0.14806 0.0
C149 C 0.42292 0.87759 0.19184 0.0
C150 C 0.45214 0.90556 0.16956 0.0
C151 C 0.4564 0.9715 0.12724 0.0
C152 C 0.60942 0.15244 0.16495 0.0
C153 C 0.63453 0.12055 0.1877 0.0
C154 C 0.57958 0.12554 0.14217 0.0
C155 C 0.57602 0.06646 0.14154 0.0
C156 C 0.63396 0.06171 0.18589 0.0
C157 C 0.60552 0.035 0.16291 0.0
C158 C 0.53255 0.03683 0.12392 0.0
C159 C 0.64589 0.12361 0.05986 0.0
C160 C 0.6175 0.16392 0.04255 0.0
C161 C 0.61553 0.08274 0.07553 0.0
C162 C 0.55622 0.08173 0.07436 0.0
C163 C 0.55844 0.16051 0.03995 0.0
C164 C 0.52815 0.11961 0.05558 0.0
C165 C 0.52292 0.04284 0.09321 0.0
H166 H 0.36708 0.79898 0.0806 0.0
H167 H 0.42895 0.86213 0.10673 0.0
H168 H 0.32785 0.92969 0.01759 0.0
H169 H 0.38552 0.99658 0.04634 0.0
H170 H 0.28863 0.91313 0.17188 0.0
H171 H 0.34054 0.96357 0.13283 0.0
H172 H 0.44687 0.85436 0.20824 0.0
H173 H 0.49786 0.9035 0.16941 0.0
H174 H 0.60919 0.19802 0.166 0.0
H175 H 0.55616 0.15087 0.12646 0.0
H176 H 0.65342 0.03624 0.203 0.0
H177 H 0.60327 0.9894 0.16299 0.0
H178 H 0.69138 0.12495 0.06221 0.0
H179 H 0.63836 0.05284 0.08915 0.0
H180 H 0.53532 0.19082 0.02672 0.0
H181 H 0.4825 0.11921 0.05401 0.0
N182 N 0.48118 0.01124 0.08052 0.0
N183 N 0.49844 0.00204 0.1394 0.0
C184 C 0.11246 0.62815 0.86109 0.0
C185 C 0.14225 0.60022 0.83854 0.0
C186 C 0.08779 0.59735 0.88422 0.0
C187 C 0.09359 0.53844 0.88534 0.0
C188 C 0.15019 0.54173 0.84057 0.0
C189 C 0.12613 0.51123 0.8637 0.0
C190 C 0.05751 0.50368 0.9048 0.0
C191 C 0.18641 0.55658 0.97382 0.0
C192 C 0.17392 0.61273 0.98129 0.0
C193 C 0.14681 0.52337 0.95923 0.0
C194 C 0.09366 0.54527 0.95218 0.0
C195 C 0.12008 0.63442 0.97473 0.0
C196 C 0.07985 0.60053 0.96056 0.0
C197 C 0.05383 0.50969 0.93566 0.0
C198 C 0.89125 0.31801 0.96802 0.0
C199 C 0.86269 0.347 0.99061 0.0
C200 C 0.93384 0.34487 0.95169 0.0
C201 C 0.94643 0.40209 0.95669 0.0
C202 C 0.87945 0.40213 0.99754 0.0
C203 C 0.92039 0.42943 0.98065 0.0
C204 C 0.98586 0.43495 0.93764 0.0
C205 C 0.8698 0.35848 0.86585 0.0
C206 C 0.89944 0.33309 0.8424 0.0
C207 C 0.89909 0.38709 0.88819 0.0
C208 C 0.9584 0.38873 0.88787 0.0
C209 C 0.95852 0.33291 0.84275 0.0
C210 C 0.98767 0.35993 0.86541 0.0
C211 C 0.99051 0.42864 0.9065 0.0
H212 H 0.10562 0.67322 0.85999 0.0
H213 H 0.06119 0.61915 0.89996 0.0
H214 H 0.17346 0.51909 0.82368 0.0
H215 H 0.13072 0.46581 0.8639 0.0
H216 H 0.22755 0.53861 0.97843 0.0
H217 H 0.15796 0.48068 0.95307 0.0
H218 H 0.10936 0.67751 0.98024 0.0
H219 H 0.03862 0.6178 0.95547 0.0
H220 H 0.87961 0.27522 0.96244 0.0
H221 H 0.95561 0.32119 0.93471 0.0
H222 H 0.85833 0.42573 0.01483 0.0
H223 H 0.92982 0.47305 0.98562 0.0
H224 H 0.82407 0.35977 0.86575 0.0
H225 H 0.87541 0.41043 0.90463 0.0
H226 H 0.9822 0.31365 0.82488 0.0
H227 H 0.03339 0.36109 0.86447 0.0
N228 N 0.0261 0.46331 0.89166 0.0
N229 N 0.01838 0.47513 0.95092 0.0
C230 C 0.35877 0.60393 0.10314 0.0
C231 C 0.38914 0.63281 0.08109 0.0
C232 C 0.38721 0.57839 0.12683 0.0
C233 C 0.44626 0.58244 0.12903 0.0
C234 C 0.44797 0.63735 0.08364 0.0
C235 C 0.47614 0.61249 0.10732 0.0
C236 C 0.47875 0.55004 0.15125 0.0
C237 C 0.37513 0.67334 0.20183 0.0
C238 C 0.34481 0.65316 0.22628 0.0
C239 C 0.41516 0.63956 0.18781 0.0
C240 C 0.42371 0.58342 0.19677 0.0
C241 C 0.35468 0.59813 0.23635 0.0
C242 C 0.39326 0.56322 0.22142 0.0
C243 C 0.46694 0.54733 0.18195 0.0
C244 C 0.65952 0.3928 0.22305 0.0
C245 C 0.62804 0.35781 0.24193 0.0
C246 C 0.63264 0.43503 0.20654 0.0
C247 C 0.57364 0.44197 0.20807 0.0
C248 C 0.56995 0.36835 0.24542 0.0
C249 C 0.54309 0.40992 0.22867 0.0
C250 C 0.54268 0.48058 0.18785 0.0
C251 C 0.62676 0.36357 0.11865 0.0
C252 C 0.6558 0.39305 0.09634 0.0
C253 C 0.59732 0.39313 0.14068 0.0
C254 C 0.59796 0.45233 0.14098 0.0
C255 C 0.65963 0.45184 0.098 0.0
C256 C 0.63132 0.48112 0.1202 0.0
C257 C 0.55487 0.48502 0.15732 0.0
H258 H 0.31332 0.59982 0.10167 0.0
H259 H 0.36336 0.55423 0.14287 0.0
H260 H 0.47247 0.65971 0.06714 0.0
H261 H 0.52173 0.61583 0.10839 0.0
H262 H 0.37008 0.71656 0.19451 0.0
H263 H 0.44045 0.65836 0.1705 0.0
H264 H 0.33291 0.58238 0.25574 0.0
H265 H 0.39984 0.52066 0.22938 0.0
H266 H 0.70442 0.38609 0.22011 0.0
H267 H 0.65784 0.46096 0.19191 0.0
H268 H 0.54446 0.34238 0.25992 0.0
H269 H 0.49778 0.41498 0.23076 0.0
H270 H 0.62298 0.31814 0.11769 0.0
H271 H 0.57084 0.36997 0.15598 0.0
H272 H 0.68207 0.47547 0.08118 0.0
H273 H 0.63214 0.52676 0.11986 0.0
N274 N 0.52232 0.51932 0.14058 0.0
N275 N 0.49909 0.51201 0.19893 0.0
C276 C 0.3883 0.853 0.35627 0.0
C277 C 0.35826 0.88118 0.33385 0.0
C278 C 0.41352 0.88352 0.37927 0.0
C279 C 0.40831 0.94245 0.38023 0.0
C280 C 0.35217 0.93991 0.33537 0.0
C281 C 0.37704 0.97015 0.35824 0.0
C282 C 0.4407 0.97694 0.40143 0.0
C283 C 0.31443 0.88159 0.45406 0.0
C284 C 0.33355 0.85329 0.47939 0.0
C285 C 0.34923 0.91951 0.43924 0.0
C286 C 0.4054 0.92784 0.44831 0.0
C287 C 0.38854 0.86324 0.48962 0.0
C288 C 0.4245 0.89968 0.47393 0.0
C289 C 0.44262 0.96855 0.43241 0.0
C290 C 0.59917 0.16107 0.46984 0.0
C291 C 0.63257 0.13041 0.4899 0.0
C292 C 0.55742 0.13385 0.45319 0.0
C293 C 0.54932 0.07531 0.45587 0.0
C294 C 0.621 0.07295 0.4943 0.0
C295 C 0.5799 0.04578 0.47749 0.0
C296 C 0.51037 0.04359 0.43628 0.0
C297 C 0.62823 0.12328 0.36584 0.0
C298 C 0.59908 0.1491 0.34233 0.0
C299 C 0.59836 0.09515 0.38825 0.0
C300 C 0.539 0.09415 0.38783 0.0
C301 C 0.53998 0.15067 0.34289 0.0
C302 C 0.51033 0.12397 0.36553 0.0
C303 C 0.50634 0.05277 0.4054 0.0
H304 H 0.39351 0.80769 0.35563 0.0
H305 H 0.43847 0.86141 0.39567 0.0
H306 H 0.32887 0.9628 0.31859 0.0
H307 H 0.37277 0.01561 0.35844 0.0
H308 H 0.27128 0.87652 0.44651 0.0
H309 H 0.3312 0.94335 0.42116 0.0
H310 H 0.40354 0.84298 0.50961 0.0
H311 H 0.46705 0.90626 0.48197 0.0
H312 H 0.60682 0.20549 0.46613 0.0
H313 H 0.53265 0.15834 0.43769 0.0
H314 H 0.64571 0.04811 0.50971 0.0
H315 H 0.57392 0.00089 0.48048 0.0
H316 H 0.67393 0.12132 0.36576 0.0
H317 H 0.6216 0.0712 0.40463 0.0
H318 H 0.51657 0.17065 0.32514 0.0
H319 H 0.4646 0.12347 0.36453 0.0
N320 N 0.47193 0.01886 0.38957 0.0
N321 N 0.47813 0.00184 0.4485 0.0
C322 C 0.13421 0.90559 0.60841 0.0
C323 C 0.11119 0.86014 0.59268 0.0
C324 C 0.10337 0.931 0.63124 0.0
C325 C 0.05026 0.90984 0.63942 0.0
C326 C 0.05872 0.83815 0.60144 0.0
C327 C 0.02863 0.86269 0.62469 0.0
C328 C 0.01191 0.94401 0.65774 0.0
C329 C 0.05293 0.82542 0.7408 0.0
C330 C 0.11207 0.82521 0.73795 0.0
C331 C 0.02021 0.86466 0.72535 0.0
C332 C 0.04586 0.90418 0.70662 0.0
C333 C 0.13792 0.8669 0.7205 0.0
C334 C 0.10506 0.90627 0.7051 0.0
C335 C 0.01004 0.94248 0.68883 0.0
C336 C 0.81237 0.10376 0.71495 0.0
C337 C 0.83707 0.12767 0.74026 0.0
C338 C 0.84119 0.06211 0.6988 0.0
C339 C 0.89641 0.04592 0.70686 0.0
C340 C 0.88919 0.10656 0.75011 0.0
C341 C 0.91862 0.06679 0.73351 0.0
C342 C 0.93302 0.00854 0.68841 0.0
C343 C 0.86616 0.12915 0.61504 0.0
C344 C 0.84354 0.09991 0.59071 0.0
C345 C 0.89347 0.09973 0.63787 0.0
C346 C 0.89659 0.04064 0.63712 0.0
C347 C 0.84535 0.04095 0.59049 0.0
C348 C 0.87122 0.01167 0.61354 0.0
C349 C 0.9344 0.00852 0.65698 0.0
H350 H 0.17434 0.92359 0.60189 0.0
H351 H 0.11965 0.9689 0.64143 0.0
H352 H 0.04012 0.80299 0.58971 0.0
H353 H 0.987 0.8468 0.6301 0.0
H354 H 0.03169 0.79394 0.75411 0.0
H355 H 0.97463 0.86282 0.72722 0.0
H356 H 0.1834 0.86808 0.71803 0.0
H357 H 0.12595 0.93799 0.69188 0.0
H358 H 0.77183 0.11864 0.70705 0.0
H359 H 0.8207 0.04407 0.67967 0.0
H360 H 0.90946 0.12371 0.7696 0.0
H361 H 0.96033 0.05451 0.74096 0.0
H362 H 0.86566 0.17477 0.61553 0.0
H363 H 0.91418 0.12312 0.65532 0.0
H364 H 0.82809 0.01745 0.57206 0.0
H365 H 0.87373 0.96615 0.61225 0.0
N366 N 0.97373 0.97618 0.64322 0.0
N367 N 0.97072 0.97471 0.70288 0.0
In368 In 0.31031 0.70936 0.00896 0.0
O369 O 0.2858 0.77765 0.04193 0.0
O370 O 0.33368 0.80303 1.00484 0.0
C371 C 0.219 0.64831 0.99396 0.0
C372 C 0.36044 0.65802 0.05529 0.0
C373 C 0.3677 0.69403 0.95816 0.0
O374 O 0.21708 0.70166 0.99477 0.0
O375 O 0.26535 0.62714 1.002 0.0
O376 O 0.3904 0.69074 0.98336 0.0
O377 O 0.31614 0.70761 0.95833 0.0
C378 C 0.31359 0.81638 0.02966 0.0
O379 O 0.38743 0.67675 0.03331 0.0
O380 O 0.30753 0.66357 0.05362 0.0
In381 In 0.28391 0.79782 0.2629 0.0
O382 O 0.27603 0.72588 0.2298 0.0
O383 O 0.3263 0.71149 0.26781 0.0
C384 C 0.17798 0.81703 0.28275 0.0
C385 C 0.33428 0.85242 0.21795 0.0
C386 C 0.33364 0.85058 0.30859 0.0
O387 O 0.21176 0.78369 0.29538 0.0
O388 O 0.19515 0.8353 0.25815 0.0
O389 O 0.31105 0.87623 0.28717 0.0
O390 O 0.33291 0.79747 0.30666 0.0
C391 C 0.31016 0.69367 0.24297 0.0
O392 O 0.361 0.83086 0.23931 0.0
O393 O 0.28118 0.84785 0.21948 0.0
In394 In 0.18777 0.79572 0.51663 0.0
O395 O 0.1117 0.81494 0.54544 0.0
O396 O 0.19178 0.84152 0.5614 0.0
C397 C 0.13622 0.85111 0.47214 0.0
C398 C 0.16547 0.68677 0.52861 0.0
C399 C 0.29225 0.81984 0.49624 0.0
O400 O 0.15511 0.87569 0.49482 0.0
O401 O 0.14129 0.79825 0.47241 0.0
O402 O 0.25862 0.78741 0.48302 0.0
O403 O 0.27577 0.83526 0.52153 0.0
C404 C 0.13924 0.83804 0.56594 0.0
O405 O 0.2061 0.7121 0.5409 0.0
O406 O 0.14085 0.71479 0.50879 0.0
In407 In 0.20034 0.68103 0.7623 0.0
O408 O 0.17588 0.60411 0.78874 0.0
O409 O 0.16611 0.68329 0.81006 0.0
C410 C 0.16656 0.62762 0.71284 0.0
C411 C 0.3121 0.66978 0.77297 0.0
C412 C 0.1454 0.77791 0.75028 0.0
O413 O 0.1604 0.60742 0.73844 0.0
O414 O 0.191 0.67475 0.71183 0.0
O415 O 0.19797 0.77247 0.74606 0.0
O416 O 0.12196 0.73601 0.7623 0.0
C417 C 0.16222 0.6303 0.8119 0.0
O418 O 0.28244 0.70639 0.78597 0.0
O419 O 0.28665 0.64366 0.75279 0.0
In420 In 0.79079 0.18734 0.51541 0.0
O421 O 0.77995 0.27462 0.53697 0.0
O422 O 0.85357 0.25811 0.51151 0.0
C423 C 0.68423 0.15496 0.50298 0.0
C424 C 0.82248 0.13029 0.56446 0.0
C425 C 0.8448 0.16134 0.46468 0.0
O426 O 0.70137 0.20431 0.49739 0.0
O427 O 0.71928 0.12458 0.51661 0.0
O428 O 0.86706 0.15575 0.48989 0.0
O429 O 0.79493 0.18 0.46484 0.0
C430 C 0.82774 0.29178 0.52824 0.0
O431 O 0.8256 0.10969 0.53875 0.0
O432 O 0.80246 0.17947 0.56563 0.0
In433 In 0.80931 0.29144 0.7667 0.0
O434 O 0.88111 0.31192 0.73495 0.0
O435 O 0.79892 0.33995 0.72314 0.0
C436 C 0.86931 0.31341 0.8159 0.0
C437 C 0.81536 0.18052 0.75347 0.0
C438 C 0.71898 0.3509 0.7847 0.0
O439 O 0.88874 0.32106 0.79015 0.0
O440 O 0.82028 0.29278 0.81694 0.0
O441 O 0.71512 0.29847 0.77969 0.0
O442 O 0.76639 0.37228 0.7789 0.0
C443 C 0.85045 0.33677 0.71625 0.0
O444 O 0.78202 0.21321 0.73998 0.0
O445 O 0.83962 0.20255 0.77534 0.0
In446 In 0.69966 0.31164 0.01782 0.0
O447 O 0.70076 0.21987 0.03346 0.0
O448 O 0.62253 0.25466 0.01916 0.0
C449 C 0.81021 0.32467 1.00387 0.0
C450 C 0.67513 0.36427 0.06928 0.0
C451 C 0.65226 0.36393 0.97072 0.0
O452 O 0.77938 0.28922 0.9909 0.0
O453 O 0.78681 0.34873 0.02541 0.0
O454 O 0.65846 0.38668 0.99567 0.0
O455 O 0.66744 0.31296 0.96956 0.0
C456 C 0.64816 0.21295 0.0302 0.0
O457 O 0.67476 0.38867 0.04448 0.0
O458 O 0.68874 0.31291 0.06847 0.0
In459 In 0.68524 0.19886 0.26596 0.0
O460 O 0.60767 0.16623 0.29028 0.0
O461 O 0.67909 0.18755 0.31638 0.0
C462 C 0.65543 0.14764 0.2149 0.0
C463 C 0.79078 0.16215 0.27808 0.0
C464 C 0.6528 0.30579 0.25456 0.0
O465 O 0.65148 0.12419 0.2399 0.0
O466 O 0.67526 0.19686 0.21541 0.0
O467 O 0.70187 0.28829 0.24824 0.0
O468 O 0.62273 0.27082 0.26839 0.0
C469 C 0.62923 0.16908 0.31577 0.0
O470 O 0.77473 0.21143 0.28473 0.0
O471 O 0.75511 0.13387 0.26376 0.0
loop_
_geom_bond_atom_site_label_1
_geom_bond_atom_site_label_2
_geom_bond_distance
_geom_bond_site_symmetry_2
_ccdc_geom_bond_type
C0 C1 1.384 . S
C0 C2 1.384 . S
C0 H28 0.931 . S
C1 C0 1.384 . S
C1 C4 1.382 . S
C2 C0 1.384 . S
C2 C3 1.381 . S
C2 H29 0.930 . S
C3 C2 1.381 . S
C3 C5 1.381 . S
C3 C6 1.487 . S
C4 C1 1.382 . S
C4 C5 1.387 . S
C4 H30 0.930 . S
C5 C3 1.381 . S
C5 C4 1.387 . S
C5 H31 0.931 1_565 S
C6 C3 1.487 . S
C6 C13 1.399 . S
C6 N44 1.343 1_565 S
C7 C8 1.384 . S
C7 C9 1.384 . S
C7 H32 0.931 . S
C8 C7 1.384 . S
C8 C11 1.382 . S
C9 C7 1.384 . S
C9 C10 1.381 . S
C9 H33 0.930 . S
C10 C9 1.381 . S
C10 C12 1.381 . S
C10 C13 1.487 . S
C11 C8 1.382 . S
C11 C12 1.387 . S
C11 H34 0.930 . S
C12 C10 1.381 . S
C12 C11 1.387 . S
C12 H35 0.931 . S
C13 C6 1.399 . S
C13 C10 1.487 . S
C13 N45 1.343 1_455 S
C14 C15 1.384 . S
C14 C16 1.384 . S
C14 H36 0.931 . S
C15 C14 1.384 . S
C15 C18 1.382 . S
C16 C14 1.384 . S
C16 C17 1.381 . S
C16 H37 0.930 . S
C17 C16 1.381 . S
C17 C19 1.381 . S
C17 C20 1.487 . S
C18 C15 1.382 . S
C18 C19 1.387 . S
C18 H38 0.930 . S
C19 C17 1.381 . S
C19 C18 1.387 . S
C19 H39 0.931 1_545 S
C20 C17 1.487 . S
C20 C27 1.399 . S
C20 N45 1.343 1_545 S
C21 C22 1.384 . S
C21 C23 1.384 . S
C21 H40 0.931 . S
C22 C21 1.384 . S
C22 C25 1.382 . S
C23 C21 1.384 . S
C23 C24 1.381 . S
C23 H41 0.930 . S
C24 C23 1.381 . S
C24 C26 1.381 . S
C24 C27 1.487 . S
C25 C22 1.382 . S
C25 C26 1.387 . S
C25 H42 0.930 . S
C26 C24 1.381 . S
C26 C25 1.387 . S
C26 H43 0.931 . S
C27 C20 1.399 . S
C27 C24 1.487 . S
C27 N44 1.343 1_655 S
H28 C0 0.931 . S
H29 C2 0.930 . S
H30 C4 0.930 . S
H31 C5 0.931 1_545 S
H32 C7 0.931 . S
H33 C9 0.930 . S
H34 C11 0.930 . S
H35 C12 0.931 . S
H36 C14 0.931 . S
H37 C16 0.930 . S
H38 C18 0.930 . S
H39 C19 0.931 1_565 S
H40 C21 0.931 . S
H41 C23 0.930 . S
H42 C25 0.930 . S
H43 C26 0.931 . S
N44 C6 1.343 1_545 S
N44 C27 1.343 1_455 S
N45 C13 1.343 1_655 S
N45 C20 1.343 1_565 S
C46 C47 1.384 . S
C46 C48 1.384 . S
C46 H74 0.931 . S
C47 C46 1.384 . S
C47 C50 1.382 . S
C48 C46 1.384 . S
C48 C49 1.381 . S
C48 H75 0.930 . S
C49 C48 1.381 . S
C49 C51 1.381 . S
C49 C52 1.487 . S
C50 C47 1.382 . S
C50 C51 1.387 . S
C50 H76 0.930 . S
C51 C49 1.381 . S
C51 C50 1.387 . S
C51 H77 0.931 1_655 S
C52 C49 1.487 . S
C52 C59 1.399 . S
C52 N90 1.343 1_655 S
C53 C54 1.384 . S
C53 C55 1.384 . S
C53 H78 0.931 . S
C54 C53 1.384 . S
C54 C57 1.382 . S
C55 C53 1.384 . S
C55 C56 1.381 . S
C55 H79 0.930 . S
C56 C55 1.381 . S
C56 C58 1.381 . S
C56 C59 1.487 . S
C57 C54 1.382 . S
C57 C58 1.387 . S
C57 H80 0.930 . S
C58 C56 1.381 . S
C58 C57 1.387 . S
C58 H81 0.931 . S
C59 C52 1.399 . S
C59 C56 1.487 . S
C59 N91 1.343 . S
C60 C61 1.384 . S
C60 C62 1.384 . S
C60 H82 0.931 . S
C61 C60 1.384 . S
C61 C64 1.382 . S
C62 C60 1.384 . S
C62 C63 1.381 . S
C62 H83 0.930 . S
C63 C62 1.381 . S
C63 C65 1.381 . S
C63 C66 1.487 . S
C64 C61 1.382 . S
C64 C65 1.387 . S
C64 H84 0.930 . S
C65 C63 1.381 . S
C65 C64 1.387 . S
C65 H85 0.931 1_455 S
C66 C63 1.487 . S
C66 C73 1.399 . S
C66 N91 1.343 1_455 S
C67 C68 1.384 . S
C67 C69 1.384 . S
C67 H86 0.931 . S
C68 C67 1.384 . S
C68 C71 1.382 . S
C69 C67 1.384 . S
C69 C70 1.381 . S
C69 H87 0.930 . S
C70 C69 1.381 . S
C70 C72 1.381 . S
C70 C73 1.487 . S
C71 C68 1.382 . S
C71 C72 1.387 . S
C71 H88 0.930 . S
C72 C70 1.381 . S
C72 C71 1.387 . S
C72 H89 0.931 . S
C73 C66 1.399 . S
C73 C70 1.487 . S
C73 N90 1.343 . S
H74 C46 0.931 . S
H75 C48 0.930 . S
H76 C50 0.930 . S
H77 C51 0.931 1_455 S
H78 C53 0.931 . S
H79 C55 0.930 . S
H80 C57 0.930 . S
H81 C58 0.931 . S
H82 C60 0.931 . S
H83 C62 0.930 . S
H84 C64 0.930 . S
H85 C65 0.931 1_655 S
H86 C67 0.931 . S
H87 C69 0.930 . S
H88 C71 0.930 . S
H89 C72 0.931 . S
N90 C52 1.343 1_455 S
N90 C73 1.343 . S
N91 C59 1.343 . S
N91 C66 1.343 1_655 S
C92 C93 1.384 . S
C92 C94 1.384 . S
C92 H120 0.931 . S
C93 C92 1.384 . S
C93 C96 1.382 . S
C94 C92 1.384 . S
C94 C95 1.381 . S
C94 H121 0.930 . S
C95 C94 1.381 . S
C95 C97 1.381 . S
C95 C98 1.487 . S
C96 C93 1.382 . S
C96 C97 1.387 . S
C96 H122 0.930 . S
C97 C95 1.381 . S
C97 C96 1.387 . S
C97 H123 0.931 . S
C98 C95 1.487 . S
C98 C105 1.399 . S
C98 N136 1.343 . S
C99 C100 1.384 . S
C99 C101 1.384 . S
C99 H124 0.931 . S
C100 C99 1.384 . S
C100 C103 1.382 . S
C101 C99 1.384 . S
C101 C102 1.381 . S
C101 H125 0.930 . S
C102 C101 1.381 . S
C102 C104 1.381 . S
C102 C105 1.487 . S
C103 C100 1.382 . S
C103 C104 1.387 . S
C103 H126 0.930 . S
C104 C102 1.381 . S
C104 C103 1.387 . S
C104 H127 0.931 . S
C105 C98 1.399 . S
C105 C102 1.487 . S
C105 N137 1.343 . S
C106 C107 1.384 . S
C106 C108 1.384 . S
C106 H128 0.931 . S
C107 C106 1.384 . S
C107 C110 1.382 . S
C108 C106 1.384 . S
C108 C109 1.381 . S
C108 H129 0.930 . S
C109 C108 1.381 . S
C109 C111 1.381 . S
C109 C112 1.487 . S
C110 C107 1.382 . S
C110 C111 1.387 . S
C110 H130 0.930 . S
C111 C109 1.381 . S
C111 C110 1.387 . S
C111 H131 0.931 . S
C112 C109 1.487 . S
C112 C119 1.399 . S
C112 N137 1.343 . S
C113 C114 1.384 . S
C113 C115 1.384 . S
C113 H132 0.931 . S
C114 C113 1.384 . S
C114 C117 1.382 . S
C115 C113 1.384 . S
C115 C116 1.381 . S
C115 H133 0.930 . S
C116 C115 1.381 . S
C116 C118 1.381 . S
C116 C119 1.487 . S
C117 C114 1.382 . S
C117 C118 1.387 . S
C117 H134 0.930 . S
C118 C116 1.381 . S
C118 C117 1.387 . S
C118 H135 0.931 . S
C119 C112 1.399 . S
C119 C116 1.487 . S
C119 N136 1.343 . S
H120 C92 0.931 . S
H121 C94 0.930 . S
H122 C96 0.930 . S
H123 C97 0.931 . S
H124 C99 0.931 . S
H125 C101 0.930 . S
H126 C103 0.930 . S
H127 C104 0.931 . S
H128 C106 0.931 . S
H129 C108 0.930 . S
H130 C110 0.930 . S
H131 C111 0.931 . S
H132 C113 0.931 . S
H133 C115 0.930 . S
H134 C117 0.930 . S
H135 C118 0.931 . S
N136 C98 1.343 . S
N136 C119 1.343 . S
N137 C105 1.343 . S
N137 C112 1.343 . S
C138 C139 1.384 . S
C138 C140 1.384 . S
C138 H166 0.931 . S
C139 C138 1.384 . S
C139 C142 1.382 . S
C140 C138 1.384 . S
C140 C141 1.381 . S
C140 H167 0.930 . S
C141 C140 1.381 . S
C141 C143 1.381 . S
C141 C144 1.487 . S
C142 C139 1.382 . S
C142 C143 1.387 . S
C142 H168 0.930 . S
C143 C141 1.381 . S
C143 C142 1.387 . S
C143 H169 0.931 . S
C144 C141 1.487 . S
C144 C151 1.399 . S
C144 N182 1.343 1_565 S
C145 C146 1.384 . S
C145 C147 1.384 . S
C145 H170 0.931 . S
C146 C145 1.384 . S
C146 C149 1.382 . S
C147 C145 1.384 . S
C147 C148 1.381 . S
C147 H171 0.930 . S
C148 C147 1.381 . S
C148 C150 1.381 . S
C148 C151 1.487 . S
C149 C146 1.382 . S
C149 C150 1.387 . S
C149 H172 0.930 . S
C150 C148 1.381 . S
C150 C149 1.387 . S
C150 H173 0.931 . S
C151 C144 1.399 . S
C151 C148 1.487 . S
C151 N183 1.343 . S
C152 C153 1.384 . S
C152 C154 1.384 . S
C152 H174 0.931 . S
C153 C152 1.384 . S
C153 C156 1.382 . S
C154 C152 1.384 . S
C154 C155 1.381 . S
C154 H175 0.930 . S
C155 C154 1.381 . S
C155 C157 1.381 . S
C155 C158 1.487 . S
C156 C153 1.382 . S
C156 C157 1.387 . S
C156 H176 0.930 . S
C157 C155 1.381 . S
C157 C156 1.387 . S
C157 H177 0.931 . S
C158 C155 1.487 . S
C158 C165 1.399 . S
C158 N183 1.343 1_545 S
C159 C160 1.384 . S
C159 C161 1.384 . S
C159 H178 0.931 . S
C160 C159 1.384 . S
C160 C163 1.382 . S
C161 C159 1.384 . S
C161 C162 1.381 . S
C161 H179 0.930 . S
C162 C161 1.381 . S
C162 C164 1.381 . S
C162 C165 1.487 . S
C163 C160 1.382 . S
C163 C164 1.387 . S
C163 H180 0.930 . S
C164 C162 1.381 . S
C164 C163 1.387 . S
C164 H181 0.931 . S
C165 C158 1.399 . S
C165 C162 1.487 . S
C165 N182 1.343 . S
H166 C138 0.931 . S
H167 C140 0.930 . S
H168 C142 0.930 . S
H169 C143 0.931 . S
H170 C145 0.931 . S
H171 C147 0.930 . S
H172 C149 0.930 . S
H173 C150 0.931 . S
H174 C152 0.931 . S
H175 C154 0.930 . S
H176 C156 0.930 . S
H177 C157 0.931 . S
H178 C159 0.931 . S
H179 C161 0.930 . S
H180 C163 0.930 . S
H181 C164 0.931 . S
N182 C144 1.343 1_545 S
N182 C165 1.343 . S
N183 C151 1.343 . S
N183 C158 1.343 1_565 S
C184 C185 1.384 . S
C184 C186 1.384 . S
C184 H212 0.931 . S
C185 C184 1.384 . S
C185 C188 1.382 . S
C186 C184 1.384 . S
C186 C187 1.381 . S
C186 H213 0.930 . S
C187 C186 1.381 . S
C187 C189 1.381 . S
C187 C190 1.487 . S
C188 C185 1.382 . S
C188 C189 1.387 . S
C188 H214 0.930 . S
C189 C187 1.381 . S
C189 C188 1.387 . S
C189 H215 0.931 . S
C190 C187 1.487 . S
C190 C197 1.399 . S
C190 N228 1.343 . S
C191 C192 1.384 . S
C191 C193 1.384 . S
C191 H216 0.931 . S
C192 C191 1.384 . S
C192 C195 1.382 . S
C193 C191 1.384 . S
C193 C194 1.381 . S
C193 H217 0.930 . S
C194 C193 1.381 . S
C194 C196 1.381 . S
C194 C197 1.487 . S
C195 C192 1.382 . S
C195 C196 1.387 . S
C195 H218 0.930 1_556 S
C196 C194 1.381 . S
C196 C195 1.387 . S
C196 H219 0.931 . S
C197 C190 1.399 . S
C197 C194 1.487 . S
C197 N229 1.343 1_455 S
C198 C199 1.384 . S
C198 C200 1.384 . S
C198 H220 0.931 . S
C199 C198 1.384 . S
C199 C202 1.382 . S
C200 C198 1.384 . S
C200 C201 1.381 . S
C200 H221 0.930 . S
C201 C200 1.381 . S
C201 C203 1.381 . S
C201 C204 1.487 . S
C202 C199 1.382 . S
C202 C203 1.387 . S
C202 H222 0.930 1_556 S
C203 C201 1.381 . S
C203 C202 1.387 . S
C203 H223 0.931 . S
C204 C201 1.487 . S
C204 C211 1.399 . S
C204 N229 1.343 . S
C205 C206 1.384 . S
C205 C207 1.384 . S
C205 H224 0.931 . S
C206 C205 1.384 . S
C206 C209 1.382 . S
C207 C205 1.384 . S
C207 C208 1.381 . S
C207 H225 0.930 . S
C208 C207 1.381 . S
C208 C210 1.381 . S
C208 C211 1.487 . S
C209 C206 1.382 . S
C209 C210 1.387 . S
C209 H226 0.930 . S
C210 C208 1.381 . S
C210 C209 1.387 . S
C210 H227 0.931 . S
C211 C204 1.399 . S
C211 C208 1.487 . S
C211 N228 1.343 1_655 S
H212 C184 0.931 . S
H213 C186 0.930 . S
H214 C188 0.930 . S
H215 C189 0.931 . S
H216 C191 0.931 . S
H217 C193 0.930 . S
H218 C195 0.930 1_554 S
H219 C196 0.931 . S
H220 C198 0.931 . S
H221 C200 0.930 . S
H222 C202 0.930 1_554 S
H223 C203 0.931 . S
H224 C205 0.931 . S
H225 C207 0.930 . S
H226 C209 0.930 . S
H227 C210 0.931 . S
N228 C190 1.343 . S
N228 C211 1.343 1_455 S
N229 C197 1.343 1_655 S
N229 C204 1.343 . S
C230 C231 1.384 . S
C230 C232 1.384 . S
C230 H258 0.931 . S
C231 C230 1.384 . S
C231 C234 1.382 . S
C232 C230 1.384 . S
C232 C233 1.381 . S
C232 H259 0.930 . S
C233 C232 1.381 . S
C233 C235 1.381 . S
C233 C236 1.487 . S
C234 C231 1.382 . S
C234 C235 1.387 . S
C234 H260 0.930 . S
C235 C233 1.381 . S
C235 C234 1.387 . S
C235 H261 0.931 . S
C236 C233 1.487 . S
C236 C243 1.399 . S
C236 N274 1.343 . S
C237 C238 1.384 . S
C237 C239 1.384 . S
C237 H262 0.931 . S
C238 C237 1.384 . S
C238 C241 1.382 . S
C239 C237 1.384 . S
C239 C240 1.381 . S
C239 H263 0.930 . S
C240 C239 1.381 . S
C240 C242 1.381 . S
C240 C243 1.487 . S
C241 C238 1.382 . S
C241 C242 1.387 . S
C241 H264 0.930 . S
C242 C240 1.381 . S
C242 C241 1.387 . S
C242 H265 0.931 . S
C243 C236 1.399 . S
C243 C240 1.487 . S
C243 N275 1.343 . S
C244 C245 1.384 . S
C244 C246 1.384 . S
C244 H266 0.931 . S
C245 C244 1.384 . S
C245 C248 1.382 . S
C246 C244 1.384 . S
C246 C247 1.381 . S
C246 H267 0.930 . S
C247 C246 1.381 . S
C247 C249 1.381 . S
C247 C250 1.487 . S
C248 C245 1.382 . S
C248 C249 1.387 . S
C248 H268 0.930 . S
C249 C247 1.381 . S
C249 C248 1.387 . S
C249 H269 0.931 . S
C250 C247 1.487 . S
C250 C257 1.399 . S
C250 N275 1.343 . S
C251 C252 1.384 . S
C251 C253 1.384 . S
C251 H270 0.931 . S
C252 C251 1.384 . S
C252 C255 1.382 . S
C253 C251 1.384 . S
C253 C254 1.381 . S
C253 H271 0.930 . S
C254 C253 1.381 . S
C254 C256 1.381 . S
C254 C257 1.487 . S
C255 C252 1.382 . S
C255 C256 1.387 . S
C255 H272 0.930 . S
C256 C254 1.381 . S
C256 C255 1.387 . S
C256 H273 0.931 . S
C257 C250 1.399 . S
C257 C254 1.487 . S
C257 N274 1.343 . S
H258 C230 0.931 . S
H259 C232 0.930 . S
H260 C234 0.930 . S
H261 C235 0.931 . S
H262 C237 0.931 . S
H263 C239 0.930 . S
H264 C241 0.930 . S
H265 C242 0.931 . S
H266 C244 0.931 . S
H267 C246 0.930 . S
H268 C248 0.930 . S
H269 C249 0.931 . S
H270 C251 0.931 . S
H271 C253 0.930 . S
H272 C255 0.930 . S
H273 C256 0.931 . S
N274 C236 1.343 . S
N274 C257 1.343 . S
N275 C243 1.343 . S
N275 C250 1.343 . S
C276 C277 1.384 . S
C276 C278 1.384 . S
C276 H304 0.931 . S
C277 C276 1.384 . S
C277 C280 1.382 . S
C278 C276 1.384 . S
C278 C279 1.381 . S
C278 H305 0.930 . S
C279 C278 1.381 . S
C279 C281 1.381 . S
C279 C282 1.487 . S
C280 C277 1.382 . S
C280 C281 1.387 . S
C280 H306 0.930 . S
C281 C279 1.381 . S
C281 C280 1.387 . S
C281 H307 0.931 1_565 S
C282 C279 1.487 . S
C282 C289 1.399 . S
C282 N320 1.343 1_565 S
C283 C284 1.384 . S
C283 C285 1.384 . S
C283 H308 0.931 . S
C284 C283 1.384 . S
C284 C287 1.382 . S
C285 C283 1.384 . S
C285 C286 1.381 . S
C285 H309 0.930 . S
C286 C285 1.381 . S
C286 C288 1.381 . S
C286 C289 1.487 . S
C287 C284 1.382 . S
C287 C288 1.387 . S
C287 H310 0.930 . S
C288 C286 1.381 . S
C288 C287 1.387 . S
C288 H311 0.931 . S
C289 C282 1.399 . S
C289 C286 1.487 . S
C289 N321 1.343 . S
C290 C291 1.384 . S
C290 C292 1.384 . S
C290 H312 0.931 . S
C291 C290 1.384 . S
C291 C294 1.382 . S
C292 C290 1.384 . S
C292 C293 1.381 . S
C292 H313 0.930 . S
C293 C292 1.381 . S
C293 C295 1.381 . S
C293 C296 1.487 . S
C294 C291 1.382 . S
C294 C295 1.387 . S
C294 H314 0.930 . S
C295 C293 1.381 . S
C295 C294 1.387 . S
C295 H315 0.931 1_545 S
C296 C293 1.487 . S
C296 C303 1.399 . S
C296 N321 1.343 1_545 S
C297 C298 1.384 . S
C297 C299 1.384 . S
C297 H316 0.931 . S
C298 C297 1.384 . S
C298 C301 1.382 . S
C299 C297 1.384 . S
C299 C300 1.381 . S
C299 H317 0.930 . S
C300 C299 1.381 . S
C300 C302 1.381 . S
C300 C303 1.487 . S
C301 C298 1.382 . S
C301 C302 1.387 . S
C301 H318 0.930 . S
C302 C300 1.381 . S
C302 C301 1.387 . S
C302 H319 0.931 . S
C303 C296 1.399 . S
C303 C300 1.487 . S
C303 N320 1.343 . S
H304 C276 0.931 . S
H305 C278 0.930 . S
H306 C280 0.930 . S
H307 C281 0.931 1_545 S
H308 C283 0.931 . S
H309 C285 0.930 . S
H310 C287 0.930 . S
H311 C288 0.931 . S
H312 C290 0.931 . S
H313 C292 0.930 . S
H314 C294 0.930 . S
H315 C295 0.931 1_565 S
H316 C297 0.931 . S
H317 C299 0.930 . S
H318 C301 0.930 . S
H319 C302 0.931 . S
N320 C282 1.343 1_545 S
N320 C303 1.343 . S
N321 C289 1.343 . S
N321 C296 1.343 1_565 S
C322 C323 1.384 . S
C322 C324 1.384 . S
C322 H350 0.931 . S
C323 C322 1.384 . S
C323 C326 1.382 . S
C324 C322 1.384 . S
C324 C325 1.381 . S
C324 H351 0.930 . S
C325 C324 1.381 . S
C325 C327 1.381 . S
C325 C328 1.487 . S
C326 C323 1.382 . S
C326 C327 1.387 . S
C326 H352 0.930 . S
C327 C325 1.381 . S
C327 C326 1.387 . S
C327 H353 0.931 1_455 S
C328 C325 1.487 . S
C328 C335 1.399 . S
C328 N366 1.343 1_455 S
C329 C330 1.384 . S
C329 C331 1.384 . S
C329 H354 0.931 . S
C330 C329 1.384 . S
C330 C333 1.382 . S
C331 C329 1.384 . S
C331 C332 1.381 . S
C331 H355 0.930 . S
C332 C331 1.381 . S
C332 C334 1.381 . S
C332 C335 1.487 . S
C333 C330 1.382 . S
C333 C334 1.387 . S
C333 H356 0.930 . S
C334 C332 1.381 . S
C334 C333 1.387 . S
C334 H357 0.931 . S
C335 C328 1.399 . S
C335 C332 1.487 . S
C335 N367 1.343 1_565 S
C336 C337 1.384 . S
C336 C338 1.384 . S
C336 H358 0.931 . S
C337 C336 1.384 . S
C337 C340 1.382 . S
C338 C336 1.384 . S
C338 C339 1.381 . S
C338 H359 0.930 . S
C339 C338 1.381 . S
C339 C341 1.381 . S
C339 C342 1.487 . S
C340 C337 1.382 . S
C340 C341 1.387 . S
C340 H360 0.930 . S
C341 C339 1.381 . S
C341 C340 1.387 . S
C341 H361 0.931 1_655 S
C342 C339 1.487 . S
C342 C349 1.399 . S
C342 N367 1.343 1_655 S
C343 C344 1.384 . S
C343 C345 1.384 . S
C343 H362 0.931 . S
C344 C343 1.384 . S
C344 C347 1.382 . S
C345 C343 1.384 . S
C345 C346 1.381 . S
C345 H363 0.930 . S
C346 C345 1.381 . S
C346 C348 1.381 . S
C346 C349 1.487 . S
C347 C344 1.382 . S
C347 C348 1.387 . S
C347 H364 0.930 . S
C348 C346 1.381 . S
C348 C347 1.387 . S
C348 H365 0.931 . S
C349 C342 1.399 . S
C349 C346 1.487 . S
C349 N366 1.343 1_545 S
H350 C322 0.931 . S
H351 C324 0.930 . S
H352 C326 0.930 . S
H353 C327 0.931 1_655 S
H354 C329 0.931 . S
H355 C331 0.930 . S
H356 C333 0.930 . S
H357 C334 0.931 . S
H358 C336 0.931 . S
H359 C338 0.930 . S
H360 C340 0.930 . S
H361 C341 0.931 1_455 S
H362 C343 0.931 . S
H363 C345 0.930 . S
H364 C347 0.930 . S
H365 C348 0.931 . S
N366 C328 1.343 1_655 S
N366 C349 1.343 1_565 S
N367 C335 1.343 1_545 S
N367 C342 1.343 1_455 S
In368 O369 2.294 . S
In368 O370 2.326 . S
In368 O374 2.266 1_554 S
In368 O375 2.326 1_554 S
In368 O376 2.266 1_554 S
In368 O377 2.326 1_554 S
In368 O379 2.294 . S
In368 O380 2.326 . S
O369 In368 2.294 . S
O369 C378 1.240 . S
O370 In368 2.326 . S
O370 C378 1.252 . S
C371 O374 1.252 . S
C371 O375 1.260 . S
C372 O379 1.240 . S
C372 O380 1.252 . S
C373 O376 1.252 . S
C373 O377 1.260 . S
O374 In368 2.266 1_556 S
O374 C371 1.252 . S
O375 In368 2.326 1_556 S
O375 C371 1.260 . S
O376 In368 2.266 1_556 S
O376 C373 1.252 . S
O377 In368 2.326 1_556 S
O377 C373 1.260 . S
C378 O369 1.240 . S
C378 O370 1.252 . S
O379 In368 2.294 . S
O379 C372 1.240 . S
O380 In368 2.326 . S
O380 C372 1.252 . S
In381 O382 2.294 . S
In381 O383 2.326 . S
In381 O387 2.266 . S
In381 O388 2.326 . S
In381 O389 2.266 . S
In381 O390 2.326 . S
In381 O392 2.294 . S
In381 O393 2.326 . S
O382 In381 2.294 . S
O382 C391 1.240 . S
O383 In381 2.326 . S
O383 C391 1.252 . S
C384 O387 1.252 . S
C384 O388 1.260 . S
C385 O392 1.240 . S
C385 O393 1.252 . S
C386 O389 1.252 . S
C386 O390 1.260 . S
O387 In381 2.266 . S
O387 C384 1.252 . S
O388 In381 2.326 . S
O388 C384 1.260 . S
O389 In381 2.266 . S
O389 C386 1.252 . S
O390 In381 2.326 . S
O390 C386 1.260 . S
C391 O382 1.240 . S
C391 O383 1.252 . S
O392 In381 2.294 . S
O392 C385 1.240 . S
O393 In381 2.326 . S
O393 C385 1.252 . S
In394 O395 2.294 . S
In394 O396 2.326 . S
In394 O400 2.266 . S
In394 O401 2.326 . S
In394 O402 2.266 . S
In394 O403 2.326 . S
In394 O405 2.294 . S
In394 O406 2.326 . S
O395 In394 2.294 . S
O395 C404 1.240 . S
O396 In394 2.326 . S
O396 C404 1.252 . S
C397 O400 1.252 . S
C397 O401 1.260 . S
C398 O405 1.240 . S
C398 O406 1.252 . S
C399 O402 1.252 . S
C399 O403 1.260 . S
O400 In394 2.266 . S
O400 C397 1.252 . S
O401 In394 2.326 . S
O401 C397 1.260 . S
O402 In394 2.266 . S
O402 C399 1.252 . S
O403 In394 2.326 . S
O403 C399 1.260 . S
C404 O395 1.240 . S
C404 O396 1.252 . S
O405 In394 2.294 . S
O405 C398 1.240 . S
O406 In394 2.326 . S
O406 C398 1.252 . S
In407 O408 2.294 . S
In407 O409 2.326 . S
In407 O413 2.266 . S
In407 O414 2.326 . S
In407 O415 2.266 . S
In407 O416 2.326 . S
In407 O418 2.294 . S
In407 O419 2.326 . S
O408 In407 2.294 . S
O408 C417 1.240 . S
O409 In407 2.326 . S
O409 C417 1.252 . S
C410 O413 1.252 . S
C410 O414 1.260 . S
C411 O418 1.240 . S
C411 O419 1.252 . S
C412 O415 1.252 . S
C412 O416 1.260 . S
O413 In407 2.266 . S
O413 C410 1.252 . S
O414 In407 2.326 . S
O414 C410 1.260 . S
O415 In407 2.266 . S
O415 C412 1.252 . S
O416 In407 2.326 . S
O416 C412 1.260 . S
C417 O408 1.240 . S
C417 O409 1.252 . S
O418 In407 2.294 . S
O418 C411 1.240 . S
O419 In407 2.326 . S
O419 C411 1.252 . S
In420 O421 2.294 . S
In420 O422 2.326 . S
In420 O426 2.266 . S
In420 O427 2.326 . S
In420 O428 2.266 . S
In420 O429 2.326 . S
In420 O431 2.294 . S
In420 O432 2.326 . S
O421 In420 2.294 . S
O421 C430 1.240 . S
O422 In420 2.326 . S
O422 C430 1.252 . S
C423 O426 1.252 . S
C423 O427 1.260 . S
C424 O431 1.240 . S
C424 O432 1.252 . S
C425 O428 1.252 . S
C425 O429 1.260 . S
O426 In420 2.266 . S
O426 C423 1.252 . S
O427 In420 2.326 . S
O427 C423 1.260 . S
O428 In420 2.266 . S
O428 C425 1.252 . S
O429 In420 2.326 . S
O429 C425 1.260 . S
C430 O421 1.240 . S
C430 O422 1.252 . S
O431 In420 2.294 . S
O431 C424 1.240 . S
O432 In420 2.326 . S
O432 C424 1.252 . S
In433 O434 2.294 . S
In433 O435 2.326 . S
In433 O439 2.266 . S
In433 O440 2.326 . S
In433 O441 2.266 . S
In433 O442 2.326 . S
In433 O444 2.294 . S
In433 O445 2.326 . S
O434 In433 2.294 . S
O434 C443 1.240 . S
O435 In433 2.326 . S
O435 C443 1.252 . S
C436 O439 1.252 . S
C436 O440 1.260 . S
C437 O444 1.240 . S
C437 O445 1.252 . S
C438 O441 1.252 . S
C438 O442 1.260 . S
O439 In433 2.266 . S
O439 C436 1.252 . S
O440 In433 2.326 . S
O440 C436 1.260 . S
O441 In433 2.266 . S
O441 C438 1.252 . S
O442 In433 2.326 . S
O442 C438 1.260 . S
C443 O434 1.240 . S
C443 O435 1.252 . S
O444 In433 2.294 . S
O444 C437 1.240 . S
O445 In433 2.326 . S
O445 C437 1.252 . S
In446 O447 2.294 . S
In446 O448 2.326 . S
In446 O452 2.266 1_554 S
In446 O453 2.326 1_554 S
In446 O454 2.266 1_554 S
In446 O455 2.326 1_554 S
In446 O457 2.294 . S
In446 O458 2.326 . S
O447 In446 2.294 . S
O447 C456 1.240 . S
O448 In446 2.326 . S
O448 C456 1.252 . S
C449 O452 1.252 . S
C449 O453 1.260 . S
C450 O457 1.240 . S
C450 O458 1.252 . S
C451 O454 1.252 . S
C451 O455 1.260 . S
O452 In446 2.266 1_556 S
O452 C449 1.252 . S
O453 In446 2.326 1_556 S
O453 C449 1.260 . S
O454 In446 2.266 1_556 S
O454 C451 1.252 . S
O455 In446 2.326 1_556 S
O455 C451 1.260 . S
C456 O447 1.240 . S
C456 O448 1.252 . S
O457 In446 2.294 . S
O457 C450 1.240 . S
O458 In446 2.326 . S
O458 C450 1.252 . S
In459 O460 2.294 . S
In459 O461 2.326 . S
In459 O465 2.266 . S
In459 O466 2.326 . S
In459 O467 2.266 . S
In459 O468 2.326 . S
In459 O470 2.294 . S
In459 O471 2.326 . S
O460 In459 2.294 . S
O460 C469 1.240 . S
O461 In459 2.326 . S
O461 C469 1.252 . S
C462 O465 1.252 . S
C462 O466 1.260 . S
C463 O470 1.240 . S
C463 O471 1.252 . S
C464 O467 1.252 . S
C464 O468 1.260 . S
O465 In459 2.266 . S
O465 C462 1.252 . S
O466 In459 2.326 . S
O466 C462 1.260 . S
O467 In459 2.266 . S
O467 C464 1.252 . S
O468 In459 2.326 . S
O468 C464 1.260 . S
C469 O460 1.240 . S
C469 O461 1.252 . S
O470 In459 2.294 . S
O470 C463 1.240 . S
O471 In459 2.326 . S
O471 C463 1.252 . S
C384 C8 1.509 . S
C398 C61 1.505 . S
C411 C107 1.511 . S
C139 C378 1.529 . S
C192 C371 1.527 . S
C238 C391 1.530 . S
C399 C284 1.510 . S
C412 C330 1.520 . S
C100 C438 1.509 . S
C456 C160 1.505 . S
C15 C463 1.510 . S
C430 C54 1.529 . S
C291 C423 1.516 . S
C337 C437 1.521 . S
C449 C199 1.501 . S
C245 C464 1.510 . S
C397 C1 2.105 . S
C410 C68 2.075 . S
C114 C373 2.062 . S
C146 C385 2.074 . S
C185 C417 2.071 . S
C372 C231 2.074 . S
C386 C277 2.105 . S
C404 C323 2.086 . S
C451 C93 2.107 . S
C462 C153 2.078 . S
C22 C425 2.063 . S
C443 C47 2.076 . S
C469 C298 2.038 . S
C344 C424 2.041 . S
C436 C206 2.071 . S
C450 C252 2.052 . S
