# Generated by pormake.
# Topology ssa, (4,4)-cn, num edge types: 1
# Building blocks:
#     Node 0, Type 0, BuildingBlock: ESEHIV_clean_sbu_0, # of connection points: 4
#     Node 1, Type 0, BuildingBlock: ESEHIV_clean_sbu_0, # of connection points: 4
#     Node 2, Type 0, BuildingBlock: ESEHIV_clean_sbu_0, # of connection points: 4
#     Node 3, Type 0, BuildingBlock: ESEHIV_clean_sbu_0, # of connection points: 4
#     Node 4, Type 0, BuildingBlock: ESEHIV_clean_sbu_0, # of connection points: 4
#     Node 5, Type 0, BuildingBlock: ESEHIV_clean_sbu_0, # of connection points: 4
#     Node 6, Type 1, BuildingBlock: KUFVIS_clean_linker_0, # of connection points: 4
#     Node 7, Type 1, BuildingBlock: KUFVIS_clean_linker_0, # of connection points: 4
#     Node 8, Type 1, BuildingBlock: KUFVIS_clean_linker_0, # of connection points: 4
#     Node 9, Type 1, BuildingBlock: KUFVIS_clean_linker_0, # of connection points: 4
#     Node 10, Type 1, BuildingBlock: KUFVIS_clean_linker_0, # of connection points: 4
#     Node 11, Type 1, BuildingBlock: KUFVIS_clean_linker_0, # of connection points: 4
#     Edge 12, Type (0, 1), BuildingBlock: XIVTED_clean_linker_0, # of connection points: 2
#     Edge 13, Type (0, 1), BuildingBlock: XIVTED_clean_linker_0, # of connection points: 2
#     Edge 14, Type (0, 1), BuildingBlock: XIVTED_clean_linker_0, # of connection points: 2
#     Edge 15, Type (0, 1), BuildingBlock: XIVTED_clean_linker_0, # of connection points: 2
#     Edge 16, Type (0, 1), BuildingBlock: XIVTED_clean_linker_0, # of connection points: 2
#     Edge 17, Type (0, 1), BuildingBlock: XIVTED_clean_linker_0, # of connection points: 2
#     Edge 18, Type (0, 1), BuildingBlock: XIVTED_clean_linker_0, # of connection points: 2
#     Edge 19, Type (0, 1), BuildingBlock: XIVTED_clean_linker_0, # of connection points: 2
#     Edge 20, Type (0, 1), BuildingBlock: XIVTED_clean_linker_0, # of connection points: 2
#     Edge 21, Type (0, 1), BuildingBlock: XIVTED_clean_linker_0, # of connection points: 2
#     Edge 22, Type (0, 1), BuildingBlock: XIVTED_clean_linker_0, # of connection points: 2
#     Edge 23, Type (0, 1), BuildingBlock: XIVTED_clean_linker_0, # of connection points: 2
#     Edge 24, Type (0, 1), BuildingBlock: XIVTED_clean_linker_0, # of connection points: 2
#     Edge 25, Type (0, 1), BuildingBlock: XIVTED_clean_linker_0, # of connection points: 2
#     Edge 26, Type (0, 1), BuildingBlock: XIVTED_clean_linker_0, # of connection points: 2
#     Edge 27, Type (0, 1), BuildingBlock: XIVTED_clean_linker_0, # of connection points: 2
#     Edge 28, Type (0, 1), BuildingBlock: XIVTED_clean_linker_0, # of connection points: 2
#     Edge 29, Type (0, 1), BuildingBlock: XIVTED_clean_linker_0, # of connection points: 2
#     Edge 30, Type (0, 1), BuildingBlock: XIVTED_clean_linker_0, # of connection points: 2
#     Edge 31, Type (0, 1), BuildingBlock: XIVTED_clean_linker_0, # of connection points: 2
#     Edge 32, Type (0, 1), BuildingBlock: XIVTED_clean_linker_0, # of connection points: 2
#     Edge 33, Type (0, 1), BuildingBlock: XIVTED_clean_linker_0, # of connection points: 2
#     Edge 34, Type (0, 1), BuildingBlock: XIVTED_clean_linker_0, # of connection points: 2
#     Edge 35, Type (0, 1), BuildingBlock: XIVTED_clean_linker_0, # of connection points: 2
# Relax obj value: 0.006
# Max RMSD: 0.108
# Mean RMSD: 0.074
data_MOF--net-ssa--node1-ESEHIV_clean_sbu_0--node2-KUFVIS_clean_linker_0--edge1-XIVTED_clean_linker_0
_symmetry_space_group_name_H-M    P1
_symmetry_Int_Tables_number       1
_symmetry_cell_setting            triclinic
loop_
_symmetry_equiv_pos_as_xyz
'x, y, z'
_cell_length_a     52.029065
_cell_length_b     55.87572
_cell_length_c     31.828196
_cell_angle_alpha  88.390297
_cell_angle_beta   90.506936
_cell_angle_gamma 122.21168
loop_
_atom_site_label
_atom_site_type_symbol
_atom_site_fract_x
_atom_site_fract_y
_atom_site_fract_z
_atom_type_partial_charge
Cu0 Cu 0.05341 0.52449 -0.0084 0.0
N1 N 0.04625 0.49882 0.94981 0.0
N2 N 1.02332 0.45874 0.91422 0.0
C3 C 1.02365 0.47138 0.94995 0.0
C4 C 0.0469 0.47907 0.89097 0.0
C5 C 0.06096 0.50379 0.91299 0.0
O6 O 1.0158 0.52399 0.00163 0.0
C7 C 0.09041 0.50988 0.03338 0.0
O8 O 0.09703 0.50841 -0.0058 0.0
H9 H 1.00739 0.46117 0.97544 0.0
H10 H 0.08006 0.52412 0.90252 0.0
N11 N 0.08372 0.56125 0.97516 0.0
N12 N 0.12528 0.6043 -0.01724 0.0
C13 C 0.10961 0.57708 -0.00347 0.0
C14 C 0.08289 0.57901 0.94653 0.0
C15 C 0.10854 0.60572 0.95126 0.0
C16 C 0.99772 0.51862 0.97086 0.0
O17 O 1.0047 0.51357 0.93402 0.0
H18 H 0.11563 0.56931 0.02398 0.0
H19 H 0.06417 0.57333 0.92546 0.0
O20 O 0.06997 0.51536 0.04065 0.0
H21 H 0.0528 0.47665 0.85954 0.0
H22 H 0.11376 0.62483 0.93415 0.0
Cu23 Cu 0.54489 0.02519 0.46591 0.0
N24 N 0.56235 1.01786 0.42072 0.0
N25 N 0.5746 0.99324 0.38007 0.0
C26 C 0.55936 0.99271 0.4146 0.0
C27 C 0.58763 1.01984 0.36381 0.0
C28 C 0.58 0.03493 0.38885 0.0
O29 O 0.50779 0.98887 0.47888 0.0
C30 C 0.60029 0.05956 0.50521 0.0
O31 O 0.60896 0.06786 0.4661 0.0
H32 H 0.54659 0.97451 0.43558 0.0
H33 H 0.58715 0.05688 0.38431 0.0
N34 N 0.53685 0.05364 0.45387 0.0
N35 N 0.52856 0.08804 0.46767 0.0
C36 C 0.53008 0.06619 0.48355 0.0
C37 C 0.53973 0.06811 0.4178 0.0
C38 C 0.53476 0.08949 0.42631 0.0
C39 C 0.48104 0.98427 0.47814 0.0
O40 O 0.47741 1.00575 0.47449 0.0
H41 H 0.52716 0.05988 0.5165 0.0
H42 H 0.54551 0.06381 0.38761 0.0
O43 O 0.57304 0.03939 0.51268 0.0
H44 H 0.60145 0.02782 0.33557 0.0
H45 H 0.53552 0.1048 0.40391 0.0
Cu46 Cu 0.50063 0.48892 0.01727 0.0
N47 N 0.48987 0.45114 0.01275 0.0
N48 N 0.48815 0.41406 -0.016 0.0
C49 C 0.49783 0.44179 0.97973 0.0
C50 C 0.47339 0.40563 0.02136 0.0
C51 C 0.4746 0.42853 0.03909 0.0
O52 O 0.54132 0.51213 -0.00638 0.0
C53 C 0.44303 0.47816 0.00205 0.0
O54 O 0.43439 0.4518 0.01091 0.0
H55 H 0.51036 0.4552 0.95287 0.0
H56 H 0.46504 0.42857 0.06904 0.0
N57 N 0.50197 0.50161 0.07128 0.0
N58 N 0.50078 0.53339 0.11145 0.0
C59 C 0.51154 0.529 0.07595 0.0
C60 C 0.48459 0.48794 0.10532 0.0
C61 C 0.48406 0.50753 0.13036 0.0
C62 C 0.56159 0.50998 0.01297 0.0
O63 O 0.55367 0.49371 0.04707 0.0
H64 H 0.52296 0.54469 0.05091 0.0
H65 H 0.47068 0.46523 0.1096 0.0
O66 O 0.47078 0.49561 -0.00782 0.0
H67 H 0.46286 0.38455 0.0353 0.0
H68 H 0.47065 0.50265 0.15871 0.0
Cu69 Cu 0.04235 0.53244 0.54189 0.0
N70 N 0.07161 0.52371 0.55455 0.0
N71 N 0.11028 0.51793 0.54293 0.0
C72 C 0.09646 0.53171 0.53104 0.0
C73 C 0.09351 0.50062 0.57536 0.0
C74 C 0.06968 0.5043 0.58253 0.0
O75 O 0.05802 0.55817 0.49256 0.0
C76 C 0.98692 0.484 0.56641 0.0
O77 O 0.99623 0.49556 0.6032 0.0
H78 H 0.10295 0.54576 0.5037 0.0
H79 H 0.05129 0.49247 0.60488 0.0
N80 N 0.0374 0.55121 0.58586 0.0
N81 N 1.01692 0.56947 0.62513 0.0
C82 C 1.01515 0.55658 0.58902 0.0
C83 C 0.05395 0.56113 0.621 0.0
C84 C 0.04141 0.57249 0.64526 0.0
C85 C 0.07632 0.58458 0.49846 0.0
O86 O 0.08204 0.59368 0.53703 0.0
H87 H 0.99777 0.55068 0.5655 0.0
H88 H 0.07342 0.55974 0.62868 0.0
O89 O 1.00353 0.49645 0.53394 0.0
H90 H 0.09749 0.48562 0.5916 0.0
H91 H 0.04908 0.58132 0.67602 0.0
Cu92 Cu 0.53337 1.01792 0.97674 0.0
N93 N 0.51324 0.02476 0.93402 0.0
N94 N 0.49486 0.04707 0.89754 0.0
C95 C 0.51056 0.04741 0.93171 0.0
C96 C 0.48741 0.02321 0.87754 0.0
C97 C 0.49891 1.00952 0.90008 0.0
O98 O 0.56931 0.0551 -0.01285 0.0
C99 C 0.48053 0.97678 0.01541 0.0
O100 O 0.47637 0.9678 0.97676 0.0
H101 H 0.51987 0.06374 0.95489 0.0
H102 H 0.4971 0.98997 0.89221 0.0
N103 N 0.54431 0.99271 0.95972 0.0
N104 N 0.55062 0.95615 0.96294 0.0
C105 C 0.53854 0.96937 0.98158 0.0
C106 C 0.56063 0.99436 0.92592 0.0
C107 C 0.56478 0.97187 0.92802 0.0
C108 C 0.59641 0.06057 -0.01152 0.0
O109 O 0.60091 0.03959 -0.00848 0.0
H110 H 0.52665 0.96274 0.01147 0.0
H111 H 0.5695 1.0111 0.90208 0.0
O112 O 0.50504 0.99995 0.02386 0.0
H113 H 0.47518 1.01646 0.84823 0.0
H114 H 0.57734 0.96752 0.90584 0.0
Cu115 Cu 0.57556 0.54038 0.47688 0.0
N116 N 0.59923 0.57022 0.4391 0.0
N117 N 0.61714 0.61265 0.40801 0.0
C118 C 0.59428 0.59113 0.43061 0.0
C119 C 0.63726 0.60482 0.4017 0.0
C120 C 0.62628 0.57871 0.42136 0.0
O121 O 0.53723 0.53924 0.48117 0.0
C122 C 0.5921 0.53341 0.56054 0.0
O123 O 0.56414 0.51156 0.56425 0.0
H124 H 0.57456 0.59081 0.44191 0.0
H125 H 0.63789 0.56746 0.42427 0.0
N126 N 0.56922 0.50591 0.45911 0.0
N127 N 0.55532 0.46051 0.46534 0.0
C128 C 0.55147 0.48091 0.47955 0.0
C129 C 0.58474 0.50111 0.43044 0.0
C130 C 0.57627 0.47311 0.4343 0.0
C131 C 0.51294 0.5205 0.46322 0.0
O132 O 0.51205 0.49897 0.44616 0.0
H133 H 0.5372 0.47815 0.50604 0.0
H134 H 0.60216 0.51712 0.40977 0.0
O135 O 0.59973 0.54948 0.52789 0.0
H136 H 0.65893 0.61753 0.3857 0.0
H137 H 0.5857 0.46317 0.41683 0.0
H138 H 0.3926 0.53692 0.25115 0.0
H139 H 0.32914 0.53604 0.33609 0.0
H140 H 0.30628 0.51719 0.20455 0.0
H141 H 0.27386 0.52943 0.21352 0.0
H142 H 0.20444 0.51575 0.30003 0.0
H143 H 0.2819 0.51705 0.34738 0.0
C144 C 0.37085 0.53468 0.25653 0.0
C145 C 0.35076 0.5281 0.223 0.0
C146 C 0.36249 0.53645 0.2974 0.0
C147 C 0.33412 0.53316 0.30446 0.0
C148 C 0.31312 0.52671 0.27128 0.0
C149 C 0.32178 0.52344 0.23064 0.0
C150 C 0.28254 0.52333 0.27905 0.0
C151 C 0.2653 0.52502 0.2454 0.0
C152 C 0.23703 0.52212 0.25265 0.0
C153 C 0.22613 0.51802 0.29387 0.0
C154 C 0.24274 0.51698 0.32764 0.0
C155 C 0.27041 0.51902 0.32037 0.0
H156 H 0.70093 0.17117 0.76953 0.0
H157 H 0.77934 0.24572 0.8155 0.0
H158 H 0.77136 0.22799 0.68274 0.0
H159 H 0.79983 0.27634 0.67714 0.0
H160 H 0.89094 0.33345 0.71777 0.0
H161 H 0.82888 0.26545 0.80058 0.0
C162 C 0.72239 0.19078 0.76307 0.0
C163 C 0.73366 0.19802 0.72184 0.0
C164 C 0.73882 0.20771 0.79667 0.0
C165 C 0.76722 0.23261 0.78914 0.0
C166 C 0.77947 0.24055 0.74782 0.0
C167 C 0.76236 0.22279 0.71447 0.0
C168 C 0.81029 0.26672 0.73954 0.0
C169 C 0.81716 0.28223 0.70077 0.0
C170 C 0.84652 0.30581 0.69258 0.0
C171 C 0.86875 0.31445 0.72347 0.0
C172 C 0.86224 0.30049 0.76267 0.0
C173 C 0.83321 0.27648 0.77047 0.0
H174 H 0.55778 0.69602 0.24531 0.0
H175 H 0.52886 0.74138 0.16807 0.0
H176 H 0.59357 0.78332 0.26845 0.0
H177 H 0.56685 0.80604 0.27208 0.0
H178 H 0.57061 0.86523 0.17976 0.0
H179 H 0.5578 0.78708 0.13957 0.0
C180 C 0.55825 0.71534 0.23782 0.0
C181 C 0.57706 0.73944 0.2607 0.0
C182 C 0.54112 0.71591 0.20434 0.0
C183 C 0.54237 0.74117 0.19399 0.0
C184 C 0.56073 0.76584 0.21762 0.0
C185 C 0.57835 0.76465 0.25087 0.0
C186 C 0.56238 0.79299 0.20719 0.0
C187 C 0.56632 0.8117 0.2394 0.0
C188 C 0.56991 0.83802 0.2295 0.0
C189 C 0.56856 0.84523 0.18752 0.0
C190 C 0.56367 0.8268 0.15537 0.0
C191 C 0.56076 0.80079 0.16499 0.0
H192 H 0.89437 0.57055 0.83248 0.0
H193 H 0.80737 0.54357 0.88557 0.0
H194 H 0.82994 0.57782 0.75777 0.0
H195 H 0.77918 0.54883 0.7502 0.0
H196 H 0.70644 0.55213 0.80492 0.0
H197 H 0.78058 0.56586 0.88275 0.0
C198 C 0.87251 0.56857 0.82969 0.0
C199 C 0.86431 0.5753 0.79134 0.0
C200 C 0.85228 0.5573 0.86364 0.0
C201 C 0.82322 0.55315 0.85949 0.0
C202 C 0.81468 0.56097 0.82147 0.0
C203 C 0.83559 0.57177 0.78737 0.0
C204 C 0.78424 0.55791 0.8171 0.0
C205 C 0.76948 0.55229 0.77756 0.0
C206 C 0.74154 0.55036 0.77338 0.0
C207 C 0.72823 0.55401 0.80837 0.0
C208 C 0.74201 0.55946 0.84773 0.0
C209 C 0.76989 0.56121 0.85221 0.0
H210 H 0.20318 0.69025 0.23423 0.0
H211 H 0.28147 0.76771 0.19156 0.0
H212 H 0.2514 0.75713 0.32129 0.0
H213 H 0.29924 0.78987 0.33347 0.0
H214 H 0.3684 0.87118 0.28534 0.0
H215 H 0.30064 0.81227 0.20155 0.0
C216 C 0.22203 0.71132 0.24123 0.0
C217 C 0.22571 0.72127 0.28209 0.0
C218 C 0.24173 0.72826 0.20874 0.0
C219 C 0.26582 0.75571 0.21702 0.0
C220 C 0.27003 0.76695 0.25767 0.0
C221 C 0.24929 0.74934 0.28995 0.0
C222 C 0.29634 0.79654 0.26608 0.0
C223 C 0.30862 0.80458 0.30692 0.0
C224 C 0.33393 0.83181 0.31366 0.0
C225 C 0.34795 0.85081 0.27974 0.0
C226 C 0.33653 0.84369 0.23901 0.0
C227 C 0.3102 0.81692 0.23272 0.0
H228 H 0.50931 0.34175 0.71488 0.0
H229 H 0.50605 0.27219 0.77997 0.0
H230 H 0.4988 0.27358 0.64388 0.0
H231 H 0.5112 0.24301 0.64305 0.0
H232 H 0.48556 0.1642 0.70334 0.0
H233 H 0.48623 0.22755 0.77578 0.0
C234 C 0.50736 0.32145 0.71413 0.0
C235 C 0.50502 0.30928 0.67541 0.0
C236 C 0.50723 0.3079 0.75183 0.0
C237 C 0.50498 0.28164 0.75048 0.0
C238 C 0.50222 0.26846 0.71159 0.0
C239 C 0.50206 0.28285 0.67428 0.0
C240 C 0.49877 0.23975 0.70961 0.0
C241 C 0.5033 0.22982 0.67125 0.0
C242 C 0.49728 0.2022 0.66859 0.0
C243 C 0.48881 0.18503 0.70485 0.0
C244 C 0.48564 0.19447 0.74339 0.0
C245 C 0.49015 0.2215 0.74575 0.0
H246 H 0.1271 0.48899 0.02928 0.0
H247 H 0.20682 0.55002 0.25006 0.0
H248 H 0.09923 0.53031 0.11355 0.0
H249 H 0.22372 0.49612 0.17632 0.0
H250 H 0.17011 0.54593 0.1979 0.0
H251 H 0.16408 0.49314 0.08098 0.0
C252 C 0.12854 0.49871 0.0589 0.0
C253 C 0.10994 0.50927 0.0671 0.0
C254 C 0.18186 0.53504 0.193 0.0
C255 C 0.15278 0.51451 0.12636 0.0
C256 C 0.20291 0.53739 0.22274 0.0
C257 C 0.21818 0.5231 0.21787 0.0
C258 C 0.17603 0.51839 0.15775 0.0
C259 C 0.2126 0.50757 0.18135 0.0
C260 C 0.14977 0.50114 0.08837 0.0
C261 C 0.1129 0.52167 0.10602 0.0
N262 N 0.19186 0.5055 0.15282 0.0
N263 N 0.13407 0.52412 0.13408 0.0
H264 H 0.58499 0.06293 0.58607 0.0
H265 H 0.75321 0.18192 0.65403 0.0
H266 H 0.66181 0.09601 0.50178 0.0
H267 H 0.67204 0.16992 0.71127 0.0
H268 H 0.72142 0.14659 0.60207 0.0
H269 H 0.61828 0.09681 0.6385 0.0
C270 C 0.60894 0.07697 0.57887 0.0
C271 C 0.62064 0.07674 0.53947 0.0
C272 C 0.71068 0.1518 0.62605 0.0
C273 C 0.65874 0.11566 0.59906 0.0
C274 C 0.72881 0.17215 0.65547 0.0
C275 C 0.71533 0.17879 0.68739 0.0
C276 C 0.67889 0.13783 0.62887 0.0
C277 C 0.68348 0.16508 0.6879 0.0
C278 C 0.62786 0.09649 0.60861 0.0
C279 C 0.65183 0.0956 0.5317 0.0
N280 N 0.6664 0.14514 0.65939 0.0
N281 N 0.66982 0.11434 0.56119 0.0
H282 H 0.46328 0.53964 0.16379 0.0
H283 H 0.55525 0.70789 0.12613 0.0
H284 H 0.5419 0.58689 0.08267 0.0
H285 H 0.49216 0.66471 0.22858 0.0
H286 H 0.54131 0.66196 0.09853 0.0
H287 H 0.4664 0.58372 0.17924 0.0
C288 C 0.48129 0.55914 0.14931 0.0
C289 C 0.50247 0.55929 0.12193 0.0
C290 C 0.52988 0.66247 0.12645 0.0
C291 C 0.50552 0.60991 0.13865 0.0
C292 C 0.53743 0.68868 0.1417 0.0
C293 C 0.5246 0.69001 0.17938 0.0
C294 C 0.50945 0.63747 0.14921 0.0
C295 C 0.50227 0.66449 0.19912 0.0
C296 C 0.48283 0.58433 0.15786 0.0
C297 C 0.52482 0.58542 0.10356 0.0
N298 N 0.49569 0.63926 0.18416 0.0
N299 N 0.52575 0.60955 0.11225 0.0
H300 H 1.02822 0.61065 0.67915 0.0
H301 H 0.85234 0.55006 0.71528 0.0
H302 H 0.95676 0.54357 0.60712 0.0
H303 H 0.92433 0.61707 0.78654 0.0
H304 H 0.89029 0.55363 0.66603 0.0
H305 H 0.99091 0.61868 0.71066 0.0
C306 C 1.0047 0.5977 0.66981 0.0
C307 C 0.9956 0.57618 0.64083 0.0
C308 C 0.89777 0.56802 0.69188 0.0
C309 C 0.95261 0.58528 0.6767 0.0
C310 C 0.87606 0.5662 0.71967 0.0
C311 C 0.88531 0.58313 0.75514 0.0
C312 C 0.92885 0.58682 0.69986 0.0
C313 C 0.91635 0.60346 0.75972 0.0
C314 C 0.98339 0.6024 0.6876 0.0
C315 C 0.96486 0.56043 0.62922 0.0
N316 N 0.93703 0.60443 0.73286 0.0
N317 N 0.94443 0.56505 0.64758 0.0
H318 H 0.47649 0.98941 0.09748 0.0
H319 H 0.34577 0.83122 0.15979 0.0
H320 H 0.43272 0.92266 0.00798 0.0
H321 H 0.36689 0.90204 0.23633 0.0
H322 H 0.37894 0.86434 0.10465 0.0
H323 H 0.43871 0.95763 0.15064 0.0
C324 C 0.45896 0.96818 0.08898 0.0
C325 C 0.45782 0.95871 0.04823 0.0
C326 C 0.37613 0.87264 0.13341 0.0
C327 C 0.4148 0.92231 0.10872 0.0
C328 C 0.35693 0.85369 0.16485 0.0
C329 C 0.35358 0.8637 0.20311 0.0
C330 C 0.39247 0.90187 0.1403 0.0
C331 C 0.36922 0.89321 0.20784 0.0
C332 C 0.43735 0.9501 0.11923 0.0
C333 C 0.43454 0.93096 0.03892 0.0
N334 N 0.38822 0.91122 0.17706 0.0
N335 N 0.41415 0.91374 0.06894 0.0
H336 H 0.58195 0.42972 0.46988 0.0
H337 H 0.47119 0.332 0.65531 0.0
H338 H 0.5017 0.42852 0.50673 0.0
H339 H 0.5425 0.3227 0.60722 0.0
H340 H 0.47909 0.36399 0.59605 0.0
H341 H 0.56515 0.38721 0.51395 0.0
C342 C 0.56051 0.42022 0.48653 0.0
C343 C 0.54346 0.43301 0.48516 0.0
C344 C 0.49278 0.35471 0.59798 0.0
C345 C 0.52433 0.38462 0.53617 0.0
C346 C 0.48827 0.33647 0.63185 0.0
C347 C 0.5064 0.32495 0.63625 0.0
C348 C 0.51597 0.3619 0.56856 0.0
C349 C 0.52805 0.33118 0.60486 0.0
C350 C 0.55099 0.39601 0.5119 0.0
C351 C 0.51592 0.4198 0.50765 0.0
N352 N 0.53258 0.34961 0.57264 0.0
N353 N 0.50743 0.3966 0.53258 0.0
H354 H 0.61957 0.99725 0.33171 0.0
H355 H 0.53333 0.83028 0.29685 0.0
H356 H 0.5341 0.93654 0.39159 0.0
H357 H 0.61646 0.8928 0.23403 0.0
H358 H 0.53636 0.86776 0.33954 0.0
H359 H 0.62142 0.95843 0.30212 0.0
C360 C 0.60113 0.97577 0.3386 0.0
C361 C 0.5765 0.97029 0.3639 0.0
C362 C 0.5542 0.87319 0.3169 0.0
C363 C 0.57859 0.92541 0.33027 0.0
C364 C 0.55262 0.85177 0.29291 0.0
C365 C 0.57465 0.85855 0.26191 0.0
C366 C 0.578 0.90149 0.30972 0.0
C367 C 0.59896 0.88676 0.25754 0.0
C368 C 0.6023 0.95352 0.32191 0.0
C369 C 0.55361 0.94186 0.37244 0.0
N370 N 0.59984 0.90717 0.28082 0.0
N371 N 0.55509 0.92052 0.35542 0.0
H372 H 0.60626 0.50184 0.04076 0.0
H373 H 0.72042 0.59418 0.85323 0.0
H374 H 0.58832 0.54811 0.94655 0.0
H375 H 0.72423 0.52856 0.92183 0.0
H376 H 0.67997 0.58723 0.90033 0.0
H377 H 0.65623 0.52031 0.00917 0.0
C378 C 0.61291 0.51613 0.01368 0.0
C379 C 0.59286 0.52319 -0.00402 0.0
C380 C 0.69005 0.57474 0.90567 0.0
C381 C 0.65028 0.54457 0.95994 0.0
C382 C 0.71332 0.57889 0.8791 0.0
C383 C 0.7254 0.56169 0.88347 0.0
C384 C 0.6788 0.55328 0.93694 0.0
C385 C 0.71551 0.54224 0.91748 0.0
C386 C 0.64148 0.52664 -0.0043 0.0
C387 C 0.60288 0.54189 0.961 0.0
N388 N 0.69239 0.53822 0.94258 0.0
N389 N 0.63083 0.55182 0.94399 0.0
H390 H 0.10383 0.64188 0.49687 0.0
H391 H 0.20458 0.66509 0.29487 0.0
H392 H 0.09121 0.5733 0.42195 0.0
H393 H 0.19818 0.73251 0.34593 0.0
H394 H 0.16584 0.6318 0.3447 0.0
H395 H 0.13998 0.67573 0.44453 0.0
C396 C 0.10839 0.63393 0.46908 0.0
C397 C 0.09446 0.60469 0.46374 0.0
C398 C 0.17282 0.65384 0.345 0.0
C399 C 0.13638 0.64342 0.40411 0.0
C400 C 0.19499 0.67295 0.31654 0.0
C401 C 0.20445 0.7017 0.3157 0.0
C402 C 0.16012 0.66345 0.37351 0.0
C403 C 0.19174 0.71063 0.34545 0.0
C404 C 0.12909 0.6533 0.43928 0.0
C405 C 0.10124 0.59562 0.42718 0.0
N406 N 0.17018 0.69156 0.37312 0.0
N407 N 0.12199 0.61492 0.39898 0.0
H408 H 0.44726 0.0397 0.85125 0.0
H409 H 0.52113 0.20497 0.81252 0.0
H410 H 0.5283 0.10325 0.91355 0.0
H411 H 0.43727 0.14088 0.75693 0.0
H412 H 0.5193 0.16873 0.85997 0.0
H413 H 0.43916 0.07661 0.82476 0.0
C414 C 0.46331 0.06141 0.85944 0.0
C415 C 0.48868 0.06839 0.88422 0.0
C416 C 0.50086 0.16268 0.83817 0.0
C417 C 0.47953 0.1109 0.85417 0.0
C418 C 0.50172 0.18344 0.81152 0.0
C419 C 0.4794 0.17577 0.78077 0.0
C420 C 0.47763 0.13412 0.83362 0.0
C421 C 0.45496 0.14754 0.7802 0.0
C422 C 0.45856 0.0825 0.84461 0.0
C423 C 0.50839 0.09686 0.89462 0.0
N424 N 0.45501 0.12766 0.80564 0.0
N425 N 0.50362 0.1171 0.87912 0.0
H426 H 0.45267 0.4809 0.45546 0.0
H427 H 0.42265 0.57719 0.30743 0.0
H428 H 0.51716 0.5709 0.44611 0.0
H429 H 0.34874 0.5013 0.36618 0.0
H430 H 0.45774 0.57614 0.3584 0.0
H431 H 0.41394 0.48795 0.42424 0.0
C432 C 0.45846 0.50223 0.4477 0.0
C433 C 0.48815 0.52535 0.45343 0.0
C434 C 0.43375 0.56006 0.36075 0.0
C435 C 0.44421 0.5335 0.41636 0.0
C436 C 0.41376 0.56066 0.33168 0.0
C437 C 0.38278 0.53932 0.3327 0.0
C438 C 0.42282 0.53752 0.39031 0.0
C439 C 0.37242 0.51825 0.36455 0.0
C440 C 0.43636 0.50625 0.42983 0.0
C441 C 0.4945 0.55252 0.44253 0.0
N442 N 0.39247 0.51756 0.39157 0.0
N443 N 0.4729 0.5558 0.42365 0.0
H444 H 0.96458 0.4261 0.94117 0.0
H445 H 0.92164 0.3161 0.75975 0.0
H446 H 1.02995 0.42678 0.85781 0.0
H447 H 0.85557 0.31636 0.84011 0.0
H448 H 0.96215 0.35013 0.80514 0.0
H449 H 0.92541 0.38056 0.91386 0.0
C450 C 0.97089 0.41651 0.91763 0.0
C451 C 1.00065 0.43056 0.90142 0.0
C452 C 0.93879 0.34233 0.81347 0.0
C453 C 0.95563 0.37838 0.86961 0.0
C454 C 0.91567 0.32275 0.78773 0.0
C455 C 0.88531 0.31366 0.79608 0.0
C456 C 0.93151 0.35318 0.84751 0.0
C457 C 0.87871 0.32285 0.83267 0.0
C458 C 0.9484 0.39049 0.9019 0.0
C459 C 1.00724 0.41707 0.8706 0.0
N460 N 0.90169 0.34256 0.85663 0.0
N461 N 0.98488 0.39191 0.85544 0.0
H462 H 0.99002 0.55785 0.00963 0.0
H463 H 0.83408 0.50335 0.88721 0.0
H464 H 0.94274 0.48216 0.93751 0.0
H465 H 0.89518 0.59 0.92102 0.0
H466 H 0.86455 0.48985 0.9288 0.0
H467 H 0.94705 0.5643 -0.00088 0.0
C468 C 0.97019 0.54213 -0.00719 0.0
C469 C 0.9699 0.51953 0.97419 0.0
C470 C 0.87074 0.51169 0.92831 0.0
C471 C 0.92092 0.5267 0.96207 0.0
C472 C 0.85306 0.51929 0.90512 0.0
C473 C 0.86204 0.54777 0.90099 0.0
C474 C 0.89766 0.53276 0.94732 0.0
C475 C 0.88738 0.56777 0.92384 0.0
C476 C 0.94581 0.5459 -0.01344 0.0
C477 C 0.94389 0.49997 0.95213 0.0
N478 N 0.90461 0.55999 0.94546 0.0
N479 N 0.9206 0.5041 0.94643 0.0
H480 H 0.42058 0.96597 0.47673 0.0
H481 H 0.381 0.83105 0.34994 0.0
H482 H 0.48141 0.93616 0.46413 0.0
H483 H 0.31831 0.85772 0.36952 0.0
H484 H 0.41347 0.86258 0.40523 0.0
H485 H 0.37906 0.92083 0.45127 0.0
C486 C 0.42512 0.94975 0.46939 0.0
C487 C 0.4547 0.95514 0.47184 0.0
C488 C 0.39216 0.86094 0.39848 0.0
C489 C 0.40724 0.9034 0.44202 0.0
C490 C 0.37348 0.84267 0.36729 0.0
C491 C 0.34691 0.84169 0.35567 0.0
C492 C 0.38446 0.87878 0.4174 0.0
C493 C 0.33849 0.85771 0.37809 0.0
C494 C 0.40135 0.92392 0.45479 0.0
C495 C 0.45907 0.93313 0.46231 0.0
N496 N 0.35748 0.87601 0.40736 0.0
N497 N 0.43576 0.90847 0.44708 0.0
H498 H 0.45389 0.35677 0.97528 0.0
H499 H 0.54818 0.36233 0.77349 0.0
H500 H 0.53317 0.43273 0.92544 0.0
H501 H 0.46945 0.28518 0.82102 0.0
H502 H 0.54552 0.38727 0.83341 0.0
H503 H 0.46124 0.32928 0.92343 0.0
C504 C 0.47297 0.3677 0.95374 0.0
C505 C 0.49275 0.39727 0.95467 0.0
C506 C 0.52895 0.36483 0.83116 0.0
C507 C 0.50122 0.3658 0.89492 0.0
C508 C 0.53055 0.35055 0.79696 0.0
C509 C 0.5089 0.32166 0.79211 0.0
C510 C 0.50535 0.35026 0.86084 0.0
C511 C 0.48666 0.30742 0.82364 0.0
C512 C 0.47709 0.35195 0.924 0.0
C513 C 0.51694 0.41015 0.92558 0.0
N514 N 0.48522 0.32193 0.85641 0.0
N515 N 0.52038 0.3944 0.89697 0.0
H516 H 0.15848 0.56317 0.50439 0.0
H517 H 0.19911 0.47043 0.37163 0.0
H518 H 0.11736 0.47387 0.53024 0.0
H519 H 0.25811 0.56092 0.37788 0.0
H520 H 0.1706 0.47061 0.43259 0.0
H521 H 0.1965 0.56284 0.46008 0.0
C522 C 0.15768 0.54356 0.50101 0.0
C523 C 0.13468 0.51851 0.52082 0.0
C524 C 0.19027 0.49036 0.4214 0.0
C525 C 0.1779 0.51781 0.46983 0.0
C526 C 0.20664 0.49018 0.3869 0.0
C527 C 0.23117 0.51564 0.37039 0.0
C528 C 0.19806 0.51629 0.43862 0.0
C529 C 0.23959 0.54084 0.39029 0.0
C530 C 0.17946 0.54337 0.47591 0.0
C531 C 0.1348 0.49368 0.51572 0.0
N532 N 0.22277 0.5406 0.42296 0.0
N533 N 0.15577 0.49385 0.49019 0.0
H534 H 0.59425 0.1075 0.96756 0.0
H535 H 0.75805 0.18627 0.85863 0.0
H536 H 0.65691 0.07943 0.97999 0.0
H537 H 0.68859 0.20375 0.82943 0.0
H538 H 0.72715 0.15593 0.91835 0.0
H539 H 0.63409 0.15102 0.93263 0.0
C540 C 0.61656 0.11069 0.9638 0.0
C541 C 0.622 0.08943 0.97614 0.0
C542 C 0.71903 0.16702 0.89961 0.0
C543 C 0.66776 0.1393 0.93562 0.0
C544 C 0.73683 0.18459 0.8659 0.0
C545 C 0.72583 0.19756 0.83939 0.0
C546 C 0.69002 0.1624 0.9066 0.0
C547 C 0.69788 0.19421 0.84941 0.0
C548 C 0.6393 0.13556 0.94364 0.0
C549 C 0.6515 0.095 0.97055 0.0
N550 N 0.68077 0.17669 0.88187 0.0
N551 N 0.67311 0.11917 0.95015 0.0
H552 H 0.59138 0.63814 0.44533 0.0
H553 H 0.63138 0.74459 0.25049 0.0
H554 H 0.64895 0.64734 0.34138 0.0
H555 H 0.56267 0.72513 0.34314 0.0
H556 H 0.64955 0.72013 0.29479 0.0
H557 H 0.59101 0.67922 0.41849 0.0
C558 C 0.60401 0.64879 0.41686 0.0
C559 C 0.6196 0.63875 0.39498 0.0
C560 C 0.63116 0.722 0.30617 0.0
C561 C 0.61965 0.68628 0.36441 0.0
C562 C 0.62116 0.73639 0.28123 0.0
C563 C 0.59571 0.73698 0.29351 0.0
C564 C 0.61528 0.70789 0.34333 0.0
C565 C 0.5826 0.72536 0.33295 0.0
C566 C 0.60401 0.67247 0.40178 0.0
C567 C 0.63644 0.65415 0.3591 0.0
N568 N 0.59216 0.71079 0.35616 0.0
N569 N 0.63567 0.6769 0.34461 0.0
H570 H 0.4864 0.07151 0.5286 0.0
H571 H 0.5455 0.22377 0.6127 0.0
H572 H 0.55564 0.14516 0.45973 0.0
H573 H 0.45451 0.15247 0.63494 0.0
H574 H 0.55178 0.19727 0.55719 0.0
H575 H 0.4767 0.10187 0.57064 0.0
C576 C 0.49949 0.09414 0.52235 0.0
C577 C 0.52183 0.10588 0.4908 0.0
C578 C 0.53027 0.18774 0.57373 0.0
C579 C 0.51116 0.14095 0.53902 0.0
C580 C 0.52662 0.2029 0.60513 0.0
C581 C 0.49957 0.19014 0.62871 0.0
C582 C 0.50681 0.15963 0.56649 0.0
C583 C 0.47589 0.16293 0.61791 0.0
C584 C 0.49386 0.11147 0.54611 0.0
C585 C 0.53808 0.13536 0.48367 0.0
N586 N 0.48023 0.14846 0.58821 0.0
N587 N 0.53274 0.152 0.50803 0.0
H588 H 0.38266 0.44796 0.02276 0.0
H589 H 0.40328 0.56481 0.18015 0.0
H590 H 0.46238 0.53239 0.025 0.0
H591 H 0.3202 0.48336 0.17024 0.0
H592 H 0.42236 0.55574 0.11646 0.0
H593 H 0.35658 0.46275 0.0688 0.0
C594 C 0.39446 0.4698 0.0321 0.0
C595 C 0.42489 0.48884 0.02022 0.0
C596 C 0.39983 0.53995 0.12785 0.0
C597 C 0.3953 0.50581 0.07388 0.0
C598 C 0.3889 0.54515 0.16417 0.0
C599 C 0.36019 0.5247 0.18067 0.0
C600 C 0.38222 0.51387 0.10816 0.0
C601 C 0.34242 0.4997 0.15855 0.0
C602 C 0.37958 0.47821 0.05862 0.0
C603 C 0.43897 0.5169 0.03332 0.0
N604 N 0.35391 0.49479 0.12383 0.0
N605 N 0.42426 0.52438 0.06002 0.0
H606 H 0.97663 0.43598 0.52887 0.0
H607 H 0.82757 0.34131 0.67024 0.0
H608 H 0.93339 0.46805 0.60356 0.0
H609 H 0.88639 0.31372 0.63072 0.0
H610 H 0.8555 0.38328 0.62363 0.0
H611 H 0.93375 0.38746 0.54463 0.0
C612 C 0.95758 0.43282 0.54725 0.0
C613 C 0.95847 0.45591 0.5651 0.0
C614 C 0.86169 0.36758 0.62408 0.0
C615 C 0.90972 0.40082 0.58344 0.0
C616 C 0.84546 0.34345 0.65024 0.0
C617 C 0.85467 0.32407 0.65413 0.0
C618 C 0.88734 0.37233 0.60184 0.0
C619 C 0.87853 0.32817 0.62832 0.0
C620 C 0.93328 0.40519 0.55655 0.0
C621 C 0.93354 0.45073 0.58936 0.0
N622 N 0.89438 0.35207 0.60378 0.0
N623 N 0.91035 0.42379 0.59812 0.0
H624 H 0.50413 0.91086 0.00366 0.0
H625 H 0.60889 0.86201 0.10058 0.0
H626 H 0.59586 0.94564 0.96006 0.0
H627 H 0.51166 0.81375 0.11575 0.0
H628 H 0.60414 0.88912 0.04242 0.0
H629 H 0.50541 0.87219 0.03925 0.0
C630 C 0.52445 0.91013 0.00131 0.0
C631 C 0.55003 0.93158 0.97934 0.0
C632 C 0.58373 0.872 0.05749 0.0
C633 C 0.55188 0.88752 0.02029 0.0
C634 C 0.58646 0.85636 0.09032 0.0
C635 C 0.56057 0.83547 0.11239 0.0
C636 C 0.55496 0.86714 0.04755 0.0
C637 C 0.53207 0.82945 0.09897 0.0
C638 C 0.52515 0.88798 0.02139 0.0
C639 C 0.57568 0.92948 0.9767 0.0
N640 N 0.53004 0.84557 0.06793 0.0
N641 N 0.57617 0.90812 -0.0024 0.0
H642 H 0.65241 0.57616 0.56323 0.0
H643 H 0.68981 0.50187 0.7524 0.0
H644 H 0.58604 0.49734 0.62522 0.0
H645 H 0.75392 0.5865 0.7062 0.0
H646 H 0.65417 0.49707 0.69766 0.0
H647 H 0.69171 0.57852 0.60919 0.0
C648 C 0.64602 0.55945 0.58667 0.0
C649 C 0.61575 0.5366 0.59049 0.0
C650 C 0.67624 0.51653 0.69883 0.0
C651 C 0.66081 0.53892 0.64263 0.0
C652 C 0.69673 0.51906 0.72964 0.0
C653 C 0.72493 0.54444 0.73326 0.0
C654 C 0.68383 0.53968 0.67167 0.0
C655 C 0.73258 0.56643 0.70383 0.0
C656 C 0.66853 0.56075 0.61273 0.0
C657 C 0.60894 0.51548 0.62126 0.0
N658 N 0.71199 0.56367 0.67448 0.0
N659 N 0.63126 0.51713 0.64598 0.0
H660 H 0.17017 0.60242 0.02283 0.0
H661 H 0.2278 0.7477 0.13786 0.0
H662 H 0.13899 0.65828 -0.00895 0.0
H663 H 0.24105 0.68182 0.18386 0.0
H664 H 0.20666 0.72169 0.07266 0.0
H665 H 0.20757 0.63782 0.06996 0.0
C666 C 0.17151 0.62234 0.02537 0.0
C667 C 0.15104 0.62718 0.00364 0.0
C668 C 0.21482 0.71326 0.09664 0.0
C669 C 0.19375 0.66783 0.05771 0.0
C670 C 0.22708 0.72818 0.13359 0.0
C671 C 0.23598 0.71671 0.16608 0.0
C672 C 0.21168 0.68685 0.09234 0.0
C673 C 0.23429 0.69123 0.15946 0.0
C674 C 0.19287 0.64256 0.05224 0.0
C675 C 0.15423 0.65362 0.00734 0.0
N676 N 0.22208 0.67703 0.12353 0.0
N677 N 0.17484 0.67281 0.03448 0.0
loop_
_geom_bond_atom_site_label_1
_geom_bond_atom_site_label_2
_geom_bond_distance
_geom_bond_site_symmetry_2
_ccdc_geom_bond_type
Cu0 N1 1.999 1_454 S
Cu0 O6 1.974 1_454 S
Cu0 N11 1.985 . S
Cu0 O20 1.959 . S
N1 Cu0 1.999 1_656 S
N1 C3 1.263 . S
N1 C5 1.389 1_556 S
N2 C3 1.358 . S
N2 C4 1.400 . S
C3 N1 1.263 . S
C3 N2 1.358 . S
C3 H9 0.930 . S
C4 N2 1.400 . S
C4 C5 1.351 1_556 S
C4 H21 0.930 . S
C5 N1 1.389 1_554 S
C5 C4 1.351 1_554 S
C5 H10 0.930 . S
O6 Cu0 1.974 1_656 S
O6 C16 1.282 . S
C7 O8 1.261 1_554 S
C7 O20 1.251 . S
O8 C7 1.261 1_556 S
H9 C3 0.930 . S
H10 C5 0.930 . S
N11 Cu0 1.985 . S
N11 C13 1.335 . S
N11 C14 1.390 . S
N12 C13 1.345 . S
N12 C15 1.336 . S
C13 N11 1.335 . S
C13 N12 1.345 . S
C13 H18 0.930 . S
C14 N11 1.390 . S
C14 C15 1.346 . S
C14 H19 0.930 1_554 S
C15 N12 1.336 . S
C15 C14 1.346 . S
C15 H22 0.929 . S
C16 O6 1.282 . S
C16 O17 1.180 1_655 S
O17 C16 1.180 1_455 S
H18 C13 0.930 . S
H19 C14 0.930 1_556 S
O20 Cu0 1.959 . S
O20 C7 1.251 . S
H21 C4 0.930 . S
H22 C15 0.929 . S
Cu23 N24 1.999 . S
Cu23 O29 1.974 . S
Cu23 N34 1.985 1_565 S
Cu23 O43 1.959 1_565 S
N24 Cu23 1.999 . S
N24 C26 1.263 . S
N24 C28 1.389 . S
N25 C26 1.358 . S
N25 C27 1.400 . S
C26 N24 1.263 . S
C26 N25 1.358 . S
C26 H32 0.930 . S
C27 N25 1.400 . S
C27 C28 1.351 . S
C27 H44 0.930 . S
C28 N24 1.389 . S
C28 C27 1.351 . S
C28 H33 0.930 . S
O29 Cu23 1.974 . S
O29 C39 1.282 . S
C30 O31 1.261 . S
C30 O43 1.251 . S
O31 C30 1.261 . S
H32 C26 0.930 . S
H33 C28 0.930 . S
N34 Cu23 1.985 1_545 S
N34 C36 1.335 . S
N34 C37 1.390 . S
N35 C36 1.345 . S
N35 C38 1.336 . S
C36 N34 1.335 . S
C36 N35 1.345 . S
C36 H41 0.930 . S
C37 N34 1.390 . S
C37 C38 1.346 . S
C37 H42 0.930 . S
C38 N35 1.336 . S
C38 C37 1.346 . S
C38 H45 0.929 . S
C39 O29 1.282 . S
C39 O40 1.216 . S
O40 C39 1.216 . S
H41 C36 0.930 . S
H42 C37 0.930 . S
O43 Cu23 1.959 1_545 S
O43 C30 1.251 . S
H44 C27 0.930 . S
H45 C38 0.929 . S
Cu46 N47 1.999 1_554 S
Cu46 O52 1.974 1_554 S
Cu46 N57 1.985 . S
Cu46 O66 1.959 . S
N47 Cu46 1.999 1_556 S
N47 C49 1.263 . S
N47 C51 1.389 . S
N48 C49 1.358 . S
N48 C50 1.400 . S
C49 N47 1.263 . S
C49 N48 1.358 . S
C49 H55 0.930 . S
C50 N48 1.400 . S
C50 C51 1.351 . S
C50 H67 0.930 . S
C51 N47 1.389 . S
C51 C50 1.351 . S
C51 H56 0.930 . S
O52 Cu46 1.974 1_556 S
O52 C62 1.282 . S
C53 O54 1.261 . S
C53 O66 1.251 . S
O54 C53 1.261 . S
H55 C49 0.930 . S
H56 C51 0.930 . S
N57 Cu46 1.985 . S
N57 C59 1.335 . S
N57 C60 1.390 . S
N58 C59 1.345 . S
N58 C61 1.336 . S
C59 N57 1.335 . S
C59 N58 1.345 . S
C59 H64 0.930 . S
C60 N57 1.390 . S
C60 C61 1.346 . S
C60 H65 0.930 . S
C61 N58 1.336 . S
C61 C60 1.346 . S
C61 H68 0.929 . S
C62 O52 1.282 . S
C62 O63 1.216 1_556 S
O63 C62 1.216 1_554 S
H64 C59 0.930 . S
H65 C60 0.930 . S
O66 Cu46 1.959 . S
O66 C53 1.251 . S
H67 C50 0.930 . S
H68 C61 0.929 . S
Cu69 N70 1.999 1_655 S
Cu69 O75 1.974 1_655 S
Cu69 N80 1.985 . S
Cu69 O89 1.959 . S
N70 Cu69 1.999 1_455 S
N70 C72 1.263 . S
N70 C74 1.389 1_455 S
N71 C72 1.358 . S
N71 C73 1.400 . S
C72 N70 1.263 . S
C72 N71 1.358 . S
C72 H78 0.930 . S
C73 N71 1.400 . S
C73 C74 1.351 1_455 S
C73 H90 0.930 . S
C74 N70 1.389 1_655 S
C74 C73 1.351 1_655 S
C74 H79 0.930 . S
O75 Cu69 1.974 1_455 S
O75 C85 1.282 . S
C76 O77 1.261 . S
C76 O89 1.251 . S
O77 C76 1.261 . S
H78 C72 0.930 . S
H79 C74 0.930 . S
N80 Cu69 1.985 . S
N80 C82 1.335 . S
N80 C83 1.390 . S
N81 C82 1.345 . S
N81 C84 1.336 . S
C82 N80 1.335 . S
C82 N81 1.345 . S
C82 H87 0.930 . S
C83 N80 1.390 . S
C83 C84 1.346 . S
C83 H88 0.930 1_655 S
C84 N81 1.336 . S
C84 C83 1.346 . S
C84 H91 0.929 . S
C85 O75 1.282 . S
C85 O86 1.216 . S
O86 C85 1.216 . S
H87 C82 0.930 . S
H88 C83 0.930 1_455 S
O89 Cu69 1.959 . S
O89 C76 1.251 . S
H90 C73 0.930 . S
H91 C84 0.929 . S
Cu92 N93 1.999 . S
Cu92 O98 1.974 . S
Cu92 N103 1.985 1_545 S
Cu92 O112 1.959 1_545 S
N93 Cu92 1.999 . S
N93 C95 1.263 1_554 S
N93 C97 1.389 . S
N94 C95 1.358 . S
N94 C96 1.400 1_556 S
C95 N93 1.263 1_556 S
C95 N94 1.358 . S
C95 H101 0.930 . S
C96 N94 1.400 1_554 S
C96 C97 1.351 . S
C96 H113 0.930 . S
C97 N93 1.389 . S
C97 C96 1.351 . S
C97 H102 0.930 . S
O98 Cu92 1.974 . S
O98 C108 1.282 1_554 S
C99 O100 1.261 . S
C99 O112 1.251 . S
O100 C99 1.261 . S
H101 C95 0.930 . S
H102 C97 0.930 . S
N103 Cu92 1.985 1_565 S
N103 C105 1.335 . S
N103 C106 1.390 . S
N104 C105 1.345 . S
N104 C107 1.336 . S
C105 N103 1.335 . S
C105 N104 1.345 . S
C105 H110 0.930 . S
C106 N103 1.390 . S
C106 C107 1.346 . S
C106 H111 0.930 1_565 S
C107 N104 1.336 . S
C107 C106 1.346 . S
C107 H114 0.929 . S
C108 O98 1.282 1_556 S
C108 O109 1.216 . S
O109 C108 1.216 . S
H110 C105 0.930 . S
H111 C106 0.930 1_545 S
O112 Cu92 1.959 1_565 S
O112 C99 1.251 . S
H113 C96 0.930 . S
H114 C107 0.929 . S
Cu115 N116 1.999 . S
Cu115 O121 1.974 . S
Cu115 N126 1.985 . S
Cu115 O135 1.959 . S
N116 Cu115 1.999 . S
N116 C118 1.263 . S
N116 C120 1.389 . S
N117 C118 1.358 . S
N117 C119 1.400 . S
C118 N116 1.263 . S
C118 N117 1.358 . S
C118 H124 0.930 . S
C119 N117 1.400 . S
C119 C120 1.351 . S
C119 H136 0.930 . S
C120 N116 1.389 . S
C120 C119 1.351 . S
C120 H125 0.930 . S
O121 Cu115 1.974 . S
O121 C131 1.282 . S
C122 O123 1.261 . S
C122 O135 1.251 . S
O123 C122 1.261 . S
H124 C118 0.930 . S
H125 C120 0.930 . S
N126 Cu115 1.985 . S
N126 C128 1.335 . S
N126 C129 1.390 . S
N127 C128 1.345 . S
N127 C130 1.336 . S
C128 N126 1.335 . S
C128 N127 1.345 . S
C128 H133 0.930 . S
C129 N126 1.390 . S
C129 C130 1.346 . S
C129 H134 0.930 . S
C130 N127 1.336 . S
C130 C129 1.346 . S
C130 H137 0.929 . S
C131 O121 1.282 . S
C131 O132 1.216 . S
O132 C131 1.216 . S
H133 C128 0.930 . S
H134 C129 0.930 . S
O135 Cu115 1.959 . S
O135 C122 1.251 . S
H136 C119 0.930 . S
H137 C130 0.929 . S
H138 C144 0.930 . S
H139 C147 0.931 . S
H140 C149 0.931 . S
H141 C151 0.930 . S
H142 C153 0.930 . S
H143 C155 0.931 . S
C144 H138 0.930 . S
C144 C145 1.380 . S
C144 C146 1.394 . S
C145 C144 1.380 . S
C145 C149 1.382 . S
C146 C144 1.394 . S
C146 C147 1.400 . S
C147 H139 0.931 . S
C147 C146 1.400 . S
C147 C148 1.375 . S
C148 C147 1.375 . S
C148 C149 1.415 . S
C148 C150 1.501 . S
C149 H140 0.931 . S
C149 C145 1.382 . S
C149 C148 1.415 . S
C150 C148 1.501 . S
C150 C151 1.384 . S
C150 C155 1.408 . S
C151 H141 0.930 . S
C151 C150 1.384 . S
C151 C152 1.389 . S
C152 C151 1.389 . S
C152 C153 1.405 . S
C153 H142 0.930 . S
C153 C152 1.405 . S
C153 C154 1.364 . S
C154 C153 1.364 . S
C154 C155 1.400 . S
C155 H143 0.931 . S
C155 C150 1.408 . S
C155 C154 1.400 . S
H156 C162 0.930 . S
H157 C165 0.931 . S
H158 C167 0.931 . S
H159 C169 0.930 . S
H160 C171 0.930 . S
H161 C173 0.931 . S
C162 H156 0.930 . S
C162 C163 1.380 . S
C162 C164 1.394 . S
C163 C162 1.380 . S
C163 C167 1.382 . S
C164 C162 1.394 . S
C164 C165 1.400 . S
C165 H157 0.931 . S
C165 C164 1.400 . S
C165 C166 1.375 . S
C166 C165 1.375 . S
C166 C167 1.415 . S
C166 C168 1.501 . S
C167 H158 0.931 . S
C167 C163 1.382 . S
C167 C166 1.415 . S
C168 C166 1.501 . S
C168 C169 1.384 . S
C168 C173 1.408 . S
C169 H159 0.930 . S
C169 C168 1.384 . S
C169 C170 1.389 . S
C170 C169 1.389 . S
C170 C171 1.405 . S
C171 H160 0.930 . S
C171 C170 1.405 . S
C171 C172 1.364 . S
C172 C171 1.364 . S
C172 C173 1.400 . S
C173 H161 0.931 . S
C173 C168 1.408 . S
C173 C172 1.400 . S
H174 C180 0.930 . S
H175 C183 0.931 . S
H176 C185 0.931 . S
H177 C187 0.930 . S
H178 C189 0.930 . S
H179 C191 0.931 . S
C180 H174 0.930 . S
C180 C181 1.380 . S
C180 C182 1.394 . S
C181 C180 1.380 . S
C181 C185 1.382 . S
C182 C180 1.394 . S
C182 C183 1.400 . S
C183 H175 0.931 . S
C183 C182 1.400 . S
C183 C184 1.375 . S
C184 C183 1.375 . S
C184 C185 1.415 . S
C184 C186 1.501 . S
C185 H176 0.931 . S
C185 C181 1.382 . S
C185 C184 1.415 . S
C186 C184 1.501 . S
C186 C187 1.384 . S
C186 C191 1.408 . S
C187 H177 0.930 . S
C187 C186 1.384 . S
C187 C188 1.389 . S
C188 C187 1.389 . S
C188 C189 1.405 . S
C189 H178 0.930 . S
C189 C188 1.405 . S
C189 C190 1.364 . S
C190 C189 1.364 . S
C190 C191 1.400 . S
C191 H179 0.931 . S
C191 C186 1.408 . S
C191 C190 1.400 . S
H192 C198 0.930 . S
H193 C201 0.931 . S
H194 C203 0.931 . S
H195 C205 0.930 . S
H196 C207 0.930 . S
H197 C209 0.931 . S
C198 H192 0.930 . S
C198 C199 1.380 . S
C198 C200 1.394 . S
C199 C198 1.380 . S
C199 C203 1.382 . S
C200 C198 1.394 . S
C200 C201 1.400 . S
C201 H193 0.931 . S
C201 C200 1.400 . S
C201 C202 1.375 . S
C202 C201 1.375 . S
C202 C203 1.415 . S
C202 C204 1.501 . S
C203 H194 0.931 . S
C203 C199 1.382 . S
C203 C202 1.415 . S
C204 C202 1.501 . S
C204 C205 1.384 . S
C204 C209 1.408 . S
C205 H195 0.930 . S
C205 C204 1.384 . S
C205 C206 1.389 . S
C206 C205 1.389 . S
C206 C207 1.405 . S
C207 H196 0.930 . S
C207 C206 1.405 . S
C207 C208 1.364 . S
C208 C207 1.364 . S
C208 C209 1.400 . S
C209 H197 0.931 . S
C209 C204 1.408 . S
C209 C208 1.400 . S
H210 C216 0.930 . S
H211 C219 0.931 . S
H212 C221 0.931 . S
H213 C223 0.930 . S
H214 C225 0.930 . S
H215 C227 0.931 . S
C216 H210 0.930 . S
C216 C217 1.380 . S
C216 C218 1.394 . S
C217 C216 1.380 . S
C217 C221 1.382 . S
C218 C216 1.394 . S
C218 C219 1.400 . S
C219 H211 0.931 . S
C219 C218 1.400 . S
C219 C220 1.375 . S
C220 C219 1.375 . S
C220 C221 1.415 . S
C220 C222 1.501 . S
C221 H212 0.931 . S
C221 C217 1.382 . S
C221 C220 1.415 . S
C222 C220 1.501 . S
C222 C223 1.384 . S
C222 C227 1.408 . S
C223 H213 0.930 . S
C223 C222 1.384 . S
C223 C224 1.389 . S
C224 C223 1.389 . S
C224 C225 1.405 . S
C225 H214 0.930 . S
C225 C224 1.405 . S
C225 C226 1.364 . S
C226 C225 1.364 . S
C226 C227 1.400 . S
C227 H215 0.931 . S
C227 C222 1.408 . S
C227 C226 1.400 . S
H228 C234 0.930 . S
H229 C237 0.931 . S
H230 C239 0.931 . S
H231 C241 0.930 . S
H232 C243 0.930 . S
H233 C245 0.931 . S
C234 H228 0.930 . S
C234 C235 1.380 . S
C234 C236 1.394 . S
C235 C234 1.380 . S
C235 C239 1.382 . S
C236 C234 1.394 . S
C236 C237 1.400 . S
C237 H229 0.931 . S
C237 C236 1.400 . S
C237 C238 1.375 . S
C238 C237 1.375 . S
C238 C239 1.415 . S
C238 C240 1.501 . S
C239 H230 0.931 . S
C239 C235 1.382 . S
C239 C238 1.415 . S
C240 C238 1.501 . S
C240 C241 1.384 . S
C240 C245 1.408 . S
C241 H231 0.930 . S
C241 C240 1.384 . S
C241 C242 1.389 . S
C242 C241 1.389 . S
C242 C243 1.405 . S
C243 H232 0.930 . S
C243 C242 1.405 . S
C243 C244 1.364 . S
C244 C243 1.364 . S
C244 C245 1.400 . S
C245 H233 0.931 . S
C245 C240 1.408 . S
C245 C244 1.400 . S
H246 C252 0.930 . S
H247 C256 0.930 . S
H248 C261 0.929 . S
H249 C259 0.929 . S
H250 C254 0.929 . S
H251 C260 0.929 . S
C252 H246 0.930 . S
C252 C253 1.367 . S
C252 C260 1.378 . S
C253 C252 1.367 . S
C253 C261 1.433 . S
C254 H250 0.929 . S
C254 C256 1.378 . S
C254 C258 1.350 . S
C255 C258 1.463 . S
C255 C260 1.350 . S
C255 N263 1.427 . S
C256 H247 0.930 . S
C256 C254 1.378 . S
C256 C257 1.367 . S
C257 C256 1.367 . S
C257 C259 1.433 . S
C258 C254 1.350 . S
C258 C255 1.463 . S
C258 N262 1.427 . S
C259 H249 0.929 . S
C259 C257 1.433 . S
C259 N262 1.384 . S
C260 H251 0.929 . S
C260 C252 1.378 . S
C260 C255 1.350 . S
C261 H248 0.929 . S
C261 C253 1.433 . S
C261 N263 1.384 . S
N262 C258 1.427 . S
N262 C259 1.384 . S
N263 C255 1.427 . S
N263 C261 1.384 . S
H264 C270 0.930 . S
H265 C274 0.930 . S
H266 C279 0.929 . S
H267 C277 0.929 . S
H268 C272 0.929 . S
H269 C278 0.929 . S
C270 H264 0.930 . S
C270 C271 1.367 . S
C270 C278 1.378 . S
C271 C270 1.367 . S
C271 C279 1.433 . S
C272 H268 0.929 . S
C272 C274 1.378 . S
C272 C276 1.350 . S
C273 C276 1.463 . S
C273 C278 1.350 . S
C273 N281 1.427 . S
C274 H265 0.930 . S
C274 C272 1.378 . S
C274 C275 1.367 . S
C275 C274 1.367 . S
C275 C277 1.433 . S
C276 C272 1.350 . S
C276 C273 1.463 . S
C276 N280 1.427 . S
C277 H267 0.929 . S
C277 C275 1.433 . S
C277 N280 1.384 . S
C278 H269 0.929 . S
C278 C270 1.378 . S
C278 C273 1.350 . S
C279 H266 0.929 . S
C279 C271 1.433 . S
C279 N281 1.384 . S
N280 C276 1.427 . S
N280 C277 1.384 . S
N281 C273 1.427 . S
N281 C279 1.384 . S
H282 C288 0.930 . S
H283 C292 0.930 . S
H284 C297 0.929 . S
H285 C295 0.929 . S
H286 C290 0.929 . S
H287 C296 0.929 . S
C288 H282 0.930 . S
C288 C289 1.367 . S
C288 C296 1.378 . S
C289 C288 1.367 . S
C289 C297 1.433 . S
C290 H286 0.929 . S
C290 C292 1.378 . S
C290 C294 1.350 . S
C291 C294 1.463 . S
C291 C296 1.350 . S
C291 N299 1.427 . S
C292 H283 0.930 . S
C292 C290 1.378 . S
C292 C293 1.367 . S
C293 C292 1.367 . S
C293 C295 1.433 . S
C294 C290 1.350 . S
C294 C291 1.463 . S
C294 N298 1.427 . S
C295 H285 0.929 . S
C295 C293 1.433 . S
C295 N298 1.384 . S
C296 H287 0.929 . S
C296 C288 1.378 . S
C296 C291 1.350 . S
C297 H284 0.929 . S
C297 C289 1.433 . S
C297 N299 1.384 . S
N298 C294 1.427 . S
N298 C295 1.384 . S
N299 C291 1.427 . S
N299 C297 1.384 . S
H300 C306 0.930 . S
H301 C310 0.930 . S
H302 C315 0.929 . S
H303 C313 0.929 . S
H304 C308 0.929 . S
H305 C314 0.929 . S
C306 H300 0.930 . S
C306 C307 1.367 . S
C306 C314 1.378 . S
C307 C306 1.367 . S
C307 C315 1.433 . S
C308 H304 0.929 . S
C308 C310 1.378 . S
C308 C312 1.350 . S
C309 C312 1.463 . S
C309 C314 1.350 . S
C309 N317 1.427 . S
C310 H301 0.930 . S
C310 C308 1.378 . S
C310 C311 1.367 . S
C311 C310 1.367 . S
C311 C313 1.433 . S
C312 C308 1.350 . S
C312 C309 1.463 . S
C312 N316 1.427 . S
C313 H303 0.929 . S
C313 C311 1.433 . S
C313 N316 1.384 . S
C314 H305 0.929 . S
C314 C306 1.378 . S
C314 C309 1.350 . S
C315 H302 0.929 . S
C315 C307 1.433 . S
C315 N317 1.384 . S
N316 C312 1.427 . S
N316 C313 1.384 . S
N317 C309 1.427 . S
N317 C315 1.384 . S
H318 C324 0.930 . S
H319 C328 0.930 . S
H320 C333 0.929 . S
H321 C331 0.929 . S
H322 C326 0.929 . S
H323 C332 0.929 . S
C324 H318 0.930 . S
C324 C325 1.367 . S
C324 C332 1.378 . S
C325 C324 1.367 . S
C325 C333 1.433 . S
C326 H322 0.929 . S
C326 C328 1.378 . S
C326 C330 1.350 . S
C327 C330 1.463 . S
C327 C332 1.350 . S
C327 N335 1.427 . S
C328 H319 0.930 . S
C328 C326 1.378 . S
C328 C329 1.367 . S
C329 C328 1.367 . S
C329 C331 1.433 . S
C330 C326 1.350 . S
C330 C327 1.463 . S
C330 N334 1.427 . S
C331 H321 0.929 . S
C331 C329 1.433 . S
C331 N334 1.384 . S
C332 H323 0.929 . S
C332 C324 1.378 . S
C332 C327 1.350 . S
C333 H320 0.929 . S
C333 C325 1.433 . S
C333 N335 1.384 . S
N334 C330 1.427 . S
N334 C331 1.384 . S
N335 C327 1.427 . S
N335 C333 1.384 . S
H336 C342 0.930 . S
H337 C346 0.930 . S
H338 C351 0.929 . S
H339 C349 0.929 . S
H340 C344 0.929 . S
H341 C350 0.929 . S
C342 H336 0.930 . S
C342 C343 1.367 . S
C342 C350 1.378 . S
C343 C342 1.367 . S
C343 C351 1.433 . S
C344 H340 0.929 . S
C344 C346 1.378 . S
C344 C348 1.350 . S
C345 C348 1.463 . S
C345 C350 1.350 . S
C345 N353 1.427 . S
C346 H337 0.930 . S
C346 C344 1.378 . S
C346 C347 1.367 . S
C347 C346 1.367 . S
C347 C349 1.433 . S
C348 C344 1.350 . S
C348 C345 1.463 . S
C348 N352 1.427 . S
C349 H339 0.929 . S
C349 C347 1.433 . S
C349 N352 1.384 . S
C350 H341 0.929 . S
C350 C342 1.378 . S
C350 C345 1.350 . S
C351 H338 0.929 . S
C351 C343 1.433 . S
C351 N353 1.384 . S
N352 C348 1.427 . S
N352 C349 1.384 . S
N353 C345 1.427 . S
N353 C351 1.384 . S
H354 C360 0.930 . S
H355 C364 0.930 . S
H356 C369 0.929 . S
H357 C367 0.929 . S
H358 C362 0.929 . S
H359 C368 0.929 . S
C360 H354 0.930 . S
C360 C361 1.367 . S
C360 C368 1.378 . S
C361 C360 1.367 . S
C361 C369 1.433 . S
C362 H358 0.929 . S
C362 C364 1.378 . S
C362 C366 1.350 . S
C363 C366 1.463 . S
C363 C368 1.350 . S
C363 N371 1.427 . S
C364 H355 0.930 . S
C364 C362 1.378 . S
C364 C365 1.367 . S
C365 C364 1.367 . S
C365 C367 1.433 . S
C366 C362 1.350 . S
C366 C363 1.463 . S
C366 N370 1.427 . S
C367 H357 0.929 . S
C367 C365 1.433 . S
C367 N370 1.384 . S
C368 H359 0.929 . S
C368 C360 1.378 . S
C368 C363 1.350 . S
C369 H356 0.929 . S
C369 C361 1.433 . S
C369 N371 1.384 . S
N370 C366 1.427 . S
N370 C367 1.384 . S
N371 C363 1.427 . S
N371 C369 1.384 . S
H372 C378 0.930 . S
H373 C382 0.930 . S
H374 C387 0.929 . S
H375 C385 0.929 . S
H376 C380 0.929 . S
H377 C386 0.929 . S
C378 H372 0.930 . S
C378 C379 1.367 . S
C378 C386 1.378 . S
C379 C378 1.367 . S
C379 C387 1.433 . S
C380 H376 0.929 . S
C380 C382 1.378 . S
C380 C384 1.350 . S
C381 C384 1.463 . S
C381 C386 1.350 . S
C381 N389 1.427 . S
C382 H373 0.930 . S
C382 C380 1.378 . S
C382 C383 1.367 . S
C383 C382 1.367 . S
C383 C385 1.433 . S
C384 C380 1.350 . S
C384 C381 1.463 . S
C384 N388 1.427 . S
C385 H375 0.929 . S
C385 C383 1.433 . S
C385 N388 1.384 . S
C386 H377 0.929 . S
C386 C378 1.378 . S
C386 C381 1.350 . S
C387 H374 0.929 . S
C387 C379 1.433 . S
C387 N389 1.384 . S
N388 C384 1.427 . S
N388 C385 1.384 . S
N389 C381 1.427 . S
N389 C387 1.384 . S
H390 C396 0.930 . S
H391 C400 0.930 . S
H392 C405 0.929 . S
H393 C403 0.929 . S
H394 C398 0.929 . S
H395 C404 0.929 . S
C396 H390 0.930 . S
C396 C397 1.367 . S
C396 C404 1.378 . S
C397 C396 1.367 . S
C397 C405 1.433 . S
C398 H394 0.929 . S
C398 C400 1.378 . S
C398 C402 1.350 . S
C399 C402 1.463 . S
C399 C404 1.350 . S
C399 N407 1.427 . S
C400 H391 0.930 . S
C400 C398 1.378 . S
C400 C401 1.367 . S
C401 C400 1.367 . S
C401 C403 1.433 . S
C402 C398 1.350 . S
C402 C399 1.463 . S
C402 N406 1.427 . S
C403 H393 0.929 . S
C403 C401 1.433 . S
C403 N406 1.384 . S
C404 H395 0.929 . S
C404 C396 1.378 . S
C404 C399 1.350 . S
C405 H392 0.929 . S
C405 C397 1.433 . S
C405 N407 1.384 . S
N406 C402 1.427 . S
N406 C403 1.384 . S
N407 C399 1.427 . S
N407 C405 1.384 . S
H408 C414 0.930 . S
H409 C418 0.930 . S
H410 C423 0.929 . S
H411 C421 0.929 . S
H412 C416 0.929 . S
H413 C422 0.929 . S
C414 H408 0.930 . S
C414 C415 1.367 . S
C414 C422 1.378 . S
C415 C414 1.367 . S
C415 C423 1.433 . S
C416 H412 0.929 . S
C416 C418 1.378 . S
C416 C420 1.350 . S
C417 C420 1.463 . S
C417 C422 1.350 . S
C417 N425 1.427 . S
C418 H409 0.930 . S
C418 C416 1.378 . S
C418 C419 1.367 . S
C419 C418 1.367 . S
C419 C421 1.433 . S
C420 C416 1.350 . S
C420 C417 1.463 . S
C420 N424 1.427 . S
C421 H411 0.929 . S
C421 C419 1.433 . S
C421 N424 1.384 . S
C422 H413 0.929 . S
C422 C414 1.378 . S
C422 C417 1.350 . S
C423 H410 0.929 . S
C423 C415 1.433 . S
C423 N425 1.384 . S
N424 C420 1.427 . S
N424 C421 1.384 . S
N425 C417 1.427 . S
N425 C423 1.384 . S
H426 C432 0.930 . S
H427 C436 0.930 . S
H428 C441 0.929 . S
H429 C439 0.929 . S
H430 C434 0.929 . S
H431 C440 0.929 . S
C432 H426 0.930 . S
C432 C433 1.367 . S
C432 C440 1.378 . S
C433 C432 1.367 . S
C433 C441 1.433 . S
C434 H430 0.929 . S
C434 C436 1.378 . S
C434 C438 1.350 . S
C435 C438 1.463 . S
C435 C440 1.350 . S
C435 N443 1.427 . S
C436 H427 0.930 . S
C436 C434 1.378 . S
C436 C437 1.367 . S
C437 C436 1.367 . S
C437 C439 1.433 . S
C438 C434 1.350 . S
C438 C435 1.463 . S
C438 N442 1.427 . S
C439 H429 0.929 . S
C439 C437 1.433 . S
C439 N442 1.384 . S
C440 H431 0.929 . S
C440 C432 1.378 . S
C440 C435 1.350 . S
C441 H428 0.929 . S
C441 C433 1.433 . S
C441 N443 1.384 . S
N442 C438 1.427 . S
N442 C439 1.384 . S
N443 C435 1.427 . S
N443 C441 1.384 . S
H444 C450 0.930 . S
H445 C454 0.930 . S
H446 C459 0.929 . S
H447 C457 0.929 . S
H448 C452 0.929 . S
H449 C458 0.929 . S
C450 H444 0.930 . S
C450 C451 1.367 . S
C450 C458 1.378 . S
C451 C450 1.367 . S
C451 C459 1.433 . S
C452 H448 0.929 . S
C452 C454 1.378 . S
C452 C456 1.350 . S
C453 C456 1.463 . S
C453 C458 1.350 . S
C453 N461 1.427 . S
C454 H445 0.930 . S
C454 C452 1.378 . S
C454 C455 1.367 . S
C455 C454 1.367 . S
C455 C457 1.433 . S
C456 C452 1.350 . S
C456 C453 1.463 . S
C456 N460 1.427 . S
C457 H447 0.929 . S
C457 C455 1.433 . S
C457 N460 1.384 . S
C458 H449 0.929 . S
C458 C450 1.378 . S
C458 C453 1.350 . S
C459 H446 0.929 . S
C459 C451 1.433 . S
C459 N461 1.384 . S
N460 C456 1.427 . S
N460 C457 1.384 . S
N461 C453 1.427 . S
N461 C459 1.384 . S
H462 C468 0.930 . S
H463 C472 0.930 . S
H464 C477 0.929 . S
H465 C475 0.929 . S
H466 C470 0.929 . S
H467 C476 0.929 . S
C468 H462 0.930 . S
C468 C469 1.367 . S
C468 C476 1.378 . S
C469 C468 1.367 . S
C469 C477 1.433 . S
C470 H466 0.929 . S
C470 C472 1.378 . S
C470 C474 1.350 . S
C471 C474 1.463 . S
C471 C476 1.350 . S
C471 N479 1.427 . S
C472 H463 0.930 . S
C472 C470 1.378 . S
C472 C473 1.367 . S
C473 C472 1.367 . S
C473 C475 1.433 . S
C474 C470 1.350 . S
C474 C471 1.463 . S
C474 N478 1.427 . S
C475 H465 0.929 . S
C475 C473 1.433 . S
C475 N478 1.384 . S
C476 H467 0.929 . S
C476 C468 1.378 . S
C476 C471 1.350 . S
C477 H464 0.929 . S
C477 C469 1.433 . S
C477 N479 1.384 . S
N478 C474 1.427 . S
N478 C475 1.384 . S
N479 C471 1.427 . S
N479 C477 1.384 . S
H480 C486 0.930 . S
H481 C490 0.930 . S
H482 C495 0.929 . S
H483 C493 0.929 . S
H484 C488 0.929 . S
H485 C494 0.929 . S
C486 H480 0.930 . S
C486 C487 1.367 . S
C486 C494 1.378 . S
C487 C486 1.367 . S
C487 C495 1.433 . S
C488 H484 0.929 . S
C488 C490 1.378 . S
C488 C492 1.350 . S
C489 C492 1.463 . S
C489 C494 1.350 . S
C489 N497 1.427 . S
C490 H481 0.930 . S
C490 C488 1.378 . S
C490 C491 1.367 . S
C491 C490 1.367 . S
C491 C493 1.433 . S
C492 C488 1.350 . S
C492 C489 1.463 . S
C492 N496 1.427 . S
C493 H483 0.929 . S
C493 C491 1.433 . S
C493 N496 1.384 . S
C494 H485 0.929 . S
C494 C486 1.378 . S
C494 C489 1.350 . S
C495 H482 0.929 . S
C495 C487 1.433 . S
C495 N497 1.384 . S
N496 C492 1.427 . S
N496 C493 1.384 . S
N497 C489 1.427 . S
N497 C495 1.384 . S
H498 C504 0.930 . S
H499 C508 0.930 . S
H500 C513 0.929 . S
H501 C511 0.929 . S
H502 C506 0.929 . S
H503 C512 0.929 . S
C504 H498 0.930 . S
C504 C505 1.367 . S
C504 C512 1.378 . S
C505 C504 1.367 . S
C505 C513 1.433 . S
C506 H502 0.929 . S
C506 C508 1.378 . S
C506 C510 1.350 . S
C507 C510 1.463 . S
C507 C512 1.350 . S
C507 N515 1.427 . S
C508 H499 0.930 . S
C508 C506 1.378 . S
C508 C509 1.367 . S
C509 C508 1.367 . S
C509 C511 1.433 . S
C510 C506 1.350 . S
C510 C507 1.463 . S
C510 N514 1.427 . S
C511 H501 0.929 . S
C511 C509 1.433 . S
C511 N514 1.384 . S
C512 H503 0.929 . S
C512 C504 1.378 . S
C512 C507 1.350 . S
C513 H500 0.929 . S
C513 C505 1.433 . S
C513 N515 1.384 . S
N514 C510 1.427 . S
N514 C511 1.384 . S
N515 C507 1.427 . S
N515 C513 1.384 . S
H516 C522 0.930 . S
H517 C526 0.930 . S
H518 C531 0.929 . S
H519 C529 0.929 . S
H520 C524 0.929 . S
H521 C530 0.929 . S
C522 H516 0.930 . S
C522 C523 1.367 . S
C522 C530 1.378 . S
C523 C522 1.367 . S
C523 C531 1.433 . S
C524 H520 0.929 . S
C524 C526 1.378 . S
C524 C528 1.350 . S
C525 C528 1.463 . S
C525 C530 1.350 . S
C525 N533 1.427 . S
C526 H517 0.930 . S
C526 C524 1.378 . S
C526 C527 1.367 . S
C527 C526 1.367 . S
C527 C529 1.433 . S
C528 C524 1.350 . S
C528 C525 1.463 . S
C528 N532 1.427 . S
C529 H519 0.929 . S
C529 C527 1.433 . S
C529 N532 1.384 . S
C530 H521 0.929 . S
C530 C522 1.378 . S
C530 C525 1.350 . S
C531 H518 0.929 . S
C531 C523 1.433 . S
C531 N533 1.384 . S
N532 C528 1.427 . S
N532 C529 1.384 . S
N533 C525 1.427 . S
N533 C531 1.384 . S
H534 C540 0.930 . S
H535 C544 0.930 . S
H536 C549 0.929 . S
H537 C547 0.929 . S
H538 C542 0.929 . S
H539 C548 0.929 . S
C540 H534 0.930 . S
C540 C541 1.367 . S
C540 C548 1.378 . S
C541 C540 1.367 . S
C541 C549 1.433 . S
C542 H538 0.929 . S
C542 C544 1.378 . S
C542 C546 1.350 . S
C543 C546 1.463 . S
C543 C548 1.350 . S
C543 N551 1.427 . S
C544 H535 0.930 . S
C544 C542 1.378 . S
C544 C545 1.367 . S
C545 C544 1.367 . S
C545 C547 1.433 . S
C546 C542 1.350 . S
C546 C543 1.463 . S
C546 N550 1.427 . S
C547 H537 0.929 . S
C547 C545 1.433 . S
C547 N550 1.384 . S
C548 H539 0.929 . S
C548 C540 1.378 . S
C548 C543 1.350 . S
C549 H536 0.929 . S
C549 C541 1.433 . S
C549 N551 1.384 . S
N550 C546 1.427 . S
N550 C547 1.384 . S
N551 C543 1.427 . S
N551 C549 1.384 . S
H552 C558 0.930 . S
H553 C562 0.930 . S
H554 C567 0.929 . S
H555 C565 0.929 . S
H556 C560 0.929 . S
H557 C566 0.929 . S
C558 H552 0.930 . S
C558 C559 1.367 . S
C558 C566 1.378 . S
C559 C558 1.367 . S
C559 C567 1.433 . S
C560 H556 0.929 . S
C560 C562 1.378 . S
C560 C564 1.350 . S
C561 C564 1.463 . S
C561 C566 1.350 . S
C561 N569 1.427 . S
C562 H553 0.930 . S
C562 C560 1.378 . S
C562 C563 1.367 . S
C563 C562 1.367 . S
C563 C565 1.433 . S
C564 C560 1.350 . S
C564 C561 1.463 . S
C564 N568 1.427 . S
C565 H555 0.929 . S
C565 C563 1.433 . S
C565 N568 1.384 . S
C566 H557 0.929 . S
C566 C558 1.378 . S
C566 C561 1.350 . S
C567 H554 0.929 . S
C567 C559 1.433 . S
C567 N569 1.384 . S
N568 C564 1.427 . S
N568 C565 1.384 . S
N569 C561 1.427 . S
N569 C567 1.384 . S
H570 C576 0.930 . S
H571 C580 0.930 . S
H572 C585 0.929 . S
H573 C583 0.929 . S
H574 C578 0.929 . S
H575 C584 0.929 . S
C576 H570 0.930 . S
C576 C577 1.367 . S
C576 C584 1.378 . S
C577 C576 1.367 . S
C577 C585 1.433 . S
C578 H574 0.929 . S
C578 C580 1.378 . S
C578 C582 1.350 . S
C579 C582 1.463 . S
C579 C584 1.350 . S
C579 N587 1.427 . S
C580 H571 0.930 . S
C580 C578 1.378 . S
C580 C581 1.367 . S
C581 C580 1.367 . S
C581 C583 1.433 . S
C582 C578 1.350 . S
C582 C579 1.463 . S
C582 N586 1.427 . S
C583 H573 0.929 . S
C583 C581 1.433 . S
C583 N586 1.384 . S
C584 H575 0.929 . S
C584 C576 1.378 . S
C584 C579 1.350 . S
C585 H572 0.929 . S
C585 C577 1.433 . S
C585 N587 1.384 . S
N586 C582 1.427 . S
N586 C583 1.384 . S
N587 C579 1.427 . S
N587 C585 1.384 . S
H588 C594 0.930 . S
H589 C598 0.930 . S
H590 C603 0.929 . S
H591 C601 0.929 . S
H592 C596 0.929 . S
H593 C602 0.929 . S
C594 H588 0.930 . S
C594 C595 1.367 . S
C594 C602 1.378 . S
C595 C594 1.367 . S
C595 C603 1.433 . S
C596 H592 0.929 . S
C596 C598 1.378 . S
C596 C600 1.350 . S
C597 C600 1.463 . S
C597 C602 1.350 . S
C597 N605 1.427 . S
C598 H589 0.930 . S
C598 C596 1.378 . S
C598 C599 1.367 . S
C599 C598 1.367 . S
C599 C601 1.433 . S
C600 C596 1.350 . S
C600 C597 1.463 . S
C600 N604 1.427 . S
C601 H591 0.929 . S
C601 C599 1.433 . S
C601 N604 1.384 . S
C602 H593 0.929 . S
C602 C594 1.378 . S
C602 C597 1.350 . S
C603 H590 0.929 . S
C603 C595 1.433 . S
C603 N605 1.384 . S
N604 C600 1.427 . S
N604 C601 1.384 . S
N605 C597 1.427 . S
N605 C603 1.384 . S
H606 C612 0.930 . S
H607 C616 0.930 . S
H608 C621 0.929 . S
H609 C619 0.929 . S
H610 C614 0.929 . S
H611 C620 0.929 . S
C612 H606 0.930 . S
C612 C613 1.367 . S
C612 C620 1.378 . S
C613 C612 1.367 . S
C613 C621 1.433 . S
C614 H610 0.929 . S
C614 C616 1.378 . S
C614 C618 1.350 . S
C615 C618 1.463 . S
C615 C620 1.350 . S
C615 N623 1.427 . S
C616 H607 0.930 . S
C616 C614 1.378 . S
C616 C617 1.367 . S
C617 C616 1.367 . S
C617 C619 1.433 . S
C618 C614 1.350 . S
C618 C615 1.463 . S
C618 N622 1.427 . S
C619 H609 0.929 . S
C619 C617 1.433 . S
C619 N622 1.384 . S
C620 H611 0.929 . S
C620 C612 1.378 . S
C620 C615 1.350 . S
C621 H608 0.929 . S
C621 C613 1.433 . S
C621 N623 1.384 . S
N622 C618 1.427 . S
N622 C619 1.384 . S
N623 C615 1.427 . S
N623 C621 1.384 . S
H624 C630 0.930 . S
H625 C634 0.930 . S
H626 C639 0.929 . S
H627 C637 0.929 . S
H628 C632 0.929 . S
H629 C638 0.929 . S
C630 H624 0.930 . S
C630 C631 1.367 . S
C630 C638 1.378 . S
C631 C630 1.367 . S
C631 C639 1.433 . S
C632 H628 0.929 . S
C632 C634 1.378 . S
C632 C636 1.350 . S
C633 C636 1.463 . S
C633 C638 1.350 . S
C633 N641 1.427 . S
C634 H625 0.930 . S
C634 C632 1.378 . S
C634 C635 1.367 . S
C635 C634 1.367 . S
C635 C637 1.433 . S
C636 C632 1.350 . S
C636 C633 1.463 . S
C636 N640 1.427 . S
C637 H627 0.929 . S
C637 C635 1.433 . S
C637 N640 1.384 . S
C638 H629 0.929 . S
C638 C630 1.378 . S
C638 C633 1.350 . S
C639 H626 0.929 . S
C639 C631 1.433 . S
C639 N641 1.384 . S
N640 C636 1.427 . S
N640 C637 1.384 . S
N641 C633 1.427 . S
N641 C639 1.384 . S
H642 C648 0.930 . S
H643 C652 0.930 . S
H644 C657 0.929 . S
H645 C655 0.929 . S
H646 C650 0.929 . S
H647 C656 0.929 . S
C648 H642 0.930 . S
C648 C649 1.367 . S
C648 C656 1.378 . S
C649 C648 1.367 . S
C649 C657 1.433 . S
C650 H646 0.929 . S
C650 C652 1.378 . S
C650 C654 1.350 . S
C651 C654 1.463 . S
C651 C656 1.350 . S
C651 N659 1.427 . S
C652 H643 0.930 . S
C652 C650 1.378 . S
C652 C653 1.367 . S
C653 C652 1.367 . S
C653 C655 1.433 . S
C654 C650 1.350 . S
C654 C651 1.463 . S
C654 N658 1.427 . S
C655 H645 0.929 . S
C655 C653 1.433 . S
C655 N658 1.384 . S
C656 H647 0.929 . S
C656 C648 1.378 . S
C656 C651 1.350 . S
C657 H644 0.929 . S
C657 C649 1.433 . S
C657 N659 1.384 . S
N658 C654 1.427 . S
N658 C655 1.384 . S
N659 C651 1.427 . S
N659 C657 1.384 . S
H660 C666 0.930 . S
H661 C670 0.930 . S
H662 C675 0.929 . S
H663 C673 0.929 . S
H664 C668 0.929 . S
H665 C674 0.929 . S
C666 H660 0.930 . S
C666 C667 1.367 . S
C666 C674 1.378 . S
C667 C666 1.367 . S
C667 C675 1.433 . S
C668 H664 0.929 . S
C668 C670 1.378 . S
C668 C672 1.350 . S
C669 C672 1.463 . S
C669 C674 1.350 . S
C669 N677 1.427 . S
C670 H661 0.930 . S
C670 C668 1.378 . S
C670 C671 1.367 . S
C671 C670 1.367 . S
C671 C673 1.433 . S
C672 C668 1.350 . S
C672 C669 1.463 . S
C672 N676 1.427 . S
C673 H663 0.929 . S
C673 C671 1.433 . S
C673 N676 1.384 . S
C674 H665 0.929 . S
C674 C666 1.378 . S
C674 C669 1.350 . S
C675 H662 0.929 . S
C675 C667 1.433 . S
C675 N677 1.384 . S
N676 C672 1.427 . S
N676 C673 1.384 . S
N677 C669 1.427 . S
N677 C675 1.384 . S
C253 C7 1.755 . S
C257 C152 1.675 . S
C271 C30 1.517 . S
C275 C163 1.466 . S
C293 C182 1.584 . S
C289 N58 1.597 . S
C311 C199 1.364 . S
C307 N81 1.352 . S
C329 C226 1.603 . S
C325 C99 1.642 . S
C347 C235 1.374 . S
C343 N127 1.401 . S
C361 N25 1.604 . S
C365 C188 1.569 . S
C379 C62 1.509 . S
C383 C208 1.460 . S
C401 C217 1.636 . S
C397 C85 1.704 . S
C419 C244 1.394 . S
C415 N94 1.405 . S
C433 C131 1.676 . S
C437 C146 1.631 . S
C455 C172 1.353 . S
C451 N2 1.358 . S
C473 C200 1.668 . S
C469 C16 1.760 . S
C487 C39 1.533 . S
C491 C224 1.455 . S
C509 C236 1.584 . S
C505 N48 1.642 . S
C523 N71 1.415 . S
C527 C154 1.363 . S
C541 C108 1.693 . S
C545 C164 1.638 . S
C559 N117 1.451 . S
C563 C181 1.399 . S
C577 N35 1.650 . S
C581 C242 1.609 . S
C599 C145 1.465 . S
C595 C53 1.564 . S
C613 C76 1.790 . S
C617 C170 1.689 . S
C631 N104 1.446 . S
C635 C190 1.386 . S
C649 C122 1.687 . S
C653 C206 1.616 . S
C667 N12 1.388 . S
C671 C218 1.369 . S
