# Generated by pormake.
# Topology eea, (3,6)-cn, num edge types: 1
# Building blocks:
#     Node 0, Type 0, BuildingBlock: CUQRIR_clean_linker_1, # of connection points: 3
#     Node 1, Type 0, BuildingBlock: CUQRIR_clean_linker_1, # of connection points: 3
#     Node 2, Type 0, BuildingBlock: CUQRIR_clean_linker_1, # of connection points: 3
#     Node 3, Type 0, BuildingBlock: CUQRIR_clean_linker_1, # of connection points: 3
#     Node 4, Type 0, BuildingBlock: CUQRIR_clean_linker_1, # of connection points: 3
#     Node 5, Type 0, BuildingBlock: CUQRIR_clean_linker_1, # of connection points: 3
#     Node 6, Type 0, BuildingBlock: CUQRIR_clean_linker_1, # of connection points: 3
#     Node 7, Type 0, BuildingBlock: CUQRIR_clean_linker_1, # of connection points: 3
#     Node 8, Type 0, BuildingBlock: CUQRIR_clean_linker_1, # of connection points: 3
#     Node 9, Type 0, BuildingBlock: CUQRIR_clean_linker_1, # of connection points: 3
#     Node 10, Type 0, BuildingBlock: CUQRIR_clean_linker_1, # of connection points: 3
#     Node 11, Type 0, BuildingBlock: CUQRIR_clean_linker_1, # of connection points: 3
#     Node 12, Type 0, BuildingBlock: CUQRIR_clean_linker_1, # of connection points: 3
#     Node 13, Type 0, BuildingBlock: CUQRIR_clean_linker_1, # of connection points: 3
#     Node 14, Type 0, BuildingBlock: CUQRIR_clean_linker_1, # of connection points: 3
#     Node 15, Type 0, BuildingBlock: CUQRIR_clean_linker_1, # of connection points: 3
#     Node 16, Type 0, BuildingBlock: CUQRIR_clean_linker_1, # of connection points: 3
#     Node 17, Type 0, BuildingBlock: CUQRIR_clean_linker_1, # of connection points: 3
#     Node 18, Type 1, BuildingBlock: HISSIN_clean_sbu_0, # of connection points: 6
#     Node 19, Type 1, BuildingBlock: HISSIN_clean_sbu_0, # of connection points: 6
#     Node 20, Type 1, BuildingBlock: HISSIN_clean_sbu_0, # of connection points: 6
#     Node 21, Type 1, BuildingBlock: HISSIN_clean_sbu_0, # of connection points: 6
#     Node 22, Type 1, BuildingBlock: HISSIN_clean_sbu_0, # of connection points: 6
#     Node 23, Type 1, BuildingBlock: HISSIN_clean_sbu_0, # of connection points: 6
#     Node 24, Type 1, BuildingBlock: HISSIN_clean_sbu_0, # of connection points: 6
#     Node 25, Type 1, BuildingBlock: HISSIN_clean_sbu_0, # of connection points: 6
#     Node 26, Type 1, BuildingBlock: HISSIN_clean_sbu_0, # of connection points: 6
#     Edge 27, Type (0, 1), BuildingBlock: EZIPEK_clean_linker_0, # of connection points: 2
#     Edge 28, Type (0, 1), BuildingBlock: EZIPEK_clean_linker_0, # of connection points: 2
#     Edge 29, Type (0, 1), BuildingBlock: EZIPEK_clean_linker_0, # of connection points: 2
#     Edge 30, Type (0, 1), BuildingBlock: EZIPEK_clean_linker_0, # of connection points: 2
#     Edge 31, Type (0, 1), BuildingBlock: EZIPEK_clean_linker_0, # of connection points: 2
#     Edge 32, Type (0, 1), BuildingBlock: EZIPEK_clean_linker_0, # of connection points: 2
#     Edge 33, Type (0, 1), BuildingBlock: EZIPEK_clean_linker_0, # of connection points: 2
#     Edge 34, Type (0, 1), BuildingBlock: EZIPEK_clean_linker_0, # of connection points: 2
#     Edge 35, Type (0, 1), BuildingBlock: EZIPEK_clean_linker_0, # of connection points: 2
#     Edge 36, Type (0, 1), BuildingBlock: EZIPEK_clean_linker_0, # of connection points: 2
#     Edge 37, Type (0, 1), BuildingBlock: EZIPEK_clean_linker_0, # of connection points: 2
#     Edge 38, Type (0, 1), BuildingBlock: EZIPEK_clean_linker_0, # of connection points: 2
#     Edge 39, Type (0, 1), BuildingBlock: EZIPEK_clean_linker_0, # of connection points: 2
#     Edge 40, Type (0, 1), BuildingBlock: EZIPEK_clean_linker_0, # of connection points: 2
#     Edge 41, Type (0, 1), BuildingBlock: EZIPEK_clean_linker_0, # of connection points: 2
#     Edge 42, Type (0, 1), BuildingBlock: EZIPEK_clean_linker_0, # of connection points: 2
#     Edge 43, Type (0, 1), BuildingBlock: EZIPEK_clean_linker_0, # of connection points: 2
#     Edge 44, Type (0, 1), BuildingBlock: EZIPEK_clean_linker_0, # of connection points: 2
#     Edge 45, Type (0, 1), BuildingBlock: EZIPEK_clean_linker_0, # of connection points: 2
#     Edge 46, Type (0, 1), BuildingBlock: EZIPEK_clean_linker_0, # of connection points: 2
#     Edge 47, Type (0, 1), BuildingBlock: EZIPEK_clean_linker_0, # of connection points: 2
#     Edge 48, Type (0, 1), BuildingBlock: EZIPEK_clean_linker_0, # of connection points: 2
#     Edge 49, Type (0, 1), BuildingBlock: EZIPEK_clean_linker_0, # of connection points: 2
#     Edge 50, Type (0, 1), BuildingBlock: EZIPEK_clean_linker_0, # of connection points: 2
#     Edge 51, Type (0, 1), BuildingBlock: EZIPEK_clean_linker_0, # of connection points: 2
#     Edge 52, Type (0, 1), BuildingBlock: EZIPEK_clean_linker_0, # of connection points: 2
#     Edge 53, Type (0, 1), BuildingBlock: EZIPEK_clean_linker_0, # of connection points: 2
#     Edge 54, Type (0, 1), BuildingBlock: EZIPEK_clean_linker_0, # of connection points: 2
#     Edge 55, Type (0, 1), BuildingBlock: EZIPEK_clean_linker_0, # of connection points: 2
#     Edge 56, Type (0, 1), BuildingBlock: EZIPEK_clean_linker_0, # of connection points: 2
#     Edge 57, Type (0, 1), BuildingBlock: EZIPEK_clean_linker_0, # of connection points: 2
#     Edge 58, Type (0, 1), BuildingBlock: EZIPEK_clean_linker_0, # of connection points: 2
#     Edge 59, Type (0, 1), BuildingBlock: EZIPEK_clean_linker_0, # of connection points: 2
#     Edge 60, Type (0, 1), BuildingBlock: EZIPEK_clean_linker_0, # of connection points: 2
#     Edge 61, Type (0, 1), BuildingBlock: EZIPEK_clean_linker_0, # of connection points: 2
#     Edge 62, Type (0, 1), BuildingBlock: EZIPEK_clean_linker_0, # of connection points: 2
#     Edge 63, Type (0, 1), BuildingBlock: EZIPEK_clean_linker_0, # of connection points: 2
#     Edge 64, Type (0, 1), BuildingBlock: EZIPEK_clean_linker_0, # of connection points: 2
#     Edge 65, Type (0, 1), BuildingBlock: EZIPEK_clean_linker_0, # of connection points: 2
#     Edge 66, Type (0, 1), BuildingBlock: EZIPEK_clean_linker_0, # of connection points: 2
#     Edge 67, Type (0, 1), BuildingBlock: EZIPEK_clean_linker_0, # of connection points: 2
#     Edge 68, Type (0, 1), BuildingBlock: EZIPEK_clean_linker_0, # of connection points: 2
#     Edge 69, Type (0, 1), BuildingBlock: EZIPEK_clean_linker_0, # of connection points: 2
#     Edge 70, Type (0, 1), BuildingBlock: EZIPEK_clean_linker_0, # of connection points: 2
#     Edge 71, Type (0, 1), BuildingBlock: EZIPEK_clean_linker_0, # of connection points: 2
#     Edge 72, Type (0, 1), BuildingBlock: EZIPEK_clean_linker_0, # of connection points: 2
#     Edge 73, Type (0, 1), BuildingBlock: EZIPEK_clean_linker_0, # of connection points: 2
#     Edge 74, Type (0, 1), BuildingBlock: EZIPEK_clean_linker_0, # of connection points: 2
#     Edge 75, Type (0, 1), BuildingBlock: EZIPEK_clean_linker_0, # of connection points: 2
#     Edge 76, Type (0, 1), BuildingBlock: EZIPEK_clean_linker_0, # of connection points: 2
#     Edge 77, Type (0, 1), BuildingBlock: EZIPEK_clean_linker_0, # of connection points: 2
#     Edge 78, Type (0, 1), BuildingBlock: EZIPEK_clean_linker_0, # of connection points: 2
#     Edge 79, Type (0, 1), BuildingBlock: EZIPEK_clean_linker_0, # of connection points: 2
#     Edge 80, Type (0, 1), BuildingBlock: EZIPEK_clean_linker_0, # of connection points: 2
# Relax obj value: 0.109
# Max RMSD: 0.270
# Mean RMSD: 0.197
data_MOF--net-eea--node1-HISSIN_clean_sbu_0--node2-CUQRIR_clean_linker_1--edge1-EZIPEK_clean_linker_0
_symmetry_space_group_name_H-M    P1
_symmetry_Int_Tables_number       1
_symmetry_cell_setting            triclinic
loop_
_symmetry_equiv_pos_as_xyz
'x, y, z'
_cell_length_a     34.430095
_cell_length_b     35.647963
_cell_length_c     50.770777
_cell_angle_alpha  86.555054
_cell_angle_beta   92.771485
_cell_angle_gamma 118.86092
loop_
_atom_site_label
_atom_site_type_symbol
_atom_site_fract_x
_atom_site_fract_y
_atom_site_fract_z
_atom_type_partial_charge
C0 C 0.21452 0.10833 0.40278 0.0
N1 N 0.22853 0.14164 0.4189 0.0
N2 N 0.2187 0.07569 0.41513 0.0
C3 C 0.19759 0.10787 0.37484 0.0
C4 C 0.23521 0.08994 0.43941 0.0
N5 N 0.24079 0.12984 0.44186 0.0
C6 C 0.24737 0.06535 0.46025 0.0
H7 H 0.18342 0.12996 0.37181 0.0
H8 H 0.17209 0.07517 0.36962 0.0
H9 H 0.22552 0.11828 0.36122 0.0
H10 H 0.28167 0.0717 0.45693 0.0
H11 H 0.22483 0.03039 0.45893 0.0
H12 H 0.24635 0.07531 0.48035 0.0
C13 C 0.91685 0.12307 0.41139 0.0
N14 N 0.93536 0.15541 0.42853 0.0
N15 N 0.87487 0.09469 0.41796 0.0
C16 C 0.93931 0.11971 0.38764 0.0
C17 C 0.86808 0.11032 0.4398 0.0
N18 N 0.90478 0.1471 0.44669 0.0
C19 C 0.82597 0.08819 0.45517 0.0
H20 H 0.92624 0.08571 0.38278 0.0
H21 H 0.97574 0.13481 0.39101 0.0
H22 H 0.93249 0.13659 0.37047 0.0
H23 H 0.82758 0.06374 0.46908 0.0
H24 H 0.79687 0.07151 0.44171 0.0
H25 H 0.82152 0.11136 0.46661 0.0
C26 C 0.88407 0.76622 0.40802 0.0
N27 N 0.90803 0.75321 0.42431 0.0
N28 N 0.85367 0.77031 0.42154 0.0
C29 C 0.89251 0.77786 0.3791 0.0
C30 C 0.85947 0.75908 0.44667 0.0
N31 N 0.8923 0.74827 0.44857 0.0
C32 C 0.83188 0.75715 0.46931 0.0
H33 H 0.91785 0.81212 0.37673 0.0
H34 H 0.86177 0.77319 0.36834 0.0
H35 H 0.90531 0.75828 0.37036 0.0
H36 H 0.80225 0.72493 0.47063 0.0
H37 H 0.82043 0.78136 0.46619 0.0
H38 H 0.85106 0.76248 0.48821 0.0
C39 C 0.12003 0.25052 0.65583 0.0
N40 N 0.14887 0.26017 0.6361 0.0
N41 N 0.07986 0.24272 0.64605 0.0
C42 C 0.13056 0.24618 0.6846 0.0
C43 C 0.08513 0.24841 0.61968 0.0
N44 N 0.1272 0.25927 0.6134 0.0
C45 C 0.04968 0.24537 0.60003 0.0
H46 H 0.13141 0.21558 0.68834 0.0
H47 H 0.10547 0.24637 0.69741 0.0
H48 H 0.1638 0.27269 0.68984 0.0
H49 H 0.05208 0.27747 0.5968 0.0
H50 H 0.01616 0.22269 0.60743 0.0
H51 H 0.05427 0.23489 0.58082 0.0
C52 C 0.79434 0.89356 0.65879 0.0
N53 N 0.78201 0.86524 0.63938 0.0
N54 N 0.78265 0.92407 0.65231 0.0
C55 C 0.81887 0.89193 0.68378 0.0
C56 C 0.76266 0.91355 0.62832 0.0
N57 N 0.76269 0.87808 0.62002 0.0
C58 C 0.74494 0.93934 0.61256 0.0
H59 H 0.8293 0.92066 0.69551 0.0
H60 H 0.84848 0.88926 0.67888 0.0
H61 H 0.79715 0.86293 0.69594 0.0
H62 H 0.77257 0.96624 0.60178 0.0
H63 H 0.73101 0.95325 0.62583 0.0
H64 H 0.71899 0.9194 0.59807 0.0
C65 C 0.10576 0.91302 0.65371 0.0
N66 N 0.08791 0.87871 0.63805 0.0
N67 N 0.14418 0.94467 0.64379 0.0
C68 C 0.0864 0.91544 0.67907 0.0
C69 C 0.14909 0.9289 0.62138 0.0
N70 N 0.1146 0.88917 0.61748 0.0
C71 C 0.18727 0.95288 0.60303 0.0
H72 H 0.0503 0.89274 0.67968 0.0
H73 H 0.09214 0.94843 0.68156 0.0
H74 H 0.10325 0.90735 0.69587 0.0
H75 H 0.19161 0.93074 0.59054 0.0
H76 H 0.21852 0.97204 0.6143 0.0
H77 H 0.1807 0.97545 0.59005 0.0
C78 C 0.87413 0.43857 0.73572 0.0
N79 N 0.89178 0.47201 0.752 0.0
N80 N 0.87886 0.40534 0.74654 0.0
C81 C 0.85365 0.43873 0.7089 0.0
C82 C 0.89942 0.41927 0.77007 0.0
N83 N 0.9069 0.45954 0.77362 0.0
C84 C 0.91425 0.39427 0.78897 0.0
H85 H 0.84054 0.46177 0.70749 0.0
H86 H 0.82654 0.40628 0.70446 0.0
H87 H 0.87928 0.4482 0.69376 0.0
H88 H 0.94927 0.40373 0.78499 0.0
H89 H 0.89375 0.35929 0.78638 0.0
H90 H 0.91259 0.40137 0.80971 0.0
C91 C 0.58346 0.45556 0.74205 0.0
N92 N 0.60206 0.48662 0.75997 0.0
N93 N 0.54145 0.42687 0.74842 0.0
C94 C 0.60592 0.45404 0.71776 0.0
C95 C 0.53476 0.44118 0.77088 0.0
N96 N 0.57165 0.4773 0.77839 0.0
C97 C 0.49261 0.4184 0.78617 0.0
H98 H 0.60443 0.4768 0.70238 0.0
H99 H 0.58944 0.42151 0.70977 0.0
H100 H 0.64136 0.46399 0.72222 0.0
H101 H 0.49386 0.39292 0.79927 0.0
H102 H 0.46348 0.40288 0.77259 0.0
H103 H 0.48849 0.44089 0.79847 0.0
C104 C 0.54219 0.09193 0.73666 0.0
N105 N 0.56552 0.07833 0.75308 0.0
N106 N 0.50618 0.0878 0.74871 0.0
C107 C 0.55701 0.11364 0.70986 0.0
C108 C 0.50746 0.07035 0.77283 0.0
N109 N 0.5435 0.0645 0.77571 0.0
C110 C 0.47348 0.05902 0.79373 0.0
H111 H 0.52831 0.10316 0.69587 0.0
H112 H 0.58209 0.10671 0.70172 0.0
H113 H 0.57156 0.14879 0.71156 0.0
H114 H 0.45373 0.07588 0.79 0.0
H115 H 0.48994 0.06678 0.8135 0.0
H116 H 0.45035 0.02404 0.79387 0.0
C117 C 0.79485 0.58573 0.98874 0.0
N118 N 0.82317 0.59458 0.96879 0.0
N119 N 0.75513 0.57972 0.97934 0.0
C120 C 0.8052 0.58028 1.01739 0.0
C121 C 0.76013 0.58596 0.95299 0.0
N122 N 0.80168 0.59539 0.94634 0.0
C123 C 0.72483 0.58454 0.93378 0.0
H124 H 0.79621 0.54625 0.0219 0.0
H125 H 0.78574 0.58884 0.03024 0.0
H126 H 0.84115 0.60041 0.02177 0.0
H127 H 0.72654 0.61648 0.93234 0.0
H128 H 0.69137 0.56066 0.9407 0.0
H129 H 0.72991 0.57657 0.91387 0.0
C130 C 0.47199 0.23336 0.98812 0.0
N131 N 0.45601 0.20239 0.97012 0.0
N132 N 0.46054 0.26386 0.98126 0.0
C133 C 0.49844 0.23375 1.01267 0.0
C134 C 0.43747 0.25111 0.95834 0.0
N135 N 0.43498 0.21393 0.95114 0.0
C136 C 0.41883 0.27605 0.94253 0.0
H137 H 0.47566 0.21966 0.0295 0.0
H138 H 0.52311 0.2671 1.01735 0.0
H139 H 0.51574 0.21476 1.0104 0.0
H140 H 0.44537 0.30127 0.93017 0.0
H141 H 0.40733 0.29213 0.95581 0.0
H142 H 0.39091 0.25492 0.92945 0.0
C143 C 0.78122 0.24582 0.9883 0.0
N144 N 0.75951 0.21094 0.97337 0.0
N145 N 0.81952 0.27512 0.97687 0.0
C146 C 0.76456 0.25134 1.01379 0.0
C147 C 0.82031 0.25694 0.9544 0.0
N148 N 0.78376 0.21816 0.95205 0.0
C149 C 0.85615 0.27776 0.93434 0.0
H150 H 0.72958 0.24444 1.01107 0.0
H151 H 0.78502 0.28417 1.02099 0.0
H152 H 0.76518 0.22779 0.02888 0.0
H153 H 0.88833 0.29973 0.94389 0.0
H154 H 0.84713 0.29682 0.91971 0.0
H155 H 0.85964 0.25327 0.92373 0.0
C156 C 0.56125 0.77944 0.06676 0.0
N157 N 0.57216 0.81186 0.08325 0.0
N158 N 0.56067 0.74504 0.07996 0.0
C159 C 0.5507 0.78119 0.0378 0.0
C160 C 0.5721 0.7577 0.10503 0.0
N161 N 0.57953 0.79837 0.10708 0.0
C162 C 0.57735 0.73079 0.1274 0.0
H163 H 0.5144 0.76827 0.03491 0.0
H164 H 0.5607 0.76127 0.02689 0.0
H165 H 0.56769 0.81474 0.02966 0.0
H166 H 0.61217 0.73689 0.1283 0.0
H167 H 0.55526 0.69616 0.12433 0.0
H168 H 0.56996 0.73932 0.1465 0.0
C169 C 0.23864 0.79839 0.07227 0.0
N170 N 0.26 0.82866 0.0905 0.0
N171 N 0.20443 0.76291 0.08301 0.0
C172 C 0.25255 0.80269 0.04415 0.0
C173 C 0.20531 0.77238 0.10846 0.0
N174 N 0.23867 0.81244 0.11328 0.0
C175 C 0.17212 0.74292 0.12843 0.0
H176 H 0.22407 0.78191 0.0313 0.0
H177 H 0.27839 0.7927 0.0433 0.0
H178 H 0.26687 0.83651 0.03663 0.0
H179 H 0.16084 0.7089 0.12435 0.0
H180 H 0.14277 0.74809 0.1271 0.0
H181 H 0.18648 0.74954 0.14875 0.0
C182 C 0.2219 0.43529 0.07183 0.0
N183 N 0.24571 0.42264 0.08853 0.0
N184 N 0.18932 0.43667 0.08467 0.0
C185 C 0.23308 0.45041 0.04352 0.0
C186 C 0.19333 0.42396 0.10971 0.0
N187 N 0.22757 0.41523 0.11229 0.0
C188 C 0.16249 0.41832 0.13143 0.0
H189 H 0.20242 0.44127 0.03137 0.0
H190 H 0.25264 0.43687 0.03519 0.0
H191 H 0.25288 0.4859 0.04252 0.0
H192 H 0.13353 0.38567 0.13082 0.0
H193 H 0.15001 0.44178 0.12875 0.0
H194 H 0.17934 0.42193 0.15104 0.0
C195 C 0.45604 0.91688 0.32387 0.0
N196 N 0.4878 0.92924 0.30568 0.0
N197 N 0.41868 0.91458 0.31267 0.0
C198 C 0.46063 0.90431 0.3522 0.0
C199 C 0.4286 0.92612 0.28703 0.0
N200 N 0.47069 0.93499 0.28259 0.0
C201 C 0.39758 0.92977 0.26644 0.0
H202 H 0.45868 0.87226 0.35309 0.0
H203 H 0.43414 0.90298 0.36445 0.0
H204 H 0.49344 0.9274 0.36052 0.0
H205 H 0.40345 0.96327 0.26522 0.0
H206 H 0.36247 0.90822 0.27164 0.0
H207 H 0.40389 0.92199 0.24679 0.0
C208 C 0.1361 0.5676 0.3196 0.0
N209 N 0.12148 0.53672 0.30163 0.0
N210 N 0.12234 0.59649 0.31286 0.0
C211 C 0.16295 0.56911 0.34417 0.0
C212 C 0.09913 0.58269 0.29006 0.0
N213 N 0.09876 0.54646 0.28285 0.0
C214 C 0.07848 0.60588 0.27431 0.0
H215 H 0.18534 0.60275 0.34947 0.0
H216 H 0.18278 0.55267 0.34159 0.0
H217 H 0.14006 0.55267 0.36074 0.0
H218 H 0.1042 0.63195 0.26195 0.0
H219 H 0.06567 0.62073 0.28766 0.0
H220 H 0.0511 0.58384 0.26127 0.0
C221 C 0.44297 0.58198 0.32087 0.0
N222 N 0.42409 0.54676 0.30596 0.0
N223 N 0.48203 0.61211 0.31073 0.0
C224 C 0.42393 0.58688 0.34565 0.0
C225 C 0.48628 0.59449 0.28897 0.0
N226 N 0.45088 0.55512 0.28568 0.0
C227 C 0.52448 0.61653 0.27045 0.0
H228 H 0.38766 0.56495 0.34639 0.0
H229 H 0.43062 0.62042 0.34701 0.0
H230 H 0.4403 0.57944 0.36299 0.0
H231 H 0.52798 0.59311 0.2587 0.0
H232 H 0.55595 0.6358 0.28149 0.0
H233 H 0.51853 0.63876 0.25674 0.0
Eu234 Eu 0.49877 0.98199 1.00106 0.0
Eu235 Eu 0.52858 0.03374 0.05674 0.0
C236 C 0.48371 0.06297 1.00735 0.0
C237 C 0.49643 0.95754 0.92862 0.0
C238 C 0.49146 0.99113 0.91588 0.0
C239 C 0.53054 0.95176 0.88913 0.0
C240 C 0.50551 1.00457 0.88998 0.0
C241 C 0.51618 0.93806 0.91503 0.0
C242 C 0.52493 0.98489 0.87637 0.0
C243 C 0.48302 0.94362 0.9563 0.0
O244 O 0.45533 0.98959 0.06127 0.0
O245 O 0.44383 0.9404 0.03016 0.0
C246 C 0.43088 0.95229 0.05076 0.0
O247 O 0.5426 0.96084 0.02433 0.0
O248 O 0.52091 0.06769 0.08881 0.0
O249 O 0.57823 0.05781 0.08862 0.0
O250 O 0.52518 0.96939 0.06542 0.0
C251 C 0.53955 0.95129 0.04964 0.0
O252 O 0.55842 0.04635 0.99094 0.0
O253 O 0.59029 0.06134 0.03233 0.0
O254 O 0.51198 0.07522 0.02763 0.0
O255 O 0.51471 0.94774 0.97288 0.0
O256 O 0.45612 0.95484 0.96631 0.0
O257 O 0.46813 0.02516 0.9974 0.0
C258 C 0.54761 0.05255 0.12989 0.0
C259 C 0.50625 0.01873 0.13759 0.0
C260 C 0.57702 0.05093 0.17429 0.0
C261 C 0.50019 1.00162 0.16349 0.0
C262 C 0.58298 0.06839 0.14839 0.0
C263 C 0.53544 0.01764 0.18205 0.0
C264 C 0.55502 0.06942 0.10228 0.0
C265 C 0.59268 0.06821 1.00662 0.0
H266 H 0.47687 0.00712 0.9259 0.0
H267 H 0.54564 0.93636 0.87897 0.0
H268 H 0.5011 0.03034 0.88046 0.0
H269 H 0.5207 0.91236 0.92453 0.0
H270 H 0.47868 1.00533 0.12357 0.0
H271 H 0.60461 0.06352 0.18833 0.0
H272 H 0.46793 0.97579 0.16909 0.0
H273 H 0.6153 0.09402 0.14273 0.0
Eu274 Eu 0.03607 0.53496 0.99388 0.0
Eu275 Eu 0.99131 0.51278 0.05396 0.0
C276 C 0.94981 0.44344 1.00859 0.0
C277 C 0.04425 0.5446 0.91924 0.0
C278 C 0.01996 0.50259 0.91044 0.0
C279 C 0.02454 0.57114 0.87819 0.0
C280 C 0.99835 0.49502 0.88578 0.0
C281 C 0.04654 0.57881 0.9028 0.0
C282 C 0.00044 0.52918 0.86952 0.0
C283 C 0.06556 0.55311 0.94583 0.0
O284 O 0.03459 0.48201 0.05307 0.0
O285 O 0.08368 0.52406 1.02088 0.0
C286 C 0.07241 0.49672 0.04122 0.0
O287 O 0.06688 0.59756 1.01455 0.0
O288 O 0.9592 0.46733 0.08686 0.0
O289 O 0.9767 0.5339 0.09002 0.0
O290 O 0.05796 0.57176 0.05762 0.0
C291 C 0.07703 0.6029 0.03977 0.0
O292 O 0.97116 0.53449 0.98863 0.0
O293 O 0.96139 0.549 0.03065 0.0
O294 O 0.94163 0.4596 0.0289 0.0
O295 O 0.05887 0.57918 0.95952 0.0
O296 O 0.0632 0.52048 0.96029 0.0
O297 O 0.98673 0.46399 0.99528 0.0
C298 C 0.98416 0.49732 0.12867 0.0
C299 C 0.02195 0.49174 0.13146 0.0
C300 C 0.98787 0.50771 0.17581 0.0
C301 C 0.04258 0.49423 0.15629 0.0
C302 C 0.96709 0.5049 0.15106 0.0
C303 C 0.02606 0.50291 0.17858 0.0
C304 C 0.96326 0.49679 0.10249 0.0
C305 C 0.95332 0.5483 1.00506 0.0
H306 H 0.01721 0.47547 0.92264 0.0
H307 H 0.02634 0.59782 0.8659 0.0
H308 H 0.97973 0.4624 0.87939 0.0
H309 H 0.06494 0.61146 0.90915 0.0
H310 H 0.0359 0.48613 0.11441 0.0
H311 H 0.97474 0.51457 0.19274 0.0
H312 H 0.0721 0.49062 0.158 0.0
H313 H 0.9381 0.50939 0.14932 0.0
Eu314 Eu 0.51267 0.48829 0.06861 0.0
Eu315 Eu 0.49153 0.50639 1.00424 0.0
C316 C 0.5192 0.5784 0.04723 0.0
C317 C 0.5022 0.4786 0.14389 0.0
C318 C 0.52939 0.51088 0.1612 0.0
C319 C 0.44061 0.45626 0.17383 0.0
C320 C 0.51239 0.51614 0.1843 0.0
C321 C 0.45757 0.45114 0.15052 0.0
C322 C 0.46792 0.48905 0.19077 0.0
C323 C 0.52111 0.47429 0.11926 0.0
O324 O 0.56012 0.51432 1.00651 0.0
O325 O 0.57979 0.52538 0.05074 0.0
C326 C 0.58961 0.52725 0.0259 0.0
O327 O 0.51893 0.43923 0.04576 0.0
O328 O 0.50712 0.54888 0.969 0.0
O329 O 0.45699 0.48263 0.96634 0.0
O330 O 0.47312 0.43682 1.01052 0.0
C331 C 0.49451 0.4206 0.02493 0.0
O332 O 0.43922 0.45434 0.06136 0.0
O333 O 0.43195 0.49613 0.02724 0.0
O334 O 0.52159 0.57047 0.02266 0.0
O335 O 0.49476 0.4445 0.10339 0.0
O336 O 0.54747 0.50983 0.10641 0.0
O337 O 0.50778 0.54916 0.06659 0.0
C338 C 0.50238 0.51587 0.92881 0.0
C339 C 0.54683 0.52435 0.92865 0.0
C340 C 0.49648 0.50375 0.88165 0.0
C341 C 0.56589 0.52267 0.90516 0.0
C342 C 0.47752 0.50563 0.90506 0.0
C343 C 0.54077 0.51211 0.88144 0.0
C344 C 0.48181 0.51848 0.95327 0.0
C345 C 0.41605 0.46939 0.0479 0.0
H346 H 0.56389 0.53228 0.15677 0.0
H347 H 0.40621 0.43501 0.17855 0.0
H348 H 0.53398 0.54152 0.19719 0.0
H349 H 0.43568 0.42583 0.13769 0.0
H350 H 0.56682 0.53233 0.94668 0.0
H351 H 0.47644 0.49548 0.86365 0.0
H352 H 0.60007 0.52918 0.90552 0.0
H353 H 0.44333 0.49909 0.9046 0.0
Eu354 Eu 0.16839 0.31707 0.33541 0.0
Eu355 Eu 0.19689 0.3705 0.39064 0.0
C356 C 0.15606 0.40121 0.34022 0.0
C357 C 0.17176 0.29847 0.26321 0.0
C358 C 0.17465 0.33734 0.25317 0.0
C359 C 0.20276 0.29263 0.22247 0.0
C360 C 0.19047 0.35315 0.22783 0.0
C361 C 0.18648 0.27655 0.24779 0.0
C362 C 0.20404 0.33065 0.21213 0.0
C363 C 0.15512 0.28147 0.29001 0.0
O364 O 0.13267 0.3099 0.40011 0.0
O365 O 0.10437 0.28638 0.35855 0.0
C366 C 0.09963 0.2854 0.3843 0.0
O367 O 0.17793 0.27412 0.36628 0.0
O368 O 0.18266 0.39854 0.42342 0.0
O369 O 0.24749 0.40335 0.42099 0.0
O370 O 0.22645 0.32588 0.39381 0.0
C371 C 0.20808 0.28685 0.38532 0.0
O372 O 0.24232 0.36253 0.33413 0.0
O373 O 0.24688 0.41425 0.36066 0.0
O374 O 0.16076 0.39942 0.36605 0.0
O375 O 0.18469 0.28269 0.30747 0.0
O376 O 0.12808 0.29298 0.29958 0.0
O377 O 0.16369 0.37721 0.32485 0.0
C378 C 0.21691 0.39268 0.46326 0.0
C379 C 0.21865 0.35493 0.4702 0.0
C380 C 0.1959 0.39392 0.50791 0.0
C381 C 0.20573 0.33524 0.49523 0.0
C382 C 0.20811 0.41339 0.48274 0.0
C383 C 0.1883 0.35147 0.51347 0.0
C384 C 0.22043 0.40856 0.43559 0.0
C385 C 0.26298 0.40194 0.34211 0.0
H386 H 0.16445 0.35543 0.26482 0.0
H387 H 0.21326 0.27495 0.21068 0.0
H388 H 0.19145 0.38266 0.22025 0.0
H389 H 0.18517 0.24687 0.25529 0.0
H390 H 0.22875 0.33999 0.45606 0.0
H391 H 0.19237 0.41281 0.52241 0.0
H392 H 0.20823 0.30644 0.49973 0.0
H393 H 0.2096 0.44418 0.47833 0.0
Eu394 Eu 0.69898 0.86594 0.33051 0.0
Eu395 Eu 0.65527 0.84818 0.39047 0.0
C396 C 0.61155 0.77797 0.34619 0.0
C397 C 0.70482 0.87307 0.25559 0.0
C398 C 0.69249 0.83586 0.24174 0.0
C399 C 0.67542 0.90009 0.21895 0.0
C400 C 0.67157 0.83064 0.21698 0.0
C401 C 0.69619 0.90526 0.2439 0.0
C402 C 0.66283 0.86261 0.20544 0.0
C403 C 0.7263 0.87764 0.2821 0.0
O404 O 0.71657 0.84153 0.39573 0.0
O405 O 0.7255 0.82712 0.35349 0.0
C406 C 0.73346 0.82714 0.37898 0.0
O407 O 0.75196 0.917 0.35558 0.0
O408 O 0.62361 0.80382 0.42385 0.0
O409 O 0.63978 0.87012 0.42601 0.0
O410 O 0.70794 0.91765 0.38814 0.0
C411 C 0.74548 0.93502 0.37554 0.0
O412 O 0.66077 0.90184 0.33025 0.0
O413 O 0.61036 0.86271 0.36252 0.0
O414 O 0.62264 0.78436 0.37122 0.0
O415 O 0.72968 0.90854 0.29619 0.0
O416 O 0.71503 0.84229 0.29628 0.0
O417 O 0.63042 0.80851 0.32791 0.0
C418 C 0.64969 0.83542 0.46507 0.0
C419 C 0.6864 0.82805 0.46771 0.0
C420 C 0.65549 0.84734 0.51211 0.0
C421 C 0.70742 0.83028 0.49237 0.0
C422 C 0.63433 0.84486 0.4875 0.0
C423 C 0.69238 0.84039 0.51473 0.0
C424 C 0.6276 0.83368 0.43907 0.0
C425 C 0.62301 0.88931 0.34162 0.0
H426 H 0.69899 0.81067 0.25005 0.0
H427 H 0.66938 0.92528 0.21013 0.0
H428 H 0.6625 0.80171 0.20664 0.0
H429 H 0.70552 0.93447 0.25396 0.0
H430 H 0.699 0.82081 0.45068 0.0
H431 H 0.64345 0.85527 0.52912 0.0
H432 H 0.73587 0.82492 0.49396 0.0
H433 H 0.60616 0.85066 0.48594 0.0
Eu434 Eu 0.17437 0.82065 0.40032 0.0
Eu435 Eu 0.15126 0.84021 0.33652 0.0
C436 C 0.18001 0.91113 0.38033 0.0
C437 C 0.16553 0.81075 0.47546 0.0
C438 C 0.19454 0.83729 0.4949 0.0
C439 C 0.10301 0.79598 0.503 0.0
C440 C 0.17808 0.84367 0.51788 0.0
C441 C 0.1195 0.7899 0.47979 0.0
C442 C 0.13225 0.82347 0.52202 0.0
C443 C 0.18407 0.80629 0.45076 0.0
O444 O 0.2198 0.84807 0.33741 0.0
O445 O 0.24098 0.85649 0.3816 0.0
C446 C 0.24983 0.85926 0.35649 0.0
O447 O 0.17864 0.77125 0.37672 0.0
O448 O 0.16601 0.88431 0.30195 0.0
O449 O 0.11616 0.81804 0.29867 0.0
O450 O 0.13349 0.77061 0.34142 0.0
C451 C 0.15426 0.75353 0.35567 0.0
O452 O 0.10076 0.78636 0.39387 0.0
O453 O 0.09212 0.82862 0.36059 0.0
O454 O 0.18162 0.90384 0.35553 0.0
O455 O 0.15733 0.77662 0.43494 0.0
O456 O 0.21029 0.84185 0.4379 0.0
O457 O 0.16983 0.88161 0.39942 0.0
C458 C 0.16122 0.85354 0.26086 0.0
C459 C 0.16325 0.81699 0.25363 0.0
C460 C 0.1977 0.8901 0.21971 0.0
C461 C 0.18161 0.81683 0.22952 0.0
C462 C 0.1791 0.89018 0.24371 0.0
C463 C 0.19852 0.8532 0.21216 0.0
C464 C 0.14077 0.85438 0.28594 0.0
C465 C 0.07698 0.80134 0.38108 0.0
H466 H 0.23007 0.8536 0.49213 0.0
H467 H 0.06754 0.77999 0.50589 0.0
H468 H 0.20116 0.86482 0.53239 0.0
H469 H 0.0962 0.76931 0.46517 0.0
H470 H 0.15025 0.78835 0.26645 0.0
H471 H 0.21047 0.9185 0.20669 0.0
H472 H 0.18185 0.78799 0.22415 0.0
H473 H 0.17825 0.91886 0.24878 0.0
Eu474 Eu 0.83362 0.64768 0.66931 0.0
Eu475 Eu 0.86352 0.70328 0.72323 0.0
C476 C 0.82214 0.73133 0.67197 0.0
C477 C 0.83151 0.62556 0.59764 0.0
C478 C 0.83595 0.66527 0.58814 0.0
C479 C 0.85994 0.61873 0.55622 0.0
C480 C 0.85142 0.68113 0.56278 0.0
C481 C 0.84401 0.60261 0.58159 0.0
C482 C 0.86311 0.65783 0.54653 0.0
C483 C 0.81642 0.60929 0.62473 0.0
O484 O 0.80292 0.64112 0.73473 0.0
O485 O 0.77083 0.62119 0.69358 0.0
C486 C 0.76838 0.61814 0.71959 0.0
O487 O 0.84535 0.6062 0.70023 0.0
O488 O 0.84812 0.73168 0.75533 0.0
O489 O 0.91411 0.73916 0.7529 0.0
O490 O 0.89324 0.65869 0.72764 0.0
C491 C 0.87537 0.6195 0.71934 0.0
O492 O 0.90746 0.69302 0.66645 0.0
O493 O 0.91376 0.74555 0.69302 0.0
O494 O 0.82306 0.72731 0.69792 0.0
O495 O 0.84707 0.61106 0.64153 0.0
O496 O 0.7903 0.62148 0.63483 0.0
O497 O 0.83323 0.70931 0.65715 0.0
C498 C 0.88329 0.72743 0.79517 0.0
C499 C 0.88688 0.6906 0.80204 0.0
C500 C 0.86187 0.72748 0.83991 0.0
C501 C 0.87498 0.67082 0.82713 0.0
C502 C 0.87316 0.74707 0.81469 0.0
C503 C 0.85663 0.68585 0.84557 0.0
C504 C 0.88622 0.74317 0.76747 0.0
C505 C 0.9289 0.73253 0.67432 0.0
H506 H 0.82749 0.68412 0.6003 0.0
H507 H 0.86906 0.60047 0.54398 0.0
H508 H 0.85394 0.71149 0.55569 0.0
H509 H 0.84154 0.57228 0.58871 0.0
H510 H 0.8978 0.67645 0.78782 0.0
H511 H 0.85738 0.74577 0.85441 0.0
H512 H 0.87939 0.64306 0.83157 0.0
H513 H 0.87303 0.77714 0.8103 0.0
Eu514 Eu 0.36343 0.19739 0.66075 0.0
Eu515 Eu 0.32169 0.18363 0.72172 0.0
C516 C 0.27117 0.11116 0.67932 0.0
C517 C 0.36678 0.20127 0.58697 0.0
C518 C 0.32051 0.18214 0.586 0.0
C519 C 0.36761 0.21572 0.53967 0.0
C520 C 0.29792 0.18028 0.56211 0.0
C521 C 0.39017 0.21746 0.56364 0.0
C522 C 0.32093 0.19935 0.5384 0.0
C523 C 0.39042 0.20589 0.61245 0.0
O524 O 0.3585 0.1462 0.72076 0.0
O525 O 0.40854 0.18393 0.68814 0.0
C526 C 0.39557 0.15734 0.70878 0.0
O527 O 0.40234 0.26179 0.67892 0.0
O528 O 0.28995 0.14231 0.75621 0.0
O529 O 0.314 0.21055 0.7576 0.0
O530 O 0.39037 0.24076 0.72281 0.0
C531 C 0.41155 0.26956 0.70402 0.0
O532 O 0.30772 0.21192 0.65437 0.0
O533 O 0.28729 0.21443 0.69682 0.0
O534 O 0.26716 0.12947 0.69992 0.0
O535 O 0.39492 0.23776 0.6259 0.0
O536 O 0.3781 0.17092 0.62722 0.0
O537 O 0.3068 0.12894 0.66465 0.0
C538 C 0.31978 0.17419 0.79709 0.0
C539 C 0.35235 0.16105 0.80019 0.0
C540 C 0.32816 0.18882 0.84383 0.0
C541 C 0.37282 0.16204 0.82491 0.0
C542 C 0.30771 0.18781 0.81915 0.0
C543 C 0.36109 0.17627 0.84688 0.0
C544 C 0.29834 0.17404 0.77108 0.0
C545 C 0.28447 0.21927 0.67091 0.0
H546 H 0.30168 0.16835 0.60381 0.0
H547 H 0.38748 0.22637 0.52224 0.0
H548 H 0.26232 0.16252 0.56283 0.0
H549 H 0.42596 0.23135 0.5639 0.0
H550 H 0.36213 0.15028 0.78348 0.0
H551 H 0.31884 0.2001 0.86051 0.0
H552 H 0.3983 0.15245 0.82681 0.0
H553 H 0.2827 0.19801 0.81724 0.0
Eu554 Eu 0.83906 0.15364 0.73592 0.0
Eu555 Eu 0.81403 0.16668 0.67162 0.0
C556 C 0.84053 0.24057 0.71295 0.0
C557 C 0.83027 0.14554 0.81051 0.0
C558 C 0.80492 0.16665 0.80979 0.0
C559 C 0.81591 0.12922 0.85731 0.0
C560 C 0.78505 0.16889 0.83264 0.0
C561 C 0.83599 0.12727 0.83447 0.0
C562 C 0.78778 0.14811 0.85688 0.0
C563 C 0.85156 0.14331 0.78654 0.0
O564 O 0.88242 0.17408 0.67324 0.0
O565 O 0.90479 0.19163 0.71648 0.0
C566 C 0.9132 0.19022 0.69175 0.0
O567 O 0.84391 0.10299 0.71383 0.0
O568 O 0.82524 0.20808 0.6361 0.0
O569 O 0.78183 0.1401 0.63365 0.0
O570 O 0.7946 0.0972 0.68002 0.0
C571 C 0.81723 0.08214 0.69425 0.0
O572 O 0.76514 0.11874 0.73123 0.0
O573 O 0.75393 0.15482 0.69489 0.0
O574 O 0.8441 0.23189 0.68875 0.0
O575 O 0.82707 0.11176 0.77131 0.0
O576 O 0.87402 0.17932 0.77305 0.0
O577 O 0.82987 0.21215 0.73271 0.0
C578 C 0.82586 0.17685 0.59608 0.0
C579 C 0.87139 0.18907 0.59627 0.0
C580 C 0.82249 0.16587 0.54883 0.0
C581 C 0.89221 0.18967 0.57293 0.0
C582 C 0.80177 0.1654 0.5721 0.0
C583 C 0.86785 0.1778 0.54897 0.0
C584 C 0.8032 0.17657 0.62044 0.0
C585 C 0.74009 0.13051 0.71677 0.0
H586 H 0.80123 0.18229 0.79161 0.0
H587 H 0.82446 0.11707 0.87534 0.0
H588 H 0.76928 0.18866 0.83083 0.0
H589 H 0.85675 0.11206 0.83566 0.0
H590 H 0.89086 0.19808 0.61447 0.0
H591 H 0.80296 0.15646 0.53067 0.0
H592 H 0.92716 0.19885 0.5736 0.0
H593 H 0.76676 0.15599 0.57135 0.0
C594 C 0.31199 0.90372 0.0759 0.0
C595 C 0.30509 0.86347 0.08685 0.0
C596 C 0.38319 0.88523 0.07828 0.0
C597 C 0.38778 0.92218 0.06357 0.0
N598 N 0.35517 0.96548 0.04668 0.0
N599 N 0.33311 0.81338 0.09452 0.0
C600 C 0.35189 0.93139 0.06215 0.0
C601 C 0.34063 0.85374 0.08714 0.0
N602 N 0.27999 0.91518 0.07847 0.0
N603 N 0.41975 0.8808 0.0847 0.0
H604 H 0.30282 0.78968 0.10176 0.0
H605 H 0.35599 0.80277 0.09187 0.0
H606 H 0.45159 0.90409 0.07952 0.0
H607 H 0.41899 0.85645 0.09746 0.0
H608 H 0.28386 0.94539 0.07302 0.0
H609 H 0.25116 0.89549 0.08862 0.0
H610 H 0.3288 0.97163 0.04261 0.0
H611 H 0.38348 0.98584 0.03608 0.0
C612 C 0.12281 0.42443 0.05826 0.0
C613 C 0.15937 0.45146 0.07425 0.0
C614 C 0.13761 0.50737 0.0697 0.0
C615 C 0.10336 0.48191 0.05173 0.0
N616 N 0.0649 0.41811 0.02672 0.0
N617 N 0.20515 0.51974 0.09331 0.0
C618 C 0.09632 0.44086 0.04538 0.0
C619 C 0.1678 0.49329 0.07941 0.0
N620 N 0.11311 0.38279 0.05606 0.0
N621 N 0.14001 0.54396 0.07844 0.0
H622 H 0.22645 0.50944 0.10211 0.0
H623 H 0.21637 0.55239 0.09486 0.0
H624 H 0.1184 0.55528 0.0718 0.0
H625 H 0.16104 0.56132 0.09377 0.0
H626 H 0.08454 0.35988 0.04677 0.0
H627 H 0.13236 0.37031 0.06536 0.0
H628 H 0.06084 0.38976 1.0194 0.0
H629 H 0.04464 0.42915 1.01711 0.0
C630 C 0.50708 0.67524 0.06161 0.0
C631 C 0.5509 0.70436 0.06978 0.0
C632 C 0.57404 0.65056 0.06335 0.0
C633 C 0.53082 0.62253 0.05357 0.0
N634 N 0.45973 0.61237 0.03693 0.0
N635 N 0.62812 0.72387 0.07248 0.0
C636 C 0.49841 0.63622 0.05059 0.0
C637 C 0.58505 0.6932 0.06887 0.0
N638 N 0.47339 0.68393 0.06558 0.0
N639 N 0.60432 0.63634 0.0677 0.0
H640 H 0.63689 0.75562 0.07564 0.0
H641 H 0.65506 0.71891 0.06975 0.0
H642 H 0.59784 0.60567 0.0632 0.0
H643 H 0.63469 0.65389 0.07743 0.0
H644 H 0.44006 0.66197 0.06245 0.0
H645 H 0.47863 0.7116 0.07445 0.0
H646 H 0.43669 0.62287 0.03213 0.0
H647 H 0.45261 0.58388 0.02828 0.0
C648 C 0.85148 0.35391 0.97307 0.0
C649 C 0.85121 0.31724 0.98557 0.0
C650 C 0.91357 0.3631 1.01447 0.0
C651 C 0.91607 0.39997 1.00052 0.0
N652 N 0.89171 0.43079 0.96413 0.0
N653 N 0.88421 0.28574 1.01567 0.0
C654 C 0.88625 0.39547 0.97908 0.0
C655 C 0.88283 0.32153 1.00568 0.0
N656 N 0.81755 0.34875 0.95598 0.0
N657 N 0.94038 0.36788 0.03619 0.0
H658 H 0.86179 0.25505 1.00963 0.0
H659 H 0.90911 0.2865 0.02845 0.0
H660 H 0.9644 0.39775 0.04257 0.0
H661 H 0.93717 0.34253 0.04885 0.0
H662 H 0.813 0.37401 0.94806 0.0
H663 H 0.79163 0.3186 0.95146 0.0
H664 H 0.87404 0.42928 0.94663 0.0
H665 H 0.91636 0.46173 0.96814 0.0
C666 C 0.70199 0.59894 0.99684 0.0
C667 C 0.71601 0.56814 0.99401 0.0
C668 C 0.65356 0.51513 1.01981 0.0
C669 C 0.63595 0.54371 1.0189 0.0
N670 N 0.64146 0.61232 1.00603 0.0
N671 N 0.7034 0.49568 1.00008 0.0
C672 C 0.65977 0.58569 1.00743 0.0
C673 C 0.69158 0.52596 1.00502 0.0
N674 N 0.72956 0.64086 0.98978 0.0
N675 N 0.63388 0.47771 0.03472 0.0
H676 H 0.73085 0.50262 0.98903 0.0
H677 H 0.68409 0.46319 1.00501 0.0
H678 H 0.60588 0.46898 0.04583 0.0
H679 H 0.64756 0.45735 0.03802 0.0
H680 H 0.72314 0.66575 0.99345 0.0
H681 H 0.76088 0.65114 0.98224 0.0
H682 H 0.65485 0.64141 0.99521 0.0
H683 H 0.61139 0.60423 1.01467 0.0
C684 C 0.48064 0.14929 0.96109 0.0
C685 C 0.45366 0.16084 0.97506 0.0
C686 C 0.44252 0.1048 1.00925 0.0
C687 C 0.46922 0.09319 0.995 0.0
N688 N 0.5017 0.09533 0.95334 0.0
N689 N 0.40062 0.14335 1.00913 0.0
C690 C 0.48386 0.1121 0.96945 0.0
C691 C 0.43149 0.13603 0.99793 0.0
N692 N 0.50638 0.17587 0.9413 0.0
N693 N 0.4287 0.08683 0.0339 0.0
H694 H 0.39298 0.167 1.00176 0.0
H695 H 0.38012 0.12396 0.02426 0.0
H696 H 0.43446 0.06251 0.04233 0.0
H697 H 0.4137 0.09757 0.04663 0.0
H698 H 0.53059 0.17176 0.93234 0.0
H699 H 0.50643 0.20434 0.93572 0.0
H700 H 0.50866 0.1054 0.93361 0.0
H701 H 0.50634 0.06917 0.95895 0.0
C702 C 0.67717 0.17338 0.97219 0.0
C703 C 0.71741 0.17346 0.97955 0.0
C704 C 0.67529 0.10196 1.00103 0.0
C705 C 0.63507 0.10313 0.99549 0.0
N706 N 0.59887 0.14416 0.98032 0.0
N707 N 0.75485 0.14367 1.00754 0.0
C708 C 0.63617 0.13973 0.9819 0.0
C709 C 0.71653 0.13924 0.9957 0.0
N710 N 0.67846 0.20672 0.9569 0.0
N711 N 0.67415 0.06503 1.0111 0.0
H712 H 0.78496 0.17185 1.00558 0.0
H713 H 0.75583 0.12153 1.02155 0.0
H714 H 0.64457 0.03696 1.01496 0.0
H715 H 0.70227 0.06113 1.01318 0.0
H716 H 0.65055 0.20637 0.94778 0.0
H717 H 0.70809 0.23432 0.95264 0.0
H718 H 0.59816 0.17171 0.97298 0.0
H719 H 0.56923 0.12168 0.98877 0.0
C720 C 0.90237 0.61578 0.97602 0.0
C721 C 0.85828 0.58344 0.97139 0.0
C722 C 0.87637 0.52854 0.98991 0.0
C723 C 0.9207 0.56079 0.99409 0.0
N724 N 0.97861 0.63374 0.98716 0.0
N725 N 0.80515 0.5086 0.96861 0.0
C726 C 0.93463 0.60407 0.9858 0.0
C727 C 0.84619 0.53959 0.97638 0.0
N728 N 0.91259 0.65771 0.97229 0.0
N729 N 0.8626 0.48774 0.99997 0.0
H730 H 0.78213 0.51586 0.95889 0.0
H731 H 0.79546 0.47602 0.96929 0.0
H732 H 0.88375 0.47857 1.01025 0.0
H733 H 0.82962 0.46376 1.00014 0.0
H734 H 0.94264 0.6833 0.97817 0.0
H735 H 0.88973 0.66663 0.96424 0.0
H736 H 0.99148 0.66483 0.97904 0.0
H737 H 0.00286 0.62644 0.99501 0.0
C738 C 0.44233 0.30215 1.01317 0.0
C739 C 0.47185 0.30232 0.99468 0.0
C740 C 0.51958 0.37948 0.99854 0.0
C741 C 0.49 0.37946 1.0171 0.0
N742 N 0.42766 0.34102 0.04558 0.0
N743 N 0.5415 0.33777 0.97278 0.0
C744 C 0.45275 0.34071 0.0256 0.0
C745 C 0.51154 0.34005 0.98839 0.0
N746 N 0.4037 0.26522 1.01803 0.0
N747 N 0.55426 0.41739 0.98988 0.0
H748 H 0.53572 0.30927 0.96469 0.0
H749 H 0.57317 0.36301 0.96932 0.0
H750 H 0.56211 0.44657 0.9977 0.0
H751 H 0.57408 0.42044 0.97419 0.0
H752 H 0.37826 0.26329 0.02925 0.0
H753 H 0.39605 0.23648 1.0095 0.0
H754 H 0.40206 0.31355 0.05424 0.0
H755 H 0.43454 0.36893 0.05492 0.0
C756 C 0.12924 0.71609 0.06475 0.0
C757 C 0.17322 0.72405 0.0703 0.0
C758 C 0.15581 0.65607 0.05105 0.0
C759 C 0.11055 0.64572 0.04863 0.0
N760 N 0.05282 0.66403 0.05477 0.0
N761 N 0.22753 0.69998 0.07189 0.0
C762 C 0.09685 0.67529 0.05588 0.0
C763 C 0.18635 0.69364 0.06418 0.0
N764 N 0.11898 0.74817 0.0673 0.0
N765 N 0.16975 0.63049 0.04031 0.0
H766 H 0.25037 0.72713 0.08163 0.0
H767 H 0.23768 0.67698 0.07059 0.0
H768 H 0.14826 0.60301 0.03034 0.0
H769 H 0.20298 0.63841 0.03924 0.0
H770 H 0.0887 0.74614 0.06132 0.0
H771 H 0.14247 0.77845 0.07328 0.0
H772 H 0.04011 0.68214 0.06254 0.0
H773 H 0.0284 0.63504 0.04748 0.0
C774 C 0.29865 0.40116 0.07276 0.0
C775 C 0.29067 0.43277 0.08308 0.0
C776 C 0.3658 0.48814 0.07132 0.0
C777 C 0.37191 0.45741 0.05827 0.0
N778 N 0.34358 0.38502 0.04473 0.0
N779 N 0.31447 0.50749 0.08884 0.0
C780 C 0.33823 0.41384 0.05865 0.0
C781 C 0.32385 0.47653 0.08156 0.0
N782 N 0.26797 0.35907 0.07632 0.0
N783 N 0.40062 0.52808 0.07508 0.0
H784 H 0.28533 0.50032 0.09815 0.0
H785 H 0.33452 0.54008 0.08443 0.0
H786 H 0.43188 0.53804 0.0678 0.0
H787 H 0.39954 0.55 0.0873 0.0
H788 H 0.27274 0.33368 0.07143 0.0
H789 H 0.23883 0.34962 0.08629 0.0
H790 H 0.31894 0.35358 0.04216 0.0
H791 H 0.37189 0.39351 0.03394 0.0
C792 C 0.52052 0.84008 0.07117 0.0
C793 C 0.5643 0.84801 0.07756 0.0
C794 C 0.591 0.9251 0.06941 0.0
C795 C 0.54813 0.91613 0.05987 0.0
N796 N 0.4752 0.86342 0.04509 0.0
N797 N 0.64249 0.89721 0.07665 0.0
C798 C 0.51369 0.87315 0.05889 0.0
C799 C 0.60002 0.89042 0.07527 0.0
N800 N 0.4853 0.80083 0.07693 0.0
N801 N 0.6232 0.96655 0.07239 0.0
H802 H 0.6495 0.8719 0.07832 0.0
H803 H 0.67006 0.92704 0.073 0.0
H804 H 0.61794 0.99264 0.0675 0.0
H805 H 0.65382 0.97474 0.08157 0.0
H806 H 0.45245 0.79454 0.07494 0.0
H807 H 0.4891 0.77605 0.08639 0.0
H808 H 0.45089 0.83209 0.0416 0.0
H809 H 0.46952 0.88655 0.03488 0.0
C810 C 0.97523 0.22189 0.40061 0.0
C811 C 0.97573 0.19529 0.4226 0.0
C812 C 0.05578 0.22429 0.41695 0.0
C813 C 0.05625 0.25361 0.3966 0.0
N814 N 0.0161 0.28352 0.37106 0.0
N815 N 0.01867 0.17848 0.4549 0.0
C816 C 0.01587 0.25352 0.38914 0.0
C817 C 0.01692 0.19946 0.43197 0.0
N818 N 0.93546 0.21465 0.3894 0.0
N819 N 0.09111 0.21699 0.42025 0.0
H820 H 0.9907 0.16063 0.46615 0.0
H821 H 0.04828 0.18288 0.464 0.0
H822 H 0.11774 0.23097 0.40752 0.0
H823 H 0.09118 0.19302 0.43301 0.0
H824 H 0.93244 0.22871 0.37139 0.0
H825 H 0.90514 0.19218 0.39731 0.0
H826 H 0.98896 0.28863 0.36731 0.0
H827 H 0.0443 0.30496 0.36085 0.0
C828 C 0.77728 0.75494 0.40941 0.0
C829 C 0.82305 0.78457 0.4114 0.0
C830 C 0.81036 0.84036 0.38902 0.0
C831 C 0.76414 0.81196 0.38937 0.0
N832 N 0.70251 0.74453 0.40372 0.0
N833 N 0.882 0.85738 0.40851 0.0
C834 C 0.74717 0.76987 0.40077 0.0
C835 C 0.83929 0.82788 0.40271 0.0
N836 N 0.76295 0.71238 0.41489 0.0
N837 N 0.82672 0.87897 0.37537 0.0
H838 H 0.90335 0.84915 0.41931 0.0
H839 H 0.89467 0.89027 0.40507 0.0
H840 H 0.80648 0.88936 0.36515 0.0
H841 H 0.86041 0.89901 0.37226 0.0
H842 H 0.73053 0.68854 0.4113 0.0
H843 H 0.78453 0.70063 0.42094 0.0
H844 H 0.68862 0.71519 0.41429 0.0
H845 H 0.67943 0.75433 0.39737 0.0
C846 C 0.24452 0.02706 0.4001 0.0
C847 C 0.20924 0.03538 0.4047 0.0
C848 C 0.15608 0.96553 0.38808 0.0
C849 C 0.19055 0.95472 0.38728 0.0
N850 N 0.26722 0.97321 0.39556 0.0
N851 N 0.13094 0.01007 0.40767 0.0
C852 C 0.2348 0.98496 0.39412 0.0
C853 C 0.16478 1.00389 0.39996 0.0
N854 N 0.28715 0.05975 0.40089 0.0
N855 N 0.11552 0.93991 0.37685 0.0
H856 H 0.13648 0.03773 0.41682 0.0
H857 H 0.09781 0.98633 0.40705 0.0
H858 H 0.10861 0.91232 0.36714 0.0
H859 H 0.09036 0.94826 0.37496 0.0
H860 H 0.3142 0.05669 0.39538 0.0
H861 H 0.29488 0.09105 0.40476 0.0
H862 H 0.29913 0.99271 0.40294 0.0
H863 H 0.26123 0.94258 0.39133 0.0
C864 C 0.50502 0.68834 0.31733 0.0
C865 C 0.5132 0.65311 0.3211 0.0
C866 C 0.58659 0.6999 0.34037 0.0
C867 C 0.57719 0.73465 0.33826 0.0
N868 N 0.52354 0.75941 0.33051 0.0
N869 N 0.55736 0.62276 0.34033 0.0
C870 C 0.53524 0.72819 0.32834 0.0
C871 C 0.55269 0.65816 0.334 0.0
N872 N 0.46887 0.68385 0.30264 0.0
N873 N 0.62841 0.70713 0.34732 0.0
H874 H 0.533 0.59194 0.33566 0.0
H875 H 0.58341 0.62348 0.352 0.0
H876 H 0.6543 0.73744 0.35153 0.0
H877 H 0.63847 0.68395 0.34672 0.0
H878 H 0.46338 0.70946 0.29684 0.0
H879 H 0.44612 0.65485 0.29456 0.0
H880 H 0.49195 0.75519 0.32577 0.0
H881 H 0.54423 0.78816 0.33953 0.0
C882 C 0.36381 0.93211 0.32944 0.0
C883 C 0.37729 0.90136 0.32514 0.0
C884 C 0.31217 0.84575 0.34766 0.0
C885 C 0.29577 0.87515 0.34873 0.0
N886 N 0.30297 0.94515 0.33817 0.0
N887 N 0.36194 0.82796 0.32612 0.0
C888 C 0.3208 0.91815 0.339 0.0
C889 C 0.3509 0.85786 0.33325 0.0
N890 N 0.39263 0.97462 0.32487 0.0
N891 N 0.29089 0.80647 0.36046 0.0
H892 H 0.38966 0.83597 0.31496 0.0
H893 H 0.3416 0.79507 0.32913 0.0
H894 H 0.26247 0.79678 0.37135 0.0
H895 H 0.30359 0.78517 0.36228 0.0
H896 H 0.38639 0.99905 0.32996 0.0
H897 H 0.42455 0.98551 0.31802 0.0
H898 H 0.3178 0.97538 0.32868 0.0
H899 H 0.27174 0.93618 0.34543 0.0
C900 C 0.09684 0.4677 0.32662 0.0
C901 C 0.12288 0.49688 0.3062 0.0
C902 C 0.17145 0.46413 0.30868 0.0
C903 C 0.14369 0.43315 0.32783 0.0
N904 N 0.07516 0.40082 0.35148 0.0
N905 N 0.18063 0.51855 0.27493 0.0
C906 C 0.10479 0.43343 0.3356 0.0
C907 C 0.1583 0.49307 0.29603 0.0
N908 N 0.06648 0.47461 0.33883 0.0
N909 N 0.21234 0.46861 0.30432 0.0
H910 H 0.17293 0.54132 0.26631 0.0
H911 H 0.20382 0.51455 0.26473 0.0
H912 H 0.22465 0.45058 0.3149 0.0
H913 H 0.236 0.49327 0.29259 0.0
H914 H 0.05074 0.45808 0.3561 0.0
H915 H 0.05933 0.49912 0.33281 0.0
H916 H 0.04376 0.39657 0.35519 0.0
H917 H 0.08061 0.3761 0.35931 0.0
C918 C 0.34597 0.49051 0.2974 0.0
C919 C 0.38545 0.50612 0.31303 0.0
C920 C 0.34542 0.44967 0.34709 0.0
C921 C 0.30657 0.43339 0.33077 0.0
N922 N 0.27443 0.43026 0.28707 0.0
N923 N 0.42515 0.49526 0.35053 0.0
C924 C 0.30852 0.45086 0.30471 0.0
C925 C 0.3859 0.48382 0.33717 0.0
N926 N 0.34264 0.51552 0.27703 0.0
N927 N 0.34347 0.43284 0.37221 0.0
H928 H 0.45524 0.52045 0.34407 0.0
H929 H 0.42863 0.47775 0.36676 0.0
H930 H 0.31539 0.40582 0.37942 0.0
H931 H 0.36886 0.44669 0.38629 0.0
H932 H 0.31334 0.50749 0.26626 0.0
H933 H 0.36761 0.54672 0.27337 0.0
H934 H 0.27621 0.43979 0.26715 0.0
H935 H 0.246 0.40166 0.29185 0.0
C936 C 0.52373 0.8841 0.30462 0.0
C937 C 0.52661 0.92394 0.30982 0.0
C938 C 0.59519 0.94286 0.33579 0.0
C939 C 0.59271 0.90375 0.32907 0.0
N940 N 0.56473 0.84668 0.29849 0.0
N941 N 0.56729 0.99361 0.32786 0.0
C942 C 0.5604 0.87755 0.31058 0.0
C943 C 0.56357 0.9544 0.32435 0.0
N944 N 0.48451 0.85079 0.2966 0.0
N945 N 0.62677 0.96808 0.35361 0.0
H946 H 0.54313 1.00147 0.32088 0.0
H947 H 0.59513 0.0189 0.33621 0.0
H948 H 0.65096 0.96085 0.36167 0.0
H949 H 0.62784 0.99492 0.36139 0.0
H950 H 0.48003 0.81993 0.29486 0.0
H951 H 0.45532 0.85273 0.29496 0.0
H952 H 0.5432 0.82893 0.28339 0.0
H953 H 0.5925 0.84243 0.30149 0.0
C954 C 0.1041 0.63467 0.34486 0.0
C955 C 0.13293 0.63521 0.32576 0.0
C956 C 0.1779 0.71299 0.32772 0.0
C957 C 0.14955 0.71258 0.34728 0.0
N958 N 0.08976 0.67351 0.37745 0.0
N959 N 0.20111 0.67194 0.30238 0.0
C960 C 0.11393 0.67343 0.35687 0.0
C961 C 0.17114 0.67358 0.31829 0.0
N962 N 0.06667 0.59713 0.35076 0.0
N963 N 0.21017 0.75111 0.31744 0.0
H964 H 0.19648 0.64338 0.29498 0.0
H965 H 0.23203 0.69797 0.29822 0.0
H966 H 0.21697 0.78054 0.32441 0.0
H967 H 0.22852 0.75388 0.30104 0.0
H968 H 0.0416 0.59472 0.36253 0.0
H969 H 0.05958 0.5683 0.34256 0.0
H970 H 0.06568 0.64586 0.38691 0.0
H971 H 0.09588 0.70153 0.38637 0.0
C972 C 0.84464 0.01669 0.41477 0.0
C973 C 0.84492 0.05508 0.40568 0.0
C974 C 0.78493 0.01548 0.37373 0.0
C975 C 0.78179 0.97649 0.38462 0.0
N976 N 0.8058 0.939 0.41685 0.0
N977 N 0.81511 0.0923 0.37801 0.0
C978 C 0.81105 0.97683 0.40544 0.0
C979 C 0.81512 0.05484 0.38541 0.0
N980 N 0.87715 0.01872 0.43208 0.0
N981 N 0.75928 0.01472 0.35213 0.0
H982 H 0.83767 0.12151 0.38593 0.0
H983 H 0.79156 0.09434 0.36525 0.0
H984 H 0.73644 0.98636 0.34342 0.0
H985 H 0.76248 0.04207 0.34172 0.0
H986 H 0.88195 0.99265 0.43765 0.0
H987 H 0.90178 0.04757 0.43934 0.0
H988 H 0.82246 0.93676 0.43402 0.0
H989 H 0.78264 0.9093 0.40997 0.0
C990 C 0.95953 0.73223 0.4058 0.0
C991 C 0.95257 0.76309 0.41803 0.0
C992 C 0.02817 0.81825 0.40739 0.0
C993 C 0.03319 0.78885 0.39221 0.0
N994 N 0.00329 0.71806 0.37563 0.0
N995 N 0.97824 0.83707 0.42722 0.0
C996 C 0.99879 0.7457 0.39117 0.0
C997 C 0.98647 0.80649 0.41797 0.0
N998 N 0.92828 0.69014 0.40819 0.0
N999 N 0.06383 0.85674 0.41306 0.0
H1000 H 0.94979 0.82948 0.43749 0.0
H1001 H 0.99891 0.86986 0.42386 0.0
H1002 H 0.09517 0.8664 0.40606 0.0
H1003 H 0.06323 0.87723 0.42664 0.0
H1004 H 0.9322 0.66507 0.40167 0.0
H1005 H 0.89969 0.68017 0.41887 0.0
H1006 H 0.97811 0.68722 0.37206 0.0
H1007 H 0.03154 0.72712 0.36464 0.0
C1008 C 0.255 0.20946 0.39155 0.0
C1009 C 0.22896 0.18201 0.41255 0.0
C1010 C 0.20322 0.23315 0.4208 0.0
C1011 C 0.22202 0.25598 0.39694 0.0
N1012 N 0.26617 0.26647 0.35905 0.0
N1013 N 0.16921 0.16282 0.4421 0.0
C1014 C 0.24838 0.24451 0.38222 0.0
C1015 C 0.20115 0.19285 0.42619 0.0
N1016 N 0.28582 0.2019 0.38056 0.0
N1017 N 0.18634 0.24924 0.43798 0.0
H1018 H 0.16238 0.13098 0.44293 0.0
H1019 H 0.14593 0.16809 0.45127 0.0
H1020 H 0.18563 0.27792 0.43399 0.0
H1021 H 0.17592 0.23539 0.45677 0.0
H1022 H 0.30889 0.22305 0.36702 0.0
H1023 H 0.29034 0.17572 0.38638 0.0
H1024 H 0.28123 0.2566 0.34579 0.0
H1025 H 0.26399 0.29373 0.35251 0.0
C1026 C 0.64534 0.5571 0.73632 0.0
C1027 C 0.64379 0.52569 0.75557 0.0
C1028 C 0.72357 0.553 0.74958 0.0
C1029 C 0.72572 0.58698 0.73254 0.0
N1030 N 0.69005 0.62785 0.71639 0.0
N1031 N 0.68386 0.49937 0.78391 0.0
C1032 C 0.68703 0.59111 0.72804 0.0
C1033 C 0.68397 0.52607 0.76358 0.0
N1034 N 0.60714 0.55278 0.72435 0.0
N1035 N 0.75797 0.54412 0.75079 0.0
H1036 H 0.65517 0.47938 0.7941 0.0
H1037 H 0.71266 0.50043 0.79218 0.0
H1038 H 0.78571 0.56092 0.73909 0.0
H1039 H 0.75667 0.51722 0.76087 0.0
H1040 H 0.60696 0.57236 0.70829 0.0
H1041 H 0.57597 0.52736 0.72893 0.0
H1042 H 0.66313 0.63369 0.71438 0.0
H1043 H 0.72055 0.65421 0.71182 0.0
C1044 C 0.44699 0.08456 0.71832 0.0
C1045 C 0.47735 0.10447 0.73925 0.0
C1046 C 0.45019 0.15584 0.74218 0.0
C1047 C 0.4237 0.13919 0.71916 0.0
N1048 N 0.40092 0.09158 0.68292 0.0
N1049 N 0.51394 0.16334 0.76827 0.0
C1050 C 0.42329 0.10467 0.70644 0.0
C1051 C 0.48069 0.14137 0.75042 0.0
N1052 N 0.44026 0.04594 0.71033 0.0
N1053 N 0.44576 0.18486 0.75641 0.0
H1054 H 0.53689 0.15352 0.7748 0.0
H1055 H 0.52098 0.19311 0.7749 0.0
H1056 H 0.42417 0.19681 0.75082 0.0
H1057 H 0.46082 0.19443 0.77489 0.0
H1058 H 0.41547 0.02762 0.69682 0.0
H1059 H 0.45727 0.03061 0.71898 0.0
H1060 H 0.403 0.06927 0.67156 0.0
H1061 H 0.3829 0.10544 0.67371 0.0
C1062 C 0.90386 0.35912 0.72719 0.0
C1063 C 0.86874 0.36568 0.7349 0.0
C1064 C 0.81501 0.2933 0.72217 0.0
C1065 C 0.85035 0.28454 0.71851 0.0
N1066 N 0.92884 0.30766 0.72012 0.0
N1067 N 0.7913 0.33797 0.7431 0.0
C1068 C 0.89502 0.31716 0.72153 0.0
C1069 C 0.82431 0.33251 0.73319 0.0
N1070 N 0.94552 0.39327 0.72515 0.0
N1071 N 0.77287 0.26474 0.7144 0.0
H1072 H 0.79735 0.36642 0.7514 0.0
H1073 H 0.75877 0.31331 0.74491 0.0
H1074 H 0.76543 0.23643 0.70538 0.0
H1075 H 0.74632 0.27105 0.71457 0.0
H1076 H 0.97199 0.39146 0.71739 0.0
H1077 H 0.95249 0.42436 0.72903 0.0
H1078 H 0.96176 0.32908 0.72479 0.0
H1079 H 0.92353 0.27711 0.71631 0.0
C1080 C 0.21426 0.99103 0.66753 0.0
C1081 C 0.17428 0.98531 0.65499 0.0
C1082 C 0.19279 0.05853 0.6651 0.0
C1083 C 0.236 0.0667 0.67363 0.0
N1084 N 0.28739 0.04006 0.68487 0.0
N1085 N 0.12696 0.01416 0.63907 0.0
C1086 C 0.24659 0.03265 0.67538 0.0
C1087 C 0.16385 0.01918 0.65314 0.0
N1088 N 0.22052 0.9562 0.67241 0.0
N1089 N 0.17877 0.08757 0.66908 0.0
H1090 H 0.1052 0.98559 0.63015 0.0
H1091 H 0.11999 0.0392 0.63448 0.0
H1092 H 0.19841 0.11624 0.67836 0.0
H1093 H 0.14623 0.08143 0.66547 0.0
H1094 H 0.24699 0.95683 0.68353 0.0
H1095 H 0.19712 0.92554 0.66683 0.0
H1096 H 0.29951 0.01855 0.68364 0.0
H1097 H 0.30982 0.06854 0.69357 0.0
C1098 C 0.02399 0.26086 0.66041 0.0
C1099 C 0.04043 0.23142 0.66034 0.0
C1100 C 0.97915 0.18018 0.6876 0.0
C1101 C 0.95921 0.20679 0.68394 0.0
N1102 N 0.95988 0.27069 0.66461 0.0
N1103 N 0.03133 0.1609 0.67078 0.0
C1104 C 0.98091 0.24681 0.6698 0.0
C1105 C 0.0176 0.19054 0.67331 0.0
N1106 N 0.05006 0.30239 0.65193 0.0
N1107 N 0.96128 0.14502 0.70454 0.0
H1108 H 0.059 0.16735 0.66005 0.0
H1109 H 0.01324 0.12898 0.67737 0.0
H1110 H 0.93284 0.13638 0.71519 0.0
H1111 H 0.97679 0.12668 0.70978 0.0
H1112 H 0.04155 0.32646 0.65369 0.0
H1113 H 0.08219 0.31349 0.64547 0.0
H1114 H 0.97225 0.29776 0.65188 0.0
H1115 H 0.92848 0.26177 0.67156 0.0
C1116 C 0.75755 0.7914 0.6575 0.0
C1117 C 0.78701 0.82706 0.64148 0.0
C1118 C 0.84023 0.79941 0.64473 0.0
C1119 C 0.80907 0.7624 0.65908 0.0
N1120 N 0.73295 0.71726 0.6708 0.0
N1121 N 0.8541 0.8621 0.61692 0.0
C1122 C 0.76601 0.75647 0.66274 0.0
C1123 C 0.82728 0.82958 0.63376 0.0
N1124 N 0.72355 0.7923 0.66966 0.0
N1125 N 0.88307 0.8074 0.64323 0.0
H1126 H 0.84648 0.88583 0.61011 0.0
H1127 H 0.88171 0.86367 0.60829 0.0
H1128 H 0.89401 0.78693 0.65194 0.0
H1129 H 0.90857 0.8359 0.63543 0.0
H1130 H 0.70383 0.76875 0.68354 0.0
H1131 H 0.71812 0.8187 0.66804 0.0
H1132 H 0.70004 0.71047 0.67207 0.0
H1133 H 0.7378 0.69051 0.67278 0.0
C1134 C 0.05153 0.81391 0.66802 0.0
C1135 C 0.05005 0.83719 0.64455 0.0
C1136 C 0.97269 0.78229 0.63682 0.0
C1137 C 0.97202 0.76366 0.66238 0.0
N1138 N 0.01065 0.761 0.70264 0.0
N1139 N 0.00609 0.84766 0.60968 0.0
C1140 C 0.01158 0.77907 0.67799 0.0
C1141 C 0.00999 0.82208 0.62947 0.0
N1142 N 0.09123 0.82541 0.68085 0.0
N1143 N 0.93739 0.76268 0.61978 0.0
H1144 H 0.03126 0.87868 0.60579 0.0
H1145 H 0.97639 0.84023 0.59952 0.0
H1146 H 0.90911 0.73405 0.62471 0.0
H1147 H 0.93794 0.77291 0.60006 0.0
H1148 H 0.09556 0.80728 0.6964 0.0
H1149 H 0.12081 0.85167 0.67473 0.0
H1150 H 0.03661 0.77404 0.71644 0.0
H1151 H 0.98282 0.73365 0.70978 0.0
C1152 C 0.18026 0.21088 0.63774 0.0
C1153 C 0.18665 0.25304 0.6393 0.0
C1154 C 0.25707 0.27321 0.66323 0.0
C1155 C 0.25212 0.23201 0.65923 0.0
N1156 N 0.21497 0.16703 0.63455 0.0
N1157 N 0.23431 0.32634 0.64969 0.0
C1158 C 0.21602 0.20282 0.64362 0.0
C1159 C 0.22648 0.28501 0.65057 0.0
N1160 N 0.13898 0.17741 0.63318 0.0
N1161 N 0.29019 0.30061 0.67946 0.0
H1162 H 0.21186 0.3351 0.64078 0.0
H1163 H 0.26429 0.35207 0.65555 0.0
H1164 H 0.31315 0.29304 0.68894 0.0
H1165 H 0.29286 0.32938 0.68512 0.0
H1166 H 0.13204 0.14548 0.63511 0.0
H1167 H 0.11113 0.18131 0.62944 0.0
H1168 H 0.19094 0.14769 0.62094 0.0
H1169 H 0.23928 0.1581 0.63893 0.0
C1170 C 0.83531 0.99942 0.66092 0.0
C1171 C 0.79413 0.96249 0.66585 0.0
C1172 C 0.77334 1.00227 0.69469 0.0
C1173 C 0.81232 0.04037 0.68734 0.0
N1174 N 0.88005 0.07653 0.66297 0.0
N1175 N 0.72352 0.92705 0.68658 0.0
C1176 C 0.84359 0.03924 0.6706 0.0
C1177 C 0.76315 0.96336 0.68275 0.0
N1178 N 0.86633 0.99607 0.64692 0.0
N1179 N 0.74655 1.0035 0.71326 0.0
H1180 H 0.71621 0.89799 0.67859 0.0
H1181 H 0.69721 0.9259 0.6965 0.0
H1182 H 0.75357 0.0316 0.72242 0.0
H1183 H 0.71926 0.97654 0.72105 0.0
H1184 H 0.89882 0.0205 0.64471 0.0
H1185 H 0.86043 0.9675 0.63891 0.0
H1186 H 0.90152 0.07892 0.64845 0.0
H1187 H 0.88785 0.10597 0.67039 0.0
C1188 C 0.47922 0.38915 0.71697 0.0
C1189 C 0.51127 0.3884 0.73516 0.0
C1190 C 0.48463 0.31271 0.72716 0.0
C1191 C 0.44858 0.31173 0.71187 0.0
N1192 N 0.41096 0.34886 0.69186 0.0
N1193 N 0.54395 0.3501 0.75908 0.0
C1194 C 0.44599 0.35008 0.70635 0.0
C1195 C 0.51392 0.35033 0.74059 0.0
N1196 N 0.48115 0.42753 0.70976 0.0
N1197 N 0.49195 0.27825 0.72776 0.0
H1198 H 0.56677 0.37765 0.76851 0.0
H1199 H 0.54439 0.32232 0.76625 0.0
H1200 H 0.47247 0.2513 0.71682 0.0
H1201 H 0.5197 0.27806 0.73672 0.0
H1202 H 0.46171 0.43152 0.69469 0.0
H1203 H 0.50472 0.45626 0.71778 0.0
H1204 H 0.40401 0.37425 0.68985 0.0
H1205 H 0.38747 0.32155 0.68257 0.0
C1206 C 0.61997 0.05918 0.73665 0.0
C1207 C 0.61098 0.08914 0.7485 0.0
C1208 C 0.68801 0.14456 0.74192 0.0
C1209 C 0.69526 0.11652 0.7268 0.0
N1210 N 0.66796 0.04726 0.70851 0.0
N1211 N 0.63449 0.16356 0.75608 0.0
C1212 C 0.66121 0.07365 0.72395 0.0
C1213 C 0.64453 0.1327 0.74946 0.0
N1214 N 0.58856 0.01708 0.73712 0.0
N1215 N 0.72278 0.18192 0.75013 0.0
H1216 H 0.60315 0.15675 0.76198 0.0
H1217 H 0.65657 0.19626 0.75378 0.0
H1218 H 0.75542 0.19114 0.74584 0.0
H1219 H 0.7195 0.20129 0.76348 0.0
H1220 H 0.59385 0.99255 0.7311 0.0
H1221 H 0.55788 0.00647 0.74545 0.0
H1222 H 0.64333 0.01685 0.70354 0.0
H1223 H 0.69777 0.05701 0.69904 0.0
C1224 C 0.8683 0.52573 0.76073 0.0
C1225 C 0.89441 0.51355 0.74642 0.0
C1226 C 0.91468 0.5764 0.71613 0.0
C1227 C 0.88951 0.58884 0.73121 0.0
N1228 N 0.854 0.58275 0.77218 0.0
N1229 N 0.94766 0.53025 0.71251 0.0
C1230 C 0.87082 0.5663 0.75519 0.0
C1231 C 0.91963 0.54015 0.72487 0.0
N1232 N 0.83715 0.49655 0.77741 0.0
N1233 N 0.93255 0.59849 0.69299 0.0
H1234 H 0.94969 0.50239 0.71713 0.0
H1235 H 0.97059 0.55061 0.69867 0.0
H1236 H 0.93179 0.62665 0.68697 0.0
H1237 H 0.94652 0.5882 0.67929 0.0
H1238 H 0.81474 0.50245 0.78707 0.0
H1239 H 0.82978 0.46458 0.7785 0.0
H1240 H 0.84372 0.56942 0.79108 0.0
H1241 H 0.85336 0.61142 0.76799 0.0
C1242 C 0.50968 1.00202 0.25544 0.0
C1243 C 0.49481 0.95738 0.25907 0.0
C1244 C 0.51844 0.95632 0.21451 0.0
C1245 C 0.52778 0.99937 0.20964 0.0
N1246 N 0.5286 0.06273 0.2246 0.0
N1247 N 0.47352 0.89042 0.23921 0.0
C1248 C 0.52319 0.02245 0.23002 0.0
C1249 C 0.49662 0.93406 0.23798 0.0
N1250 N 0.50876 0.02437 0.27608 0.0
N1251 N 0.52966 0.93648 0.19646 0.0
H1252 H 0.45213 0.87352 0.25449 0.0
H1253 H 0.47068 0.87163 0.22353 0.0
H1254 H 0.54568 0.95206 0.17901 0.0
H1255 H 0.52709 0.90627 0.20008 0.0
H1256 H 0.52391 0.05768 0.27593 0.0
H1257 H 0.49459 0.00952 0.29402 0.0
H1258 H 0.52061 0.07932 0.2376 0.0
H1259 H 0.53835 0.07879 0.20628 0.0
C1260 C 0.04617 0.49147 0.2522 0.0
C1261 C 0.08621 0.52988 0.25655 0.0
C1262 C 0.08938 0.54895 0.20896 0.0
C1263 C 0.04994 0.50988 0.20466 0.0
N1264 N 0.9969 0.43945 0.22093 0.0
N1265 N 0.15025 0.59164 0.23864 0.0
C1266 C 0.03051 0.47956 0.22591 0.0
C1267 C 0.10943 0.55707 0.23463 0.0
N1268 N 0.02124 0.46815 0.27317 0.0
N1269 N 0.10605 0.57963 0.18898 0.0
H1270 H 0.16492 0.5997 0.25734 0.0
H1271 H 0.17113 0.61015 0.22343 0.0
H1272 H 0.09247 0.57519 0.16989 0.0
H1273 H 0.13133 0.61079 0.19167 0.0
H1274 H 0.98939 0.44232 0.27136 0.0
H1275 H 0.03102 0.47724 0.29243 0.0
H1276 H 0.98409 0.41462 0.23527 0.0
H1277 H 0.98472 0.42994 0.20187 0.0
C1278 C 0.4541 0.49622 0.26393 0.0
C1279 C 0.44304 0.52983 0.26272 0.0
C1280 C 0.43351 0.52481 0.2145 0.0
C1281 C 0.45094 0.49605 0.21544 0.0
N1282 N 0.47513 0.45136 0.24038 0.0
N1283 N 0.42756 0.58001 0.23655 0.0
C1284 C 0.45961 0.4802 0.24007 0.0
C1285 C 0.4333 0.54459 0.23793 0.0
N1286 N 0.46149 0.48134 0.28797 0.0
N1287 N 0.41775 0.53368 0.19106 0.0
H1288 H 0.42794 0.59601 0.25315 0.0
H1289 H 0.42589 0.59563 0.21888 0.0
H1290 H 0.41823 0.52023 0.17347 0.0
H1291 H 0.40046 0.55097 0.18951 0.0
H1292 H 0.46594 0.45454 0.29096 0.0
H1293 H 0.46159 0.49533 0.30534 0.0
H1294 H 0.48647 0.44125 0.25723 0.0
H1295 H 0.47758 0.43791 0.22326 0.0
C1296 C 0.90665 0.47617 0.8202 0.0
C1297 C 0.92967 0.48438 0.79631 0.0
C1298 C 0.00035 0.52688 0.82001 0.0
C1299 C 0.97667 0.52003 0.84351 0.0
N1300 N 0.9073 0.49824 0.86446 0.0
N1301 N 0.99776 0.51892 0.77272 0.0
C1302 C 0.92975 0.49824 0.84299 0.0
C1303 C 0.97633 0.51096 0.79595 0.0
N1304 N 0.86368 0.44431 0.82181 0.0
N1305 N 0.04566 0.54592 0.82107 0.0
H1306 H 0.98167 0.50325 0.7557 0.0
H1307 H 0.03075 0.54191 0.77004 0.0
H1308 H 0.06434 0.55817 0.83826 0.0
H1309 H 0.06491 0.54767 0.80539 0.0
H1310 H 0.84659 0.43398 0.83944 0.0
H1311 H 0.84669 0.4249 0.80612 0.0
H1312 H 0.87305 0.48618 0.86429 0.0
H1313 H 0.92347 0.51418 0.88152 0.0
C1314 C 0.57628 0.46586 0.8268 0.0
C1315 C 0.57801 0.49349 0.80487 0.0
C1316 C 0.56876 0.53971 0.83542 0.0
C1317 C 0.5598 0.50851 0.85628 0.0
N1318 N 0.55314 0.44051 0.87181 0.0
N1319 N 0.57053 0.55419 0.7882 0.0
C1320 C 0.56399 0.47161 0.85212 0.0
C1321 C 0.5737 0.53025 0.80926 0.0
N1322 N 0.58424 0.43262 0.82296 0.0
N1323 N 0.57226 0.57838 0.84065 0.0
H1324 H 0.57276 0.54723 0.76899 0.0
H1325 H 0.56216 0.57842 0.78965 0.0
H1326 H 0.56864 0.58607 0.85957 0.0
H1327 H 0.58285 0.60406 0.82688 0.0
H1328 H 0.58967 0.42544 0.80436 0.0
H1329 H 0.58845 0.41399 0.83823 0.0
H1330 H 0.55001 0.41043 0.86922 0.0
H1331 H 0.54431 0.44355 0.8906 0.0
C1332 C 0.51805 0.99645 0.80156 0.0
C1333 C 0.5501 0.04042 0.79788 0.0
C1334 C 0.57591 0.04013 0.84383 0.0
C1335 C 0.53869 0.99945 0.8486 0.0
N1336 N 0.47434 0.93744 0.83232 0.0
N1337 N 0.60633 0.10538 0.81666 0.0
C1338 C 0.51044 0.97661 0.82738 0.0
C1339 C 0.57905 0.06231 0.81915 0.0
N1340 N 0.49259 0.97477 0.78048 0.0
N1341 N 0.60759 0.05791 0.86323 0.0
H1342 H 0.60756 0.12268 0.79933 0.0
H1343 H 0.62444 0.12426 0.83232 0.0
H1344 H 0.60569 0.04224 0.88155 0.0
H1345 H 0.63752 0.08586 0.86024 0.0
H1346 H 0.47201 0.94174 0.78078 0.0
H1347 H 0.49372 0.98979 0.76205 0.0
H1348 H 0.44924 0.92115 0.81851 0.0
H1349 H 0.46819 0.92173 0.85087 0.0
C1350 C 0.15315 0.32515 0.58531 0.0
C1351 C 0.14697 0.28287 0.58906 0.0
C1352 C 0.15154 0.28047 0.54106 0.0
C1353 C 0.1654 0.32508 0.53831 0.0
N1354 N 0.13692 0.36908 0.55427 0.0
N1355 N 0.13939 0.21956 0.56985 0.0
C1356 C 0.15528 0.34295 0.55942 0.0
C1357 C 0.14627 0.26045 0.56672 0.0
N1358 N 0.15377 0.34739 0.60638 0.0
N1359 N 0.13554 0.25587 0.51945 0.0
H1360 H 0.13206 0.20309 0.58797 0.0
H1361 H 0.14392 0.2034 0.55485 0.0
H1362 H 0.13068 0.26832 0.50121 0.0
H1363 H 0.12104 0.22256 0.52034 0.0
H1364 H 0.16158 0.37958 0.60459 0.0
H1365 H 0.14963 0.33462 0.62566 0.0
H1366 H 0.12543 0.3802 0.56899 0.0
H1367 H 0.12559 0.37261 0.53532 0.0
C1368 C 0.775 0.89085 0.57184 0.0
C1369 C 0.75063 0.86305 0.59332 0.0
C1370 C 0.69514 0.81486 0.56169 0.0
C1371 C 0.71593 0.8456 0.54087 0.0
N1372 N 0.77436 0.9146 0.52606 0.0
N1373 N 0.68274 0.80333 0.60857 0.0
C1374 C 0.75605 0.88374 0.54582 0.0
C1375 C 0.70979 0.82583 0.58819 0.0
N1376 N 0.81555 0.92533 0.5766 0.0
N1377 N 0.66088 0.77537 0.55613 0.0
H1378 H 0.69073 0.81316 0.62781 0.0
H1379 H 0.65058 0.77829 0.60606 0.0
H1380 H 0.6493 0.76659 0.53689 0.0
H1381 H 0.64703 0.75025 0.57022 0.0
H1382 H 0.8285 0.93421 0.59555 0.0
H1383 H 0.83752 0.94379 0.56181 0.0
H1384 H 0.80028 0.94534 0.52903 0.0
H1385 H 0.76177 0.91063 0.50675 0.0
C1386 C 0.09911 0.88127 0.56936 0.0
C1387 C 0.10759 0.86504 0.59404 0.0
C1388 C 0.1201 0.81326 0.57088 0.0
C1389 C 0.11593 0.83233 0.54637 0.0
N1390 N 0.09157 0.87712 0.52158 0.0
N1391 N 0.13164 0.81968 0.61819 0.0
C1392 C 0.10194 0.86383 0.54543 0.0
C1393 C 0.11846 0.83133 0.5948 0.0
N1394 N 0.09229 0.91605 0.56884 0.0
N1395 N 0.12547 0.77767 0.57113 0.0
H1396 H 0.13305 0.83405 0.63566 0.0
H1397 H 0.14473 0.79872 0.62002 0.0
H1398 H 0.12683 0.76395 0.55385 0.0
H1399 H 0.12448 0.75951 0.58817 0.0
H1400 H 0.09112 0.93307 0.55174 0.0
H1401 H 0.0905 0.92999 0.58589 0.0
H1402 H 0.07661 0.89648 0.51939 0.0
H1403 H 0.09487 0.8662 0.50367 0.0
C1404 C 0.5767 0.82839 0.14926 0.0
C1405 C 0.60189 0.82461 0.12933 0.0
C1406 C 0.66908 0.85965 0.15711 0.0
C1407 C 0.6428 0.85693 0.17842 0.0
N1408 N 0.57173 0.83949 0.19553 0.0
N1409 N 0.67116 0.83174 0.1154 0.0
C1410 C 0.59668 0.84233 0.17459 0.0
C1411 C 0.64803 0.83956 0.13341 0.0
N1412 N 0.53332 0.81713 0.14411 0.0
N1413 N 0.71429 0.88129 0.15967 0.0
H1414 H 0.65708 0.81752 0.09761 0.0
H1415 H 0.70334 0.83671 0.11883 0.0
H1416 H 0.73064 0.89641 0.17691 0.0
H1417 H 0.73536 0.88786 0.14398 0.0
H1418 H 0.51369 0.82264 0.15661 0.0
H1419 H 0.51772 0.80447 0.12628 0.0
H1420 H 0.53727 0.82496 0.19497 0.0
H1421 H 0.58555 0.85018 0.21412 0.0
C1422 C 0.26473 0.83949 0.15847 0.0
C1423 C 0.23785 0.83586 0.13566 0.0
C1424 C 0.18727 0.84778 0.16262 0.0
C1425 C 0.2143 0.85145 0.1854 0.0
N1426 N 0.284 0.86097 0.20391 0.0
N1427 N 0.17829 0.84459 0.11498 0.0
C1428 C 0.25486 0.85073 0.1829 0.0
C1429 C 0.20117 0.84351 0.13747 0.0
N1430 N 0.29803 0.82943 0.15718 0.0
N1431 N 0.1467 0.84525 0.16524 0.0
H1432 H 0.18606 0.83901 0.09656 0.0
H1433 H 0.15423 0.85438 0.11417 0.0
H1434 H 0.13496 0.84782 0.18322 0.0
H1435 H 0.12301 0.83731 0.15005 0.0
H1436 H 0.3156 0.82614 0.17361 0.0
H1437 H 0.30622 0.82198 0.13955 0.0
H1438 H 0.31594 0.86505 0.20275 0.0
H1439 H 0.27758 0.8691 0.22199 0.0
C1440 C 0.1958 0.34642 0.1376 0.0
C1441 C 0.23133 0.38883 0.13404 0.0
C1442 C 0.25708 0.38487 0.17959 0.0
C1443 C 0.21707 0.34634 0.18439 0.0
N1444 N 0.14713 0.29031 0.16826 0.0
N1445 N 0.29495 0.44943 0.15194 0.0
C1446 C 0.18659 0.32642 0.16331 0.0
C1447 C 0.26241 0.40796 0.15496 0.0
N1448 N 0.1692 0.3265 0.11645 0.0
N1449 N 0.28962 0.39952 0.19877 0.0
H1450 H 0.29931 0.46683 0.1342 0.0
H1451 H 0.31563 0.46719 0.16727 0.0
H1452 H 0.28627 0.38315 0.21699 0.0
H1453 H 0.32116 0.42539 0.1958 0.0
H1454 H 0.14558 0.29418 0.11679 0.0
H1455 H 0.17307 0.34169 0.09781 0.0
H1456 H 0.12108 0.27727 0.15452 0.0
H1457 H 0.13894 0.27455 0.18674 0.0
C1458 C 0.82552 0.66059 0.91803 0.0
C1459 C 0.82191 0.61937 0.9222 0.0
C1460 C 0.82562 0.61581 0.87432 0.0
C1461 C 0.83576 0.6595 0.87085 0.0
N1462 N 0.80423 0.70084 0.88702 0.0
N1463 N 0.82286 0.55913 0.90404 0.0
C1464 C 0.82511 0.67688 0.892 0.0
C1465 C 0.82349 0.5975 0.90024 0.0
N1466 N 0.82645 0.68318 0.939 0.0
N1467 N 0.8103 0.58988 0.8533 0.0
H1468 H 0.82207 0.54556 0.92277 0.0
H1469 H 0.82809 0.54356 0.88897 0.0
H1470 H 0.8032 0.60044 0.835 0.0
H1471 H 0.79843 0.55687 0.85495 0.0
H1472 H 0.83189 0.71464 0.93684 0.0
H1473 H 0.82575 0.67178 0.95845 0.0
H1474 H 0.79238 0.71133 0.90189 0.0
H1475 H 0.7916 0.70304 0.86822 0.0
C1476 C 0.44625 0.22432 0.90299 0.0
C1477 C 0.42179 0.19768 0.92479 0.0
C1478 C 0.36352 0.15065 0.89397 0.0
C1479 C 0.38481 0.18073 0.87288 0.0
N1480 N 0.4456 0.24744 0.85709 0.0
N1481 N 0.35513 0.13797 0.94131 0.0
C1482 C 0.42641 0.21754 0.87723 0.0
C1483 C 0.38021 0.161 0.9203 0.0
N1484 N 0.48813 0.25716 0.90725 0.0
N1485 N 0.3272 0.11226 0.88875 0.0
H1486 H 0.36624 0.14546 0.96065 0.0
H1487 H 0.32238 0.11376 0.93963 0.0
H1488 H 0.31414 0.10405 0.86969 0.0
H1489 H 0.31254 0.08725 0.90283 0.0
H1490 H 0.50265 0.26451 0.92604 0.0
H1491 H 0.50979 0.27506 0.89222 0.0
H1492 H 0.47292 0.27754 0.85959 0.0
H1493 H 0.43258 0.24339 0.83786 0.0
C1494 C 0.7817 0.15705 0.92983 0.0
C1495 C 0.77227 0.19159 0.92946 0.0
C1496 C 0.74729 0.17787 0.88333 0.0
C1497 C 0.76735 0.15144 0.88219 0.0
N1498 N 0.76716 0.09277 0.9083 0.0
N1499 N 0.74816 0.23687 0.90469 0.0
C1500 C 0.77367 0.13368 0.9067 0.0
C1501 C 0.75485 0.20212 0.906 0.0
N1502 N 0.80194 0.14887 0.95139 0.0
N1503 N 0.71637 0.17523 0.86469 0.0
H1504 H 0.75584 0.25695 0.92039 0.0
H1505 H 0.73918 0.24782 0.88716 0.0
H1506 H 0.7053 0.15238 0.85026 0.0
H1507 H 0.69783 0.1911 0.86588 0.0
H1508 H 0.81278 0.12611 0.95173 0.0
H1509 H 0.8122 0.16823 0.96759 0.0
H1510 H 0.7677 0.07698 0.92616 0.0
H1511 H 0.75572 0.07343 0.89198 0.0
C1512 C 0.30243 0.18984 0.46509 0.0
C1513 C 0.25843 0.15541 0.46485 0.0
C1514 C 0.24996 0.17134 0.50965 0.0
C1515 C 0.29651 0.1968 0.51213 0.0
N1516 N 0.35516 0.25367 0.48722 0.0
N1517 N 0.19045 0.11138 0.48823 0.0
C1518 C 0.31968 0.21346 0.48827 0.0
C1519 C 0.23192 0.14588 0.48739 0.0
N1520 N 0.32887 0.19776 0.44409 0.0
N1521 N 0.22298 0.17634 0.52621 0.0
H1522 H 0.17668 0.09055 0.47277 0.0
H1523 H 0.17172 0.10164 0.50529 0.0
H1524 H 0.23592 0.20034 0.53997 0.0
H1525 H 0.18855 0.16105 0.52371 0.0
H1526 H 0.36252 0.22015 0.44425 0.0
H1527 H 0.31801 0.17876 0.42772 0.0
H1528 H 0.37106 0.26903 0.46974 0.0
H1529 H 0.36469 0.27312 0.50347 0.0
C1530 C 0.90534 0.19952 0.47733 0.0
C1531 C 0.91118 0.1636 0.47308 0.0
C1532 C 0.89566 0.14057 0.52009 0.0
C1533 C 0.88874 0.17598 0.52405 0.0
N1534 N 0.89786 0.24476 0.50851 0.0
N1535 N 0.92016 0.1044 0.49131 0.0
C1536 C 0.89736 0.20738 0.5033 0.0
C1537 C 0.90987 0.13619 0.49502 0.0
N1538 N 0.90432 0.22439 0.45616 0.0
N1539 N 0.88567 0.10949 0.53972 0.0
H1540 H 0.92433 0.08574 0.50658 0.0
H1541 H 0.928 0.09889 0.47287 0.0
H1542 H 0.87558 0.11162 0.55835 0.0
H1543 H 0.88461 0.08025 0.53724 0.0
H1544 H 0.89474 0.24786 0.45707 0.0
H1545 H 0.91096 0.21972 0.43726 0.0
H1546 H 0.90785 0.27072 0.49501 0.0
H1547 H 0.89199 0.25122 0.52726 0.0
C1548 C 0.92532 0.73654 0.49087 0.0
C1549 C 0.89416 0.71986 0.46968 0.0
C1550 C 0.84669 0.65677 0.49766 0.0
C1551 C 0.8771 0.67447 0.51908 0.0
N1552 N 0.95051 0.72407 0.53441 0.0
N1553 N 0.83109 0.65986 0.45074 0.0
C1554 C 0.91834 0.71194 0.51501 0.0
C1555 C 0.85729 0.67806 0.47235 0.0
N1556 N 0.95993 0.77707 0.48853 0.0
N1557 N 0.80622 0.62159 0.50192 0.0
H1558 H 0.83659 0.67584 0.43231 0.0
H1559 H 0.80631 0.62799 0.4505 0.0
H1560 H 0.79711 0.6049 0.52009 0.0
H1561 H 0.7804 0.61036 0.48795 0.0
H1562 H 0.98088 0.79342 0.50416 0.0
H1563 H 0.96623 0.79506 0.47094 0.0
H1564 H 0.98275 0.74896 0.53194 0.0
H1565 H 0.94599 0.70651 0.55228 0.0
loop_
_geom_bond_atom_site_label_1
_geom_bond_atom_site_label_2
_geom_bond_distance
_geom_bond_site_symmetry_2
_ccdc_geom_bond_type
C0 N1 1.317 . S
C0 N2 1.348 . S
C0 C3 1.485 . S
N1 C0 1.317 . S
N1 N5 1.370 . S
N2 C0 1.348 . S
N2 C4 1.346 . S
C3 C0 1.485 . S
C3 H7 0.960 . S
C3 H8 0.961 . S
C3 H9 0.960 . S
C4 N2 1.346 . S
C4 N5 1.307 . S
C4 C6 1.486 . S
N5 N1 1.370 . S
N5 C4 1.307 . S
C6 C4 1.486 . S
C6 H10 0.960 . S
C6 H11 0.960 . S
C6 H12 0.959 . S
H7 C3 0.960 . S
H8 C3 0.961 . S
H9 C3 0.960 . S
H10 C6 0.960 . S
H11 C6 0.960 . S
H12 C6 0.959 . S
C13 N14 1.317 . S
C13 N15 1.348 . S
C13 C16 1.485 . S
N14 C13 1.317 . S
N14 N18 1.370 . S
N15 C13 1.348 . S
N15 C17 1.346 . S
C16 C13 1.485 . S
C16 H20 0.960 . S
C16 H21 0.961 . S
C16 H22 0.960 . S
C17 N15 1.346 . S
C17 N18 1.307 . S
C17 C19 1.486 . S
N18 N14 1.370 . S
N18 C17 1.307 . S
C19 C17 1.486 . S
C19 H23 0.960 . S
C19 H24 0.960 . S
C19 H25 0.959 . S
H20 C16 0.960 . S
H21 C16 0.961 . S
H22 C16 0.960 . S
H23 C19 0.960 . S
H24 C19 0.960 . S
H25 C19 0.959 . S
C26 N27 1.317 . S
C26 N28 1.348 . S
C26 C29 1.485 . S
N27 C26 1.317 . S
N27 N31 1.370 . S
N28 C26 1.348 . S
N28 C30 1.346 . S
C29 C26 1.485 . S
C29 H33 0.960 . S
C29 H34 0.961 . S
C29 H35 0.960 . S
C30 N28 1.346 . S
C30 N31 1.307 . S
C30 C32 1.486 . S
N31 N27 1.370 . S
N31 C30 1.307 . S
C32 C30 1.486 . S
C32 H36 0.960 . S
C32 H37 0.960 . S
C32 H38 0.959 . S
H33 C29 0.960 . S
H34 C29 0.961 . S
H35 C29 0.960 . S
H36 C32 0.960 . S
H37 C32 0.960 . S
H38 C32 0.959 . S
C39 N40 1.317 . S
C39 N41 1.348 . S
C39 C42 1.485 . S
N40 C39 1.317 . S
N40 N44 1.370 . S
N41 C39 1.348 . S
N41 C43 1.346 . S
C42 C39 1.485 . S
C42 H46 0.960 . S
C42 H47 0.961 . S
C42 H48 0.960 . S
C43 N41 1.346 . S
C43 N44 1.307 . S
C43 C45 1.486 . S
N44 N40 1.370 . S
N44 C43 1.307 . S
C45 C43 1.486 . S
C45 H49 0.960 . S
C45 H50 0.960 1_455 S
C45 H51 0.959 . S
H46 C42 0.960 . S
H47 C42 0.961 . S
H48 C42 0.960 . S
H49 C45 0.960 . S
H50 C45 0.960 1_655 S
H51 C45 0.959 . S
C52 N53 1.317 . S
C52 N54 1.348 . S
C52 C55 1.485 . S
N53 C52 1.317 . S
N53 N57 1.370 . S
N54 C52 1.348 . S
N54 C56 1.346 . S
C55 C52 1.485 . S
C55 H59 0.960 . S
C55 H60 0.961 . S
C55 H61 0.960 . S
C56 N54 1.346 . S
C56 N57 1.307 . S
C56 C58 1.486 . S
N57 N53 1.370 . S
N57 C56 1.307 . S
C58 C56 1.486 . S
C58 H62 0.960 . S
C58 H63 0.960 . S
C58 H64 0.959 . S
H59 C55 0.960 . S
H60 C55 0.961 . S
H61 C55 0.960 . S
H62 C58 0.960 . S
H63 C58 0.960 . S
H64 C58 0.959 . S
C65 N66 1.317 . S
C65 N67 1.348 . S
C65 C68 1.485 . S
N66 C65 1.317 . S
N66 N70 1.370 . S
N67 C65 1.348 . S
N67 C69 1.346 . S
C68 C65 1.485 . S
C68 H72 0.960 . S
C68 H73 0.961 . S
C68 H74 0.960 . S
C69 N67 1.346 . S
C69 N70 1.307 . S
C69 C71 1.486 . S
N70 N66 1.370 . S
N70 C69 1.307 . S
C71 C69 1.486 . S
C71 H75 0.960 . S
C71 H76 0.960 . S
C71 H77 0.959 . S
H72 C68 0.960 . S
H73 C68 0.961 . S
H74 C68 0.960 . S
H75 C71 0.960 . S
H76 C71 0.960 . S
H77 C71 0.959 . S
C78 N79 1.317 . S
C78 N80 1.348 . S
C78 C81 1.485 . S
N79 C78 1.317 . S
N79 N83 1.370 . S
N80 C78 1.348 . S
N80 C82 1.346 . S
C81 C78 1.485 . S
C81 H85 0.960 . S
C81 H86 0.961 . S
C81 H87 0.960 . S
C82 N80 1.346 . S
C82 N83 1.307 . S
C82 C84 1.486 . S
N83 N79 1.370 . S
N83 C82 1.307 . S
C84 C82 1.486 . S
C84 H88 0.960 . S
C84 H89 0.960 . S
C84 H90 0.959 . S
H85 C81 0.960 . S
H86 C81 0.961 . S
H87 C81 0.960 . S
H88 C84 0.960 . S
H89 C84 0.960 . S
H90 C84 0.959 . S
C91 N92 1.317 . S
C91 N93 1.348 . S
C91 C94 1.485 . S
N92 C91 1.317 . S
N92 N96 1.370 . S
N93 C91 1.348 . S
N93 C95 1.346 . S
C94 C91 1.485 . S
C94 H98 0.960 . S
C94 H99 0.961 . S
C94 H100 0.960 . S
C95 N93 1.346 . S
C95 N96 1.307 . S
C95 C97 1.486 . S
N96 N92 1.370 . S
N96 C95 1.307 . S
C97 C95 1.486 . S
C97 H101 0.960 . S
C97 H102 0.960 . S
C97 H103 0.959 . S
H98 C94 0.960 . S
H99 C94 0.961 . S
H100 C94 0.960 . S
H101 C97 0.960 . S
H102 C97 0.960 . S
H103 C97 0.959 . S
C104 N105 1.317 . S
C104 N106 1.348 . S
C104 C107 1.485 . S
N105 C104 1.317 . S
N105 N109 1.370 . S
N106 C104 1.348 . S
N106 C108 1.346 . S
C107 C104 1.485 . S
C107 H111 0.960 . S
C107 H112 0.961 . S
C107 H113 0.960 . S
C108 N106 1.346 . S
C108 N109 1.307 . S
C108 C110 1.486 . S
N109 N105 1.370 . S
N109 C108 1.307 . S
C110 C108 1.486 . S
C110 H114 0.960 . S
C110 H115 0.960 . S
C110 H116 0.959 . S
H111 C107 0.960 . S
H112 C107 0.961 . S
H113 C107 0.960 . S
H114 C110 0.960 . S
H115 C110 0.960 . S
H116 C110 0.959 . S
C117 N118 1.317 . S
C117 N119 1.348 . S
C117 C120 1.485 . S
N118 C117 1.317 . S
N118 N122 1.370 . S
N119 C117 1.348 . S
N119 C121 1.346 . S
C120 C117 1.485 . S
C120 H124 0.960 . S
C120 H125 0.961 1_556 S
C120 H126 0.960 . S
C121 N119 1.346 . S
C121 N122 1.307 . S
C121 C123 1.486 . S
N122 N118 1.370 . S
N122 C121 1.307 . S
C123 C121 1.486 . S
C123 H127 0.960 . S
C123 H128 0.960 . S
C123 H129 0.959 . S
H124 C120 0.960 . S
H125 C120 0.961 1_554 S
H126 C120 0.960 . S
H127 C123 0.960 . S
H128 C123 0.960 . S
H129 C123 0.959 . S
C130 N131 1.317 . S
C130 N132 1.348 . S
C130 C133 1.485 1_556 S
N131 C130 1.317 . S
N131 N135 1.370 . S
N132 C130 1.348 . S
N132 C134 1.346 . S
C133 C130 1.485 1_554 S
C133 H137 0.960 . S
C133 H138 0.961 . S
C133 H139 0.960 . S
C134 N132 1.346 . S
C134 N135 1.307 . S
C134 C136 1.486 . S
N135 N131 1.370 . S
N135 C134 1.307 . S
C136 C134 1.486 . S
C136 H140 0.960 . S
C136 H141 0.960 . S
C136 H142 0.959 . S
H137 C133 0.960 . S
H138 C133 0.961 . S
H139 C133 0.960 . S
H140 C136 0.960 . S
H141 C136 0.960 . S
H142 C136 0.959 . S
C143 N144 1.317 . S
C143 N145 1.348 . S
C143 C146 1.485 1_556 S
N144 C143 1.317 . S
N144 N148 1.370 . S
N145 C143 1.348 . S
N145 C147 1.346 . S
C146 C143 1.485 1_554 S
C146 H150 0.960 . S
C146 H151 0.961 . S
C146 H152 0.960 . S
C147 N145 1.346 . S
C147 N148 1.307 . S
C147 C149 1.486 . S
N148 N144 1.370 . S
N148 C147 1.307 . S
C149 C147 1.486 . S
C149 H153 0.960 . S
C149 H154 0.960 . S
C149 H155 0.959 . S
H150 C146 0.960 . S
H151 C146 0.961 . S
H152 C146 0.960 . S
H153 C149 0.960 . S
H154 C149 0.960 . S
H155 C149 0.959 . S
C156 N157 1.317 . S
C156 N158 1.348 . S
C156 C159 1.485 1_554 S
N157 C156 1.317 . S
N157 N161 1.370 . S
N158 C156 1.348 . S
N158 C160 1.346 . S
C159 C156 1.485 1_556 S
C159 H163 0.960 . S
C159 H164 0.961 . S
C159 H165 0.960 . S
C160 N158 1.346 . S
C160 N161 1.307 . S
C160 C162 1.486 . S
N161 N157 1.370 . S
N161 C160 1.307 . S
C162 C160 1.486 . S
C162 H166 0.960 . S
C162 H167 0.960 . S
C162 H168 0.959 . S
H163 C159 0.960 . S
H164 C159 0.961 . S
H165 C159 0.960 . S
H166 C162 0.960 . S
H167 C162 0.960 . S
H168 C162 0.959 . S
C169 N170 1.317 . S
C169 N171 1.348 . S
C169 C172 1.485 . S
N170 C169 1.317 . S
N170 N174 1.370 . S
N171 C169 1.348 . S
N171 C173 1.346 . S
C172 C169 1.485 . S
C172 H176 0.960 1_554 S
C172 H177 0.961 . S
C172 H178 0.960 . S
C173 N171 1.346 . S
C173 N174 1.307 . S
C173 C175 1.486 . S
N174 N170 1.370 . S
N174 C173 1.307 . S
C175 C173 1.486 . S
C175 H179 0.960 . S
C175 H180 0.960 . S
C175 H181 0.959 . S
H176 C172 0.960 1_556 S
H177 C172 0.961 . S
H178 C172 0.960 . S
H179 C175 0.960 . S
H180 C175 0.960 . S
H181 C175 0.959 . S
C182 N183 1.317 . S
C182 N184 1.348 . S
C182 C185 1.485 . S
N183 C182 1.317 . S
N183 N187 1.370 . S
N184 C182 1.348 . S
N184 C186 1.346 . S
C185 C182 1.485 . S
C185 H189 0.960 . S
C185 H190 0.961 . S
C185 H191 0.960 . S
C186 N184 1.346 . S
C186 N187 1.307 . S
C186 C188 1.486 . S
N187 N183 1.370 . S
N187 C186 1.307 . S
C188 C186 1.486 . S
C188 H192 0.960 . S
C188 H193 0.960 . S
C188 H194 0.959 . S
H189 C185 0.960 . S
H190 C185 0.961 . S
H191 C185 0.960 . S
H192 C188 0.960 . S
H193 C188 0.960 . S
H194 C188 0.959 . S
C195 N196 1.317 . S
C195 N197 1.348 . S
C195 C198 1.485 . S
N196 C195 1.317 . S
N196 N200 1.370 . S
N197 C195 1.348 . S
N197 C199 1.346 . S
C198 C195 1.485 . S
C198 H202 0.960 . S
C198 H203 0.961 . S
C198 H204 0.960 . S
C199 N197 1.346 . S
C199 N200 1.307 . S
C199 C201 1.486 . S
N200 N196 1.370 . S
N200 C199 1.307 . S
C201 C199 1.486 . S
C201 H205 0.960 . S
C201 H206 0.960 . S
C201 H207 0.959 . S
H202 C198 0.960 . S
H203 C198 0.961 . S
H204 C198 0.960 . S
H205 C201 0.960 . S
H206 C201 0.960 . S
H207 C201 0.959 . S
C208 N209 1.317 . S
C208 N210 1.348 . S
C208 C211 1.485 . S
N209 C208 1.317 . S
N209 N213 1.370 . S
N210 C208 1.348 . S
N210 C212 1.346 . S
C211 C208 1.485 . S
C211 H215 0.960 . S
C211 H216 0.961 . S
C211 H217 0.960 . S
C212 N210 1.346 . S
C212 N213 1.307 . S
C212 C214 1.486 . S
N213 N209 1.370 . S
N213 C212 1.307 . S
C214 C212 1.486 . S
C214 H218 0.960 . S
C214 H219 0.960 . S
C214 H220 0.959 . S
H215 C211 0.960 . S
H216 C211 0.961 . S
H217 C211 0.960 . S
H218 C214 0.960 . S
H219 C214 0.960 . S
H220 C214 0.959 . S
C221 N222 1.317 . S
C221 N223 1.348 . S
C221 C224 1.485 . S
N222 C221 1.317 . S
N222 N226 1.370 . S
N223 C221 1.348 . S
N223 C225 1.346 . S
C224 C221 1.485 . S
C224 H228 0.960 . S
C224 H229 0.961 . S
C224 H230 0.960 . S
C225 N223 1.346 . S
C225 N226 1.307 . S
C225 C227 1.486 . S
N226 N222 1.370 . S
N226 C225 1.307 . S
C227 C225 1.486 . S
C227 H231 0.960 . S
C227 H232 0.960 . S
C227 H233 0.959 . S
H228 C224 0.960 . S
H229 C224 0.961 . S
H230 C224 0.960 . S
H231 C227 0.960 . S
H232 C227 0.960 . S
H233 C227 0.959 . S
Eu234 C243 2.828 1_565 S
Eu234 O245 2.392 1_556 S
Eu234 O247 2.418 . S
Eu234 O252 2.373 1_565 S
Eu234 O255 2.488 . S
Eu234 O256 2.471 1_565 S
Eu234 O257 2.349 1_565 S
Eu235 O244 2.373 1_545 S
Eu235 O248 2.488 . S
Eu235 O249 2.471 1_545 S
Eu235 O250 2.349 1_545 S
Eu235 O253 2.392 . S
Eu235 O254 2.418 . S
Eu235 C264 2.828 1_545 S
C236 O254 1.244 . S
C236 O257 1.265 1_554 S
C237 C238 1.379 . S
C237 C241 1.373 . S
C237 C243 1.505 . S
C238 C237 1.379 . S
C238 C240 1.369 . S
C238 H266 0.930 . S
C239 C241 1.383 . S
C239 C242 1.382 . S
C239 H267 0.930 . S
C240 C238 1.369 . S
C240 C242 1.392 . S
C240 H268 0.930 . S
C241 C237 1.373 . S
C241 C239 1.383 . S
C241 H269 0.931 1_545 S
C242 C239 1.382 . S
C242 C240 1.392 . S
C243 Eu234 2.828 1_545 S
C243 C237 1.505 . S
C243 O255 1.249 1_545 S
C243 O256 1.244 . S
O244 Eu235 2.373 1_565 S
O244 C246 1.258 . S
O245 Eu234 2.392 1_554 S
O245 C246 1.242 . S
C246 O244 1.258 . S
C246 O245 1.242 . S
O247 Eu234 2.418 . S
O247 C251 1.244 1_556 S
O248 Eu235 2.488 . S
O248 C264 1.249 1_545 S
O249 Eu235 2.471 1_565 S
O249 C264 1.244 . S
O250 Eu235 2.349 1_565 S
O250 C251 1.265 . S
C251 O247 1.244 1_554 S
C251 O250 1.265 . S
O252 Eu234 2.373 1_545 S
O252 C265 1.258 . S
O253 Eu235 2.392 . S
O253 C265 1.242 1_554 S
O254 Eu235 2.418 . S
O254 C236 1.244 . S
O255 Eu234 2.488 . S
O255 C243 1.249 1_565 S
O256 Eu234 2.471 1_545 S
O256 C243 1.244 . S
O257 Eu234 2.349 1_545 S
O257 C236 1.265 1_556 S
C258 C259 1.379 . S
C258 C262 1.373 . S
C258 C264 1.505 . S
C259 C258 1.379 . S
C259 C261 1.369 . S
C259 H270 0.930 . S
C260 C262 1.383 . S
C260 C263 1.382 . S
C260 H271 0.930 . S
C261 C259 1.369 . S
C261 C263 1.392 . S
C261 H272 0.930 . S
C262 C258 1.373 . S
C262 C260 1.383 . S
C262 H273 0.931 1_565 S
C263 C260 1.382 . S
C263 C261 1.392 . S
C264 Eu235 2.828 1_565 S
C264 O248 1.249 1_565 S
C264 O249 1.244 . S
C264 C258 1.505 . S
C265 O252 1.258 . S
C265 O253 1.242 1_556 S
H266 C238 0.930 . S
H267 C239 0.930 . S
H268 C240 0.930 . S
H269 C241 0.931 1_565 S
H270 C259 0.930 . S
H271 C260 0.930 . S
H272 C261 0.930 . S
H273 C262 0.931 1_545 S
Eu274 C283 2.828 . S
Eu274 O285 2.392 1_556 S
Eu274 O287 2.418 . S
Eu274 O292 2.373 1_455 S
Eu274 O295 2.488 . S
Eu274 O296 2.471 1_455 S
Eu274 O297 2.349 1_455 S
Eu275 O284 2.373 1_655 S
Eu275 O288 2.488 . S
Eu275 O289 2.471 1_655 S
Eu275 O290 2.349 1_655 S
Eu275 O293 2.392 . S
Eu275 O294 2.418 . S
Eu275 C304 2.828 1_655 S
C276 O294 1.250 . S
C276 O297 1.262 1_554 S
C277 C278 1.391 . S
C277 C281 1.368 1_655 S
C277 C283 1.499 1_655 S
C278 C277 1.391 . S
C278 C280 1.369 . S
C278 H306 0.930 . S
C279 C281 1.383 . S
C279 C282 1.382 1_455 S
C279 H307 0.930 . S
C280 C278 1.369 . S
C280 C282 1.392 . S
C280 H308 0.930 . S
C281 C277 1.368 1_455 S
C281 C279 1.383 . S
C281 H309 0.931 . S
C282 C279 1.382 1_655 S
C282 C280 1.392 . S
C283 Eu274 2.828 . S
C283 C277 1.499 1_455 S
C283 O295 1.249 . S
C283 O296 1.244 1_455 S
O284 Eu275 2.373 1_455 S
O284 C286 1.258 . S
O285 Eu274 2.392 1_554 S
O285 C286 1.242 . S
C286 O284 1.258 . S
C286 O285 1.242 . S
O287 Eu274 2.418 . S
O287 C291 1.244 1_556 S
O288 Eu275 2.488 . S
O288 C304 1.249 1_655 S
O289 Eu275 2.471 1_455 S
O289 C304 1.244 . S
O290 Eu275 2.349 1_455 S
O290 C291 1.265 . S
C291 O287 1.244 1_554 S
C291 O290 1.265 . S
O292 Eu274 2.373 1_655 S
O292 C305 1.258 . S
O293 Eu275 2.392 . S
O293 C305 1.242 1_554 S
O294 Eu275 2.418 . S
O294 C276 1.250 . S
O295 Eu274 2.488 . S
O295 C283 1.249 . S
O296 Eu274 2.471 1_655 S
O296 C283 1.244 1_655 S
O297 Eu274 2.349 1_655 S
O297 C276 1.262 1_556 S
C298 C299 1.379 . S
C298 C302 1.373 1_455 S
C298 C304 1.505 . S
C299 C298 1.379 . S
C299 C301 1.369 . S
C299 H310 0.930 . S
C300 C302 1.383 1_455 S
C300 C303 1.382 . S
C300 H311 0.930 1_455 S
C301 C299 1.369 . S
C301 C303 1.392 . S
C301 H312 0.930 . S
C302 C298 1.373 1_655 S
C302 C300 1.383 1_655 S
C302 H313 0.931 . S
C303 C300 1.382 . S
C303 C301 1.392 . S
C304 Eu275 2.828 1_455 S
C304 O288 1.249 1_455 S
C304 O289 1.244 . S
C304 C298 1.505 . S
C305 O292 1.258 . S
C305 O293 1.242 1_556 S
H306 C278 0.930 . S
H307 C279 0.930 . S
H308 C280 0.930 . S
H309 C281 0.931 . S
H310 C299 0.930 . S
H311 C300 0.930 1_655 S
H312 C301 0.930 . S
H313 C302 0.931 . S
Eu314 C323 2.828 . S
Eu314 O325 2.392 . S
Eu314 O327 2.418 . S
Eu314 O332 2.373 . S
Eu314 O335 2.488 . S
Eu314 O336 2.471 . S
Eu314 O337 2.349 . S
Eu315 O324 2.373 . S
Eu315 O328 2.488 . S
Eu315 O329 2.471 . S
Eu315 O330 2.349 1_556 S
Eu315 O333 2.392 1_556 S
Eu315 O334 2.418 . S
Eu315 C344 2.828 . S
C316 O334 1.244 1_554 S
C316 O337 1.265 . S
C317 C318 1.379 . S
C317 C321 1.373 . S
C317 C323 1.505 . S
C318 C317 1.379 . S
C318 C320 1.369 . S
C318 H346 0.930 . S
C319 C321 1.383 . S
C319 C322 1.382 . S
C319 H347 0.930 . S
C320 C318 1.369 . S
C320 C322 1.392 . S
C320 H348 0.930 . S
C321 C317 1.373 . S
C321 C319 1.383 . S
C321 H349 0.931 . S
C322 C319 1.382 . S
C322 C320 1.392 . S
C323 Eu314 2.828 . S
C323 C317 1.505 . S
C323 O335 1.249 . S
C323 O336 1.244 . S
O324 Eu315 2.373 . S
O324 C326 1.258 . S
O325 Eu314 2.392 . S
O325 C326 1.242 1_554 S
C326 O324 1.258 . S
C326 O325 1.242 1_556 S
O327 Eu314 2.418 . S
O327 C331 1.244 . S
O328 Eu315 2.488 . S
O328 C344 1.249 . S
O329 Eu315 2.471 . S
O329 C344 1.244 . S
O330 Eu315 2.349 1_554 S
O330 C331 1.265 . S
C331 O327 1.244 . S
C331 O330 1.265 . S
O332 Eu314 2.373 . S
O332 C345 1.258 . S
O333 Eu315 2.392 1_554 S
O333 C345 1.242 . S
O334 Eu315 2.418 . S
O334 C316 1.244 1_556 S
O335 Eu314 2.488 . S
O335 C323 1.249 . S
O336 Eu314 2.471 . S
O336 C323 1.244 . S
O337 Eu314 2.349 . S
O337 C316 1.265 . S
C338 C339 1.379 . S
C338 C342 1.373 . S
C338 C344 1.505 . S
C339 C338 1.379 . S
C339 C341 1.369 . S
C339 H350 0.930 . S
C340 C342 1.383 . S
C340 C343 1.382 . S
C340 H351 0.930 . S
C341 C339 1.369 . S
C341 C343 1.392 . S
C341 H352 0.930 . S
C342 C338 1.373 . S
C342 C340 1.383 . S
C342 H353 0.931 . S
C343 C340 1.382 . S
C343 C341 1.392 . S
C344 Eu315 2.828 . S
C344 O328 1.249 . S
C344 O329 1.244 . S
C344 C338 1.505 . S
C345 O332 1.258 . S
C345 O333 1.242 . S
H346 C318 0.930 . S
H347 C319 0.930 . S
H348 C320 0.930 . S
H349 C321 0.931 . S
H350 C339 0.930 . S
H351 C340 0.930 . S
H352 C341 0.930 . S
H353 C342 0.931 . S
Eu354 C363 2.828 . S
Eu354 O365 2.392 . S
Eu354 O367 2.418 . S
Eu354 O372 2.373 . S
Eu354 O375 2.488 . S
Eu354 O376 2.471 . S
Eu354 O377 2.349 . S
Eu355 O364 2.373 . S
Eu355 O368 2.488 . S
Eu355 O369 2.471 . S
Eu355 O370 2.349 . S
Eu355 O373 2.392 . S
Eu355 O374 2.418 . S
Eu355 C384 2.828 . S
C356 O374 1.244 . S
C356 O377 1.265 . S
C357 C358 1.379 . S
C357 C361 1.373 . S
C357 C363 1.505 . S
C358 C357 1.379 . S
C358 C360 1.369 . S
C358 H386 0.930 . S
C359 C361 1.383 . S
C359 C362 1.382 . S
C359 H387 0.930 . S
C360 C358 1.369 . S
C360 C362 1.392 . S
C360 H388 0.930 . S
C361 C357 1.373 . S
C361 C359 1.383 . S
C361 H389 0.931 . S
C362 C359 1.382 . S
C362 C360 1.392 . S
C363 Eu354 2.828 . S
C363 C357 1.505 . S
C363 O375 1.249 . S
C363 O376 1.244 . S
O364 Eu355 2.373 . S
O364 C366 1.258 . S
O365 Eu354 2.392 . S
O365 C366 1.242 . S
C366 O364 1.258 . S
C366 O365 1.242 . S
O367 Eu354 2.418 . S
O367 C371 1.244 . S
O368 Eu355 2.488 . S
O368 C384 1.249 . S
O369 Eu355 2.471 . S
O369 C384 1.244 . S
O370 Eu355 2.349 . S
O370 C371 1.265 . S
C371 O367 1.244 . S
C371 O370 1.265 . S
O372 Eu354 2.373 . S
O372 C385 1.258 . S
O373 Eu355 2.392 . S
O373 C385 1.242 . S
O374 Eu355 2.418 . S
O374 C356 1.244 . S
O375 Eu354 2.488 . S
O375 C363 1.249 . S
O376 Eu354 2.471 . S
O376 C363 1.244 . S
O377 Eu354 2.349 . S
O377 C356 1.265 . S
C378 C379 1.379 . S
C378 C382 1.373 . S
C378 C384 1.505 . S
C379 C378 1.379 . S
C379 C381 1.369 . S
C379 H390 0.930 . S
C380 C382 1.383 . S
C380 C383 1.382 . S
C380 H391 0.930 . S
C381 C379 1.369 . S
C381 C383 1.392 . S
C381 H392 0.930 . S
C382 C378 1.373 . S
C382 C380 1.383 . S
C382 H393 0.931 . S
C383 C380 1.382 . S
C383 C381 1.392 . S
C384 Eu355 2.828 . S
C384 O368 1.249 . S
C384 O369 1.244 . S
C384 C378 1.505 . S
C385 O372 1.258 . S
C385 O373 1.242 . S
H386 C358 0.930 . S
H387 C359 0.930 . S
H388 C360 0.930 . S
H389 C361 0.931 . S
H390 C379 0.930 . S
H391 C380 0.930 . S
H392 C381 0.930 . S
H393 C382 0.931 . S
Eu394 C403 2.828 . S
Eu394 O405 2.392 . S
Eu394 O407 2.418 . S
Eu394 O412 2.373 . S
Eu394 O415 2.488 . S
Eu394 O416 2.471 . S
Eu394 O417 2.349 . S
Eu395 O404 2.373 . S
Eu395 O408 2.488 . S
Eu395 O409 2.471 . S
Eu395 O410 2.349 . S
Eu395 O413 2.392 . S
Eu395 O414 2.418 . S
Eu395 C424 2.828 . S
C396 O414 1.244 . S
C396 O417 1.265 . S
C397 C398 1.379 . S
C397 C401 1.373 . S
C397 C403 1.505 . S
C398 C397 1.379 . S
C398 C400 1.369 . S
C398 H426 0.930 . S
C399 C401 1.383 . S
C399 C402 1.382 . S
C399 H427 0.930 . S
C400 C398 1.369 . S
C400 C402 1.392 . S
C400 H428 0.930 . S
C401 C397 1.373 . S
C401 C399 1.383 . S
C401 H429 0.931 . S
C402 C399 1.382 . S
C402 C400 1.392 . S
C403 Eu394 2.828 . S
C403 C397 1.505 . S
C403 O415 1.249 . S
C403 O416 1.244 . S
O404 Eu395 2.373 . S
O404 C406 1.258 . S
O405 Eu394 2.392 . S
O405 C406 1.242 . S
C406 O404 1.258 . S
C406 O405 1.242 . S
O407 Eu394 2.418 . S
O407 C411 1.244 . S
O408 Eu395 2.488 . S
O408 C424 1.249 . S
O409 Eu395 2.471 . S
O409 C424 1.244 . S
O410 Eu395 2.349 . S
O410 C411 1.265 . S
C411 O407 1.244 . S
C411 O410 1.265 . S
O412 Eu394 2.373 . S
O412 C425 1.258 . S
O413 Eu395 2.392 . S
O413 C425 1.242 . S
O414 Eu395 2.418 . S
O414 C396 1.244 . S
O415 Eu394 2.488 . S
O415 C403 1.249 . S
O416 Eu394 2.471 . S
O416 C403 1.244 . S
O417 Eu394 2.349 . S
O417 C396 1.265 . S
C418 C419 1.379 . S
C418 C422 1.373 . S
C418 C424 1.505 . S
C419 C418 1.379 . S
C419 C421 1.369 . S
C419 H430 0.930 . S
C420 C422 1.383 . S
C420 C423 1.382 . S
C420 H431 0.930 . S
C421 C419 1.369 . S
C421 C423 1.392 . S
C421 H432 0.930 . S
C422 C418 1.373 . S
C422 C420 1.383 . S
C422 H433 0.931 . S
C423 C420 1.382 . S
C423 C421 1.392 . S
C424 Eu395 2.828 . S
C424 O408 1.249 . S
C424 O409 1.244 . S
C424 C418 1.505 . S
C425 O412 1.258 . S
C425 O413 1.242 . S
H426 C398 0.930 . S
H427 C399 0.930 . S
H428 C400 0.930 . S
H429 C401 0.931 . S
H430 C419 0.930 . S
H431 C420 0.930 . S
H432 C421 0.930 . S
H433 C422 0.931 . S
Eu434 C443 2.828 . S
Eu434 O445 2.392 . S
Eu434 O447 2.418 . S
Eu434 O452 2.373 . S
Eu434 O455 2.488 . S
Eu434 O456 2.471 . S
Eu434 O457 2.349 . S
Eu435 O444 2.373 . S
Eu435 O448 2.488 . S
Eu435 O449 2.471 . S
Eu435 O450 2.349 . S
Eu435 O453 2.392 . S
Eu435 O454 2.418 . S
Eu435 C464 2.828 . S
C436 O454 1.244 . S
C436 O457 1.265 . S
C437 C438 1.379 . S
C437 C441 1.373 . S
C437 C443 1.505 . S
C438 C437 1.379 . S
C438 C440 1.369 . S
C438 H466 0.930 . S
C439 C441 1.383 . S
C439 C442 1.382 . S
C439 H467 0.930 . S
C440 C438 1.369 . S
C440 C442 1.392 . S
C440 H468 0.930 . S
C441 C437 1.373 . S
C441 C439 1.383 . S
C441 H469 0.931 . S
C442 C439 1.382 . S
C442 C440 1.392 . S
C443 Eu434 2.828 . S
C443 C437 1.505 . S
C443 O455 1.249 . S
C443 O456 1.244 . S
O444 Eu435 2.373 . S
O444 C446 1.258 . S
O445 Eu434 2.392 . S
O445 C446 1.242 . S
C446 O444 1.258 . S
C446 O445 1.242 . S
O447 Eu434 2.418 . S
O447 C451 1.244 . S
O448 Eu435 2.488 . S
O448 C464 1.249 . S
O449 Eu435 2.471 . S
O449 C464 1.244 . S
O450 Eu435 2.349 . S
O450 C451 1.265 . S
C451 O447 1.244 . S
C451 O450 1.265 . S
O452 Eu434 2.373 . S
O452 C465 1.258 . S
O453 Eu435 2.392 . S
O453 C465 1.242 . S
O454 Eu435 2.418 . S
O454 C436 1.244 . S
O455 Eu434 2.488 . S
O455 C443 1.249 . S
O456 Eu434 2.471 . S
O456 C443 1.244 . S
O457 Eu434 2.349 . S
O457 C436 1.265 . S
C458 C459 1.379 . S
C458 C462 1.373 . S
C458 C464 1.505 . S
C459 C458 1.379 . S
C459 C461 1.369 . S
C459 H470 0.930 . S
C460 C462 1.383 . S
C460 C463 1.382 . S
C460 H471 0.930 . S
C461 C459 1.369 . S
C461 C463 1.392 . S
C461 H472 0.930 . S
C462 C458 1.373 . S
C462 C460 1.383 . S
C462 H473 0.931 . S
C463 C460 1.382 . S
C463 C461 1.392 . S
C464 Eu435 2.828 . S
C464 O448 1.249 . S
C464 O449 1.244 . S
C464 C458 1.505 . S
C465 O452 1.258 . S
C465 O453 1.242 . S
H466 C438 0.930 . S
H467 C439 0.930 . S
H468 C440 0.930 . S
H469 C441 0.931 . S
H470 C459 0.930 . S
H471 C460 0.930 . S
H472 C461 0.930 . S
H473 C462 0.931 . S
Eu474 C483 2.828 . S
Eu474 O485 2.392 . S
Eu474 O487 2.418 . S
Eu474 O492 2.373 . S
Eu474 O495 2.488 . S
Eu474 O496 2.471 . S
Eu474 O497 2.349 . S
Eu475 O484 2.373 . S
Eu475 O488 2.488 . S
Eu475 O489 2.471 . S
Eu475 O490 2.349 . S
Eu475 O493 2.392 . S
Eu475 O494 2.418 . S
Eu475 C504 2.828 . S
C476 O494 1.244 . S
C476 O497 1.265 . S
C477 C478 1.379 . S
C477 C481 1.373 . S
C477 C483 1.505 . S
C478 C477 1.379 . S
C478 C480 1.369 . S
C478 H506 0.930 . S
C479 C481 1.383 . S
C479 C482 1.382 . S
C479 H507 0.930 . S
C480 C478 1.369 . S
C480 C482 1.392 . S
C480 H508 0.930 . S
C481 C477 1.373 . S
C481 C479 1.383 . S
C481 H509 0.931 . S
C482 C479 1.382 . S
C482 C480 1.392 . S
C483 Eu474 2.828 . S
C483 C477 1.505 . S
C483 O495 1.249 . S
C483 O496 1.244 . S
O484 Eu475 2.373 . S
O484 C486 1.258 . S
O485 Eu474 2.392 . S
O485 C486 1.242 . S
C486 O484 1.258 . S
C486 O485 1.242 . S
O487 Eu474 2.418 . S
O487 C491 1.244 . S
O488 Eu475 2.488 . S
O488 C504 1.249 . S
O489 Eu475 2.471 . S
O489 C504 1.244 . S
O490 Eu475 2.349 . S
O490 C491 1.265 . S
C491 O487 1.244 . S
C491 O490 1.265 . S
O492 Eu474 2.373 . S
O492 C505 1.258 . S
O493 Eu475 2.392 . S
O493 C505 1.242 . S
O494 Eu475 2.418 . S
O494 C476 1.244 . S
O495 Eu474 2.488 . S
O495 C483 1.249 . S
O496 Eu474 2.471 . S
O496 C483 1.244 . S
O497 Eu474 2.349 . S
O497 C476 1.265 . S
C498 C499 1.379 . S
C498 C502 1.373 . S
C498 C504 1.505 . S
C499 C498 1.379 . S
C499 C501 1.369 . S
C499 H510 0.930 . S
C500 C502 1.383 . S
C500 C503 1.382 . S
C500 H511 0.930 . S
C501 C499 1.369 . S
C501 C503 1.392 . S
C501 H512 0.930 . S
C502 C498 1.373 . S
C502 C500 1.383 . S
C502 H513 0.931 . S
C503 C500 1.382 . S
C503 C501 1.392 . S
C504 Eu475 2.828 . S
C504 O488 1.249 . S
C504 O489 1.244 . S
C504 C498 1.505 . S
C505 O492 1.258 . S
C505 O493 1.242 . S
H506 C478 0.930 . S
H507 C479 0.930 . S
H508 C480 0.930 . S
H509 C481 0.931 . S
H510 C499 0.930 . S
H511 C500 0.930 . S
H512 C501 0.930 . S
H513 C502 0.931 . S
Eu514 C523 2.828 . S
Eu514 O525 2.392 . S
Eu514 O527 2.418 . S
Eu514 O532 2.373 . S
Eu514 O535 2.488 . S
Eu514 O536 2.471 . S
Eu514 O537 2.349 . S
Eu515 O524 2.373 . S
Eu515 O528 2.488 . S
Eu515 O529 2.471 . S
Eu515 O530 2.349 . S
Eu515 O533 2.392 . S
Eu515 O534 2.418 . S
Eu515 C544 2.828 . S
C516 O534 1.244 . S
C516 O537 1.265 . S
C517 C518 1.379 . S
C517 C521 1.373 . S
C517 C523 1.505 . S
C518 C517 1.379 . S
C518 C520 1.369 . S
C518 H546 0.930 . S
C519 C521 1.383 . S
C519 C522 1.382 . S
C519 H547 0.930 . S
C520 C518 1.369 . S
C520 C522 1.392 . S
C520 H548 0.930 . S
C521 C517 1.373 . S
C521 C519 1.383 . S
C521 H549 0.931 . S
C522 C519 1.382 . S
C522 C520 1.392 . S
C523 Eu514 2.828 . S
C523 C517 1.505 . S
C523 O535 1.249 . S
C523 O536 1.244 . S
O524 Eu515 2.373 . S
O524 C526 1.258 . S
O525 Eu514 2.392 . S
O525 C526 1.242 . S
C526 O524 1.258 . S
C526 O525 1.242 . S
O527 Eu514 2.418 . S
O527 C531 1.244 . S
O528 Eu515 2.488 . S
O528 C544 1.249 . S
O529 Eu515 2.471 . S
O529 C544 1.244 . S
O530 Eu515 2.349 . S
O530 C531 1.265 . S
C531 O527 1.244 . S
C531 O530 1.265 . S
O532 Eu514 2.373 . S
O532 C545 1.258 . S
O533 Eu515 2.392 . S
O533 C545 1.242 . S
O534 Eu515 2.418 . S
O534 C516 1.244 . S
O535 Eu514 2.488 . S
O535 C523 1.249 . S
O536 Eu514 2.471 . S
O536 C523 1.244 . S
O537 Eu514 2.349 . S
O537 C516 1.265 . S
C538 C539 1.379 . S
C538 C542 1.373 . S
C538 C544 1.505 . S
C539 C538 1.379 . S
C539 C541 1.369 . S
C539 H550 0.930 . S
C540 C542 1.383 . S
C540 C543 1.382 . S
C540 H551 0.930 . S
C541 C539 1.369 . S
C541 C543 1.392 . S
C541 H552 0.930 . S
C542 C538 1.373 . S
C542 C540 1.383 . S
C542 H553 0.931 . S
C543 C540 1.382 . S
C543 C541 1.392 . S
C544 Eu515 2.828 . S
C544 O528 1.249 . S
C544 O529 1.244 . S
C544 C538 1.505 . S
C545 O532 1.258 . S
C545 O533 1.242 . S
H546 C518 0.930 . S
H547 C519 0.930 . S
H548 C520 0.930 . S
H549 C521 0.931 . S
H550 C539 0.930 . S
H551 C540 0.930 . S
H552 C541 0.930 . S
H553 C542 0.931 . S
Eu554 C563 2.828 . S
Eu554 O565 2.392 . S
Eu554 O567 2.418 . S
Eu554 O572 2.373 . S
Eu554 O575 2.488 . S
Eu554 O576 2.471 . S
Eu554 O577 2.349 . S
Eu555 O564 2.373 . S
Eu555 O568 2.488 . S
Eu555 O569 2.471 . S
Eu555 O570 2.349 . S
Eu555 O573 2.392 . S
Eu555 O574 2.418 . S
Eu555 C584 2.828 . S
C556 O574 1.244 . S
C556 O577 1.265 . S
C557 C558 1.379 . S
C557 C561 1.373 . S
C557 C563 1.505 . S
C558 C557 1.379 . S
C558 C560 1.369 . S
C558 H586 0.930 . S
C559 C561 1.383 . S
C559 C562 1.382 . S
C559 H587 0.930 . S
C560 C558 1.369 . S
C560 C562 1.392 . S
C560 H588 0.930 . S
C561 C557 1.373 . S
C561 C559 1.383 . S
C561 H589 0.931 . S
C562 C559 1.382 . S
C562 C560 1.392 . S
C563 Eu554 2.828 . S
C563 C557 1.505 . S
C563 O575 1.249 . S
C563 O576 1.244 . S
O564 Eu555 2.373 . S
O564 C566 1.258 . S
O565 Eu554 2.392 . S
O565 C566 1.242 . S
C566 O564 1.258 . S
C566 O565 1.242 . S
O567 Eu554 2.418 . S
O567 C571 1.244 . S
O568 Eu555 2.488 . S
O568 C584 1.249 . S
O569 Eu555 2.471 . S
O569 C584 1.244 . S
O570 Eu555 2.349 . S
O570 C571 1.265 . S
C571 O567 1.244 . S
C571 O570 1.265 . S
O572 Eu554 2.373 . S
O572 C585 1.258 . S
O573 Eu555 2.392 . S
O573 C585 1.242 . S
O574 Eu555 2.418 . S
O574 C556 1.244 . S
O575 Eu554 2.488 . S
O575 C563 1.249 . S
O576 Eu554 2.471 . S
O576 C563 1.244 . S
O577 Eu554 2.349 . S
O577 C556 1.265 . S
C578 C579 1.379 . S
C578 C582 1.373 . S
C578 C584 1.505 . S
C579 C578 1.379 . S
C579 C581 1.369 . S
C579 H590 0.930 . S
C580 C582 1.383 . S
C580 C583 1.382 . S
C580 H591 0.930 . S
C581 C579 1.369 . S
C581 C583 1.392 . S
C581 H592 0.930 . S
C582 C578 1.373 . S
C582 C580 1.383 . S
C582 H593 0.931 . S
C583 C580 1.382 . S
C583 C581 1.392 . S
C584 Eu555 2.828 . S
C584 O568 1.249 . S
C584 O569 1.244 . S
C584 C578 1.505 . S
C585 O572 1.258 . S
C585 O573 1.242 . S
H586 C558 0.930 . S
H587 C559 0.930 . S
H588 C560 0.930 . S
H589 C561 0.931 . S
H590 C579 0.930 . S
H591 C580 0.930 . S
H592 C581 0.930 . S
H593 C582 0.931 . S
C594 C595 1.363 . S
C594 C600 1.379 . S
C594 N602 1.356 . S
C595 C594 1.363 . S
C595 C601 1.363 . S
C596 C597 1.363 . S
C596 C601 1.379 . S
C596 N603 1.356 . S
C597 C596 1.363 . S
C597 C600 1.363 . S
N598 C600 1.356 . S
N598 H610 0.984 . S
N598 H611 0.985 . S
N599 C601 1.356 . S
N599 H604 0.984 . S
N599 H605 0.985 . S
C600 C594 1.379 . S
C600 C597 1.363 . S
C600 N598 1.356 . S
C601 C595 1.363 . S
C601 C596 1.379 . S
C601 N599 1.356 . S
N602 C594 1.356 . S
N602 H608 0.984 . S
N602 H609 0.984 . S
N603 C596 1.356 . S
N603 H606 0.984 . S
N603 H607 0.985 . S
H604 N599 0.984 . S
H605 N599 0.985 . S
H606 N603 0.984 . S
H607 N603 0.985 . S
H608 N602 0.984 . S
H609 N602 0.984 . S
H610 N598 0.984 . S
H611 N598 0.985 . S
C612 C613 1.363 . S
C612 C618 1.379 . S
C612 N620 1.356 . S
C613 C612 1.363 . S
C613 C619 1.363 . S
C614 C615 1.363 . S
C614 C619 1.379 . S
C614 N621 1.356 . S
C615 C614 1.363 . S
C615 C618 1.363 . S
N616 C618 1.356 1_556 S
N616 H628 0.984 . S
N616 H629 0.985 . S
N617 C619 1.356 . S
N617 H622 0.984 . S
N617 H623 0.985 . S
C618 C612 1.379 . S
C618 C615 1.363 . S
C618 N616 1.356 1_554 S
C619 C613 1.363 . S
C619 C614 1.379 . S
C619 N617 1.356 . S
N620 C612 1.356 . S
N620 H626 0.984 1_554 S
N620 H627 0.984 . S
N621 C614 1.356 . S
N621 H624 0.984 . S
N621 H625 0.985 . S
H622 N617 0.984 . S
H623 N617 0.985 . S
H624 N621 0.984 . S
H625 N621 0.985 . S
H626 N620 0.984 1_556 S
H627 N620 0.984 . S
H628 N616 0.984 . S
H629 N616 0.985 . S
C630 C631 1.363 . S
C630 C636 1.379 . S
C630 N638 1.356 1_554 S
C631 C630 1.363 . S
C631 C637 1.363 . S
C632 C633 1.363 . S
C632 C637 1.379 . S
C632 N639 1.356 . S
C633 C632 1.363 . S
C633 C636 1.363 . S
N634 C636 1.356 1_556 S
N634 H646 0.984 . S
N634 H647 0.985 . S
N635 C637 1.356 . S
N635 H640 0.984 . S
N635 H641 0.985 . S
C636 C630 1.379 . S
C636 C633 1.363 . S
C636 N634 1.356 1_554 S
C637 C631 1.363 . S
C637 C632 1.379 . S
C637 N635 1.356 . S
N638 C630 1.356 1_556 S
N638 H644 0.984 . S
N638 H645 0.984 . S
N639 C632 1.356 . S
N639 H642 0.984 . S
N639 H643 0.985 . S
H640 N635 0.984 . S
H641 N635 0.985 . S
H642 N639 0.984 . S
H643 N639 0.985 . S
H644 N638 0.984 . S
H645 N638 0.984 . S
H646 N634 0.984 . S
H647 N634 0.985 . S
C648 C649 1.363 1_554 S
C648 C654 1.379 . S
C648 N656 1.356 . S
C649 C648 1.363 1_556 S
C649 C655 1.363 . S
C650 C651 1.363 . S
C650 C655 1.379 . S
C650 N657 1.356 . S
C651 C650 1.363 . S
C651 C654 1.363 1_556 S
N652 C654 1.356 . S
N652 H664 0.984 . S
N652 H665 0.985 . S
N653 C655 1.356 . S
N653 H658 0.984 . S
N653 H659 0.985 . S
C654 C648 1.379 . S
C654 C651 1.363 1_554 S
C654 N652 1.356 . S
C655 C649 1.363 . S
C655 C650 1.379 . S
C655 N653 1.356 . S
N656 C648 1.356 . S
N656 H662 0.984 . S
N656 H663 0.984 . S
N657 C650 1.356 . S
N657 H660 0.984 . S
N657 H661 0.985 . S
H658 N653 0.984 . S
H659 N653 0.985 . S
H660 N657 0.984 . S
H661 N657 0.985 . S
H662 N656 0.984 . S
H663 N656 0.984 . S
H664 N652 0.984 . S
H665 N652 0.985 . S
C666 C667 1.363 . S
C666 C672 1.379 . S
C666 N674 1.356 . S
C667 C666 1.363 . S
C667 C673 1.363 . S
C668 C669 1.363 . S
C668 C673 1.379 . S
C668 N675 1.356 1_556 S
C669 C668 1.363 . S
C669 C672 1.363 . S
N670 C672 1.356 . S
N670 H682 0.984 . S
N670 H683 0.985 . S
N671 C673 1.356 . S
N671 H676 0.984 . S
N671 H677 0.985 . S
C672 C666 1.379 . S
C672 C669 1.363 . S
C672 N670 1.356 . S
C673 C667 1.363 . S
C673 C668 1.379 . S
C673 N671 1.356 . S
N674 C666 1.356 . S
N674 H680 0.984 . S
N674 H681 0.984 . S
N675 C668 1.356 1_554 S
N675 H678 0.984 . S
N675 H679 0.985 . S
H676 N671 0.984 . S
H677 N671 0.985 . S
H678 N675 0.984 . S
H679 N675 0.985 . S
H680 N674 0.984 . S
H681 N674 0.984 . S
H682 N670 0.984 . S
H683 N670 0.985 . S
C684 C685 1.363 . S
C684 C690 1.379 . S
C684 N692 1.356 . S
C685 C684 1.363 . S
C685 C691 1.363 1_556 S
C686 C687 1.363 1_554 S
C686 C691 1.379 . S
C686 N693 1.356 . S
C687 C686 1.363 1_556 S
C687 C690 1.363 . S
N688 C690 1.356 . S
N688 H700 0.984 . S
N688 H701 0.985 . S
N689 C691 1.356 . S
N689 H694 0.984 . S
N689 H695 0.985 . S
C690 C684 1.379 . S
C690 C687 1.363 . S
C690 N688 1.356 . S
C691 C685 1.363 1_554 S
C691 C686 1.379 . S
C691 N689 1.356 . S
N692 C684 1.356 . S
N692 H698 0.984 . S
N692 H699 0.984 . S
N693 C686 1.356 . S
N693 H696 0.984 . S
N693 H697 0.985 . S
H694 N689 0.984 . S
H695 N689 0.985 . S
H696 N693 0.984 . S
H697 N693 0.985 . S
H698 N692 0.984 . S
H699 N692 0.984 . S
H700 N688 0.984 . S
H701 N688 0.985 . S
C702 C703 1.363 . S
C702 C708 1.379 . S
C702 N710 1.356 . S
C703 C702 1.363 . S
C703 C709 1.363 . S
C704 C705 1.363 1_554 S
C704 C709 1.379 1_554 S
C704 N711 1.356 . S
C705 C704 1.363 1_556 S
C705 C708 1.363 . S
N706 C708 1.356 . S
N706 H718 0.984 . S
N706 H719 0.985 . S
N707 C709 1.356 1_554 S
N707 H712 0.984 . S
N707 H713 0.985 . S
C708 C702 1.379 . S
C708 C705 1.363 . S
C708 N706 1.356 . S
C709 C703 1.363 . S
C709 C704 1.379 1_556 S
C709 N707 1.356 1_556 S
N710 C702 1.356 . S
N710 H716 0.984 . S
N710 H717 0.984 . S
N711 C704 1.356 . S
N711 H714 0.984 . S
N711 H715 0.985 . S
H712 N707 0.984 . S
H713 N707 0.985 . S
H714 N711 0.984 . S
H715 N711 0.985 . S
H716 N710 0.984 . S
H717 N710 0.984 . S
H718 N706 0.984 . S
H719 N706 0.985 . S
C720 C721 1.363 . S
C720 C726 1.379 . S
C720 N728 1.356 . S
C721 C720 1.363 . S
C721 C727 1.363 . S
C722 C723 1.363 . S
C722 C727 1.379 . S
C722 N729 1.356 . S
C723 C722 1.363 . S
C723 C726 1.363 . S
N724 C726 1.356 . S
N724 H736 0.984 . S
N724 H737 0.985 . S
N725 C727 1.356 . S
N725 H730 0.984 . S
N725 H731 0.985 . S
C726 C720 1.379 . S
C726 C723 1.363 . S
C726 N724 1.356 . S
C727 C721 1.363 . S
C727 C722 1.379 . S
C727 N725 1.356 . S
N728 C720 1.356 . S
N728 H734 0.984 . S
N728 H735 0.984 . S
N729 C722 1.356 . S
N729 H732 0.984 . S
N729 H733 0.985 . S
H730 N725 0.984 . S
H731 N725 0.985 . S
H732 N729 0.984 . S
H733 N729 0.985 . S
H734 N728 0.984 . S
H735 N728 0.984 . S
H736 N724 0.984 . S
H737 N724 0.985 . S
C738 C739 1.363 1_554 S
C738 C744 1.379 . S
C738 N746 1.356 . S
C739 C738 1.363 1_556 S
C739 C745 1.363 . S
C740 C741 1.363 1_556 S
C740 C745 1.379 . S
C740 N747 1.356 . S
C741 C740 1.363 1_554 S
C741 C744 1.363 . S
N742 C744 1.356 . S
N742 H754 0.984 . S
N742 H755 0.985 . S
N743 C745 1.356 . S
N743 H748 0.984 . S
N743 H749 0.985 . S
C744 C738 1.379 . S
C744 C741 1.363 . S
C744 N742 1.356 . S
C745 C739 1.363 . S
C745 C740 1.379 . S
C745 N743 1.356 . S
N746 C738 1.356 . S
N746 H752 0.984 . S
N746 H753 0.984 . S
N747 C740 1.356 . S
N747 H750 0.984 . S
N747 H751 0.985 . S
H748 N743 0.984 . S
H749 N743 0.985 . S
H750 N747 0.984 . S
H751 N747 0.985 . S
H752 N746 0.984 . S
H753 N746 0.984 . S
H754 N742 0.984 . S
H755 N742 0.985 . S
C756 C757 1.363 . S
C756 C762 1.374 1_554 S
C756 N764 1.356 1_554 S
C757 C756 1.363 . S
C757 C763 1.363 . S
C758 C759 1.363 . S
C758 C763 1.379 . S
C758 N765 1.356 . S
C759 C758 1.363 . S
C759 C762 1.355 1_554 S
N760 C762 1.368 . S
N760 H772 0.984 . S
N760 H773 0.985 . S
N761 C763 1.356 . S
N761 H766 0.984 . S
N761 H767 0.985 . S
C762 C756 1.374 1_556 S
C762 C759 1.355 1_556 S
C762 N760 1.368 . S
C763 C757 1.363 . S
C763 C758 1.379 . S
C763 N761 1.356 . S
N764 C756 1.356 1_556 S
N764 H770 0.984 . S
N764 H771 0.984 1_556 S
N765 C758 1.356 . S
N765 H768 0.984 . S
N765 H769 0.985 . S
H766 N761 0.984 . S
H767 N761 0.985 . S
H768 N765 0.984 . S
H769 N765 0.985 . S
H770 N764 0.984 . S
H771 N764 0.984 1_554 S
H772 N760 0.984 . S
H773 N760 0.985 . S
C774 C775 1.363 . S
C774 C780 1.379 . S
C774 N782 1.356 . S
C775 C774 1.363 . S
C775 C781 1.363 . S
C776 C777 1.363 . S
C776 C781 1.379 . S
C776 N783 1.356 . S
C777 C776 1.363 . S
C777 C780 1.363 . S
N778 C780 1.356 . S
N778 H790 0.984 . S
N778 H791 0.985 . S
N779 C781 1.356 . S
N779 H784 0.984 . S
N779 H785 0.985 . S
C780 C774 1.379 . S
C780 C777 1.363 . S
C780 N778 1.356 . S
C781 C775 1.363 . S
C781 C776 1.379 . S
C781 N779 1.356 . S
N782 C774 1.356 . S
N782 H788 0.984 . S
N782 H789 0.984 . S
N783 C776 1.356 . S
N783 H786 0.984 . S
N783 H787 0.985 . S
H784 N779 0.984 . S
H785 N779 0.985 . S
H786 N783 0.984 . S
H787 N783 0.985 . S
H788 N782 0.984 . S
H789 N782 0.984 . S
H790 N778 0.984 . S
H791 N778 0.985 . S
C792 C793 1.363 . S
C792 C798 1.379 . S
C792 N800 1.350 1_554 S
C793 C792 1.363 . S
C793 C799 1.363 . S
C794 C795 1.363 . S
C794 C799 1.379 . S
C794 N801 1.356 . S
C795 C794 1.363 . S
C795 C798 1.363 . S
N796 C798 1.356 1_556 S
N796 H808 0.984 . S
N796 H809 0.985 . S
N797 C799 1.356 . S
N797 H802 0.984 . S
N797 H803 0.985 . S
C798 C792 1.379 . S
C798 C795 1.363 . S
C798 N796 1.356 1_554 S
C799 C793 1.363 . S
C799 C794 1.379 . S
C799 N797 1.356 . S
N800 C792 1.350 1_556 S
N800 H806 0.997 . S
N800 H807 0.979 1_556 S
N801 C794 1.356 . S
N801 H804 0.984 . S
N801 H805 0.985 . S
H802 N797 0.984 . S
H803 N797 0.985 . S
H804 N801 0.984 . S
H805 N801 0.985 . S
H806 N800 0.997 . S
H807 N800 0.979 1_554 S
H808 N796 0.984 . S
H809 N796 0.985 . S
C810 C811 1.363 . S
C810 C816 1.379 1_655 S
C810 N818 1.356 . S
C811 C810 1.363 . S
C811 C817 1.363 . S
C812 C813 1.363 . S
C812 C817 1.379 1_455 S
C812 N819 1.356 . S
C813 C812 1.363 . S
C813 C816 1.363 . S
N814 C816 1.356 . S
N814 H826 0.984 . S
N814 H827 0.985 . S
N815 C817 1.356 . S
N815 H820 0.984 . S
N815 H821 0.985 . S
C816 C810 1.379 1_455 S
C816 C813 1.363 . S
C816 N814 1.356 . S
C817 C811 1.363 . S
C817 C812 1.379 1_655 S
C817 N815 1.356 . S
N818 C810 1.356 . S
N818 H824 0.984 . S
N818 H825 0.984 . S
N819 C812 1.356 . S
N819 H822 0.984 . S
N819 H823 0.985 . S
H820 N815 0.984 . S
H821 N815 0.985 . S
H822 N819 0.984 . S
H823 N819 0.985 . S
H824 N818 0.984 . S
H825 N818 0.984 . S
H826 N814 0.984 . S
H827 N814 0.985 . S
C828 C829 1.363 . S
C828 C834 1.379 . S
C828 N836 1.356 . S
C829 C828 1.363 . S
C829 C835 1.363 . S
C830 C831 1.363 . S
C830 C835 1.379 . S
C830 N837 1.356 . S
C831 C830 1.363 . S
C831 C834 1.363 . S
N832 C834 1.356 . S
N832 H844 0.984 . S
N832 H845 0.985 . S
N833 C835 1.356 . S
N833 H838 0.984 . S
N833 H839 0.985 . S
C834 C828 1.379 . S
C834 C831 1.363 . S
C834 N832 1.356 . S
C835 C829 1.363 . S
C835 C830 1.379 . S
C835 N833 1.356 . S
N836 C828 1.356 . S
N836 H842 0.984 . S
N836 H843 0.984 . S
N837 C830 1.356 . S
N837 H840 0.984 . S
N837 H841 0.985 . S
H838 N833 0.984 . S
H839 N833 0.985 . S
H840 N837 0.984 . S
H841 N837 0.985 . S
H842 N836 0.984 . S
H843 N836 0.984 . S
H844 N832 0.984 . S
H845 N832 0.985 . S
C846 C847 1.363 . S
C846 C852 1.379 1_545 S
C846 N854 1.356 . S
C847 C846 1.363 . S
C847 C853 1.363 . S
C848 C849 1.363 . S
C848 C853 1.379 1_565 S
C848 N855 1.356 . S
C849 C848 1.363 . S
C849 C852 1.363 . S
N850 C852 1.356 . S
N850 H862 0.984 . S
N850 H863 0.985 . S
N851 C853 1.356 . S
N851 H856 0.984 . S
N851 H857 0.985 . S
C852 C846 1.379 1_565 S
C852 C849 1.363 . S
C852 N850 1.356 . S
C853 C847 1.363 . S
C853 C848 1.379 1_545 S
C853 N851 1.356 . S
N854 C846 1.356 . S
N854 H860 0.984 . S
N854 H861 0.984 . S
N855 C848 1.356 . S
N855 H858 0.984 . S
N855 H859 0.985 . S
H856 N851 0.984 . S
H857 N851 0.985 . S
H858 N855 0.984 . S
H859 N855 0.985 . S
H860 N854 0.984 . S
H861 N854 0.984 . S
H862 N850 0.984 . S
H863 N850 0.985 . S
C864 C865 1.363 . S
C864 C870 1.379 . S
C864 N872 1.356 . S
C865 C864 1.363 . S
C865 C871 1.363 . S
C866 C867 1.363 . S
C866 C871 1.379 . S
C866 N873 1.356 . S
C867 C866 1.363 . S
C867 C870 1.363 . S
N868 C870 1.356 . S
N868 H880 0.984 . S
N868 H881 0.985 . S
N869 C871 1.356 . S
N869 H874 0.984 . S
N869 H875 0.985 . S
C870 C864 1.379 . S
C870 C867 1.363 . S
C870 N868 1.356 . S
C871 C865 1.363 . S
C871 C866 1.379 . S
C871 N869 1.356 . S
N872 C864 1.356 . S
N872 H878 0.984 . S
N872 H879 0.984 . S
N873 C866 1.356 . S
N873 H876 0.984 . S
N873 H877 0.985 . S
H874 N869 0.984 . S
H875 N869 0.985 . S
H876 N873 0.984 . S
H877 N873 0.985 . S
H878 N872 0.984 . S
H879 N872 0.984 . S
H880 N868 0.984 . S
H881 N868 0.985 . S
C882 C883 1.363 . S
C882 C888 1.379 . S
C882 N890 1.356 . S
C883 C882 1.363 . S
C883 C889 1.363 . S
C884 C885 1.363 . S
C884 C889 1.379 . S
C884 N891 1.356 . S
C885 C884 1.363 . S
C885 C888 1.363 . S
N886 C888 1.356 . S
N886 H898 0.984 . S
N886 H899 0.985 . S
N887 C889 1.356 . S
N887 H892 0.984 . S
N887 H893 0.985 . S
C888 C882 1.379 . S
C888 C885 1.363 . S
C888 N886 1.356 . S
C889 C883 1.363 . S
C889 C884 1.379 . S
C889 N887 1.356 . S
N890 C882 1.356 . S
N890 H896 0.984 . S
N890 H897 0.984 . S
N891 C884 1.356 . S
N891 H894 0.984 . S
N891 H895 0.985 . S
H892 N887 0.984 . S
H893 N887 0.985 . S
H894 N891 0.984 . S
H895 N891 0.985 . S
H896 N890 0.984 . S
H897 N890 0.984 . S
H898 N886 0.984 . S
H899 N886 0.985 . S
C900 C901 1.363 . S
C900 C906 1.379 . S
C900 N908 1.356 . S
C901 C900 1.363 . S
C901 C907 1.363 . S
C902 C903 1.363 . S
C902 C907 1.379 . S
C902 N909 1.356 . S
C903 C902 1.363 . S
C903 C906 1.363 . S
N904 C906 1.356 . S
N904 H916 0.984 . S
N904 H917 0.985 . S
N905 C907 1.356 . S
N905 H910 0.984 . S
N905 H911 0.985 . S
C906 C900 1.379 . S
C906 C903 1.363 . S
C906 N904 1.356 . S
C907 C901 1.363 . S
C907 C902 1.379 . S
C907 N905 1.356 . S
N908 C900 1.356 . S
N908 H914 0.984 . S
N908 H915 0.984 . S
N909 C902 1.356 . S
N909 H912 0.984 . S
N909 H913 0.985 . S
H910 N905 0.984 . S
H911 N905 0.985 . S
H912 N909 0.984 . S
H913 N909 0.985 . S
H914 N908 0.984 . S
H915 N908 0.984 . S
H916 N904 0.984 . S
H917 N904 0.985 . S
C918 C919 1.363 . S
C918 C924 1.379 . S
C918 N926 1.356 . S
C919 C918 1.363 . S
C919 C925 1.363 . S
C920 C921 1.363 . S
C920 C925 1.379 . S
C920 N927 1.356 . S
C921 C920 1.363 . S
C921 C924 1.363 . S
N922 C924 1.356 . S
N922 H934 0.984 . S
N922 H935 0.985 . S
N923 C925 1.356 . S
N923 H928 0.984 . S
N923 H929 0.985 . S
C924 C918 1.379 . S
C924 C921 1.363 . S
C924 N922 1.356 . S
C925 C919 1.363 . S
C925 C920 1.379 . S
C925 N923 1.356 . S
N926 C918 1.356 . S
N926 H932 0.984 . S
N926 H933 0.984 . S
N927 C920 1.356 . S
N927 H930 0.984 . S
N927 H931 0.985 . S
H928 N923 0.984 . S
H929 N923 0.985 . S
H930 N927 0.984 . S
H931 N927 0.985 . S
H932 N926 0.984 . S
H933 N926 0.984 . S
H934 N922 0.984 . S
H935 N922 0.985 . S
C936 C937 1.363 . S
C936 C942 1.379 . S
C936 N944 1.356 . S
C937 C936 1.363 . S
C937 C943 1.363 . S
C938 C939 1.363 . S
C938 C943 1.379 . S
C938 N945 1.356 . S
C939 C938 1.363 . S
C939 C942 1.363 . S
N940 C942 1.356 . S
N940 H952 0.984 . S
N940 H953 0.985 . S
N941 C943 1.356 . S
N941 H946 0.984 . S
N941 H947 0.985 . S
C942 C936 1.379 . S
C942 C939 1.363 . S
C942 N940 1.356 . S
C943 C937 1.363 . S
C943 C938 1.379 . S
C943 N941 1.356 . S
N944 C936 1.356 . S
N944 H950 0.984 . S
N944 H951 0.984 . S
N945 C938 1.356 . S
N945 H948 0.984 . S
N945 H949 0.985 . S
H946 N941 0.984 . S
H947 N941 0.985 . S
H948 N945 0.984 . S
H949 N945 0.985 . S
H950 N944 0.984 . S
H951 N944 0.984 . S
H952 N940 0.984 . S
H953 N940 0.985 . S
C954 C955 1.363 . S
C954 C960 1.379 . S
C954 N962 1.356 . S
C955 C954 1.363 . S
C955 C961 1.363 . S
C956 C957 1.363 . S
C956 C961 1.379 . S
C956 N963 1.356 . S
C957 C956 1.363 . S
C957 C960 1.363 . S
N958 C960 1.356 . S
N958 H970 0.984 . S
N958 H971 0.985 . S
N959 C961 1.356 . S
N959 H964 0.984 . S
N959 H965 0.985 . S
C960 C954 1.379 . S
C960 C957 1.363 . S
C960 N958 1.356 . S
C961 C955 1.363 . S
C961 C956 1.379 . S
C961 N959 1.356 . S
N962 C954 1.356 . S
N962 H968 0.984 . S
N962 H969 0.984 . S
N963 C956 1.356 . S
N963 H966 0.984 . S
N963 H967 0.985 . S
H964 N959 0.984 . S
H965 N959 0.985 . S
H966 N963 0.984 . S
H967 N963 0.985 . S
H968 N962 0.984 . S
H969 N962 0.984 . S
H970 N958 0.984 . S
H971 N958 0.985 . S
C972 C973 1.363 . S
C972 C978 1.379 1_545 S
C972 N980 1.356 . S
C973 C972 1.363 . S
C973 C979 1.363 . S
C974 C975 1.363 1_545 S
C974 C979 1.379 . S
C974 N981 1.356 1_545 S
C975 C974 1.363 1_565 S
C975 C978 1.363 . S
N976 C978 1.356 . S
N976 H988 0.984 . S
N976 H989 0.985 . S
N977 C979 1.356 . S
N977 H982 0.984 . S
N977 H983 0.985 . S
C978 C972 1.379 1_565 S
C978 C975 1.363 . S
C978 N976 1.356 . S
C979 C973 1.363 . S
C979 C974 1.379 . S
C979 N977 1.356 . S
N980 C972 1.356 . S
N980 H986 0.984 . S
N980 H987 0.984 . S
N981 C974 1.356 1_565 S
N981 H984 0.984 . S
N981 H985 0.985 1_565 S
H982 N977 0.984 . S
H983 N977 0.985 . S
H984 N981 0.984 . S
H985 N981 0.985 1_545 S
H986 N980 0.984 . S
H987 N980 0.984 . S
H988 N976 0.984 . S
H989 N976 0.985 . S
C990 C991 1.363 . S
C990 C996 1.379 1_655 S
C990 N998 1.356 . S
C991 C990 1.363 . S
C991 C997 1.363 . S
C992 C993 1.363 . S
C992 C997 1.379 1_455 S
C992 N999 1.356 . S
C993 C992 1.363 . S
C993 C996 1.363 . S
N994 C996 1.356 . S
N994 H1006 0.984 . S
N994 H1007 0.985 . S
N995 C997 1.356 . S
N995 H1000 0.984 . S
N995 H1001 0.985 . S
C996 C990 1.379 1_455 S
C996 C993 1.363 . S
C996 N994 1.356 . S
C997 C991 1.363 . S
C997 C992 1.379 1_655 S
C997 N995 1.356 . S
N998 C990 1.356 . S
N998 H1004 0.984 . S
N998 H1005 0.984 . S
N999 C992 1.356 . S
N999 H1002 0.984 . S
N999 H1003 0.985 . S
H1000 N995 0.984 . S
H1001 N995 0.985 . S
H1002 N999 0.984 . S
H1003 N999 0.985 . S
H1004 N998 0.984 . S
H1005 N998 0.984 . S
H1006 N994 0.984 . S
H1007 N994 0.985 . S
C1008 C1009 1.363 . S
C1008 C1014 1.379 . S
C1008 N1016 1.356 . S
C1009 C1008 1.363 . S
C1009 C1015 1.363 . S
C1010 C1011 1.363 . S
C1010 C1015 1.379 . S
C1010 N1017 1.356 . S
C1011 C1010 1.363 . S
C1011 C1014 1.363 . S
N1012 C1014 1.356 . S
N1012 H1024 0.984 . S
N1012 H1025 0.985 . S
N1013 C1015 1.356 . S
N1013 H1018 0.984 . S
N1013 H1019 0.985 . S
C1014 C1008 1.379 . S
C1014 C1011 1.363 . S
C1014 N1012 1.356 . S
C1015 C1009 1.363 . S
C1015 C1010 1.379 . S
C1015 N1013 1.356 . S
N1016 C1008 1.356 . S
N1016 H1022 0.984 . S
N1016 H1023 0.984 . S
N1017 C1010 1.356 . S
N1017 H1020 0.984 . S
N1017 H1021 0.985 . S
H1018 N1013 0.984 . S
H1019 N1013 0.985 . S
H1020 N1017 0.984 . S
H1021 N1017 0.985 . S
H1022 N1016 0.984 . S
H1023 N1016 0.984 . S
H1024 N1012 0.984 . S
H1025 N1012 0.985 . S
C1026 C1027 1.363 . S
C1026 C1032 1.379 . S
C1026 N1034 1.356 . S
C1027 C1026 1.363 . S
C1027 C1033 1.363 . S
C1028 C1029 1.363 . S
C1028 C1033 1.379 . S
C1028 N1035 1.356 . S
C1029 C1028 1.363 . S
C1029 C1032 1.363 . S
N1030 C1032 1.356 . S
N1030 H1042 0.984 . S
N1030 H1043 0.985 . S
N1031 C1033 1.356 . S
N1031 H1036 0.984 . S
N1031 H1037 0.985 . S
C1032 C1026 1.379 . S
C1032 C1029 1.363 . S
C1032 N1030 1.356 . S
C1033 C1027 1.363 . S
C1033 C1028 1.379 . S
C1033 N1031 1.356 . S
N1034 C1026 1.356 . S
N1034 H1040 0.984 . S
N1034 H1041 0.984 . S
N1035 C1028 1.356 . S
N1035 H1038 0.984 . S
N1035 H1039 0.985 . S
H1036 N1031 0.984 . S
H1037 N1031 0.985 . S
H1038 N1035 0.984 . S
H1039 N1035 0.985 . S
H1040 N1034 0.984 . S
H1041 N1034 0.984 . S
H1042 N1030 0.984 . S
H1043 N1030 0.985 . S
C1044 C1045 1.363 . S
C1044 C1050 1.379 . S
C1044 N1052 1.356 . S
C1045 C1044 1.363 . S
C1045 C1051 1.363 . S
C1046 C1047 1.363 . S
C1046 C1051 1.379 . S
C1046 N1053 1.356 . S
C1047 C1046 1.363 . S
C1047 C1050 1.363 . S
N1048 C1050 1.356 . S
N1048 H1060 0.984 . S
N1048 H1061 0.985 . S
N1049 C1051 1.356 . S
N1049 H1054 0.984 . S
N1049 H1055 0.985 . S
C1050 C1044 1.379 . S
C1050 C1047 1.363 . S
C1050 N1048 1.356 . S
C1051 C1045 1.363 . S
C1051 C1046 1.379 . S
C1051 N1049 1.356 . S
N1052 C1044 1.356 . S
N1052 H1058 0.984 . S
N1052 H1059 0.984 . S
N1053 C1046 1.356 . S
N1053 H1056 0.984 . S
N1053 H1057 0.985 . S
H1054 N1049 0.984 . S
H1055 N1049 0.985 . S
H1056 N1053 0.984 . S
H1057 N1053 0.985 . S
H1058 N1052 0.984 . S
H1059 N1052 0.984 . S
H1060 N1048 0.984 . S
H1061 N1048 0.985 . S
C1062 C1063 1.363 . S
C1062 C1068 1.379 . S
C1062 N1070 1.356 . S
C1063 C1062 1.363 . S
C1063 C1069 1.363 . S
C1064 C1065 1.363 . S
C1064 C1069 1.379 . S
C1064 N1071 1.356 . S
C1065 C1064 1.363 . S
C1065 C1068 1.363 . S
N1066 C1068 1.356 . S
N1066 H1078 0.984 . S
N1066 H1079 0.985 . S
N1067 C1069 1.356 . S
N1067 H1072 0.984 . S
N1067 H1073 0.985 . S
C1068 C1062 1.379 . S
C1068 C1065 1.363 . S
C1068 N1066 1.356 . S
C1069 C1063 1.363 . S
C1069 C1064 1.379 . S
C1069 N1067 1.356 . S
N1070 C1062 1.356 . S
N1070 H1076 0.984 . S
N1070 H1077 0.984 . S
N1071 C1064 1.356 . S
N1071 H1074 0.984 . S
N1071 H1075 0.985 . S
H1072 N1067 0.984 . S
H1073 N1067 0.985 . S
H1074 N1071 0.984 . S
H1075 N1071 0.985 . S
H1076 N1070 0.984 . S
H1077 N1070 0.984 . S
H1078 N1066 0.984 . S
H1079 N1066 0.985 . S
C1080 C1081 1.363 . S
C1080 C1086 1.379 1_565 S
C1080 N1088 1.356 . S
C1081 C1080 1.363 . S
C1081 C1087 1.363 . S
C1082 C1083 1.363 . S
C1082 C1087 1.379 1_545 S
C1082 N1089 1.356 . S
C1083 C1082 1.363 . S
C1083 C1086 1.363 . S
N1084 C1086 1.356 . S
N1084 H1096 0.984 . S
N1084 H1097 0.985 . S
N1085 C1087 1.356 . S
N1085 H1090 0.984 . S
N1085 H1091 0.985 . S
C1086 C1080 1.379 1_545 S
C1086 C1083 1.363 . S
C1086 N1084 1.356 . S
C1087 C1081 1.363 . S
C1087 C1082 1.379 1_565 S
C1087 N1085 1.356 . S
N1088 C1080 1.356 . S
N1088 H1094 0.984 . S
N1088 H1095 0.984 . S
N1089 C1082 1.356 . S
N1089 H1092 0.984 . S
N1089 H1093 0.985 . S
H1090 N1085 0.984 . S
H1091 N1085 0.985 . S
H1092 N1089 0.984 . S
H1093 N1089 0.985 . S
H1094 N1088 0.984 . S
H1095 N1088 0.984 . S
H1096 N1084 0.984 . S
H1097 N1084 0.985 . S
C1098 C1099 1.363 . S
C1098 C1104 1.379 1_455 S
C1098 N1106 1.356 . S
C1099 C1098 1.363 . S
C1099 C1105 1.363 1_455 S
C1100 C1101 1.363 . S
C1100 C1105 1.379 . S
C1100 N1107 1.356 . S
C1101 C1100 1.363 . S
C1101 C1104 1.363 . S
N1102 C1104 1.356 . S
N1102 H1114 0.984 . S
N1102 H1115 0.985 . S
N1103 C1105 1.356 1_455 S
N1103 H1108 0.984 . S
N1103 H1109 0.985 1_455 S
C1104 C1098 1.379 1_655 S
C1104 C1101 1.363 . S
C1104 N1102 1.356 . S
C1105 C1099 1.363 1_655 S
C1105 C1100 1.379 . S
C1105 N1103 1.356 1_655 S
N1106 C1098 1.356 . S
N1106 H1112 0.984 . S
N1106 H1113 0.984 . S
N1107 C1100 1.356 . S
N1107 H1110 0.984 . S
N1107 H1111 0.985 . S
H1108 N1103 0.984 . S
H1109 N1103 0.985 1_655 S
H1110 N1107 0.984 . S
H1111 N1107 0.985 . S
H1112 N1106 0.984 . S
H1113 N1106 0.984 . S
H1114 N1102 0.984 . S
H1115 N1102 0.985 . S
C1116 C1117 1.363 . S
C1116 C1122 1.379 . S
C1116 N1124 1.356 . S
C1117 C1116 1.363 . S
C1117 C1123 1.363 . S
C1118 C1119 1.363 . S
C1118 C1123 1.379 . S
C1118 N1125 1.356 . S
C1119 C1118 1.363 . S
C1119 C1122 1.363 . S
N1120 C1122 1.356 . S
N1120 H1132 0.984 . S
N1120 H1133 0.985 . S
N1121 C1123 1.356 . S
N1121 H1126 0.984 . S
N1121 H1127 0.985 . S
C1122 C1116 1.379 . S
C1122 C1119 1.363 . S
C1122 N1120 1.356 . S
C1123 C1117 1.363 . S
C1123 C1118 1.379 . S
C1123 N1121 1.356 . S
N1124 C1116 1.356 . S
N1124 H1130 0.984 . S
N1124 H1131 0.984 . S
N1125 C1118 1.356 . S
N1125 H1128 0.984 . S
N1125 H1129 0.985 . S
H1126 N1121 0.984 . S
H1127 N1121 0.985 . S
H1128 N1125 0.984 . S
H1129 N1125 0.985 . S
H1130 N1124 0.984 . S
H1131 N1124 0.984 . S
H1132 N1120 0.984 . S
H1133 N1120 0.985 . S
C1134 C1135 1.363 . S
C1134 C1140 1.379 . S
C1134 N1142 1.356 . S
C1135 C1134 1.363 . S
C1135 C1141 1.363 . S
C1136 C1137 1.363 1_455 S
C1136 C1141 1.379 . S
C1136 N1143 1.356 1_455 S
C1137 C1136 1.363 1_655 S
C1137 C1140 1.363 1_655 S
N1138 C1140 1.356 . S
N1138 H1150 0.984 . S
N1138 H1151 0.985 1_455 S
N1139 C1141 1.356 . S
N1139 H1144 0.984 . S
N1139 H1145 0.985 . S
C1140 C1134 1.379 . S
C1140 C1137 1.363 1_455 S
C1140 N1138 1.356 . S
C1141 C1135 1.363 . S
C1141 C1136 1.379 . S
C1141 N1139 1.356 . S
N1142 C1134 1.356 . S
N1142 H1148 0.984 . S
N1142 H1149 0.984 . S
N1143 C1136 1.356 1_655 S
N1143 H1146 0.984 . S
N1143 H1147 0.985 . S
H1144 N1139 0.984 . S
H1145 N1139 0.985 . S
H1146 N1143 0.984 . S
H1147 N1143 0.985 . S
H1148 N1142 0.984 . S
H1149 N1142 0.984 . S
H1150 N1138 0.984 . S
H1151 N1138 0.985 1_655 S
C1152 C1153 1.363 . S
C1152 C1158 1.379 . S
C1152 N1160 1.356 . S
C1153 C1152 1.363 . S
C1153 C1159 1.363 . S
C1154 C1155 1.363 . S
C1154 C1159 1.379 . S
C1154 N1161 1.356 . S
C1155 C1154 1.363 . S
C1155 C1158 1.363 . S
N1156 C1158 1.356 . S
N1156 H1168 0.984 . S
N1156 H1169 0.985 . S
N1157 C1159 1.356 . S
N1157 H1162 0.984 . S
N1157 H1163 0.985 . S
C1158 C1152 1.379 . S
C1158 C1155 1.363 . S
C1158 N1156 1.356 . S
C1159 C1153 1.363 . S
C1159 C1154 1.379 . S
C1159 N1157 1.356 . S
N1160 C1152 1.356 . S
N1160 H1166 0.984 . S
N1160 H1167 0.984 . S
N1161 C1154 1.356 . S
N1161 H1164 0.984 . S
N1161 H1165 0.985 . S
H1162 N1157 0.984 . S
H1163 N1157 0.985 . S
H1164 N1161 0.984 . S
H1165 N1161 0.985 . S
H1166 N1160 0.984 . S
H1167 N1160 0.984 . S
H1168 N1156 0.984 . S
H1169 N1156 0.985 . S
C1170 C1171 1.363 . S
C1170 C1176 1.379 1_565 S
C1170 N1178 1.356 . S
C1171 C1170 1.363 . S
C1171 C1177 1.363 . S
C1172 C1173 1.363 1_565 S
C1172 C1177 1.379 . S
C1172 N1179 1.356 1_565 S
C1173 C1172 1.363 1_545 S
C1173 C1176 1.363 . S
N1174 C1176 1.356 . S
N1174 H1186 0.984 . S
N1174 H1187 0.985 . S
N1175 C1177 1.356 . S
N1175 H1180 0.984 . S
N1175 H1181 0.985 . S
C1176 C1170 1.379 1_545 S
C1176 C1173 1.363 . S
C1176 N1174 1.356 . S
C1177 C1171 1.363 . S
C1177 C1172 1.379 . S
C1177 N1175 1.356 . S
N1178 C1170 1.356 . S
N1178 H1184 0.984 . S
N1178 H1185 0.984 . S
N1179 C1172 1.356 1_545 S
N1179 H1182 0.984 . S
N1179 H1183 0.985 . S
H1180 N1175 0.984 . S
H1181 N1175 0.985 . S
H1182 N1179 0.984 . S
H1183 N1179 0.985 . S
H1184 N1178 0.984 . S
H1185 N1178 0.984 . S
H1186 N1174 0.984 . S
H1187 N1174 0.985 . S
C1188 C1189 1.363 . S
C1188 C1194 1.379 . S
C1188 N1196 1.356 . S
C1189 C1188 1.363 . S
C1189 C1195 1.363 . S
C1190 C1191 1.363 . S
C1190 C1195 1.379 . S
C1190 N1197 1.356 . S
C1191 C1190 1.363 . S
C1191 C1194 1.363 . S
N1192 C1194 1.356 . S
N1192 H1204 0.984 . S
N1192 H1205 0.985 . S
N1193 C1195 1.356 . S
N1193 H1198 0.984 . S
N1193 H1199 0.985 . S
C1194 C1188 1.379 . S
C1194 C1191 1.363 . S
C1194 N1192 1.356 . S
C1195 C1189 1.363 . S
C1195 C1190 1.379 . S
C1195 N1193 1.356 . S
N1196 C1188 1.356 . S
N1196 H1202 0.984 . S
N1196 H1203 0.984 . S
N1197 C1190 1.356 . S
N1197 H1200 0.984 . S
N1197 H1201 0.985 . S
H1198 N1193 0.984 . S
H1199 N1193 0.985 . S
H1200 N1197 0.984 . S
H1201 N1197 0.985 . S
H1202 N1196 0.984 . S
H1203 N1196 0.984 . S
H1204 N1192 0.984 . S
H1205 N1192 0.985 . S
C1206 C1207 1.363 . S
C1206 C1212 1.379 . S
C1206 N1214 1.356 . S
C1207 C1206 1.363 . S
C1207 C1213 1.363 . S
C1208 C1209 1.363 . S
C1208 C1213 1.379 . S
C1208 N1215 1.356 . S
C1209 C1208 1.363 . S
C1209 C1212 1.363 . S
N1210 C1212 1.356 . S
N1210 H1222 0.984 . S
N1210 H1223 0.985 . S
N1211 C1213 1.356 . S
N1211 H1216 0.984 . S
N1211 H1217 0.985 . S
C1212 C1206 1.379 . S
C1212 C1209 1.363 . S
C1212 N1210 1.356 . S
C1213 C1207 1.363 . S
C1213 C1208 1.379 . S
C1213 N1211 1.356 . S
N1214 C1206 1.356 . S
N1214 H1220 0.984 . S
N1214 H1221 0.984 . S
N1215 C1208 1.356 . S
N1215 H1218 0.984 . S
N1215 H1219 0.985 . S
H1216 N1211 0.984 . S
H1217 N1211 0.985 . S
H1218 N1215 0.984 . S
H1219 N1215 0.985 . S
H1220 N1214 0.984 . S
H1221 N1214 0.984 . S
H1222 N1210 0.984 . S
H1223 N1210 0.985 . S
C1224 C1225 1.363 . S
C1224 C1230 1.379 . S
C1224 N1232 1.356 . S
C1225 C1224 1.363 . S
C1225 C1231 1.363 . S
C1226 C1227 1.363 . S
C1226 C1231 1.379 . S
C1226 N1233 1.356 . S
C1227 C1226 1.363 . S
C1227 C1230 1.363 . S
N1228 C1230 1.356 . S
N1228 H1240 0.984 . S
N1228 H1241 0.985 . S
N1229 C1231 1.356 . S
N1229 H1234 0.984 . S
N1229 H1235 0.985 . S
C1230 C1224 1.379 . S
C1230 C1227 1.363 . S
C1230 N1228 1.356 . S
C1231 C1225 1.363 . S
C1231 C1226 1.379 . S
C1231 N1229 1.356 . S
N1232 C1224 1.356 . S
N1232 H1238 0.984 . S
N1232 H1239 0.984 . S
N1233 C1226 1.356 . S
N1233 H1236 0.984 . S
N1233 H1237 0.985 . S
H1234 N1229 0.984 . S
H1235 N1229 0.985 . S
H1236 N1233 0.984 . S
H1237 N1233 0.985 . S
H1238 N1232 0.984 . S
H1239 N1232 0.984 . S
H1240 N1228 0.984 . S
H1241 N1228 0.985 . S
C1242 C1243 1.363 . S
C1242 C1248 1.379 . S
C1242 N1250 1.356 . S
C1243 C1242 1.363 . S
C1243 C1249 1.363 . S
C1244 C1245 1.363 . S
C1244 C1249 1.379 . S
C1244 N1251 1.356 . S
C1245 C1244 1.363 . S
C1245 C1248 1.363 . S
N1246 C1248 1.356 . S
N1246 H1258 0.984 . S
N1246 H1259 0.985 . S
N1247 C1249 1.356 . S
N1247 H1252 0.984 . S
N1247 H1253 0.985 . S
C1248 C1242 1.379 . S
C1248 C1245 1.363 . S
C1248 N1246 1.356 . S
C1249 C1243 1.363 . S
C1249 C1244 1.379 . S
C1249 N1247 1.356 . S
N1250 C1242 1.356 . S
N1250 H1256 0.984 . S
N1250 H1257 0.984 . S
N1251 C1244 1.356 . S
N1251 H1254 0.984 . S
N1251 H1255 0.985 . S
H1252 N1247 0.984 . S
H1253 N1247 0.985 . S
H1254 N1251 0.984 . S
H1255 N1251 0.985 . S
H1256 N1250 0.984 . S
H1257 N1250 0.984 . S
H1258 N1246 0.984 . S
H1259 N1246 0.985 . S
C1260 C1261 1.363 . S
C1260 C1266 1.379 . S
C1260 N1268 1.356 . S
C1261 C1260 1.363 . S
C1261 C1267 1.363 . S
C1262 C1263 1.363 . S
C1262 C1267 1.379 . S
C1262 N1269 1.356 . S
C1263 C1262 1.363 . S
C1263 C1266 1.363 . S
N1264 C1266 1.356 . S
N1264 H1276 0.984 . S
N1264 H1277 0.985 . S
N1265 C1267 1.356 . S
N1265 H1270 0.984 . S
N1265 H1271 0.985 . S
C1266 C1260 1.379 . S
C1266 C1263 1.363 . S
C1266 N1264 1.356 . S
C1267 C1261 1.363 . S
C1267 C1262 1.379 . S
C1267 N1265 1.356 . S
N1268 C1260 1.356 . S
N1268 H1274 0.984 . S
N1268 H1275 0.984 . S
N1269 C1262 1.356 . S
N1269 H1272 0.984 . S
N1269 H1273 0.985 . S
H1270 N1265 0.984 . S
H1271 N1265 0.985 . S
H1272 N1269 0.984 . S
H1273 N1269 0.985 . S
H1274 N1268 0.984 . S
H1275 N1268 0.984 . S
H1276 N1264 0.984 . S
H1277 N1264 0.985 . S
C1278 C1279 1.363 . S
C1278 C1284 1.379 . S
C1278 N1286 1.356 . S
C1279 C1278 1.363 . S
C1279 C1285 1.363 . S
C1280 C1281 1.363 . S
C1280 C1285 1.379 . S
C1280 N1287 1.356 . S
C1281 C1280 1.363 . S
C1281 C1284 1.363 . S
N1282 C1284 1.356 . S
N1282 H1294 0.984 . S
N1282 H1295 0.985 . S
N1283 C1285 1.356 . S
N1283 H1288 0.984 . S
N1283 H1289 0.985 . S
C1284 C1278 1.379 . S
C1284 C1281 1.363 . S
C1284 N1282 1.356 . S
C1285 C1279 1.363 . S
C1285 C1280 1.379 . S
C1285 N1283 1.356 . S
N1286 C1278 1.356 . S
N1286 H1292 0.984 . S
N1286 H1293 0.984 . S
N1287 C1280 1.356 . S
N1287 H1290 0.984 . S
N1287 H1291 0.985 . S
H1288 N1283 0.984 . S
H1289 N1283 0.985 . S
H1290 N1287 0.984 . S
H1291 N1287 0.985 . S
H1292 N1286 0.984 . S
H1293 N1286 0.984 . S
H1294 N1282 0.984 . S
H1295 N1282 0.985 . S
C1296 C1297 1.363 . S
C1296 C1302 1.379 . S
C1296 N1304 1.356 . S
C1297 C1296 1.363 . S
C1297 C1303 1.350 1_655 S
C1298 C1299 1.362 . S
C1298 C1303 1.373 1_655 S
C1298 N1305 1.357 1_655 S
C1299 C1298 1.362 . S
C1299 C1302 1.363 . S
N1300 C1302 1.356 . S
N1300 H1312 0.984 . S
N1300 H1313 0.985 . S
N1301 C1303 1.374 . S
N1301 H1306 0.984 . S
N1301 H1307 0.985 . S
C1302 C1296 1.379 . S
C1302 C1299 1.363 . S
C1302 N1300 1.356 . S
C1303 C1297 1.350 1_455 S
C1303 C1298 1.373 1_455 S
C1303 N1301 1.374 . S
N1304 C1296 1.356 . S
N1304 H1310 0.984 . S
N1304 H1311 0.984 . S
N1305 C1298 1.357 1_455 S
N1305 H1308 0.984 . S
N1305 H1309 0.985 . S
H1306 N1301 0.984 . S
H1307 N1301 0.985 . S
H1308 N1305 0.984 . S
H1309 N1305 0.985 . S
H1310 N1304 0.984 . S
H1311 N1304 0.984 . S
H1312 N1300 0.984 . S
H1313 N1300 0.985 . S
C1314 C1315 1.363 . S
C1314 C1320 1.379 . S
C1314 N1322 1.356 . S
C1315 C1314 1.363 . S
C1315 C1321 1.363 . S
C1316 C1317 1.363 . S
C1316 C1321 1.379 . S
C1316 N1323 1.356 . S
C1317 C1316 1.363 . S
C1317 C1320 1.363 . S
N1318 C1320 1.356 . S
N1318 H1330 0.984 . S
N1318 H1331 0.985 . S
N1319 C1321 1.356 . S
N1319 H1324 0.984 . S
N1319 H1325 0.985 . S
C1320 C1314 1.379 . S
C1320 C1317 1.363 . S
C1320 N1318 1.356 . S
C1321 C1315 1.363 . S
C1321 C1316 1.379 . S
C1321 N1319 1.356 . S
N1322 C1314 1.356 . S
N1322 H1328 0.984 . S
N1322 H1329 0.984 . S
N1323 C1316 1.356 . S
N1323 H1326 0.984 . S
N1323 H1327 0.985 . S
H1324 N1319 0.984 . S
H1325 N1319 0.985 . S
H1326 N1323 0.984 . S
H1327 N1323 0.985 . S
H1328 N1322 0.984 . S
H1329 N1322 0.984 . S
H1330 N1318 0.984 . S
H1331 N1318 0.985 . S
C1332 C1333 1.363 . S
C1332 C1338 1.379 . S
C1332 N1340 1.356 . S
C1333 C1332 1.363 . S
C1333 C1339 1.363 . S
C1334 C1335 1.363 . S
C1334 C1339 1.379 . S
C1334 N1341 1.356 . S
C1335 C1334 1.363 . S
C1335 C1338 1.363 . S
N1336 C1338 1.356 . S
N1336 H1348 0.984 . S
N1336 H1349 0.985 . S
N1337 C1339 1.356 . S
N1337 H1342 0.984 . S
N1337 H1343 0.985 . S
C1338 C1332 1.379 . S
C1338 C1335 1.363 . S
C1338 N1336 1.356 . S
C1339 C1333 1.363 . S
C1339 C1334 1.379 . S
C1339 N1337 1.356 . S
N1340 C1332 1.356 . S
N1340 H1346 0.984 . S
N1340 H1347 0.984 . S
N1341 C1334 1.356 . S
N1341 H1344 0.984 . S
N1341 H1345 0.985 . S
H1342 N1337 0.984 . S
H1343 N1337 0.985 . S
H1344 N1341 0.984 . S
H1345 N1341 0.985 . S
H1346 N1340 0.984 . S
H1347 N1340 0.984 . S
H1348 N1336 0.984 . S
H1349 N1336 0.985 . S
C1350 C1351 1.363 . S
C1350 C1356 1.379 . S
C1350 N1358 1.356 . S
C1351 C1350 1.363 . S
C1351 C1357 1.363 . S
C1352 C1353 1.363 . S
C1352 C1357 1.379 . S
C1352 N1359 1.356 . S
C1353 C1352 1.363 . S
C1353 C1356 1.363 . S
N1354 C1356 1.356 . S
N1354 H1366 0.984 . S
N1354 H1367 0.985 . S
N1355 C1357 1.356 . S
N1355 H1360 0.984 . S
N1355 H1361 0.985 . S
C1356 C1350 1.379 . S
C1356 C1353 1.363 . S
C1356 N1354 1.356 . S
C1357 C1351 1.363 . S
C1357 C1352 1.379 . S
C1357 N1355 1.356 . S
N1358 C1350 1.356 . S
N1358 H1364 0.984 . S
N1358 H1365 0.984 . S
N1359 C1352 1.356 . S
N1359 H1362 0.984 . S
N1359 H1363 0.985 . S
H1360 N1355 0.984 . S
H1361 N1355 0.985 . S
H1362 N1359 0.984 . S
H1363 N1359 0.985 . S
H1364 N1358 0.984 . S
H1365 N1358 0.984 . S
H1366 N1354 0.984 . S
H1367 N1354 0.985 . S
C1368 C1369 1.363 . S
C1368 C1374 1.379 . S
C1368 N1376 1.356 . S
C1369 C1368 1.363 . S
C1369 C1375 1.363 . S
C1370 C1371 1.363 . S
C1370 C1375 1.379 . S
C1370 N1377 1.356 . S
C1371 C1370 1.363 . S
C1371 C1374 1.363 . S
N1372 C1374 1.356 . S
N1372 H1384 0.984 . S
N1372 H1385 0.985 . S
N1373 C1375 1.356 . S
N1373 H1378 0.984 . S
N1373 H1379 0.985 . S
C1374 C1368 1.379 . S
C1374 C1371 1.363 . S
C1374 N1372 1.356 . S
C1375 C1369 1.363 . S
C1375 C1370 1.379 . S
C1375 N1373 1.356 . S
N1376 C1368 1.356 . S
N1376 H1382 0.984 . S
N1376 H1383 0.984 . S
N1377 C1370 1.356 . S
N1377 H1380 0.984 . S
N1377 H1381 0.985 . S
H1378 N1373 0.984 . S
H1379 N1373 0.985 . S
H1380 N1377 0.984 . S
H1381 N1377 0.985 . S
H1382 N1376 0.984 . S
H1383 N1376 0.984 . S
H1384 N1372 0.984 . S
H1385 N1372 0.985 . S
C1386 C1387 1.363 . S
C1386 C1392 1.379 . S
C1386 N1394 1.356 . S
C1387 C1386 1.363 . S
C1387 C1393 1.363 . S
C1388 C1389 1.363 . S
C1388 C1393 1.379 . S
C1388 N1395 1.356 . S
C1389 C1388 1.363 . S
C1389 C1392 1.363 . S
N1390 C1392 1.356 . S
N1390 H1402 0.984 . S
N1390 H1403 0.985 . S
N1391 C1393 1.356 . S
N1391 H1396 0.984 . S
N1391 H1397 0.985 . S
C1392 C1386 1.379 . S
C1392 C1389 1.363 . S
C1392 N1390 1.356 . S
C1393 C1387 1.363 . S
C1393 C1388 1.379 . S
C1393 N1391 1.356 . S
N1394 C1386 1.356 . S
N1394 H1400 0.984 . S
N1394 H1401 0.984 . S
N1395 C1388 1.356 . S
N1395 H1398 0.984 . S
N1395 H1399 0.985 . S
H1396 N1391 0.984 . S
H1397 N1391 0.985 . S
H1398 N1395 0.984 . S
H1399 N1395 0.985 . S
H1400 N1394 0.984 . S
H1401 N1394 0.984 . S
H1402 N1390 0.984 . S
H1403 N1390 0.985 . S
C1404 C1405 1.363 . S
C1404 C1410 1.379 . S
C1404 N1412 1.356 . S
C1405 C1404 1.363 . S
C1405 C1411 1.363 . S
C1406 C1407 1.363 . S
C1406 C1411 1.379 . S
C1406 N1413 1.356 . S
C1407 C1406 1.363 . S
C1407 C1410 1.363 . S
N1408 C1410 1.356 . S
N1408 H1420 0.984 . S
N1408 H1421 0.985 . S
N1409 C1411 1.356 . S
N1409 H1414 0.984 . S
N1409 H1415 0.985 . S
C1410 C1404 1.379 . S
C1410 C1407 1.363 . S
C1410 N1408 1.356 . S
C1411 C1405 1.363 . S
C1411 C1406 1.379 . S
C1411 N1409 1.356 . S
N1412 C1404 1.356 . S
N1412 H1418 0.984 . S
N1412 H1419 0.984 . S
N1413 C1406 1.356 . S
N1413 H1416 0.984 . S
N1413 H1417 0.985 . S
H1414 N1409 0.984 . S
H1415 N1409 0.985 . S
H1416 N1413 0.984 . S
H1417 N1413 0.985 . S
H1418 N1412 0.984 . S
H1419 N1412 0.984 . S
H1420 N1408 0.984 . S
H1421 N1408 0.985 . S
C1422 C1423 1.363 . S
C1422 C1428 1.379 . S
C1422 N1430 1.356 . S
C1423 C1422 1.363 . S
C1423 C1429 1.363 . S
C1424 C1425 1.363 . S
C1424 C1429 1.379 . S
C1424 N1431 1.356 . S
C1425 C1424 1.363 . S
C1425 C1428 1.363 . S
N1426 C1428 1.356 . S
N1426 H1438 0.984 . S
N1426 H1439 0.985 . S
N1427 C1429 1.356 . S
N1427 H1432 0.984 . S
N1427 H1433 0.985 . S
C1428 C1422 1.379 . S
C1428 C1425 1.363 . S
C1428 N1426 1.356 . S
C1429 C1423 1.363 . S
C1429 C1424 1.379 . S
C1429 N1427 1.356 . S
N1430 C1422 1.356 . S
N1430 H1436 0.984 . S
N1430 H1437 0.984 . S
N1431 C1424 1.356 . S
N1431 H1434 0.984 . S
N1431 H1435 0.985 . S
H1432 N1427 0.984 . S
H1433 N1427 0.985 . S
H1434 N1431 0.984 . S
H1435 N1431 0.985 . S
H1436 N1430 0.984 . S
H1437 N1430 0.984 . S
H1438 N1426 0.984 . S
H1439 N1426 0.985 . S
C1440 C1441 1.363 . S
C1440 C1446 1.379 . S
C1440 N1448 1.356 . S
C1441 C1440 1.363 . S
C1441 C1447 1.363 . S
C1442 C1443 1.363 . S
C1442 C1447 1.379 . S
C1442 N1449 1.356 . S
C1443 C1442 1.363 . S
C1443 C1446 1.363 . S
N1444 C1446 1.356 . S
N1444 H1456 0.984 . S
N1444 H1457 0.985 . S
N1445 C1447 1.356 . S
N1445 H1450 0.984 . S
N1445 H1451 0.985 . S
C1446 C1440 1.379 . S
C1446 C1443 1.363 . S
C1446 N1444 1.356 . S
C1447 C1441 1.363 . S
C1447 C1442 1.379 . S
C1447 N1445 1.356 . S
N1448 C1440 1.356 . S
N1448 H1454 0.984 . S
N1448 H1455 0.984 . S
N1449 C1442 1.356 . S
N1449 H1452 0.984 . S
N1449 H1453 0.985 . S
H1450 N1445 0.984 . S
H1451 N1445 0.985 . S
H1452 N1449 0.984 . S
H1453 N1449 0.985 . S
H1454 N1448 0.984 . S
H1455 N1448 0.984 . S
H1456 N1444 0.984 . S
H1457 N1444 0.985 . S
C1458 C1459 1.363 . S
C1458 C1464 1.379 . S
C1458 N1466 1.356 . S
C1459 C1458 1.363 . S
C1459 C1465 1.363 . S
C1460 C1461 1.363 . S
C1460 C1465 1.379 . S
C1460 N1467 1.356 . S
C1461 C1460 1.363 . S
C1461 C1464 1.363 . S
N1462 C1464 1.356 . S
N1462 H1474 0.984 . S
N1462 H1475 0.985 . S
N1463 C1465 1.356 . S
N1463 H1468 0.984 . S
N1463 H1469 0.985 . S
C1464 C1458 1.379 . S
C1464 C1461 1.363 . S
C1464 N1462 1.356 . S
C1465 C1459 1.363 . S
C1465 C1460 1.379 . S
C1465 N1463 1.356 . S
N1466 C1458 1.356 . S
N1466 H1472 0.984 . S
N1466 H1473 0.984 . S
N1467 C1460 1.356 . S
N1467 H1470 0.984 . S
N1467 H1471 0.985 . S
H1468 N1463 0.984 . S
H1469 N1463 0.985 . S
H1470 N1467 0.984 . S
H1471 N1467 0.985 . S
H1472 N1466 0.984 . S
H1473 N1466 0.984 . S
H1474 N1462 0.984 . S
H1475 N1462 0.985 . S
C1476 C1477 1.363 . S
C1476 C1482 1.379 . S
C1476 N1484 1.356 . S
C1477 C1476 1.363 . S
C1477 C1483 1.363 . S
C1478 C1479 1.363 . S
C1478 C1483 1.379 . S
C1478 N1485 1.356 . S
C1479 C1478 1.363 . S
C1479 C1482 1.363 . S
N1480 C1482 1.356 . S
N1480 H1492 0.984 . S
N1480 H1493 0.985 . S
N1481 C1483 1.356 . S
N1481 H1486 0.984 . S
N1481 H1487 0.985 . S
C1482 C1476 1.379 . S
C1482 C1479 1.363 . S
C1482 N1480 1.356 . S
C1483 C1477 1.363 . S
C1483 C1478 1.379 . S
C1483 N1481 1.356 . S
N1484 C1476 1.356 . S
N1484 H1490 0.984 . S
N1484 H1491 0.984 . S
N1485 C1478 1.356 . S
N1485 H1488 0.984 . S
N1485 H1489 0.985 . S
H1486 N1481 0.984 . S
H1487 N1481 0.985 . S
H1488 N1485 0.984 . S
H1489 N1485 0.985 . S
H1490 N1484 0.984 . S
H1491 N1484 0.984 . S
H1492 N1480 0.984 . S
H1493 N1480 0.985 . S
C1494 C1495 1.363 . S
C1494 C1500 1.379 . S
C1494 N1502 1.356 . S
C1495 C1494 1.363 . S
C1495 C1501 1.363 . S
C1496 C1497 1.363 . S
C1496 C1501 1.379 . S
C1496 N1503 1.356 . S
C1497 C1496 1.363 . S
C1497 C1500 1.363 . S
N1498 C1500 1.356 . S
N1498 H1510 0.984 . S
N1498 H1511 0.985 . S
N1499 C1501 1.356 . S
N1499 H1504 0.984 . S
N1499 H1505 0.985 . S
C1500 C1494 1.379 . S
C1500 C1497 1.363 . S
C1500 N1498 1.356 . S
C1501 C1495 1.363 . S
C1501 C1496 1.379 . S
C1501 N1499 1.356 . S
N1502 C1494 1.356 . S
N1502 H1508 0.984 . S
N1502 H1509 0.984 . S
N1503 C1496 1.356 . S
N1503 H1506 0.984 . S
N1503 H1507 0.985 . S
H1504 N1499 0.984 . S
H1505 N1499 0.985 . S
H1506 N1503 0.984 . S
H1507 N1503 0.985 . S
H1508 N1502 0.984 . S
H1509 N1502 0.984 . S
H1510 N1498 0.984 . S
H1511 N1498 0.985 . S
C1512 C1513 1.363 . S
C1512 C1518 1.379 . S
C1512 N1520 1.356 . S
C1513 C1512 1.363 . S
C1513 C1519 1.363 . S
C1514 C1515 1.363 . S
C1514 C1519 1.379 . S
C1514 N1521 1.356 . S
C1515 C1514 1.363 . S
C1515 C1518 1.363 . S
N1516 C1518 1.356 . S
N1516 H1528 0.984 . S
N1516 H1529 0.985 . S
N1517 C1519 1.356 . S
N1517 H1522 0.984 . S
N1517 H1523 0.985 . S
C1518 C1512 1.379 . S
C1518 C1515 1.363 . S
C1518 N1516 1.356 . S
C1519 C1513 1.363 . S
C1519 C1514 1.379 . S
C1519 N1517 1.356 . S
N1520 C1512 1.356 . S
N1520 H1526 0.984 . S
N1520 H1527 0.984 . S
N1521 C1514 1.356 . S
N1521 H1524 0.984 . S
N1521 H1525 0.985 . S
H1522 N1517 0.984 . S
H1523 N1517 0.985 . S
H1524 N1521 0.984 . S
H1525 N1521 0.985 . S
H1526 N1520 0.984 . S
H1527 N1520 0.984 . S
H1528 N1516 0.984 . S
H1529 N1516 0.985 . S
C1530 C1531 1.363 . S
C1530 C1536 1.379 . S
C1530 N1538 1.356 . S
C1531 C1530 1.363 . S
C1531 C1537 1.363 . S
C1532 C1533 1.363 . S
C1532 C1537 1.379 . S
C1532 N1539 1.356 . S
C1533 C1532 1.363 . S
C1533 C1536 1.363 . S
N1534 C1536 1.356 . S
N1534 H1546 0.984 . S
N1534 H1547 0.985 . S
N1535 C1537 1.356 . S
N1535 H1540 0.984 . S
N1535 H1541 0.985 . S
C1536 C1530 1.379 . S
C1536 C1533 1.363 . S
C1536 N1534 1.356 . S
C1537 C1531 1.363 . S
C1537 C1532 1.379 . S
C1537 N1535 1.356 . S
N1538 C1530 1.356 . S
N1538 H1544 0.984 . S
N1538 H1545 0.984 . S
N1539 C1532 1.356 . S
N1539 H1542 0.984 . S
N1539 H1543 0.985 . S
H1540 N1535 0.984 . S
H1541 N1535 0.985 . S
H1542 N1539 0.984 . S
H1543 N1539 0.985 . S
H1544 N1538 0.984 . S
H1545 N1538 0.984 . S
H1546 N1534 0.984 . S
H1547 N1534 0.985 . S
C1548 C1549 1.363 . S
C1548 C1554 1.379 . S
C1548 N1556 1.356 . S
C1549 C1548 1.363 . S
C1549 C1555 1.363 . S
C1550 C1551 1.363 . S
C1550 C1555 1.379 . S
C1550 N1557 1.356 . S
C1551 C1550 1.363 . S
C1551 C1554 1.363 . S
N1552 C1554 1.356 1_455 S
N1552 H1564 0.984 . S
N1552 H1565 0.985 1_455 S
N1553 C1555 1.356 . S
N1553 H1558 0.984 . S
N1553 H1559 0.985 . S
C1554 C1548 1.379 . S
C1554 C1551 1.363 . S
C1554 N1552 1.356 1_655 S
C1555 C1549 1.363 . S
C1555 C1550 1.379 . S
C1555 N1553 1.356 . S
N1556 C1548 1.356 . S
N1556 H1562 0.984 1_655 S
N1556 H1563 0.984 . S
N1557 C1550 1.356 . S
N1557 H1560 0.984 . S
N1557 H1561 0.985 . S
H1558 N1553 0.984 . S
H1559 N1553 0.985 . S
H1560 N1557 0.984 . S
H1561 N1557 0.985 . S
H1562 N1556 0.984 1_455 S
H1563 N1556 0.984 . S
H1564 N1552 0.984 . S
H1565 N1552 0.985 1_655 S
C595 N170 1.976 . S
C597 C246 2.034 . S
C613 N184 1.228 . S
C615 C286 1.227 . S
C631 N158 1.654 . S
C633 C316 1.644 . S
C649 N145 1.559 . S
C651 C276 1.541 1_556 S
C669 C326 0.970 . S
C667 N119 0.970 . S
C685 N131 1.782 . S
C687 C236 1.832 1_556 S
C705 C265 1.743 . S
C703 N144 1.729 . S
C723 C305 1.642 . S
C721 N118 1.655 . S
C739 N132 1.556 . S
C741 C331 1.570 . S
C757 N171 1.490 . S
C759 C291 1.493 . S
C775 N183 1.368 . S
C777 C345 1.375 . S
C795 C251 1.482 . S
C793 N157 1.492 . S
C813 C366 2.033 . S
C811 N14 1.976 . S
C829 N28 1.228 . S
C831 C406 1.227 . S
C847 N2 1.655 . S
C849 C436 1.644 . S
C865 N223 1.559 . S
C867 C396 1.543 . S
C883 N197 0.970 . S
C885 C446 0.970 . S
C901 N209 1.782 . S
C903 C356 1.832 . S
C919 N222 1.729 . S
C921 C385 1.742 . S
C937 N196 1.655 . S
C939 C425 1.642 . S
C957 C451 1.570 . S
C955 N210 1.556 . S
C973 N15 1.490 . S
C975 C411 1.493 . S
C993 C465 1.376 . S
C991 N27 1.368 . S
C1009 N1 1.492 . S
C1011 C371 1.482 . S
C1029 C486 2.033 . S
C1027 N92 1.976 . S
C1045 N106 1.228 . S
C1047 C526 1.227 . S
C1065 C556 1.644 . S
C1063 N80 1.654 . S
C1083 C516 1.543 . S
C1081 N67 1.559 . S
C1101 C566 0.970 . S
C1099 N41 0.970 . S
C1117 N53 1.782 . S
C1119 C476 1.833 . S
C1135 N66 1.729 . S
C1137 C505 1.742 . S
C1153 N40 1.656 . S
C1155 C545 1.642 . S
C1173 C571 1.571 . S
C1171 N54 1.556 . S
C1189 N93 1.490 . S
C1191 C531 1.493 . S
C1207 N105 1.368 . S
C1209 C585 1.376 . S
C1225 N79 1.492 . S
C1227 C491 1.482 . S
C1243 N200 1.169 . S
C1245 C263 1.182 . S
C1263 C303 1.880 . S
C1261 N213 1.881 . S
C1279 N226 1.604 . S
C1281 C322 1.582 . S
C1297 N83 1.811 . S
C1299 C282 1.750 . S
C1315 N96 1.725 . S
C1317 C343 1.756 . S
C1335 C242 1.318 . S
C1333 N109 1.372 . S
C1351 N44 1.169 . S
C1353 C383 1.182 . S
C1369 N57 1.880 . S
C1371 C423 1.880 . S
C1387 N70 1.604 . S
C1389 C442 1.583 . S
C1405 N161 1.811 . S
C1407 C402 1.751 . S
C1425 C463 1.755 . S
C1423 N174 1.725 . S
C1441 N187 1.372 . S
C1443 C362 1.318 . S
C1459 N122 1.169 . S
C1461 C503 1.182 . S
C1477 N135 1.880 . S
C1479 C543 1.880 . S
C1497 C562 1.582 . S
C1495 N148 1.604 . S
C1513 N5 1.811 . S
C1515 C522 1.751 . S
C1531 N18 1.725 . S
C1533 C583 1.756 . S
C1549 N31 1.373 . S
C1551 C482 1.318 . S
