# Generated by pormake.
# Topology ptr, (4,4)-cn, num edge types: 1
# Building blocks:
#     Node 0, Type 0, BuildingBlock: KUFVIS_clean_sbu_0, # of connection points: 4
#     Node 1, Type 0, BuildingBlock: KUFVIS_clean_sbu_0, # of connection points: 4
#     Node 2, Type 0, BuildingBlock: KUFVIS_clean_sbu_0, # of connection points: 4
#     Node 3, Type 0, BuildingBlock: KUFVIS_clean_sbu_0, # of connection points: 4
#     Node 4, Type 0, BuildingBlock: KUFVIS_clean_sbu_0, # of connection points: 4
#     Node 5, Type 0, BuildingBlock: KUFVIS_clean_sbu_0, # of connection points: 4
#     Node 6, Type 0, BuildingBlock: KUFVIS_clean_sbu_0, # of connection points: 4
#     Node 7, Type 0, BuildingBlock: KUFVIS_clean_sbu_0, # of connection points: 4
#     Node 8, Type 0, BuildingBlock: KUFVIS_clean_sbu_0, # of connection points: 4
#     Node 9, Type 0, BuildingBlock: KUFVIS_clean_sbu_0, # of connection points: 4
#     Node 10, Type 0, BuildingBlock: KUFVIS_clean_sbu_0, # of connection points: 4
#     Node 11, Type 0, BuildingBlock: KUFVIS_clean_sbu_0, # of connection points: 4
#     Node 12, Type 0, BuildingBlock: KUFVIS_clean_sbu_0, # of connection points: 4
#     Node 13, Type 0, BuildingBlock: KUFVIS_clean_sbu_0, # of connection points: 4
#     Node 14, Type 0, BuildingBlock: KUFVIS_clean_sbu_0, # of connection points: 4
#     Node 15, Type 0, BuildingBlock: KUFVIS_clean_sbu_0, # of connection points: 4
#     Node 16, Type 0, BuildingBlock: KUFVIS_clean_sbu_0, # of connection points: 4
#     Node 17, Type 0, BuildingBlock: KUFVIS_clean_sbu_0, # of connection points: 4
#     Node 18, Type 1, BuildingBlock: MUDLON_clean_linker_0, # of connection points: 4
#     Node 19, Type 1, BuildingBlock: MUDLON_clean_linker_0, # of connection points: 4
#     Node 20, Type 1, BuildingBlock: MUDLON_clean_linker_0, # of connection points: 4
#     Node 21, Type 1, BuildingBlock: MUDLON_clean_linker_0, # of connection points: 4
#     Node 22, Type 1, BuildingBlock: MUDLON_clean_linker_0, # of connection points: 4
#     Node 23, Type 1, BuildingBlock: MUDLON_clean_linker_0, # of connection points: 4
#     Node 24, Type 1, BuildingBlock: MUDLON_clean_linker_0, # of connection points: 4
#     Node 25, Type 1, BuildingBlock: MUDLON_clean_linker_0, # of connection points: 4
#     Node 26, Type 1, BuildingBlock: MUDLON_clean_linker_0, # of connection points: 4
#     Node 27, Type 1, BuildingBlock: MUDLON_clean_linker_0, # of connection points: 4
#     Node 28, Type 1, BuildingBlock: MUDLON_clean_linker_0, # of connection points: 4
#     Node 29, Type 1, BuildingBlock: MUDLON_clean_linker_0, # of connection points: 4
#     Node 30, Type 1, BuildingBlock: MUDLON_clean_linker_0, # of connection points: 4
#     Node 31, Type 1, BuildingBlock: MUDLON_clean_linker_0, # of connection points: 4
#     Node 32, Type 1, BuildingBlock: MUDLON_clean_linker_0, # of connection points: 4
#     Node 33, Type 1, BuildingBlock: MUDLON_clean_linker_0, # of connection points: 4
#     Node 34, Type 1, BuildingBlock: MUDLON_clean_linker_0, # of connection points: 4
#     Node 35, Type 1, BuildingBlock: MUDLON_clean_linker_0, # of connection points: 4
#     Edge 36, Type (0, 1), BuildingBlock: OJICUG_clean_linker_0, # of connection points: 2
#     Edge 37, Type (0, 1), BuildingBlock: OJICUG_clean_linker_0, # of connection points: 2
#     Edge 38, Type (0, 1), BuildingBlock: OJICUG_clean_linker_0, # of connection points: 2
#     Edge 39, Type (0, 1), BuildingBlock: OJICUG_clean_linker_0, # of connection points: 2
#     Edge 40, Type (0, 1), BuildingBlock: OJICUG_clean_linker_0, # of connection points: 2
#     Edge 41, Type (0, 1), BuildingBlock: OJICUG_clean_linker_0, # of connection points: 2
#     Edge 42, Type (0, 1), BuildingBlock: OJICUG_clean_linker_0, # of connection points: 2
#     Edge 43, Type (0, 1), BuildingBlock: OJICUG_clean_linker_0, # of connection points: 2
#     Edge 44, Type (0, 1), BuildingBlock: OJICUG_clean_linker_0, # of connection points: 2
#     Edge 45, Type (0, 1), BuildingBlock: OJICUG_clean_linker_0, # of connection points: 2
#     Edge 46, Type (0, 1), BuildingBlock: OJICUG_clean_linker_0, # of connection points: 2
#     Edge 47, Type (0, 1), BuildingBlock: OJICUG_clean_linker_0, # of connection points: 2
#     Edge 48, Type (0, 1), BuildingBlock: OJICUG_clean_linker_0, # of connection points: 2
#     Edge 49, Type (0, 1), BuildingBlock: OJICUG_clean_linker_0, # of connection points: 2
#     Edge 50, Type (0, 1), BuildingBlock: OJICUG_clean_linker_0, # of connection points: 2
#     Edge 51, Type (0, 1), BuildingBlock: OJICUG_clean_linker_0, # of connection points: 2
#     Edge 52, Type (0, 1), BuildingBlock: OJICUG_clean_linker_0, # of connection points: 2
#     Edge 53, Type (0, 1), BuildingBlock: OJICUG_clean_linker_0, # of connection points: 2
#     Edge 54, Type (0, 1), BuildingBlock: OJICUG_clean_linker_0, # of connection points: 2
#     Edge 55, Type (0, 1), BuildingBlock: OJICUG_clean_linker_0, # of connection points: 2
#     Edge 56, Type (0, 1), BuildingBlock: OJICUG_clean_linker_0, # of connection points: 2
#     Edge 57, Type (0, 1), BuildingBlock: OJICUG_clean_linker_0, # of connection points: 2
#     Edge 58, Type (0, 1), BuildingBlock: OJICUG_clean_linker_0, # of connection points: 2
#     Edge 59, Type (0, 1), BuildingBlock: OJICUG_clean_linker_0, # of connection points: 2
#     Edge 60, Type (0, 1), BuildingBlock: OJICUG_clean_linker_0, # of connection points: 2
#     Edge 61, Type (0, 1), BuildingBlock: OJICUG_clean_linker_0, # of connection points: 2
#     Edge 62, Type (0, 1), BuildingBlock: OJICUG_clean_linker_0, # of connection points: 2
#     Edge 63, Type (0, 1), BuildingBlock: OJICUG_clean_linker_0, # of connection points: 2
#     Edge 64, Type (0, 1), BuildingBlock: OJICUG_clean_linker_0, # of connection points: 2
#     Edge 65, Type (0, 1), BuildingBlock: OJICUG_clean_linker_0, # of connection points: 2
#     Edge 66, Type (0, 1), BuildingBlock: OJICUG_clean_linker_0, # of connection points: 2
#     Edge 67, Type (0, 1), BuildingBlock: OJICUG_clean_linker_0, # of connection points: 2
#     Edge 68, Type (0, 1), BuildingBlock: OJICUG_clean_linker_0, # of connection points: 2
#     Edge 69, Type (0, 1), BuildingBlock: OJICUG_clean_linker_0, # of connection points: 2
#     Edge 70, Type (0, 1), BuildingBlock: OJICUG_clean_linker_0, # of connection points: 2
#     Edge 71, Type (0, 1), BuildingBlock: OJICUG_clean_linker_0, # of connection points: 2
#     Edge 72, Type (0, 1), BuildingBlock: OJICUG_clean_linker_0, # of connection points: 2
#     Edge 73, Type (0, 1), BuildingBlock: OJICUG_clean_linker_0, # of connection points: 2
#     Edge 74, Type (0, 1), BuildingBlock: OJICUG_clean_linker_0, # of connection points: 2
#     Edge 75, Type (0, 1), BuildingBlock: OJICUG_clean_linker_0, # of connection points: 2
#     Edge 76, Type (0, 1), BuildingBlock: OJICUG_clean_linker_0, # of connection points: 2
#     Edge 77, Type (0, 1), BuildingBlock: OJICUG_clean_linker_0, # of connection points: 2
#     Edge 78, Type (0, 1), BuildingBlock: OJICUG_clean_linker_0, # of connection points: 2
#     Edge 79, Type (0, 1), BuildingBlock: OJICUG_clean_linker_0, # of connection points: 2
#     Edge 80, Type (0, 1), BuildingBlock: OJICUG_clean_linker_0, # of connection points: 2
#     Edge 81, Type (0, 1), BuildingBlock: OJICUG_clean_linker_0, # of connection points: 2
#     Edge 82, Type (0, 1), BuildingBlock: OJICUG_clean_linker_0, # of connection points: 2
#     Edge 83, Type (0, 1), BuildingBlock: OJICUG_clean_linker_0, # of connection points: 2
#     Edge 84, Type (0, 1), BuildingBlock: OJICUG_clean_linker_0, # of connection points: 2
#     Edge 85, Type (0, 1), BuildingBlock: OJICUG_clean_linker_0, # of connection points: 2
#     Edge 86, Type (0, 1), BuildingBlock: OJICUG_clean_linker_0, # of connection points: 2
#     Edge 87, Type (0, 1), BuildingBlock: OJICUG_clean_linker_0, # of connection points: 2
#     Edge 88, Type (0, 1), BuildingBlock: OJICUG_clean_linker_0, # of connection points: 2
#     Edge 89, Type (0, 1), BuildingBlock: OJICUG_clean_linker_0, # of connection points: 2
#     Edge 90, Type (0, 1), BuildingBlock: OJICUG_clean_linker_0, # of connection points: 2
#     Edge 91, Type (0, 1), BuildingBlock: OJICUG_clean_linker_0, # of connection points: 2
#     Edge 92, Type (0, 1), BuildingBlock: OJICUG_clean_linker_0, # of connection points: 2
#     Edge 93, Type (0, 1), BuildingBlock: OJICUG_clean_linker_0, # of connection points: 2
#     Edge 94, Type (0, 1), BuildingBlock: OJICUG_clean_linker_0, # of connection points: 2
#     Edge 95, Type (0, 1), BuildingBlock: OJICUG_clean_linker_0, # of connection points: 2
#     Edge 96, Type (0, 1), BuildingBlock: OJICUG_clean_linker_0, # of connection points: 2
#     Edge 97, Type (0, 1), BuildingBlock: OJICUG_clean_linker_0, # of connection points: 2
#     Edge 98, Type (0, 1), BuildingBlock: OJICUG_clean_linker_0, # of connection points: 2
#     Edge 99, Type (0, 1), BuildingBlock: OJICUG_clean_linker_0, # of connection points: 2
#     Edge 100, Type (0, 1), BuildingBlock: OJICUG_clean_linker_0, # of connection points: 2
#     Edge 101, Type (0, 1), BuildingBlock: OJICUG_clean_linker_0, # of connection points: 2
#     Edge 102, Type (0, 1), BuildingBlock: OJICUG_clean_linker_0, # of connection points: 2
#     Edge 103, Type (0, 1), BuildingBlock: OJICUG_clean_linker_0, # of connection points: 2
#     Edge 104, Type (0, 1), BuildingBlock: OJICUG_clean_linker_0, # of connection points: 2
#     Edge 105, Type (0, 1), BuildingBlock: OJICUG_clean_linker_0, # of connection points: 2
#     Edge 106, Type (0, 1), BuildingBlock: OJICUG_clean_linker_0, # of connection points: 2
#     Edge 107, Type (0, 1), BuildingBlock: OJICUG_clean_linker_0, # of connection points: 2
# Relax obj value: 0.036
# Max RMSD: 0.128
# Mean RMSD: 0.074
data_MOF--net-ptr--node1-KUFVIS_clean_sbu_0--node2-MUDLON_clean_linker_0--edge1-OJICUG_clean_linker_0
_symmetry_space_group_name_H-M    P1
_symmetry_Int_Tables_number       1
_symmetry_cell_setting            triclinic
loop_
_symmetry_equiv_pos_as_xyz
'x, y, z'
_cell_length_a     83.69344
_cell_length_b     83.31739
_cell_length_c     50.679011
_cell_angle_alpha  89.608343
_cell_angle_beta   90.779434
_cell_angle_gamma 119.49231
loop_
_atom_site_label
_atom_site_type_symbol
_atom_site_fract_x
_atom_site_fract_y
_atom_site_fract_z
_atom_type_partial_charge
Mn0 Mn 1.00194 0.36181 0.9993 0.0
Mn1 Mn 0.04208 0.40201 0.99995 0.0
C2 C 0.00688 0.38463 0.96904 0.0
C3 C 0.98392 0.33137 0.98514 0.0
C4 C 0.01176 0.39297 0.03913 0.0
O5 O 0.01872 0.35552 0.02109 0.0
O6 O 0.04503 0.38275 0.01941 0.0
C7 C 0.06377 0.39064 0.96708 0.0
N8 N 0.05702 0.40226 0.97161 0.0
C9 C 0.07207 0.42035 0.93327 0.0
C10 C 0.07928 0.40864 0.92829 0.0
C11 C 0.07506 0.39369 0.94523 0.0
C12 C 0.06093 0.41664 0.95538 0.0
H13 H 0.06055 0.37912 0.98005 0.0
C14 C 0.03572 0.36585 0.02665 0.0
O15 O 0.98011 0.33724 0.00653 0.0
O16 O 0.99842 0.34304 0.97244 0.0
N17 N 0.04141 0.42187 0.98176 0.0
C18 C 0.03243 0.43115 0.98839 0.0
C19 C 0.03465 0.44612 0.97287 0.0
C20 C 0.04623 0.45153 0.95091 0.0
C21 C 0.05549 0.44191 0.94466 0.0
C22 C 0.05275 0.42711 0.96086 0.0
H23 H 0.02355 0.42707 0.00528 0.0
O24 O 0.99032 0.37201 0.97478 0.0
O25 O 0.02012 0.38348 0.98108 0.0
O26 O 1.00053 0.37702 0.02999 0.0
O27 O 0.0276 0.40331 0.02941 0.0
C28 C 0.06707 0.44622 0.92274 0.0
C29 C 0.07528 0.43539 0.91696 0.0
H30 H 0.08795 0.41092 0.91141 0.0
H31 H 0.0805 0.38454 0.94145 0.0
H32 H 0.02744 0.45347 0.97781 0.0
H33 H 0.04781 0.46301 0.93889 0.0
H34 H 0.06955 0.45767 0.90997 0.0
H35 H 0.0839 0.43865 0.89978 0.0
Mn36 Mn 0.6445 0.63755 0.02384 0.0
Mn37 Mn 0.64474 0.59709 0.02318 0.0
C38 C 0.62688 0.6146 0.05363 0.0
C39 C 0.6564 0.668 0.03803 0.0
C40 C 0.62437 0.60733 0.98247 0.0
O41 O 0.66751 0.64366 0.00317 0.0
O42 O 0.66738 0.61656 0.006 0.0
C43 C 0.6765 0.60645 0.05871 0.0
N44 N 0.6584 0.59548 0.05261 0.0
C45 C 0.65411 0.5761 0.09031 0.0
C46 C 0.67274 0.58713 0.09691 0.0
C47 C 0.68397 0.60239 0.08106 0.0
C48 C 0.64748 0.58071 0.06765 0.0
H49 H 0.68517 0.61822 0.04662 0.0
C50 C 0.67473 0.63352 0.99889 0.0
O51 O 0.64697 0.66219 0.01624 0.0
O52 O 0.65933 0.65625 0.0512 0.0
N53 N 0.62378 0.57722 0.0395 0.0
C54 C 0.60581 0.56907 0.03182 0.0
C55 C 0.59257 0.55417 0.04642 0.0
C56 C 0.59795 0.54775 0.06866 0.0
C57 C 0.61654 0.55631 0.07611 0.0
C58 C 0.62913 0.57103 0.0607 0.0
H59 H 0.60159 0.574 0.01482 0.0
O60 O 0.62278 0.62731 0.04751 0.0
O61 O 0.64114 0.61563 0.042 0.0
O62 O 0.62834 0.62287 0.99248 0.0
O63 O 0.63001 0.59682 0.99222 0.0
C64 C 0.62298 0.55115 0.09865 0.0
C65 C 0.64176 0.56103 0.10573 0.0
H66 H 0.67852 0.58415 0.11426 0.0
H67 H 0.69834 0.61102 0.08611 0.0
H68 H 0.57825 0.54769 0.04062 0.0
H69 H 0.58767 0.53638 0.08003 0.0
H70 H 0.61356 0.53984 0.11096 0.0
H71 H 0.64649 0.55715 0.12337 0.0
Mn72 Mn 0.35577 0.99785 0.02352 0.0
Mn73 Mn 0.39654 0.03727 0.02355 0.0
C74 C 0.37862 1.00159 0.05322 0.0
C75 C 0.32554 0.98111 0.03827 0.0
C76 C 0.38537 0.00713 0.98236 0.0
O77 O 0.35039 0.01565 0.00232 0.0
O78 O 0.37743 0.04189 0.00726 0.0
C79 C 0.3883 0.05941 0.06071 0.0
N80 N 0.39882 0.05184 0.05379 0.0
C81 C 0.41868 0.06526 0.09156 0.0
C82 C 0.40813 0.0733 0.09901 0.0
C83 C 0.39284 0.07031 0.08356 0.0
C84 C 0.41351 0.05456 0.06857 0.0
H85 H 0.37654 0.05715 0.04887 0.0
C86 C 0.3607 0.03302 0.99916 0.0
O87 O 0.33054 0.97674 0.01654 0.0
O88 O 0.33794 0.99542 0.05087 0.0
N89 N 0.4162 0.03479 0.03902 0.0
C90 C 0.4242 0.02507 0.03006 0.0
C91 C 0.43929 0.02599 0.04387 0.0
C92 C 0.44612 0.03703 0.06655 0.0
C93 C 0.43776 0.04705 0.07523 0.0
C94 C 0.42277 0.04559 0.06067 0.0
H95 H 0.41905 0.01661 0.01259 0.0
O96 O 0.36534 0.98523 0.04747 0.0
O97 O 0.37797 0.01525 0.04169 0.0
O98 O 0.37004 0.99559 0.99248 0.0
O99 O 0.39581 0.02316 0.99195 0.0
C100 C 0.44355 0.05818 0.098 0.0
C101 C 0.43396 0.06721 0.10624 0.0
H102 H 0.41155 0.08166 0.11667 0.0
H103 H 0.38458 0.0764 0.08925 0.0
H104 H 0.44565 0.01821 0.03705 0.0
H105 H 0.4577 0.03763 0.07723 0.0
H106 H 0.45517 0.05965 0.10957 0.0
H107 H 0.43833 0.07545 0.12406 0.0
Mn108 Mn 1.00117 0.64354 0.99889 0.0
Mn109 Mn 0.04118 0.6428 0.99968 0.0
C110 C 0.00567 0.62496 0.96971 0.0
C111 C 0.98324 0.65617 0.98406 0.0
C112 C 0.01133 0.62263 0.03984 0.0
O113 O 0.0182 0.6667 0.0196 0.0
O114 O 0.04434 0.66519 0.01839 0.0
C115 C 0.06219 0.67523 0.96532 0.0
N116 N 0.05558 0.657 0.97054 0.0
C117 C 0.06935 0.65324 0.93138 0.0
C118 C 0.07641 0.672 0.92568 0.0
C119 C 0.07276 0.68303 0.94269 0.0
C120 C 0.05892 0.64624 0.95423 0.0
H121 H 0.05937 0.68374 0.97829 0.0
C122 C 0.03518 0.67309 0.02517 0.0
O123 O 0.9795 0.64677 0.00584 0.0
O124 O 0.99755 0.65852 0.97125 0.0
N125 N 0.04035 0.6221 0.9822 0.0
C126 C 0.03196 0.60411 0.98997 0.0
C127 C 0.03402 0.59119 0.97487 0.0
C128 C 0.04477 0.5969 0.95205 0.0
C129 C 0.05344 0.61552 0.94461 0.0
C130 C 0.05101 0.62779 0.96056 0.0
H131 H 0.02361 0.59962 0.0074 0.0
O132 O 0.98919 0.62141 0.97544 0.0
O133 O 0.01903 0.63937 0.98106 0.0
O134 O 1.00015 0.62755 0.03049 0.0
O135 O 0.02699 0.62746 0.02982 0.0
C136 C 0.06419 0.62232 0.9218 0.0
C137 C 0.07207 0.64115 0.91512 0.0
H138 H 0.08453 0.67806 0.9082 0.0
H139 H 0.07808 0.6975 0.93835 0.0
H140 H 0.02725 0.57684 0.98072 0.0
H141 H 0.04617 0.58686 0.9403 0.0
H142 H 0.06629 0.61315 0.90907 0.0
H143 H 0.08008 0.64617 0.89732 0.0
Mn144 Mn 0.36138 0.36266 0.02307 0.0
Mn145 Mn 0.40133 0.36172 0.02415 0.0
C146 C 0.384 0.37998 0.05384 0.0
C147 C 0.33093 0.35079 0.03617 0.0
C148 C 0.39271 0.38359 0.98397 0.0
O149 O 0.35515 0.33968 0.00156 0.0
O150 O 0.38218 0.33994 0.00459 0.0
C151 C 0.38967 0.32859 0.05755 0.0
N152 N 0.40138 0.3468 0.0529 0.0
C153 C 0.41948 0.34913 0.09148 0.0
C154 C 0.40768 0.33037 0.0966 0.0
C155 C 0.39268 0.32008 0.0796 0.0
C156 C 0.41579 0.35686 0.06922 0.0
H157 H 0.37815 0.32063 0.0445 0.0
C158 C 0.36543 0.33273 0.99674 0.0
O159 O 0.33701 0.36059 0.01486 0.0
O160 O 0.34239 0.34754 0.04947 0.0
N161 N 0.42115 0.3818 0.04249 0.0
C162 C 0.43056 0.39996 0.03564 0.0
C163 C 0.44563 0.4123 0.05116 0.0
C164 C 0.45101 0.4058 0.07329 0.0
C165 C 0.44126 0.38701 0.07974 0.0
C166 C 0.42635 0.37537 0.06358 0.0
H167 H 0.42653 0.40501 0.01858 0.0
O168 O 0.37148 0.38424 0.0475 0.0
O169 O 0.38286 0.36558 0.04216 0.0
O170 O 0.3768 0.37923 0.99256 0.0
O171 O 0.40286 0.3777 0.99431 0.0
C172 C 0.44558 0.37941 0.10179 0.0
C173 C 0.43463 0.36051 0.10776 0.0
H174 H 0.40994 0.32376 0.1136 0.0
H175 H 0.38347 0.30562 0.08348 0.0
H176 H 0.45308 0.42678 0.04606 0.0
H177 H 0.46258 0.41537 0.08529 0.0
H178 H 0.45716 0.38803 0.11449 0.0
H179 H 0.4379 0.35491 0.12504 0.0
Mn180 Mn 0.6406 0.00212 0.00153 0.0
Mn181 Mn 0.60072 0.96166 0.00018 0.0
C182 C 0.61864 0.99696 0.96947 0.0
C183 C 0.67116 0.02036 0.98965 0.0
C184 C 0.60934 0.99193 0.04019 0.0
O185 O 0.64632 0.98521 0.02421 0.0
O186 O 0.61992 0.95831 0.01891 0.0
C187 C 0.61116 0.93958 0.96631 0.0
N188 N 0.59993 0.94669 0.97126 0.0
C189 C 0.58136 0.93187 0.93284 0.0
C190 C 0.59267 0.92429 0.92742 0.0
C191 C 0.60765 0.9282 0.9442 0.0
C192 C 0.58543 0.94297 0.9553 0.0
H193 H 0.62271 0.94257 0.97914 0.0
C194 C 0.63645 0.96781 0.02765 0.0
O195 O 0.66464 0.0242 0.01025 0.0
O196 O 0.66015 0.00572 0.97629 0.0
N197 N 0.58113 0.963 0.98224 0.0
C198 C 0.57265 0.97276 0.98888 0.0
C199 C 0.55797 0.9712 0.97325 0.0
C200 C 0.55209 0.95956 0.9511 0.0
C201 C 0.56097 0.94958 0.94475 0.0
C202 C 0.57547 0.95162 0.96112 0.0
H203 H 0.57714 0.98176 0.00584 0.0
O204 O 0.63098 0.01364 0.97574 0.0
O205 O 0.61949 0.98377 0.98214 0.0
O206 O 0.62484 0.00367 0.03085 0.0
O207 O 0.59959 0.97581 0.03054 0.0
C208 C 0.55635 0.93811 0.92239 0.0
C209 C 0.56653 0.92925 0.91645 0.0
H210 H 0.5901 0.91564 0.91026 0.0
H211 H 0.61649 0.92248 0.94006 0.0
H212 H 0.55123 0.97901 0.97822 0.0
H213 H 0.54088 0.95855 0.93894 0.0
H214 H 0.54523 0.93631 0.90934 0.0
H215 H 0.56306 0.92074 0.89894 0.0
Mn216 Mn 0.66709 0.69682 0.33562 0.0
Mn217 Mn 0.70759 0.73662 0.33698 0.0
C218 C 0.67263 0.72007 0.30589 0.0
C219 C 0.64811 0.66674 0.32078 0.0
C220 C 0.67731 0.7281 0.37565 0.0
O221 O 0.68352 0.68962 0.35655 0.0
O222 O 0.70959 0.71717 0.35744 0.0
C223 C 0.72904 0.72407 0.30575 0.0
N224 N 0.72272 0.73613 0.30943 0.0
C225 C 0.73869 0.75369 0.27118 0.0
C226 C 0.74548 0.74152 0.26708 0.0
C227 C 0.74058 0.72661 0.28439 0.0
C228 C 0.72727 0.75047 0.29282 0.0
H229 H 0.72532 0.71259 0.319 0.0
C230 C 0.70021 0.70006 0.36355 0.0
O231 O 0.64492 0.67249 0.34279 0.0
O232 O 0.66264 0.67823 0.30797 0.0
N233 N 0.70787 0.75667 0.31794 0.0
C234 C 0.69928 0.76646 0.32374 0.0
C235 C 0.70219 0.78147 0.30774 0.0
C236 C 0.71408 0.78639 0.28618 0.0
C237 C 0.72295 0.77625 0.28082 0.0
C238 C 0.71951 0.76142 0.29744 0.0
H239 H 0.69016 0.76276 0.34033 0.0
O240 O 0.65593 0.70789 0.31182 0.0
O241 O 0.68564 0.71841 0.31771 0.0
O242 O 0.66632 0.71192 0.36701 0.0
O243 O 0.69295 0.73863 0.36552 0.0
C244 C 0.73483 0.78006 0.25936 0.0
C245 C 0.74261 0.76874 0.25446 0.0
H246 H 0.75434 0.74341 0.25059 0.0
H247 H 0.74569 0.71711 0.28128 0.0
H248 H 0.69529 0.78923 0.31201 0.0
H249 H 0.71621 0.79791 0.27379 0.0
H250 H 0.73788 0.79154 0.2463 0.0
H251 H 0.75147 0.77163 0.23764 0.0
Mn252 Mn 0.30582 0.97343 0.35683 0.0
Mn253 Mn 0.30434 0.93215 0.35606 0.0
C254 C 0.28805 0.95089 0.38701 0.0
C255 C 0.3189 0.00395 0.37118 0.0
C256 C 0.28403 0.94303 0.3162 0.0
O257 O 0.32844 0.97873 0.33569 0.0
O258 O 0.32673 0.95083 0.3375 0.0
C259 C 0.33676 0.94109 0.38991 0.0
N260 N 0.31846 0.93048 0.38481 0.0
C261 C 0.31453 0.91167 0.42307 0.0
C262 C 0.33337 0.92232 0.42864 0.0
C263 C 0.34452 0.93711 0.41201 0.0
C264 C 0.30761 0.91617 0.40062 0.0
H265 H 0.34537 0.95251 0.37723 0.0
C266 C 0.33466 0.96784 0.33055 0.0
O267 O 0.30919 0.99849 0.34957 0.0
O268 O 0.32141 0.99181 0.38399 0.0
N269 N 0.28351 0.91293 0.37357 0.0
C270 C 0.26541 0.90508 0.36672 0.0
C271 C 0.25228 0.89065 0.38213 0.0
C272 C 0.25789 0.88439 0.40429 0.0
C273 C 0.27661 0.89261 0.41084 0.0
C274 C 0.28909 0.90686 0.39465 0.0
H275 H 0.26101 0.90989 0.34977 0.0
O276 O 0.2844 0.96393 0.38104 0.0
O277 O 0.3019 0.95134 0.37495 0.0
O278 O 0.28899 0.95896 0.32574 0.0
O279 O 0.28912 0.9321 0.326 0.0
C280 C 0.28333 0.88758 0.4332 0.0
C281 C 0.30228 0.89709 0.4393 0.0
H282 H 0.33938 0.91941 0.44579 0.0
H283 H 0.35905 0.94546 0.41626 0.0
H284 H 0.23785 0.88442 0.377 0.0
H285 H 0.2477 0.8734 0.41629 0.0
H286 H 0.27401 0.87664 0.44612 0.0
H287 H 0.30724 0.89331 0.45681 0.0
Mn288 Mn 0.02675 0.33642 0.35503 0.0
Mn289 Mn 0.06632 0.37714 0.35589 0.0
C290 C 0.04964 0.34132 0.38528 0.0
C291 C 0.99646 0.31822 0.36894 0.0
C292 C 0.05739 0.3473 0.31493 0.0
O293 O 0.0204 0.35326 0.3334 0.0
O294 O 0.0466 0.38036 0.33839 0.0
C295 C 0.05544 0.39777 0.39201 0.0
N296 N 0.06704 0.39133 0.38581 0.0
C297 C 0.0857 0.40544 0.42441 0.0
C298 C 0.07405 0.41237 0.4311 0.0
C299 C 0.05882 0.40847 0.41486 0.0
C300 C 0.08168 0.39492 0.40134 0.0
H301 H 0.04368 0.39475 0.37964 0.0
C302 C 0.03003 0.37066 0.32997 0.0
O303 O 1.00221 0.31443 0.34744 0.0
O304 O 0.00814 0.3328 0.38182 0.0
N305 N 0.08651 0.37618 0.37246 0.0
C306 C 0.09571 0.36747 0.36415 0.0
C307 C 0.11093 0.3694 0.37876 0.0
C308 C 0.11665 0.38038 0.40158 0.0
C309 C 0.1071 0.38937 0.40958 0.0
C310 C 0.09207 0.38699 0.39418 0.0
H311 H 0.09139 0.35902 0.34661 0.0
O312 O 0.03702 0.3247 0.37929 0.0
O313 O 0.04832 0.35461 0.37373 0.0
O314 O 0.04199 0.33534 0.32443 0.0
O315 O 0.06716 0.3634 0.32476 0.0
C316 C 0.1117 0.40032 0.43248 0.0
C317 C 0.10097 0.40828 0.43996 0.0
H318 H 0.07656 0.42055 0.44877 0.0
H319 H 0.04969 0.41367 0.41998 0.0
H320 H 0.11822 0.3624 0.37247 0.0
H321 H 0.12831 0.38172 0.41292 0.0
H322 H 0.12331 0.40247 0.44471 0.0
H323 H 0.10445 0.41639 0.45787 0.0
Mn324 Mn 0.66998 0.97691 0.33134 0.0
Mn325 Mn 0.71045 0.97711 0.33226 0.0
C326 C 0.67474 0.95814 0.30283 0.0
C327 C 0.65173 0.98903 0.31567 0.0
C328 C 0.68103 0.95763 0.3735 0.0
O329 O 0.68687 1.00034 0.3517 0.0
O330 O 0.71367 1.00019 0.34878 0.0
C331 C 0.73061 0.00806 0.29519 0.0
N332 N 0.72428 0.99011 0.30202 0.0
C333 C 0.73751 0.98486 0.26343 0.0
C334 C 0.74431 0.00333 0.2561 0.0
C335 C 0.7408 0.01496 0.27201 0.0
C336 C 0.72749 0.97877 0.28678 0.0
H337 H 0.72786 0.01702 0.30728 0.0
C338 C 0.70413 0.0076 0.35592 0.0
O339 O 0.64816 0.98004 0.33782 0.0
O340 O 0.6661 0.99132 0.3031 0.0
N341 N 0.70948 0.95577 0.31665 0.0
C342 C 0.70121 0.93811 0.32582 0.0
C343 C 0.70309 0.92463 0.31188 0.0
C344 C 0.7135 0.92946 0.28874 0.0
C345 C 0.722 0.94775 0.2798 0.0
C346 C 0.71979 0.96062 0.29465 0.0
H347 H 0.69311 0.93429 0.34349 0.0
O348 O 0.65819 0.95445 0.3084 0.0
O349 O 0.68795 0.97278 0.31388 0.0
O350 O 0.66928 0.96148 0.36335 0.0
O351 O 0.69687 0.96295 0.36371 0.0
C352 C 0.73235 0.95365 0.25651 0.0
C353 C 0.74004 0.97218 0.24828 0.0
H354 H 0.75211 0.00869 0.23818 0.0
H355 H 0.7459 0.02921 0.2664 0.0
H356 H 0.69645 0.91054 0.31887 0.0
H357 H 0.71476 0.91899 0.27788 0.0
H358 H 0.73424 0.944 0.24458 0.0
H359 H 0.74773 0.97648 0.23013 0.0
Mn360 Mn 0.02875 0.6959 0.35634 0.0
Mn361 Mn 0.06842 0.69446 0.35758 0.0
C362 C 0.05169 0.71362 0.38655 0.0
C363 C 0.99843 0.68439 0.36985 0.0
C364 C 0.05939 0.7153 0.31602 0.0
O365 O 0.02228 0.67258 0.33547 0.0
O366 O 0.04877 0.67189 0.34013 0.0
C367 C 0.05764 0.66282 0.39376 0.0
N368 N 0.06916 0.68081 0.38756 0.0
C369 C 0.08809 0.68485 0.42586 0.0
C370 C 0.07649 0.66633 0.43258 0.0
C371 C 0.06117 0.65529 0.4165 0.0
C372 C 0.08389 0.69158 0.40295 0.0
H373 H 0.04587 0.65429 0.38143 0.0
C374 C 0.03208 0.66491 0.332 0.0
O375 O 0.00436 0.69381 0.3482 0.0
O376 O 0.00997 0.6813 0.38323 0.0
N377 N 0.08856 0.71532 0.37412 0.0
C378 C 0.09765 0.73319 0.36583 0.0
C379 C 0.11293 0.74622 0.38032 0.0
C380 C 0.11884 0.74071 0.40296 0.0
C381 C 0.10937 0.72221 0.41095 0.0
C382 C 0.09423 0.70984 0.39574 0.0
H383 H 0.09321 0.7375 0.34839 0.0
O384 O 0.03918 0.71789 0.38014 0.0
O385 O 0.05032 0.69901 0.37527 0.0
O386 O 0.04394 0.71187 0.32538 0.0
O387 O 0.06934 0.70915 0.32628 0.0
C388 C 0.11419 0.7156 0.43363 0.0
C389 C 0.1035 0.69697 0.44117 0.0
H390 H 0.07914 0.66048 0.45014 0.0
H391 H 0.05211 0.64101 0.42163 0.0
H392 H 0.12015 0.76048 0.37404 0.0
H393 H 0.13058 0.75082 0.41416 0.0
H394 H 0.12594 0.72481 0.44564 0.0
H395 H 0.10714 0.69214 0.45893 0.0
Mn396 Mn 0.30899 0.33737 0.335 0.0
Mn397 Mn 0.26928 0.29685 0.33369 0.0
C398 C 0.28608 0.33279 0.30492 0.0
C399 C 0.33924 0.3556 0.32115 0.0
C400 C 0.27853 0.32618 0.37552 0.0
O401 O 0.31537 0.32014 0.35563 0.0
O402 O 0.28887 0.29332 0.35088 0.0
C403 C 0.27989 0.2763 0.297 0.0
N404 N 0.26849 0.28296 0.30337 0.0
C405 C 0.25003 0.26965 0.26434 0.0
C406 C 0.26151 0.26256 0.25743 0.0
C407 C 0.27653 0.26594 0.2738 0.0
C408 C 0.25405 0.27985 0.28771 0.0
H409 H 0.29147 0.27889 0.30952 0.0
C410 C 0.30557 0.30273 0.35893 0.0
O411 O 0.33356 0.3592 0.34288 0.0
O412 O 0.32748 0.34126 0.30791 0.0
N413 N 0.24926 0.29826 0.31732 0.0
C414 C 0.24015 0.30694 0.32602 0.0
C415 C 0.22507 0.30541 0.31143 0.0
C416 C 0.21943 0.29485 0.2882 0.0
C417 C 0.22891 0.28589 0.27978 0.0
C418 C 0.2438 0.28787 0.29517 0.0
H419 H 0.24441 0.31507 0.34387 0.0
O420 O 0.29861 0.34937 0.31128 0.0
O421 O 0.28742 0.31945 0.31624 0.0
O422 O 0.29395 0.33812 0.36609 0.0
O423 O 0.26852 0.31028 0.36525 0.0
C424 C 0.22435 0.27531 0.25652 0.0
C425 C 0.23494 0.26725 0.24874 0.0
H426 H 0.259 0.25461 0.23951 0.0
H427 H 0.2855 0.26058 0.26855 0.0
H428 H 0.21784 0.31238 0.31805 0.0
H429 H 0.20788 0.29381 0.2769 0.0
H430 H 0.2129 0.27353 0.24423 0.0
H431 H 0.23149 0.25941 0.23057 0.0
Mn432 Mn 0.33558 0.02908 0.67228 0.0
Mn433 Mn 0.37605 0.06899 0.67193 0.0
C434 C 0.34072 0.05158 0.64127 0.0
C435 C 0.3169 0.99842 0.65956 0.0
C436 C 0.3461 0.06069 0.71142 0.0
O437 O 0.35225 0.02283 0.69445 0.0
O438 O 0.37885 0.04966 0.69145 0.0
C439 C 0.39728 0.05704 0.63906 0.0
N440 N 0.39076 0.06886 0.64351 0.0
C441 C 0.40615 0.08691 0.60531 0.0
C442 C 0.41312 0.07499 0.6004 0.0
C443 C 0.40861 0.05996 0.6173 0.0
C444 C 0.39493 0.08331 0.6273 0.0
H445 H 0.39388 0.04549 0.65204 0.0
C446 C 0.3694 0.03291 0.69931 0.0
O447 O 0.31354 0.005 0.68059 0.0
O448 O 0.33136 0.00952 0.64625 0.0
N449 N 0.37553 0.08885 0.65349 0.0
C450 C 0.36665 0.09825 0.65991 0.0
C451 C 0.36913 0.11332 0.64438 0.0
C452 C 0.38088 0.11868 0.62261 0.0
C453 C 0.38999 0.10888 0.61652 0.0
C454 C 0.38696 0.09398 0.63269 0.0
H455 H 0.35762 0.0942 0.67662 0.0
O456 O 0.32412 0.03921 0.6473 0.0
O457 O 0.35389 0.05038 0.65343 0.0
O458 O 0.33467 0.04481 0.7024 0.0
O459 O 0.36194 0.07085 0.70159 0.0
C460 C 0.40171 0.11313 0.59478 0.0
C461 C 0.4097 0.10208 0.58908 0.0
H462 H 0.42184 0.07718 0.58361 0.0
H463 H 0.41388 0.05065 0.61358 0.0
H464 H 0.36201 0.12077 0.64916 0.0
H465 H 0.38268 0.13024 0.61058 0.0
H466 H 0.40448 0.1247 0.58209 0.0
H467 H 0.41841 0.10528 0.57201 0.0
Mn468 Mn 0.97474 0.30419 0.68748 0.0
Mn469 Mn 0.97557 0.26404 0.68803 0.0
C470 C 0.95688 0.28121 0.71712 0.0
C471 C 0.98643 0.33465 0.70152 0.0
C472 C 0.95531 0.27373 0.6463 0.0
O473 O 0.99789 0.31038 0.66703 0.0
O474 O 0.99834 0.28364 0.6714 0.0
C475 C 0.00677 0.27414 0.72501 0.0
N476 N 0.98884 0.26285 0.71825 0.0
C477 C 0.98423 0.24362 0.75623 0.0
C478 C 1.00269 0.25497 0.76351 0.0
C479 C 0.01398 0.27033 0.74787 0.0
C480 C 0.97783 0.24808 0.7332 0.0
H481 H 0.01549 0.28596 0.71305 0.0
C482 C 0.00542 0.30043 0.66363 0.0
O483 O 0.97712 0.32879 0.67963 0.0
O484 O 0.98935 0.32296 0.71483 0.0
N485 N 0.9545 0.24398 0.70384 0.0
C486 C 0.93672 0.23528 0.69518 0.0
C487 C 0.92346 0.22007 0.70927 0.0
C488 C 0.92863 0.21387 0.73195 0.0
C489 C 0.94704 0.22297 0.74035 0.0
C490 C 0.95965 0.23804 0.7255 0.0
H491 H 0.93267 0.23997 0.67775 0.0
O492 O 0.95283 0.29392 0.71081 0.0
O493 O 0.97135 0.2824 0.70602 0.0
O494 O 0.95884 0.2892 0.65612 0.0
O495 O 0.96122 0.26352 0.65638 0.0
C496 C 0.9533 0.21789 0.76315 0.0
C497 C 0.97186 0.22826 0.77117 0.0
H498 H 0.00828 0.25212 0.78118 0.0
H499 H 0.02821 0.2792 0.75343 0.0
H500 H 0.90927 0.21315 0.70269 0.0
H501 H 0.91834 0.20221 0.74286 0.0
H502 H 0.94389 0.2062 0.77491 0.0
H503 H 0.97643 0.22443 0.78902 0.0
Mn504 Mn 0.6945 0.67125 0.68804 0.0
Mn505 Mn 0.73395 0.71203 0.68798 0.0
C506 C 0.71735 0.67675 0.71868 0.0
C507 C 0.66423 0.65319 0.70217 0.0
C508 C 0.72475 0.68175 0.64762 0.0
O509 O 0.68817 0.68787 0.66564 0.0
O510 O 0.71409 0.71523 0.6711 0.0
C511 C 0.72396 0.73328 0.72427 0.0
N512 N 0.73527 0.72652 0.71785 0.0
C513 C 0.7543 0.74049 0.75621 0.0
C514 C 0.74296 0.74775 0.76309 0.0
C515 C 0.7277 0.74409 0.74708 0.0
C516 C 0.74999 0.72996 0.7331 0.0
H517 H 0.71214 0.73039 0.71212 0.0
C518 C 0.69757 0.70535 0.66252 0.0
O519 O 0.66998 0.64909 0.68093 0.0
O520 O 0.67587 0.66802 0.71458 0.0
N521 N 0.75413 0.71079 0.70414 0.0
C522 C 0.76279 0.70153 0.69591 0.0
C523 C 0.77784 0.70298 0.71049 0.0
C524 C 0.78388 0.714 0.73328 0.0
C525 C 0.77483 0.7235 0.74126 0.0
C526 C 0.76 0.72164 0.72583 0.0
H527 H 0.75818 0.693 0.67847 0.0
O528 O 0.70484 0.65999 0.71315 0.0
O529 O 0.71598 0.68974 0.7063 0.0
O530 O 0.70976 0.66964 0.65793 0.0
O531 O 0.73429 0.69812 0.65668 0.0
C532 C 0.77966 0.73436 0.76428 0.0
C533 C 0.76941 0.74286 0.77174 0.0
H534 H 0.7457 0.75595 0.7808 0.0
H535 H 0.7188 0.74952 0.75237 0.0
H536 H 0.78471 0.69557 0.70425 0.0
H537 H 0.79536 0.71491 0.74464 0.0
H538 H 0.79103 0.736 0.77664 0.0
H539 H 0.77305 0.75091 0.78973 0.0
Mn540 Mn 0.34044 0.31343 0.66722 0.0
Mn541 Mn 0.38109 0.31409 0.66742 0.0
C542 C 0.34538 0.29537 0.63767 0.0
C543 C 0.32223 0.32587 0.65271 0.0
C544 C 0.35155 0.29358 0.70824 0.0
O545 O 0.35713 0.33635 0.68874 0.0
O546 O 0.38424 0.33702 0.68436 0.0
C547 C 0.40107 0.34529 0.63065 0.0
N548 N 0.3948 0.32731 0.63721 0.0
C549 C 0.40775 0.32229 0.59812 0.0
C550 C 0.41448 0.3408 0.59106 0.0
C551 C 0.41108 0.35233 0.60737 0.0
C552 C 0.39791 0.31607 0.6216 0.0
H553 H 0.39839 0.35417 0.64305 0.0
C554 C 0.37447 0.34394 0.69245 0.0
O555 O 0.31853 0.31628 0.67432 0.0
O556 O 0.33669 0.32856 0.64001 0.0
N557 N 0.38016 0.29289 0.65142 0.0
C558 C 0.37213 0.27522 0.66053 0.0
C559 C 0.37395 0.26184 0.64623 0.0
C560 C 0.38409 0.26679 0.62283 0.0
C561 C 0.39243 0.2851 0.61403 0.0
C562 C 0.39029 0.29788 0.62924 0.0
H563 H 0.36432 0.27133 0.6785 0.0
O564 O 0.3288 0.29158 0.64319 0.0
O565 O 0.35853 0.3098 0.64923 0.0
O566 O 0.33956 0.2971 0.69811 0.0
O567 O 0.36762 0.29972 0.6988 0.0
C568 C 0.40256 0.29113 0.59057 0.0
C569 C 0.41016 0.3097 0.58257 0.0
H570 H 0.42214 0.34626 0.57306 0.0
H571 H 0.41614 0.3666 0.60197 0.0
H572 H 0.36748 0.24774 0.65316 0.0
H573 H 0.38531 0.25639 0.61171 0.0
H574 H 0.40438 0.28155 0.57835 0.0
H575 H 0.4177 0.3141 0.5643 0.0
Mn576 Mn 0.69352 0.03289 0.68815 0.0
Mn577 Mn 0.73321 0.03154 0.68993 0.0
C578 C 0.71667 0.05119 0.71783 0.0
C579 C 0.66346 0.02199 0.70231 0.0
C580 C 0.72401 0.05166 0.64744 0.0
O581 O 0.6868 0.009 0.66859 0.0
O582 O 0.71355 0.00879 0.6729 0.0
C583 C 0.72251 1.00025 0.72679 0.0
N584 N 0.73401 0.01818 0.72023 0.0
C585 C 0.75334 0.02245 0.75811 0.0
C586 C 0.74176 0.00401 0.76521 0.0
C587 C 0.72623 0.99289 0.74954 0.0
C588 C 0.74891 0.02903 0.73526 0.0
H589 H 0.7106 0.99164 0.71472 0.0
C590 C 0.69675 1.00147 0.66522 0.0
O591 O 0.66898 0.03048 0.67989 0.0
O592 O 0.67516 0.0193 0.71593 0.0
N593 N 0.75336 0.05256 0.70614 0.0
C594 C 0.76234 0.07038 0.69763 0.0
C595 C 0.77776 0.0835 0.71178 0.0
C596 C 0.78393 0.07812 0.73428 0.0
C597 C 0.77455 0.05967 0.74252 0.0
C598 C 0.75921 0.04723 0.72773 0.0
H599 H 0.75772 0.07456 0.68025 0.0
O600 O 0.70428 0.0555 0.71087 0.0
O601 O 0.71516 0.03635 0.70718 0.0
O602 O 0.7084 0.04805 0.65638 0.0
O603 O 0.73411 0.04592 0.65835 0.0
C604 C 0.77968 0.05318 0.76502 0.0
C605 C 0.76901 0.03462 0.77294 0.0
H606 H 0.74458 0.99827 0.78275 0.0
H607 H 0.71719 0.97866 0.75495 0.0
H608 H 0.78491 0.09772 0.70532 0.0
H609 H 0.79582 0.08829 0.74517 0.0
H610 H 0.79164 0.06243 0.77664 0.0
H611 H 0.77287 0.0299 0.7906 0.0
Mn612 Mn 0.97513 0.67115 0.6673 0.0
Mn613 Mn 0.93496 0.63107 0.66718 0.0
C614 C 0.95231 0.66654 0.63705 0.0
C615 C 0.00546 0.68884 0.65343 0.0
C616 C 0.94522 0.66111 0.70817 0.0
O617 O 0.981 0.65379 0.68878 0.0
O618 O 0.95441 0.62708 0.68361 0.0
C619 C 0.9439 0.6093 0.6303 0.0
N620 N 0.93308 0.61658 0.63703 0.0
C621 C 0.91344 0.60284 0.59914 0.0
C622 C 0.92431 0.59511 0.59188 0.0
C623 C 0.93963 0.5984 0.60749 0.0
C624 C 0.91834 0.61354 0.62212 0.0
H625 H 0.95568 0.6118 0.64226 0.0
C626 C 0.97109 0.63635 0.69182 0.0
O627 O 0.99983 0.69279 0.6749 0.0
O628 O 0.99362 0.67436 0.64048 0.0
N629 N 0.91508 0.63306 0.65147 0.0
C630 C 0.90682 0.6426 0.66017 0.0
C631 C 0.89169 0.64141 0.64614 0.0
C632 C 0.88512 0.63031 0.62348 0.0
C633 C 0.89376 0.62053 0.61502 0.0
C634 C 0.90877 0.62223 0.62981 0.0
H635 H 0.91179 0.65112 0.6776 0.0
O636 O 0.96513 0.68312 0.64285 0.0
O637 O 0.95333 0.65321 0.64896 0.0
O638 O 0.96033 0.67292 0.69787 0.0
O639 O 0.93516 0.64492 0.69883 0.0
C640 C 0.88826 0.60939 0.59226 0.0
C641 C 0.89813 0.60061 0.58426 0.0
H642 H 0.92111 0.58676 0.57424 0.0
H643 H 0.94813 0.59255 0.60194 0.0
H644 H 0.88512 0.64904 0.65276 0.0
H645 H 0.87351 0.62952 0.61261 0.0
H646 H 0.87665 0.60774 0.58049 0.0
H647 H 0.89398 0.59237 0.56643 0.0
H648 H 0.23224 0.34654 0.16535 0.0
N649 N 0.21687 0.31539 0.13513 0.0
H650 H 0.24825 0.35067 0.20768 0.0
H651 H 0.21936 0.28976 0.16323 0.0
H652 H 0.23507 0.29358 0.20561 0.0
H653 H 0.2217 0.29239 0.10479 0.0
H654 H 0.24789 0.30005 0.07615 0.0
H655 H 0.24217 0.35019 0.11929 0.0
H656 H 0.2681 0.35795 0.09034 0.0
H657 H 0.21338 0.34613 0.12656 0.0
H658 H 0.18309 0.28737 0.13834 0.0
H659 H 0.18476 0.34725 0.12593 0.0
H660 H 0.15445 0.28833 0.13894 0.0
H661 H 0.10706 0.35083 0.16462 0.0
H662 H 0.09792 0.3578 0.20655 0.0
H663 H 0.07313 0.30035 0.2287 0.0
H664 H 0.08201 0.29345 0.18615 0.0
H665 H 0.06327 0.29973 0.13113 0.0
H666 H 0.04827 0.3111 0.10075 0.0
H667 H 0.10104 0.35832 0.08323 0.0
H668 H 0.11566 0.34732 0.11493 0.0
H669 H 0.13268 0.34468 0.16009 0.0
H670 H 0.1616 0.34484 0.15454 0.0
H671 H 0.13278 0.29232 0.11439 0.0
N672 N 0.09821 0.31658 0.14628 0.0
H673 H 0.10374 0.29186 0.12141 0.0
C674 C 0.22464 0.3178 0.16124 0.0
C675 C 0.23262 0.33489 0.17422 0.0
C676 C 0.2417 0.33719 0.19849 0.0
C677 C 0.24301 0.32246 0.21007 0.0
C678 C 0.23451 0.30526 0.19722 0.0
C679 C 0.22542 0.30299 0.1731 0.0
C680 C 0.22977 0.32064 0.11389 0.0
C681 C 0.23147 0.30674 0.101 0.0
C682 C 0.2465 0.31113 0.08488 0.0
C683 C 0.26007 0.32959 0.08113 0.0
C684 C 0.25775 0.34361 0.09266 0.0
C685 C 0.24282 0.33917 0.10912 0.0
C686 C 0.20034 0.31656 0.13215 0.0
C687 C 0.20058 0.33342 0.12871 0.0
C688 C 0.18413 0.33406 0.12867 0.0
C689 C 0.16715 0.31788 0.13239 0.0
C690 C 0.16709 0.30104 0.13546 0.0
C691 C 0.18347 0.30043 0.13524 0.0
C692 C 0.0952 0.32154 0.17226 0.0
C693 C 0.09991 0.33977 0.17862 0.0
C694 C 0.09469 0.34374 0.20271 0.0
C695 C 0.08468 0.32962 0.221 0.0
C696 C 0.08057 0.31151 0.21492 0.0
C697 C 0.08579 0.30756 0.19078 0.0
C698 C 0.09053 0.32252 0.12521 0.0
C699 C 0.07158 0.31239 0.12038 0.0
C700 C 0.06306 0.31892 0.10287 0.0
C701 C 0.07337 0.33572 0.08945 0.0
C702 C 0.09255 0.34552 0.09354 0.0
C703 C 0.10102 0.3391 0.11143 0.0
C704 C 0.11586 0.31797 0.14167 0.0
C705 C 0.1325 0.33314 0.15022 0.0
C706 C 0.14917 0.33332 0.14671 0.0
C707 C 0.14963 0.31849 0.13424 0.0
C708 C 0.13301 0.30377 0.12468 0.0
C709 C 0.11637 0.30351 0.12848 0.0
H710 H 0.65817 0.7619 0.15702 0.0
N711 N 0.69083 0.78487 0.13329 0.0
H712 H 0.65419 0.7482 0.20089 0.0
H713 H 0.71686 0.79114 0.16883 0.0
H714 H 0.71296 0.77684 0.21249 0.0
H715 H 0.65787 0.76309 0.10859 0.0
H716 H 0.6503 0.73573 0.08183 0.0
H717 H 0.71424 0.77562 0.11349 0.0
H718 H 0.70695 0.74855 0.08654 0.0
H719 H 0.71604 0.81666 0.11324 0.0
H720 H 0.66042 0.78868 0.14112 0.0
H721 H 0.71498 0.84537 0.10972 0.0
H722 H 0.65961 0.81744 0.13967 0.0
H723 H 0.7155 0.93363 0.16101 0.0
H724 H 0.71299 0.94571 0.20354 0.0
H725 H 0.65871 0.89865 0.21285 0.0
H726 H 0.66203 0.88618 0.17111 0.0
H727 H 0.65365 0.89476 0.1313 0.0
H728 H 0.64118 0.90981 0.10339 0.0
H729 H 0.6947 0.94376 0.06955 0.0
H730 H 0.70724 0.92867 0.09819 0.0
H731 H 0.7173 0.89714 0.14218 0.0
H732 H 0.71659 0.86767 0.13835 0.0
H733 H 0.659 0.84153 0.11683 0.0
N734 N 0.68992 0.90412 0.13602 0.0
H735 H 0.65968 0.87087 0.12232 0.0
C736 C 0.68787 0.77787 0.15987 0.0
C737 C 0.67018 0.76575 0.16926 0.0
C738 C 0.66791 0.75785 0.19431 0.0
C739 C 0.68328 0.76156 0.21007 0.0
C740 C 0.70091 0.77383 0.20076 0.0
C741 C 0.70315 0.78201 0.17594 0.0
C742 C 0.68664 0.77132 0.11303 0.0
C743 C 0.66869 0.76022 0.1033 0.0
C744 C 0.66441 0.74461 0.088 0.0
C745 C 0.678 0.73984 0.08241 0.0
C746 C 0.69613 0.75168 0.09086 0.0
C747 C 0.70037 0.76723 0.10599 0.0
C748 C 0.68852 0.80061 0.12787 0.0
C749 C 0.70356 0.81672 0.11845 0.0
C750 C 0.70298 0.83318 0.11684 0.0
C751 C 0.68738 0.83398 0.1251 0.0
C752 C 0.67188 0.81749 0.13309 0.0
C753 C 0.67238 0.80093 0.1342 0.0
C754 C 0.68891 0.90924 0.16276 0.0
C755 C 0.70327 0.92578 0.1726 0.0
C756 C 0.70167 0.93274 0.19678 0.0
C757 C 0.68545 0.92342 0.21151 0.0
C758 C 0.67143 0.90625 0.20221 0.0
C759 C 0.67321 0.89914 0.17816 0.0
C760 C 0.68146 0.91047 0.11671 0.0
C761 C 0.6627 0.9051 0.11754 0.0
C762 C 0.65553 0.91378 0.10148 0.0
C763 C 0.66695 0.92808 0.08429 0.0
C764 C 0.68558 0.93298 0.08282 0.0
C765 C 0.69272 0.92423 0.09889 0.0
C766 C 0.68871 0.88639 0.13234 0.0
C767 C 0.70455 0.88503 0.13655 0.0
C768 C 0.70412 0.86814 0.13406 0.0
C769 C 0.68776 0.85209 0.12692 0.0
C770 C 0.67182 0.85348 0.12258 0.0
C771 C 0.67223 0.87041 0.1255 0.0
H772 H 0.10734 0.75877 0.16323 0.0
N773 N 0.09796 0.78375 0.14388 0.0
H774 H 0.0988 0.7433 0.20599 0.0
H775 H 0.08141 0.79066 0.18301 0.0
H776 H 0.07315 0.7756 0.22625 0.0
H777 H 0.06291 0.76583 0.12942 0.0
H778 H 0.04777 0.73977 0.09923 0.0
H779 H 0.1153 0.77068 0.11141 0.0
H780 H 0.10055 0.74549 0.08017 0.0
H781 H 0.13255 0.78785 0.14774 0.0
H782 H 0.10278 0.81691 0.13246 0.0
H783 H 0.1615 0.81637 0.14278 0.0
H784 H 0.13159 0.84589 0.12972 0.0
H785 H 0.24117 0.89903 0.16179 0.0
H786 H 0.2571 0.90801 0.20421 0.0
H787 H 0.22265 0.93057 0.22728 0.0
H788 H 0.20686 0.92172 0.1842 0.0
H789 H 0.22367 0.93873 0.12522 0.0
H790 H 0.24877 0.95688 0.09495 0.0
H791 H 0.25774 0.91042 0.08548 0.0
H792 H 0.23218 0.89221 0.11529 0.0
H793 H 0.20867 0.87275 0.16632 0.0
H794 H 0.18116 0.84315 0.16366 0.0
H795 H 0.15769 0.86539 0.10761 0.0
N796 N 0.21375 0.90546 0.14421 0.0
H797 H 0.18493 0.89568 0.11227 0.0
C798 C 0.09495 0.77587 0.16998 0.0
C799 C 0.10011 0.7627 0.17701 0.0
C800 C 0.09523 0.75388 0.20154 0.0
C801 C 0.08516 0.7581 0.21955 0.0
C802 C 0.08061 0.77177 0.21272 0.0
C803 C 0.08545 0.78052 0.18817 0.0
C804 C 0.09023 0.77039 0.12278 0.0
C805 C 0.0712 0.7616 0.11839 0.0
C806 C 0.06259 0.74671 0.101 0.0
C807 C 0.07286 0.74033 0.08723 0.0
C808 C 0.09208 0.74968 0.0908 0.0
C809 C 0.10065 0.76439 0.10857 0.0
C810 C 0.11542 0.80018 0.13992 0.0
C811 C 0.13223 0.80037 0.14308 0.0
C812 C 0.14887 0.81687 0.14065 0.0
C813 C 0.14914 0.8337 0.13587 0.0
C814 C 0.13219 0.83333 0.13272 0.0
C815 C 0.11561 0.81676 0.13451 0.0
C816 C 0.22274 0.90969 0.1698 0.0
C817 C 0.23699 0.90588 0.17588 0.0
C818 C 0.24601 0.91091 0.2003 0.0
C819 C 0.24111 0.91996 0.21917 0.0
C820 C 0.22684 0.92374 0.21309 0.0
C821 C 0.21773 0.9186 0.18863 0.0
C822 C 0.22617 0.91425 0.12264 0.0
C823 C 0.23076 0.93235 0.11604 0.0
C824 C 0.24521 0.94272 0.09896 0.0
C825 C 0.25549 0.93521 0.08816 0.0
C826 C 0.25008 0.91661 0.09339 0.0
C827 C 0.23552 0.90619 0.1105 0.0
C828 C 0.19887 0.88684 0.13988 0.0
C829 C 0.19774 0.87148 0.15341 0.0
C830 C 0.18185 0.85423 0.15161 0.0
C831 C 0.16683 0.85167 0.13569 0.0
C832 C 0.16859 0.86679 0.12078 0.0
C833 C 0.1843 0.88414 0.12311 0.0
H834 H 0.3529 0.24805 0.86204 0.0
N835 N 0.3186 0.22225 0.8782 0.0
H836 H 0.36066 0.26417 0.81982 0.0
H837 H 0.29653 0.21553 0.83653 0.0
H838 H 0.30424 0.2313 0.79375 0.0
H839 H 0.30128 0.24029 0.89171 0.0
H840 H 0.31189 0.26626 0.92197 0.0
H841 H 0.34844 0.2346 0.91169 0.0
H842 H 0.35867 0.25982 0.94323 0.0
H843 H 0.34774 0.21664 0.86816 0.0
H844 H 0.29288 0.19091 0.89892 0.0
H845 H 0.34784 0.18754 0.87171 0.0
H846 H 0.29317 0.16185 0.90395 0.0
H847 H 0.3492 0.12017 0.85319 0.0
H848 H 0.35548 0.11047 0.81128 0.0
H849 H 0.29942 0.06557 0.80775 0.0
H850 H 0.29387 0.07465 0.85091 0.0
H851 H 0.29649 0.07558 0.91554 0.0
H852 H 0.30582 0.05923 0.94719 0.0
H853 H 0.3624 0.09428 0.92523 0.0
H854 H 0.35308 0.11056 0.89439 0.0
H855 H 0.34761 0.13502 0.89581 0.0
H856 H 0.34847 0.16462 0.89877 0.0
H857 H 0.291 0.13818 0.87663 0.0
N858 N 0.31766 0.10177 0.88171 0.0
H859 H 0.29016 0.10853 0.87487 0.0
C860 C 0.32404 0.23058 0.85245 0.0
C861 C 0.34223 0.24415 0.84716 0.0
C862 C 0.34667 0.25332 0.82291 0.0
C863 C 0.33305 0.24912 0.80341 0.0
C864 C 0.315 0.23509 0.80847 0.0
C865 C 0.31058 0.22595 0.83277 0.0
C866 C 0.32391 0.2354 0.89948 0.0
C867 C 0.31366 0.24433 0.90328 0.0
C868 C 0.31976 0.25917 0.92071 0.0
C869 C 0.33626 0.26534 0.93509 0.0
C870 C 0.34611 0.25577 0.93215 0.0
C871 C 0.34013 0.2411 0.91434 0.0
C872 C 0.32008 0.20588 0.88281 0.0
C873 C 0.33576 0.20479 0.87598 0.0
C874 C 0.33587 0.18809 0.87831 0.0
C875 C 0.32042 0.17216 0.88782 0.0
C876 C 0.30515 0.17363 0.8959 0.0
C877 C 0.30499 0.19027 0.89329 0.0
C878 C 0.32113 0.09784 0.85544 0.0
C879 C 0.33832 0.10817 0.84351 0.0
C880 C 0.3418 0.1027 0.81922 0.0
C881 C 0.32804 0.08704 0.80603 0.0
C882 C 0.31056 0.07736 0.81753 0.0
C883 C 0.30724 0.08263 0.84205 0.0
C884 C 0.32398 0.09441 0.90271 0.0
C885 C 0.31094 0.07996 0.91808 0.0
C886 C 0.31628 0.07051 0.9359 0.0
C887 C 0.33487 0.07537 0.9387 0.0
C888 C 0.348 0.09031 0.92392 0.0
C889 C 0.34264 0.0997 0.90613 0.0
C890 C 0.31868 0.11941 0.88538 0.0
C891 C 0.33512 0.13548 0.89202 0.0
C892 C 0.33563 0.15253 0.89346 0.0
C893 C 0.3198 0.15392 0.88799 0.0
C894 C 0.30339 0.13772 0.88156 0.0
C895 C 0.30288 0.12073 0.88037 0.0
H896 H 0.76356 0.11119 0.86402 0.0
N897 N 0.78484 0.09888 0.88809 0.0
H898 H 0.74836 0.10132 0.82062 0.0
H899 H 0.78925 0.07791 0.85323 0.0
H900 H 0.77356 0.06739 0.81061 0.0
H901 H 0.76938 0.06313 0.89797 0.0
H902 H 0.74317 0.0447 0.92546 0.0
H903 H 0.76981 0.11256 0.92338 0.0
H904 H 0.74475 0.09455 0.95326 0.0
H905 H 0.7882 0.13321 0.89088 0.0
H906 H 0.81829 0.1037 0.89542 0.0
H907 H 0.81672 0.16241 0.89572 0.0
H908 H 0.84706 0.13275 0.89841 0.0
H909 H 0.89681 0.2392 0.8608 0.0
H910 H 0.90794 0.25311 0.81754 0.0
H911 H 0.93688 0.2225 0.81048 0.0
H912 H 0.92497 0.20792 0.85337 0.0
H913 H 0.93716 0.22422 0.90891 0.0
H914 H 0.95592 0.25098 0.93693 0.0
H915 H 0.91219 0.26438 0.9368 0.0
H916 H 0.89339 0.23728 0.90901 0.0
H917 H 0.87176 0.21034 0.86828 0.0
H918 H 0.84228 0.18259 0.87213 0.0
H919 H 0.8671 0.15845 0.92228 0.0
N920 N 0.90506 0.21518 0.8866 0.0
H921 H 0.89698 0.18595 0.91649 0.0
C922 C 0.77771 0.09542 0.86154 0.0
C923 C 0.76628 0.10215 0.852 0.0
C924 C 0.75757 0.09644 0.82731 0.0
C925 C 0.75984 0.08361 0.81222 0.0
C926 C 0.77165 0.07733 0.82167 0.0
C927 C 0.78063 0.08334 0.84595 0.0
C928 C 0.77163 0.08921 0.90845 0.0
C929 C 0.76415 0.07006 0.91024 0.0
C930 C 0.74914 0.05952 0.92632 0.0
C931 C 0.74146 0.06792 0.94186 0.0
C932 C 0.74976 0.08735 0.94118 0.0
C933 C 0.76443 0.09784 0.92429 0.0
C934 C 0.80113 0.11623 0.8933 0.0
C935 C 0.80094 0.133 0.89329 0.0
C936 C 0.81738 0.14976 0.89566 0.0
C937 C 0.8344 0.15014 0.89742 0.0
C938 C 0.83436 0.1332 0.89775 0.0
C939 C 0.81791 0.1165 0.89587 0.0
C940 C 0.90971 0.22212 0.86005 0.0
C941 C 0.905 0.23495 0.8496 0.0
C942 C 0.91144 0.24298 0.82492 0.0
C943 C 0.92316 0.23876 0.81063 0.0
C944 C 0.92776 0.22587 0.82101 0.0
C945 C 0.92095 0.21752 0.84539 0.0
C946 C 0.91401 0.22886 0.90687 0.0
C947 C 0.93149 0.23269 0.91552 0.0
C948 C 0.94221 0.24805 0.93129 0.0
C949 C 0.93563 0.25994 0.93876 0.0
C950 C 0.91761 0.25544 0.93144 0.0
C951 C 0.90687 0.24002 0.91552 0.0
C952 C 0.88684 0.20012 0.89157 0.0
C953 C 0.871 0.19917 0.88008 0.0
C954 C 0.85392 0.1832 0.88261 0.0
C955 C 0.85216 0.16796 0.89721 0.0
C956 C 0.86788 0.16956 0.91017 0.0
C957 C 0.88499 0.18537 0.90717 0.0
H958 H 0.75702 0.69583 0.87967 0.0
N959 N 0.78712 0.69281 0.88892 0.0
H960 H 0.74062 0.6919 0.8386 0.0
H961 H 0.79825 0.68883 0.83879 0.0
H962 H 0.78246 0.68624 0.79738 0.0
H963 H 0.76175 0.65609 0.88948 0.0
H964 H 0.73573 0.64121 0.91922 0.0
H965 H 0.78292 0.70655 0.93382 0.0
H966 H 0.75698 0.69172 0.96399 0.0
H967 H 0.82022 0.72042 0.90072 0.0
H968 H 0.79176 0.66302 0.87904 0.0
H969 H 0.84945 0.7205 0.90046 0.0
H970 H 0.82093 0.66303 0.87766 0.0
H971 H 0.93835 0.71423 0.85121 0.0
H972 H 0.94719 0.70638 0.80968 0.0
H973 H 0.89371 0.65752 0.80385 0.0
H974 H 0.88556 0.665 0.84629 0.0
H975 H 0.89962 0.65954 0.89036 0.0
H976 H 0.91689 0.65106 0.92137 0.0
H977 H 0.95135 0.70837 0.94183 0.0
H978 H 0.93357 0.71673 0.91133 0.0
H979 H 0.89952 0.72091 0.86612 0.0
H980 H 0.87003 0.71996 0.8699 0.0
H981 H 0.84625 0.66473 0.90168 0.0
N982 N 0.90755 0.69465 0.87764 0.0
H983 H 0.87554 0.66555 0.89664 0.0
C984 C 0.77846 0.69157 0.86327 0.0
C985 C 0.7626 0.69339 0.86196 0.0
C986 C 0.75331 0.69145 0.83816 0.0
C987 C 0.76001 0.6885 0.81447 0.0
C988 C 0.77649 0.68784 0.81531 0.0
C989 C 0.78562 0.68935 0.83933 0.0
C990 C 0.77433 0.68247 0.90953 0.0
C991 C 0.76121 0.66374 0.90628 0.0
C992 C 0.74623 0.65528 0.92324 0.0
C993 C 0.74411 0.66537 0.94374 0.0
C994 C 0.75801 0.68368 0.94807 0.0
C995 C 0.77297 0.69211 0.93112 0.0
C996 C 0.80388 0.69183 0.88981 0.0
C997 C 0.82033 0.70783 0.89593 0.0
C998 C 0.83703 0.70785 0.89552 0.0
C999 C 0.83767 0.69182 0.88869 0.0
C1000 C 0.82102 0.67558 0.88329 0.0
C1001 C 0.80427 0.67554 0.88402 0.0
C1002 C 0.9113 0.69038 0.85172 0.0
C1003 C 0.92852 0.70193 0.84076 0.0
C1004 C 0.93348 0.69743 0.81689 0.0
C1005 C 0.92119 0.68129 0.80316 0.0
C1006 C 0.9037 0.6699 0.81396 0.0
C1007 C 0.89887 0.67428 0.83813 0.0
C1008 C 0.91513 0.68881 0.8989 0.0
C1009 C 0.91036 0.6702 0.90231 0.0
C1010 C 0.92031 0.66538 0.91992 0.0
C1011 C 0.93544 0.67908 0.93394 0.0
C1012 C 0.93974 0.69756 0.93124 0.0
C1013 C 0.92957 0.70233 0.91401 0.0
C1014 C 0.88993 0.69349 0.88131 0.0
C1015 C 0.88793 0.70864 0.87399 0.0
C1016 C 0.87106 0.70809 0.87637 0.0
C1017 C 0.85569 0.69231 0.88637 0.0
C1018 C 0.8577 0.67705 0.8937 0.0
C1019 C 0.8746 0.67758 0.89106 0.0
H1020 H 0.73409 0.63056 0.50439 0.0
N1021 N 0.76503 0.65089 0.47862 0.0
H1022 H 0.72487 0.63755 0.54626 0.0
H1023 H 0.78718 0.67914 0.5119 0.0
H1024 H 0.77856 0.68583 0.55465 0.0
H1025 H 0.77561 0.68709 0.46896 0.0
H1026 H 0.76107 0.69873 0.43866 0.0
H1027 H 0.73756 0.63143 0.44517 0.0
H1028 H 0.7214 0.64267 0.41684 0.0
H1029 H 0.77294 0.62463 0.49098 0.0
H1030 H 0.797 0.67915 0.4572 0.0
H1031 H 0.80196 0.62481 0.48582 0.0
H1032 H 0.82556 0.67906 0.4507 0.0
H1033 H 0.90444 0.68208 0.49375 0.0
H1034 H 0.91948 0.68569 0.53662 0.0
H1035 H 0.8969 0.62668 0.54139 0.0
H1036 H 0.88135 0.62314 0.49878 0.0
H1037 H 0.90616 0.68357 0.44546 0.0
H1038 H 0.9327 0.69126 0.41754 0.0
H1039 H 0.91728 0.63363 0.41434 0.0
H1040 H 0.89092 0.62616 0.44237 0.0
H1041 H 0.85052 0.62225 0.45564 0.0
H1042 H 0.82159 0.62278 0.45542 0.0
H1043 H 0.85142 0.68123 0.47242 0.0
N1044 N 0.88376 0.64972 0.46711 0.0
H1045 H 0.88019 0.68064 0.47085 0.0
C1046 C 0.76129 0.6542 0.50513 0.0
C1047 C 0.74392 0.64249 0.51553 0.0
C1048 C 0.73873 0.64651 0.53958 0.0
C1049 C 0.75092 0.66232 0.55403 0.0
C1050 C 0.76865 0.67372 0.54394 0.0
C1051 C 0.77373 0.66981 0.51962 0.0
C1052 C 0.75806 0.65835 0.45866 0.0
C1053 C 0.76431 0.67736 0.45676 0.0
C1054 C 0.75556 0.68397 0.43984 0.0
C1055 C 0.73974 0.67172 0.42532 0.0
C1056 C 0.73367 0.65269 0.42713 0.0
C1057 C 0.74286 0.64615 0.44341 0.0
C1058 C 0.78249 0.65169 0.47442 0.0
C1059 C 0.7844 0.63654 0.48216 0.0
C1060 C 0.801 0.63663 0.47893 0.0
C1061 C 0.8162 0.65189 0.46755 0.0
C1062 C 0.81429 0.66712 0.45978 0.0
C1063 C 0.79771 0.66711 0.46335 0.0
C1064 C 0.89145 0.65224 0.49331 0.0
C1065 C 0.90222 0.66987 0.50433 0.0
C1066 C 0.91089 0.67193 0.52884 0.0
C1067 C 0.90927 0.65645 0.54246 0.0
C1068 C 0.89834 0.63885 0.53145 0.0
C1069 C 0.88943 0.63678 0.5072 0.0
C1070 C 0.89657 0.65425 0.44596 0.0
C1071 C 0.90819 0.67257 0.43812 0.0
C1072 C 0.92337 0.67693 0.42215 0.0
C1073 C 0.92721 0.66306 0.41405 0.0
C1074 C 0.91483 0.64464 0.42056 0.0
C1075 C 0.89967 0.64032 0.43631 0.0
C1076 C 0.86748 0.65128 0.46351 0.0
C1077 C 0.85077 0.63521 0.45875 0.0
C1078 C 0.83423 0.63554 0.45903 0.0
C1079 C 0.834 0.65198 0.46448 0.0
C1080 C 0.85094 0.6683 0.46805 0.0
C1081 C 0.86751 0.66797 0.46738 0.0
H1082 H 0.32503 0.09727 0.49623 0.0
N1083 N 0.35748 0.11964 0.47154 0.0
H1084 H 0.3214 0.08243 0.53916 0.0
H1085 H 0.38386 0.12414 0.50536 0.0
H1086 H 0.3803 0.1087 0.54797 0.0
H1087 H 0.32399 0.09868 0.44787 0.0
H1088 H 0.3155 0.07181 0.41948 0.0
H1089 H 0.38014 0.11031 0.44924 0.0
H1090 H 0.37192 0.08375 0.42064 0.0
H1091 H 0.38292 0.15115 0.45112 0.0
H1092 H 0.32798 0.12458 0.48154 0.0
H1093 H 0.38244 0.18013 0.44722 0.0
H1094 H 0.32775 0.15365 0.47955 0.0
H1095 H 0.3846 0.27016 0.49453 0.0
H1096 H 0.38266 0.28268 0.53703 0.0
H1097 H 0.32824 0.23608 0.54753 0.0
H1098 H 0.33096 0.22319 0.50584 0.0
H1099 H 0.32261 0.23133 0.46558 0.0
H1100 H 0.31026 0.24585 0.43631 0.0
H1101 H 0.36371 0.27836 0.40155 0.0
H1102 H 0.37611 0.26379 0.43147 0.0
H1103 H 0.38601 0.23311 0.4768 0.0
H1104 H 0.38486 0.20335 0.47481 0.0
H1105 H 0.32698 0.17719 0.45512 0.0
N1106 N 0.35877 0.24029 0.47042 0.0
H1107 H 0.32813 0.20687 0.45871 0.0
C1108 C 0.3548 0.1122 0.49786 0.0
C1109 C 0.33718 0.10039 0.50774 0.0
C1110 C 0.33511 0.0918 0.53225 0.0
C1111 C 0.35058 0.09449 0.54696 0.0
C1112 C 0.36816 0.10644 0.53713 0.0
C1113 C 0.37021 0.11531 0.5129 0.0
C1114 C 0.35271 0.10639 0.45068 0.0
C1115 C 0.33455 0.09572 0.44148 0.0
C1116 C 0.32975 0.08041 0.42522 0.0
C1117 C 0.34301 0.07554 0.41813 0.0
C1118 C 0.36135 0.08698 0.42609 0.0
C1119 C 0.36611 0.10224 0.44219 0.0
C1120 C 0.35571 0.13578 0.46703 0.0
C1121 C 0.37074 0.1516 0.45693 0.0
C1122 C 0.37049 0.16821 0.45504 0.0
C1123 C 0.35521 0.16948 0.46365 0.0
C1124 C 0.33976 0.15331 0.47264 0.0
C1125 C 0.33993 0.13659 0.47408 0.0
C1126 C 0.35789 0.24595 0.4969 0.0
C1127 C 0.37244 0.26254 0.50634 0.0
C1128 C 0.37117 0.26974 0.53051 0.0
C1129 C 0.35513 0.26062 0.54563 0.0
C1130 C 0.34085 0.2435 0.53661 0.0
C1131 C 0.34228 0.23616 0.51257 0.0
C1132 C 0.35036 0.24636 0.4506 0.0
C1133 C 0.33165 0.24123 0.45134 0.0
C1134 C 0.32457 0.2496 0.4345 0.0
C1135 C 0.33601 0.26335 0.41663 0.0
C1136 C 0.35457 0.26799 0.4153 0.0
C1137 C 0.36164 0.25955 0.43213 0.0
C1138 C 0.35732 0.22239 0.46765 0.0
C1139 C 0.37311 0.22093 0.47194 0.0
C1140 C 0.37241 0.20387 0.47054 0.0
C1141 C 0.35585 0.18773 0.46448 0.0
C1142 C 0.33996 0.18922 0.46007 0.0
C1143 C 0.34064 0.20633 0.46187 0.0
H1144 H 0.77516 0.09306 0.497 0.0
N1145 N 0.76685 0.11808 0.47418 0.0
H1146 H 0.76501 0.07823 0.53956 0.0
H1147 H 0.74806 0.12484 0.51025 0.0
H1148 H 0.7381 0.11023 0.55365 0.0
H1149 H 0.73521 0.10699 0.4488 0.0
H1150 H 0.72042 0.08193 0.41681 0.0
H1151 H 0.78243 0.09929 0.45198 0.0
H1152 H 0.76734 0.07333 0.4216 0.0
H1153 H 0.80056 0.12337 0.49122 0.0
H1154 H 0.77383 0.14862 0.44842 0.0
H1155 H 0.82975 0.15178 0.48821 0.0
H1156 H 0.80328 0.17684 0.4437 0.0
H1157 H 0.90892 0.2245 0.49372 0.0
H1158 H 0.92492 0.23302 0.53628 0.0
H1159 H 0.8974 0.26385 0.55481 0.0
H1160 H 0.88201 0.25576 0.51161 0.0
H1161 H 0.89265 0.26834 0.45309 0.0
H1162 H 0.91736 0.28802 0.42305 0.0
H1163 H 0.93272 0.24571 0.41698 0.0
H1164 H 0.90787 0.2261 0.44662 0.0
H1165 H 0.88306 0.2023 0.46708 0.0
H1166 H 0.85456 0.17295 0.46319 0.0
H1167 H 0.82362 0.20179 0.46919 0.0
N1168 N 0.88611 0.23636 0.47359 0.0
H1169 H 0.85226 0.23104 0.47147 0.0
C1170 C 0.76239 0.11017 0.50032 0.0
C1171 C 0.76722 0.09707 0.50916 0.0
C1172 C 0.76145 0.08861 0.53372 0.0
C1173 C 0.75073 0.09303 0.55011 0.0
C1174 C 0.74616 0.10635 0.54142 0.0
C1175 C 0.75196 0.11483 0.51677 0.0
C1176 C 0.75975 0.10485 0.45298 0.0
C1177 C 0.74239 0.09988 0.44244 0.0
C1178 C 0.73388 0.08537 0.42443 0.0
C1179 C 0.74244 0.07523 0.41688 0.0
C1180 C 0.76028 0.0808 0.42668 0.0
C1181 C 0.76892 0.09558 0.44433 0.0
C1182 C 0.78479 0.13397 0.47057 0.0
C1183 C 0.80094 0.13494 0.4809 0.0
C1184 C 0.8178 0.15125 0.47886 0.0
C1185 C 0.819 0.16686 0.46599 0.0
C1186 C 0.80293 0.1654 0.45443 0.0
C1187 C 0.78607 0.1492 0.45687 0.0
C1188 C 0.89436 0.23964 0.49949 0.0
C1189 C 0.90626 0.23299 0.50698 0.0
C1190 C 0.91533 0.23781 0.53146 0.0
C1191 C 0.91257 0.24925 0.549 0.0
C1192 C 0.90015 0.25533 0.54166 0.0
C1193 C 0.89121 0.2506 0.51713 0.0
C1194 C 0.89836 0.24578 0.45214 0.0
C1195 C 0.90105 0.26315 0.44467 0.0
C1196 C 0.91528 0.27442 0.42772 0.0
C1197 C 0.92716 0.26853 0.41786 0.0
C1198 C 0.92374 0.25063 0.42407 0.0
C1199 C 0.9095 0.23937 0.44113 0.0
C1200 C 0.86976 0.21893 0.4691 0.0
C1201 C 0.87017 0.20234 0.46684 0.0
C1202 C 0.85376 0.18548 0.46501 0.0
C1203 C 0.83661 0.18483 0.46586 0.0
C1204 C 0.83642 0.20159 0.46784 0.0
C1205 C 0.85279 0.21838 0.4693 0.0
H1206 H 0.01485 0.56662 0.18291 0.0
N1207 N 0.98404 0.55486 0.21274 0.0
H1208 H 0.02078 0.58241 0.1407 0.0
H1209 H 0.96043 0.55988 0.18317 0.0
H1210 H 0.96556 0.57432 0.13967 0.0
H1211 H 0.96418 0.56032 0.24835 0.0
H1212 H 0.97483 0.58561 0.28036 0.0
H1213 H 0.01996 0.58061 0.22362 0.0
H1214 H 0.03057 0.6058 0.25485 0.0
H1215 H 0.01371 0.55041 0.22609 0.0
H1216 H 0.95613 0.5212 0.20573 0.0
H1217 H 0.01402 0.52136 0.22838 0.0
H1218 H 0.95641 0.49207 0.20686 0.0
H1219 H 0.01673 0.44334 0.18883 0.0
H1220 H 0.02257 0.43385 0.14661 0.0
H1221 H 0.96452 0.40622 0.12816 0.0
H1222 H 0.9587 0.41559 0.17118 0.0
H1223 H 0.96266 0.40212 0.23282 0.0
H1224 H 0.97259 0.38697 0.26535 0.0
H1225 H 0.02718 0.43445 0.26491 0.0
H1226 H 0.01666 0.44984 0.23397 0.0
H1227 H 0.01221 0.4685 0.19763 0.0
H1228 H 0.01274 0.49787 0.20087 0.0
H1229 H 0.95833 0.47007 0.23404 0.0
N1230 N 0.98305 0.43425 0.20914 0.0
H1231 H 0.95762 0.44054 0.22942 0.0
C1232 C 0.98728 0.56241 0.18644 0.0
C1233 C 0.00409 0.5684 0.17374 0.0
C1234 C 0.00735 0.57723 0.14927 0.0
C1235 C 0.99371 0.57986 0.1366 0.0
C1236 C 0.9766 0.57305 0.14897 0.0
C1237 C 0.97353 0.56459 0.1737 0.0
C1238 C 0.99116 0.56836 0.23367 0.0
C1239 C 0.97873 0.57002 0.25014 0.0
C1240 C 0.98482 0.58458 0.26818 0.0
C1241 C 0.00356 0.5978 0.27012 0.0
C1242 C 0.01608 0.59575 0.2542 0.0
C1243 C 0.00997 0.58124 0.23617 0.0
C1244 C 0.98475 0.538 0.21601 0.0
C1245 C 1.00107 0.53778 0.22228 0.0
C1246 C 1.00127 0.52107 0.22333 0.0
C1247 C 0.98524 0.50424 0.21784 0.0
C1248 C 0.96896 0.50461 0.21176 0.0
C1249 C 0.96876 0.52127 0.21095 0.0
C1250 C 0.98717 0.43021 0.18327 0.0
C1251 C 0.00521 0.43544 0.17576 0.0
C1252 C 0.00857 0.43003 0.1514 0.0
C1253 C 0.99402 0.41927 0.13393 0.0
C1254 C 0.97602 0.41433 0.14126 0.0
C1255 C 0.97267 0.41978 0.16569 0.0
C1256 C 0.98889 0.42696 0.23076 0.0
C1257 C 0.97665 0.40934 0.24026 0.0
C1258 C 0.98246 0.40063 0.25859 0.0
C1259 C 1.00083 0.40927 0.26752 0.0
C1260 C 0.0129 0.42733 0.25876 0.0
C1261 C 0.00695 0.43616 0.24078 0.0
C1262 C 0.98465 0.45216 0.21286 0.0
C1263 C 1.00037 0.46864 0.20557 0.0
C1264 C 1.00073 0.48556 0.2077 0.0
C1265 C 0.9855 0.48644 0.21747 0.0
C1266 C 0.97015 0.46997 0.22582 0.0
C1267 C 0.96975 0.45307 0.22342 0.0
H1268 H 0.60977 0.57073 0.21305 0.0
N1269 N 0.57482 0.54916 0.22574 0.0
H1270 H 0.62207 0.58635 0.17203 0.0
H1271 H 0.55528 0.54349 0.17881 0.0
H1272 H 0.56772 0.55695 0.1364 0.0
H1273 H 0.56914 0.57865 0.22156 0.0
H1274 H 0.58488 0.60689 0.24798 0.0
H1275 H 0.5915 0.55267 0.27225 0.0
H1276 H 0.60686 0.58077 0.29926 0.0
H1277 H 0.5674 0.51448 0.22184 0.0
H1278 H 0.54158 0.54763 0.23301 0.0
H1279 H 0.5375 0.48659 0.22281 0.0
H1280 H 0.51164 0.51979 0.23571 0.0
H1281 H 0.45793 0.41011 0.18952 0.0
H1282 H 0.44207 0.39791 0.14724 0.0
H1283 H 0.41605 0.43136 0.15367 0.0
H1284 H 0.43139 0.44296 0.19626 0.0
H1285 H 0.4325 0.44512 0.24451 0.0
H1286 H 0.40596 0.42697 0.27294 0.0
H1287 H 0.41922 0.38299 0.27458 0.0
H1288 H 0.44539 0.40108 0.24591 0.0
H1289 H 0.48454 0.43785 0.24523 0.0
H1290 H 0.51354 0.46668 0.24942 0.0
H1291 H 0.48863 0.49567 0.2112 0.0
N1292 N 0.45373 0.43255 0.22209 0.0
H1293 H 0.45948 0.46704 0.20895 0.0
C1294 C 0.5816 0.55601 0.19948 0.0
C1295 C 0.60051 0.56769 0.19635 0.0
C1296 C 0.60758 0.5765 0.1724 0.0
C1297 C 0.59609 0.57316 0.15009 0.0
C1298 C 0.57717 0.56057 0.15292 0.0
C1299 C 0.56995 0.55245 0.17737 0.0
C1300 C 0.57934 0.56362 0.24485 0.0
C1301 C 0.57684 0.57878 0.23898 0.0
C1302 C 0.5859 0.59491 0.25396 0.0
C1303 C 0.59719 0.59598 0.27541 0.0
C1304 C 0.59818 0.58023 0.28284 0.0
C1305 C 0.58939 0.56419 0.26753 0.0
C1306 C 0.55683 0.53309 0.22771 0.0
C1307 C 0.55525 0.51567 0.22499 0.0
C1308 C 0.5381 0.49973 0.2258 0.0
C1309 C 0.522 0.50078 0.2297 0.0
C1310 C 0.52363 0.51835 0.23246 0.0
C1311 C 0.54083 0.53435 0.23123 0.0
C1312 C 0.44616 0.42768 0.19579 0.0
C1313 C 0.44908 0.41505 0.18151 0.0
C1314 C 0.43996 0.40804 0.15748 0.0
C1315 C 0.42793 0.41378 0.1471 0.0
C1316 C 0.42546 0.42691 0.16101 0.0
C1317 C 0.43432 0.43364 0.18532 0.0
C1318 C 0.44077 0.4243 0.24305 0.0
C1319 C 0.42988 0.43176 0.25153 0.0
C1320 C 0.41478 0.42139 0.26782 0.0
C1321 C 0.41036 0.40344 0.27567 0.0
C1322 C 0.42209 0.39664 0.26853 0.0
C1323 C 0.43712 0.40699 0.25239 0.0
C1324 C 0.46993 0.45015 0.22639 0.0
C1325 C 0.48533 0.45052 0.23816 0.0
C1326 C 0.50196 0.46702 0.24022 0.0
C1327 C 0.50369 0.48359 0.23009 0.0
C1328 C 0.48793 0.4833 0.21933 0.0
C1329 C 0.47118 0.46679 0.21774 0.0
H1330 H 0.56379 0.98814 0.19331 0.0
N1331 N 0.57017 0.02176 0.21108 0.0
H1332 H 0.57257 0.9816 0.15081 0.0
H1333 H 0.58471 0.04488 0.17062 0.0
H1334 H 0.59324 0.03836 0.12747 0.0
H1335 H 0.60375 0.04541 0.22799 0.0
H1336 H 0.6234 0.0391 0.25746 0.0
H1337 H 0.55901 0.99043 0.24051 0.0
H1338 H 0.57871 0.98375 0.26958 0.0
H1339 H 0.53707 0.99442 0.19056 0.0
H1340 H 0.5612 0.04033 0.24467 0.0
H1341 H 0.50733 0.99194 0.1962 0.0
H1342 H 0.53097 0.03696 0.25217 0.0
H1343 H 0.42757 0.98311 0.19359 0.0
H1344 H 0.41225 0.9801 0.1509 0.0
H1345 H 0.43573 0.03928 0.14748 0.0
H1346 H 0.45133 0.04213 0.18979 0.0
H1347 H 0.43373 0.03447 0.24059 0.0
H1348 H 0.40683 0.02348 0.26832 0.0
H1349 H 0.4049 0.97078 0.27575 0.0
H1350 H 0.4309 0.98154 0.24643 0.0
H1351 H 0.45262 0.98466 0.21739 0.0
H1352 H 0.48152 0.98442 0.22011 0.0
H1353 H 0.51029 0.04356 0.23162 0.0
N1354 N 0.44803 0.01506 0.22101 0.0
H1355 H 0.48104 0.04326 0.23098 0.0
C1356 C 0.57362 0.01708 0.18517 0.0
C1357 C 0.57012 0.99917 0.17907 0.0
C1358 C 0.57504 0.99542 0.15461 0.0
C1359 C 0.58363 0.00946 0.1357 0.0
C1360 C 0.58683 0.02728 0.14169 0.0
C1361 C 0.58184 0.03101 0.16619 0.0
C1362 C 0.58004 0.01841 0.23196 0.0
C1363 C 0.59811 0.03208 0.23754 0.0
C1364 C 0.60933 0.02837 0.25417 0.0
C1365 C 0.60271 0.01082 0.26554 0.0
C1366 C 0.58421 0.99743 0.26122 0.0
C1367 C 0.57295 1.00119 0.24454 0.0
C1368 C 0.55171 0.01793 0.21682 0.0
C1369 C 0.53605 0.00382 0.20409 0.0
C1370 C 0.51877 0.00225 0.20761 0.0
C1371 C 0.51655 0.0144 0.22442 0.0
C1372 C 0.53207 0.02768 0.23842 0.0
C1373 C 0.5494 0.02951 0.23443 0.0
C1374 C 0.44078 0.01292 0.1946 0.0
C1375 C 0.42987 0.99544 0.18323 0.0
C1376 C 0.42108 0.99375 0.15888 0.0
C1377 C 0.4228 0.00947 0.14581 0.0
C1378 C 0.43413 0.02693 0.15702 0.0
C1379 C 0.4431 0.0286 0.18109 0.0
C1380 C 0.43452 0.009 0.24153 0.0
C1381 C 0.42766 0.02065 0.24865 0.0
C1382 C 0.41225 0.0143 0.26464 0.0
C1383 C 0.40342 0.99611 0.27433 0.0
C1384 C 0.41095 0.98472 0.26823 0.0
C1385 C 0.42615 0.99099 0.25171 0.0
C1386 C 0.4646 0.014 0.22459 0.0
C1387 C 0.46504 0.99748 0.22138 0.0
C1388 C 0.48175 0.99744 0.22247 0.0
C1389 C 0.49848 0.01399 0.22601 0.0
C1390 C 0.49784 0.03043 0.22949 0.0
C1391 C 0.48111 0.03036 0.22895 0.0
H1392 H 0.39608 0.95872 0.83603 0.0
N1393 N 0.4289 0.97847 0.81462 0.0
H1394 H 0.38527 0.96457 0.87748 0.0
H1395 H 0.45054 0.00334 0.85313 0.0
H1396 H 0.44019 0.00859 0.89488 0.0
H1397 H 0.43838 0.01485 0.81117 0.0
H1398 H 0.42467 0.028 0.78146 0.0
H1399 H 0.40615 0.96174 0.77436 0.0
H1400 H 0.39252 0.97485 0.74408 0.0
H1401 H 0.43339 0.94955 0.80677 0.0
H1402 H 0.46344 0.00879 0.81169 0.0
H1403 H 0.46187 0.9491 0.79945 0.0
H1404 H 0.49218 0.00856 0.80721 0.0
H1405 H 0.5716 0.96573 0.81116 0.0
H1406 H 0.58943 0.97144 0.85111 0.0
H1407 H 0.55981 0.99655 0.88552 0.0
H1408 H 0.54423 0.9933 0.84385 0.0
H1409 H 0.57472 0.01328 0.79782 0.0
H1410 H 0.60223 0.02599 0.77047 0.0
H1411 H 0.57863 0.9755 0.72558 0.0
H1412 H 0.55134 0.96259 0.75359 0.0
H1413 H 0.51579 0.9508 0.81541 0.0
H1414 H 0.48721 0.95145 0.8191 0.0
H1415 H 0.51277 0.00537 0.78239 0.0
N1416 N 0.54791 0.97716 0.79841 0.0
H1417 H 0.5417 0.00519 0.78117 0.0
C1418 C 0.42409 0.98043 0.84124 0.0
C1419 C 0.40582 0.96942 0.84906 0.0
C1420 C 0.39968 0.97278 0.87283 0.0
C1421 C 0.41179 0.98721 0.88953 0.0
C1422 C 0.43034 0.99764 0.88228 0.0
C1423 C 0.43639 0.99445 0.85833 0.0
C1424 C 0.42329 0.98727 0.79487 0.0
C1425 C 0.42871 0.00612 0.79621 0.0
C1426 C 0.42081 0.01362 0.77919 0.0
C1427 C 0.40735 0.00244 0.76051 0.0
C1428 C 0.40259 0.98377 0.75852 0.0
C1429 C 0.4105 0.9763 0.77556 0.0
C1430 C 0.44623 0.97907 0.81048 0.0
C1431 C 0.44623 0.96245 0.80675 0.0
C1432 C 0.46265 0.96227 0.80284 0.0
C1433 C 0.47966 0.97878 0.80322 0.0
C1434 C 0.47953 0.99552 0.80649 0.0
C1435 C 0.463 0.99568 0.80958 0.0
C1436 C 0.5565 0.97897 0.82413 0.0
C1437 C 0.56904 0.97254 0.82736 0.0
C1438 C 0.57913 0.97567 0.85072 0.0
C1439 C 0.57632 0.9845 0.8724 0.0
C1440 C 0.56307 0.99024 0.86946 0.0
C1441 C 0.55369 0.98799 0.84549 0.0
C1442 C 0.56104 0.98687 0.77786 0.0
C1443 C 0.57517 0.00519 0.78149 0.0
C1444 C 0.59089 0.0124 0.76598 0.0
C1445 C 0.59254 1.00161 0.74616 0.0
C1446 C 0.57762 0.98408 0.74069 0.0
C1447 C 0.56202 0.97674 0.75656 0.0
C1448 C 0.5309 0.97775 0.79782 0.0
C1449 C 0.51514 0.96271 0.80807 0.0
C1450 C 0.4987 0.96309 0.80992 0.0
C1451 C 0.49735 0.97841 0.80085 0.0
C1452 C 0.51315 0.99342 0.79007 0.0
C1453 C 0.5298 0.99323 0.78896 0.0
H1454 H 0.9919 0.55328 0.83686 0.0
N1455 N 0.02064 0.57044 0.80292 0.0
H1456 H 0.98843 0.56594 0.87836 0.0
H1457 H 0.04634 0.59953 0.82852 0.0
H1458 H 0.04359 0.61182 0.87072 0.0
H1459 H 0.03941 0.59522 0.766 0.0
H1460 H 0.02811 0.61088 0.7362 0.0
H1461 H 0.98472 0.5617 0.79581 0.0
H1462 H 0.97345 0.57726 0.76665 0.0
H1463 H 0.99012 0.53717 0.79041 0.0
H1464 H 0.04798 0.56334 0.8085 0.0
H1465 H 0.98918 0.50768 0.78501 0.0
H1466 H 0.04706 0.53376 0.8047 0.0
H1467 H 0.98904 0.42798 0.82386 0.0
H1468 H 0.98622 0.41386 0.86719 0.0
H1469 H 0.04526 0.44193 0.87513 0.0
H1470 H 0.04798 0.4566 0.83203 0.0
H1471 H 0.04436 0.4424 0.77632 0.0
H1472 H 0.03689 0.41557 0.74871 0.0
H1473 H 0.97984 0.4015 0.74789 0.0
H1474 H 0.98757 0.42862 0.77537 0.0
H1475 H 0.99092 0.45476 0.80838 0.0
H1476 H 0.99016 0.48359 0.8077 0.0
H1477 H 0.04492 0.51141 0.77559 0.0
N1478 N 0.021 0.4508 0.79851 0.0
H1479 H 0.04594 0.48265 0.77825 0.0
C1480 C 0.01931 0.57569 0.82945 0.0
C1481 C 0.00323 0.56601 0.84424 0.0
C1482 C 1.00136 0.57323 0.86814 0.0
C1483 C 0.01563 0.59011 0.87787 0.0
C1484 C 0.03211 0.59907 0.86366 0.0
C1485 C 0.03384 0.59198 0.83967 0.0
C1486 C 0.01297 0.57715 0.78292 0.0
C1487 C 0.02492 0.59098 0.7657 0.0
C1488 C 0.01848 0.60004 0.74896 0.0
C1489 C 0.99989 0.59539 0.74912 0.0
C1490 C 0.98781 0.58104 0.76573 0.0
C1491 C 0.99426 0.57205 0.78248 0.0
C1492 C 0.01927 0.55263 0.79949 0.0
C1493 C 1.00266 0.53665 0.7932 0.0
C1494 C 1.00211 0.51965 0.79035 0.0
C1495 C 0.01808 0.5182 0.79415 0.0
C1496 C 0.03456 0.53426 0.80082 0.0
C1497 C 0.03512 0.55121 0.80329 0.0
C1498 C 0.01879 0.44368 0.82496 0.0
C1499 C 1.00137 0.43161 0.83523 0.0
C1500 C 0.99977 0.42346 0.85997 0.0
C1501 C 0.01553 0.42688 0.87454 0.0
C1502 C 0.0329 0.43911 0.86435 0.0
C1503 C 0.03448 0.44753 0.83986 0.0
C1504 C 0.01657 0.43745 0.77787 0.0
C1505 C 0.03034 0.43381 0.76952 0.0
C1506 C 0.02601 0.41839 0.754 0.0
C1507 C 0.00774 0.40627 0.74646 0.0
C1508 C 0.99405 0.41062 0.75334 0.0
C1509 C 0.99843 0.42608 0.76904 0.0
C1510 C 0.01872 0.46665 0.79392 0.0
C1511 C 0.00275 0.46701 0.80118 0.0
C1512 C 1.00228 0.4836 0.80051 0.0
C1513 C 0.01763 0.50007 0.7921 0.0
C1514 C 0.03305 0.49923 0.78304 0.0
C1515 C 0.0336 0.48275 0.78417 0.0
H1516 H 0.44506 0.42856 0.83572 0.0
N1517 N 0.43607 0.4532 0.81328 0.0
H1518 H 0.43495 0.41328 0.87801 0.0
H1519 H 0.41688 0.45922 0.84953 0.0
H1520 H 0.4069 0.44411 0.89264 0.0
H1521 H 0.4043 0.44187 0.78816 0.0
H1522 H 0.38972 0.41707 0.75574 0.0
H1523 H 0.45191 0.43482 0.79056 0.0
H1524 H 0.43707 0.40915 0.75966 0.0
H1525 H 0.47005 0.45878 0.8294 0.0
H1526 H 0.4425 0.48378 0.78816 0.0
H1527 H 0.49914 0.48725 0.82565 0.0
H1528 H 0.4718 0.51209 0.78277 0.0
H1529 H 0.57755 0.55925 0.82967 0.0
H1530 H 0.59353 0.56744 0.87225 0.0
H1531 H 0.56729 0.59952 0.89066 0.0
H1532 H 0.55193 0.59174 0.84743 0.0
H1533 H 0.56113 0.60326 0.78832 0.0
H1534 H 0.58544 0.62279 0.75763 0.0
H1535 H 0.60161 0.58104 0.75258 0.0
H1536 H 0.57716 0.56158 0.78285 0.0
H1537 H 0.55196 0.53761 0.80226 0.0
H1538 H 0.52338 0.50826 0.79942 0.0
H1539 H 0.49266 0.53715 0.80781 0.0
N1540 N 0.5552 0.57169 0.8096 0.0
H1541 H 0.52135 0.5664 0.80912 0.0
C1542 C 0.43177 0.44518 0.83936 0.0
C1543 C 0.43692 0.43226 0.84798 0.0
C1544 C 0.43116 0.42353 0.87238 0.0
C1545 C 0.42011 0.42746 0.88881 0.0
C1546 C 0.41523 0.44062 0.88037 0.0
C1547 C 0.42104 0.44938 0.8559 0.0
C1548 C 0.42903 0.44004 0.79197 0.0
C1549 C 0.41161 0.43497 0.78154 0.0
C1550 C 0.40323 0.42061 0.76327 0.0
C1551 C 0.412 0.41075 0.75531 0.0
C1552 C 0.42986 0.41641 0.76506 0.0
C1553 C 0.43836 0.43102 0.783 0.0
C1554 C 0.45389 0.46924 0.80957 0.0
C1555 C 0.47022 0.47031 0.81931 0.0
C1556 C 0.48701 0.48666 0.81684 0.0
C1557 C 0.48794 0.50221 0.80415 0.0
C1558 C 0.47166 0.50068 0.79331 0.0
C1559 C 0.45488 0.48445 0.79615 0.0
C1560 C 0.56364 0.57503 0.83537 0.0
C1561 C 0.5752 0.56798 0.84288 0.0
C1562 C 0.58424 0.5726 0.86739 0.0
C1563 C 0.5818 0.58425 0.88493 0.0
C1564 C 0.56978 0.59082 0.87752 0.0
C1565 C 0.56086 0.58628 0.85296 0.0
C1566 C 0.56726 0.58099 0.78791 0.0
C1567 C 0.56963 0.59816 0.78 0.0
C1568 C 0.58363 0.60935 0.76268 0.0
C1569 C 0.59562 0.60357 0.75288 0.0
C1570 C 0.59255 0.58586 0.75959 0.0
C1571 C 0.57853 0.57468 0.77702 0.0
C1572 C 0.53876 0.55428 0.80545 0.0
C1573 C 0.53909 0.53767 0.80278 0.0
C1574 C 0.52265 0.52081 0.80155 0.0
C1575 C 0.50555 0.52017 0.8034 0.0
C1576 C 0.50541 0.53695 0.80572 0.0
C1577 C 0.52181 0.55374 0.80661 0.0
H1578 H 0.68376 0.90386 0.51998 0.0
N1579 N 0.65186 0.89102 0.54761 0.0
H1580 H 0.6905 0.91965 0.47769 0.0
H1581 H 0.62852 0.89486 0.51579 0.0
H1582 H 0.63452 0.90921 0.4722 0.0
H1583 H 0.63077 0.8968 0.58053 0.0
H1584 H 0.64037 0.92209 0.61232 0.0
H1585 H 0.6874 0.91631 0.56129 0.0
H1586 H 0.697 0.94151 0.59223 0.0
H1587 H 0.68125 0.88629 0.56151 0.0
H1588 H 0.62363 0.85745 0.54143 0.0
H1589 H 0.68119 0.85706 0.56457 0.0
H1590 H 0.62352 0.82813 0.54334 0.0
H1591 H 0.68275 0.77859 0.52505 0.0
H1592 H 0.68833 0.76908 0.48268 0.0
H1593 H 0.63021 0.74164 0.46478 0.0
H1594 H 0.62464 0.75111 0.50793 0.0
H1595 H 0.62903 0.73722 0.56873 0.0
H1596 H 0.63927 0.72172 0.60021 0.0
H1597 H 0.69366 0.7695 0.60034 0.0
H1598 H 0.68286 0.78519 0.57044 0.0
H1599 H 0.67866 0.80377 0.53421 0.0
H1600 H 0.67957 0.8333 0.53735 0.0
H1601 H 0.62524 0.80613 0.57081 0.0
N1602 N 0.6492 0.76967 0.54573 0.0
H1603 H 0.62414 0.7764 0.5663 0.0
C1604 C 0.6557 0.89856 0.52132 0.0
C1605 C 0.67301 0.90516 0.50984 0.0
C1606 C 0.67675 0.91398 0.48531 0.0
C1607 C 0.66314 0.91597 0.47137 0.0
C1608 C 0.64556 0.9085 0.48251 0.0
C1609 C 0.64199 0.90007 0.5073 0.0
C1610 C 0.65825 0.90444 0.56862 0.0
C1611 C 0.64526 0.90632 0.5835 0.0
C1612 C 0.65077 0.92089 0.6014 0.0
C1613 C 0.66947 0.93391 0.60479 0.0
C1614 C 0.68251 0.93162 0.59048 0.0
C1615 C 0.67698 0.91709 0.57261 0.0
C1616 C 0.65231 0.87408 0.55149 0.0
C1617 C 0.66852 0.8737 0.55795 0.0
C1618 C 0.6685 0.85688 0.55944 0.0
C1619 C 0.65235 0.84011 0.55422 0.0
C1620 C 0.63616 0.84063 0.54804 0.0
C1621 C 0.63618 0.8574 0.54678 0.0
C1622 C 0.65318 0.76563 0.51974 0.0
C1623 C 0.67116 0.77076 0.51206 0.0
C1624 C 0.67437 0.76533 0.48763 0.0
C1625 C 0.65973 0.75462 0.47028 0.0
C1626 C 0.64178 0.74975 0.47779 0.0
C1627 C 0.63858 0.75525 0.50228 0.0
C1628 C 0.65514 0.76224 0.56707 0.0
C1629 C 0.64304 0.74444 0.57612 0.0
C1630 C 0.64903 0.73552 0.59382 0.0
C1631 C 0.66743 0.74415 0.60259 0.0
C1632 C 0.67936 0.76239 0.59433 0.0
C1633 C 0.67324 0.77139 0.57696 0.0
C1634 C 0.6511 0.78769 0.5496 0.0
C1635 C 0.66692 0.80406 0.54221 0.0
C1636 C 0.6675 0.82109 0.54429 0.0
C1637 C 0.6524 0.8222 0.55409 0.0
C1638 C 0.63697 0.80585 0.56258 0.0
C1639 C 0.63635 0.78883 0.56024 0.0
H1640 H 0.27464 0.9098 0.54706 0.0
N1641 N 0.2406 0.88409 0.55987 0.0
H1642 H 0.28528 0.92628 0.50628 0.0
H1643 H 0.21998 0.87825 0.5139 0.0
H1644 H 0.23118 0.89301 0.47158 0.0
H1645 H 0.23255 0.91152 0.56928 0.0
H1646 H 0.24955 0.93754 0.59941 0.0
H1647 H 0.26342 0.88613 0.5983 0.0
H1648 H 0.28099 0.91249 0.62779 0.0
H1649 H 0.23372 0.84982 0.55249 0.0
H1650 H 0.20728 0.88148 0.57077 0.0
H1651 H 0.20413 0.82153 0.55329 0.0
H1652 H 0.17772 0.85321 0.57323 0.0
H1653 H 0.12469 0.74344 0.52333 0.0
H1654 H 0.1092 0.73129 0.48083 0.0
H1655 H 0.08413 0.7657 0.4855 0.0
H1656 H 0.09902 0.77719 0.52837 0.0
H1657 H 0.09883 0.77844 0.577 0.0
H1658 H 0.07206 0.76007 0.60488 0.0
H1659 H 0.08558 0.71628 0.60687 0.0
H1660 H 0.11208 0.73464 0.57884 0.0
H1661 H 0.15209 0.7714 0.57561 0.0
H1662 H 0.18093 0.80038 0.58005 0.0
H1663 H 0.15441 0.82971 0.54805 0.0
N1664 N 0.12057 0.76624 0.55524 0.0
H1665 H 0.12547 0.80083 0.5455 0.0
C1666 C 0.24638 0.89292 0.53426 0.0
C1667 C 0.2649 0.90621 0.53086 0.0
C1668 C 0.27112 0.91546 0.50701 0.0
C1669 C 0.25928 0.91103 0.48495 0.0
C1670 C 0.24077 0.89727 0.48802 0.0
C1671 C 0.23432 0.88854 0.51242 0.0
C1672 C 0.24655 0.89673 0.58188 0.0
C1673 C 0.24236 0.91112 0.58302 0.0
C1674 C 0.25223 0.92607 0.60003 0.0
C1675 C 0.26664 0.92702 0.61572 0.0
C1676 C 0.26996 0.91207 0.61583 0.0
C1677 C 0.25985 0.89697 0.59923 0.0
C1678 C 0.22284 0.86772 0.56192 0.0
C1679 C 0.22152 0.85059 0.55717 0.0
C1680 C 0.20455 0.8344 0.55786 0.0
C1681 C 0.18839 0.83491 0.56366 0.0
C1682 C 0.18976 0.8522 0.56849 0.0
C1683 C 0.20677 0.86845 0.5674 0.0
C1684 C 0.11336 0.76147 0.52876 0.0
C1685 C 0.11614 0.74861 0.51487 0.0
C1686 C 0.10724 0.74164 0.4907 0.0
C1687 C 0.09558 0.74766 0.47976 0.0
C1688 C 0.09328 0.76105 0.49326 0.0
C1689 C 0.1019 0.76773 0.51773 0.0
C1690 C 0.10736 0.7578 0.57587 0.0
C1691 C 0.09624 0.76508 0.58401 0.0
C1692 C 0.08098 0.75457 0.59996 0.0
C1693 C 0.07659 0.73662 0.60777 0.0
C1694 C 0.08845 0.72993 0.60086 0.0
C1695 C 0.10367 0.74045 0.5851 0.0
C1696 C 0.13671 0.78384 0.55984 0.0
C1697 C 0.15251 0.78416 0.56996 0.0
C1698 C 0.16904 0.80076 0.57216 0.0
C1699 C 0.17025 0.8175 0.56387 0.0
C1700 C 0.15412 0.81721 0.55475 0.0
C1701 C 0.13748 0.80058 0.55299 0.0
H1702 H 0.22913 0.32127 0.52709 0.0
N1703 N 0.23934 0.35547 0.54684 0.0
H1704 H 0.23805 0.31451 0.48478 0.0
H1705 H 0.25734 0.37923 0.50852 0.0
H1706 H 0.26591 0.37261 0.46559 0.0
H1707 H 0.27139 0.38059 0.56671 0.0
H1708 H 0.29149 0.37545 0.59701 0.0
H1709 H 0.22986 0.32354 0.57434 0.0
H1710 H 0.24983 0.31824 0.60423 0.0
H1711 H 0.20622 0.32366 0.55198 0.0
H1712 H 0.23219 0.38292 0.55097 0.0
H1713 H 0.17642 0.32154 0.55791 0.0
H1714 H 0.20234 0.38107 0.55498 0.0
H1715 H 0.09661 0.32066 0.52391 0.0
H1716 H 0.08205 0.31928 0.48147 0.0
H1717 H 0.10717 0.37862 0.48092 0.0
H1718 H 0.12229 0.37998 0.52336 0.0
H1719 H 0.1079 0.37123 0.58204 0.0
H1720 H 0.08189 0.35949 0.61197 0.0
H1721 H 0.07143 0.30394 0.59811 0.0
H1722 H 0.0982 0.31608 0.56957 0.0
H1723 H 0.12466 0.32437 0.53465 0.0
H1724 H 0.1538 0.32469 0.53555 0.0
H1725 H 0.17774 0.37499 0.58142 0.0
N1726 N 0.11831 0.3518 0.55292 0.0
H1727 H 0.1487 0.3752 0.57857 0.0
C1728 C 0.24264 0.35082 0.52095 0.0
C1729 C 0.23699 0.33253 0.51372 0.0
C1730 C 0.24206 0.32868 0.48938 0.0
C1731 C 0.25281 0.34303 0.47176 0.0
C1732 C 0.25791 0.36125 0.47882 0.0
C1733 C 0.25289 0.36507 0.50318 0.0
C1734 C 0.24914 0.35255 0.56822 0.0
C1735 C 0.26646 0.36707 0.5754 0.0
C1736 C 0.27795 0.36406 0.59252 0.0
C1737 C 0.27232 0.34639 0.60282 0.0
C1738 C 0.25452 0.33205 0.59682 0.0
C1739 C 0.24305 0.33508 0.57959 0.0
C1740 C 0.22154 0.35354 0.55155 0.0
C1741 C 0.20558 0.33626 0.55334 0.0
C1742 C 0.18841 0.33507 0.55632 0.0
C1743 C 0.18677 0.35113 0.55699 0.0
C1744 C 0.2029 0.36837 0.55524 0.0
C1745 C 0.22003 0.3695 0.55273 0.0
C1746 C 0.11092 0.35054 0.52667 0.0
C1747 C 0.09952 0.33345 0.51444 0.0
C1748 C 0.09111 0.33264 0.49012 0.0
C1749 C 0.09357 0.34885 0.47782 0.0
C1750 C 0.10508 0.36592 0.48992 0.0
C1751 C 0.11377 0.36673 0.51404 0.0
C1752 C 0.10485 0.34456 0.57346 0.0
C1753 C 0.10021 0.35657 0.58604 0.0
C1754 C 0.08516 0.34978 0.60283 0.0
C1755 C 0.07423 0.33069 0.60711 0.0
C1756 C 0.07951 0.31872 0.59544 0.0
C1757 C 0.09476 0.32561 0.57891 0.0
C1758 C 0.13457 0.3501 0.55599 0.0
C1759 C 0.13611 0.33553 0.5448 0.0
C1760 C 0.15289 0.33561 0.54565 0.0
C1761 C 0.1684 0.35003 0.55822 0.0
C1762 C 0.16638 0.36394 0.57082 0.0
C1763 C 0.14972 0.36401 0.5695 0.0
C1764 C 0.01754 0.41819 0.07102 0.0
C1765 C 0.00644 0.39989 0.06247 0.0
H1766 H 0.02211 0.43873 0.09976 0.0
C1767 C 0.9906 0.38827 0.07686 0.0
H1768 H 0.02973 0.42763 0.06031 0.0
C1769 C 0.9863 0.39467 0.09969 0.0
C1770 C 0.99771 0.41283 0.1086 0.0
H1771 H 0.98173 0.3741 0.07087 0.0
H1772 H 0.97434 0.3852 0.1108 0.0
C1773 C 0.01322 0.42457 0.09374 0.0
C1774 C 0.63008 0.60157 0.09632 0.0
C1775 C 0.61871 0.60312 0.07721 0.0
H1776 H 0.63206 0.58965 0.13235 0.0
C1777 C 0.59992 0.59531 0.08219 0.0
H1778 H 0.64479 0.60838 0.09361 0.0
C1779 C 0.59254 0.58557 0.10561 0.0
C1780 C 0.60377 0.58318 0.12453 0.0
H1781 H 0.59097 0.59693 0.06809 0.0
H1782 H 0.57809 0.58037 0.1089 0.0
C1783 C 0.62269 0.59122 0.11915 0.0
C1784 C 0.39976 0.99386 0.07852 0.0
C1785 C 0.39066 0.00413 0.07606 0.0
H1786 H 0.41756 0.98784 0.10237 0.0
C1787 C 0.39171 0.01566 0.09679 0.0
H1788 H 0.39875 0.98455 0.06295 0.0
C1789 C 0.40238 0.01758 0.11919 0.0
C1790 C 0.4119 0.00766 0.12155 0.0
H1791 H 0.38413 0.0231 0.09576 0.0
H1792 H 0.40289 0.02657 0.13491 0.0
C1793 C 0.41041 0.99569 0.10104 0.0
C1794 C 0.38428 0.98323 0.95107 0.0
C1795 C 0.39174 0.00181 0.95849 0.0
H1796 H 0.38507 0.96395 0.92411 0.0
C1797 C 0.4058 0.01543 0.94313 0.0
H1798 H 0.37354 0.97237 0.96259 0.0
C1799 C 0.41221 0.01066 0.92092 0.0
C1800 C 0.40495 0.99208 0.91356 0.0
H1801 H 0.41178 0.0299 0.9481 0.0
H1802 H 0.4227 0.02164 0.90927 0.0
C1803 C 0.39087 0.97841 0.92894 0.0
C1804 C 0.02163 0.3971 0.92585 0.0
C1805 C 0.0099 0.39643 0.94583 0.0
H1806 H 0.03296 0.40771 0.88788 0.0
C1807 C 0.9997 0.40552 0.94216 0.0
H1808 H 0.02897 0.38946 0.92777 0.0
C1809 C 1.00171 0.4157 0.91916 0.0
C1810 C 0.01385 0.41679 0.89943 0.0
H1811 H 0.99022 0.40477 0.95711 0.0
H1812 H 0.9938 0.42271 0.91677 0.0
C1813 C 0.02382 0.40742 0.90302 0.0
C1814 C 0.60567 0.58307 0.94877 0.0
C1815 C 0.6129 0.60124 0.95807 0.0
H1816 H 0.5899 0.56335 0.91888 0.0
C1817 C 0.60939 0.61361 0.94348 0.0
H1818 H 0.60794 0.57311 0.95959 0.0
C1819 C 0.59921 0.60806 0.91994 0.0
C1820 C 0.59214 0.58995 0.91047 0.0
H1821 H 0.61482 0.62774 0.94995 0.0
H1822 H 0.59726 0.61813 0.90886 0.0
C1823 C 0.59538 0.57749 0.92531 0.0
C1824 C 0.01874 0.62658 0.92554 0.0
C1825 C 0.00852 0.61589 0.94691 0.0
H1826 H 0.02875 0.62693 0.88698 0.0
C1827 C 0.99998 0.59663 0.94533 0.0
H1828 H 0.02488 0.64146 0.92601 0.0
C1829 C 1.00248 0.58819 0.92318 0.0
C1830 C 0.0131 0.59888 0.90184 0.0
H1831 H 0.99172 0.58814 0.96148 0.0
H1832 H 0.99626 0.57332 0.92295 0.0
C1833 C 0.02099 0.6182 0.90325 0.0
C1834 C 0.41822 0.40278 0.95291 0.0
C1835 C 0.39987 0.39584 0.96056 0.0
H1836 H 0.43904 0.41847 0.92483 0.0
C1837 C 0.38849 0.40031 0.94517 0.0
H1838 H 0.42749 0.39986 0.9644 0.0
C1839 C 0.39515 0.41095 0.92224 0.0
C1840 C 0.41335 0.4174 0.91423 0.0
H1841 H 0.3743 0.39521 0.95045 0.0
H1842 H 0.38585 0.41361 0.91035 0.0
C1843 C 0.42486 0.41343 0.93011 0.0
C1844 C 0.59922 0.00433 0.93939 0.0
C1845 C 0.60756 0.9937 0.94524 0.0
H1846 H 0.58353 0.01043 0.91194 0.0
C1847 C 0.60666 0.98096 0.92664 0.0
H1848 H 0.60038 0.01479 0.95307 0.0
C1849 C 0.5962 0.97763 0.90359 0.0
C1850 C 0.58727 0.98785 0.89759 0.0
H1851 H 0.61387 0.97333 0.93009 0.0
H1852 H 0.59507 0.96675 0.89094 0.0
C1853 C 0.5893 1.00155 0.9158 0.0
C1854 C 0.61323 0.01385 0.07686 0.0
C1855 C 0.60238 0.99699 0.06373 0.0
H1856 H 0.61591 0.03092 0.10991 0.0
C1857 C 0.58494 0.98471 0.07381 0.0
H1858 H 0.62672 0.02365 0.06971 0.0
C1859 C 0.57872 0.98894 0.09677 0.0
C1860 C 0.58975 0.00557 0.11027 0.0
H1861 H 0.57611 0.97168 0.06414 0.0
H1862 H 0.56525 0.97913 0.10401 0.0
C1863 C 0.60699 0.01808 0.09986 0.0
C1864 C 0.99372 0.61146 0.08185 0.0
C1865 C 0.00612 0.61103 0.06387 0.0
H1866 H 0.98062 0.60265 0.11912 0.0
C1867 C 0.01395 0.59982 0.06949 0.0
H1868 H 0.9876 0.6201 0.07822 0.0
C1869 C 0.00953 0.58934 0.09261 0.0
C1870 C 0.99752 0.59013 0.11108 0.0
H1871 H 0.02347 0.59909 0.05597 0.0
H1872 H 0.01558 0.58062 0.09592 0.0
C1873 C 0.98962 0.6013 0.10528 0.0
C1874 C 0.40519 0.40799 0.07985 0.0
C1875 C 0.39597 0.38875 0.07692 0.0
H1876 H 0.42294 0.43108 0.10425 0.0
C1877 C 0.39688 0.37781 0.09739 0.0
H1878 H 0.40428 0.41664 0.06453 0.0
C1879 C 0.40758 0.38598 0.1199 0.0
C1880 C 0.41715 0.40526 0.12269 0.0
H1881 H 0.38919 0.36291 0.09604 0.0
H1882 H 0.40807 0.3772 0.13539 0.0
C1883 C 0.41577 0.4162 0.10252 0.0
C1884 C 0.65624 0.72343 0.41349 0.0
C1885 C 0.67196 0.73507 0.39889 0.0
H1886 H 0.64011 0.72042 0.44756 0.0
C1887 C 0.68294 0.75346 0.40716 0.0
H1888 H 0.64746 0.7092 0.4077 0.0
C1889 C 0.67865 0.7599 0.42985 0.0
C1890 C 0.66329 0.74813 0.44492 0.0
H1891 H 0.69504 0.76292 0.39628 0.0
H1892 H 0.68748 0.77411 0.4357 0.0
C1893 C 0.65196 0.72989 0.43627 0.0
C1894 C 0.26161 0.93226 0.41686 0.0
C1895 C 0.28029 0.93993 0.4111 0.0
H1896 H 0.2403 0.91751 0.44463 0.0
C1897 C 0.29204 0.93863 0.4298 0.0
H1898 H 0.25238 0.93365 0.40303 0.0
C1899 C 0.28514 0.92873 0.45306 0.0
C1900 C 0.26636 0.92079 0.45916 0.0
H1901 H 0.30667 0.94525 0.42638 0.0
H1902 H 0.29472 0.9273 0.46603 0.0
C1903 C 0.2547 0.92282 0.44066 0.0
C1904 C 0.0626 0.35538 0.42901 0.0
C1905 C 0.06195 0.34428 0.40791 0.0
H1906 H 0.07351 0.36589 0.46747 0.0
C1907 C 0.07161 0.33453 0.40987 0.0
H1908 H 0.05458 0.36237 0.42835 0.0
C1909 C 0.08226 0.33633 0.43233 0.0
C1910 C 0.08322 0.34775 0.4533 0.0
H1911 H 0.07092 0.32555 0.39401 0.0
H1912 H 0.08969 0.32875 0.43337 0.0
C1913 C 0.07334 0.35732 0.45138 0.0
C1914 C 0.08231 0.35439 0.28226 0.0
C1915 C 0.06448 0.34241 0.29135 0.0
H1916 H 0.10278 0.35961 0.25349 0.0
C1917 C 0.05357 0.32586 0.27759 0.0
H1918 H 0.09121 0.36718 0.29247 0.0
C1919 C 0.06022 0.32158 0.25505 0.0
C1920 C 0.07795 0.3337 0.24576 0.0
H1921 H 0.03978 0.3163 0.28396 0.0
H1922 H 0.05126 0.30895 0.24453 0.0
C1923 C 0.08896 0.35008 0.25981 0.0
C1924 C 0.66609 0.7409 0.27766 0.0
C1925 C 0.67598 0.73158 0.28225 0.0
H1926 H 0.66092 0.7581 0.25115 0.0
C1927 C 0.68789 0.73183 0.26286 0.0
H1928 H 0.65648 0.74047 0.29213 0.0
C1929 C 0.6906 0.74201 0.23975 0.0
C1930 C 0.68098 0.75162 0.23525 0.0
H1931 H 0.69498 0.72401 0.26546 0.0
H1932 H 0.69991 0.74201 0.2251 0.0
C1933 C 0.6686 0.7509 0.25431 0.0
C1934 C 0.26608 0.9192 0.28174 0.0
C1935 C 0.27211 0.9369 0.29221 0.0
H1936 H 0.25139 0.89994 0.25088 0.0
C1937 C 0.26706 0.94869 0.27907 0.0
H1938 H 0.26951 0.90964 0.29139 0.0
C1939 C 0.25663 0.94307 0.25569 0.0
C1940 C 0.25108 0.92557 0.24491 0.0
H1941 H 0.27143 0.9624 0.28655 0.0
H1942 H 0.25339 0.95264 0.24564 0.0
C1943 C 0.25572 0.91363 0.25841 0.0
C1944 C 0.68766 0.95975 0.25861 0.0
C1945 C 0.6778 0.94909 0.28022 0.0
H1946 H 0.69754 0.9601 0.21997 0.0
C1947 C 0.66987 0.92986 0.27908 0.0
H1948 H 0.69334 0.97458 0.25876 0.0
C1949 C 0.6726 0.92146 0.25707 0.0
C1950 C 0.68283 0.93215 0.23545 0.0
H1951 H 0.66191 0.92139 0.29545 0.0
H1952 H 0.66685 0.90664 0.25715 0.0
C1953 C 0.69012 0.9514 0.23646 0.0
C1954 C 0.08395 0.73253 0.28258 0.0
C1955 C 0.06617 0.72684 0.29187 0.0
H1956 H 0.10399 0.74708 0.25294 0.0
C1957 C 0.05491 0.73202 0.27758 0.0
H1958 H 0.0931 0.72895 0.29316 0.0
C1959 C 0.06115 0.74233 0.25435 0.0
C1960 C 0.07884 0.7478 0.24488 0.0
H1961 H 0.04113 0.72786 0.28405 0.0
H1962 H 0.05192 0.74564 0.24348 0.0
C1963 C 0.0902 0.74288 0.25942 0.0
C1964 C 0.26393 0.33854 0.27857 0.0
C1965 C 0.27455 0.32984 0.28134 0.0
H1966 H 0.24502 0.34251 0.25418 0.0
C1967 C 0.27534 0.31938 0.2604 0.0
H1968 H 0.26347 0.347 0.29436 0.0
C1969 C 0.26507 0.31698 0.23739 0.0
C1970 C 0.25389 0.32514 0.23473 0.0
H1971 H 0.28402 0.31313 0.26177 0.0
H1972 H 0.2661 0.3089 0.22153 0.0
C1973 C 0.25351 0.33606 0.25555 0.0
C1974 C 0.25387 0.31916 0.40865 0.0
C1975 C 0.27182 0.33083 0.3997 0.0
H1976 H 0.23369 0.31401 0.43789 0.0
C1977 C 0.28329 0.3468 0.41432 0.0
H1978 H 0.24457 0.30682 0.39781 0.0
C1979 C 0.27707 0.35083 0.43749 0.0
C1980 C 0.25919 0.33906 0.44658 0.0
H1981 H 0.29721 0.35608 0.40812 0.0
H1982 H 0.28646 0.36299 0.4486 0.0
C1983 C 0.24763 0.32324 0.43174 0.0
C1984 C 0.68476 0.93631 0.40499 0.0
C1985 C 0.67616 0.94662 0.3981 0.0
H1986 H 0.68686 0.91795 0.4326 0.0
C1987 C 0.66305 0.94654 0.41518 0.0
H1988 H 0.69487 0.93601 0.3922 0.0
C1989 C 0.65886 0.93664 0.43883 0.0
C1990 C 0.66737 0.92621 0.44579 0.0
H1991 H 0.65633 0.95451 0.41059 0.0
H1992 H 0.6492 0.93755 0.45188 0.0
C1993 C 0.68026 0.92606 0.42835 0.0
C1994 C 0.07326 0.74174 0.41212 0.0
C1995 C 0.06373 0.72248 0.40955 0.0
H1996 H 0.09123 0.7649 0.43626 0.0
C1997 C 0.06436 0.71159 0.43031 0.0
H1998 H 0.07258 0.75036 0.39655 0.0
C1999 C 0.07506 0.71981 0.45281 0.0
C2000 C 0.08491 0.7391 0.45529 0.0
H2001 H 0.05643 0.69669 0.42923 0.0
H2002 H 0.07529 0.71106 0.46854 0.0
C2003 C 0.08384 0.75001 0.43478 0.0
C2004 C 0.34933 0.0865 0.74025 0.0
C2005 C 0.34094 0.06752 0.7349 0.0
H2006 H 0.35133 0.10761 0.76605 0.0
C2007 C 0.32791 0.05506 0.7526 0.0
H2008 H 0.35934 0.09647 0.72689 0.0
C2009 C 0.32368 0.06139 0.77548 0.0
C2010 C 0.33209 0.0804 0.78102 0.0
H2011 H 0.32134 0.04034 0.74918 0.0
H2012 H 0.31414 0.05127 0.78913 0.0
C2013 C 0.34481 0.09287 0.76288 0.0
C2014 C 0.95891 0.26843 0.76073 0.0
C2015 C 0.94806 0.26928 0.74003 0.0
H2016 H 0.95945 0.25758 0.79898 0.0
C2017 C 0.92892 0.26027 0.74273 0.0
H2018 H 0.97375 0.27602 0.7596 0.0
C2019 C 0.92073 0.25005 0.76551 0.0
C2020 C 0.93159 0.24879 0.78592 0.0
H2021 H 0.92034 0.26115 0.72725 0.0
H2022 H 0.90593 0.24317 0.76721 0.0
C2023 C 0.95075 0.25801 0.78328 0.0
C2024 C 0.72898 0.69197 0.76199 0.0
C2025 C 0.72904 0.68034 0.74224 0.0
H2026 H 0.73952 0.70465 0.79929 0.0
C2027 C 0.73896 0.67102 0.74633 0.0
H2028 H 0.72083 0.69874 0.75964 0.0
C2029 C 0.74926 0.67385 0.76955 0.0
C2030 C 0.74966 0.68594 0.78921 0.0
H2031 H 0.73874 0.66157 0.73157 0.0
H2032 H 0.75654 0.66623 0.77229 0.0
C2033 C 0.73944 0.69503 0.78497 0.0
C2034 C 0.72567 0.65816 0.618 0.0
C2035 C 0.73164 0.67671 0.62404 0.0
H2036 H 0.72757 0.63907 0.59202 0.0
C2037 C 0.74442 0.69049 0.60739 0.0
H2038 H 0.71602 0.64721 0.63061 0.0
C2039 C 0.7508 0.68584 0.58494 0.0
C2040 C 0.74479 0.66727 0.57873 0.0
H2041 H 0.74926 0.70493 0.61139 0.0
H2042 H 0.76011 0.69685 0.57215 0.0
C2043 C 0.73227 0.65351 0.59576 0.0
C2044 C 0.35558 0.06386 0.59805 0.0
C2045 C 0.34384 0.06331 0.61793 0.0
H2046 H 0.36725 0.07454 0.56026 0.0
C2047 C 0.33387 0.07264 0.61415 0.0
H2048 H 0.36275 0.05606 0.60003 0.0
C2049 C 0.33619 0.08298 0.59122 0.0
C2050 C 0.3484 0.084 0.57164 0.0
H2051 H 0.3244 0.07201 0.62902 0.0
H2052 H 0.3285 0.09024 0.58882 0.0
C2053 C 0.35806 0.07433 0.57528 0.0
C2054 C 0.93717 0.24917 0.61267 0.0
C2055 C 0.94394 0.26731 0.62183 0.0
H2056 H 0.92167 0.22912 0.583 0.0
C2057 C 0.93995 0.27931 0.60714 0.0
H2058 H 0.93983 0.23948 0.62357 0.0
C2059 C 0.9297 0.27341 0.58369 0.0
C2060 C 0.92304 0.25531 0.5744 0.0
H2061 H 0.94501 0.2934 0.61349 0.0
H2062 H 0.92735 0.2832 0.57255 0.0
C2063 C 0.92681 0.24323 0.5893 0.0
C2064 C 0.34055 0.26718 0.61383 0.0
C2065 C 0.3485 0.28641 0.615 0.0
H2066 H 0.3372 0.24394 0.59165 0.0
C2067 C 0.35817 0.29707 0.59328 0.0
H2068 H 0.33272 0.25872 0.63028 0.0
C2069 C 0.36037 0.2887 0.57093 0.0
C2070 C 0.35296 0.26943 0.56982 0.0
H2071 H 0.36386 0.3119 0.59347 0.0
H2072 H 0.36763 0.29738 0.55434 0.0
C2073 C 0.343 0.25877 0.59162 0.0
C2074 C 0.71958 0.06744 0.60765 0.0
C2075 C 0.73093 0.063 0.62316 0.0
H2076 H 0.71682 0.0802 0.57233 0.0
C2077 C 0.74907 0.06929 0.61502 0.0
H2078 H 0.70554 0.06284 0.6133 0.0
C2079 C 0.75557 0.07937 0.59172 0.0
C2080 C 0.7441 0.08339 0.57583 0.0
H2081 H 0.75833 0.06637 0.62658 0.0
H2082 H 0.76962 0.08398 0.58614 0.0
C2083 C 0.72608 0.0775 0.58422 0.0
C2084 C 0.94028 0.65192 0.59343 0.0
C2085 C 0.94056 0.66344 0.61367 0.0
H2086 H 0.92991 0.64045 0.55524 0.0
C2087 C 0.93091 0.67311 0.61025 0.0
H2088 H 0.94827 0.64494 0.59522 0.0
C2089 C 0.92051 0.6707 0.58725 0.0
C2090 C 0.91982 0.65875 0.56724 0.0
H2091 H 0.93132 0.68239 0.62544 0.0
H2092 H 0.91296 0.67811 0.58516 0.0
C2093 C 0.92984 0.64942 0.57056 0.0
C2094 C 0.92658 0.65266 0.74937 0.0
C2095 C 0.93889 0.66631 0.73214 0.0
H2096 H 0.91182 0.64658 0.78546 0.0
C2097 C 0.945 0.6849 0.73802 0.0
H2098 H 0.92169 0.6382 0.74549 0.0
C2099 C 0.93894 0.68974 0.76065 0.0
C2100 C 0.92689 0.67611 0.77826 0.0
H2101 H 0.95431 0.69574 0.72496 0.0
H2102 H 0.94367 0.70419 0.7642 0.0
C2103 C 0.92078 0.65749 0.77224 0.0
C2104 C 0.35871 0.27615 0.74276 0.0
C2105 C 0.34662 0.28179 0.73218 0.0
H2106 H 0.36378 0.26117 0.7731 0.0
C2107 C 0.32982 0.27613 0.74484 0.0
H2108 H 0.3717 0.28011 0.73345 0.0
C2109 C 0.32534 0.26534 0.76768 0.0
C2110 C 0.33751 0.25989 0.77842 0.0
H2111 H 0.32017 0.28022 0.73734 0.0
H2112 H 0.3125 0.26165 0.77727 0.0
C2113 C 0.3542 0.26533 0.76557 0.0
C2114 C 0.72864 0.04856 0.76177 0.0
C2115 C 0.72825 0.05979 0.74134 0.0
H2116 H 0.73923 0.04734 0.79992 0.0
C2117 C 0.73765 0.07901 0.74468 0.0
H2118 H 0.72077 0.03368 0.76016 0.0
C2119 C 0.74797 0.08688 0.76773 0.0
C2120 C 0.74892 0.07561 0.78775 0.0
H2121 H 0.73714 0.0879 0.72939 0.0
H2122 H 0.75536 0.10175 0.76979 0.0
C2123 C 0.73908 0.05637 0.78456 0.0
C2124 C 0.06153 0.36976 0.05639 0.0
C2125 C 0.04538 0.35804 0.04229 0.0
H2126 H 0.08264 0.37202 0.08276 0.0
C2127 C 0.03871 0.33893 0.04319 0.0
H2128 H 0.06698 0.38455 0.05627 0.0
C2129 C 0.048 0.33171 0.05789 0.0
C2130 C 0.06402 0.34341 0.07244 0.0
H2131 H 0.02642 0.32955 0.03228 0.0
H2132 H 0.04263 0.31695 0.05771 0.0
C2133 C 0.07063 0.36254 0.07143 0.0
C2134 C 0.65618 0.69804 0.03701 0.0
C2135 C 0.66273 0.68684 0.04817 0.0
H2136 H 0.6558 0.7236 0.0391 0.0
C2137 C 0.67475 0.69347 0.07 0.0
H2138 H 0.64684 0.69329 0.02023 0.0
C2139 C 0.67993 0.7108 0.08065 0.0
C2140 C 0.67311 0.72188 0.06989 0.0
H2141 H 0.68001 0.68518 0.07909 0.0
H2142 H 0.68892 0.71532 0.09783 0.0
C2143 C 0.66121 0.71534 0.04789 0.0
C2144 C 0.29464 0.95228 0.03903 0.0
C2145 C 0.30693 0.96981 0.0493 0.0
H2146 H 0.26866 0.92753 0.04317 0.0
C2147 C 0.30176 0.97611 0.07148 0.0
H2148 H 0.29826 0.94702 0.02198 0.0
C2149 C 0.28491 0.96503 0.08353 0.0
C2150 C 0.27276 0.94729 0.07378 0.0
H2151 H 0.31091 0.98952 0.07994 0.0
H2152 H 0.28169 0.97016 0.10108 0.0
C2153 C 0.27775 0.94108 0.05125 0.0
C2154 C 0.33649 0.03482 0.97115 0.0
C2155 C 0.35327 0.0437 0.98512 0.0
H2156 H 0.31761 0.03778 0.94535 0.0
C2157 C 0.36331 0.06311 0.98497 0.0
H2158 H 0.32839 0.01991 0.97082 0.0
C2159 C 0.35704 0.07333 0.97062 0.0
C2160 C 0.3406 0.06447 0.9559 0.0
H2161 H 0.37617 0.07049 0.99578 0.0
H2162 H 0.3652 0.08823 0.97091 0.0
C2163 C 0.33024 0.04508 0.95667 0.0
C2164 C 0.97776 0.30593 0.95376 0.0
C2165 C 0.97186 0.31255 0.97476 0.0
H2166 H 0.97096 0.28424 0.92602 0.0
C2167 C 0.95408 0.30144 0.98462 0.0
H2168 H 0.99136 0.31416 0.94568 0.0
C2169 C 0.94228 0.28424 0.9732 0.0
C2170 C 0.94816 0.27774 0.95197 0.0
H2171 H 0.94912 0.30621 0.00073 0.0
H2172 H 0.92857 0.27604 0.98091 0.0
C2173 C 0.96609 0.28872 0.94258 0.0
C2174 C 0.70156 0.66034 0.9773 0.0
C2175 C 0.69268 0.64177 0.98527 0.0
H2176 H 0.72459 0.68225 0.95792 0.0
C2177 C 0.7012 0.63116 0.98019 0.0
H2178 H 0.69547 0.66897 0.98085 0.0
C2179 C 0.71801 0.63885 0.96718 0.0
C2180 C 0.72678 0.65736 0.95901 0.0
H2181 H 0.69486 0.61684 0.98617 0.0
H2182 H 0.72417 0.6303 0.96355 0.0
C2183 C 0.71839 0.66803 0.96435 0.0
C2184 C 0.95263 0.65465 0.98008 0.0
C2185 C 0.97128 0.66313 0.97338 0.0
H2186 H 0.9265 0.65293 0.9725 0.0
C2187 C 0.9782 0.67761 0.95498 0.0
H2188 H 0.94692 0.64339 0.99411 0.0
C2189 C 0.96664 0.68326 0.94307 0.0
C2190 C 0.94785 0.6743 0.94893 0.0
H2191 H 0.99253 0.68441 0.94948 0.0
H2192 H 0.97226 0.69417 0.92848 0.0
C2193 C 0.94095 0.66004 0.96769 0.0
C2194 C 0.36964 0.31073 0.9682 0.0
C2195 C 0.3578 0.31541 0.98128 0.0
H2196 H 0.37225 0.29178 0.94298 0.0
C2197 C 0.33878 0.30331 0.97963 0.0
H2198 H 0.38437 0.31981 0.9689 0.0
C2199 C 0.33179 0.28687 0.96524 0.0
C2200 C 0.34364 0.28229 0.95178 0.0
H2201 H 0.3293 0.30641 0.98973 0.0
H2202 H 0.31709 0.27773 0.96482 0.0
C2203 C 0.36266 0.29449 0.95349 0.0
C2204 C 0.69473 0.05113 0.97356 0.0
C2205 C 0.6898 0.03296 0.98034 0.0
H2206 H 0.71428 0.07608 0.95518 0.0
C2207 C 0.7023 0.02667 0.9764 0.0
H2208 H 0.68514 0.05617 0.97625 0.0
C2209 C 0.71948 0.03834 0.96545 0.0
C2210 C 0.72421 0.05633 0.95704 0.0
H2211 H 0.69876 0.01269 0.98174 0.0
H2212 H 0.72886 0.03303 0.96327 0.0
C2213 C 0.7116 0.0626 0.96166 0.0
C2214 C 0.66223 0.96724 0.05315 0.0
C2215 C 0.6445 0.95777 0.04192 0.0
H2216 H 0.68316 0.96533 0.07547 0.0
C2217 C 0.63451 0.93843 0.04407 0.0
H2218 H 0.67035 0.98211 0.05185 0.0
C2219 C 0.64193 0.92882 0.05736 0.0
C2220 C 0.65953 0.93828 0.0689 0.0
H2221 H 0.6209 0.9306 0.03545 0.0
H2222 H 0.63386 0.91394 0.05851 0.0
C2223 C 0.66965 0.95759 0.06651 0.0
C2224 C 0.06126 0.69489 0.05422 0.0
C2225 C 0.04493 0.6905 0.04045 0.0
H2226 H 0.08249 0.71355 0.08021 0.0
C2227 C 0.03805 0.70284 0.04155 0.0
H2228 H 0.06688 0.68563 0.05397 0.0
C2229 C 0.0473 0.71918 0.05615 0.0
C2230 C 0.0635 0.72345 0.07037 0.0
H2231 H 0.0256 0.69996 0.03093 0.0
H2232 H 0.04174 0.72848 0.05617 0.0
C2233 C 0.07033 0.71105 0.06914 0.0
C2234 C 0.30209 0.35302 0.03745 0.0
C2235 C 0.31211 0.3444 0.04581 0.0
H2236 H 0.27776 0.35522 0.04229 0.0
C2237 C 0.30443 0.33027 0.06471 0.0
H2238 H 0.3077 0.36402 0.023 0.0
C2239 C 0.28724 0.32508 0.07538 0.0
C2240 C 0.27747 0.3341 0.06774 0.0
H2241 H 0.31181 0.32337 0.07153 0.0
H2242 H 0.28188 0.31441 0.09035 0.0
C2243 C 0.28501 0.34806 0.04854 0.0
C2244 C 0.71973 0.70181 0.40199 0.0
C2245 C 0.70948 0.69225 0.37969 0.0
H2246 H 0.73635 0.70248 0.43457 0.0
C2247 C 0.70892 0.67579 0.37239 0.0
H2248 H 0.72022 0.7145 0.40808 0.0
C2249 C 0.71891 0.66923 0.38686 0.0
C2250 C 0.72923 0.67874 0.40942 0.0
H2251 H 0.70125 0.66832 0.35501 0.0
H2252 H 0.71874 0.65688 0.37999 0.0
C2253 C 0.7292 0.69499 0.41695 0.0
C2254 C 0.33852 0.029 0.40293 0.0
C2255 C 0.32599 0.02282 0.38167 0.0
H2256 H 0.35364 0.0504 0.431 0.0
C2257 C 0.31958 0.03444 0.37165 0.0
H2258 H 0.34369 0.02038 0.41114 0.0
C2259 C 0.32522 0.05169 0.38319 0.0
C2260 C 0.33759 0.05774 0.40469 0.0
H2261 H 0.30985 0.03003 0.35533 0.0
H2262 H 0.31988 0.06026 0.37536 0.0
C2263 C 0.3443 0.04626 0.41423 0.0
C2264 C 0.97157 0.31176 0.40099 0.0
C2265 C 0.97789 0.30598 0.37948 0.0
H2266 H 0.95074 0.30453 0.42986 0.0
C2267 C 0.96683 0.28806 0.36951 0.0
H2268 H 0.97975 0.32546 0.40917 0.0
C2269 C 0.95012 0.27596 0.38149 0.0
C2270 C 0.94404 0.28163 0.40345 0.0
H2271 H 0.97134 0.28319 0.35298 0.0
H2272 H 0.94205 0.26211 0.37375 0.0
C2273 C 0.95485 0.29977 0.41277 0.0
C2274 C 0.02876 0.39932 0.3184 0.0
C2275 C 0.02184 0.38028 0.31512 0.0
H2276 H 0.02717 0.42323 0.30695 0.0
C2277 C 0.00744 0.37068 0.29694 0.0
H2278 H 0.03973 0.40709 0.33248 0.0
C2279 C 1.00052 0.38003 0.28178 0.0
C2280 C 0.00757 0.39917 0.28476 0.0
H2281 H 1.0019 0.35603 0.2938 0.0
H2282 H 0.98998 0.37227 0.26717 0.0
C2283 C 0.02162 0.40861 0.3036 0.0
C2284 C 0.63501 0.64538 0.28248 0.0
C2285 C 0.63518 0.64841 0.30973 0.0
H2286 H 0.62253 0.62649 0.25038 0.0
C2287 C 0.62256 0.63406 0.32584 0.0
H2288 H 0.64447 0.6562 0.26954 0.0
C2289 C 0.61014 0.61689 0.31484 0.0
C2290 C 0.60983 0.61406 0.28751 0.0
H2291 H 0.62241 0.63604 0.34691 0.0
H2292 H 0.60067 0.60592 0.32758 0.0
C2293 C 0.62235 0.62845 0.27147 0.0
C2294 C 0.36574 0.99377 0.31855 0.0
C2295 C 0.35216 0.97518 0.31616 0.0
H2296 H 0.3928 0.01475 0.3085 0.0
C2297 C 0.35562 0.96345 0.30041 0.0
H2298 H 0.36356 0.00308 0.33087 0.0
C2299 C 0.37218 0.97021 0.28698 0.0
C2300 C 0.38595 0.98881 0.28942 0.0
H2301 H 0.34536 0.94907 0.29805 0.0
H2302 H 0.37397 0.96084 0.27427 0.0
C2303 C 0.38251 1.00046 0.3056 0.0
C2304 C 0.64487 0.00657 0.28149 0.0
C2305 C 0.63957 0.99559 0.30431 0.0
H2306 H 0.63741 0.01981 0.2514 0.0
C2307 C 0.62225 0.99022 0.3151 0.0
H2308 H 0.65808 0.01092 0.27262 0.0
C2309 C 0.61031 0.99535 0.30285 0.0
C2310 C 0.61554 0.0061 0.27974 0.0
H2311 H 0.61776 0.98171 0.33266 0.0
H2312 H 0.59697 0.99084 0.31138 0.0
C2313 C 0.63303 0.01178 0.2694 0.0
C2314 C 0.03371 0.63727 0.31623 0.0
C2315 C 0.02405 0.6471 0.31753 0.0
H2316 H 0.03466 0.61391 0.3009 0.0
C2317 C 0.00701 0.63995 0.30434 0.0
H2318 H 0.04676 0.64219 0.32639 0.0
C2319 C 1.00011 0.62369 0.28953 0.0
C2320 C 0.01006 0.61419 0.28764 0.0
H2321 H 0.99919 0.64712 0.3049 0.0
H2322 H 0.98726 0.61892 0.27887 0.0
C2323 C 0.02679 0.62104 0.30153 0.0
C2324 C 0.36913 0.38552 0.32101 0.0
C2325 C 0.35798 0.3676 0.31108 0.0
H2326 H 0.39451 0.41105 0.31751 0.0
C2327 C 0.3645 0.36145 0.29026 0.0
H2328 H 0.36443 0.39067 0.33698 0.0
C2329 C 0.38164 0.373 0.27933 0.0
C2330 C 0.39267 0.39106 0.28877 0.0
H2331 H 0.35624 0.34774 0.28214 0.0
H2332 H 0.38604 0.36792 0.2629 0.0
C2333 C 0.38628 0.39721 0.3098 0.0
C2334 C 0.33161 0.30217 0.38368 0.0
C2335 C 0.31378 0.29268 0.37279 0.0
H2336 H 0.35255 0.3004 0.40616 0.0
C2337 C 0.30369 0.27337 0.37545 0.0
H2338 H 0.33981 0.31702 0.38201 0.0
C2339 C 0.31106 0.26385 0.38912 0.0
C2340 C 0.32872 0.27336 0.40049 0.0
H2341 H 0.28999 0.26553 0.36712 0.0
H2342 H 0.30288 0.249 0.39082 0.0
C2343 C 0.33899 0.29262 0.39737 0.0
C2344 C 0.70408 0.03067 0.3874 0.0
C2345 C 0.71373 0.02537 0.37032 0.0
H2346 H 0.70551 0.05002 0.41601 0.0
C2347 C 0.73278 0.03693 0.36781 0.0
H2348 H 0.68943 0.022 0.38996 0.0
C2349 C 0.742 0.05331 0.38228 0.0
C2350 C 0.73248 0.05841 0.40001 0.0
H2351 H 0.74059 0.03333 0.3546 0.0
H2352 H 0.75663 0.06194 0.37953 0.0
C2353 C 0.71335 0.04688 0.40223 0.0
C2354 C 0.96899 0.68563 0.36963 0.0
C2355 C 0.97967 0.67814 0.37967 0.0
H2356 H 0.94402 0.68685 0.37273 0.0
C2357 C 0.97264 0.66521 0.40026 0.0
H2358 H 0.97408 0.69569 0.35384 0.0
C2359 C 0.95545 0.66006 0.41084 0.0
C2360 C 0.94492 0.66785 0.4013 0.0
H2361 H 0.98052 0.6592 0.40846 0.0
H2362 H 0.95062 0.65035 0.42708 0.0
C2363 C 0.95184 0.68066 0.38051 0.0
C2364 C 0.36945 0.007 0.72506 0.0
C2365 C 0.37909 0.02493 0.71461 0.0
H2366 H 0.37073 0.98595 0.7479 0.0
C2367 C 0.3982 0.03522 0.71888 0.0
H2368 H 0.35474 0.99866 0.72222 0.0
C2369 C 0.40739 0.02786 0.73343 0.0
C2370 C 0.39772 0.01002 0.74409 0.0
H2371 H 0.40615 0.04902 0.71097 0.0
H2372 H 0.42211 0.03614 0.7362 0.0
C2373 C 0.37865 0.99964 0.73964 0.0
C2374 C 0.00506 0.36029 0.73305 0.0
C2375 C 0.99266 0.35347 0.71167 0.0
H2376 H 0.01949 0.38222 0.76066 0.0
C2377 C 0.98562 0.36442 0.70111 0.0
H2378 H 0.0107 0.35219 0.74168 0.0
C2379 C 0.99057 0.38166 0.71217 0.0
C2380 C 0.00287 0.38838 0.73371 0.0
H2381 H 0.97596 0.3595 0.68471 0.0
H2382 H 0.98477 0.38972 0.70391 0.0
C2383 C 0.01017 0.37756 0.74384 0.0
C2384 C 0.63483 0.62283 0.70373 0.0
C2385 C 0.64575 0.64095 0.71305 0.0
H2386 H 0.61035 0.59674 0.70893 0.0
C2387 C 0.63945 0.64694 0.73435 0.0
H2388 H 0.63932 0.61779 0.68738 0.0
C2389 C 0.62291 0.63496 0.74658 0.0
C2390 C 0.61226 0.61662 0.73795 0.0
H2391 H 0.64753 0.66081 0.74203 0.0
H2392 H 0.61884 0.6399 0.76351 0.0
C2393 C 0.6183 0.61074 0.71616 0.0
C2394 C 0.67472 0.70547 0.62999 0.0
C2395 C 0.68913 0.71493 0.6482 0.0
H2396 H 0.65699 0.70724 0.60082 0.0
C2397 C 0.69581 0.73388 0.65216 0.0
H2398 H 0.66934 0.69089 0.62637 0.0
C2399 C 0.68843 0.74321 0.63802 0.0
C2400 C 0.67438 0.73392 0.61914 0.0
H2401 H 0.70677 0.74156 0.66628 0.0
H2402 H 0.6938 0.75774 0.6419 0.0
C2403 C 0.66754 0.71487 0.61547 0.0
C2404 C 0.28567 0.97042 0.65732 0.0
C2405 C 0.30429 0.97946 0.65028 0.0
H2406 H 0.25899 0.9467 0.65153 0.0
C2407 C 0.31053 0.97065 0.6331 0.0
H2408 H 0.28047 0.97696 0.67041 0.0
C2409 C 0.29836 0.95324 0.62283 0.0
C2410 C 0.27963 0.94449 0.62908 0.0
H2411 H 0.3248 0.97729 0.62736 0.0
H2412 H 0.30346 0.9469 0.60919 0.0
C2413 C 0.27338 0.95317 0.64651 0.0
C2414 C 0.03434 0.30019 0.65181 0.0
C2415 C 0.02329 0.30856 0.64991 0.0
H2416 H 0.0592 0.30083 0.64061 0.0
C2417 C 0.02937 0.32453 0.63447 0.0
H2418 H 0.03018 0.28797 0.66376 0.0
C2419 C 0.0459 0.33174 0.62081 0.0
C2420 C 0.05694 0.32332 0.62252 0.0
H2421 H 0.02116 0.33125 0.63242 0.0
H2422 H 0.04978 0.34369 0.60838 0.0
C2423 C 0.05098 0.30753 0.63841 0.0
C2424 C 0.31555 0.3445 0.62016 0.0
C2425 C 0.30999 0.3325 0.64192 0.0
H2426 H 0.30806 0.35824 0.59087 0.0
C2427 C 0.29228 0.32603 0.65196 0.0
H2428 H 0.32911 0.34974 0.61195 0.0
C2429 C 0.28013 0.33089 0.63977 0.0
C2430 C 0.28555 0.3425 0.61753 0.0
H2431 H 0.28759 0.31674 0.6687 0.0
H2432 H 0.26642 0.32539 0.64754 0.0
C2433 C 0.30351 0.34948 0.60817 0.0
C2434 C 0.67222 0.97638 0.63703 0.0
C2435 C 0.68882 0.98345 0.65135 0.0
H2436 H 0.65318 0.95535 0.61087 0.0
C2437 C 0.69829 0.9734 0.65162 0.0
H2438 H 0.66457 0.98374 0.63638 0.0
C2439 C 0.69168 0.95706 0.63726 0.0
C2440 C 0.67546 0.95033 0.62211 0.0
H2441 H 0.71098 0.97824 0.66273 0.0
H2442 H 0.6994 0.94978 0.63786 0.0
C2443 C 0.66563 0.96003 0.62252 0.0
C2444 C 0.03536 0.71871 0.65307 0.0
C2445 C 0.02421 0.70075 0.64325 0.0
H2446 H 0.06069 0.74424 0.64947 0.0
C2447 C 0.03072 0.69455 0.62249 0.0
H2448 H 0.03067 0.7239 0.66899 0.0
C2449 C 0.04788 0.7061 0.61151 0.0
C2450 C 0.05888 0.72421 0.62084 0.0
H2451 H 0.02247 0.68082 0.61445 0.0
H2452 H 0.05229 0.701 0.59514 0.0
C2453 C 0.05248 0.73039 0.64182 0.0
C2454 C 0.99649 0.6352 0.7176 0.0
C2455 C 0.97903 0.62601 0.70551 0.0
H2456 H 0.01672 0.63277 0.741 0.0
C2457 C 0.96895 0.60662 0.70682 0.0
H2458 H 0.00465 0.65009 0.71697 0.0
C2459 C 0.97593 0.59673 0.72038 0.0
C2460 C 0.99316 0.60591 0.73303 0.0
H2461 H 0.95555 0.599 0.6975 0.0
H2462 H 0.96776 0.58183 0.72101 0.0
C2463 C 0.00347 0.62525 0.73123 0.0
C2464 C 0.40288 0.37333 0.70493 0.0
C2465 C 0.38387 0.3615 0.70739 0.0
H2466 H 0.42652 0.39837 0.71718 0.0
C2467 C 0.37408 0.36633 0.72491 0.0
H2468 H 0.41081 0.37012 0.69139 0.0
C2469 C 0.38315 0.38233 0.74019 0.0
C2470 C 0.40224 0.39414 0.73802 0.0
H2471 H 0.35945 0.35744 0.72745 0.0
H2472 H 0.37521 0.38512 0.75426 0.0
C2473 C 0.41192 0.38951 0.71988 0.0
C2474 C 0.63041 0.01394 0.69629 0.0
C2475 C 0.64513 0.01667 0.71294 0.0
H2476 H 0.60192 0.00668 0.69378 0.0
C2477 C 0.64241 0.01473 0.74032 0.0
H2478 H 0.63215 0.01536 0.67511 0.0
C2479 C 0.62543 0.01032 0.7509 0.0
C2480 C 0.61065 0.00737 0.73434 0.0
H2481 H 0.65351 0.01686 0.75367 0.0
H2482 H 0.62372 0.00887 0.7721 0.0
C2483 C 0.61319 0.00904 0.70691 0.0
loop_
_geom_bond_atom_site_label_1
_geom_bond_atom_site_label_2
_geom_bond_distance
_geom_bond_site_symmetry_2
_ccdc_geom_bond_type
Mn0 O5 2.095 1_655 S
Mn0 O15 2.162 . S
Mn0 O16 2.297 1_554 S
Mn0 O24 2.385 1_554 S
Mn0 O25 2.209 1_654 S
Mn0 O26 2.094 . S
Mn1 O6 2.121 . S
Mn1 N8 2.257 1_554 S
Mn1 N17 2.297 . S
Mn1 O25 2.215 1_554 S
Mn1 O27 2.117 . S
C2 O24 1.234 1_455 S
C2 O25 1.283 . S
C3 O15 1.281 1_556 S
C3 O16 1.236 . S
C4 O26 1.230 1_455 S
C4 O27 1.289 . S
O5 Mn0 2.095 1_455 S
O5 C14 1.250 . S
O6 Mn1 2.121 . S
O6 C14 1.258 . S
C7 N8 1.326 . S
C7 C11 1.460 . S
C7 H13 0.929 . S
N8 Mn1 2.257 1_556 S
N8 C7 1.326 . S
N8 C12 1.362 . S
C9 C10 1.258 . S
C9 C12 1.431 . S
C9 C29 1.449 . S
C10 C9 1.258 . S
C10 C11 1.477 . S
C10 H30 0.931 . S
C11 C7 1.460 . S
C11 C10 1.477 . S
C11 H31 0.930 . S
C12 N8 1.362 . S
C12 C9 1.431 . S
C12 C22 1.476 . S
H13 C7 0.929 . S
C14 O5 1.250 . S
C14 O6 1.258 . S
O15 Mn0 2.162 . S
O15 C3 1.281 1_554 S
O16 Mn0 2.297 1_556 S
O16 C3 1.236 . S
N17 Mn1 2.297 . S
N17 C18 1.340 . S
N17 C22 1.287 1_554 S
C18 N17 1.340 . S
C18 C19 1.457 1_554 S
C18 H23 0.929 . S
C19 C18 1.457 1_556 S
C19 C20 1.291 . S
C19 H32 0.940 . S
C20 C19 1.291 . S
C20 C21 1.373 . S
C20 H33 0.929 . S
C21 C20 1.373 . S
C21 C22 1.396 . S
C21 C28 1.403 . S
C22 C12 1.476 . S
C22 N17 1.287 1_556 S
C22 C21 1.396 . S
H23 C18 0.929 . S
O24 Mn0 2.385 1_556 S
O24 C2 1.234 1_655 S
O25 Mn0 2.209 1_456 S
O25 Mn1 2.215 1_556 S
O25 C2 1.283 . S
O26 Mn0 2.094 . S
O26 C4 1.230 1_655 S
O27 Mn1 2.117 . S
O27 C4 1.289 . S
C28 C21 1.403 . S
C28 C29 1.399 . S
C28 H34 0.929 . S
C29 C9 1.449 . S
C29 C28 1.399 . S
C29 H35 0.930 . S
H30 C10 0.931 . S
H31 C11 0.930 . S
H32 C19 0.940 . S
H33 C20 0.929 . S
H34 C28 0.929 . S
H35 C29 0.930 . S
Mn36 O41 2.095 1_554 S
Mn36 O51 2.162 . S
Mn36 O52 2.297 . S
Mn36 O60 2.385 . S
Mn36 O61 2.209 . S
Mn36 O62 2.094 1_554 S
Mn37 O42 2.121 1_554 S
Mn37 N44 2.257 . S
Mn37 N53 2.282 . S
Mn37 O61 2.215 . S
Mn37 O63 2.117 1_554 S
C38 O60 1.234 . S
C38 O61 1.283 . S
C39 O51 1.281 . S
C39 O52 1.236 . S
C40 O62 1.240 . S
C40 O63 1.264 . S
O41 Mn36 2.095 1_556 S
O41 C50 1.250 . S
O42 Mn37 2.121 1_556 S
O42 C50 1.258 . S
C43 N44 1.326 . S
C43 C47 1.460 . S
C43 H49 0.929 . S
N44 Mn37 2.257 . S
N44 C43 1.326 . S
N44 C48 1.362 . S
C45 C46 1.258 . S
C45 C48 1.431 . S
C45 C65 1.449 . S
C46 C45 1.258 . S
C46 C47 1.477 . S
C46 H66 0.931 . S
C47 C43 1.460 . S
C47 C46 1.477 . S
C47 H67 0.930 . S
C48 N44 1.362 . S
C48 C45 1.431 . S
C48 C58 1.476 . S
H49 C43 0.929 . S
C50 O41 1.250 . S
C50 O42 1.258 . S
O51 Mn36 2.162 . S
O51 C39 1.281 . S
O52 Mn36 2.297 . S
O52 C39 1.236 . S
N53 Mn37 2.282 . S
N53 C54 1.328 . S
N53 C58 1.318 . S
C54 N53 1.328 . S
C54 C55 1.457 . S
C54 H59 0.935 . S
C55 C54 1.457 . S
C55 C56 1.291 . S
C55 H68 0.931 . S
C56 C55 1.291 . S
C56 C57 1.373 . S
C56 H69 0.929 . S
C57 C56 1.373 . S
C57 C58 1.396 . S
C57 C64 1.403 . S
C58 C48 1.476 . S
C58 N53 1.318 . S
C58 C57 1.396 . S
H59 C54 0.935 . S
O60 Mn36 2.385 . S
O60 C38 1.234 . S
O61 Mn36 2.209 . S
O61 Mn37 2.215 . S
O61 C38 1.283 . S
O62 Mn36 2.094 1_556 S
O62 C40 1.240 . S
O63 Mn37 2.117 1_556 S
O63 C40 1.264 . S
C64 C57 1.403 . S
C64 C65 1.399 . S
C64 H70 0.929 . S
C65 C45 1.449 . S
C65 C64 1.399 . S
C65 H71 0.930 . S
H66 C46 0.931 . S
H67 C47 0.930 . S
H68 C55 0.931 . S
H69 C56 0.929 . S
H70 C64 0.929 . S
H71 C65 0.930 . S
Mn72 O77 2.095 1_564 S
Mn72 O87 2.162 . S
Mn72 O88 2.297 . S
Mn72 O96 2.385 . S
Mn72 O97 2.209 1_565 S
Mn72 O98 2.094 1_554 S
Mn73 O78 2.127 . S
Mn73 N80 2.257 . S
Mn73 N89 2.282 . S
Mn73 O97 2.215 . S
Mn73 O99 2.117 1_554 S
C74 O96 1.213 1_545 S
C74 O97 1.305 . S
C75 O87 1.281 . S
C75 O88 1.236 . S
C76 O98 1.245 . S
C76 O99 1.254 1_565 S
O77 Mn72 2.095 1_546 S
O77 C86 1.250 . S
O78 Mn73 2.127 . S
O78 C86 1.246 1_554 S
C79 N80 1.326 . S
C79 C83 1.460 . S
C79 H85 0.929 . S
N80 Mn73 2.257 . S
N80 C79 1.326 . S
N80 C84 1.362 . S
C81 C82 1.258 . S
C81 C84 1.431 . S
C81 C101 1.449 . S
C82 C81 1.258 . S
C82 C83 1.477 . S
C82 H102 0.931 . S
C83 C79 1.460 . S
C83 C82 1.477 . S
C83 H103 0.930 . S
C84 N80 1.362 . S
C84 C81 1.431 . S
C84 C94 1.476 . S
H85 C79 0.929 . S
C86 O77 1.250 . S
C86 O78 1.246 1_556 S
O87 Mn72 2.162 . S
O87 C75 1.281 . S
O88 Mn72 2.297 . S
O88 C75 1.236 . S
N89 Mn73 2.282 . S
N89 C90 1.328 . S
N89 C94 1.318 . S
C90 N89 1.328 . S
C90 C91 1.457 . S
C90 H95 0.929 . S
C91 C90 1.457 . S
C91 C92 1.291 . S
C91 H104 0.931 . S
C92 C91 1.291 . S
C92 C93 1.373 . S
C92 H105 0.929 . S
C93 C92 1.373 . S
C93 C94 1.396 . S
C93 C100 1.403 . S
C94 C84 1.476 . S
C94 N89 1.318 . S
C94 C93 1.396 . S
H95 C90 0.929 . S
O96 Mn72 2.385 . S
O96 C74 1.213 1_565 S
O97 Mn72 2.209 1_545 S
O97 Mn73 2.215 . S
O97 C74 1.305 . S
O98 Mn72 2.094 1_556 S
O98 C76 1.245 . S
O99 Mn73 2.117 1_556 S
O99 C76 1.254 1_545 S
C100 C93 1.403 . S
C100 C101 1.399 . S
C100 H106 0.929 . S
C101 C81 1.449 . S
C101 C100 1.399 . S
C101 H107 0.930 . S
H102 C82 0.931 . S
H103 C83 0.930 . S
H104 C91 0.931 . S
H105 C92 0.929 . S
H106 C100 0.929 . S
H107 C101 0.930 . S
Mn108 O113 2.095 1_655 S
Mn108 O123 2.162 . S
Mn108 O124 2.297 1_554 S
Mn108 O132 2.385 1_554 S
Mn108 O133 2.209 1_654 S
Mn108 O134 2.094 . S
Mn109 O114 2.121 . S
Mn109 N116 2.257 1_554 S
Mn109 N125 2.282 . S
Mn109 O133 2.215 1_554 S
Mn109 O135 2.117 . S
C110 O132 1.185 1_455 S
C110 O133 1.305 . S
C111 O123 1.281 1_556 S
C111 O124 1.236 . S
C112 O134 1.227 1_455 S
C112 O135 1.277 . S
O113 Mn108 2.095 1_455 S
O113 C122 1.250 . S
O114 Mn109 2.121 . S
O114 C122 1.258 . S
C115 N116 1.326 . S
C115 C119 1.460 . S
C115 H121 0.929 . S
N116 Mn109 2.257 1_556 S
N116 C115 1.326 . S
N116 C120 1.362 . S
C117 C118 1.258 . S
C117 C120 1.431 . S
C117 C137 1.449 . S
C118 C117 1.258 . S
C118 C119 1.477 . S
C118 H138 0.931 . S
C119 C115 1.460 . S
C119 C118 1.477 . S
C119 H139 0.930 . S
C120 N116 1.362 . S
C120 C117 1.431 . S
C120 C130 1.476 . S
H121 C115 0.929 . S
C122 O113 1.250 . S
C122 O114 1.258 . S
O123 Mn108 2.162 . S
O123 C111 1.281 1_554 S
O124 Mn108 2.297 1_556 S
O124 C111 1.236 . S
N125 Mn109 2.282 . S
N125 C126 1.328 . S
N125 C130 1.318 1_554 S
C126 N125 1.328 . S
C126 C127 1.457 1_554 S
C126 H131 0.929 . S
C127 C126 1.457 1_556 S
C127 C128 1.291 . S
C127 H140 0.933 . S
C128 C127 1.291 . S
C128 C129 1.373 . S
C128 H141 0.929 . S
C129 C128 1.373 . S
C129 C130 1.396 . S
C129 C136 1.403 . S
C130 C120 1.476 . S
C130 N125 1.318 1_556 S
C130 C129 1.396 . S
H131 C126 0.929 . S
O132 Mn108 2.385 1_556 S
O132 C110 1.185 1_655 S
O133 Mn108 2.209 1_456 S
O133 Mn109 2.215 1_556 S
O133 C110 1.305 . S
O134 Mn108 2.094 . S
O134 C112 1.227 1_655 S
O135 Mn109 2.117 . S
O135 C112 1.277 . S
C136 C129 1.403 . S
C136 C137 1.399 . S
C136 H142 0.929 . S
C137 C117 1.449 . S
C137 C136 1.399 . S
C137 H143 0.930 . S
H138 C118 0.931 . S
H139 C119 0.930 . S
H140 C127 0.933 . S
H141 C128 0.929 . S
H142 C136 0.929 . S
H143 C137 0.930 . S
Mn144 O149 2.095 1_554 S
Mn144 O159 2.162 . S
Mn144 O160 2.297 . S
Mn144 O168 2.385 . S
Mn144 O169 2.209 . S
Mn144 O170 2.094 1_554 S
Mn145 O150 2.119 1_554 S
Mn145 N152 2.257 . S
Mn145 N161 2.282 . S
Mn145 O169 2.215 . S
Mn145 O171 2.117 1_554 S
C146 O168 1.234 . S
C146 O169 1.283 . S
C147 O159 1.281 . S
C147 O160 1.236 . S
C148 O170 1.240 . S
C148 O171 1.264 . S
O149 Mn144 2.095 1_556 S
O149 C158 1.250 . S
O150 Mn145 2.119 1_556 S
O150 C158 1.263 . S
C151 N152 1.326 . S
C151 C155 1.460 . S
C151 H157 0.929 . S
N152 Mn145 2.257 . S
N152 C151 1.326 . S
N152 C156 1.362 . S
C153 C154 1.258 . S
C153 C156 1.431 . S
C153 C173 1.449 . S
C154 C153 1.258 . S
C154 C155 1.477 . S
C154 H174 0.931 . S
C155 C151 1.460 . S
C155 C154 1.477 . S
C155 H175 0.930 . S
C156 N152 1.362 . S
C156 C153 1.431 . S
C156 C166 1.476 . S
H157 C151 0.929 . S
C158 O149 1.250 . S
C158 O150 1.263 . S
O159 Mn144 2.162 . S
O159 C147 1.281 . S
O160 Mn144 2.297 . S
O160 C147 1.236 . S
N161 Mn145 2.282 . S
N161 C162 1.328 . S
N161 C166 1.318 . S
C162 N161 1.328 . S
C162 C163 1.457 . S
C162 H167 0.929 . S
C163 C162 1.457 . S
C163 C164 1.291 . S
C163 H176 0.931 . S
C164 C163 1.291 . S
C164 C165 1.373 . S
C164 H177 0.929 . S
C165 C164 1.373 . S
C165 C166 1.396 . S
C165 C172 1.403 . S
C166 C156 1.476 . S
C166 N161 1.318 . S
C166 C165 1.396 . S
H167 C162 0.929 . S
O168 Mn144 2.385 . S
O168 C146 1.234 . S
O169 Mn144 2.209 . S
O169 Mn145 2.215 . S
O169 C146 1.283 . S
O170 Mn144 2.094 1_556 S
O170 C148 1.240 . S
O171 Mn145 2.117 1_556 S
O171 C148 1.264 . S
C172 C165 1.403 . S
C172 C173 1.399 . S
C172 H178 0.929 . S
C173 C153 1.449 . S
C173 C172 1.399 . S
C173 H179 0.930 . S
H174 C154 0.931 . S
H175 C155 0.930 . S
H176 C163 0.931 . S
H177 C164 0.929 . S
H178 C172 0.929 . S
H179 C173 0.930 . S
Mn180 O185 2.095 1_545 S
Mn180 O195 2.162 . S
Mn180 O196 2.297 1_554 S
Mn180 O204 2.385 1_554 S
Mn180 O205 2.209 1_544 S
Mn180 O206 2.094 . S
Mn181 O186 2.121 . S
Mn181 N188 2.257 1_554 S
Mn181 N197 2.282 . S
Mn181 O205 2.215 1_554 S
Mn181 O207 2.117 . S
C182 O204 1.234 . S
C182 O205 1.283 1_545 S
C183 O195 1.281 1_556 S
C183 O196 1.236 . S
C184 O206 1.240 . S
C184 O207 1.264 1_545 S
O185 Mn180 2.095 1_565 S
O185 C194 1.250 . S
O186 Mn181 2.121 . S
O186 C194 1.258 . S
C187 N188 1.326 . S
C187 C191 1.460 . S
C187 H193 0.929 . S
N188 Mn181 2.257 1_556 S
N188 C187 1.326 . S
N188 C192 1.362 . S
C189 C190 1.258 . S
C189 C192 1.431 . S
C189 C209 1.449 . S
C190 C189 1.258 . S
C190 C191 1.477 . S
C190 H210 0.931 . S
C191 C187 1.460 . S
C191 C190 1.477 . S
C191 H211 0.930 . S
C192 N188 1.362 . S
C192 C189 1.431 . S
C192 C202 1.476 . S
H193 C187 0.929 . S
C194 O185 1.250 . S
C194 O186 1.258 . S
O195 Mn180 2.162 . S
O195 C183 1.281 1_554 S
O196 Mn180 2.297 1_556 S
O196 C183 1.236 . S
N197 Mn181 2.282 . S
N197 C198 1.328 . S
N197 C202 1.318 1_554 S
C198 N197 1.328 . S
C198 C199 1.457 1_554 S
C198 H203 0.929 . S
C199 C198 1.457 1_556 S
C199 C200 1.291 . S
C199 H212 0.931 . S
C200 C199 1.291 . S
C200 C201 1.373 . S
C200 H213 0.929 . S
C201 C200 1.373 . S
C201 C202 1.396 . S
C201 C208 1.403 . S
C202 C192 1.476 . S
C202 N197 1.318 1_556 S
C202 C201 1.396 . S
H203 C198 0.929 . S
O204 Mn180 2.385 1_556 S
O204 C182 1.234 . S
O205 Mn180 2.209 1_566 S
O205 Mn181 2.215 1_556 S
O205 C182 1.283 1_565 S
O206 Mn180 2.094 . S
O206 C184 1.240 . S
O207 Mn181 2.117 . S
O207 C184 1.264 1_565 S
C208 C201 1.403 . S
C208 C209 1.399 . S
C208 H214 0.929 . S
C209 C189 1.449 . S
C209 C208 1.399 . S
C209 H215 0.930 . S
H210 C190 0.931 . S
H211 C191 0.930 . S
H212 C199 0.931 . S
H213 C200 0.929 . S
H214 C208 0.929 . S
H215 C209 0.930 . S
Mn216 O221 2.095 . S
Mn216 O231 2.162 . S
Mn216 O232 2.297 . S
Mn216 O240 2.385 . S
Mn216 O241 2.209 . S
Mn216 O242 2.094 . S
Mn217 O222 2.121 . S
Mn217 N224 2.257 . S
Mn217 N233 2.282 . S
Mn217 O241 2.215 . S
Mn217 O243 2.117 . S
C218 O240 1.234 . S
C218 O241 1.283 . S
C219 O231 1.281 . S
C219 O232 1.236 . S
C220 O242 1.240 . S
C220 O243 1.264 . S
O221 Mn216 2.095 . S
O221 C230 1.250 . S
O222 Mn217 2.121 . S
O222 C230 1.258 . S
C223 N224 1.326 . S
C223 C227 1.460 . S
C223 H229 0.929 . S
N224 Mn217 2.257 . S
N224 C223 1.326 . S
N224 C228 1.362 . S
C225 C226 1.258 . S
C225 C228 1.431 . S
C225 C245 1.449 . S
C226 C225 1.258 . S
C226 C227 1.477 . S
C226 H246 0.931 . S
C227 C223 1.460 . S
C227 C226 1.477 . S
C227 H247 0.930 . S
C228 N224 1.362 . S
C228 C225 1.431 . S
C228 C238 1.476 . S
H229 C223 0.929 . S
C230 O221 1.250 . S
C230 O222 1.258 . S
O231 Mn216 2.162 . S
O231 C219 1.281 . S
O232 Mn216 2.297 . S
O232 C219 1.236 . S
N233 Mn217 2.282 . S
N233 C234 1.328 . S
N233 C238 1.318 . S
C234 N233 1.328 . S
C234 C235 1.457 . S
C234 H239 0.929 . S
C235 C234 1.457 . S
C235 C236 1.291 . S
C235 H248 0.931 . S
C236 C235 1.291 . S
C236 C237 1.373 . S
C236 H249 0.929 . S
C237 C236 1.373 . S
C237 C238 1.396 . S
C237 C244 1.403 . S
C238 C228 1.476 . S
C238 N233 1.318 . S
C238 C237 1.396 . S
H239 C234 0.929 . S
O240 Mn216 2.385 . S
O240 C218 1.234 . S
O241 Mn216 2.209 . S
O241 Mn217 2.215 . S
O241 C218 1.283 . S
O242 Mn216 2.094 . S
O242 C220 1.240 . S
O243 Mn217 2.117 . S
O243 C220 1.264 . S
C244 C237 1.403 . S
C244 C245 1.399 . S
C244 H250 0.929 . S
C245 C225 1.449 . S
C245 C244 1.399 . S
C245 H251 0.930 . S
H246 C226 0.931 . S
H247 C227 0.930 . S
H248 C235 0.931 . S
H249 C236 0.929 . S
H250 C244 0.929 . S
H251 C245 0.930 . S
Mn252 O257 2.095 . S
Mn252 O267 2.162 1_565 S
Mn252 O268 2.319 . S
Mn252 O276 2.385 . S
Mn252 O277 2.209 . S
Mn252 O278 2.094 . S
Mn253 O258 2.121 . S
Mn253 N260 2.257 . S
Mn253 N269 2.282 . S
Mn253 O277 2.215 . S
Mn253 O279 2.117 . S
C254 O276 1.234 . S
C254 O277 1.283 . S
C255 O267 1.281 . S
C255 O268 1.195 1_545 S
C256 O278 1.240 . S
C256 O279 1.264 . S
O257 Mn252 2.095 . S
O257 C266 1.250 . S
O258 Mn253 2.121 . S
O258 C266 1.258 . S
C259 N260 1.326 . S
C259 C263 1.460 . S
C259 H265 0.929 . S
N260 Mn253 2.257 . S
N260 C259 1.326 . S
N260 C264 1.362 . S
C261 C262 1.258 . S
C261 C264 1.431 . S
C261 C281 1.449 . S
C262 C261 1.258 . S
C262 C263 1.477 . S
C262 H282 0.931 . S
C263 C259 1.460 . S
C263 C262 1.477 . S
C263 H283 0.930 . S
C264 N260 1.362 . S
C264 C261 1.431 . S
C264 C274 1.476 . S
H265 C259 0.929 . S
C266 O257 1.250 . S
C266 O258 1.258 . S
O267 Mn252 2.162 1_545 S
O267 C255 1.281 . S
O268 Mn252 2.319 . S
O268 C255 1.195 1_565 S
N269 Mn253 2.282 . S
N269 C270 1.328 . S
N269 C274 1.318 . S
C270 N269 1.328 . S
C270 C271 1.457 . S
C270 H275 0.929 . S
C271 C270 1.457 . S
C271 C272 1.291 . S
C271 H284 0.931 . S
C272 C271 1.291 . S
C272 C273 1.373 . S
C272 H285 0.929 . S
C273 C272 1.373 . S
C273 C274 1.396 . S
C273 C280 1.403 . S
C274 C264 1.476 . S
C274 N269 1.318 . S
C274 C273 1.396 . S
H275 C270 0.929 . S
O276 Mn252 2.385 . S
O276 C254 1.234 . S
O277 Mn252 2.209 . S
O277 Mn253 2.215 . S
O277 C254 1.283 . S
O278 Mn252 2.094 . S
O278 C256 1.240 . S
O279 Mn253 2.117 . S
O279 C256 1.264 . S
C280 C273 1.403 . S
C280 C281 1.399 . S
C280 H286 0.929 . S
C281 C261 1.449 . S
C281 C280 1.399 . S
C281 H287 0.930 . S
H282 C262 0.931 . S
H283 C263 0.930 . S
H284 C271 0.931 . S
H285 C272 0.929 . S
H286 C280 0.929 . S
H287 C281 0.930 . S
Mn288 O293 2.095 . S
Mn288 O303 2.162 1_455 S
Mn288 O304 2.271 1_455 S
Mn288 O312 2.385 . S
Mn288 O313 2.209 . S
Mn288 O314 2.094 . S
Mn289 O294 2.121 . S
Mn289 N296 2.257 . S
Mn289 N305 2.282 . S
Mn289 O313 2.215 . S
Mn289 O315 2.117 . S
C290 O312 1.234 . S
C290 O313 1.283 . S
C291 O303 1.281 . S
C291 O304 1.242 . S
C292 O314 1.240 . S
C292 O315 1.264 . S
O293 Mn288 2.095 . S
O293 C302 1.250 . S
O294 Mn289 2.121 . S
O294 C302 1.258 . S
C295 N296 1.326 . S
C295 C299 1.460 . S
C295 H301 0.929 . S
N296 Mn289 2.257 . S
N296 C295 1.326 . S
N296 C300 1.362 . S
C297 C298 1.258 . S
C297 C300 1.431 . S
C297 C317 1.449 . S
C298 C297 1.258 . S
C298 C299 1.477 . S
C298 H318 0.931 . S
C299 C295 1.460 . S
C299 C298 1.477 . S
C299 H319 0.930 . S
C300 N296 1.362 . S
C300 C297 1.431 . S
C300 C310 1.476 . S
H301 C295 0.929 . S
C302 O293 1.250 . S
C302 O294 1.258 . S
O303 Mn288 2.162 1_655 S
O303 C291 1.281 . S
O304 Mn288 2.271 1_655 S
O304 C291 1.242 . S
N305 Mn289 2.282 . S
N305 C306 1.328 . S
N305 C310 1.318 . S
C306 N305 1.328 . S
C306 C307 1.457 . S
C306 H311 0.929 . S
C307 C306 1.457 . S
C307 C308 1.291 . S
C307 H320 0.931 . S
C308 C307 1.291 . S
C308 C309 1.373 . S
C308 H321 0.929 . S
C309 C308 1.373 . S
C309 C310 1.396 . S
C309 C316 1.403 . S
C310 C300 1.476 . S
C310 N305 1.318 . S
C310 C309 1.396 . S
H311 C306 0.929 . S
O312 Mn288 2.385 . S
O312 C290 1.234 . S
O313 Mn288 2.209 . S
O313 Mn289 2.215 . S
O313 C290 1.283 . S
O314 Mn288 2.094 . S
O314 C292 1.240 . S
O315 Mn289 2.117 . S
O315 C292 1.264 . S
C316 C309 1.403 . S
C316 C317 1.399 . S
C316 H322 0.929 . S
C317 C297 1.449 . S
C317 C316 1.399 . S
C317 H323 0.930 . S
H318 C298 0.931 . S
H319 C299 0.930 . S
H320 C307 0.931 . S
H321 C308 0.929 . S
H322 C316 0.929 . S
H323 C317 0.930 . S
Mn324 O329 2.095 . S
Mn324 O339 2.162 . S
Mn324 O340 2.297 . S
Mn324 O348 2.385 . S
Mn324 O349 2.209 . S
Mn324 O350 2.094 . S
Mn325 O330 2.121 . S
Mn325 N332 2.257 . S
Mn325 N341 2.282 . S
Mn325 O349 2.215 . S
Mn325 O351 2.117 . S
C326 O348 1.234 . S
C326 O349 1.283 . S
C327 O339 1.281 . S
C327 O340 1.236 . S
C328 O350 1.240 . S
C328 O351 1.264 . S
O329 Mn324 2.095 . S
O329 C338 1.250 1_565 S
O330 Mn325 2.121 . S
O330 C338 1.258 1_565 S
C331 N332 1.326 . S
C331 C335 1.460 1_565 S
C331 H337 0.929 1_565 S
N332 Mn325 2.257 . S
N332 C331 1.326 . S
N332 C336 1.362 . S
C333 C334 1.258 . S
C333 C336 1.431 . S
C333 C353 1.449 . S
C334 C333 1.258 . S
C334 C335 1.477 1_565 S
C334 H354 0.931 . S
C335 C331 1.460 1_545 S
C335 C334 1.477 1_545 S
C335 H355 0.930 . S
C336 N332 1.362 . S
C336 C333 1.431 . S
C336 C346 1.476 . S
H337 C331 0.929 1_545 S
C338 O329 1.250 1_545 S
C338 O330 1.258 1_545 S
O339 Mn324 2.162 . S
O339 C327 1.281 . S
O340 Mn324 2.297 . S
O340 C327 1.236 . S
N341 Mn325 2.282 . S
N341 C342 1.328 . S
N341 C346 1.318 . S
C342 N341 1.328 . S
C342 C343 1.457 . S
C342 H347 0.929 . S
C343 C342 1.457 . S
C343 C344 1.291 . S
C343 H356 0.931 . S
C344 C343 1.291 . S
C344 C345 1.373 . S
C344 H357 0.929 . S
C345 C344 1.373 . S
C345 C346 1.396 . S
C345 C352 1.403 . S
C346 C336 1.476 . S
C346 N341 1.318 . S
C346 C345 1.396 . S
H347 C342 0.929 . S
O348 Mn324 2.385 . S
O348 C326 1.234 . S
O349 Mn324 2.209 . S
O349 Mn325 2.215 . S
O349 C326 1.283 . S
O350 Mn324 2.094 . S
O350 C328 1.240 . S
O351 Mn325 2.117 . S
O351 C328 1.264 . S
C352 C345 1.403 . S
C352 C353 1.399 . S
C352 H358 0.929 . S
C353 C333 1.449 . S
C353 C352 1.399 . S
C353 H359 0.930 . S
H354 C334 0.931 . S
H355 C335 0.930 . S
H356 C343 0.931 . S
H357 C344 0.929 . S
H358 C352 0.929 . S
H359 C353 0.930 . S
Mn360 O365 2.095 . S
Mn360 O375 2.162 1_455 S
Mn360 O376 2.297 . S
Mn360 O384 2.385 . S
Mn360 O385 2.209 . S
Mn360 O386 2.094 . S
Mn361 O366 2.121 . S
Mn361 N368 2.257 . S
Mn361 N377 2.282 . S
Mn361 O385 2.215 . S
Mn361 O387 2.117 . S
C362 O384 1.234 . S
C362 O385 1.283 . S
C363 O375 1.281 . S
C363 O376 1.236 1_655 S
C364 O386 1.240 . S
C364 O387 1.264 . S
O365 Mn360 2.095 . S
O365 C374 1.250 . S
O366 Mn361 2.121 . S
O366 C374 1.258 . S
C367 N368 1.326 . S
C367 C371 1.460 . S
C367 H373 0.929 . S
N368 Mn361 2.257 . S
N368 C367 1.326 . S
N368 C372 1.362 . S
C369 C370 1.258 . S
C369 C372 1.431 . S
C369 C389 1.449 . S
C370 C369 1.258 . S
C370 C371 1.477 . S
C370 H390 0.931 . S
C371 C367 1.460 . S
C371 C370 1.477 . S
C371 H391 0.930 . S
C372 N368 1.362 . S
C372 C369 1.431 . S
C372 C382 1.476 . S
H373 C367 0.929 . S
C374 O365 1.250 . S
C374 O366 1.258 . S
O375 Mn360 2.162 1_655 S
O375 C363 1.281 . S
O376 Mn360 2.297 . S
O376 C363 1.236 1_455 S
N377 Mn361 2.282 . S
N377 C378 1.328 . S
N377 C382 1.318 . S
C378 N377 1.328 . S
C378 C379 1.457 . S
C378 H383 0.929 . S
C379 C378 1.457 . S
C379 C380 1.291 . S
C379 H392 0.931 . S
C380 C379 1.291 . S
C380 C381 1.373 . S
C380 H393 0.929 . S
C381 C380 1.373 . S
C381 C382 1.396 . S
C381 C388 1.403 . S
C382 C372 1.476 . S
C382 N377 1.318 . S
C382 C381 1.396 . S
H383 C378 0.929 . S
O384 Mn360 2.385 . S
O384 C362 1.234 . S
O385 Mn360 2.209 . S
O385 Mn361 2.215 . S
O385 C362 1.283 . S
O386 Mn360 2.094 . S
O386 C364 1.240 . S
O387 Mn361 2.117 . S
O387 C364 1.264 . S
C388 C381 1.403 . S
C388 C389 1.399 . S
C388 H394 0.929 . S
C389 C369 1.449 . S
C389 C388 1.399 . S
C389 H395 0.930 . S
H390 C370 0.931 . S
H391 C371 0.930 . S
H392 C379 0.931 . S
H393 C380 0.929 . S
H394 C388 0.929 . S
H395 C389 0.930 . S
Mn396 O401 2.095 . S
Mn396 O411 2.162 . S
Mn396 O412 2.297 . S
Mn396 O420 2.385 . S
Mn396 O421 2.209 . S
Mn396 O422 2.094 . S
Mn397 O402 2.121 . S
Mn397 N404 2.257 . S
Mn397 N413 2.282 . S
Mn397 O421 2.215 . S
Mn397 O423 2.117 . S
C398 O420 1.234 . S
C398 O421 1.283 . S
C399 O411 1.281 . S
C399 O412 1.236 . S
C400 O422 1.240 . S
C400 O423 1.264 . S
O401 Mn396 2.095 . S
O401 C410 1.250 . S
O402 Mn397 2.121 . S
O402 C410 1.258 . S
C403 N404 1.326 . S
C403 C407 1.460 . S
C403 H409 0.929 . S
N404 Mn397 2.257 . S
N404 C403 1.326 . S
N404 C408 1.362 . S
C405 C406 1.258 . S
C405 C408 1.431 . S
C405 C425 1.449 . S
C406 C405 1.258 . S
C406 C407 1.477 . S
C406 H426 0.931 . S
C407 C403 1.460 . S
C407 C406 1.477 . S
C407 H427 0.930 . S
C408 N404 1.362 . S
C408 C405 1.431 . S
C408 C418 1.476 . S
H409 C403 0.929 . S
C410 O401 1.250 . S
C410 O402 1.258 . S
O411 Mn396 2.162 . S
O411 C399 1.281 . S
O412 Mn396 2.297 . S
O412 C399 1.236 . S
N413 Mn397 2.282 . S
N413 C414 1.328 . S
N413 C418 1.318 . S
C414 N413 1.328 . S
C414 C415 1.457 . S
C414 H419 0.929 . S
C415 C414 1.457 . S
C415 C416 1.291 . S
C415 H428 0.931 . S
C416 C415 1.291 . S
C416 C417 1.373 . S
C416 H429 0.929 . S
C417 C416 1.373 . S
C417 C418 1.396 . S
C417 C424 1.403 . S
C418 C408 1.476 . S
C418 N413 1.318 . S
C418 C417 1.396 . S
H419 C414 0.929 . S
O420 Mn396 2.385 . S
O420 C398 1.234 . S
O421 Mn396 2.209 . S
O421 Mn397 2.215 . S
O421 C398 1.283 . S
O422 Mn396 2.094 . S
O422 C400 1.240 . S
O423 Mn397 2.117 . S
O423 C400 1.264 . S
C424 C417 1.403 . S
C424 C425 1.399 . S
C424 H430 0.929 . S
C425 C405 1.449 . S
C425 C424 1.399 . S
C425 H431 0.930 . S
H426 C406 0.931 . S
H427 C407 0.930 . S
H428 C415 0.931 . S
H429 C416 0.929 . S
H430 C424 0.929 . S
H431 C425 0.930 . S
Mn432 O437 2.095 . S
Mn432 O447 2.162 1_545 S
Mn432 O448 2.297 . S
Mn432 O456 2.385 . S
Mn432 O457 2.209 . S
Mn432 O458 2.094 . S
Mn433 O438 2.121 . S
Mn433 N440 2.257 . S
Mn433 N449 2.282 . S
Mn433 O457 2.215 . S
Mn433 O459 2.117 . S
C434 O456 1.234 . S
C434 O457 1.283 . S
C435 O447 1.281 . S
C435 O448 1.236 1_565 S
C436 O458 1.240 . S
C436 O459 1.264 . S
O437 Mn432 2.095 . S
O437 C446 1.250 . S
O438 Mn433 2.121 . S
O438 C446 1.258 . S
C439 N440 1.326 . S
C439 C443 1.460 . S
C439 H445 0.929 . S
N440 Mn433 2.257 . S
N440 C439 1.326 . S
N440 C444 1.362 . S
C441 C442 1.258 . S
C441 C444 1.431 . S
C441 C461 1.449 . S
C442 C441 1.258 . S
C442 C443 1.477 . S
C442 H462 0.931 . S
C443 C439 1.460 . S
C443 C442 1.477 . S
C443 H463 0.930 . S
C444 N440 1.362 . S
C444 C441 1.431 . S
C444 C454 1.476 . S
H445 C439 0.929 . S
C446 O437 1.250 . S
C446 O438 1.258 . S
O447 Mn432 2.162 1_565 S
O447 C435 1.281 . S
O448 Mn432 2.297 . S
O448 C435 1.236 1_545 S
N449 Mn433 2.282 . S
N449 C450 1.328 . S
N449 C454 1.318 . S
C450 N449 1.328 . S
C450 C451 1.457 . S
C450 H455 0.929 . S
C451 C450 1.457 . S
C451 C452 1.291 . S
C451 H464 0.931 . S
C452 C451 1.291 . S
C452 C453 1.373 . S
C452 H465 0.929 . S
C453 C452 1.373 . S
C453 C454 1.396 . S
C453 C460 1.403 . S
C454 C444 1.476 . S
C454 N449 1.318 . S
C454 C453 1.396 . S
H455 C450 0.929 . S
O456 Mn432 2.385 . S
O456 C434 1.234 . S
O457 Mn432 2.209 . S
O457 Mn433 2.215 . S
O457 C434 1.283 . S
O458 Mn432 2.094 . S
O458 C436 1.240 . S
O459 Mn433 2.117 . S
O459 C436 1.264 . S
C460 C453 1.403 . S
C460 C461 1.399 . S
C460 H466 0.929 . S
C461 C441 1.449 . S
C461 C460 1.399 . S
C461 H467 0.930 . S
H462 C442 0.931 . S
H463 C443 0.930 . S
H464 C451 0.931 . S
H465 C452 0.929 . S
H466 C460 0.929 . S
H467 C461 0.930 . S
Mn468 O473 2.095 . S
Mn468 O483 2.162 . S
Mn468 O484 2.297 . S
Mn468 O492 2.385 . S
Mn468 O493 2.209 . S
Mn468 O494 2.094 . S
Mn469 O474 2.121 . S
Mn469 N476 2.257 . S
Mn469 N485 2.282 . S
Mn469 O493 2.215 . S
Mn469 O495 2.117 . S
C470 O492 1.234 . S
C470 O493 1.283 . S
C471 O483 1.281 . S
C471 O484 1.236 . S
C472 O494 1.240 . S
C472 O495 1.264 . S
O473 Mn468 2.095 . S
O473 C482 1.190 1_655 S
O474 Mn469 2.121 . S
O474 C482 1.274 1_655 S
C475 N476 1.326 . S
C475 C479 1.460 1_655 S
C475 H481 0.929 1_655 S
N476 Mn469 2.257 . S
N476 C475 1.326 . S
N476 C480 1.362 . S
C477 C478 1.258 . S
C477 C480 1.431 . S
C477 C497 1.449 . S
C478 C477 1.258 . S
C478 C479 1.477 1_655 S
C478 H498 0.931 . S
C479 C475 1.460 1_455 S
C479 C478 1.477 1_455 S
C479 H499 0.930 . S
C480 N476 1.362 . S
C480 C477 1.431 . S
C480 C490 1.476 . S
H481 C475 0.929 1_455 S
C482 O473 1.190 1_455 S
C482 O474 1.274 1_455 S
O483 Mn468 2.162 . S
O483 C471 1.281 . S
O484 Mn468 2.297 . S
O484 C471 1.236 . S
N485 Mn469 2.282 . S
N485 C486 1.328 . S
N485 C490 1.318 . S
C486 N485 1.328 . S
C486 C487 1.457 . S
C486 H491 0.929 . S
C487 C486 1.457 . S
C487 C488 1.291 . S
C487 H500 0.931 . S
C488 C487 1.291 . S
C488 C489 1.373 . S
C488 H501 0.929 . S
C489 C488 1.373 . S
C489 C490 1.396 . S
C489 C496 1.403 . S
C490 C480 1.476 . S
C490 N485 1.318 . S
C490 C489 1.396 . S
H491 C486 0.929 . S
O492 Mn468 2.385 . S
O492 C470 1.234 . S
O493 Mn468 2.209 . S
O493 Mn469 2.215 . S
O493 C470 1.283 . S
O494 Mn468 2.094 . S
O494 C472 1.240 . S
O495 Mn469 2.117 . S
O495 C472 1.264 . S
C496 C489 1.403 . S
C496 C497 1.399 . S
C496 H502 0.929 . S
C497 C477 1.449 . S
C497 C496 1.399 . S
C497 H503 0.930 . S
H498 C478 0.931 . S
H499 C479 0.930 . S
H500 C487 0.931 . S
H501 C488 0.929 . S
H502 C496 0.929 . S
H503 C497 0.930 . S
Mn504 O509 2.095 . S
Mn504 O519 2.162 . S
Mn504 O520 2.297 . S
Mn504 O528 2.385 . S
Mn504 O529 2.209 . S
Mn504 O530 2.094 . S
Mn505 O510 2.121 . S
Mn505 N512 2.257 . S
Mn505 N521 2.282 . S
Mn505 O529 2.215 . S
Mn505 O531 2.117 . S
C506 O528 1.234 . S
C506 O529 1.283 . S
C507 O519 1.281 . S
C507 O520 1.236 . S
C508 O530 1.240 . S
C508 O531 1.264 . S
O509 Mn504 2.095 . S
O509 C518 1.250 . S
O510 Mn505 2.121 . S
O510 C518 1.258 . S
C511 N512 1.326 . S
C511 C515 1.460 . S
C511 H517 0.929 . S
N512 Mn505 2.257 . S
N512 C511 1.326 . S
N512 C516 1.362 . S
C513 C514 1.258 . S
C513 C516 1.431 . S
C513 C533 1.449 . S
C514 C513 1.258 . S
C514 C515 1.477 . S
C514 H534 0.931 . S
C515 C511 1.460 . S
C515 C514 1.477 . S
C515 H535 0.930 . S
C516 N512 1.362 . S
C516 C513 1.431 . S
C516 C526 1.476 . S
H517 C511 0.929 . S
C518 O509 1.250 . S
C518 O510 1.258 . S
O519 Mn504 2.162 . S
O519 C507 1.281 . S
O520 Mn504 2.297 . S
O520 C507 1.236 . S
N521 Mn505 2.282 . S
N521 C522 1.328 . S
N521 C526 1.318 . S
C522 N521 1.328 . S
C522 C523 1.457 . S
C522 H527 0.929 . S
C523 C522 1.457 . S
C523 C524 1.291 . S
C523 H536 0.931 . S
C524 C523 1.291 . S
C524 C525 1.373 . S
C524 H537 0.929 . S
C525 C524 1.373 . S
C525 C526 1.396 . S
C525 C532 1.403 . S
C526 C516 1.476 . S
C526 N521 1.318 . S
C526 C525 1.396 . S
H527 C522 0.929 . S
O528 Mn504 2.385 . S
O528 C506 1.234 . S
O529 Mn504 2.209 . S
O529 Mn505 2.215 . S
O529 C506 1.283 . S
O530 Mn504 2.094 . S
O530 C508 1.240 . S
O531 Mn505 2.117 . S
O531 C508 1.264 . S
C532 C525 1.403 . S
C532 C533 1.399 . S
C532 H538 0.929 . S
C533 C513 1.449 . S
C533 C532 1.399 . S
C533 H539 0.930 . S
H534 C514 0.931 . S
H535 C515 0.930 . S
H536 C523 0.931 . S
H537 C524 0.929 . S
H538 C532 0.929 . S
H539 C533 0.930 . S
Mn540 O545 2.095 . S
Mn540 O555 2.162 . S
Mn540 O556 2.297 . S
Mn540 O564 2.385 . S
Mn540 O565 2.209 . S
Mn540 O566 2.094 . S
Mn541 O546 2.121 . S
Mn541 N548 2.257 . S
Mn541 N557 2.282 . S
Mn541 O565 2.215 . S
Mn541 O567 2.117 . S
C542 O564 1.234 . S
C542 O565 1.283 . S
C543 O555 1.281 . S
C543 O556 1.236 . S
C544 O566 1.240 . S
C544 O567 1.264 . S
O545 Mn540 2.095 . S
O545 C554 1.250 . S
O546 Mn541 2.121 . S
O546 C554 1.258 . S
C547 N548 1.326 . S
C547 C551 1.460 . S
C547 H553 0.929 . S
N548 Mn541 2.257 . S
N548 C547 1.326 . S
N548 C552 1.362 . S
C549 C550 1.258 . S
C549 C552 1.431 . S
C549 C569 1.449 . S
C550 C549 1.258 . S
C550 C551 1.477 . S
C550 H570 0.931 . S
C551 C547 1.460 . S
C551 C550 1.477 . S
C551 H571 0.930 . S
C552 N548 1.362 . S
C552 C549 1.431 . S
C552 C562 1.476 . S
H553 C547 0.929 . S
C554 O545 1.250 . S
C554 O546 1.258 . S
O555 Mn540 2.162 . S
O555 C543 1.281 . S
O556 Mn540 2.297 . S
O556 C543 1.236 . S
N557 Mn541 2.282 . S
N557 C558 1.328 . S
N557 C562 1.318 . S
C558 N557 1.328 . S
C558 C559 1.457 . S
C558 H563 0.929 . S
C559 C558 1.457 . S
C559 C560 1.291 . S
C559 H572 0.931 . S
C560 C559 1.291 . S
C560 C561 1.373 . S
C560 H573 0.929 . S
C561 C560 1.373 . S
C561 C562 1.396 . S
C561 C568 1.403 . S
C562 C552 1.476 . S
C562 N557 1.318 . S
C562 C561 1.396 . S
H563 C558 0.929 . S
O564 Mn540 2.385 . S
O564 C542 1.234 . S
O565 Mn540 2.209 . S
O565 Mn541 2.215 . S
O565 C542 1.283 . S
O566 Mn540 2.094 . S
O566 C544 1.240 . S
O567 Mn541 2.117 . S
O567 C544 1.264 . S
C568 C561 1.403 . S
C568 C569 1.399 . S
C568 H574 0.929 . S
C569 C549 1.449 . S
C569 C568 1.399 . S
C569 H575 0.930 . S
H570 C550 0.931 . S
H571 C551 0.930 . S
H572 C559 0.931 . S
H573 C560 0.929 . S
H574 C568 0.929 . S
H575 C569 0.930 . S
Mn576 O581 2.095 . S
Mn576 O591 2.162 . S
Mn576 O592 2.297 . S
Mn576 O600 2.385 . S
Mn576 O601 2.209 . S
Mn576 O602 2.094 . S
Mn577 O582 2.121 . S
Mn577 N584 2.257 . S
Mn577 N593 2.282 . S
Mn577 O601 2.215 . S
Mn577 O603 2.117 . S
C578 O600 1.234 . S
C578 O601 1.283 . S
C579 O591 1.281 . S
C579 O592 1.236 . S
C580 O602 1.240 . S
C580 O603 1.264 . S
O581 Mn576 2.095 . S
O581 C590 1.250 1_545 S
O582 Mn577 2.121 . S
O582 C590 1.258 1_545 S
C583 N584 1.326 . S
C583 C587 1.460 1_545 S
C583 H589 0.929 1_545 S
N584 Mn577 2.257 . S
N584 C583 1.326 . S
N584 C588 1.362 . S
C585 C586 1.258 . S
C585 C588 1.431 . S
C585 C605 1.449 . S
C586 C585 1.258 . S
C586 C587 1.477 1_545 S
C586 H606 0.931 . S
C587 C583 1.460 1_565 S
C587 C586 1.477 1_565 S
C587 H607 0.930 . S
C588 N584 1.362 . S
C588 C585 1.431 . S
C588 C598 1.476 . S
H589 C583 0.929 1_565 S
C590 O581 1.250 1_565 S
C590 O582 1.258 1_565 S
O591 Mn576 2.162 . S
O591 C579 1.281 . S
O592 Mn576 2.297 . S
O592 C579 1.236 . S
N593 Mn577 2.282 . S
N593 C594 1.328 . S
N593 C598 1.318 . S
C594 N593 1.328 . S
C594 C595 1.457 . S
C594 H599 0.929 . S
C595 C594 1.457 . S
C595 C596 1.291 . S
C595 H608 0.931 . S
C596 C595 1.291 . S
C596 C597 1.373 . S
C596 H609 0.929 . S
C597 C596 1.373 . S
C597 C598 1.396 . S
C597 C604 1.403 . S
C598 C588 1.476 . S
C598 N593 1.318 . S
C598 C597 1.396 . S
H599 C594 0.929 . S
O600 Mn576 2.385 . S
O600 C578 1.234 . S
O601 Mn576 2.209 . S
O601 Mn577 2.215 . S
O601 C578 1.283 . S
O602 Mn576 2.094 . S
O602 C580 1.240 . S
O603 Mn577 2.117 . S
O603 C580 1.264 . S
C604 C597 1.403 . S
C604 C605 1.399 . S
C604 H610 0.929 . S
C605 C585 1.449 . S
C605 C604 1.399 . S
C605 H611 0.930 . S
H606 C586 0.931 . S
H607 C587 0.930 . S
H608 C595 0.931 . S
H609 C596 0.929 . S
H610 C604 0.929 . S
H611 C605 0.930 . S
Mn612 O617 2.095 . S
Mn612 O627 2.162 1_655 S
Mn612 O628 2.340 . S
Mn612 O636 2.385 . S
Mn612 O637 2.209 . S
Mn612 O638 2.094 . S
Mn613 O618 2.121 . S
Mn613 N620 2.257 . S
Mn613 N629 2.282 . S
Mn613 O637 2.215 . S
Mn613 O639 2.117 . S
C614 O636 1.234 . S
C614 O637 1.283 . S
C615 O627 1.281 . S
C615 O628 1.227 1_455 S
C616 O638 1.240 . S
C616 O639 1.264 . S
O617 Mn612 2.095 . S
O617 C626 1.250 . S
O618 Mn613 2.121 . S
O618 C626 1.258 . S
C619 N620 1.326 . S
C619 C623 1.460 . S
C619 H625 0.929 . S
N620 Mn613 2.257 . S
N620 C619 1.326 . S
N620 C624 1.362 . S
C621 C622 1.258 . S
C621 C624 1.431 . S
C621 C641 1.449 . S
C622 C621 1.258 . S
C622 C623 1.477 . S
C622 H642 0.931 . S
C623 C619 1.460 . S
C623 C622 1.477 . S
C623 H643 0.930 . S
C624 N620 1.362 . S
C624 C621 1.431 . S
C624 C634 1.476 . S
H625 C619 0.929 . S
C626 O617 1.250 . S
C626 O618 1.258 . S
O627 Mn612 2.162 1_455 S
O627 C615 1.281 . S
O628 Mn612 2.340 . S
O628 C615 1.227 1_655 S
N629 Mn613 2.282 . S
N629 C630 1.328 . S
N629 C634 1.318 . S
C630 N629 1.328 . S
C630 C631 1.457 . S
C630 H635 0.929 . S
C631 C630 1.457 . S
C631 C632 1.291 . S
C631 H644 0.931 . S
C632 C631 1.291 . S
C632 C633 1.373 . S
C632 H645 0.929 . S
C633 C632 1.373 . S
C633 C634 1.396 . S
C633 C640 1.403 . S
C634 C624 1.476 . S
C634 N629 1.318 . S
C634 C633 1.396 . S
H635 C630 0.929 . S
O636 Mn612 2.385 . S
O636 C614 1.234 . S
O637 Mn612 2.209 . S
O637 Mn613 2.215 . S
O637 C614 1.283 . S
O638 Mn612 2.094 . S
O638 C616 1.240 . S
O639 Mn613 2.117 . S
O639 C616 1.264 . S
C640 C633 1.403 . S
C640 C641 1.399 . S
C640 H646 0.929 . S
C641 C621 1.449 . S
C641 C640 1.399 . S
C641 H647 0.930 . S
H642 C622 0.931 . S
H643 C623 0.930 . S
H644 C631 0.931 . S
H645 C632 0.929 . S
H646 C640 0.929 . S
H647 C641 0.930 . S
H648 C675 0.929 . S
N649 C674 1.433 . S
N649 C680 1.435 . S
N649 C686 1.423 . S
H650 C676 0.930 . S
H651 C679 0.931 . S
H652 C678 0.929 . S
H653 C681 0.930 . S
H654 C682 0.932 . S
H655 C685 0.929 . S
H656 C684 0.931 . S
H657 C687 0.929 . S
H658 C691 0.932 . S
H659 C688 0.931 . S
H660 C690 0.929 . S
H661 C693 0.929 . S
H662 C694 0.930 . S
H663 C696 0.929 . S
H664 C697 0.931 . S
H665 C699 0.930 . S
H666 C700 0.932 . S
H667 C702 0.931 . S
H668 C703 0.929 . S
H669 C705 0.929 . S
H670 C706 0.931 . S
H671 C708 0.929 . S
N672 C692 1.433 . S
N672 C698 1.435 . S
N672 C704 1.423 . S
H673 C709 0.932 . S
C674 N649 1.433 . S
C674 C675 1.363 . S
C674 C679 1.370 . S
C675 H648 0.929 . S
C675 C674 1.363 . S
C675 C676 1.385 . S
C676 H650 0.930 . S
C676 C675 1.385 . S
C676 C677 1.357 . S
C677 C676 1.357 . S
C677 C678 1.406 . S
C678 H652 0.929 . S
C678 C677 1.406 . S
C678 C679 1.391 . S
C679 H651 0.931 . S
C679 C674 1.370 . S
C679 C678 1.391 . S
C680 N649 1.435 . S
C680 C681 1.358 . S
C680 C685 1.371 . S
C681 H653 0.930 . S
C681 C680 1.358 . S
C681 C682 1.405 . S
C682 H654 0.932 . S
C682 C681 1.405 . S
C682 C683 1.383 . S
C683 C682 1.383 . S
C683 C684 1.393 . S
C684 H656 0.931 . S
C684 C683 1.393 . S
C684 C685 1.382 . S
C685 H655 0.929 . S
C685 C680 1.371 . S
C685 C684 1.382 . S
C686 N649 1.423 . S
C686 C687 1.362 . S
C686 C691 1.388 . S
C687 H657 0.929 . S
C687 C686 1.362 . S
C687 C688 1.376 . S
C688 H659 0.931 . S
C688 C687 1.376 . S
C688 C689 1.396 . S
C689 C688 1.396 . S
C689 C690 1.348 . S
C689 C707 1.472 . S
C690 H660 0.929 . S
C690 C689 1.348 . S
C690 C691 1.443 . S
C691 H658 0.932 . S
C691 C686 1.388 . S
C691 C690 1.443 . S
C692 N672 1.433 . S
C692 C693 1.363 . S
C692 C697 1.370 . S
C693 H661 0.929 . S
C693 C692 1.363 . S
C693 C694 1.385 . S
C694 H662 0.930 . S
C694 C693 1.385 . S
C694 C695 1.357 . S
C695 C694 1.357 . S
C695 C696 1.406 . S
C696 H663 0.929 . S
C696 C695 1.406 . S
C696 C697 1.391 . S
C697 H664 0.931 . S
C697 C692 1.370 . S
C697 C696 1.391 . S
C698 N672 1.435 . S
C698 C699 1.358 . S
C698 C703 1.371 . S
C699 H665 0.930 . S
C699 C698 1.358 . S
C699 C700 1.405 . S
C700 H666 0.932 . S
C700 C699 1.405 . S
C700 C701 1.383 . S
C701 C700 1.383 . S
C701 C702 1.393 . S
C702 H667 0.931 . S
C702 C701 1.393 . S
C702 C703 1.382 . S
C703 H668 0.929 . S
C703 C698 1.371 . S
C703 C702 1.382 . S
C704 N672 1.423 . S
C704 C705 1.362 . S
C704 C709 1.388 . S
C705 H669 0.929 . S
C705 C704 1.362 . S
C705 C706 1.376 . S
C706 H670 0.931 . S
C706 C705 1.376 . S
C706 C707 1.396 . S
C707 C689 1.472 . S
C707 C706 1.396 . S
C707 C708 1.348 . S
C708 H671 0.929 . S
C708 C707 1.348 . S
C708 C709 1.443 . S
C709 H673 0.932 . S
C709 C704 1.388 . S
C709 C708 1.443 . S
H710 C737 0.929 . S
N711 C736 1.433 . S
N711 C742 1.435 . S
N711 C748 1.423 . S
H712 C738 0.930 . S
H713 C741 0.931 . S
H714 C740 0.929 . S
H715 C743 0.930 . S
H716 C744 0.932 . S
H717 C747 0.929 . S
H718 C746 0.931 . S
H719 C749 0.929 . S
H720 C753 0.932 . S
H721 C750 0.931 . S
H722 C752 0.929 . S
H723 C755 0.929 . S
H724 C756 0.930 . S
H725 C758 0.929 . S
H726 C759 0.931 . S
H727 C761 0.930 . S
H728 C762 0.932 . S
H729 C764 0.931 . S
H730 C765 0.929 . S
H731 C767 0.929 . S
H732 C768 0.931 . S
H733 C770 0.929 . S
N734 C754 1.433 . S
N734 C760 1.435 . S
N734 C766 1.423 . S
H735 C771 0.932 . S
C736 N711 1.433 . S
C736 C737 1.363 . S
C736 C741 1.370 . S
C737 H710 0.929 . S
C737 C736 1.363 . S
C737 C738 1.385 . S
C738 H712 0.930 . S
C738 C737 1.385 . S
C738 C739 1.357 . S
C739 C738 1.357 . S
C739 C740 1.406 . S
C740 H714 0.929 . S
C740 C739 1.406 . S
C740 C741 1.391 . S
C741 H713 0.931 . S
C741 C736 1.370 . S
C741 C740 1.391 . S
C742 N711 1.435 . S
C742 C743 1.358 . S
C742 C747 1.371 . S
C743 H715 0.930 . S
C743 C742 1.358 . S
C743 C744 1.405 . S
C744 H716 0.932 . S
C744 C743 1.405 . S
C744 C745 1.383 . S
C745 C744 1.383 . S
C745 C746 1.393 . S
C746 H718 0.931 . S
C746 C745 1.393 . S
C746 C747 1.382 . S
C747 H717 0.929 . S
C747 C742 1.371 . S
C747 C746 1.382 . S
C748 N711 1.423 . S
C748 C749 1.362 . S
C748 C753 1.388 . S
C749 H719 0.929 . S
C749 C748 1.362 . S
C749 C750 1.376 . S
C750 H721 0.931 . S
C750 C749 1.376 . S
C750 C751 1.396 . S
C751 C750 1.396 . S
C751 C752 1.348 . S
C751 C769 1.472 . S
C752 H722 0.929 . S
C752 C751 1.348 . S
C752 C753 1.443 . S
C753 H720 0.932 . S
C753 C748 1.388 . S
C753 C752 1.443 . S
C754 N734 1.433 . S
C754 C755 1.363 . S
C754 C759 1.370 . S
C755 H723 0.929 . S
C755 C754 1.363 . S
C755 C756 1.385 . S
C756 H724 0.930 . S
C756 C755 1.385 . S
C756 C757 1.357 . S
C757 C756 1.357 . S
C757 C758 1.406 . S
C758 H725 0.929 . S
C758 C757 1.406 . S
C758 C759 1.391 . S
C759 H726 0.931 . S
C759 C754 1.370 . S
C759 C758 1.391 . S
C760 N734 1.435 . S
C760 C761 1.358 . S
C760 C765 1.371 . S
C761 H727 0.930 . S
C761 C760 1.358 . S
C761 C762 1.405 . S
C762 H728 0.932 . S
C762 C761 1.405 . S
C762 C763 1.383 . S
C763 C762 1.383 . S
C763 C764 1.393 . S
C764 H729 0.931 . S
C764 C763 1.393 . S
C764 C765 1.382 . S
C765 H730 0.929 . S
C765 C760 1.371 . S
C765 C764 1.382 . S
C766 N734 1.423 . S
C766 C767 1.362 . S
C766 C771 1.388 . S
C767 H731 0.929 . S
C767 C766 1.362 . S
C767 C768 1.376 . S
C768 H732 0.931 . S
C768 C767 1.376 . S
C768 C769 1.396 . S
C769 C751 1.472 . S
C769 C768 1.396 . S
C769 C770 1.348 . S
C770 H733 0.929 . S
C770 C769 1.348 . S
C770 C771 1.443 . S
C771 H735 0.932 . S
C771 C766 1.388 . S
C771 C770 1.443 . S
H772 C799 0.929 . S
N773 C798 1.433 . S
N773 C804 1.435 . S
N773 C810 1.423 . S
H774 C800 0.930 . S
H775 C803 0.931 . S
H776 C802 0.929 . S
H777 C805 0.930 . S
H778 C806 0.932 . S
H779 C809 0.929 . S
H780 C808 0.931 . S
H781 C811 0.929 . S
H782 C815 0.932 . S
H783 C812 0.931 . S
H784 C814 0.929 . S
H785 C817 0.929 . S
H786 C818 0.930 . S
H787 C820 0.929 . S
H788 C821 0.931 . S
H789 C823 0.930 . S
H790 C824 0.932 . S
H791 C826 0.931 . S
H792 C827 0.929 . S
H793 C829 0.929 . S
H794 C830 0.931 . S
H795 C832 0.929 . S
N796 C816 1.433 . S
N796 C822 1.435 . S
N796 C828 1.423 . S
H797 C833 0.932 . S
C798 N773 1.433 . S
C798 C799 1.363 . S
C798 C803 1.370 . S
C799 H772 0.929 . S
C799 C798 1.363 . S
C799 C800 1.385 . S
C800 H774 0.930 . S
C800 C799 1.385 . S
C800 C801 1.357 . S
C801 C800 1.357 . S
C801 C802 1.406 . S
C802 H776 0.929 . S
C802 C801 1.406 . S
C802 C803 1.391 . S
C803 H775 0.931 . S
C803 C798 1.370 . S
C803 C802 1.391 . S
C804 N773 1.435 . S
C804 C805 1.358 . S
C804 C809 1.371 . S
C805 H777 0.930 . S
C805 C804 1.358 . S
C805 C806 1.405 . S
C806 H778 0.932 . S
C806 C805 1.405 . S
C806 C807 1.383 . S
C807 C806 1.383 . S
C807 C808 1.393 . S
C808 H780 0.931 . S
C808 C807 1.393 . S
C808 C809 1.382 . S
C809 H779 0.929 . S
C809 C804 1.371 . S
C809 C808 1.382 . S
C810 N773 1.423 . S
C810 C811 1.362 . S
C810 C815 1.388 . S
C811 H781 0.929 . S
C811 C810 1.362 . S
C811 C812 1.376 . S
C812 H783 0.931 . S
C812 C811 1.376 . S
C812 C813 1.396 . S
C813 C812 1.396 . S
C813 C814 1.348 . S
C813 C831 1.472 . S
C814 H784 0.929 . S
C814 C813 1.348 . S
C814 C815 1.443 . S
C815 H782 0.932 . S
C815 C810 1.388 . S
C815 C814 1.443 . S
C816 N796 1.433 . S
C816 C817 1.363 . S
C816 C821 1.370 . S
C817 H785 0.929 . S
C817 C816 1.363 . S
C817 C818 1.385 . S
C818 H786 0.930 . S
C818 C817 1.385 . S
C818 C819 1.357 . S
C819 C818 1.357 . S
C819 C820 1.406 . S
C820 H787 0.929 . S
C820 C819 1.406 . S
C820 C821 1.391 . S
C821 H788 0.931 . S
C821 C816 1.370 . S
C821 C820 1.391 . S
C822 N796 1.435 . S
C822 C823 1.358 . S
C822 C827 1.371 . S
C823 H789 0.930 . S
C823 C822 1.358 . S
C823 C824 1.405 . S
C824 H790 0.932 . S
C824 C823 1.405 . S
C824 C825 1.383 . S
C825 C824 1.383 . S
C825 C826 1.393 . S
C826 H791 0.931 . S
C826 C825 1.393 . S
C826 C827 1.382 . S
C827 H792 0.929 . S
C827 C822 1.371 . S
C827 C826 1.382 . S
C828 N796 1.423 . S
C828 C829 1.362 . S
C828 C833 1.388 . S
C829 H793 0.929 . S
C829 C828 1.362 . S
C829 C830 1.376 . S
C830 H794 0.931 . S
C830 C829 1.376 . S
C830 C831 1.396 . S
C831 C813 1.472 . S
C831 C830 1.396 . S
C831 C832 1.348 . S
C832 H795 0.929 . S
C832 C831 1.348 . S
C832 C833 1.443 . S
C833 H797 0.932 . S
C833 C828 1.388 . S
C833 C832 1.443 . S
H834 C861 0.929 . S
N835 C860 1.433 . S
N835 C866 1.435 . S
N835 C872 1.423 . S
H836 C862 0.930 . S
H837 C865 0.931 . S
H838 C864 0.929 . S
H839 C867 0.930 . S
H840 C868 0.932 . S
H841 C871 0.929 . S
H842 C870 0.931 . S
H843 C873 0.929 . S
H844 C877 0.932 . S
H845 C874 0.931 . S
H846 C876 0.929 . S
H847 C879 0.929 . S
H848 C880 0.930 . S
H849 C882 0.929 . S
H850 C883 0.931 . S
H851 C885 0.930 . S
H852 C886 0.932 . S
H853 C888 0.931 . S
H854 C889 0.929 . S
H855 C891 0.929 . S
H856 C892 0.931 . S
H857 C894 0.929 . S
N858 C878 1.433 . S
N858 C884 1.435 . S
N858 C890 1.423 . S
H859 C895 0.932 . S
C860 N835 1.433 . S
C860 C861 1.363 . S
C860 C865 1.370 . S
C861 H834 0.929 . S
C861 C860 1.363 . S
C861 C862 1.385 . S
C862 H836 0.930 . S
C862 C861 1.385 . S
C862 C863 1.357 . S
C863 C862 1.357 . S
C863 C864 1.406 . S
C864 H838 0.929 . S
C864 C863 1.406 . S
C864 C865 1.391 . S
C865 H837 0.931 . S
C865 C860 1.370 . S
C865 C864 1.391 . S
C866 N835 1.435 . S
C866 C867 1.358 . S
C866 C871 1.371 . S
C867 H839 0.930 . S
C867 C866 1.358 . S
C867 C868 1.405 . S
C868 H840 0.932 . S
C868 C867 1.405 . S
C868 C869 1.383 . S
C869 C868 1.383 . S
C869 C870 1.393 . S
C870 H842 0.931 . S
C870 C869 1.393 . S
C870 C871 1.382 . S
C871 H841 0.929 . S
C871 C866 1.371 . S
C871 C870 1.382 . S
C872 N835 1.423 . S
C872 C873 1.362 . S
C872 C877 1.388 . S
C873 H843 0.929 . S
C873 C872 1.362 . S
C873 C874 1.376 . S
C874 H845 0.931 . S
C874 C873 1.376 . S
C874 C875 1.396 . S
C875 C874 1.396 . S
C875 C876 1.348 . S
C875 C893 1.472 . S
C876 H846 0.929 . S
C876 C875 1.348 . S
C876 C877 1.443 . S
C877 H844 0.932 . S
C877 C872 1.388 . S
C877 C876 1.443 . S
C878 N858 1.433 . S
C878 C879 1.363 . S
C878 C883 1.370 . S
C879 H847 0.929 . S
C879 C878 1.363 . S
C879 C880 1.385 . S
C880 H848 0.930 . S
C880 C879 1.385 . S
C880 C881 1.357 . S
C881 C880 1.357 . S
C881 C882 1.406 . S
C882 H849 0.929 . S
C882 C881 1.406 . S
C882 C883 1.391 . S
C883 H850 0.931 . S
C883 C878 1.370 . S
C883 C882 1.391 . S
C884 N858 1.435 . S
C884 C885 1.358 . S
C884 C889 1.371 . S
C885 H851 0.930 . S
C885 C884 1.358 . S
C885 C886 1.405 . S
C886 H852 0.932 . S
C886 C885 1.405 . S
C886 C887 1.383 . S
C887 C886 1.383 . S
C887 C888 1.393 . S
C888 H853 0.931 . S
C888 C887 1.393 . S
C888 C889 1.382 . S
C889 H854 0.929 . S
C889 C884 1.371 . S
C889 C888 1.382 . S
C890 N858 1.423 . S
C890 C891 1.362 . S
C890 C895 1.388 . S
C891 H855 0.929 . S
C891 C890 1.362 . S
C891 C892 1.376 . S
C892 H856 0.931 . S
C892 C891 1.376 . S
C892 C893 1.396 . S
C893 C875 1.472 . S
C893 C892 1.396 . S
C893 C894 1.348 . S
C894 H857 0.929 . S
C894 C893 1.348 . S
C894 C895 1.443 . S
C895 H859 0.932 . S
C895 C890 1.388 . S
C895 C894 1.443 . S
H896 C923 0.929 . S
N897 C922 1.433 . S
N897 C928 1.435 . S
N897 C934 1.423 . S
H898 C924 0.930 . S
H899 C927 0.931 . S
H900 C926 0.929 . S
H901 C929 0.930 . S
H902 C930 0.932 . S
H903 C933 0.929 . S
H904 C932 0.931 . S
H905 C935 0.929 . S
H906 C939 0.932 . S
H907 C936 0.931 . S
H908 C938 0.929 . S
H909 C941 0.929 . S
H910 C942 0.930 . S
H911 C944 0.929 . S
H912 C945 0.931 . S
H913 C947 0.930 . S
H914 C948 0.932 . S
H915 C950 0.931 . S
H916 C951 0.929 . S
H917 C953 0.929 . S
H918 C954 0.931 . S
H919 C956 0.929 . S
N920 C940 1.433 . S
N920 C946 1.435 . S
N920 C952 1.423 . S
H921 C957 0.932 . S
C922 N897 1.433 . S
C922 C923 1.363 . S
C922 C927 1.370 . S
C923 H896 0.929 . S
C923 C922 1.363 . S
C923 C924 1.385 . S
C924 H898 0.930 . S
C924 C923 1.385 . S
C924 C925 1.357 . S
C925 C924 1.357 . S
C925 C926 1.406 . S
C926 H900 0.929 . S
C926 C925 1.406 . S
C926 C927 1.391 . S
C927 H899 0.931 . S
C927 C922 1.370 . S
C927 C926 1.391 . S
C928 N897 1.435 . S
C928 C929 1.358 . S
C928 C933 1.371 . S
C929 H901 0.930 . S
C929 C928 1.358 . S
C929 C930 1.405 . S
C930 H902 0.932 . S
C930 C929 1.405 . S
C930 C931 1.383 . S
C931 C930 1.383 . S
C931 C932 1.393 . S
C932 H904 0.931 . S
C932 C931 1.393 . S
C932 C933 1.382 . S
C933 H903 0.929 . S
C933 C928 1.371 . S
C933 C932 1.382 . S
C934 N897 1.423 . S
C934 C935 1.362 . S
C934 C939 1.388 . S
C935 H905 0.929 . S
C935 C934 1.362 . S
C935 C936 1.376 . S
C936 H907 0.931 . S
C936 C935 1.376 . S
C936 C937 1.396 . S
C937 C936 1.396 . S
C937 C938 1.348 . S
C937 C955 1.472 . S
C938 H908 0.929 . S
C938 C937 1.348 . S
C938 C939 1.443 . S
C939 H906 0.932 . S
C939 C934 1.388 . S
C939 C938 1.443 . S
C940 N920 1.433 . S
C940 C941 1.363 . S
C940 C945 1.370 . S
C941 H909 0.929 . S
C941 C940 1.363 . S
C941 C942 1.385 . S
C942 H910 0.930 . S
C942 C941 1.385 . S
C942 C943 1.357 . S
C943 C942 1.357 . S
C943 C944 1.406 . S
C944 H911 0.929 . S
C944 C943 1.406 . S
C944 C945 1.391 . S
C945 H912 0.931 . S
C945 C940 1.370 . S
C945 C944 1.391 . S
C946 N920 1.435 . S
C946 C947 1.358 . S
C946 C951 1.371 . S
C947 H913 0.930 . S
C947 C946 1.358 . S
C947 C948 1.405 . S
C948 H914 0.932 . S
C948 C947 1.405 . S
C948 C949 1.383 . S
C949 C948 1.383 . S
C949 C950 1.393 . S
C950 H915 0.931 . S
C950 C949 1.393 . S
C950 C951 1.382 . S
C951 H916 0.929 . S
C951 C946 1.371 . S
C951 C950 1.382 . S
C952 N920 1.423 . S
C952 C953 1.362 . S
C952 C957 1.388 . S
C953 H917 0.929 . S
C953 C952 1.362 . S
C953 C954 1.376 . S
C954 H918 0.931 . S
C954 C953 1.376 . S
C954 C955 1.396 . S
C955 C937 1.472 . S
C955 C954 1.396 . S
C955 C956 1.348 . S
C956 H919 0.929 . S
C956 C955 1.348 . S
C956 C957 1.443 . S
C957 H921 0.932 . S
C957 C952 1.388 . S
C957 C956 1.443 . S
H958 C985 0.929 . S
N959 C984 1.433 . S
N959 C990 1.435 . S
N959 C996 1.423 . S
H960 C986 0.930 . S
H961 C989 0.931 . S
H962 C988 0.929 . S
H963 C991 0.930 . S
H964 C992 0.932 . S
H965 C995 0.929 . S
H966 C994 0.931 . S
H967 C997 0.929 . S
H968 C1001 0.932 . S
H969 C998 0.931 . S
H970 C1000 0.929 . S
H971 C1003 0.929 . S
H972 C1004 0.930 . S
H973 C1006 0.929 . S
H974 C1007 0.931 . S
H975 C1009 0.930 . S
H976 C1010 0.932 . S
H977 C1012 0.931 . S
H978 C1013 0.929 . S
H979 C1015 0.929 . S
H980 C1016 0.931 . S
H981 C1018 0.929 . S
N982 C1002 1.433 . S
N982 C1008 1.435 . S
N982 C1014 1.423 . S
H983 C1019 0.932 . S
C984 N959 1.433 . S
C984 C985 1.363 . S
C984 C989 1.370 . S
C985 H958 0.929 . S
C985 C984 1.363 . S
C985 C986 1.385 . S
C986 H960 0.930 . S
C986 C985 1.385 . S
C986 C987 1.357 . S
C987 C986 1.357 . S
C987 C988 1.406 . S
C988 H962 0.929 . S
C988 C987 1.406 . S
C988 C989 1.391 . S
C989 H961 0.931 . S
C989 C984 1.370 . S
C989 C988 1.391 . S
C990 N959 1.435 . S
C990 C991 1.358 . S
C990 C995 1.371 . S
C991 H963 0.930 . S
C991 C990 1.358 . S
C991 C992 1.405 . S
C992 H964 0.932 . S
C992 C991 1.405 . S
C992 C993 1.383 . S
C993 C992 1.383 . S
C993 C994 1.393 . S
C994 H966 0.931 . S
C994 C993 1.393 . S
C994 C995 1.382 . S
C995 H965 0.929 . S
C995 C990 1.371 . S
C995 C994 1.382 . S
C996 N959 1.423 . S
C996 C997 1.362 . S
C996 C1001 1.388 . S
C997 H967 0.929 . S
C997 C996 1.362 . S
C997 C998 1.376 . S
C998 H969 0.931 . S
C998 C997 1.376 . S
C998 C999 1.396 . S
C999 C998 1.396 . S
C999 C1000 1.348 . S
C999 C1017 1.472 . S
C1000 H970 0.929 . S
C1000 C999 1.348 . S
C1000 C1001 1.443 . S
C1001 H968 0.932 . S
C1001 C996 1.388 . S
C1001 C1000 1.443 . S
C1002 N982 1.433 . S
C1002 C1003 1.363 . S
C1002 C1007 1.370 . S
C1003 H971 0.929 . S
C1003 C1002 1.363 . S
C1003 C1004 1.385 . S
C1004 H972 0.930 . S
C1004 C1003 1.385 . S
C1004 C1005 1.357 . S
C1005 C1004 1.357 . S
C1005 C1006 1.406 . S
C1006 H973 0.929 . S
C1006 C1005 1.406 . S
C1006 C1007 1.391 . S
C1007 H974 0.931 . S
C1007 C1002 1.370 . S
C1007 C1006 1.391 . S
C1008 N982 1.435 . S
C1008 C1009 1.358 . S
C1008 C1013 1.371 . S
C1009 H975 0.930 . S
C1009 C1008 1.358 . S
C1009 C1010 1.405 . S
C1010 H976 0.932 . S
C1010 C1009 1.405 . S
C1010 C1011 1.383 . S
C1011 C1010 1.383 . S
C1011 C1012 1.393 . S
C1012 H977 0.931 . S
C1012 C1011 1.393 . S
C1012 C1013 1.382 . S
C1013 H978 0.929 . S
C1013 C1008 1.371 . S
C1013 C1012 1.382 . S
C1014 N982 1.423 . S
C1014 C1015 1.362 . S
C1014 C1019 1.388 . S
C1015 H979 0.929 . S
C1015 C1014 1.362 . S
C1015 C1016 1.376 . S
C1016 H980 0.931 . S
C1016 C1015 1.376 . S
C1016 C1017 1.396 . S
C1017 C999 1.472 . S
C1017 C1016 1.396 . S
C1017 C1018 1.348 . S
C1018 H981 0.929 . S
C1018 C1017 1.348 . S
C1018 C1019 1.443 . S
C1019 H983 0.932 . S
C1019 C1014 1.388 . S
C1019 C1018 1.443 . S
H1020 C1047 0.929 . S
N1021 C1046 1.433 . S
N1021 C1052 1.435 . S
N1021 C1058 1.423 . S
H1022 C1048 0.930 . S
H1023 C1051 0.931 . S
H1024 C1050 0.929 . S
H1025 C1053 0.930 . S
H1026 C1054 0.932 . S
H1027 C1057 0.929 . S
H1028 C1056 0.931 . S
H1029 C1059 0.929 . S
H1030 C1063 0.932 . S
H1031 C1060 0.931 . S
H1032 C1062 0.929 . S
H1033 C1065 0.929 . S
H1034 C1066 0.930 . S
H1035 C1068 0.929 . S
H1036 C1069 0.931 . S
H1037 C1071 0.930 . S
H1038 C1072 0.932 . S
H1039 C1074 0.931 . S
H1040 C1075 0.929 . S
H1041 C1077 0.929 . S
H1042 C1078 0.931 . S
H1043 C1080 0.929 . S
N1044 C1064 1.433 . S
N1044 C1070 1.435 . S
N1044 C1076 1.423 . S
H1045 C1081 0.932 . S
C1046 N1021 1.433 . S
C1046 C1047 1.363 . S
C1046 C1051 1.370 . S
C1047 H1020 0.929 . S
C1047 C1046 1.363 . S
C1047 C1048 1.385 . S
C1048 H1022 0.930 . S
C1048 C1047 1.385 . S
C1048 C1049 1.357 . S
C1049 C1048 1.357 . S
C1049 C1050 1.406 . S
C1050 H1024 0.929 . S
C1050 C1049 1.406 . S
C1050 C1051 1.391 . S
C1051 H1023 0.931 . S
C1051 C1046 1.370 . S
C1051 C1050 1.391 . S
C1052 N1021 1.435 . S
C1052 C1053 1.358 . S
C1052 C1057 1.371 . S
C1053 H1025 0.930 . S
C1053 C1052 1.358 . S
C1053 C1054 1.405 . S
C1054 H1026 0.932 . S
C1054 C1053 1.405 . S
C1054 C1055 1.383 . S
C1055 C1054 1.383 . S
C1055 C1056 1.393 . S
C1056 H1028 0.931 . S
C1056 C1055 1.393 . S
C1056 C1057 1.382 . S
C1057 H1027 0.929 . S
C1057 C1052 1.371 . S
C1057 C1056 1.382 . S
C1058 N1021 1.423 . S
C1058 C1059 1.362 . S
C1058 C1063 1.388 . S
C1059 H1029 0.929 . S
C1059 C1058 1.362 . S
C1059 C1060 1.376 . S
C1060 H1031 0.931 . S
C1060 C1059 1.376 . S
C1060 C1061 1.396 . S
C1061 C1060 1.396 . S
C1061 C1062 1.348 . S
C1061 C1079 1.472 . S
C1062 H1032 0.929 . S
C1062 C1061 1.348 . S
C1062 C1063 1.443 . S
C1063 H1030 0.932 . S
C1063 C1058 1.388 . S
C1063 C1062 1.443 . S
C1064 N1044 1.433 . S
C1064 C1065 1.363 . S
C1064 C1069 1.370 . S
C1065 H1033 0.929 . S
C1065 C1064 1.363 . S
C1065 C1066 1.385 . S
C1066 H1034 0.930 . S
C1066 C1065 1.385 . S
C1066 C1067 1.357 . S
C1067 C1066 1.357 . S
C1067 C1068 1.406 . S
C1068 H1035 0.929 . S
C1068 C1067 1.406 . S
C1068 C1069 1.391 . S
C1069 H1036 0.931 . S
C1069 C1064 1.370 . S
C1069 C1068 1.391 . S
C1070 N1044 1.435 . S
C1070 C1071 1.358 . S
C1070 C1075 1.371 . S
C1071 H1037 0.930 . S
C1071 C1070 1.358 . S
C1071 C1072 1.405 . S
C1072 H1038 0.932 . S
C1072 C1071 1.405 . S
C1072 C1073 1.383 . S
C1073 C1072 1.383 . S
C1073 C1074 1.393 . S
C1074 H1039 0.931 . S
C1074 C1073 1.393 . S
C1074 C1075 1.382 . S
C1075 H1040 0.929 . S
C1075 C1070 1.371 . S
C1075 C1074 1.382 . S
C1076 N1044 1.423 . S
C1076 C1077 1.362 . S
C1076 C1081 1.388 . S
C1077 H1041 0.929 . S
C1077 C1076 1.362 . S
C1077 C1078 1.376 . S
C1078 H1042 0.931 . S
C1078 C1077 1.376 . S
C1078 C1079 1.396 . S
C1079 C1061 1.472 . S
C1079 C1078 1.396 . S
C1079 C1080 1.348 . S
C1080 H1043 0.929 . S
C1080 C1079 1.348 . S
C1080 C1081 1.443 . S
C1081 H1045 0.932 . S
C1081 C1076 1.388 . S
C1081 C1080 1.443 . S
H1082 C1109 0.929 . S
N1083 C1108 1.433 . S
N1083 C1114 1.435 . S
N1083 C1120 1.423 . S
H1084 C1110 0.930 . S
H1085 C1113 0.931 . S
H1086 C1112 0.929 . S
H1087 C1115 0.930 . S
H1088 C1116 0.932 . S
H1089 C1119 0.929 . S
H1090 C1118 0.931 . S
H1091 C1121 0.929 . S
H1092 C1125 0.932 . S
H1093 C1122 0.931 . S
H1094 C1124 0.929 . S
H1095 C1127 0.929 . S
H1096 C1128 0.930 . S
H1097 C1130 0.929 . S
H1098 C1131 0.931 . S
H1099 C1133 0.930 . S
H1100 C1134 0.932 . S
H1101 C1136 0.931 . S
H1102 C1137 0.929 . S
H1103 C1139 0.929 . S
H1104 C1140 0.931 . S
H1105 C1142 0.929 . S
N1106 C1126 1.433 . S
N1106 C1132 1.435 . S
N1106 C1138 1.423 . S
H1107 C1143 0.932 . S
C1108 N1083 1.433 . S
C1108 C1109 1.363 . S
C1108 C1113 1.370 . S
C1109 H1082 0.929 . S
C1109 C1108 1.363 . S
C1109 C1110 1.385 . S
C1110 H1084 0.930 . S
C1110 C1109 1.385 . S
C1110 C1111 1.357 . S
C1111 C1110 1.357 . S
C1111 C1112 1.406 . S
C1112 H1086 0.929 . S
C1112 C1111 1.406 . S
C1112 C1113 1.391 . S
C1113 H1085 0.931 . S
C1113 C1108 1.370 . S
C1113 C1112 1.391 . S
C1114 N1083 1.435 . S
C1114 C1115 1.358 . S
C1114 C1119 1.371 . S
C1115 H1087 0.930 . S
C1115 C1114 1.358 . S
C1115 C1116 1.405 . S
C1116 H1088 0.932 . S
C1116 C1115 1.405 . S
C1116 C1117 1.383 . S
C1117 C1116 1.383 . S
C1117 C1118 1.393 . S
C1118 H1090 0.931 . S
C1118 C1117 1.393 . S
C1118 C1119 1.382 . S
C1119 H1089 0.929 . S
C1119 C1114 1.371 . S
C1119 C1118 1.382 . S
C1120 N1083 1.423 . S
C1120 C1121 1.362 . S
C1120 C1125 1.388 . S
C1121 H1091 0.929 . S
C1121 C1120 1.362 . S
C1121 C1122 1.376 . S
C1122 H1093 0.931 . S
C1122 C1121 1.376 . S
C1122 C1123 1.396 . S
C1123 C1122 1.396 . S
C1123 C1124 1.348 . S
C1123 C1141 1.472 . S
C1124 H1094 0.929 . S
C1124 C1123 1.348 . S
C1124 C1125 1.443 . S
C1125 H1092 0.932 . S
C1125 C1120 1.388 . S
C1125 C1124 1.443 . S
C1126 N1106 1.433 . S
C1126 C1127 1.363 . S
C1126 C1131 1.370 . S
C1127 H1095 0.929 . S
C1127 C1126 1.363 . S
C1127 C1128 1.385 . S
C1128 H1096 0.930 . S
C1128 C1127 1.385 . S
C1128 C1129 1.357 . S
C1129 C1128 1.357 . S
C1129 C1130 1.406 . S
C1130 H1097 0.929 . S
C1130 C1129 1.406 . S
C1130 C1131 1.391 . S
C1131 H1098 0.931 . S
C1131 C1126 1.370 . S
C1131 C1130 1.391 . S
C1132 N1106 1.435 . S
C1132 C1133 1.358 . S
C1132 C1137 1.371 . S
C1133 H1099 0.930 . S
C1133 C1132 1.358 . S
C1133 C1134 1.405 . S
C1134 H1100 0.932 . S
C1134 C1133 1.405 . S
C1134 C1135 1.383 . S
C1135 C1134 1.383 . S
C1135 C1136 1.393 . S
C1136 H1101 0.931 . S
C1136 C1135 1.393 . S
C1136 C1137 1.382 . S
C1137 H1102 0.929 . S
C1137 C1132 1.371 . S
C1137 C1136 1.382 . S
C1138 N1106 1.423 . S
C1138 C1139 1.362 . S
C1138 C1143 1.388 . S
C1139 H1103 0.929 . S
C1139 C1138 1.362 . S
C1139 C1140 1.376 . S
C1140 H1104 0.931 . S
C1140 C1139 1.376 . S
C1140 C1141 1.396 . S
C1141 C1123 1.472 . S
C1141 C1140 1.396 . S
C1141 C1142 1.348 . S
C1142 H1105 0.929 . S
C1142 C1141 1.348 . S
C1142 C1143 1.443 . S
C1143 H1107 0.932 . S
C1143 C1138 1.388 . S
C1143 C1142 1.443 . S
H1144 C1171 0.929 . S
N1145 C1170 1.433 . S
N1145 C1176 1.435 . S
N1145 C1182 1.423 . S
H1146 C1172 0.930 . S
H1147 C1175 0.931 . S
H1148 C1174 0.929 . S
H1149 C1177 0.930 . S
H1150 C1178 0.932 . S
H1151 C1181 0.929 . S
H1152 C1180 0.931 . S
H1153 C1183 0.929 . S
H1154 C1187 0.932 . S
H1155 C1184 0.931 . S
H1156 C1186 0.929 . S
H1157 C1189 0.929 . S
H1158 C1190 0.930 . S
H1159 C1192 0.929 . S
H1160 C1193 0.931 . S
H1161 C1195 0.930 . S
H1162 C1196 0.932 . S
H1163 C1198 0.931 . S
H1164 C1199 0.929 . S
H1165 C1201 0.929 . S
H1166 C1202 0.931 . S
H1167 C1204 0.929 . S
N1168 C1188 1.433 . S
N1168 C1194 1.435 . S
N1168 C1200 1.423 . S
H1169 C1205 0.932 . S
C1170 N1145 1.433 . S
C1170 C1171 1.363 . S
C1170 C1175 1.370 . S
C1171 H1144 0.929 . S
C1171 C1170 1.363 . S
C1171 C1172 1.385 . S
C1172 H1146 0.930 . S
C1172 C1171 1.385 . S
C1172 C1173 1.357 . S
C1173 C1172 1.357 . S
C1173 C1174 1.406 . S
C1174 H1148 0.929 . S
C1174 C1173 1.406 . S
C1174 C1175 1.391 . S
C1175 H1147 0.931 . S
C1175 C1170 1.370 . S
C1175 C1174 1.391 . S
C1176 N1145 1.435 . S
C1176 C1177 1.358 . S
C1176 C1181 1.371 . S
C1177 H1149 0.930 . S
C1177 C1176 1.358 . S
C1177 C1178 1.405 . S
C1178 H1150 0.932 . S
C1178 C1177 1.405 . S
C1178 C1179 1.383 . S
C1179 C1178 1.383 . S
C1179 C1180 1.393 . S
C1180 H1152 0.931 . S
C1180 C1179 1.393 . S
C1180 C1181 1.382 . S
C1181 H1151 0.929 . S
C1181 C1176 1.371 . S
C1181 C1180 1.382 . S
C1182 N1145 1.423 . S
C1182 C1183 1.362 . S
C1182 C1187 1.388 . S
C1183 H1153 0.929 . S
C1183 C1182 1.362 . S
C1183 C1184 1.376 . S
C1184 H1155 0.931 . S
C1184 C1183 1.376 . S
C1184 C1185 1.396 . S
C1185 C1184 1.396 . S
C1185 C1186 1.348 . S
C1185 C1203 1.472 . S
C1186 H1156 0.929 . S
C1186 C1185 1.348 . S
C1186 C1187 1.443 . S
C1187 H1154 0.932 . S
C1187 C1182 1.388 . S
C1187 C1186 1.443 . S
C1188 N1168 1.433 . S
C1188 C1189 1.363 . S
C1188 C1193 1.370 . S
C1189 H1157 0.929 . S
C1189 C1188 1.363 . S
C1189 C1190 1.385 . S
C1190 H1158 0.930 . S
C1190 C1189 1.385 . S
C1190 C1191 1.357 . S
C1191 C1190 1.357 . S
C1191 C1192 1.406 . S
C1192 H1159 0.929 . S
C1192 C1191 1.406 . S
C1192 C1193 1.391 . S
C1193 H1160 0.931 . S
C1193 C1188 1.370 . S
C1193 C1192 1.391 . S
C1194 N1168 1.435 . S
C1194 C1195 1.358 . S
C1194 C1199 1.371 . S
C1195 H1161 0.930 . S
C1195 C1194 1.358 . S
C1195 C1196 1.405 . S
C1196 H1162 0.932 . S
C1196 C1195 1.405 . S
C1196 C1197 1.383 . S
C1197 C1196 1.383 . S
C1197 C1198 1.393 . S
C1198 H1163 0.931 . S
C1198 C1197 1.393 . S
C1198 C1199 1.382 . S
C1199 H1164 0.929 . S
C1199 C1194 1.371 . S
C1199 C1198 1.382 . S
C1200 N1168 1.423 . S
C1200 C1201 1.362 . S
C1200 C1205 1.388 . S
C1201 H1165 0.929 . S
C1201 C1200 1.362 . S
C1201 C1202 1.376 . S
C1202 H1166 0.931 . S
C1202 C1201 1.376 . S
C1202 C1203 1.396 . S
C1203 C1185 1.472 . S
C1203 C1202 1.396 . S
C1203 C1204 1.348 . S
C1204 H1167 0.929 . S
C1204 C1203 1.348 . S
C1204 C1205 1.443 . S
C1205 H1169 0.932 . S
C1205 C1200 1.388 . S
C1205 C1204 1.443 . S
H1206 C1233 0.929 . S
N1207 C1232 1.433 . S
N1207 C1238 1.435 . S
N1207 C1244 1.423 . S
H1208 C1234 0.930 . S
H1209 C1237 0.931 . S
H1210 C1236 0.929 . S
H1211 C1239 0.930 . S
H1212 C1240 0.932 . S
H1213 C1243 0.929 . S
H1214 C1242 0.931 . S
H1215 C1245 0.929 . S
H1216 C1249 0.932 1_655 S
H1217 C1246 0.931 . S
H1218 C1248 0.929 . S
H1219 C1251 0.929 . S
H1220 C1252 0.930 . S
H1221 C1254 0.929 . S
H1222 C1255 0.931 . S
H1223 C1257 0.930 . S
H1224 C1258 0.932 . S
H1225 C1260 0.931 . S
H1226 C1261 0.929 . S
H1227 C1263 0.929 . S
H1228 C1264 0.931 . S
H1229 C1266 0.929 . S
N1230 C1250 1.433 . S
N1230 C1256 1.435 . S
N1230 C1262 1.423 . S
H1231 C1267 0.932 1_655 S
C1232 N1207 1.433 . S
C1232 C1233 1.363 . S
C1232 C1237 1.370 1_455 S
C1233 H1206 0.929 . S
C1233 C1232 1.363 . S
C1233 C1234 1.385 . S
C1234 H1208 0.930 . S
C1234 C1233 1.385 . S
C1234 C1235 1.357 1_455 S
C1235 C1234 1.357 1_655 S
C1235 C1236 1.406 . S
C1236 H1210 0.929 . S
C1236 C1235 1.406 . S
C1236 C1237 1.391 . S
C1237 H1209 0.931 . S
C1237 C1232 1.370 1_655 S
C1237 C1236 1.391 . S
C1238 N1207 1.435 . S
C1238 C1239 1.358 1_455 S
C1238 C1243 1.371 . S
C1239 H1211 0.930 . S
C1239 C1238 1.358 1_655 S
C1239 C1240 1.405 . S
C1240 H1212 0.932 . S
C1240 C1239 1.405 . S
C1240 C1241 1.383 1_655 S
C1241 C1240 1.383 1_455 S
C1241 C1242 1.393 . S
C1242 H1214 0.931 . S
C1242 C1241 1.393 . S
C1242 C1243 1.382 . S
C1243 H1213 0.929 . S
C1243 C1238 1.371 . S
C1243 C1242 1.382 . S
C1244 N1207 1.423 . S
C1244 C1245 1.362 . S
C1244 C1249 1.388 . S
C1245 H1215 0.929 . S
C1245 C1244 1.362 . S
C1245 C1246 1.376 . S
C1246 H1217 0.931 . S
C1246 C1245 1.376 . S
C1246 C1247 1.396 . S
C1247 C1246 1.396 . S
C1247 C1248 1.348 . S
C1247 C1265 1.472 . S
C1248 H1218 0.929 . S
C1248 C1247 1.348 . S
C1248 C1249 1.443 . S
C1249 H1216 0.932 1_455 S
C1249 C1244 1.388 . S
C1249 C1248 1.443 . S
C1250 N1230 1.433 . S
C1250 C1251 1.363 . S
C1250 C1255 1.370 1_455 S
C1251 H1219 0.929 . S
C1251 C1250 1.363 . S
C1251 C1252 1.385 . S
C1252 H1220 0.930 . S
C1252 C1251 1.385 . S
C1252 C1253 1.357 1_455 S
C1253 C1252 1.357 1_655 S
C1253 C1254 1.406 . S
C1254 H1221 0.929 . S
C1254 C1253 1.406 . S
C1254 C1255 1.391 . S
C1255 H1222 0.931 . S
C1255 C1250 1.370 1_655 S
C1255 C1254 1.391 . S
C1256 N1230 1.435 . S
C1256 C1257 1.358 1_455 S
C1256 C1261 1.371 . S
C1257 H1223 0.930 . S
C1257 C1256 1.358 1_655 S
C1257 C1258 1.405 . S
C1258 H1224 0.932 . S
C1258 C1257 1.405 . S
C1258 C1259 1.383 1_655 S
C1259 C1258 1.383 1_455 S
C1259 C1260 1.393 . S
C1260 H1225 0.931 . S
C1260 C1259 1.393 . S
C1260 C1261 1.382 . S
C1261 H1226 0.929 . S
C1261 C1256 1.371 . S
C1261 C1260 1.382 . S
C1262 N1230 1.423 . S
C1262 C1263 1.362 . S
C1262 C1267 1.388 . S
C1263 H1227 0.929 . S
C1263 C1262 1.362 . S
C1263 C1264 1.376 . S
C1264 H1228 0.931 . S
C1264 C1263 1.376 . S
C1264 C1265 1.396 . S
C1265 C1247 1.472 . S
C1265 C1264 1.396 . S
C1265 C1266 1.348 . S
C1266 H1229 0.929 . S
C1266 C1265 1.348 . S
C1266 C1267 1.443 . S
C1267 H1231 0.932 1_455 S
C1267 C1262 1.388 . S
C1267 C1266 1.443 . S
H1268 C1295 0.929 . S
N1269 C1294 1.433 . S
N1269 C1300 1.435 . S
N1269 C1306 1.423 . S
H1270 C1296 0.930 . S
H1271 C1299 0.931 . S
H1272 C1298 0.929 . S
H1273 C1301 0.930 . S
H1274 C1302 0.932 . S
H1275 C1305 0.929 . S
H1276 C1304 0.931 . S
H1277 C1307 0.929 . S
H1278 C1311 0.932 . S
H1279 C1308 0.931 . S
H1280 C1310 0.929 . S
H1281 C1313 0.929 . S
H1282 C1314 0.930 . S
H1283 C1316 0.929 . S
H1284 C1317 0.931 . S
H1285 C1319 0.930 . S
H1286 C1320 0.932 . S
H1287 C1322 0.931 . S
H1288 C1323 0.929 . S
H1289 C1325 0.929 . S
H1290 C1326 0.931 . S
H1291 C1328 0.929 . S
N1292 C1312 1.433 . S
N1292 C1318 1.435 . S
N1292 C1324 1.423 . S
H1293 C1329 0.932 . S
C1294 N1269 1.433 . S
C1294 C1295 1.363 . S
C1294 C1299 1.370 . S
C1295 H1268 0.929 . S
C1295 C1294 1.363 . S
C1295 C1296 1.385 . S
C1296 H1270 0.930 . S
C1296 C1295 1.385 . S
C1296 C1297 1.357 . S
C1297 C1296 1.357 . S
C1297 C1298 1.406 . S
C1298 H1272 0.929 . S
C1298 C1297 1.406 . S
C1298 C1299 1.391 . S
C1299 H1271 0.931 . S
C1299 C1294 1.370 . S
C1299 C1298 1.391 . S
C1300 N1269 1.435 . S
C1300 C1301 1.358 . S
C1300 C1305 1.371 . S
C1301 H1273 0.930 . S
C1301 C1300 1.358 . S
C1301 C1302 1.405 . S
C1302 H1274 0.932 . S
C1302 C1301 1.405 . S
C1302 C1303 1.383 . S
C1303 C1302 1.383 . S
C1303 C1304 1.393 . S
C1304 H1276 0.931 . S
C1304 C1303 1.393 . S
C1304 C1305 1.382 . S
C1305 H1275 0.929 . S
C1305 C1300 1.371 . S
C1305 C1304 1.382 . S
C1306 N1269 1.423 . S
C1306 C1307 1.362 . S
C1306 C1311 1.388 . S
C1307 H1277 0.929 . S
C1307 C1306 1.362 . S
C1307 C1308 1.376 . S
C1308 H1279 0.931 . S
C1308 C1307 1.376 . S
C1308 C1309 1.396 . S
C1309 C1308 1.396 . S
C1309 C1310 1.348 . S
C1309 C1327 1.472 . S
C1310 H1280 0.929 . S
C1310 C1309 1.348 . S
C1310 C1311 1.443 . S
C1311 H1278 0.932 . S
C1311 C1306 1.388 . S
C1311 C1310 1.443 . S
C1312 N1292 1.433 . S
C1312 C1313 1.363 . S
C1312 C1317 1.370 . S
C1313 H1281 0.929 . S
C1313 C1312 1.363 . S
C1313 C1314 1.385 . S
C1314 H1282 0.930 . S
C1314 C1313 1.385 . S
C1314 C1315 1.357 . S
C1315 C1314 1.357 . S
C1315 C1316 1.406 . S
C1316 H1283 0.929 . S
C1316 C1315 1.406 . S
C1316 C1317 1.391 . S
C1317 H1284 0.931 . S
C1317 C1312 1.370 . S
C1317 C1316 1.391 . S
C1318 N1292 1.435 . S
C1318 C1319 1.358 . S
C1318 C1323 1.371 . S
C1319 H1285 0.930 . S
C1319 C1318 1.358 . S
C1319 C1320 1.405 . S
C1320 H1286 0.932 . S
C1320 C1319 1.405 . S
C1320 C1321 1.383 . S
C1321 C1320 1.383 . S
C1321 C1322 1.393 . S
C1322 H1287 0.931 . S
C1322 C1321 1.393 . S
C1322 C1323 1.382 . S
C1323 H1288 0.929 . S
C1323 C1318 1.371 . S
C1323 C1322 1.382 . S
C1324 N1292 1.423 . S
C1324 C1325 1.362 . S
C1324 C1329 1.388 . S
C1325 H1289 0.929 . S
C1325 C1324 1.362 . S
C1325 C1326 1.376 . S
C1326 H1290 0.931 . S
C1326 C1325 1.376 . S
C1326 C1327 1.396 . S
C1327 C1309 1.472 . S
C1327 C1326 1.396 . S
C1327 C1328 1.348 . S
C1328 H1291 0.929 . S
C1328 C1327 1.348 . S
C1328 C1329 1.443 . S
C1329 H1293 0.932 . S
C1329 C1324 1.388 . S
C1329 C1328 1.443 . S
H1330 C1357 0.929 . S
N1331 C1356 1.433 . S
N1331 C1362 1.435 . S
N1331 C1368 1.423 . S
H1332 C1358 0.930 . S
H1333 C1361 0.931 . S
H1334 C1360 0.929 . S
H1335 C1363 0.930 . S
H1336 C1364 0.932 . S
H1337 C1367 0.929 . S
H1338 C1366 0.931 . S
H1339 C1369 0.929 . S
H1340 C1373 0.932 1_545 S
H1341 C1370 0.931 . S
H1342 C1372 0.929 . S
H1343 C1375 0.929 . S
H1344 C1376 0.930 . S
H1345 C1378 0.929 . S
H1346 C1379 0.931 . S
H1347 C1381 0.930 . S
H1348 C1382 0.932 . S
H1349 C1384 0.931 . S
H1350 C1385 0.929 . S
H1351 C1387 0.929 . S
H1352 C1388 0.931 . S
H1353 C1390 0.929 . S
N1354 C1374 1.433 . S
N1354 C1380 1.435 . S
N1354 C1386 1.423 . S
H1355 C1391 0.932 1_545 S
C1356 N1331 1.433 . S
C1356 C1357 1.363 . S
C1356 C1361 1.370 1_565 S
C1357 H1330 0.929 . S
C1357 C1356 1.363 . S
C1357 C1358 1.385 . S
C1358 H1332 0.930 . S
C1358 C1357 1.385 . S
C1358 C1359 1.357 1_565 S
C1359 C1358 1.357 1_545 S
C1359 C1360 1.406 . S
C1360 H1334 0.929 . S
C1360 C1359 1.406 . S
C1360 C1361 1.391 . S
C1361 H1333 0.931 . S
C1361 C1356 1.370 1_545 S
C1361 C1360 1.391 . S
C1362 N1331 1.435 . S
C1362 C1363 1.358 1_565 S
C1362 C1367 1.371 . S
C1363 H1335 0.930 . S
C1363 C1362 1.358 1_545 S
C1363 C1364 1.405 . S
C1364 H1336 0.932 . S
C1364 C1363 1.405 . S
C1364 C1365 1.383 1_545 S
C1365 C1364 1.383 1_565 S
C1365 C1366 1.393 . S
C1366 H1338 0.931 . S
C1366 C1365 1.393 . S
C1366 C1367 1.382 . S
C1367 H1337 0.929 . S
C1367 C1362 1.371 . S
C1367 C1366 1.382 . S
C1368 N1331 1.423 . S
C1368 C1369 1.362 . S
C1368 C1373 1.388 . S
C1369 H1339 0.929 . S
C1369 C1368 1.362 . S
C1369 C1370 1.376 . S
C1370 H1341 0.931 . S
C1370 C1369 1.376 . S
C1370 C1371 1.396 . S
C1371 C1370 1.396 . S
C1371 C1372 1.348 . S
C1371 C1389 1.472 . S
C1372 H1342 0.929 . S
C1372 C1371 1.348 . S
C1372 C1373 1.443 . S
C1373 H1340 0.932 1_565 S
C1373 C1368 1.388 . S
C1373 C1372 1.443 . S
C1374 N1354 1.433 . S
C1374 C1375 1.363 . S
C1374 C1379 1.370 1_565 S
C1375 H1343 0.929 . S
C1375 C1374 1.363 . S
C1375 C1376 1.385 . S
C1376 H1344 0.930 . S
C1376 C1375 1.385 . S
C1376 C1377 1.357 1_565 S
C1377 C1376 1.357 1_545 S
C1377 C1378 1.406 . S
C1378 H1345 0.929 . S
C1378 C1377 1.406 . S
C1378 C1379 1.391 . S
C1379 H1346 0.931 . S
C1379 C1374 1.370 1_545 S
C1379 C1378 1.391 . S
C1380 N1354 1.435 . S
C1380 C1381 1.358 1_565 S
C1380 C1385 1.371 . S
C1381 H1347 0.930 . S
C1381 C1380 1.358 1_545 S
C1381 C1382 1.405 . S
C1382 H1348 0.932 . S
C1382 C1381 1.405 . S
C1382 C1383 1.383 1_545 S
C1383 C1382 1.383 1_565 S
C1383 C1384 1.393 . S
C1384 H1349 0.931 . S
C1384 C1383 1.393 . S
C1384 C1385 1.382 . S
C1385 H1350 0.929 . S
C1385 C1380 1.371 . S
C1385 C1384 1.382 . S
C1386 N1354 1.423 . S
C1386 C1387 1.362 . S
C1386 C1391 1.388 . S
C1387 H1351 0.929 . S
C1387 C1386 1.362 . S
C1387 C1388 1.376 . S
C1388 H1352 0.931 . S
C1388 C1387 1.376 . S
C1388 C1389 1.396 . S
C1389 C1371 1.472 . S
C1389 C1388 1.396 . S
C1389 C1390 1.348 . S
C1390 H1353 0.929 . S
C1390 C1389 1.348 . S
C1390 C1391 1.443 . S
C1391 H1355 0.932 1_565 S
C1391 C1386 1.388 . S
C1391 C1390 1.443 . S
H1392 C1419 0.929 . S
N1393 C1418 1.433 . S
N1393 C1424 1.435 . S
N1393 C1430 1.423 . S
H1394 C1420 0.930 . S
H1395 C1423 0.930 . S
H1396 C1422 0.929 . S
H1397 C1425 0.930 . S
H1398 C1426 0.932 . S
H1399 C1429 0.929 . S
H1400 C1428 0.931 . S
H1401 C1431 0.929 . S
H1402 C1435 0.932 . S
H1403 C1432 0.931 . S
H1404 C1434 0.917 1_545 S
H1405 C1437 0.929 . S
H1406 C1438 0.930 . S
H1407 C1440 0.929 . S
H1408 C1441 0.931 . S
H1409 C1443 0.930 . S
H1410 C1444 0.932 . S
H1411 C1446 0.931 . S
H1412 C1447 0.929 . S
H1413 C1449 0.929 . S
H1414 C1450 0.931 . S
H1415 C1452 0.891 1_545 S
N1416 C1436 1.433 . S
N1416 C1442 1.435 . S
N1416 C1448 1.423 . S
H1417 C1453 0.932 . S
C1418 N1393 1.433 . S
C1418 C1419 1.363 . S
C1418 C1423 1.361 1_565 S
C1419 H1392 0.929 . S
C1419 C1418 1.363 . S
C1419 C1420 1.385 . S
C1420 H1394 0.930 . S
C1420 C1419 1.385 . S
C1420 C1421 1.357 . S
C1421 C1420 1.357 . S
C1421 C1422 1.406 1_565 S
C1422 H1396 0.929 . S
C1422 C1421 1.406 1_545 S
C1422 C1423 1.407 . S
C1423 H1395 0.930 . S
C1423 C1418 1.361 1_545 S
C1423 C1422 1.407 . S
C1424 N1393 1.435 . S
C1424 C1425 1.358 1_565 S
C1424 C1429 1.371 . S
C1425 H1397 0.930 . S
C1425 C1424 1.358 1_545 S
C1425 C1426 1.405 . S
C1426 H1398 0.932 . S
C1426 C1425 1.405 . S
C1426 C1427 1.383 . S
C1427 C1426 1.383 . S
C1427 C1428 1.393 1_545 S
C1428 H1400 0.931 . S
C1428 C1427 1.393 1_565 S
C1428 C1429 1.382 . S
C1429 H1399 0.929 . S
C1429 C1424 1.371 . S
C1429 C1428 1.382 . S
C1430 N1393 1.423 . S
C1430 C1431 1.362 . S
C1430 C1435 1.388 1_565 S
C1431 H1401 0.929 . S
C1431 C1430 1.362 . S
C1431 C1432 1.376 . S
C1432 H1403 0.931 . S
C1432 C1431 1.376 . S
C1432 C1433 1.396 . S
C1433 C1432 1.396 . S
C1433 C1434 1.395 . S
C1433 C1451 1.472 . S
C1434 H1404 0.917 1_565 S
C1434 C1433 1.395 . S
C1434 C1435 1.409 1_565 S
C1435 H1402 0.932 . S
C1435 C1430 1.388 1_545 S
C1435 C1434 1.409 1_545 S
C1436 N1416 1.433 . S
C1436 C1437 1.363 . S
C1436 C1441 1.370 1_565 S
C1437 H1405 0.929 . S
C1437 C1436 1.363 . S
C1437 C1438 1.385 . S
C1438 H1406 0.930 . S
C1438 C1437 1.385 . S
C1438 C1439 1.357 . S
C1439 C1438 1.357 . S
C1439 C1440 1.406 1_565 S
C1440 H1407 0.929 . S
C1440 C1439 1.406 1_545 S
C1440 C1441 1.391 . S
C1441 H1408 0.931 . S
C1441 C1436 1.370 1_545 S
C1441 C1440 1.391 . S
C1442 N1416 1.435 . S
C1442 C1443 1.358 1_565 S
C1442 C1447 1.371 . S
C1443 H1409 0.930 . S
C1443 C1442 1.358 1_545 S
C1443 C1444 1.405 . S
C1444 H1410 0.932 . S
C1444 C1443 1.405 . S
C1444 C1445 1.383 . S
C1445 C1444 1.383 . S
C1445 C1446 1.393 1_545 S
C1446 H1411 0.931 . S
C1446 C1445 1.393 1_565 S
C1446 C1447 1.382 . S
C1447 H1412 0.929 . S
C1447 C1442 1.371 . S
C1447 C1446 1.382 . S
C1448 N1416 1.423 . S
C1448 C1449 1.362 . S
C1448 C1453 1.388 1_565 S
C1449 H1413 0.929 . S
C1449 C1448 1.362 . S
C1449 C1450 1.376 . S
C1450 H1414 0.931 . S
C1450 C1449 1.376 . S
C1450 C1451 1.396 . S
C1451 C1433 1.472 . S
C1451 C1450 1.396 . S
C1451 C1452 1.364 . S
C1452 H1415 0.891 1_565 S
C1452 C1451 1.364 . S
C1452 C1453 1.465 1_565 S
C1453 H1417 0.932 . S
C1453 C1448 1.388 1_545 S
C1453 C1452 1.465 1_545 S
H1454 C1481 0.929 . S
N1455 C1480 1.433 . S
N1455 C1486 1.435 . S
N1455 C1492 1.423 . S
H1456 C1482 0.930 . S
H1457 C1485 0.931 . S
H1458 C1484 0.929 . S
H1459 C1487 0.930 . S
H1460 C1488 0.932 . S
H1461 C1491 0.929 . S
H1462 C1490 0.931 . S
H1463 C1493 0.929 . S
H1464 C1497 0.932 1_455 S
H1465 C1494 0.931 . S
H1466 C1496 0.929 . S
H1467 C1499 0.929 . S
H1468 C1500 0.930 . S
H1469 C1502 0.929 . S
H1470 C1503 0.931 . S
H1471 C1505 0.930 . S
H1472 C1506 0.932 . S
H1473 C1508 0.931 . S
H1474 C1509 0.929 . S
H1475 C1511 0.929 . S
H1476 C1512 0.931 . S
H1477 C1514 0.929 . S
N1478 C1498 1.433 . S
N1478 C1504 1.435 . S
N1478 C1510 1.423 . S
H1479 C1515 0.932 1_455 S
C1480 N1455 1.433 . S
C1480 C1481 1.363 . S
C1480 C1485 1.370 1_655 S
C1481 H1454 0.929 . S
C1481 C1480 1.363 . S
C1481 C1482 1.385 . S
C1482 H1456 0.930 . S
C1482 C1481 1.385 . S
C1482 C1483 1.357 1_655 S
C1483 C1482 1.357 1_455 S
C1483 C1484 1.406 . S
C1484 H1458 0.929 . S
C1484 C1483 1.406 . S
C1484 C1485 1.391 . S
C1485 H1457 0.931 . S
C1485 C1480 1.370 1_455 S
C1485 C1484 1.391 . S
C1486 N1455 1.435 . S
C1486 C1487 1.358 1_655 S
C1486 C1491 1.371 . S
C1487 H1459 0.930 . S
C1487 C1486 1.358 1_455 S
C1487 C1488 1.405 . S
C1488 H1460 0.932 . S
C1488 C1487 1.405 . S
C1488 C1489 1.383 1_455 S
C1489 C1488 1.383 1_655 S
C1489 C1490 1.393 . S
C1490 H1462 0.931 . S
C1490 C1489 1.393 . S
C1490 C1491 1.382 . S
C1491 H1461 0.929 . S
C1491 C1486 1.371 . S
C1491 C1490 1.382 . S
C1492 N1455 1.423 . S
C1492 C1493 1.362 . S
C1492 C1497 1.388 . S
C1493 H1463 0.929 . S
C1493 C1492 1.362 . S
C1493 C1494 1.376 . S
C1494 H1465 0.931 . S
C1494 C1493 1.376 . S
C1494 C1495 1.396 . S
C1495 C1494 1.396 . S
C1495 C1496 1.348 . S
C1495 C1513 1.472 . S
C1496 H1466 0.929 . S
C1496 C1495 1.348 . S
C1496 C1497 1.443 . S
C1497 H1464 0.932 1_655 S
C1497 C1492 1.388 . S
C1497 C1496 1.443 . S
C1498 N1478 1.433 . S
C1498 C1499 1.363 . S
C1498 C1503 1.370 1_655 S
C1499 H1467 0.929 . S
C1499 C1498 1.363 . S
C1499 C1500 1.385 . S
C1500 H1468 0.930 . S
C1500 C1499 1.385 . S
C1500 C1501 1.357 1_655 S
C1501 C1500 1.357 1_455 S
C1501 C1502 1.406 . S
C1502 H1469 0.929 . S
C1502 C1501 1.406 . S
C1502 C1503 1.391 . S
C1503 H1470 0.931 . S
C1503 C1498 1.370 1_455 S
C1503 C1502 1.391 . S
C1504 N1478 1.435 . S
C1504 C1505 1.358 1_655 S
C1504 C1509 1.371 . S
C1505 H1471 0.930 . S
C1505 C1504 1.358 1_455 S
C1505 C1506 1.405 . S
C1506 H1472 0.932 . S
C1506 C1505 1.405 . S
C1506 C1507 1.383 1_455 S
C1507 C1506 1.383 1_655 S
C1507 C1508 1.393 . S
C1508 H1473 0.931 . S
C1508 C1507 1.393 . S
C1508 C1509 1.382 . S
C1509 H1474 0.929 . S
C1509 C1504 1.371 . S
C1509 C1508 1.382 . S
C1510 N1478 1.423 . S
C1510 C1511 1.362 . S
C1510 C1515 1.388 . S
C1511 H1475 0.929 . S
C1511 C1510 1.362 . S
C1511 C1512 1.376 . S
C1512 H1476 0.931 . S
C1512 C1511 1.376 . S
C1512 C1513 1.396 . S
C1513 C1495 1.472 . S
C1513 C1512 1.396 . S
C1513 C1514 1.348 . S
C1514 H1477 0.929 . S
C1514 C1513 1.348 . S
C1514 C1515 1.443 . S
C1515 H1479 0.932 1_655 S
C1515 C1510 1.388 . S
C1515 C1514 1.443 . S
H1516 C1543 0.929 . S
N1517 C1542 1.433 . S
N1517 C1548 1.435 . S
N1517 C1554 1.423 . S
H1518 C1544 0.930 . S
H1519 C1547 0.931 . S
H1520 C1546 0.929 . S
H1521 C1549 0.930 . S
H1522 C1550 0.932 . S
H1523 C1553 0.929 . S
H1524 C1552 0.931 . S
H1525 C1555 0.929 . S
H1526 C1559 0.932 . S
H1527 C1556 0.931 . S
H1528 C1558 0.929 . S
H1529 C1561 0.929 . S
H1530 C1562 0.930 . S
H1531 C1564 0.929 . S
H1532 C1565 0.931 . S
H1533 C1567 0.930 . S
H1534 C1568 0.932 . S
H1535 C1570 0.931 . S
H1536 C1571 0.929 . S
H1537 C1573 0.929 . S
H1538 C1574 0.931 . S
H1539 C1576 0.929 . S
N1540 C1560 1.433 . S
N1540 C1566 1.435 . S
N1540 C1572 1.423 . S
H1541 C1577 0.932 . S
C1542 N1517 1.433 . S
C1542 C1543 1.363 . S
C1542 C1547 1.370 . S
C1543 H1516 0.929 . S
C1543 C1542 1.363 . S
C1543 C1544 1.385 . S
C1544 H1518 0.930 . S
C1544 C1543 1.385 . S
C1544 C1545 1.357 . S
C1545 C1544 1.357 . S
C1545 C1546 1.406 . S
C1546 H1520 0.929 . S
C1546 C1545 1.406 . S
C1546 C1547 1.391 . S
C1547 H1519 0.931 . S
C1547 C1542 1.370 . S
C1547 C1546 1.391 . S
C1548 N1517 1.435 . S
C1548 C1549 1.358 . S
C1548 C1553 1.371 . S
C1549 H1521 0.930 . S
C1549 C1548 1.358 . S
C1549 C1550 1.405 . S
C1550 H1522 0.932 . S
C1550 C1549 1.405 . S
C1550 C1551 1.383 . S
C1551 C1550 1.383 . S
C1551 C1552 1.393 . S
C1552 H1524 0.931 . S
C1552 C1551 1.393 . S
C1552 C1553 1.382 . S
C1553 H1523 0.929 . S
C1553 C1548 1.371 . S
C1553 C1552 1.382 . S
C1554 N1517 1.423 . S
C1554 C1555 1.362 . S
C1554 C1559 1.388 . S
C1555 H1525 0.929 . S
C1555 C1554 1.362 . S
C1555 C1556 1.376 . S
C1556 H1527 0.931 . S
C1556 C1555 1.376 . S
C1556 C1557 1.396 . S
C1557 C1556 1.396 . S
C1557 C1558 1.348 . S
C1557 C1575 1.472 . S
C1558 H1528 0.929 . S
C1558 C1557 1.348 . S
C1558 C1559 1.443 . S
C1559 H1526 0.932 . S
C1559 C1554 1.388 . S
C1559 C1558 1.443 . S
C1560 N1540 1.433 . S
C1560 C1561 1.363 . S
C1560 C1565 1.370 . S
C1561 H1529 0.929 . S
C1561 C1560 1.363 . S
C1561 C1562 1.385 . S
C1562 H1530 0.930 . S
C1562 C1561 1.385 . S
C1562 C1563 1.357 . S
C1563 C1562 1.357 . S
C1563 C1564 1.406 . S
C1564 H1531 0.929 . S
C1564 C1563 1.406 . S
C1564 C1565 1.391 . S
C1565 H1532 0.931 . S
C1565 C1560 1.370 . S
C1565 C1564 1.391 . S
C1566 N1540 1.435 . S
C1566 C1567 1.358 . S
C1566 C1571 1.371 . S
C1567 H1533 0.930 . S
C1567 C1566 1.358 . S
C1567 C1568 1.405 . S
C1568 H1534 0.932 . S
C1568 C1567 1.405 . S
C1568 C1569 1.383 . S
C1569 C1568 1.383 . S
C1569 C1570 1.393 . S
C1570 H1535 0.931 . S
C1570 C1569 1.393 . S
C1570 C1571 1.382 . S
C1571 H1536 0.929 . S
C1571 C1566 1.371 . S
C1571 C1570 1.382 . S
C1572 N1540 1.423 . S
C1572 C1573 1.362 . S
C1572 C1577 1.388 . S
C1573 H1537 0.929 . S
C1573 C1572 1.362 . S
C1573 C1574 1.376 . S
C1574 H1538 0.931 . S
C1574 C1573 1.376 . S
C1574 C1575 1.396 . S
C1575 C1557 1.472 . S
C1575 C1574 1.396 . S
C1575 C1576 1.348 . S
C1576 H1539 0.929 . S
C1576 C1575 1.348 . S
C1576 C1577 1.443 . S
C1577 H1541 0.932 . S
C1577 C1572 1.388 . S
C1577 C1576 1.443 . S
H1578 C1605 0.929 . S
N1579 C1604 1.433 . S
N1579 C1610 1.435 . S
N1579 C1616 1.423 . S
H1580 C1606 0.930 . S
H1581 C1609 0.931 . S
H1582 C1608 0.929 . S
H1583 C1611 0.930 . S
H1584 C1612 0.932 . S
H1585 C1615 0.929 . S
H1586 C1614 0.931 . S
H1587 C1617 0.929 . S
H1588 C1621 0.932 . S
H1589 C1618 0.931 . S
H1590 C1620 0.929 . S
H1591 C1623 0.929 . S
H1592 C1624 0.930 . S
H1593 C1626 0.929 . S
H1594 C1627 0.931 . S
H1595 C1629 0.930 . S
H1596 C1630 0.932 . S
H1597 C1632 0.931 . S
H1598 C1633 0.929 . S
H1599 C1635 0.929 . S
H1600 C1636 0.931 . S
H1601 C1638 0.929 . S
N1602 C1622 1.433 . S
N1602 C1628 1.435 . S
N1602 C1634 1.423 . S
H1603 C1639 0.932 . S
C1604 N1579 1.433 . S
C1604 C1605 1.363 . S
C1604 C1609 1.370 . S
C1605 H1578 0.929 . S
C1605 C1604 1.363 . S
C1605 C1606 1.385 . S
C1606 H1580 0.930 . S
C1606 C1605 1.385 . S
C1606 C1607 1.357 . S
C1607 C1606 1.357 . S
C1607 C1608 1.406 . S
C1608 H1582 0.929 . S
C1608 C1607 1.406 . S
C1608 C1609 1.391 . S
C1609 H1581 0.931 . S
C1609 C1604 1.370 . S
C1609 C1608 1.391 . S
C1610 N1579 1.435 . S
C1610 C1611 1.358 . S
C1610 C1615 1.371 . S
C1611 H1583 0.930 . S
C1611 C1610 1.358 . S
C1611 C1612 1.405 . S
C1612 H1584 0.932 . S
C1612 C1611 1.405 . S
C1612 C1613 1.383 . S
C1613 C1612 1.383 . S
C1613 C1614 1.393 . S
C1614 H1586 0.931 . S
C1614 C1613 1.393 . S
C1614 C1615 1.382 . S
C1615 H1585 0.929 . S
C1615 C1610 1.371 . S
C1615 C1614 1.382 . S
C1616 N1579 1.423 . S
C1616 C1617 1.362 . S
C1616 C1621 1.388 . S
C1617 H1587 0.929 . S
C1617 C1616 1.362 . S
C1617 C1618 1.376 . S
C1618 H1589 0.931 . S
C1618 C1617 1.376 . S
C1618 C1619 1.396 . S
C1619 C1618 1.396 . S
C1619 C1620 1.348 . S
C1619 C1637 1.472 . S
C1620 H1590 0.929 . S
C1620 C1619 1.348 . S
C1620 C1621 1.443 . S
C1621 H1588 0.932 . S
C1621 C1616 1.388 . S
C1621 C1620 1.443 . S
C1622 N1602 1.433 . S
C1622 C1623 1.363 . S
C1622 C1627 1.370 . S
C1623 H1591 0.929 . S
C1623 C1622 1.363 . S
C1623 C1624 1.385 . S
C1624 H1592 0.930 . S
C1624 C1623 1.385 . S
C1624 C1625 1.357 . S
C1625 C1624 1.357 . S
C1625 C1626 1.406 . S
C1626 H1593 0.929 . S
C1626 C1625 1.406 . S
C1626 C1627 1.391 . S
C1627 H1594 0.931 . S
C1627 C1622 1.370 . S
C1627 C1626 1.391 . S
C1628 N1602 1.435 . S
C1628 C1629 1.358 . S
C1628 C1633 1.371 . S
C1629 H1595 0.930 . S
C1629 C1628 1.358 . S
C1629 C1630 1.405 . S
C1630 H1596 0.932 . S
C1630 C1629 1.405 . S
C1630 C1631 1.383 . S
C1631 C1630 1.383 . S
C1631 C1632 1.393 . S
C1632 H1597 0.931 . S
C1632 C1631 1.393 . S
C1632 C1633 1.382 . S
C1633 H1598 0.929 . S
C1633 C1628 1.371 . S
C1633 C1632 1.382 . S
C1634 N1602 1.423 . S
C1634 C1635 1.362 . S
C1634 C1639 1.388 . S
C1635 H1599 0.929 . S
C1635 C1634 1.362 . S
C1635 C1636 1.376 . S
C1636 H1600 0.931 . S
C1636 C1635 1.376 . S
C1636 C1637 1.396 . S
C1637 C1619 1.472 . S
C1637 C1636 1.396 . S
C1637 C1638 1.348 . S
C1638 H1601 0.929 . S
C1638 C1637 1.348 . S
C1638 C1639 1.443 . S
C1639 H1603 0.932 . S
C1639 C1634 1.388 . S
C1639 C1638 1.443 . S
H1640 C1667 0.929 . S
N1641 C1666 1.433 . S
N1641 C1672 1.435 . S
N1641 C1678 1.423 . S
H1642 C1668 0.930 . S
H1643 C1671 0.931 . S
H1644 C1670 0.929 . S
H1645 C1673 0.930 . S
H1646 C1674 0.932 . S
H1647 C1677 0.929 . S
H1648 C1676 0.931 . S
H1649 C1679 0.929 . S
H1650 C1683 0.932 . S
H1651 C1680 0.931 . S
H1652 C1682 0.929 . S
H1653 C1685 0.929 . S
H1654 C1686 0.930 . S
H1655 C1688 0.929 . S
H1656 C1689 0.931 . S
H1657 C1691 0.930 . S
H1658 C1692 0.932 . S
H1659 C1694 0.931 . S
H1660 C1695 0.929 . S
H1661 C1697 0.929 . S
H1662 C1698 0.931 . S
H1663 C1700 0.929 . S
N1664 C1684 1.433 . S
N1664 C1690 1.435 . S
N1664 C1696 1.423 . S
H1665 C1701 0.932 . S
C1666 N1641 1.433 . S
C1666 C1667 1.363 . S
C1666 C1671 1.370 . S
C1667 H1640 0.929 . S
C1667 C1666 1.363 . S
C1667 C1668 1.385 . S
C1668 H1642 0.930 . S
C1668 C1667 1.385 . S
C1668 C1669 1.357 . S
C1669 C1668 1.357 . S
C1669 C1670 1.406 . S
C1670 H1644 0.929 . S
C1670 C1669 1.406 . S
C1670 C1671 1.391 . S
C1671 H1643 0.931 . S
C1671 C1666 1.370 . S
C1671 C1670 1.391 . S
C1672 N1641 1.435 . S
C1672 C1673 1.358 . S
C1672 C1677 1.371 . S
C1673 H1645 0.930 . S
C1673 C1672 1.358 . S
C1673 C1674 1.405 . S
C1674 H1646 0.932 . S
C1674 C1673 1.405 . S
C1674 C1675 1.383 . S
C1675 C1674 1.383 . S
C1675 C1676 1.393 . S
C1676 H1648 0.931 . S
C1676 C1675 1.393 . S
C1676 C1677 1.382 . S
C1677 H1647 0.929 . S
C1677 C1672 1.371 . S
C1677 C1676 1.382 . S
C1678 N1641 1.423 . S
C1678 C1679 1.362 . S
C1678 C1683 1.388 . S
C1679 H1649 0.929 . S
C1679 C1678 1.362 . S
C1679 C1680 1.376 . S
C1680 H1651 0.931 . S
C1680 C1679 1.376 . S
C1680 C1681 1.396 . S
C1681 C1680 1.396 . S
C1681 C1682 1.348 . S
C1681 C1699 1.472 . S
C1682 H1652 0.929 . S
C1682 C1681 1.348 . S
C1682 C1683 1.443 . S
C1683 H1650 0.932 . S
C1683 C1678 1.388 . S
C1683 C1682 1.443 . S
C1684 N1664 1.433 . S
C1684 C1685 1.363 . S
C1684 C1689 1.370 . S
C1685 H1653 0.929 . S
C1685 C1684 1.363 . S
C1685 C1686 1.385 . S
C1686 H1654 0.930 . S
C1686 C1685 1.385 . S
C1686 C1687 1.357 . S
C1687 C1686 1.357 . S
C1687 C1688 1.406 . S
C1688 H1655 0.929 . S
C1688 C1687 1.406 . S
C1688 C1689 1.391 . S
C1689 H1656 0.931 . S
C1689 C1684 1.370 . S
C1689 C1688 1.391 . S
C1690 N1664 1.435 . S
C1690 C1691 1.358 . S
C1690 C1695 1.371 . S
C1691 H1657 0.930 . S
C1691 C1690 1.358 . S
C1691 C1692 1.405 . S
C1692 H1658 0.932 . S
C1692 C1691 1.405 . S
C1692 C1693 1.383 . S
C1693 C1692 1.383 . S
C1693 C1694 1.393 . S
C1694 H1659 0.931 . S
C1694 C1693 1.393 . S
C1694 C1695 1.382 . S
C1695 H1660 0.929 . S
C1695 C1690 1.371 . S
C1695 C1694 1.382 . S
C1696 N1664 1.423 . S
C1696 C1697 1.362 . S
C1696 C1701 1.388 . S
C1697 H1661 0.929 . S
C1697 C1696 1.362 . S
C1697 C1698 1.376 . S
C1698 H1662 0.931 . S
C1698 C1697 1.376 . S
C1698 C1699 1.396 . S
C1699 C1681 1.472 . S
C1699 C1698 1.396 . S
C1699 C1700 1.348 . S
C1700 H1663 0.929 . S
C1700 C1699 1.348 . S
C1700 C1701 1.443 . S
C1701 H1665 0.932 . S
C1701 C1696 1.388 . S
C1701 C1700 1.443 . S
H1702 C1729 0.929 . S
N1703 C1728 1.433 . S
N1703 C1734 1.435 . S
N1703 C1740 1.423 . S
H1704 C1730 0.930 . S
H1705 C1733 0.931 . S
H1706 C1732 0.929 . S
H1707 C1735 0.930 . S
H1708 C1736 0.932 . S
H1709 C1739 0.929 . S
H1710 C1738 0.931 . S
H1711 C1741 0.929 . S
H1712 C1745 0.932 . S
H1713 C1742 0.931 . S
H1714 C1744 0.929 . S
H1715 C1747 0.929 . S
H1716 C1748 0.930 . S
H1717 C1750 0.929 . S
H1718 C1751 0.931 . S
H1719 C1753 0.930 . S
H1720 C1754 0.932 . S
H1721 C1756 0.931 . S
H1722 C1757 0.929 . S
H1723 C1759 0.929 . S
H1724 C1760 0.931 . S
H1725 C1762 0.929 . S
N1726 C1746 1.433 . S
N1726 C1752 1.435 . S
N1726 C1758 1.423 . S
H1727 C1763 0.932 . S
C1728 N1703 1.433 . S
C1728 C1729 1.363 . S
C1728 C1733 1.370 . S
C1729 H1702 0.929 . S
C1729 C1728 1.363 . S
C1729 C1730 1.385 . S
C1730 H1704 0.930 . S
C1730 C1729 1.385 . S
C1730 C1731 1.357 . S
C1731 C1730 1.357 . S
C1731 C1732 1.406 . S
C1732 H1706 0.929 . S
C1732 C1731 1.406 . S
C1732 C1733 1.391 . S
C1733 H1705 0.931 . S
C1733 C1728 1.370 . S
C1733 C1732 1.391 . S
C1734 N1703 1.435 . S
C1734 C1735 1.358 . S
C1734 C1739 1.371 . S
C1735 H1707 0.930 . S
C1735 C1734 1.358 . S
C1735 C1736 1.405 . S
C1736 H1708 0.932 . S
C1736 C1735 1.405 . S
C1736 C1737 1.383 . S
C1737 C1736 1.383 . S
C1737 C1738 1.393 . S
C1738 H1710 0.931 . S
C1738 C1737 1.393 . S
C1738 C1739 1.382 . S
C1739 H1709 0.929 . S
C1739 C1734 1.371 . S
C1739 C1738 1.382 . S
C1740 N1703 1.423 . S
C1740 C1741 1.362 . S
C1740 C1745 1.388 . S
C1741 H1711 0.929 . S
C1741 C1740 1.362 . S
C1741 C1742 1.376 . S
C1742 H1713 0.931 . S
C1742 C1741 1.376 . S
C1742 C1743 1.396 . S
C1743 C1742 1.396 . S
C1743 C1744 1.348 . S
C1743 C1761 1.472 . S
C1744 H1714 0.929 . S
C1744 C1743 1.348 . S
C1744 C1745 1.443 . S
C1745 H1712 0.932 . S
C1745 C1740 1.388 . S
C1745 C1744 1.443 . S
C1746 N1726 1.433 . S
C1746 C1747 1.363 . S
C1746 C1751 1.370 . S
C1747 H1715 0.929 . S
C1747 C1746 1.363 . S
C1747 C1748 1.385 . S
C1748 H1716 0.930 . S
C1748 C1747 1.385 . S
C1748 C1749 1.357 . S
C1749 C1748 1.357 . S
C1749 C1750 1.406 . S
C1750 H1717 0.929 . S
C1750 C1749 1.406 . S
C1750 C1751 1.391 . S
C1751 H1718 0.931 . S
C1751 C1746 1.370 . S
C1751 C1750 1.391 . S
C1752 N1726 1.435 . S
C1752 C1753 1.358 . S
C1752 C1757 1.371 . S
C1753 H1719 0.930 . S
C1753 C1752 1.358 . S
C1753 C1754 1.405 . S
C1754 H1720 0.932 . S
C1754 C1753 1.405 . S
C1754 C1755 1.383 . S
C1755 C1754 1.383 . S
C1755 C1756 1.393 . S
C1756 H1721 0.931 . S
C1756 C1755 1.393 . S
C1756 C1757 1.382 . S
C1757 H1722 0.929 . S
C1757 C1752 1.371 . S
C1757 C1756 1.382 . S
C1758 N1726 1.423 . S
C1758 C1759 1.362 . S
C1758 C1763 1.388 . S
C1759 H1723 0.929 . S
C1759 C1758 1.362 . S
C1759 C1760 1.376 . S
C1760 H1724 0.931 . S
C1760 C1759 1.376 . S
C1760 C1761 1.396 . S
C1761 C1743 1.472 . S
C1761 C1760 1.396 . S
C1761 C1762 1.348 . S
C1762 H1725 0.929 . S
C1762 C1761 1.348 . S
C1762 C1763 1.443 . S
C1763 H1727 0.932 . S
C1763 C1758 1.388 . S
C1763 C1762 1.443 . S
C1764 C1765 1.387 1_455 S
C1764 H1768 0.950 . S
C1764 C1773 1.390 . S
C1765 C1764 1.387 1_655 S
C1765 C1767 1.387 . S
H1766 C1773 0.950 . S
C1767 C1765 1.387 . S
C1767 C1769 1.390 . S
C1767 H1771 0.950 . S
H1768 C1764 0.950 . S
C1769 C1767 1.390 . S
C1769 C1770 1.387 . S
C1769 H1772 0.950 . S
C1770 C1769 1.387 . S
C1770 C1773 1.387 1_655 S
H1771 C1767 0.950 . S
H1772 C1769 0.950 . S
C1773 C1764 1.390 . S
C1773 H1766 0.950 . S
C1773 C1770 1.387 1_455 S
C1774 C1775 1.387 . S
C1774 H1778 0.950 . S
C1774 C1783 1.390 . S
C1775 C1774 1.387 . S
C1775 C1777 1.387 . S
H1776 C1783 0.950 . S
C1777 C1775 1.387 . S
C1777 C1779 1.390 . S
C1777 H1781 0.950 . S
H1778 C1774 0.950 . S
C1779 C1777 1.390 . S
C1779 C1780 1.387 . S
C1779 H1782 0.950 . S
C1780 C1779 1.387 . S
C1780 C1783 1.387 . S
H1781 C1777 0.950 . S
H1782 C1779 0.950 . S
C1783 C1774 1.390 . S
C1783 H1776 0.950 . S
C1783 C1780 1.387 . S
C1784 C1785 1.387 1_565 S
C1784 H1788 0.950 . S
C1784 C1793 1.390 . S
C1785 C1784 1.387 1_545 S
C1785 C1787 1.387 . S
H1786 C1793 0.950 . S
C1787 C1785 1.387 . S
C1787 C1789 1.390 . S
C1787 H1791 0.950 . S
H1788 C1784 0.950 . S
C1789 C1787 1.390 . S
C1789 C1790 1.387 . S
C1789 H1792 0.950 . S
C1790 C1789 1.387 . S
C1790 C1793 1.387 1_545 S
H1791 C1787 0.950 . S
H1792 C1789 0.950 . S
C1793 C1784 1.390 . S
C1793 H1786 0.950 . S
C1793 C1790 1.387 1_565 S
C1794 C1795 1.387 . S
C1794 H1798 0.950 . S
C1794 C1803 1.390 . S
C1795 C1794 1.387 . S
C1795 C1797 1.387 1_565 S
H1796 C1803 0.950 . S
C1797 C1795 1.387 1_545 S
C1797 C1799 1.390 . S
C1797 H1801 0.950 . S
H1798 C1794 0.950 . S
C1799 C1797 1.390 . S
C1799 C1800 1.387 1_545 S
C1799 H1802 0.950 . S
C1800 C1799 1.387 1_565 S
C1800 C1803 1.387 . S
H1801 C1797 0.950 . S
H1802 C1799 0.950 . S
C1803 C1794 1.390 . S
C1803 H1796 0.950 . S
C1803 C1800 1.387 . S
C1804 C1805 1.387 . S
C1804 H1808 0.950 . S
C1804 C1813 1.390 . S
C1805 C1804 1.387 . S
C1805 C1807 1.387 1_455 S
H1806 C1813 0.950 . S
C1807 C1805 1.387 1_655 S
C1807 C1809 1.390 . S
C1807 H1811 0.950 . S
H1808 C1804 0.950 . S
C1809 C1807 1.390 . S
C1809 C1810 1.387 1_655 S
C1809 H1812 0.950 . S
C1810 C1809 1.387 1_455 S
C1810 C1813 1.387 . S
H1811 C1807 0.950 . S
H1812 C1809 0.950 . S
C1813 C1804 1.390 . S
C1813 H1806 0.950 . S
C1813 C1810 1.387 . S
C1814 C1815 1.387 . S
C1814 H1818 0.950 . S
C1814 C1823 1.390 . S
C1815 C1814 1.387 . S
C1815 C1817 1.387 . S
H1816 C1823 0.950 . S
C1817 C1815 1.387 . S
C1817 C1819 1.390 . S
C1817 H1821 0.950 . S
H1818 C1814 0.950 . S
C1819 C1817 1.390 . S
C1819 C1820 1.387 . S
C1819 H1822 0.950 . S
C1820 C1819 1.387 . S
C1820 C1823 1.387 . S
H1821 C1817 0.950 . S
H1822 C1819 0.950 . S
C1823 C1814 1.390 . S
C1823 H1816 0.950 . S
C1823 C1820 1.387 . S
C1824 C1825 1.387 . S
C1824 H1828 0.950 . S
C1824 C1833 1.390 . S
C1825 C1824 1.387 . S
C1825 C1827 1.387 1_455 S
H1826 C1833 0.950 . S
C1827 C1825 1.387 1_655 S
C1827 C1829 1.390 . S
C1827 H1831 0.950 . S
H1828 C1824 0.950 . S
C1829 C1827 1.390 . S
C1829 C1830 1.387 1_655 S
C1829 H1832 0.950 . S
C1830 C1829 1.387 1_455 S
C1830 C1833 1.387 . S
H1831 C1827 0.950 . S
H1832 C1829 0.950 . S
C1833 C1824 1.390 . S
C1833 H1826 0.950 . S
C1833 C1830 1.387 . S
C1834 C1835 1.387 . S
C1834 H1838 0.950 . S
C1834 C1843 1.390 . S
C1835 C1834 1.387 . S
C1835 C1837 1.387 . S
H1836 C1843 0.950 . S
C1837 C1835 1.387 . S
C1837 C1839 1.390 . S
C1837 H1841 0.950 . S
H1838 C1834 0.950 . S
C1839 C1837 1.390 . S
C1839 C1840 1.387 . S
C1839 H1842 0.950 . S
C1840 C1839 1.387 . S
C1840 C1843 1.387 . S
H1841 C1837 0.950 . S
H1842 C1839 0.950 . S
C1843 C1834 1.390 . S
C1843 H1836 0.950 . S
C1843 C1840 1.387 . S
C1844 C1845 1.387 1_545 S
C1844 H1848 0.950 . S
C1844 C1853 1.390 . S
C1845 C1844 1.387 1_565 S
C1845 C1847 1.387 . S
H1846 C1853 0.950 . S
C1847 C1845 1.387 . S
C1847 C1849 1.390 . S
C1847 H1851 0.950 . S
H1848 C1844 0.950 . S
C1849 C1847 1.390 . S
C1849 C1850 1.387 . S
C1849 H1852 0.950 . S
C1850 C1849 1.387 . S
C1850 C1853 1.387 1_565 S
H1851 C1847 0.950 . S
H1852 C1849 0.950 . S
C1853 C1844 1.390 . S
C1853 H1846 0.950 . S
C1853 C1850 1.387 1_545 S
C1854 C1855 1.387 . S
C1854 H1858 0.950 . S
C1854 C1863 1.390 . S
C1855 C1854 1.387 . S
C1855 C1857 1.387 1_545 S
H1856 C1863 0.950 . S
C1857 C1855 1.387 1_565 S
C1857 C1859 1.390 . S
C1857 H1861 0.950 . S
H1858 C1854 0.950 . S
C1859 C1857 1.390 . S
C1859 C1860 1.387 1_565 S
C1859 H1862 0.950 . S
C1860 C1859 1.387 1_545 S
C1860 C1863 1.387 . S
H1861 C1857 0.950 . S
H1862 C1859 0.950 . S
C1863 C1854 1.390 . S
C1863 H1856 0.950 . S
C1863 C1860 1.387 . S
C1864 C1865 1.387 . S
C1864 H1868 0.950 . S
C1864 C1873 1.390 . S
C1865 C1864 1.387 . S
C1865 C1867 1.387 1_655 S
H1866 C1873 0.950 . S
C1867 C1865 1.387 1_455 S
C1867 C1869 1.390 . S
C1867 H1871 0.950 . S
H1868 C1864 0.950 . S
C1869 C1867 1.390 . S
C1869 C1870 1.387 1_455 S
C1869 H1872 0.950 . S
C1870 C1869 1.387 1_655 S
C1870 C1873 1.387 . S
H1871 C1867 0.950 . S
H1872 C1869 0.950 . S
C1873 C1864 1.390 . S
C1873 H1866 0.950 . S
C1873 C1870 1.387 . S
C1874 C1875 1.387 . S
C1874 H1878 0.950 . S
C1874 C1883 1.390 . S
C1875 C1874 1.387 . S
C1875 C1877 1.387 . S
H1876 C1883 0.950 . S
C1877 C1875 1.387 . S
C1877 C1879 1.390 . S
C1877 H1881 0.950 . S
H1878 C1874 0.950 . S
C1879 C1877 1.390 . S
C1879 C1880 1.387 . S
C1879 H1882 0.950 . S
C1880 C1879 1.387 . S
C1880 C1883 1.387 . S
H1881 C1877 0.950 . S
H1882 C1879 0.950 . S
C1883 C1874 1.390 . S
C1883 H1876 0.950 . S
C1883 C1880 1.387 . S
C1884 C1885 1.387 . S
C1884 H1888 0.950 . S
C1884 C1893 1.390 . S
C1885 C1884 1.387 . S
C1885 C1887 1.387 . S
H1886 C1893 0.950 . S
C1887 C1885 1.387 . S
C1887 C1889 1.390 . S
C1887 H1891 0.950 . S
H1888 C1884 0.950 . S
C1889 C1887 1.390 . S
C1889 C1890 1.387 . S
C1889 H1892 0.950 . S
C1890 C1889 1.387 . S
C1890 C1893 1.387 . S
H1891 C1887 0.950 . S
H1892 C1889 0.950 . S
C1893 C1884 1.390 . S
C1893 H1886 0.950 . S
C1893 C1890 1.387 . S
C1894 C1895 1.387 . S
C1894 H1898 0.950 . S
C1894 C1903 1.390 . S
C1895 C1894 1.387 . S
C1895 C1897 1.387 . S
H1896 C1903 0.950 . S
C1897 C1895 1.387 . S
C1897 C1899 1.390 . S
C1897 H1901 0.950 . S
H1898 C1894 0.950 . S
C1899 C1897 1.390 . S
C1899 C1900 1.387 . S
C1899 H1902 0.950 . S
C1900 C1899 1.387 . S
C1900 C1903 1.387 . S
H1901 C1897 0.950 . S
H1902 C1899 0.950 . S
C1903 C1894 1.390 . S
C1903 H1896 0.950 . S
C1903 C1900 1.387 . S
C1904 C1905 1.387 . S
C1904 H1908 0.950 . S
C1904 C1913 1.390 . S
C1905 C1904 1.387 . S
C1905 C1907 1.387 . S
H1906 C1913 0.950 . S
C1907 C1905 1.387 . S
C1907 C1909 1.390 . S
C1907 H1911 0.950 . S
H1908 C1904 0.950 . S
C1909 C1907 1.390 . S
C1909 C1910 1.387 . S
C1909 H1912 0.950 . S
C1910 C1909 1.387 . S
C1910 C1913 1.387 . S
H1911 C1907 0.950 . S
H1912 C1909 0.950 . S
C1913 C1904 1.390 . S
C1913 H1906 0.950 . S
C1913 C1910 1.387 . S
C1914 C1915 1.387 . S
C1914 H1918 0.950 . S
C1914 C1923 1.390 . S
C1915 C1914 1.387 . S
C1915 C1917 1.387 . S
H1916 C1923 0.950 . S
C1917 C1915 1.387 . S
C1917 C1919 1.390 . S
C1917 H1921 0.950 . S
H1918 C1914 0.950 . S
C1919 C1917 1.390 . S
C1919 C1920 1.387 . S
C1919 H1922 0.950 . S
C1920 C1919 1.387 . S
C1920 C1923 1.387 . S
H1921 C1917 0.950 . S
H1922 C1919 0.950 . S
C1923 C1914 1.390 . S
C1923 H1916 0.950 . S
C1923 C1920 1.387 . S
C1924 C1925 1.387 . S
C1924 H1928 0.950 . S
C1924 C1933 1.390 . S
C1925 C1924 1.387 . S
C1925 C1927 1.387 . S
H1926 C1933 0.950 . S
C1927 C1925 1.387 . S
C1927 C1929 1.390 . S
C1927 H1931 0.950 . S
H1928 C1924 0.950 . S
C1929 C1927 1.390 . S
C1929 C1930 1.387 . S
C1929 H1932 0.950 . S
C1930 C1929 1.387 . S
C1930 C1933 1.387 . S
H1931 C1927 0.950 . S
H1932 C1929 0.950 . S
C1933 C1924 1.390 . S
C1933 H1926 0.950 . S
C1933 C1930 1.387 . S
C1934 C1935 1.387 . S
C1934 H1938 0.950 . S
C1934 C1943 1.390 . S
C1935 C1934 1.387 . S
C1935 C1937 1.387 . S
H1936 C1943 0.950 . S
C1937 C1935 1.387 . S
C1937 C1939 1.390 . S
C1937 H1941 0.950 . S
H1938 C1934 0.950 . S
C1939 C1937 1.390 . S
C1939 C1940 1.387 . S
C1939 H1942 0.950 . S
C1940 C1939 1.387 . S
C1940 C1943 1.387 . S
H1941 C1937 0.950 . S
H1942 C1939 0.950 . S
C1943 C1934 1.390 . S
C1943 H1936 0.950 . S
C1943 C1940 1.387 . S
C1944 C1945 1.387 . S
C1944 H1948 0.950 . S
C1944 C1953 1.390 . S
C1945 C1944 1.387 . S
C1945 C1947 1.387 . S
H1946 C1953 0.950 . S
C1947 C1945 1.387 . S
C1947 C1949 1.390 . S
C1947 H1951 0.950 . S
H1948 C1944 0.950 . S
C1949 C1947 1.390 . S
C1949 C1950 1.387 . S
C1949 H1952 0.950 . S
C1950 C1949 1.387 . S
C1950 C1953 1.387 . S
H1951 C1947 0.950 . S
H1952 C1949 0.950 . S
C1953 C1944 1.390 . S
C1953 H1946 0.950 . S
C1953 C1950 1.387 . S
C1954 C1955 1.387 . S
C1954 H1958 0.950 . S
C1954 C1963 1.390 . S
C1955 C1954 1.387 . S
C1955 C1957 1.387 . S
H1956 C1963 0.950 . S
C1957 C1955 1.387 . S
C1957 C1959 1.390 . S
C1957 H1961 0.950 . S
H1958 C1954 0.950 . S
C1959 C1957 1.390 . S
C1959 C1960 1.387 . S
C1959 H1962 0.950 . S
C1960 C1959 1.387 . S
C1960 C1963 1.387 . S
H1961 C1957 0.950 . S
H1962 C1959 0.950 . S
C1963 C1954 1.390 . S
C1963 H1956 0.950 . S
C1963 C1960 1.387 . S
C1964 C1965 1.387 . S
C1964 H1968 0.950 . S
C1964 C1973 1.390 . S
C1965 C1964 1.387 . S
C1965 C1967 1.387 . S
H1966 C1973 0.950 . S
C1967 C1965 1.387 . S
C1967 C1969 1.390 . S
C1967 H1971 0.950 . S
H1968 C1964 0.950 . S
C1969 C1967 1.390 . S
C1969 C1970 1.387 . S
C1969 H1972 0.950 . S
C1970 C1969 1.387 . S
C1970 C1973 1.387 . S
H1971 C1967 0.950 . S
H1972 C1969 0.950 . S
C1973 C1964 1.390 . S
C1973 H1966 0.950 . S
C1973 C1970 1.387 . S
C1974 C1975 1.387 . S
C1974 H1978 0.950 . S
C1974 C1983 1.390 . S
C1975 C1974 1.387 . S
C1975 C1977 1.387 . S
H1976 C1983 0.950 . S
C1977 C1975 1.387 . S
C1977 C1979 1.390 . S
C1977 H1981 0.950 . S
H1978 C1974 0.950 . S
C1979 C1977 1.390 . S
C1979 C1980 1.387 . S
C1979 H1982 0.950 . S
C1980 C1979 1.387 . S
C1980 C1983 1.387 . S
H1981 C1977 0.950 . S
H1982 C1979 0.950 . S
C1983 C1974 1.390 . S
C1983 H1976 0.950 . S
C1983 C1980 1.387 . S
C1984 C1985 1.387 . S
C1984 H1988 0.950 . S
C1984 C1993 1.390 . S
C1985 C1984 1.387 . S
C1985 C1987 1.387 . S
H1986 C1993 0.950 . S
C1987 C1985 1.387 . S
C1987 C1989 1.390 . S
C1987 H1991 0.950 . S
H1988 C1984 0.950 . S
C1989 C1987 1.390 . S
C1989 C1990 1.387 . S
C1989 H1992 0.950 . S
C1990 C1989 1.387 . S
C1990 C1993 1.387 . S
H1991 C1987 0.950 . S
H1992 C1989 0.950 . S
C1993 C1984 1.390 . S
C1993 H1986 0.950 . S
C1993 C1990 1.387 . S
C1994 C1995 1.387 . S
C1994 H1998 0.950 . S
C1994 C2003 1.390 . S
C1995 C1994 1.387 . S
C1995 C1997 1.387 . S
H1996 C2003 0.950 . S
C1997 C1995 1.387 . S
C1997 C1999 1.390 . S
C1997 H2001 0.950 . S
H1998 C1994 0.950 . S
C1999 C1997 1.390 . S
C1999 C2000 1.387 . S
C1999 H2002 0.950 . S
C2000 C1999 1.387 . S
C2000 C2003 1.387 . S
H2001 C1997 0.950 . S
H2002 C1999 0.950 . S
C2003 C1994 1.390 . S
C2003 H1996 0.950 . S
C2003 C2000 1.387 . S
C2004 C2005 1.387 . S
C2004 H2008 0.950 . S
C2004 C2013 1.390 . S
C2005 C2004 1.387 . S
C2005 C2007 1.387 . S
H2006 C2013 0.950 . S
C2007 C2005 1.387 . S
C2007 C2009 1.390 . S
C2007 H2011 0.950 . S
H2008 C2004 0.950 . S
C2009 C2007 1.390 . S
C2009 C2010 1.387 . S
C2009 H2012 0.950 . S
C2010 C2009 1.387 . S
C2010 C2013 1.387 . S
H2011 C2007 0.950 . S
H2012 C2009 0.950 . S
C2013 C2004 1.390 . S
C2013 H2006 0.950 . S
C2013 C2010 1.387 . S
C2014 C2015 1.387 . S
C2014 H2018 0.950 . S
C2014 C2023 1.390 . S
C2015 C2014 1.387 . S
C2015 C2017 1.387 . S
H2016 C2023 0.950 . S
C2017 C2015 1.387 . S
C2017 C2019 1.390 . S
C2017 H2021 0.950 . S
H2018 C2014 0.950 . S
C2019 C2017 1.390 . S
C2019 C2020 1.387 . S
C2019 H2022 0.950 . S
C2020 C2019 1.387 . S
C2020 C2023 1.387 . S
H2021 C2017 0.950 . S
H2022 C2019 0.950 . S
C2023 C2014 1.390 . S
C2023 H2016 0.950 . S
C2023 C2020 1.387 . S
C2024 C2025 1.387 . S
C2024 H2028 0.950 . S
C2024 C2033 1.390 . S
C2025 C2024 1.387 . S
C2025 C2027 1.387 . S
H2026 C2033 0.950 . S
C2027 C2025 1.387 . S
C2027 C2029 1.390 . S
C2027 H2031 0.950 . S
H2028 C2024 0.950 . S
C2029 C2027 1.390 . S
C2029 C2030 1.387 . S
C2029 H2032 0.950 . S
C2030 C2029 1.387 . S
C2030 C2033 1.387 . S
H2031 C2027 0.950 . S
H2032 C2029 0.950 . S
C2033 C2024 1.390 . S
C2033 H2026 0.950 . S
C2033 C2030 1.387 . S
C2034 C2035 1.387 . S
C2034 H2038 0.950 . S
C2034 C2043 1.390 . S
C2035 C2034 1.387 . S
C2035 C2037 1.387 . S
H2036 C2043 0.950 . S
C2037 C2035 1.387 . S
C2037 C2039 1.390 . S
C2037 H2041 0.950 . S
H2038 C2034 0.950 . S
C2039 C2037 1.390 . S
C2039 C2040 1.387 . S
C2039 H2042 0.950 . S
C2040 C2039 1.387 . S
C2040 C2043 1.387 . S
H2041 C2037 0.950 . S
H2042 C2039 0.950 . S
C2043 C2034 1.390 . S
C2043 H2036 0.950 . S
C2043 C2040 1.387 . S
C2044 C2045 1.387 . S
C2044 H2048 0.950 . S
C2044 C2053 1.390 . S
C2045 C2044 1.387 . S
C2045 C2047 1.387 . S
H2046 C2053 0.950 . S
C2047 C2045 1.387 . S
C2047 C2049 1.390 . S
C2047 H2051 0.950 . S
H2048 C2044 0.950 . S
C2049 C2047 1.390 . S
C2049 C2050 1.387 . S
C2049 H2052 0.950 . S
C2050 C2049 1.387 . S
C2050 C2053 1.387 . S
H2051 C2047 0.950 . S
H2052 C2049 0.950 . S
C2053 C2044 1.390 . S
C2053 H2046 0.950 . S
C2053 C2050 1.387 . S
C2054 C2055 1.387 . S
C2054 H2058 0.950 . S
C2054 C2063 1.390 . S
C2055 C2054 1.387 . S
C2055 C2057 1.387 . S
H2056 C2063 0.950 . S
C2057 C2055 1.387 . S
C2057 C2059 1.390 . S
C2057 H2061 0.950 . S
H2058 C2054 0.950 . S
C2059 C2057 1.390 . S
C2059 C2060 1.387 . S
C2059 H2062 0.950 . S
C2060 C2059 1.387 . S
C2060 C2063 1.387 . S
H2061 C2057 0.950 . S
H2062 C2059 0.950 . S
C2063 C2054 1.390 . S
C2063 H2056 0.950 . S
C2063 C2060 1.387 . S
C2064 C2065 1.387 . S
C2064 H2068 0.950 . S
C2064 C2073 1.390 . S
C2065 C2064 1.387 . S
C2065 C2067 1.387 . S
H2066 C2073 0.950 . S
C2067 C2065 1.387 . S
C2067 C2069 1.390 . S
C2067 H2071 0.950 . S
H2068 C2064 0.950 . S
C2069 C2067 1.390 . S
C2069 C2070 1.387 . S
C2069 H2072 0.950 . S
C2070 C2069 1.387 . S
C2070 C2073 1.387 . S
H2071 C2067 0.950 . S
H2072 C2069 0.950 . S
C2073 C2064 1.390 . S
C2073 H2066 0.950 . S
C2073 C2070 1.387 . S
C2074 C2075 1.387 . S
C2074 H2078 0.950 . S
C2074 C2083 1.390 . S
C2075 C2074 1.387 . S
C2075 C2077 1.387 . S
H2076 C2083 0.950 . S
C2077 C2075 1.387 . S
C2077 C2079 1.390 . S
C2077 H2081 0.950 . S
H2078 C2074 0.950 . S
C2079 C2077 1.390 . S
C2079 C2080 1.387 . S
C2079 H2082 0.950 . S
C2080 C2079 1.387 . S
C2080 C2083 1.387 . S
H2081 C2077 0.950 . S
H2082 C2079 0.950 . S
C2083 C2074 1.390 . S
C2083 H2076 0.950 . S
C2083 C2080 1.387 . S
C2084 C2085 1.387 . S
C2084 H2088 0.950 . S
C2084 C2093 1.390 . S
C2085 C2084 1.387 . S
C2085 C2087 1.387 . S
H2086 C2093 0.950 . S
C2087 C2085 1.387 . S
C2087 C2089 1.390 . S
C2087 H2091 0.950 . S
H2088 C2084 0.950 . S
C2089 C2087 1.390 . S
C2089 C2090 1.387 . S
C2089 H2092 0.950 . S
C2090 C2089 1.387 . S
C2090 C2093 1.387 . S
H2091 C2087 0.950 . S
H2092 C2089 0.950 . S
C2093 C2084 1.390 . S
C2093 H2086 0.950 . S
C2093 C2090 1.387 . S
C2094 C2095 1.387 . S
C2094 H2098 0.950 . S
C2094 C2103 1.390 . S
C2095 C2094 1.387 . S
C2095 C2097 1.387 . S
H2096 C2103 0.950 . S
C2097 C2095 1.387 . S
C2097 C2099 1.390 . S
C2097 H2101 0.950 . S
H2098 C2094 0.950 . S
C2099 C2097 1.390 . S
C2099 C2100 1.387 . S
C2099 H2102 0.950 . S
C2100 C2099 1.387 . S
C2100 C2103 1.387 . S
H2101 C2097 0.950 . S
H2102 C2099 0.950 . S
C2103 C2094 1.390 . S
C2103 H2096 0.950 . S
C2103 C2100 1.387 . S
C2104 C2105 1.387 . S
C2104 H2108 0.950 . S
C2104 C2113 1.390 . S
C2105 C2104 1.387 . S
C2105 C2107 1.387 . S
H2106 C2113 0.950 . S
C2107 C2105 1.387 . S
C2107 C2109 1.390 . S
C2107 H2111 0.950 . S
H2108 C2104 0.950 . S
C2109 C2107 1.390 . S
C2109 C2110 1.387 . S
C2109 H2112 0.950 . S
C2110 C2109 1.387 . S
C2110 C2113 1.387 . S
H2111 C2107 0.950 . S
H2112 C2109 0.950 . S
C2113 C2104 1.390 . S
C2113 H2106 0.950 . S
C2113 C2110 1.387 . S
C2114 C2115 1.387 . S
C2114 H2118 0.950 . S
C2114 C2123 1.390 . S
C2115 C2114 1.387 . S
C2115 C2117 1.387 . S
H2116 C2123 0.950 . S
C2117 C2115 1.387 . S
C2117 C2119 1.390 . S
C2117 H2121 0.950 . S
H2118 C2114 0.950 . S
C2119 C2117 1.390 . S
C2119 C2120 1.387 . S
C2119 H2122 0.950 . S
C2120 C2119 1.387 . S
C2120 C2123 1.387 . S
H2121 C2117 0.950 . S
H2122 C2119 0.950 . S
C2123 C2114 1.390 . S
C2123 H2116 0.950 . S
C2123 C2120 1.387 . S
C2124 C2125 1.387 . S
C2124 H2128 0.950 . S
C2124 C2133 1.390 . S
C2125 C2124 1.387 . S
C2125 C2127 1.387 . S
H2126 C2133 0.950 . S
C2127 C2125 1.387 . S
C2127 C2129 1.390 . S
C2127 H2131 0.950 . S
H2128 C2124 0.950 . S
C2129 C2127 1.390 . S
C2129 C2130 1.387 . S
C2129 H2132 0.950 . S
C2130 C2129 1.387 . S
C2130 C2133 1.387 . S
H2131 C2127 0.950 . S
H2132 C2129 0.950 . S
C2133 C2124 1.390 . S
C2133 H2126 0.950 . S
C2133 C2130 1.387 . S
C2134 C2135 1.387 . S
C2134 H2138 0.950 . S
C2134 C2143 1.390 . S
C2135 C2134 1.387 . S
C2135 C2137 1.387 . S
H2136 C2143 0.950 . S
C2137 C2135 1.387 . S
C2137 C2139 1.390 . S
C2137 H2141 0.950 . S
H2138 C2134 0.950 . S
C2139 C2137 1.390 . S
C2139 C2140 1.387 . S
C2139 H2142 0.950 . S
C2140 C2139 1.387 . S
C2140 C2143 1.387 . S
H2141 C2137 0.950 . S
H2142 C2139 0.950 . S
C2143 C2134 1.390 . S
C2143 H2136 0.950 . S
C2143 C2140 1.387 . S
C2144 C2145 1.387 . S
C2144 H2148 0.950 . S
C2144 C2153 1.390 . S
C2145 C2144 1.387 . S
C2145 C2147 1.387 . S
H2146 C2153 0.950 . S
C2147 C2145 1.387 . S
C2147 C2149 1.390 . S
C2147 H2151 0.950 . S
H2148 C2144 0.950 . S
C2149 C2147 1.390 . S
C2149 C2150 1.387 . S
C2149 H2152 0.950 . S
C2150 C2149 1.387 . S
C2150 C2153 1.387 . S
H2151 C2147 0.950 . S
H2152 C2149 0.950 . S
C2153 C2144 1.390 . S
C2153 H2146 0.950 . S
C2153 C2150 1.387 . S
C2154 C2155 1.387 . S
C2154 H2158 0.950 . S
C2154 C2163 1.390 . S
C2155 C2154 1.387 . S
C2155 C2157 1.387 1_556 S
H2156 C2163 0.950 . S
C2157 C2155 1.387 1_554 S
C2157 C2159 1.395 . S
C2157 H2161 0.950 . S
H2158 C2154 0.950 . S
C2159 C2157 1.395 . S
C2159 C2160 1.366 1_554 S
C2159 H2162 0.967 . S
C2160 C2159 1.366 1_556 S
C2160 C2163 1.387 . S
H2161 C2157 0.950 . S
H2162 C2159 0.967 . S
C2163 C2154 1.390 . S
C2163 H2156 0.950 . S
C2163 C2160 1.387 . S
C2164 C2165 1.387 . S
C2164 H2168 0.950 . S
C2164 C2173 1.390 . S
C2165 C2164 1.387 . S
C2165 C2167 1.387 . S
H2166 C2173 0.950 . S
C2167 C2165 1.387 . S
C2167 C2169 1.390 . S
C2167 H2171 0.950 . S
H2168 C2164 0.950 . S
C2169 C2167 1.390 . S
C2169 C2170 1.387 . S
C2169 H2172 0.950 . S
C2170 C2169 1.387 . S
C2170 C2173 1.387 . S
H2171 C2167 0.950 . S
H2172 C2169 0.950 . S
C2173 C2164 1.390 . S
C2173 H2166 0.950 . S
C2173 C2170 1.387 . S
C2174 C2175 1.387 . S
C2174 H2178 0.950 1_556 S
C2174 C2183 1.390 . S
C2175 C2174 1.387 . S
C2175 C2177 1.387 . S
H2176 C2183 0.950 . S
C2177 C2175 1.387 . S
C2177 C2179 1.390 . S
C2177 H2181 0.950 . S
H2178 C2174 0.950 1_554 S
C2179 C2177 1.390 . S
C2179 C2180 1.387 . S
C2179 H2182 0.950 . S
C2180 C2179 1.387 . S
C2180 C2183 1.387 . S
H2181 C2177 0.950 . S
H2182 C2179 0.950 . S
C2183 C2174 1.390 . S
C2183 H2176 0.950 . S
C2183 C2180 1.387 . S
C2184 C2185 1.387 . S
C2184 H2188 0.950 . S
C2184 C2193 1.390 . S
C2185 C2184 1.387 . S
C2185 C2187 1.380 1_556 S
H2186 C2193 0.950 . S
C2187 C2185 1.380 1_554 S
C2187 C2189 1.388 1_554 S
C2187 H2191 0.960 . S
H2188 C2184 0.950 . S
C2189 C2187 1.388 1_556 S
C2189 C2190 1.387 . S
C2189 H2192 0.950 1_556 S
C2190 C2189 1.387 . S
C2190 C2193 1.387 . S
H2191 C2187 0.960 . S
H2192 C2189 0.950 1_554 S
C2193 C2184 1.390 . S
C2193 H2186 0.950 . S
C2193 C2190 1.387 . S
C2194 C2195 1.387 . S
C2194 H2198 0.950 . S
C2194 C2203 1.390 . S
C2195 C2194 1.387 . S
C2195 C2197 1.387 . S
H2196 C2203 0.950 . S
C2197 C2195 1.387 . S
C2197 C2199 1.390 . S
C2197 H2201 0.950 1_556 S
H2198 C2194 0.950 . S
C2199 C2197 1.390 . S
C2199 C2200 1.387 . S
C2199 H2202 0.950 . S
C2200 C2199 1.387 . S
C2200 C2203 1.387 . S
H2201 C2197 0.950 1_554 S
H2202 C2199 0.950 . S
C2203 C2194 1.390 . S
C2203 H2196 0.950 . S
C2203 C2200 1.387 . S
C2204 C2205 1.387 . S
C2204 H2208 0.950 . S
C2204 C2213 1.390 . S
C2205 C2204 1.387 . S
C2205 C2207 1.387 . S
H2206 C2213 0.950 . S
C2207 C2205 1.387 . S
C2207 C2209 1.390 . S
C2207 H2211 0.950 . S
H2208 C2204 0.950 . S
C2209 C2207 1.390 . S
C2209 C2210 1.387 . S
C2209 H2212 0.950 . S
C2210 C2209 1.387 . S
C2210 C2213 1.387 . S
H2211 C2207 0.950 . S
H2212 C2209 0.950 . S
C2213 C2204 1.390 . S
C2213 H2206 0.950 . S
C2213 C2210 1.387 . S
C2214 C2215 1.387 . S
C2214 H2218 0.950 . S
C2214 C2223 1.390 . S
C2215 C2214 1.387 . S
C2215 C2217 1.387 . S
H2216 C2223 0.950 . S
C2217 C2215 1.387 . S
C2217 C2219 1.390 . S
C2217 H2221 0.950 . S
H2218 C2214 0.950 . S
C2219 C2217 1.390 . S
C2219 C2220 1.387 . S
C2219 H2222 0.950 . S
C2220 C2219 1.387 . S
C2220 C2223 1.387 . S
H2221 C2217 0.950 . S
H2222 C2219 0.950 . S
C2223 C2214 1.390 . S
C2223 H2216 0.950 . S
C2223 C2220 1.387 . S
C2224 C2225 1.387 . S
C2224 H2228 0.950 . S
C2224 C2233 1.390 . S
C2225 C2224 1.387 . S
C2225 C2227 1.387 . S
H2226 C2233 0.950 . S
C2227 C2225 1.387 . S
C2227 C2229 1.390 . S
C2227 H2231 0.950 . S
H2228 C2224 0.950 . S
C2229 C2227 1.390 . S
C2229 C2230 1.387 . S
C2229 H2232 0.950 . S
C2230 C2229 1.387 . S
C2230 C2233 1.387 . S
H2231 C2227 0.950 . S
H2232 C2229 0.950 . S
C2233 C2224 1.390 . S
C2233 H2226 0.950 . S
C2233 C2230 1.387 . S
C2234 C2235 1.387 . S
C2234 H2238 0.950 . S
C2234 C2243 1.390 . S
C2235 C2234 1.387 . S
C2235 C2237 1.387 . S
H2236 C2243 0.950 . S
C2237 C2235 1.387 . S
C2237 C2239 1.390 . S
C2237 H2241 0.950 . S
H2238 C2234 0.950 . S
C2239 C2237 1.390 . S
C2239 C2240 1.387 . S
C2239 H2242 0.950 . S
C2240 C2239 1.387 . S
C2240 C2243 1.387 . S
H2241 C2237 0.950 . S
H2242 C2239 0.950 . S
C2243 C2234 1.390 . S
C2243 H2236 0.950 . S
C2243 C2240 1.387 . S
C2244 C2245 1.387 . S
C2244 H2248 0.950 . S
C2244 C2253 1.390 . S
C2245 C2244 1.387 . S
C2245 C2247 1.387 . S
H2246 C2253 0.950 . S
C2247 C2245 1.387 . S
C2247 C2249 1.390 . S
C2247 H2251 0.950 . S
H2248 C2244 0.950 . S
C2249 C2247 1.390 . S
C2249 C2250 1.387 . S
C2249 H2252 0.950 . S
C2250 C2249 1.387 . S
C2250 C2253 1.387 . S
H2251 C2247 0.950 . S
H2252 C2249 0.950 . S
C2253 C2244 1.390 . S
C2253 H2246 0.950 . S
C2253 C2250 1.387 . S
C2254 C2255 1.387 . S
C2254 H2258 0.950 . S
C2254 C2263 1.390 . S
C2255 C2254 1.387 . S
C2255 C2257 1.387 . S
H2256 C2263 0.950 . S
C2257 C2255 1.387 . S
C2257 C2259 1.390 . S
C2257 H2261 0.950 . S
H2258 C2254 0.950 . S
C2259 C2257 1.390 . S
C2259 C2260 1.387 . S
C2259 H2262 0.950 . S
C2260 C2259 1.387 . S
C2260 C2263 1.387 . S
H2261 C2257 0.950 . S
H2262 C2259 0.950 . S
C2263 C2254 1.390 . S
C2263 H2256 0.950 . S
C2263 C2260 1.387 . S
C2264 C2265 1.387 . S
C2264 H2268 0.950 . S
C2264 C2273 1.390 . S
C2265 C2264 1.387 . S
C2265 C2267 1.387 . S
H2266 C2273 0.950 . S
C2267 C2265 1.387 . S
C2267 C2269 1.390 . S
C2267 H2271 0.950 . S
H2268 C2264 0.950 . S
C2269 C2267 1.390 . S
C2269 C2270 1.387 . S
C2269 H2272 0.950 . S
C2270 C2269 1.387 . S
C2270 C2273 1.387 . S
H2271 C2267 0.950 . S
H2272 C2269 0.950 . S
C2273 C2264 1.390 . S
C2273 H2266 0.950 . S
C2273 C2270 1.387 . S
C2274 C2275 1.387 . S
C2274 H2278 0.950 . S
C2274 C2283 1.390 . S
C2275 C2274 1.387 . S
C2275 C2277 1.387 . S
H2276 C2283 0.950 . S
C2277 C2275 1.387 . S
C2277 C2279 1.390 . S
C2277 H2281 0.950 . S
H2278 C2274 0.950 . S
C2279 C2277 1.390 . S
C2279 C2280 1.387 . S
C2279 H2282 0.950 . S
C2280 C2279 1.387 . S
C2280 C2283 1.387 . S
H2281 C2277 0.950 . S
H2282 C2279 0.950 . S
C2283 C2274 1.390 . S
C2283 H2276 0.950 . S
C2283 C2280 1.387 . S
C2284 C2285 1.387 . S
C2284 H2288 0.950 . S
C2284 C2293 1.390 . S
C2285 C2284 1.387 . S
C2285 C2287 1.387 . S
H2286 C2293 0.950 . S
C2287 C2285 1.387 . S
C2287 C2289 1.390 . S
C2287 H2291 0.950 . S
H2288 C2284 0.950 . S
C2289 C2287 1.390 . S
C2289 C2290 1.387 . S
C2289 H2292 0.950 . S
C2290 C2289 1.387 . S
C2290 C2293 1.387 . S
H2291 C2287 0.950 . S
H2292 C2289 0.950 . S
C2293 C2284 1.390 . S
C2293 H2286 0.950 . S
C2293 C2290 1.387 . S
C2294 C2295 1.349 1_545 S
C2294 H2298 1.007 . S
C2294 C2303 1.374 . S
C2295 C2294 1.349 1_565 S
C2295 C2297 1.387 . S
H2296 C2303 0.950 . S
C2297 C2295 1.387 . S
C2297 C2299 1.390 . S
C2297 H2301 0.950 . S
H2298 C2294 1.007 . S
C2299 C2297 1.390 . S
C2299 C2300 1.387 . S
C2299 H2302 0.950 . S
C2300 C2299 1.387 . S
C2300 C2303 1.387 1_565 S
H2301 C2297 0.950 . S
H2302 C2299 0.950 . S
C2303 C2294 1.374 . S
C2303 H2296 0.950 . S
C2303 C2300 1.387 1_545 S
C2304 C2305 1.387 . S
C2304 H2308 0.950 . S
C2304 C2313 1.390 . S
C2305 C2304 1.387 . S
C2305 C2307 1.326 1_565 S
H2306 C2313 0.950 . S
C2307 C2305 1.326 1_545 S
C2307 C2309 1.431 . S
C2307 H2311 0.972 . S
H2308 C2304 0.950 . S
C2309 C2307 1.431 . S
C2309 C2310 1.387 1_545 S
C2309 H2312 0.950 . S
C2310 C2309 1.387 1_565 S
C2310 C2313 1.387 . S
H2311 C2307 0.972 . S
H2312 C2309 0.950 . S
C2313 C2304 1.390 . S
C2313 H2306 0.950 . S
C2313 C2310 1.387 . S
C2314 C2315 1.387 . S
C2314 H2318 0.950 . S
C2314 C2323 1.390 . S
C2315 C2314 1.387 . S
C2315 C2317 1.387 . S
H2316 C2323 0.950 . S
C2317 C2315 1.387 . S
C2317 C2319 1.390 . S
C2317 H2321 0.950 . S
H2318 C2314 0.950 . S
C2319 C2317 1.390 . S
C2319 C2320 1.387 . S
C2319 H2322 0.950 . S
C2320 C2319 1.387 . S
C2320 C2323 1.387 . S
H2321 C2317 0.950 . S
H2322 C2319 0.950 . S
C2323 C2314 1.390 . S
C2323 H2316 0.950 . S
C2323 C2320 1.387 . S
C2324 C2325 1.387 . S
C2324 H2328 0.950 . S
C2324 C2333 1.390 . S
C2325 C2324 1.387 . S
C2325 C2327 1.387 . S
H2326 C2333 0.950 . S
C2327 C2325 1.387 . S
C2327 C2329 1.390 . S
C2327 H2331 0.950 . S
H2328 C2324 0.950 . S
C2329 C2327 1.390 . S
C2329 C2330 1.387 . S
C2329 H2332 0.950 . S
C2330 C2329 1.387 . S
C2330 C2333 1.387 . S
H2331 C2327 0.950 . S
H2332 C2329 0.950 . S
C2333 C2324 1.390 . S
C2333 H2326 0.950 . S
C2333 C2330 1.387 . S
C2334 C2335 1.387 . S
C2334 H2338 0.950 . S
C2334 C2343 1.390 . S
C2335 C2334 1.387 . S
C2335 C2337 1.387 . S
H2336 C2343 0.950 . S
C2337 C2335 1.387 . S
C2337 C2339 1.390 . S
C2337 H2341 0.950 . S
H2338 C2334 0.950 . S
C2339 C2337 1.390 . S
C2339 C2340 1.387 . S
C2339 H2342 0.950 . S
C2340 C2339 1.387 . S
C2340 C2343 1.387 . S
H2341 C2337 0.950 . S
H2342 C2339 0.950 . S
C2343 C2334 1.390 . S
C2343 H2336 0.950 . S
C2343 C2340 1.387 . S
C2344 C2345 1.387 . S
C2344 H2348 0.950 . S
C2344 C2353 1.390 . S
C2345 C2344 1.387 . S
C2345 C2347 1.387 . S
H2346 C2353 0.950 . S
C2347 C2345 1.387 . S
C2347 C2349 1.390 . S
C2347 H2351 0.950 . S
H2348 C2344 0.950 . S
C2349 C2347 1.390 . S
C2349 C2350 1.387 . S
C2349 H2352 0.950 . S
C2350 C2349 1.387 . S
C2350 C2353 1.387 . S
H2351 C2347 0.950 . S
H2352 C2349 0.950 . S
C2353 C2344 1.390 . S
C2353 H2346 0.950 . S
C2353 C2350 1.387 . S
C2354 C2355 1.387 . S
C2354 H2358 0.950 . S
C2354 C2363 1.390 . S
C2355 C2354 1.387 . S
C2355 C2357 1.387 . S
H2356 C2363 0.950 . S
C2357 C2355 1.387 . S
C2357 C2359 1.390 . S
C2357 H2361 0.950 . S
H2358 C2354 0.950 . S
C2359 C2357 1.390 . S
C2359 C2360 1.387 . S
C2359 H2362 0.950 . S
C2360 C2359 1.387 . S
C2360 C2363 1.387 . S
H2361 C2357 0.950 . S
H2362 C2359 0.950 . S
C2363 C2354 1.390 . S
C2363 H2356 0.950 . S
C2363 C2360 1.387 . S
C2364 C2365 1.387 . S
C2364 H2368 0.950 1_545 S
C2364 C2373 1.354 1_545 S
C2365 C2364 1.387 . S
C2365 C2367 1.387 . S
H2366 C2373 0.999 . S
C2367 C2365 1.387 . S
C2367 C2369 1.390 . S
C2367 H2371 0.950 . S
H2368 C2364 0.950 1_565 S
C2369 C2367 1.390 . S
C2369 C2370 1.387 . S
C2369 H2372 0.950 . S
C2370 C2369 1.387 . S
C2370 C2373 1.376 1_545 S
H2371 C2367 0.950 . S
H2372 C2369 0.950 . S
C2373 C2364 1.354 1_565 S
C2373 H2366 0.999 . S
C2373 C2370 1.376 1_565 S
C2374 C2375 1.387 . S
C2374 H2378 0.950 . S
C2374 C2383 1.390 . S
C2375 C2374 1.387 . S
C2375 C2377 1.387 . S
H2376 C2383 0.950 . S
C2377 C2375 1.387 . S
C2377 C2379 1.390 . S
C2377 H2381 0.950 . S
H2378 C2374 0.950 . S
C2379 C2377 1.390 . S
C2379 C2380 1.387 . S
C2379 H2382 0.950 1_655 S
C2380 C2379 1.387 . S
C2380 C2383 1.387 . S
H2381 C2377 0.950 . S
H2382 C2379 0.950 1_455 S
C2383 C2374 1.390 . S
C2383 H2376 0.950 . S
C2383 C2380 1.387 . S
C2384 C2385 1.387 . S
C2384 H2388 0.950 . S
C2384 C2393 1.390 . S
C2385 C2384 1.387 . S
C2385 C2387 1.387 . S
H2386 C2393 0.950 . S
C2387 C2385 1.387 . S
C2387 C2389 1.390 . S
C2387 H2391 0.950 . S
H2388 C2384 0.950 . S
C2389 C2387 1.390 . S
C2389 C2390 1.387 . S
C2389 H2392 0.950 . S
C2390 C2389 1.387 . S
C2390 C2393 1.387 . S
H2391 C2387 0.950 . S
H2392 C2389 0.950 . S
C2393 C2384 1.390 . S
C2393 H2386 0.950 . S
C2393 C2390 1.387 . S
C2394 C2395 1.387 . S
C2394 H2398 0.950 . S
C2394 C2403 1.390 . S
C2395 C2394 1.387 . S
C2395 C2397 1.387 . S
H2396 C2403 0.950 . S
C2397 C2395 1.387 . S
C2397 C2399 1.390 . S
C2397 H2401 0.950 . S
H2398 C2394 0.950 . S
C2399 C2397 1.390 . S
C2399 C2400 1.387 . S
C2399 H2402 0.950 . S
C2400 C2399 1.387 . S
C2400 C2403 1.387 . S
H2401 C2397 0.950 . S
H2402 C2399 0.950 . S
C2403 C2394 1.390 . S
C2403 H2396 0.950 . S
C2403 C2400 1.387 . S
C2404 C2405 1.387 . S
C2404 H2408 0.950 . S
C2404 C2413 1.390 . S
C2405 C2404 1.387 . S
C2405 C2407 1.387 . S
H2406 C2413 0.950 . S
C2407 C2405 1.387 . S
C2407 C2409 1.390 . S
C2407 H2411 0.950 . S
H2408 C2404 0.950 . S
C2409 C2407 1.390 . S
C2409 C2410 1.387 . S
C2409 H2412 0.950 . S
C2410 C2409 1.387 . S
C2410 C2413 1.387 . S
H2411 C2407 0.950 . S
H2412 C2409 0.950 . S
C2413 C2404 1.390 . S
C2413 H2406 0.950 . S
C2413 C2410 1.387 . S
C2414 C2415 1.387 . S
C2414 H2418 0.950 . S
C2414 C2423 1.390 . S
C2415 C2414 1.387 . S
C2415 C2417 1.387 . S
H2416 C2423 0.950 . S
C2417 C2415 1.387 . S
C2417 C2419 1.390 . S
C2417 H2421 0.950 . S
H2418 C2414 0.950 . S
C2419 C2417 1.390 . S
C2419 C2420 1.387 . S
C2419 H2422 0.950 . S
C2420 C2419 1.387 . S
C2420 C2423 1.387 . S
H2421 C2417 0.950 . S
H2422 C2419 0.950 . S
C2423 C2414 1.390 . S
C2423 H2416 0.950 . S
C2423 C2420 1.387 . S
C2424 C2425 1.387 . S
C2424 H2428 0.950 . S
C2424 C2433 1.390 . S
C2425 C2424 1.387 . S
C2425 C2427 1.387 . S
H2426 C2433 0.950 . S
C2427 C2425 1.387 . S
C2427 C2429 1.390 . S
C2427 H2431 0.950 . S
H2428 C2424 0.950 . S
C2429 C2427 1.390 . S
C2429 C2430 1.387 . S
C2429 H2432 0.950 . S
C2430 C2429 1.387 . S
C2430 C2433 1.387 . S
H2431 C2427 0.950 . S
H2432 C2429 0.950 . S
C2433 C2424 1.390 . S
C2433 H2426 0.950 . S
C2433 C2430 1.387 . S
C2434 C2435 1.387 . S
C2434 H2438 0.950 . S
C2434 C2443 1.390 . S
C2435 C2434 1.387 . S
C2435 C2437 1.387 . S
H2436 C2443 0.950 . S
C2437 C2435 1.387 . S
C2437 C2439 1.390 . S
C2437 H2441 0.950 . S
H2438 C2434 0.950 . S
C2439 C2437 1.390 . S
C2439 C2440 1.387 . S
C2439 H2442 0.950 . S
C2440 C2439 1.387 . S
C2440 C2443 1.387 . S
H2441 C2437 0.950 . S
H2442 C2439 0.950 . S
C2443 C2434 1.390 . S
C2443 H2436 0.950 . S
C2443 C2440 1.387 . S
C2444 C2445 1.387 . S
C2444 H2448 0.950 . S
C2444 C2453 1.390 . S
C2445 C2444 1.387 . S
C2445 C2447 1.387 . S
H2446 C2453 0.950 . S
C2447 C2445 1.387 . S
C2447 C2449 1.390 . S
C2447 H2451 0.950 . S
H2448 C2444 0.950 . S
C2449 C2447 1.390 . S
C2449 C2450 1.387 . S
C2449 H2452 0.950 . S
C2450 C2449 1.387 . S
C2450 C2453 1.387 . S
H2451 C2447 0.950 . S
H2452 C2449 0.950 . S
C2453 C2444 1.390 . S
C2453 H2446 0.950 . S
C2453 C2450 1.387 . S
C2454 C2455 1.387 . S
C2454 H2458 0.950 . S
C2454 C2463 1.390 . S
C2455 C2454 1.387 . S
C2455 C2457 1.387 . S
H2456 C2463 0.950 . S
C2457 C2455 1.387 . S
C2457 C2459 1.390 . S
C2457 H2461 0.950 . S
H2458 C2454 0.950 . S
C2459 C2457 1.390 . S
C2459 C2460 1.387 . S
C2459 H2462 0.952 1_655 S
C2460 C2459 1.387 . S
C2460 C2463 1.387 . S
H2461 C2457 0.950 . S
H2462 C2459 0.952 1_455 S
C2463 C2454 1.390 . S
C2463 H2456 0.950 . S
C2463 C2460 1.387 . S
C2464 C2465 1.387 . S
C2464 H2468 0.950 . S
C2464 C2473 1.390 . S
C2465 C2464 1.387 . S
C2465 C2467 1.387 . S
H2466 C2473 0.950 . S
C2467 C2465 1.387 . S
C2467 C2469 1.390 . S
C2467 H2471 0.950 . S
H2468 C2464 0.950 . S
C2469 C2467 1.390 . S
C2469 C2470 1.387 . S
C2469 H2472 0.950 . S
C2470 C2469 1.387 . S
C2470 C2473 1.387 . S
H2471 C2467 0.950 . S
H2472 C2469 0.950 . S
C2473 C2464 1.390 . S
C2473 H2466 0.950 . S
C2473 C2470 1.387 . S
C2474 C2475 1.387 . S
C2474 H2478 0.950 . S
C2474 C2483 1.390 . S
C2475 C2474 1.387 . S
C2475 C2477 1.387 . S
H2476 C2483 0.950 1_565 S
C2477 C2475 1.387 . S
C2477 C2479 1.390 . S
C2477 H2481 0.950 . S
H2478 C2474 0.950 . S
C2479 C2477 1.390 . S
C2479 C2480 1.387 . S
C2479 H2482 0.950 . S
C2480 C2479 1.387 . S
C2480 C2483 1.387 . S
H2481 C2477 0.950 . S
H2482 C2479 0.950 . S
C2483 C2474 1.390 . S
C2483 H2476 0.950 1_545 S
C2483 C2480 1.387 . S
C1765 C4 1.567 1_655 S
C1770 C1253 1.531 . S
C1775 C38 1.764 . S
C1780 C1297 1.719 . S
C1790 C1377 1.542 . S
C1785 C74 1.580 . S
C1795 C76 1.551 . S
C1800 C1421 1.512 . S
C1805 C2 1.652 . S
C1810 C1501 1.615 . S
C1815 C40 1.613 . S
C1820 C1563 1.541 . S
C1825 C110 1.661 . S
C1830 C1483 1.584 . S
C1840 C1545 1.537 . S
C1835 C148 1.620 . S
C1850 C1439 1.628 . S
C1845 C182 1.649 1_565 S
C1855 C184 1.585 . S
C1860 C1359 1.539 . S
C1870 C1235 1.510 . S
C1865 C112 1.557 1_655 S
C1875 C146 1.702 . S
C1880 C1315 1.661 . S
C1885 C220 1.674 . S
C1890 C1625 1.597 . S
C1895 C254 1.812 . S
C1900 C1669 1.768 . S
C1910 C1749 1.623 . S
C1905 C290 1.712 . S
C1915 C292 1.609 . S
C1920 C695 1.528 . S
C1925 C218 1.736 . S
C1930 C739 1.702 . S
C1935 C256 1.630 . S
C1940 C819 1.554 . S
C1945 C326 1.745 . S
C1950 C757 1.706 . S
C1955 C364 1.665 . S
C1960 C801 1.578 . S
C1970 C677 1.669 . S
C1965 C398 1.750 . S
C1980 C1731 1.603 . S
C1975 C400 1.685 . S
C1990 C1607 1.526 . S
C1985 C328 1.595 . S
C2000 C1687 1.706 . S
C1995 C362 1.747 . S
C2005 C436 1.651 . S
C2010 C881 1.578 . S
C2015 C470 1.800 . S
C2020 C943 1.700 . S
C2025 C506 1.709 . S
C2030 C987 1.677 . S
C2035 C508 1.633 . S
C2040 C1049 1.594 . S
C2050 C1111 1.704 . S
C2045 C434 1.740 . S
C2060 C1191 1.570 . S
C2055 C472 1.646 . S
C2070 C1129 1.735 . S
C2065 C542 1.777 . S
C2080 C1173 1.581 . S
C2075 C580 1.668 . S
C2085 C614 1.746 . S
C2090 C1067 1.712 . S
C2100 C1005 1.611 . S
C2095 C616 1.650 . S
C2105 C544 1.597 . S
C2110 C863 1.530 . S
C2120 C925 1.640 . S
C2115 C578 1.727 . S
C2130 C701 1.523 . S
C2125 C14 1.629 . S
C2135 C39 1.577 . S
C2140 C745 1.512 . S
C2150 C825 1.462 . S
C2145 C75 1.575 . S
C2160 C887 1.391 . S
C2155 C86 1.480 . S
C2170 C949 1.504 . S
C2165 C3 1.590 . S
C2180 C993 1.513 . S
C2175 C50 1.575 . S
C2185 C111 1.588 . S
C2190 C1011 1.514 . S
C2195 C158 1.550 . S
C2200 C869 1.440 . S
C2205 C183 1.661 . S
C2210 C931 1.572 . S
C2215 C194 1.590 . S
C2220 C763 1.534 . S
C2230 C807 1.441 . S
C2225 C122 1.547 . S
C2235 C147 1.507 . S
C2240 C683 1.418 . S
C2250 C1055 1.538 . S
C2245 C230 1.617 . S
C2255 C255 1.620 . S
C2260 C1117 1.554 . S
C2265 C291 1.590 . S
C2270 C1197 1.476 . S
C2280 C1259 1.352 . S
C2275 C302 1.414 . S
C2285 C219 1.576 . S
C2290 C1303 1.515 . S
C2295 C266 1.455 . S
C2300 C1383 1.425 . S
C2305 C327 1.449 . S
C2310 C1365 1.361 . S
C2315 C374 1.465 . S
C2320 C1241 1.397 . S
C2330 C1321 1.582 . S
C2325 C399 1.642 . S
C2335 C410 1.593 . S
C2340 C1135 1.533 . S
C2345 C338 1.582 . S
C2350 C1179 1.474 . S
C2360 C1073 1.479 . S
C2355 C363 1.545 . S
C2370 C1427 1.451 . S
C2365 C446 1.489 . S
C2375 C471 1.488 . S
C2380 C1507 1.418 . S
C2385 C507 1.547 . S
C2390 C1569 1.440 . S
C2400 C1631 1.397 . S
C2395 C518 1.497 . S
C2410 C1675 1.555 . S
C2405 C435 1.621 . S
C2415 C482 1.658 . S
C2420 C1755 1.519 . S
C2425 C543 1.565 . S
C2430 C1737 1.458 . S
C2435 C590 1.585 . S
C2440 C1613 1.474 . S
C2450 C1693 1.609 . S
C2445 C615 1.675 . S
C2460 C1489 1.429 . S
C2455 C626 1.460 . S
C2470 C1551 1.452 . S
C2465 C554 1.550 . S
C2475 C579 1.441 . S
C2480 C1445 1.380 . S
