# Generated by pormake.
# Topology pyr, (3,6)-cn, num edge types: 1
# Building blocks:
#     Node 0, Type 0, BuildingBlock: INOVEN_clean_linker_0, # of connection points: 3
#     Node 1, Type 0, BuildingBlock: INOVEN_clean_linker_0, # of connection points: 3
#     Node 2, Type 0, BuildingBlock: INOVEN_clean_linker_0, # of connection points: 3
#     Node 3, Type 0, BuildingBlock: INOVEN_clean_linker_0, # of connection points: 3
#     Node 4, Type 0, BuildingBlock: INOVEN_clean_linker_0, # of connection points: 3
#     Node 5, Type 0, BuildingBlock: INOVEN_clean_linker_0, # of connection points: 3
#     Node 6, Type 0, BuildingBlock: INOVEN_clean_linker_0, # of connection points: 3
#     Node 7, Type 0, BuildingBlock: INOVEN_clean_linker_0, # of connection points: 3
#     Node 8, Type 1, BuildingBlock: JUFBIX_clean_sbu_0, # of connection points: 6
#     Node 9, Type 1, BuildingBlock: JUFBIX_clean_sbu_0, # of connection points: 6
#     Node 10, Type 1, BuildingBlock: JUFBIX_clean_sbu_0, # of connection points: 6
#     Node 11, Type 1, BuildingBlock: JUFBIX_clean_sbu_0, # of connection points: 6
#     Edge 12, Type (0, 1), BuildingBlock: OJICUG_clean_linker_0, # of connection points: 2
#     Edge 13, Type (0, 1), BuildingBlock: OJICUG_clean_linker_0, # of connection points: 2
#     Edge 14, Type (0, 1), BuildingBlock: OJICUG_clean_linker_0, # of connection points: 2
#     Edge 15, Type (0, 1), BuildingBlock: OJICUG_clean_linker_0, # of connection points: 2
#     Edge 16, Type (0, 1), BuildingBlock: OJICUG_clean_linker_0, # of connection points: 2
#     Edge 17, Type (0, 1), BuildingBlock: OJICUG_clean_linker_0, # of connection points: 2
#     Edge 18, Type (0, 1), BuildingBlock: OJICUG_clean_linker_0, # of connection points: 2
#     Edge 19, Type (0, 1), BuildingBlock: OJICUG_clean_linker_0, # of connection points: 2
#     Edge 20, Type (0, 1), BuildingBlock: OJICUG_clean_linker_0, # of connection points: 2
#     Edge 21, Type (0, 1), BuildingBlock: OJICUG_clean_linker_0, # of connection points: 2
#     Edge 22, Type (0, 1), BuildingBlock: OJICUG_clean_linker_0, # of connection points: 2
#     Edge 23, Type (0, 1), BuildingBlock: OJICUG_clean_linker_0, # of connection points: 2
#     Edge 24, Type (0, 1), BuildingBlock: OJICUG_clean_linker_0, # of connection points: 2
#     Edge 25, Type (0, 1), BuildingBlock: OJICUG_clean_linker_0, # of connection points: 2
#     Edge 26, Type (0, 1), BuildingBlock: OJICUG_clean_linker_0, # of connection points: 2
#     Edge 27, Type (0, 1), BuildingBlock: OJICUG_clean_linker_0, # of connection points: 2
#     Edge 28, Type (0, 1), BuildingBlock: OJICUG_clean_linker_0, # of connection points: 2
#     Edge 29, Type (0, 1), BuildingBlock: OJICUG_clean_linker_0, # of connection points: 2
#     Edge 30, Type (0, 1), BuildingBlock: OJICUG_clean_linker_0, # of connection points: 2
#     Edge 31, Type (0, 1), BuildingBlock: OJICUG_clean_linker_0, # of connection points: 2
#     Edge 32, Type (0, 1), BuildingBlock: OJICUG_clean_linker_0, # of connection points: 2
#     Edge 33, Type (0, 1), BuildingBlock: OJICUG_clean_linker_0, # of connection points: 2
#     Edge 34, Type (0, 1), BuildingBlock: OJICUG_clean_linker_0, # of connection points: 2
#     Edge 35, Type (0, 1), BuildingBlock: OJICUG_clean_linker_0, # of connection points: 2
# Relax obj value: 0.166
# Max RMSD: 0.209
# Mean RMSD: 0.125
data_MOF--net-pyr--node1-JUFBIX_clean_sbu_0--node2-INOVEN_clean_linker_0--edge1-OJICUG_clean_linker_0
_symmetry_space_group_name_H-M    P1
_symmetry_Int_Tables_number       1
_symmetry_cell_setting            triclinic
loop_
_symmetry_equiv_pos_as_xyz
'x, y, z'
_cell_length_a     25.847725
_cell_length_b     25.046034
_cell_length_c     27.82921
_cell_angle_alpha  82.261477
_cell_angle_beta   87.102508
_cell_angle_gamma 95.618604
loop_
_atom_site_label
_atom_site_type_symbol
_atom_site_fract_x
_atom_site_fract_y
_atom_site_fract_z
_atom_type_partial_charge
H0 H 0.15219 0.21321 0.26455 0.0
H1 H 0.27241 0.10554 0.27157 0.0
H2 H 0.26868 0.22892 0.14702 0.0
N3 N 0.18208 0.27034 0.18246 0.0
N4 N 0.19429 0.29682 0.14147 0.0
C5 C 0.18632 0.19877 0.24842 0.0
C6 C 0.20872 0.15541 0.27358 0.0
C7 C 0.20731 0.22536 0.20335 0.0
C8 C 0.25221 0.2079 0.1818 0.0
C9 C 0.27676 0.16445 0.20594 0.0
C10 C 0.25472 0.13897 0.25245 0.0
H11 H 0.49373 0.87016 0.63276 0.0
H12 H 0.5546 0.81279 0.76982 0.0
H13 H 0.49678 0.96894 0.74645 0.0
N14 N 0.45524 0.95378 0.66408 0.0
N15 N 0.42085 0.96934 0.69024 0.0
C16 C 0.50572 0.87725 0.66837 0.0
C17 C 0.52873 0.8373 0.69775 0.0
C18 C 0.49261 0.92341 0.6867 0.0
C19 C 0.50731 0.93272 0.73254 0.0
C20 C 0.52942 0.89342 0.76292 0.0
C21 C 0.53933 0.84454 0.746 0.0
H22 H 0.65154 0.36271 0.91091 0.0
H23 H 0.77704 0.35304 1.00652 0.0
H24 H 0.78043 0.48594 0.88923 0.0
N25 N 0.68848 0.44792 0.85456 0.0
N26 N 0.70919 0.48424 0.82245 0.0
C27 C 0.68891 0.37867 0.92204 0.0
C28 C 0.71173 0.35083 0.96103 0.0
C29 C 0.71359 0.42604 0.89563 0.0
C30 C 0.76167 0.44849 0.90948 0.0
C31 C 0.78451 0.42322 0.95054 0.0
C32 C 0.75917 0.37398 0.97607 0.0
H33 H 0.96145 0.60639 0.50294 0.0
H34 H 0.98907 0.74302 0.57954 0.0
H35 H 0.09261 0.72347 0.45879 0.0
N36 N 1.03201 0.63559 0.43582 0.0
N37 N 0.05192 0.6599 0.3962 0.0
C38 C 0.98685 0.64065 0.51112 0.0
C39 C 0.96975 0.67238 0.54522 0.0
C40 C 1.02993 0.6593 0.4791 0.0
C41 C 0.06076 0.70714 0.48511 0.0
C42 C 0.04782 0.73577 0.52353 0.0
C43 C 1.00241 0.71779 0.55367 0.0
H44 H 0.88043 0.98048 0.84161 0.0
H45 H 0.99989 0.87217 0.85365 0.0
H46 H 0.88008 0.86326 0.96925 0.0
N47 N 0.83055 0.94601 0.92694 0.0
N48 N 0.81473 0.93638 0.97085 0.0
C49 C 0.89806 0.94755 0.86163 0.0
C50 C 0.94304 0.92903 0.84133 0.0
C51 C 0.87602 0.92517 0.90819 0.0
C52 C 0.8985 0.88196 0.93447 0.0
C53 C 0.94296 0.86139 0.91514 0.0
C54 C 0.96531 0.8864 0.86887 0.0
H55 H 0.57676 0.17436 0.43331 0.0
H56 H 0.66344 0.0394 0.47355 0.0
H57 H 0.67825 0.17751 0.55022 0.0
N58 N 0.60971 0.2325 0.499 0.0
N59 N 0.64156 0.26723 0.51254 0.0
C60 C 0.60164 0.15319 0.45783 0.0
C61 C 0.6181 0.10354 0.44862 0.0
C62 C 0.62255 0.17951 0.49488 0.0
C63 C 0.65989 0.15572 0.52344 0.0
C64 C 0.67545 0.10516 0.51562 0.0
C65 C 0.65119 0.07788 0.48057 0.0
H66 H 0.44336 0.73707 0.24395 0.0
H67 H 0.33933 0.75666 0.12942 0.0
H68 H 0.31633 0.61422 0.23746 0.0
N69 N 0.39781 0.64295 0.28982 0.0
N70 N 0.44232 0.65536 0.30333 0.0
C71 C 0.40959 0.72183 0.22646 0.0
C72 C 0.39439 0.75287 0.18504 0.0
C73 C 0.38188 0.67194 0.24606 0.0
C74 C 0.33811 0.65254 0.22259 0.0
C75 C 0.32346 0.68228 0.17918 0.0
C76 C 0.35176 0.73249 0.1612 0.0
H77 H 1.0291 0.38548 0.63953 0.0
H78 H 0.15743 0.36473 0.54173 0.0
H79 H 0.16396 0.50204 0.6186 0.0
N80 N 0.07641 0.4708 0.67286 0.0
N81 N 0.09732 0.51536 0.68121 0.0
C82 C 0.06557 0.40159 0.61945 0.0
C83 C 0.08802 0.37211 0.58574 0.0
C84 C 0.09233 0.44931 0.63051 0.0
C85 C 0.14154 0.46765 0.60718 0.0
C86 C 0.16616 0.43649 0.57662 0.0
C87 C 0.13815 0.39004 0.56415 0.0
Co88 Co 1.02978 0.0489 0.54146 0.0
C89 C 0.08388 0.95685 0.54549 0.0
Co90 Co 0.10695 0.05726 0.57033 0.0
C91 C 0.92089 0.05644 0.54157 0.0
C92 C 0.94315 1.00085 0.49417 0.0
N93 N 0.96265 0.03573 0.5233 0.0
N94 N 0.87616 0.03582 0.52534 0.0
C95 C 0.88974 1.00077 0.49544 0.0
H96 H 0.92299 0.08535 0.56721 0.0
H97 H 0.96613 0.97662 0.47384 0.0
C98 C 0.05316 0.14964 0.56573 0.0
N99 N 0.17307 0.07394 0.58801 0.0
C100 C 0.20384 0.04409 0.61556 0.0
C101 C 0.20327 0.12032 0.57041 0.0
N102 N 0.25208 0.06993 0.61508 0.0
C103 C 0.25213 0.11774 0.58675 0.0
C104 C 0.10536 0.0828 0.46699 0.0
O105 O 1.01831 0.12201 0.54662 0.0
O106 O 0.09364 0.12856 0.57865 0.0
O107 O 0.13262 0.08075 0.50377 0.0
O108 O 0.05618 0.07087 0.47422 0.0
O109 O 0.1201 0.98516 0.56269 0.0
H110 H 0.19109 0.1531 0.54559 0.0
H111 H 0.19207 1.00321 0.63333 0.0
O112 O 0.04184 0.97686 0.53532 0.0
O113 O 1.00392 0.02591 0.60935 0.0
O114 O 0.08184 0.03267 0.6367 0.0
C115 C 1.03291 0.02048 0.64516 0.0
H116 H 0.86308 0.97771 0.47526 0.0
H117 H 0.28551 0.1477 0.57752 0.0
Co118 Co 0.53091 0.05393 0.04725 0.0
C119 C 0.50768 0.96219 0.11742 0.0
Co120 Co 0.56672 0.05809 0.11697 0.0
C121 C 0.52471 0.02541 0.951 0.0
C122 C 0.44943 0.02373 0.98691 0.0
N123 N 0.50002 0.04152 0.9898 0.0
N124 N 0.49242 0.99537 0.92611 0.0
C125 C 0.44467 0.99533 0.94797 0.0
H126 H 0.56648 0.03032 0.94403 0.0
H127 H 0.41892 0.02525 1.0146 0.0
C128 C 0.59148 0.14957 0.04561 0.0
N129 N 0.59891 0.06694 0.17303 0.0
C130 C 0.57969 0.05978 0.21971 0.0
C131 C 0.64987 0.08396 0.17435 0.0
N132 N 0.61709 0.0712 0.24999 0.0
C133 C 0.66115 0.08653 0.2215 0.0
C134 C 0.63051 0.01585 0.05029 0.0
O135 O 0.56124 0.12407 1.01965 0.0
O136 O 0.59763 0.12848 0.08882 0.0
O137 O 0.62739 0.02663 0.09356 0.0
O138 O 0.59247 0.02451 1.02442 0.0
O139 O 0.53581 0.98803 0.1446 0.0
H140 H 0.67704 0.09451 0.14286 0.0
H141 H 0.53934 0.0463 0.23119 0.0
O142 O 0.50175 0.98394 0.07456 0.0
O143 O 0.469 0.08405 0.07208 0.0
O144 O 0.50602 0.08865 0.14077 0.0
C145 C 0.4667 0.09549 0.11558 0.0
H146 H 0.40933 0.97316 0.93877 0.0
H147 H 0.69869 0.09996 0.23378 0.0
Co148 Co 0.60438 0.58517 0.55165 0.0
C149 C 0.52815 0.59146 0.48567 0.0
Co150 Co 0.5285 0.5451 0.58372 0.0
C151 C 0.71481 0.61254 0.54586 0.0
C152 C 0.67679 0.67035 0.50029 0.0
N153 N 0.66808 0.62215 0.52902 0.0
N154 N 0.75209 0.65348 0.53004 0.0
C155 C 0.72843 0.68967 0.50075 0.0
H156 H 0.72065 0.57771 0.57172 0.0
H157 H 0.64696 0.69155 0.48248 0.0
C158 C 0.6054 0.53954 0.64876 0.0
N159 N 0.46474 0.50753 0.6066 0.0
C160 C 0.418 0.51353 0.58811 0.0
C161 C 0.45707 0.46086 0.63769 0.0
N162 N 0.38194 0.47184 0.60534 0.0
C163 C 0.40626 0.43895 0.6371 0.0
C164 C 0.59169 0.47842 0.5397 0.0
O165 O 0.63171 0.56673 0.61251 0.0
O166 O 0.55781 0.52371 0.64448 0.0
O167 O 0.54752 0.48162 0.5606 0.0
O168 O 0.62466 0.52024 0.53158 0.0
O169 O 0.50015 0.56701 0.52238 0.0
H170 H 0.48721 0.44207 0.65722 0.0
H171 H 0.41132 0.54603 0.56013 0.0
O172 O 0.57637 0.60383 0.49024 0.0
O173 O 0.58453 0.64916 0.57301 0.0
O174 O 0.51031 0.60886 0.60798 0.0
C175 C 0.54334 0.6507 0.59946 0.0
H176 H 0.74667 0.72801 0.48188 0.0
H177 H 0.38913 0.40091 0.65743 0.0
Co178 Co 0.07989 0.57634 1.00875 0.0
C179 C 0.97491 0.52848 1.01521 0.0
Co180 Co 1.03667 0.57528 0.07903 0.0
C181 C 0.09477 0.55563 0.90999 0.0
C182 C 0.15104 0.61784 0.92648 0.0
N183 N 0.1119 0.58091 0.94696 0.0
N184 N 0.12071 0.57601 0.86718 0.0
C185 C 0.15666 0.6148 0.87757 0.0
H186 H 0.0618 0.52501 0.91371 0.0
H187 H 0.17226 0.6473 0.94516 0.0
C188 C 0.14112 0.61938 0.07636 0.0
N189 N 1.00547 0.57166 0.14079 0.0
C190 C 1.01822 0.60464 0.17388 0.0
C191 C 0.97685 0.52831 0.16629 0.0
N192 N 1.00072 0.58271 0.21951 0.0
C193 C 0.97385 0.53492 0.21455 0.0
C194 C 0.09229 0.48393 0.07017 0.0
O195 O 0.14313 0.61014 0.03242 0.0
O196 O 0.09783 0.60946 0.10074 0.0
O197 O 0.06272 0.50566 0.09834 0.0
O198 O 0.10389 0.50786 1.02721 0.0
O199 O 0.9753 0.53979 0.05826 0.0
H200 H 0.96315 0.49208 0.15151 0.0
H201 H 0.04299 0.64236 0.16483 0.0
O202 O 1.0161 0.54144 0.9873 0.0
O203 O 0.05617 0.64487 0.98942 0.0
O204 O 1.01134 0.64564 0.05812 0.0
C205 C 1.02551 0.66813 1.01481 0.0
H206 H 0.18415 0.64031 0.85159 0.0
H207 H 0.95662 0.50461 0.24382 0.0
C208 C 0.21207 0.12236 0.36374 0.0
C209 C 0.18324 0.12989 0.32232 0.0
H210 H 0.21044 0.10261 0.44133 0.0
C211 C 0.12842 0.11911 0.32882 0.0
H212 H 0.2541 0.13075 0.36043 0.0
C213 C 0.10315 0.10326 0.37527 0.0
C214 C 0.13181 0.09783 0.41692 0.0
H215 H 0.10478 0.12408 0.2978 0.0
H216 H 0.06102 0.09623 0.37856 0.0
C217 C 0.18676 0.10679 0.4103 0.0
C218 C 0.56635 0.94833 0.82266 0.0
C219 C 0.53279 0.90367 0.81368 0.0
H220 H 0.57884 0.01373 0.8642 0.0
C221 C 0.48953 0.88526 0.84627 0.0
H222 H 0.59911 0.96423 0.79721 0.0
C223 C 0.4771 0.91429 0.88414 0.0
C224 C 0.50784 0.96224 0.89022 0.0
H225 H 0.46235 0.85177 0.83944 0.0
H226 H 0.44222 0.90032 0.90732 0.0
C227 C 0.55401 0.97735 0.86048 0.0
C228 C 0.70749 0.53583 0.74201 0.0
C229 C 0.68152 0.50096 0.78109 0.0
H230 H 0.70401 0.57527 0.66937 0.0
C231 C 0.62929 0.48033 0.77726 0.0
H232 H 0.7476 0.55195 0.74421 0.0
C233 C 0.60418 0.4934 0.73461 0.0
C234 C 0.63073 0.52714 0.69487 0.0
H235 H 0.60799 0.45332 0.80691 0.0
H236 H 0.56433 0.47634 0.7325 0.0
C237 C 0.68248 0.54877 0.69923 0.0
C238 C 0.06875 0.66157 0.30892 0.0
C239 C 0.04275 0.63727 0.35285 0.0
H240 H 0.07691 0.66324 0.23215 0.0
C241 C 1.00306 0.59465 0.3524 0.0
H242 H 0.09892 0.69488 0.30846 0.0
C243 C 0.98907 0.57747 0.30885 0.0
C244 C 1.0148 0.60173 0.26444 0.0
H245 H 0.98132 0.57565 0.3856 0.0
H246 H 0.95734 0.54571 0.31029 0.0
C247 C 0.05533 0.64376 0.26514 0.0
C248 C 0.36745 0.13233 0.21032 0.0
C249 C 0.32538 0.14646 0.18263 0.0
H250 H 0.44427 0.10642 0.21137 0.0
C251 C 0.33069 0.14399 0.13217 0.0
H252 H 0.36558 0.13411 0.24902 0.0
C253 C 0.37609 0.12774 0.11038 0.0
C254 C 0.41825 0.11404 0.13809 0.0
H255 H 0.29927 0.15392 0.10939 0.0
H256 H 0.37812 0.12596 0.07167 0.0
C257 C 0.41306 0.11678 0.18846 0.0
C258 C 0.33542 0.99762 0.70103 0.0
C259 C 0.38064 0.99791 0.67121 0.0
H260 H 0.25758 0.02002 0.70558 0.0
C261 C 0.38435 0.0245 0.6233 0.0
H262 H 0.33254 0.97716 0.73808 0.0
C263 C 0.34237 0.04984 0.6053 0.0
C264 C 0.29628 0.04764 0.63469 0.0
H265 H 0.41929 0.02532 0.59992 0.0
H266 H 0.34508 0.06957 0.56803 0.0
C267 C 0.29299 0.02168 0.68265 0.0
C268 C 0.83991 0.45199 1.01646 0.0
C269 C 0.83424 0.44859 0.96695 0.0
H270 H 0.88805 0.48005 0.0703 0.0
C271 C 0.87586 0.471 0.93331 0.0
H272 H 0.80856 0.4357 0.04332 0.0
C273 C 0.92178 0.49628 0.94882 0.0
C274 C 0.92698 0.50046 0.9983 0.0
H275 H 0.87304 0.46871 0.89493 0.0
H276 H 0.95294 0.51313 0.92195 0.0
C277 C 0.88545 0.47781 0.03188 0.0
C278 C 0.88334 0.61735 0.56666 0.0
C279 C 0.91283 0.66828 0.55757 0.0
H280 H 0.8093 0.57241 0.56345 0.0
C281 C 0.88675 0.71478 0.54695 0.0
H282 H 0.9023 0.58083 0.57517 0.0
C283 C 0.83351 0.71001 0.54023 0.0
C284 C 0.80512 0.65872 0.54394 0.0
H285 H 0.90809 0.75472 0.53935 0.0
H286 H 0.8152 0.74653 0.52996 0.0
C287 C 0.83003 0.61257 0.55964 0.0
C288 C 0.12858 0.3609 0.15299 0.0
C289 C 0.16715 0.34193 0.12382 0.0
H290 H 0.07475 0.42009 0.15902 0.0
C291 C 0.17932 0.36883 0.07652 0.0
H292 H 0.11811 0.34123 0.18974 0.0
C293 C 0.1541 0.41394 0.05872 0.0
C294 C 0.11615 0.43355 0.08803 0.0
H295 H 0.20876 0.35508 0.0534 0.0
H296 H 0.16508 0.43403 1.02218 0.0
C297 C 0.10355 0.40617 0.13533 0.0
C298 C 0.67855 0.28299 0.03452 0.0
C299 C 0.68509 0.29724 0.98384 0.0
H300 H 0.64315 0.2252 0.09398 0.0
C301 C 0.66183 0.26159 0.95411 0.0
H302 H 0.69574 0.30955 0.0584 0.0
C303 C 0.63066 0.21452 0.97424 0.0
C304 C 0.62284 0.20092 1.02476 0.0
H305 H 0.66713 0.27049 0.91488 0.0
H306 H 0.61317 0.18845 0.95009 0.0
C307 C 0.6479 0.23507 0.0548 0.0
C308 C 0.08903 0.80634 0.56944 0.0
C309 C 0.07244 0.79115 0.52537 0.0
H310 H 0.10742 0.87217 0.61003 0.0
C311 C 0.0685 0.83144 0.4859 0.0
H312 H 0.09163 0.77582 0.60049 0.0
C313 C 0.07612 0.88601 0.49175 0.0
C314 C 0.08911 0.90113 0.53672 0.0
H315 H 0.05489 0.82078 0.45189 0.0
H316 H 0.06886 0.91638 0.46196 0.0
C317 C 0.09798 0.8612 0.5749 0.0
C318 C 0.5712 0.78996 0.63636 0.0
C319 C 0.53678 0.78712 0.67741 0.0
H320 H 0.59959 0.74953 0.57914 0.0
C321 C 0.50338 0.73949 0.6924 0.0
H322 H 0.59638 0.82686 0.62355 0.0
C323 C 0.50411 0.69544 0.66623 0.0
C324 C 0.53844 0.69843 0.62483 0.0
H325 H 0.47551 0.73712 0.72323 0.0
H326 H 0.47812 0.65904 0.67859 0.0
C327 C 0.57232 0.74602 0.61056 0.0
C328 C 1.02063 0.96314 0.78091 0.0
C329 C 0.96622 0.9536 0.79119 0.0
H330 H 0.08409 0.9919 0.72789 0.0
C331 C 0.93415 0.96736 0.75283 0.0
H332 H 0.04685 0.95384 0.80927 0.0
C333 C 0.95562 0.98923 0.70591 0.0
C334 C 1.00998 0.99861 0.69567 0.0
H335 H 0.89217 0.96023 0.75876 0.0
H336 H 0.92942 0.99856 0.67751 0.0
C337 C 0.0421 0.98545 0.73407 0.0
C338 C 0.65535 0.06681 0.377 0.0
C339 C 0.6123 0.08553 0.40016 0.0
H340 H 0.6895 0.0458 0.31187 0.0
C341 C 0.56775 0.09323 0.37401 0.0
H342 H 0.69111 0.06163 0.39488 0.0
C343 C 0.56775 0.08545 0.32502 0.0
C344 C 0.61232 0.07001 0.30171 0.0
H345 H 0.53384 0.10727 0.39075 0.0
H346 H 0.53424 0.09442 0.30477 0.0
C347 C 0.65504 0.05865 0.32876 0.0
C348 C 0.4308 0.60375 0.38673 0.0
C349 C 0.4622 0.63391 0.34777 0.0
H350 H 0.42712 0.56674 0.46135 0.0
C351 C 0.51484 0.64851 0.35416 0.0
H352 H 0.38983 0.59256 0.38294 0.0
C353 C 0.53617 0.63422 0.39858 0.0
C354 C 0.50509 0.60505 0.43816 0.0
H355 H 0.53939 0.67229 0.32463 0.0
H356 H 0.57694 0.64688 0.40203 0.0
C357 C 0.45217 0.58943 0.43163 0.0
C358 C 0.07483 0.49693 0.76913 0.0
C359 C 0.09259 0.53312 0.72721 0.0
H360 H 0.07126 0.48172 0.84663 0.0
C361 C 0.11591 0.58475 0.73192 0.0
H362 H 0.05752 0.45637 0.76647 0.0
C363 C 0.12394 0.59943 0.77779 0.0
C364 C 0.10907 0.56233 0.81993 0.0
H365 H 0.13033 0.61278 0.69987 0.0
H366 H 0.14278 0.63943 0.78003 0.0
C367 C 0.0831 0.51142 0.81509 0.0
C368 C 0.73193 0.97821 0.95905 0.0
C369 C 0.76889 0.95661 0.98952 0.0
H370 H 0.6594 0.01304 0.95429 0.0
C371 C 0.75973 0.95426 0.04 0.0
H372 H 0.73748 0.98036 0.91999 0.0
C373 C 0.71524 0.97368 0.05979 0.0
C374 C 0.67801 0.995 1.02954 0.0
H375 H 0.78748 0.93766 0.06421 0.0
H376 H 0.70981 0.97155 0.09888 0.0
C377 C 0.68694 0.99674 0.97886 0.0
C378 C 0.76913 0.12451 0.53216 0.0
C379 C 0.72486 0.08667 0.53368 0.0
H380 H 0.85242 0.13747 0.52818 0.0
C381 C 0.73143 0.03102 0.54115 0.0
H382 H 0.76597 0.16765 0.52601 0.0
C383 C 0.7813 0.014 0.54037 0.0
C384 C 0.82531 0.05222 0.53413 0.0
H385 H 0.69814 1.0007 0.54378 0.0
H386 H 0.7856 0.97117 0.54269 0.0
C387 C 0.81886 0.10734 0.53277 0.0
C388 C 0.22934 0.64571 0.17804 0.0
C389 C 0.27768 0.66317 0.15285 0.0
H390 H 0.14872 0.6196 0.17377 0.0
C391 C 0.28101 0.66627 0.10172 0.0
H392 H 0.22519 0.64352 0.21721 0.0
C393 C 0.23701 0.65241 0.07646 0.0
C394 C 0.18841 0.63596 0.10168 0.0
H395 H 0.31781 0.6795 0.0812 0.0
H396 H 0.241 0.65492 0.03727 0.0
C397 C 0.18532 0.63267 0.15284 0.0
C398 C 0.25028 0.49701 0.5618 0.0
C399 C 0.22388 0.44448 0.57053 0.0
H400 H 0.32098 0.54713 0.56726 0.0
C401 C 0.25224 0.40058 0.58491 0.0
H402 H 0.22942 0.5316 0.55062 0.0
C403 C 0.30459 0.40943 0.59452 0.0
C404 C 0.32979 0.46236 0.59 0.0
H405 H 0.23308 0.35963 0.5925 0.0
H406 H 0.32473 0.37483 0.60713 0.0
C407 C 0.30269 0.50588 0.57155 0.0
C408 C 0.98845 0.77588 0.91604 0.0
C409 C 0.96469 0.81251 0.942 0.0
H410 H 1.02598 0.70344 0.91811 0.0
C411 C 0.96104 0.8008 0.9934 0.0
H412 H 0.99094 0.78152 0.87673 0.0
C413 C 0.98026 0.75417 1.01759 0.0
C414 C 1.00453 0.71837 0.99117 0.0
H415 H 0.94374 0.82785 1.01522 0.0
H416 H 0.97662 0.74652 0.05691 0.0
C417 C 1.00834 0.73025 0.94007 0.0
C418 C 0.44155 0.84076 0.20095 0.0
C419 C 0.42318 0.80687 0.16754 0.0
H420 H 0.48355 0.916 0.21136 0.0
C421 C 0.43358 0.8245 0.11763 0.0
H422 H 0.43328 0.82904 0.23967 0.0
C423 C 0.46156 0.87479 0.10153 0.0
C424 C 0.4803 0.90821 0.135 0.0
H425 H 0.42072 0.79921 0.09097 0.0
H426 H 0.46878 0.88736 0.06277 0.0
C427 C 0.47028 0.89066 0.18484 0.0
C428 C 0.06317 0.27688 0.62284 0.0
C429 C 0.06591 0.31646 0.58173 0.0
H430 H 0.05716 0.19203 0.64949 0.0
C431 C 0.05661 0.30064 0.53612 0.0
H432 H 0.07114 0.28817 0.65819 0.0
C433 C 0.04734 0.24564 0.53138 0.0
C434 C 0.04878 0.20616 0.572 0.0
H435 H 0.05928 0.33063 0.50393 0.0
H436 H 0.04314 0.23392 0.49558 0.0
C437 C 0.05537 0.22208 0.61788 0.0
C438 C 0.57671 0.33242 0.51764 0.0
C439 C 0.62866 0.32024 0.51676 0.0
H440 H 0.52453 0.39236 0.52554 0.0
C441 C 0.66859 0.36114 0.52078 0.0
H442 H 0.54509 0.30155 0.51471 0.0
C443 C 0.65696 0.41355 0.52601 0.0
C444 C 0.60495 0.42535 0.52836 0.0
H445 H 0.70879 0.35231 0.52009 0.0
H446 H 0.68846 0.44422 0.52992 0.0
C447 C 0.56499 0.38439 0.52379 0.0
loop_
_geom_bond_atom_site_label_1
_geom_bond_atom_site_label_2
_geom_bond_distance
_geom_bond_site_symmetry_2
_ccdc_geom_bond_type
H0 C5 0.929 . S
H1 C10 0.931 . S
H2 C8 0.930 . S
N3 N4 1.234 . S
N3 C7 1.453 . S
N4 N3 1.234 . S
C5 H0 0.929 . S
C5 C6 1.373 . S
C5 C7 1.368 . S
C6 C5 1.373 . S
C6 C10 1.397 . S
C7 N3 1.453 . S
C7 C5 1.368 . S
C7 C8 1.373 . S
C8 H2 0.930 . S
C8 C7 1.373 . S
C8 C9 1.371 . S
C9 C8 1.371 . S
C9 C10 1.383 . S
C10 H1 0.931 . S
C10 C6 1.397 . S
C10 C9 1.383 . S
H11 C16 0.929 . S
H12 C21 0.931 . S
H13 C19 0.930 . S
N14 N15 1.234 . S
N14 C18 1.453 . S
N15 N14 1.234 . S
C16 H11 0.929 . S
C16 C17 1.373 . S
C16 C18 1.368 . S
C17 C16 1.373 . S
C17 C21 1.397 . S
C18 N14 1.453 . S
C18 C16 1.368 . S
C18 C19 1.373 . S
C19 H13 0.930 . S
C19 C18 1.373 . S
C19 C20 1.371 . S
C20 C19 1.371 . S
C20 C21 1.383 . S
C21 H12 0.931 . S
C21 C17 1.397 . S
C21 C20 1.383 . S
H22 C27 0.929 . S
H23 C32 0.931 1_554 S
H24 C30 0.930 . S
N25 N26 1.234 . S
N25 C29 1.453 . S
N26 N25 1.234 . S
C27 H22 0.929 . S
C27 C28 1.373 . S
C27 C29 1.368 . S
C28 C27 1.373 . S
C28 C32 1.397 . S
C29 N25 1.453 . S
C29 C27 1.368 . S
C29 C30 1.373 . S
C30 H24 0.930 . S
C30 C29 1.373 . S
C30 C31 1.371 . S
C31 C30 1.371 . S
C31 C32 1.383 . S
C32 H23 0.931 1_556 S
C32 C28 1.397 . S
C32 C31 1.383 . S
H33 C38 0.929 . S
H34 C43 0.931 . S
H35 C41 0.930 . S
N36 N37 1.234 . S
N36 C40 1.453 . S
N37 N36 1.234 . S
C38 H33 0.929 . S
C38 C39 1.373 . S
C38 C40 1.368 . S
C39 C38 1.373 . S
C39 C43 1.397 . S
C40 N36 1.453 . S
C40 C38 1.368 . S
C40 C41 1.373 . S
C41 H35 0.930 . S
C41 C40 1.373 . S
C41 C42 1.371 . S
C42 C41 1.371 . S
C42 C43 1.383 . S
C43 H34 0.931 . S
C43 C39 1.397 . S
C43 C42 1.383 . S
H44 C49 0.929 1_545 S
H45 C54 0.931 . S
H46 C52 0.930 . S
N47 N48 1.234 . S
N47 C51 1.453 . S
N48 N47 1.234 . S
C49 H44 0.929 1_565 S
C49 C50 1.373 . S
C49 C51 1.368 . S
C50 C49 1.373 . S
C50 C54 1.397 . S
C51 N47 1.453 . S
C51 C49 1.368 . S
C51 C52 1.373 . S
C52 H46 0.930 . S
C52 C51 1.373 . S
C52 C53 1.371 . S
C53 C52 1.371 . S
C53 C54 1.383 . S
C54 H45 0.931 . S
C54 C50 1.397 . S
C54 C53 1.383 . S
H55 C60 0.929 . S
H56 C65 0.931 . S
H57 C63 0.930 . S
N58 N59 1.234 . S
N58 C62 1.453 . S
N59 N58 1.234 . S
C60 H55 0.929 . S
C60 C61 1.373 . S
C60 C62 1.368 . S
C61 C60 1.373 . S
C61 C65 1.397 . S
C62 N58 1.453 . S
C62 C60 1.368 . S
C62 C63 1.373 . S
C63 H57 0.930 . S
C63 C62 1.373 . S
C63 C64 1.371 . S
C64 C63 1.371 . S
C64 C65 1.383 . S
C65 H56 0.931 . S
C65 C61 1.397 . S
C65 C64 1.383 . S
H66 C71 0.929 . S
H67 C76 0.931 . S
H68 C74 0.930 . S
N69 N70 1.234 . S
N69 C73 1.453 . S
N70 N69 1.234 . S
C71 H66 0.929 . S
C71 C72 1.373 . S
C71 C73 1.368 . S
C72 C71 1.373 . S
C72 C76 1.397 . S
C73 N69 1.453 . S
C73 C71 1.368 . S
C73 C74 1.373 . S
C74 H68 0.930 . S
C74 C73 1.373 . S
C74 C75 1.371 . S
C75 C74 1.371 . S
C75 C76 1.383 . S
C76 H67 0.931 . S
C76 C72 1.397 . S
C76 C75 1.383 . S
H77 C82 0.929 . S
H78 C87 0.931 . S
H79 C85 0.930 . S
N80 N81 1.234 . S
N80 C84 1.453 . S
N81 N80 1.234 . S
C82 H77 0.929 . S
C82 C83 1.373 . S
C82 C84 1.368 . S
C83 C82 1.373 . S
C83 C87 1.397 . S
C84 N80 1.453 . S
C84 C82 1.368 . S
C84 C85 1.373 . S
C85 H79 0.930 . S
C85 C84 1.373 . S
C85 C86 1.371 . S
C86 C85 1.371 . S
C86 C87 1.383 . S
C87 H78 0.931 . S
C87 C83 1.397 . S
C87 C86 1.383 . S
Co88 N93 2.057 . S
Co88 O105 2.021 . S
Co88 O108 2.062 . S
Co88 O112 2.117 1_545 S
Co88 O113 2.020 . S
C89 O109 1.259 1_655 S
C89 O112 1.258 . S
Co90 N99 2.057 . S
Co90 O106 2.117 . S
Co90 O107 2.020 . S
Co90 O109 2.021 1_545 S
Co90 O114 2.059 1_545 S
C91 N93 1.316 . S
C91 N94 1.347 . S
C91 H96 0.931 . S
C92 N93 1.375 . S
C92 C95 1.350 . S
C92 H97 0.930 1_545 S
N93 Co88 2.057 . S
N93 C91 1.316 . S
N93 C92 1.375 . S
N94 C91 1.347 . S
N94 C95 1.373 . S
C95 C92 1.350 . S
C95 N94 1.373 . S
C95 H116 0.931 . S
H96 C91 0.931 . S
H97 C92 0.930 1_565 S
C98 O105 1.259 1_455 S
C98 O106 1.258 . S
N99 Co90 2.057 . S
N99 C100 1.316 1_545 S
N99 C101 1.375 . S
C100 N99 1.316 1_565 S
C100 N102 1.347 . S
C100 H111 0.931 . S
C101 N99 1.375 . S
C101 C103 1.350 . S
C101 H110 0.930 . S
N102 C100 1.347 . S
N102 C103 1.373 1_565 S
C103 C101 1.350 . S
C103 N102 1.373 1_545 S
C103 H117 0.931 . S
C104 O107 1.256 . S
C104 O108 1.255 1_455 S
O105 Co88 2.021 . S
O105 C98 1.259 1_655 S
O106 Co90 2.117 . S
O106 C98 1.258 . S
O107 Co90 2.020 . S
O107 C104 1.256 . S
O108 Co88 2.062 . S
O108 C104 1.255 1_655 S
O109 C89 1.259 1_455 S
O109 Co90 2.021 1_565 S
H110 C101 0.930 . S
H111 C100 0.931 . S
O112 Co88 2.117 1_565 S
O112 C89 1.258 . S
O113 Co88 2.020 . S
O113 C115 1.256 . S
O114 Co90 2.059 1_565 S
O114 C115 1.249 1_465 S
C115 O113 1.256 . S
C115 O114 1.249 1_645 S
H116 C95 0.931 . S
H117 C103 0.931 . S
Co118 N123 2.057 1_544 S
Co118 O135 2.021 1_554 S
Co118 O138 2.062 1_554 S
Co118 O142 2.117 1_545 S
Co118 O143 2.020 . S
C119 O139 1.259 . S
C119 O142 1.258 . S
Co120 N129 2.057 . S
Co120 O136 2.117 . S
Co120 O137 2.020 . S
Co120 O139 2.021 1_545 S
Co120 O144 2.062 . S
C121 N123 1.316 1_545 S
C121 N124 1.347 1_545 S
C121 H126 0.931 . S
C122 N123 1.375 . S
C122 C125 1.350 . S
C122 H127 0.930 . S
N123 Co118 2.057 1_566 S
N123 C121 1.316 1_565 S
N123 C122 1.375 . S
N124 C121 1.347 1_565 S
N124 C125 1.373 . S
C125 C122 1.350 . S
C125 N124 1.373 . S
C125 H146 0.931 . S
H126 C121 0.931 . S
H127 C122 0.930 . S
C128 O135 1.259 1_554 S
C128 O136 1.258 . S
N129 Co120 2.057 . S
N129 C130 1.316 . S
N129 C131 1.375 . S
C130 N129 1.316 . S
C130 N132 1.347 . S
C130 H141 0.931 . S
C131 N129 1.375 . S
C131 C133 1.350 . S
C131 H140 0.930 . S
N132 C130 1.347 . S
N132 C133 1.373 . S
C133 C131 1.350 . S
C133 N132 1.373 . S
C133 H147 0.931 . S
C134 O137 1.256 . S
C134 O138 1.255 1_554 S
O135 Co118 2.021 1_556 S
O135 C128 1.259 1_556 S
O136 Co120 2.117 . S
O136 C128 1.258 . S
O137 Co120 2.020 . S
O137 C134 1.256 . S
O138 Co118 2.062 1_556 S
O138 C134 1.255 1_556 S
O139 C119 1.259 . S
O139 Co120 2.021 1_565 S
H140 C131 0.930 . S
H141 C130 0.931 . S
O142 Co118 2.117 1_565 S
O142 C119 1.258 . S
O143 Co118 2.020 . S
O143 C145 1.256 . S
O144 Co120 2.062 . S
O144 C145 1.255 . S
C145 O143 1.256 . S
C145 O144 1.255 . S
H146 C125 0.931 . S
H147 C133 0.931 . S
Co148 N153 2.057 . S
Co148 O165 2.021 . S
Co148 O168 2.062 . S
Co148 O172 2.117 . S
Co148 O173 2.020 . S
C149 O169 1.259 . S
C149 O172 1.258 . S
Co150 N159 2.057 . S
Co150 O166 2.117 . S
Co150 O167 2.020 . S
Co150 O169 2.021 . S
Co150 O174 2.062 . S
C151 N153 1.316 . S
C151 N154 1.347 . S
C151 H156 0.931 . S
C152 N153 1.375 . S
C152 C155 1.350 . S
C152 H157 0.930 . S
N153 Co148 2.057 . S
N153 C151 1.316 . S
N153 C152 1.375 . S
N154 C151 1.347 . S
N154 C155 1.373 . S
C155 C152 1.350 . S
C155 N154 1.373 . S
C155 H176 0.931 . S
H156 C151 0.931 . S
H157 C152 0.930 . S
C158 O165 1.259 . S
C158 O166 1.258 . S
N159 Co150 2.057 . S
N159 C160 1.316 . S
N159 C161 1.375 . S
C160 N159 1.316 . S
C160 N162 1.347 . S
C160 H171 0.931 . S
C161 N159 1.375 . S
C161 C163 1.350 . S
C161 H170 0.930 . S
N162 C160 1.347 . S
N162 C163 1.373 . S
C163 C161 1.350 . S
C163 N162 1.373 . S
C163 H177 0.931 . S
C164 O167 1.256 . S
C164 O168 1.255 . S
O165 Co148 2.021 . S
O165 C158 1.259 . S
O166 Co150 2.117 . S
O166 C158 1.258 . S
O167 Co150 2.020 . S
O167 C164 1.256 . S
O168 Co148 2.062 . S
O168 C164 1.255 . S
O169 C149 1.259 . S
O169 Co150 2.021 . S
H170 C161 0.930 . S
H171 C160 0.931 . S
O172 Co148 2.117 . S
O172 C149 1.258 . S
O173 Co148 2.020 . S
O173 C175 1.256 . S
O174 Co150 2.062 . S
O174 C175 1.255 . S
C175 O173 1.256 . S
C175 O174 1.255 . S
H176 C155 0.931 . S
H177 C163 0.931 . S
Co178 N183 2.057 . S
Co178 O195 2.021 . S
Co178 O198 2.062 1_556 S
Co178 O202 2.117 1_455 S
Co178 O203 2.020 . S
C179 O199 1.259 . S
C179 O202 1.258 1_554 S
Co180 N189 2.057 . S
Co180 O196 2.117 . S
Co180 O197 2.020 . S
Co180 O199 2.021 1_455 S
Co180 O204 2.062 . S
C181 N183 1.316 . S
C181 N184 1.347 . S
C181 H186 0.931 . S
C182 N183 1.375 . S
C182 C185 1.350 . S
C182 H187 0.930 1_455 S
N183 Co178 2.057 . S
N183 C181 1.316 . S
N183 C182 1.375 . S
N184 C181 1.347 . S
N184 C185 1.373 . S
C185 C182 1.350 . S
C185 N184 1.373 . S
C185 H206 0.931 . S
H186 C181 0.931 . S
H187 C182 0.930 1_655 S
C188 O195 1.259 1_554 S
C188 O196 1.258 . S
N189 Co180 2.057 . S
N189 C190 1.316 1_455 S
N189 C191 1.375 . S
C190 N189 1.316 1_655 S
C190 N192 1.347 . S
C190 H201 0.931 . S
C191 N189 1.375 . S
C191 C193 1.350 . S
C191 H200 0.930 . S
N192 C190 1.347 . S
N192 C193 1.373 1_655 S
C193 C191 1.350 . S
C193 N192 1.373 1_455 S
C193 H207 0.931 . S
C194 O197 1.256 . S
C194 O198 1.255 . S
O195 Co178 2.021 . S
O195 C188 1.259 1_556 S
O196 Co180 2.117 . S
O196 C188 1.258 . S
O197 Co180 2.020 . S
O197 C194 1.256 . S
O198 Co178 2.062 1_554 S
O198 C194 1.255 . S
O199 C179 1.259 . S
O199 Co180 2.021 1_655 S
H200 C191 0.930 . S
H201 C190 0.931 . S
O202 Co178 2.117 1_655 S
O202 C179 1.258 1_556 S
O203 Co178 2.020 . S
O203 C205 1.256 . S
O204 Co180 2.062 . S
O204 C205 1.255 1_554 S
C205 O203 1.256 . S
C205 O204 1.255 1_556 S
H206 C185 0.931 . S
H207 C193 0.931 . S
C208 C209 1.387 . S
C208 H212 0.950 . S
C208 C217 1.390 . S
C209 C208 1.387 . S
C209 C211 1.387 . S
H210 C217 0.950 . S
C211 C209 1.387 . S
C211 C213 1.390 . S
C211 H215 0.950 . S
H212 C208 0.950 . S
C213 C211 1.390 . S
C213 C214 1.387 . S
C213 H216 0.950 . S
C214 C213 1.387 . S
C214 C217 1.387 . S
H215 C211 0.950 . S
H216 C213 0.950 . S
C217 C208 1.390 . S
C217 H210 0.950 . S
C217 C214 1.387 . S
C218 C219 1.387 . S
C218 H222 0.950 . S
C218 C227 1.390 . S
C219 C218 1.387 . S
C219 C221 1.387 . S
H220 C227 0.950 1_545 S
C221 C219 1.387 . S
C221 C223 1.390 . S
C221 H225 0.950 . S
H222 C218 0.950 . S
C223 C221 1.390 . S
C223 C224 1.387 . S
C223 H226 0.950 . S
C224 C223 1.387 . S
C224 C227 1.387 . S
H225 C221 0.950 . S
H226 C223 0.950 . S
C227 C218 1.390 . S
C227 H220 0.950 1_565 S
C227 C224 1.387 . S
C228 C229 1.387 . S
C228 H232 0.950 . S
C228 C237 1.390 . S
C229 C228 1.387 . S
C229 C231 1.387 . S
H230 C237 0.950 . S
C231 C229 1.387 . S
C231 C233 1.390 . S
C231 H235 0.950 . S
H232 C228 0.950 . S
C233 C231 1.390 . S
C233 C234 1.387 . S
C233 H236 0.950 . S
C234 C233 1.387 . S
C234 C237 1.387 . S
H235 C231 0.950 . S
H236 C233 0.950 . S
C237 C228 1.390 . S
C237 H230 0.950 . S
C237 C234 1.387 . S
C238 C239 1.387 . S
C238 H242 0.950 . S
C238 C247 1.390 . S
C239 C238 1.387 . S
C239 C241 1.387 . S
H240 C247 0.950 . S
C241 C239 1.387 . S
C241 C243 1.390 . S
C241 H245 0.950 1_655 S
H242 C238 0.950 . S
C243 C241 1.390 . S
C243 C244 1.387 . S
C243 H246 0.950 . S
C244 C243 1.387 . S
C244 C247 1.387 . S
H245 C241 0.950 1_455 S
H246 C243 0.950 . S
C247 C238 1.390 . S
C247 H240 0.950 . S
C247 C244 1.387 . S
C248 C249 1.387 . S
C248 H252 0.950 . S
C248 C257 1.390 . S
C249 C248 1.387 . S
C249 C251 1.387 . S
H250 C257 0.950 . S
C251 C249 1.387 . S
C251 C253 1.390 . S
C251 H255 0.950 . S
H252 C248 0.950 . S
C253 C251 1.390 . S
C253 C254 1.387 . S
C253 H256 0.950 . S
C254 C253 1.387 . S
C254 C257 1.387 . S
H255 C251 0.950 . S
H256 C253 0.950 . S
C257 C248 1.390 . S
C257 H250 0.950 . S
C257 C254 1.387 . S
C258 C259 1.387 . S
C258 H262 0.950 . S
C258 C267 1.390 . S
C259 C258 1.387 . S
C259 C261 1.387 . S
H260 C267 0.950 1_545 S
C261 C259 1.387 . S
C261 C263 1.390 . S
C261 H265 0.950 . S
H262 C258 0.950 . S
C263 C261 1.390 . S
C263 C264 1.387 . S
C263 H266 0.950 . S
C264 C263 1.387 . S
C264 C267 1.387 . S
H265 C261 0.950 . S
H266 C263 0.950 . S
C267 C258 1.390 . S
C267 H260 0.950 1_565 S
C267 C264 1.387 . S
C268 C269 1.387 1_554 S
C268 H272 0.950 . S
C268 C277 1.390 . S
C269 C268 1.387 1_556 S
C269 C271 1.387 . S
H270 C277 0.950 . S
C271 C269 1.387 . S
C271 C273 1.390 . S
C271 H275 0.950 . S
H272 C268 0.950 . S
C273 C271 1.390 . S
C273 C274 1.387 . S
C273 H276 0.950 . S
C274 C273 1.387 . S
C274 C277 1.387 1_556 S
H275 C271 0.950 . S
H276 C273 0.950 . S
C277 C268 1.390 . S
C277 H270 0.950 . S
C277 C274 1.387 1_554 S
C278 C279 1.387 . S
C278 H282 0.950 . S
C278 C287 1.390 . S
C279 C278 1.387 . S
C279 C281 1.387 . S
H280 C287 0.950 . S
C281 C279 1.387 . S
C281 C283 1.390 . S
C281 H285 0.950 . S
H282 C278 0.950 . S
C283 C281 1.390 . S
C283 C284 1.387 . S
C283 H286 0.950 . S
C284 C283 1.387 . S
C284 C287 1.387 . S
H285 C281 0.950 . S
H286 C283 0.950 . S
C287 C278 1.390 . S
C287 H280 0.950 . S
C287 C284 1.387 . S
C288 C289 1.387 . S
C288 H292 0.950 . S
C288 C297 1.390 . S
C289 C288 1.387 . S
C289 C291 1.387 . S
H290 C297 0.950 . S
C291 C289 1.387 . S
C291 C293 1.390 . S
C291 H295 0.950 . S
H292 C288 0.950 . S
C293 C291 1.390 . S
C293 C294 1.387 . S
C293 H296 0.950 1_554 S
C294 C293 1.387 . S
C294 C297 1.387 . S
H295 C291 0.950 . S
H296 C293 0.950 1_556 S
C297 C288 1.390 . S
C297 H290 0.950 . S
C297 C294 1.387 . S
C298 C299 1.387 1_554 S
C298 H302 0.950 . S
C298 C307 1.390 . S
C299 C298 1.387 1_556 S
C299 C301 1.387 . S
H300 C307 0.950 . S
C301 C299 1.387 . S
C301 C303 1.390 . S
C301 H305 0.950 . S
H302 C298 0.950 . S
C303 C301 1.390 . S
C303 C304 1.387 . S
C303 H306 0.950 . S
C304 C303 1.387 . S
C304 C307 1.387 1_556 S
H305 C301 0.950 . S
H306 C303 0.950 . S
C307 C298 1.390 . S
C307 H300 0.950 . S
C307 C304 1.387 1_554 S
C308 C309 1.387 1_455 S
C308 H312 0.950 . S
C308 C317 1.390 . S
C309 C308 1.387 1_655 S
C309 C311 1.387 . S
H310 C317 0.950 . S
C311 C309 1.387 . S
C311 C313 1.390 . S
C311 H315 0.950 . S
H312 C308 0.950 . S
C313 C311 1.390 . S
C313 C314 1.387 . S
C313 H316 0.950 . S
C314 C313 1.387 . S
C314 C317 1.387 1_655 S
H315 C311 0.950 . S
H316 C313 0.950 . S
C317 C308 1.390 . S
C317 H310 0.950 . S
C317 C314 1.387 1_455 S
C318 C319 1.387 . S
C318 H322 0.950 . S
C318 C327 1.390 . S
C319 C318 1.387 . S
C319 C321 1.387 . S
H320 C327 0.950 . S
C321 C319 1.387 . S
C321 C323 1.390 . S
C321 H325 0.950 . S
H322 C318 0.950 . S
C323 C321 1.390 . S
C323 C324 1.387 . S
C323 H326 0.950 . S
C324 C323 1.387 . S
C324 C327 1.387 . S
H325 C321 0.950 . S
H326 C323 0.950 . S
C327 C318 1.390 . S
C327 H320 0.950 . S
C327 C324 1.387 . S
C328 C329 1.387 . S
C328 H332 0.950 . S
C328 C337 1.390 . S
C329 C328 1.387 . S
C329 C331 1.387 1_565 S
H330 C337 0.950 . S
C331 C329 1.387 1_545 S
C331 C333 1.390 . S
C331 H335 0.950 . S
H332 C328 0.950 . S
C333 C331 1.390 . S
C333 C334 1.387 1_545 S
C333 H336 0.950 . S
C334 C333 1.387 1_565 S
C334 C337 1.387 . S
H335 C331 0.950 . S
H336 C333 0.950 . S
C337 C328 1.390 . S
C337 H330 0.950 . S
C337 C334 1.387 . S
C338 C339 1.387 . S
C338 H342 0.950 . S
C338 C347 1.390 . S
C339 C338 1.387 . S
C339 C341 1.387 . S
H340 C347 0.950 . S
C341 C339 1.387 . S
C341 C343 1.390 . S
C341 H345 0.950 . S
H342 C338 0.950 . S
C343 C341 1.390 . S
C343 C344 1.387 . S
C343 H346 0.950 . S
C344 C343 1.387 . S
C344 C347 1.387 . S
H345 C341 0.950 . S
H346 C343 0.950 . S
C347 C338 1.390 . S
C347 H340 0.950 . S
C347 C344 1.387 . S
C348 C349 1.387 . S
C348 H352 0.950 . S
C348 C357 1.390 . S
C349 C348 1.387 . S
C349 C351 1.387 . S
H350 C357 0.950 . S
C351 C349 1.387 . S
C351 C353 1.390 . S
C351 H355 0.950 . S
H352 C348 0.950 . S
C353 C351 1.390 . S
C353 C354 1.387 . S
C353 H356 0.950 . S
C354 C353 1.387 . S
C354 C357 1.387 . S
H355 C351 0.950 . S
H356 C353 0.950 . S
C357 C348 1.390 . S
C357 H350 0.950 . S
C357 C354 1.387 . S
C358 C359 1.387 . S
C358 H362 0.950 . S
C358 C367 1.390 . S
C359 C358 1.387 . S
C359 C361 1.387 . S
H360 C367 0.950 . S
C361 C359 1.387 . S
C361 C363 1.390 . S
C361 H365 0.950 . S
H362 C358 0.950 . S
C363 C361 1.390 . S
C363 C364 1.387 . S
C363 H366 0.950 . S
C364 C363 1.387 . S
C364 C367 1.387 . S
H365 C361 0.950 . S
H366 C363 0.950 . S
C367 C358 1.390 . S
C367 H360 0.950 . S
C367 C364 1.387 . S
C368 C369 1.387 1_545 S
C368 H372 0.950 . S
C368 C377 1.390 . S
C369 C368 1.387 1_565 S
C369 C371 1.387 1_556 S
H370 C377 0.950 . S
C371 C369 1.387 1_554 S
C371 C373 1.390 . S
C371 H375 0.950 . S
H372 C368 0.950 . S
C373 C371 1.390 . S
C373 C374 1.387 . S
C373 H376 0.950 . S
C374 C373 1.387 . S
C374 C377 1.387 1_564 S
H375 C371 0.950 . S
H376 C373 0.950 . S
C377 C368 1.390 . S
C377 H370 0.950 . S
C377 C374 1.387 1_546 S
C378 C379 1.387 . S
C378 H382 0.950 . S
C378 C387 1.390 . S
C379 C378 1.387 . S
C379 C381 1.387 . S
H380 C387 0.950 . S
C381 C379 1.387 . S
C381 C383 1.390 . S
C381 H385 0.950 . S
H382 C378 0.950 . S
C383 C381 1.390 . S
C383 C384 1.387 . S
C383 H386 0.950 . S
C384 C383 1.387 . S
C384 C387 1.387 . S
H385 C381 0.950 . S
H386 C383 0.950 . S
C387 C378 1.390 . S
C387 H380 0.950 . S
C387 C384 1.387 . S
C388 C389 1.387 . S
C388 H392 0.950 . S
C388 C397 1.390 . S
C389 C388 1.387 . S
C389 C391 1.387 . S
H390 C397 0.950 . S
C391 C389 1.387 . S
C391 C393 1.390 . S
C391 H395 0.950 . S
H392 C388 0.950 . S
C393 C391 1.390 . S
C393 C394 1.387 . S
C393 H396 0.950 . S
C394 C393 1.387 . S
C394 C397 1.387 . S
H395 C391 0.950 . S
H396 C393 0.950 . S
C397 C388 1.390 . S
C397 H390 0.950 . S
C397 C394 1.387 . S
C398 C399 1.387 . S
C398 H402 0.950 . S
C398 C407 1.390 . S
C399 C398 1.387 . S
C399 C401 1.387 . S
H400 C407 0.950 . S
C401 C399 1.387 . S
C401 C403 1.390 . S
C401 H405 0.950 . S
H402 C398 0.950 . S
C403 C401 1.390 . S
C403 C404 1.387 . S
C403 H406 0.950 . S
C404 C403 1.387 . S
C404 C407 1.387 . S
H405 C401 0.950 . S
H406 C403 0.950 . S
C407 C398 1.390 . S
C407 H400 0.950 . S
C407 C404 1.387 . S
C408 C409 1.387 . S
C408 H412 0.955 . S
C408 C417 1.390 1_655 S
C409 C408 1.387 . S
C409 C411 1.387 . S
H410 C417 0.950 . S
C411 C409 1.387 . S
C411 C413 1.390 1_556 S
C411 H415 0.950 1_556 S
H412 C408 0.955 . S
C413 C411 1.390 1_554 S
C413 C414 1.387 1_554 S
C413 H416 0.950 . S
C414 C413 1.387 1_556 S
C414 C417 1.387 1_655 S
H415 C411 0.950 1_554 S
H416 C413 0.950 . S
C417 C408 1.390 1_455 S
C417 H410 0.950 . S
C417 C414 1.387 1_455 S
C418 C419 1.387 . S
C418 H422 0.950 . S
C418 C427 1.390 . S
C419 C418 1.387 . S
C419 C421 1.387 . S
H420 C427 0.950 . S
C421 C419 1.387 . S
C421 C423 1.390 . S
C421 H425 0.950 . S
H422 C418 0.950 . S
C423 C421 1.390 . S
C423 C424 1.387 . S
C423 H426 0.950 . S
C424 C423 1.387 . S
C424 C427 1.387 . S
H425 C421 0.950 . S
H426 C423 0.950 . S
C427 C418 1.390 . S
C427 H420 0.950 . S
C427 C424 1.387 . S
C428 C429 1.387 . S
C428 H432 0.950 . S
C428 C437 1.390 . S
C429 C428 1.387 . S
C429 C431 1.387 . S
H430 C437 0.950 . S
C431 C429 1.387 . S
C431 C433 1.390 . S
C431 H435 0.950 . S
H432 C428 0.950 . S
C433 C431 1.390 . S
C433 C434 1.387 . S
C433 H436 0.950 . S
C434 C433 1.387 . S
C434 C437 1.387 . S
H435 C431 0.950 . S
H436 C433 0.950 . S
C437 C428 1.390 . S
C437 H430 0.950 . S
C437 C434 1.387 . S
C438 C439 1.387 . S
C438 H442 0.950 . S
C438 C447 1.390 . S
C439 C438 1.387 . S
C439 C441 1.387 . S
H440 C447 0.950 . S
C441 C439 1.387 . S
C441 C443 1.390 . S
C441 H445 0.950 . S
H442 C438 0.950 . S
C443 C441 1.390 . S
C443 C444 1.387 . S
C443 H446 0.950 . S
C444 C443 1.387 . S
C444 C447 1.387 . S
H445 C441 0.950 . S
H446 C443 0.950 . S
C447 C438 1.390 . S
C447 H440 0.950 . S
C447 C444 1.387 . S
C209 C6 2.283 . S
C214 C104 2.299 . S
C219 C20 1.378 . S
C224 N124 1.376 . S
C234 C158 1.680 . S
C229 N26 1.675 . S
C239 N37 1.235 . S
C244 N192 1.155 . S
C254 C145 2.635 . S
C249 C9 2.622 . S
C264 N102 0.971 . S
C259 N15 0.988 . S
C274 C179 1.922 1_556 S
C269 C31 1.906 . S
C284 N154 1.004 . S
C279 C39 1.003 . S
C289 N4 1.803 . S
C294 C194 1.818 . S
C304 C128 1.786 1_556 S
C299 C28 1.745 . S
C309 C42 1.177 . S
C314 C89 1.199 . S
C319 C17 1.540 . S
C324 C175 1.560 . S
C334 C115 2.363 1_565 S
C329 C50 2.357 . S
C339 C61 1.185 . S
C344 N132 1.185 . S
C349 N70 1.925 . S
C354 C149 1.931 . S
C359 N81 1.134 . S
C364 N184 1.093 . S
C369 N48 2.094 . S
C374 C134 2.117 1_565 S
C384 N94 1.419 . S
C379 C64 1.413 . S
C394 C188 1.951 . S
C389 C75 1.921 . S
C404 N162 1.089 . S
C399 C86 1.075 . S
C409 C53 2.005 . S
C414 C205 2.014 1_655 S
C424 C119 1.507 . S
C419 C72 1.490 . S
C434 C98 1.464 . S
C429 C83 1.453 . S
C439 N59 1.398 . S
C444 C164 1.414 . S
