# Generated by pormake.
# Topology ssa, (4,4)-cn, num edge types: 1
# Building blocks:
#     Node 0, Type 0, BuildingBlock: ESEHIV_clean_sbu_0, # of connection points: 4
#     Node 1, Type 0, BuildingBlock: ESEHIV_clean_sbu_0, # of connection points: 4
#     Node 2, Type 0, BuildingBlock: ESEHIV_clean_sbu_0, # of connection points: 4
#     Node 3, Type 0, BuildingBlock: ESEHIV_clean_sbu_0, # of connection points: 4
#     Node 4, Type 0, BuildingBlock: ESEHIV_clean_sbu_0, # of connection points: 4
#     Node 5, Type 0, BuildingBlock: ESEHIV_clean_sbu_0, # of connection points: 4
#     Node 6, Type 1, BuildingBlock: GIZVER_clean_linker_0, # of connection points: 4
#     Node 7, Type 1, BuildingBlock: GIZVER_clean_linker_0, # of connection points: 4
#     Node 8, Type 1, BuildingBlock: GIZVER_clean_linker_0, # of connection points: 4
#     Node 9, Type 1, BuildingBlock: GIZVER_clean_linker_0, # of connection points: 4
#     Node 10, Type 1, BuildingBlock: GIZVER_clean_linker_0, # of connection points: 4
#     Node 11, Type 1, BuildingBlock: GIZVER_clean_linker_0, # of connection points: 4
#     Edge 12, Type (0, 1), None
#     Edge 13, Type (0, 1), None
#     Edge 14, Type (0, 1), None
#     Edge 15, Type (0, 1), None
#     Edge 16, Type (0, 1), None
#     Edge 17, Type (0, 1), None
#     Edge 18, Type (0, 1), None
#     Edge 19, Type (0, 1), None
#     Edge 20, Type (0, 1), None
#     Edge 21, Type (0, 1), None
#     Edge 22, Type (0, 1), None
#     Edge 23, Type (0, 1), None
#     Edge 24, Type (0, 1), None
#     Edge 25, Type (0, 1), None
#     Edge 26, Type (0, 1), None
#     Edge 27, Type (0, 1), None
#     Edge 28, Type (0, 1), None
#     Edge 29, Type (0, 1), None
#     Edge 30, Type (0, 1), None
#     Edge 31, Type (0, 1), None
#     Edge 32, Type (0, 1), None
#     Edge 33, Type (0, 1), None
#     Edge 34, Type (0, 1), None
#     Edge 35, Type (0, 1), None
# Relax obj value: 0.013
# Max RMSD: 0.111
# Mean RMSD: 0.066
data_MOF--net-ssa--node1-ESEHIV_clean_sbu_0--node2-GIZVER_clean_linker_0--edge1-none
_symmetry_space_group_name_H-M    P1
_symmetry_Int_Tables_number       1
_symmetry_cell_setting            triclinic
loop_
_symmetry_equiv_pos_as_xyz
'x, y, z'
_cell_length_a     24.973086
_cell_length_b     27.809809
_cell_length_c     14.716363
_cell_angle_alpha  85.965214
_cell_angle_beta   94.404832
_cell_angle_gamma 123.93854
loop_
_atom_site_label
_atom_site_type_symbol
_atom_site_fract_x
_atom_site_fract_y
_atom_site_fract_z
_atom_type_partial_charge
Cu0 Cu 1.03707 0.49567 0.0241 0.0
N1 N 1.00559 0.43887 0.93719 0.0
N2 N 0.94903 0.38827 0.81434 0.0
C3 C 0.98931 0.44151 0.84868 0.0
C4 C 0.94136 0.3506 0.88315 0.0
C5 C 0.97642 0.38195 0.95864 0.0
O6 O 0.98021 0.52434 0.03072 0.0
C7 C 0.1084 0.46285 0.12869 0.0
O8 O 0.12401 0.46077 0.04648 0.0
H9 H 1.00123 0.48102 0.81243 0.0
H10 H 0.97565 0.36432 0.02679 0.0
N11 N 0.116 0.56527 0.00365 0.0
N12 N 0.17436 0.65081 0.07061 0.0
C13 C 0.14538 0.5934 0.08103 0.0
C14 C 0.1308 0.60759 0.93974 0.0
C15 C 0.16662 0.66074 0.98127 0.0
C16 C 0.92918 0.50925 0.98088 0.0
O17 O 0.89306 0.45549 0.95439 0.0
H18 H 0.13506 0.57201 0.14763 0.0
H19 H 0.1108 0.60031 0.87075 0.0
O20 O 0.06063 0.46759 0.13587 0.0
H21 H 0.90875 0.30389 0.88115 0.0
H22 H 0.17909 0.7021 0.95063 0.0
Cu23 Cu 0.58742 0.03386 0.49692 0.0
N24 N 0.62583 1.00999 0.42233 0.0
N25 N 0.61291 0.9445 0.32601 0.0
C26 C 0.59634 0.9815 0.34457 0.0
C27 C 0.65496 0.95012 0.39424 0.0
C28 C 0.66272 0.99031 0.45342 0.0
O29 O 0.49566 0.97434 0.4778 0.0
C30 C 0.67768 0.08611 0.63801 0.0
O31 O 0.71811 0.10548 0.57184 0.0
H32 H 0.55725 0.98224 0.30875 0.0
H33 H 0.68719 0.99889 0.52003 0.0
N34 N 0.59827 0.1061 0.47387 0.0
N35 N 0.5703 0.16438 0.51873 0.0
C36 C 0.58469 0.12541 0.54389 0.0
C37 C 0.59361 0.13516 0.39964 0.0
C38 C 0.57602 0.17131 0.42749 0.0
C39 C 0.45631 0.98543 0.43802 0.0
O40 O 0.46636 0.03657 0.44505 0.0
H41 H 0.57442 0.1038 0.61036 0.0
H42 H 0.59374 0.12504 0.33006 0.0
O43 O 0.62079 0.04123 0.62323 0.0
H44 H 0.67506 0.92418 0.40394 0.0
H45 H 0.56109 0.19496 0.38328 0.0
Cu46 Cu 0.53726 0.49406 0.06827 0.0
N47 N 0.54183 0.42902 0.09187 0.0
N48 N 0.52325 0.35442 0.01202 0.0
C49 C 0.56098 0.41211 0.02442 0.0
C50 C 0.4814 0.33338 0.07958 0.0
C51 C 0.49323 0.37909 0.12896 0.0
O52 O 0.58852 0.53342 0.96337 0.0
C53 C 0.39939 0.45406 0.06937 0.0
O54 O 0.34343 0.42744 0.02347 0.0
H55 H 0.59068 0.44173 0.97094 0.0
H56 H 0.4599 0.37655 0.17482 0.0
N57 N 0.56925 0.54828 0.1604 0.0
N58 N 0.59054 0.62291 0.24192 0.0
C59 C 0.55767 0.5898 0.16899 0.0
C60 C 0.6124 0.55649 0.22819 0.0
C61 C 0.62563 0.6022 0.27826 0.0
C62 C 0.64849 0.55381 0.97315 0.0
O63 O 0.67276 0.5519 0.05473 0.0
H64 H 0.52346 0.59379 0.12509 0.0
H65 H 0.63258 0.53075 0.24052 0.0
O66 O 0.44732 0.46033 0.03215 0.0
H67 H 0.43801 0.28996 0.08242 0.0
H68 H 0.65751 0.61782 0.3386 0.0
Cu69 Cu 0.05151 0.5667 0.48631 0.0
N70 N 0.12166 0.56041 0.49947 0.0
N71 N 0.18042 0.53541 0.43612 0.0
C72 C 0.15472 0.56702 0.42696 0.0
C73 C 0.16452 0.50871 0.51894 0.0
C74 C 0.12832 0.52456 0.55842 0.0
O75 O 0.06468 0.60943 0.36918 0.0
C76 C 0.92035 0.46019 0.51398 0.0
O77 O 0.8912 0.48683 0.49094 0.0
H78 H 0.15068 0.58622 0.36246 0.0
H79 H 0.10101 0.50462 0.61901 0.0
N80 N 0.05433 0.60715 0.58362 0.0
N81 N 1.02132 0.62636 0.70369 0.0
C82 C 1.00327 0.5976 0.6258 0.0
C83 C 0.10653 0.64317 0.6369 0.0
C84 C 0.08614 0.65494 0.71155 0.0
C85 C 0.1068 0.66419 0.36853 0.0
O86 O 0.12217 0.69111 0.44548 0.0
H87 H 0.95364 0.56618 0.60476 0.0
H88 H 0.15535 0.65653 0.62539 0.0
O89 O 0.98021 0.4853 0.50022 0.0
H90 H 0.17111 0.47467 0.54363 0.0
H91 H 0.11584 0.67881 0.77034 0.0
Cu92 Cu 0.47917 1.01766 0.96046 0.0
N93 N 0.42635 0.02698 0.87404 0.0
N94 N 0.4232 0.08232 0.75847 0.0
C95 C 0.44694 0.05077 0.79069 0.0
C96 C 0.3831 0.07535 0.82203 0.0
C97 C 0.38526 0.04145 0.89316 0.0
O98 O 0.56839 0.07471 0.92826 0.0
C99 C 0.39894 0.97578 0.10453 0.0
O100 O 0.35804 0.94546 0.03751 0.0
H101 H 0.48809 0.05454 0.76281 0.0
H102 H 0.36692 0.03652 0.95971 0.0
N103 N 0.47285 0.9476 0.95715 0.0
N104 N 0.50129 0.89071 0.0283 0.0
C105 C 0.47637 0.92217 0.03634 0.0
C106 C 0.49582 0.93066 0.89537 0.0
C107 C 0.51319 0.89512 0.9393 0.0
C108 C 0.59033 0.12547 0.89419 0.0
O109 O 0.55814 0.14935 0.90272 0.0
H110 H 0.47157 0.93427 0.10165 0.0
H111 H 0.50787 0.94931 0.827 0.0
O112 O 0.45584 1.01781 0.08442 0.0
H113 H 0.36171 0.10008 0.82342 0.0
H114 H 0.53982 0.8801 0.91068 0.0
Cu115 Cu 0.52908 0.52531 0.57207 0.0
N116 N 0.52704 0.5887 0.60285 0.0
N117 N 0.54177 0.66608 0.5212 0.0
C118 C 0.50235 0.60836 0.53814 0.0
C119 C 0.58817 0.68442 0.58853 0.0
C120 C 0.57848 0.63684 0.63951 0.0
O121 O 0.50977 0.51638 0.4384 0.0
C122 C 0.66726 0.57863 0.63627 0.0
O123 O 0.68833 0.62565 0.58434 0.0
H124 H 0.4672 0.57981 0.48788 0.0
H125 H 0.61382 0.63716 0.68708 0.0
N126 N 0.46826 0.45693 0.63194 0.0
N127 N 0.44364 0.37762 0.71619 0.0
C128 C 0.4791 0.41496 0.64859 0.0
C129 C 0.42258 0.44533 0.68885 0.0
C130 C 0.40703 0.39612 0.74083 0.0
C131 C 0.45064 0.48549 0.40899 0.0
O132 O 0.40568 0.45582 0.46843 0.0
H133 H 0.51939 0.41715 0.62094 0.0
H134 H 0.40704 0.47385 0.69885 0.0
O135 O 0.60926 0.53494 0.62471 0.0
H136 H 0.6328 0.72706 0.58944 0.0
H137 H 0.37638 0.37916 0.7986 0.0
H138 H 0.23627 0.50389 0.11753 0.0
H139 H 0.29598 0.56527 0.39038 0.0
H140 H 0.0953 0.47065 0.30704 0.0
H141 H 0.34712 0.59042 0.15751 0.0
H142 H 0.37267 0.60828 0.27352 0.0
H143 H 0.355 0.51903 0.08924 0.0
H144 H 0.45335 0.44919 0.24008 0.0
H145 H 0.39382 0.5434 0.37567 0.0
C146 C 0.22357 0.50452 0.186 0.0
C147 C 0.1584 0.48087 0.20464 0.0
C148 C 0.27365 0.53471 0.25292 0.0
C149 C 0.25798 0.53919 0.34 0.0
C150 C 0.1939 0.51591 0.35922 0.0
C151 C 0.1443 0.48564 0.29245 0.0
C152 C 0.34363 0.57114 0.22746 0.0
C153 C 0.37345 0.53647 0.23175 0.0
C154 C 0.37605 0.51309 0.15276 0.0
C155 C 0.40514 0.48209 0.1544 0.0
C156 C 0.43253 0.47451 0.23743 0.0
C157 C 0.43003 0.49782 0.31798 0.0
C158 C 0.39911 0.52759 0.31422 0.0
H159 H 0.74273 0.20241 0.60858 0.0
H160 H 0.6596 0.23536 0.82027 0.0
H161 H 0.62248 0.06539 0.79997 0.0
H162 H 0.70591 0.27545 0.59528 0.0
H163 H 0.70941 0.30609 0.70044 0.0
H164 H 0.79336 0.36745 0.53125 0.0
H165 H 0.9842 0.44835 0.65794 0.0
H166 H 0.82305 0.30427 0.793 0.0
C167 C 0.71666 0.18794 0.67092 0.0
C168 C 0.68531 0.12935 0.70111 0.0
C169 C 0.70721 0.22634 0.7127 0.0
C170 C 0.66907 0.20664 0.78971 0.0
C171 C 0.63968 0.14905 0.8238 0.0
C172 C 0.64865 0.1109 0.77914 0.0
C173 C 0.72818 0.28452 0.66563 0.0
C174 C 0.80067 0.32699 0.65907 0.0
C175 C 0.82575 0.36835 0.58555 0.0
C176 C 0.89234 0.4118 0.58355 0.0
C177 C 0.93327 0.41397 0.65649 0.0
C178 C 0.90878 0.37602 0.73243 0.0
C179 C 0.8426 0.33212 0.73277 0.0
H180 H 0.54615 0.68729 0.16299 0.0
H181 H 0.50496 0.72708 0.41603 0.0
H182 H 0.60226 0.64062 0.4198 0.0
H183 H 0.46709 0.71124 0.16851 0.0
H184 H 0.44762 0.72541 0.27298 0.0
H185 H 0.47727 0.78596 0.07337 0.0
H186 H 0.58237 0.96177 0.1565 0.0
H187 H 0.5706 0.8305 0.34208 0.0
C188 C 0.55178 0.6891 0.23661 0.0
C189 C 0.57856 0.66115 0.28531 0.0
C190 C 0.52817 0.7161 0.28326 0.0
C191 C 0.52923 0.71259 0.37939 0.0
C192 C 0.55655 0.68573 0.42797 0.0
C193 C 0.58436 0.66359 0.38048 0.0
C194 C 0.48878 0.73632 0.23179 0.0
C195 C 0.52511 0.80096 0.20777 0.0
C196 C 0.50953 0.81815 0.12274 0.0
C197 C 0.52953 0.87575 0.10446 0.0
C198 C 0.5677 0.91731 0.17024 0.0
C199 C 0.5831 0.90189 0.25584 0.0
C200 C 0.56202 0.8434 0.27437 0.0
H201 H 0.7973 0.62625 0.68394 0.0
H202 H 0.77606 0.60015 0.97417 0.0
H203 H 0.60958 0.5457 0.79463 0.0
H204 H 0.88882 0.6877 0.8027 0.0
H205 H 0.87871 0.66781 0.92021 0.0
H206 H 0.94359 0.66171 0.72047 0.0
H207 H 1.00612 0.55738 0.84423 0.0
H208 H 0.86033 0.56297 0.97035 0.0
C209 C 0.76661 0.60916 0.74177 0.0
C210 C 0.69932 0.58297 0.72778 0.0
C211 C 0.79427 0.61435 0.83137 0.0
C212 C 0.75451 0.59466 0.90567 0.0
C213 C 0.68841 0.57126 0.89305 0.0
C214 C 0.66096 0.56424 0.80427 0.0
C215 C 0.86654 0.64952 0.85109 0.0
C216 C 0.89769 0.61615 0.84581 0.0
C217 C 0.93968 0.63176 0.77502 0.0
C218 C 0.97944 0.6114 0.77629 0.0
C219 C 0.97592 0.57341 0.84602 0.0
C220 C 0.9325 0.5541 0.91529 0.0
C221 C 0.89293 0.57585 0.91567 0.0
H222 H 0.33742 0.86146 0.14103 0.0
H223 H 0.3898 0.86942 0.42661 0.0
H224 H 0.44372 1.02583 0.2704 0.0
H225 H 0.36788 0.79246 0.24019 0.0
H226 H 0.34386 0.78073 0.35464 0.0
H227 H 0.28822 0.74317 0.12197 0.0
H228 H 0.09 0.63086 0.19281 0.0
H229 H 0.23136 0.75612 0.38245 0.0
C230 C 0.35731 0.88644 0.20226 0.0
C231 C 0.38831 0.94704 0.19626 0.0
C232 C 0.35787 0.85823 0.28472 0.0
C233 C 0.38721 0.8906 0.36328 0.0
C234 C 0.41663 0.95074 0.35939 0.0
C235 C 0.41733 0.97892 0.27542 0.0
C236 C 0.33646 0.79573 0.28559 0.0
C237 C 0.2666 0.7561 0.25404 0.0
C238 C 0.25056 0.73134 0.16811 0.0
C239 C 0.187 0.68663 0.1455 0.0
C240 C 0.13849 0.66772 0.20849 0.0
C241 C 0.15348 0.69233 0.29435 0.0
C242 C 0.21775 0.73793 0.31528 0.0
H243 H 0.57217 0.30747 0.92026 0.0
H244 H 0.4924 0.32076 0.6573 0.0
H245 H 0.44519 0.36569 0.89849 0.0
H246 H 0.60261 0.33032 0.68519 0.0
H247 H 0.61034 0.29401 0.78576 0.0
H248 H 0.47249 0.19185 0.79839 0.0
H249 H 0.46149 0.08393 0.59545 0.0
H250 H 0.60353 0.26735 0.57969 0.0
C251 C 0.53887 0.31422 0.87919 0.0
C252 C 0.50537 0.33328 0.92081 0.0
C253 C 0.5328 0.30798 0.78377 0.0
C254 C 0.49396 0.32219 0.73091 0.0
C255 C 0.46297 0.34425 0.7712 0.0
C256 C 0.46603 0.34627 0.86648 0.0
C257 C 0.57479 0.29467 0.73632 0.0
C258 C 0.53683 0.23741 0.68838 0.0
C259 C 0.4862 0.18792 0.73265 0.0
C260 C 0.45866 0.13251 0.69887 0.0
C261 C 0.48036 0.1271 0.61795 0.0
C262 C 0.53365 0.1752 0.57525 0.0
C263 C 0.56064 0.23055 0.60949 0.0
loop_
_geom_bond_atom_site_label_1
_geom_bond_atom_site_label_2
_geom_bond_distance
_geom_bond_site_symmetry_2
_ccdc_geom_bond_type
Cu0 N1 1.999 1_454 S
Cu0 O6 1.964 1_454 S
Cu0 N11 1.985 . S
Cu0 O20 1.969 . S
N1 Cu0 1.999 1_656 S
N1 C3 1.263 . S
N1 C5 1.389 1_556 S
N2 C3 1.358 . S
N2 C4 1.400 . S
C3 N1 1.263 . S
C3 N2 1.358 . S
C3 H9 0.930 . S
C4 N2 1.400 . S
C4 C5 1.351 1_556 S
C4 H21 0.930 . S
C5 N1 1.389 1_554 S
C5 C4 1.351 1_554 S
C5 H10 0.930 . S
O6 Cu0 1.964 1_656 S
O6 C16 1.282 . S
C7 O8 1.261 1_554 S
C7 O20 1.251 . S
O8 C7 1.261 1_556 S
H9 C3 0.930 . S
H10 C5 0.930 . S
N11 Cu0 1.985 . S
N11 C13 1.335 . S
N11 C14 1.390 . S
N12 C13 1.345 . S
N12 C15 1.336 . S
C13 N11 1.335 . S
C13 N12 1.345 . S
C13 H18 0.930 . S
C14 N11 1.390 . S
C14 C15 1.346 . S
C14 H19 0.930 1_554 S
C15 N12 1.336 . S
C15 C14 1.346 . S
C15 H22 0.929 . S
C16 O6 1.282 . S
C16 O17 1.216 . S
O17 C16 1.216 . S
H18 C13 0.930 . S
H19 C14 0.930 1_556 S
O20 Cu0 1.969 . S
O20 C7 1.251 . S
H21 C4 0.930 . S
H22 C15 0.929 . S
Cu23 N24 1.999 . S
Cu23 O29 1.974 . S
Cu23 N34 1.985 1_565 S
Cu23 O43 1.959 1_565 S
N24 Cu23 1.999 . S
N24 C26 1.263 . S
N24 C28 1.389 . S
N25 C26 1.358 . S
N25 C27 1.400 . S
C26 N24 1.263 . S
C26 N25 1.358 . S
C26 H32 0.930 . S
C27 N25 1.400 . S
C27 C28 1.351 . S
C27 H44 0.930 . S
C28 N24 1.389 . S
C28 C27 1.351 . S
C28 H33 0.930 . S
O29 Cu23 1.974 . S
O29 C39 1.282 . S
C30 O31 1.261 . S
C30 O43 1.251 . S
O31 C30 1.261 . S
H32 C26 0.930 . S
H33 C28 0.930 . S
N34 Cu23 1.985 1_545 S
N34 C36 1.335 . S
N34 C37 1.390 . S
N35 C36 1.345 . S
N35 C38 1.336 . S
C36 N34 1.335 . S
C36 N35 1.345 . S
C36 H41 0.930 . S
C37 N34 1.390 . S
C37 C38 1.346 . S
C37 H42 0.930 1_545 S
C38 N35 1.336 . S
C38 C37 1.346 . S
C38 H45 0.929 . S
C39 O29 1.282 . S
C39 O40 1.216 . S
O40 C39 1.216 . S
H41 C36 0.930 . S
H42 C37 0.930 1_565 S
O43 Cu23 1.959 1_545 S
O43 C30 1.251 . S
H44 C27 0.930 . S
H45 C38 0.929 . S
Cu46 N47 1.999 . S
Cu46 O52 1.974 . S
Cu46 N57 1.985 1_556 S
Cu46 O66 1.959 1_556 S
N47 Cu46 1.999 . S
N47 C49 1.263 . S
N47 C51 1.389 . S
N48 C49 1.358 . S
N48 C50 1.400 . S
C49 N47 1.263 . S
C49 N48 1.358 . S
C49 H55 0.930 . S
C50 N48 1.400 . S
C50 C51 1.351 . S
C50 H67 0.930 . S
C51 N47 1.389 . S
C51 C50 1.351 . S
C51 H56 0.930 . S
O52 Cu46 1.974 . S
O52 C62 1.282 . S
C53 O54 1.261 . S
C53 O66 1.251 . S
O54 C53 1.261 . S
H55 C49 0.930 . S
H56 C51 0.930 . S
N57 Cu46 1.985 1_554 S
N57 C59 1.335 . S
N57 C60 1.390 . S
N58 C59 1.345 . S
N58 C61 1.336 . S
C59 N57 1.335 . S
C59 N58 1.345 . S
C59 H64 0.930 . S
C60 N57 1.390 . S
C60 C61 1.346 . S
C60 H65 0.930 . S
C61 N58 1.336 . S
C61 C60 1.346 . S
C61 H68 0.929 . S
C62 O52 1.282 . S
C62 O63 1.216 1_556 S
O63 C62 1.216 1_554 S
H64 C59 0.930 . S
H65 C60 0.930 . S
O66 Cu46 1.959 1_554 S
O66 C53 1.251 . S
H67 C50 0.930 . S
H68 C61 0.929 . S
Cu69 N70 1.999 1_655 S
Cu69 O75 1.974 1_655 S
Cu69 N80 1.985 . S
Cu69 O89 1.959 . S
N70 Cu69 1.999 1_455 S
N70 C72 1.263 . S
N70 C74 1.389 1_455 S
N71 C72 1.358 . S
N71 C73 1.400 . S
C72 N70 1.263 . S
C72 N71 1.358 . S
C72 H78 0.930 . S
C73 N71 1.400 . S
C73 C74 1.351 1_455 S
C73 H90 0.930 . S
C74 N70 1.389 1_655 S
C74 C73 1.351 1_655 S
C74 H79 0.930 . S
O75 Cu69 1.974 1_455 S
O75 C85 1.282 . S
C76 O77 1.261 . S
C76 O89 1.251 . S
O77 C76 1.261 . S
H78 C72 0.930 . S
H79 C74 0.930 . S
N80 Cu69 1.985 . S
N80 C82 1.335 . S
N80 C83 1.390 . S
N81 C82 1.345 . S
N81 C84 1.336 . S
C82 N80 1.335 . S
C82 N81 1.345 . S
C82 H87 0.930 . S
C83 N80 1.390 . S
C83 C84 1.346 . S
C83 H88 0.930 1_655 S
C84 N81 1.336 . S
C84 C83 1.346 . S
C84 H91 0.929 . S
C85 O75 1.282 . S
C85 O86 1.216 . S
O86 C85 1.216 . S
H87 C82 0.930 . S
H88 C83 0.930 1_455 S
O89 Cu69 1.959 . S
O89 C76 1.251 . S
H90 C73 0.930 . S
H91 C84 0.929 . S
Cu92 N93 1.999 . S
Cu92 O98 1.974 1_554 S
Cu92 N103 1.985 1_545 S
Cu92 O112 1.959 1_545 S
N93 Cu92 1.999 . S
N93 C95 1.263 1_554 S
N93 C97 1.389 . S
N94 C95 1.358 . S
N94 C96 1.400 1_556 S
C95 N93 1.263 1_556 S
C95 N94 1.358 . S
C95 H101 0.930 . S
C96 N94 1.400 1_554 S
C96 C97 1.351 . S
C96 H113 0.930 . S
C97 N93 1.389 . S
C97 C96 1.351 . S
C97 H102 0.930 . S
O98 Cu92 1.974 1_556 S
O98 C108 1.282 . S
C99 O100 1.261 . S
C99 O112 1.251 . S
O100 C99 1.261 . S
H101 C95 0.930 . S
H102 C97 0.930 . S
N103 Cu92 1.985 1_565 S
N103 C105 1.335 . S
N103 C106 1.390 . S
N104 C105 1.345 . S
N104 C107 1.336 . S
C105 N103 1.335 . S
C105 N104 1.345 . S
C105 H110 0.930 . S
C106 N103 1.390 . S
C106 C107 1.346 . S
C106 H111 0.930 1_564 S
C107 N104 1.336 . S
C107 C106 1.346 . S
C107 H114 0.929 . S
C108 O98 1.282 . S
C108 O109 1.216 . S
O109 C108 1.216 . S
H110 C105 0.930 . S
H111 C106 0.930 1_546 S
O112 Cu92 1.959 1_565 S
O112 C99 1.251 . S
H113 C96 0.930 . S
H114 C107 0.929 . S
Cu115 N116 1.999 . S
Cu115 O121 1.974 . S
Cu115 N126 1.985 . S
Cu115 O135 1.959 . S
N116 Cu115 1.999 . S
N116 C118 1.263 . S
N116 C120 1.389 . S
N117 C118 1.358 . S
N117 C119 1.400 . S
C118 N116 1.263 . S
C118 N117 1.358 . S
C118 H124 0.930 . S
C119 N117 1.400 . S
C119 C120 1.351 . S
C119 H136 0.930 . S
C120 N116 1.389 . S
C120 C119 1.351 . S
C120 H125 0.930 . S
O121 Cu115 1.974 . S
O121 C131 1.282 . S
C122 O123 1.261 . S
C122 O135 1.251 . S
O123 C122 1.261 . S
H124 C118 0.930 . S
H125 C120 0.930 . S
N126 Cu115 1.985 . S
N126 C128 1.335 . S
N126 C129 1.390 . S
N127 C128 1.345 . S
N127 C130 1.336 . S
C128 N126 1.335 . S
C128 N127 1.345 . S
C128 H133 0.930 . S
C129 N126 1.390 . S
C129 C130 1.346 . S
C129 H134 0.930 . S
C130 N127 1.336 . S
C130 C129 1.346 . S
C130 H137 0.929 . S
C131 O121 1.282 . S
C131 O132 1.216 . S
O132 C131 1.216 . S
H133 C128 0.930 . S
H134 C129 0.930 . S
O135 Cu115 1.959 . S
O135 C122 1.251 . S
H136 C119 0.930 . S
H137 C130 0.929 . S
H138 C146 0.930 . S
H139 C149 0.930 . S
H140 C151 0.930 . S
H141 C152 0.970 . S
H142 C152 0.970 . S
H143 C154 0.930 . S
H144 C156 0.930 . S
H145 C158 0.930 . S
C146 H138 0.930 . S
C146 C147 1.382 . S
C146 C148 1.426 . S
C147 C146 1.382 . S
C147 C151 1.389 . S
C148 C146 1.426 . S
C148 C149 1.375 . S
C148 C152 1.532 . S
C149 H139 0.930 . S
C149 C148 1.375 . S
C149 C150 1.416 . S
C150 C149 1.416 . S
C150 C151 1.371 . S
C151 H140 0.930 . S
C151 C147 1.389 . S
C151 C150 1.371 . S
C152 H141 0.970 . S
C152 H142 0.970 . S
C152 C148 1.532 . S
C152 C153 1.499 . S
C153 C152 1.499 . S
C153 C154 1.370 . S
C153 C158 1.415 . S
C154 H143 0.930 . S
C154 C153 1.370 . S
C154 C155 1.407 . S
C155 C154 1.407 . S
C155 C156 1.365 . S
C156 H144 0.930 . S
C156 C155 1.365 . S
C156 C157 1.393 . S
C157 C156 1.393 . S
C157 C158 1.387 . S
C158 H145 0.930 . S
C158 C153 1.415 . S
C158 C157 1.387 . S
H159 C167 0.930 . S
H160 C170 0.930 . S
H161 C172 0.930 . S
H162 C173 0.970 . S
H163 C173 0.970 . S
H164 C175 0.930 . S
H165 C177 0.930 . S
H166 C179 0.930 . S
C167 H159 0.930 . S
C167 C168 1.382 . S
C167 C169 1.426 . S
C168 C167 1.382 . S
C168 C172 1.389 . S
C169 C167 1.426 . S
C169 C170 1.375 . S
C169 C173 1.532 . S
C170 H160 0.930 . S
C170 C169 1.375 . S
C170 C171 1.416 . S
C171 C170 1.416 . S
C171 C172 1.371 . S
C172 H161 0.930 . S
C172 C168 1.389 . S
C172 C171 1.371 . S
C173 H162 0.970 . S
C173 H163 0.970 . S
C173 C169 1.532 . S
C173 C174 1.499 . S
C174 C173 1.499 . S
C174 C175 1.370 . S
C174 C179 1.415 . S
C175 H164 0.930 . S
C175 C174 1.370 . S
C175 C176 1.407 . S
C176 C175 1.407 . S
C176 C177 1.365 . S
C177 H165 0.930 . S
C177 C176 1.365 . S
C177 C178 1.393 . S
C178 C177 1.393 . S
C178 C179 1.387 . S
C179 H166 0.930 . S
C179 C174 1.415 . S
C179 C178 1.387 . S
H180 C188 0.930 . S
H181 C191 0.930 . S
H182 C193 0.930 . S
H183 C194 0.970 . S
H184 C194 0.970 . S
H185 C196 0.930 . S
H186 C198 0.930 . S
H187 C200 0.930 . S
C188 H180 0.930 . S
C188 C189 1.382 . S
C188 C190 1.426 . S
C189 C188 1.382 . S
C189 C193 1.389 . S
C190 C188 1.426 . S
C190 C191 1.375 . S
C190 C194 1.532 . S
C191 H181 0.930 . S
C191 C190 1.375 . S
C191 C192 1.416 . S
C192 C191 1.416 . S
C192 C193 1.371 . S
C193 H182 0.930 . S
C193 C189 1.389 . S
C193 C192 1.371 . S
C194 H183 0.970 . S
C194 H184 0.970 . S
C194 C190 1.532 . S
C194 C195 1.499 . S
C195 C194 1.499 . S
C195 C196 1.370 . S
C195 C200 1.415 . S
C196 H185 0.930 . S
C196 C195 1.370 . S
C196 C197 1.407 . S
C197 C196 1.407 . S
C197 C198 1.365 . S
C198 H186 0.930 . S
C198 C197 1.365 . S
C198 C199 1.393 . S
C199 C198 1.393 . S
C199 C200 1.387 . S
C200 H187 0.930 . S
C200 C195 1.415 . S
C200 C199 1.387 . S
H201 C209 0.930 . S
H202 C212 0.930 . S
H203 C214 0.930 . S
H204 C215 0.970 . S
H205 C215 0.970 . S
H206 C217 0.930 . S
H207 C219 0.930 . S
H208 C221 0.930 . S
C209 H201 0.930 . S
C209 C210 1.382 . S
C209 C211 1.426 . S
C210 C209 1.382 . S
C210 C214 1.389 . S
C211 C209 1.426 . S
C211 C212 1.375 . S
C211 C215 1.532 . S
C212 H202 0.930 . S
C212 C211 1.375 . S
C212 C213 1.416 . S
C213 C212 1.416 . S
C213 C214 1.371 . S
C214 H203 0.930 . S
C214 C210 1.389 . S
C214 C213 1.371 . S
C215 H204 0.970 . S
C215 H205 0.970 . S
C215 C211 1.532 . S
C215 C216 1.499 . S
C216 C215 1.499 . S
C216 C217 1.370 . S
C216 C221 1.415 . S
C217 H206 0.930 . S
C217 C216 1.370 . S
C217 C218 1.407 . S
C218 C217 1.407 . S
C218 C219 1.365 . S
C219 H207 0.930 . S
C219 C218 1.365 . S
C219 C220 1.393 . S
C220 C219 1.393 . S
C220 C221 1.387 . S
C221 H208 0.930 . S
C221 C216 1.415 . S
C221 C220 1.387 . S
H222 C230 0.930 . S
H223 C233 0.930 . S
H224 C235 0.930 . S
H225 C236 0.970 . S
H226 C236 0.970 . S
H227 C238 0.930 . S
H228 C240 0.930 . S
H229 C242 0.930 . S
C230 H222 0.930 . S
C230 C231 1.382 . S
C230 C232 1.426 . S
C231 C230 1.382 . S
C231 C235 1.389 . S
C232 C230 1.426 . S
C232 C233 1.375 . S
C232 C236 1.532 . S
C233 H223 0.930 . S
C233 C232 1.375 . S
C233 C234 1.416 . S
C234 C233 1.416 . S
C234 C235 1.371 . S
C235 H224 0.930 . S
C235 C231 1.389 . S
C235 C234 1.371 . S
C236 H225 0.970 . S
C236 H226 0.970 . S
C236 C232 1.532 . S
C236 C237 1.499 . S
C237 C236 1.499 . S
C237 C238 1.370 . S
C237 C242 1.415 . S
C238 H227 0.930 . S
C238 C237 1.370 . S
C238 C239 1.407 . S
C239 C238 1.407 . S
C239 C240 1.365 . S
C240 H228 0.930 . S
C240 C239 1.365 . S
C240 C241 1.393 . S
C241 C240 1.393 . S
C241 C242 1.387 . S
C242 H229 0.930 . S
C242 C237 1.415 . S
C242 C241 1.387 . S
H243 C251 0.930 . S
H244 C254 0.930 . S
H245 C256 0.930 . S
H246 C257 0.970 . S
H247 C257 0.970 . S
H248 C259 0.930 . S
H249 C261 0.930 . S
H250 C263 0.930 . S
C251 H243 0.930 . S
C251 C252 1.382 . S
C251 C253 1.426 . S
C252 C251 1.382 . S
C252 C256 1.389 . S
C253 C251 1.426 . S
C253 C254 1.375 . S
C253 C257 1.532 . S
C254 H244 0.930 . S
C254 C253 1.375 . S
C254 C255 1.416 . S
C255 C254 1.416 . S
C255 C256 1.371 . S
C256 H245 0.930 . S
C256 C252 1.389 . S
C256 C255 1.371 . S
C257 H246 0.970 . S
C257 H247 0.970 . S
C257 C253 1.532 . S
C257 C258 1.499 . S
C258 C257 1.499 . S
C258 C259 1.370 . S
C258 C263 1.415 . S
C259 H248 0.930 . S
C259 C258 1.370 . S
C259 C260 1.407 . S
C260 C259 1.407 . S
C260 C261 1.365 . S
C261 H249 0.930 . S
C261 C260 1.365 . S
C261 C262 1.393 . S
C262 C261 1.393 . S
C262 C263 1.387 . S
C263 H250 0.930 . S
C263 C258 1.415 . S
C263 C262 1.387 . S
C7 C147 1.839 . S
C30 C168 1.455 . S
C189 N58 1.550 . S
C218 N81 1.539 . S
C231 C99 1.888 . S
C255 N127 1.546 . S
N25 C199 1.711 . S
C62 C213 1.806 . S
C241 C85 1.753 . S
C260 N94 1.772 . S
C131 C157 2.091 . S
C178 N2 1.501 . S
C220 C16 1.856 . S
C39 C234 1.266 . S
C252 N48 1.709 . S
N71 C150 1.059 . S
C108 C171 1.615 . S
N117 C192 1.095 . S
N35 C262 1.695 . S
C155 C53 1.354 . S
C76 C176 1.733 . S
N104 C197 1.161 . S
C122 C210 1.822 . S
N12 C239 1.110 . S
