# Generated by pormake.
# Topology anh, (6,3)-cn, num edge types: 1
# Building blocks:
#     Node 0, Type 0, BuildingBlock: BETDEL_clean_sbu_0, # of connection points: 6
#     Node 1, Type 0, BuildingBlock: BETDEL_clean_sbu_0, # of connection points: 6
#     Node 2, Type 0, BuildingBlock: BETDEL_clean_sbu_0, # of connection points: 6
#     Node 3, Type 1, BuildingBlock: BELTOD_clean_linker_0, # of connection points: 3
#     Node 4, Type 1, BuildingBlock: BELTOD_clean_linker_0, # of connection points: 3
#     Node 5, Type 1, BuildingBlock: BELTOD_clean_linker_0, # of connection points: 3
#     Node 6, Type 1, BuildingBlock: BELTOD_clean_linker_0, # of connection points: 3
#     Node 7, Type 1, BuildingBlock: BELTOD_clean_linker_0, # of connection points: 3
#     Node 8, Type 1, BuildingBlock: BELTOD_clean_linker_0, # of connection points: 3
#     Edge 9, Type (0, 1), BuildingBlock: ZUJKAS_clean_linker_0, # of connection points: 2
#     Edge 10, Type (0, 1), BuildingBlock: ZUJKAS_clean_linker_0, # of connection points: 2
#     Edge 11, Type (0, 1), BuildingBlock: ZUJKAS_clean_linker_0, # of connection points: 2
#     Edge 12, Type (0, 1), BuildingBlock: ZUJKAS_clean_linker_0, # of connection points: 2
#     Edge 13, Type (0, 1), BuildingBlock: ZUJKAS_clean_linker_0, # of connection points: 2
#     Edge 14, Type (0, 1), BuildingBlock: ZUJKAS_clean_linker_0, # of connection points: 2
#     Edge 15, Type (0, 1), BuildingBlock: ZUJKAS_clean_linker_0, # of connection points: 2
#     Edge 16, Type (0, 1), BuildingBlock: ZUJKAS_clean_linker_0, # of connection points: 2
#     Edge 17, Type (0, 1), BuildingBlock: ZUJKAS_clean_linker_0, # of connection points: 2
#     Edge 18, Type (0, 1), BuildingBlock: ZUJKAS_clean_linker_0, # of connection points: 2
#     Edge 19, Type (0, 1), BuildingBlock: ZUJKAS_clean_linker_0, # of connection points: 2
#     Edge 20, Type (0, 1), BuildingBlock: ZUJKAS_clean_linker_0, # of connection points: 2
#     Edge 21, Type (0, 1), BuildingBlock: ZUJKAS_clean_linker_0, # of connection points: 2
#     Edge 22, Type (0, 1), BuildingBlock: ZUJKAS_clean_linker_0, # of connection points: 2
#     Edge 23, Type (0, 1), BuildingBlock: ZUJKAS_clean_linker_0, # of connection points: 2
#     Edge 24, Type (0, 1), BuildingBlock: ZUJKAS_clean_linker_0, # of connection points: 2
#     Edge 25, Type (0, 1), BuildingBlock: ZUJKAS_clean_linker_0, # of connection points: 2
#     Edge 26, Type (0, 1), BuildingBlock: ZUJKAS_clean_linker_0, # of connection points: 2
# Relax obj value: 0.126
# Max RMSD: 0.159
# Mean RMSD: 0.122
data_MOF--net-anh--node1-BETDEL_clean_sbu_0--node2-BELTOD_clean_linker_0--edge1-ZUJKAS_clean_linker_0
_symmetry_space_group_name_H-M    P1
_symmetry_Int_Tables_number       1
_symmetry_cell_setting            triclinic
loop_
_symmetry_equiv_pos_as_xyz
'x, y, z'
_cell_length_a     42.24518
_cell_length_b     42.278869
_cell_length_c     74.581442
_cell_angle_alpha  90.302931
_cell_angle_beta   90.060104
_cell_angle_gamma 119.9363
loop_
_atom_site_label
_atom_site_type_symbol
_atom_site_fract_x
_atom_site_fract_y
_atom_site_fract_z
_atom_type_partial_charge
Dy0 Dy 0.05363 0.50882 0.1653 0.0
C1 C 0.95893 0.56665 0.18634 0.0
C2 C 0.105 0.4906 0.15629 0.0
Dy3 Dy 1.00524 0.54633 0.17172 0.0
O4 O 0.10436 0.50645 0.17112 0.0
O5 O 0.07722 0.48433 0.14622 0.0
O6 O 0.03509 0.48156 0.19192 0.0
O7 O 0.03992 0.53294 0.18792 0.0
C8 C 0.02955 0.50676 0.19869 0.0
C9 C 0.01438 0.53938 0.13631 0.0
O10 O 0.06131 0.59409 0.17646 0.0
O11 O 0.09399 0.56909 0.16317 0.0
O12 O 0.98506 0.58617 0.17516 0.0
O13 O 0.95913 0.5367 0.18997 0.0
O14 O 0.99589 0.55403 0.14247 0.0
O15 O 0.02582 0.52966 0.14948 0.0
O16 O 0.9979 0.46099 0.15982 0.0
O17 O 0.96487 0.48608 0.17265 0.0
C18 C 0.09217 0.59721 0.17014 0.0
C19 C 0.96692 0.45794 0.16594 0.0
Dy20 Dy 0.4707 0.02812 0.50024 0.0
C21 C 0.62244 0.11569 0.51656 0.0
C22 C 0.40123 0.98145 0.48871 0.0
Dy23 Dy 0.55258 0.06932 0.50546 0.0
O24 O 0.40998 0.99682 0.50442 0.0
O25 O 0.43047 0.99198 0.47917 0.0
O26 O 0.46346 0.04653 0.52749 0.0
O27 O 0.50696 0.0369 0.52285 0.0
C28 C 0.49298 0.04868 0.53402 0.0
C29 C 0.53082 0.04838 0.47161 0.0
O30 O 0.54237 0.01396 0.51308 0.0
O31 O 0.48439 0.98262 0.50057 0.0
O32 O 0.6133 0.09556 0.5022 0.0
O33 O 0.59332 0.11022 0.52503 0.0
O34 O 0.5598 0.05025 0.47863 0.0
O35 O 0.51651 0.06058 0.48247 0.0
O36 O 0.47963 0.08397 0.49476 0.0
O37 O 0.53916 0.1147 0.50558 0.0
C38 C 0.51367 0.98314 0.50749 0.0
C39 C 0.5092 0.11446 0.49996 0.0
Dy40 Dy 0.57274 0.58334 0.83379 0.0
C41 C 0.51151 0.42937 0.85218 0.0
C42 C 0.59251 0.65355 0.82577 0.0
Dy43 Dy 0.53374 0.49653 0.83815 0.0
O44 O 0.5776 0.63719 0.84067 0.0
O45 O 0.59704 0.63161 0.81515 0.0
O46 O 0.59804 0.58904 0.86098 0.0
O47 O 0.54674 0.54354 0.85508 0.0
C48 C 0.57192 0.55778 0.86659 0.0
C49 C 0.54334 0.51578 0.80324 0.0
O50 O 0.48596 0.50507 0.84209 0.0
O51 O 0.51273 0.56448 0.83092 0.0
O52 O 0.49521 0.43605 0.83915 0.0
O53 O 0.5394 0.45963 0.85783 0.0
O54 O 0.52814 0.48212 0.80854 0.0
O55 O 0.5522 0.53578 0.81694 0.0
O56 O 0.62018 0.5749 0.82839 0.0
O57 O 0.59385 0.51545 0.8395 0.0
C58 C 0.48385 0.53386 0.83661 0.0
C59 C 0.62247 0.5461 0.8337 0.0
P60 P 0.55248 1.00034 0.22156 0.0
H61 H 0.52797 0.96469 0.18662 0.0
H62 H 0.46712 0.92137 0.17501 0.0
H63 H 0.41872 0.94161 0.22152 0.0
H64 H 0.47918 0.98543 0.23264 0.0
H65 H 0.63106 0.03288 0.2209 0.0
H66 H 0.68056 0.09029 0.20981 0.0
H67 H 0.60205 0.11946 0.19057 0.0
H68 H 0.55209 0.06128 0.202 0.0
H69 H 0.53596 0.95314 0.25252 0.0
H70 H 0.55545 0.0616 0.24205 0.0
O71 O 0.56747 0.97057 0.22035 0.0
H72 H 0.52663 0.96042 0.2842 0.0
H73 H 0.54654 0.06935 0.27393 0.0
C74 C 0.50834 0.97825 0.21055 0.0
C75 C 0.50419 0.96064 0.19401 0.0
C76 C 0.46931 0.93545 0.18751 0.0
C77 C 0.43783 0.92729 0.19747 0.0
C78 C 0.44213 0.94713 0.2134 0.0
C79 C 0.47698 0.97233 0.21984 0.0
C80 C 0.5878 0.04233 0.21189 0.0
C81 C 0.62432 0.05128 0.21405 0.0
C82 C 0.65272 0.08423 0.20764 0.0
C83 C 0.64543 0.10944 0.19904 0.0
C84 C 0.60868 0.10068 0.19711 0.0
C85 C 0.58008 0.06736 0.2035 0.0
C86 C 0.54735 0.00717 0.24503 0.0
C87 C 0.53876 0.97877 0.2571 0.0
C88 C 0.53345 0.98298 0.27523 0.0
C89 C 0.53624 0.01562 0.28165 0.0
C90 C 0.54413 0.04384 0.26941 0.0
C91 C 0.54957 0.0396 0.25123 0.0
P92 P 0.57948 0.57991 0.55211 0.0
H93 H 0.60214 0.5543 0.52099 0.0
H94 H 0.58395 0.49323 0.50967 0.0
H95 H 0.49614 0.44689 0.54817 0.0
H96 H 0.51412 0.50833 0.55916 0.0
H97 H 0.62145 0.65442 0.53888 0.0
H98 H 0.60463 0.69905 0.52969 0.0
H99 H 0.49045 0.61813 0.53505 0.0
H100 H 0.50782 0.57326 0.54462 0.0
H101 H 0.58514 0.53311 0.57883 0.0
H102 H 0.55602 0.61745 0.57794 0.0
O103 O 0.62475 0.59923 0.5502 0.0
H104 H 0.57801 0.52909 0.61137 0.0
H105 H 0.54814 0.61307 0.61039 0.0
C106 C 0.56001 0.53583 0.54118 0.0
C107 C 0.57854 0.53107 0.52678 0.0
C108 C 0.56828 0.49606 0.52042 0.0
C109 C 0.53911 0.46501 0.52829 0.0
C110 C 0.51879 0.47012 0.54181 0.0
C111 C 0.52911 0.50528 0.54816 0.0
C112 C 0.56588 0.61028 0.54223 0.0
C113 C 0.59273 0.64586 0.53774 0.0
C114 C 0.58302 0.6715 0.53242 0.0
C115 C 0.54613 0.6623 0.53154 0.0
C116 C 0.51913 0.62626 0.53568 0.0
C117 C 0.52896 0.60046 0.54097 0.0
C118 C 0.57031 0.57492 0.57585 0.0
C119 C 0.57651 0.55026 0.58559 0.0
C120 C 0.57237 0.54797 0.60421 0.0
C121 C 0.56233 0.57065 0.6135 0.0
C122 C 0.55615 0.59539 0.60367 0.0
C123 C 0.56027 0.59762 0.58503 0.0
P124 P 0.0853 0.59744 0.88708 0.0
H125 H 0.13933 0.62448 0.85846 0.0
H126 H 0.18135 0.60488 0.84766 0.0
H127 H 0.12481 0.50669 0.87915 0.0
H128 H 0.08297 0.52678 0.89004 0.0
H129 H 0.06102 0.64802 0.87606 0.0
H130 H 1.00276 0.63944 0.8656 0.0
H131 H 0.95854 0.52264 0.86487 0.0
H132 H 0.01789 0.53164 0.87505 0.0
H133 H 0.1325 0.59354 0.9143 0.0
H134 H 0.0205 0.56881 0.91064 0.0
O135 O 0.11442 0.6423 0.88819 0.0
H136 H 0.12411 0.57768 0.94606 0.0
H137 H 0.01168 0.55211 0.94221 0.0
C138 C 0.10853 0.57749 0.87534 0.0
C139 C 0.13541 0.59832 0.86272 0.0
C140 C 0.15942 0.58699 0.85651 0.0
C141 C 0.15693 0.55448 0.86278 0.0
C142 C 0.12801 0.53225 0.87435 0.0
C143 C 0.10388 0.54357 0.88049 0.0
C144 C 0.04396 0.59047 0.87625 0.0
C145 C 0.03914 0.62053 0.87335 0.0
C146 C 1.00553 0.61556 0.86752 0.0
C147 C 0.97568 0.58032 0.86463 0.0
C148 C 0.98097 0.55018 0.86687 0.0
C149 C 0.01487 0.55524 0.87267 0.0
C150 C 0.07706 0.58189 0.90998 0.0
C151 C 0.1059 0.58403 0.92025 0.0
C152 C 0.10101 0.5748 0.9384 0.0
C153 C 0.06718 0.56354 0.9467 0.0
C154 C 0.03818 0.56099 0.93628 0.0
C155 C 0.04312 0.57025 0.91812 0.0
P156 P 0.06042 0.50181 0.44882 0.0
H157 H 0.12217 0.54797 0.4722 0.0
H158 H 0.15107 0.61241 0.4804 0.0
H159 H 0.06712 0.62127 0.45149 0.0
H160 H 0.03846 0.55662 0.4432 0.0
H161 H 0.00645 0.42629 0.44177 0.0
H162 H 0.95188 0.38197 0.45772 0.0
H163 H 0.97133 0.46325 0.49823 0.0
H164 H 0.02623 0.50746 0.48224 0.0
H165 H 0.10682 0.51812 0.41751 0.0
H166 H 0.99486 0.48717 0.42842 0.0
O167 O 0.09139 0.48873 0.45163 0.0
H168 H 0.09633 0.52126 0.38554 0.0
H169 H 0.98374 0.48915 0.39638 0.0
C170 C 0.07872 0.54785 0.45677 0.0
C171 C 0.10978 0.56367 0.46777 0.0
C172 C 0.12609 0.60046 0.47257 0.0
C173 C 0.11149 0.62198 0.46648 0.0
C174 C 0.07927 0.60549 0.45616 0.0
C175 C 0.06288 0.5686 0.45143 0.0
C176 C 0.01987 0.47027 0.46062 0.0
C177 C 0.9988 0.43464 0.45401 0.0
C178 C 0.96759 0.4094 0.46311 0.0
C179 C 0.95714 0.41928 0.47913 0.0
C180 C 0.97878 0.45488 0.48594 0.0
C181 C 0.00999 0.48022 0.47673 0.0
C182 C 0.05138 0.50142 0.42524 0.0
C183 C 0.07978 0.51135 0.41296 0.0
C184 C 0.0737 0.51307 0.39469 0.0
C185 C 0.03907 0.50509 0.38836 0.0
C186 C 0.01076 0.49561 0.4008 0.0
C187 C 0.01695 0.49402 0.4191 0.0
P188 P 0.65149 0.11908 0.77598 0.0
H189 H 0.67618 0.17294 0.80497 0.0
H190 H 0.64483 0.19618 0.82357 0.0
H191 H 0.54195 0.11856 0.79898 0.0
H192 H 0.57396 0.09646 0.77988 0.0
H193 H 0.70345 0.09686 0.78815 0.0
H194 H 0.69661 0.03728 0.79479 0.0
H195 H 0.58013 0.98681 0.78614 0.0
H196 H 0.58734 0.04646 0.77914 0.0
H197 H 0.62512 0.16028 0.75544 0.0
H198 H 0.64406 0.07025 0.74624 0.0
O199 O 0.69577 0.15053 0.77608 0.0
H200 H 0.60493 0.15604 0.72432 0.0
H201 H 0.62308 0.06522 0.71538 0.0
C202 C 0.62747 0.13341 0.79086 0.0
C203 C 0.64686 0.16081 0.80363 0.0
C204 C 0.62876 0.17381 0.81442 0.0
C205 C 0.59079 0.15934 0.81277 0.0
C206 C 0.57126 0.13071 0.80043 0.0
C207 C 0.58947 0.11786 0.78958 0.0
C208 C 0.64587 0.07606 0.78319 0.0
C209 C 0.67639 0.07306 0.78789 0.0
C210 C 0.67242 0.03896 0.79174 0.0
C211 C 0.63785 0.00728 0.7909 0.0
C212 C 0.60719 0.01062 0.78667 0.0
C213 C 0.61121 0.04474 0.78285 0.0
C214 C 0.63508 0.11492 0.75331 0.0
C215 C 0.62438 0.13923 0.74681 0.0
C216 C 0.61279 0.13674 0.72903 0.0
C217 C 0.61219 0.11016 0.71738 0.0
C218 C 0.62347 0.0862 0.72393 0.0
C219 C 0.63508 0.08877 0.74168 0.0
P220 P 0.50536 0.41802 0.10959 0.0
H221 H 0.52436 0.41082 0.14625 0.0
H222 H 0.58011 0.44516 0.16407 0.0
H223 H 0.62933 0.52116 0.12043 0.0
H224 H 0.57311 0.48756 0.10308 0.0
H225 H 0.42718 0.36736 0.10801 0.0
H226 H 0.37409 0.37409 0.1143 0.0
H227 H 0.44575 0.48556 0.13133 0.0
H228 H 0.49879 0.4784 0.12518 0.0
H229 H 0.55666 0.41418 0.08484 0.0
H230 H 0.47459 0.44646 0.08276 0.0
O231 O 0.49498 0.3747 0.11214 0.0
H232 H 0.56922 0.42824 0.05289 0.0
H233 H 0.48694 0.46037 0.05105 0.0
C234 C 0.54496 0.44611 0.12321 0.0
C235 C 0.54707 0.43513 0.14064 0.0
C236 C 0.57903 0.4547 0.15076 0.0
C237 C 0.6095 0.48565 0.1436 0.0
C238 C 0.60643 0.49763 0.12644 0.0
C239 C 0.57434 0.47813 0.11639 0.0
C240 C 0.4668 0.42209 0.11653 0.0
C241 C 0.43142 0.39302 0.11342 0.0
C242 C 0.40113 0.39704 0.11683 0.0
C243 C 0.40571 0.43038 0.12329 0.0
C244 C 0.44131 0.45938 0.1266 0.0
C245 C 0.47163 0.45533 0.12311 0.0
C246 C 0.5146 0.42904 0.08618 0.0
C247 C 0.54137 0.42426 0.07752 0.0
C248 C 0.54861 0.43242 0.05932 0.0
C249 C 0.52888 0.44517 0.04946 0.0
C250 C 0.50218 0.45005 0.05824 0.0
C251 C 0.49521 0.44221 0.07644 0.0
H252 H 0.16431 0.50532 0.17634 0.0
H253 H 0.21314 0.4925 0.16908 0.0
H254 H 0.15973 0.44321 0.11896 0.0
H255 H 0.11081 0.45665 0.12607 0.0
H256 H 0.20856 0.42592 0.16268 0.0
H257 H 0.26393 0.51649 0.10342 0.0
H258 H 0.23264 0.51932 0.11892 0.0
H259 H 0.21602 0.48351 0.10237 0.0
C260 C 0.16297 0.49182 0.16374 0.0
C261 C 0.13388 0.48206 0.15172 0.0
C262 C 0.19087 0.48448 0.15963 0.0
C263 C 0.19031 0.46731 0.1434 0.0
C264 C 0.16104 0.45712 0.13141 0.0
H265 H 0.34628 0.40773 0.10135 0.0
H266 H 0.29283 0.41484 0.10608 0.0
C267 C 0.13304 0.46458 0.13552 0.0
C268 C 0.22028 0.45978 0.13937 0.0
H269 H 0.29117 0.48115 0.11077 0.0
C270 C 0.22658 0.43792 0.15131 0.0
C271 C 0.24372 0.47548 0.12451 0.0
C272 C 0.23906 0.50027 0.11162 0.0
C273 C 0.25578 0.43144 0.14885 0.0
C274 C 0.27956 0.44764 0.13418 0.0
C275 C 0.27288 0.46887 0.12202 0.0
C276 C 0.31191 0.44332 0.13142 0.0
C277 C 0.26083 0.40714 0.16189 0.0
C278 C 0.3405 0.4574 0.14402 0.0
C279 C 0.37103 0.4533 0.14139 0.0
C280 C 0.37348 0.43505 0.1261 0.0
C281 C 0.34492 0.42137 0.11341 0.0
C282 C 0.31449 0.4256 0.11602 0.0
H283 H 0.23553 0.3898 0.1696 0.0
H284 H 0.26904 0.3892 0.1548 0.0
H285 H 0.28279 0.42435 0.17158 0.0
H286 H 0.33925 0.47167 0.15586 0.0
H287 H 0.39249 0.46402 0.15143 0.0
H288 H 0.64473 0.1669 0.54332 0.0
H289 H 0.70515 0.22185 0.54631 0.0
H290 H 0.74397 0.18567 0.50159 0.0
H291 H 0.68418 0.13078 0.49873 0.0
H292 H 0.79633 0.21999 0.52919 0.0
H293 H 0.7317 0.30119 0.50815 0.0
H294 H 0.71442 0.27414 0.52806 0.0
H295 H 0.70785 0.25206 0.50665 0.0
C296 C 0.66648 0.17039 0.53442 0.0
C297 C 0.65982 0.14497 0.52064 0.0
C298 C 0.70083 0.20178 0.53608 0.0
C299 C 0.72873 0.20805 0.52395 0.0
C300 C 0.72275 0.18135 0.51105 0.0
H301 H 0.89078 0.37288 0.46438 0.0
H302 H 0.83679 0.32517 0.47936 0.0
C303 C 0.68856 0.15007 0.5094 0.0
C304 C 0.76286 0.24372 0.52314 0.0
H305 H 0.79545 0.33082 0.50841 0.0
C306 C 0.79631 0.24455 0.52507 0.0
C307 C 0.76252 0.27553 0.51762 0.0
C308 C 0.7273 0.27592 0.51487 0.0
C309 C 0.82938 0.27575 0.52059 0.0
C310 C 0.82881 0.3069 0.51422 0.0
C311 C 0.79562 0.30683 0.51337 0.0
C312 C 0.86123 0.3375 0.50583 0.0
C313 C 0.86434 0.27434 0.52146 0.0
C314 C 0.89263 0.3606 0.51584 0.0
C315 C 0.92369 0.38786 0.50727 0.0
C316 C 0.92371 0.39226 0.48858 0.0
C317 C 0.89178 0.36974 0.47874 0.0
C318 C 0.86086 0.34268 0.48729 0.0
H319 H 0.85941 0.24664 0.52473 0.0
H320 H 0.87896 0.28286 0.50846 0.0
H321 H 0.8825 0.29363 0.53193 0.0
H322 H 0.89324 0.35723 0.5302 0.0
H323 H 0.94798 0.40479 0.51517 0.0
H324 H 0.58466 0.70075 0.84749 0.0
H325 H 0.59399 0.76097 0.83994 0.0
H326 H 0.62703 0.75047 0.78656 0.0
H327 H 0.61807 0.69 0.79414 0.0
H328 H 0.67188 0.81997 0.80301 0.0
H329 H 0.52465 0.7766 0.8071 0.0
H330 H 0.54213 0.76614 0.82677 0.0
H331 H 0.54089 0.74444 0.80578 0.0
C332 C 0.59408 0.71132 0.83416 0.0
C333 C 0.60046 0.69072 0.82134 0.0
C334 C 0.59919 0.74561 0.82985 0.0
C335 C 0.61053 0.75981 0.81261 0.0
C336 C 0.61802 0.7398 0.79991 0.0
H337 H 0.596 0.94464 0.77169 0.0
H338 H 0.59041 0.88477 0.77603 0.0
C339 C 0.61293 0.70538 0.80424 0.0
C340 C 0.61418 0.79545 0.80793 0.0
H341 H 0.56618 0.84059 0.80579 0.0
C342 C 0.64878 0.82449 0.80348 0.0
C343 C 0.58386 0.80104 0.80832 0.0
C344 C 0.5457 0.77034 0.81208 0.0
C345 C 0.65405 0.85939 0.79994 0.0
C346 C 0.62401 0.86536 0.80116 0.0
C347 C 0.58924 0.83602 0.80507 0.0
C348 C 0.62797 0.90185 0.79848 0.0
C349 C 0.69165 0.88947 0.79482 0.0
C350 C 0.65052 0.93113 0.80985 0.0
C351 C 0.65363 0.96534 0.80747 0.0
C352 C 0.634 0.97079 0.79376 0.0
C353 C 0.61112 0.94124 0.78252 0.0
C354 C 0.60808 0.90708 0.7849 0.0
H355 H 0.70894 0.8784 0.78977 0.0
H356 H 0.69005 0.90724 0.78437 0.0
H357 H 0.70531 0.90659 0.80681 0.0
H358 H 0.6654 0.92742 0.8207 0.0
H359 H 0.67105 0.9874 0.8165 0.0
H360 H 0.95119 0.62474 0.17695 0.0
H361 H 0.89405 0.62636 0.1763 0.0
H362 H 0.83863 0.52123 0.202 0.0
H363 H 0.89569 0.52014 0.20321 0.0
H364 H 0.83923 0.57928 0.15666 0.0
H365 H 0.7876 0.56804 0.2255 0.0
H366 H 0.83451 0.58101 0.22096 0.0
H367 H 0.79958 0.53353 0.22148 0.0
C368 C 0.92709 0.60269 0.18309 0.0
C369 C 0.92776 0.57223 0.19004 0.0
C370 C 0.89443 0.60358 0.18267 0.0
C371 C 0.86196 0.57402 0.18918 0.0
C372 C 0.86333 0.5448 0.19729 0.0
H373 H 0.64003 0.45289 0.16301 0.0
H374 H 0.70117 0.48113 0.17603 0.0
C375 C 0.89601 0.54407 0.19786 0.0
C376 C 0.82603 0.57051 0.18476 0.0
H377 H 0.74118 0.54285 0.20183 0.0
C378 C 0.81811 0.57233 0.16662 0.0
C379 C 0.79834 0.56129 0.19771 0.0
C380 C 0.80562 0.56125 0.21751 0.0
C381 C 0.78278 0.56283 0.16095 0.0
C382 C 0.75465 0.55149 0.17379 0.0
C383 C 0.76284 0.55142 0.19202 0.0
C384 C 0.71605 0.53598 0.16819 0.0
C385 C 0.77527 0.56281 0.14115 0.0
C386 C 0.70384 0.55768 0.15991 0.0
C387 C 0.66867 0.54163 0.15253 0.0
C388 C 0.64515 0.50359 0.1533 0.0
C389 C 0.65709 0.48228 0.16236 0.0
C390 C 0.69213 0.49835 0.16977 0.0
H391 H 0.79906 0.56772 0.13281 0.0
H392 H 0.75137 0.53634 0.13706 0.0
H393 H 0.76868 0.58462 0.13829 0.0
H394 H 0.72186 0.58686 0.15872 0.0
H395 H 0.66016 0.55894 0.14592 0.0
H396 H 0.33919 0.95447 0.50852 0.0
H397 H 0.28223 0.89693 0.50339 0.0
H398 H 0.32429 0.88231 0.45328 0.0
H399 H 0.38141 0.93982 0.45833 0.0
H400 H 0.22896 0.86459 0.47222 0.0
H401 H 0.31017 0.79751 0.48838 0.0
H402 H 0.32595 0.84478 0.4937 0.0
H403 H 0.32813 0.83141 0.47106 0.0
C404 C 0.33591 0.93943 0.49619 0.0
C405 C 0.36474 0.95125 0.4839 0.0
C406 C 0.30338 0.90668 0.49328 0.0
C407 C 0.29938 0.88537 0.47807 0.0
C408 C 0.32709 0.89843 0.46514 0.0
H409 H 0.12495 0.67579 0.44249 0.0
H410 H 0.16636 0.74132 0.4463 0.0
C411 C 0.35961 0.93122 0.46803 0.0
C412 C 0.26853 0.8476 0.47692 0.0
H413 H 0.2486 0.75918 0.48028 0.0
C414 C 0.23309 0.84145 0.47395 0.0
C415 C 0.27416 0.81768 0.47953 0.0
C416 C 0.31157 0.82295 0.48349 0.0
C417 C 0.20303 0.8058 0.47318 0.0
C418 C 0.20885 0.77589 0.47539 0.0
C419 C 0.24427 0.78222 0.47861 0.0
C420 C 0.17902 0.73754 0.47404 0.0
C421 C 0.16531 0.80037 0.47025 0.0
C422 C 0.17211 0.71378 0.48846 0.0
C423 C 0.14854 0.67632 0.48632 0.0
C424 C 0.13164 0.66197 0.46968 0.0
C425 C 0.13717 0.68607 0.45554 0.0
C426 C 0.1608 0.72355 0.45769 0.0
H427 H 0.16428 0.8256 0.47329 0.0
H428 H 0.15735 0.79296 0.456 0.0
H429 H 0.14494 0.77786 0.47869 0.0
H430 H 0.18603 0.72411 0.50117 0.0
H431 H 0.14446 0.65846 0.49751 0.0
H432 H 0.54107 0.41046 0.87976 0.0
H433 H 0.54446 0.35436 0.88178 0.0
H434 H 0.47515 0.31133 0.83507 0.0
H435 H 0.47036 0.36645 0.83351 0.0
H436 H 0.46444 0.25702 0.85794 0.0
H437 H 0.61298 0.34914 0.84597 0.0
H438 H 0.59621 0.35783 0.86641 0.0
H439 H 0.58066 0.36508 0.84517 0.0
C440 C 0.52566 0.38849 0.87029 0.0
C441 C 0.50597 0.39293 0.85629 0.0
C442 C 0.52784 0.35661 0.87136 0.0
C443 C 0.51111 0.32923 0.85819 0.0
C444 C 0.48857 0.33223 0.84527 0.0
H445 H 0.53722 0.17256 0.8008 0.0
H446 H 0.51347 0.20776 0.81575 0.0
C447 C 0.48586 0.36378 0.84439 0.0
C448 C 0.52058 0.29998 0.85628 0.0
H449 H 0.59177 0.28652 0.84601 0.0
C450 C 0.49234 0.26341 0.85558 0.0
C451 C 0.55702 0.30838 0.85304 0.0
C452 C 0.58846 0.3472 0.85251 0.0
C453 C 0.49946 0.23515 0.85126 0.0
C454 C 0.53568 0.24379 0.84753 0.0
C455 C 0.56406 0.28005 0.84903 0.0
C456 C 0.54467 0.21667 0.84014 0.0
C457 C 0.46817 0.19641 0.85034 0.0
C458 C 0.56983 0.20965 0.84897 0.0
C459 C 0.58337 0.1893 0.84049 0.0
C460 C 0.57239 0.17604 0.82289 0.0
C461 C 0.5459 0.18179 0.81443 0.0
C462 C 0.53222 0.20193 0.82297 0.0
H463 H 0.44446 0.19293 0.85832 0.0
H464 H 0.45913 0.18931 0.83618 0.0
H465 H 0.47666 0.177 0.85525 0.0
H466 H 0.57994 0.22102 0.86218 0.0
H467 H 0.60326 0.18488 0.84751 0.0
H468 H 0.56951 0.97352 0.51961 0.0
H469 H 0.57017 0.91636 0.5227 0.0
H470 H 0.45898 0.85634 0.50357 0.0
H471 H 0.45826 0.9135 0.50009 0.0
H472 H 0.52833 0.85709 0.54333 0.0
H473 H 0.50888 0.81671 0.47148 0.0
H474 H 0.52018 0.86183 0.47894 0.0
H475 H 0.47401 0.8246 0.4805 0.0
C476 C 0.54518 0.94822 0.51598 0.0
C477 C 0.51388 0.94824 0.50952 0.0
C478 C 0.5456 0.9155 0.51778 0.0
C479 C 0.51483 0.88201 0.51312 0.0
C480 C 0.48336 0.88185 0.50687 0.0
H481 H 0.49329 0.6733 0.547 0.0
H482 H 0.48211 0.72411 0.54207 0.0
C483 C 0.48293 0.91461 0.505 0.0
C484 C 0.51569 0.8474 0.51517 0.0
H485 H 0.50784 0.77371 0.49206 0.0
C486 C 0.52376 0.83881 0.53212 0.0
C487 C 0.51012 0.82371 0.50051 0.0
C488 C 0.50315 0.83224 0.48179 0.0
C489 C 0.52654 0.80739 0.53482 0.0
C490 C 0.52031 0.78334 0.52023 0.0
C491 C 0.51218 0.79188 0.50328 0.0
C492 C 0.52433 0.75044 0.52208 0.0
C493 C 0.53735 0.80093 0.55315 0.0
C494 C 0.5505 0.74725 0.51186 0.0
C495 C 0.55654 0.71793 0.51443 0.0
C496 C 0.53654 0.69101 0.5273 0.0
C497 C 0.50913 0.69337 0.53694 0.0
C498 C 0.50303 0.72271 0.5343 0.0
H499 H 0.54983 0.82614 0.56151 0.0
H500 H 0.51267 0.77998 0.56018 0.0
H501 H 0.55704 0.79087 0.55209 0.0
H502 H 0.56704 0.76807 0.50222 0.0
H503 H 0.57737 0.71667 0.50652 0.0
H504 H 0.63751 0.49191 0.8419 0.0
H505 H 0.69713 0.49669 0.8454 0.0
H506 H 0.74993 0.6102 0.83076 0.0
H507 H 0.69013 0.60569 0.82701 0.0
H508 H 0.78174 0.57127 0.8149 0.0
H509 H 0.76443 0.54897 0.88836 0.0
H510 H 0.72814 0.51401 0.87515 0.0
H511 H 0.73531 0.55965 0.87506 0.0
C512 C 0.66169 0.51794 0.8393 0.0
C513 C 0.65886 0.54853 0.83431 0.0
C514 C 0.69584 0.52061 0.8414 0.0
C515 C 0.72803 0.55395 0.83868 0.0
C516 C 0.72543 0.58423 0.83303 0.0
H517 H 0.9436 0.61702 0.87896 0.0
H518 H 0.88427 0.61036 0.87167 0.0
C519 C 0.69119 0.58159 0.8309 0.0
C520 C 0.76427 0.55733 0.84224 0.0
H521 H 0.81605 0.54993 0.87541 0.0
C522 C 0.7893 0.56663 0.82812 0.0
C523 C 0.77426 0.55167 0.85955 0.0
C524 C 0.74932 0.54335 0.87546 0.0
C525 C 0.82386 0.57001 0.83081 0.0
C526 C 0.83348 0.56349 0.84804 0.0
C527 C 0.80855 0.55454 0.86217 0.0
C528 C 0.86989 0.56753 0.85197 0.0
C529 C 0.85011 0.58133 0.8153 0.0
C530 C 0.88155 0.54538 0.84347 0.0
C531 C 0.91577 0.54927 0.84756 0.0
C532 C 0.93899 0.57542 0.86023 0.0
C533 C 0.92687 0.59715 0.86886 0.0
C534 C 0.89278 0.5932 0.8648 0.0
H535 H 0.84201 0.5934 0.80425 0.0
H536 H 0.87826 0.60149 0.81971 0.0
H537 H 0.85049 0.55701 0.80992 0.0
H538 H 0.86408 0.52488 0.83377 0.0
H539 H 0.92421 0.53212 0.84065 0.0
H540 H 0.10113 0.66263 0.18257 0.0
H541 H 0.15808 0.72111 0.18528 0.0
H542 H 0.21805 0.67171 0.16387 0.0
H543 H 0.16144 0.61351 0.1608 0.0
H544 H 0.21891 0.73847 0.20512 0.0
H545 H 0.25655 0.76205 0.13337 0.0
H546 H 0.21167 0.72791 0.14071 0.0
H547 H 0.24887 0.71862 0.14099 0.0
C548 C 0.12637 0.66423 0.17827 0.0
C549 C 0.12649 0.63323 0.17135 0.0
C550 C 0.15896 0.69775 0.17985 0.0
C551 C 0.19239 0.70111 0.17449 0.0
C552 C 0.19259 0.67019 0.16767 0.0
H553 H 0.4217 0.86088 0.18321 0.0
H554 H 0.36162 0.80812 0.17708 0.0
C555 C 0.16007 0.63674 0.16603 0.0
C556 C 0.22725 0.73641 0.17676 0.0
H557 H 0.30335 0.79933 0.15442 0.0
C558 C 0.23716 0.75199 0.19399 0.0
C559 C 0.25118 0.75413 0.16226 0.0
C560 C 0.24141 0.74004 0.14327 0.0
C561 C 0.27074 0.784 0.1972 0.0
C562 C 0.29495 0.8013 0.18276 0.0
C563 C 0.28484 0.78605 0.16549 0.0
C564 C 0.33141 0.83448 0.18545 0.0
C565 C 0.2806 0.79836 0.21616 0.0
C566 C 0.33457 0.86731 0.19174 0.0
C567 C 0.36902 0.8978 0.19512 0.0
C568 C 0.40115 0.89619 0.19223 0.0
C569 C 0.39778 0.86351 0.18537 0.0
C570 C 0.36335 0.83312 0.18196 0.0
H571 H 0.26286 0.77776 0.22617 0.0
H572 H 0.30952 0.80684 0.21918 0.0
H573 H 0.27725 0.82265 0.21772 0.0
H574 H 0.31034 0.86928 0.19418 0.0
H575 H 0.37046 0.92259 0.2001 0.0
H576 H 0.45044 0.12516 0.49619 0.0
H577 H 0.4503 0.18305 0.49841 0.0
H578 H 0.56696 0.24072 0.50639 0.0
H579 H 0.56746 0.18334 0.50425 0.0
H580 H 0.4774 0.23348 0.52891 0.0
H581 H 0.54982 0.29781 0.4658 0.0
H582 H 0.52785 0.24921 0.46955 0.0
H583 H 0.57177 0.27928 0.47937 0.0
C584 C 0.47613 0.15021 0.4982 0.0
C585 C 0.50897 0.14953 0.49998 0.0
C586 C 0.47597 0.18324 0.49953 0.0
C587 C 0.50866 0.21624 0.50238 0.0
C588 C 0.54148 0.21568 0.50392 0.0
H589 H 0.58921 0.44325 0.52238 0.0
H590 H 0.57824 0.38216 0.51542 0.0
C591 C 0.54165 0.18274 0.50276 0.0
C592 C 0.50863 0.2512 0.50459 0.0
H593 H 0.54432 0.33681 0.48717 0.0
C594 C 0.49158 0.25598 0.51968 0.0
C595 C 0.52726 0.2805 0.49256 0.0
C596 C 0.54498 0.2765 0.47581 0.0
C597 C 0.49407 0.2898 0.5235 0.0
C598 C 0.51343 0.31942 0.51166 0.0
C599 C 0.52953 0.31421 0.49628 0.0
C600 C 0.51932 0.35664 0.51549 0.0
C601 C 0.47744 0.29393 0.54063 0.0
C602 C 0.48985 0.36295 0.51763 0.0
C603 C 0.49606 0.39808 0.52164 0.0
C604 C 0.5319 0.4277 0.52335 0.0
C605 C 0.56126 0.42129 0.52088 0.0
C606 C 0.55504 0.38626 0.51698 0.0
H607 H 0.47148 0.27165 0.55023 0.0
H608 H 0.49586 0.32048 0.54727 0.0
H609 H 0.45132 0.29301 0.53746 0.0
H610 H 0.46203 0.34075 0.51614 0.0
H611 H 0.47284 0.4021 0.52326 0.0
H612 H 0.41745 0.47703 0.84727 0.0
H613 H 0.35962 0.47677 0.85025 0.0
H614 H 0.41113 0.58751 0.83121 0.0
H615 H 0.46903 0.58824 0.8283 0.0
H616 H 0.37135 0.57637 0.86277 0.0
H617 H 0.28868 0.47254 0.81103 0.0
H618 H 0.31083 0.45834 0.82706 0.0
H619 H 0.33793 0.49476 0.81187 0.0
C620 C 0.41648 0.50126 0.84355 0.0
C621 C 0.44805 0.53265 0.83753 0.0
C622 C 0.38327 0.50097 0.84518 0.0
C623 C 0.38092 0.53198 0.84076 0.0
C624 C 0.41226 0.56321 0.83462 0.0
H625 H 0.19219 0.5619 0.83074 0.0
H626 H 0.24554 0.55478 0.82528 0.0
C627 C 0.44539 0.56352 0.83295 0.0
C628 C 0.34638 0.53271 0.8434 0.0
H629 H 0.25718 0.49313 0.82985 0.0
C630 C 0.3464 0.55817 0.85556 0.0
C631 C 0.31393 0.50921 0.83386 0.0
C632 C 0.31271 0.48235 0.8201 0.0
C633 C 0.31482 0.56051 0.85861 0.0
C634 C 0.28213 0.53644 0.84939 0.0
C635 C 0.28217 0.51129 0.83703 0.0
C636 C 0.24792 0.53761 0.85227 0.0
C637 C 0.31684 0.58916 0.87146 0.0
C638 C 0.23094 0.52934 0.86911 0.0
C639 C 0.20054 0.53344 0.87228 0.0
C640 C 0.18638 0.54585 0.85866 0.0
C641 C 0.20261 0.5527 0.84158 0.0
C642 C 0.23299 0.54847 0.83841 0.0
H643 H 0.34551 0.61062 0.87427 0.0
H644 H 0.30179 0.60235 0.86606 0.0
H645 H 0.30403 0.57604 0.88435 0.0
H646 H 0.24175 0.5205 0.87994 0.0
H647 H 0.18907 0.52828 0.88564 0.0
H648 H 0.89853 0.44171 0.17672 0.0
H649 H 0.84426 0.38183 0.17986 0.0
H650 H 0.90349 0.33085 0.15946 0.0
H651 H 0.95849 0.39092 0.15651 0.0
H652 H 0.80376 0.32705 0.15532 0.0
H653 H 0.86403 0.27826 0.20691 0.0
H654 H 0.88533 0.3255 0.20035 0.0
H655 H 0.88935 0.29291 0.18638 0.0
C656 C 0.90022 0.41788 0.17282 0.0
C657 C 0.93321 0.42134 0.16646 0.0
C658 C 0.86897 0.38355 0.17461 0.0
C659 C 0.86982 0.35169 0.17019 0.0
C660 C 0.90232 0.35496 0.16332 0.0
H661 H 0.70793 0.12119 0.18211 0.0
H662 H 0.76109 0.17943 0.17402 0.0
C663 C 0.93372 0.38941 0.16151 0.0
C664 C 0.83672 0.31526 0.17307 0.0
H665 H 0.80459 0.2361 0.19674 0.0
C666 C 0.80395 0.30714 0.16436 0.0
C667 C 0.83686 0.28926 0.18492 0.0
C668 C 0.87064 0.2969 0.19532 0.0
C669 C 0.77154 0.27372 0.16704 0.0
C670 C 0.77163 0.24786 0.17899 0.0
C671 C 0.80447 0.25585 0.18757 0.0
C672 C 0.73806 0.2124 0.18293 0.0
C673 C 0.73762 0.26619 0.15681 0.0
C674 C 0.70712 0.21132 0.19059 0.0
C675 C 0.67656 0.17792 0.19529 0.0
C676 C 0.67641 0.14486 0.1926 0.0
C677 C 0.70721 0.14608 0.18462 0.0
C678 C 0.73765 0.1794 0.17991 0.0
H679 H 0.74432 0.28375 0.14478 0.0
H680 H 0.72182 0.23716 0.1525 0.0
H681 H 0.71996 0.272 0.16562 0.0
H682 H 0.70699 0.2364 0.19342 0.0
H683 H 0.65361 0.17812 0.20163 0.0
H684 H 0.05606 0.51314 0.12102 0.0
H685 H 0.07023 0.51351 0.08895 0.0
H686 H 1.00424 0.56221 0.07668 0.0
H687 H 0.99009 0.56184 0.10841 0.0
H688 H 0.01796 0.48203 0.05786 0.0
H689 H 0.10781 0.63233 0.05527 0.0
H690 H 0.09683 0.60706 0.07597 0.0
H691 H 0.0646 0.61771 0.06593 0.0
C692 C 0.04452 0.52369 0.11143 0.0
C693 C 0.02216 0.5376 0.11717 0.0
C694 C 0.05259 0.5239 0.09316 0.0
C695 C 0.03863 0.53834 0.08053 0.0
C696 C 0.01568 0.55144 0.08626 0.0
H697 H 0.03152 0.5838 0.97063 0.0
H698 H 0.02642 0.57469 0.00302 0.0
C699 C 0.00756 0.55111 0.10439 0.0
C700 C 0.04791 0.54038 0.06128 0.0
H701 H 0.08598 0.60145 0.02721 0.0
C702 C 0.03337 0.50804 0.05113 0.0
C703 C 0.06806 0.57439 0.05263 0.0
C704 C 0.08555 0.60988 0.06301 0.0
C705 C 0.03673 0.50896 0.03235 0.0
C706 C 0.05549 0.5431 0.02364 0.0
C707 C 0.07137 0.57532 0.03391 0.0
C708 C 0.05716 0.54635 0.00383 0.0
C709 C 0.01871 0.47358 0.0219 0.0
C710 C 0.07606 0.53331 0.99353 0.0
C711 C 0.07881 0.53825 0.97492 0.0
C712 C 0.06279 0.55643 0.96632 0.0
C713 C 0.04364 0.56915 0.97674 0.0
C714 C 0.04094 0.56422 0.99528 0.0
H715 H 0.99974 0.45012 0.03032 0.0
H716 H 1.00331 0.47546 0.01027 0.0
H717 H 0.04002 0.468 0.01664 0.0
H718 H 0.08922 0.5199 0.99989 0.0
H719 H 0.09357 0.52793 0.96729 0.0
H720 H 0.48535 0.06326 0.45141 0.0
H721 H 0.47597 0.05582 0.4187 0.0
H722 H 0.5475 0.01058 0.41592 0.0
H723 H 0.55702 0.01804 0.44829 0.0
H724 H 0.5347 0.0883 0.39233 0.0
H725 H 0.45566 0.93748 0.38694 0.0
H726 H 0.45871 0.96173 0.40749 0.0
H727 H 0.49545 0.95424 0.40099 0.0
C728 C 0.49863 0.05131 0.44379 0.0
C729 C 0.52198 0.04129 0.45233 0.0
C730 C 0.49333 0.04715 0.42516 0.0
C731 C 0.51077 0.03231 0.41494 0.0
C732 C 0.53335 0.02157 0.42357 0.0
H733 H 0.56237 0.99517 0.31017 0.0
H734 H 0.55229 1.00018 0.34204 0.0
C735 C 0.5389 0.02601 0.44206 0.0
C736 C 0.50766 0.02994 0.39512 0.0
H737 H 0.486 0.96982 0.3603 0.0
C738 C 0.52341 0.06242 0.38525 0.0
C739 C 0.493 0.99613 0.38598 0.0
C740 C 0.47442 0.96036 0.39587 0.0
C741 C 0.52687 0.06206 0.3665 0.0
C742 C 0.51363 0.02826 0.35743 0.0
C743 C 0.49635 0.99573 0.36727 0.0
C744 C 0.5197 0.02599 0.33797 0.0
C745 C 0.54645 0.0979 0.35669 0.0
C746 C 0.50468 0.03882 0.32505 0.0
C747 C 0.51042 0.03598 0.30676 0.0
C748 C 0.53099 0.01994 0.30106 0.0
C749 C 0.546 0.00722 0.31407 0.0
C750 C 0.54035 0.01016 0.33231 0.0
H751 H 0.56142 0.12139 0.36602 0.0
H752 H 0.56615 0.09773 0.3469 0.0
H753 H 0.5262 0.10213 0.34917 0.0
H754 H 0.48809 0.05053 0.3291 0.0
H755 H 0.49807 0.04558 0.29706 0.0
H756 H 0.52601 0.47194 0.77414 0.0
H757 H 0.53013 0.48867 0.74261 0.0
H758 H 0.5729 0.60139 0.75779 0.0
H759 H 0.56885 0.58459 0.78959 0.0
H760 H 0.49477 0.52365 0.72603 0.0
H761 H 0.64626 0.60393 0.71976 0.0
H762 H 0.62402 0.5729 0.73808 0.0
H763 H 0.62591 0.61623 0.73769 0.0
C764 C 0.53651 0.50036 0.77079 0.0
C765 C 0.54733 0.52707 0.7843 0.0
C766 C 0.53878 0.50984 0.75277 0.0
C767 C 0.55206 0.54626 0.74785 0.0
C768 C 0.56305 0.57317 0.7613 0.0
H769 H 0.58559 0.62763 0.63738 0.0
H770 H 0.58143 0.62465 0.67015 0.0
C771 C 0.56072 0.56361 0.77943 0.0
C772 C 0.5533 0.55529 0.7286 0.0
H773 H 0.61169 0.596 0.69365 0.0
C774 C 0.52031 0.53974 0.71896 0.0
C775 C 0.58664 0.57648 0.71946 0.0
C776 C 0.62284 0.59325 0.72917 0.0
C777 C 0.51977 0.54408 0.70034 0.0
C778 C 0.55318 0.56388 0.69107 0.0
C779 C 0.58613 0.58067 0.70079 0.0
C780 C 0.5546 0.56574 0.6712 0.0
C781 C 0.4834 0.52726 0.69078 0.0
C782 C 0.54113 0.53363 0.66093 0.0
C783 C 0.54323 0.53521 0.64223 0.0
C784 C 0.55911 0.56898 0.63339 0.0
C785 C 0.57267 0.60114 0.64374 0.0
C786 C 0.57056 0.59953 0.66247 0.0
H787 H 0.4611 0.52316 0.70004 0.0
H788 H 0.48409 0.54453 0.67945 0.0
H789 H 0.47677 0.50015 0.68534 0.0
H790 H 0.52934 0.5073 0.6674 0.0
H791 H 0.5323 0.50992 0.63469 0.0
H792 H 0.46311 0.07042 0.56033 0.0
H793 H 0.48388 0.08594 0.59154 0.0
H794 H 0.57231 0.06532 0.5808 0.0
H795 H 0.55184 0.04998 0.54965 0.0
H796 H 0.49077 0.03983 0.61656 0.0
H797 H 0.62346 0.16604 0.60542 0.0
H798 H 0.58796 0.14674 0.58854 0.0
H799 H 0.61707 0.12764 0.5922 0.0
C800 C 0.48712 0.06947 0.56463 0.0
C801 C 0.50593 0.05908 0.55262 0.0
C802 C 0.49893 0.07833 0.58241 0.0
C803 C 0.5299 0.07726 0.58838 0.0
C804 C 0.54879 0.06703 0.57636 0.0
H805 H 0.64232 0.09798 0.68753 0.0
H806 H 0.62095 0.09094 0.65653 0.0
C807 C 0.53695 0.05808 0.55862 0.0
C808 C 0.54145 0.08498 0.60739 0.0
H809 H 0.61345 0.13997 0.63458 0.0
C810 C 0.51742 0.06195 0.62056 0.0
C811 C 0.57627 0.1138 0.61249 0.0
C812 C 0.6026 0.14021 0.59896 0.0
C813 C 0.52778 0.06619 0.63869 0.0
C814 C 0.56284 0.0947 0.64377 0.0
C815 C 0.58661 0.11813 0.63062 0.0
C816 C 0.57588 0.0998 0.66257 0.0
C817 C 0.50164 0.03929 0.65213 0.0
C818 C 0.55792 0.10764 0.67621 0.0
C819 C 0.56984 0.11131 0.69399 0.0
C820 C 0.6001 0.10744 0.69843 0.0
C821 C 0.61852 0.10044 0.68463 0.0
C822 C 0.60654 0.09671 0.66689 0.0
H823 H 0.47978 0.01424 0.64552 0.0
H824 H 0.51629 0.03127 0.66183 0.0
H825 H 0.48843 0.05217 0.65973 0.0
H826 H 0.53458 0.11077 0.67311 0.0
H827 H 0.55494 0.11652 0.7043 0.0
H828 H 0.62657 0.58237 0.89133 0.0
H829 H 0.62349 0.55933 0.92171 0.0
H830 H 0.51098 0.47691 0.91268 0.0
H831 H 0.51427 0.49927 0.88216 0.0
H832 H 0.58047 0.55834 0.94821 0.0
H833 H 0.55026 0.41695 0.93498 0.0
H834 H 0.56575 0.45109 0.91767 0.0
H835 H 0.51842 0.42695 0.9241 0.0
C836 C 0.60136 0.55904 0.89578 0.0
C837 C 0.57066 0.54256 0.88446 0.0
C838 C 0.59963 0.54589 0.9131 0.0
C839 C 0.56718 0.51607 0.9194 0.0
C840 C 0.53659 0.49933 0.90798 0.0
H841 H 0.47885 0.42618 0.02245 0.0
H842 H 0.49054 0.44285 0.99075 0.0
C843 C 0.5384 0.5123 0.8906 0.0
C844 C 0.56445 0.50441 0.93832 0.0
H845 H 0.53977 0.43031 0.96501 0.0
C846 C 0.57205 0.53046 0.95188 0.0
C847 C 0.55343 0.46799 0.94308 0.0
C848 C 0.54686 0.43923 0.92919 0.0
C849 C 0.56786 0.52085 0.97004 0.0
C850 C 0.55593 0.4843 0.97475 0.0
C851 C 0.54884 0.4583 0.96127 0.0
C852 C 0.54933 0.47248 0.99364 0.0
C853 C 0.57515 0.54954 0.98409 0.0
C854 C 0.57862 0.48327 0.00562 0.0
C855 C 0.57205 0.47379 0.02372 0.0
C856 C 0.53606 0.45356 0.03011 0.0
C857 C 0.50684 0.44218 0.01795 0.0
C858 C 0.51345 0.45144 0.99985 0.0
H859 H 0.57933 0.57536 0.97811 0.0
H860 H 0.55208 0.53936 0.99368 0.0
H861 H 0.60008 0.55561 0.99179 0.0
H862 H 0.60651 0.49944 0.001 0.0
H863 H 0.59507 0.4831 0.0328 0.0
H864 H 0.03103 0.56365 0.21709 0.0
H865 H 0.02471 0.56784 0.24964 0.0
H866 H 1.0029 0.45731 0.25551 0.0
H867 H 0.00897 0.45289 0.22314 0.0
H868 H 0.95833 0.47658 0.27752 0.0
H869 H 0.10783 0.57473 0.28266 0.0
H870 H 0.08185 0.58617 0.26758 0.0
H871 H 0.08727 0.5475 0.26279 0.0
C872 C 0.02434 0.54012 0.22534 0.0
C873 C 0.02099 0.50812 0.21771 0.0
C874 C 0.02083 0.54257 0.24388 0.0
C875 C 0.01384 0.51303 0.25494 0.0
C876 C 0.00838 0.4804 0.24718 0.0
H877 H 0.06448 0.48182 0.36053 0.0
H878 H 0.05598 0.4865 0.32846 0.0
C879 C 0.01199 0.47798 0.22871 0.0
C880 C 0.01522 0.51665 0.27469 0.0
H881 H 0.07526 0.55465 0.30956 0.0
C882 C 0.9837 0.49406 0.28458 0.0
C883 C 0.04855 0.53921 0.28377 0.0
C884 C 0.08345 0.56317 0.27374 0.0
C885 C 0.98486 0.49276 0.30337 0.0
C886 C 0.01838 0.51466 0.31238 0.0
C887 C 0.04962 0.53802 0.30253 0.0
C888 C 0.02246 0.51149 0.33186 0.0
C889 C 0.95077 0.46681 0.31344 0.0
C890 C 0.00642 0.52408 0.34434 0.0
C891 C 0.01149 0.52175 0.36272 0.0
C892 C 0.03274 0.50682 0.36888 0.0
C893 C 0.04846 0.49399 0.35626 0.0
C894 C 0.04348 0.49644 0.33794 0.0
H895 H 0.92814 0.44847 0.30428 0.0
H896 H 0.95658 0.44987 0.32273 0.0
H897 H 0.94154 0.48267 0.32162 0.0
H898 H 0.99047 0.53619 0.33985 0.0
H899 H 0.99943 0.53234 0.37208 0.0
loop_
_geom_bond_atom_site_label_1
_geom_bond_atom_site_label_2
_geom_bond_distance
_geom_bond_site_symmetry_2
_ccdc_geom_bond_type
Dy0 O4 2.398 . S
Dy0 O5 2.491 . S
Dy0 O6 2.403 . S
Dy0 O7 2.664 . S
Dy0 O11 2.326 . S
Dy0 O15 2.310 . S
Dy0 O16 2.350 1_455 S
C1 O12 1.185 . S
C1 O13 1.355 . S
C2 O4 1.185 . S
C2 O5 1.355 . S
Dy3 O7 2.310 . S
Dy3 O10 2.351 . S
Dy3 O12 2.398 1_455 S
Dy3 O13 2.491 1_455 S
Dy3 O14 2.403 . S
Dy3 O15 2.664 . S
Dy3 O17 2.326 1_455 S
O4 Dy0 2.398 . S
O4 C2 1.185 . S
O5 Dy0 2.491 . S
O5 C2 1.355 . S
O6 Dy0 2.403 . S
O6 C8 1.254 . S
O7 Dy0 2.664 . S
O7 Dy3 2.310 . S
O7 C8 1.268 . S
C8 O6 1.254 . S
C8 O7 1.268 . S
C9 O14 1.254 . S
C9 O15 1.268 . S
O10 Dy3 2.351 . S
O10 C18 1.249 . S
O11 Dy0 2.326 . S
O11 C18 1.267 . S
O12 C1 1.185 . S
O12 Dy3 2.398 1_655 S
O13 C1 1.355 . S
O13 Dy3 2.491 1_655 S
O14 Dy3 2.403 . S
O14 C9 1.254 . S
O15 Dy0 2.310 . S
O15 Dy3 2.664 . S
O15 C9 1.268 . S
O16 Dy0 2.350 1_655 S
O16 C19 1.251 . S
O17 Dy3 2.326 1_655 S
O17 C19 1.267 . S
C18 O10 1.249 . S
C18 O11 1.267 . S
C19 O16 1.251 . S
C19 O17 1.267 . S
Dy20 O24 2.398 1_545 S
Dy20 O25 2.491 1_545 S
Dy20 O26 2.403 . S
Dy20 O27 2.664 . S
Dy20 O31 2.326 1_545 S
Dy20 O35 2.310 . S
Dy20 O36 2.351 . S
C21 O32 1.185 . S
C21 O33 1.355 . S
C22 O24 1.185 . S
C22 O25 1.355 . S
Dy23 O27 2.310 . S
Dy23 O30 2.333 1_545 S
Dy23 O32 2.398 . S
Dy23 O33 2.491 . S
Dy23 O34 2.403 . S
Dy23 O35 2.664 . S
Dy23 O37 2.326 . S
O24 Dy20 2.398 1_565 S
O24 C22 1.185 . S
O25 Dy20 2.491 1_565 S
O25 C22 1.355 . S
O26 Dy20 2.403 . S
O26 C28 1.254 . S
O27 Dy20 2.664 . S
O27 Dy23 2.310 . S
O27 C28 1.268 . S
C28 O26 1.254 . S
C28 O27 1.268 . S
C29 O34 1.254 . S
C29 O35 1.268 . S
O30 Dy23 2.333 1_565 S
O30 C38 1.257 . S
O31 Dy20 2.326 1_565 S
O31 C38 1.267 . S
O32 C21 1.185 . S
O32 Dy23 2.398 . S
O33 C21 1.355 . S
O33 Dy23 2.491 . S
O34 Dy23 2.403 . S
O34 C29 1.254 . S
O35 Dy20 2.310 . S
O35 Dy23 2.664 . S
O35 C29 1.268 . S
O36 Dy20 2.351 . S
O36 C39 1.249 . S
O37 Dy23 2.326 . S
O37 C39 1.267 . S
C38 O30 1.257 . S
C38 O31 1.267 . S
C39 O36 1.249 . S
C39 O37 1.267 . S
Dy40 O44 2.398 . S
Dy40 O45 2.491 . S
Dy40 O46 2.403 . S
Dy40 O47 2.664 . S
Dy40 O51 2.326 . S
Dy40 O55 2.310 . S
Dy40 O56 2.351 . S
C41 O52 1.185 . S
C41 O53 1.355 . S
C42 O44 1.185 . S
C42 O45 1.355 . S
Dy43 O47 2.310 . S
Dy43 O50 2.351 . S
Dy43 O52 2.398 . S
Dy43 O53 2.491 . S
Dy43 O54 2.403 . S
Dy43 O55 2.664 . S
Dy43 O57 2.326 . S
O44 Dy40 2.398 . S
O44 C42 1.185 . S
O45 Dy40 2.491 . S
O45 C42 1.355 . S
O46 Dy40 2.403 . S
O46 C48 1.254 . S
O47 Dy40 2.664 . S
O47 Dy43 2.310 . S
O47 C48 1.268 . S
C48 O46 1.254 . S
C48 O47 1.268 . S
C49 O54 1.254 . S
C49 O55 1.268 . S
O50 Dy43 2.351 . S
O50 C58 1.249 . S
O51 Dy40 2.326 . S
O51 C58 1.267 . S
O52 C41 1.185 . S
O52 Dy43 2.398 . S
O53 C41 1.355 . S
O53 Dy43 2.491 . S
O54 Dy43 2.403 . S
O54 C49 1.254 . S
O55 Dy40 2.310 . S
O55 Dy43 2.664 . S
O55 C49 1.268 . S
O56 Dy40 2.351 . S
O56 C59 1.249 . S
O57 Dy43 2.326 . S
O57 C59 1.267 . S
C58 O50 1.249 . S
C58 O51 1.267 . S
C59 O56 1.249 . S
C59 O57 1.267 . S
P60 O71 1.490 . S
P60 C74 1.812 . S
P60 C80 1.803 1_565 S
P60 C86 1.819 . S
H61 C75 0.941 . S
H62 C76 0.939 . S
H63 C78 0.940 . S
H64 C79 0.940 . S
H65 C81 0.939 . S
H66 C82 0.942 . S
H67 C84 0.940 . S
H68 C85 0.939 . S
H69 C87 0.941 . S
H70 C91 0.939 . S
O71 P60 1.490 . S
H72 C88 0.939 . S
H73 C90 0.940 . S
C74 P60 1.812 . S
C74 C75 1.389 . S
C74 C79 1.391 . S
C75 H61 0.941 . S
C75 C74 1.389 . S
C75 C76 1.397 . S
C76 H62 0.939 . S
C76 C75 1.397 . S
C76 C77 1.378 . S
C77 C76 1.378 . S
C77 C78 1.378 . S
C78 H63 0.940 . S
C78 C77 1.378 . S
C78 C79 1.396 . S
C79 H64 0.940 . S
C79 C74 1.391 . S
C79 C78 1.396 . S
C80 P60 1.803 1_545 S
C80 C81 1.378 . S
C80 C85 1.400 . S
C81 H65 0.939 . S
C81 C80 1.378 . S
C81 C82 1.361 . S
C82 H66 0.942 . S
C82 C81 1.361 . S
C82 C83 1.369 . S
C83 C82 1.369 . S
C83 C84 1.404 . S
C84 H67 0.940 . S
C84 C83 1.404 . S
C84 C85 1.389 . S
C85 H68 0.939 . S
C85 C80 1.400 . S
C85 C84 1.389 . S
C86 P60 1.819 . S
C86 C87 1.391 . S
C86 C91 1.391 1_565 S
C87 H69 0.941 . S
C87 C86 1.391 . S
C87 C88 1.396 . S
C88 H72 0.939 . S
C88 C87 1.396 . S
C88 C89 1.397 1_565 S
C89 C88 1.397 1_545 S
C89 C90 1.385 . S
C90 H73 0.940 . S
C90 C89 1.385 . S
C90 C91 1.388 . S
C91 H70 0.939 . S
C91 C86 1.391 1_545 S
C91 C90 1.388 . S
P92 O103 1.490 . S
P92 C106 1.812 . S
P92 C112 1.803 . S
P92 C118 1.819 . S
H93 C107 0.941 . S
H94 C108 0.939 . S
H95 C110 0.940 . S
H96 C111 0.940 . S
H97 C113 0.939 . S
H98 C114 0.942 . S
H99 C116 0.940 . S
H100 C117 0.939 . S
H101 C119 0.941 . S
H102 C123 0.939 . S
O103 P92 1.490 . S
H104 C120 0.939 . S
H105 C122 0.940 . S
C106 P92 1.812 . S
C106 C107 1.389 . S
C106 C111 1.391 . S
C107 H93 0.941 . S
C107 C106 1.389 . S
C107 C108 1.397 . S
C108 H94 0.939 . S
C108 C107 1.397 . S
C108 C109 1.378 . S
C109 C108 1.378 . S
C109 C110 1.378 . S
C110 H95 0.940 . S
C110 C109 1.378 . S
C110 C111 1.396 . S
C111 H96 0.940 . S
C111 C106 1.391 . S
C111 C110 1.396 . S
C112 P92 1.803 . S
C112 C113 1.378 . S
C112 C117 1.400 . S
C113 H97 0.939 . S
C113 C112 1.378 . S
C113 C114 1.361 . S
C114 H98 0.942 . S
C114 C113 1.361 . S
C114 C115 1.369 . S
C115 C114 1.369 . S
C115 C116 1.404 . S
C116 H99 0.940 . S
C116 C115 1.404 . S
C116 C117 1.389 . S
C117 H100 0.939 . S
C117 C112 1.400 . S
C117 C116 1.389 . S
C118 P92 1.819 . S
C118 C119 1.391 . S
C118 C123 1.391 . S
C119 H101 0.941 . S
C119 C118 1.391 . S
C119 C120 1.396 . S
C120 H104 0.939 . S
C120 C119 1.396 . S
C120 C121 1.397 . S
C121 C120 1.397 . S
C121 C122 1.385 . S
C122 H105 0.940 . S
C122 C121 1.385 . S
C122 C123 1.388 . S
C123 H102 0.939 . S
C123 C118 1.391 . S
C123 C122 1.388 . S
P124 O135 1.490 . S
P124 C138 1.812 . S
P124 C144 1.803 . S
P124 C150 1.819 . S
H125 C139 0.941 . S
H126 C140 0.939 . S
H127 C142 0.940 . S
H128 C143 0.940 . S
H129 C145 0.939 . S
H130 C146 0.942 . S
H131 C148 0.940 . S
H132 C149 0.939 . S
H133 C151 0.941 . S
H134 C155 0.939 . S
O135 P124 1.490 . S
H136 C152 0.939 . S
H137 C154 0.940 . S
C138 P124 1.812 . S
C138 C139 1.389 . S
C138 C143 1.391 . S
C139 H125 0.941 . S
C139 C138 1.389 . S
C139 C140 1.397 . S
C140 H126 0.939 . S
C140 C139 1.397 . S
C140 C141 1.378 . S
C141 C140 1.378 . S
C141 C142 1.378 . S
C142 H127 0.940 . S
C142 C141 1.378 . S
C142 C143 1.396 . S
C143 H128 0.940 . S
C143 C138 1.391 . S
C143 C142 1.396 . S
C144 P124 1.803 . S
C144 C145 1.378 . S
C144 C149 1.400 . S
C145 H129 0.939 . S
C145 C144 1.378 . S
C145 C146 1.361 1_455 S
C146 H130 0.942 . S
C146 C145 1.361 1_655 S
C146 C147 1.369 . S
C147 C146 1.369 . S
C147 C148 1.404 . S
C148 H131 0.940 . S
C148 C147 1.404 . S
C148 C149 1.389 1_655 S
C149 H132 0.939 . S
C149 C144 1.400 . S
C149 C148 1.389 1_455 S
C150 P124 1.819 . S
C150 C151 1.391 . S
C150 C155 1.391 . S
C151 H133 0.941 . S
C151 C150 1.391 . S
C151 C152 1.396 . S
C152 H136 0.939 . S
C152 C151 1.396 . S
C152 C153 1.397 . S
C153 C152 1.397 . S
C153 C154 1.385 . S
C154 H137 0.940 . S
C154 C153 1.385 . S
C154 C155 1.388 . S
C155 H134 0.939 . S
C155 C150 1.391 . S
C155 C154 1.388 . S
P156 O167 1.490 . S
P156 C170 1.812 . S
P156 C176 1.803 1_455 S
P156 C182 1.819 . S
H157 C171 0.941 . S
H158 C172 0.939 . S
H159 C174 0.940 . S
H160 C175 0.940 . S
H161 C177 0.939 . S
H162 C178 0.942 . S
H163 C180 0.940 . S
H164 C181 0.939 . S
H165 C183 0.941 . S
H166 C187 0.939 . S
O167 P156 1.490 . S
H168 C184 0.939 . S
H169 C186 0.940 . S
C170 P156 1.812 . S
C170 C171 1.389 . S
C170 C175 1.391 . S
C171 H157 0.941 . S
C171 C170 1.389 . S
C171 C172 1.397 . S
C172 H158 0.939 . S
C172 C171 1.397 . S
C172 C173 1.378 . S
C173 C172 1.378 . S
C173 C174 1.378 . S
C174 H159 0.940 . S
C174 C173 1.378 . S
C174 C175 1.396 . S
C175 H160 0.940 . S
C175 C170 1.391 . S
C175 C174 1.396 . S
C176 P156 1.803 1_655 S
C176 C177 1.378 . S
C176 C181 1.400 . S
C177 H161 0.939 . S
C177 C176 1.378 . S
C177 C178 1.361 . S
C178 H162 0.942 . S
C178 C177 1.361 . S
C178 C179 1.369 . S
C179 C178 1.369 . S
C179 C180 1.404 . S
C180 H163 0.940 . S
C180 C179 1.404 . S
C180 C181 1.389 . S
C181 H164 0.939 . S
C181 C176 1.400 . S
C181 C180 1.389 . S
C182 P156 1.819 . S
C182 C183 1.391 . S
C182 C187 1.391 1_455 S
C183 H165 0.941 . S
C183 C182 1.391 . S
C183 C184 1.396 . S
C184 H168 0.939 . S
C184 C183 1.396 . S
C184 C185 1.397 . S
C185 C184 1.397 . S
C185 C186 1.385 1_455 S
C186 H169 0.940 . S
C186 C185 1.385 1_655 S
C186 C187 1.388 . S
C187 H166 0.939 . S
C187 C182 1.391 1_655 S
C187 C186 1.388 . S
P188 O199 1.490 . S
P188 C202 1.812 . S
P188 C208 1.803 . S
P188 C214 1.819 . S
H189 C203 0.941 . S
H190 C204 0.939 . S
H191 C206 0.940 . S
H192 C207 0.940 . S
H193 C209 0.939 . S
H194 C210 0.942 . S
H195 C212 0.940 . S
H196 C213 0.939 . S
H197 C215 0.941 . S
H198 C219 0.939 . S
O199 P188 1.490 . S
H200 C216 0.939 . S
H201 C218 0.940 . S
C202 P188 1.812 . S
C202 C203 1.389 . S
C202 C207 1.391 . S
C203 H189 0.941 . S
C203 C202 1.389 . S
C203 C204 1.397 . S
C204 H190 0.939 . S
C204 C203 1.397 . S
C204 C205 1.378 . S
C205 C204 1.378 . S
C205 C206 1.378 . S
C206 H191 0.940 . S
C206 C205 1.378 . S
C206 C207 1.396 . S
C207 H192 0.940 . S
C207 C202 1.391 . S
C207 C206 1.396 . S
C208 P188 1.803 . S
C208 C209 1.378 . S
C208 C213 1.400 . S
C209 H193 0.939 . S
C209 C208 1.378 . S
C209 C210 1.361 1_545 S
C210 H194 0.942 . S
C210 C209 1.361 1_565 S
C210 C211 1.369 . S
C211 C210 1.369 . S
C211 C212 1.404 . S
C212 H195 0.940 . S
C212 C211 1.404 . S
C212 C213 1.389 1_565 S
C213 H196 0.939 . S
C213 C208 1.400 . S
C213 C212 1.389 1_545 S
C214 P188 1.819 . S
C214 C215 1.391 . S
C214 C219 1.391 . S
C215 H197 0.941 . S
C215 C214 1.391 . S
C215 C216 1.396 . S
C216 H200 0.939 . S
C216 C215 1.396 . S
C216 C217 1.397 . S
C217 C216 1.397 . S
C217 C218 1.385 . S
C218 H201 0.940 . S
C218 C217 1.385 . S
C218 C219 1.388 . S
C219 H198 0.939 . S
C219 C214 1.391 . S
C219 C218 1.388 . S
P220 O231 1.490 . S
P220 C234 1.812 . S
P220 C240 1.803 . S
P220 C246 1.819 . S
H221 C235 0.941 . S
H222 C236 0.939 . S
H223 C238 0.940 . S
H224 C239 0.940 . S
H225 C241 0.939 . S
H226 C242 0.942 . S
H227 C244 0.940 . S
H228 C245 0.939 . S
H229 C247 0.941 . S
H230 C251 0.939 . S
O231 P220 1.490 . S
H232 C248 0.939 . S
H233 C250 0.940 . S
C234 P220 1.812 . S
C234 C235 1.389 . S
C234 C239 1.391 . S
C235 H221 0.941 . S
C235 C234 1.389 . S
C235 C236 1.397 . S
C236 H222 0.939 . S
C236 C235 1.397 . S
C236 C237 1.378 . S
C237 C236 1.378 . S
C237 C238 1.378 . S
C238 H223 0.940 . S
C238 C237 1.378 . S
C238 C239 1.396 . S
C239 H224 0.940 . S
C239 C234 1.391 . S
C239 C238 1.396 . S
C240 P220 1.803 . S
C240 C241 1.378 . S
C240 C245 1.400 . S
C241 H225 0.939 . S
C241 C240 1.378 . S
C241 C242 1.361 . S
C242 H226 0.942 . S
C242 C241 1.361 . S
C242 C243 1.369 . S
C243 C242 1.369 . S
C243 C244 1.404 . S
C244 H227 0.940 . S
C244 C243 1.404 . S
C244 C245 1.389 . S
C245 H228 0.939 . S
C245 C240 1.400 . S
C245 C244 1.389 . S
C246 P220 1.819 . S
C246 C247 1.391 . S
C246 C251 1.391 . S
C247 H229 0.941 . S
C247 C246 1.391 . S
C247 C248 1.396 . S
C248 H232 0.939 . S
C248 C247 1.396 . S
C248 C249 1.397 . S
C249 C248 1.397 . S
C249 C250 1.385 . S
C250 H233 0.940 . S
C250 C249 1.385 . S
C250 C251 1.388 . S
C251 H230 0.939 . S
C251 C246 1.391 . S
C251 C250 1.388 . S
H252 C260 0.929 . S
H253 C262 0.930 . S
H254 C264 0.930 . S
H255 C267 0.929 . S
H256 C270 0.930 . S
H257 C272 0.960 . S
H258 C272 0.960 . S
H259 C272 0.960 . S
C260 H252 0.929 . S
C260 C261 1.377 . S
C260 C262 1.384 . S
C261 C260 1.377 . S
C261 C267 1.390 . S
C262 H253 0.930 . S
C262 C260 1.384 . S
C262 C263 1.372 . S
C263 C262 1.372 . S
C263 C264 1.400 . S
C263 C268 1.490 . S
C264 H254 0.930 . S
C264 C263 1.400 . S
C264 C267 1.386 . S
H265 C281 0.930 . S
H266 C282 0.931 . S
C267 H255 0.929 . S
C267 C261 1.390 . S
C267 C264 1.386 . S
C268 C263 1.490 . S
C268 C270 1.395 . S
C268 C271 1.403 . S
H269 C275 0.930 . S
C270 H256 0.930 . S
C270 C268 1.395 . S
C270 C273 1.403 . S
C271 C268 1.403 . S
C271 C272 1.524 . S
C271 C275 1.400 . S
C272 H257 0.960 . S
C272 H258 0.960 . S
C272 H259 0.960 . S
C272 C271 1.524 . S
C273 C270 1.403 . S
C273 C274 1.392 . S
C273 C277 1.495 . S
C274 C273 1.392 . S
C274 C275 1.385 . S
C274 C276 1.478 . S
C275 H269 0.930 . S
C275 C271 1.400 . S
C275 C274 1.385 . S
C276 C274 1.478 . S
C276 C278 1.381 . S
C276 C282 1.383 . S
C277 C273 1.495 . S
C277 H283 0.959 . S
C277 H284 0.961 . S
C277 H285 0.960 . S
C278 C276 1.381 . S
C278 C279 1.394 . S
C278 H286 0.930 . S
C279 C278 1.394 . S
C279 C280 1.383 . S
C279 H287 0.929 . S
C280 C279 1.383 . S
C280 C281 1.377 . S
C281 H265 0.930 . S
C281 C280 1.377 . S
C281 C282 1.379 . S
C282 H266 0.931 . S
C282 C276 1.383 . S
C282 C281 1.379 . S
H283 C277 0.959 . S
H284 C277 0.961 . S
H285 C277 0.960 . S
H286 C278 0.930 . S
H287 C279 0.929 . S
H288 C296 0.929 . S
H289 C298 0.930 . S
H290 C300 0.930 . S
H291 C303 0.929 . S
H292 C306 0.930 . S
H293 C308 0.960 . S
H294 C308 0.960 . S
H295 C308 0.960 . S
C296 H288 0.929 . S
C296 C297 1.377 . S
C296 C298 1.384 . S
C297 C296 1.377 . S
C297 C303 1.390 . S
C298 H289 0.930 . S
C298 C296 1.384 . S
C298 C299 1.372 . S
C299 C298 1.372 . S
C299 C300 1.400 . S
C299 C304 1.490 . S
C300 H290 0.930 . S
C300 C299 1.400 . S
C300 C303 1.386 . S
H301 C317 0.930 . S
H302 C318 0.931 . S
C303 H291 0.929 . S
C303 C297 1.390 . S
C303 C300 1.386 . S
C304 C299 1.490 . S
C304 C306 1.395 . S
C304 C307 1.403 . S
H305 C311 0.930 . S
C306 H292 0.930 . S
C306 C304 1.395 . S
C306 C309 1.403 . S
C307 C304 1.403 . S
C307 C308 1.524 . S
C307 C311 1.400 . S
C308 H293 0.960 . S
C308 H294 0.960 . S
C308 H295 0.960 . S
C308 C307 1.524 . S
C309 C306 1.403 . S
C309 C310 1.392 . S
C309 C313 1.495 . S
C310 C309 1.392 . S
C310 C311 1.385 . S
C310 C312 1.478 . S
C311 H305 0.930 . S
C311 C307 1.400 . S
C311 C310 1.385 . S
C312 C310 1.478 . S
C312 C314 1.381 . S
C312 C318 1.383 . S
C313 C309 1.495 . S
C313 H319 0.959 . S
C313 H320 0.961 . S
C313 H321 0.960 . S
C314 C312 1.381 . S
C314 C315 1.394 . S
C314 H322 0.930 . S
C315 C314 1.394 . S
C315 C316 1.383 . S
C315 H323 0.929 . S
C316 C315 1.383 . S
C316 C317 1.377 . S
C317 H301 0.930 . S
C317 C316 1.377 . S
C317 C318 1.379 . S
C318 H302 0.931 . S
C318 C312 1.383 . S
C318 C317 1.379 . S
H319 C313 0.959 . S
H320 C313 0.961 . S
H321 C313 0.960 . S
H322 C314 0.930 . S
H323 C315 0.929 . S
H324 C332 0.929 . S
H325 C334 0.930 . S
H326 C336 0.930 . S
H327 C339 0.929 . S
H328 C342 0.930 . S
H329 C344 0.960 . S
H330 C344 0.960 . S
H331 C344 0.960 . S
C332 H324 0.929 . S
C332 C333 1.377 . S
C332 C334 1.384 . S
C333 C332 1.377 . S
C333 C339 1.390 . S
C334 H325 0.930 . S
C334 C332 1.384 . S
C334 C335 1.372 . S
C335 C334 1.372 . S
C335 C336 1.400 . S
C335 C340 1.490 . S
C336 H326 0.930 . S
C336 C335 1.400 . S
C336 C339 1.386 . S
H337 C353 0.930 . S
H338 C354 0.931 . S
C339 H327 0.929 . S
C339 C333 1.390 . S
C339 C336 1.386 . S
C340 C335 1.490 . S
C340 C342 1.395 . S
C340 C343 1.403 . S
H341 C347 0.930 . S
C342 H328 0.930 . S
C342 C340 1.395 . S
C342 C345 1.403 . S
C343 C340 1.403 . S
C343 C344 1.524 . S
C343 C347 1.400 . S
C344 H329 0.960 . S
C344 H330 0.960 . S
C344 H331 0.960 . S
C344 C343 1.524 . S
C345 C342 1.403 . S
C345 C346 1.392 . S
C345 C349 1.495 . S
C346 C345 1.392 . S
C346 C347 1.385 . S
C346 C348 1.478 . S
C347 H341 0.930 . S
C347 C343 1.400 . S
C347 C346 1.385 . S
C348 C346 1.478 . S
C348 C350 1.381 . S
C348 C354 1.383 . S
C349 C345 1.495 . S
C349 H355 0.959 . S
C349 H356 0.961 . S
C349 H357 0.960 . S
C350 C348 1.381 . S
C350 C351 1.394 . S
C350 H358 0.930 . S
C351 C350 1.394 . S
C351 C352 1.383 . S
C351 H359 0.929 . S
C352 C351 1.383 . S
C352 C353 1.377 . S
C353 H337 0.930 . S
C353 C352 1.377 . S
C353 C354 1.379 . S
C354 H338 0.931 . S
C354 C348 1.383 . S
C354 C353 1.379 . S
H355 C349 0.959 . S
H356 C349 0.961 . S
H357 C349 0.960 . S
H358 C350 0.930 . S
H359 C351 0.929 . S
H360 C368 0.929 . S
H361 C370 0.930 . S
H362 C372 0.930 . S
H363 C375 0.929 . S
H364 C378 0.930 . S
H365 C380 0.960 . S
H366 C380 0.960 . S
H367 C380 0.960 . S
C368 H360 0.929 . S
C368 C369 1.377 . S
C368 C370 1.384 . S
C369 C368 1.377 . S
C369 C375 1.390 . S
C370 H361 0.930 . S
C370 C368 1.384 . S
C370 C371 1.372 . S
C371 C370 1.372 . S
C371 C372 1.400 . S
C371 C376 1.490 . S
C372 H362 0.930 . S
C372 C371 1.400 . S
C372 C375 1.386 . S
H373 C389 0.930 . S
H374 C390 0.931 . S
C375 H363 0.929 . S
C375 C369 1.390 . S
C375 C372 1.386 . S
C376 C371 1.490 . S
C376 C378 1.395 . S
C376 C379 1.403 . S
H377 C383 0.930 . S
C378 H364 0.930 . S
C378 C376 1.395 . S
C378 C381 1.403 . S
C379 C376 1.403 . S
C379 C380 1.524 . S
C379 C383 1.400 . S
C380 H365 0.960 . S
C380 H366 0.960 . S
C380 H367 0.960 . S
C380 C379 1.524 . S
C381 C378 1.403 . S
C381 C382 1.392 . S
C381 C385 1.495 . S
C382 C381 1.392 . S
C382 C383 1.385 . S
C382 C384 1.478 . S
C383 H377 0.930 . S
C383 C379 1.400 . S
C383 C382 1.385 . S
C384 C382 1.478 . S
C384 C386 1.381 . S
C384 C390 1.383 . S
C385 C381 1.495 . S
C385 H391 0.959 . S
C385 H392 0.961 . S
C385 H393 0.960 . S
C386 C384 1.381 . S
C386 C387 1.394 . S
C386 H394 0.930 . S
C387 C386 1.394 . S
C387 C388 1.383 . S
C387 H395 0.929 . S
C388 C387 1.383 . S
C388 C389 1.377 . S
C389 H373 0.930 . S
C389 C388 1.377 . S
C389 C390 1.379 . S
C390 H374 0.931 . S
C390 C384 1.383 . S
C390 C389 1.379 . S
H391 C385 0.959 . S
H392 C385 0.961 . S
H393 C385 0.960 . S
H394 C386 0.930 . S
H395 C387 0.929 . S
H396 C404 0.929 . S
H397 C406 0.930 . S
H398 C408 0.930 . S
H399 C411 0.929 . S
H400 C414 0.930 . S
H401 C416 0.960 . S
H402 C416 0.960 . S
H403 C416 0.960 . S
C404 H396 0.929 . S
C404 C405 1.377 . S
C404 C406 1.384 . S
C405 C404 1.377 . S
C405 C411 1.390 . S
C406 H397 0.930 . S
C406 C404 1.384 . S
C406 C407 1.372 . S
C407 C406 1.372 . S
C407 C408 1.400 . S
C407 C412 1.490 . S
C408 H398 0.930 . S
C408 C407 1.400 . S
C408 C411 1.386 . S
H409 C425 0.930 . S
H410 C426 0.931 . S
C411 H399 0.929 . S
C411 C405 1.390 . S
C411 C408 1.386 . S
C412 C407 1.490 . S
C412 C414 1.395 . S
C412 C415 1.403 . S
H413 C419 0.930 . S
C414 H400 0.930 . S
C414 C412 1.395 . S
C414 C417 1.403 . S
C415 C412 1.403 . S
C415 C416 1.524 . S
C415 C419 1.400 . S
C416 H401 0.960 . S
C416 H402 0.960 . S
C416 H403 0.960 . S
C416 C415 1.524 . S
C417 C414 1.403 . S
C417 C418 1.392 . S
C417 C421 1.495 . S
C418 C417 1.392 . S
C418 C419 1.385 . S
C418 C420 1.478 . S
C419 H413 0.930 . S
C419 C415 1.400 . S
C419 C418 1.385 . S
C420 C418 1.478 . S
C420 C422 1.381 . S
C420 C426 1.383 . S
C421 C417 1.495 . S
C421 H427 0.959 . S
C421 H428 0.961 . S
C421 H429 0.960 . S
C422 C420 1.381 . S
C422 C423 1.394 . S
C422 H430 0.930 . S
C423 C422 1.394 . S
C423 C424 1.383 . S
C423 H431 0.929 . S
C424 C423 1.383 . S
C424 C425 1.377 . S
C425 H409 0.930 . S
C425 C424 1.377 . S
C425 C426 1.379 . S
C426 H410 0.931 . S
C426 C420 1.383 . S
C426 C425 1.379 . S
H427 C421 0.959 . S
H428 C421 0.961 . S
H429 C421 0.960 . S
H430 C422 0.930 . S
H431 C423 0.929 . S
H432 C440 0.929 . S
H433 C442 0.930 . S
H434 C444 0.930 . S
H435 C447 0.929 . S
H436 C450 0.930 . S
H437 C452 0.960 . S
H438 C452 0.960 . S
H439 C452 0.960 . S
C440 H432 0.929 . S
C440 C441 1.377 . S
C440 C442 1.384 . S
C441 C440 1.377 . S
C441 C447 1.390 . S
C442 H433 0.930 . S
C442 C440 1.384 . S
C442 C443 1.372 . S
C443 C442 1.372 . S
C443 C444 1.400 . S
C443 C448 1.490 . S
C444 H434 0.930 . S
C444 C443 1.400 . S
C444 C447 1.386 . S
H445 C461 0.930 . S
H446 C462 0.931 . S
C447 H435 0.929 . S
C447 C441 1.390 . S
C447 C444 1.386 . S
C448 C443 1.490 . S
C448 C450 1.395 . S
C448 C451 1.403 . S
H449 C455 0.930 . S
C450 H436 0.930 . S
C450 C448 1.395 . S
C450 C453 1.403 . S
C451 C448 1.403 . S
C451 C452 1.524 . S
C451 C455 1.400 . S
C452 H437 0.960 . S
C452 H438 0.960 . S
C452 H439 0.960 . S
C452 C451 1.524 . S
C453 C450 1.403 . S
C453 C454 1.392 . S
C453 C457 1.495 . S
C454 C453 1.392 . S
C454 C455 1.385 . S
C454 C456 1.478 . S
C455 H449 0.930 . S
C455 C451 1.400 . S
C455 C454 1.385 . S
C456 C454 1.478 . S
C456 C458 1.381 . S
C456 C462 1.383 . S
C457 C453 1.495 . S
C457 H463 0.959 . S
C457 H464 0.961 . S
C457 H465 0.960 . S
C458 C456 1.381 . S
C458 C459 1.394 . S
C458 H466 0.930 . S
C459 C458 1.394 . S
C459 C460 1.383 . S
C459 H467 0.929 . S
C460 C459 1.383 . S
C460 C461 1.377 . S
C461 H445 0.930 . S
C461 C460 1.377 . S
C461 C462 1.379 . S
C462 H446 0.931 . S
C462 C456 1.383 . S
C462 C461 1.379 . S
H463 C457 0.959 . S
H464 C457 0.961 . S
H465 C457 0.960 . S
H466 C458 0.930 . S
H467 C459 0.929 . S
H468 C476 0.929 . S
H469 C478 0.930 . S
H470 C480 0.930 . S
H471 C483 0.929 . S
H472 C486 0.930 . S
H473 C488 0.960 . S
H474 C488 0.960 . S
H475 C488 0.960 . S
C476 H468 0.929 . S
C476 C477 1.377 . S
C476 C478 1.384 . S
C477 C476 1.377 . S
C477 C483 1.390 . S
C478 H469 0.930 . S
C478 C476 1.384 . S
C478 C479 1.372 . S
C479 C478 1.372 . S
C479 C480 1.400 . S
C479 C484 1.490 . S
C480 H470 0.930 . S
C480 C479 1.400 . S
C480 C483 1.386 . S
H481 C497 0.930 . S
H482 C498 0.931 . S
C483 H471 0.929 . S
C483 C477 1.390 . S
C483 C480 1.386 . S
C484 C479 1.490 . S
C484 C486 1.395 . S
C484 C487 1.403 . S
H485 C491 0.930 . S
C486 H472 0.930 . S
C486 C484 1.395 . S
C486 C489 1.403 . S
C487 C484 1.403 . S
C487 C488 1.524 . S
C487 C491 1.400 . S
C488 H473 0.960 . S
C488 H474 0.960 . S
C488 H475 0.960 . S
C488 C487 1.524 . S
C489 C486 1.403 . S
C489 C490 1.392 . S
C489 C493 1.495 . S
C490 C489 1.392 . S
C490 C491 1.385 . S
C490 C492 1.478 . S
C491 H485 0.930 . S
C491 C487 1.400 . S
C491 C490 1.385 . S
C492 C490 1.478 . S
C492 C494 1.381 . S
C492 C498 1.383 . S
C493 C489 1.495 . S
C493 H499 0.959 . S
C493 H500 0.961 . S
C493 H501 0.960 . S
C494 C492 1.381 . S
C494 C495 1.394 . S
C494 H502 0.930 . S
C495 C494 1.394 . S
C495 C496 1.383 . S
C495 H503 0.929 . S
C496 C495 1.383 . S
C496 C497 1.377 . S
C497 H481 0.930 . S
C497 C496 1.377 . S
C497 C498 1.379 . S
C498 H482 0.931 . S
C498 C492 1.383 . S
C498 C497 1.379 . S
H499 C493 0.959 . S
H500 C493 0.961 . S
H501 C493 0.960 . S
H502 C494 0.930 . S
H503 C495 0.929 . S
H504 C512 0.929 . S
H505 C514 0.930 . S
H506 C516 0.930 . S
H507 C519 0.929 . S
H508 C522 0.930 . S
H509 C524 0.960 . S
H510 C524 0.960 . S
H511 C524 0.960 . S
C512 H504 0.929 . S
C512 C513 1.377 . S
C512 C514 1.384 . S
C513 C512 1.377 . S
C513 C519 1.390 . S
C514 H505 0.930 . S
C514 C512 1.384 . S
C514 C515 1.372 . S
C515 C514 1.372 . S
C515 C516 1.400 . S
C515 C520 1.490 . S
C516 H506 0.930 . S
C516 C515 1.400 . S
C516 C519 1.386 . S
H517 C533 0.930 . S
H518 C534 0.931 . S
C519 H507 0.929 . S
C519 C513 1.390 . S
C519 C516 1.386 . S
C520 C515 1.490 . S
C520 C522 1.395 . S
C520 C523 1.403 . S
H521 C527 0.930 . S
C522 H508 0.930 . S
C522 C520 1.395 . S
C522 C525 1.403 . S
C523 C520 1.403 . S
C523 C524 1.524 . S
C523 C527 1.400 . S
C524 H509 0.960 . S
C524 H510 0.960 . S
C524 H511 0.960 . S
C524 C523 1.524 . S
C525 C522 1.403 . S
C525 C526 1.392 . S
C525 C529 1.495 . S
C526 C525 1.392 . S
C526 C527 1.385 . S
C526 C528 1.478 . S
C527 H521 0.930 . S
C527 C523 1.400 . S
C527 C526 1.385 . S
C528 C526 1.478 . S
C528 C530 1.381 . S
C528 C534 1.383 . S
C529 C525 1.495 . S
C529 H535 0.959 . S
C529 H536 0.961 . S
C529 H537 0.960 . S
C530 C528 1.381 . S
C530 C531 1.394 . S
C530 H538 0.930 . S
C531 C530 1.394 . S
C531 C532 1.383 . S
C531 H539 0.929 . S
C532 C531 1.383 . S
C532 C533 1.377 . S
C533 H517 0.930 . S
C533 C532 1.377 . S
C533 C534 1.379 . S
C534 H518 0.931 . S
C534 C528 1.383 . S
C534 C533 1.379 . S
H535 C529 0.959 . S
H536 C529 0.961 . S
H537 C529 0.960 . S
H538 C530 0.930 . S
H539 C531 0.929 . S
H540 C548 0.929 . S
H541 C550 0.930 . S
H542 C552 0.930 . S
H543 C555 0.929 . S
H544 C558 0.930 . S
H545 C560 0.960 . S
H546 C560 0.960 . S
H547 C560 0.960 . S
C548 H540 0.929 . S
C548 C549 1.377 . S
C548 C550 1.384 . S
C549 C548 1.377 . S
C549 C555 1.390 . S
C550 H541 0.930 . S
C550 C548 1.384 . S
C550 C551 1.372 . S
C551 C550 1.372 . S
C551 C552 1.400 . S
C551 C556 1.490 . S
C552 H542 0.930 . S
C552 C551 1.400 . S
C552 C555 1.386 . S
H553 C569 0.930 . S
H554 C570 0.931 . S
C555 H543 0.929 . S
C555 C549 1.390 . S
C555 C552 1.386 . S
C556 C551 1.490 . S
C556 C558 1.395 . S
C556 C559 1.403 . S
H557 C563 0.930 . S
C558 H544 0.930 . S
C558 C556 1.395 . S
C558 C561 1.403 . S
C559 C556 1.403 . S
C559 C560 1.524 . S
C559 C563 1.400 . S
C560 H545 0.960 . S
C560 H546 0.960 . S
C560 H547 0.960 . S
C560 C559 1.524 . S
C561 C558 1.403 . S
C561 C562 1.392 . S
C561 C565 1.495 . S
C562 C561 1.392 . S
C562 C563 1.385 . S
C562 C564 1.478 . S
C563 H557 0.930 . S
C563 C559 1.400 . S
C563 C562 1.385 . S
C564 C562 1.478 . S
C564 C566 1.381 . S
C564 C570 1.383 . S
C565 C561 1.495 . S
C565 H571 0.959 . S
C565 H572 0.961 . S
C565 H573 0.960 . S
C566 C564 1.381 . S
C566 C567 1.394 . S
C566 H574 0.930 . S
C567 C566 1.394 . S
C567 C568 1.383 . S
C567 H575 0.929 . S
C568 C567 1.383 . S
C568 C569 1.377 . S
C569 H553 0.930 . S
C569 C568 1.377 . S
C569 C570 1.379 . S
C570 H554 0.931 . S
C570 C564 1.383 . S
C570 C569 1.379 . S
H571 C565 0.959 . S
H572 C565 0.961 . S
H573 C565 0.960 . S
H574 C566 0.930 . S
H575 C567 0.929 . S
H576 C584 0.929 . S
H577 C586 0.930 . S
H578 C588 0.930 . S
H579 C591 0.929 . S
H580 C594 0.930 . S
H581 C596 0.960 . S
H582 C596 0.960 . S
H583 C596 0.960 . S
C584 H576 0.929 . S
C584 C585 1.377 . S
C584 C586 1.384 . S
C585 C584 1.377 . S
C585 C591 1.390 . S
C586 H577 0.930 . S
C586 C584 1.384 . S
C586 C587 1.372 . S
C587 C586 1.372 . S
C587 C588 1.400 . S
C587 C592 1.490 . S
C588 H578 0.930 . S
C588 C587 1.400 . S
C588 C591 1.386 . S
H589 C605 0.930 . S
H590 C606 0.931 . S
C591 H579 0.929 . S
C591 C585 1.390 . S
C591 C588 1.386 . S
C592 C587 1.490 . S
C592 C594 1.395 . S
C592 C595 1.403 . S
H593 C599 0.930 . S
C594 H580 0.930 . S
C594 C592 1.395 . S
C594 C597 1.403 . S
C595 C592 1.403 . S
C595 C596 1.524 . S
C595 C599 1.400 . S
C596 H581 0.960 . S
C596 H582 0.960 . S
C596 H583 0.960 . S
C596 C595 1.524 . S
C597 C594 1.403 . S
C597 C598 1.392 . S
C597 C601 1.495 . S
C598 C597 1.392 . S
C598 C599 1.385 . S
C598 C600 1.478 . S
C599 H593 0.930 . S
C599 C595 1.400 . S
C599 C598 1.385 . S
C600 C598 1.478 . S
C600 C602 1.381 . S
C600 C606 1.383 . S
C601 C597 1.495 . S
C601 H607 0.959 . S
C601 H608 0.961 . S
C601 H609 0.960 . S
C602 C600 1.381 . S
C602 C603 1.394 . S
C602 H610 0.930 . S
C603 C602 1.394 . S
C603 C604 1.383 . S
C603 H611 0.929 . S
C604 C603 1.383 . S
C604 C605 1.377 . S
C605 H589 0.930 . S
C605 C604 1.377 . S
C605 C606 1.379 . S
C606 H590 0.931 . S
C606 C600 1.383 . S
C606 C605 1.379 . S
H607 C601 0.959 . S
H608 C601 0.961 . S
H609 C601 0.960 . S
H610 C602 0.930 . S
H611 C603 0.929 . S
H612 C620 0.929 . S
H613 C622 0.930 . S
H614 C624 0.930 . S
H615 C627 0.929 . S
H616 C630 0.930 . S
H617 C632 0.960 . S
H618 C632 0.960 . S
H619 C632 0.960 . S
C620 H612 0.929 . S
C620 C621 1.377 . S
C620 C622 1.384 . S
C621 C620 1.377 . S
C621 C627 1.390 . S
C622 H613 0.930 . S
C622 C620 1.384 . S
C622 C623 1.372 . S
C623 C622 1.372 . S
C623 C624 1.400 . S
C623 C628 1.490 . S
C624 H614 0.930 . S
C624 C623 1.400 . S
C624 C627 1.386 . S
H625 C641 0.930 . S
H626 C642 0.931 . S
C627 H615 0.929 . S
C627 C621 1.390 . S
C627 C624 1.386 . S
C628 C623 1.490 . S
C628 C630 1.395 . S
C628 C631 1.403 . S
H629 C635 0.930 . S
C630 H616 0.930 . S
C630 C628 1.395 . S
C630 C633 1.403 . S
C631 C628 1.403 . S
C631 C632 1.524 . S
C631 C635 1.400 . S
C632 H617 0.960 . S
C632 H618 0.960 . S
C632 H619 0.960 . S
C632 C631 1.524 . S
C633 C630 1.403 . S
C633 C634 1.392 . S
C633 C637 1.495 . S
C634 C633 1.392 . S
C634 C635 1.385 . S
C634 C636 1.478 . S
C635 H629 0.930 . S
C635 C631 1.400 . S
C635 C634 1.385 . S
C636 C634 1.478 . S
C636 C638 1.381 . S
C636 C642 1.383 . S
C637 C633 1.495 . S
C637 H643 0.959 . S
C637 H644 0.961 . S
C637 H645 0.960 . S
C638 C636 1.381 . S
C638 C639 1.394 . S
C638 H646 0.930 . S
C639 C638 1.394 . S
C639 C640 1.383 . S
C639 H647 0.929 . S
C640 C639 1.383 . S
C640 C641 1.377 . S
C641 H625 0.930 . S
C641 C640 1.377 . S
C641 C642 1.379 . S
C642 H626 0.931 . S
C642 C636 1.383 . S
C642 C641 1.379 . S
H643 C637 0.959 . S
H644 C637 0.961 . S
H645 C637 0.960 . S
H646 C638 0.930 . S
H647 C639 0.929 . S
H648 C656 0.929 . S
H649 C658 0.930 . S
H650 C660 0.930 . S
H651 C663 0.929 . S
H652 C666 0.930 . S
H653 C668 0.960 . S
H654 C668 0.960 . S
H655 C668 0.960 . S
C656 H648 0.929 . S
C656 C657 1.377 . S
C656 C658 1.384 . S
C657 C656 1.377 . S
C657 C663 1.390 . S
C658 H649 0.930 . S
C658 C656 1.384 . S
C658 C659 1.372 . S
C659 C658 1.372 . S
C659 C660 1.400 . S
C659 C664 1.490 . S
C660 H650 0.930 . S
C660 C659 1.400 . S
C660 C663 1.386 . S
H661 C677 0.930 . S
H662 C678 0.931 . S
C663 H651 0.929 . S
C663 C657 1.390 . S
C663 C660 1.386 . S
C664 C659 1.490 . S
C664 C666 1.395 . S
C664 C667 1.403 . S
H665 C671 0.930 . S
C666 H652 0.930 . S
C666 C664 1.395 . S
C666 C669 1.403 . S
C667 C664 1.403 . S
C667 C668 1.524 . S
C667 C671 1.400 . S
C668 H653 0.960 . S
C668 H654 0.960 . S
C668 H655 0.960 . S
C668 C667 1.524 . S
C669 C666 1.403 . S
C669 C670 1.392 . S
C669 C673 1.495 . S
C670 C669 1.392 . S
C670 C671 1.385 . S
C670 C672 1.478 . S
C671 H665 0.930 . S
C671 C667 1.400 . S
C671 C670 1.385 . S
C672 C670 1.478 . S
C672 C674 1.381 . S
C672 C678 1.383 . S
C673 C669 1.495 . S
C673 H679 0.959 . S
C673 H680 0.961 . S
C673 H681 0.960 . S
C674 C672 1.381 . S
C674 C675 1.394 . S
C674 H682 0.930 . S
C675 C674 1.394 . S
C675 C676 1.383 . S
C675 H683 0.929 . S
C676 C675 1.383 . S
C676 C677 1.377 . S
C677 H661 0.930 . S
C677 C676 1.377 . S
C677 C678 1.379 . S
C678 H662 0.931 . S
C678 C672 1.383 . S
C678 C677 1.379 . S
H679 C673 0.959 . S
H680 C673 0.961 . S
H681 C673 0.960 . S
H682 C674 0.930 . S
H683 C675 0.929 . S
H684 C692 0.929 . S
H685 C694 0.930 . S
H686 C696 0.930 . S
H687 C699 0.929 . S
H688 C702 0.930 . S
H689 C704 0.960 . S
H690 C704 0.960 . S
H691 C704 0.960 . S
C692 H684 0.929 . S
C692 C693 1.377 . S
C692 C694 1.384 . S
C693 C692 1.377 . S
C693 C699 1.390 . S
C694 H685 0.930 . S
C694 C692 1.384 . S
C694 C695 1.372 . S
C695 C694 1.372 . S
C695 C696 1.400 . S
C695 C700 1.490 . S
C696 H686 0.930 . S
C696 C695 1.400 . S
C696 C699 1.386 . S
H697 C713 0.930 . S
H698 C714 0.931 . S
C699 H687 0.929 . S
C699 C693 1.390 . S
C699 C696 1.386 . S
C700 C695 1.490 . S
C700 C702 1.395 . S
C700 C703 1.403 . S
H701 C707 0.930 . S
C702 H688 0.930 . S
C702 C700 1.395 . S
C702 C705 1.403 . S
C703 C700 1.403 . S
C703 C704 1.524 . S
C703 C707 1.400 . S
C704 H689 0.960 . S
C704 H690 0.960 . S
C704 H691 0.960 . S
C704 C703 1.524 . S
C705 C702 1.403 . S
C705 C706 1.392 . S
C705 C709 1.495 . S
C706 C705 1.392 . S
C706 C707 1.385 . S
C706 C708 1.535 . S
C707 H701 0.930 . S
C707 C703 1.400 . S
C707 C706 1.385 . S
C708 C706 1.535 . S
C708 C710 1.350 1_554 S
C708 C714 1.357 1_554 S
C709 C705 1.495 . S
C709 H715 0.959 . S
C709 H716 0.961 1_455 S
C709 H717 0.960 . S
C710 C708 1.350 1_556 S
C710 C711 1.394 . S
C710 H718 0.930 . S
C711 C710 1.394 . S
C711 C712 1.383 . S
C711 H719 0.929 . S
C712 C711 1.383 . S
C712 C713 1.377 . S
C713 H697 0.930 . S
C713 C712 1.377 . S
C713 C714 1.379 . S
C714 H698 0.931 . S
C714 C708 1.357 1_556 S
C714 C713 1.379 . S
H715 C709 0.959 . S
H716 C709 0.961 1_655 S
H717 C709 0.960 . S
H718 C710 0.930 . S
H719 C711 0.929 . S
H720 C728 0.929 . S
H721 C730 0.930 . S
H722 C732 0.930 1_565 S
H723 C735 0.925 1_565 S
H724 C738 0.930 . S
H725 C740 0.960 . S
H726 C740 0.960 . S
H727 C740 0.960 . S
C728 H720 0.929 . S
C728 C729 1.377 . S
C728 C730 1.384 . S
C729 C728 1.377 . S
C729 C735 1.390 . S
C730 H721 0.930 . S
C730 C728 1.384 . S
C730 C731 1.372 . S
C731 C730 1.372 . S
C731 C732 1.400 . S
C731 C736 1.490 . S
C732 H722 0.930 1_545 S
C732 C731 1.400 . S
C732 C735 1.386 . S
H733 C749 0.930 1_565 S
H734 C750 0.931 . S
C735 H723 0.925 1_545 S
C735 C729 1.390 . S
C735 C732 1.386 . S
C736 C731 1.490 . S
C736 C738 1.395 . S
C736 C739 1.403 1_545 S
H737 C743 0.930 . S
C738 H724 0.930 . S
C738 C736 1.395 . S
C738 C741 1.403 . S
C739 C736 1.403 1_565 S
C739 C740 1.524 . S
C739 C743 1.400 . S
C740 H725 0.960 . S
C740 H726 0.960 . S
C740 H727 0.960 . S
C740 C739 1.524 . S
C741 C738 1.403 . S
C741 C742 1.392 . S
C741 C745 1.495 . S
C742 C741 1.392 . S
C742 C743 1.385 1_545 S
C742 C744 1.478 . S
C743 H737 0.930 . S
C743 C739 1.400 . S
C743 C742 1.385 1_565 S
C744 C742 1.478 . S
C744 C746 1.381 . S
C744 C750 1.383 . S
C745 C741 1.495 . S
C745 H751 0.959 . S
C745 H752 0.961 . S
C745 H753 0.960 . S
C746 C744 1.381 . S
C746 C747 1.394 . S
C746 H754 0.930 . S
C747 C746 1.394 . S
C747 C748 1.383 . S
C747 H755 0.929 . S
C748 C747 1.383 . S
C748 C749 1.377 . S
C749 H733 0.930 1_545 S
C749 C748 1.377 . S
C749 C750 1.379 . S
C750 H734 0.931 . S
C750 C744 1.383 . S
C750 C749 1.379 . S
H751 C745 0.959 . S
H752 C745 0.961 . S
H753 C745 0.960 . S
H754 C746 0.930 . S
H755 C747 0.929 . S
H756 C764 0.929 . S
H757 C766 0.930 . S
H758 C768 0.930 . S
H759 C771 0.929 . S
H760 C774 0.930 . S
H761 C776 0.960 . S
H762 C776 0.960 . S
H763 C776 0.960 . S
C764 H756 0.929 . S
C764 C765 1.377 . S
C764 C766 1.384 . S
C765 C764 1.377 . S
C765 C771 1.390 . S
C766 H757 0.930 . S
C766 C764 1.384 . S
C766 C767 1.372 . S
C767 C766 1.372 . S
C767 C768 1.400 . S
C767 C772 1.490 . S
C768 H758 0.930 . S
C768 C767 1.400 . S
C768 C771 1.386 . S
H769 C785 0.930 . S
H770 C786 0.931 . S
C771 H759 0.929 . S
C771 C765 1.390 . S
C771 C768 1.386 . S
C772 C767 1.490 . S
C772 C774 1.395 . S
C772 C775 1.403 . S
H773 C779 0.930 . S
C774 H760 0.930 . S
C774 C772 1.395 . S
C774 C777 1.403 . S
C775 C772 1.403 . S
C775 C776 1.524 . S
C775 C779 1.400 . S
C776 H761 0.960 . S
C776 H762 0.960 . S
C776 H763 0.960 . S
C776 C775 1.524 . S
C777 C774 1.403 . S
C777 C778 1.392 . S
C777 C781 1.495 . S
C778 C777 1.392 . S
C778 C779 1.385 . S
C778 C780 1.478 . S
C779 H773 0.930 . S
C779 C775 1.400 . S
C779 C778 1.385 . S
C780 C778 1.478 . S
C780 C782 1.381 . S
C780 C786 1.383 . S
C781 C777 1.495 . S
C781 H787 0.959 . S
C781 H788 0.961 . S
C781 H789 0.960 . S
C782 C780 1.381 . S
C782 C783 1.394 . S
C782 H790 0.930 . S
C783 C782 1.394 . S
C783 C784 1.383 . S
C783 H791 0.929 . S
C784 C783 1.383 . S
C784 C785 1.377 . S
C785 H769 0.930 . S
C785 C784 1.377 . S
C785 C786 1.379 . S
C786 H770 0.931 . S
C786 C780 1.383 . S
C786 C785 1.379 . S
H787 C781 0.959 . S
H788 C781 0.961 . S
H789 C781 0.960 . S
H790 C782 0.930 . S
H791 C783 0.929 . S
H792 C800 0.929 . S
H793 C802 0.930 . S
H794 C804 0.930 1_565 S
H795 C807 0.929 1_565 S
H796 C810 0.930 . S
H797 C812 0.960 . S
H798 C812 0.960 . S
H799 C812 0.960 . S
C800 H792 0.929 . S
C800 C801 1.377 . S
C800 C802 1.384 . S
C801 C800 1.377 . S
C801 C807 1.390 . S
C802 H793 0.930 . S
C802 C800 1.384 . S
C802 C803 1.372 . S
C803 C802 1.372 . S
C803 C804 1.400 . S
C803 C808 1.490 . S
C804 H794 0.930 1_545 S
C804 C803 1.400 . S
C804 C807 1.386 . S
H805 C821 0.925 1_565 S
H806 C822 0.931 1_565 S
C807 H795 0.929 1_545 S
C807 C801 1.390 . S
C807 C804 1.386 . S
C808 C803 1.490 . S
C808 C810 1.395 . S
C808 C811 1.403 . S
H809 C815 0.930 . S
C810 H796 0.930 . S
C810 C808 1.395 . S
C810 C813 1.403 . S
C811 C808 1.403 . S
C811 C812 1.524 . S
C811 C815 1.400 . S
C812 H797 0.960 . S
C812 H798 0.960 . S
C812 H799 0.960 . S
C812 C811 1.524 . S
C813 C810 1.403 . S
C813 C814 1.392 . S
C813 C817 1.495 . S
C814 C813 1.392 . S
C814 C815 1.385 . S
C814 C816 1.478 . S
C815 H809 0.930 . S
C815 C811 1.400 . S
C815 C814 1.385 . S
C816 C814 1.478 . S
C816 C818 1.381 . S
C816 C822 1.383 . S
C817 C813 1.495 . S
C817 H823 0.959 . S
C817 H824 0.961 . S
C817 H825 0.960 . S
C818 C816 1.381 . S
C818 C819 1.394 . S
C818 H826 0.930 . S
C819 C818 1.394 . S
C819 C820 1.383 . S
C819 H827 0.929 . S
C820 C819 1.383 . S
C820 C821 1.377 . S
C821 H805 0.925 1_545 S
C821 C820 1.377 . S
C821 C822 1.379 . S
C822 H806 0.931 1_545 S
C822 C816 1.383 . S
C822 C821 1.379 . S
H823 C817 0.959 . S
H824 C817 0.961 . S
H825 C817 0.960 . S
H826 C818 0.930 . S
H827 C819 0.929 . S
H828 C836 0.929 . S
H829 C838 0.930 . S
H830 C840 0.930 . S
H831 C843 0.929 . S
H832 C846 0.930 . S
H833 C848 0.960 . S
H834 C848 0.960 . S
H835 C848 0.960 . S
C836 H828 0.929 . S
C836 C837 1.377 . S
C836 C838 1.384 . S
C837 C836 1.377 . S
C837 C843 1.390 . S
C838 H829 0.930 . S
C838 C836 1.384 . S
C838 C839 1.372 . S
C839 C838 1.372 . S
C839 C840 1.400 . S
C839 C844 1.490 . S
C840 H830 0.930 . S
C840 C839 1.400 . S
C840 C843 1.386 . S
H841 C857 0.930 . S
H842 C858 0.931 . S
C843 H831 0.929 . S
C843 C837 1.390 . S
C843 C840 1.386 . S
C844 C839 1.490 . S
C844 C846 1.395 . S
C844 C847 1.403 . S
H845 C851 0.930 . S
C846 H832 0.930 . S
C846 C844 1.395 . S
C846 C849 1.403 . S
C847 C844 1.403 . S
C847 C848 1.524 . S
C847 C851 1.400 . S
C848 H833 0.960 . S
C848 H834 0.960 . S
C848 H835 0.960 . S
C848 C847 1.524 . S
C849 C846 1.403 . S
C849 C850 1.392 . S
C849 C853 1.495 . S
C850 C849 1.392 . S
C850 C851 1.385 . S
C850 C852 1.478 1_556 S
C851 H845 0.930 . S
C851 C847 1.400 . S
C851 C850 1.385 . S
C852 C850 1.478 1_554 S
C852 C854 1.381 . S
C852 C858 1.383 . S
C853 C849 1.495 . S
C853 H859 0.959 . S
C853 H860 0.961 . S
C853 H861 0.960 . S
C854 C852 1.381 . S
C854 C855 1.394 . S
C854 H862 0.930 . S
C855 C854 1.394 . S
C855 C856 1.383 . S
C855 H863 0.929 . S
C856 C855 1.383 . S
C856 C857 1.377 . S
C857 H841 0.930 . S
C857 C856 1.377 . S
C857 C858 1.379 . S
C858 H842 0.931 . S
C858 C852 1.383 . S
C858 C857 1.379 . S
H859 C853 0.959 . S
H860 C853 0.961 . S
H861 C853 0.960 . S
H862 C854 0.930 . S
H863 C855 0.929 . S
H864 C872 0.929 . S
H865 C874 0.930 . S
H866 C876 0.930 . S
H867 C879 0.929 . S
H868 C882 0.930 . S
H869 C884 0.960 . S
H870 C884 0.960 . S
H871 C884 0.960 . S
C872 H864 0.929 . S
C872 C873 1.377 . S
C872 C874 1.384 . S
C873 C872 1.377 . S
C873 C879 1.390 . S
C874 H865 0.930 . S
C874 C872 1.384 . S
C874 C875 1.372 . S
C875 C874 1.372 . S
C875 C876 1.400 . S
C875 C880 1.490 . S
C876 H866 0.930 . S
C876 C875 1.400 . S
C876 C879 1.386 . S
H877 C893 0.930 . S
H878 C894 0.931 . S
C879 H867 0.929 . S
C879 C873 1.390 . S
C879 C876 1.386 . S
C880 C875 1.490 . S
C880 C882 1.395 1_455 S
C880 C883 1.403 . S
H881 C887 0.930 . S
C882 H868 0.930 . S
C882 C880 1.395 1_655 S
C882 C885 1.403 . S
C883 C880 1.403 . S
C883 C884 1.524 . S
C883 C887 1.400 . S
C884 H869 0.960 . S
C884 H870 0.960 . S
C884 H871 0.960 . S
C884 C883 1.524 . S
C885 C882 1.403 . S
C885 C886 1.392 1_655 S
C885 C889 1.495 . S
C886 C885 1.392 1_455 S
C886 C887 1.385 . S
C886 C888 1.478 . S
C887 H881 0.930 . S
C887 C883 1.400 . S
C887 C886 1.385 . S
C888 C886 1.478 . S
C888 C890 1.381 . S
C888 C894 1.383 . S
C889 C885 1.495 . S
C889 H895 0.959 . S
C889 H896 0.961 . S
C889 H897 0.960 . S
C890 C888 1.381 . S
C890 C891 1.394 . S
C890 H898 0.936 . S
C891 C890 1.394 . S
C891 C892 1.383 . S
C891 H899 0.929 . S
C892 C891 1.383 . S
C892 C893 1.377 . S
C893 H877 0.930 . S
C893 C892 1.377 . S
C893 C894 1.379 . S
C894 H878 0.931 . S
C894 C888 1.383 . S
C894 C893 1.379 . S
H895 C889 0.959 . S
H896 C889 0.961 . S
H897 C889 0.960 . S
H898 C890 0.936 . S
H899 C891 0.929 . S
C261 C2 0.997 . S
C280 C243 0.997 . S
C297 C21 0.957 . S
C316 C179 0.928 . S
C333 C42 1.025 . S
C352 C211 0.982 . S
C369 C1 0.954 . S
C388 C237 0.936 . S
C424 C173 1.007 . S
C405 C22 0.999 . S
C460 C205 0.948 . S
C441 C41 0.932 . S
C477 C38 1.804 . S
C496 C115 1.752 . S
C513 C59 1.856 . S
C532 C147 1.802 . S
C549 C18 1.777 . S
C568 C77 1.740 . S
C604 C109 1.825 . S
C585 C39 1.862 . S
C640 C141 1.768 . S
C621 C58 1.805 . S
C657 C19 1.888 . S
C676 C83 1.849 . S
C712 C153 1.549 . S
C693 C9 1.508 . S
C729 C29 1.512 . S
C748 C89 1.539 . S
C765 C49 1.508 . S
C784 C121 1.541 . S
C820 C217 1.386 . S
C801 C28 1.372 . S
C856 C249 1.382 . S
C837 C48 1.363 . S
C873 C8 1.363 . S
C892 C185 1.365 . S
