# Generated by pormake.
# Topology nom, (4,4)-cn, num edge types: 1
# Building blocks:
#     Node 0, Type 0, BuildingBlock: AZAVOO_clean_linker_0, # of connection points: 4
#     Node 1, Type 0, BuildingBlock: AZAVOO_clean_linker_0, # of connection points: 4
#     Node 2, Type 0, BuildingBlock: AZAVOO_clean_linker_0, # of connection points: 4
#     Node 3, Type 0, BuildingBlock: AZAVOO_clean_linker_0, # of connection points: 4
#     Node 4, Type 0, BuildingBlock: AZAVOO_clean_linker_0, # of connection points: 4
#     Node 5, Type 0, BuildingBlock: AZAVOO_clean_linker_0, # of connection points: 4
#     Node 6, Type 1, BuildingBlock: CEKHIL_clean_sbu_0, # of connection points: 4
#     Node 7, Type 1, BuildingBlock: CEKHIL_clean_sbu_0, # of connection points: 4
#     Node 8, Type 1, BuildingBlock: CEKHIL_clean_sbu_0, # of connection points: 4
#     Node 9, Type 1, BuildingBlock: CEKHIL_clean_sbu_0, # of connection points: 4
#     Node 10, Type 1, BuildingBlock: CEKHIL_clean_sbu_0, # of connection points: 4
#     Node 11, Type 1, BuildingBlock: CEKHIL_clean_sbu_0, # of connection points: 4
#     Edge 12, Type (0, 1), BuildingBlock: EZIPEK_clean_linker_0, # of connection points: 2
#     Edge 13, Type (0, 1), BuildingBlock: EZIPEK_clean_linker_0, # of connection points: 2
#     Edge 14, Type (0, 1), BuildingBlock: EZIPEK_clean_linker_0, # of connection points: 2
#     Edge 15, Type (0, 1), BuildingBlock: EZIPEK_clean_linker_0, # of connection points: 2
#     Edge 16, Type (0, 1), BuildingBlock: EZIPEK_clean_linker_0, # of connection points: 2
#     Edge 17, Type (0, 1), BuildingBlock: EZIPEK_clean_linker_0, # of connection points: 2
#     Edge 18, Type (0, 1), BuildingBlock: EZIPEK_clean_linker_0, # of connection points: 2
#     Edge 19, Type (0, 1), BuildingBlock: EZIPEK_clean_linker_0, # of connection points: 2
#     Edge 20, Type (0, 1), BuildingBlock: EZIPEK_clean_linker_0, # of connection points: 2
#     Edge 21, Type (0, 1), BuildingBlock: EZIPEK_clean_linker_0, # of connection points: 2
#     Edge 22, Type (0, 1), BuildingBlock: EZIPEK_clean_linker_0, # of connection points: 2
#     Edge 23, Type (0, 1), BuildingBlock: EZIPEK_clean_linker_0, # of connection points: 2
#     Edge 24, Type (0, 1), BuildingBlock: EZIPEK_clean_linker_0, # of connection points: 2
#     Edge 25, Type (0, 1), BuildingBlock: EZIPEK_clean_linker_0, # of connection points: 2
#     Edge 26, Type (0, 1), BuildingBlock: EZIPEK_clean_linker_0, # of connection points: 2
#     Edge 27, Type (0, 1), BuildingBlock: EZIPEK_clean_linker_0, # of connection points: 2
#     Edge 28, Type (0, 1), BuildingBlock: EZIPEK_clean_linker_0, # of connection points: 2
#     Edge 29, Type (0, 1), BuildingBlock: EZIPEK_clean_linker_0, # of connection points: 2
#     Edge 30, Type (0, 1), BuildingBlock: EZIPEK_clean_linker_0, # of connection points: 2
#     Edge 31, Type (0, 1), BuildingBlock: EZIPEK_clean_linker_0, # of connection points: 2
#     Edge 32, Type (0, 1), BuildingBlock: EZIPEK_clean_linker_0, # of connection points: 2
#     Edge 33, Type (0, 1), BuildingBlock: EZIPEK_clean_linker_0, # of connection points: 2
#     Edge 34, Type (0, 1), BuildingBlock: EZIPEK_clean_linker_0, # of connection points: 2
#     Edge 35, Type (0, 1), BuildingBlock: EZIPEK_clean_linker_0, # of connection points: 2
# Relax obj value: 0.151
# Max RMSD: 0.228
# Mean RMSD: 0.145
data_MOF--net-nom--node1-CEKHIL_clean_sbu_0--node2-AZAVOO_clean_linker_0--edge1-EZIPEK_clean_linker_0
_symmetry_space_group_name_H-M    P1
_symmetry_Int_Tables_number       1
_symmetry_cell_setting            triclinic
loop_
_symmetry_equiv_pos_as_xyz
'x, y, z'
_cell_length_a     38.193361
_cell_length_b     38.207405
_cell_length_c     45.885203
_cell_angle_alpha  90.155963
_cell_angle_beta   89.993821
_cell_angle_gamma 123.80801
loop_
_atom_site_label
_atom_site_type_symbol
_atom_site_fract_x
_atom_site_fract_y
_atom_site_fract_z
_atom_type_partial_charge
H0 H 0.09414 0.59273 0.11084 0.0
H1 H 0.31143 0.75576 0.39447 0.0
H2 H 0.98035 0.51705 0.27345 0.0
H3 H 0.93252 0.48177 0.23209 0.0
H4 H 0.9441 0.59738 0.20985 0.0
H5 H 0.99319 0.63311 0.25093 0.0
H6 H 0.06142 0.55819 0.2355 0.0
H7 H 0.07293 0.5609 0.18283 0.0
H8 H 0.09619 0.68535 0.18047 0.0
H9 H 0.08473 0.68218 0.2332 0.0
H10 H 0.14324 0.59848 0.26877 0.0
H11 H 0.21696 0.63318 0.25303 0.0
H12 H 0.23357 0.7542 0.25962 0.0
H13 H 0.15976 0.71945 0.27506 0.0
H14 H 0.13702 0.59134 0.33531 0.0
H15 H 0.2042 0.62027 0.3606 0.0
H16 H 0.22408 0.74331 0.36074 0.0
H17 H 0.15589 0.71347 0.3366 0.0
H18 H 0.06134 0.55059 0.35836 0.0
H19 H 0.08869 0.55435 0.40728 0.0
H20 H 0.08667 0.66383 0.42608 0.0
H21 H 0.06238 0.66197 0.37602 0.0
H22 H 0.97155 0.52871 0.34682 0.0
H23 H 0.90193 0.50725 0.36594 0.0
H24 H 0.91954 0.62109 0.33191 0.0
H25 H 0.98879 0.64247 0.3129 0.0
O26 O 0.08962 0.59228 0.13163 0.0
O27 O 0.10206 0.65648 0.13167 0.0
O28 O 0.27283 0.67951 0.38402 0.0
O29 O 0.28459 0.74343 0.38467 0.0
C30 C 0.02845 0.60058 0.28376 0.0
C31 C 0.06816 0.61933 0.27015 0.0
C32 C 0.10475 0.63659 0.28713 0.0
C33 C 0.10187 0.63312 0.31768 0.0
C34 C 0.06218 0.61367 0.33158 0.0
C35 C 0.02556 0.59942 0.31461 0.0
C36 C 0.99016 0.57758 0.26521 0.0
C37 C 0.97137 0.53442 0.26036 0.0
C38 C 0.94435 0.5144 0.23666 0.0
C39 C 0.93541 0.53718 0.21766 0.0
C40 C 0.95089 0.57939 0.22419 0.0
C41 C 0.97857 0.59965 0.24767 0.0
C42 C 0.07186 0.61982 0.23797 0.0
C43 C 0.06862 0.58581 0.22347 0.0
C44 C 0.07548 0.58758 0.19344 0.0
C45 C 0.08568 0.62344 0.17744 0.0
C46 C 0.08849 0.65732 0.19213 0.0
C47 C 0.08173 0.65552 0.22218 0.0
C48 C 0.14648 0.6566 0.27302 0.0
C49 C 0.16251 0.63236 0.26601 0.0
C50 C 0.20431 0.65204 0.25706 0.0
C51 C 0.23032 0.69608 0.25517 0.0
C52 C 0.21366 0.72014 0.26079 0.0
C53 C 0.17181 0.70044 0.26958 0.0
C54 C 0.14116 0.6501 0.33486 0.0
C55 C 0.15551 0.62431 0.34144 0.0
C56 C 0.19407 0.64102 0.35561 0.0
C57 C 0.21944 0.68409 0.36284 0.0
C58 C 0.20525 0.70999 0.35564 0.0
C59 C 0.16622 0.69301 0.34205 0.0
C60 C 0.06031 0.60627 0.36349 0.0
C61 C 0.06518 0.57446 0.37335 0.0
C62 C 0.08103 0.57673 0.40122 0.0
C63 C 0.09068 0.60995 0.42006 0.0
C64 C 0.07982 0.63819 0.41173 0.0
C65 C 0.06562 0.63695 0.38328 0.0
C66 C 0.98519 0.58714 0.32849 0.0
C67 C 0.96064 0.54926 0.3439 0.0
C68 C 0.92106 0.53706 0.35473 0.0
C69 C 0.90575 0.56266 0.35028 0.0
C70 C 0.93088 0.60103 0.33558 0.0
C71 C 0.97023 0.61311 0.32474 0.0
C72 C 0.09302 0.62525 0.14556 0.0
C73 C 0.26052 0.70203 0.37779 0.0
H74 H 0.60486 0.12236 0.29793 0.0
H75 H 0.56713 0.27293 0.58691 0.0
H76 H 0.57674 0.00912 0.44406 0.0
H77 H 0.56997 0.96766 0.40089 0.0
H78 H 0.43781 0.91941 0.39545 0.0
H79 H 0.44472 0.96136 0.43857 0.0
H80 H 0.60444 0.0886 0.42225 0.0
H81 H 0.61681 0.10607 0.37036 0.0
H82 H 0.48843 0.07109 0.36118 0.0
H83 H 0.4765 0.05346 0.4131 0.0
H84 H 0.62073 0.15885 0.45682 0.0
H85 H 0.64464 0.23083 0.44222 0.0
H86 H 0.5163 0.19646 0.44477 0.0
H87 H 0.49243 0.12448 0.45932 0.0
H88 H 0.61569 0.15004 0.51983 0.0
H89 H 0.63799 0.21483 0.54657 0.0
H90 H 0.50849 0.17761 0.55032 0.0
H91 H 0.48691 0.11375 0.52262 0.0
H92 H 0.57587 0.03718 0.54428 0.0
H93 H 0.60014 0.06172 0.59428 0.0
H94 H 0.50251 0.08478 0.60505 0.0
H95 H 0.47565 0.05619 0.55621 0.0
H96 H 0.53055 0.955 0.4935 0.0
H97 H 0.48393 0.88008 0.50658 0.0
H98 H 0.39087 0.90158 0.53765 0.0
H99 H 0.43648 0.97578 0.52366 0.0
O100 O 0.59925 0.11514 0.31837 0.0
O101 O 0.53319 0.09737 0.31489 0.0
O102 O 0.62525 0.26531 0.57364 0.0
O103 O 0.55919 0.24775 0.57611 0.0
C104 C 0.51832 0.02168 0.46488 0.0
C105 C 0.5331 0.06179 0.45305 0.0
C106 C 0.54107 0.09497 0.47132 0.0
C107 C 0.53684 0.0893 0.50167 0.0
C108 C 0.52242 0.04938 0.51396 0.0
C109 C 0.51111 0.01476 0.49538 0.0
C110 C 0.51114 0.98799 0.44455 0.0
C111 C 0.54597 0.98836 0.43425 0.0
C112 C 0.54217 0.96486 0.40963 0.0
C113 C 0.50341 0.94052 0.3951 0.0
C114 C 0.46785 0.93774 0.40661 0.0
C115 C 0.47173 0.96148 0.43119 0.0
C116 C 0.53948 0.06935 0.42122 0.0
C117 C 0.57895 0.08432 0.40888 0.0
C118 C 0.58597 0.09451 0.3793 0.0
C119 C 0.55366 0.09015 0.36163 0.0
C120 C 0.51402 0.07493 0.37417 0.0
C121 C 0.50702 0.0646 0.40374 0.0
C122 C 0.55488 0.13658 0.45891 0.0
C123 C 0.59775 0.1667 0.4537 0.0
C124 C 0.61134 0.20761 0.44559 0.0
C125 C 0.58216 0.21874 0.44263 0.0
C126 C 0.53915 0.18829 0.44704 0.0
C127 C 0.52558 0.14739 0.45514 0.0
C128 C 0.54954 0.12654 0.52024 0.0
C129 C 0.59215 0.15572 0.52678 0.0
C130 C 0.6048 0.19277 0.54193 0.0
C131 C 0.57492 0.20106 0.55104 0.0
C132 C 0.53225 0.17194 0.54404 0.0
C133 C 0.51977 0.13526 0.52845 0.0
C134 C 0.52493 0.04642 0.54618 0.0
C135 C 0.55809 0.04507 0.55799 0.0
C136 C 0.57216 0.05939 0.58645 0.0
C137 C 0.55417 0.07668 0.60284 0.0
C138 C 0.51743 0.07249 0.5925 0.0
C139 C 0.50221 0.0563 0.56459 0.0
C140 C 0.48685 0.97103 0.50722 0.0
C141 C 0.50022 0.94368 0.50323 0.0
C142 C 0.47378 0.90102 0.51085 0.0
C143 C 0.4339 0.88529 0.52299 0.0
C144 C 0.42152 0.91309 0.52834 0.0
C145 C 0.44766 0.95546 0.52047 0.0
C146 C 0.56126 0.10109 0.33024 0.0
C147 C 0.58814 0.24001 0.56758 0.0
H148 H 0.43187 0.38974 0.83608 0.0
H149 H 0.53494 0.29695 0.5408 0.0
H150 H 0.46635 0.51487 0.68589 0.0
H151 H 0.44946 0.53982 0.72923 0.0
H152 H 0.32039 0.433 0.72457 0.0
H153 H 0.33788 0.40713 0.68127 0.0
H154 H 0.47802 0.46089 0.71883 0.0
H155 H 0.46901 0.44241 0.77053 0.0
H156 H 0.35546 0.32154 0.75007 0.0
H157 H 0.36475 0.34065 0.69839 0.0
H158 H 0.51775 0.4287 0.68941 0.0
H159 H 0.54906 0.39175 0.70779 0.0
H160 H 0.44468 0.27492 0.67247 0.0
H161 H 0.41344 0.31218 0.65378 0.0
H162 H 0.5395 0.43892 0.62872 0.0
H163 H 0.57577 0.40966 0.60586 0.0
H164 H 0.45907 0.31337 0.56465 0.0
H165 H 0.42268 0.34148 0.58907 0.0
H166 H 0.51472 0.51083 0.6006 0.0
H167 H 0.55717 0.52727 0.55625 0.0
H168 H 0.45808 0.41002 0.51787 0.0
H169 H 0.41489 0.39464 0.56159 0.0
H170 H 0.45958 0.5343 0.6342 0.0
H171 H 0.42655 0.57137 0.61916 0.0
H172 H 0.32202 0.45596 0.58257 0.0
H173 H 0.3546 0.41872 0.59812 0.0
O174 O 0.43464 0.39652 0.81555 0.0
O175 O 0.37692 0.33448 0.80383 0.0
O176 O 0.57992 0.3578 0.57319 0.0
O177 O 0.52115 0.30864 0.55054 0.0
C178 C 0.41757 0.43891 0.66082 0.0
C179 C 0.4286 0.41258 0.67348 0.0
C180 C 0.44748 0.39683 0.65647 0.0
C181 C 0.45592 0.4077 0.62679 0.0
C182 C 0.44529 0.43442 0.61394 0.0
C183 C 0.42509 0.44935 0.63084 0.0
C184 C 0.4033 0.45938 0.68041 0.0
C185 C 0.43404 0.49766 0.69346 0.0
C186 C 0.42448 0.51163 0.71833 0.0
C187 C 0.38395 0.48768 0.7304 0.0
C188 C 0.35196 0.45152 0.71569 0.0
C189 C 0.36179 0.43704 0.69094 0.0
C190 C 0.42173 0.40228 0.705 0.0
C191 C 0.45095 0.43066 0.72563 0.0
C192 C 0.44589 0.41989 0.75511 0.0
C193 C 0.41161 0.38041 0.76443 0.0
C194 C 0.38225 0.35216 0.74362 0.0
C195 C 0.38735 0.36302 0.71414 0.0
C196 C 0.46324 0.37303 0.67044 0.0
C197 C 0.50123 0.395 0.68609 0.0
C198 C 0.51915 0.37403 0.6964 0.0
C199 C 0.49926 0.33073 0.69131 0.0
C200 C 0.46047 0.30837 0.67651 0.0
C201 C 0.44266 0.32949 0.66598 0.0
C202 C 0.47867 0.39289 0.61002 0.0
C203 C 0.5219 0.41167 0.6146 0.0
C204 C 0.54247 0.39474 0.60164 0.0
C205 C 0.52041 0.35943 0.58315 0.0
C206 C 0.4771 0.34085 0.57851 0.0
C207 C 0.45632 0.35712 0.59214 0.0
C208 C 0.46188 0.45129 0.58443 0.0
C209 C 0.50123 0.48977 0.58204 0.0
C210 C 0.52564 0.49892 0.55692 0.0
C211 C 0.51125 0.46915 0.53429 0.0
C212 C 0.46998 0.43301 0.53535 0.0
C213 C 0.44522 0.42438 0.56017 0.0
C214 C 0.40948 0.4737 0.61736 0.0
C215 C 0.42982 0.51709 0.62264 0.0
C216 C 0.41098 0.53821 0.61411 0.0
C217 C 0.3717 0.51633 0.59993 0.0
C218 C 0.35228 0.47338 0.59351 0.0
C219 C 0.37098 0.45224 0.60222 0.0
C220 C 0.40656 0.36891 0.79574 0.0
C221 C 0.54241 0.34201 0.56875 0.0
H222 H 0.11732 0.62746 0.00552 0.0
H223 H 0.28667 0.62345 0.7213 0.0
H224 H 0.98722 0.57674 0.86288 0.0
H225 H 0.94136 0.55257 0.90602 0.0
H226 H 0.92588 0.43206 0.90013 0.0
H227 H 0.97138 0.45609 0.8569 0.0
H228 H 0.08419 0.62969 0.88125 0.0
H229 H 0.10082 0.64076 0.93338 0.0
H230 H 0.06846 0.51314 0.94035 0.0
H231 H 0.05152 0.50243 0.8883 0.0
H232 H 0.1612 0.65899 0.83534 0.0
H233 H 0.23467 0.68523 0.84829 0.0
H234 H 0.19649 0.55826 0.86775 0.0
H235 H 0.12374 0.53223 0.85477 0.0
H236 H 0.13796 0.64667 0.77426 0.0
H237 H 0.20258 0.6745 0.74593 0.0
H238 H 0.19506 0.55868 0.76033 0.0
H239 H 0.1297 0.53076 0.78772 0.0
H240 H 0.06275 0.60379 0.74785 0.0
H241 H 0.09137 0.60896 0.69927 0.0
H242 H 0.05954 0.48192 0.70653 0.0
H243 H 0.03523 0.47858 0.7567 0.0
H244 H 0.95564 0.54652 0.79435 0.0
H245 H 0.8814 0.49587 0.7804 0.0
H246 H 0.90228 0.39598 0.77917 0.0
H247 H 0.9762 0.44642 0.79311 0.0
O248 O 0.11023 0.62231 0.98501 0.0
O249 O 0.09359 0.55659 0.98736 0.0
O250 O 0.26117 0.67036 0.72284 0.0
O251 O 0.26076 0.61298 0.73191 0.0
C252 C 0.01914 0.53638 0.83682 0.0
C253 C 0.05995 0.55986 0.84915 0.0
C254 C 0.09548 0.57626 0.83119 0.0
C255 C 0.09075 0.57038 0.80083 0.0
C256 C 0.05008 0.54661 0.78821 0.0
C257 C 0.01408 0.52882 0.80634 0.0
C258 C 0.98242 0.51807 0.85671 0.0
C259 C 0.97249 0.54455 0.87017 0.0
C260 C 0.94657 0.53089 0.89478 0.0
C261 C 0.93073 0.49075 0.90633 0.0
C262 C 0.93789 0.46312 0.89149 0.0
C263 C 0.96356 0.4767 0.86676 0.0
C264 C 0.06611 0.56512 0.88119 0.0
C265 C 0.08018 0.60403 0.89421 0.0
C266 C 0.08992 0.61033 0.92391 0.0
C267 C 0.08613 0.57789 0.94102 0.0
C268 C 0.07183 0.53881 0.92781 0.0
C269 C 0.06175 0.53247 0.89817 0.0
C270 C 0.13746 0.59382 0.84425 0.0
C271 C 0.16867 0.63716 0.84319 0.0
C272 C 0.21028 0.65203 0.8505 0.0
C273 C 0.22054 0.62347 0.8588 0.0
C274 C 0.18883 0.58056 0.86143 0.0
C275 C 0.1475 0.5658 0.85419 0.0
C276 C 0.12893 0.58652 0.78258 0.0
C277 C 0.15004 0.62718 0.77086 0.0
C278 C 0.18699 0.64302 0.75482 0.0
C279 C 0.20388 0.61871 0.75075 0.0
C280 C 0.1828 0.57813 0.7629 0.0
C281 C 0.14544 0.56205 0.77848 0.0
C282 C 0.0472 0.541 0.75604 0.0
C283 C 0.06053 0.57646 0.73868 0.0
C284 C 0.07742 0.5796 0.71109 0.0
C285 C 0.07943 0.54654 0.69983 0.0
C286 C 0.05973 0.50839 0.71526 0.0
C287 C 0.04486 0.50607 0.74363 0.0
C288 C 0.97134 0.50017 0.79419 0.0
C289 C 0.94436 0.51389 0.79042 0.0
C290 C 0.90219 0.48512 0.78261 0.0
C291 C 0.88669 0.44239 0.77873 0.0
C292 C 0.91392 0.42891 0.78191 0.0
C293 C 0.956 0.45764 0.78962 0.0
C294 C 0.09686 0.58479 0.97251 0.0
C295 C 0.24363 0.63571 0.7343 0.0
H296 H 0.60023 0.97496 0.77775 0.0
H297 H 0.59744 0.77471 0.06478 0.0
H298 H 0.59523 0.04707 0.93831 0.0
H299 H 0.59678 0.09281 0.90013 0.0
H300 H 0.72999 0.14944 0.8887 0.0
H301 H 0.72823 0.10304 0.92667 0.0
H302 H 0.58266 0.98038 0.904 0.0
H303 H 0.57766 0.97422 0.85084 0.0
H304 H 0.70641 0.00897 0.84708 0.0
H305 H 0.71087 0.01495 0.90034 0.0
H306 H 0.56688 0.90857 0.93121 0.0
H307 H 0.5433 0.83828 0.91338 0.0
H308 H 0.66786 0.86546 0.92738 0.0
H309 H 0.69162 0.93638 0.94532 0.0
H310 H 0.56014 0.90501 0.99667 0.0
H311 H 0.53362 0.83774 0.02097 0.0
H312 H 0.66167 0.87331 0.03362 0.0
H313 H 0.68765 0.94002 0.00858 0.0
H314 H 0.58751 0.00328 0.0273 0.0
H315 H 0.56434 0.98189 0.07771 0.0
H316 H 0.67229 0.97626 0.09389 0.0
H317 H 0.69622 0.9989 0.0435 0.0
H318 H 0.61833 0.07752 0.99386 0.0
H319 H 0.64919 0.14917 0.01324 0.0
H320 H 0.76844 0.16309 0.02473 0.0
H321 H 0.73766 0.09161 0.00546 0.0
O322 O 0.6028 0.97728 0.79876 0.0
O323 O 0.66866 0.99405 0.79804 0.0
O324 O 0.54189 0.78417 0.04771 0.0
O325 O 0.60709 0.8009 0.05484 0.0
C326 C 0.65794 0.03743 0.95266 0.0
C327 C 0.64968 0.00103 0.93814 0.0
C328 C 0.64246 0.96645 0.95435 0.0
C329 C 0.64121 0.96708 0.98504 0.0
C330 C 0.65026 0.00377 0.99972 0.0
C331 C 0.65993 0.03937 0.98341 0.0
C332 C 0.66166 0.07196 0.93527 0.0
C333 C 0.62502 0.07034 0.92827 0.0
C334 C 0.62586 0.09625 0.9065 0.0
C335 C 0.66344 0.12427 0.89165 0.0
C336 C 0.70078 0.12807 0.9001 0.0
C337 C 0.69984 0.10181 0.92172 0.0
C338 C 0.64721 0.99838 0.90587 0.0
C339 C 0.60977 0.98682 0.8916 0.0
C340 C 0.60697 0.98316 0.86127 0.0
C341 C 0.64163 0.99104 0.8447 0.0
C342 C 0.67913 0.00264 0.85918 0.0
C343 C 0.68183 0.00619 0.88955 0.0
C344 C 0.63085 0.92726 0.93935 0.0
C345 C 0.58936 0.8998 0.92969 0.0
C346 C 0.57597 0.85988 0.91967 0.0
C347 C 0.60392 0.84704 0.91932 0.0
C348 C 0.6461 0.8752 0.92756 0.0
C349 C 0.65953 0.91533 0.93769 0.0
C350 C 0.62578 0.92753 0.00133 0.0
C351 C 0.58237 0.89824 0.00486 0.0
C352 C 0.56733 0.8598 0.01862 0.0
C353 C 0.59556 0.85027 0.02944 0.0
C354 C 0.6391 0.87978 0.02575 0.0
C355 C 0.65406 0.91798 0.01162 0.0
C356 C 0.64333 0.00227 0.03167 0.0
C357 C 0.60718 0.99923 0.04201 0.0
C358 C 0.59392 0.98696 0.0707 0.0
C359 C 0.61658 0.97742 0.08936 0.0
C360 C 0.65462 0.98377 0.0798 0.0
C361 C 0.6681 0.99647 0.0511 0.0
C362 C 0.67596 0.07978 0.99823 0.0
C363 C 0.6509 0.09587 0.00096 0.0
C364 C 0.66836 0.13642 0.01199 0.0
C365 C 0.71093 0.16098 0.02023 0.0
C366 C 0.73551 0.14429 0.01846 0.0
C367 C 0.71802 0.10376 0.00758 0.0
C368 C 0.63867 0.98754 0.81244 0.0
C369 C 0.57974 0.80976 0.04451 0.0
H370 H 0.45635 0.36117 0.9779 0.0
H371 H 0.66339 0.43434 0.27089 0.0
H372 H 0.4359 0.47563 0.1066 0.0
H373 H 0.40958 0.48749 0.06129 0.0
H374 H 0.53116 0.60251 0.04721 0.0
H375 H 0.55734 0.59084 0.09255 0.0
H376 H 0.46108 0.40961 0.09963 0.0
H377 H 0.44856 0.37804 0.05106 0.0
H378 H 0.55663 0.4947 0.01843 0.0
H379 H 0.56832 0.52603 0.06701 0.0
H380 H 0.51564 0.39297 0.14771 0.0
H381 H 0.55423 0.35987 0.13637 0.0
H382 H 0.64946 0.47299 0.09197 0.0
H383 H 0.61144 0.50576 0.10323 0.0
H384 H 0.50775 0.43927 0.20956 0.0
H385 H 0.53226 0.41293 0.24761 0.0
H386 H 0.65573 0.47962 0.20802 0.0
H387 H 0.63052 0.50466 0.16962 0.0
H388 H 0.50511 0.5316 0.21778 0.0
H389 H 0.52545 0.53757 0.26921 0.0
H390 H 0.64615 0.5634 0.24263 0.0
H391 H 0.62939 0.56741 0.19227 0.0
H392 H 0.46089 0.54015 0.16023 0.0
H393 H 0.45771 0.60013 0.17547 0.0
H394 H 0.59347 0.68043 0.1761 0.0
H395 H 0.5967 0.62066 0.16053 0.0
O396 O 0.46171 0.37434 0.99688 0.0
O397 O 0.51774 0.4349 0.98126 0.0
O398 O 0.58851 0.40966 0.2751 0.0
O399 O 0.65238 0.44263 0.25532 0.0
C400 C 0.51732 0.51931 0.12467 0.0
C401 C 0.52455 0.48809 0.11663 0.0
C402 C 0.54311 0.47521 0.13657 0.0
C403 C 0.5527 0.49181 0.16497 0.0
C404 C 0.54892 0.52564 0.17239 0.0
C405 C 0.53125 0.53954 0.15213 0.0
C406 C 0.49845 0.53249 0.10281 0.0
C407 C 0.45631 0.5042 0.0943 0.0
C408 C 0.44143 0.51074 0.06847 0.0
C409 C 0.46875 0.54546 0.05088 0.0
C410 C 0.50983 0.57544 0.06056 0.0
C411 C 0.52462 0.56903 0.08646 0.0
C412 C 0.51519 0.47022 0.08667 0.0
C413 C 0.48165 0.4284 0.08185 0.0
C414 C 0.47475 0.41041 0.05414 0.0
C415 C 0.50163 0.43383 0.03086 0.0
C416 C 0.53535 0.47578 0.03587 0.0
C417 C 0.54188 0.49387 0.06351 0.0
C418 C 0.56079 0.45157 0.12609 0.0
C419 C 0.54428 0.41004 0.13495 0.0
C420 C 0.56618 0.39135 0.12861 0.0
C421 C 0.60463 0.41438 0.11359 0.0
C422 C 0.61984 0.455 0.10362 0.0
C423 C 0.59808 0.47349 0.10984 0.0
C424 C 0.56735 0.474 0.18693 0.0
C425 C 0.53996 0.44781 0.209 0.0
C426 C 0.55411 0.43302 0.23078 0.0
C427 C 0.59615 0.44476 0.23113 0.0
C428 C 0.62325 0.47022 0.20854 0.0
C429 C 0.60887 0.4844 0.18649 0.0
C430 C 0.56498 0.54635 0.20129 0.0
C431 C 0.53701 0.5416 0.22318 0.0
C432 C 0.54844 0.54427 0.25253 0.0
C433 C 0.58587 0.54723 0.25977 0.0
C434 C 0.6163 0.5593 0.2379 0.0
C435 C 0.60657 0.56119 0.20897 0.0
C436 C 0.52901 0.57608 0.15936 0.0
C437 C 0.4899 0.57079 0.16327 0.0
C438 C 0.4881 0.60483 0.172 0.0
C439 C 0.52538 0.6445 0.17687 0.0
C440 C 0.56446 0.65001 0.17237 0.0
C441 C 0.56625 0.61602 0.16358 0.0
C442 C 0.49434 0.41455 0.00148 0.0
C443 C 0.61191 0.43111 0.25517 0.0
Co444 Co 0.66578 0.45735 0.40057 0.0
O445 O 0.70586 0.46054 0.37346 0.0
O446 O 0.72028 0.51035 0.40534 0.0
C447 C 0.64138 0.39086 0.4148 0.0
O448 O 0.63227 0.46389 0.4322 0.0
Co449 Co 0.57062 0.39024 0.39008 0.0
O450 O 0.5636 0.41138 0.42772 0.0
C451 C 0.61476 0.46738 0.35481 0.0
C452 C 0.73365 0.4965 0.38513 0.0
C453 C 0.59361 0.44403 0.44064 0.0
O454 O 0.64671 0.48367 0.37201 0.0
O455 O 0.58542 0.42804 0.3554 0.0
O456 O 0.67516 0.42266 0.42654 0.0
O457 O 0.6255 0.39989 0.39369 0.0
Co458 Co 0.26107 0.63975 0.5596 0.0
O459 O 0.29936 0.63653 0.5856 0.0
O460 O 0.25893 0.58838 0.55266 0.0
C461 C 0.30822 0.70818 0.54637 0.0
O462 O 0.21921 0.63121 0.52775 0.0
Co463 Co 0.23292 0.70042 0.56954 0.0
O464 O 0.19936 0.67628 0.53342 0.0
C465 C 0.19448 0.62334 0.60463 0.0
C466 C 0.28769 0.60135 0.57268 0.0
C467 C 0.19776 0.64631 0.51991 0.0
O468 O 0.21378 0.61054 0.58941 0.0
O469 O 0.20049 0.65955 0.6016 0.0
O470 O 0.30835 0.67772 0.53388 0.0
O471 O 0.28181 0.69709 0.56757 0.0
Co472 Co 0.64735 0.25491 0.74304 0.0
O473 O 0.63567 0.28565 0.71599 0.0
O474 O 0.59142 0.24226 0.74983 0.0
C475 C 0.7127 0.31024 0.75485 0.0
O476 O 0.6484 0.21919 0.77565 0.0
Co477 Co 0.72027 0.24296 0.73317 0.0
O478 O 0.70988 0.22423 0.77431 0.0
C479 C 0.64196 0.19277 0.69875 0.0
C480 C 0.59938 0.26839 0.72876 0.0
C481 C 0.6754 0.21298 0.78685 0.0
O482 O 0.62413 0.20654 0.71445 0.0
O483 O 0.6808 0.2058 0.70127 0.0
O484 O 0.67978 0.30526 0.76752 0.0
O485 O 0.70511 0.28362 0.73437 0.0
Co486 Co 0.42141 0.61928 0.88819 0.0
O487 O 0.40544 0.6477 0.86223 0.0
O488 O 0.36568 0.6037 0.89765 0.0
C489 C 0.48561 0.67672 0.8976 0.0
O490 O 0.42598 0.58624 0.92089 0.0
Co491 Co 0.49516 0.60974 0.8777 0.0
O492 O 0.48906 0.595 0.91958 0.0
C493 C 0.41887 0.56349 0.84113 0.0
C494 C 0.37034 0.62881 0.87679 0.0
C495 C 0.4551 0.58404 0.93275 0.0
O496 O 0.39881 0.57155 0.85945 0.0
O497 O 0.45816 0.57831 0.84329 0.0
O498 O 0.45284 0.66984 0.91165 0.0
O499 O 0.47872 0.64969 0.87758 0.0
Co500 Co 0.79189 0.39504 0.06722 0.0
O501 O 0.74694 0.36998 0.09532 0.0
O502 O 0.76054 0.42038 0.06397 0.0
C503 C 0.7792 0.33338 0.05131 0.0
O504 O 0.83263 0.4271 0.03381 0.0
Co505 Co 0.86716 0.38703 0.07054 0.0
O506 O 0.87912 0.40894 0.03016 0.0
C507 C 0.86084 0.4417 0.11238 0.0
C508 C 0.73699 0.3947 0.08456 0.0
C509 C 0.86168 0.42665 0.02006 0.0
O510 O 0.83063 0.43809 0.09728 0.0
O511 O 0.87803 0.4218 0.10652 0.0
O512 O 0.75814 0.34797 0.04102 0.0
O513 O 0.80592 0.35515 0.0719 0.0
Co514 Co 0.47975 0.81392 0.23184 0.0
O515 O 0.47336 0.77417 0.2029 0.0
O516 O 0.51922 0.7984 0.23943 0.0
C517 C 0.41013 0.78092 0.23991 0.0
O518 O 0.49438 0.85297 0.26693 0.0
Co519 Co 0.44293 0.86767 0.22375 0.0
O520 O 0.45334 0.878 0.26618 0.0
C521 C 0.51735 0.88709 0.18992 0.0
C522 C 0.50254 0.77366 0.21692 0.0
C523 C 0.47899 0.87193 0.27917 0.0
O524 O 0.52143 0.86194 0.20594 0.0
O525 O 0.48662 0.89151 0.19212 0.0
O526 O 0.43151 0.76849 0.25303 0.0
O527 O 0.43071 0.81122 0.22146 0.0
C528 C 0.30286 0.73105 0.27575 0.0
C529 C 0.27622 0.71731 0.25095 0.0
C530 C 0.33687 0.7412 0.21913 0.0
C531 C 0.36402 0.75905 0.24373 0.0
N532 N 0.37329 0.77722 0.29481 0.0
N533 N 0.26747 0.71366 0.19883 0.0
C534 C 0.34713 0.75554 0.27191 0.0
C535 C 0.29312 0.72372 0.22253 0.0
N536 N 0.2858 0.71986 0.30303 0.0
N537 N 0.35244 0.7389 0.19287 0.0
H538 H 0.23508 0.69982 0.20062 0.0
H539 H 0.2787 0.72192 0.17759 0.0
H540 H 0.38398 0.74992 0.18963 0.0
H541 H 0.33345 0.72242 0.17499 0.0
H542 H 0.30352 0.72468 0.32166 0.0
H543 H 0.25343 0.70239 0.30675 0.0
H544 H 0.36273 0.77978 0.31513 0.0
H545 H 0.40584 0.79608 0.2927 0.0
C546 C 0.59959 0.28992 0.45786 0.0
C547 C 0.59685 0.26272 0.43552 0.0
C548 C 0.62673 0.32057 0.40041 0.0
C549 C 0.62586 0.34674 0.42205 0.0
N550 N 0.60538 0.35473 0.47001 0.0
N551 N 0.60109 0.24956 0.38465 0.0
C552 C 0.6107 0.33102 0.45046 0.0
C553 C 0.60845 0.27729 0.40651 0.0
N554 N 0.59266 0.27684 0.48624 0.0
N555 N 0.64686 0.33746 0.37451 0.0
H556 H 0.58815 0.21766 0.38833 0.0
H557 H 0.60448 0.25734 0.36264 0.0
H558 H 0.66155 0.36921 0.36933 0.0
H559 H 0.65251 0.32096 0.35924 0.0
H560 H 0.59858 0.29668 0.50384 0.0
H561 H 0.58413 0.24683 0.49246 0.0
H562 H 0.59027 0.3434 0.48998 0.0
H563 H 0.61281 0.38474 0.46515 0.0
C564 C 0.32153 0.53711 0.61329 0.0
C565 C 0.34997 0.53794 0.59286 0.0
C566 C 0.33505 0.57742 0.5584 0.0
C567 C 0.30815 0.57841 0.57938 0.0
N568 N 0.27705 0.56148 0.62719 0.0
N569 N 0.38746 0.56193 0.54741 0.0
C570 C 0.30186 0.55895 0.60698 0.0
C571 C 0.35761 0.55883 0.56575 0.0
N572 N 0.31263 0.5145 0.63845 0.0
N573 N 0.33893 0.5942 0.53135 0.0
H574 H 0.40361 0.5477 0.5517 0.0
H575 H 0.39834 0.58058 0.52883 0.0
H576 H 0.32532 0.61049 0.52569 0.0
H577 H 0.35376 0.59026 0.51386 0.0
H578 H 0.28909 0.50859 0.65302 0.0
H579 H 0.32745 0.4994 0.64425 0.0
H580 H 0.27486 0.55277 0.64891 0.0
H581 H 0.25947 0.57399 0.62244 0.0
C582 C 0.81434 0.3871 0.79636 0.0
C583 C 0.8413 0.41099 0.77292 0.0
C584 C 0.78199 0.37379 0.73885 0.0
C585 C 0.75634 0.34616 0.76161 0.0
N586 N 0.74951 0.32328 0.81147 0.0
N587 N 0.85268 0.42487 0.72142 0.0
C588 C 0.77275 0.35216 0.79032 0.0
C589 C 0.82564 0.4038 0.74402 0.0
N590 N 0.82839 0.39814 0.82445 0.0
N591 N 0.76427 0.37261 0.71266 0.0
H592 H 0.88466 0.4479 0.72445 0.0
H593 H 0.84411 0.41742 0.69961 0.0
H594 H 0.73216 0.35209 0.70832 0.0
H595 H 0.78046 0.39473 0.69627 0.0
H596 H 0.80887 0.3849 0.84256 0.0
H597 H 0.8589 0.42316 0.82971 0.0
H598 H 0.76145 0.32315 0.83184 0.0
H599 H 0.71919 0.29719 0.80779 0.0
C600 C 0.57225 0.77309 0.9355 0.0
C601 C 0.58683 0.80263 0.9125 0.0
C602 C 0.54289 0.7469 0.87746 0.0
C603 C 0.5265 0.71745 0.90077 0.0
N604 N 0.53554 0.69972 0.94919 0.0
N605 N 0.59745 0.81729 0.86128 0.0
C606 C 0.54471 0.7297 0.9289 0.0
C607 C 0.57627 0.78916 0.88327 0.0
N608 N 0.58248 0.78663 0.96372 0.0
N609 N 0.52447 0.73573 0.8505 0.0
H610 H 0.62181 0.84857 0.86537 0.0
H611 H 0.59383 0.80875 0.83937 0.0
H612 H 0.4998 0.70533 0.84497 0.0
H613 H 0.53184 0.75737 0.83395 0.0
H614 H 0.56835 0.76691 0.98163 0.0
H615 H 0.60363 0.81818 0.96934 0.0
H616 H 0.55027 0.70637 0.96945 0.0
H617 H 0.51639 0.66773 0.94435 0.0
C618 C 0.66323 0.40898 0.13036 0.0
C619 C 0.63141 0.39815 0.10944 0.0
C620 C 0.66388 0.37495 0.07549 0.0
C621 C 0.69918 0.39247 0.09439 0.0
N622 N 0.73424 0.42769 0.1392 0.0
N623 N 0.59997 0.37055 0.06242 0.0
C624 C 0.6991 0.40924 0.12194 0.0
C625 C 0.63095 0.38041 0.08221 0.0
N626 N 0.65922 0.41956 0.15806 0.0
N627 N 0.66173 0.35269 0.05139 0.0
H628 H 0.57427 0.37222 0.06737 0.0
H629 H 0.60057 0.3625 0.04082 0.0
H630 H 0.68543 0.34813 0.04591 0.0
H631 H 0.63514 0.3358 0.03819 0.0
H632 H 0.6794 0.42429 0.17511 0.0
H633 H 0.63327 0.41987 0.16468 0.0
H634 H 0.73797 0.44456 0.1581 0.0
H635 H 0.76124 0.42876 0.13352 0.0
C636 C 0.40909 0.81888 0.55173 0.0
C637 C 0.40341 0.83924 0.52813 0.0
C638 C 0.33409 0.7749 0.5181 0.0
C639 C 0.34103 0.75334 0.54006 0.0
N640 N 0.38784 0.7529 0.57509 0.0
N641 N 0.36495 0.83387 0.4848 0.0
C642 C 0.37944 0.77478 0.55604 0.0
C643 C 0.36722 0.81636 0.51008 0.0
N644 N 0.44185 0.84197 0.57068 0.0
N645 N 0.29524 0.75647 0.5057 0.0
H646 H 0.38886 0.86397 0.47793 0.0
H647 H 0.34137 0.81709 0.46926 0.0
H648 H 0.27016 0.72679 0.51183 0.0
H649 H 0.28688 0.77211 0.49171 0.0
H650 H 0.44513 0.83003 0.5901 0.0
H651 H 0.4642 0.87417 0.56812 0.0
H652 H 0.41707 0.76557 0.58499 0.0
H653 H 0.36651 0.72094 0.57938 0.0
C654 C 0.52447 0.30496 0.73109 0.0
C655 C 0.52019 0.30952 0.7009 0.0
C656 C 0.55921 0.27749 0.68969 0.0
C657 C 0.56909 0.27913 0.7197 0.0
N658 N 0.56628 0.30083 0.76877 0.0
N659 N 0.53838 0.30548 0.65114 0.0
C660 C 0.55276 0.29414 0.74047 0.0
C661 C 0.53866 0.29701 0.68004 0.0
N662 N 0.5012 0.31065 0.7508 0.0
N663 N 0.56841 0.25628 0.67048 0.0
H664 H 0.52391 0.31993 0.6431 0.0
H665 H 0.55557 0.30145 0.63545 0.0
H666 H 0.58218 0.24039 0.6769 0.0
H667 H 0.55839 0.25069 0.64885 0.0
H668 H 0.49982 0.30364 0.77287 0.0
H669 H 0.48007 0.31846 0.74464 0.0
H670 H 0.55891 0.3161 0.78395 0.0
H671 H 0.58813 0.29493 0.77654 0.0
C672 C 0.28379 0.64663 0.88972 0.0
C673 C 0.2647 0.63666 0.86187 0.0
C674 C 0.3177 0.62603 0.84264 0.0
C675 C 0.33695 0.6359 0.87053 0.0
N676 N 0.34579 0.66672 0.91818 0.0
N677 N 0.26975 0.62947 0.8102 0.0
C678 C 0.32236 0.64982 0.89335 0.0
C679 C 0.28407 0.63091 0.83773 0.0
N680 N 0.26419 0.6514 0.91282 0.0
N681 N 0.32917 0.6089 0.8216 0.0
H682 H 0.24513 0.63314 0.8061 0.0
H683 H 0.28499 0.62911 0.7915 0.0
H684 H 0.35239 0.60297 0.82478 0.0
H685 H 0.31303 0.59689 0.80197 0.0
H686 H 0.27382 0.65359 0.93436 0.0
H687 H 0.23682 0.65106 0.91048 0.0
H688 H 0.33865 0.68076 0.93451 0.0
H689 H 0.37473 0.67036 0.9212 0.0
C690 C 0.7299 0.21571 0.05832 0.0
C691 C 0.73069 0.20537 0.02879 0.0
C692 C 0.77116 0.2799 0.01566 0.0
C693 C 0.76606 0.28992 0.04443 0.0
N694 N 0.73572 0.26703 0.09249 0.0
N695 N 0.74771 0.22617 0.97845 0.0
C696 C 0.74446 0.25781 0.06573 0.0
C697 C 0.75016 0.23708 0.00717 0.0
N698 N 0.71555 0.18532 0.07927 0.0
N699 N 0.79729 0.31141 0.99678 0.0
H700 H 0.73357 0.19513 0.97138 0.0
H701 H 0.7569 0.2475 0.9614 0.0
H702 H 0.81416 0.34299 0.0028 0.0
H703 H 0.80559 0.30628 0.97637 0.0
H704 H 0.71859 0.19181 0.10153 0.0
H705 H 0.7035 0.15385 0.07447 0.0
H706 H 0.71577 0.24415 0.10755 0.0
H707 H 0.74565 0.29736 0.09898 0.0
C708 C 0.53159 0.71284 0.16892 0.0
C709 C 0.52339 0.67987 0.18793 0.0
C710 C 0.50406 0.70996 0.22695 0.0
C711 C 0.514 0.74391 0.20833 0.0
N712 N 0.54675 0.78325 0.16451 0.0
N713 N 0.51125 0.6519 0.23666 0.0
C714 C 0.53065 0.74702 0.18013 0.0
C715 C 0.5126 0.67999 0.2175 0.0
N716 N 0.53884 0.71077 0.13999 0.0
N717 N 0.4844 0.70498 0.25299 0.0
H718 H 0.5172 0.62938 0.2305 0.0
H719 H 0.50798 0.65334 0.25908 0.0
H720 H 0.47759 0.72617 0.26086 0.0
H721 H 0.47186 0.67812 0.26581 0.0
H722 H 0.54046 0.73148 0.12448 0.0
H723 H 0.54003 0.68633 0.13102 0.0
H724 H 0.56267 0.78904 0.14484 0.0
H725 H 0.54802 0.80938 0.1728 0.0
C726 C 0.8532 0.5495 0.38918 0.0
C727 C 0.8623 0.54823 0.3594 0.0
C728 C 0.78936 0.52218 0.34651 0.0
C729 C 0.77883 0.51837 0.3766 0.0
N730 N 0.79993 0.52104 0.42677 0.0
N731 N 0.83786 0.52753 0.30993 0.0
C732 C 0.81058 0.53043 0.39807 0.0
C733 C 0.83007 0.5331 0.33809 0.0
N734 N 0.88536 0.56933 0.40897 0.0
N735 N 0.76075 0.51634 0.32587 0.0
H736 H 0.86722 0.53508 0.30281 0.0
H737 H 0.81437 0.51201 0.29418 0.0
H738 H 0.73058 0.5083 0.33098 0.0
H739 H 0.76816 0.52329 0.3039 0.0
H740 H 0.88114 0.57533 0.4304 0.0
H741 H 0.91687 0.58312 0.40329 0.0
H742 H 0.82118 0.52486 0.44275 0.0
H743 H 0.76913 0.50555 0.43442 0.0
C744 C 0.1009 0.59086 0.47076 0.0
C745 C 0.11757 0.61811 0.44623 0.0
C746 C 0.18861 0.65315 0.46714 0.0
C747 C 0.17146 0.63031 0.49313 0.0
N748 N 0.11262 0.57484 0.51977 0.0
N749 N 0.17698 0.67951 0.4232 0.0
C750 C 0.12788 0.59816 0.4949 0.0
C751 C 0.16132 0.65049 0.44505 0.0
N752 N 0.0594 0.55819 0.47087 0.0
N753 N 0.2312 0.67586 0.463 0.0
H754 H 0.15897 0.67816 0.40573 0.0
H755 H 0.20718 0.707 0.42377 0.0
H756 H 0.25142 0.67523 0.47795 0.0
H757 H 0.2457 0.69064 0.44345 0.0
H758 H 0.04583 0.53471 0.48661 0.0
H759 H 0.03842 0.55369 0.45441 0.0
H760 H 0.08076 0.55416 0.52444 0.0
H761 H 0.13263 0.57656 0.53601 0.0
C762 C 0.61233 0.14691 0.62266 0.0
C763 C 0.57723 0.10518 0.62808 0.0
C764 C 0.58483 0.12033 0.6807 0.0
C765 C 0.61762 0.1628 0.67477 0.0
N766 N 0.6559 0.21884 0.63998 0.0
N767 N 0.52706 0.05296 0.66178 0.0
C768 C 0.62949 0.17671 0.64571 0.0
C769 C 0.56247 0.09215 0.65701 0.0
N770 N 0.63003 0.15818 0.59557 0.0
N771 N 0.57617 0.10663 0.7089 0.0
H772 H 0.51144 0.03081 0.64516 0.0
H773 H 0.51182 0.04316 0.68182 0.0
H774 H 0.59157 0.12655 0.72666 0.0
H775 H 0.55587 0.07514 0.7147 0.0
H776 H 0.65881 0.18629 0.59144 0.0
H777 H 0.6181 0.13826 0.57758 0.0
H778 H 0.6617 0.23132 0.61903 0.0
H779 H 0.6687 0.24185 0.65627 0.0
C780 C 0.37649 0.47756 0.7848 0.0
C781 C 0.37749 0.49984 0.75967 0.0
C782 C 0.39634 0.56089 0.78964 0.0
C783 C 0.39704 0.53933 0.81453 0.0
N784 N 0.37664 0.47434 0.83773 0.0
N785 N 0.37466 0.55602 0.73925 0.0
C786 C 0.383 0.49649 0.81273 0.0
C787 C 0.38245 0.53922 0.76261 0.0
N788 N 0.37239 0.43985 0.78189 0.0
N789 N 0.41169 0.6028 0.79138 0.0
H790 H 0.36439 0.54032 0.71925 0.0
H791 H 0.37432 0.58305 0.74051 0.0
H792 H 0.42211 0.61978 0.81086 0.0
H793 H 0.41649 0.62134 0.77328 0.0
H794 H 0.3765 0.4247 0.79903 0.0
H795 H 0.367 0.4245 0.76199 0.0
H796 H 0.36283 0.44195 0.83816 0.0
H797 H 0.38168 0.48794 0.85837 0.0
C798 C 0.86724 0.4509 0.9388 0.0
C799 C 0.91141 0.47938 0.93583 0.0
C800 C 0.91976 0.48189 0.98897 0.0
C801 C 0.87681 0.44857 0.99162 0.0
N802 N 0.80855 0.40136 0.96952 0.0
N803 N 0.98057 0.52115 0.95764 0.0
C804 C 0.85 0.43349 0.96671 0.0
C805 C 0.93787 0.49507 0.96083 0.0
N806 N 0.8419 0.44101 0.91493 0.0
N807 N 0.94292 0.50162 0.0135 0.0
H808 H 0.9951 0.53272 0.93753 0.0
H809 H 0.00181 0.52918 0.97465 0.0
H810 H 0.93023 0.49311 0.03444 0.0
H811 H 0.97322 0.52891 0.01313 0.0
H812 H 0.80916 0.42369 0.91585 0.0
H813 H 0.85381 0.45307 0.89424 0.0
H814 H 0.78871 0.38511 0.95196 0.0
H815 H 0.79412 0.3894 0.9896 0.0
C816 C 0.60335 0.9758 0.14321 0.0
C817 C 0.59631 0.95381 0.11663 0.0
C818 C 0.54314 0.88697 0.13994 0.0
C819 C 0.54753 0.90954 0.16584 0.0
N820 N 0.58067 0.97442 0.19302 0.0
N821 N 0.56142 0.8892 0.08894 0.0
C822 C 0.57763 0.9537 0.16781 0.0
C823 C 0.56713 0.90943 0.11494 0.0
N824 N 0.63487 0.01767 0.14479 0.0
N825 N 0.51534 0.84411 0.13921 0.0
H826 H 0.57984 0.90437 0.07065 0.0
H827 H 0.53797 0.85782 0.08482 0.0
H828 H 0.49519 0.82689 0.15639 0.0
H829 H 0.51311 0.82481 0.12231 0.0
H830 H 0.64432 0.03533 0.1639 0.0
H831 H 0.65372 0.03454 0.12696 0.0
H832 H 0.59865 0.007 0.19533 0.0
H833 H 0.56375 0.95878 0.21179 0.0
C834 C 0.63117 0.5547 0.30255 0.0
C835 C 0.59135 0.53201 0.28838 0.0
C836 C 0.56626 0.4797 0.32692 0.0
C837 C 0.60828 0.49463 0.33501 0.0
N838 N 0.68294 0.54953 0.3284 0.0
N839 N 0.5224 0.46542 0.28547 0.0
C840 C 0.64158 0.53338 0.32257 0.0
C841 C 0.55897 0.49257 0.30017 0.0
N842 N 0.65877 0.59667 0.29722 0.0
N843 N 0.53314 0.45394 0.34486 0.0
H844 H 0.51654 0.46994 0.26418 0.0
H845 H 0.5001 0.43529 0.29325 0.0
H846 H 0.53722 0.44687 0.366 0.0
H847 H 0.50241 0.44469 0.34006 0.0
H848 H 0.68682 0.61543 0.30879 0.0
H849 H 0.65113 0.61339 0.28366 0.0
H850 H 0.70742 0.57483 0.31683 0.0
H851 H 0.6934 0.53665 0.343 0.0
C852 C 0.50929 0.94909 0.34087 0.0
C853 C 0.50163 0.92347 0.36555 0.0
C854 C 0.48634 0.86486 0.33355 0.0
C855 C 0.49325 0.89048 0.30885 0.0
N856 N 0.52437 0.96009 0.28919 0.0
N857 N 0.49129 0.86057 0.38618 0.0
C858 C 0.50875 0.93361 0.31264 0.0
C859 C 0.4929 0.88244 0.36211 0.0
N860 N 0.51584 0.98785 0.34434 0.0
N861 N 0.47197 0.82344 0.32983 0.0
H862 H 0.49478 0.87219 0.40733 0.0
H863 H 0.48948 0.83239 0.38526 0.0
H864 H 0.46959 0.81004 0.30955 0.0
H865 H 0.46077 0.8017 0.34673 0.0
H866 H 0.51617 0.00565 0.32707 0.0
H867 H 0.51793 0.00102 0.36471 0.0
H868 H 0.53994 0.99266 0.29087 0.0
H869 H 0.52586 0.94994 0.26836 0.0
C870 C 0.5707 0.46359 0.51701 0.0
C871 C 0.54024 0.47301 0.51087 0.0
C872 C 0.55384 0.47427 0.45857 0.0
C873 C 0.58171 0.46157 0.46468 0.0
N874 N 0.62649 0.4568 0.49905 0.0
N875 N 0.51015 0.49738 0.47723 0.0
C876 C 0.59353 0.46059 0.49373 0.0
C877 C 0.53421 0.48163 0.48199 0.0
N878 N 0.57616 0.45523 0.54495 0.0
N879 N 0.54605 0.47884 0.43022 0.0
H880 H 0.49601 0.50349 0.49417 0.0
H881 H 0.50649 0.50729 0.45705 0.0
H882 H 0.56326 0.47794 0.41292 0.0
H883 H 0.52255 0.48301 0.42365 0.0
H884 H 0.59359 0.44287 0.5505 0.0
H885 H 0.56143 0.45862 0.56275 0.0
H886 H 0.63945 0.45995 0.51961 0.0
H887 H 0.6438 0.4545 0.48253 0.0
C888 C 0.09107 0.56274 0.64636 0.0
C889 C 0.10435 0.55408 0.67266 0.0
C890 C 0.17522 0.58464 0.65233 0.0
C891 C 0.16252 0.59494 0.62653 0.0
N892 N 0.10714 0.58773 0.59642 0.0
N893 N 0.15491 0.54534 0.6974 0.0
C894 C 0.11989 0.58181 0.62272 0.0
C895 C 0.14496 0.56097 0.67446 0.0
N896 N 0.05115 0.55384 0.64453 0.0
N897 N 0.2169 0.60035 0.6567 0.0
H898 H 0.1345 0.52902 0.71457 0.0
H899 H 0.18202 0.54513 0.69819 0.0
H900 H 0.24026 0.61912 0.64151 0.0
H901 H 0.22908 0.59764 0.67618 0.0
H902 H 0.04055 0.5639 0.62772 0.0
H903 H 0.0285 0.5369 0.66059 0.0
H904 H 0.07591 0.57533 0.5909 0.0
H905 H 0.12785 0.60327 0.57918 0.0
C906 C 0.66148 0.12784 0.83722 0.0
C907 C 0.66239 0.14533 0.86481 0.0
C908 C 0.66101 0.20201 0.84094 0.0
C909 C 0.66446 0.18693 0.8135 0.0
N910 N 0.65591 0.13004 0.78457 0.0
N911 N 0.66558 0.19976 0.89369 0.0
C912 C 0.66129 0.14822 0.81139 0.0
C913 C 0.66232 0.18236 0.8669 0.0
N914 N 0.66205 0.09238 0.83581 0.0
N915 N 0.65514 0.23415 0.84213 0.0
H916 H 0.66612 0.18591 0.9131 0.0
H917 H 0.67065 0.22923 0.89678 0.0
H918 H 0.65244 0.2481 0.82357 0.0
H919 H 0.64875 0.24436 0.86121 0.0
H920 H 0.6667 0.08071 0.81676 0.0
H921 H 0.65984 0.07527 0.85416 0.0
H922 H 0.6496 0.10012 0.78123 0.0
H923 H 0.654 0.14349 0.76537 0.0
C924 C 0.44603 0.57879 0.01563 0.0
C925 C 0.45612 0.549 0.02109 0.0
C926 C 0.45191 0.53359 0.96884 0.0
C927 C 0.44941 0.56853 0.96309 0.0
N928 N 0.44444 0.62534 0.98097 0.0
N929 N 0.46895 0.49756 0.00349 0.0
C930 C 0.44573 0.59095 0.98645 0.0
C931 C 0.45856 0.5258 0.99788 0.0
N932 N 0.43645 0.59514 0.03844 0.0
N933 N 0.44691 0.50735 0.94654 0.0
H934 H 0.47205 0.48952 0.02454 0.0
H935 H 0.47668 0.48378 0.98735 0.0
H936 H 0.44108 0.51186 0.92511 0.0
H937 H 0.44438 0.47904 0.94959 0.0
H938 H 0.42459 0.61375 0.03589 0.0
H939 H 0.43669 0.58684 0.06006 0.0
H940 H 0.44772 0.64627 0.99703 0.0
H941 H 0.4427 0.63477 0.96012 0.0
C942 C 0.93697 0.5301 0.16307 0.0
C943 C 0.91362 0.51752 0.18953 0.0
C944 C 0.85362 0.45677 0.16458 0.0
C945 C 0.87669 0.46997 0.13811 0.0
N946 N 0.93563 0.52393 0.11037 0.0
N947 N 0.84689 0.47528 0.21399 0.0
C948 C 0.91686 0.50829 0.1368 0.0
C949 C 0.87091 0.48289 0.18975 0.0
N950 N 0.97902 0.56119 0.16326 0.0
N951 N 0.81627 0.41828 0.1661 0.0
H952 H 0.85877 0.4941 0.23265 0.0
H953 H 0.8145 0.453 0.21464 0.0
H954 H 0.80252 0.39837 0.14811 0.0
H955 H 0.8003 0.40482 0.18552 0.0
H956 H 0.99865 0.56805 0.14541 0.0
H957 H 0.99519 0.57815 0.18187 0.0
H958 H 0.96295 0.55385 0.10764 0.0
H959 H 0.92167 0.5085 0.09075 0.0
loop_
_geom_bond_atom_site_label_1
_geom_bond_atom_site_label_2
_geom_bond_distance
_geom_bond_site_symmetry_2
_ccdc_geom_bond_type
H0 O26 0.856 . S
H1 O29 0.854 . S
H2 C37 0.930 1_455 S
H3 C38 0.930 . S
H4 C40 0.930 . S
H5 C41 0.930 . S
H6 C43 0.931 . S
H7 C44 0.930 . S
H8 C46 0.930 . S
H9 C47 0.929 . S
H10 C49 0.930 . S
H11 C50 0.931 . S
H12 C52 0.930 . S
H13 C53 0.929 . S
H14 C55 0.931 . S
H15 C56 0.930 . S
H16 C58 0.930 . S
H17 C59 0.932 . S
H18 C61 0.930 . S
H19 C62 0.929 . S
H20 C64 0.931 . S
H21 C65 0.930 . S
H22 C67 0.929 . S
H23 C68 0.931 . S
H24 C70 0.930 . S
H25 C71 0.929 1_455 S
O26 H0 0.856 . S
O26 C72 1.300 . S
O27 C72 1.209 . S
O28 C73 1.199 . S
O29 H1 0.854 . S
O29 C73 1.297 . S
C30 C31 1.404 . S
C30 C35 1.397 . S
C30 C36 1.492 . S
C31 C30 1.404 . S
C31 C32 1.396 . S
C31 C42 1.492 . S
C32 C31 1.396 . S
C32 C33 1.397 . S
C32 C48 1.509 . S
C33 C32 1.397 . S
C33 C34 1.412 . S
C33 C54 1.485 . S
C34 C33 1.412 . S
C34 C35 1.388 . S
C34 C60 1.490 . S
C35 C30 1.397 . S
C35 C34 1.388 . S
C35 C66 1.519 1_455 S
C36 C30 1.492 . S
C36 C37 1.363 1_455 S
C36 C41 1.390 1_455 S
C37 H2 0.930 1_655 S
C37 C36 1.363 1_655 S
C37 C38 1.372 . S
C38 H3 0.930 . S
C38 C37 1.372 . S
C38 C39 1.383 . S
C39 C38 1.383 . S
C39 C40 1.395 . S
C40 H4 0.930 . S
C40 C39 1.395 . S
C40 C41 1.362 . S
C41 H5 0.930 . S
C41 C36 1.390 1_655 S
C41 C40 1.362 . S
C42 C31 1.492 . S
C42 C43 1.377 . S
C42 C47 1.397 . S
C43 H6 0.931 . S
C43 C42 1.377 . S
C43 C44 1.376 . S
C44 H7 0.930 . S
C44 C43 1.376 . S
C44 C45 1.376 . S
C45 C44 1.376 . S
C45 C46 1.378 . S
C45 C72 1.486 . S
C46 H8 0.930 . S
C46 C45 1.378 . S
C46 C47 1.376 . S
C47 H9 0.929 . S
C47 C42 1.397 . S
C47 C46 1.376 . S
C48 C32 1.509 . S
C48 C49 1.391 . S
C48 C53 1.386 . S
C49 H10 0.930 . S
C49 C48 1.391 . S
C49 C50 1.375 . S
C50 H11 0.931 . S
C50 C49 1.375 . S
C50 C51 1.375 . S
C51 C50 1.375 . S
C51 C52 1.361 . S
C52 H12 0.930 . S
C52 C51 1.361 . S
C52 C53 1.399 . S
C53 H13 0.929 . S
C53 C48 1.386 . S
C53 C52 1.399 . S
C54 C33 1.485 . S
C54 C55 1.394 . S
C54 C59 1.360 . S
C55 H14 0.931 . S
C55 C54 1.394 . S
C55 C56 1.372 . S
C56 H15 0.930 . S
C56 C55 1.372 . S
C56 C57 1.397 . S
C57 C56 1.397 . S
C57 C58 1.390 . S
C57 C73 1.476 . S
C58 H16 0.930 . S
C58 C57 1.390 . S
C58 C59 1.366 . S
C59 H17 0.932 . S
C59 C54 1.360 . S
C59 C58 1.366 . S
C60 C34 1.490 . S
C60 C61 1.380 . S
C60 C65 1.386 . S
C61 H18 0.930 . S
C61 C60 1.380 . S
C61 C62 1.381 . S
C62 H19 0.929 . S
C62 C61 1.381 . S
C62 C63 1.371 . S
C63 C62 1.371 . S
C63 C64 1.380 . S
C64 H20 0.931 . S
C64 C63 1.380 . S
C64 C65 1.387 . S
C65 H21 0.930 . S
C65 C60 1.386 . S
C65 C64 1.387 . S
C66 C35 1.519 1_655 S
C66 C67 1.377 . S
C66 C71 1.361 . S
C67 H22 0.929 . S
C67 C66 1.377 . S
C67 C68 1.386 . S
C68 H23 0.931 . S
C68 C67 1.386 . S
C68 C69 1.363 . S
C69 C68 1.363 . S
C69 C70 1.385 . S
C70 H24 0.930 . S
C70 C69 1.385 . S
C70 C71 1.396 . S
C71 H25 0.929 1_655 S
C71 C66 1.361 . S
C71 C70 1.396 . S
C72 O26 1.300 . S
C72 O27 1.209 . S
C72 C45 1.486 . S
C73 O28 1.199 . S
C73 O29 1.297 . S
C73 C57 1.476 . S
H74 O100 0.856 . S
H75 O103 0.854 . S
H76 C111 0.930 . S
H77 C112 0.930 . S
H78 C114 0.930 . S
H79 C115 0.930 . S
H80 C117 0.931 . S
H81 C118 0.930 . S
H82 C120 0.930 . S
H83 C121 0.929 . S
H84 C123 0.930 . S
H85 C124 0.931 . S
H86 C126 0.930 . S
H87 C127 0.929 . S
H88 C129 0.931 . S
H89 C130 0.930 . S
H90 C132 0.930 . S
H91 C133 0.932 . S
H92 C135 0.930 . S
H93 C136 0.929 . S
H94 C138 0.931 . S
H95 C139 0.930 . S
H96 C141 0.929 . S
H97 C142 0.931 . S
H98 C144 0.930 . S
H99 C145 0.929 1_545 S
O100 H74 0.856 . S
O100 C146 1.300 . S
O101 C146 1.209 . S
O102 C147 1.199 . S
O103 H75 0.854 . S
O103 C147 1.297 . S
C104 C105 1.404 . S
C104 C109 1.397 . S
C104 C110 1.492 . S
C105 C104 1.404 . S
C105 C106 1.396 . S
C105 C116 1.492 . S
C106 C105 1.396 . S
C106 C107 1.397 . S
C106 C122 1.509 . S
C107 C106 1.397 . S
C107 C108 1.412 . S
C107 C128 1.485 . S
C108 C107 1.412 . S
C108 C109 1.388 . S
C108 C134 1.490 . S
C109 C104 1.397 . S
C109 C108 1.388 . S
C109 C140 1.519 . S
C110 C104 1.492 . S
C110 C111 1.363 . S
C110 C115 1.390 1_545 S
C111 H76 0.930 . S
C111 C110 1.363 . S
C111 C112 1.372 1_545 S
C112 H77 0.930 . S
C112 C111 1.372 1_565 S
C112 C113 1.383 . S
C113 C112 1.383 . S
C113 C114 1.395 . S
C114 H78 0.930 . S
C114 C113 1.395 . S
C114 C115 1.362 . S
C115 H79 0.930 . S
C115 C110 1.390 1_565 S
C115 C114 1.362 . S
C116 C105 1.492 . S
C116 C117 1.377 . S
C116 C121 1.397 . S
C117 H80 0.931 . S
C117 C116 1.377 . S
C117 C118 1.376 . S
C118 H81 0.930 . S
C118 C117 1.376 . S
C118 C119 1.376 . S
C119 C118 1.376 . S
C119 C120 1.378 . S
C119 C146 1.486 . S
C120 H82 0.930 . S
C120 C119 1.378 . S
C120 C121 1.376 . S
C121 H83 0.929 . S
C121 C116 1.397 . S
C121 C120 1.376 . S
C122 C106 1.509 . S
C122 C123 1.391 . S
C122 C127 1.386 . S
C123 H84 0.930 . S
C123 C122 1.391 . S
C123 C124 1.375 . S
C124 H85 0.931 . S
C124 C123 1.375 . S
C124 C125 1.375 . S
C125 C124 1.375 . S
C125 C126 1.361 . S
C126 H86 0.930 . S
C126 C125 1.361 . S
C126 C127 1.399 . S
C127 H87 0.929 . S
C127 C122 1.386 . S
C127 C126 1.399 . S
C128 C107 1.485 . S
C128 C129 1.394 . S
C128 C133 1.360 . S
C129 H88 0.931 . S
C129 C128 1.394 . S
C129 C130 1.372 . S
C130 H89 0.930 . S
C130 C129 1.372 . S
C130 C131 1.397 . S
C131 C130 1.397 . S
C131 C132 1.390 . S
C131 C147 1.476 . S
C132 H90 0.930 . S
C132 C131 1.390 . S
C132 C133 1.366 . S
C133 H91 0.932 . S
C133 C128 1.360 . S
C133 C132 1.366 . S
C134 C108 1.490 . S
C134 C135 1.380 . S
C134 C139 1.386 . S
C135 H92 0.930 . S
C135 C134 1.380 . S
C135 C136 1.381 . S
C136 H93 0.929 . S
C136 C135 1.381 . S
C136 C137 1.371 . S
C137 C136 1.371 . S
C137 C138 1.380 . S
C138 H94 0.931 . S
C138 C137 1.380 . S
C138 C139 1.387 . S
C139 H95 0.930 . S
C139 C134 1.386 . S
C139 C138 1.387 . S
C140 C109 1.519 . S
C140 C141 1.377 1_545 S
C140 C145 1.361 1_545 S
C141 H96 0.929 . S
C141 C140 1.377 1_565 S
C141 C142 1.386 . S
C142 H97 0.931 . S
C142 C141 1.386 . S
C142 C143 1.363 . S
C143 C142 1.363 . S
C143 C144 1.385 . S
C144 H98 0.930 . S
C144 C143 1.385 . S
C144 C145 1.396 . S
C145 H99 0.929 1_565 S
C145 C140 1.361 1_565 S
C145 C144 1.396 . S
C146 O100 1.300 . S
C146 O101 1.209 . S
C146 C119 1.486 . S
C147 O102 1.199 . S
C147 O103 1.297 . S
C147 C131 1.476 . S
H148 O174 0.856 . S
H149 O177 0.854 . S
H150 C185 0.930 . S
H151 C186 0.930 . S
H152 C188 0.930 . S
H153 C189 0.930 . S
H154 C191 0.931 . S
H155 C192 0.930 . S
H156 C194 0.930 . S
H157 C195 0.929 . S
H158 C197 0.930 . S
H159 C198 0.931 . S
H160 C200 0.930 . S
H161 C201 0.929 . S
H162 C203 0.931 . S
H163 C204 0.930 . S
H164 C206 0.930 . S
H165 C207 0.932 . S
H166 C209 0.930 . S
H167 C210 0.929 . S
H168 C212 0.931 . S
H169 C213 0.930 . S
H170 C215 0.929 . S
H171 C216 0.931 . S
H172 C218 0.930 . S
H173 C219 0.929 . S
O174 H148 0.856 . S
O174 C220 1.300 . S
O175 C220 1.209 . S
O176 C221 1.199 . S
O177 H149 0.854 . S
O177 C221 1.297 . S
C178 C179 1.404 . S
C178 C183 1.397 . S
C178 C184 1.492 . S
C179 C178 1.404 . S
C179 C180 1.396 . S
C179 C190 1.492 . S
C180 C179 1.396 . S
C180 C181 1.397 . S
C180 C196 1.509 . S
C181 C180 1.397 . S
C181 C182 1.412 . S
C181 C202 1.485 . S
C182 C181 1.412 . S
C182 C183 1.388 . S
C182 C208 1.490 . S
C183 C178 1.397 . S
C183 C182 1.388 . S
C183 C214 1.519 . S
C184 C178 1.492 . S
C184 C185 1.363 . S
C184 C189 1.390 . S
C185 H150 0.930 . S
C185 C184 1.363 . S
C185 C186 1.372 . S
C186 H151 0.930 . S
C186 C185 1.372 . S
C186 C187 1.383 . S
C187 C186 1.383 . S
C187 C188 1.395 . S
C188 H152 0.930 . S
C188 C187 1.395 . S
C188 C189 1.362 . S
C189 H153 0.930 . S
C189 C184 1.390 . S
C189 C188 1.362 . S
C190 C179 1.492 . S
C190 C191 1.377 . S
C190 C195 1.397 . S
C191 H154 0.931 . S
C191 C190 1.377 . S
C191 C192 1.376 . S
C192 H155 0.930 . S
C192 C191 1.376 . S
C192 C193 1.376 . S
C193 C192 1.376 . S
C193 C194 1.378 . S
C193 C220 1.486 . S
C194 H156 0.930 . S
C194 C193 1.378 . S
C194 C195 1.376 . S
C195 H157 0.929 . S
C195 C190 1.397 . S
C195 C194 1.376 . S
C196 C180 1.509 . S
C196 C197 1.391 . S
C196 C201 1.386 . S
C197 H158 0.930 . S
C197 C196 1.391 . S
C197 C198 1.375 . S
C198 H159 0.931 . S
C198 C197 1.375 . S
C198 C199 1.375 . S
C199 C198 1.375 . S
C199 C200 1.361 . S
C200 H160 0.930 . S
C200 C199 1.361 . S
C200 C201 1.399 . S
C201 H161 0.929 . S
C201 C196 1.386 . S
C201 C200 1.399 . S
C202 C181 1.485 . S
C202 C203 1.394 . S
C202 C207 1.360 . S
C203 H162 0.931 . S
C203 C202 1.394 . S
C203 C204 1.372 . S
C204 H163 0.930 . S
C204 C203 1.372 . S
C204 C205 1.397 . S
C205 C204 1.397 . S
C205 C206 1.390 . S
C205 C221 1.476 . S
C206 H164 0.930 . S
C206 C205 1.390 . S
C206 C207 1.366 . S
C207 H165 0.932 . S
C207 C202 1.360 . S
C207 C206 1.366 . S
C208 C182 1.490 . S
C208 C209 1.380 . S
C208 C213 1.386 . S
C209 H166 0.930 . S
C209 C208 1.380 . S
C209 C210 1.381 . S
C210 H167 0.929 . S
C210 C209 1.381 . S
C210 C211 1.371 . S
C211 C210 1.371 . S
C211 C212 1.380 . S
C212 H168 0.931 . S
C212 C211 1.380 . S
C212 C213 1.387 . S
C213 H169 0.930 . S
C213 C208 1.386 . S
C213 C212 1.387 . S
C214 C183 1.519 . S
C214 C215 1.377 . S
C214 C219 1.361 . S
C215 H170 0.929 . S
C215 C214 1.377 . S
C215 C216 1.386 . S
C216 H171 0.931 . S
C216 C215 1.386 . S
C216 C217 1.363 . S
C217 C216 1.363 . S
C217 C218 1.385 . S
C218 H172 0.930 . S
C218 C217 1.385 . S
C218 C219 1.396 . S
C219 H173 0.929 . S
C219 C214 1.361 . S
C219 C218 1.396 . S
C220 O174 1.300 . S
C220 O175 1.209 . S
C220 C193 1.486 . S
C221 O176 1.199 . S
C221 O177 1.297 . S
C221 C205 1.476 . S
H222 O248 0.856 1_554 S
H223 O251 0.854 . S
H224 C259 0.930 1_455 S
H225 C260 0.930 . S
H226 C262 0.930 . S
H227 C263 0.930 . S
H228 C265 0.931 . S
H229 C266 0.930 . S
H230 C268 0.930 . S
H231 C269 0.929 . S
H232 C271 0.930 . S
H233 C272 0.931 . S
H234 C274 0.930 . S
H235 C275 0.929 . S
H236 C277 0.931 . S
H237 C278 0.930 . S
H238 C280 0.930 . S
H239 C281 0.932 . S
H240 C283 0.930 . S
H241 C284 0.929 . S
H242 C286 0.931 . S
H243 C287 0.930 . S
H244 C289 0.929 . S
H245 C290 0.931 . S
H246 C292 0.930 . S
H247 C293 0.929 . S
O248 H222 0.856 1_556 S
O248 C294 1.300 . S
O249 C294 1.209 . S
O250 C295 1.199 . S
O251 H223 0.854 . S
O251 C295 1.297 . S
C252 C253 1.404 . S
C252 C257 1.397 . S
C252 C258 1.492 1_455 S
C253 C252 1.404 . S
C253 C254 1.396 . S
C253 C264 1.492 . S
C254 C253 1.396 . S
C254 C255 1.397 . S
C254 C270 1.509 . S
C255 C254 1.397 . S
C255 C256 1.412 . S
C255 C276 1.485 . S
C256 C255 1.412 . S
C256 C257 1.388 . S
C256 C282 1.490 . S
C257 C252 1.397 . S
C257 C256 1.388 . S
C257 C288 1.519 1_455 S
C258 C252 1.492 1_655 S
C258 C259 1.363 . S
C258 C263 1.390 . S
C259 H224 0.930 1_655 S
C259 C258 1.363 . S
C259 C260 1.372 . S
C260 H225 0.930 . S
C260 C259 1.372 . S
C260 C261 1.383 . S
C261 C260 1.383 . S
C261 C262 1.395 . S
C262 H226 0.930 . S
C262 C261 1.395 . S
C262 C263 1.362 . S
C263 H227 0.930 . S
C263 C258 1.390 . S
C263 C262 1.362 . S
C264 C253 1.492 . S
C264 C265 1.377 . S
C264 C269 1.397 . S
C265 H228 0.931 . S
C265 C264 1.377 . S
C265 C266 1.376 . S
C266 H229 0.930 . S
C266 C265 1.376 . S
C266 C267 1.376 . S
C267 C266 1.376 . S
C267 C268 1.378 . S
C267 C294 1.486 . S
C268 H230 0.930 . S
C268 C267 1.378 . S
C268 C269 1.376 . S
C269 H231 0.929 . S
C269 C264 1.397 . S
C269 C268 1.376 . S
C270 C254 1.509 . S
C270 C271 1.391 . S
C270 C275 1.386 . S
C271 H232 0.930 . S
C271 C270 1.391 . S
C271 C272 1.375 . S
C272 H233 0.931 . S
C272 C271 1.375 . S
C272 C273 1.375 . S
C273 C272 1.375 . S
C273 C274 1.361 . S
C274 H234 0.930 . S
C274 C273 1.361 . S
C274 C275 1.399 . S
C275 H235 0.929 . S
C275 C270 1.386 . S
C275 C274 1.399 . S
C276 C255 1.485 . S
C276 C277 1.394 . S
C276 C281 1.360 . S
C277 H236 0.931 . S
C277 C276 1.394 . S
C277 C278 1.372 . S
C278 H237 0.930 . S
C278 C277 1.372 . S
C278 C279 1.397 . S
C279 C278 1.397 . S
C279 C280 1.390 . S
C279 C295 1.476 . S
C280 H238 0.930 . S
C280 C279 1.390 . S
C280 C281 1.366 . S
C281 H239 0.932 . S
C281 C276 1.360 . S
C281 C280 1.366 . S
C282 C256 1.490 . S
C282 C283 1.380 . S
C282 C287 1.386 . S
C283 H240 0.930 . S
C283 C282 1.380 . S
C283 C284 1.381 . S
C284 H241 0.929 . S
C284 C283 1.381 . S
C284 C285 1.371 . S
C285 C284 1.371 . S
C285 C286 1.380 . S
C286 H242 0.931 . S
C286 C285 1.380 . S
C286 C287 1.387 . S
C287 H243 0.930 . S
C287 C282 1.386 . S
C287 C286 1.387 . S
C288 C257 1.519 1_655 S
C288 C289 1.377 . S
C288 C293 1.361 . S
C289 H244 0.929 . S
C289 C288 1.377 . S
C289 C290 1.386 . S
C290 H245 0.931 . S
C290 C289 1.386 . S
C290 C291 1.363 . S
C291 C290 1.363 . S
C291 C292 1.385 . S
C292 H246 0.930 . S
C292 C291 1.385 . S
C292 C293 1.396 . S
C293 H247 0.929 . S
C293 C288 1.361 . S
C293 C292 1.396 . S
C294 O248 1.300 . S
C294 O249 1.209 . S
C294 C267 1.486 . S
C295 O250 1.199 . S
C295 O251 1.297 . S
C295 C279 1.476 . S
H296 O322 0.856 . S
H297 O325 0.854 . S
H298 C333 0.930 . S
H299 C334 0.930 . S
H300 C336 0.930 . S
H301 C337 0.930 . S
H302 C339 0.931 . S
H303 C340 0.930 . S
H304 C342 0.930 . S
H305 C343 0.929 1_545 S
H306 C345 0.930 . S
H307 C346 0.931 . S
H308 C348 0.930 . S
H309 C349 0.929 . S
H310 C351 0.931 . S
H311 C352 0.930 . S
H312 C354 0.930 . S
H313 C355 0.932 . S
H314 C357 0.930 . S
H315 C358 0.929 . S
H316 C360 0.931 . S
H317 C361 0.930 . S
H318 C363 0.947 . S
H319 C364 0.931 . S
H320 C366 0.930 . S
H321 C367 0.929 . S
O322 H296 0.856 . S
O322 C368 1.300 . S
O323 C368 1.209 . S
O324 C369 1.199 . S
O325 H297 0.854 . S
O325 C369 1.297 . S
C326 C327 1.404 1_545 S
C326 C331 1.397 . S
C326 C332 1.492 . S
C327 C326 1.404 1_565 S
C327 C328 1.396 . S
C327 C338 1.492 . S
C328 C327 1.396 . S
C328 C329 1.397 . S
C328 C344 1.509 . S
C329 C328 1.397 . S
C329 C330 1.412 1_556 S
C329 C350 1.485 1_556 S
C330 C329 1.412 1_554 S
C330 C331 1.388 1_564 S
C330 C356 1.490 . S
C331 C326 1.397 . S
C331 C330 1.388 1_546 S
C331 C362 1.519 1_556 S
C332 C326 1.492 . S
C332 C333 1.363 . S
C332 C337 1.390 . S
C333 H298 0.930 . S
C333 C332 1.363 . S
C333 C334 1.372 . S
C334 H299 0.930 . S
C334 C333 1.372 . S
C334 C335 1.383 . S
C335 C334 1.383 . S
C335 C336 1.395 . S
C336 H300 0.930 . S
C336 C335 1.395 . S
C336 C337 1.362 . S
C337 H301 0.930 . S
C337 C332 1.390 . S
C337 C336 1.362 . S
C338 C327 1.492 . S
C338 C339 1.377 . S
C338 C343 1.397 . S
C339 H302 0.931 . S
C339 C338 1.377 . S
C339 C340 1.376 . S
C340 H303 0.930 . S
C340 C339 1.376 . S
C340 C341 1.376 . S
C341 C340 1.376 . S
C341 C342 1.378 . S
C341 C368 1.486 . S
C342 H304 0.930 . S
C342 C341 1.378 . S
C342 C343 1.376 . S
C343 H305 0.929 1_565 S
C343 C338 1.397 . S
C343 C342 1.376 . S
C344 C328 1.509 . S
C344 C345 1.391 . S
C344 C349 1.386 . S
C345 H306 0.930 . S
C345 C344 1.391 . S
C345 C346 1.375 . S
C346 H307 0.931 . S
C346 C345 1.375 . S
C346 C347 1.375 . S
C347 C346 1.375 . S
C347 C348 1.361 . S
C348 H308 0.930 . S
C348 C347 1.361 . S
C348 C349 1.399 . S
C349 H309 0.929 . S
C349 C344 1.386 . S
C349 C348 1.399 . S
C350 C329 1.485 1_554 S
C350 C351 1.394 . S
C350 C355 1.360 . S
C351 H310 0.931 . S
C351 C350 1.394 . S
C351 C352 1.372 . S
C352 H311 0.930 . S
C352 C351 1.372 . S
C352 C353 1.397 . S
C353 C352 1.397 . S
C353 C354 1.390 . S
C353 C369 1.476 . S
C354 H312 0.930 . S
C354 C353 1.390 . S
C354 C355 1.366 . S
C355 H313 0.932 . S
C355 C350 1.360 . S
C355 C354 1.366 . S
C356 C330 1.490 . S
C356 C357 1.380 1_565 S
C356 C361 1.386 . S
C357 H314 0.930 . S
C357 C356 1.380 1_545 S
C357 C358 1.381 . S
C358 H315 0.929 . S
C358 C357 1.381 . S
C358 C359 1.371 . S
C359 C358 1.371 . S
C359 C360 1.380 1_545 S
C360 H316 0.931 . S
C360 C359 1.380 1_565 S
C360 C361 1.387 . S
C361 H317 0.930 . S
C361 C356 1.386 . S
C361 C360 1.387 . S
C362 C331 1.519 1_554 S
C362 C363 1.376 1_554 S
C362 C367 1.360 . S
C363 H318 0.947 . S
C363 C362 1.376 1_556 S
C363 C364 1.371 1_556 S
C364 H319 0.931 . S
C364 C363 1.371 1_554 S
C364 C365 1.363 . S
C365 C364 1.363 . S
C365 C366 1.385 . S
C366 H320 0.930 . S
C366 C365 1.385 . S
C366 C367 1.396 . S
C367 H321 0.929 . S
C367 C362 1.360 . S
C367 C366 1.396 . S
C368 O322 1.300 . S
C368 O323 1.209 . S
C368 C341 1.486 . S
C369 O324 1.199 . S
C369 O325 1.297 . S
C369 C353 1.476 . S
H370 O396 0.856 . S
H371 O399 0.854 . S
H372 C407 0.930 . S
H373 C408 0.930 . S
H374 C410 0.930 . S
H375 C411 0.930 . S
H376 C413 0.931 . S
H377 C414 0.930 . S
H378 C416 0.930 . S
H379 C417 0.929 . S
H380 C419 0.930 . S
H381 C420 0.931 . S
H382 C422 0.930 . S
H383 C423 0.929 . S
H384 C425 0.931 . S
H385 C426 0.930 . S
H386 C428 0.930 . S
H387 C429 0.932 . S
H388 C431 0.930 . S
H389 C432 0.929 . S
H390 C434 0.931 . S
H391 C435 0.930 . S
H392 C437 0.929 . S
H393 C438 0.931 . S
H394 C440 0.930 . S
H395 C441 0.929 . S
O396 H370 0.856 . S
O396 C442 1.300 . S
O397 C442 1.209 . S
O398 C443 1.199 . S
O399 H371 0.854 . S
O399 C443 1.297 . S
C400 C401 1.404 . S
C400 C405 1.397 . S
C400 C406 1.492 . S
C401 C400 1.404 . S
C401 C402 1.396 . S
C401 C412 1.492 . S
C402 C401 1.396 . S
C402 C403 1.397 . S
C402 C418 1.509 . S
C403 C402 1.397 . S
C403 C404 1.412 . S
C403 C424 1.485 . S
C404 C403 1.412 . S
C404 C405 1.388 . S
C404 C430 1.490 . S
C405 C400 1.397 . S
C405 C404 1.388 . S
C405 C436 1.519 . S
C406 C400 1.492 . S
C406 C407 1.363 . S
C406 C411 1.390 . S
C407 H372 0.930 . S
C407 C406 1.363 . S
C407 C408 1.372 . S
C408 H373 0.930 . S
C408 C407 1.372 . S
C408 C409 1.383 . S
C409 C408 1.383 . S
C409 C410 1.395 . S
C410 H374 0.930 . S
C410 C409 1.395 . S
C410 C411 1.362 . S
C411 H375 0.930 . S
C411 C406 1.390 . S
C411 C410 1.362 . S
C412 C401 1.492 . S
C412 C413 1.377 . S
C412 C417 1.397 . S
C413 H376 0.931 . S
C413 C412 1.377 . S
C413 C414 1.376 . S
C414 H377 0.930 . S
C414 C413 1.376 . S
C414 C415 1.376 . S
C415 C414 1.376 . S
C415 C416 1.378 . S
C415 C442 1.486 1_554 S
C416 H378 0.930 . S
C416 C415 1.378 . S
C416 C417 1.376 . S
C417 H379 0.929 . S
C417 C412 1.397 . S
C417 C416 1.376 . S
C418 C402 1.509 . S
C418 C419 1.391 . S
C418 C423 1.386 . S
C419 H380 0.930 . S
C419 C418 1.391 . S
C419 C420 1.375 . S
C420 H381 0.931 . S
C420 C419 1.375 . S
C420 C421 1.375 . S
C421 C420 1.375 . S
C421 C422 1.361 . S
C422 H382 0.930 . S
C422 C421 1.361 . S
C422 C423 1.399 . S
C423 H383 0.929 . S
C423 C418 1.386 . S
C423 C422 1.399 . S
C424 C403 1.485 . S
C424 C425 1.394 . S
C424 C429 1.360 . S
C425 H384 0.931 . S
C425 C424 1.394 . S
C425 C426 1.372 . S
C426 H385 0.930 . S
C426 C425 1.372 . S
C426 C427 1.397 . S
C427 C426 1.397 . S
C427 C428 1.390 . S
C427 C443 1.476 . S
C428 H386 0.930 . S
C428 C427 1.390 . S
C428 C429 1.366 . S
C429 H387 0.932 . S
C429 C424 1.360 . S
C429 C428 1.366 . S
C430 C404 1.490 . S
C430 C431 1.380 . S
C430 C435 1.386 . S
C431 H388 0.930 . S
C431 C430 1.380 . S
C431 C432 1.381 . S
C432 H389 0.929 . S
C432 C431 1.381 . S
C432 C433 1.371 . S
C433 C432 1.371 . S
C433 C434 1.380 . S
C434 H390 0.931 . S
C434 C433 1.380 . S
C434 C435 1.387 . S
C435 H391 0.930 . S
C435 C430 1.386 . S
C435 C434 1.387 . S
C436 C405 1.519 . S
C436 C437 1.377 . S
C436 C441 1.361 . S
C437 H392 0.929 . S
C437 C436 1.377 . S
C437 C438 1.386 . S
C438 H393 0.931 . S
C438 C437 1.386 . S
C438 C439 1.363 . S
C439 C438 1.363 . S
C439 C440 1.385 . S
C440 H394 0.930 . S
C440 C439 1.385 . S
C440 C441 1.396 . S
C441 H395 0.929 . S
C441 C436 1.361 . S
C441 C440 1.396 . S
C442 O396 1.300 . S
C442 O397 1.209 . S
C442 C415 1.486 1_556 S
C443 O398 1.199 . S
C443 O399 1.297 . S
C443 C427 1.476 . S
Co444 O445 2.216 . S
Co444 O446 2.091 . S
Co444 O448 2.004 . S
Co444 O454 2.021 . S
Co444 O456 2.137 . S
Co444 O457 2.244 . S
O445 Co444 2.216 . S
O445 C452 1.247 . S
O446 Co444 2.091 . S
O446 C452 1.261 . S
C447 O456 1.247 . S
C447 O457 1.272 . S
O448 Co444 2.004 . S
O448 C453 1.259 . S
Co449 O450 2.061 . S
Co449 O455 2.052 . S
Co449 O457 2.135 . S
O450 Co449 2.061 . S
O450 C453 1.235 . S
C451 O454 1.238 . S
C451 O455 1.241 . S
C452 O445 1.247 . S
C452 O446 1.261 . S
C453 O448 1.259 . S
C453 O450 1.235 . S
O454 Co444 2.021 . S
O454 C451 1.238 . S
O455 Co449 2.052 . S
O455 C451 1.241 . S
O456 Co444 2.137 . S
O456 C447 1.247 . S
O457 Co444 2.244 . S
O457 C447 1.272 . S
O457 Co449 2.135 . S
Co458 O459 2.216 . S
Co458 O460 2.091 . S
Co458 O462 2.004 . S
Co458 O468 2.021 . S
Co458 O470 2.137 . S
Co458 O471 2.244 . S
O459 Co458 2.216 . S
O459 C466 1.247 . S
O460 Co458 2.091 . S
O460 C466 1.261 . S
C461 O470 1.247 . S
C461 O471 1.272 . S
O462 Co458 2.004 . S
O462 C467 1.259 . S
Co463 O464 2.061 . S
Co463 O469 2.052 . S
Co463 O471 2.135 . S
O464 Co463 2.061 . S
O464 C467 1.235 . S
C465 O468 1.238 . S
C465 O469 1.241 . S
C466 O459 1.247 . S
C466 O460 1.261 . S
C467 O462 1.259 . S
C467 O464 1.235 . S
O468 Co458 2.021 . S
O468 C465 1.238 . S
O469 Co463 2.052 . S
O469 C465 1.241 . S
O470 Co458 2.137 . S
O470 C461 1.247 . S
O471 Co458 2.244 . S
O471 C461 1.272 . S
O471 Co463 2.135 . S
Co472 O473 2.216 . S
Co472 O474 2.091 . S
Co472 O476 2.004 . S
Co472 O482 2.021 . S
Co472 O484 2.137 . S
Co472 O485 2.244 . S
O473 Co472 2.216 . S
O473 C480 1.247 . S
O474 Co472 2.091 . S
O474 C480 1.261 . S
C475 O484 1.247 . S
C475 O485 1.272 . S
O476 Co472 2.004 . S
O476 C481 1.259 . S
Co477 O478 2.061 . S
Co477 O483 2.052 . S
Co477 O485 2.135 . S
O478 Co477 2.061 . S
O478 C481 1.235 . S
C479 O482 1.238 . S
C479 O483 1.241 . S
C480 O473 1.247 . S
C480 O474 1.261 . S
C481 O476 1.259 . S
C481 O478 1.235 . S
O482 Co472 2.021 . S
O482 C479 1.238 . S
O483 Co477 2.052 . S
O483 C479 1.241 . S
O484 Co472 2.137 . S
O484 C475 1.247 . S
O485 Co472 2.244 . S
O485 C475 1.272 . S
O485 Co477 2.135 . S
Co486 O487 2.216 . S
Co486 O488 2.091 . S
Co486 O490 2.004 . S
Co486 O496 2.021 . S
Co486 O498 2.137 . S
Co486 O499 2.244 . S
O487 Co486 2.216 . S
O487 C494 1.247 . S
O488 Co486 2.091 . S
O488 C494 1.261 . S
C489 O498 1.247 . S
C489 O499 1.272 . S
O490 Co486 2.004 . S
O490 C495 1.259 . S
Co491 O492 2.061 . S
Co491 O497 2.052 . S
Co491 O499 2.135 . S
O492 Co491 2.061 . S
O492 C495 1.235 . S
C493 O496 1.238 . S
C493 O497 1.241 . S
C494 O487 1.247 . S
C494 O488 1.261 . S
C495 O490 1.259 . S
C495 O492 1.235 . S
O496 Co486 2.021 . S
O496 C493 1.238 . S
O497 Co491 2.052 . S
O497 C493 1.241 . S
O498 Co486 2.137 . S
O498 C489 1.247 . S
O499 Co486 2.244 . S
O499 C489 1.272 . S
O499 Co491 2.135 . S
Co500 O501 2.216 . S
Co500 O502 2.091 . S
Co500 O504 2.004 . S
Co500 O510 2.021 . S
Co500 O512 2.137 . S
Co500 O513 2.244 . S
O501 Co500 2.216 . S
O501 C508 1.247 . S
O502 Co500 2.091 . S
O502 C508 1.261 . S
C503 O512 1.247 . S
C503 O513 1.272 . S
O504 Co500 2.004 . S
O504 C509 1.259 . S
Co505 O506 2.061 . S
Co505 O511 2.052 . S
Co505 O513 2.135 . S
O506 Co505 2.061 . S
O506 C509 1.235 . S
C507 O510 1.238 . S
C507 O511 1.241 . S
C508 O501 1.247 . S
C508 O502 1.261 . S
C509 O504 1.259 . S
C509 O506 1.235 . S
O510 Co500 2.021 . S
O510 C507 1.238 . S
O511 Co505 2.052 . S
O511 C507 1.241 . S
O512 Co500 2.137 . S
O512 C503 1.247 . S
O513 Co500 2.244 . S
O513 C503 1.272 . S
O513 Co505 2.135 . S
Co514 O515 2.216 . S
Co514 O516 2.091 . S
Co514 O518 2.004 . S
Co514 O524 2.021 . S
Co514 O526 2.137 . S
Co514 O527 2.244 . S
O515 Co514 2.216 . S
O515 C522 1.247 . S
O516 Co514 2.091 . S
O516 C522 1.261 . S
C517 O526 1.247 . S
C517 O527 1.272 . S
O518 Co514 2.004 . S
O518 C523 1.259 . S
Co519 O520 2.061 . S
Co519 O525 2.052 . S
Co519 O527 2.135 . S
O520 Co519 2.061 . S
O520 C523 1.235 . S
C521 O524 1.238 . S
C521 O525 1.241 . S
C522 O515 1.247 . S
C522 O516 1.261 . S
C523 O518 1.259 . S
C523 O520 1.235 . S
O524 Co514 2.021 . S
O524 C521 1.238 . S
O525 Co519 2.052 . S
O525 C521 1.241 . S
O526 Co514 2.137 . S
O526 C517 1.247 . S
O527 Co514 2.244 . S
O527 C517 1.272 . S
O527 Co519 2.135 . S
C528 C529 1.363 . S
C528 C534 1.379 . S
C528 N536 1.356 . S
C529 C528 1.363 . S
C529 C535 1.363 . S
C530 C531 1.363 . S
C530 C535 1.379 . S
C530 N537 1.356 . S
C531 C530 1.363 . S
C531 C534 1.363 . S
N532 C534 1.356 . S
N532 H544 0.984 . S
N532 H545 0.985 . S
N533 C535 1.356 . S
N533 H538 0.984 . S
N533 H539 0.985 . S
C534 C528 1.379 . S
C534 C531 1.363 . S
C534 N532 1.356 . S
C535 C529 1.363 . S
C535 C530 1.379 . S
C535 N533 1.356 . S
N536 C528 1.356 . S
N536 H542 0.984 . S
N536 H543 0.984 . S
N537 C530 1.356 . S
N537 H540 0.984 . S
N537 H541 0.985 . S
H538 N533 0.984 . S
H539 N533 0.985 . S
H540 N537 0.984 . S
H541 N537 0.985 . S
H542 N536 0.984 . S
H543 N536 0.984 . S
H544 N532 0.984 . S
H545 N532 0.985 . S
C546 C547 1.363 . S
C546 C552 1.379 . S
C546 N554 1.356 . S
C547 C546 1.363 . S
C547 C553 1.363 . S
C548 C549 1.363 . S
C548 C553 1.379 . S
C548 N555 1.356 . S
C549 C548 1.363 . S
C549 C552 1.363 . S
N550 C552 1.356 . S
N550 H562 0.984 . S
N550 H563 0.985 . S
N551 C553 1.356 . S
N551 H556 0.984 . S
N551 H557 0.985 . S
C552 C546 1.379 . S
C552 C549 1.363 . S
C552 N550 1.356 . S
C553 C547 1.363 . S
C553 C548 1.379 . S
C553 N551 1.356 . S
N554 C546 1.356 . S
N554 H560 0.984 . S
N554 H561 0.984 . S
N555 C548 1.356 . S
N555 H558 0.984 . S
N555 H559 0.985 . S
H556 N551 0.984 . S
H557 N551 0.985 . S
H558 N555 0.984 . S
H559 N555 0.985 . S
H560 N554 0.984 . S
H561 N554 0.984 . S
H562 N550 0.984 . S
H563 N550 0.985 . S
C564 C565 1.363 . S
C564 C570 1.379 . S
C564 N572 1.356 . S
C565 C564 1.363 . S
C565 C571 1.363 . S
C566 C567 1.363 . S
C566 C571 1.379 . S
C566 N573 1.356 . S
C567 C566 1.363 . S
C567 C570 1.363 . S
N568 C570 1.356 . S
N568 H580 0.984 . S
N568 H581 0.985 . S
N569 C571 1.356 . S
N569 H574 0.984 . S
N569 H575 0.985 . S
C570 C564 1.379 . S
C570 C567 1.363 . S
C570 N568 1.356 . S
C571 C565 1.363 . S
C571 C566 1.379 . S
C571 N569 1.356 . S
N572 C564 1.356 . S
N572 H578 0.984 . S
N572 H579 0.984 . S
N573 C566 1.356 . S
N573 H576 0.984 . S
N573 H577 0.985 . S
H574 N569 0.984 . S
H575 N569 0.985 . S
H576 N573 0.984 . S
H577 N573 0.985 . S
H578 N572 0.984 . S
H579 N572 0.984 . S
H580 N568 0.984 . S
H581 N568 0.985 . S
C582 C583 1.363 . S
C582 C588 1.379 . S
C582 N590 1.356 . S
C583 C582 1.363 . S
C583 C589 1.363 . S
C584 C585 1.363 . S
C584 C589 1.379 . S
C584 N591 1.356 . S
C585 C584 1.363 . S
C585 C588 1.363 . S
N586 C588 1.356 . S
N586 H598 0.984 . S
N586 H599 0.985 . S
N587 C589 1.356 . S
N587 H592 0.984 . S
N587 H593 0.985 . S
C588 C582 1.379 . S
C588 C585 1.363 . S
C588 N586 1.356 . S
C589 C583 1.363 . S
C589 C584 1.379 . S
C589 N587 1.356 . S
N590 C582 1.356 . S
N590 H596 0.984 . S
N590 H597 0.984 . S
N591 C584 1.356 . S
N591 H594 0.984 . S
N591 H595 0.985 . S
H592 N587 0.984 . S
H593 N587 0.985 . S
H594 N591 0.984 . S
H595 N591 0.985 . S
H596 N590 0.984 . S
H597 N590 0.984 . S
H598 N586 0.984 . S
H599 N586 0.985 . S
C600 C601 1.363 . S
C600 C606 1.379 . S
C600 N608 1.356 . S
C601 C600 1.363 . S
C601 C607 1.363 . S
C602 C603 1.363 . S
C602 C607 1.379 . S
C602 N609 1.356 . S
C603 C602 1.363 . S
C603 C606 1.363 . S
N604 C606 1.356 . S
N604 H616 0.984 . S
N604 H617 0.985 . S
N605 C607 1.356 . S
N605 H610 0.984 . S
N605 H611 0.985 . S
C606 C600 1.379 . S
C606 C603 1.363 . S
C606 N604 1.356 . S
C607 C601 1.363 . S
C607 C602 1.379 . S
C607 N605 1.356 . S
N608 C600 1.356 . S
N608 H614 0.984 . S
N608 H615 0.984 . S
N609 C602 1.356 . S
N609 H612 0.984 . S
N609 H613 0.985 . S
H610 N605 0.984 . S
H611 N605 0.985 . S
H612 N609 0.984 . S
H613 N609 0.985 . S
H614 N608 0.984 . S
H615 N608 0.984 . S
H616 N604 0.984 . S
H617 N604 0.985 . S
C618 C619 1.363 . S
C618 C624 1.379 . S
C618 N626 1.356 . S
C619 C618 1.363 . S
C619 C625 1.363 . S
C620 C621 1.363 . S
C620 C625 1.379 . S
C620 N627 1.356 . S
C621 C620 1.363 . S
C621 C624 1.363 . S
N622 C624 1.356 . S
N622 H634 0.984 . S
N622 H635 0.985 . S
N623 C625 1.356 . S
N623 H628 0.984 . S
N623 H629 0.985 . S
C624 C618 1.379 . S
C624 C621 1.363 . S
C624 N622 1.356 . S
C625 C619 1.363 . S
C625 C620 1.379 . S
C625 N623 1.356 . S
N626 C618 1.356 . S
N626 H632 0.984 . S
N626 H633 0.984 . S
N627 C620 1.356 . S
N627 H630 0.984 . S
N627 H631 0.985 . S
H628 N623 0.984 . S
H629 N623 0.985 . S
H630 N627 0.984 . S
H631 N627 0.985 . S
H632 N626 0.984 . S
H633 N626 0.984 . S
H634 N622 0.984 . S
H635 N622 0.985 . S
C636 C637 1.363 . S
C636 C642 1.379 . S
C636 N644 1.356 . S
C637 C636 1.363 . S
C637 C643 1.363 . S
C638 C639 1.363 . S
C638 C643 1.379 . S
C638 N645 1.356 . S
C639 C638 1.363 . S
C639 C642 1.363 . S
N640 C642 1.356 . S
N640 H652 0.984 . S
N640 H653 0.985 . S
N641 C643 1.356 . S
N641 H646 0.984 . S
N641 H647 0.985 . S
C642 C636 1.379 . S
C642 C639 1.363 . S
C642 N640 1.356 . S
C643 C637 1.363 . S
C643 C638 1.379 . S
C643 N641 1.356 . S
N644 C636 1.356 . S
N644 H650 0.984 . S
N644 H651 0.984 . S
N645 C638 1.356 . S
N645 H648 0.984 . S
N645 H649 0.985 . S
H646 N641 0.984 . S
H647 N641 0.985 . S
H648 N645 0.984 . S
H649 N645 0.985 . S
H650 N644 0.984 . S
H651 N644 0.984 . S
H652 N640 0.984 . S
H653 N640 0.985 . S
C654 C655 1.363 . S
C654 C660 1.379 . S
C654 N662 1.356 . S
C655 C654 1.363 . S
C655 C661 1.363 . S
C656 C657 1.363 . S
C656 C661 1.379 . S
C656 N663 1.356 . S
C657 C656 1.363 . S
C657 C660 1.363 . S
N658 C660 1.356 . S
N658 H670 0.984 . S
N658 H671 0.985 . S
N659 C661 1.356 . S
N659 H664 0.984 . S
N659 H665 0.985 . S
C660 C654 1.379 . S
C660 C657 1.363 . S
C660 N658 1.356 . S
C661 C655 1.363 . S
C661 C656 1.379 . S
C661 N659 1.356 . S
N662 C654 1.356 . S
N662 H668 0.984 . S
N662 H669 0.984 . S
N663 C656 1.356 . S
N663 H666 0.984 . S
N663 H667 0.985 . S
H664 N659 0.984 . S
H665 N659 0.985 . S
H666 N663 0.984 . S
H667 N663 0.985 . S
H668 N662 0.984 . S
H669 N662 0.984 . S
H670 N658 0.984 . S
H671 N658 0.985 . S
C672 C673 1.363 . S
C672 C678 1.379 . S
C672 N680 1.356 . S
C673 C672 1.363 . S
C673 C679 1.363 . S
C674 C675 1.363 . S
C674 C679 1.379 . S
C674 N681 1.356 . S
C675 C674 1.363 . S
C675 C678 1.363 . S
N676 C678 1.356 . S
N676 H688 0.984 . S
N676 H689 0.985 . S
N677 C679 1.356 . S
N677 H682 0.984 . S
N677 H683 0.985 . S
C678 C672 1.379 . S
C678 C675 1.363 . S
C678 N676 1.356 . S
C679 C673 1.363 . S
C679 C674 1.379 . S
C679 N677 1.356 . S
N680 C672 1.356 . S
N680 H686 0.984 . S
N680 H687 0.984 . S
N681 C674 1.356 . S
N681 H684 0.984 . S
N681 H685 0.985 . S
H682 N677 0.984 . S
H683 N677 0.985 . S
H684 N681 0.984 . S
H685 N681 0.985 . S
H686 N680 0.984 . S
H687 N680 0.984 . S
H688 N676 0.984 . S
H689 N676 0.985 . S
C690 C691 1.363 . S
C690 C696 1.379 . S
C690 N698 1.356 . S
C691 C690 1.363 . S
C691 C697 1.363 . S
C692 C693 1.363 . S
C692 C697 1.379 . S
C692 N699 1.356 . S
C693 C692 1.363 . S
C693 C696 1.363 . S
N694 C696 1.356 . S
N694 H706 0.984 . S
N694 H707 0.985 . S
N695 C697 1.356 1_556 S
N695 H700 0.984 . S
N695 H701 0.985 . S
C696 C690 1.379 . S
C696 C693 1.363 . S
C696 N694 1.356 . S
C697 C691 1.363 . S
C697 C692 1.379 . S
C697 N695 1.356 1_554 S
N698 C690 1.356 . S
N698 H704 0.984 . S
N698 H705 0.984 . S
N699 C692 1.356 . S
N699 H702 0.984 . S
N699 H703 0.985 1_554 S
H700 N695 0.984 . S
H701 N695 0.985 . S
H702 N699 0.984 . S
H703 N699 0.985 1_556 S
H704 N698 0.984 . S
H705 N698 0.984 . S
H706 N694 0.984 . S
H707 N694 0.985 . S
C708 C709 1.363 . S
C708 C714 1.379 . S
C708 N716 1.356 . S
C709 C708 1.363 . S
C709 C715 1.363 . S
C710 C711 1.363 . S
C710 C715 1.379 . S
C710 N717 1.356 . S
C711 C710 1.363 . S
C711 C714 1.363 . S
N712 C714 1.356 . S
N712 H724 0.984 . S
N712 H725 0.985 . S
N713 C715 1.356 . S
N713 H718 0.984 . S
N713 H719 0.985 . S
C714 C708 1.379 . S
C714 C711 1.363 . S
C714 N712 1.356 . S
C715 C709 1.363 . S
C715 C710 1.379 . S
C715 N713 1.356 . S
N716 C708 1.356 . S
N716 H722 0.984 . S
N716 H723 0.984 . S
N717 C710 1.356 . S
N717 H720 0.984 . S
N717 H721 0.985 . S
H718 N713 0.984 . S
H719 N713 0.985 . S
H720 N717 0.984 . S
H721 N717 0.985 . S
H722 N716 0.984 . S
H723 N716 0.984 . S
H724 N712 0.984 . S
H725 N712 0.985 . S
C726 C727 1.363 . S
C726 C732 1.379 . S
C726 N734 1.356 . S
C727 C726 1.363 . S
C727 C733 1.363 . S
C728 C729 1.363 . S
C728 C733 1.379 . S
C728 N735 1.356 . S
C729 C728 1.363 . S
C729 C732 1.363 . S
N730 C732 1.356 . S
N730 H742 0.984 . S
N730 H743 0.985 . S
N731 C733 1.356 . S
N731 H736 0.984 . S
N731 H737 0.985 . S
C732 C726 1.379 . S
C732 C729 1.363 . S
C732 N730 1.356 . S
C733 C727 1.363 . S
C733 C728 1.379 . S
C733 N731 1.356 . S
N734 C726 1.356 . S
N734 H740 0.984 . S
N734 H741 0.984 . S
N735 C728 1.356 . S
N735 H738 0.984 . S
N735 H739 0.985 . S
H736 N731 0.984 . S
H737 N731 0.985 . S
H738 N735 0.984 . S
H739 N735 0.985 . S
H740 N734 0.984 . S
H741 N734 0.984 . S
H742 N730 0.984 . S
H743 N730 0.985 . S
C744 C745 1.363 . S
C744 C750 1.379 . S
C744 N752 1.356 . S
C745 C744 1.363 . S
C745 C751 1.363 . S
C746 C747 1.363 . S
C746 C751 1.379 . S
C746 N753 1.356 . S
C747 C746 1.363 . S
C747 C750 1.363 . S
N748 C750 1.356 . S
N748 H760 0.984 . S
N748 H761 0.985 . S
N749 C751 1.356 . S
N749 H754 0.984 . S
N749 H755 0.985 . S
C750 C744 1.379 . S
C750 C747 1.363 . S
C750 N748 1.356 . S
C751 C745 1.363 . S
C751 C746 1.379 . S
C751 N749 1.356 . S
N752 C744 1.356 . S
N752 H758 0.984 . S
N752 H759 0.984 . S
N753 C746 1.356 . S
N753 H756 0.984 . S
N753 H757 0.985 . S
H754 N749 0.984 . S
H755 N749 0.985 . S
H756 N753 0.984 . S
H757 N753 0.985 . S
H758 N752 0.984 . S
H759 N752 0.984 . S
H760 N748 0.984 . S
H761 N748 0.985 . S
C762 C763 1.363 . S
C762 C768 1.379 . S
C762 N770 1.356 . S
C763 C762 1.363 . S
C763 C769 1.363 . S
C764 C765 1.363 . S
C764 C769 1.379 . S
C764 N771 1.356 . S
C765 C764 1.363 . S
C765 C768 1.363 . S
N766 C768 1.356 . S
N766 H778 0.984 . S
N766 H779 0.985 . S
N767 C769 1.356 . S
N767 H772 0.984 . S
N767 H773 0.985 . S
C768 C762 1.379 . S
C768 C765 1.363 . S
C768 N766 1.356 . S
C769 C763 1.363 . S
C769 C764 1.379 . S
C769 N767 1.356 . S
N770 C762 1.356 . S
N770 H776 0.984 . S
N770 H777 0.984 . S
N771 C764 1.356 . S
N771 H774 0.984 . S
N771 H775 0.985 . S
H772 N767 0.984 . S
H773 N767 0.985 . S
H774 N771 0.984 . S
H775 N771 0.985 . S
H776 N770 0.984 . S
H777 N770 0.984 . S
H778 N766 0.984 . S
H779 N766 0.985 . S
C780 C781 1.363 . S
C780 C786 1.379 . S
C780 N788 1.356 . S
C781 C780 1.363 . S
C781 C787 1.363 . S
C782 C783 1.363 . S
C782 C787 1.379 . S
C782 N789 1.356 . S
C783 C782 1.363 . S
C783 C786 1.363 . S
N784 C786 1.356 . S
N784 H796 0.984 . S
N784 H797 0.985 . S
N785 C787 1.356 . S
N785 H790 0.984 . S
N785 H791 0.985 . S
C786 C780 1.379 . S
C786 C783 1.363 . S
C786 N784 1.356 . S
C787 C781 1.363 . S
C787 C782 1.379 . S
C787 N785 1.356 . S
N788 C780 1.356 . S
N788 H794 0.984 . S
N788 H795 0.984 . S
N789 C782 1.356 . S
N789 H792 0.984 . S
N789 H793 0.985 . S
H790 N785 0.984 . S
H791 N785 0.985 . S
H792 N789 0.984 . S
H793 N789 0.985 . S
H794 N788 0.984 . S
H795 N788 0.984 . S
H796 N784 0.984 . S
H797 N784 0.985 . S
C798 C799 1.363 . S
C798 C804 1.379 . S
C798 N806 1.356 . S
C799 C798 1.363 . S
C799 C805 1.363 . S
C800 C801 1.363 . S
C800 C805 1.379 . S
C800 N807 1.356 1_556 S
C801 C800 1.363 . S
C801 C804 1.363 . S
N802 C804 1.356 . S
N802 H814 0.984 . S
N802 H815 0.985 . S
N803 C805 1.356 . S
N803 H808 0.984 . S
N803 H809 0.985 . S
C804 C798 1.379 . S
C804 C801 1.363 . S
C804 N802 1.356 . S
C805 C799 1.363 . S
C805 C800 1.379 . S
C805 N803 1.356 . S
N806 C798 1.356 . S
N806 H812 0.984 . S
N806 H813 0.984 . S
N807 C800 1.356 1_554 S
N807 H810 0.984 . S
N807 H811 0.985 . S
H808 N803 0.984 . S
H809 N803 0.985 . S
H810 N807 0.984 . S
H811 N807 0.985 . S
H812 N806 0.984 . S
H813 N806 0.984 . S
H814 N802 0.984 . S
H815 N802 0.985 . S
C816 C817 1.363 . S
C816 C822 1.379 . S
C816 N824 1.356 1_565 S
C817 C816 1.363 . S
C817 C823 1.363 . S
C818 C819 1.363 . S
C818 C823 1.379 . S
C818 N825 1.356 . S
C819 C818 1.363 . S
C819 C822 1.363 . S
N820 C822 1.356 . S
N820 H832 0.984 . S
N820 H833 0.985 . S
N821 C823 1.356 . S
N821 H826 0.984 . S
N821 H827 0.985 . S
C822 C816 1.379 . S
C822 C819 1.363 . S
C822 N820 1.356 . S
C823 C817 1.363 . S
C823 C818 1.379 . S
C823 N821 1.356 . S
N824 C816 1.356 1_545 S
N824 H830 0.984 . S
N824 H831 0.984 . S
N825 C818 1.356 . S
N825 H828 0.984 . S
N825 H829 0.985 . S
H826 N821 0.984 . S
H827 N821 0.985 . S
H828 N825 0.984 . S
H829 N825 0.985 . S
H830 N824 0.984 . S
H831 N824 0.984 . S
H832 N820 0.984 . S
H833 N820 0.985 . S
C834 C835 1.363 . S
C834 C840 1.379 . S
C834 N842 1.356 . S
C835 C834 1.363 . S
C835 C841 1.363 . S
C836 C837 1.363 . S
C836 C841 1.379 . S
C836 N843 1.356 . S
C837 C836 1.363 . S
C837 C840 1.363 . S
N838 C840 1.356 . S
N838 H850 0.984 . S
N838 H851 0.985 . S
N839 C841 1.356 . S
N839 H844 0.984 . S
N839 H845 0.985 . S
C840 C834 1.379 . S
C840 C837 1.363 . S
C840 N838 1.356 . S
C841 C835 1.363 . S
C841 C836 1.379 . S
C841 N839 1.356 . S
N842 C834 1.356 . S
N842 H848 0.984 . S
N842 H849 0.984 . S
N843 C836 1.356 . S
N843 H846 0.984 . S
N843 H847 0.985 . S
H844 N839 0.984 . S
H845 N839 0.985 . S
H846 N843 0.984 . S
H847 N843 0.985 . S
H848 N842 0.984 . S
H849 N842 0.984 . S
H850 N838 0.984 . S
H851 N838 0.985 . S
C852 C853 1.363 . S
C852 C858 1.379 . S
C852 N860 1.356 . S
C853 C852 1.363 . S
C853 C859 1.363 . S
C854 C855 1.363 . S
C854 C859 1.379 . S
C854 N861 1.356 . S
C855 C854 1.363 . S
C855 C858 1.363 . S
N856 C858 1.356 . S
N856 H868 0.984 . S
N856 H869 0.985 . S
N857 C859 1.356 . S
N857 H862 0.984 . S
N857 H863 0.985 . S
C858 C852 1.379 . S
C858 C855 1.363 . S
C858 N856 1.356 . S
C859 C853 1.363 . S
C859 C854 1.379 . S
C859 N857 1.356 . S
N860 C852 1.356 . S
N860 H866 0.984 . S
N860 H867 0.984 . S
N861 C854 1.356 . S
N861 H864 0.984 . S
N861 H865 0.985 . S
H862 N857 0.984 . S
H863 N857 0.985 . S
H864 N861 0.984 . S
H865 N861 0.985 . S
H866 N860 0.984 . S
H867 N860 0.984 . S
H868 N856 0.984 . S
H869 N856 0.985 . S
C870 C871 1.363 . S
C870 C876 1.379 . S
C870 N878 1.356 . S
C871 C870 1.363 . S
C871 C877 1.363 . S
C872 C873 1.363 . S
C872 C877 1.379 . S
C872 N879 1.356 . S
C873 C872 1.363 . S
C873 C876 1.363 . S
N874 C876 1.356 . S
N874 H886 0.984 . S
N874 H887 0.985 . S
N875 C877 1.356 . S
N875 H880 0.984 . S
N875 H881 0.985 . S
C876 C870 1.379 . S
C876 C873 1.363 . S
C876 N874 1.356 . S
C877 C871 1.363 . S
C877 C872 1.379 . S
C877 N875 1.356 . S
N878 C870 1.356 . S
N878 H884 0.984 . S
N878 H885 0.984 . S
N879 C872 1.356 . S
N879 H882 0.984 . S
N879 H883 0.985 . S
H880 N875 0.984 . S
H881 N875 0.985 . S
H882 N879 0.984 . S
H883 N879 0.985 . S
H884 N878 0.984 . S
H885 N878 0.984 . S
H886 N874 0.984 . S
H887 N874 0.985 . S
C888 C889 1.363 . S
C888 C894 1.379 . S
C888 N896 1.356 . S
C889 C888 1.363 . S
C889 C895 1.363 . S
C890 C891 1.363 . S
C890 C895 1.379 . S
C890 N897 1.356 . S
C891 C890 1.363 . S
C891 C894 1.363 . S
N892 C894 1.356 . S
N892 H904 0.984 . S
N892 H905 0.985 . S
N893 C895 1.356 . S
N893 H898 0.984 . S
N893 H899 0.985 . S
C894 C888 1.379 . S
C894 C891 1.363 . S
C894 N892 1.356 . S
C895 C889 1.363 . S
C895 C890 1.379 . S
C895 N893 1.356 . S
N896 C888 1.356 . S
N896 H902 0.984 . S
N896 H903 0.984 . S
N897 C890 1.356 . S
N897 H900 0.984 . S
N897 H901 0.985 . S
H898 N893 0.984 . S
H899 N893 0.985 . S
H900 N897 0.984 . S
H901 N897 0.985 . S
H902 N896 0.984 . S
H903 N896 0.984 . S
H904 N892 0.984 . S
H905 N892 0.985 . S
C906 C907 1.363 . S
C906 C912 1.379 . S
C906 N914 1.356 . S
C907 C906 1.363 . S
C907 C913 1.363 . S
C908 C909 1.363 . S
C908 C913 1.379 . S
C908 N915 1.356 . S
C909 C908 1.363 . S
C909 C912 1.363 . S
N910 C912 1.356 . S
N910 H922 0.984 . S
N910 H923 0.985 . S
N911 C913 1.356 . S
N911 H916 0.984 . S
N911 H917 0.985 . S
C912 C906 1.379 . S
C912 C909 1.363 . S
C912 N910 1.356 . S
C913 C907 1.363 . S
C913 C908 1.379 . S
C913 N911 1.356 . S
N914 C906 1.356 . S
N914 H920 0.984 . S
N914 H921 0.984 . S
N915 C908 1.356 . S
N915 H918 0.984 . S
N915 H919 0.985 . S
H916 N911 0.984 . S
H917 N911 0.985 . S
H918 N915 0.984 . S
H919 N915 0.985 . S
H920 N914 0.984 . S
H921 N914 0.984 . S
H922 N910 0.984 . S
H923 N910 0.985 . S
C924 C925 1.363 . S
C924 C930 1.379 1_554 S
C924 N932 1.356 . S
C925 C924 1.363 . S
C925 C931 1.363 . S
C926 C927 1.363 . S
C926 C931 1.379 1_556 S
C926 N933 1.356 . S
C927 C926 1.363 . S
C927 C930 1.363 . S
N928 C930 1.356 . S
N928 H940 0.984 . S
N928 H941 0.985 . S
N929 C931 1.356 . S
N929 H934 0.984 . S
N929 H935 0.985 . S
C930 C924 1.379 1_556 S
C930 C927 1.363 . S
C930 N928 1.356 . S
C931 C925 1.363 . S
C931 C926 1.379 1_554 S
C931 N929 1.356 . S
N932 C924 1.356 . S
N932 H938 0.984 . S
N932 H939 0.984 . S
N933 C926 1.356 . S
N933 H936 0.984 . S
N933 H937 0.985 . S
H934 N929 0.984 . S
H935 N929 0.985 . S
H936 N933 0.984 . S
H937 N933 0.985 . S
H938 N932 0.984 . S
H939 N932 0.984 . S
H940 N928 0.984 . S
H941 N928 0.985 . S
C942 C943 1.363 . S
C942 C948 1.379 . S
C942 N950 1.356 . S
C943 C942 1.363 . S
C943 C949 1.363 . S
C944 C945 1.363 . S
C944 C949 1.379 . S
C944 N951 1.356 . S
C945 C944 1.363 . S
C945 C948 1.363 . S
N946 C948 1.356 . S
N946 H958 0.984 . S
N946 H959 0.985 . S
N947 C949 1.356 . S
N947 H952 0.984 . S
N947 H953 0.985 . S
C948 C942 1.379 . S
C948 C945 1.363 . S
C948 N946 1.356 . S
C949 C943 1.363 . S
C949 C944 1.379 . S
C949 N947 1.356 . S
N950 C942 1.356 . S
N950 H956 0.984 . S
N950 H957 0.984 . S
N951 C944 1.356 . S
N951 H954 0.984 . S
N951 H955 0.985 . S
H952 N947 0.984 . S
H953 N947 0.985 . S
H954 N951 0.984 . S
H955 N951 0.985 . S
H956 N950 0.984 . S
H957 N950 0.984 . S
H958 N946 0.984 . S
H959 N946 0.985 . S
C531 C517 1.242 . S
C529 C51 1.209 . S
C547 C125 1.762 . S
C549 C447 1.784 . S
C565 C217 2.243 . S
C567 C466 2.237 . S
C583 C291 1.984 . S
C585 C475 2.038 . S
C603 C489 0.828 . S
C601 C347 0.821 . S
C619 C421 1.267 . S
C621 C508 1.305 . S
C637 C143 2.473 . S
C639 C461 2.510 . S
C655 C199 1.251 . S
C657 C480 1.254 . S
C673 C273 1.134 . S
C675 C494 1.158 . S
C693 C503 1.343 . S
C691 C365 1.335 . S
C711 C522 2.195 . S
C709 C439 2.165 . S
C729 C452 2.030 . S
C727 C69 2.059 . S
C745 C63 1.616 . S
C747 C467 1.733 . S
C763 C137 1.482 . S
C765 C479 1.576 . S
C783 C493 1.564 . S
C781 C187 1.469 . S
C799 C261 1.556 . S
C801 C509 1.680 1_556 S
C819 C521 1.519 . S
C817 C359 1.414 1_565 S
C837 C451 1.475 . S
C835 C433 1.397 . S
C855 C523 1.603 . S
C853 C113 1.569 . S
C871 C211 1.546 . S
C873 C453 1.619 . S
C891 C465 1.711 . S
C889 C285 1.566 . S
C907 C335 1.433 . S
C909 C481 1.456 . S
C925 C409 1.531 . S
C927 C495 1.661 . S
C943 C39 1.732 . S
C945 C507 1.823 . S
