# Generated by pormake.
# Topology rtl, (3,6)-cn, num edge types: 1
# Building blocks:
#     Node 0, Type 0, BuildingBlock: VETTIZ_charged_linker_0, # of connection points: 3
#     Node 1, Type 0, BuildingBlock: VETTIZ_charged_linker_0, # of connection points: 3
#     Node 2, Type 0, BuildingBlock: VETTIZ_charged_linker_0, # of connection points: 3
#     Node 3, Type 0, BuildingBlock: VETTIZ_charged_linker_0, # of connection points: 3
#     Node 4, Type 1, BuildingBlock: CIFDUS_clean_sbu_1, # of connection points: 6
#     Node 5, Type 1, BuildingBlock: CIFDUS_clean_sbu_1, # of connection points: 6
#     Edge 6, Type (0, 1), BuildingBlock: AJUNOK_clean_linker_0, # of connection points: 2
#     Edge 7, Type (0, 1), BuildingBlock: AJUNOK_clean_linker_0, # of connection points: 2
#     Edge 8, Type (0, 1), BuildingBlock: AJUNOK_clean_linker_0, # of connection points: 2
#     Edge 9, Type (0, 1), BuildingBlock: AJUNOK_clean_linker_0, # of connection points: 2
#     Edge 10, Type (0, 1), BuildingBlock: AJUNOK_clean_linker_0, # of connection points: 2
#     Edge 11, Type (0, 1), BuildingBlock: AJUNOK_clean_linker_0, # of connection points: 2
#     Edge 12, Type (0, 1), BuildingBlock: AJUNOK_clean_linker_0, # of connection points: 2
#     Edge 13, Type (0, 1), BuildingBlock: AJUNOK_clean_linker_0, # of connection points: 2
#     Edge 14, Type (0, 1), BuildingBlock: AJUNOK_clean_linker_0, # of connection points: 2
#     Edge 15, Type (0, 1), BuildingBlock: AJUNOK_clean_linker_0, # of connection points: 2
#     Edge 16, Type (0, 1), BuildingBlock: AJUNOK_clean_linker_0, # of connection points: 2
#     Edge 17, Type (0, 1), BuildingBlock: AJUNOK_clean_linker_0, # of connection points: 2
# Relax obj value: 0.030
# Max RMSD: 0.064
# Mean RMSD: 0.050
data_MOF--net-rtl--node1-CIFDUS_clean_sbu_1--node2-VETTIZ_charged_linker_0--edge1-AJUNOK_clean_linker_0
_symmetry_space_group_name_H-M    P1
_symmetry_Int_Tables_number       1
_symmetry_cell_setting            triclinic
loop_
_symmetry_equiv_pos_as_xyz
'x, y, z'
_cell_length_a     28.877255
_cell_length_b     32.956077
_cell_length_c     23.004079
_cell_angle_alpha  90.104039
_cell_angle_beta   97.652645
_cell_angle_gamma 90.226232
loop_
_atom_site_label
_atom_site_type_symbol
_atom_site_fract_x
_atom_site_fract_y
_atom_site_fract_z
_atom_type_partial_charge
C0 C 0.23622 0.93099 0.89472 0.0
C1 C 0.20045 0.9594 0.88301 0.0
C2 C 0.18564 0.98121 0.92991 0.0
C3 C 0.23885 0.94272 0.99982 0.0
C4 C 0.25429 0.92274 0.95312 0.0
C5 C 0.2859 0.88814 0.9726 0.0
H6 H 0.40278 0.77026 0.18171 0.0
C7 C 0.26102 0.92319 0.05496 0.0
C8 C 0.28845 0.89119 0.03897 0.0
H9 H 0.3709 0.75256 0.99402 0.0
H10 H 0.33638 0.8167 0.9837 0.0
H11 H 0.40725 0.87405 0.19145 0.0
H12 H 0.28688 0.79386 0.18148 0.0
H13 H 0.28648 0.83003 0.23788 0.0
H14 H 0.33222 0.79284 0.24309 0.0
H15 H 0.40148 0.83689 0.24725 0.0
H16 H 0.37177 0.88479 0.24673 0.0
C17 C 0.33402 0.89676 0.95216 0.0
C18 C 0.26108 0.84852 0.94739 0.0
C19 C 0.21494 0.96734 0.25093 0.0
C20 C 0.22506 0.95253 0.30841 0.0
C21 C 0.25993 0.92269 0.32015 0.0
C22 C 0.28298 0.90672 0.27484 0.0
C23 C 0.27023 0.91996 0.21676 0.0
C24 C 0.23768 0.95076 0.20607 0.0
C25 C 0.22683 0.96036 0.14183 0.0
C26 C 0.25745 0.93005 0.11535 0.0
C27 C 0.2829 0.90589 0.15927 0.0
C28 C 0.24237 0.00456 0.13239 0.0
C29 C 0.17411 0.95211 0.12231 0.0
C30 C 0.38691 0.78 0.13875 0.0
C31 C 0.39396 0.75776 0.08772 0.0
C32 C 0.36985 0.77031 0.03354 0.0
C33 C 0.3477 0.80738 0.0275 0.0
C34 C 0.34139 0.82981 0.07718 0.0
C35 C 0.35874 0.81556 0.13224 0.0
C36 C 0.3405 0.84114 0.17934 0.0
C37 C 0.31122 0.87328 0.1426 0.0
C38 C 0.31314 0.86622 0.08277 0.0
C39 C 0.38236 0.86022 0.21873 0.0
C40 C 0.31004 0.81322 0.21274 0.0
H41 H 0.19165 0.99036 0.0222 0.0
H42 H 0.24782 0.91364 0.85932 0.0
H43 H 0.2234 0.85301 0.93126 0.0
H44 H 0.26079 0.8246 0.98115 0.0
H45 H 0.27745 0.83655 0.90982 0.0
H46 H 0.34447 0.92901 0.9606 0.0
H47 H 0.33276 0.89105 0.90436 0.0
H48 H 0.36255 0.87856 0.97587 0.0
H49 H 0.18729 0.9893 0.2403 0.0
H50 H 0.26747 0.91014 0.36386 0.0
H51 H 0.30866 0.88367 0.28632 0.0
H52 H 0.27642 0.01119 0.15951 0.0
H53 H 0.21637 0.02648 0.14515 0.0
H54 H 0.24814 0.01063 0.08672 0.0
H55 H 0.16144 0.92632 0.14718 0.0
H56 H 0.16629 0.94288 0.0759 0.0
H57 H 0.15274 0.97908 0.12994 0.0
H58 H 0.15833 0.0037 0.92139 0.0
C59 C 0.20498 0.97333 0.98826 0.0
C60 C 0.72006 0.61677 0.78487 0.0
C61 C 0.68836 0.58432 0.7875 0.0
C62 C 0.67341 0.56204 0.73621 0.0
C63 C 0.71822 0.60589 0.67983 0.0
C64 C 0.73517 0.62655 0.73067 0.0
C65 C 0.7686 0.66006 0.71878 0.0
H66 H 0.86525 0.7747 0.51958 0.0
C67 C 0.73712 0.62544 0.62996 0.0
C68 C 0.76729 0.65697 0.6524 0.0
H69 H 0.88448 0.78844 0.70778 0.0
H70 H 0.83734 0.72821 0.71714 0.0
H71 H 0.87402 0.67075 0.52093 0.0
H72 H 0.76325 0.75855 0.50339 0.0
H73 H 0.74254 0.7173 0.45929 0.0
H74 H 0.7932 0.74499 0.44275 0.0
H75 H 0.86092 0.70323 0.45835 0.0
H76 H 0.83124 0.65535 0.46304 0.0
C77 C 0.81746 0.64955 0.75122 0.0
C78 C 0.74892 0.70094 0.7376 0.0
C79 C 0.67319 0.58355 0.42178 0.0
C80 C 0.68026 0.59828 0.36636 0.0
C81 C 0.71439 0.62843 0.36259 0.0
C82 C 0.74041 0.64435 0.4136 0.0
C83 C 0.73149 0.63057 0.46901 0.0
C84 C 0.69884 0.60018 0.47225 0.0
C85 C 0.69383 0.58914 0.53452 0.0
C86 C 0.72766 0.61891 0.56837 0.0
C87 C 0.74973 0.64305 0.52983 0.0
C88 C 0.71004 0.54462 0.54475 0.0
C89 C 0.64245 0.59703 0.54407 0.0
C90 C 0.85991 0.76418 0.5628 0.0
C91 C 0.87831 0.78622 0.61312 0.0
C92 C 0.87065 0.7718 0.66859 0.0
C93 C 0.84311 0.73697 0.67378 0.0
C94 C 0.82318 0.71616 0.62292 0.0
C95 C 0.83278 0.72932 0.56865 0.0
C96 C 0.80797 0.70421 0.51918 0.0
C97 C 0.78113 0.67437 0.55244 0.0
C98 C 0.7902 0.68124 0.61335 0.0
C99 C 0.84526 0.6823 0.4882 0.0
C100 C 0.77519 0.73245 0.47857 0.0
H101 H 0.6738 0.55525 0.64492 0.0
H102 H 0.73168 0.63471 0.8236 0.0
H103 H 0.71029 0.70181 0.72593 0.0
H104 H 0.76213 0.72727 0.71517 0.0
H105 H 0.75694 0.7055 0.78575 0.0
H106 H 0.82439 0.61648 0.74806 0.0
H107 H 0.82014 0.65755 0.79848 0.0
H108 H 0.84611 0.66456 0.73206 0.0
H109 H 0.64738 0.56011 0.42578 0.0
H110 H 0.72103 0.63948 0.32013 0.0
H111 H 0.76609 0.66713 0.40799 0.0
H112 H 0.73853 0.53712 0.51843 0.0
H113 H 0.68087 0.52297 0.5319 0.0
H114 H 0.72527 0.53873 0.59061 0.0
H115 H 0.62865 0.62461 0.51996 0.0
H116 H 0.63825 0.60307 0.59022 0.0
H117 H 0.61954 0.57111 0.52792 0.0
H118 H 0.64839 0.53752 0.73711 0.0
C119 C 0.68795 0.57265 0.68258 0.0
C120 C 0.81662 0.1157 0.21065 0.0
C121 C 0.85186 0.08603 0.22061 0.0
C122 C 0.86052 0.06116 0.17329 0.0
C123 C 0.80691 0.10055 0.1062 0.0
C124 C 0.79434 0.12216 0.15308 0.0
C125 C 0.75482 0.15103 0.13374 0.0
H126 H 0.66296 0.28038 0.92591 0.0
C127 C 0.78169 0.11754 0.05155 0.0
C128 C 0.75112 0.14735 0.06693 0.0
H129 H 0.62619 0.26437 0.10061 0.0
H130 H 0.66896 0.20179 0.11081 0.0
H131 H 0.76579 0.24852 0.93696 0.0
H132 H 0.64223 0.17255 0.90181 0.0
H133 H 0.683 0.16117 0.85354 0.0
H134 H 0.65614 0.21048 0.85076 0.0
H135 H 0.72645 0.25255 0.86971 0.0
H136 H 0.7708 0.21413 0.87907 0.0
C137 C 0.76949 0.19399 0.15653 0.0
C138 C 0.71046 0.1344 0.15696 0.0
C139 C 0.83255 0.07337 0.8595 0.0
C140 C 0.82608 0.08865 0.80212 0.0
C141 C 0.79444 0.12099 0.78898 0.0
C142 C 0.77129 0.13863 0.83317 0.0
C143 C 0.78039 0.12417 0.89123 0.0
C144 C 0.8106 0.0919 0.90303 0.0
C145 C 0.81996 0.08206 0.96699 0.0
C146 C 0.78824 0.112 0.992 0.0
C147 C 0.76519 0.13711 0.94788 0.0
C148 C 0.87243 0.0912 0.98754 0.0
C149 C 0.8049 0.03747 0.97568 0.0
C150 C 0.66383 0.26305 0.96597 0.0
C151 C 0.6441 0.27877 0.01427 0.0
C152 C 0.64342 0.25408 0.06421 0.0
C153 C 0.66838 0.21785 0.07032 0.0
C154 C 0.69332 0.20535 0.02542 0.0
C155 C 0.68737 0.2254 0.97222 0.0
C156 C 0.71022 0.20234 0.92671 0.0
C157 C 0.73467 0.16811 0.96355 0.0
C158 C 0.7257 0.17129 0.02209 0.0
C159 C 0.74511 0.23076 0.9013 0.0
C160 C 0.67108 0.18583 0.8803 0.0
H161 H 0.84794 0.04904 0.08237 0.0
H162 H 0.80736 0.13388 0.24656 0.0
H163 H 0.71212 0.1009 0.16307 0.0
H164 H 0.67842 0.13906 0.12564 0.0
H165 H 0.70599 0.14814 0.19998 0.0
H166 H 0.80365 0.20262 0.14273 0.0
H167 H 0.77314 0.19512 0.20518 0.0
H168 H 0.7444 0.21769 0.14025 0.0
H169 H 0.85669 0.04871 0.87131 0.0
H170 H 0.78946 0.13399 0.74541 0.0
H171 H 0.74868 0.16385 0.82101 0.0
H172 H 0.88379 0.11916 0.96624 0.0
H173 H 0.89482 0.0659 0.97592 0.0
H174 H 0.88052 0.0973 0.03488 0.0
H175 H 0.77657 0.02782 0.94074 0.0
H176 H 0.78994 0.03305 0.01711 0.0
H177 H 0.83462 0.01632 0.97452 0.0
H178 H 0.88478 0.0361 0.18008 0.0
C179 C 0.83864 0.06842 0.1164 0.0
C180 C 0.28017 0.42873 0.31035 0.0
C181 C 0.31204 0.46126 0.30826 0.0
C182 C 0.31933 0.48791 0.35679 0.0
C183 C 0.27324 0.44489 0.41241 0.0
C184 C 0.26057 0.4216 0.3627 0.0
C185 C 0.2263 0.38864 0.37412 0.0
H186 H 0.13141 0.27258 0.57153 0.0
C187 C 0.25267 0.42669 0.46209 0.0
C188 C 0.22405 0.39411 0.4397 0.0
H189 H 0.11527 0.25847 0.38353 0.0
H190 H 0.15622 0.32204 0.37437 0.0
H191 H 0.23215 0.29494 0.58728 0.0
H192 H 0.11447 0.37572 0.57056 0.0
H193 H 0.15646 0.39471 0.62662 0.0
H194 H 0.13107 0.3452 0.63444 0.0
H195 H 0.19911 0.30406 0.64671 0.0
H196 H 0.24799 0.33565 0.6347 0.0
C197 C 0.24705 0.34712 0.3599 0.0
C198 C 0.17877 0.39824 0.33728 0.0
C199 C 0.31862 0.4656 0.67243 0.0
C200 C 0.31049 0.45043 0.72742 0.0
C201 C 0.27411 0.42225 0.72983 0.0
C202 C 0.24762 0.40777 0.67828 0.0
C203 C 0.2577 0.42135 0.62332 0.0
C204 C 0.29164 0.45083 0.62103 0.0
C205 C 0.29573 0.46299 0.55863 0.0
C206 C 0.26144 0.43366 0.52391 0.0
C207 C 0.23915 0.40945 0.56221 0.0
C208 C 0.34685 0.45585 0.54783 0.0
C209 C 0.27931 0.50755 0.5501 0.0
C210 C 0.13563 0.28397 0.52837 0.0
C211 C 0.1202 0.26083 0.47803 0.0
C212 C 0.12676 0.27604 0.42267 0.0
C213 C 0.15086 0.31276 0.41764 0.0
C214 C 0.16911 0.33426 0.46863 0.0
C215 C 0.15984 0.32051 0.52273 0.0
C216 C 0.18311 0.3464 0.57234 0.0
C217 C 0.20858 0.37752 0.53934 0.0
C218 C 0.20051 0.37019 0.47845 0.0
C219 C 0.2172 0.31915 0.61286 0.0
C220 C 0.14452 0.36648 0.60318 0.0
H221 H 0.30946 0.50026 0.44467 0.0
H222 H 0.27235 0.40836 0.27332 0.0
H223 H 0.17221 0.4315 0.3361 0.0
H224 H 0.14881 0.38506 0.35597 0.0
H225 H 0.17797 0.38762 0.2913 0.0
H226 H 0.28525 0.3464 0.37515 0.0
H227 H 0.24183 0.34119 0.31192 0.0
H228 H 0.23235 0.32148 0.38218 0.0
H229 H 0.3456 0.48816 0.66961 0.0
H230 H 0.26665 0.41096 0.77182 0.0
H231 H 0.22082 0.38589 0.68316 0.0
H232 H 0.35919 0.42572 0.56512 0.0
H233 H 0.37043 0.47939 0.57033 0.0
H234 H 0.35159 0.45573 0.50119 0.0
H235 H 0.25235 0.51499 0.57877 0.0
H236 H 0.262 0.51355 0.50512 0.0
H237 H 0.30884 0.52915 0.56097 0.0
H238 H 0.34141 0.51446 0.35552 0.0
C239 C 0.30061 0.47975 0.40865 0.0
O240 O 0.97753 0.04247 0.48098 0.0
Mn241 Mn 0.02138 0.01715 0.55278 0.0
O242 O 0.94795 0.99095 0.42518 0.0
Mn243 Mn 0.98786 0.9553 0.46661 0.0
O244 O 0.06693 0.99276 0.6255 0.0
O245 O 0.04998 0.07575 0.56134 0.0
Mn246 Mn 0.05479 0.08105 0.63858 0.0
O247 O 0.96927 0.03037 0.60785 0.0
O248 O 0.09765 0.04658 0.67604 0.0
O249 O 0.07428 0.00357 0.49739 0.0
O250 O 0.04521 0.95122 0.44334 0.0
O251 O 0.07716 0.12842 0.61911 0.0
O252 O 0.99801 0.08195 0.6648 0.0
C253 C 0.96947 0.92294 0.5345 0.0
C254 C 0.95055 0.02841 0.4366 0.0
C255 C 0.09586 0.00879 0.66699 0.0
C256 C 0.06804 0.11272 0.56707 0.0
C257 C 0.96583 0.05662 0.64867 0.0
C258 C 0.07804 0.976 0.45816 0.0
O259 O 0.98922 0.95927 0.54401 0.0
O260 O 0.96323 0.9082 0.4817 0.0
O261 O 0.54927 0.53882 0.12152 0.0
Mn262 Mn 0.50541 0.5168 0.04864 0.0
O263 O 0.5468 0.48821 0.18391 0.0
Mn264 Mn 0.51724 0.45392 0.12656 0.0
O265 O 0.45749 0.49462 0.97223 0.0
O266 O 0.47875 0.57606 0.0439 0.0
Mn267 Mn 0.47797 0.5649 0.9658 0.0
O268 O 0.56242 0.53122 1.00181 0.0
O269 O 0.41984 0.54974 0.93831 0.0
O270 O 0.44962 0.50649 0.10131 0.0
O271 O 0.45528 0.44296 0.12603 0.0
O272 O 0.49571 0.61575 0.97242 0.0
O273 O 0.51953 0.54293 0.92029 0.0
C274 C 0.55465 0.42212 0.07531 0.0
C275 C 0.56033 0.5235 0.17235 0.0
C276 C 0.42259 0.51166 0.93915 0.0
C277 C 0.48912 0.61258 0.02624 0.0
C278 C 0.55943 0.53792 0.947 0.0
C279 C 0.43193 0.47485 0.12283 0.0
O280 O 0.5374 0.45787 0.05575 0.0
O281 O 0.5475 0.40862 0.12621 0.0
C282 C 0.05733 0.20828 0.48379 0.0
C283 C 0.10476 0.2183 0.48447 0.0
C284 C 0.04387 0.16932 0.50066 0.0
C285 C 0.0774 0.13935 0.51881 0.0
H286 H 0.03087 0.2314 0.47419 0.0
H287 H 0.00756 0.16417 0.5059 0.0
S288 S 0.20558 0.15027 0.52435 0.0
N289 N 0.18478 0.19473 0.50068 0.0
N290 N 0.15957 0.12198 0.53259 0.0
C291 C 0.12444 0.14832 0.51487 0.0
C292 C 0.13813 0.1878 0.49812 0.0
C293 C 0.4289 0.68847 0.11976 0.0
C294 C 0.42854 0.724 0.08534 0.0
C295 C 0.45181 0.65267 0.10413 0.0
C296 C 0.47404 0.65123 0.05289 0.0
H297 H 0.409 0.6875 0.15644 0.0
H298 H 0.44958 0.62551 0.13008 0.0
S299 S 0.4848 0.73777 0.95052 0.0
N300 N 0.45826 0.75682 1.00323 0.0
N301 N 0.49458 0.69028 0.96951 0.0
C302 C 0.47585 0.68772 0.02075 0.0
C303 C 0.45518 0.72388 0.03834 0.0
C304 C 0.95009 0.83096 0.62129 0.0
C305 C 0.90145 0.8261 0.60686 0.0
C306 C 0.97278 0.86675 0.60633 0.0
C307 C 0.94745 0.89908 0.57763 0.0
H308 H 0.97102 0.80591 0.64034 0.0
H309 H 0.01063 0.8675 0.61207 0.0
S310 S 0.81911 0.90215 0.53459 0.0
N311 N 0.82858 0.85726 0.56561 0.0
N312 N 0.87077 0.92448 0.53903 0.0
C313 C 0.89845 0.89554 0.5676 0.0
C314 C 0.8756 0.859 0.58148 0.0
C315 C 0.59271 0.33901 0.97959 0.0
C316 C 0.62953 0.32202 0.01831 0.0
C317 C 0.57157 0.37594 0.99337 0.0
C318 C 0.58708 0.39688 0.04585 0.0
H319 H 0.57764 0.32211 0.94123 0.0
H320 H 0.54029 0.38589 0.96593 0.0
S321 S 0.68665 0.36775 0.15717 0.0
N322 N 0.68412 0.33166 0.10711 0.0
N323 N 0.64496 0.4 0.13285 0.0
C324 C 0.6271 0.38214 0.08123 0.0
C325 C 0.6481 0.34494 0.06758 0.0
C326 C 0.15108 0.93536 0.34497 0.0
C327 C 0.19103 0.95979 0.35052 0.0
C328 C 0.11631 0.941 0.38079 0.0
C329 C 0.11907 0.97173 0.42441 0.0
H330 H 0.14637 0.91166 0.31192 0.0
H331 H 0.08645 0.92081 0.373 0.0
S332 S 0.21795 0.04418 0.45667 0.0
N333 N 0.23276 0.01589 0.40265 0.0
N334 N 0.16668 0.027 0.4707 0.0
C335 C 0.15938 0.99652 0.43077 0.0
C336 C 0.19541 0.99047 0.39372 0.0
C337 C 0.6698 0.54089 0.87195 0.0
C338 C 0.6639 0.57729 0.83957 0.0
C339 C 0.63823 0.52936 0.91109 0.0
C340 C 0.59908 0.55337 0.91763 0.0
H341 H 0.69758 0.52028 0.86468 0.0
H342 H 0.64266 0.50032 0.93303 0.0
S343 S 0.56954 0.65236 0.84431 0.0
N344 N 0.61795 0.63813 0.81934 0.0
N345 N 0.55807 0.6164 0.89021 0.0
C346 C 0.59439 0.59073 0.88725 0.0
C347 C 0.6269 0.6027 0.8489 0.0
C348 C 0.85747 0.0781 0.33063 0.0
C349 C 0.87959 0.08009 0.27959 0.0
C350 C 0.882 0.06541 0.38455 0.0
C351 C 0.92954 0.05517 0.3893 0.0
H352 H 0.8203 0.08358 0.32807 0.0
H353 H 0.86296 0.06089 0.42156 0.0
S354 S 0.00505 0.05966 0.27134 0.0
N355 N 0.95337 0.07481 0.23961 0.0
N356 N 0.99856 0.05031 0.34027 0.0
C357 C 0.95274 0.05988 0.33995 0.0
C358 C 0.92803 0.07256 0.28528 0.0
C359 C 0.32272 0.49506 0.81631 0.0
C360 C 0.3391 0.46402 0.78271 0.0
C361 C 0.34879 0.50813 0.869 0.0
C362 C 0.39224 0.49048 0.89077 0.0
H363 H 0.28983 0.50979 0.80127 0.0
H364 H 0.33535 0.53324 0.89213 0.0
S365 S 0.45011 0.40779 0.81863 0.0
N366 N 0.40084 0.41545 0.77462 0.0
N367 N 0.45011 0.44018 0.87355 0.0
C368 C 0.40847 0.45881 0.85794 0.0
C369 C 0.38191 0.44563 0.80394 0.0
C370 C 0.6534 0.53942 0.30257 0.0
C371 C 0.65233 0.58133 0.31302 0.0
C372 C 0.62422 0.52159 0.25601 0.0
C373 C 0.59266 0.54489 0.21793 0.0
H374 H 0.67656 0.52012 0.33124 0.0
H375 H 0.62613 0.48904 0.25014 0.0
S376 S 0.57637 0.65624 0.22663 0.0
N377 N 0.61755 0.64604 0.28166 0.0
N378 N 0.56257 0.61246 0.19341 0.0
C379 C 0.59208 0.58714 0.22679 0.0
C380 C 0.62192 0.60536 0.2746 0.0
C381 C 0.90665 0.07322 0.78223 0.0
C382 C 0.85882 0.07535 0.76076 0.0
C383 C 0.93978 0.06361 0.74571 0.0
C384 C 0.92722 0.05631 0.68537 0.0
H385 H 0.91912 0.08061 0.82755 0.0
H386 H 0.97621 0.06379 0.76472 0.0
S387 S 0.80624 0.05283 0.6079 0.0
N388 N 0.79977 0.06511 0.67611 0.0
N389 N 0.86307 0.04797 0.6064 0.0
C390 C 0.8794 0.05599 0.66335 0.0
C391 C 0.84506 0.06567 0.70116 0.0
C392 C 0.32245 0.46433 0.19946 0.0
C393 C 0.34141 0.46615 0.25934 0.0
C394 C 0.35094 0.46985 0.15432 0.0
C395 C 0.39917 0.47812 0.16752 0.0
H396 H 0.2855 0.45842 0.18744 0.0
H397 H 0.33545 0.46657 0.10902 0.0
S398 S 0.46706 0.48022 0.3163 0.0
N399 N 0.41272 0.47214 0.32816 0.0
N400 N 0.46482 0.48437 0.24454 0.0
C401 C 0.4183 0.47933 0.22701 0.0
C402 C 0.3899 0.4729 0.27247 0.0
C403 C 0.19652 0.99105 0.78406 0.0
C404 C 0.17708 0.96488 0.82225 0.0
C405 C 0.17188 1.0008 0.72921 0.0
C406 C 0.12684 0.98487 0.71057 0.0
H407 H 0.22979 0.00576 0.79794 0.0
H408 H 0.1866 0.02363 0.70308 0.0
S409 S 0.06454 0.90958 0.7914 0.0
N410 N 0.11357 0.91881 0.83534 0.0
N411 N 0.0666 0.93781 0.73242 0.0
C412 C 0.10899 0.95584 0.74637 0.0
C413 C 0.13423 0.94584 0.80237 0.0
loop_
_geom_bond_atom_site_label_1
_geom_bond_atom_site_label_2
_geom_bond_distance
_geom_bond_site_symmetry_2
_ccdc_geom_bond_type
C0 C1 1.391 . S
C0 C4 1.391 . S
C0 H42 0.948 . S
C1 C0 1.391 . S
C1 C2 1.391 . S
C2 C1 1.391 . S
C2 H58 0.947 1_565 S
C2 C59 1.392 . S
C3 C4 1.391 . S
C3 C7 1.397 1_556 S
C3 C59 1.419 . S
C4 C0 1.391 . S
C4 C3 1.391 . S
C4 C5 1.399 . S
C5 C4 1.399 . S
C5 C8 1.396 1_556 S
C5 C17 1.453 . S
C5 C18 1.684 . S
H6 C30 0.948 . S
C7 C3 1.397 1_554 S
C7 C8 1.394 . S
C7 C26 1.723 . S
C8 C5 1.396 1_554 S
C8 C7 1.394 . S
C8 C38 1.723 . S
H9 C32 0.960 . S
H10 C33 0.948 1_556 S
H11 C39 0.982 . S
H12 C40 0.979 . S
H13 C40 0.980 . S
H14 C40 0.983 . S
H15 C39 0.979 . S
H16 C39 0.977 . S
C17 C5 1.453 . S
C17 H46 0.982 . S
C17 H47 0.979 . S
C17 H48 0.977 . S
C18 C5 1.684 . S
C18 H43 0.979 . S
C18 H44 0.980 . S
C18 H45 0.983 . S
C19 C20 1.391 . S
C19 C24 1.391 . S
C19 H49 0.948 . S
C20 C19 1.391 . S
C20 C21 1.391 . S
C21 C20 1.391 . S
C21 C22 1.392 . S
C21 H50 0.947 . S
C22 C21 1.392 . S
C22 C23 1.419 . S
C22 H51 0.948 . S
C23 C22 1.419 . S
C23 C24 1.391 . S
C23 C27 1.397 . S
C24 C19 1.391 . S
C24 C23 1.391 . S
C24 C25 1.399 . S
C25 C24 1.399 . S
C25 C26 1.396 . S
C25 C28 1.453 . S
C25 C29 1.684 . S
C26 C7 1.723 . S
C26 C25 1.396 . S
C26 C27 1.394 . S
C27 C23 1.397 . S
C27 C26 1.394 . S
C27 C37 1.723 . S
C28 C25 1.453 . S
C28 H52 0.988 . S
C28 H53 0.979 1_565 S
C28 H54 0.977 . S
C29 C25 1.684 . S
C29 H55 0.979 . S
C29 H56 0.980 . S
C29 H57 0.983 . S
C30 H6 0.948 . S
C30 C31 1.391 . S
C30 C35 1.391 . S
C31 C30 1.391 . S
C31 C32 1.391 . S
C32 H9 0.960 . S
C32 C31 1.391 . S
C32 C33 1.392 . S
C33 H10 0.948 1_554 S
C33 C32 1.392 . S
C33 C34 1.419 . S
C34 C33 1.419 . S
C34 C35 1.391 . S
C34 C38 1.397 . S
C35 C30 1.391 . S
C35 C34 1.391 . S
C35 C36 1.399 . S
C36 C35 1.399 . S
C36 C37 1.396 . S
C36 C39 1.453 . S
C36 C40 1.684 . S
C37 C27 1.723 . S
C37 C36 1.396 . S
C37 C38 1.394 . S
C38 C8 1.723 . S
C38 C34 1.397 . S
C38 C37 1.394 . S
C39 H11 0.982 . S
C39 H15 0.979 . S
C39 H16 0.977 . S
C39 C36 1.453 . S
C40 H12 0.979 . S
C40 H13 0.980 . S
C40 H14 0.983 . S
C40 C36 1.684 . S
H41 C59 0.948 1_554 S
H42 C0 0.948 . S
H43 C18 0.979 . S
H44 C18 0.980 . S
H45 C18 0.983 . S
H46 C17 0.982 . S
H47 C17 0.979 . S
H48 C17 0.977 . S
H49 C19 0.948 . S
H50 C21 0.947 . S
H51 C22 0.948 . S
H52 C28 0.988 . S
H53 C28 0.979 1_545 S
H54 C28 0.977 . S
H55 C29 0.979 . S
H56 C29 0.980 . S
H57 C29 0.983 . S
H58 C2 0.947 1_545 S
C59 C2 1.392 . S
C59 C3 1.419 . S
C59 H41 0.948 1_556 S
C60 C61 1.391 . S
C60 C64 1.391 . S
C60 H102 0.948 . S
C61 C60 1.391 . S
C61 C62 1.391 . S
C62 C61 1.391 . S
C62 H118 0.947 . S
C62 C119 1.392 . S
C63 C64 1.391 . S
C63 C67 1.397 . S
C63 C119 1.419 . S
C64 C60 1.391 . S
C64 C63 1.391 . S
C64 C65 1.399 . S
C65 C64 1.399 . S
C65 C68 1.396 . S
C65 C77 1.453 . S
C65 C78 1.684 . S
H66 C90 0.948 . S
C67 C63 1.397 . S
C67 C68 1.394 . S
C67 C86 1.723 . S
C68 C65 1.396 . S
C68 C67 1.394 . S
C68 C98 1.723 . S
H69 C92 0.947 . S
H70 C93 0.948 . S
H71 C99 0.982 . S
H72 C100 0.979 . S
H73 C100 0.980 . S
H74 C100 0.983 . S
H75 C99 0.979 . S
H76 C99 0.977 . S
C77 C65 1.453 . S
C77 H106 0.982 . S
C77 H107 0.979 . S
C77 H108 0.977 . S
C78 C65 1.684 . S
C78 H103 0.979 . S
C78 H104 0.980 . S
C78 H105 0.983 . S
C79 C80 1.391 . S
C79 C84 1.391 . S
C79 H109 0.948 . S
C80 C79 1.391 . S
C80 C81 1.391 . S
C81 C80 1.391 . S
C81 C82 1.392 . S
C81 H110 0.947 . S
C82 C81 1.392 . S
C82 C83 1.419 . S
C82 H111 0.948 . S
C83 C82 1.419 . S
C83 C84 1.391 . S
C83 C87 1.397 . S
C84 C79 1.391 . S
C84 C83 1.391 . S
C84 C85 1.399 . S
C85 C84 1.399 . S
C85 C86 1.396 . S
C85 C88 1.453 . S
C85 C89 1.684 . S
C86 C67 1.723 . S
C86 C85 1.396 . S
C86 C87 1.394 . S
C87 C83 1.397 . S
C87 C86 1.394 . S
C87 C97 1.723 . S
C88 C85 1.453 . S
C88 H112 0.982 . S
C88 H113 0.979 . S
C88 H114 0.977 . S
C89 C85 1.684 . S
C89 H115 0.979 . S
C89 H116 0.980 . S
C89 H117 0.983 . S
C90 H66 0.948 . S
C90 C91 1.391 . S
C90 C95 1.391 . S
C91 C90 1.391 . S
C91 C92 1.391 . S
C92 H69 0.947 . S
C92 C91 1.391 . S
C92 C93 1.392 . S
C93 H70 0.948 . S
C93 C92 1.392 . S
C93 C94 1.419 . S
C94 C93 1.419 . S
C94 C95 1.391 . S
C94 C98 1.397 . S
C95 C90 1.391 . S
C95 C94 1.391 . S
C95 C96 1.399 . S
C96 C95 1.399 . S
C96 C97 1.396 . S
C96 C99 1.453 . S
C96 C100 1.684 . S
C97 C87 1.723 . S
C97 C96 1.396 . S
C97 C98 1.394 . S
C98 C68 1.723 . S
C98 C94 1.397 . S
C98 C97 1.394 . S
C99 H71 0.982 . S
C99 H75 0.979 . S
C99 H76 0.977 . S
C99 C96 1.453 . S
C100 H72 0.979 . S
C100 H73 0.980 . S
C100 H74 0.983 . S
C100 C96 1.684 . S
H101 C119 0.948 . S
H102 C60 0.948 . S
H103 C78 0.979 . S
H104 C78 0.980 . S
H105 C78 0.983 . S
H106 C77 0.982 . S
H107 C77 0.979 . S
H108 C77 0.977 . S
H109 C79 0.948 . S
H110 C81 0.947 . S
H111 C82 0.948 . S
H112 C88 0.982 . S
H113 C88 0.979 . S
H114 C88 0.977 . S
H115 C89 0.979 . S
H116 C89 0.980 . S
H117 C89 0.983 . S
H118 C62 0.947 . S
C119 C62 1.392 . S
C119 C63 1.419 . S
C119 H101 0.948 . S
C120 C121 1.391 . S
C120 C124 1.391 . S
C120 H162 0.948 . S
C121 C120 1.391 . S
C121 C122 1.391 . S
C122 C121 1.391 . S
C122 H178 0.947 . S
C122 C179 1.392 . S
C123 C124 1.391 . S
C123 C127 1.397 . S
C123 C179 1.419 . S
C124 C120 1.391 . S
C124 C123 1.391 . S
C124 C125 1.399 . S
C125 C124 1.399 . S
C125 C128 1.396 . S
C125 C137 1.453 . S
C125 C138 1.684 . S
H126 C150 0.948 . S
C127 C123 1.397 . S
C127 C128 1.394 . S
C127 C146 1.723 1_554 S
C128 C125 1.396 . S
C128 C127 1.394 . S
C128 C158 1.723 . S
H129 C152 0.947 . S
H130 C153 0.948 . S
H131 C159 0.982 . S
H132 C160 0.979 . S
H133 C160 0.980 . S
H134 C160 0.983 . S
H135 C159 0.979 . S
H136 C159 0.977 . S
C137 C125 1.453 . S
C137 H166 0.982 . S
C137 H167 0.979 . S
C137 H168 0.977 . S
C138 C125 1.684 . S
C138 H163 0.979 . S
C138 H164 0.980 . S
C138 H165 0.983 . S
C139 C140 1.391 . S
C139 C144 1.391 . S
C139 H169 0.948 . S
C140 C139 1.391 . S
C140 C141 1.391 . S
C141 C140 1.391 . S
C141 C142 1.392 . S
C141 H170 0.947 . S
C142 C141 1.392 . S
C142 C143 1.419 . S
C142 H171 0.948 . S
C143 C142 1.419 . S
C143 C144 1.391 . S
C143 C147 1.397 . S
C144 C139 1.391 . S
C144 C143 1.391 . S
C144 C145 1.399 . S
C145 C144 1.399 . S
C145 C146 1.396 . S
C145 C148 1.453 . S
C145 C149 1.684 . S
C146 C127 1.723 1_556 S
C146 C145 1.396 . S
C146 C147 1.394 . S
C147 C143 1.397 . S
C147 C146 1.394 . S
C147 C157 1.723 . S
C148 C145 1.453 . S
C148 H172 0.982 . S
C148 H173 0.979 . S
C148 H174 0.977 1_556 S
C149 C145 1.684 . S
C149 H175 0.979 . S
C149 H176 0.980 1_556 S
C149 H177 0.983 . S
C150 H126 0.948 . S
C150 C151 1.388 1_556 S
C150 C155 1.391 . S
C151 C150 1.388 1_554 S
C151 C152 1.395 . S
C152 H129 0.947 . S
C152 C151 1.395 . S
C152 C153 1.392 . S
C153 H130 0.948 . S
C153 C152 1.392 . S
C153 C154 1.419 . S
C154 C153 1.419 . S
C154 C155 1.391 1_554 S
C154 C158 1.397 . S
C155 C150 1.391 . S
C155 C154 1.391 1_556 S
C155 C156 1.399 . S
C156 C155 1.399 . S
C156 C157 1.396 . S
C156 C159 1.453 . S
C156 C160 1.684 . S
C157 C147 1.723 . S
C157 C156 1.396 . S
C157 C158 1.394 1_556 S
C158 C128 1.723 . S
C158 C154 1.397 . S
C158 C157 1.394 1_554 S
C159 H131 0.982 . S
C159 H135 0.979 . S
C159 H136 0.977 . S
C159 C156 1.453 . S
C160 H132 0.979 . S
C160 H133 0.980 . S
C160 H134 0.983 . S
C160 C156 1.684 . S
H161 C179 0.948 . S
H162 C120 0.948 . S
H163 C138 0.979 . S
H164 C138 0.980 . S
H165 C138 0.983 . S
H166 C137 0.982 . S
H167 C137 0.979 . S
H168 C137 0.977 . S
H169 C139 0.948 . S
H170 C141 0.947 . S
H171 C142 0.948 . S
H172 C148 0.982 . S
H173 C148 0.979 . S
H174 C148 0.977 1_554 S
H175 C149 0.979 . S
H176 C149 0.980 1_554 S
H177 C149 0.983 . S
H178 C122 0.947 . S
C179 C122 1.392 . S
C179 C123 1.419 . S
C179 H161 0.948 . S
C180 C181 1.391 . S
C180 C184 1.391 . S
C180 H222 0.948 . S
C181 C180 1.391 . S
C181 C182 1.391 . S
C182 C181 1.391 . S
C182 H238 0.947 . S
C182 C239 1.392 . S
C183 C184 1.391 . S
C183 C187 1.397 . S
C183 C239 1.419 . S
C184 C180 1.391 . S
C184 C183 1.391 . S
C184 C185 1.399 . S
C185 C184 1.399 . S
C185 C188 1.396 . S
C185 C197 1.453 . S
C185 C198 1.684 . S
H186 C210 0.948 . S
C187 C183 1.397 . S
C187 C188 1.394 . S
C187 C206 1.723 . S
C188 C185 1.396 . S
C188 C187 1.394 . S
C188 C218 1.723 . S
H189 C212 0.947 . S
H190 C213 0.948 . S
H191 C219 0.982 . S
H192 C220 0.979 . S
H193 C220 0.980 . S
H194 C220 0.983 . S
H195 C219 0.979 . S
H196 C219 0.977 . S
C197 C185 1.453 . S
C197 H226 0.982 . S
C197 H227 0.979 . S
C197 H228 0.977 . S
C198 C185 1.684 . S
C198 H223 0.979 . S
C198 H224 0.980 . S
C198 H225 0.983 . S
C199 C200 1.391 . S
C199 C204 1.391 . S
C199 H229 0.948 . S
C200 C199 1.391 . S
C200 C201 1.391 . S
C201 C200 1.391 . S
C201 C202 1.392 . S
C201 H230 0.947 . S
C202 C201 1.392 . S
C202 C203 1.419 . S
C202 H231 0.948 . S
C203 C202 1.419 . S
C203 C204 1.391 . S
C203 C207 1.397 . S
C204 C199 1.391 . S
C204 C203 1.391 . S
C204 C205 1.399 . S
C205 C204 1.399 . S
C205 C206 1.396 . S
C205 C208 1.453 . S
C205 C209 1.684 . S
C206 C187 1.723 . S
C206 C205 1.396 . S
C206 C207 1.394 . S
C207 C203 1.397 . S
C207 C206 1.394 . S
C207 C217 1.723 . S
C208 C205 1.453 . S
C208 H232 0.982 . S
C208 H233 0.979 . S
C208 H234 0.977 . S
C209 C205 1.684 . S
C209 H235 0.979 . S
C209 H236 0.980 . S
C209 H237 0.983 . S
C210 H186 0.948 . S
C210 C211 1.391 . S
C210 C215 1.391 . S
C211 C210 1.391 . S
C211 C212 1.391 . S
C212 H189 0.947 . S
C212 C211 1.391 . S
C212 C213 1.392 . S
C213 H190 0.948 . S
C213 C212 1.392 . S
C213 C214 1.419 . S
C214 C213 1.419 . S
C214 C215 1.391 . S
C214 C218 1.397 . S
C215 C210 1.391 . S
C215 C214 1.391 . S
C215 C216 1.399 . S
C216 C215 1.399 . S
C216 C217 1.396 . S
C216 C219 1.453 . S
C216 C220 1.684 . S
C217 C207 1.723 . S
C217 C216 1.396 . S
C217 C218 1.394 . S
C218 C188 1.723 . S
C218 C214 1.397 . S
C218 C217 1.394 . S
C219 H191 0.982 . S
C219 H195 0.979 . S
C219 H196 0.977 . S
C219 C216 1.453 . S
C220 H192 0.979 . S
C220 H193 0.980 . S
C220 H194 0.983 . S
C220 C216 1.684 . S
H221 C239 0.948 . S
H222 C180 0.948 . S
H223 C198 0.979 . S
H224 C198 0.980 . S
H225 C198 0.983 . S
H226 C197 0.982 . S
H227 C197 0.979 . S
H228 C197 0.977 . S
H229 C199 0.948 . S
H230 C201 0.947 . S
H231 C202 0.948 . S
H232 C208 0.982 . S
H233 C208 0.979 . S
H234 C208 0.977 . S
H235 C209 0.979 . S
H236 C209 0.980 . S
H237 C209 0.983 . S
H238 C182 0.947 . S
C239 C182 1.392 . S
C239 C183 1.419 . S
C239 H221 0.948 . S
O240 Mn241 2.163 1_655 S
O240 C254 1.244 . S
Mn241 O240 2.163 1_455 S
Mn241 O244 2.160 1_545 S
Mn241 O245 2.221 . S
Mn241 O247 2.163 1_455 S
Mn241 O249 2.160 1_545 S
Mn241 O259 2.221 1_445 S
O242 Mn243 2.093 . S
O242 C254 1.250 1_565 S
Mn243 O242 2.093 . S
Mn243 O250 2.089 1_655 S
Mn243 O259 2.290 . S
Mn243 O260 2.251 . S
O244 Mn241 2.160 1_565 S
O244 C255 1.239 . S
O245 Mn241 2.221 . S
O245 Mn246 2.290 . S
O245 C256 1.278 . S
Mn246 O245 2.290 . S
Mn246 O248 2.089 . S
Mn246 O251 2.251 . S
Mn246 O252 2.087 1_455 S
O247 Mn241 2.163 1_655 S
O247 C257 1.244 . S
O248 Mn246 2.089 . S
O248 C255 1.256 1_545 S
O249 Mn241 2.160 1_565 S
O249 C258 1.239 . S
O250 Mn243 2.089 1_455 S
O250 C258 1.256 . S
O251 Mn246 2.251 . S
O251 C256 1.241 . S
O252 Mn246 2.087 1_655 S
O252 C257 1.256 . S
C253 O259 1.278 . S
C253 O260 1.241 . S
C254 O240 1.244 . S
C254 O242 1.250 1_545 S
C255 O244 1.239 . S
C255 O248 1.256 1_565 S
C256 O245 1.278 . S
C256 O251 1.241 . S
C257 O247 1.244 . S
C257 O252 1.256 . S
C258 O249 1.239 . S
C258 O250 1.256 . S
O259 Mn241 2.221 1_665 S
O259 Mn243 2.290 . S
O259 C253 1.278 . S
O260 Mn243 2.251 . S
O260 C253 1.241 . S
O261 Mn262 2.163 . S
O261 C275 1.244 . S
Mn262 O261 2.163 . S
Mn262 O265 2.160 1_554 S
Mn262 O266 2.221 . S
Mn262 O268 2.163 1_554 S
Mn262 O270 2.160 . S
Mn262 O280 2.221 . S
O263 Mn264 2.087 . S
O263 C275 1.256 . S
Mn264 O263 2.087 . S
Mn264 O271 2.089 . S
Mn264 O280 2.290 . S
Mn264 O281 2.251 . S
O265 Mn262 2.160 1_556 S
O265 C276 1.239 . S
O266 Mn262 2.221 . S
O266 Mn267 2.290 1_554 S
O266 C277 1.278 . S
Mn267 O266 2.290 1_556 S
Mn267 O269 2.089 . S
Mn267 O272 2.251 . S
Mn267 O273 2.087 . S
O268 Mn262 2.163 1_556 S
O268 C278 1.244 . S
O269 Mn267 2.089 . S
O269 C276 1.256 . S
O270 Mn262 2.160 . S
O270 C279 1.239 . S
O271 Mn264 2.089 . S
O271 C279 1.256 . S
O272 Mn267 2.251 . S
O272 C277 1.241 1_556 S
O273 Mn267 2.087 . S
O273 C278 1.256 . S
C274 O280 1.278 . S
C274 O281 1.241 . S
C275 O261 1.244 . S
C275 O263 1.256 . S
C276 O265 1.239 . S
C276 O269 1.256 . S
C277 O266 1.278 . S
C277 O272 1.241 1_554 S
C278 O268 1.244 . S
C278 O273 1.256 . S
C279 O270 1.239 . S
C279 O271 1.256 . S
O280 Mn262 2.221 . S
O280 Mn264 2.290 . S
O280 C274 1.278 . S
O281 Mn264 2.251 . S
O281 C274 1.241 . S
C282 C283 1.369 . S
C282 C284 1.419 . S
C282 H286 0.930 . S
C283 C282 1.369 . S
C283 C292 1.429 . S
C284 C282 1.419 . S
C284 C285 1.363 . S
C284 H287 0.929 . S
C285 C284 1.363 . S
C285 C291 1.428 . S
H286 C282 0.930 . S
H287 C284 0.929 . S
S288 N289 1.613 . S
S288 N290 1.610 . S
N289 S288 1.613 . S
N289 C292 1.350 . S
N290 S288 1.610 . S
N290 C291 1.351 . S
C291 C285 1.428 . S
C291 N290 1.351 . S
C291 C292 1.434 . S
C292 C283 1.429 . S
C292 N289 1.350 . S
C292 C291 1.434 . S
C293 C294 1.369 . S
C293 C295 1.419 . S
C293 H297 0.930 . S
C294 C293 1.369 . S
C294 C303 1.429 . S
C295 C293 1.419 . S
C295 C296 1.363 . S
C295 H298 0.929 . S
C296 C295 1.363 . S
C296 C302 1.428 . S
H297 C293 0.930 . S
H298 C295 0.929 . S
S299 N300 1.613 . S
S299 N301 1.610 . S
N300 S299 1.613 . S
N300 C303 1.350 1_556 S
N301 S299 1.610 . S
N301 C302 1.351 1_556 S
C302 C296 1.428 . S
C302 N301 1.351 1_554 S
C302 C303 1.434 . S
C303 C294 1.429 . S
C303 N300 1.350 1_554 S
C303 C302 1.434 . S
C304 C305 1.369 . S
C304 C306 1.419 . S
C304 H308 0.930 . S
C305 C304 1.369 . S
C305 C314 1.429 . S
C306 C304 1.419 . S
C306 C307 1.363 . S
C306 H309 0.929 . S
C307 C306 1.363 . S
C307 C313 1.428 . S
H308 C304 0.930 . S
H309 C306 0.929 . S
S310 N311 1.613 . S
S310 N312 1.610 . S
N311 S310 1.613 . S
N311 C314 1.350 . S
N312 S310 1.610 . S
N312 C313 1.351 . S
C313 C307 1.428 . S
C313 N312 1.351 . S
C313 C314 1.434 . S
C314 C305 1.429 . S
C314 N311 1.350 . S
C314 C313 1.434 . S
C315 C316 1.369 . S
C315 C317 1.419 . S
C315 H319 0.930 . S
C316 C315 1.369 . S
C316 C325 1.429 1_556 S
C317 C315 1.419 . S
C317 C318 1.363 1_556 S
C317 H320 0.929 . S
C318 C317 1.363 1_554 S
C318 C324 1.428 . S
H319 C315 0.930 . S
H320 C317 0.929 . S
S321 N322 1.613 . S
S321 N323 1.610 . S
N322 S321 1.613 . S
N322 C325 1.350 . S
N323 S321 1.610 . S
N323 C324 1.351 . S
C324 C318 1.428 . S
C324 N323 1.351 . S
C324 C325 1.434 . S
C325 C316 1.429 1_554 S
C325 N322 1.350 . S
C325 C324 1.434 . S
C326 C327 1.369 . S
C326 C328 1.419 . S
C326 H330 0.930 . S
C327 C326 1.369 . S
C327 C336 1.429 . S
C328 C326 1.419 . S
C328 C329 1.363 . S
C328 H331 0.929 . S
C329 C328 1.363 . S
C329 C335 1.445 . S
H330 C326 0.930 . S
H331 C328 0.929 . S
S332 N333 1.613 . S
S332 N334 1.610 . S
N333 S332 1.613 . S
N333 C336 1.350 1_545 S
N334 S332 1.610 . S
N334 C335 1.331 1_545 S
C335 C329 1.445 . S
C335 N334 1.331 1_565 S
C335 C336 1.438 . S
C336 C327 1.429 . S
C336 N333 1.350 1_565 S
C336 C335 1.438 . S
C337 C338 1.369 . S
C337 C339 1.419 . S
C337 H341 0.930 . S
C338 C337 1.369 . S
C338 C347 1.429 . S
C339 C337 1.419 . S
C339 C340 1.363 . S
C339 H342 0.929 . S
C340 C339 1.363 . S
C340 C346 1.428 . S
H341 C337 0.930 . S
H342 C339 0.929 . S
S343 N344 1.613 . S
S343 N345 1.610 . S
N344 S343 1.613 . S
N344 C347 1.350 . S
N345 S343 1.610 . S
N345 C346 1.351 . S
C346 C340 1.428 . S
C346 N345 1.351 . S
C346 C347 1.434 . S
C347 C338 1.429 . S
C347 N344 1.350 . S
C347 C346 1.434 . S
C348 C349 1.369 . S
C348 C350 1.419 . S
C348 H352 0.930 . S
C349 C348 1.369 . S
C349 C358 1.429 . S
C350 C348 1.419 . S
C350 C351 1.363 . S
C350 H353 0.929 . S
C351 C350 1.363 . S
C351 C357 1.428 . S
H352 C348 0.930 . S
H353 C350 0.929 . S
S354 N355 1.613 . S
S354 N356 1.610 . S
N355 S354 1.613 . S
N355 C358 1.350 . S
N356 S354 1.610 . S
N356 C357 1.351 . S
C357 C351 1.428 . S
C357 N356 1.351 . S
C357 C358 1.434 . S
C358 C349 1.429 . S
C358 N355 1.350 . S
C358 C357 1.434 . S
C359 C360 1.369 . S
C359 C361 1.419 . S
C359 H363 0.930 . S
C360 C359 1.369 . S
C360 C369 1.429 . S
C361 C359 1.419 . S
C361 C362 1.363 . S
C361 H364 0.929 . S
C362 C361 1.363 . S
C362 C368 1.428 . S
H363 C359 0.930 . S
H364 C361 0.929 . S
S365 N366 1.613 . S
S365 N367 1.610 . S
N366 S365 1.613 . S
N366 C369 1.350 . S
N367 S365 1.610 . S
N367 C368 1.351 . S
C368 C362 1.428 . S
C368 N367 1.351 . S
C368 C369 1.434 . S
C369 C360 1.429 . S
C369 N366 1.350 . S
C369 C368 1.434 . S
C370 C371 1.369 . S
C370 C372 1.419 . S
C370 H374 0.930 . S
C371 C370 1.369 . S
C371 C380 1.429 . S
C372 C370 1.419 . S
C372 C373 1.363 . S
C372 H375 0.929 . S
C373 C372 1.363 . S
C373 C379 1.428 . S
H374 C370 0.930 . S
H375 C372 0.929 . S
S376 N377 1.613 . S
S376 N378 1.610 . S
N377 S376 1.613 . S
N377 C380 1.350 . S
N378 S376 1.610 . S
N378 C379 1.351 . S
C379 C373 1.428 . S
C379 N378 1.351 . S
C379 C380 1.434 . S
C380 C371 1.429 . S
C380 N377 1.350 . S
C380 C379 1.434 . S
C381 C382 1.369 . S
C381 C383 1.419 . S
C381 H385 0.930 . S
C382 C381 1.369 . S
C382 C391 1.429 . S
C383 C381 1.419 . S
C383 C384 1.363 . S
C383 H386 0.929 . S
C384 C383 1.363 . S
C384 C390 1.428 . S
H385 C381 0.930 . S
H386 C383 0.929 . S
S387 N388 1.613 . S
S387 N389 1.610 . S
N388 S387 1.613 . S
N388 C391 1.350 . S
N389 S387 1.610 . S
N389 C390 1.351 . S
C390 C384 1.428 . S
C390 N389 1.351 . S
C390 C391 1.434 . S
C391 C382 1.429 . S
C391 N388 1.350 . S
C391 C390 1.434 . S
C392 C393 1.369 . S
C392 C394 1.419 . S
C392 H396 0.930 . S
C393 C392 1.369 . S
C393 C402 1.429 . S
C394 C392 1.419 . S
C394 C395 1.363 . S
C394 H397 0.929 . S
C395 C394 1.363 . S
C395 C401 1.428 . S
H396 C392 0.930 . S
H397 C394 0.929 . S
S398 N399 1.613 . S
S398 N400 1.610 . S
N399 S398 1.613 . S
N399 C402 1.350 . S
N400 S398 1.610 . S
N400 C401 1.351 . S
C401 C395 1.428 . S
C401 N400 1.351 . S
C401 C402 1.434 . S
C402 C393 1.429 . S
C402 N399 1.350 . S
C402 C401 1.434 . S
C403 C404 1.369 . S
C403 C405 1.419 . S
C403 H407 0.930 1_565 S
C404 C403 1.369 . S
C404 C413 1.429 . S
C405 C403 1.419 . S
C405 C406 1.363 . S
C405 H408 0.929 1_565 S
C406 C405 1.363 . S
C406 C412 1.428 . S
H407 C403 0.930 1_545 S
H408 C405 0.929 1_545 S
S409 N410 1.613 . S
S409 N411 1.610 . S
N410 S409 1.613 . S
N410 C413 1.350 . S
N411 S409 1.610 . S
N411 C412 1.351 . S
C412 C406 1.428 . S
C412 N411 1.351 . S
C412 C413 1.434 . S
C413 C404 1.429 . S
C413 N410 1.350 . S
C413 C412 1.434 . S
C285 C256 1.436 . S
C283 C211 1.603 . S
C294 C31 1.474 . S
C296 C277 1.428 . S
C305 C91 1.641 . S
C307 C253 1.513 . S
C316 C151 1.667 1_556 S
C318 C274 1.509 . S
C329 C258 1.714 . S
C327 C20 1.623 . S
C340 C278 1.627 . S
C338 C61 1.533 . S
C349 C121 1.599 . S
C351 C254 1.528 . S
C360 C200 1.658 . S
C362 C276 1.575 . S
C373 C275 1.533 . S
C371 C80 1.547 . S
C384 C257 1.631 . S
C382 C140 1.658 . S
C395 C279 1.712 . S
C393 C181 1.633 . S
C404 C1 1.567 . S
C406 C255 1.575 . S
