# Generated by pormake.
# Topology pyr, (3,6)-cn, num edge types: 1
# Building blocks:
#     Node 0, Type 0, BuildingBlock: QEWDON_clean_linker_0, # of connection points: 3
#     Node 1, Type 0, BuildingBlock: QEWDON_clean_linker_0, # of connection points: 3
#     Node 2, Type 0, BuildingBlock: QEWDON_clean_linker_0, # of connection points: 3
#     Node 3, Type 0, BuildingBlock: QEWDON_clean_linker_0, # of connection points: 3
#     Node 4, Type 0, BuildingBlock: QEWDON_clean_linker_0, # of connection points: 3
#     Node 5, Type 0, BuildingBlock: QEWDON_clean_linker_0, # of connection points: 3
#     Node 6, Type 0, BuildingBlock: QEWDON_clean_linker_0, # of connection points: 3
#     Node 7, Type 0, BuildingBlock: QEWDON_clean_linker_0, # of connection points: 3
#     Node 8, Type 1, BuildingBlock: PAMTOO_clean_sbu_0, # of connection points: 6
#     Node 9, Type 1, BuildingBlock: PAMTOO_clean_sbu_0, # of connection points: 6
#     Node 10, Type 1, BuildingBlock: PAMTOO_clean_sbu_0, # of connection points: 6
#     Node 11, Type 1, BuildingBlock: PAMTOO_clean_sbu_0, # of connection points: 6
#     Edge 12, Type (0, 1), BuildingBlock: AJUNOK_clean_linker_0, # of connection points: 2
#     Edge 13, Type (0, 1), BuildingBlock: AJUNOK_clean_linker_0, # of connection points: 2
#     Edge 14, Type (0, 1), BuildingBlock: AJUNOK_clean_linker_0, # of connection points: 2
#     Edge 15, Type (0, 1), BuildingBlock: AJUNOK_clean_linker_0, # of connection points: 2
#     Edge 16, Type (0, 1), BuildingBlock: AJUNOK_clean_linker_0, # of connection points: 2
#     Edge 17, Type (0, 1), BuildingBlock: AJUNOK_clean_linker_0, # of connection points: 2
#     Edge 18, Type (0, 1), BuildingBlock: AJUNOK_clean_linker_0, # of connection points: 2
#     Edge 19, Type (0, 1), BuildingBlock: AJUNOK_clean_linker_0, # of connection points: 2
#     Edge 20, Type (0, 1), BuildingBlock: AJUNOK_clean_linker_0, # of connection points: 2
#     Edge 21, Type (0, 1), BuildingBlock: AJUNOK_clean_linker_0, # of connection points: 2
#     Edge 22, Type (0, 1), BuildingBlock: AJUNOK_clean_linker_0, # of connection points: 2
#     Edge 23, Type (0, 1), BuildingBlock: AJUNOK_clean_linker_0, # of connection points: 2
#     Edge 24, Type (0, 1), BuildingBlock: AJUNOK_clean_linker_0, # of connection points: 2
#     Edge 25, Type (0, 1), BuildingBlock: AJUNOK_clean_linker_0, # of connection points: 2
#     Edge 26, Type (0, 1), BuildingBlock: AJUNOK_clean_linker_0, # of connection points: 2
#     Edge 27, Type (0, 1), BuildingBlock: AJUNOK_clean_linker_0, # of connection points: 2
#     Edge 28, Type (0, 1), BuildingBlock: AJUNOK_clean_linker_0, # of connection points: 2
#     Edge 29, Type (0, 1), BuildingBlock: AJUNOK_clean_linker_0, # of connection points: 2
#     Edge 30, Type (0, 1), BuildingBlock: AJUNOK_clean_linker_0, # of connection points: 2
#     Edge 31, Type (0, 1), BuildingBlock: AJUNOK_clean_linker_0, # of connection points: 2
#     Edge 32, Type (0, 1), BuildingBlock: AJUNOK_clean_linker_0, # of connection points: 2
#     Edge 33, Type (0, 1), BuildingBlock: AJUNOK_clean_linker_0, # of connection points: 2
#     Edge 34, Type (0, 1), BuildingBlock: AJUNOK_clean_linker_0, # of connection points: 2
#     Edge 35, Type (0, 1), BuildingBlock: AJUNOK_clean_linker_0, # of connection points: 2
# Relax obj value: 0.199
# Max RMSD: 0.247
# Mean RMSD: 0.179
data_MOF--net-pyr--node1-PAMTOO_clean_sbu_0--node2-QEWDON_clean_linker_0--edge1-AJUNOK_clean_linker_0
_symmetry_space_group_name_H-M    P1
_symmetry_Int_Tables_number       1
_symmetry_cell_setting            triclinic
loop_
_symmetry_equiv_pos_as_xyz
'x, y, z'
_cell_length_a     27.859382
_cell_length_b     30.256095
_cell_length_c     31.387656
_cell_angle_alpha  90.593825
_cell_angle_beta   90.54691
_cell_angle_gamma 115.19036
loop_
_atom_site_label
_atom_site_type_symbol
_atom_site_fract_x
_atom_site_fract_y
_atom_site_fract_z
_atom_type_partial_charge
H0 H 0.47883 0.36894 0.19838 0.0
C1 C 0.46231 0.35774 0.22969 0.0
C2 C 0.46211 0.31521 0.24748 0.0
C3 C 0.43756 0.3836 0.25053 0.0
H4 H 0.43697 0.26616 0.30032 0.0
C5 C 0.43923 0.30007 0.28737 0.0
C6 C 0.41492 0.32587 0.3088 0.0
C7 C 0.415 0.36804 0.29052 0.0
C8 C 0.42971 0.42307 0.22831 0.0
H9 H 0.39622 0.38809 0.3069 0.0
C10 C 0.37887 0.42232 0.22615 0.0
C11 C 0.36976 0.45709 0.20232 0.0
C12 C 0.47172 0.45972 0.207 0.0
H13 H 0.51118 0.46105 0.20819 0.0
C14 C 0.46304 0.49501 0.184 0.0
H15 H 0.34583 0.39349 0.24157 0.0
C16 C 0.41234 0.49367 0.18147 0.0
H17 H 0.40637 0.52124 0.16333 0.0
H18 H 0.49564 0.52327 0.16779 0.0
H19 H 0.13391 0.83017 0.82249 0.0
C20 C 0.15362 0.81013 0.80743 0.0
C21 C 0.19791 0.80829 0.82745 0.0
C22 C 0.13649 0.78872 0.7669 0.0
H23 H 0.25795 0.78161 0.8228 0.0
C24 C 0.22359 0.78294 0.80742 0.0
C25 C 0.20892 0.76361 0.76609 0.0
C26 C 0.16443 0.76555 0.74625 0.0
C27 C 0.09321 0.79543 0.74434 0.0
H28 H 0.15322 0.75126 0.71406 0.0
C29 C 0.09466 0.84235 0.74141 0.0
C30 C 0.05584 0.84999 0.71775 0.0
C31 C 0.05144 0.75567 0.72449 0.0
H32 H 0.0495 0.71922 0.72638 0.0
C33 C 1.0116 0.7627 0.7023 0.0
H34 H 0.12693 0.87316 0.75663 0.0
C35 C 1.01379 0.80953 0.69876 0.0
H36 H 0.98345 0.81428 0.6801 0.0
H37 H 0.97939 0.73187 0.68715 0.0
H38 H 0.742 0.51598 0.91812 0.0
C39 C 0.7229 0.47841 0.92828 0.0
C40 C 0.74896 0.4608 0.9581 0.0
C41 C 0.67075 0.44815 0.91342 0.0
H42 H 0.74142 0.3991 0.99567 0.0
C43 C 0.7223 0.41254 0.97219 0.0
C44 C 0.67042 0.38194 0.9588 0.0
C45 C 0.64522 0.39979 0.92887 0.0
C46 C 0.63779 0.46936 0.89065 0.0
H47 H 0.6043 0.37725 0.91973 0.0
C48 C 0.64774 0.48913 0.84877 0.0
C49 C 0.61341 0.5079 0.82994 0.0
C50 C 0.59393 0.46901 0.91263 0.0
H51 H 0.58543 0.45458 0.94453 0.0
C52 C 0.56061 0.48729 0.89428 0.0
H53 H 0.6813 0.48979 0.83121 0.0
C54 C 0.57013 0.50642 0.85353 0.0
H55 H 0.54307 0.52001 0.84015 0.0
H56 H 0.52701 0.48656 0.91182 0.0
H57 H 0.95063 0.8346 0.40256 0.0
C58 C 0.9173 0.81218 0.42187 0.0
C59 C 0.91145 0.82896 0.46311 0.0
C60 C 0.87869 0.76725 0.40485 0.0
H61 H 0.86162 0.81246 0.51822 0.0
C62 C 0.86651 0.80004 0.48676 0.0
C63 C 0.82633 0.75675 0.47007 0.0
C64 C 0.83343 0.74014 0.42946 0.0
C65 C 0.87739 0.75421 0.35826 0.0
H66 H 0.80205 0.70749 0.41571 0.0
C67 C 0.90905 0.73271 0.33922 0.0
C68 C 0.90128 0.71784 0.29528 0.0
C69 C 0.83969 0.76122 0.33264 0.0
H70 H 0.81503 0.77736 0.34608 0.0
C71 C 0.83259 0.74718 0.28981 0.0
H72 H 0.93832 0.72684 0.35831 0.0
C73 C 0.86276 0.72555 0.27141 0.0
H74 H 0.85623 0.71504 0.23798 0.0
H75 H 0.80319 0.75287 0.27074 0.0
H76 H 0.69569 0.78339 1.00844 0.0
C77 C 0.70487 0.80047 0.97756 0.0
C78 C 0.74865 0.80139 0.95511 0.0
C79 C 0.67418 0.82323 0.96081 0.0
H80 H 0.79484 0.82549 0.89833 0.0
C81 C 0.7607 0.82419 0.91555 0.0
C82 C 0.73123 0.84784 0.89898 0.0
C83 C 0.68749 0.84665 0.92134 0.0
C84 C 0.63002 0.8251 0.9854 0.0
H85 H 0.66471 0.86507 0.90855 0.0
C86 C 0.62608 0.86964 0.99067 0.0
C87 C 0.58342 0.87161 1.01258 0.0
C88 C 0.59135 0.7826 1.00319 0.0
H89 H 0.59354 0.74788 0.99949 0.0
C90 C 0.54884 0.78449 1.02514 0.0
H91 H 0.65611 0.90283 0.97761 0.0
C92 C 0.54467 0.8287 1.02969 0.0
H93 H 0.51158 0.82957 0.04697 0.0
H94 H 0.51897 0.75158 1.03856 0.0
H95 H 0.9084 0.2666 0.54287 0.0
C96 C 0.90185 0.27464 0.51036 0.0
C97 C 0.93479 0.27087 0.47841 0.0
C98 C 0.8579 0.2841 0.5 0.0
H99 H 0.95227 0.27758 0.41172 0.0
C100 C 0.92693 0.28111 0.43626 0.0
C101 C 0.88364 0.29103 0.42506 0.0
C102 C 0.84929 0.29228 0.4571 0.0
C103 C 0.81726 0.27907 0.53258 0.0
H104 H 0.81336 0.29558 0.44805 0.0
C105 C 0.78771 0.30691 0.53002 0.0
C106 C 0.74549 0.29856 0.55779 0.0
C107 C 0.80504 0.24391 0.56475 0.0
H108 H 0.82553 0.22062 0.5672 0.0
C109 C 0.7646 0.23694 0.59345 0.0
H110 H 0.79727 0.33501 0.50626 0.0
C111 C 0.73476 0.26386 0.58994 0.0
H112 H 0.70244 0.25671 0.61172 0.0
H113 H 0.75549 0.20968 0.61789 0.0
H114 H 0.48214 0.84454 0.27036 0.0
C115 C 0.44094 0.8222 0.26193 0.0
C116 C 0.41539 0.83991 0.23203 0.0
C117 C 0.41474 0.77439 0.27874 0.0
H118 H 0.34331 0.82323 0.19698 0.0
C119 C 0.36272 0.80998 0.22033 0.0
C120 C 0.3354 0.76269 0.23623 0.0
C121 C 0.36174 0.74501 0.26557 0.0
C122 C 0.44636 0.75227 0.30229 0.0
H123 H 0.34198 0.7078 0.27657 0.0
C124 C 0.43267 0.72956 0.3429 0.0
C125 C 0.46415 0.70795 0.36207 0.0
C126 C 0.49128 0.75277 0.28192 0.0
H127 H 0.50256 0.76916 0.25092 0.0
C128 C 0.52168 0.73144 0.30046 0.0
H129 H 0.39831 0.72882 0.35928 0.0
C130 C 0.50831 0.70926 0.33991 0.0
H131 H 0.53332 0.69358 0.3536 0.0
H132 H 0.55599 0.73211 0.28407 0.0
H133 H 0.25723 0.49464 0.80214 0.0
C134 C 0.23231 0.46064 0.78592 0.0
C135 C 0.24715 0.45005 0.7453 0.0
C136 C 0.18835 0.42507 0.80729 0.0
H137 H 0.22933 0.39571 0.69544 0.0
C138 C 0.21717 0.40421 0.72603 0.0
C139 C 0.17428 0.36793 0.74659 0.0
C140 C 0.15911 0.37915 0.78651 0.0
C141 C 0.18035 0.42956 0.85445 0.0
H142 H 0.12696 0.35065 0.80302 0.0
C143 C 0.17113 0.468 0.87449 0.0
C144 C 0.16314 0.46786 0.91957 0.0
C145 C 0.18194 0.39244 0.88024 0.0
H146 H 0.18978 0.36319 0.86652 0.0
C147 C 0.17353 0.392 0.9238 0.0
H148 H 0.17002 0.4972 0.85546 0.0
C149 C 0.16382 0.42881 0.94313 0.0
H150 H 0.15651 0.42655 0.97707 0.0
H151 H 0.17436 0.36266 0.94279 0.0
Dy152 Dy 0.10889 0.11507 0.58844 0.0
Dy153 Dy 0.98866 0.08048 0.62219 0.0
C154 C 0.08417 0.17528 0.66007 0.0
O155 O 0.09718 0.05332 0.63105 0.0
O156 O 0.0237 0.04613 0.66856 0.0
O157 O 0.18928 0.17116 0.58783 0.0
O158 O 0.16903 0.10243 0.5545 0.0
O159 O 0.99069 1.01534 0.58899 0.0
O160 O 0.05505 0.05752 0.54134 0.0
O161 O 0.9911 0.11214 0.55818 0.0
O162 O 0.0788 0.16527 0.55858 0.0
O163 O 0.90384 0.04179 0.61227 0.0
O164 O 0.93575 0.08739 0.66856 0.0
C165 C 0.06352 0.03446 0.66201 0.0
O166 O 0.11329 0.15177 0.65181 0.0
O167 O 0.03615 0.15871 0.64348 0.0
C168 C 0.23565 0.17376 0.52527 0.0
C169 C 0.29412 0.2288 0.45658 0.0
C170 C 0.31475 0.23985 0.49833 0.0
C171 C 0.2857 0.21249 0.5324 0.0
C172 C 0.21498 0.16247 0.48358 0.0
C173 C 0.24421 0.18953 0.44948 0.0
C174 C 0.20529 0.14661 0.56184 0.0
C175 C 0.01511 1.01679 0.55305 0.0
C176 C 0.03005 0.15199 0.54484 0.0
C177 C 0.85864 1.01625 0.67675 0.0
C178 C 0.80518 0.95316 0.74245 0.0
C179 C 0.84669 0.94777 0.72149 0.0
C180 C 0.87325 0.97913 0.68875 0.0
C181 C 0.81498 1.01968 0.69571 0.0
C182 C 0.78809 0.98802 0.72837 0.0
C183 C 0.89339 0.05526 0.64933 0.0
H184 H 0.35312 0.26991 0.50464 0.0
H185 H 0.30215 0.2218 0.56441 0.0
H186 H 0.17632 0.1328 0.47731 0.0
H187 H 0.22796 0.17939 0.4175 0.0
H188 H 0.86034 0.92101 0.73202 0.0
H189 H 0.90702 0.9762 0.67443 0.0
H190 H 0.80357 0.04845 0.68689 0.0
H191 H 0.75636 0.99282 0.74446 0.0
Dy192 Dy 0.48174 0.09681 0.07437 0.0
Dy193 Dy 0.59699 0.13349 0.12504 0.0
C194 C 0.49999 0.03054 0.14938 0.0
O195 O 0.48978 0.15981 0.11506 0.0
O196 O 0.55131 0.16326 0.16551 0.0
O197 O 0.39697 0.0735 0.07749 0.0
O198 O 0.43616 0.08581 1.01639 0.0
O199 O 0.59884 0.19694 0.08773 0.0
O200 O 0.54135 0.15514 1.03392 0.0
O201 O 0.59973 0.08653 0.06997 0.0
O202 O 0.51111 0.0428 0.05447 0.0
O203 O 0.68223 0.17625 0.12185 0.0
O204 O 0.64658 0.13362 0.17773 0.0
C205 C 0.51458 0.17619 0.15148 0.0
O206 O 0.46694 0.04007 0.12482 0.0
O207 O 0.55078 0.05965 0.15248 0.0
C208 C 0.3516 0.02206 1.01972 0.0
C209 C 0.28842 0.93794 0.97257 0.0
C210 C 0.33042 0.93866 0.99805 0.0
C211 C 0.36186 0.98056 1.02164 0.0
C212 C 0.30713 1.01999 0.9971 0.0
C213 C 0.27544 0.97793 0.97371 0.0
C214 C 0.39097 0.06902 1.03614 0.0
C215 C 0.57926 0.19567 0.04928 0.0
C216 C 0.56023 0.04847 0.0525 0.0
C217 C 0.72558 0.20459 0.1888 0.0
C218 C 0.79299 0.26078 0.25509 0.0
C219 C 0.73897 0.25117 0.25474 0.0
C220 C 0.70546 0.22335 0.22168 0.0
C221 C 0.78023 0.21814 0.18695 0.0
C222 C 0.8138 0.24622 0.21981 0.0
C223 C 0.68993 0.16508 0.16055 0.0
H224 H 0.34104 0.90813 0.99732 0.0
H225 H 0.39613 0.9817 1.03909 0.0
H226 H 0.2989 0.05186 0.99533 0.0
H227 H 0.24353 0.97813 0.95381 0.0
H228 H 0.72169 0.26135 0.28174 0.0
H229 H 0.6633 0.21345 0.2235 0.0
H230 H 0.79641 0.20412 0.16169 0.0
H231 H 0.85535 0.2534 0.21927 0.0
Dy232 Dy 0.51993 0.55489 0.57466 0.0
Dy233 Dy 0.53412 0.6554 0.6239 0.0
C234 C 0.57896 0.58108 0.66657 0.0
O235 O 0.46039 0.53343 0.62705 0.0
O236 O 0.44848 0.60294 0.63089 0.0
O237 O 0.48696 0.47598 0.57249 0.0
O238 O 0.53019 0.51747 0.51894 0.0
O239 O 0.51272 0.66482 0.55668 0.0
O240 O 0.47323 0.58504 0.53407 0.0
O241 O 0.61504 0.67711 0.59626 0.0
O242 O 0.59866 0.61025 0.55257 0.0
O243 O 0.54374 0.73024 0.62462 0.0
O244 O 0.53189 0.69091 0.68348 0.0
C245 C 0.43354 0.55709 0.64094 0.0
O246 O 0.57371 0.55803 0.62977 0.0
O247 O 0.56325 0.61626 0.6712 0.0
C248 C 0.54385 0.44906 0.53787 0.0
C249 C 0.60946 0.39971 0.54191 0.0
C250 C 0.62624 0.44655 0.56024 0.0
C251 C 0.59375 0.47104 0.55818 0.0
C252 C 0.5267 0.40229 0.51964 0.0
C253 C 0.55931 0.37769 0.52166 0.0
C254 C 0.50972 0.47488 0.53675 0.0
C255 C 0.48399 0.63151 0.52848 0.0
C256 C 0.62939 0.65491 0.56587 0.0
C257 C 0.484 0.73753 0.67412 0.0
C258 C 0.38794 0.74069 0.69688 0.0
C259 C 0.39468 0.72688 0.65537 0.0
C260 C 0.44219 0.72499 0.64414 0.0
C261 C 0.47772 0.75248 0.71527 0.0
C262 C 0.43001 0.75392 0.72661 0.0
C263 C 0.53074 0.72851 0.66455 0.0
H264 H 0.66469 0.46436 0.57595 0.0
H265 H 0.60754 0.50717 0.57249 0.0
H266 H 0.48809 0.38472 0.50416 0.0
H267 H 0.54501 0.34121 0.50802 0.0
H268 H 0.36263 0.7161 0.63206 0.0
H269 H 0.44554 0.71222 0.61242 0.0
H270 H 0.5091 0.76153 0.73902 0.0
H271 H 0.42573 0.76495 0.75878 0.0
Dy272 Dy 0.05136 0.65424 0.07537 0.0
Dy273 Dy 0.02907 0.55564 0.12665 0.0
C274 C 0.99683 0.63672 0.16842 0.0
O275 O 0.13068 0.67041 0.10536 0.0
O276 O 0.10301 0.61174 0.15708 0.0
O277 O 0.07495 0.73209 0.07228 0.0
O278 O 0.04756 0.68704 1.01537 0.0
O279 O 0.09246 0.56387 0.07912 0.0
O280 O 0.06912 0.60531 1.02922 0.0
O281 O 0.9668 0.5349 0.07458 0.0
O282 O 0.96378 0.60853 0.07016 0.0
O283 O 0.01553 0.47971 0.12397 0.0
O284 O 0.01809 0.51487 0.18475 0.0
C285 C 0.13896 0.65184 0.14097 0.0
O286 O 0.02888 0.66793 0.14124 0.0
O287 O 0.98244 0.58936 0.16306 0.0
C288 C 1.01413 0.74463 1.02716 0.0
C289 C 0.92326 0.75998 1.00983 0.0
C290 C 0.92875 0.74037 0.04886 0.0
C291 C 0.97372 0.73252 0.05738 0.0
C292 C 1.00933 0.76529 0.98857 0.0
C293 C 0.96412 0.77288 0.97993 0.0
C294 C 0.05671 0.72885 1.03342 0.0
C295 C 0.09194 0.57669 1.03929 0.0
C296 C 0.94325 0.56174 0.06093 0.0
C297 C 0.06571 0.46618 0.17876 0.0
C298 C 0.15981 0.45391 0.1909 0.0
C299 C 0.11772 0.42007 0.16604 0.0
C300 C 0.07102 0.42613 0.16009 0.0
C301 C 0.10685 0.4985 0.20547 0.0
C302 C 0.15327 0.49226 0.2116 0.0
C303 C 0.02174 0.47825 0.16507 0.0
H304 H 0.89744 0.7295 0.07209 0.0
H305 H 0.976 0.71534 0.08698 0.0
H306 H 0.03964 0.77402 0.96462 0.0
H307 H 0.96068 0.78822 0.94964 0.0
H308 H 0.12155 0.38976 0.15025 0.0
H309 H 0.04008 0.40084 0.13925 0.0
H310 H 0.10444 0.53007 0.22008 0.0
H311 H 0.18518 0.5189 0.23083 0.0
C312 C 0.40807 0.2895 0.38088 0.0
C313 C 0.38491 0.30552 0.34805 0.0
C314 C 0.37882 0.26588 0.41646 0.0
C315 C 0.3253 0.25725 0.42034 0.0
H316 H 0.44888 0.29457 0.3787 0.0
H317 H 0.39781 0.25297 0.44045 0.0
S318 S 0.24688 0.29409 0.34417 0.0
N319 N 0.30558 0.31199 0.32207 0.0
N320 N 0.25121 0.26908 0.38969 0.0
C321 C 0.30215 0.27443 0.38839 0.0
C322 C 0.33183 0.29829 0.3521 0.0
C323 C 0.18983 0.83876 0.90067 0.0
C324 C 0.22177 0.83838 0.86625 0.0
C325 C 0.21164 0.86997 0.93606 0.0
C326 C 0.26608 0.90103 0.93826 0.0
H327 H 0.14766 0.81533 0.89993 0.0
H328 H 0.18581 0.87035 0.96151 0.0
S329 S 0.36611 0.9166 0.85589 0.0
N330 N 0.31022 0.87431 0.83595 0.0
N331 N 0.35107 0.93104 0.90316 0.0
C332 C 0.29844 0.90069 0.90446 0.0
C333 C 0.27633 0.8698 0.86827 0.0
C334 C 0.6224 0.57699 0.78212 0.0
C335 C 0.61972 0.5296 0.7862 0.0
C336 C 0.61233 0.59411 0.74297 0.0
C337 C 0.59902 0.5648 0.70558 0.0
H338 H 0.62915 0.60011 0.81021 0.0
H339 H 0.6127 0.63004 0.74261 0.0
S340 S 0.5913 0.43915 0.69787 0.0
N341 N 0.60618 0.4547 0.74857 0.0
N342 N 0.58803 0.48672 0.67493 0.0
C343 C 0.59972 0.51842 0.70853 0.0
C344 C 0.60984 0.50092 0.7487 0.0
C345 C 0.90844 0.64562 0.25924 0.0
C346 C 0.93255 0.69548 0.27163 0.0
C347 C 0.93032 0.62637 0.22738 0.0
C348 C 0.97661 0.65635 0.20542 0.0
H349 H 0.8709 0.6217 0.27294 0.0
H350 H 0.90931 0.58811 0.21855 0.0
S351 S 0.05597 0.78935 0.22687 0.0
N352 N 1.00625 0.77385 0.26032 0.0
N353 N 0.04707 0.73875 0.20068 0.0
C354 C 1.00187 0.70605 0.21861 0.0
C355 C 0.97995 0.72527 0.25144 0.0
C356 C 0.5123 0.26353 0.23918 0.0
C357 C 0.47814 0.28236 0.22192 0.0
C358 C 0.52438 0.22949 0.21624 0.0
C359 C 0.50215 0.21262 0.17547 0.0
H360 H 0.52957 0.27505 0.27071 0.0
H361 H 0.55085 0.21599 0.2308 0.0
S362 S 0.40887 0.25025 0.11692 0.0
N363 N 0.4213 0.28109 0.1624 0.0
N364 N 0.44399 0.21811 0.11897 0.0
C365 C 0.46794 0.23157 0.15796 0.0
C366 C 0.45595 0.26616 0.18125 0.0
C367 C 0.01658 0.91085 0.71385 0.0
C368 C 0.06094 0.90027 0.71017 0.0
C369 C 0.01889 0.9562 0.70159 0.0
C370 C 0.06555 0.9925 0.68479 0.0
H371 H 0.97929 0.8833 0.72505 0.0
H372 H 0.98294 0.96159 0.70299 0.0
S373 S 0.19428 0.9848 0.67262 0.0
N374 N 0.15391 0.93108 0.69118 0.0
N375 N 0.15865 1.01645 0.66919 0.0
C376 C 0.11112 0.98347 0.68359 0.0
C377 C 0.10872 0.93733 0.69595 0.0
C378 C 0.83886 0.47175 0.98484 0.0
C379 C 0.80209 0.49192 0.97843 0.0
C380 C 0.88385 0.49456 1.01137 0.0
C381 C 0.89515 0.53931 1.03238 0.0
H382 H 0.83183 0.43687 0.97025 0.0
H383 H 0.90987 0.4766 1.01557 0.0
S384 S 0.8148 0.61044 1.0236 0.0
N385 N 0.78191 0.56105 0.99392 0.0
N386 N 0.86758 0.60497 1.04236 0.0
C387 C 0.86049 0.56149 1.02446 0.0
C388 C 0.81394 0.53772 0.9978 0.0
C389 C 0.75265 0.68 0.49905 0.0
C390 C 0.7758 0.73112 0.49449 0.0
C391 C 0.70614 0.65585 0.52282 0.0
C392 C 0.68087 0.68173 0.54349 0.0
H393 H 0.77087 0.65844 0.48445 0.0
H394 H 0.6899 0.61646 0.52509 0.0
S395 S 0.72202 0.81543 0.53815 0.0
N396 N 0.76683 0.80624 0.51007 0.0
N397 N 0.68118 0.76125 0.55558 0.0
C398 C 0.70329 0.73274 0.53885 0.0
C399 C 0.75011 0.75724 0.51418 0.0
C400 C 0.2873 0.45443 0.23567 0.0
C401 C 0.31555 0.45457 0.19874 0.0
C402 C 0.23653 0.45341 0.23295 0.0
C403 C 0.21189 0.45155 0.1932 0.0
H404 H 0.30503 0.45611 0.26687 0.0
H405 H 0.21645 0.45425 0.26213 0.0
S406 S 0.26837 0.4491 0.08711 0.0
N407 N 0.31472 0.45124 0.12136 0.0
N408 N 0.2193 0.4492 0.11616 0.0
C409 C 0.23933 0.45064 0.15607 0.0
C410 C 0.29119 0.45225 0.15886 0.0
C411 C 0.64633 0.33152 1.02499 0.0
C412 C 0.64217 0.33365 0.98032 0.0
C413 C 0.62557 0.28701 0.04647 0.0
C414 C 0.59887 0.24207 1.02459 0.0
H415 H 0.66653 0.36478 0.04371 0.0
H416 H 0.6307 0.28804 0.08078 0.0
S417 S 0.57475 0.22693 0.90759 0.0
N418 N 0.60787 0.28658 0.91491 0.0
N419 N 0.56768 0.20272 0.95539 0.0
C420 C 0.59259 0.24352 0.98002 0.0
C421 C 0.61433 0.28922 0.95794 0.0
C422 C 0.96265 0.88125 0.52575 0.0
C423 C 0.94849 0.87792 0.48209 0.0
C424 C 0.9859 0.92637 0.54772 0.0
C425 C 0.99763 0.97072 0.52701 0.0
H426 H 0.95326 0.84831 0.54375 0.0
H427 H 0.99358 0.92641 0.58164 0.0
S428 S 0.97294 0.98378 0.41256 0.0
N429 N 0.95058 0.92415 0.41865 0.0
N430 N 0.99651 1.00898 0.45968 0.0
C431 C 0.9872 0.96857 0.48286 0.0
C432 C 0.96233 0.92229 0.46048 0.0
C433 C 0.26641 0.71901 0.76199 0.0
C434 C 0.24608 0.74926 0.74243 0.0
C435 C 0.31116 0.71494 0.74603 0.0
C436 C 0.33695 0.74066 0.70976 0.0
H437 H 0.24922 0.70038 0.79115 0.0
H438 H 0.32674 0.69272 0.76296 0.0
S439 S 0.29802 0.82246 0.64541 0.0
N440 N 0.25397 0.80372 0.68376 0.0
N441 N 0.33756 0.79521 0.65336 0.0
C442 C 0.31529 0.76868 0.68841 0.0
C443 C 0.26988 0.77312 0.70481 0.0
C444 C 0.71417 0.86902 0.82501 0.0
C445 C 0.74913 0.87674 0.85987 0.0
C446 C 0.73212 0.89426 0.78686 0.0
C447 C 0.78548 0.92756 0.78265 0.0
H448 H 0.67316 0.84257 0.82696 0.0
H449 H 0.70455 0.88706 0.76031 0.0
S450 S 0.89078 0.96524 0.86619 0.0
N451 N 0.83801 0.92355 0.889 0.0
N452 N 0.87175 0.97009 0.81717 0.0
C453 C 0.82016 0.9368 0.81771 0.0
C454 C 0.80196 0.91159 0.85641 0.0
C455 C 0.86911 0.25322 0.35238 0.0
C456 C 0.86834 0.29024 0.37949 0.0
C457 C 0.8477 0.24634 0.31118 0.0
C458 C 0.82415 0.27586 0.29539 0.0
H459 H 0.88361 0.22739 0.36376 0.0
H460 H 0.84669 0.21561 0.29253 0.0
S461 S 0.81764 0.38161 0.35133 0.0
N462 N 0.84689 0.36001 0.38605 0.0
N463 N 0.80534 0.34618 0.3084 0.0
C464 C 0.82534 0.31455 0.32119 0.0
C465 C 0.84771 0.32192 0.36325 0.0
C466 C 0.451 0.63728 0.41013 0.0
C467 C 0.45482 0.6851 0.4055 0.0
C468 C 0.45689 0.61904 0.45018 0.0
C469 C 0.46783 0.64802 0.48765 0.0
H470 H 0.44625 0.61458 0.38205 0.0
H471 H 0.45599 0.58293 0.45125 0.0
S472 S 0.47646 0.77414 0.49385 0.0
N473 N 0.46603 0.75954 0.44265 0.0
N474 N 0.47723 0.72595 0.51756 0.0
C475 C 0.46859 0.69492 0.48378 0.0
C476 C 0.46202 0.71321 0.44297 0.0
C477 C 0.10782 0.5149 0.93565 0.0
C478 C 0.15271 0.50601 0.94435 0.0
C479 C 0.08992 0.54013 0.96537 0.0
C480 C 0.11553 0.55668 1.00537 0.0
H481 H 0.0845 0.49973 0.90692 0.0
H482 H 0.05396 0.54416 0.95796 0.0
S483 S 0.23923 0.54951 1.04108 0.0
N484 N 0.22606 0.52189 0.99392 0.0
N485 N 0.1914 0.5669 0.04965 0.0
C486 C 0.16206 0.55055 1.01322 0.0
C487 C 0.18088 0.52603 0.9828 0.0
C488 C 0.62033 0.95795 1.0395 0.0
C489 C 0.57967 0.91861 1.01803 0.0
C490 C 0.61539 1.00139 0.04822 0.0
C491 C 0.56972 1.00701 1.03547 0.0
H492 H 0.65521 0.95434 0.05115 0.0
H493 H 0.64644 0.02969 0.06686 0.0
S494 S 0.45602 0.91705 0.97211 0.0
N495 N 0.4952 0.88949 0.98024 0.0
N496 N 0.48594 0.97121 0.99565 0.0
C497 C 0.53039 0.96887 1.01145 0.0
C498 C 0.5353 0.9246 1.00306 0.0
C499 C 1.00847 0.26338 0.51938 0.0
C500 C 0.96837 0.24526 0.48785 0.0
C501 C 0.03254 0.23427 0.53495 0.0
C502 C 0.01607 0.18588 0.52015 0.0
H503 H 0.01929 0.29924 0.53351 0.0
H504 H 0.06105 0.24832 0.56103 0.0
S505 S 0.9156 0.12276 0.43578 0.0
N506 N 0.91617 0.17741 0.44022 0.0
N507 N 0.96043 0.12243 0.47043 0.0
C508 C 0.97822 0.16841 0.48709 0.0
C509 C 0.95455 0.19823 0.47068 0.0
C510 C 0.26972 0.68441 0.20088 0.0
C511 C 0.28155 0.73143 0.21762 0.0
C512 C 0.22332 0.65848 0.17618 0.0
C513 C 0.18799 0.67924 0.1664 0.0
H514 H 0.29741 0.6683 0.20546 0.0
H515 H 0.21579 0.62256 0.16368 0.0
S516 S 0.19588 0.79732 0.20743 0.0
N517 N 0.24951 0.79422 0.22713 0.0
N518 N 0.16479 0.74686 0.17869 0.0
C519 C 0.19806 0.72502 0.18427 0.0
C520 C 0.24412 0.7507 0.2104 0.0
C521 C 0.30488 0.52515 0.70349 0.0
C522 C 0.29825 0.48208 0.72457 0.0
C523 C 0.34905 0.5499 0.67711 0.0
C524 C 0.38778 0.53204 0.67027 0.0
H525 H 0.27479 0.53875 0.7061 0.0
H526 H 0.35197 0.5824 0.66098 0.0
S527 S 0.39082 0.42311 0.72192 0.0
N528 N 0.336 0.42489 0.73945 0.0
N529 N 0.41791 0.47032 0.69025 0.0
C530 C 0.38227 0.48998 0.6927 0.0
C531 C 0.33789 0.46535 0.71966 0.0
C532 C 0.80301 0.75417 0.94871 0.0
C533 C 0.78594 0.78344 0.97376 0.0
C534 C 0.84651 0.74552 0.96131 0.0
C535 C 0.87432 0.76564 0.99951 0.0
H536 H 0.78394 0.73958 0.91823 0.0
H537 H 0.85933 0.72393 0.94052 0.0
S538 S 0.84408 0.8427 0.07752 0.0
N539 N 0.79893 0.83093 1.03932 0.0
N540 N 0.88044 0.81401 0.06332 0.0
C541 C 0.85605 0.79279 1.02596 0.0
C542 C 0.81183 0.80181 1.01303 0.0
C543 C 0.46888 0.9322 0.23429 0.0
C544 C 0.44278 0.8884 0.21053 0.0
C545 C 0.48787 0.97826 0.21451 0.0
C546 C 0.48043 0.9822 0.17045 0.0
H547 H 0.47317 0.93095 0.26853 0.0
H548 H 0.50722 1.01102 0.234 0.0
S549 S 0.4229 0.87923 0.09281 0.0
N550 N 0.41748 0.85263 0.13933 0.0
N551 N 0.45054 0.93853 0.10315 0.0
C552 C 0.45656 0.93886 0.1462 0.0
C553 C 0.43849 0.89223 0.16595 0.0
C554 C 0.09607 0.29283 0.71722 0.0
C555 C 0.15036 0.31695 0.72806 0.0
C556 C 0.07483 0.2468 0.69607 0.0
C557 C 0.10682 0.22257 0.6853 0.0
H558 H 0.07013 0.31032 0.72394 0.0
H559 H 0.03304 0.23046 0.68754 0.0
S560 S 0.25109 0.26897 0.70989 0.0
N561 N 0.23506 0.31199 0.72863 0.0
N562 N 0.19576 0.22625 0.68949 0.0
C563 C 0.16091 0.24583 0.69745 0.0
C564 C 0.18244 0.29267 0.7186 0.0
C565 C 0.69943 0.34662 0.58834 0.0
C566 C 0.71154 0.32495 0.55266 0.0
C567 C 0.66647 0.37075 0.5845 0.0
C568 C 0.64408 0.37381 0.5449 0.0
H569 H 0.7158 0.34513 0.61946 0.0
H570 H 0.65799 0.38672 0.61287 0.0
S571 S 0.66336 0.32317 0.44171 0.0
N572 N 0.6981 0.30765 0.47648 0.0
N573 N 0.63697 0.35392 0.46918 0.0
C574 C 0.6559 0.3524 0.50895 0.0
C575 C 0.68953 0.32787 0.51283 0.0
loop_
_geom_bond_atom_site_label_1
_geom_bond_atom_site_label_2
_geom_bond_distance
_geom_bond_site_symmetry_2
_ccdc_geom_bond_type
H0 C1 0.949 . S
C1 H0 0.949 . S
C1 C2 1.395 . S
C1 C3 1.391 . S
C2 C1 1.395 . S
C2 C5 1.390 . S
C3 C1 1.391 . S
C3 C7 1.387 . S
C3 C8 1.491 . S
H4 C5 0.950 . S
C5 C2 1.390 . S
C5 H4 0.950 . S
C5 C6 1.378 . S
C6 C5 1.378 . S
C6 C7 1.409 . S
C7 C3 1.387 . S
C7 C6 1.409 . S
C7 H9 0.951 . S
C8 C3 1.491 . S
C8 C10 1.382 . S
C8 C12 1.404 . S
H9 C7 0.951 . S
C10 C8 1.382 . S
C10 C11 1.390 . S
C10 H15 0.949 . S
C11 C10 1.390 . S
C11 C16 1.399 . S
C12 C8 1.404 . S
C12 H13 0.950 . S
C12 C14 1.375 . S
H13 C12 0.950 . S
C14 C12 1.375 . S
C14 C16 1.382 . S
C14 H18 0.950 . S
H15 C10 0.949 . S
C16 C11 1.399 . S
C16 C14 1.382 . S
C16 H17 0.952 . S
H17 C16 0.952 . S
H18 C14 0.950 . S
H19 C20 0.949 . S
C20 H19 0.949 . S
C20 C21 1.395 . S
C20 C22 1.391 . S
C21 C20 1.395 . S
C21 C24 1.390 . S
C22 C20 1.391 . S
C22 C26 1.387 . S
C22 C27 1.491 . S
H23 C24 0.950 . S
C24 C21 1.390 . S
C24 H23 0.950 . S
C24 C25 1.378 . S
C25 C24 1.378 . S
C25 C26 1.409 . S
C26 C22 1.387 . S
C26 C25 1.409 . S
C26 H28 0.951 . S
C27 C22 1.491 . S
C27 C29 1.382 . S
C27 C31 1.408 . S
H28 C26 0.951 . S
C29 C27 1.382 . S
C29 C30 1.390 1_455 S
C29 H34 0.949 . S
C30 C29 1.390 1_655 S
C30 C35 1.399 . S
C31 C27 1.408 . S
C31 H32 0.957 . S
C31 C33 1.363 1_455 S
H32 C31 0.957 . S
C33 C31 1.363 1_655 S
C33 C35 1.382 . S
C33 H37 0.950 . S
H34 C29 0.949 . S
C35 C30 1.399 . S
C35 C33 1.382 . S
C35 H36 0.952 . S
H36 C35 0.952 . S
H37 C33 0.950 . S
H38 C39 0.949 . S
C39 H38 0.949 . S
C39 C40 1.395 . S
C39 C41 1.391 . S
C40 C39 1.395 . S
C40 C43 1.390 . S
C41 C39 1.391 . S
C41 C45 1.387 . S
C41 C46 1.491 . S
H42 C43 0.950 . S
C43 C40 1.390 . S
C43 H42 0.950 . S
C43 C44 1.378 . S
C44 C43 1.378 . S
C44 C45 1.409 . S
C45 C41 1.387 . S
C45 C44 1.409 . S
C45 H47 0.951 . S
C46 C41 1.491 . S
C46 C48 1.382 . S
C46 C50 1.404 . S
H47 C45 0.951 . S
C48 C46 1.382 . S
C48 C49 1.390 . S
C48 H53 0.949 . S
C49 C48 1.390 . S
C49 C54 1.399 . S
C50 C46 1.404 . S
C50 H51 0.950 . S
C50 C52 1.375 . S
H51 C50 0.950 . S
C52 C50 1.375 . S
C52 C54 1.382 . S
C52 H56 0.950 . S
H53 C48 0.949 . S
C54 C49 1.399 . S
C54 C52 1.382 . S
C54 H55 0.952 . S
H55 C54 0.952 . S
H56 C52 0.950 . S
H57 C58 0.949 . S
C58 H57 0.949 . S
C58 C59 1.395 . S
C58 C60 1.391 . S
C59 C58 1.395 . S
C59 C62 1.390 . S
C60 C58 1.391 . S
C60 C64 1.387 . S
C60 C65 1.491 . S
H61 C62 0.950 . S
C62 C59 1.390 . S
C62 H61 0.950 . S
C62 C63 1.378 . S
C63 C62 1.378 . S
C63 C64 1.409 . S
C64 C60 1.387 . S
C64 C63 1.409 . S
C64 H66 0.951 . S
C65 C60 1.491 . S
C65 C67 1.382 . S
C65 C69 1.404 . S
H66 C64 0.951 . S
C67 C65 1.382 . S
C67 C68 1.390 . S
C67 H72 0.949 . S
C68 C67 1.390 . S
C68 C73 1.399 . S
C69 C65 1.404 . S
C69 H70 0.950 . S
C69 C71 1.375 . S
H70 C69 0.950 . S
C71 C69 1.375 . S
C71 C73 1.382 . S
C71 H75 0.950 . S
H72 C67 0.949 . S
C73 C68 1.399 . S
C73 C71 1.382 . S
C73 H74 0.952 . S
H74 C73 0.952 . S
H75 C71 0.950 . S
H76 C77 0.949 . S
C77 H76 0.949 . S
C77 C78 1.395 . S
C77 C79 1.391 . S
C78 C77 1.395 . S
C78 C81 1.390 . S
C79 C77 1.391 . S
C79 C83 1.387 . S
C79 C84 1.491 . S
H80 C81 0.950 . S
C81 C78 1.390 . S
C81 H80 0.950 . S
C81 C82 1.378 . S
C82 C81 1.378 . S
C82 C83 1.409 . S
C83 C79 1.387 . S
C83 C82 1.409 . S
C83 H85 0.951 . S
C84 C79 1.491 . S
C84 C86 1.382 . S
C84 C88 1.404 . S
H85 C83 0.951 . S
C86 C84 1.382 . S
C86 C87 1.390 . S
C86 H91 0.949 . S
C87 C86 1.390 . S
C87 C92 1.399 . S
C88 C84 1.404 . S
C88 H89 0.950 . S
C88 C90 1.375 . S
H89 C88 0.950 . S
C90 C88 1.375 . S
C90 C92 1.382 . S
C90 H94 0.950 . S
H91 C86 0.949 . S
C92 C87 1.399 . S
C92 C90 1.382 . S
C92 H93 0.952 . S
H93 C92 0.952 . S
H94 C90 0.950 . S
H95 C96 0.949 . S
C96 H95 0.949 . S
C96 C97 1.395 . S
C96 C98 1.391 . S
C97 C96 1.395 . S
C97 C100 1.390 . S
C98 C96 1.391 . S
C98 C102 1.387 . S
C98 C103 1.491 . S
H99 C100 0.950 . S
C100 C97 1.390 . S
C100 H99 0.950 . S
C100 C101 1.378 . S
C101 C100 1.378 . S
C101 C102 1.409 . S
C102 C98 1.387 . S
C102 C101 1.409 . S
C102 H104 0.951 . S
C103 C98 1.491 . S
C103 C105 1.382 . S
C103 C107 1.404 . S
H104 C102 0.951 . S
C105 C103 1.382 . S
C105 C106 1.390 . S
C105 H110 0.949 . S
C106 C105 1.390 . S
C106 C111 1.399 . S
C107 C103 1.404 . S
C107 H108 0.950 . S
C107 C109 1.375 . S
H108 C107 0.950 . S
C109 C107 1.375 . S
C109 C111 1.382 . S
C109 H113 0.950 . S
H110 C105 0.949 . S
C111 C106 1.399 . S
C111 C109 1.382 . S
C111 H112 0.952 . S
H112 C111 0.952 . S
H113 C109 0.950 . S
H114 C115 0.949 . S
C115 H114 0.949 . S
C115 C116 1.395 . S
C115 C117 1.391 . S
C116 C115 1.395 . S
C116 C119 1.390 . S
C117 C115 1.391 . S
C117 C121 1.387 . S
C117 C122 1.491 . S
H118 C119 0.950 . S
C119 C116 1.390 . S
C119 H118 0.950 . S
C119 C120 1.378 . S
C120 C119 1.378 . S
C120 C121 1.409 . S
C121 C117 1.387 . S
C121 C120 1.409 . S
C121 H123 0.951 . S
C122 C117 1.491 . S
C122 C124 1.382 . S
C122 C126 1.404 . S
H123 C121 0.951 . S
C124 C122 1.382 . S
C124 C125 1.390 . S
C124 H129 0.949 . S
C125 C124 1.390 . S
C125 C130 1.399 . S
C126 C122 1.404 . S
C126 H127 0.950 . S
C126 C128 1.375 . S
H127 C126 0.950 . S
C128 C126 1.375 . S
C128 C130 1.382 . S
C128 H132 0.950 . S
H129 C124 0.949 . S
C130 C125 1.399 . S
C130 C128 1.382 . S
C130 H131 0.952 . S
H131 C130 0.952 . S
H132 C128 0.950 . S
H133 C134 0.949 . S
C134 H133 0.949 . S
C134 C135 1.395 . S
C134 C136 1.391 . S
C135 C134 1.395 . S
C135 C138 1.390 . S
C136 C134 1.391 . S
C136 C140 1.387 . S
C136 C141 1.491 . S
H137 C138 0.950 . S
C138 C135 1.390 . S
C138 H137 0.950 . S
C138 C139 1.378 . S
C139 C138 1.378 . S
C139 C140 1.409 . S
C140 C136 1.387 . S
C140 C139 1.409 . S
C140 H142 0.951 . S
C141 C136 1.491 . S
C141 C143 1.382 . S
C141 C145 1.404 . S
H142 C140 0.951 . S
C143 C141 1.382 . S
C143 C144 1.390 . S
C143 H148 0.949 . S
C144 C143 1.390 . S
C144 C149 1.399 . S
C145 C141 1.404 . S
C145 H146 0.950 . S
C145 C147 1.375 . S
H146 C145 0.950 . S
C147 C145 1.375 . S
C147 C149 1.382 . S
C147 H151 0.950 . S
H148 C143 0.949 . S
C149 C144 1.399 . S
C149 C147 1.382 . S
C149 H150 0.952 . S
H150 C149 0.952 . S
H151 C147 0.950 . S
Dy152 O155 2.307 . S
Dy152 O157 2.395 . S
Dy152 O158 2.379 . S
Dy152 O160 2.339 1_545 S
Dy152 O162 2.298 . S
Dy152 O166 2.275 . S
Dy152 C174 2.738 . S
Dy153 O156 2.294 1_645 S
Dy153 O159 2.275 1_545 S
Dy153 O161 2.307 . S
Dy153 O163 2.395 1_545 S
Dy153 O164 2.379 . S
Dy153 O167 2.339 1_655 S
Dy153 C183 2.738 1_545 S
C154 O166 1.254 . S
C154 O167 1.257 . S
O155 Dy152 2.307 . S
O155 C165 1.266 1_545 S
O156 Dy153 2.294 1_465 S
O156 C165 1.239 . S
O157 Dy152 2.395 . S
O157 C174 1.255 . S
O158 Dy152 2.379 . S
O158 C174 1.249 . S
O159 Dy153 2.275 1_565 S
O159 C175 1.254 . S
O160 Dy152 2.339 1_565 S
O160 C175 1.257 1_455 S
O161 Dy153 2.307 . S
O161 C176 1.266 . S
O162 Dy152 2.298 . S
O162 C176 1.236 1_455 S
O163 Dy153 2.395 1_565 S
O163 C183 1.255 . S
O164 Dy153 2.379 . S
O164 C183 1.249 1_545 S
C165 O155 1.266 1_565 S
C165 O156 1.239 . S
O166 Dy152 2.275 . S
O166 C154 1.254 . S
O167 Dy153 2.339 1_455 S
O167 C154 1.257 . S
C168 C171 1.344 . S
C168 C172 1.328 . S
C168 C174 1.516 . S
C169 C170 1.304 . S
C169 C173 1.323 . S
C170 C169 1.304 . S
C170 C171 1.371 . S
C170 H184 0.930 . S
C171 C168 1.344 . S
C171 C170 1.371 . S
C171 H185 0.931 . S
C172 C168 1.328 . S
C172 C173 1.433 . S
C172 H186 0.931 . S
C173 C169 1.323 . S
C173 C172 1.433 . S
C173 H187 0.933 . S
C174 Dy152 2.738 . S
C174 O157 1.255 . S
C174 O158 1.249 . S
C174 C168 1.516 . S
C175 O159 1.254 . S
C175 O160 1.257 1_655 S
C176 O161 1.266 . S
C176 O162 1.236 1_655 S
C177 C180 1.344 . S
C177 C181 1.328 . S
C177 C183 1.516 . S
C178 C179 1.304 . S
C178 C182 1.323 . S
C179 C178 1.304 . S
C179 C180 1.371 . S
C179 H188 0.930 . S
C180 C177 1.344 . S
C180 C179 1.371 . S
C180 H189 0.931 . S
C181 C177 1.328 . S
C181 C182 1.433 . S
C181 H190 0.931 . S
C182 C178 1.323 . S
C182 C181 1.433 . S
C182 H191 0.933 . S
C183 Dy153 2.738 1_565 S
C183 O163 1.255 . S
C183 O164 1.249 1_565 S
C183 C177 1.516 . S
H184 C170 0.930 . S
H185 C171 0.931 . S
H186 C172 0.931 . S
H187 C173 0.933 . S
H188 C179 0.930 . S
H189 C180 0.931 . S
H190 C181 0.931 . S
H191 C182 0.933 . S
Dy192 O195 2.307 . S
Dy192 O197 2.395 1_545 S
Dy192 O198 2.377 1_544 S
Dy192 O200 2.339 . S
Dy192 O202 2.298 1_545 S
Dy192 O206 2.275 1_545 S
Dy192 C214 2.738 1_544 S
Dy193 O196 2.298 . S
Dy193 O199 2.275 . S
Dy193 O201 2.307 1_545 S
Dy193 O203 2.395 . S
Dy193 O204 2.379 . S
Dy193 O207 2.339 1_545 S
Dy193 C223 2.738 . S
C194 O206 1.254 . S
C194 O207 1.257 . S
O195 Dy192 2.307 . S
O195 C205 1.266 . S
O196 Dy193 2.298 . S
O196 C205 1.236 . S
O197 Dy192 2.395 1_565 S
O197 C214 1.255 1_554 S
O198 Dy192 2.377 1_566 S
O198 C214 1.263 . S
O199 Dy193 2.275 . S
O199 C215 1.254 . S
O200 Dy192 2.339 . S
O200 C215 1.257 . S
O201 Dy193 2.307 1_565 S
O201 C216 1.266 . S
O202 Dy192 2.298 1_565 S
O202 C216 1.236 . S
O203 Dy193 2.395 . S
O203 C223 1.255 . S
O204 Dy193 2.379 . S
O204 C223 1.249 . S
C205 O195 1.266 . S
C205 O196 1.236 . S
O206 Dy192 2.275 1_565 S
O206 C194 1.254 . S
O207 Dy193 2.339 1_565 S
O207 C194 1.257 . S
C208 C211 1.344 . S
C208 C212 1.328 . S
C208 C214 1.516 . S
C209 C210 1.304 . S
C209 C213 1.323 . S
C210 C209 1.304 . S
C210 C211 1.371 . S
C210 H224 0.930 . S
C211 C208 1.344 . S
C211 C210 1.371 . S
C211 H225 0.931 . S
C212 C208 1.328 . S
C212 C213 1.433 . S
C212 H226 0.931 . S
C213 C209 1.323 . S
C213 C212 1.433 . S
C213 H227 0.933 . S
C214 Dy192 2.738 1_566 S
C214 O197 1.255 1_556 S
C214 O198 1.263 . S
C214 C208 1.516 . S
C215 O199 1.254 . S
C215 O200 1.257 . S
C216 O201 1.266 . S
C216 O202 1.236 . S
C217 C220 1.344 . S
C217 C221 1.328 . S
C217 C223 1.516 . S
C218 C219 1.304 . S
C218 C222 1.323 . S
C219 C218 1.304 . S
C219 C220 1.371 . S
C219 H228 0.930 . S
C220 C217 1.344 . S
C220 C219 1.371 . S
C220 H229 0.931 . S
C221 C217 1.328 . S
C221 C222 1.433 . S
C221 H230 0.931 . S
C222 C218 1.323 . S
C222 C221 1.433 . S
C222 H231 0.933 . S
C223 Dy193 2.738 . S
C223 O203 1.255 . S
C223 O204 1.249 . S
C223 C217 1.516 . S
H224 C210 0.930 . S
H225 C211 0.931 . S
H226 C212 0.931 . S
H227 C213 0.933 . S
H228 C219 0.930 . S
H229 C220 0.931 . S
H230 C221 0.931 . S
H231 C222 0.933 . S
Dy232 O235 2.307 . S
Dy232 O237 2.395 . S
Dy232 O238 2.379 . S
Dy232 O240 2.339 . S
Dy232 O242 2.298 . S
Dy232 O246 2.275 . S
Dy232 C254 2.738 . S
Dy233 O236 2.298 . S
Dy233 O239 2.275 . S
Dy233 O241 2.307 . S
Dy233 O243 2.395 . S
Dy233 O244 2.379 . S
Dy233 O247 2.339 . S
Dy233 C263 2.738 . S
C234 O246 1.254 . S
C234 O247 1.257 . S
O235 Dy232 2.307 . S
O235 C245 1.266 . S
O236 Dy233 2.298 . S
O236 C245 1.236 . S
O237 Dy232 2.395 . S
O237 C254 1.255 . S
O238 Dy232 2.379 . S
O238 C254 1.249 . S
O239 Dy233 2.275 . S
O239 C255 1.254 . S
O240 Dy232 2.339 . S
O240 C255 1.257 . S
O241 Dy233 2.307 . S
O241 C256 1.266 . S
O242 Dy232 2.298 . S
O242 C256 1.236 . S
O243 Dy233 2.395 . S
O243 C263 1.255 . S
O244 Dy233 2.379 . S
O244 C263 1.249 . S
C245 O235 1.266 . S
C245 O236 1.236 . S
O246 Dy232 2.275 . S
O246 C234 1.254 . S
O247 Dy233 2.339 . S
O247 C234 1.257 . S
C248 C251 1.344 . S
C248 C252 1.328 . S
C248 C254 1.516 . S
C249 C250 1.304 . S
C249 C253 1.323 . S
C250 C249 1.304 . S
C250 C251 1.371 . S
C250 H264 0.930 . S
C251 C248 1.344 . S
C251 C250 1.371 . S
C251 H265 0.931 . S
C252 C248 1.328 . S
C252 C253 1.433 . S
C252 H266 0.931 . S
C253 C249 1.323 . S
C253 C252 1.433 . S
C253 H267 0.933 . S
C254 Dy232 2.738 . S
C254 O237 1.255 . S
C254 O238 1.249 . S
C254 C248 1.516 . S
C255 O239 1.254 . S
C255 O240 1.257 . S
C256 O241 1.266 . S
C256 O242 1.236 . S
C257 C260 1.344 . S
C257 C261 1.328 . S
C257 C263 1.516 . S
C258 C259 1.304 . S
C258 C262 1.323 . S
C259 C258 1.304 . S
C259 C260 1.371 . S
C259 H268 0.930 . S
C260 C257 1.344 . S
C260 C259 1.371 . S
C260 H269 0.931 . S
C261 C257 1.328 . S
C261 C262 1.433 . S
C261 H270 0.931 . S
C262 C258 1.323 . S
C262 C261 1.433 . S
C262 H271 0.933 . S
C263 Dy233 2.738 . S
C263 O243 1.255 . S
C263 O244 1.249 . S
C263 C257 1.516 . S
H264 C250 0.930 . S
H265 C251 0.931 . S
H266 C252 0.931 . S
H267 C253 0.933 . S
H268 C259 0.930 . S
H269 C260 0.931 . S
H270 C261 0.931 . S
H271 C262 0.933 . S
Dy272 O275 2.307 1_556 S
Dy272 O277 2.395 1_455 S
Dy272 O278 2.379 . S
Dy272 O280 2.339 . S
Dy272 O282 2.298 1_455 S
Dy272 O286 2.275 1_556 S
Dy272 C294 2.738 1_455 S
Dy273 O276 2.298 . S
Dy273 O279 2.275 1_554 S
Dy273 O281 2.307 1_455 S
Dy273 O283 2.395 . S
Dy273 O284 2.379 . S
Dy273 O287 2.339 . S
Dy273 C303 2.738 . S
C274 O286 1.254 . S
C274 O287 1.257 . S
O275 Dy272 2.307 1_554 S
O275 C285 1.266 . S
O276 Dy273 2.298 . S
O276 C285 1.236 . S
O277 Dy272 2.395 1_655 S
O277 C294 1.257 . S
O278 Dy272 2.379 . S
O278 C294 1.249 1_455 S
O279 Dy273 2.275 1_556 S
O279 C295 1.254 . S
O280 Dy272 2.339 . S
O280 C295 1.257 . S
O281 Dy273 2.307 1_655 S
O281 C296 1.266 1_554 S
O282 Dy272 2.298 1_655 S
O282 C296 1.236 . S
O283 Dy273 2.395 . S
O283 C303 1.255 . S
O284 Dy273 2.379 . S
O284 C303 1.249 . S
C285 O275 1.266 . S
C285 O276 1.236 . S
O286 Dy272 2.275 1_554 S
O286 C274 1.254 . S
O287 Dy273 2.339 . S
O287 C274 1.257 . S
C288 C291 1.344 . S
C288 C292 1.328 . S
C288 C294 1.516 . S
C289 C290 1.304 . S
C289 C293 1.323 . S
C290 C289 1.304 . S
C290 C291 1.371 . S
C290 H304 0.930 . S
C291 C288 1.344 . S
C291 C290 1.371 . S
C291 H305 0.931 . S
C292 C288 1.328 . S
C292 C293 1.433 . S
C292 H306 0.931 . S
C293 C289 1.323 . S
C293 C292 1.433 . S
C293 H307 0.933 . S
C294 Dy272 2.738 1_655 S
C294 O277 1.257 . S
C294 O278 1.249 1_655 S
C294 C288 1.516 . S
C295 O279 1.254 . S
C295 O280 1.257 . S
C296 O281 1.266 1_556 S
C296 O282 1.236 . S
C297 C300 1.344 . S
C297 C301 1.328 . S
C297 C303 1.516 . S
C298 C299 1.304 . S
C298 C302 1.323 . S
C299 C298 1.304 . S
C299 C300 1.371 . S
C299 H308 0.930 . S
C300 C297 1.344 . S
C300 C299 1.371 . S
C300 H309 0.931 . S
C301 C297 1.328 . S
C301 C302 1.433 . S
C301 H310 0.931 . S
C302 C298 1.323 . S
C302 C301 1.433 . S
C302 H311 0.933 . S
C303 Dy273 2.738 . S
C303 O283 1.255 . S
C303 O284 1.249 . S
C303 C297 1.516 . S
H304 C290 0.930 . S
H305 C291 0.931 . S
H306 C292 0.931 . S
H307 C293 0.933 . S
H308 C299 0.930 . S
H309 C300 0.931 . S
H310 C301 0.931 . S
H311 C302 0.933 . S
C312 C313 1.369 . S
C312 C314 1.419 . S
C312 H316 0.930 . S
C313 C312 1.369 . S
C313 C322 1.429 . S
C314 C312 1.419 . S
C314 C315 1.363 . S
C314 H317 0.929 . S
C315 C314 1.363 . S
C315 C321 1.428 . S
H316 C312 0.930 . S
H317 C314 0.929 . S
S318 N319 1.613 . S
S318 N320 1.610 . S
N319 S318 1.613 . S
N319 C322 1.350 . S
N320 S318 1.610 . S
N320 C321 1.351 . S
C321 C315 1.428 . S
C321 N320 1.351 . S
C321 C322 1.434 . S
C322 C313 1.429 . S
C322 N319 1.350 . S
C322 C321 1.434 . S
C323 C324 1.369 . S
C323 C325 1.419 . S
C323 H327 0.930 . S
C324 C323 1.369 . S
C324 C333 1.429 . S
C325 C323 1.419 . S
C325 C326 1.363 . S
C325 H328 0.929 . S
C326 C325 1.363 . S
C326 C332 1.428 . S
H327 C323 0.930 . S
H328 C325 0.929 . S
S329 N330 1.613 . S
S329 N331 1.610 . S
N330 S329 1.613 . S
N330 C333 1.350 . S
N331 S329 1.610 . S
N331 C332 1.351 . S
C332 C326 1.428 . S
C332 N331 1.351 . S
C332 C333 1.434 . S
C333 C324 1.429 . S
C333 N330 1.350 . S
C333 C332 1.434 . S
C334 C335 1.369 . S
C334 C336 1.419 . S
C334 H338 0.930 . S
C335 C334 1.369 . S
C335 C344 1.429 . S
C336 C334 1.419 . S
C336 C337 1.363 . S
C336 H339 0.929 . S
C337 C336 1.363 . S
C337 C343 1.428 . S
H338 C334 0.930 . S
H339 C336 0.929 . S
S340 N341 1.613 . S
S340 N342 1.610 . S
N341 S340 1.613 . S
N341 C344 1.350 . S
N342 S340 1.610 . S
N342 C343 1.351 . S
C343 C337 1.428 . S
C343 N342 1.351 . S
C343 C344 1.434 . S
C344 C335 1.429 . S
C344 N341 1.350 . S
C344 C343 1.434 . S
C345 C346 1.369 . S
C345 C347 1.419 . S
C345 H349 0.930 . S
C346 C345 1.369 . S
C346 C355 1.429 . S
C347 C345 1.419 . S
C347 C348 1.363 . S
C347 H350 0.929 1_655 S
C348 C347 1.363 . S
C348 C354 1.428 . S
H349 C345 0.930 . S
H350 C347 0.929 1_455 S
S351 N352 1.613 . S
S351 N353 1.610 . S
N352 S351 1.613 . S
N352 C355 1.350 . S
N353 S351 1.610 . S
N353 C354 1.351 . S
C354 C348 1.428 . S
C354 N353 1.351 . S
C354 C355 1.434 . S
C355 C346 1.429 . S
C355 N352 1.350 . S
C355 C354 1.434 . S
C356 C357 1.369 . S
C356 C358 1.419 . S
C356 H360 0.930 . S
C357 C356 1.369 . S
C357 C366 1.429 . S
C358 C356 1.419 . S
C358 C359 1.363 . S
C358 H361 0.929 . S
C359 C358 1.363 . S
C359 C365 1.428 . S
H360 C356 0.930 . S
H361 C358 0.929 . S
S362 N363 1.613 . S
S362 N364 1.610 . S
N363 S362 1.613 . S
N363 C366 1.350 . S
N364 S362 1.610 . S
N364 C365 1.351 . S
C365 C359 1.428 . S
C365 N364 1.351 . S
C365 C366 1.434 . S
C366 C357 1.429 . S
C366 N363 1.350 . S
C366 C365 1.434 . S
C367 C368 1.369 . S
C367 C369 1.419 . S
C367 H371 0.930 . S
C368 C367 1.369 . S
C368 C377 1.429 1_655 S
C369 C367 1.419 . S
C369 C370 1.363 1_655 S
C369 H372 0.929 . S
C370 C369 1.363 1_455 S
C370 C376 1.428 . S
H371 C367 0.930 . S
H372 C369 0.929 . S
S373 N374 1.613 . S
S373 N375 1.610 . S
N374 S373 1.613 . S
N374 C377 1.350 . S
N375 S373 1.610 . S
N375 C376 1.351 . S
C376 C370 1.428 . S
C376 N375 1.351 . S
C376 C377 1.434 . S
C377 C368 1.429 1_455 S
C377 N374 1.350 . S
C377 C376 1.434 . S
C378 C379 1.369 . S
C378 C380 1.419 . S
C378 H382 0.930 . S
C379 C378 1.369 . S
C379 C388 1.429 . S
C380 C378 1.419 . S
C380 C381 1.363 . S
C380 H383 0.929 . S
C381 C380 1.363 . S
C381 C387 1.428 . S
H382 C378 0.930 . S
H383 C380 0.929 . S
S384 N385 1.613 . S
S384 N386 1.610 . S
N385 S384 1.613 . S
N385 C388 1.350 . S
N386 S384 1.610 . S
N386 C387 1.351 . S
C387 C381 1.428 . S
C387 N386 1.351 . S
C387 C388 1.434 . S
C388 C379 1.429 . S
C388 N385 1.350 . S
C388 C387 1.434 . S
C389 C390 1.369 . S
C389 C391 1.419 . S
C389 H393 0.930 . S
C390 C389 1.369 . S
C390 C399 1.429 . S
C391 C389 1.419 . S
C391 C392 1.363 . S
C391 H394 0.929 . S
C392 C391 1.363 . S
C392 C398 1.428 . S
H393 C389 0.930 . S
H394 C391 0.929 . S
S395 N396 1.613 . S
S395 N397 1.610 . S
N396 S395 1.613 . S
N396 C399 1.350 . S
N397 S395 1.610 . S
N397 C398 1.351 . S
C398 C392 1.428 . S
C398 N397 1.351 . S
C398 C399 1.434 . S
C399 C390 1.429 . S
C399 N396 1.350 . S
C399 C398 1.434 . S
C400 C401 1.369 . S
C400 C402 1.419 . S
C400 H404 0.930 . S
C401 C400 1.369 . S
C401 C410 1.429 . S
C402 C400 1.419 . S
C402 C403 1.363 . S
C402 H405 0.929 . S
C403 C402 1.363 . S
C403 C409 1.428 . S
H404 C400 0.930 . S
H405 C402 0.929 . S
S406 N407 1.613 . S
S406 N408 1.610 . S
N407 S406 1.613 . S
N407 C410 1.350 . S
N408 S406 1.610 . S
N408 C409 1.351 . S
C409 C403 1.428 . S
C409 N408 1.351 . S
C409 C410 1.434 . S
C410 C401 1.429 . S
C410 N407 1.350 . S
C410 C409 1.434 . S
C411 C412 1.369 1_554 S
C411 C413 1.419 . S
C411 H415 0.930 . S
C412 C411 1.369 1_556 S
C412 C421 1.429 . S
C413 C411 1.419 . S
C413 C414 1.363 . S
C413 H416 0.929 . S
C414 C413 1.363 . S
C414 C420 1.428 1_554 S
H415 C411 0.930 . S
H416 C413 0.929 . S
S417 N418 1.613 . S
S417 N419 1.610 . S
N418 S417 1.613 . S
N418 C421 1.350 . S
N419 S417 1.610 . S
N419 C420 1.351 . S
C420 C414 1.428 1_556 S
C420 N419 1.351 . S
C420 C421 1.434 . S
C421 C412 1.429 . S
C421 N418 1.350 . S
C421 C420 1.434 . S
C422 C423 1.369 . S
C422 C424 1.419 . S
C422 H426 0.930 . S
C423 C422 1.369 . S
C423 C432 1.429 . S
C424 C422 1.419 . S
C424 C425 1.363 . S
C424 H427 0.929 . S
C425 C424 1.363 . S
C425 C431 1.428 . S
H426 C422 0.930 . S
H427 C424 0.929 . S
S428 N429 1.613 . S
S428 N430 1.610 . S
N429 S428 1.613 . S
N429 C432 1.350 . S
N430 S428 1.610 . S
N430 C431 1.351 . S
C431 C425 1.428 . S
C431 N430 1.351 . S
C431 C432 1.434 . S
C432 C423 1.429 . S
C432 N429 1.350 . S
C432 C431 1.434 . S
C433 C434 1.369 . S
C433 C435 1.419 . S
C433 H437 0.930 . S
C434 C433 1.369 . S
C434 C443 1.429 . S
C435 C433 1.419 . S
C435 C436 1.363 . S
C435 H438 0.929 . S
C436 C435 1.363 . S
C436 C442 1.428 . S
H437 C433 0.930 . S
H438 C435 0.929 . S
S439 N440 1.613 . S
S439 N441 1.610 . S
N440 S439 1.613 . S
N440 C443 1.350 . S
N441 S439 1.610 . S
N441 C442 1.351 . S
C442 C436 1.428 . S
C442 N441 1.351 . S
C442 C443 1.434 . S
C443 C434 1.429 . S
C443 N440 1.350 . S
C443 C442 1.434 . S
C444 C445 1.369 . S
C444 C446 1.419 . S
C444 H448 0.930 . S
C445 C444 1.369 . S
C445 C454 1.429 . S
C446 C444 1.419 . S
C446 C447 1.363 . S
C446 H449 0.929 . S
C447 C446 1.363 . S
C447 C453 1.428 . S
H448 C444 0.930 . S
H449 C446 0.929 . S
S450 N451 1.613 . S
S450 N452 1.610 . S
N451 S450 1.613 . S
N451 C454 1.350 . S
N452 S450 1.610 . S
N452 C453 1.351 . S
C453 C447 1.428 . S
C453 N452 1.351 . S
C453 C454 1.434 . S
C454 C445 1.429 . S
C454 N451 1.350 . S
C454 C453 1.434 . S
C455 C456 1.369 . S
C455 C457 1.419 . S
C455 H459 0.930 . S
C456 C455 1.369 . S
C456 C465 1.429 . S
C457 C455 1.419 . S
C457 C458 1.363 . S
C457 H460 0.929 . S
C458 C457 1.363 . S
C458 C464 1.428 . S
H459 C455 0.930 . S
H460 C457 0.929 . S
S461 N462 1.613 . S
S461 N463 1.610 . S
N462 S461 1.613 . S
N462 C465 1.350 . S
N463 S461 1.610 . S
N463 C464 1.351 . S
C464 C458 1.428 . S
C464 N463 1.351 . S
C464 C465 1.434 . S
C465 C456 1.429 . S
C465 N462 1.350 . S
C465 C464 1.434 . S
C466 C467 1.369 . S
C466 C468 1.419 . S
C466 H470 0.930 . S
C467 C466 1.369 . S
C467 C476 1.429 . S
C468 C466 1.419 . S
C468 C469 1.363 . S
C468 H471 0.929 . S
C469 C468 1.363 . S
C469 C475 1.428 . S
H470 C466 0.930 . S
H471 C468 0.929 . S
S472 N473 1.613 . S
S472 N474 1.610 . S
N473 S472 1.613 . S
N473 C476 1.350 . S
N474 S472 1.610 . S
N474 C475 1.351 . S
C475 C469 1.428 . S
C475 N474 1.351 . S
C475 C476 1.434 . S
C476 C467 1.429 . S
C476 N473 1.350 . S
C476 C475 1.434 . S
C477 C478 1.369 . S
C477 C479 1.419 . S
C477 H481 0.930 . S
C478 C477 1.369 . S
C478 C487 1.429 . S
C479 C477 1.419 . S
C479 C480 1.363 . S
C479 H482 0.929 . S
C480 C479 1.363 . S
C480 C486 1.428 . S
H481 C477 0.930 . S
H482 C479 0.929 . S
S483 N484 1.613 . S
S483 N485 1.610 . S
N484 S483 1.613 . S
N484 C487 1.350 . S
N485 S483 1.610 . S
N485 C486 1.351 . S
C486 C480 1.428 . S
C486 N485 1.351 . S
C486 C487 1.434 . S
C487 C478 1.429 . S
C487 N484 1.350 . S
C487 C486 1.434 . S
C488 C489 1.369 . S
C488 C490 1.419 1_556 S
C488 H492 0.926 1_556 S
C489 C488 1.369 . S
C489 C498 1.429 . S
C490 C488 1.419 1_554 S
C490 C491 1.363 . S
C490 H493 0.929 . S
C491 C490 1.363 . S
C491 C497 1.428 1_554 S
H492 C488 0.926 1_554 S
H493 C490 0.929 . S
S494 N495 1.613 . S
S494 N496 1.610 . S
N495 S494 1.613 . S
N495 C498 1.350 . S
N496 S494 1.610 . S
N496 C497 1.351 . S
C497 C491 1.428 1_556 S
C497 N496 1.351 . S
C497 C498 1.434 . S
C498 C489 1.429 . S
C498 N495 1.350 . S
C498 C497 1.434 . S
C499 C500 1.369 . S
C499 C501 1.419 . S
C499 H503 0.930 1_655 S
C500 C499 1.369 . S
C500 C509 1.429 . S
C501 C499 1.419 . S
C501 C502 1.363 . S
C501 H504 0.929 1_655 S
C502 C501 1.363 . S
C502 C508 1.428 . S
H503 C499 0.930 1_455 S
H504 C501 0.929 1_455 S
S505 N506 1.613 . S
S505 N507 1.610 . S
N506 S505 1.613 . S
N506 C509 1.350 . S
N507 S505 1.610 . S
N507 C508 1.351 . S
C508 C502 1.428 . S
C508 N507 1.351 . S
C508 C509 1.434 . S
C509 C500 1.429 . S
C509 N506 1.350 . S
C509 C508 1.434 . S
C510 C511 1.369 . S
C510 C512 1.419 . S
C510 H514 0.930 . S
C511 C510 1.369 . S
C511 C520 1.429 . S
C512 C510 1.419 . S
C512 C513 1.363 . S
C512 H515 0.929 . S
C513 C512 1.363 . S
C513 C519 1.428 . S
H514 C510 0.930 . S
H515 C512 0.929 . S
S516 N517 1.613 . S
S516 N518 1.610 . S
N517 S516 1.613 . S
N517 C520 1.350 . S
N518 S516 1.610 . S
N518 C519 1.351 . S
C519 C513 1.428 . S
C519 N518 1.351 . S
C519 C520 1.434 . S
C520 C511 1.429 . S
C520 N517 1.350 . S
C520 C519 1.434 . S
C521 C522 1.369 . S
C521 C523 1.419 . S
C521 H525 0.930 . S
C522 C521 1.369 . S
C522 C531 1.429 . S
C523 C521 1.419 . S
C523 C524 1.363 . S
C523 H526 0.929 . S
C524 C523 1.363 . S
C524 C530 1.428 . S
H525 C521 0.930 . S
H526 C523 0.929 . S
S527 N528 1.613 . S
S527 N529 1.610 . S
N528 S527 1.613 . S
N528 C531 1.350 . S
N529 S527 1.610 . S
N529 C530 1.351 . S
C530 C524 1.428 . S
C530 N529 1.351 . S
C530 C531 1.434 . S
C531 C522 1.429 . S
C531 N528 1.350 . S
C531 C530 1.434 . S
C532 C533 1.369 . S
C532 C534 1.419 . S
C532 H536 0.930 . S
C533 C532 1.369 . S
C533 C542 1.429 . S
C534 C532 1.419 . S
C534 C535 1.363 . S
C534 H537 0.929 . S
C535 C534 1.363 . S
C535 C541 1.428 . S
H536 C532 0.930 . S
H537 C534 0.929 . S
S538 N539 1.613 . S
S538 N540 1.610 . S
N539 S538 1.613 . S
N539 C542 1.350 . S
N540 S538 1.610 . S
N540 C541 1.351 . S
C541 C535 1.428 . S
C541 N540 1.351 . S
C541 C542 1.434 . S
C542 C533 1.429 . S
C542 N539 1.350 . S
C542 C541 1.434 . S
C543 C544 1.369 . S
C543 C545 1.419 . S
C543 H547 0.930 . S
C544 C543 1.369 . S
C544 C553 1.429 . S
C545 C543 1.419 . S
C545 C546 1.363 . S
C545 H548 0.929 . S
C546 C545 1.363 . S
C546 C552 1.428 . S
H547 C543 0.930 . S
H548 C545 0.929 . S
S549 N550 1.613 . S
S549 N551 1.610 . S
N550 S549 1.613 . S
N550 C553 1.350 . S
N551 S549 1.610 . S
N551 C552 1.351 . S
C552 C546 1.428 . S
C552 N551 1.351 . S
C552 C553 1.434 . S
C553 C544 1.429 . S
C553 N550 1.350 . S
C553 C552 1.434 . S
C554 C555 1.369 . S
C554 C556 1.419 . S
C554 H558 0.930 . S
C555 C554 1.369 . S
C555 C564 1.429 . S
C556 C554 1.419 . S
C556 C557 1.363 . S
C556 H559 0.929 . S
C557 C556 1.363 . S
C557 C563 1.428 . S
H558 C554 0.930 . S
H559 C556 0.929 . S
S560 N561 1.613 . S
S560 N562 1.610 . S
N561 S560 1.613 . S
N561 C564 1.350 . S
N562 S560 1.610 . S
N562 C563 1.351 . S
C563 C557 1.428 . S
C563 N562 1.351 . S
C563 C564 1.434 . S
C564 C555 1.429 . S
C564 N561 1.350 . S
C564 C563 1.434 . S
C565 C566 1.369 . S
C565 C567 1.419 . S
C565 H569 0.930 . S
C566 C565 1.369 . S
C566 C575 1.429 . S
C567 C565 1.419 . S
C567 C568 1.363 . S
C567 H570 0.929 . S
C568 C567 1.363 . S
C568 C574 1.428 . S
H569 C565 0.930 . S
H570 C567 0.929 . S
S571 N572 1.613 . S
S571 N573 1.610 . S
N572 S571 1.613 . S
N572 C575 1.350 . S
N573 S571 1.610 . S
N573 C574 1.351 . S
C574 C568 1.428 . S
C574 N573 1.351 . S
C574 C575 1.434 . S
C575 C566 1.429 . S
C575 N572 1.350 . S
C575 C574 1.434 . S
C313 C6 1.210 . S
C315 C169 1.274 . S
C324 C21 1.342 . S
C326 C209 1.422 . S
C337 C234 2.060 . S
C335 C49 2.077 . S
C346 C68 2.231 . S
C348 C274 2.309 1_655 S
C359 C205 2.399 . S
C357 C2 2.270 . S
C370 C165 1.632 . S
C368 C30 1.579 . S
C381 C296 1.782 . S
C379 C40 1.801 . S
C392 C256 1.726 . S
C390 C63 1.821 . S
C401 C11 1.243 . S
C403 C298 1.406 . S
C414 C215 2.466 . S
C412 C44 2.513 . S
C423 C59 1.847 . S
C425 C175 1.833 . S
C434 C25 2.069 . S
C436 C258 2.024 . S
C447 C178 1.342 . S
C445 C82 1.311 . S
C456 C101 1.206 . S
C458 C218 1.270 . S
C467 C125 2.273 . S
C469 C255 2.304 . S
C478 C144 2.096 . S
C480 C295 2.110 . S
C489 C87 1.577 . S
C491 C216 1.680 . S
C502 C176 2.345 . S
C500 C97 2.218 . S
C513 C285 1.690 . S
C511 C120 1.783 . S
C524 C245 1.802 . S
C522 C135 1.815 . S
C533 C78 2.015 . S
C535 C289 2.093 . S
C546 C194 1.811 . S
C544 C116 1.820 . S
C557 C154 2.446 . S
C555 C139 2.489 . S
C566 C106 1.011 . S
C568 C249 1.414 . S
