# Generated by pormake.
# Topology pyr, (3,6)-cn, num edge types: 1
# Building blocks:
#     Node 0, Type 0, BuildingBlock: BETDIP_clean_linker_0, # of connection points: 3
#     Node 1, Type 0, BuildingBlock: BETDIP_clean_linker_0, # of connection points: 3
#     Node 2, Type 0, BuildingBlock: BETDIP_clean_linker_0, # of connection points: 3
#     Node 3, Type 0, BuildingBlock: BETDIP_clean_linker_0, # of connection points: 3
#     Node 4, Type 0, BuildingBlock: BETDIP_clean_linker_0, # of connection points: 3
#     Node 5, Type 0, BuildingBlock: BETDIP_clean_linker_0, # of connection points: 3
#     Node 6, Type 0, BuildingBlock: BETDIP_clean_linker_0, # of connection points: 3
#     Node 7, Type 0, BuildingBlock: BETDIP_clean_linker_0, # of connection points: 3
#     Node 8, Type 1, BuildingBlock: MIFKUJ_clean_sbu_0, # of connection points: 6
#     Node 9, Type 1, BuildingBlock: MIFKUJ_clean_sbu_0, # of connection points: 6
#     Node 10, Type 1, BuildingBlock: MIFKUJ_clean_sbu_0, # of connection points: 6
#     Node 11, Type 1, BuildingBlock: MIFKUJ_clean_sbu_0, # of connection points: 6
#     Edge 12, Type (0, 1), BuildingBlock: OJICUG_clean_linker_0, # of connection points: 2
#     Edge 13, Type (0, 1), BuildingBlock: OJICUG_clean_linker_0, # of connection points: 2
#     Edge 14, Type (0, 1), BuildingBlock: OJICUG_clean_linker_0, # of connection points: 2
#     Edge 15, Type (0, 1), BuildingBlock: OJICUG_clean_linker_0, # of connection points: 2
#     Edge 16, Type (0, 1), BuildingBlock: OJICUG_clean_linker_0, # of connection points: 2
#     Edge 17, Type (0, 1), BuildingBlock: OJICUG_clean_linker_0, # of connection points: 2
#     Edge 18, Type (0, 1), BuildingBlock: OJICUG_clean_linker_0, # of connection points: 2
#     Edge 19, Type (0, 1), BuildingBlock: OJICUG_clean_linker_0, # of connection points: 2
#     Edge 20, Type (0, 1), BuildingBlock: OJICUG_clean_linker_0, # of connection points: 2
#     Edge 21, Type (0, 1), BuildingBlock: OJICUG_clean_linker_0, # of connection points: 2
#     Edge 22, Type (0, 1), BuildingBlock: OJICUG_clean_linker_0, # of connection points: 2
#     Edge 23, Type (0, 1), BuildingBlock: OJICUG_clean_linker_0, # of connection points: 2
#     Edge 24, Type (0, 1), BuildingBlock: OJICUG_clean_linker_0, # of connection points: 2
#     Edge 25, Type (0, 1), BuildingBlock: OJICUG_clean_linker_0, # of connection points: 2
#     Edge 26, Type (0, 1), BuildingBlock: OJICUG_clean_linker_0, # of connection points: 2
#     Edge 27, Type (0, 1), BuildingBlock: OJICUG_clean_linker_0, # of connection points: 2
#     Edge 28, Type (0, 1), BuildingBlock: OJICUG_clean_linker_0, # of connection points: 2
#     Edge 29, Type (0, 1), BuildingBlock: OJICUG_clean_linker_0, # of connection points: 2
#     Edge 30, Type (0, 1), BuildingBlock: OJICUG_clean_linker_0, # of connection points: 2
#     Edge 31, Type (0, 1), BuildingBlock: OJICUG_clean_linker_0, # of connection points: 2
#     Edge 32, Type (0, 1), BuildingBlock: OJICUG_clean_linker_0, # of connection points: 2
#     Edge 33, Type (0, 1), BuildingBlock: OJICUG_clean_linker_0, # of connection points: 2
#     Edge 34, Type (0, 1), BuildingBlock: OJICUG_clean_linker_0, # of connection points: 2
#     Edge 35, Type (0, 1), BuildingBlock: OJICUG_clean_linker_0, # of connection points: 2
# Relax obj value: 0.063
# Max RMSD: 0.187
# Mean RMSD: 0.126
data_MOF--net-pyr--node1-MIFKUJ_clean_sbu_0--node2-BETDIP_clean_linker_0--edge1-OJICUG_clean_linker_0
_symmetry_space_group_name_H-M    P1
_symmetry_Int_Tables_number       1
_symmetry_cell_setting            triclinic
loop_
_symmetry_equiv_pos_as_xyz
'x, y, z'
_cell_length_a     29.091145
_cell_length_b     25.371517
_cell_length_c     28.191605
_cell_angle_alpha  88.527849
_cell_angle_beta   83.1902
_cell_angle_gamma 105.57056
loop_
_atom_site_label
_atom_site_type_symbol
_atom_site_fract_x
_atom_site_fract_y
_atom_site_fract_z
_atom_type_partial_charge
H0 H 0.1087 0.14838 0.22468 0.0
H1 H 0.22839 0.15979 0.1164 0.0
H2 H 0.22972 0.09582 0.25913 0.0
H3 H 0.06942 0.15919 0.16441 0.0
C4 C 0.09654 0.18381 0.13696 0.0
C5 C 0.14365 0.14228 0.21359 0.0
C6 C 0.16671 0.1209 0.24735 0.0
C7 C 0.16557 0.15526 0.16603 0.0
C8 C 0.21121 0.14804 0.15281 0.0
C9 C 0.23485 0.12662 0.18604 0.0
C10 C 0.21217 0.11299 0.23326 0.0
N11 N 0.14415 0.1783 0.13106 0.0
H12 H 0.30881 0.87912 0.76119 0.0
H13 H 0.32295 0.79599 0.63126 0.0
H14 H 0.41971 0.79702 0.73524 0.0
H15 H 0.27527 0.83979 0.60505 0.0
C16 C 0.25719 0.85694 0.63407 0.0
C17 C 0.32717 0.85529 0.73842 0.0
C18 C 0.36507 0.83796 0.75411 0.0
C19 C 0.31224 0.84161 0.69369 0.0
C20 C 0.33541 0.80927 0.66467 0.0
C21 C 0.37415 0.79236 0.67949 0.0
C22 C 0.38887 0.80776 0.724 0.0
N23 N 0.27346 0.86051 0.67992 0.0
H24 H 0.7137 0.4413 0.80335 0.0
H25 H 0.59382 0.29693 0.81922 0.0
H26 H 0.69335 0.32269 0.92193 0.0
H27 H 0.58347 0.32148 0.74733 0.0
C28 C 0.5988 0.36536 0.74084 0.0
C29 C 0.69356 0.40357 0.82343 0.0
C30 C 0.7095 0.38627 0.8649 0.0
C31 C 0.65191 0.37229 0.80662 0.0
C32 C 0.6263 0.32187 0.83097 0.0
C33 C 0.64175 0.30381 0.87216 0.0
C34 C 0.68257 0.33655 0.88941 0.0
N35 N 0.6364 0.39399 0.7662 0.0
H36 H 0.81155 0.56771 0.3506 0.0
H37 H 0.91263 0.72643 0.31892 0.0
H38 H 0.79982 0.70119 0.43758 0.0
H39 H 0.89981 0.69125 0.23916 0.0
C40 C 0.90467 0.65086 0.24599 0.0
C41 C 0.82494 0.60995 0.35945 0.0
C42 C 0.80046 0.63065 0.39721 0.0
C43 C 0.86469 0.64437 0.3306 0.0
C44 C 0.88167 0.69971 0.34091 0.0
C45 C 0.85822 0.72047 0.37959 0.0
C46 C 0.81791 0.68554 0.40753 0.0
N47 N 0.88624 0.6221 0.29108 0.0
H48 H 0.7633 0.84145 0.87437 0.0
H49 H 0.87759 0.84285 0.7631 0.0
H50 H 0.76553 0.91519 0.73434 0.0
H51 H 0.91659 0.8295 0.82252 0.0
C52 C 0.88985 0.80679 0.8512 0.0
C53 C 0.77933 0.85154 0.83743 0.0
C54 C 0.75858 0.87969 0.8062 0.0
C55 C 0.82221 0.83848 0.82244 0.0
C56 C 0.84437 0.85266 0.77515 0.0
C57 C 0.82453 0.88115 0.74337 0.0
C58 C 0.7813 0.8939 0.75898 0.0
N59 N 0.84194 0.81138 0.85617 0.0
H60 H 0.68366 0.11885 0.29985 0.0
H61 H 0.66177 0.20465 0.42688 0.0
H62 H 0.56991 0.19812 0.31758 0.0
H63 H 0.73737 0.21002 0.43214 0.0
C64 C 0.74564 0.17461 0.41626 0.0
C65 C 0.66372 0.1424 0.32112 0.0
C66 C 0.62519 0.15662 0.30357 0.0
C67 C 0.67813 0.1606 0.36505 0.0
C68 C 0.65193 0.19117 0.39254 0.0
C69 C 0.61302 0.20531 0.37551 0.0
C70 C 0.60008 0.18786 0.33096 0.0
N71 N 0.71918 0.14783 0.38017 0.0
H72 H 0.31537 0.57461 0.22825 0.0
H73 H 0.43633 0.71801 0.21156 0.0
H74 H 0.33095 0.6979 0.11482 0.0
H75 H 0.44366 0.69473 0.28566 0.0
C76 C 0.42875 0.65077 0.29209 0.0
C77 C 0.33504 0.61292 0.20878 0.0
C78 C 0.31735 0.63199 0.16926 0.0
C79 C 0.37756 0.64339 0.22465 0.0
C80 C 0.40313 0.69396 0.20046 0.0
C81 C 0.38551 0.71422 0.16162 0.0
C82 C 0.34314 0.68281 0.14597 0.0
N83 N 0.39333 0.62131 0.26471 0.0
H84 H 0.08605 0.28212 0.70896 0.0
H85 H 0.20835 0.41304 0.73161 0.0
H86 H 0.21473 0.3202 0.60714 0.0
H87 H 0.17645 0.38289 0.81118 0.0
C88 C 0.1402 0.38458 0.80696 0.0
C89 C 0.12262 0.30633 0.69725 0.0
C90 C 0.14803 0.29515 0.65471 0.0
C91 C 0.14445 0.34841 0.72532 0.0
C92 C 0.19162 0.38047 0.71005 0.0
C93 C 0.21715 0.37113 0.66706 0.0
C94 C 0.19504 0.32822 0.6399 0.0
N95 N 0.11793 0.35937 0.76787 0.0
Zn96 Zn 0.04656 0.99102 0.5274 0.0
Zn97 Zn 0.96886 0.03517 0.4815 0.0
C98 C 0.09362 0.10264 0.54765 0.0
O99 O 0.12401 0.09951 0.51017 0.0
C100 C 0.9137 0.93747 0.44816 0.0
O101 O 0.87953 0.95889 0.46617 0.0
O102 O 0.09398 0.95114 0.54726 0.0
O103 O 0.97922 0.94608 0.55196 0.0
O104 O 0.95186 0.01908 0.55255 0.0
C105 C 0.1054 0.95155 0.58951 0.0
O106 O 0.08478 0.97714 0.62193 0.0
O107 O 0.0581 0.06156 0.56154 0.0
C108 C 0.90277 0.10485 0.48127 0.0
O109 O 0.91755 0.12031 0.52229 0.0
O110 O 0.92072 0.0712 0.45811 0.0
O111 O 0.03488 0.08011 0.45468 0.0
O112 O 0.06291 0.00776 0.45602 0.0
O113 O 0.95723 0.96275 0.45097 0.0
C114 C 0.94936 0.97127 0.56944 0.0
C115 C 0.06258 0.05309 0.43592 0.0
Zn116 Zn 0.53007 0.96876 0.96685 0.0
Zn117 Zn 0.48459 0.04023 0.06659 0.0
C118 C 0.45665 0.89535 0.9229 0.0
O119 O 0.47528 0.85939 0.94207 0.0
C120 C 0.54918 0.09918 0.12642 0.0
O121 O 0.54437 0.13865 0.09799 0.0
O122 O 0.5793 0.9374 0.93126 0.0
O123 O 0.55603 0.05053 0.95489 0.0
O124 O 0.52094 0.09153 0.01103 0.0
C125 C 0.60022 0.95769 0.89015 0.0
O126 O 0.58953 -7e-05 0.87101 0.0
O127 O 0.47209 0.94546 0.93163 0.0
C128 C 0.41581 0.07742 0.13173 0.0
O129 O 0.44184 0.06977 0.16492 0.0
O130 O 0.42794 0.06817 0.08863 0.0
O131 O 0.45447 0.95994 0.05883 0.0
O132 O 0.5177 0.93167 0.03364 0.0
O133 O 0.52718 0.04993 0.11964 0.0
C134 C 0.5482 0.09352 0.97205 0.0
C135 C 0.47752 0.92409 0.05964 0.0
Zn136 Zn 0.51263 0.46108 0.49604 0.0
Zn137 Zn 0.49853 0.55751 0.55013 0.0
C138 C 0.61625 0.49585 0.48624 0.0
O139 O 0.61093 0.44576 0.50364 0.0
C140 C 0.40997 0.5071 0.60633 0.0
O141 O 0.43052 0.54175 0.63635 0.0
O142 O 0.51824 0.39314 0.46227 0.0
O143 O 0.49981 0.44279 0.56717 0.0
O144 O 0.54324 0.52413 0.58298 0.0
C145 C 0.52401 0.35102 0.48365 0.0
O146 O 0.52117 0.34844 0.53052 0.0
O147 O 0.57918 0.51199 0.48156 0.0
C148 C 0.46631 0.65404 0.56383 0.0
O149 O 0.45188 0.64197 0.52204 0.0
O150 O 0.49108 0.62609 0.58188 0.0
O151 O 0.51228 0.57661 0.47914 0.0
O152 O 0.4688 0.49562 0.46298 0.0
O153 O 0.43251 0.50483 0.56529 0.0
C154 C 0.52817 0.47263 0.59296 0.0
C155 C 0.4848 0.54692 0.45258 0.0
Zn156 Zn 0.96737 0.5495 0.97597 0.0
Zn157 Zn 0.05543 0.48426 0.05818 0.0
C158 C 0.8871 0.51422 0.92525 0.0
O159 O 0.91333 0.55558 0.8964 0.0
C160 C 0.14075 0.50545 0.10516 0.0
O161 O 0.11779 0.45815 0.12783 0.0
O162 O 0.97053 0.62594 0.95361 0.0
O163 O 0.97258 0.54854 0.04739 0.0
O164 O 0.01042 0.51579 0.09988 0.0
C165 C 0.93473 0.64357 0.96826 0.0
O166 O 0.90076 0.6133 1.00031 0.0
O167 O 0.90251 0.50235 0.96343 0.0
C168 C 0.07133 0.38068 0.05336 0.0
O169 O 0.10383 0.40887 0.01912 0.0
O170 O 0.04317 0.4044 0.0763 0.0
O171 O 0.04921 0.49284 0.98872 0.0
O172 O 0.01507 0.52247 0.93238 0.0
O173 O 0.12187 0.52449 0.07253 0.0
C174 C 0.98113 0.54247 0.09019 0.0
C175 C 0.04512 0.49842 0.94473 0.0
C176 C 0.14266 0.05541 0.31962 0.0
C177 C 0.14259 0.10534 0.29697 0.0
H178 H 0.11767 -0.00012 0.38131 0.0
C179 C 0.11808 0.13938 0.32145 0.0
H180 H 0.1608 0.02805 0.30147 0.0
C181 C 0.093 0.12307 0.36713 0.0
C182 C 0.09203 0.07244 0.38924 0.0
H183 H 0.11806 0.17852 0.30517 0.0
H184 H 0.07385 0.14983 0.38478 0.0
C185 C 0.11773 0.03918 0.3653 0.0
C186 C 0.3905 0.90539 0.8163 0.0
C187 C 0.38105 0.8515 0.80154 0.0
H188 H 0.42167 0.9617 0.86666 0.0
C189 C 0.39097 0.81107 0.83055 0.0
H190 H 0.38325 0.93737 0.79463 0.0
C191 C 0.41286 0.82483 0.87169 0.0
C192 C 0.42549 0.87942 0.88474 0.0
H193 H 0.38325 0.76896 0.82049 0.0
H194 H 0.42177 0.79298 0.89205 0.0
C195 C 0.41261 0.91927 0.85751 0.0
C196 C 0.60012 0.45057 0.69205 0.0
C197 C 0.58075 0.39411 0.70388 0.0
H198 H 0.59857 0.51989 0.64771 0.0
C199 C 0.54328 0.36435 0.68011 0.0
H200 H 0.62899 0.47468 0.70989 0.0
C201 C 0.52573 0.39019 0.64481 0.0
C202 C 0.5454 0.44647 0.6323 0.0
H203 H 0.52757 0.32087 0.68875 0.0
H204 H 0.49682 0.36582 0.62717 0.0
C205 C 0.58258 0.47652 0.65655 0.0
C206 C 0.93697 0.57459 0.21485 0.0
C207 C 0.92323 0.62253 0.20597 0.0
H208 H 0.96587 0.51174 0.18515 0.0
C209 C 0.92691 0.64301 0.15851 0.0
H210 H 0.93466 0.55788 0.25107 0.0
C211 C 0.94406 0.61595 0.1205 0.0
C212 C 0.95866 0.56852 0.12949 0.0
H213 H 0.91644 0.6799 0.15081 0.0
H214 H 0.94722 0.63303 0.08428 0.0
C215 C 0.95483 0.54814 0.17706 0.0
C216 C 0.31784 0.12609 0.20239 0.0
C217 C 0.28251 0.11706 0.1712 0.0
H218 H 0.38775 0.12053 0.2144 0.0
C219 C 0.29247 0.09714 0.12616 0.0
H220 H 0.31176 0.14248 0.23695 0.0
C221 C 0.33631 0.08565 0.11294 0.0
C222 C 0.37092 0.09311 0.14471 0.0
H223 H 0.26589 0.08891 0.10152 0.0
H224 H 0.34247 0.06943 0.07831 0.0
C225 C 0.36148 0.11385 0.1894 0.0
C226 C 0.20322 0.87719 0.57767 0.0
C227 C 0.21727 0.87985 0.62372 0.0
H228 H 0.15694 0.89742 0.53068 0.0
C229 C 0.19345 0.90499 0.65886 0.0
H230 H 0.22092 0.85795 0.54993 0.0
C231 C 0.15675 0.92763 0.64789 0.0
C232 C 0.14304 0.92562 0.60158 0.0
H233 H 0.20333 0.90765 0.69474 0.0
H234 H 0.13944 0.94715 0.67568 0.0
C235 C 0.16654 0.89978 0.56669 0.0
C236 C 0.76883 0.477 0.87497 0.0
C237 C 0.75439 0.41945 0.88217 0.0
H238 H 0.82246 0.55182 0.88254 0.0
C239 C 0.78373 0.39383 0.90548 0.0
H240 H 0.74694 0.49865 0.85839 0.0
C241 C 0.82601 0.42479 0.92114 0.0
C242 C 0.84072 0.48182 0.91247 0.0
H243 H 0.77484 0.34968 0.91077 0.0
H244 H 0.84811 0.40395 0.93842 0.0
C245 C 0.81188 0.50769 0.88927 0.0
C246 C 0.71476 0.61854 0.43097 0.0
C247 C 0.75442 0.59669 0.42334 0.0
H248 H 0.64017 0.60394 0.45705 0.0
C249 C 0.74903 0.54216 0.43912 0.0
H250 H 0.7177 0.66027 0.4187 0.0
C251 C 0.70446 0.50979 0.46129 0.0
C252 C 0.66447 0.53127 0.46752 0.0
H253 H 0.77914 0.5245 0.434 0.0
H254 H 0.70107 0.46755 0.4723 0.0
C255 C 0.67027 0.58618 0.45273 0.0
C256 C 0.04612 0.24779 0.12813 0.0
C257 C 0.08597 0.22936 0.11098 0.0
H258 H 0.01004 0.31066 0.12328 0.0
C259 C 0.11775 0.25758 0.07144 0.0
H260 H 0.0211 0.22646 0.15854 0.0
C261 C 0.1113 0.30525 0.05104 0.0
C262 C 0.07325 0.32588 0.07013 0.0
H263 H 0.1485 0.24386 0.05711 0.0
H264 H 0.13742 0.32715 0.02164 0.0
C265 C 0.0399 0.29593 0.10802 0.0
C266 C 0.59942 0.24684 0.94629 0.0
C267 C 0.61583 0.25022 0.89716 0.0
H268 H 0.56463 0.19474 0.00833 0.0
C269 C 0.60935 0.20193 0.8725 0.0
H270 H 0.604 0.28362 0.96598 0.0
C271 C 0.58771 0.1509 0.89685 0.0
C272 C 0.5713 0.1474 0.94611 0.0
H273 H 0.62204 0.20361 0.83463 0.0
H274 H 0.58358 0.11427 0.87704 0.0
C275 C 0.57691 0.19599 0.97043 0.0
C276 C 0.92273 0.80377 0.39578 0.0
C277 C 0.8743 0.77862 0.39122 0.0
H278 H 0.9734 0.87411 0.41778 0.0
C279 C 0.84 0.80782 0.40194 0.0
H280 H 0.94983 0.78204 0.38788 0.0
C281 C 0.85322 0.85985 0.41936 0.0
C282 C 0.90114 0.88412 0.42621 0.0
H283 H 0.80254 0.78978 0.39792 0.0
H284 H 0.82556 0.88058 0.4283 0.0
C285 C 0.93608 0.85621 0.41318 0.0
C286 C 0.4174 0.71854 0.67083 0.0
C287 C 0.39918 0.75812 0.6493 0.0
H288 H 0.45396 0.65611 0.66096 0.0
C289 C 0.40551 0.76468 0.59898 0.0
H290 H 0.41236 0.71102 0.70932 0.0
C291 C 0.42848 0.73187 0.57114 0.0
C292 C 0.44651 0.69253 0.59293 0.0
H293 H 0.39288 0.79525 0.58095 0.0
H294 H 0.43194 0.73716 0.53251 0.0
C295 C 0.44126 0.68674 0.64306 0.0
C296 C 0.85685 0.9559 0.67869 0.0
C297 C 0.85152 0.9017 0.69553 0.0
H298 H 0.8919 0.02037 0.62565 0.0
C299 C 0.87579 0.86924 0.66844 0.0
H300 H 0.83908 0.98218 0.69897 0.0
C301 C 0.90671 0.89141 0.62677 0.0
C302 C 0.9137 0.94637 0.61117 0.0
H303 H 0.87173 0.82702 0.68006 0.0
H304 H 0.9258 0.86576 0.60731 0.0
C305 C 0.88748 0.97794 0.63685 0.0
C306 C 0.59764 0.08618 0.2444 0.0
C307 C 0.61161 0.14129 0.25581 0.0
H308 H 0.56644 0.02922 0.1943 0.0
C309 C 0.60888 0.18218 0.22269 0.0
H310 H 0.59936 0.05398 0.26956 0.0
C311 C 0.59064 0.1683 0.17978 0.0
C312 C 0.57409 0.11308 0.16921 0.0
H313 H 0.61983 0.22499 0.23058 0.0
H314 H 0.58796 0.20098 0.15569 0.0
C315 C 0.5787 0.07211 0.2015 0.0
C316 C 0.47608 0.65413 0.36047 0.0
C317 C 0.44316 0.62313 0.33246 0.0
H318 H 0.51508 0.65453 0.42017 0.0
C319 C 0.42438 0.56649 0.34364 0.0
H320 H 0.49111 0.69783 0.35258 0.0
C321 C 0.43814 0.54148 0.3824 0.0
C322 C 0.47086 0.57264 0.41073 0.0
H323 H 0.39894 0.54144 0.32264 0.0
H324 H 0.42288 0.49783 0.39033 0.0
C325 C 0.48977 0.62923 0.39918 0.0
C326 C 0.07138 0.42325 0.83493 0.0
C327 C 0.11564 0.41396 0.8418 0.0
H328 H 0.01479 0.458 0.86197 0.0
C329 C 0.13758 0.43454 0.8818 0.0
H330 H 0.05381 0.40837 0.80419 0.0
C331 C 0.11527 0.46305 0.91489 0.0
C332 C 0.07067 0.47163 0.90846 0.0
H333 H 0.17203 0.42847 0.88754 0.0
H334 H 0.13305 0.47877 0.94527 0.0
C335 C 0.04926 0.45209 0.86781 0.0
C336 C 0.71143 0.94953 0.81002 0.0
C337 C 0.71531 0.89746 0.82417 0.0
H338 H 0.67174 0.00918 0.81953 0.0
C339 C 0.67907 0.86409 0.85801 0.0
H340 H 0.73899 0.97673 0.78465 0.0
C341 C 0.64115 0.88329 0.87879 0.0
C342 C 0.6382 0.9359 0.8656 0.0
H343 H 0.68032 0.82334 0.869 0.0
H344 H 0.61435 0.85709 0.90552 0.0
C345 C 0.67305 0.96835 0.83025 0.0
C346 C 0.80326 0.11589 0.40885 0.0
C347 C 0.78633 0.15684 0.43176 0.0
H348 H 0.85364 0.06773 0.40622 0.0
C349 C 0.80861 0.18139 0.47028 0.0
H350 H 0.78694 0.09631 0.37894 0.0
C351 C 0.84666 0.16489 0.48611 0.0
C352 C 0.86356 0.12376 0.46344 0.0
H353 H 0.79626 0.21314 0.4885 0.0
H354 H 0.86272 0.18432 0.51621 0.0
C355 C 0.84162 0.09968 0.42441 0.0
C356 C 0.25913 0.54156 0.15603 0.0
C357 C 0.27205 0.59929 0.15238 0.0
H358 H 0.20738 0.46679 0.1442 0.0
C359 C 0.24131 0.62554 0.1322 0.0
H360 H 0.28207 0.51962 0.17039 0.0
C361 C 0.1994 0.59505 0.11558 0.0
C362 C 0.18648 0.53761 0.11993 0.0
H363 H 0.24904 0.66977 0.12983 0.0
H364 H 0.17639 0.61649 0.10057 0.0
C365 C 0.21653 0.51113 0.14054 0.0
C366 C 0.27991 0.46213 0.65979 0.0
C367 C 0.26679 0.40616 0.65053 0.0
H368 H 0.33589 0.53754 0.65355 0.0
C369 C 0.30152 0.38418 0.62531 0.0
H370 H 0.25409 0.48114 0.67783 0.0
C371 C 0.34785 0.41737 0.60958 0.0
C372 C 0.36075 0.47261 0.62015 0.0
H373 H 0.29338 0.34112 0.61834 0.0
H374 H 0.374 0.39949 0.59051 0.0
C375 C 0.32662 0.49473 0.64547 0.0
C376 C 0.87193 0.7443 0.92515 0.0
C377 C 0.9035 0.76947 0.88433 0.0
H378 H 0.85763 0.68548 0.9844 0.0
C379 C 0.94763 0.75707 0.87408 0.0
H380 H 0.83785 0.7536 0.93428 0.0
C381 C 0.95903 0.71797 0.90284 0.0
C382 C 0.92646 0.69083 0.94245 0.0
H383 H 0.97259 0.7762 0.84287 0.0
H384 H 0.99254 0.70762 0.89297 0.0
C385 C 0.88339 0.70545 0.95403 0.0
C386 C 0.38394 0.80676 0.13085 0.0
C387 C 0.41028 0.76883 0.13759 0.0
H388 H 0.3845 0.88545 0.10156 0.0
C389 C 0.45949 0.78281 0.11989 0.0
H390 H 0.34603 0.79714 0.14454 0.0
C391 C 0.48159 0.83332 0.09462 0.0
C392 C 0.455 0.87104 0.08731 0.0
H393 H 0.48051 0.75414 0.12455 0.0
H394 H 0.5194 0.84273 0.0807 0.0
C395 C 0.40607 0.85739 0.10632 0.0
C396 C 0.13854 0.25049 0.57647 0.0
C397 C 0.12738 0.24744 0.62664 0.0
H398 H 0.1373 0.20687 0.5124 0.0
C399 C 0.10048 0.19692 0.64991 0.0
H400 H 0.15777 0.28896 0.55703 0.0
C401 C 0.0875 0.15012 0.62391 0.0
C402 C 0.10196 0.15278 0.57437 0.0
H403 H 0.09148 0.1928 0.68845 0.0
H404 H 0.06829 0.11136 0.64292 0.0
C405 C 0.12663 0.20355 0.55076 0.0
C406 C 0.57451 0.28289 0.3797 0.0
C407 C 0.58701 0.24013 0.40317 0.0
H408 H 0.54434 0.35087 0.38646 0.0
C409 C 0.57542 0.23185 0.45314 0.0
H410 H 0.58336 0.29083 0.34131 0.0
C411 C 0.55313 0.26651 0.47914 0.0
C412 C 0.54199 0.31027 0.45575 0.0
H413 H 0.58385 0.19875 0.47221 0.0
H414 H 0.54568 0.25973 0.5177 0.0
C415 C 0.5522 0.31746 0.40564 0.0
loop_
_geom_bond_atom_site_label_1
_geom_bond_atom_site_label_2
_geom_bond_distance
_geom_bond_site_symmetry_2
_ccdc_geom_bond_type
H0 C5 0.930 . S
H1 C8 0.930 . S
H2 C10 0.930 . S
H3 C4 1.016 . S
C4 H3 1.016 . S
C4 N11 1.286 . S
C5 H0 0.930 . S
C5 C6 1.397 . S
C5 C7 1.361 . S
C6 C5 1.397 . S
C6 C10 1.390 . S
C7 C5 1.361 . S
C7 C8 1.393 . S
C7 N11 1.413 . S
C8 H1 0.930 . S
C8 C7 1.393 . S
C8 C9 1.399 . S
C9 C8 1.399 . S
C9 C10 1.381 . S
C10 H2 0.930 . S
C10 C6 1.390 . S
C10 C9 1.381 . S
N11 C4 1.286 . S
N11 C7 1.413 . S
H12 C17 0.930 . S
H13 C20 0.930 . S
H14 C22 0.930 . S
H15 C16 1.016 . S
C16 H15 1.016 . S
C16 N23 1.286 . S
C17 H12 0.930 . S
C17 C18 1.397 . S
C17 C19 1.361 . S
C18 C17 1.397 . S
C18 C22 1.390 . S
C19 C17 1.361 . S
C19 C20 1.393 . S
C19 N23 1.413 . S
C20 H13 0.930 . S
C20 C19 1.393 . S
C20 C21 1.399 . S
C21 C20 1.399 . S
C21 C22 1.381 . S
C22 H14 0.930 . S
C22 C18 1.390 . S
C22 C21 1.381 . S
N23 C16 1.286 . S
N23 C19 1.413 . S
H24 C29 0.930 . S
H25 C32 0.930 . S
H26 C34 0.930 . S
H27 C28 1.016 . S
C28 H27 1.016 . S
C28 N35 1.286 . S
C29 H24 0.930 . S
C29 C30 1.397 . S
C29 C31 1.361 . S
C30 C29 1.397 . S
C30 C34 1.390 . S
C31 C29 1.361 . S
C31 C32 1.393 . S
C31 N35 1.413 . S
C32 H25 0.930 . S
C32 C31 1.393 . S
C32 C33 1.399 . S
C33 C32 1.399 . S
C33 C34 1.381 . S
C34 H26 0.930 . S
C34 C30 1.390 . S
C34 C33 1.381 . S
N35 C28 1.286 . S
N35 C31 1.413 . S
H36 C41 0.930 . S
H37 C44 0.930 . S
H38 C46 0.930 . S
H39 C40 1.016 . S
C40 H39 1.016 . S
C40 N47 1.286 . S
C41 H36 0.930 . S
C41 C42 1.397 . S
C41 C43 1.361 . S
C42 C41 1.397 . S
C42 C46 1.390 . S
C43 C41 1.361 . S
C43 C44 1.393 . S
C43 N47 1.413 . S
C44 H37 0.930 . S
C44 C43 1.393 . S
C44 C45 1.399 . S
C45 C44 1.399 . S
C45 C46 1.381 . S
C46 H38 0.930 . S
C46 C42 1.390 . S
C46 C45 1.381 . S
N47 C40 1.286 . S
N47 C43 1.413 . S
H48 C53 0.930 . S
H49 C56 0.930 . S
H50 C58 0.930 . S
H51 C52 1.016 . S
C52 H51 1.016 . S
C52 N59 1.286 . S
C53 H48 0.930 . S
C53 C54 1.397 . S
C53 C55 1.361 . S
C54 C53 1.397 . S
C54 C58 1.390 . S
C55 C53 1.361 . S
C55 C56 1.393 . S
C55 N59 1.413 . S
C56 H49 0.930 . S
C56 C55 1.393 . S
C56 C57 1.399 . S
C57 C56 1.399 . S
C57 C58 1.381 . S
C58 H50 0.930 . S
C58 C54 1.390 . S
C58 C57 1.381 . S
N59 C52 1.286 . S
N59 C55 1.413 . S
H60 C65 0.930 . S
H61 C68 0.930 . S
H62 C70 0.930 . S
H63 C64 1.016 . S
C64 H63 1.016 . S
C64 N71 1.286 . S
C65 H60 0.930 . S
C65 C66 1.397 . S
C65 C67 1.361 . S
C66 C65 1.397 . S
C66 C70 1.390 . S
C67 C65 1.361 . S
C67 C68 1.393 . S
C67 N71 1.413 . S
C68 H61 0.930 . S
C68 C67 1.393 . S
C68 C69 1.399 . S
C69 C68 1.399 . S
C69 C70 1.381 . S
C70 H62 0.930 . S
C70 C66 1.390 . S
C70 C69 1.381 . S
N71 C64 1.286 . S
N71 C67 1.413 . S
H72 C77 0.930 . S
H73 C80 0.930 . S
H74 C82 0.930 . S
H75 C76 1.016 . S
C76 H75 1.016 . S
C76 N83 1.286 . S
C77 H72 0.930 . S
C77 C78 1.397 . S
C77 C79 1.361 . S
C78 C77 1.397 . S
C78 C82 1.390 . S
C79 C77 1.361 . S
C79 C80 1.393 . S
C79 N83 1.413 . S
C80 H73 0.930 . S
C80 C79 1.393 . S
C80 C81 1.399 . S
C81 C80 1.399 . S
C81 C82 1.381 . S
C82 H74 0.930 . S
C82 C78 1.390 . S
C82 C81 1.381 . S
N83 C76 1.286 . S
N83 C79 1.413 . S
H84 C89 0.930 . S
H85 C92 0.930 . S
H86 C94 0.930 . S
H87 C88 1.016 . S
C88 H87 1.016 . S
C88 N95 1.286 . S
C89 H84 0.930 . S
C89 C90 1.397 . S
C89 C91 1.361 . S
C90 C89 1.397 . S
C90 C94 1.390 . S
C91 C89 1.361 . S
C91 C92 1.393 . S
C91 N95 1.413 . S
C92 H85 0.930 . S
C92 C91 1.393 . S
C92 C93 1.399 . S
C93 C92 1.399 . S
C93 C94 1.381 . S
C94 H86 0.930 . S
C94 C90 1.390 . S
C94 C93 1.381 . S
N95 C88 1.286 . S
N95 C91 1.413 . S
Zn96 O102 1.969 1_545 S
Zn96 O103 1.965 1_545 S
Zn96 O107 2.024 . S
Zn96 O112 1.969 . S
Zn97 O104 1.969 . S
Zn97 O110 1.969 1_565 S
Zn97 O111 1.965 1_665 S
Zn97 O113 2.024 . S
C98 O99 1.229 . S
C98 O107 1.058 . S
O99 C98 1.229 . S
C100 O101 1.229 . S
C100 O113 1.058 . S
O101 C100 1.229 . S
O102 Zn96 1.969 1_565 S
O102 C105 1.267 . S
O103 Zn96 1.965 1_565 S
O103 C114 1.260 1_455 S
O104 Zn97 1.969 . S
O104 C114 1.258 . S
C105 O102 1.267 . S
C105 O106 1.228 . S
O106 C105 1.228 . S
O107 Zn96 2.024 . S
O107 C98 1.058 . S
C108 O109 1.228 . S
C108 O110 1.267 . S
O109 C108 1.228 . S
O110 Zn97 1.969 1_545 S
O110 C108 1.267 . S
O111 Zn97 1.965 1_445 S
O111 C115 1.260 . S
O112 Zn96 1.969 . S
O112 C115 1.258 . S
O113 Zn97 2.024 . S
O113 C100 1.058 . S
C114 O103 1.260 1_655 S
C114 O104 1.258 . S
C115 O111 1.260 . S
C115 O112 1.258 . S
Zn116 O122 1.969 . S
Zn116 O123 1.965 1_565 S
Zn116 O127 2.024 . S
Zn116 O132 1.969 1_556 S
Zn117 O124 1.969 . S
Zn117 O130 1.969 . S
Zn117 O131 1.965 1_545 S
Zn117 O133 2.024 . S
C118 O119 1.229 . S
C118 O127 1.058 . S
O119 C118 1.229 . S
C120 O121 1.229 . S
C120 O133 1.058 . S
O121 C120 1.229 . S
O122 Zn116 1.969 . S
O122 C125 1.267 . S
O123 Zn116 1.965 1_545 S
O123 C134 1.260 . S
O124 Zn117 1.969 . S
O124 C134 1.258 1_554 S
C125 O122 1.267 . S
C125 O126 1.228 . S
O126 C125 1.228 . S
O127 Zn116 2.024 . S
O127 C118 1.058 . S
C128 O129 1.228 . S
C128 O130 1.267 . S
O129 C128 1.228 . S
O130 Zn117 1.969 . S
O130 C128 1.267 . S
O131 Zn117 1.965 1_565 S
O131 C135 1.260 . S
O132 Zn116 1.969 1_554 S
O132 C135 1.258 . S
O133 Zn117 2.024 . S
O133 C120 1.058 . S
C134 O123 1.260 . S
C134 O124 1.258 1_556 S
C135 O131 1.260 . S
C135 O132 1.258 . S
Zn136 O142 1.969 . S
Zn136 O143 1.965 . S
Zn136 O147 2.024 . S
Zn136 O152 1.969 . S
Zn137 O144 1.969 . S
Zn137 O150 1.969 . S
Zn137 O151 1.965 . S
Zn137 O153 2.024 . S
C138 O139 1.229 . S
C138 O147 1.058 . S
O139 C138 1.229 . S
C140 O141 1.229 . S
C140 O153 1.058 . S
O141 C140 1.229 . S
O142 Zn136 1.969 . S
O142 C145 1.267 . S
O143 Zn136 1.965 . S
O143 C154 1.260 . S
O144 Zn137 1.969 . S
O144 C154 1.258 . S
C145 O142 1.267 . S
C145 O146 1.228 . S
O146 C145 1.228 . S
O147 Zn136 2.024 . S
O147 C138 1.058 . S
C148 O149 1.228 . S
C148 O150 1.267 . S
O149 C148 1.228 . S
O150 Zn137 1.969 . S
O150 C148 1.267 . S
O151 Zn137 1.965 . S
O151 C155 1.260 . S
O152 Zn136 1.969 . S
O152 C155 1.258 . S
O153 Zn137 2.024 . S
O153 C140 1.058 . S
C154 O143 1.260 . S
C154 O144 1.258 . S
C155 O151 1.260 . S
C155 O152 1.258 . S
Zn156 O162 1.969 . S
Zn156 O163 1.965 1_556 S
Zn156 O167 2.024 . S
Zn156 O172 1.969 1_655 S
Zn157 O164 1.969 . S
Zn157 O170 1.969 . S
Zn157 O171 1.965 1_554 S
Zn157 O173 2.024 . S
C158 O159 1.229 . S
C158 O167 1.058 . S
O159 C158 1.229 . S
C160 O161 1.229 . S
C160 O173 1.058 . S
O161 C160 1.229 . S
O162 Zn156 1.969 . S
O162 C165 1.267 . S
O163 Zn156 1.965 1_554 S
O163 C174 1.260 . S
O164 Zn157 1.969 . S
O164 C174 1.258 1_455 S
C165 O162 1.267 . S
C165 O166 1.228 . S
O166 C165 1.228 . S
O167 Zn156 2.024 . S
O167 C158 1.058 . S
C168 O169 1.228 . S
C168 O170 1.267 . S
O169 C168 1.228 . S
O170 Zn157 1.969 . S
O170 C168 1.267 . S
O171 Zn157 1.965 1_556 S
O171 C175 1.260 . S
O172 Zn156 1.969 1_455 S
O172 C175 1.258 . S
O173 Zn157 2.024 . S
O173 C160 1.058 . S
C174 O163 1.260 . S
C174 O164 1.258 1_655 S
C175 O171 1.260 . S
C175 O172 1.258 . S
C176 C177 1.387 . S
C176 H180 0.950 . S
C176 C185 1.390 . S
C177 C176 1.387 . S
C177 C179 1.387 . S
H178 C185 0.950 . S
C179 C177 1.387 . S
C179 C181 1.390 . S
C179 H183 0.950 . S
H180 C176 0.950 . S
C181 C179 1.390 . S
C181 C182 1.387 . S
C181 H184 0.950 . S
C182 C181 1.387 . S
C182 C185 1.387 . S
H183 C179 0.950 . S
H184 C181 0.950 . S
C185 C176 1.390 . S
C185 H178 0.950 . S
C185 C182 1.387 . S
C186 C187 1.387 . S
C186 H190 0.950 . S
C186 C195 1.390 . S
C187 C186 1.387 . S
C187 C189 1.387 . S
H188 C195 0.950 . S
C189 C187 1.387 . S
C189 C191 1.390 . S
C189 H193 0.950 . S
H190 C186 0.950 . S
C191 C189 1.390 . S
C191 C192 1.387 . S
C191 H194 0.950 . S
C192 C191 1.387 . S
C192 C195 1.387 . S
H193 C189 0.950 . S
H194 C191 0.950 . S
C195 C186 1.390 . S
C195 H188 0.950 . S
C195 C192 1.387 . S
C196 C197 1.387 . S
C196 H200 0.950 . S
C196 C205 1.390 . S
C197 C196 1.387 . S
C197 C199 1.387 . S
H198 C205 0.950 . S
C199 C197 1.387 . S
C199 C201 1.390 . S
C199 H203 0.950 . S
H200 C196 0.950 . S
C201 C199 1.390 . S
C201 C202 1.387 . S
C201 H204 0.950 . S
C202 C201 1.387 . S
C202 C205 1.387 . S
H203 C199 0.950 . S
H204 C201 0.950 . S
C205 C196 1.390 . S
C205 H198 0.950 . S
C205 C202 1.387 . S
C206 C207 1.387 . S
C206 H210 0.950 . S
C206 C215 1.390 . S
C207 C206 1.387 . S
C207 C209 1.387 . S
H208 C215 0.950 . S
C209 C207 1.387 . S
C209 C211 1.390 . S
C209 H213 0.950 . S
H210 C206 0.950 . S
C211 C209 1.390 . S
C211 C212 1.387 . S
C211 H214 0.950 . S
C212 C211 1.387 . S
C212 C215 1.387 . S
H213 C209 0.950 . S
H214 C211 0.950 . S
C215 C206 1.390 . S
C215 H208 0.950 . S
C215 C212 1.387 . S
C216 C217 1.387 . S
C216 H220 0.950 . S
C216 C225 1.390 . S
C217 C216 1.387 . S
C217 C219 1.387 . S
H218 C225 0.950 . S
C219 C217 1.387 . S
C219 C221 1.390 . S
C219 H223 0.950 . S
H220 C216 0.950 . S
C221 C219 1.390 . S
C221 C222 1.387 . S
C221 H224 0.950 . S
C222 C221 1.387 . S
C222 C225 1.387 . S
H223 C219 0.950 . S
H224 C221 0.950 . S
C225 C216 1.390 . S
C225 H218 0.950 . S
C225 C222 1.387 . S
C226 C227 1.387 . S
C226 H230 0.950 . S
C226 C235 1.390 . S
C227 C226 1.387 . S
C227 C229 1.387 . S
H228 C235 0.950 . S
C229 C227 1.387 . S
C229 C231 1.390 . S
C229 H233 0.950 . S
H230 C226 0.950 . S
C231 C229 1.390 . S
C231 C232 1.387 . S
C231 H234 0.932 1_565 S
C232 C231 1.387 . S
C232 C235 1.387 . S
H233 C229 0.950 . S
H234 C231 0.932 1_545 S
C235 C226 1.390 . S
C235 H228 0.950 . S
C235 C232 1.387 . S
C236 C237 1.387 . S
C236 H240 0.950 . S
C236 C245 1.390 . S
C237 C236 1.387 . S
C237 C239 1.387 . S
H238 C245 0.950 . S
C239 C237 1.387 . S
C239 C241 1.390 . S
C239 H243 0.950 . S
H240 C236 0.950 . S
C241 C239 1.390 . S
C241 C242 1.387 . S
C241 H244 0.950 . S
C242 C241 1.387 . S
C242 C245 1.387 . S
H243 C239 0.950 . S
H244 C241 0.950 . S
C245 C236 1.390 . S
C245 H238 0.950 . S
C245 C242 1.387 . S
C246 C247 1.387 . S
C246 H250 0.950 . S
C246 C255 1.390 . S
C247 C246 1.387 . S
C247 C249 1.387 . S
H248 C255 0.950 . S
C249 C247 1.387 . S
C249 C251 1.390 . S
C249 H253 0.950 . S
H250 C246 0.950 . S
C251 C249 1.390 . S
C251 C252 1.387 . S
C251 H254 0.950 . S
C252 C251 1.387 . S
C252 C255 1.387 . S
H253 C249 0.950 . S
H254 C251 0.950 . S
C255 C246 1.390 . S
C255 H248 0.950 . S
C255 C252 1.387 . S
C256 C257 1.387 . S
C256 H260 0.950 . S
C256 C265 1.390 . S
C257 C256 1.387 . S
C257 C259 1.387 . S
H258 C265 0.950 . S
C259 C257 1.387 . S
C259 C261 1.390 . S
C259 H263 0.950 . S
H260 C256 0.950 . S
C261 C259 1.390 . S
C261 C262 1.387 . S
C261 H264 0.950 . S
C262 C261 1.387 . S
C262 C265 1.387 . S
H263 C259 0.950 . S
H264 C261 0.950 . S
C265 C256 1.390 . S
C265 H258 0.950 . S
C265 C262 1.387 . S
C266 C267 1.387 . S
C266 H270 0.950 . S
C266 C275 1.390 . S
C267 C266 1.387 . S
C267 C269 1.387 . S
H268 C275 0.950 . S
C269 C267 1.387 . S
C269 C271 1.390 . S
C269 H273 0.950 . S
H270 C266 0.950 . S
C271 C269 1.390 . S
C271 C272 1.387 . S
C271 H274 0.950 . S
C272 C271 1.387 . S
C272 C275 1.387 . S
H273 C269 0.950 . S
H274 C271 0.950 . S
C275 C266 1.390 . S
C275 H268 0.950 . S
C275 C272 1.387 . S
C276 C277 1.387 . S
C276 H280 0.950 . S
C276 C285 1.390 . S
C277 C276 1.387 . S
C277 C279 1.387 . S
H278 C285 0.950 . S
C279 C277 1.387 . S
C279 C281 1.390 . S
C279 H283 0.950 . S
H280 C276 0.950 . S
C281 C279 1.390 . S
C281 C282 1.387 . S
C281 H284 0.950 . S
C282 C281 1.387 . S
C282 C285 1.387 . S
H283 C279 0.950 . S
H284 C281 0.950 . S
C285 C276 1.390 . S
C285 H278 0.950 . S
C285 C282 1.387 . S
C286 C287 1.387 . S
C286 H290 0.950 . S
C286 C295 1.390 . S
C287 C286 1.387 . S
C287 C289 1.387 . S
H288 C295 0.950 . S
C289 C287 1.387 . S
C289 C291 1.390 . S
C289 H293 0.950 . S
H290 C286 0.950 . S
C291 C289 1.390 . S
C291 C292 1.387 . S
C291 H294 0.950 . S
C292 C291 1.387 . S
C292 C295 1.387 . S
H293 C289 0.950 . S
H294 C291 0.950 . S
C295 C286 1.390 . S
C295 H288 0.950 . S
C295 C292 1.387 . S
C296 C297 1.387 . S
C296 H300 0.950 . S
C296 C305 1.390 . S
C297 C296 1.387 . S
C297 C299 1.387 . S
H298 C305 0.950 . S
C299 C297 1.387 . S
C299 C301 1.390 . S
C299 H303 0.950 . S
H300 C296 0.950 . S
C301 C299 1.390 . S
C301 C302 1.387 . S
C301 H304 0.950 . S
C302 C301 1.387 . S
C302 C305 1.387 . S
H303 C299 0.950 . S
H304 C301 0.950 . S
C305 C296 1.390 . S
C305 H298 0.950 . S
C305 C302 1.387 . S
C306 C307 1.387 . S
C306 H310 0.950 . S
C306 C315 1.390 . S
C307 C306 1.387 . S
C307 C309 1.387 . S
H308 C315 0.950 . S
C309 C307 1.387 . S
C309 C311 1.390 . S
C309 H313 0.950 . S
H310 C306 0.950 . S
C311 C309 1.390 . S
C311 C312 1.387 . S
C311 H314 0.950 . S
C312 C311 1.387 . S
C312 C315 1.387 . S
H313 C309 0.950 . S
H314 C311 0.950 . S
C315 C306 1.390 . S
C315 H308 0.950 . S
C315 C312 1.387 . S
C316 C317 1.387 . S
C316 H320 0.950 . S
C316 C325 1.390 . S
C317 C316 1.387 . S
C317 C319 1.387 . S
H318 C325 0.950 . S
C319 C317 1.387 . S
C319 C321 1.390 . S
C319 H323 0.950 . S
H320 C316 0.950 . S
C321 C319 1.390 . S
C321 C322 1.387 . S
C321 H324 0.950 . S
C322 C321 1.387 . S
C322 C325 1.387 . S
H323 C319 0.950 . S
H324 C321 0.950 . S
C325 C316 1.390 . S
C325 H318 0.950 . S
C325 C322 1.387 . S
C326 C327 1.387 . S
C326 H330 0.950 . S
C326 C335 1.390 . S
C327 C326 1.387 . S
C327 C329 1.387 . S
H328 C335 0.950 . S
C329 C327 1.387 . S
C329 C331 1.390 . S
C329 H333 0.950 . S
H330 C326 0.950 . S
C331 C329 1.390 . S
C331 C332 1.387 . S
C331 H334 0.950 . S
C332 C331 1.387 . S
C332 C335 1.387 . S
H333 C329 0.950 . S
H334 C331 0.950 . S
C335 C326 1.390 . S
C335 H328 0.950 . S
C335 C332 1.387 . S
C336 C337 1.387 . S
C336 H340 0.950 . S
C336 C345 1.390 . S
C337 C336 1.387 . S
C337 C339 1.387 . S
H338 C345 0.950 . S
C339 C337 1.387 . S
C339 C341 1.390 . S
C339 H343 0.950 . S
H340 C336 0.950 . S
C341 C339 1.390 . S
C341 C342 1.387 . S
C341 H344 0.950 . S
C342 C341 1.387 . S
C342 C345 1.387 . S
H343 C339 0.950 . S
H344 C341 0.950 . S
C345 C336 1.390 . S
C345 H338 0.950 . S
C345 C342 1.387 . S
C346 C347 1.387 . S
C346 H350 0.950 . S
C346 C355 1.390 . S
C347 C346 1.387 . S
C347 C349 1.387 . S
H348 C355 0.950 . S
C349 C347 1.387 . S
C349 C351 1.390 . S
C349 H353 0.950 . S
H350 C346 0.950 . S
C351 C349 1.390 . S
C351 C352 1.387 . S
C351 H354 0.950 . S
C352 C351 1.387 . S
C352 C355 1.387 . S
H353 C349 0.950 . S
H354 C351 0.950 . S
C355 C346 1.390 . S
C355 H348 0.950 . S
C355 C352 1.387 . S
C356 C357 1.387 . S
C356 H360 0.950 . S
C356 C365 1.390 . S
C357 C356 1.387 . S
C357 C359 1.387 . S
H358 C365 0.950 . S
C359 C357 1.387 . S
C359 C361 1.390 . S
C359 H363 0.950 . S
H360 C356 0.950 . S
C361 C359 1.390 . S
C361 C362 1.387 . S
C361 H364 0.950 . S
C362 C361 1.387 . S
C362 C365 1.387 . S
H363 C359 0.950 . S
H364 C361 0.950 . S
C365 C356 1.390 . S
C365 H358 0.950 . S
C365 C362 1.387 . S
C366 C367 1.387 . S
C366 H370 0.950 . S
C366 C375 1.390 . S
C367 C366 1.387 . S
C367 C369 1.387 . S
H368 C375 0.950 . S
C369 C367 1.387 . S
C369 C371 1.390 . S
C369 H373 0.950 . S
H370 C366 0.950 . S
C371 C369 1.390 . S
C371 C372 1.387 . S
C371 H374 0.950 . S
C372 C371 1.387 . S
C372 C375 1.387 . S
H373 C369 0.950 . S
H374 C371 0.950 . S
C375 C366 1.390 . S
C375 H368 0.950 . S
C375 C372 1.387 . S
C376 C377 1.387 . S
C376 H380 0.950 . S
C376 C385 1.390 . S
C377 C376 1.387 . S
C377 C379 1.387 . S
H378 C385 0.950 . S
C379 C377 1.387 . S
C379 C381 1.390 . S
C379 H383 0.950 . S
H380 C376 0.950 . S
C381 C379 1.390 . S
C381 C382 1.387 . S
C381 H384 0.950 . S
C382 C381 1.387 . S
C382 C385 1.387 . S
H383 C379 0.950 . S
H384 C381 0.950 . S
C385 C376 1.390 . S
C385 H378 0.950 . S
C385 C382 1.387 . S
C386 C387 1.387 . S
C386 H390 0.950 . S
C386 C395 1.390 . S
C387 C386 1.387 . S
C387 C389 1.387 . S
H388 C395 0.950 . S
C389 C387 1.387 . S
C389 C391 1.390 . S
C389 H393 0.950 . S
H390 C386 0.950 . S
C391 C389 1.390 . S
C391 C392 1.387 . S
C391 H394 0.950 . S
C392 C391 1.387 . S
C392 C395 1.387 . S
H393 C389 0.950 . S
H394 C391 0.950 . S
C395 C386 1.390 . S
C395 H388 0.950 . S
C395 C392 1.387 . S
C396 C397 1.387 . S
C396 H400 0.950 . S
C396 C405 1.390 . S
C397 C396 1.387 . S
C397 C399 1.387 . S
H398 C405 0.950 . S
C399 C397 1.387 . S
C399 C401 1.390 . S
C399 H403 0.950 . S
H400 C396 0.950 . S
C401 C399 1.390 . S
C401 C402 1.387 . S
C401 H404 0.950 . S
C402 C401 1.387 . S
C402 C405 1.387 . S
H403 C399 0.950 . S
H404 C401 0.950 . S
C405 C396 1.390 . S
C405 H398 0.950 . S
C405 C402 1.387 . S
C406 C407 1.387 . S
C406 H410 0.950 . S
C406 C415 1.390 . S
C407 C406 1.387 . S
C407 C409 1.387 . S
H408 C415 0.950 . S
C409 C407 1.387 . S
C409 C411 1.390 . S
C409 H413 0.950 . S
H410 C406 0.950 . S
C411 C409 1.390 . S
C411 C412 1.387 . S
C411 H414 0.950 . S
C412 C411 1.387 . S
C412 C415 1.387 . S
H413 C409 0.950 . S
H414 C411 0.950 . S
C415 C406 1.390 . S
C415 H408 0.950 . S
C415 C412 1.387 . S
C177 C6 1.554 . S
C182 C115 1.560 . S
C187 C18 1.484 . S
C192 C118 1.420 . S
C202 C154 1.836 . S
C197 C28 1.847 . S
C207 C40 1.287 . S
C212 C174 1.277 . S
C222 C128 1.810 . S
C217 C9 1.829 . S
C232 C105 1.425 . S
C227 C16 1.440 . S
C242 C158 1.505 . S
C237 C30 1.641 . S
C252 C138 1.215 . S
C247 C42 1.259 . S
C257 C4 1.414 . S
C262 C168 1.298 . S
C272 C134 1.760 . S
C267 C33 1.772 . S
C277 C45 1.478 . S
C282 C100 1.439 . S
C287 C21 1.506 . S
C292 C148 1.460 . S
C302 C114 1.581 . S
C297 C57 1.589 . S
C307 C66 1.462 . S
C312 C120 1.408 . S
C317 C76 1.865 . S
C322 C155 1.849 . S
C327 C88 1.232 . S
C332 C175 1.226 . S
C337 C54 1.809 . S
C342 C125 1.791 . S
C352 C108 1.479 . S
C347 C64 1.494 . S
C362 C160 1.436 . S
C357 C78 1.601 . S
C372 C140 1.252 . S
C367 C93 1.291 . S
C377 C52 1.388 . S
C382 C165 1.280 . S
C392 C135 1.765 . S
C387 C81 1.769 . S
C402 C98 1.400 . S
C397 C90 1.462 . S
C407 C69 1.524 . S
C412 C145 1.482 . S
