# Generated by pormake.
# Topology pts, (4,4)-cn, num edge types: 1
# Building blocks:
#     Node 0, Type 0, BuildingBlock: MIFKUJ_clean_linker_1, # of connection points: 4
#     Node 1, Type 0, BuildingBlock: MIFKUJ_clean_linker_1, # of connection points: 4
#     Node 2, Type 1, BuildingBlock: QUQFOY_clean_sbu_1, # of connection points: 4
#     Node 3, Type 1, BuildingBlock: QUQFOY_clean_sbu_1, # of connection points: 4
#     Edge 4, Type (0, 1), BuildingBlock: UVAHIK_clean_linker_0, # of connection points: 2
#     Edge 5, Type (0, 1), BuildingBlock: UVAHIK_clean_linker_0, # of connection points: 2
#     Edge 6, Type (0, 1), BuildingBlock: UVAHIK_clean_linker_0, # of connection points: 2
#     Edge 7, Type (0, 1), BuildingBlock: UVAHIK_clean_linker_0, # of connection points: 2
#     Edge 8, Type (0, 1), BuildingBlock: UVAHIK_clean_linker_0, # of connection points: 2
#     Edge 9, Type (0, 1), BuildingBlock: UVAHIK_clean_linker_0, # of connection points: 2
#     Edge 10, Type (0, 1), BuildingBlock: UVAHIK_clean_linker_0, # of connection points: 2
#     Edge 11, Type (0, 1), BuildingBlock: UVAHIK_clean_linker_0, # of connection points: 2
# Relax obj value: 0.096
# Max RMSD: 0.260
# Mean RMSD: 0.154
data_MOF--net-pts--node1-QUQFOY_clean_sbu_1--node2-MIFKUJ_clean_linker_1--edge1-UVAHIK_clean_linker_0
_symmetry_space_group_name_H-M    P1
_symmetry_Int_Tables_number       1
_symmetry_cell_setting            triclinic
loop_
_symmetry_equiv_pos_as_xyz
'x, y, z'
_cell_length_a     35.37067
_cell_length_b     38.758768
_cell_length_c     54.905129
_cell_angle_alpha  90.008136
_cell_angle_beta   89.994813
_cell_angle_gamma 90.060876
loop_
_atom_site_label
_atom_site_type_symbol
_atom_site_fract_x
_atom_site_fract_y
_atom_site_fract_z
_atom_type_partial_charge
H0 H 0.55314 0.94882 0.04143 0.0
H1 H 0.60847 0.95072 0.06782 0.0
H2 H 0.64156 0.04792 0.03554 0.0
H3 H 0.58501 0.04664 0.00998 0.0
H4 H 0.49579 0.99025 0.04188 0.0
H5 H 0.58667 0.95718 0.98195 0.0
H6 H 0.64158 0.95892 0.95494 0.0
H7 H 0.60102 0.05455 0.92402 0.0
H8 H 0.54719 0.05341 0.95177 0.0
H9 H 0.43547 0.05183 0.95435 0.0
H10 H 0.37998 0.0517 0.92805 0.0
H11 H 0.3461 0.95322 0.95798 0.0
H12 H 0.40274 0.95284 0.98352 0.0
H13 H 0.49236 0.00856 0.95262 0.0
H14 H 0.40136 0.04107 0.01391 0.0
H15 H 0.34711 0.03797 0.04148 0.0
H16 H 0.38727 0.94003 0.06868 0.0
H17 H 0.44137 0.94326 0.04111 0.0
C18 C 0.56497 0.99749 0.02363 0.0
C19 C 0.57241 0.97047 0.03995 0.0
C20 C 0.60429 0.97146 0.05489 0.0
C21 C 0.62953 -0.00052 0.05381 0.0
C22 C 0.62248 0.02616 0.03703 0.0
C23 C 0.59041 0.02524 0.02217 0.0
C24 C 0.5292 0.99769 0.00952 0.0
C25 C 0.4951 0.9937 0.02227 0.0
C26 C 0.52821 0.00317 0.98407 0.0
C27 C 0.56296 0.00531 0.96903 0.0
C28 C 0.59005 0.97888 0.96971 0.0
C29 C 0.62118 0.97969 0.95404 0.0
C30 C 0.62563 0.0068 0.93723 0.0
C31 C 0.59878 0.03353 0.93693 0.0
C32 C 0.56779 0.03277 0.95266 0.0
C33 C 0.4232 0.00244 0.97099 0.0
C34 C 0.41597 0.0303 0.95536 0.0
C35 C 0.38401 0.03031 0.94047 0.0
C36 C 0.35854 0.00244 0.9409 0.0
C37 C 0.36537 0.97491 0.95701 0.0
C38 C 0.3975 0.97485 0.97184 0.0
C39 C 0.45901 0.00134 0.98501 0.0
C40 C 0.49312 0.00512 0.97222 0.0
C41 C 0.46003 0.99543 0.0104 0.0
C42 C 0.42533 0.99232 0.02538 0.0
C43 C 0.39809 0.01864 0.02548 0.0
C44 C 0.36712 0.01684 0.04126 0.0
C45 C 0.36307 0.98884 0.05735 0.0
C46 C 0.38993 0.96216 0.05676 0.0
C47 C 0.42076 0.96392 0.04096 0.0
H48 H 0.05261 0.45203 0.44865 0.0
H49 H 0.05473 0.39815 0.42552 0.0
H50 H 0.95067 0.36533 0.45969 0.0
H51 H 0.94874 0.41928 0.48278 0.0
H52 H 0.00196 0.50402 0.45008 0.0
H53 H 0.05082 0.41982 0.50588 0.0
H54 H 0.05172 0.36601 0.52918 0.0
H55 H 0.94888 0.39644 0.56574 0.0
H56 H 0.94773 0.44993 0.54212 0.0
H57 H 0.94437 0.55398 0.54219 0.0
H58 H 0.9431 0.60731 0.56609 0.0
H59 H 0.04586 0.64105 0.5308 0.0
H60 H 0.04731 0.58755 0.50726 0.0
H61 H -0.00499 0.50258 0.54036 0.0
H62 H 0.93911 0.579 0.47984 0.0
H63 H 0.93633 0.63443 0.45833 0.0
H64 H 0.05096 0.6198 0.43339 0.0
H65 H 0.05336 0.56399 0.45458 0.0
C66 C 0.00073 0.43955 0.4676 0.0
C67 C 0.03014 0.43331 0.45104 0.0
C68 C 0.03129 0.40252 0.43782 0.0
C69 C 0.00293 0.3774 0.44084 0.0
C70 C 0.97325 0.3839 0.45725 0.0
C71 C 0.97206 0.41476 0.4704 0.0
C72 C 0.00028 0.47184 0.48212 0.0
C73 C 0.00089 0.50361 0.46982 0.0
C74 C -0.00188 0.47143 0.50789 0.0
C75 C -0.00102 0.43879 0.52206 0.0
C76 C 0.0282 0.41472 0.51868 0.0
C77 C 0.02869 0.38398 0.53199 0.0
C78 C 0.00033 0.37701 0.54923 0.0
C79 C 0.97128 0.40125 0.55272 0.0
C80 C 0.97061 0.43181 0.53924 0.0
C81 C -0.00434 0.56694 0.52271 0.0
C82 C 0.96665 0.57284 0.53965 0.0
C83 C 0.96597 0.60329 0.55328 0.0
C84 C 0.99428 0.62843 0.55021 0.0
C85 C 0.0233 0.62244 0.53326 0.0
C86 C 0.02414 0.59188 0.51979 0.0
C87 C -0.0036 0.53452 0.5083 0.0
C88 C -0.00401 0.50281 0.52061 0.0
C89 C -0.00147 0.53486 0.4826 0.0
C90 C -0.00357 0.56752 0.46874 0.0
C91 C 0.96351 0.58766 0.46959 0.0
C92 C 0.96195 0.6192 0.45733 0.0
C93 C 0.9935 0.63132 0.44435 0.0
C94 C 0.02641 0.61107 0.44346 0.0
C95 C 0.02771 0.57919 0.45535 0.0
O96 O 0.9427 0.97493 0.23784 0.0
Cd97 Cd 0.99184 0.96577 0.25683 0.0
Cd98 Cd -0.00406 0.03632 0.25562 0.0
O99 O 0.946 0.03168 0.23645 0.0
O100 O 0.98657 0.91665 0.26661 0.0
O101 O 0.99295 0.95911 0.29327 0.0
C102 C 0.98872 0.92656 0.28896 0.0
C103 C -0.0009 0.07942 0.28531 0.0
C104 C 0.92924 0.00371 0.23101 0.0
C105 C 0.05868 0.99612 0.23133 0.0
O106 O 0.04541 0.0254 0.23726 0.0
O107 O 0.04158 0.96861 0.23744 0.0
O108 O 0.00021 0.08653 0.2624 0.0
O109 O -0.00407 0.04742 0.29156 0.0
O110 O 0.94383 0.0329 0.75591 0.0
Cd111 Cd 0.99459 0.03932 0.73811 0.0
Cd112 Cd 0.99315 0.96755 0.73841 0.0
O113 O 0.94261 0.97602 0.75619 0.0
O114 O -0.00426 0.08968 0.73137 0.0
O115 O -0.00294 0.05049 0.70217 0.0
C116 C -0.00289 0.0826 0.70848 0.0
C117 C 0.99371 0.92376 0.70912 0.0
C118 C 0.92775 0.00479 0.76177 0.0
C119 C 0.05753 0.00271 0.76445 0.0
O120 O 0.04225 0.97441 0.75811 0.0
O121 O 0.04303 0.03132 0.75814 0.0
O122 O 0.99218 0.91709 0.73207 0.0
O123 O 0.99493 0.95575 0.70257 0.0
C124 C 0.33915 0.97843 0.09965 0.0
C125 C 0.33192 0.98814 0.07543 0.0
C126 C 0.3102 0.97853 0.11693 0.0
C127 C 0.21625 0.016 0.12921 0.0
H128 H 0.21044 0.94361 0.17784 0.0
C129 C 0.11287 0.02447 0.20981 0.0
C130 C 0.09295 0.99428 0.2159 0.0
C131 C 0.14325 0.02324 0.1936 0.0
C132 C 0.21153 0.9639 0.16429 0.0
H133 H 0.28854 0.00499 0.05024 0.0
H134 H 0.2378 0.00489 0.08039 0.0
H135 H 0.25975 0.94158 0.14684 0.0
H136 H 0.09004 0.93893 0.21019 0.0
H137 H 0.14273 0.93688 0.18166 0.0
H138 H 0.16749 0.03785 0.14623 0.0
C139 C 0.26603 0.99775 0.08611 0.0
C140 C 0.24003 0.96294 0.14668 0.0
C141 C 0.29504 0.99776 0.06883 0.0
C142 C 0.10481 0.96267 0.20594 0.0
C143 C 0.13514 0.96146 0.18964 0.0
C144 C 0.18773 0.01692 0.14677 0.0
C145 C 0.27332 0.98827 0.11039 0.0
C146 C 0.24274 0.989 0.12894 0.0
C147 C 0.15435 0.99182 0.18301 0.0
C148 C 0.18506 0.99092 0.16455 0.0
H149 H 0.36742 0.97146 0.1054 0.0
H150 H 0.31694 0.97167 0.13555 0.0
H151 H 0.21778 0.03669 0.11599 0.0
H152 H 0.10467 0.04923 0.21728 0.0
H153 H 0.15792 0.04699 0.18925 0.0
C154 C -0.00482 0.34654 0.58928 0.0
C155 C 0.00154 0.34503 0.56406 0.0
C156 C -0.00317 0.31668 0.60344 0.0
C157 C 0.9881 0.22253 0.60092 0.0
H158 H 0.04095 0.22665 0.66272 0.0
C159 C 0.00346 0.104 0.66537 0.0
C160 C -0.0012 0.11081 0.69034 0.0
C161 C 0.00572 0.13121 0.6486 0.0
C162 C 0.02577 0.22511 0.64562 0.0
H163 H 0.01407 0.31099 0.53379 0.0
H164 H 0.01686 0.25854 0.55864 0.0
H165 H 0.04102 0.27677 0.63602 0.0
H166 H 0.99212 0.15143 0.71721 0.0
H167 H -0.00463 0.19843 0.68816 0.0
H168 H 0.97211 0.17105 0.61084 0.0
C169 C 0.01063 0.28292 0.5674 0.0
C170 C 0.02589 0.25383 0.63031 0.0
C171 C 0.00933 0.31293 0.55324 0.0
C172 C -0.00397 0.14523 0.69813 0.0
C173 C -0.00183 0.17227 0.68146 0.0
C174 C 0.98777 0.19376 0.61635 0.0
C175 C 0.00465 0.28456 0.59268 0.0
C176 C 0.00656 0.25307 0.60799 0.0
C177 C 0.00336 0.16568 0.65652 0.0
C178 C 0.00607 0.19497 0.63909 0.0
H179 H 0.98944 0.37094 0.59817 0.0
H180 H 0.99168 0.31869 0.62283 0.0
H181 H 0.9728 0.22128 0.58385 0.0
H182 H 0.00571 0.07773 0.6588 0.0
H183 H 0.00993 0.12526 0.62952 0.0
C184 C 0.68235 0.97152 0.07713 0.0
C185 C 0.66208 0.00141 0.07089 0.0
C186 C 0.71132 0.97289 0.09438 0.0
C187 C 0.74683 0.02617 0.1455 0.0
H188 H 0.8362 0.96929 0.13807 0.0
C189 C 0.87942 0.03577 0.20759 0.0
C190 C 0.89555 0.00432 0.21502 0.0
C191 C 0.8499 0.03621 0.19065 0.0
C192 C 0.81123 0.9851 0.14048 0.0
H193 H 0.65682 0.05635 0.07774 0.0
H194 H 0.70826 0.05896 0.10715 0.0
H195 H 0.78817 0.96926 0.10628 0.0
H196 H 0.89237 0.94864 0.21104 0.0
H197 H 0.84105 0.94955 0.18151 0.0
H198 H 0.77043 0.04231 0.17962 0.0
C199 C 0.70124 0.03429 0.09906 0.0
C200 C 0.78367 0.98505 0.12229 0.0
C201 C 0.6721 0.03288 0.0819 0.0
C202 C 0.88073 0.97334 0.20569 0.0
C203 C 0.85149 0.97382 0.18864 0.0
C204 C 0.7746 0.02642 0.16361 0.0
C205 C 0.72095 0.00425 0.10569 0.0
C206 C 0.75096 0.00537 0.12465 0.0
C207 C 0.83618 0.00526 0.18066 0.0
C208 C 0.80691 0.00564 0.16137 0.0
H209 H 0.67572 0.94693 0.06879 0.0
H210 H 0.72559 0.94916 0.09921 0.0
H211 H 0.72175 0.04174 0.1481 0.0
H212 H 0.89014 0.06009 0.21445 0.0
H213 H 0.83868 0.06083 0.18475 0.0
C214 C 0.98702 0.65858 0.59029 0.0
C215 C 0.9942 0.66034 0.56516 0.0
C216 C 0.9881 0.68834 0.6046 0.0
C217 C 0.98047 0.78279 0.60234 0.0
H218 H 0.03209 0.77789 0.66454 0.0
C219 C -0.00076 0.90154 0.66618 0.0
C220 C 0.99423 0.89525 0.69119 0.0
C221 C 0.0005 0.87404 0.64961 0.0
C222 C 0.01723 0.77964 0.64733 0.0
H223 H 0.00734 0.69478 0.53521 0.0
H224 H 0.00924 0.74696 0.56031 0.0
H225 H 0.03136 0.72768 0.63792 0.0
H226 H 0.98583 0.85526 0.71834 0.0
H227 H 0.98735 0.80776 0.68962 0.0
H228 H 0.96576 0.83465 0.61201 0.0
C229 C 0.00278 0.72248 0.56889 0.0
C230 C 0.01687 0.75086 0.63208 0.0
C231 C 0.00199 0.69261 0.55458 0.0
C232 C 0.99005 0.86105 0.69923 0.0
C233 C 0.99118 0.83372 0.68275 0.0
C234 C 0.98065 0.81163 0.61771 0.0
C235 C -0.00382 0.72059 0.59409 0.0
C236 C -0.00194 0.75193 0.60957 0.0
C237 C -0.00325 0.83977 0.65777 0.0
C238 C -0.00143 0.81019 0.64055 0.0
H239 H 0.98124 0.63406 0.59901 0.0
H240 H 0.98246 0.68613 0.62393 0.0
H241 H 0.96558 0.7843 0.58514 0.0
H242 H 0.00258 0.92763 0.65944 0.0
H243 H 0.00505 0.87957 0.63051 0.0
C244 C 0.30592 0.03177 0.91819 0.0
C245 C 0.32607 0.00151 0.92372 0.0
C246 C 0.2772 0.03138 0.90074 0.0
C247 C 0.21108 0.97421 0.86846 0.0
H248 H 0.20987 0.04725 0.82019 0.0
C249 C 0.10876 0.97112 0.78677 0.0
C250 C 0.09115 0.00238 0.78051 0.0
C251 C 0.13871 0.97062 0.80336 0.0
C252 C 0.20953 0.02687 0.83367 0.0
H253 H 0.33143 0.94699 0.91536 0.0
H254 H 0.28083 0.94626 0.88521 0.0
H255 H 0.2583 0.04722 0.85177 0.0
H256 H 0.09173 0.05775 0.78647 0.0
H257 H 0.14339 0.05679 0.81566 0.0
H258 H 0.16201 0.9541 0.85066 0.0
C259 C 0.28723 0.97024 0.89449 0.0
C260 C 0.23729 0.02686 0.85176 0.0
C261 C 0.31612 0.97065 0.91184 0.0
C262 C 0.10473 0.03321 0.7908 0.0
C263 C 0.13452 0.03269 0.80748 0.0
C264 C 0.18316 0.97432 0.85046 0.0
C265 C 0.2678 0.00068 0.88855 0.0
C266 C 0.23829 0.00059 0.86937 0.0
C267 C 0.15161 0.00135 0.81418 0.0
C268 C 0.182 0.0007 0.83288 0.0
H269 H 0.3124 0.05584 0.92731 0.0
H270 H 0.26226 0.05512 0.89683 0.0
H271 H 0.21093 0.95383 0.88195 0.0
H272 H 0.09915 0.94692 0.77907 0.0
H273 H 0.15168 0.94611 0.80778 0.0
C274 C -0.00461 0.31299 0.43785 0.0
C275 C 0.00419 0.34469 0.42674 0.0
C276 C -0.00322 0.28226 0.4245 0.0
C277 C 0.03719 0.24491 0.3681 0.0
H278 H 0.95734 0.17692 0.37486 0.0
C279 C 0.00976 0.14124 0.2959 0.0
C280 C 0.00161 0.10745 0.30354 0.0
C281 C 0.01212 0.16809 0.31272 0.0
C282 C 0.98013 0.19543 0.37304 0.0
H283 H 0.02054 0.36904 0.39278 0.0
H284 H 0.02279 0.31564 0.36951 0.0
H285 H 0.95739 0.22807 0.4009 0.0
H286 H 0.98946 0.07532 0.33491 0.0
H287 H 0.99334 0.12262 0.36449 0.0
H288 H 0.05944 0.21273 0.33989 0.0
C289 C 0.01559 0.31435 0.38866 0.0
C290 C 0.98018 0.22473 0.38795 0.0
C291 C 0.01425 0.34499 0.40199 0.0
C292 C -0.00419 0.10109 0.32848 0.0
C293 C -0.00212 0.12815 0.34537 0.0
C294 C 0.03706 0.21576 0.35319 0.0
C295 C 0.007 0.28258 0.39976 0.0
C296 C 0.00835 0.25013 0.38533 0.0
C297 C 0.0062 0.16191 0.33763 0.0
C298 C 0.00816 0.19101 0.35517 0.0
H299 H 0.98798 0.31186 0.45698 0.0
H300 H 0.99039 0.2582 0.43366 0.0
H301 H 0.0598 0.26355 0.366 0.0
H302 H 0.01436 0.14708 0.27683 0.0
H303 H 0.018 0.19389 0.30614 0.0
C304 C 0.67579 0.03739 0.91303 0.0
C305 C 0.6572 0.00659 0.91938 0.0
C306 C 0.70416 0.03743 0.89534 0.0
C307 C 0.74069 0.98633 0.84348 0.0
H308 H 0.82979 0.04346 0.85189 0.0
C309 C 0.87481 0.97476 0.78359 0.0
C310 C 0.89301 0.00558 0.77681 0.0
C311 C 0.84428 0.97533 0.79975 0.0
C312 C 0.80485 0.02769 0.84914 0.0
H313 H 0.65405 0.95164 0.91209 0.0
H314 H 0.70434 0.95154 0.88181 0.0
H315 H 0.78104 0.04314 0.88323 0.0
H316 H 0.89242 0.06128 0.78101 0.0
H317 H 0.83912 0.06218 0.80913 0.0
H318 H 0.76495 0.97053 0.80951 0.0
C319 C 0.69654 0.97578 0.89022 0.0
C320 C 0.7769 0.0275 0.8671 0.0
C321 C 0.66807 0.97576 0.90786 0.0
C322 C 0.87917 0.03704 0.78591 0.0
C323 C 0.8488 0.03758 0.80215 0.0
C324 C 0.76876 0.98639 0.82556 0.0
C325 C 0.71474 0.00665 0.88362 0.0
C326 C 0.74448 0.00681 0.8645 0.0
C327 C 0.83144 0.00669 0.80955 0.0
C328 C 0.80112 0.00709 0.82821 0.0
H329 H 0.66839 0.06153 0.92173 0.0
H330 H 0.71734 0.06173 0.89055 0.0
H331 H 0.71579 0.97053 0.8407 0.0
H332 H 0.8847 0.95008 0.77691 0.0
H333 H 0.8316 0.95109 0.80524 0.0
C334 C 0.96227 0.67211 0.41545 0.0
C335 C 0.99193 0.66492 0.43161 0.0
C336 C 0.96105 0.70351 0.40301 0.0
C337 C 0.02193 0.77781 0.38512 0.0
H338 H 0.92543 0.81678 0.36603 0.0
C339 C 0.00452 0.90655 0.33122 0.0
C340 C 0.9864 0.90096 0.30879 0.0
C341 C 0.00434 0.88078 0.34913 0.0
C342 C 0.95254 0.80626 0.37142 0.0
H343 H 0.04299 0.68504 0.44806 0.0
H344 H 0.04023 0.74055 0.42712 0.0
H345 H 0.92693 0.76629 0.39251 0.0
H346 H 0.9527 0.86487 0.2878 0.0
H347 H 0.95131 0.82052 0.31936 0.0
H348 H 0.04726 0.81843 0.36414 0.0
C349 C 0.01849 0.72162 0.42335 0.0
C350 C 0.95349 0.77712 0.38637 0.0
C351 C 0.02005 0.6899 0.43545 0.0
C352 C 0.96703 0.86979 0.30489 0.0
C353 C 0.96606 0.84451 0.32295 0.0
C354 C 0.02092 0.80739 0.37055 0.0
C355 C 0.9891 0.72879 0.40679 0.0
C356 C 0.98819 0.76191 0.39292 0.0
C357 C 0.98513 0.84956 0.34506 0.0
C358 C 0.98622 0.82134 0.36314 0.0
H359 H 0.94045 0.65308 0.41202 0.0
H360 H 0.93846 0.70756 0.39003 0.0
H361 H 0.0492 0.76674 0.38943 0.0
H362 H 0.01977 0.93032 0.33461 0.0
H363 H 0.01924 0.88514 0.36608 0.0
loop_
_geom_bond_atom_site_label_1
_geom_bond_atom_site_label_2
_geom_bond_distance
_geom_bond_site_symmetry_2
_ccdc_geom_bond_type
H0 C19 0.949 . S
H1 C20 0.950 . S
H2 C22 0.950 . S
H3 C23 0.950 . S
H4 C25 0.950 . S
H5 C28 0.950 . S
H6 C29 0.950 . S
H7 C31 0.951 . S
H8 C32 0.949 . S
H9 C34 0.949 . S
H10 C35 0.950 . S
H11 C37 0.950 . S
H12 C38 0.950 . S
H13 C40 0.950 . S
H14 C43 0.950 . S
H15 C44 0.950 . S
H16 C46 0.951 . S
H17 C47 0.949 . S
C18 C19 1.369 1_545 S
C18 C23 1.393 . S
C18 C24 1.483 . S
C19 H0 0.949 . S
C19 C18 1.369 1_565 S
C19 C20 1.397 . S
C20 H1 0.950 . S
C20 C19 1.397 . S
C20 C21 1.391 1_565 S
C21 C20 1.391 1_545 S
C21 C22 1.405 . S
C22 H2 0.950 . S
C22 C21 1.405 . S
C22 C23 1.367 . S
C23 H3 0.950 . S
C23 C18 1.393 . S
C23 C22 1.367 . S
C24 C18 1.483 . S
C24 C25 1.381 1_545 S
C24 C26 1.405 1_554 S
C25 H4 0.950 . S
C25 C24 1.381 1_565 S
C25 C41 1.411 1_565 S
C26 C24 1.405 1_556 S
C26 C27 1.489 . S
C26 C40 1.411 . S
C27 C26 1.489 . S
C27 C28 1.383 1_545 S
C27 C32 1.382 . S
C28 H5 0.950 . S
C28 C27 1.383 1_565 S
C28 C29 1.395 . S
C29 H6 0.950 . S
C29 C28 1.395 . S
C29 C30 1.288 1_565 S
C30 C29 1.288 1_545 S
C30 C31 1.392 . S
C31 H7 0.951 . S
C31 C30 1.392 . S
C31 C32 1.392 . S
C32 H8 0.949 . S
C32 C27 1.382 . S
C32 C31 1.392 . S
C33 C34 1.376 . S
C33 C38 1.386 1_545 S
C33 C39 1.483 . S
C34 H9 0.949 . S
C34 C33 1.376 . S
C34 C35 1.397 . S
C35 H10 0.950 . S
C35 C34 1.397 . S
C35 C36 1.391 . S
C36 C35 1.391 . S
C36 C37 1.405 1_545 S
C37 H11 0.950 . S
C37 C36 1.405 1_565 S
C37 C38 1.367 . S
C38 H12 0.950 . S
C38 C33 1.386 1_565 S
C38 C37 1.367 . S
C39 C33 1.483 . S
C39 C40 1.382 . S
C39 C41 1.403 1_556 S
C40 H13 0.950 . S
C40 C26 1.411 . S
C40 C39 1.382 . S
C41 C25 1.411 1_545 S
C41 C39 1.403 1_554 S
C41 C42 1.488 1_545 S
C42 C41 1.488 1_565 S
C42 C43 1.359 1_565 S
C42 C47 1.406 . S
C43 H14 0.950 . S
C43 C42 1.359 1_545 S
C43 C44 1.395 . S
C44 H15 0.950 . S
C44 C43 1.395 . S
C44 C45 1.285 1_545 S
C45 C44 1.285 1_565 S
C45 C46 1.395 . S
C46 H16 0.951 . S
C46 C45 1.395 . S
C46 C47 1.392 . S
C47 H17 0.949 . S
C47 C42 1.406 . S
C47 C46 1.392 . S
H48 C67 0.949 . S
H49 C68 0.950 . S
H50 C70 0.950 . S
H51 C71 0.950 . S
H52 C73 0.950 . S
H53 C76 0.950 . S
H54 C77 0.950 . S
H55 C79 0.951 . S
H56 C80 0.949 . S
H57 C82 0.949 . S
H58 C83 0.950 . S
H59 C85 0.950 . S
H60 C86 0.950 . S
H61 C88 0.950 . S
H62 C91 0.950 . S
H63 C92 0.950 . S
H64 C94 0.951 . S
H65 C95 0.949 . S
C66 C67 1.376 . S
C66 C71 1.386 1_455 S
C66 C72 1.483 . S
C67 H48 0.949 . S
C67 C66 1.376 . S
C67 C68 1.397 . S
C68 H49 0.950 . S
C68 C67 1.397 . S
C68 C69 1.391 . S
C69 C68 1.391 . S
C69 C70 1.405 1_455 S
C70 H50 0.950 . S
C70 C69 1.405 1_655 S
C70 C71 1.367 . S
C71 H51 0.950 . S
C71 C66 1.386 1_655 S
C71 C70 1.367 . S
C72 C66 1.483 . S
C72 C73 1.382 . S
C72 C74 1.403 1_455 S
C73 H52 0.950 . S
C73 C72 1.382 . S
C73 C89 1.411 . S
C74 C72 1.403 1_655 S
C74 C75 1.489 . S
C74 C88 1.411 . S
C75 C74 1.489 . S
C75 C76 1.383 1_655 S
C75 C80 1.382 . S
C76 H53 0.950 . S
C76 C75 1.383 1_455 S
C76 C77 1.395 . S
C77 H54 0.950 . S
C77 C76 1.395 . S
C77 C78 1.288 1_455 S
C78 C77 1.288 1_655 S
C78 C79 1.392 . S
C79 H55 0.951 . S
C79 C78 1.392 . S
C79 C80 1.392 . S
C80 H56 0.949 . S
C80 C75 1.382 . S
C80 C79 1.392 . S
C81 C82 1.376 . S
C81 C86 1.386 1_655 S
C81 C87 1.483 . S
C82 H57 0.949 . S
C82 C81 1.376 . S
C82 C83 1.397 . S
C83 H58 0.950 . S
C83 C82 1.397 . S
C83 C84 1.397 . S
C84 C83 1.397 . S
C84 C85 1.399 1_655 S
C85 H59 0.950 . S
C85 C84 1.399 1_455 S
C85 C86 1.367 . S
C86 H60 0.950 . S
C86 C81 1.386 1_455 S
C86 C85 1.367 . S
C87 C81 1.483 . S
C87 C88 1.382 . S
C87 C89 1.403 1_655 S
C88 H61 0.950 . S
C88 C74 1.411 . S
C88 C87 1.382 . S
C89 C73 1.411 . S
C89 C87 1.403 1_455 S
C89 C90 1.489 . S
C90 C89 1.489 . S
C90 C91 1.383 1_455 S
C90 C95 1.382 . S
C91 H62 0.950 . S
C91 C90 1.383 1_655 S
C91 C92 1.395 . S
C92 H63 0.950 . S
C92 C91 1.395 . S
C92 C93 1.288 1_655 S
C93 C92 1.288 1_455 S
C93 C94 1.392 . S
C94 H64 0.951 . S
C94 C93 1.392 . S
C94 C95 1.392 . S
C95 H65 0.949 . S
C95 C90 1.382 . S
C95 C94 1.392 . S
O96 Cd97 2.223 1_655 S
O96 C104 1.315 . S
Cd97 O96 2.223 1_455 S
Cd97 O100 2.297 1_455 S
Cd97 O101 2.439 1_455 S
Cd97 O107 2.240 1_565 S
Cd98 O99 2.240 1_545 S
Cd98 O106 2.223 1_655 S
Cd98 O108 2.297 1_655 S
Cd98 O109 2.439 1_655 S
O99 Cd98 2.240 1_565 S
O99 C104 1.279 . S
O100 Cd97 2.297 1_655 S
O100 C102 1.247 . S
O101 Cd97 2.439 1_655 S
O101 C102 1.208 . S
C102 O100 1.247 . S
C102 O101 1.208 . S
C103 O108 1.247 . S
C103 O109 1.208 . S
C104 O96 1.315 . S
C104 O99 1.279 . S
C105 O106 1.315 . S
C105 O107 1.279 . S
O106 Cd98 2.223 1_455 S
O106 C105 1.315 . S
O107 Cd97 2.240 1_545 S
O107 C105 1.279 . S
O108 Cd98 2.297 1_455 S
O108 C103 1.247 . S
O109 Cd98 2.439 1_455 S
O109 C103 1.208 . S
O110 Cd111 2.223 1_655 S
O110 C118 1.315 . S
Cd111 O110 2.223 1_455 S
Cd111 O114 2.297 1_455 S
Cd111 O115 2.439 1_455 S
Cd111 O121 2.240 1_545 S
Cd112 O113 2.240 1_565 S
Cd112 O120 2.223 1_655 S
Cd112 O122 2.297 1_655 S
Cd112 O123 2.439 1_655 S
O113 Cd112 2.240 1_545 S
O113 C118 1.279 . S
O114 Cd111 2.297 1_655 S
O114 C116 1.247 . S
O115 Cd111 2.439 1_655 S
O115 C116 1.208 . S
C116 O114 1.247 . S
C116 O115 1.208 . S
C117 O122 1.247 . S
C117 O123 1.208 . S
C118 O110 1.315 . S
C118 O113 1.279 . S
C119 O120 1.315 . S
C119 O121 1.279 . S
O120 Cd112 2.223 1_455 S
O120 C119 1.315 . S
O121 Cd111 2.240 1_565 S
O121 C119 1.279 . S
O122 Cd112 2.297 1_455 S
O122 C117 1.247 . S
O123 Cd112 2.439 1_455 S
O123 C117 1.208 . S
C124 C125 1.349 1_565 S
C124 C126 1.327 . S
C124 H149 0.950 . S
C125 C124 1.349 1_545 S
C125 C141 1.349 . S
C126 C124 1.327 . S
C126 C145 1.429 1_565 S
C126 H150 0.950 . S
C127 C144 1.574 . S
C127 C146 1.368 . S
C127 H151 0.949 . S
H128 C132 0.949 . S
C129 C130 1.349 . S
C129 C131 1.327 . S
C129 H152 0.950 . S
C130 C129 1.349 . S
C130 C142 1.349 1_545 S
C131 C129 1.327 . S
C131 C147 1.429 . S
C131 H153 0.950 . S
C132 H128 0.949 . S
C132 C140 1.574 . S
C132 C148 1.368 1_565 S
H133 C141 0.950 . S
H134 C139 0.950 . S
H135 C140 0.949 . S
H136 C142 0.950 . S
H137 C143 0.950 . S
H138 C144 0.949 . S
C139 H134 0.950 . S
C139 C141 1.327 . S
C139 C145 1.429 . S
C140 C132 1.574 . S
C140 H135 0.949 . S
C140 C146 1.368 1_565 S
C141 C125 1.349 . S
C141 H133 0.950 . S
C141 C139 1.327 . S
C142 C130 1.349 1_565 S
C142 H136 0.950 . S
C142 C143 1.327 . S
C143 H137 0.950 . S
C143 C142 1.327 . S
C143 C147 1.429 1_565 S
C144 C127 1.574 . S
C144 H138 0.949 . S
C144 C148 1.368 . S
C145 C126 1.429 1_545 S
C145 C139 1.429 . S
C145 C146 1.523 . S
C146 C127 1.368 . S
C146 C140 1.368 1_545 S
C146 C145 1.523 . S
C147 C131 1.429 . S
C147 C143 1.429 1_545 S
C147 C148 1.523 . S
C148 C132 1.368 1_545 S
C148 C144 1.368 . S
C148 C147 1.523 . S
H149 C124 0.950 . S
H150 C126 0.950 . S
H151 C127 0.949 . S
H152 C129 0.950 . S
H153 C131 0.950 . S
C154 C155 1.349 . S
C154 C156 1.328 . S
C154 H179 0.949 1_655 S
C155 C154 1.349 . S
C155 C171 1.351 . S
C156 C154 1.328 . S
C156 C175 1.429 . S
C156 H180 0.950 . S
C157 C174 1.574 . S
C157 C176 1.368 . S
C157 H181 0.949 . S
H158 C162 0.949 . S
C159 C160 1.349 . S
C159 C161 1.327 . S
C159 H182 0.950 . S
C160 C159 1.349 . S
C160 C172 1.349 . S
C161 C159 1.327 . S
C161 C177 1.429 . S
C161 H183 0.950 . S
C162 H158 0.949 . S
C162 C170 1.574 . S
C162 C178 1.368 . S
H163 C171 0.950 . S
H164 C169 0.950 . S
H165 C170 0.949 . S
H166 C172 0.950 . S
H167 C173 0.950 . S
H168 C174 0.949 . S
C169 H164 0.950 . S
C169 C171 1.327 . S
C169 C175 1.429 . S
C170 C162 1.574 . S
C170 H165 0.949 . S
C170 C176 1.368 . S
C171 C155 1.351 . S
C171 H163 0.950 . S
C171 C169 1.327 . S
C172 C160 1.349 . S
C172 H166 0.950 . S
C172 C173 1.327 . S
C173 H167 0.950 . S
C173 C172 1.327 . S
C173 C177 1.429 . S
C174 C157 1.574 . S
C174 H168 0.949 . S
C174 C178 1.368 . S
C175 C156 1.429 . S
C175 C169 1.429 . S
C175 C176 1.523 . S
C176 C157 1.368 . S
C176 C170 1.368 . S
C176 C175 1.523 . S
C177 C161 1.429 . S
C177 C173 1.429 . S
C177 C178 1.523 . S
C178 C162 1.368 . S
C178 C174 1.368 . S
C178 C177 1.523 . S
H179 C154 0.949 1_455 S
H180 C156 0.950 . S
H181 C157 0.949 . S
H182 C159 0.950 . S
H183 C161 0.950 . S
C184 C185 1.349 1_565 S
C184 C186 1.327 . S
C184 H209 0.950 . S
C185 C184 1.349 1_545 S
C185 C201 1.349 . S
C186 C184 1.327 . S
C186 C205 1.429 . S
C186 H210 0.950 . S
C187 C204 1.574 . S
C187 C206 1.368 1_545 S
C187 H211 0.949 . S
H188 C192 0.949 . S
C189 C190 1.349 1_545 S
C189 C191 1.327 . S
C189 H212 0.950 . S
C190 C189 1.349 1_565 S
C190 C202 1.349 . S
C191 C189 1.327 . S
C191 C207 1.429 1_545 S
C191 H213 0.950 . S
C192 H188 0.949 . S
C192 C200 1.574 . S
C192 C208 1.368 . S
H193 C201 0.950 . S
H194 C199 0.950 . S
H195 C200 0.949 . S
H196 C202 0.950 . S
H197 C203 0.950 . S
H198 C204 0.949 . S
C199 H194 0.950 . S
C199 C201 1.327 . S
C199 C205 1.429 1_545 S
C200 C192 1.574 . S
C200 H195 0.949 . S
C200 C206 1.368 . S
C201 C185 1.349 . S
C201 H193 0.950 . S
C201 C199 1.327 . S
C202 C190 1.349 . S
C202 H196 0.950 . S
C202 C203 1.327 . S
C203 H197 0.950 . S
C203 C202 1.327 . S
C203 C207 1.429 . S
C204 C187 1.574 . S
C204 H198 0.949 . S
C204 C208 1.368 1_545 S
C205 C186 1.429 . S
C205 C199 1.429 1_565 S
C205 C206 1.523 . S
C206 C187 1.368 1_565 S
C206 C200 1.368 . S
C206 C205 1.523 . S
C207 C191 1.429 1_565 S
C207 C203 1.429 . S
C207 C208 1.523 . S
C208 C192 1.368 . S
C208 C204 1.368 1_565 S
C208 C207 1.523 . S
H209 C184 0.950 . S
H210 C186 0.950 . S
H211 C187 0.949 . S
H212 C189 0.950 . S
H213 C191 0.950 . S
C214 C215 1.349 . S
C214 C216 1.327 . S
C214 H239 0.950 . S
C215 C214 1.349 . S
C215 C231 1.349 1_455 S
C216 C214 1.327 . S
C216 C235 1.429 . S
C216 H240 0.950 . S
C217 C234 1.574 . S
C217 C236 1.368 1_655 S
C217 H241 0.949 . S
H218 C222 0.949 . S
C219 C220 1.349 . S
C219 C221 1.327 . S
C219 H242 0.950 1_455 S
C220 C219 1.349 . S
C220 C232 1.349 . S
C221 C219 1.327 . S
C221 C237 1.429 . S
C221 H243 0.950 1_455 S
C222 H218 0.949 . S
C222 C230 1.574 . S
C222 C238 1.368 . S
H223 C231 0.950 . S
H224 C229 0.950 . S
H225 C230 0.949 . S
H226 C232 0.950 . S
H227 C233 0.950 . S
H228 C234 0.949 . S
C229 H224 0.950 . S
C229 C231 1.327 . S
C229 C235 1.429 1_655 S
C230 C222 1.574 . S
C230 H225 0.949 . S
C230 C236 1.368 . S
C231 C215 1.349 1_655 S
C231 H223 0.950 . S
C231 C229 1.327 . S
C232 C220 1.349 . S
C232 H226 0.950 . S
C232 C233 1.327 . S
C233 H227 0.950 . S
C233 C232 1.327 . S
C233 C237 1.429 . S
C234 C217 1.574 . S
C234 H228 0.949 . S
C234 C238 1.368 1_655 S
C235 C216 1.429 . S
C235 C229 1.429 1_455 S
C235 C236 1.523 . S
C236 C217 1.368 1_455 S
C236 C230 1.368 . S
C236 C235 1.523 . S
C237 C221 1.429 . S
C237 C233 1.429 . S
C237 C238 1.523 . S
C238 C222 1.368 . S
C238 C234 1.368 1_455 S
C238 C237 1.523 . S
H239 C214 0.950 . S
H240 C216 0.950 . S
H241 C217 0.949 . S
H242 C219 0.950 1_655 S
H243 C221 0.950 1_655 S
C244 C245 1.349 . S
C244 C246 1.327 . S
C244 H269 0.950 . S
C245 C244 1.349 . S
C245 C261 1.349 1_545 S
C246 C244 1.327 . S
C246 C265 1.429 1_545 S
C246 H270 0.950 . S
C247 C264 1.574 . S
C247 C266 1.368 . S
C247 H271 0.949 . S
H248 C252 0.949 . S
C249 C250 1.349 . S
C249 C251 1.327 . S
C249 H272 0.950 . S
C250 C249 1.349 . S
C250 C262 1.349 1_565 S
C251 C249 1.327 . S
C251 C267 1.429 . S
C251 H273 0.950 . S
C252 H248 0.949 . S
C252 C260 1.574 . S
C252 C268 1.368 1_545 S
H253 C261 0.950 . S
H254 C259 0.950 . S
H255 C260 0.949 . S
H256 C262 0.950 . S
H257 C263 0.950 . S
H258 C264 0.949 . S
C259 H254 0.950 . S
C259 C261 1.327 . S
C259 C265 1.429 . S
C260 C252 1.574 . S
C260 H255 0.949 . S
C260 C266 1.368 1_545 S
C261 C245 1.349 1_565 S
C261 H253 0.950 . S
C261 C259 1.327 . S
C262 C250 1.349 1_545 S
C262 H256 0.950 . S
C262 C263 1.327 . S
C263 H257 0.950 . S
C263 C262 1.327 . S
C263 C267 1.429 1_545 S
C264 C247 1.574 . S
C264 H258 0.949 . S
C264 C268 1.368 . S
C265 C246 1.429 1_565 S
C265 C259 1.429 . S
C265 C266 1.523 . S
C266 C247 1.368 . S
C266 C260 1.368 1_565 S
C266 C265 1.523 . S
C267 C251 1.429 . S
C267 C263 1.429 1_565 S
C267 C268 1.523 . S
C268 C252 1.368 1_565 S
C268 C264 1.368 . S
C268 C267 1.523 . S
H269 C244 0.950 . S
H270 C246 0.950 . S
H271 C247 0.949 . S
H272 C249 0.950 . S
H273 C251 0.950 . S
C274 C275 1.349 1_655 S
C274 C276 1.327 . S
C274 H299 0.950 . S
C275 C274 1.349 1_455 S
C275 C291 1.349 . S
C276 C274 1.327 . S
C276 C295 1.429 1_655 S
C276 H300 0.950 . S
C277 C294 1.574 . S
C277 C296 1.368 . S
C277 H301 0.949 . S
H278 C282 0.949 . S
C279 C280 1.349 . S
C279 C281 1.327 . S
C279 H302 0.950 . S
C280 C279 1.349 . S
C280 C292 1.349 . S
C281 C279 1.327 . S
C281 C297 1.429 . S
C281 H303 0.950 . S
C282 H278 0.949 . S
C282 C290 1.574 . S
C282 C298 1.368 1_655 S
H283 C291 0.950 . S
H284 C289 0.950 . S
H285 C290 0.949 . S
H286 C292 0.950 1_655 S
H287 C293 0.950 1_655 S
H288 C294 0.949 . S
C289 H284 0.950 . S
C289 C291 1.327 . S
C289 C295 1.429 . S
C290 C282 1.574 . S
C290 H285 0.949 . S
C290 C296 1.368 1_655 S
C291 C275 1.349 . S
C291 H283 0.950 . S
C291 C289 1.327 . S
C292 C280 1.349 . S
C292 H286 0.950 1_455 S
C292 C293 1.327 . S
C293 H287 0.950 1_455 S
C293 C292 1.327 . S
C293 C297 1.429 . S
C294 C277 1.574 . S
C294 H288 0.949 . S
C294 C298 1.368 . S
C295 C276 1.429 1_455 S
C295 C289 1.429 . S
C295 C296 1.523 . S
C296 C277 1.368 . S
C296 C290 1.368 1_455 S
C296 C295 1.523 . S
C297 C281 1.429 . S
C297 C293 1.429 . S
C297 C298 1.523 . S
C298 C282 1.368 1_455 S
C298 C294 1.368 . S
C298 C297 1.523 . S
H299 C274 0.950 . S
H300 C276 0.950 . S
H301 C277 0.949 . S
H302 C279 0.950 . S
H303 C281 0.950 . S
C304 C305 1.349 . S
C304 C306 1.327 . S
C304 H329 0.950 . S
C305 C304 1.349 . S
C305 C321 1.349 1_545 S
C306 C304 1.327 . S
C306 C325 1.429 . S
C306 H330 0.950 . S
C307 C324 1.574 . S
C307 C326 1.368 1_565 S
C307 H331 0.949 . S
H308 C312 0.949 . S
C309 C310 1.349 1_565 S
C309 C311 1.327 . S
C309 H332 0.950 . S
C310 C309 1.349 1_545 S
C310 C322 1.349 . S
C311 C309 1.327 . S
C311 C327 1.429 1_565 S
C311 H333 0.950 . S
C312 H308 0.949 . S
C312 C320 1.574 . S
C312 C328 1.368 . S
H313 C321 0.950 . S
H314 C319 0.950 . S
H315 C320 0.949 . S
H316 C322 0.950 . S
H317 C323 0.950 . S
H318 C324 0.949 . S
C319 H314 0.950 . S
C319 C321 1.327 . S
C319 C325 1.429 1_565 S
C320 C312 1.574 . S
C320 H315 0.949 . S
C320 C326 1.368 . S
C321 C305 1.349 1_565 S
C321 H313 0.950 . S
C321 C319 1.327 . S
C322 C310 1.349 . S
C322 H316 0.950 . S
C322 C323 1.327 . S
C323 H317 0.950 . S
C323 C322 1.327 . S
C323 C327 1.429 . S
C324 C307 1.574 . S
C324 H318 0.949 . S
C324 C328 1.368 1_565 S
C325 C306 1.429 . S
C325 C319 1.429 1_545 S
C325 C326 1.523 . S
C326 C307 1.368 1_545 S
C326 C320 1.368 . S
C326 C325 1.523 . S
C327 C311 1.429 1_545 S
C327 C323 1.429 . S
C327 C328 1.523 . S
C328 C312 1.368 . S
C328 C324 1.368 1_545 S
C328 C327 1.523 . S
H329 C304 0.950 . S
H330 C306 0.950 . S
H331 C307 0.949 . S
H332 C309 0.950 . S
H333 C311 0.950 . S
C334 C335 1.373 . S
C334 C336 1.327 . S
C334 H359 0.950 . S
C335 C334 1.373 . S
C335 C351 1.326 1_655 S
C336 C334 1.327 . S
C336 C355 1.429 . S
C336 H360 0.950 . S
C337 C354 1.574 . S
C337 C356 1.368 1_455 S
C337 H361 0.949 . S
H338 C342 0.949 . S
C339 C340 1.349 1_455 S
C339 C341 1.327 . S
C339 H362 0.950 . S
C340 C339 1.349 1_655 S
C340 C352 1.349 . S
C341 C339 1.327 . S
C341 C357 1.429 1_455 S
C341 H363 0.950 . S
C342 H338 0.949 . S
C342 C350 1.574 . S
C342 C358 1.368 . S
H343 C351 0.950 . S
H344 C349 0.950 . S
H345 C350 0.949 . S
H346 C352 0.950 . S
H347 C353 0.950 . S
H348 C354 0.949 . S
C349 H344 0.950 . S
C349 C351 1.327 . S
C349 C355 1.429 1_455 S
C350 C342 1.574 . S
C350 H345 0.949 . S
C350 C356 1.368 . S
C351 C335 1.326 1_455 S
C351 H343 0.950 . S
C351 C349 1.327 . S
C352 C340 1.349 . S
C352 H346 0.950 . S
C352 C353 1.327 . S
C353 H347 0.950 . S
C353 C352 1.327 . S
C353 C357 1.429 . S
C354 C337 1.574 . S
C354 H348 0.949 . S
C354 C358 1.368 1_455 S
C355 C336 1.429 . S
C355 C349 1.429 1_655 S
C355 C356 1.523 . S
C356 C337 1.368 1_655 S
C356 C350 1.368 . S
C356 C355 1.523 . S
C357 C341 1.429 1_655 S
C357 C353 1.429 . S
C357 C358 1.523 . S
C358 C342 1.368 . S
C358 C354 1.368 1_655 S
C358 C357 1.523 . S
H359 C334 0.950 . S
H360 C336 0.950 . S
H361 C337 0.949 . S
H362 C339 0.950 . S
H363 C341 0.950 . S
C130 C105 1.637 . S
C125 C45 1.633 1_545 S
C160 C116 1.557 . S
C155 C78 1.615 . S
C190 C104 1.637 . S
C185 C21 1.636 . S
C220 C117 1.557 . S
C215 C84 1.624 1_455 S
C250 C119 1.637 . S
C245 C36 1.640 . S
C280 C103 1.557 . S
C275 C69 1.621 . S
C310 C118 1.637 . S
C305 C30 1.628 . S
C335 C93 1.620 1_655 S
C340 C102 1.557 . S
