# Generated by pormake.
# Topology pth, (4,4)-cn, num edge types: 1
# Building blocks:
#     Node 0, Type 0, BuildingBlock: CEKHIL_clean_sbu_0, # of connection points: 4
#     Node 1, Type 0, BuildingBlock: CEKHIL_clean_sbu_0, # of connection points: 4
#     Node 2, Type 0, BuildingBlock: CEKHIL_clean_sbu_0, # of connection points: 4
#     Node 3, Type 1, BuildingBlock: MIFKUJ_clean_linker_1, # of connection points: 4
#     Node 4, Type 1, BuildingBlock: MIFKUJ_clean_linker_1, # of connection points: 4
#     Node 5, Type 1, BuildingBlock: MIFKUJ_clean_linker_1, # of connection points: 4
#     Edge 6, Type (0, 1), BuildingBlock: UVAHIK_clean_linker_0, # of connection points: 2
#     Edge 7, Type (0, 1), BuildingBlock: UVAHIK_clean_linker_0, # of connection points: 2
#     Edge 8, Type (0, 1), BuildingBlock: UVAHIK_clean_linker_0, # of connection points: 2
#     Edge 9, Type (0, 1), BuildingBlock: UVAHIK_clean_linker_0, # of connection points: 2
#     Edge 10, Type (0, 1), BuildingBlock: UVAHIK_clean_linker_0, # of connection points: 2
#     Edge 11, Type (0, 1), BuildingBlock: UVAHIK_clean_linker_0, # of connection points: 2
#     Edge 12, Type (0, 1), BuildingBlock: UVAHIK_clean_linker_0, # of connection points: 2
#     Edge 13, Type (0, 1), BuildingBlock: UVAHIK_clean_linker_0, # of connection points: 2
#     Edge 14, Type (0, 1), BuildingBlock: UVAHIK_clean_linker_0, # of connection points: 2
#     Edge 15, Type (0, 1), BuildingBlock: UVAHIK_clean_linker_0, # of connection points: 2
#     Edge 16, Type (0, 1), BuildingBlock: UVAHIK_clean_linker_0, # of connection points: 2
#     Edge 17, Type (0, 1), BuildingBlock: UVAHIK_clean_linker_0, # of connection points: 2
# Relax obj value: 0.014
# Max RMSD: 0.063
# Mean RMSD: 0.055
data_MOF--net-pth--node1-CEKHIL_clean_sbu_0--node2-MIFKUJ_clean_linker_1--edge1-UVAHIK_clean_linker_0
_symmetry_space_group_name_H-M    P1
_symmetry_Int_Tables_number       1
_symmetry_cell_setting            triclinic
loop_
_symmetry_equiv_pos_as_xyz
'x, y, z'
_cell_length_a     36.3174
_cell_length_b     36.427739
_cell_length_c     80.545539
_cell_angle_alpha  90.737154
_cell_angle_beta   90.028874
_cell_angle_gamma 120.28205
loop_
_atom_site_label
_atom_site_type_symbol
_atom_site_fract_x
_atom_site_fract_y
_atom_site_fract_z
_atom_type_partial_charge
Co0 Co 0.01535 0.02529 0.05596 0.0
O1 O 0.98994 0.98374 0.07303 0.0
O2 O 0.04183 0.99046 0.05665 0.0
C3 C 0.02317 0.08051 0.07165 0.0
O4 O 0.05061 0.06601 0.0376 0.0
Co5 Co 0.96814 0.07096 0.04331 0.0
O6 O 0.02 0.10378 0.02978 0.0
C7 C 0.93621 0.98159 0.03416 0.0
C8 C 0.01632 0.97109 0.06894 0.0
C9 C 0.04981 0.09505 0.0289 0.0
O10 O 0.97121 0.9848 0.03942 0.0
O11 O 0.92686 0.01081 0.03631 0.0
O12 O 0.05121 0.06842 0.07246 0.0
O13 O 0.98997 0.05677 0.06259 0.0
Co14 Co 0.01154 0.03149 0.37672 0.0
O15 O 0.98228 0.04865 0.36164 0.0
O16 O 0.03942 0.09304 0.37642 0.0
C17 C 0.01338 0.98361 0.35929 0.0
O18 O 0.05123 0.02523 0.39298 0.0
Co19 Co 0.96847 0.93858 0.38896 0.0
O20 O 0.02732 0.9555 0.39586 0.0
C21 C 0.94381 0.99775 0.40368 0.0
C22 C 0.01067 0.08756 0.36545 0.0
C23 C 0.05584 0.99435 0.39807 0.0
O24 O 0.97283 0.02862 0.39528 0.0
O25 O 0.93569 0.95932 0.40226 0.0
O26 O 0.04192 0.02365 0.35831 0.0
O27 O 0.98303 0.97436 0.36972 0.0
Co28 Co 0.00676 0.01674 0.70938 0.0
O29 O 0.05233 0.04373 0.69369 0.0
O30 O 0.03994 0.9886 0.70899 0.0
C31 C 0.95522 0.01274 0.69256 0.0
O32 O 0.96213 0.97944 0.72637 0.0
Co33 Co 0.95882 0.06193 0.72207 0.0
O34 O 0.921 0.00733 0.73302 0.0
C35 C 0.04452 0.08836 0.73532 0.0
C36 C 0.06282 0.01581 0.69771 0.0
C37 C 0.93031 0.97807 0.73402 0.0
O38 O 0.04471 0.05764 0.72731 0.0
O39 O 0.01451 0.09692 0.73407 0.0
O40 O 0.96663 0.98425 0.69157 0.0
O41 O 0.97755 0.04435 0.70259 0.0
H42 H 0.08859 0.50793 0.18876 0.0
H43 H 0.09227 0.45372 0.17188 0.0
H44 H 0.96952 0.35854 0.19047 0.0
H45 H 0.96635 0.41296 0.20751 0.0
H46 H 0.03013 0.53202 0.18597 0.0
H47 H 0.07916 0.47594 0.22895 0.0
H48 H 0.0794 0.42299 0.24729 0.0
H49 H 0.95508 0.39178 0.26537 0.0
H50 H 0.95469 0.44414 0.24678 0.0
H51 H 0.95632 0.55565 0.24702 0.0
H52 H 0.95679 0.61162 0.26401 0.0
H53 H 0.0699 0.7053 0.23871 0.0
H54 H 0.07116 0.64875 0.22277 0.0
H55 H 0.00892 0.52904 0.24683 0.0
H56 H 0.95981 0.5853 0.2033 0.0
H57 H 0.96028 0.63803 0.18469 0.0
H58 H 0.08636 0.67063 0.16817 0.0
H59 H 0.08494 0.61698 0.18642 0.0
C60 C 0.02729 0.46445 0.19942 0.0
C61 C 0.06265 0.47531 0.1893 0.0
C62 C 0.06458 0.44434 0.17959 0.0
C63 C 0.03103 0.40188 0.17973 0.0
C64 C 0.99609 0.39086 0.19022 0.0
C65 C 0.99422 0.42191 0.19996 0.0
C66 C 0.02386 0.4982 0.20849 0.0
C67 C 0.02597 0.53167 0.19932 0.0
C68 C 0.01718 0.49699 0.2258 0.0
C69 C 0.01672 0.46371 0.23638 0.0
C70 C 0.05174 0.4573 0.23671 0.0
C71 C 0.05203 0.42736 0.24732 0.0
C72 C 0.01728 0.40325 0.2578 0.0
C73 C 0.98212 0.40951 0.25733 0.0
C74 C 0.98195 0.43958 0.24678 0.0
C75 C 0.01342 0.59787 0.23346 0.0
C76 C 0.98123 0.58826 0.24513 0.0
C77 C 0.9813 0.62048 0.25474 0.0
C78 C 0.01336 0.6632 0.25277 0.0
C79 C 0.04505 0.67279 0.24079 0.0
C80 C 0.04537 0.64046 0.2314 0.0
C81 C 0.01515 0.5631 0.22431 0.0
C82 C 0.01273 0.52934 0.23346 0.0
C83 C 0.02147 0.56399 0.20695 0.0
C84 C 0.02239 0.59734 0.19628 0.0
C85 C 0.98761 0.60404 0.19573 0.0
C86 C 0.98803 0.63432 0.1851 0.0
C87 C 0.02334 0.65862 0.17485 0.0
C88 C 0.05829 0.65202 0.17562 0.0
C89 C 0.05768 0.62154 0.18613 0.0
H90 H 0.60992 0.10126 0.5235 0.0
H91 H 0.66879 0.10452 0.50754 0.0
H92 H 0.62336 0.97262 0.51862 0.0
H93 H 0.5659 0.97037 0.53503 0.0
H94 H 0.52038 0.04499 0.5188 0.0
H95 H 0.62801 0.08264 0.56115 0.0
H96 H 0.68091 0.07657 0.57778 0.0
H97 H 0.5848 0.94937 0.59149 0.0
H98 H 0.53192 0.95606 0.57505 0.0
H99 H 0.42613 0.96026 0.57863 0.0
H100 H 0.37123 0.95615 0.59707 0.0
H101 H 0.38703 0.07235 0.57653 0.0
H102 H 0.44433 0.07795 0.55904 0.0
H103 H 0.50483 0.01299 0.57889 0.0
H104 H 0.39664 0.97238 0.53755 0.0
H105 H 0.34228 0.97304 0.51991 0.0
H106 H 0.43557 0.09714 0.50217 0.0
H107 H 0.48948 0.0969 0.52031 0.0
C108 C 0.58384 0.0357 0.53053 0.0
C109 C 0.61289 0.07318 0.5225 0.0
C110 C 0.64639 0.07488 0.51331 0.0
C111 C 0.65105 0.03887 0.51179 0.0
C112 C 0.62149 0.00128 0.51979 0.0
C113 C 0.58837 -0.00021 0.5291 0.0
C114 C 0.54831 0.0337 0.54025 0.0
C115 C 0.51715 0.03871 0.53201 0.0
C116 C 0.54358 0.02403 0.55731 0.0
C117 C 0.5761 0.01973 0.56682 0.0
C118 C 0.61848 0.0533 0.56761 0.0
C119 C 0.64871 0.04971 0.57709 0.0
C120 C 0.63711 0.01247 0.58598 0.0
C121 C 0.59467 0.97872 0.585 0.0
C122 C 0.56445 0.98241 0.57556 0.0
C123 C 0.43944 0.01934 0.56735 0.0
C124 C 0.41781 0.98491 0.5781 0.0
C125 C 0.38594 0.98234 0.58854 0.0
C126 C 0.37449 0.01393 0.58838 0.0
C127 C 0.39537 0.04777 0.57725 0.0
C128 C 0.42777 0.05067 0.56699 0.0
C129 C 0.476 0.02369 0.55746 0.0
C130 C 0.50767 0.01932 0.56568 0.0
C131 C 0.48071 0.03326 0.5403 0.0
C132 C 0.44707 0.03476 0.53037 0.0
C133 C 0.40522 7e-05 0.5301 0.0
C134 C 0.37428 0.00029 0.51985 0.0
C135 C 0.38464 0.03506 0.50955 0.0
C136 C 0.42642 0.07007 0.51006 0.0
C137 C 0.45734 0.06985 0.52034 0.0
H138 H 0.484 0.42907 0.85462 0.0
H139 H 0.42869 0.37164 0.83771 0.0
H140 H 0.33874 0.40986 0.85328 0.0
H141 H 0.39392 0.4659 0.87077 0.0
H142 H 0.51434 0.51563 0.85201 0.0
H143 H 0.44455 0.40496 0.89043 0.0
H144 H 0.38864 0.34996 0.90741 0.0
H145 H 0.37204 0.44537 0.93292 0.0
H146 H 0.42615 0.50029 0.91524 0.0
H147 H 0.53549 0.62053 0.90778 0.0
H148 H 0.58988 0.67743 0.9252 0.0
H149 H 0.6768 0.63194 0.91418 0.0
H150 H 0.62279 0.57666 0.89608 0.0
H151 H 0.50486 0.52996 0.91294 0.0
H152 H 0.56498 0.63658 0.86993 0.0
H153 H 0.62012 0.68998 0.85229 0.0
H154 H 0.65936 0.59984 0.83821 0.0
H155 H 0.60283 0.54619 0.85536 0.0
C156 C 0.44293 0.4515 0.86399 0.0
C157 C 0.45224 0.4248 0.85443 0.0
C158 C 0.4206 0.39218 0.84467 0.0
C159 C 0.37914 0.38609 0.84401 0.0
C160 C 0.37 0.413 0.85367 0.0
C161 C 0.40156 0.44526 0.86362 0.0
C162 C 0.47699 0.48691 0.87385 0.0
C163 C 0.5124 0.51843 0.86537 0.0
C164 C 0.47404 0.49078 0.89126 0.0
C165 C 0.43916 0.45691 0.90124 0.0
C166 C 0.42813 0.41411 0.8993 0.0
C167 C 0.39649 0.38268 0.90911 0.0
C168 C 0.37623 0.3936 0.92142 0.0
C169 C 0.38743 0.4363 0.92353 0.0
C170 C 0.41834 0.46761 0.91345 0.0
C171 C 0.57526 0.5946 0.90067 0.0
C172 C 0.56649 0.62327 0.90901 0.0
C173 C 0.59756 0.65552 0.91908 0.0
C174 C 0.63776 0.65915 0.92131 0.0
C175 C 0.64655 0.63064 0.91263 0.0
C176 C 0.61565 0.59883 0.90234 0.0
C177 C 0.54136 0.55864 0.89102 0.0
C178 C 0.50627 0.52697 0.89957 0.0
C179 C 0.54455 0.55431 0.87374 0.0
C180 C 0.57998 0.58754 0.86398 0.0
C181 C 0.58576 0.62854 0.86313 0.0
C182 C 0.61749 0.6591 0.85307 0.0
C183 C 0.64436 0.64937 0.84374 0.0
C184 C 0.63886 0.60835 0.84492 0.0
C185 C 0.60677 0.57768 0.85483 0.0
C186 C 0.06245 0.14046 0.092 0.0
C187 C 0.02725 0.11694 0.08141 0.0
C188 C 0.06463 0.17291 0.10215 0.0
C189 C 0.01963 0.24348 0.10774 0.0
H190 H 0.05663 0.25021 0.15342 0.0
C191 C 0.04596 0.38019 0.15205 0.0
C192 C 0.0318 0.3697 0.16847 0.0
C193 C 0.04635 0.35002 0.14131 0.0
C194 C 0.04594 0.24855 0.14074 0.0
H195 H 0.96723 0.10953 0.07281 0.0
H196 H 0.97083 0.16584 0.0906 0.0
H197 H 0.05583 0.19686 0.1346 0.0
H198 H 0.00714 0.31927 0.18653 0.0
H199 H 0.00705 0.26623 0.16766 0.0
H200 H 0.0087 0.29443 0.11398 0.0
C201 C 0.99697 0.15957 0.09098 0.0
C202 C 0.04601 0.21836 0.12989 0.0
C203 C 0.99481 0.12716 0.08084 0.0
C204 C 0.01797 0.32826 0.17392 0.0
C205 C 0.01835 0.29803 0.16316 0.0
C206 C 0.01955 0.27366 0.11859 0.0
C207 C 0.03166 0.18249 0.10189 0.0
C208 C 0.03276 0.21542 0.11328 0.0
C209 C 0.03249 0.30858 0.14673 0.0
C210 C 0.03264 0.2765 0.13521 0.0
H211 H 0.08801 0.13337 0.09265 0.0
H212 H 0.09209 0.19043 0.11024 0.0
H213 H 0.00957 0.24227 0.09499 0.0
H214 H 0.05626 0.41165 0.14738 0.0
H215 H 0.05784 0.35931 0.12879 0.0
C216 C 0.89984 0.98002 0.4293 0.0
C217 C 0.91834 0.00665 0.41566 0.0
C218 C 0.87419 0.98683 0.44032 0.0
C219 C 0.84216 0.06554 0.45316 0.0
H220 H 0.74492 0.96495 0.47097 0.0
C221 C 0.69892 0.06293 0.48678 0.0
C222 C 0.68594 0.04001 0.50166 0.0
C223 C 0.73003 0.062 0.47685 0.0
C224 C 0.77215 0.99333 0.4662 0.0
H225 H 0.92504 0.06176 0.40297 0.0
H226 H 0.87871 0.07274 0.42184 0.0
H227 H 0.79322 0.95722 0.45232 0.0
H228 H 0.6973 -0.0002 0.51805 0.0
H229 H 0.75039 0.99707 0.5004 0.0
H230 H 0.81953 0.10133 0.46672 0.0
C231 C 0.88488 0.04717 0.4243 0.0
C232 C 0.80006 0.989 0.45556 0.0
C233 C 0.91127 0.04079 0.41342 0.0
C234 C 0.70563 0.01697 0.5065 0.0
C235 C 0.73624 0.01558 0.49646 0.0
C236 C 0.81374 0.0698 0.46363 0.0
C237 C 0.86559 0.01994 0.4378 0.0
C238 C 0.83569 0.02502 0.44899 0.0
C239 C 0.7484 0.03771 0.48147 0.0
C240 C 0.77867 0.03371 0.47033 0.0
H241 H 0.90528 0.95385 0.43152 0.0
H242 H 0.86105 0.96594 0.45081 0.0
H243 H 0.86948 0.09404 0.44854 0.0
H244 H 0.68414 0.08057 0.48251 0.0
H245 H 0.73864 0.07906 0.46527 0.0
C246 C 0.8843 0.94852 0.75892 0.0
C247 C 0.90426 0.94218 0.74512 0.0
C248 C 0.85965 0.91518 0.76958 0.0
C249 C 0.79139 0.80186 0.77133 0.0
H250 H 0.81237 0.81699 0.81883 0.0
C251 C 0.68655 0.66916 0.81723 0.0
C252 C 0.67729 0.68152 0.83257 0.0
C253 C 0.71683 0.69936 0.80662 0.0
C254 C 0.80562 0.81235 0.80563 0.0
H255 H 0.91384 0.89587 0.73161 0.0
H256 H 0.86915 0.83677 0.7501 0.0
H257 H 0.86036 0.87261 0.80007 0.0
H258 H 0.69349 0.73572 0.84879 0.0
H259 H 0.74436 0.78836 0.83 0.0
H260 H 0.73551 0.74273 0.77677 0.0
C261 C 0.87332 0.8679 0.75268 0.0
C262 C 0.83339 0.8441 0.7949 0.0
C263 C 0.8989 0.90164 0.74217 0.0
C264 C 0.69924 0.72494 0.837 0.0
C265 C 0.72908 0.75518 0.8263 0.0
C266 C 0.76313 0.77036 0.78207 0.0
C267 C 0.8537 0.87454 0.76651 0.0
C268 C 0.8263 0.83931 0.77768 0.0
C269 C 0.73833 0.74286 0.81094 0.0
C270 C 0.76961 0.77535 0.7994 0.0
H271 H 0.88807 0.97946 0.76159 0.0
H272 H 0.8446 0.92099 0.7801 0.0
H273 H 0.78506 0.79769 0.75809 0.0
H274 H 0.66993 0.63615 0.81324 0.0
H275 H 0.72339 0.68846 0.79503 0.0
C276 C 0.04342 0.92051 0.07359 0.0
C277 C 0.01804 0.93765 0.07857 0.0
C278 C 0.04562 0.88999 0.08332 0.0
C279 C 0.03256 0.85351 0.12627 0.0
H280 H 0.01543 0.74736 0.10761 0.0
C281 C 0.00592 0.7155 0.16811 0.0
C282 C 0.02374 0.69055 0.16335 0.0
C283 C 0.00658 0.74563 0.15736 0.0
C284 C 0.02095 0.7771 0.11301 0.0
H285 H 0.9748 0.93596 0.09756 0.0
H286 H 0.97905 0.88343 0.11446 0.0
H287 H 0.0155 0.80044 0.08933 0.0
H288 H 0.05558 0.67741 0.1433 0.0
H289 H 0.0582 0.73102 0.12485 0.0
H290 H 0.03859 0.83087 0.14987 0.0
C291 C 0.99731 0.89353 0.10311 0.0
C292 C 0.02091 0.80744 0.10252 0.0
C293 C 0.99471 0.92347 0.09334 0.0
C294 C 0.04212 0.69647 0.14752 0.0
C295 C 0.04308 0.72685 0.13681 0.0
C296 C 0.03305 0.82347 0.13672 0.0
C297 C 0.02298 0.87667 0.09829 0.0
C298 C 0.02609 0.84566 0.10909 0.0
C299 C 0.02541 0.75192 0.1416 0.0
C300 C 0.02664 0.78458 0.13028 0.0
H301 H 0.06172 0.93081 0.06226 0.0
H302 H 0.06573 0.87751 0.07934 0.0
H303 H 0.03729 0.88301 0.13164 0.0
H304 H 0.99187 0.71219 0.18025 0.0
H305 H 0.992 0.7638 0.16139 0.0
C306 C 0.12117 0.04385 0.41502 0.0
C307 C 0.0943 0.00351 0.40782 0.0
C308 C 0.15471 0.05048 0.42562 0.0
C309 C 0.18551 0.98973 0.45289 0.0
H310 H 0.29816 0.09017 0.45282 0.0
C311 C 0.32485 0.99648 0.48903 0.0
C312 C 0.35238 0.03402 0.49789 0.0
C313 C 0.29447 0.99515 0.47803 0.0
C314 C 0.26668 0.06216 0.4531 0.0
H315 H 0.08339 0.93934 0.40528 0.0
H316 H 0.14175 0.95106 0.42343 0.0
H317 H 0.24377 0.08414 0.43319 0.0
H318 H 0.36961 0.09975 0.50207 0.0
H319 H 0.31636 0.09738 0.4828 0.0
H320 H 0.20808 0.96758 0.47268 0.0
C321 C 0.13633 0.97728 0.42131 0.0
C322 C 0.23557 0.05872 0.44187 0.0
C323 C 0.10294 0.97063 0.41082 0.0
C324 C 0.34911 0.07042 0.49533 0.0
C325 C 0.31865 0.06909 0.48429 0.0
C326 C 0.21646 0.99316 0.46406 0.0
C327 C 0.16196 0.01691 0.42917 0.0
C328 C 0.19482 0.02214 0.44149 0.0
C329 C 0.2908 0.03132 0.4756 0.0
C330 C 0.25758 0.02911 0.46417 0.0
H331 H 0.11542 0.06986 0.41294 0.0
H332 H 0.17391 0.08139 0.4315 0.0
H333 H 0.15411 0.9616 0.45321 0.0
H334 H 0.32714 0.96816 0.4904 0.0
H335 H 0.27411 0.96579 0.47128 0.0
C336 C 0.07338 0.13435 0.76069 0.0
C337 C 0.08023 0.11493 0.74678 0.0
C338 C 0.10697 0.16024 0.77144 0.0
C339 C 0.22006 0.23235 0.77276 0.0
H340 H 0.21028 0.21505 0.82032 0.0
C341 C 0.35681 0.34252 0.81754 0.0
C342 C 0.34589 0.3524 0.83305 0.0
C343 C 0.32567 0.31119 0.80718 0.0
C344 C 0.21336 0.22077 0.8071 0.0
H345 H 0.12754 0.10732 0.73319 0.0
H346 H 0.1869 0.15405 0.75184 0.0
H347 H 0.15341 0.16443 0.80191 0.0
H348 H 0.29328 0.33636 0.84981 0.0
H349 H 0.23882 0.28362 0.83142 0.0
H350 H 0.27876 0.28968 0.77782 0.0
C351 C 0.15526 0.14857 0.75445 0.0
C352 C 0.18093 0.19153 0.79658 0.0
C353 C 0.12138 0.12181 0.74386 0.0
C354 C 0.30291 0.33012 0.83788 0.0
C355 C 0.27167 0.29922 0.82741 0.0
C356 C 0.25218 0.26204 0.78329 0.0
C357 C 0.14825 0.16793 0.76833 0.0
C358 C 0.18391 0.19722 0.77934 0.0
C359 C 0.28261 0.28929 0.81191 0.0
C360 C 0.24915 0.25682 0.80063 0.0
H361 H 0.04195 0.1294 0.76332 0.0
H362 H 0.10089 0.17507 0.78201 0.0
H363 H 0.22276 0.23763 0.7595 0.0
H364 H 0.38941 0.35939 0.81323 0.0
H365 H 0.33553 0.30411 0.79546 0.0
C366 C 0.89569 0.97469 0.67198 0.0
C367 C 0.92005 0.01007 0.68243 0.0
C368 C 0.86385 0.97324 0.66176 0.0
C369 C 0.83283 0.04318 0.64135 0.0
H370 H 0.72241 0.94077 0.63618 0.0
C371 C 0.71127 0.02631 0.59138 0.0
C372 C 0.66888 0.00935 0.59661 0.0
C373 C 0.74147 0.02486 0.60168 0.0
C374 C 0.75306 0.96963 0.63755 0.0
H375 H 0.92969 0.07125 0.69065 0.0
H376 H 0.87411 0.0687 0.67281 0.0
H377 H 0.77541 0.94139 0.65509 0.0
H378 H 0.62508 0.97749 0.6168 0.0
H379 H 0.6777 0.97455 0.63465 0.0
H380 H 0.81046 0.07158 0.62395 0.0
C381 C 0.87988 0.04229 0.6724 0.0
C382 C 0.78348 0.96987 0.64826 0.0
C383 C 0.91151 0.04362 0.68269 0.0
C384 C 0.65726 0.99026 0.61226 0.0
C385 C 0.68742 0.98862 0.62252 0.0
C386 C 0.80256 0.04285 0.63056 0.0
C387 C 0.85597 0.00726 0.66173 0.0
C388 C 0.82362 0.00673 0.65033 0.0
C389 C 0.72991 0.00624 0.61739 0.0
C390 C 0.76231 0.00612 0.62858 0.0
H391 H 0.90157 0.94835 0.67153 0.0
H392 H 0.84614 0.94598 0.65358 0.0
H393 H 0.86366 0.07191 0.64255 0.0
H394 H 0.72112 0.04058 0.57928 0.0
H395 H 0.77386 0.03814 0.59729 0.0
C396 C 0.92069 0.92308 0.01369 0.0
C397 C 0.90603 0.94366 0.02436 0.0
C398 C 0.89231 0.89054 0.00292 0.0
C399 C 0.7847 0.8488 0.98389 0.0
H400 H 0.79935 0.75469 0.96996 0.0
C401 C 0.65631 0.70229 0.94781 0.0
C402 C 0.66969 0.69149 0.93307 0.0
C403 C 0.686 0.73247 0.9589 0.0
C404 C 0.79514 0.78101 0.97371 0.0
H405 H 0.85005 0.94461 0.03301 0.0
H406 H 0.80032 0.8866 0.015 0.0
H407 H 0.84884 0.80678 0.99025 0.0
H408 H 0.72527 0.70441 0.91855 0.0
H409 H 0.77712 0.75609 0.93832 0.0
H410 H 0.73017 0.82208 0.96773 0.0
C411 C 0.83386 0.89665 0.01426 0.0
C412 C 0.82352 0.81095 0.98528 0.0
C413 C 0.86229 0.92968 0.02472 0.0
C414 C 0.71371 0.71135 0.92986 0.0
C415 C 0.74346 0.74106 0.94113 0.0
C416 C 0.75601 0.81852 0.97259 0.0
C417 C 0.84858 0.87744 0.00285 0.0
C418 C 0.81858 0.84521 0.99057 0.0
C419 C 0.72979 0.75204 0.95568 0.0
C420 C 0.76092 0.78436 0.96742 0.0
H421 H 0.95435 0.93346 0.01311 0.0
H422 H 0.905 0.87686 0.99425 0.0
H423 H 0.78044 0.8753 0.98723 0.0
H424 H 0.62287 0.68701 0.95097 0.0
H425 H 0.67474 0.74012 0.97015 0.0
C426 C 0.05299 0.95968 0.34092 0.0
C427 C 0.01539 0.95066 0.34918 0.0
C428 C 0.05437 0.92861 0.33102 0.0
C429 C 0.99478 0.81193 0.32172 0.0
H430 H 0.06077 0.84641 0.28122 0.0
C431 C 0.97646 0.69504 0.26883 0.0
C432 C 0.0145 0.69731 0.26355 0.0
C433 C 0.97758 0.72611 0.27951 0.0
C434 C 0.04243 0.83646 0.29255 0.0
H435 H 0.94975 0.90229 0.35359 0.0
H436 H 0.95144 0.84872 0.33582 0.0
H437 H 0.06079 0.90021 0.29956 0.0
H438 H 0.08362 0.73446 0.2655 0.0
H439 H 0.08531 0.78951 0.28357 0.0
H440 H 0.97528 0.74795 0.31424 0.0
C441 C 0.98039 0.8792 0.33733 0.0
C442 C 0.0426 0.86723 0.30314 0.0
C443 C 0.97926 0.91003 0.34743 0.0
C444 C 0.05367 0.73197 0.26899 0.0
C445 C 0.05474 0.76341 0.27944 0.0
C446 C 0.99406 0.78117 0.31098 0.0
C447 C 0.01793 0.88806 0.32895 0.0
C448 C 0.0187 0.85538 0.31787 0.0
C449 C 0.01672 0.76052 0.2849 0.0
C450 C 0.01782 0.79317 0.29631 0.0
H451 H 0.08143 0.99069 0.34218 0.0
H452 H 0.0841 0.93641 0.32506 0.0
H453 H 0.97674 0.80155 0.3331 0.0
H454 H 0.94572 0.66938 0.26466 0.0
H455 H 0.94783 0.72352 0.28342 0.0
C456 C 0.09912 0.97642 0.68803 0.0
C457 C 0.09804 0.01439 0.68917 0.0
C458 C 0.13023 0.9744 0.67844 0.0
C459 C 0.23622 0.03861 0.66059 0.0
H460 H 0.19624 0.95401 0.62511 0.0
C461 C 0.34687 0.05001 0.60733 0.0
C462 C 0.34218 0.01238 0.60024 0.0
C463 C 0.31746 0.04861 0.61885 0.0
C464 C 0.20821 0.97736 0.63512 0.0
H465 H 0.12952 0.08037 0.68182 0.0
H466 H 0.1845 0.07711 0.66551 0.0
H467 H 0.14553 0.95375 0.64501 0.0
H468 H 0.30196 0.94362 0.59965 0.0
H469 H 0.2521 0.94109 0.62031 0.0
H470 H 0.2989 0.06193 0.65106 0.0
C471 C 0.16108 0.04887 0.67185 0.0
C472 C 0.17904 0.97721 0.64649 0.0
C473 C 0.12954 0.05066 0.68112 0.0
C474 C 0.30711 0.97329 0.60499 0.0
C475 C 0.27803 0.97186 0.6167 0.0
C476 C 0.26551 0.03835 0.64942 0.0
C477 C 0.16128 0.01057 0.67018 0.0
C478 C 0.1927 0.00824 0.65916 0.0
C479 C 0.28282 0.00951 0.62383 0.0
C480 C 0.25184 0.00819 0.63633 0.0
H481 H 0.07508 0.94795 0.69405 0.0
H482 H 0.12987 0.94454 0.67737 0.0
H483 H 0.24757 0.06265 0.67036 0.0
H484 H 0.37371 0.08072 0.60423 0.0
H485 H 0.3219 0.07839 0.62377 0.0
C486 C 0.07483 0.12683 0.00115 0.0
C487 C 0.08458 0.11964 0.01719 0.0
C488 C 0.10724 0.15319 0.99035 0.0
C489 C 0.22617 0.21246 0.98496 0.0
H490 H 0.19931 0.27753 0.95454 0.0
C491 C 0.34911 0.36409 0.94955 0.0
C492 C 0.3439 0.36055 0.93222 0.0
C493 C 0.3186 0.33278 0.95977 0.0
C494 C 0.2071 0.25937 0.96292 0.0
H495 H 0.13557 0.13372 0.03458 0.0
H496 H 0.19243 0.18194 0.01613 0.0
H497 H 0.14436 0.22699 0.97282 0.0
H498 H 0.30298 0.32208 0.91191 0.0
H499 H 0.24858 0.26797 0.92988 0.0
H500 H 0.28991 0.24734 0.97546 0.0
C501 C 0.15993 0.16608 0.01153 0.0
C502 C 0.17554 0.23 0.97334 0.0
C503 C 0.1274 0.13859 0.02218 0.0
C504 C 0.30765 0.32535 0.92525 0.0
C505 C 0.27665 0.29457 0.93548 0.0
C506 C 0.25803 0.24269 0.97479 0.0
C507 C 0.15027 0.17429 0.99551 0.0
C508 C 0.1844 0.20575 0.98444 0.0
C509 C 0.28197 0.29801 0.95281 0.0
C510 C 0.2486 0.26611 0.96363 0.0
H511 H 0.04197 0.11212 0.99698 0.0
H512 H 0.0983 0.15725 0.97799 0.0
H513 H 0.23432 0.19414 0.99308 0.0
H514 H 0.37696 0.39091 0.95517 0.0
H515 H 0.32315 0.33612 0.97312 0.0
C516 C 0.97583 0.11563 0.34698 0.0
C517 C 0.01111 0.12328 0.35675 0.0
C518 C 0.97724 0.14762 0.3372 0.0
C519 C 0.03581 0.26369 0.33 0.0
H520 H 0.98623 0.22803 0.28592 0.0
C521 C 0.05468 0.38225 0.27862 0.0
C522 C 0.01782 0.37201 0.26933 0.0
C523 C 0.0549 0.35303 0.28966 0.0
C524 C -0.00015 0.23846 0.29823 0.0
H525 H 0.07506 0.17095 0.36442 0.0
H526 H 0.07784 0.22702 0.34708 0.0
H527 H 0.98471 0.17582 0.30484 0.0
H528 H 0.95248 0.32288 0.26423 0.0
H529 H 0.95278 0.27201 0.28355 0.0
H530 H 0.05123 0.32658 0.3232 0.0
C531 C 0.04888 0.19628 0.34712 0.0
C532 C -0.00107 0.20851 0.30911 0.0
C533 C 0.04734 0.16419 0.35704 0.0
C534 C 0.98127 0.33185 0.27129 0.0
C535 C 0.98157 0.30258 0.28225 0.0
C536 C 0.03689 0.29378 0.31905 0.0
C537 C 0.01411 0.18804 0.33681 0.0
C538 C 0.01646 0.22061 0.3252 0.0
C539 C 0.01838 0.31281 0.29156 0.0
C540 C 0.01855 0.28138 0.30309 0.0
H541 H 0.94723 0.08457 0.34663 0.0
H542 H 0.94947 0.14045 0.32977 0.0
H543 H 0.04932 0.27404 0.34233 0.0
H544 H 0.08322 0.41311 0.27751 0.0
H545 H 0.08384 0.36173 0.29657 0.0
loop_
_geom_bond_atom_site_label_1
_geom_bond_atom_site_label_2
_geom_bond_distance
_geom_bond_site_symmetry_2
_ccdc_geom_bond_type
Co0 O1 2.216 1_445 S
Co0 O2 2.091 1_545 S
Co0 O4 2.004 . S
Co0 O10 2.021 1_445 S
Co0 O12 2.137 . S
Co0 O13 2.244 1_455 S
O1 Co0 2.216 1_665 S
O1 C8 1.247 1_655 S
O2 Co0 2.091 1_565 S
O2 C8 1.261 . S
C3 O12 1.247 . S
C3 O13 1.272 1_455 S
O4 Co0 2.004 . S
O4 C9 1.259 . S
Co5 O6 2.061 1_655 S
Co5 O11 2.052 . S
Co5 O13 2.135 . S
O6 Co5 2.061 1_455 S
O6 C9 1.235 . S
C7 O10 1.238 . S
C7 O11 1.241 1_565 S
C8 O1 1.247 1_455 S
C8 O2 1.261 . S
C9 O4 1.259 . S
C9 O6 1.235 . S
O10 Co0 2.021 1_665 S
O10 C7 1.238 . S
O11 Co5 2.052 . S
O11 C7 1.241 1_545 S
O12 Co0 2.137 . S
O12 C3 1.247 . S
O13 Co0 2.244 1_655 S
O13 C3 1.272 1_655 S
O13 Co5 2.135 . S
Co14 O15 2.216 1_455 S
Co14 O16 2.091 . S
Co14 O18 2.004 . S
Co14 O24 2.021 1_455 S
Co14 O26 2.137 . S
Co14 O27 2.244 1_445 S
O15 Co14 2.216 1_655 S
O15 C22 1.247 1_655 S
O16 Co14 2.091 . S
O16 C22 1.261 . S
C17 O26 1.247 1_565 S
C17 O27 1.272 1_455 S
O18 Co14 2.004 . S
O18 C23 1.259 . S
Co19 O20 2.061 1_655 S
Co19 O25 2.052 . S
Co19 O27 2.135 . S
O20 Co19 2.061 1_455 S
O20 C23 1.235 1_565 S
C21 O24 1.238 . S
C21 O25 1.241 1_545 S
C22 O15 1.247 1_455 S
C22 O16 1.261 . S
C23 O18 1.259 . S
C23 O20 1.235 1_545 S
O24 Co14 2.021 1_655 S
O24 C21 1.238 . S
O25 Co19 2.052 . S
O25 C21 1.241 1_565 S
O26 Co14 2.137 . S
O26 C17 1.247 1_545 S
O27 Co14 2.244 1_665 S
O27 C17 1.272 1_655 S
O27 Co19 2.135 . S
Co28 O29 2.216 . S
Co28 O30 2.091 1_545 S
Co28 O32 2.004 1_445 S
Co28 O38 2.021 . S
Co28 O40 2.137 1_445 S
Co28 O41 2.244 1_455 S
O29 Co28 2.216 . S
O29 C36 1.247 . S
O30 Co28 2.091 1_565 S
O30 C36 1.261 1_565 S
C31 O40 1.247 1_545 S
C31 O41 1.272 . S
O32 Co28 2.004 1_665 S
O32 C37 1.259 . S
Co33 O34 2.061 1_545 S
Co33 O39 2.052 1_655 S
Co33 O41 2.135 . S
O34 Co33 2.061 1_565 S
O34 C37 1.235 . S
C35 O38 1.238 . S
C35 O39 1.241 . S
C36 O29 1.247 . S
C36 O30 1.261 1_545 S
C37 O32 1.259 . S
C37 O34 1.235 . S
O38 Co28 2.021 . S
O38 C35 1.238 . S
O39 Co33 2.052 1_455 S
O39 C35 1.241 . S
O40 Co28 2.137 1_665 S
O40 C31 1.247 1_565 S
O41 Co28 2.244 1_655 S
O41 C31 1.272 . S
O41 Co33 2.135 . S
H42 C61 0.949 . S
H43 C62 0.950 . S
H44 C64 0.950 . S
H45 C65 0.950 . S
H46 C67 0.950 . S
H47 C70 0.950 . S
H48 C71 0.950 . S
H49 C73 0.951 . S
H50 C74 0.949 . S
H51 C76 0.949 . S
H52 C77 0.950 . S
H53 C79 0.950 . S
H54 C80 0.950 . S
H55 C82 0.950 1_655 S
H56 C85 0.950 . S
H57 C86 0.950 . S
H58 C88 0.951 . S
H59 C89 0.949 . S
C60 C61 1.376 . S
C60 C65 1.386 1_455 S
C60 C66 1.483 . S
C61 H42 0.949 . S
C61 C60 1.376 . S
C61 C62 1.397 . S
C62 H43 0.950 . S
C62 C61 1.397 . S
C62 C63 1.391 . S
C63 C62 1.391 . S
C63 C64 1.405 1_455 S
C64 H44 0.950 . S
C64 C63 1.405 1_655 S
C64 C65 1.367 . S
C65 H45 0.950 . S
C65 C60 1.386 1_655 S
C65 C64 1.367 . S
C66 C60 1.483 . S
C66 C67 1.382 . S
C66 C68 1.403 . S
C67 H46 0.950 . S
C67 C66 1.382 . S
C67 C83 1.411 . S
C68 C66 1.403 . S
C68 C69 1.489 . S
C68 C82 1.411 . S
C69 C68 1.489 . S
C69 C70 1.383 . S
C69 C74 1.382 1_455 S
C70 H47 0.950 . S
C70 C69 1.383 . S
C70 C71 1.395 . S
C71 H48 0.950 . S
C71 C70 1.395 . S
C71 C72 1.288 . S
C72 C71 1.288 . S
C72 C73 1.392 1_455 S
C73 H49 0.951 . S
C73 C72 1.392 1_655 S
C73 C74 1.392 . S
C74 H50 0.949 . S
C74 C69 1.382 1_655 S
C74 C73 1.392 . S
C75 C76 1.376 1_455 S
C75 C80 1.386 . S
C75 C81 1.483 . S
C76 H51 0.949 . S
C76 C75 1.376 1_655 S
C76 C77 1.397 . S
C77 H52 0.950 . S
C77 C76 1.397 . S
C77 C78 1.391 1_655 S
C78 C77 1.391 1_455 S
C78 C79 1.405 . S
C79 H53 0.950 . S
C79 C78 1.405 . S
C79 C80 1.367 . S
C80 H54 0.950 . S
C80 C75 1.386 . S
C80 C79 1.367 . S
C81 C75 1.483 . S
C81 C82 1.382 . S
C81 C83 1.403 . S
C82 H55 0.950 1_455 S
C82 C68 1.411 . S
C82 C81 1.382 . S
C83 C67 1.411 . S
C83 C81 1.403 . S
C83 C84 1.489 . S
C84 C83 1.489 . S
C84 C85 1.383 1_455 S
C84 C89 1.382 . S
C85 H56 0.950 . S
C85 C84 1.383 1_655 S
C85 C86 1.395 . S
C86 H57 0.950 . S
C86 C85 1.395 . S
C86 C87 1.288 1_655 S
C87 C86 1.288 1_455 S
C87 C88 1.392 . S
C88 H58 0.951 . S
C88 C87 1.392 . S
C88 C89 1.392 . S
C89 H59 0.949 . S
C89 C84 1.382 . S
C89 C88 1.392 . S
H90 C109 0.949 . S
H91 C110 0.950 . S
H92 C112 0.950 . S
H93 C113 0.950 . S
H94 C115 0.950 . S
H95 C118 0.950 . S
H96 C119 0.950 . S
H97 C121 0.951 . S
H98 C122 0.949 . S
H99 C124 0.949 . S
H100 C125 0.950 . S
H101 C127 0.950 . S
H102 C128 0.950 . S
H103 C130 0.950 . S
H104 C133 0.950 . S
H105 C134 0.950 . S
H106 C136 0.951 . S
H107 C137 0.949 . S
C108 C109 1.376 . S
C108 C113 1.386 1_545 S
C108 C114 1.483 . S
C109 H90 0.949 . S
C109 C108 1.376 . S
C109 C110 1.397 . S
C110 H91 0.950 . S
C110 C109 1.397 . S
C110 C111 1.391 . S
C111 C110 1.391 . S
C111 C112 1.405 1_545 S
C112 H92 0.950 . S
C112 C111 1.405 1_565 S
C112 C113 1.367 . S
C113 H93 0.950 . S
C113 C108 1.386 1_565 S
C113 C112 1.367 . S
C114 C108 1.483 . S
C114 C115 1.382 . S
C114 C116 1.403 . S
C115 H94 0.950 . S
C115 C114 1.382 . S
C115 C131 1.411 . S
C116 C114 1.403 . S
C116 C117 1.489 . S
C116 C130 1.411 . S
C117 C116 1.489 . S
C117 C118 1.383 . S
C117 C122 1.382 1_545 S
C118 H95 0.950 . S
C118 C117 1.383 . S
C118 C119 1.395 . S
C119 H96 0.950 . S
C119 C118 1.395 . S
C119 C120 1.288 . S
C120 C119 1.288 . S
C120 C121 1.392 1_545 S
C121 H97 0.951 . S
C121 C120 1.392 1_565 S
C121 C122 1.392 . S
C122 H98 0.949 . S
C122 C117 1.382 1_565 S
C122 C121 1.392 . S
C123 C124 1.376 1_545 S
C123 C128 1.386 . S
C123 C129 1.483 . S
C124 H99 0.949 . S
C124 C123 1.376 1_565 S
C124 C125 1.397 . S
C125 H100 0.950 . S
C125 C124 1.397 . S
C125 C126 1.391 1_565 S
C126 C125 1.391 1_545 S
C126 C127 1.405 . S
C127 H101 0.950 . S
C127 C126 1.405 . S
C127 C128 1.367 . S
C128 H102 0.950 . S
C128 C123 1.386 . S
C128 C127 1.367 . S
C129 C123 1.483 . S
C129 C130 1.382 . S
C129 C131 1.403 . S
C130 H103 0.950 . S
C130 C116 1.411 . S
C130 C129 1.382 . S
C131 C115 1.411 . S
C131 C129 1.403 . S
C131 C132 1.489 . S
C132 C131 1.489 . S
C132 C133 1.383 1_545 S
C132 C137 1.382 . S
C133 H104 0.950 . S
C133 C132 1.383 1_565 S
C133 C134 1.395 . S
C134 H105 0.950 . S
C134 C133 1.395 . S
C134 C135 1.288 1_565 S
C135 C134 1.288 1_545 S
C135 C136 1.392 . S
C136 H106 0.951 . S
C136 C135 1.392 . S
C136 C137 1.392 . S
C137 H107 0.949 . S
C137 C132 1.382 . S
C137 C136 1.392 . S
H138 C157 0.949 . S
H139 C158 0.950 . S
H140 C160 0.950 . S
H141 C161 0.950 . S
H142 C163 0.950 . S
H143 C166 0.950 . S
H144 C167 0.950 . S
H145 C169 0.951 . S
H146 C170 0.949 . S
H147 C172 0.949 . S
H148 C173 0.950 . S
H149 C175 0.950 . S
H150 C176 0.950 . S
H151 C178 0.950 . S
H152 C181 0.950 . S
H153 C182 0.950 . S
H154 C184 0.951 . S
H155 C185 0.949 . S
C156 C157 1.376 . S
C156 C161 1.386 . S
C156 C162 1.483 . S
C157 H138 0.949 . S
C157 C156 1.376 . S
C157 C158 1.397 . S
C158 H139 0.950 . S
C158 C157 1.397 . S
C158 C159 1.391 . S
C159 C158 1.391 . S
C159 C160 1.405 . S
C160 H140 0.950 . S
C160 C159 1.405 . S
C160 C161 1.367 . S
C161 H141 0.950 . S
C161 C156 1.386 . S
C161 C160 1.367 . S
C162 C156 1.483 . S
C162 C163 1.382 . S
C162 C164 1.403 . S
C163 H142 0.950 . S
C163 C162 1.382 . S
C163 C179 1.411 . S
C164 C162 1.403 . S
C164 C165 1.489 . S
C164 C178 1.411 . S
C165 C164 1.489 . S
C165 C166 1.383 . S
C165 C170 1.382 . S
C166 H143 0.950 . S
C166 C165 1.383 . S
C166 C167 1.395 . S
C167 H144 0.950 . S
C167 C166 1.395 . S
C167 C168 1.288 . S
C168 C167 1.288 . S
C168 C169 1.392 . S
C169 H145 0.951 . S
C169 C168 1.392 . S
C169 C170 1.392 . S
C170 H146 0.949 . S
C170 C165 1.382 . S
C170 C169 1.392 . S
C171 C172 1.376 . S
C171 C176 1.386 . S
C171 C177 1.483 . S
C172 H147 0.949 . S
C172 C171 1.376 . S
C172 C173 1.397 . S
C173 H148 0.950 . S
C173 C172 1.397 . S
C173 C174 1.391 . S
C174 C173 1.391 . S
C174 C175 1.405 . S
C175 H149 0.950 . S
C175 C174 1.405 . S
C175 C176 1.367 . S
C176 H150 0.950 . S
C176 C171 1.386 . S
C176 C175 1.367 . S
C177 C171 1.483 . S
C177 C178 1.382 . S
C177 C179 1.403 . S
C178 H151 0.950 . S
C178 C164 1.411 . S
C178 C177 1.382 . S
C179 C163 1.411 . S
C179 C177 1.403 . S
C179 C180 1.489 . S
C180 C179 1.489 . S
C180 C181 1.383 . S
C180 C185 1.382 . S
C181 H152 0.950 . S
C181 C180 1.383 . S
C181 C182 1.395 . S
C182 H153 0.950 . S
C182 C181 1.395 . S
C182 C183 1.288 . S
C183 C182 1.288 . S
C183 C184 1.392 . S
C184 H154 0.951 . S
C184 C183 1.392 . S
C184 C185 1.392 . S
C185 H155 0.949 . S
C185 C180 1.382 . S
C185 C184 1.392 . S
C186 C187 1.349 . S
C186 C188 1.327 . S
C186 H211 0.950 . S
C187 C186 1.349 . S
C187 C203 1.345 1_455 S
C188 C186 1.327 . S
C188 C207 1.429 . S
C188 H212 0.950 . S
C189 C206 1.574 . S
C189 C208 1.368 1_655 S
C189 H213 0.949 . S
H190 C194 0.949 . S
C191 C192 1.349 1_655 S
C191 C193 1.327 . S
C191 H214 0.950 . S
C192 C191 1.349 1_455 S
C192 C204 1.349 . S
C193 C191 1.327 . S
C193 C209 1.429 1_655 S
C193 H215 0.950 . S
C194 H190 0.949 . S
C194 C202 1.574 . S
C194 C210 1.368 . S
H195 C203 0.951 . S
H196 C201 0.966 . S
H197 C202 0.949 . S
H198 C204 0.950 . S
H199 C205 0.950 . S
H200 C206 0.949 . S
C201 H196 0.966 . S
C201 C203 1.320 . S
C201 C207 1.423 1_655 S
C202 C194 1.574 . S
C202 H197 0.949 . S
C202 C208 1.368 . S
C203 C187 1.345 1_655 S
C203 H195 0.951 . S
C203 C201 1.320 . S
C204 C192 1.349 . S
C204 H198 0.950 . S
C204 C205 1.327 . S
C205 H199 0.950 . S
C205 C204 1.327 . S
C205 C209 1.429 . S
C206 C189 1.574 . S
C206 H200 0.949 . S
C206 C210 1.368 1_655 S
C207 C188 1.429 . S
C207 C201 1.423 1_455 S
C207 C208 1.523 . S
C208 C189 1.368 1_455 S
C208 C202 1.368 . S
C208 C207 1.523 . S
C209 C193 1.429 1_455 S
C209 C205 1.429 . S
C209 C210 1.523 . S
C210 C194 1.368 . S
C210 C206 1.368 1_455 S
C210 C209 1.523 . S
H211 C186 0.950 . S
H212 C188 0.950 . S
H213 C189 0.949 . S
H214 C191 0.950 . S
H215 C193 0.950 . S
C216 C217 1.349 1_565 S
C216 C218 1.327 . S
C216 H241 0.950 . S
C217 C216 1.349 1_545 S
C217 C233 1.349 . S
C218 C216 1.327 . S
C218 C237 1.429 1_565 S
C218 H242 0.950 . S
C219 C236 1.574 . S
C219 C238 1.368 . S
C219 H243 0.949 . S
H220 C224 0.949 . S
C221 C222 1.349 . S
C221 C223 1.327 . S
C221 H244 0.950 . S
C222 C221 1.349 . S
C222 C234 1.349 1_545 S
C223 C221 1.327 . S
C223 C239 1.429 . S
C223 H245 0.950 . S
C224 H220 0.949 . S
C224 C232 1.574 . S
C224 C240 1.368 1_565 S
H225 C233 0.950 . S
H226 C231 0.950 . S
H227 C232 0.949 . S
H228 C234 0.950 . S
H229 C235 0.950 . S
H230 C236 0.949 . S
C231 H226 0.950 . S
C231 C233 1.327 . S
C231 C237 1.429 . S
C232 C224 1.574 . S
C232 H227 0.949 . S
C232 C238 1.368 1_565 S
C233 C217 1.349 . S
C233 H225 0.950 . S
C233 C231 1.327 . S
C234 C222 1.349 1_565 S
C234 H228 0.950 . S
C234 C235 1.327 . S
C235 H229 0.950 . S
C235 C234 1.327 . S
C235 C239 1.429 1_565 S
C236 C219 1.574 . S
C236 H230 0.949 . S
C236 C240 1.368 . S
C237 C218 1.429 1_545 S
C237 C231 1.429 . S
C237 C238 1.523 . S
C238 C219 1.368 . S
C238 C232 1.368 1_545 S
C238 C237 1.523 . S
C239 C223 1.429 . S
C239 C235 1.429 1_545 S
C239 C240 1.523 . S
C240 C224 1.368 1_545 S
C240 C236 1.368 . S
C240 C239 1.523 . S
H241 C216 0.950 . S
H242 C218 0.950 . S
H243 C219 0.949 . S
H244 C221 0.950 . S
H245 C223 0.950 . S
C246 C247 1.349 . S
C246 C248 1.327 . S
C246 H271 0.950 . S
C247 C246 1.349 . S
C247 C263 1.349 . S
C248 C246 1.327 . S
C248 C267 1.429 . S
C248 H272 0.950 . S
C249 C266 1.574 . S
C249 C268 1.368 . S
C249 H273 0.949 . S
H250 C254 0.949 . S
C251 C252 1.349 . S
C251 C253 1.327 . S
C251 H274 0.950 . S
C252 C251 1.349 . S
C252 C264 1.349 . S
C253 C251 1.327 . S
C253 C269 1.429 . S
C253 H275 0.950 . S
C254 H250 0.949 . S
C254 C262 1.574 . S
C254 C270 1.368 . S
H255 C263 0.950 . S
H256 C261 0.950 . S
H257 C262 0.949 . S
H258 C264 0.950 . S
H259 C265 0.950 . S
H260 C266 0.949 . S
C261 H256 0.950 . S
C261 C263 1.327 . S
C261 C267 1.429 . S
C262 C254 1.574 . S
C262 H257 0.949 . S
C262 C268 1.368 . S
C263 C247 1.349 . S
C263 H255 0.950 . S
C263 C261 1.327 . S
C264 C252 1.349 . S
C264 H258 0.950 . S
C264 C265 1.327 . S
C265 H259 0.950 . S
C265 C264 1.327 . S
C265 C269 1.429 . S
C266 C249 1.574 . S
C266 H260 0.949 . S
C266 C270 1.368 . S
C267 C248 1.429 . S
C267 C261 1.429 . S
C267 C268 1.523 . S
C268 C249 1.368 . S
C268 C262 1.368 . S
C268 C267 1.523 . S
C269 C253 1.429 . S
C269 C265 1.429 . S
C269 C270 1.523 . S
C270 C254 1.368 . S
C270 C266 1.368 . S
C270 C269 1.523 . S
H271 C246 0.950 . S
H272 C248 0.950 . S
H273 C249 0.949 . S
H274 C251 0.950 . S
H275 C253 0.950 . S
C276 C277 1.349 . S
C276 C278 1.327 . S
C276 H301 0.950 . S
C277 C276 1.349 . S
C277 C293 1.349 . S
C278 C276 1.327 . S
C278 C297 1.429 . S
C278 H302 0.950 . S
C279 C296 1.574 . S
C279 C298 1.368 . S
C279 H303 0.949 . S
H280 C284 0.949 . S
C281 C282 1.349 . S
C281 C283 1.327 . S
C281 H304 0.950 1_455 S
C282 C281 1.349 . S
C282 C294 1.349 . S
C283 C281 1.327 . S
C283 C299 1.429 . S
C283 H305 0.950 1_455 S
C284 H280 0.949 . S
C284 C292 1.574 . S
C284 C300 1.368 . S
H285 C293 0.950 . S
H286 C291 0.950 . S
H287 C292 0.949 . S
H288 C294 0.950 . S
H289 C295 0.950 . S
H290 C296 0.947 1_655 S
C291 H286 0.950 . S
C291 C293 1.327 . S
C291 C297 1.429 . S
C292 C284 1.574 . S
C292 H287 0.949 . S
C292 C298 1.368 . S
C293 C277 1.349 . S
C293 H285 0.950 . S
C293 C291 1.327 . S
C294 C282 1.349 . S
C294 H288 0.950 . S
C294 C295 1.327 . S
C295 H289 0.950 . S
C295 C294 1.327 . S
C295 C299 1.429 . S
C296 C279 1.574 . S
C296 H290 0.947 1_455 S
C296 C300 1.368 . S
C297 C278 1.429 . S
C297 C291 1.429 . S
C297 C298 1.523 . S
C298 C279 1.368 . S
C298 C292 1.368 . S
C298 C297 1.523 . S
C299 C283 1.429 . S
C299 C295 1.429 . S
C299 C300 1.523 . S
C300 C284 1.368 . S
C300 C296 1.368 . S
C300 C299 1.523 . S
H301 C276 0.950 . S
H302 C278 0.950 . S
H303 C279 0.949 . S
H304 C281 0.950 1_655 S
H305 C283 0.950 1_655 S
C306 C307 1.349 . S
C306 C308 1.327 . S
C306 H331 0.950 . S
C307 C306 1.349 . S
C307 C323 1.349 . S
C308 C306 1.327 . S
C308 C327 1.429 . S
C308 H332 0.950 . S
C309 C326 1.574 . S
C309 C328 1.368 1_565 S
C309 H333 0.949 . S
H310 C314 0.949 . S
C311 C312 1.349 1_565 S
C311 C313 1.327 . S
C311 H334 0.950 . S
C312 C311 1.349 1_545 S
C312 C324 1.349 . S
C313 C311 1.327 . S
C313 C329 1.429 1_565 S
C313 H335 0.950 . S
C314 H310 0.949 . S
C314 C322 1.574 . S
C314 C330 1.368 . S
H315 C323 0.950 1_565 S
H316 C321 0.950 1_565 S
H317 C322 0.949 . S
H318 C324 0.950 . S
H319 C325 0.950 . S
H320 C326 0.949 . S
C321 H316 0.950 1_545 S
C321 C323 1.327 . S
C321 C327 1.428 . S
C322 C314 1.574 . S
C322 H317 0.949 . S
C322 C328 1.368 . S
C323 C307 1.349 . S
C323 H315 0.950 1_545 S
C323 C321 1.327 . S
C324 C312 1.349 . S
C324 H318 0.950 . S
C324 C325 1.327 . S
C325 H319 0.950 . S
C325 C324 1.327 . S
C325 C329 1.429 . S
C326 C309 1.574 . S
C326 H320 0.949 . S
C326 C330 1.368 1_565 S
C327 C308 1.429 . S
C327 C321 1.428 . S
C327 C328 1.523 . S
C328 C309 1.368 1_545 S
C328 C322 1.368 . S
C328 C327 1.523 . S
C329 C313 1.429 1_545 S
C329 C325 1.429 . S
C329 C330 1.523 . S
C330 C314 1.368 . S
C330 C326 1.368 1_545 S
C330 C329 1.523 . S
H331 C306 0.950 . S
H332 C308 0.950 . S
H333 C309 0.949 . S
H334 C311 0.950 . S
H335 C313 0.950 . S
C336 C337 1.349 . S
C336 C338 1.327 . S
C336 H361 0.950 . S
C337 C336 1.349 . S
C337 C353 1.349 . S
C338 C336 1.327 . S
C338 C357 1.429 . S
C338 H362 0.950 . S
C339 C356 1.574 . S
C339 C358 1.368 . S
C339 H363 0.949 . S
H340 C344 0.949 . S
C341 C342 1.349 . S
C341 C343 1.327 . S
C341 H364 0.950 . S
C342 C341 1.349 . S
C342 C354 1.349 . S
C343 C341 1.327 . S
C343 C359 1.429 . S
C343 H365 0.950 . S
C344 H340 0.949 . S
C344 C352 1.574 . S
C344 C360 1.368 . S
H345 C353 0.950 . S
H346 C351 0.950 . S
H347 C352 0.949 . S
H348 C354 0.950 . S
H349 C355 0.950 . S
H350 C356 0.949 . S
C351 H346 0.950 . S
C351 C353 1.327 . S
C351 C357 1.429 . S
C352 C344 1.574 . S
C352 H347 0.949 . S
C352 C358 1.368 . S
C353 C337 1.349 . S
C353 H345 0.950 . S
C353 C351 1.327 . S
C354 C342 1.349 . S
C354 H348 0.950 . S
C354 C355 1.327 . S
C355 H349 0.950 . S
C355 C354 1.327 . S
C355 C359 1.429 . S
C356 C339 1.574 . S
C356 H350 0.949 . S
C356 C360 1.368 . S
C357 C338 1.429 . S
C357 C351 1.429 . S
C357 C358 1.523 . S
C358 C339 1.368 . S
C358 C352 1.368 . S
C358 C357 1.523 . S
C359 C343 1.429 . S
C359 C355 1.429 . S
C359 C360 1.523 . S
C360 C344 1.368 . S
C360 C356 1.368 . S
C360 C359 1.523 . S
H361 C336 0.950 . S
H362 C338 0.950 . S
H363 C339 0.949 . S
H364 C341 0.950 . S
H365 C343 0.950 . S
C366 C367 1.349 1_565 S
C366 C368 1.327 . S
C366 H391 0.950 . S
C367 C366 1.349 1_545 S
C367 C383 1.349 . S
C368 C366 1.327 . S
C368 C387 1.429 1_565 S
C368 H392 0.950 . S
C369 C386 1.574 . S
C369 C388 1.368 . S
C369 H393 0.949 . S
H370 C374 0.949 . S
C371 C372 1.349 . S
C371 C373 1.327 . S
C371 H394 0.950 . S
C372 C371 1.349 . S
C372 C384 1.349 1_545 S
C373 C371 1.327 . S
C373 C389 1.429 . S
C373 H395 0.950 . S
C374 H370 0.949 . S
C374 C382 1.574 . S
C374 C390 1.368 1_565 S
H375 C383 0.950 . S
H376 C381 0.950 . S
H377 C382 0.949 . S
H378 C384 0.950 . S
H379 C385 0.950 . S
H380 C386 0.949 . S
C381 H376 0.950 . S
C381 C383 1.327 . S
C381 C387 1.429 . S
C382 C374 1.574 . S
C382 H377 0.949 . S
C382 C388 1.368 1_565 S
C383 C367 1.349 . S
C383 H375 0.950 . S
C383 C381 1.327 . S
C384 C372 1.349 1_565 S
C384 H378 0.950 . S
C384 C385 1.327 . S
C385 H379 0.950 . S
C385 C384 1.327 . S
C385 C389 1.429 1_565 S
C386 C369 1.574 . S
C386 H380 0.949 . S
C386 C390 1.368 . S
C387 C368 1.429 1_545 S
C387 C381 1.429 . S
C387 C388 1.523 . S
C388 C369 1.368 . S
C388 C382 1.368 1_545 S
C388 C387 1.523 . S
C389 C373 1.429 . S
C389 C385 1.429 1_545 S
C389 C390 1.523 . S
C390 C374 1.368 1_545 S
C390 C386 1.368 . S
C390 C389 1.523 . S
H391 C366 0.950 . S
H392 C368 0.950 . S
H393 C369 0.949 . S
H394 C371 0.950 . S
H395 C373 0.950 . S
C396 C397 1.349 . S
C396 C398 1.327 1_554 S
C396 H421 0.950 . S
C397 C396 1.349 . S
C397 C413 1.349 . S
C398 C396 1.327 1_556 S
C398 C417 1.429 . S
C398 H422 0.950 . S
C399 C416 1.574 . S
C399 C418 1.368 . S
C399 H423 0.949 1_556 S
H400 C404 0.949 . S
C401 C402 1.349 . S
C401 C403 1.327 . S
C401 H424 0.950 . S
C402 C401 1.349 . S
C402 C414 1.349 . S
C403 C401 1.327 . S
C403 C419 1.429 . S
C403 H425 0.950 . S
C404 H400 0.949 . S
C404 C412 1.574 . S
C404 C420 1.368 . S
H405 C413 0.950 . S
H406 C411 0.950 . S
H407 C412 0.949 . S
H408 C414 0.950 . S
H409 C415 0.950 . S
H410 C416 0.949 . S
C411 H406 0.950 . S
C411 C413 1.327 . S
C411 C417 1.429 1_554 S
C412 C404 1.574 . S
C412 H407 0.949 . S
C412 C418 1.368 . S
C413 C397 1.349 . S
C413 H405 0.950 . S
C413 C411 1.327 . S
C414 C402 1.349 . S
C414 H408 0.950 . S
C414 C415 1.327 . S
C415 H409 0.950 . S
C415 C414 1.327 . S
C415 C419 1.429 . S
C416 C399 1.574 . S
C416 H410 0.949 . S
C416 C420 1.368 . S
C417 C398 1.429 . S
C417 C411 1.429 1_556 S
C417 C418 1.523 . S
C418 C399 1.368 . S
C418 C412 1.368 . S
C418 C417 1.523 . S
C419 C403 1.429 . S
C419 C415 1.429 . S
C419 C420 1.523 . S
C420 C404 1.368 . S
C420 C416 1.368 . S
C420 C419 1.523 . S
H421 C396 0.950 . S
H422 C398 0.950 . S
H423 C399 0.949 1_554 S
H424 C401 0.950 . S
H425 C403 0.950 . S
C426 C427 1.349 . S
C426 C428 1.327 . S
C426 H451 0.950 . S
C427 C426 1.349 . S
C427 C443 1.349 1_455 S
C428 C426 1.327 . S
C428 C447 1.429 . S
C428 H452 0.950 . S
C429 C446 1.574 . S
C429 C448 1.368 1_655 S
C429 H453 0.949 . S
H430 C434 0.949 . S
C431 C432 1.349 1_655 S
C431 C433 1.327 . S
C431 H454 0.950 . S
C432 C431 1.349 1_455 S
C432 C444 1.349 . S
C433 C431 1.327 . S
C433 C449 1.429 1_655 S
C433 H455 0.950 . S
C434 H430 0.949 . S
C434 C442 1.574 . S
C434 C450 1.368 . S
H435 C443 0.950 . S
H436 C441 0.950 . S
H437 C442 0.949 . S
H438 C444 0.950 . S
H439 C445 0.950 . S
H440 C446 0.949 . S
C441 H436 0.950 . S
C441 C443 1.327 . S
C441 C447 1.429 1_655 S
C442 C434 1.574 . S
C442 H437 0.949 . S
C442 C448 1.368 . S
C443 C427 1.349 1_655 S
C443 H435 0.950 . S
C443 C441 1.327 . S
C444 C432 1.349 . S
C444 H438 0.950 . S
C444 C445 1.327 . S
C445 H439 0.950 . S
C445 C444 1.327 . S
C445 C449 1.429 . S
C446 C429 1.574 . S
C446 H440 0.949 . S
C446 C450 1.368 1_655 S
C447 C428 1.429 . S
C447 C441 1.429 1_455 S
C447 C448 1.523 . S
C448 C429 1.368 1_455 S
C448 C442 1.368 . S
C448 C447 1.523 . S
C449 C433 1.429 1_455 S
C449 C445 1.429 . S
C449 C450 1.523 . S
C450 C434 1.368 . S
C450 C446 1.368 1_455 S
C450 C449 1.523 . S
H451 C426 0.950 . S
H452 C428 0.950 . S
H453 C429 0.949 . S
H454 C431 0.950 . S
H455 C433 0.950 . S
C456 C457 1.349 1_565 S
C456 C458 1.327 . S
C456 H481 0.950 . S
C457 C456 1.349 1_545 S
C457 C473 1.349 . S
C458 C456 1.327 . S
C458 C477 1.429 1_565 S
C458 H482 0.950 . S
C459 C476 1.574 . S
C459 C478 1.368 . S
C459 H483 0.949 . S
H460 C464 0.949 . S
C461 C462 1.349 . S
C461 C463 1.327 . S
C461 H484 0.950 . S
C462 C461 1.349 . S
C462 C474 1.349 1_545 S
C463 C461 1.327 . S
C463 C479 1.429 . S
C463 H485 0.950 . S
C464 H460 0.949 . S
C464 C472 1.574 . S
C464 C480 1.368 1_565 S
H465 C473 0.950 . S
H466 C471 0.950 . S
H467 C472 0.949 . S
H468 C474 0.950 . S
H469 C475 0.950 . S
H470 C476 0.949 . S
C471 H466 0.950 . S
C471 C473 1.327 . S
C471 C477 1.429 . S
C472 C464 1.574 . S
C472 H467 0.949 . S
C472 C478 1.368 1_565 S
C473 C457 1.349 . S
C473 H465 0.950 . S
C473 C471 1.327 . S
C474 C462 1.349 1_565 S
C474 H468 0.950 . S
C474 C475 1.327 . S
C475 H469 0.950 . S
C475 C474 1.327 . S
C475 C479 1.429 1_565 S
C476 C459 1.574 . S
C476 H470 0.949 . S
C476 C480 1.368 . S
C477 C458 1.429 1_545 S
C477 C471 1.429 . S
C477 C478 1.523 . S
C478 C459 1.368 . S
C478 C472 1.368 1_545 S
C478 C477 1.523 . S
C479 C463 1.429 . S
C479 C475 1.429 1_545 S
C479 C480 1.523 . S
C480 C464 1.368 1_545 S
C480 C476 1.368 . S
C480 C479 1.523 . S
H481 C456 0.950 . S
H482 C458 0.950 . S
H483 C459 0.949 . S
H484 C461 0.950 . S
H485 C463 0.950 . S
C486 C487 1.349 . S
C486 C488 1.327 1_554 S
C486 H511 0.950 1_554 S
C487 C486 1.349 . S
C487 C503 1.349 . S
C488 C486 1.327 1_556 S
C488 C507 1.429 . S
C488 H512 0.950 . S
C489 C506 1.574 . S
C489 C508 1.368 . S
C489 H513 0.949 1_556 S
H490 C494 0.949 . S
C491 C492 1.349 . S
C491 C493 1.327 . S
C491 H514 0.950 . S
C492 C491 1.349 . S
C492 C504 1.349 . S
C493 C491 1.327 . S
C493 C509 1.429 . S
C493 H515 0.950 . S
C494 H490 0.949 . S
C494 C502 1.574 . S
C494 C510 1.368 . S
H495 C503 0.950 . S
H496 C501 0.950 . S
H497 C502 0.949 . S
H498 C504 0.950 . S
H499 C505 0.950 . S
H500 C506 0.949 . S
C501 H496 0.950 . S
C501 C503 1.327 . S
C501 C507 1.429 1_554 S
C502 C494 1.574 . S
C502 H497 0.949 . S
C502 C508 1.368 . S
C503 C487 1.349 . S
C503 H495 0.950 . S
C503 C501 1.327 . S
C504 C492 1.349 . S
C504 H498 0.950 . S
C504 C505 1.327 . S
C505 H499 0.950 . S
C505 C504 1.327 . S
C505 C509 1.429 . S
C506 C489 1.574 . S
C506 H500 0.949 . S
C506 C510 1.368 . S
C507 C488 1.429 . S
C507 C501 1.429 1_556 S
C507 C508 1.523 . S
C508 C489 1.368 . S
C508 C502 1.368 . S
C508 C507 1.523 . S
C509 C493 1.429 . S
C509 C505 1.429 . S
C509 C510 1.523 . S
C510 C494 1.368 . S
C510 C506 1.368 . S
C510 C509 1.523 . S
H511 C486 0.950 1_556 S
H512 C488 0.950 . S
H513 C489 0.949 1_554 S
H514 C491 0.950 . S
H515 C493 0.950 . S
C516 C517 1.349 1_655 S
C516 C518 1.327 . S
C516 H541 0.950 . S
C517 C516 1.349 1_455 S
C517 C533 1.349 . S
C518 C516 1.327 . S
C518 C537 1.429 1_655 S
C518 H542 0.950 . S
C519 C536 1.574 . S
C519 C538 1.368 . S
C519 H543 0.949 . S
H520 C524 0.949 . S
C521 C522 1.349 . S
C521 C523 1.327 . S
C521 H544 0.950 . S
C522 C521 1.349 . S
C522 C534 1.349 1_455 S
C523 C521 1.327 . S
C523 C539 1.429 . S
C523 H545 0.950 . S
C524 H520 0.949 . S
C524 C532 1.574 . S
C524 C540 1.368 1_655 S
H525 C533 0.950 . S
H526 C531 0.950 . S
H527 C532 0.949 . S
H528 C534 0.950 . S
H529 C535 0.950 . S
H530 C536 0.949 . S
C531 H526 0.950 . S
C531 C533 1.327 . S
C531 C537 1.429 . S
C532 C524 1.574 . S
C532 H527 0.949 . S
C532 C538 1.368 1_655 S
C533 C517 1.349 . S
C533 H525 0.950 . S
C533 C531 1.327 . S
C534 C522 1.349 1_655 S
C534 H528 0.950 . S
C534 C535 1.327 . S
C535 H529 0.950 . S
C535 C534 1.327 . S
C535 C539 1.429 1_655 S
C536 C519 1.574 . S
C536 H530 0.949 . S
C536 C540 1.368 . S
C537 C518 1.429 1_455 S
C537 C531 1.429 . S
C537 C538 1.523 . S
C538 C519 1.368 . S
C538 C532 1.368 1_455 S
C538 C537 1.523 . S
C539 C523 1.429 . S
C539 C535 1.429 1_455 S
C539 C540 1.523 . S
C540 C524 1.368 1_455 S
C540 C536 1.368 . S
C540 C539 1.523 . S
H541 C516 0.950 . S
H542 C518 0.950 . S
H543 C519 0.949 . S
H544 C521 0.950 . S
H545 C523 0.950 . S
C192 C63 1.513 . S
C187 C3 1.510 . S
C217 C21 1.531 . S
C222 C111 1.550 . S
C247 C37 1.509 . S
C252 C183 1.520 . S
C277 C8 1.521 . S
C282 C87 1.512 . S
C312 C135 1.532 . S
C307 C23 1.519 . S
C337 C35 1.510 . S
C342 C159 1.530 . S
C372 C120 1.495 . S
C367 C31 1.496 . S
C397 C7 1.510 . S
C402 C174 1.533 . S
C432 C78 1.514 . S
C427 C17 1.511 . S
C462 C126 1.497 . S
C457 C36 1.497 . S
C492 C168 1.528 . S
C487 C9 1.509 . S
C517 C22 1.521 . S
C522 C72 1.516 . S
