# Generated by pormake.
# Topology csq, (4,8)-cn, num edge types: 1
# Building blocks:
#     Node 0, Type 0, BuildingBlock: MUDLON_clean_linker_0, # of connection points: 4
#     Node 1, Type 0, BuildingBlock: MUDLON_clean_linker_0, # of connection points: 4
#     Node 2, Type 0, BuildingBlock: MUDLON_clean_linker_0, # of connection points: 4
#     Node 3, Type 0, BuildingBlock: MUDLON_clean_linker_0, # of connection points: 4
#     Node 4, Type 0, BuildingBlock: MUDLON_clean_linker_0, # of connection points: 4
#     Node 5, Type 0, BuildingBlock: MUDLON_clean_linker_0, # of connection points: 4
#     Node 6, Type 1, BuildingBlock: TAGTUT_clean_sbu_3, # of connection points: 8
#     Node 7, Type 1, BuildingBlock: TAGTUT_clean_sbu_3, # of connection points: 8
#     Node 8, Type 1, BuildingBlock: TAGTUT_clean_sbu_3, # of connection points: 8
#     Edge 9, Type (0, 1), BuildingBlock: CIFDUS_clean_linker_0, # of connection points: 2
#     Edge 10, Type (0, 1), BuildingBlock: CIFDUS_clean_linker_0, # of connection points: 2
#     Edge 11, Type (0, 1), BuildingBlock: CIFDUS_clean_linker_0, # of connection points: 2
#     Edge 12, Type (0, 1), BuildingBlock: CIFDUS_clean_linker_0, # of connection points: 2
#     Edge 13, Type (0, 1), BuildingBlock: CIFDUS_clean_linker_0, # of connection points: 2
#     Edge 14, Type (0, 1), BuildingBlock: CIFDUS_clean_linker_0, # of connection points: 2
#     Edge 15, Type (0, 1), BuildingBlock: CIFDUS_clean_linker_0, # of connection points: 2
#     Edge 16, Type (0, 1), BuildingBlock: CIFDUS_clean_linker_0, # of connection points: 2
#     Edge 17, Type (0, 1), BuildingBlock: CIFDUS_clean_linker_0, # of connection points: 2
#     Edge 18, Type (0, 1), BuildingBlock: CIFDUS_clean_linker_0, # of connection points: 2
#     Edge 19, Type (0, 1), BuildingBlock: CIFDUS_clean_linker_0, # of connection points: 2
#     Edge 20, Type (0, 1), BuildingBlock: CIFDUS_clean_linker_0, # of connection points: 2
#     Edge 21, Type (0, 1), BuildingBlock: CIFDUS_clean_linker_0, # of connection points: 2
#     Edge 22, Type (0, 1), BuildingBlock: CIFDUS_clean_linker_0, # of connection points: 2
#     Edge 23, Type (0, 1), BuildingBlock: CIFDUS_clean_linker_0, # of connection points: 2
#     Edge 24, Type (0, 1), BuildingBlock: CIFDUS_clean_linker_0, # of connection points: 2
#     Edge 25, Type (0, 1), BuildingBlock: CIFDUS_clean_linker_0, # of connection points: 2
#     Edge 26, Type (0, 1), BuildingBlock: CIFDUS_clean_linker_0, # of connection points: 2
#     Edge 27, Type (0, 1), BuildingBlock: CIFDUS_clean_linker_0, # of connection points: 2
#     Edge 28, Type (0, 1), BuildingBlock: CIFDUS_clean_linker_0, # of connection points: 2
#     Edge 29, Type (0, 1), BuildingBlock: CIFDUS_clean_linker_0, # of connection points: 2
#     Edge 30, Type (0, 1), BuildingBlock: CIFDUS_clean_linker_0, # of connection points: 2
#     Edge 31, Type (0, 1), BuildingBlock: CIFDUS_clean_linker_0, # of connection points: 2
#     Edge 32, Type (0, 1), BuildingBlock: CIFDUS_clean_linker_0, # of connection points: 2
# Relax obj value: 0.040
# Max RMSD: 0.118
# Mean RMSD: 0.078
data_MOF--net-csq--node1-TAGTUT_clean_sbu_3--node2-MUDLON_clean_linker_0--edge1-CIFDUS_clean_linker_0
_symmetry_space_group_name_H-M    P1
_symmetry_Int_Tables_number       1
_symmetry_cell_setting            triclinic
loop_
_symmetry_equiv_pos_as_xyz
'x, y, z'
_cell_length_a     64.554065
_cell_length_b     63.908763
_cell_length_c     21.138155
_cell_angle_alpha  92.739134
_cell_angle_beta   92.855336
_cell_angle_gamma 119.83748
loop_
_atom_site_label
_atom_site_type_symbol
_atom_site_fract_x
_atom_site_fract_y
_atom_site_fract_z
_atom_type_partial_charge
H0 H 0.33987 0.50147 0.1771 0.0
N1 N 0.30469 0.45537 0.13921 0.0
H2 H 0.37347 0.51261 0.25581 0.0
H3 H 0.30616 0.4278 0.22731 0.0
H4 H 0.33904 0.43892 0.30856 0.0
H5 H 0.31128 0.42118 0.08502 0.0
H6 H 0.33914 0.42632 0.00526 0.0
H7 H 0.32424 0.49336 0.06579 0.0
H8 H 0.35232 0.49886 0.9852 0.0
H9 H 0.29646 0.4904 0.19145 0.0
H10 H 0.26287 0.42072 0.08484 0.0
H11 H 0.25718 0.48676 0.20077 0.0
H12 H 0.22379 0.4175 0.09029 0.0
H13 H 0.13807 0.47572 0.16885 0.0
H14 H 0.11502 0.48406 0.24434 0.0
H15 H 0.10327 0.42135 0.3407 0.0
H16 H 0.12503 0.41243 0.26265 0.0
H17 H 0.10401 0.39414 0.10346 0.0
H18 H 0.08245 0.38872 -0.00051 0.0
H19 H 0.13213 0.46331 0.96947 0.0
H20 H 0.15354 0.4683 0.072 0.0
H21 H 0.18204 0.47876 0.15849 0.0
H22 H 0.22277 0.48578 0.15047 0.0
H23 H 0.19637 0.40952 0.1665 0.0
N24 N 0.14142 0.43457 0.15844 0.0
H25 H 0.15579 0.4027 0.17007 0.0
C26 C 0.32072 0.46369 0.19604 0.0
C27 C 0.33936 0.48787 0.20659 0.0
C28 C 0.35855 0.49422 0.25172 0.0
C29 C 0.35925 0.47651 0.28728 0.0
C30 C 0.33941 0.45284 0.28056 0.0
C31 C 0.32042 0.4465 0.23502 0.0
C32 C 0.31585 0.45687 0.08121 0.0
C33 C 0.31956 0.43784 0.06166 0.0
C34 C 0.33554 0.44088 0.0162 0.0
C35 C 0.3482 0.46313 0.98943 0.0
C36 C 0.34313 0.48165 0.00578 0.0
C37 C 0.32696 0.47849 0.05124 0.0
C38 C 0.28249 0.45558 0.13813 0.0
C39 C 0.28068 0.47449 0.16913 0.0
C40 C 0.25816 0.47243 0.17414 0.0
C41 C 0.23715 0.45158 0.14749 0.0
C42 C 0.23939 0.43344 0.11333 0.0
C43 C 0.26175 0.43536 0.1093 0.0
C44 C 0.13275 0.44305 0.2094 0.0
C45 C 0.13073 0.46392 0.20658 0.0
C46 C 0.11764 0.46877 0.25014 0.0
C47 C 0.10669 0.45302 0.2977 0.0
C48 C 0.11072 0.43343 0.30347 0.0
C49 C 0.12342 0.42843 0.25948 0.0
C50 C 0.13026 0.43156 0.09548 0.0
C51 C 0.11033 0.40914 0.07376 0.0
C52 C 0.09807 0.40612 0.01458 0.0
C53 C 0.1056 0.42557 0.9761 0.0
C54 C 0.12609 0.44781 0.99727 0.0
C55 C 0.1383 0.45078 0.05635 0.0
C56 C 0.16593 0.44008 0.16358 0.0
C57 C 0.18514 0.46363 0.16002 0.0
C58 C 0.20844 0.46761 0.15598 0.0
C59 C 0.21287 0.44813 0.15632 0.0
C60 C 0.19363 0.42486 0.1638 0.0
C61 C 0.17045 0.42091 0.16681 0.0
H62 H 0.71629 0.11556 0.10853 0.0
N63 N 0.7139 0.15146 0.05741 0.0
H64 H 0.68986 0.08862 0.18391 0.0
H65 H 0.68091 0.15761 0.12071 0.0
H66 H 0.65458 0.13088 0.19504 0.0
H67 H 0.68964 0.17515 0.02634 0.0
H68 H 0.6603 0.16383 0.93419 0.0
H69 H 0.70626 0.12093 0.95851 0.0
H70 H 0.67802 0.11057 0.86466 0.0
H71 H 0.75676 0.16331 0.02242 0.0
H72 H 0.71865 0.1919 0.12329 0.0
H73 H 0.7935 0.20259 0.04001 0.0
H74 H 0.75543 0.231 0.14342 0.0
H75 H 0.90863 0.3266 0.18551 0.0
H76 H 0.92536 0.34882 0.2899 0.0
H77 H 0.85628 0.33999 0.32601 0.0
H78 H 0.83977 0.31797 0.22157 0.0
H79 H 0.85447 0.348 0.1386 0.0
H80 H 0.86614 0.38024 0.06702 0.0
H81 H 0.89537 0.34635 0.94763 0.0
H82 H 0.88424 0.31442 0.02046 0.0
H83 H 0.86009 0.26772 0.13555 0.0
H84 H 0.82299 0.22862 0.12219 0.0
H85 H 0.78273 0.2652 0.08969 0.0
N86 N 0.86514 0.31125 0.13033 0.0
H87 H 0.81984 0.30418 0.10585 0.0
C88 C 0.70067 0.13856 0.10884 0.0
C89 C 0.70317 0.11924 0.12837 0.0
C90 C 0.68804 0.10387 0.17107 0.0
C91 C 0.66999 0.10753 0.19444 0.0
C92 C 0.66809 0.12744 0.17678 0.0
C93 C 0.68335 0.1429 0.13459 0.0
C94 C 0.6997 0.1484 -0.0004 0.0
C95 C 0.68721 0.16105 0.99136 0.0
C96 C 0.67062 0.15475 0.93873 0.0
C97 C 0.66708 0.1364 0.89302 0.0
C98 C 0.68066 0.12489 0.89944 0.0
C99 C 0.69671 0.13075 0.95264 0.0
C100 C 0.73513 0.17461 0.07195 0.0
C101 C 0.75648 0.17805 0.04913 0.0
C102 C 0.77743 0.20045 0.05955 0.0
C103 C 0.77746 0.21993 0.09353 0.0
C104 C 0.75597 0.21645 0.11653 0.0
C105 C 0.73492 0.19399 0.10557 0.0
C106 C 0.87316 0.3209 0.19549 0.0
C107 C 0.89702 0.329 0.21669 0.0
C108 C 0.90645 0.34147 0.27647 0.0
C109 C 0.89211 0.34618 0.31597 0.0
C110 C 0.86775 0.33671 0.29634 0.0
C111 C 0.85831 0.32412 0.23663 0.0
C112 C 0.86898 0.32896 0.08551 0.0
C113 C 0.86329 0.34736 0.09705 0.0
C114 C 0.86986 0.36577 0.05597 0.0
C115 C 0.88167 0.3658 0.00194 0.0
C116 C 0.88606 0.34665 0.98862 0.0
C117 C 0.87986 0.3285 0.03022 0.0
C118 C 0.84279 0.28874 0.1209 0.0
C119 C 0.84321 0.26719 0.12551 0.0
C120 C 0.82201 0.24492 0.11754 0.0
C121 C 0.79988 0.24375 0.10432 0.0
C122 C 0.79944 0.26545 0.1004 0.0
C123 C 0.8207 0.28778 0.10893 0.0
H124 H 0.60684 0.91441 0.01058 0.0
N125 N 0.58199 0.87217 0.0603 0.0
H126 H 0.59268 0.93022 0.92559 0.0
H127 H 0.54109 0.84576 0.9795 0.0
H128 H 0.52718 0.86125 0.8943 0.0
H129 H 0.54365 0.8796 0.07521 0.0
H130 H 0.5313 0.88839 0.17349 0.0
H131 H 0.60438 0.88134 0.17638 0.0
H132 H 0.59087 0.88852 0.27703 0.0
H133 H 0.60739 0.85381 0.01123 0.0
H134 H 0.5428 0.83354 0.10409 0.0
H135 H 0.60033 0.81271 0.01475 0.0
H136 H 0.53719 0.79379 0.11516 0.0
H137 H 0.58139 0.68732 0.03404 0.0
H138 H 0.56778 0.65879 0.93908 0.0
H139 H 0.50265 0.66223 0.91901 0.0
H140 H 0.51602 0.69012 0.01365 0.0
H141 H 0.51088 0.67446 0.11657 0.0
H142 H 0.4984 0.64928 0.20634 0.0
H143 H 0.57225 0.68301 0.28256 0.0
H144 H 0.58464 0.70773 0.19197 0.0
H145 H 0.59801 0.74665 0.08651 0.0
H146 H 0.60339 0.78687 0.07777 0.0
H147 H 0.52653 0.75649 0.07755 0.0
N148 N 0.5574 0.70546 0.09109 0.0
H149 H 0.52213 0.71732 0.09487 0.0
C150 C 0.57514 0.87901 0.00193 0.0
C151 C 0.58973 0.90252 0.98409 0.0
C152 C 0.58167 0.91148 0.93538 0.0
C153 C 0.55873 0.89703 0.90373 0.0
C154 C 0.54485 0.87287 0.91832 0.0
C155 C 0.5529 0.86393 0.96691 0.0
C156 C 0.57541 0.88011 0.11758 0.0
C157 C 0.55457 0.88199 0.11832 0.0
C158 C 0.54709 0.88653 0.17543 0.0
C159 C 0.55971 0.88865 0.23381 0.0
C160 C 0.58072 0.88713 0.23315 0.0
C161 C 0.58853 0.8831 0.17563 0.0
C162 C 0.57612 0.84712 0.0586 0.0
C163 C 0.59183 0.84055 0.03289 0.0
C164 C 0.5879 0.81706 0.03603 0.0
C165 C 0.56846 0.79971 0.06679 0.0
C166 C 0.55225 0.8062 0.09048 0.0
C167 C 0.55568 0.82934 0.08508 0.0
C168 C 0.5498 0.69076 0.03152 0.0
C169 C 0.56437 0.68216 0.00843 0.0
C170 C 0.55666 0.66608 0.95396 0.0
C171 C 0.53412 0.65829 0.92174 0.0
C172 C 0.52002 0.66781 0.94318 0.0
C173 C 0.52774 0.68387 0.99756 0.0
C174 C 0.54886 0.69279 0.14716 0.0
C175 C 0.52439 0.67663 0.15273 0.0
C176 C 0.51723 0.66221 0.20409 0.0
C177 C 0.53434 0.66412 0.25134 0.0
C178 C 0.55861 0.68127 0.24727 0.0
C179 C 0.56575 0.69536 0.19556 0.0
C180 C 0.55972 0.72899 0.08992 0.0
C181 C 0.58247 0.74894 0.0855 0.0
C182 C 0.58538 0.77187 0.07929 0.0
C183 C 0.56538 0.77524 0.07537 0.0
C184 C 0.54253 0.75505 0.08095 0.0
C185 C 0.53982 0.73231 0.08968 0.0
H186 H 0.92245 0.62488 0.1058 0.0
N187 N 0.87831 0.59763 0.05147 0.0
H188 H 0.94246 0.61379 0.18773 0.0
H189 H 0.85601 0.55908 0.1227 0.0
H190 H 0.87586 0.54775 0.20503 0.0
H191 H 0.86656 0.55084 0.01647 0.0
H192 H 0.88881 0.54009 0.94544 0.0
H193 H 0.9014 0.62332 0.95733 0.0
H194 H 0.9219 0.61209 0.88061 0.0
H195 H 0.87219 0.63035 0.11512 0.0
H196 H 0.83351 0.56301 -0.00204 0.0
H197 H 0.83514 0.63068 0.12748 0.0
H198 H 0.79633 0.56398 0.00591 0.0
H199 H 0.71058 0.62966 0.15422 0.0
H200 H 0.68873 0.62172 0.24918 0.0
H201 H 0.70648 0.56644 0.28839 0.0
H202 H 0.72682 0.57338 0.19176 0.0
H203 H 0.68858 0.55788 0.09015 0.0
H204 H 0.6529 0.5435 0.01575 0.0
H205 H 0.68851 0.61038 0.92497 0.0
H206 H 0.72352 0.6249 0.00108 0.0
H207 H 0.77166 0.63988 0.09318 0.0
H208 H 0.80762 0.63783 0.07521 0.0
H209 H 0.76629 0.55968 0.07048 0.0
N210 N 0.72777 0.60363 0.10136 0.0
H211 H 0.73009 0.5621 0.0835 0.0
C212 C 0.8879 0.59285 0.10834 0.0
C213 C 0.91208 0.60838 0.12868 0.0
C214 C 0.92344 0.60196 0.17529 0.0
C215 C 0.91075 0.57978 0.20227 0.0
C216 C 0.88613 0.56479 0.18435 0.0
C217 C 0.87473 0.57134 0.1379 0.0
C218 C 0.88308 0.58827 0.99397 0.0
C219 C 0.87829 0.56422 0.98625 0.0
C220 C 0.89104 0.55802 0.94502 0.0
C221 C 0.90811 0.57553 0.90907 0.0
C222 C 0.90989 0.59845 0.90991 0.0
C223 C 0.89776 0.60482 0.95267 0.0
C224 C 0.85575 0.59694 0.05515 0.0
C225 C 0.85564 0.61581 0.09122 0.0
C226 C 0.83439 0.61604 0.09763 0.0
C227 C 0.8126 0.59758 0.06677 0.0
C228 C 0.81267 0.57844 0.03078 0.0
C229 C 0.83402 0.57797 0.02555 0.0
C230 C 0.72013 0.60204 0.16491 0.0
C231 C 0.71019 0.61621 0.18421 0.0
C232 C 0.69782 0.61173 0.23888 0.0
C233 C 0.69543 0.5931 0.27608 0.0
C234 C 0.70739 0.58047 0.25994 0.0
C235 C 0.71929 0.58461 0.2045 0.0
C236 C 0.70852 0.59271 0.05157 0.0
C237 C 0.68877 0.56926 0.05359 0.0
C238 C 0.66841 0.56103 0.01095 0.0
C239 C 0.66764 0.57604 0.96546 0.0
C240 C 0.68823 0.59866 0.96067 0.0
C241 C 0.70836 0.60691 0.00352 0.0
C242 C 0.74843 0.60129 0.09108 0.0
C243 C 0.77046 0.62235 0.08811 0.0
C244 C 0.79102 0.62107 0.07835 0.0
C245 C 0.79013 0.59858 0.07267 0.0
C246 C 0.76778 0.57733 0.07427 0.0
C247 C 0.74705 0.57866 0.08257 0.0
H248 H 0.15853 0.67672 0.14681 0.0
N249 N 0.14184 0.7086 0.13579 0.0
H250 H 0.15355 0.65159 0.23381 0.0
H251 H 0.12029 0.7068 0.24076 0.0
H252 H 0.1138 0.68048 0.32666 0.0
H253 H 0.09739 0.68912 0.08241 0.0
H254 H 0.08037 0.66339 0.98264 0.0
H255 H 0.16671 0.69827 0.04966 0.0
H256 H 0.14997 0.67293 0.94985 0.0
H257 H 0.18817 0.71796 0.16046 0.0
H258 H 0.14557 0.75089 0.11444 0.0
H259 H 0.22444 0.75664 0.15957 0.0
H260 H 0.18231 0.78995 0.11077 0.0
H261 H 0.31551 0.91084 0.16885 0.0
H262 H 0.35262 0.92964 0.23866 0.0
H263 H 0.34954 0.86061 0.24106 0.0
H264 H 0.31225 0.84186 0.17184 0.0
H265 H 0.291 0.8963 0.03242 0.0
H266 H 0.31769 0.91413 0.94785 0.0
H267 H 0.3441 0.86457 0.97255 0.0
H268 H 0.31941 0.84857 0.05928 0.0
H269 H 0.28322 0.82021 0.07346 0.0
H270 H 0.24655 0.78289 0.08184 0.0
H271 H 0.21671 0.82233 0.17497 0.0
N272 N 0.2928 0.86639 0.11277 0.0
H273 H 0.2538 0.8604 0.16414 0.0
C274 C 0.13975 0.69377 0.18725 0.0
C275 C 0.14908 0.678 0.18623 0.0
C276 C 0.14609 0.66346 0.23612 0.0
C277 C 0.1332 0.66385 0.28748 0.0
C278 C 0.12426 0.67996 0.28876 0.0
C279 C 0.12765 0.69483 0.23933 0.0
C280 C 0.13318 0.6955 0.07387 0.0
C281 C 0.10898 0.6859 0.05312 0.0
C282 C 0.09937 0.67139 0.99593 0.0
C283 C 0.11383 0.66611 0.95838 0.0
C284 C 0.13833 0.67651 0.97802 0.0
C285 C 0.14794 0.69106 0.03517 0.0
C286 C 0.1639 0.73145 0.13791 0.0
C287 C 0.18646 0.73345 0.15043 0.0
C288 C 0.20738 0.75569 0.14928 0.0
C289 C 0.20631 0.77637 0.13466 0.0
C290 C 0.18376 0.77443 0.12293 0.0
C291 C 0.16279 0.75215 0.12462 0.0
C292 C 0.31106 0.87505 0.16505 0.0
C293 C 0.3225 0.89966 0.18591 0.0
C294 C 0.34387 0.9104 0.22485 0.0
C295 C 0.35425 0.89668 0.24397 0.0
C296 C 0.34199 0.87164 0.22673 0.0
C297 C 0.32058 0.86089 0.18738 0.0
C298 C 0.30279 0.87088 0.05204 0.0
C299 C 0.30193 0.88874 0.01785 0.0
C300 C 0.31715 0.89887 0.96952 0.0
C301 C 0.33328 0.89101 0.95453 0.0
C302 C 0.33214 0.87127 0.98391 0.0
C303 C 0.31748 0.86165 0.033 0.0
C304 C 0.2714 0.84347 0.11778 0.0
C305 C 0.26905 0.82124 0.09544 0.0
C306 C 0.24792 0.79961 0.10085 0.0
C307 C 0.2287 0.79957 0.12934 0.0
C308 C 0.23108 0.82175 0.1521 0.0
C309 C 0.25226 0.84346 0.14631 0.0
H310 H 0.49447 0.3144 0.0357 0.0
N311 N 0.45527 0.3008 0.10382 0.0
H312 H 0.50123 0.33376 0.93532 0.0
H313 H 0.4245 0.30736 0.03241 0.0
H314 H 0.43083 0.32618 0.9318 0.0
H315 H 0.43138 0.31134 0.18618 0.0
H316 H 0.44793 0.34346 0.27307 0.0
H317 H 0.5029 0.33114 0.14111 0.0
H318 H 0.51953 0.36142 0.23052 0.0
H319 H 0.49202 0.29187 0.13332 0.0
H320 H 0.4157 0.25798 0.08896 0.0
H321 H 0.48794 0.2531 0.15402 0.0
H322 H 0.41152 0.2185 0.10438 0.0
H323 H 0.46831 0.12317 0.13922 0.0
H324 H 0.478 0.1101 0.04202 0.0
H325 H 0.42585 0.12133 0.9354 0.0
H326 H 0.41464 0.13242 0.03447 0.0
H327 H 0.40251 0.0984 0.20748 0.0
H328 H 0.41023 0.08108 0.30031 0.0
H329 H 0.48379 0.13964 0.32078 0.0
H330 H 0.4755 0.15728 0.22972 0.0
H331 H 0.47504 0.17608 0.12169 0.0
H332 H 0.4809 0.2163 0.10955 0.0
H333 H 0.41192 0.19415 0.18141 0.0
N334 N 0.43381 0.1367 0.15202 0.0
H335 H 0.40556 0.15337 0.18838 0.0
C336 C 0.45904 0.30977 0.04182 0.0
C337 C 0.48051 0.31686 0.0132 0.0
C338 C 0.48431 0.32783 0.95575 0.0
C339 C 0.46655 0.33145 0.9256 0.0
C340 C 0.44474 0.32335 0.95325 0.0
C341 C 0.44112 0.31272 0.01084 0.0
C342 C 0.46577 0.31869 0.15727 0.0
C343 C 0.45063 0.32225 0.19606 0.0
C344 C 0.46017 0.34042 0.24618 0.0
C345 C 0.48515 0.3552 0.25898 0.0
C346 C 0.50023 0.35079 0.22152 0.0
C347 C 0.49068 0.3331 0.17053 0.0
C348 C 0.45399 0.27792 0.11082 0.0
C349 C 0.47434 0.27611 0.12762 0.0
C350 C 0.47199 0.25369 0.1388 0.0
C351 C 0.44934 0.23251 0.13172 0.0
C352 C 0.42917 0.2344 0.11238 0.0
C353 C 0.43151 0.25688 0.10262 0.0
C354 C 0.44026 0.12854 0.09495 0.0
C355 C 0.45861 0.12264 0.09553 0.0
C356 C 0.46454 0.11548 0.03902 0.0
C357 C 0.45287 0.11468 0.9801 0.0
C358 C 0.43496 0.12116 0.97959 0.0
C359 C 0.42856 0.12763 0.03628 0.0
C360 C 0.43842 0.12883 0.21125 0.0
C361 C 0.42013 0.10769 0.23296 0.0
C362 C 0.42464 0.0978 0.28576 0.0
C363 C 0.44776 0.10872 0.31746 0.0
C364 C 0.46574 0.13082 0.29798 0.0
C365 C 0.46108 0.14088 0.24559 0.0
C366 C 0.43956 0.16161 0.1547 0.0
C367 C 0.46124 0.17996 0.13503 0.0
C368 C 0.46462 0.20307 0.12856 0.0
C369 C 0.44669 0.20851 0.14334 0.0
C370 C 0.42579 0.19049 0.1674 0.0
C371 C 0.42221 0.16726 0.17241 0.0
C372 C 0.02958 0.48266 0.53283 0.0
C373 C 0.0181 0.44355 0.75351 0.0
C374 C 0.95798 0.45418 0.75675 0.0
Mg375 Mg 0.01379 0.52111 0.4867 0.0
Mg376 Mg 0.01491 0.56112 0.59158 0.0
O377 O 0.00164 0.52817 0.56559 0.0
Mg378 Mg 0.00767 0.50805 0.62452 0.0
O379 O 0.01332 0.48603 0.67797 0.0
Mg380 Mg 0.98937 0.45363 0.63267 0.0
Mg381 Mg 0.0116 0.48869 0.76562 0.0
C382 C 0.9866 0.53646 0.71021 0.0
O383 O 0.04014 0.54067 0.68236 0.0
O384 O 0.99695 0.54156 0.4366 0.0
O385 O 0.03717 0.52712 0.78045 0.0
O386 O 0.04974 0.55668 0.50015 0.0
O387 O 0.99867 0.56879 0.51176 0.0
O388 O 0.05297 0.58077 0.58393 0.0
O389 O 0.9755 0.47443 0.5746 0.0
O390 O 0.97804 0.48551 0.47543 0.0
C391 C 0.96755 0.47016 0.51609 0.0
C392 C 0.99303 0.55872 0.45485 0.0
O393 O 0.98545 0.51612 0.69472 0.0
O394 O 0.00684 0.43697 0.6978 0.0
O395 O 0.99892 0.55564 0.68142 0.0
O396 O 0.9612 0.44535 0.70509 0.0
O397 O 0.02199 0.46264 0.78671 0.0
O398 O 0.97485 0.47355 0.78639 0.0
O399 O 0.0292 0.50207 0.54922 0.0
O400 O 0.01721 0.46314 0.55998 0.0
C401 C 0.06197 0.57607 0.53673 0.0
C402 C 0.04676 0.54382 0.74219 0.0
C403 C 0.48725 0.02444 0.48207 0.0
C404 C 0.56427 0.02419 0.40192 0.0
C405 C 0.53942 0.96085 0.50079 0.0
Mg406 Mg 0.46076 0.00426 0.60951 0.0
Mg407 Mg 0.49025 0.00119 0.73606 0.0
O408 O 0.48118 0.99208 0.64981 0.0
Mg409 Mg 0.50677 0.00258 0.58999 0.0
O410 O 0.5302 0.01256 0.52412 0.0
Mg411 Mg 0.50931 0.98912 0.45066 0.0
Mg412 Mg 0.55899 0.01315 0.54377 0.0
C413 C 0.52238 0.978 0.70426 0.0
O414 O 0.5355 0.03577 0.65548 0.0
O415 O 0.43287 0.9829 0.68115 0.0
O416 O 0.56966 0.03726 0.62855 0.0
O417 O 0.47606 0.03828 0.6807 0.0
O418 O 0.45473 0.98131 0.76512 0.0
O419 O 0.50233 0.0389 0.7543 0.0
O420 O 0.48043 0.97029 0.52109 0.0
O421 O 0.44681 0.97074 0.54022 0.0
C422 C 0.45776 0.96162 0.51102 0.0
C423 C 0.43457 0.97611 0.73653 0.0
O424 O 0.52123 0.98087 0.64449 0.0
O425 O 0.54136 0.01158 0.38927 0.0
O426 O 0.51351 0.98604 0.74545 0.0
O427 O 0.52428 0.9634 0.4655 0.0
O428 O 0.57437 0.02698 0.45778 0.0
O429 O 0.5536 0.97733 0.54327 0.0
O430 O 0.4908 0.02344 0.54186 0.0
O431 O 0.4939 0.01426 0.44038 0.0
C432 C 0.49131 0.04872 0.72898 0.0
C433 C 0.55839 0.04486 0.66244 0.0
C434 C 0.51126 0.54612 0.70064 0.0
C435 C 0.44445 0.4627 0.76661 0.0
C436 C 0.49226 0.43708 0.71258 0.0
Mg437 Mg 0.54896 0.55854 0.59232 0.0
Mg438 Mg 0.53328 0.52097 0.46648 0.0
O439 O 0.53858 0.52487 0.55473 0.0
Mg440 Mg 0.511 0.5048 0.60522 0.0
O441 O 0.48471 0.48681 0.6608 0.0
Mg442 Mg 0.50354 0.49468 0.74513 0.0
Mg443 Mg 0.46229 0.45401 0.6391 0.0
C444 C 0.51151 0.46614 0.49791 0.0
O445 O 0.48141 0.49699 0.52653 0.0
O446 O 0.58291 0.57156 0.53423 0.0
O447 O 0.4535 0.4584 0.54155 0.0
O448 O 0.53043 0.56762 0.51024 0.0
O449 O 0.5701 0.54333 0.45123 0.0
O450 O 0.51376 0.53794 0.43281 0.0
O451 O 0.53799 0.51071 0.68943 0.0
O452 O 0.56573 0.54887 0.6749 0.0
C453 C 0.558 0.5301 0.70636 0.0
C454 C 0.58664 0.56238 0.48342 0.0
O455 O 0.50921 0.47026 0.55675 0.0
O456 O 0.46624 0.47807 0.78757 0.0
O457 O 0.51816 0.48237 0.458 0.0
O458 O 0.50171 0.4577 0.74434 0.0
O459 O 0.43894 0.45146 0.71107 0.0
O460 O 0.47744 0.4318 0.66409 0.0
O461 O 0.51436 0.54037 0.6446 0.0
O462 O 0.50576 0.5314 0.74407 0.0
C463 C 0.51789 0.55841 0.45715 0.0
C464 C 0.46181 0.4771 0.50933 0.0
H465 H 0.10934 0.49467 0.35124 0.0
H466 H 0.06458 0.41676 0.33247 0.0
H467 H 0.03665 0.41944 0.40036 0.0
H468 H 0.02536 0.44323 0.46792 0.0
H469 H 0.06849 0.52114 0.48699 0.0
H470 H 0.09615 0.51913 0.41454 0.0
C471 C 0.09338 0.47831 0.36159 0.0
C472 C 0.08951 0.4555 0.3378 0.0
C473 C 0.07698 0.47994 0.40039 0.0
C474 C 0.06859 0.43452 0.35166 0.0
C475 C 0.05239 0.43601 0.39004 0.0
C476 C 0.04076 0.45986 0.45619 0.0
C477 C 0.04499 0.48228 0.48351 0.0
C478 C 0.05655 0.45854 0.41525 0.0
C479 C 0.06481 0.50362 0.46672 0.0
C480 C 0.08071 0.50245 0.42559 0.0
H481 H 0.62152 0.08669 0.18318 0.0
H482 H 0.68019 0.08985 0.29869 0.0
H483 H 0.65217 0.06274 0.37027 0.0
H484 H 0.61159 0.0401 0.4028 0.0
H485 H 0.55247 0.03672 0.28877 0.0
H486 H 0.58014 0.06182 0.21298 0.0
C487 C 0.62811 0.08145 0.22418 0.0
C488 C 0.65286 0.0904 0.23621 0.0
C489 C 0.61189 0.06585 0.26502 0.0
C490 C 0.66121 0.08314 0.28856 0.0
C491 C 0.64522 0.06772 0.3295 0.0
C492 C 0.60467 0.04475 0.36125 0.0
C493 C 0.58005 0.03682 0.3518 0.0
C494 C 0.62061 0.05924 0.31855 0.0
C495 C 0.57134 0.04262 0.29712 0.0
C496 C 0.58717 0.05708 0.25405 0.0
H497 H 0.50579 0.61515 0.23797 0.0
H498 H 0.54809 0.67502 0.37824 0.0
H499 H 0.54306 0.64686 0.45827 0.0
H500 H 0.53161 0.6058 0.48377 0.0
H501 H 0.49125 0.5458 0.34205 0.0
H502 H 0.48992 0.57337 0.26789 0.0
C503 C 0.51337 0.62199 0.28649 0.0
C504 C 0.52751 0.64713 0.30207 0.0
C505 C 0.51089 0.60567 0.33188 0.0
C506 C 0.53741 0.65575 0.36496 0.0
C507 C 0.53453 0.63966 0.41069 0.0
C508 C 0.52205 0.59858 0.43719 0.0
C509 C 0.51192 0.57376 0.41827 0.0
C510 C 0.52205 0.61462 0.39406 0.0
C511 C 0.49946 0.56484 0.35776 0.0
C512 C 0.4988 0.58063 0.31512 0.0
H513 H 0.94363 0.60633 0.30069 0.0
H514 H 0.90702 0.53532 0.20014 0.0
H515 H 0.93014 0.52276 0.26735 0.0
H516 H 0.96097 0.53212 0.35458 0.0
H517 H 0.9968 0.60299 0.45617 0.0
H518 H 0.97418 0.61562 0.38774 0.0
C519 C 0.94078 0.58813 0.29346 0.0
C520 C 0.92365 0.57177 0.24572 0.0
C521 C 0.95417 0.5811 0.33195 0.0
C522 C 0.91989 0.54814 0.23726 0.0
C523 C 0.93325 0.54102 0.27523 0.0
C524 C 0.96398 0.5504 0.36116 0.0
C525 C 0.98059 0.56664 0.41003 0.0
C526 C 0.95052 0.55739 0.32255 0.0
C527 C 0.98407 0.59015 0.41883 0.0
C528 C 0.97112 0.59738 0.37986 0.0
H529 H 0.36823 0.88229 0.34916 0.0
H530 H 0.39391 0.93836 0.21928 0.0
H531 H 0.43166 0.96142 0.28543 0.0
H532 H 0.45472 0.96832 0.38773 0.0
H533 H 0.42766 0.91413 0.52188 0.0
H534 H 0.39372 0.88707 0.44564 0.0
C535 C 0.38231 0.89929 0.33474 0.0
C536 C 0.37813 0.90885 0.28019 0.0
C537 C 0.40386 0.91266 0.37358 0.0
C538 C 0.39651 0.93093 0.26199 0.0
C539 C 0.41816 0.94405 0.29951 0.0
C540 C 0.44183 0.95021 0.39896 0.0
C541 C 0.44366 0.94293 0.45945 0.0
C542 C 0.42171 0.93547 0.35644 0.0
C543 C 0.42671 0.91974 0.47477 0.0
C544 C 0.40714 0.90449 0.43163 0.0
H545 H 0.46883 0.35987 0.37409 0.0
H546 H 0.52457 0.39934 0.25004 0.0
H547 H 0.53981 0.43572 0.32048 0.0
H548 H 0.53479 0.45771 0.40878 0.0
H549 H 0.4774 0.42094 0.52917 0.0
H550 H 0.46544 0.38211 0.46909 0.0
C551 C 0.48432 0.37642 0.3625 0.0
C552 C 0.49546 0.37663 0.30646 0.0
C553 C 0.49264 0.39782 0.40238 0.0
C554 C 0.51581 0.39823 0.2931 0.0
C555 C 0.52447 0.41926 0.33312 0.0
C556 C 0.5198 0.44115 0.42245 0.0
C557 C 0.50677 0.44212 0.47259 0.0
C558 C 0.51266 0.41938 0.38669 0.0
C559 C 0.48771 0.42055 0.4907 0.0
C560 C 0.48076 0.39846 0.45593 0.0
H561 H 0.57832 0.92718 0.80833 0.0
H562 H 0.51486 0.89214 0.91022 0.0
H563 H 0.49772 0.91305 0.85421 0.0
H564 H 0.50173 0.94333 0.78291 0.0
H565 H 0.56398 0.97848 0.67751 0.0
H566 H 0.58065 0.95543 0.72775 0.0
C567 C 0.56066 0.92401 0.81763 0.0
C568 C 0.54787 0.90806 0.86333 0.0
C569 C 0.5508 0.9362 0.78501 0.0
C570 C 0.52494 0.904 0.87471 0.0
C571 C 0.51518 0.91611 0.84308 0.0
C572 C 0.51891 0.94583 0.77063 0.0
C573 C 0.53182 0.96272 0.72744 0.0
C574 C 0.52811 0.93252 0.79915 0.0
C575 C 0.55379 0.96553 0.71079 0.0
C576 C 0.56332 0.95246 0.73976 0.0
H577 H 0.63473 0.53165 0.9047 0.0
H578 H 0.64949 0.60517 0.93919 0.0
H579 H 0.615 0.59628 0.86757 0.0
H580 H 0.58311 0.56914 0.78808 0.0
H581 H 0.56698 0.49544 0.75154 0.0
H582 H 0.59898 0.50256 0.83274 0.0
C583 C 0.63018 0.54559 0.89713 0.0
C584 C 0.64515 0.56926 0.92589 0.0
C585 C 0.61004 0.54031 0.85581 0.0
C586 C 0.63884 0.58706 0.916 0.0
C587 C 0.61896 0.58195 0.87549 0.0
C588 C 0.58637 0.55451 0.79858 0.0
C589 C 0.57305 0.53194 0.76354 0.0
C590 C 0.60486 0.55888 0.844 0.0
C591 C 0.57707 0.51298 0.77812 0.0
C592 C 0.5955 0.51715 0.82402 0.0
H593 H 0.1221 0.62945 0.92861 0.0
H594 H 0.08036 0.66134 0.86474 0.0
H595 H 0.0581 0.62754 0.78337 0.0
H596 H 0.04728 0.58641 0.73973 0.0
H597 H 0.0873 0.55377 0.81086 0.0
H598 H 0.11405 0.59069 0.87853 0.0
C599 C 0.10859 0.62938 0.89579 0.0
C600 C 0.10283 0.64782 0.90288 0.0
C601 C 0.09557 0.6097 0.85033 0.0
C602 C 0.08494 0.64719 0.86069 0.0
C603 C 0.07225 0.62791 0.8141 0.0
C604 C 0.06233 0.58779 0.76871 0.0
C605 C 0.06559 0.56767 0.77032 0.0
C606 C 0.07694 0.6087 0.80971 0.0
C607 C 0.08471 0.56924 0.80889 0.0
C608 C 0.09984 0.59023 0.84782 0.0
H609 H 0.49607 0.12011 0.94913 0.0
H610 H 0.42209 0.08889 0.87512 0.0
H611 H 0.42974 0.07074 0.78253 0.0
H612 H 0.45518 0.05828 0.73105 0.0
H613 H 0.5271 0.0836 0.81265 0.0
H614 H 0.52252 0.10944 0.8935 0.0
C615 C 0.48152 0.10926 0.91306 0.0
C616 C 0.45843 0.10582 0.92017 0.0
C617 C 0.48567 0.09767 0.8611 0.0
C618 C 0.44014 0.09229 0.87134 0.0
C619 C 0.44442 0.08162 0.8183 0.0
C620 C 0.47015 0.07 0.76529 0.0
C621 C 0.49145 0.06903 0.76587 0.0
C622 C 0.46686 0.08354 0.81374 0.0
C623 C 0.51053 0.08406 0.81122 0.0
C624 C 0.50782 0.09864 0.85776 0.0
H625 H 0.3487 0.43247 0.89627 0.0
H626 H 0.39263 0.50345 0.99416 0.0
H627 H 0.42661 0.50929 0.93591 0.0
H628 H 0.44415 0.49384 0.85864 0.0
H629 H 0.39994 0.42291 0.76061 0.0
H630 H 0.36601 0.41722 0.81866 0.0
C631 C 0.36571 0.44921 0.90491 0.0
C632 C 0.36806 0.46749 0.94945 0.0
C633 C 0.38526 0.45232 0.87191 0.0
C634 C 0.39017 0.48922 0.95942 0.0
C635 C 0.40972 0.49247 0.92666 0.0
C636 C 0.42716 0.47704 0.85058 0.0
C637 C 0.42464 0.45875 0.80575 0.0
C638 C 0.40754 0.47405 0.88323 0.0
C639 C 0.40238 0.43725 0.79495 0.0
C640 C 0.38293 0.434 0.82796 0.0
H641 H 0.87747 0.36515 0.87322 0.0
H642 H 0.90867 0.41347 0.04354 0.0
H643 H 0.93207 0.44722 0.98006 0.0
H644 H 0.94872 0.461 0.8783 0.0
H645 H 0.91821 0.41218 0.70816 0.0
H646 H 0.88909 0.38094 0.76908 0.0
C647 C 0.88906 0.38319 0.89617 0.0
C648 C 0.89166 0.38679 0.96284 0.0
C649 C 0.90272 0.40242 0.85945 0.0
C650 C 0.9064 0.41028 0.9922 0.0
C651 C 0.9199 0.42955 0.95596 0.0
C652 C 0.93528 0.44379 0.85411 0.0
C653 C 0.93614 0.43878 0.789 0.0
C654 C 0.91895 0.4256 0.88975 0.0
C655 C 0.91831 0.41645 0.75844 0.0
C656 C 0.9017 0.39845 0.79332 0.0
H657 H 0.90184 0.53271 0.85196 0.0
H658 H 0.95516 0.60816 0.89695 0.0
H659 H 0.98452 0.60194 0.84529 0.0
H660 H 0.9949 0.57598 0.78309 0.0
H661 H 0.9431 0.50022 0.74111 0.0
H662 H 0.91382 0.50544 0.79928 0.0
C663 C 0.91992 0.54777 0.85124 0.0
C664 C 0.92583 0.57107 0.87699 0.0
C665 C 0.93721 0.54397 0.82301 0.0
C666 C 0.94952 0.59024 0.87531 0.0
C667 C 0.96659 0.58666 0.84665 0.0
C668 C 0.97731 0.5605 0.78748 0.0
C669 C 0.97106 0.53784 0.75727 0.0
C670 C 0.96056 0.56372 0.81972 0.0
C671 C 0.94836 0.51786 0.76414 0.0
C672 C 0.93153 0.52092 0.79669 0.0
H673 H 0.33364 0.91183 0.8435 0.0
H674 H 0.37953 0.90413 0.98501 0.0
H675 H 0.41438 0.92952 0.92979 0.0
H676 H 0.43208 0.95423 0.84381 0.0
H677 H 0.3878 0.96336 0.70059 0.0
H678 H 0.35207 0.93729 0.75458 0.0
C679 C 0.35129 0.91572 0.86193 0.0
C680 C 0.35389 0.90571 0.91763 0.0
C681 C 0.37153 0.9307 0.83015 0.0
C682 C 0.37687 0.91098 0.94126 0.0
C683 C 0.3969 0.92573 0.91014 0.0
C684 C 0.41468 0.95069 0.82414 0.0
C685 C 0.41267 0.96085 0.76836 0.0
C686 C 0.39444 0.93571 0.85484 0.0
C687 C 0.38987 0.9558 0.74361 0.0
C688 C 0.36945 0.94088 0.77441 0.0
H689 H 0.50624 0.37398 0.90712 0.0
H690 H 0.43692 0.32071 0.81734 0.0
H691 H 0.44101 0.3476 0.73446 0.0
H692 H 0.46133 0.38854 0.69816 0.0
H693 H 0.52946 0.44267 0.7925 0.0
H694 H 0.52917 0.41297 0.86149 0.0
C695 C 0.49235 0.36798 0.86838 0.0
C696 C 0.47118 0.34551 0.8688 0.0
C697 C 0.49456 0.3838 0.82183 0.0
C698 C 0.45323 0.33809 0.81858 0.0
C699 C 0.45556 0.35345 0.77117 0.0
C700 C 0.47647 0.39365 0.73242 0.0
C701 C 0.49526 0.41785 0.7406 0.0
C702 C 0.47572 0.37672 0.77376 0.0
C703 C 0.51468 0.42419 0.78558 0.0
C704 C 0.51446 0.40726 0.82536 0.0
H705 H 0.05711 0.40391 0.95877 0.0
H706 H 0.12119 0.44352 0.862 0.0
H707 H 0.09793 0.44836 0.77514 0.0
H708 H 0.06086 0.44765 0.73726 0.0
H709 H 0.99753 0.40993 0.83716 0.0
H710 H 0.01871 0.3972 0.91117 0.0
C711 C 0.06589 0.4129 0.91773 0.0
C712 C 0.09093 0.42374 0.91745 0.0
C713 C 0.05247 0.41597 0.86855 0.0
C714 C 0.10202 0.43549 0.86403 0.0
C715 C 0.08872 0.43822 0.81428 0.0
C716 C 0.05153 0.43577 0.77366 0.0
C717 C 0.02773 0.42938 0.78175 0.0
C718 C 0.06414 0.42945 0.81744 0.0
C719 C 0.01579 0.4146 0.82982 0.0
C720 C 0.02798 0.40763 0.87249 0.0
H721 H 0.61943 0.1126 0.90331 0.0
H722 H 0.67257 0.13916 0.76733 0.0
H723 H 0.6417 0.11551 0.68076 0.0
H724 H 0.60148 0.08245 0.64736 0.0
H725 H 0.54852 0.05286 0.78318 0.0
H726 H 0.57717 0.08289 0.8665 0.0
C727 C 0.62395 0.11372 0.85436 0.0
C728 C 0.64802 0.12746 0.84101 0.0
C729 C 0.60625 0.0993 0.80537 0.0
C730 C 0.65404 0.12868 0.77801 0.0
C731 C 0.63647 0.11507 0.72883 0.0
C732 C 0.5961 0.08285 0.69505 0.0
C733 C 0.57316 0.06537 0.70972 0.0
C734 C 0.6128 0.09953 0.74245 0.0
C735 C 0.56612 0.06623 0.77104 0.0
C736 C 0.58257 0.08324 0.81865 0.0
H737 H 0.5562 0.65207 0.82146 0.0
H738 H 0.48963 0.61873 0.91063 0.0
H739 H 0.475 0.58196 0.84082 0.0
H740 H 0.48357 0.55727 0.76699 0.0
H741 H 0.5501 0.58932 0.67858 0.0
H742 H 0.56227 0.62873 0.73468 0.0
C743 C 0.53837 0.63685 0.82475 0.0
C744 C 0.52412 0.63801 0.87152 0.0
C745 C 0.53016 0.61553 0.78494 0.0
C746 C 0.5009 0.61836 0.87482 0.0
C747 C 0.49257 0.59723 0.83525 0.0
C748 C 0.50045 0.57309 0.75882 0.0
C749 C 0.51603 0.57059 0.71941 0.0
C750 C 0.50738 0.59535 0.79191 0.0
C751 C 0.5378 0.59101 0.70852 0.0
C752 C 0.54484 0.61343 0.74113 0.0
H753 H 0.43205 0.06071 0.31237 0.0
H754 H 0.47763 0.12739 0.42818 0.0
H755 H 0.49175 0.10626 0.49613 0.0
H756 H 0.49437 0.06949 0.51482 0.0
H757 H 0.44957 0.00393 0.39444 0.0
H758 H 0.43125 0.02371 0.33759 0.0
C759 C 0.44453 0.07059 0.35352 0.0
C760 C 0.4538 0.09565 0.36485 0.0
C761 C 0.45275 0.05844 0.39166 0.0
C762 C 0.47043 0.10814 0.41775 0.0
C763 C 0.47846 0.09605 0.45676 0.0
C764 C 0.48016 0.0595 0.47722 0.0
C765 C 0.47332 0.03538 0.45846 0.0
C766 C 0.47024 0.0713 0.44311 0.0
C767 C 0.45514 0.02256 0.40927 0.0
C768 C 0.44474 0.03388 0.37662 0.0
H769 H 0.3793 0.44822 0.29709 0.0
H770 H 0.38905 0.5175 0.36573 0.0
H771 H 0.42466 0.52563 0.43297 0.0
H772 H 0.45055 0.51115 0.48002 0.0
H773 H 0.43784 0.44016 0.41818 0.0
H774 H 0.40592 0.4346 0.34001 0.0
C775 C 0.38903 0.46501 0.32724 0.0
C776 C 0.38122 0.48201 0.32729 0.0
C777 C 0.40905 0.46928 0.36667 0.0
C778 C 0.39461 0.50406 0.36493 0.0
C779 C 0.41494 0.50869 0.40348 0.0
C780 C 0.44113 0.49475 0.44823 0.0
C781 C 0.44645 0.47609 0.45428 0.0
C782 C 0.42206 0.49124 0.40559 0.0
C783 C 0.43396 0.45472 0.41392 0.0
C784 C 0.41565 0.45149 0.36968 0.0
H785 H 0.88588 0.38399 0.34521 0.0
H786 H 0.92467 0.34915 0.40972 0.0
H787 H 0.94935 0.38367 0.48753 0.0
H788 H 0.96371 0.4263 0.52482 0.0
H789 H 0.92701 0.46192 0.45101 0.0
H790 H 0.8972 0.42436 0.39035 0.0
C791 C 0.89919 0.38357 0.37771 0.0
C792 C 0.90351 0.36413 0.37177 0.0
C793 C 0.91377 0.40375 0.42036 0.0
C794 C 0.92117 0.36406 0.41327 0.0
C795 C 0.93529 0.38378 0.45759 0.0
C796 C 0.9487 0.42548 0.49697 0.0
C797 C 0.94725 0.44655 0.4923 0.0
C798 C 0.93234 0.40413 0.45985 0.0
C799 C 0.92822 0.44571 0.45514 0.0
C800 C 0.91131 0.42434 0.4203 0.0
H801 H 0.58672 0.91654 0.34146 0.0
H802 H 0.51333 0.87085 0.26374 0.0
H803 H 0.49956 0.88581 0.35059 0.0
H804 H 0.50918 0.91761 0.4355 0.0
H805 H 0.58232 0.96225 0.51509 0.0
H806 H 0.59509 0.94078 0.44295 0.0
C807 C 0.56765 0.90918 0.34433 0.0
C808 C 0.55123 0.89339 0.29427 0.0
C809 C 0.55973 0.91762 0.39502 0.0
C810 C 0.52654 0.88395 0.29978 0.0
C811 C 0.51857 0.89229 0.34986 0.0
C812 C 0.52777 0.92201 0.43866 0.0
C813 C 0.54485 0.94192 0.47918 0.0
C814 C 0.53512 0.91005 0.39584 0.0
C815 C 0.56879 0.94714 0.48385 0.0
C816 C 0.5762 0.93509 0.44189 0.0
H817 H 0.68455 0.61992 0.36004 0.0
H818 H 0.66548 0.54641 0.30023 0.0
H819 H 0.63222 0.53104 0.36621 0.0
H820 H 0.60553 0.53784 0.42948 0.0
H821 H 0.62186 0.61042 0.48688 0.0
H822 H 0.65915 0.62679 0.43318 0.0
C823 C 0.67322 0.60055 0.36182 0.0
C824 C 0.67767 0.58444 0.32476 0.0
C825 C 0.65343 0.59163 0.39874 0.0
C826 C 0.66297 0.55938 0.32873 0.0
C827 C 0.64365 0.55047 0.36597 0.0
C828 C 0.61736 0.55728 0.43075 0.0
C829 C 0.61084 0.57295 0.46091 0.0
C830 C 0.63832 0.56637 0.39942 0.0
C831 C 0.62652 0.59804 0.4636 0.0
C832 C 0.64772 0.60735 0.43263 0.0
H833 H 0.12961 0.67023 0.41496 0.0
H834 H 0.12247 0.61673 0.26915 0.0
H835 H 0.10564 0.58548 0.34253 0.0
H836 H 0.08575 0.57199 0.43931 0.0
H837 H 0.08785 0.62416 0.58078 0.0
H838 H 0.11428 0.65712 0.51891 0.0
C839 C 0.12452 0.65177 0.39932 0.0
C840 C 0.12699 0.64593 0.33601 0.0
C841 C 0.11378 0.6335 0.44107 0.0
C842 C 0.12098 0.62199 0.31741 0.0
C843 C 0.11111 0.60394 0.3593 0.0
C844 C 0.09244 0.59059 0.45758 0.0
C845 C 0.08421 0.59552 0.51367 0.0
C846 C 0.10642 0.60931 0.4201 0.0
C847 C 0.0936 0.61977 0.53733 0.0
C848 C 0.1085 0.63865 0.50152 0.0
loop_
_geom_bond_atom_site_label_1
_geom_bond_atom_site_label_2
_geom_bond_distance
_geom_bond_site_symmetry_2
_ccdc_geom_bond_type
H0 C27 0.929 . S
N1 C26 1.433 . S
N1 C32 1.435 . S
N1 C38 1.423 . S
H2 C28 0.930 . S
H3 C31 0.931 . S
H4 C30 0.929 . S
H5 C33 0.930 . S
H6 C34 0.932 . S
H7 C37 0.929 . S
H8 C36 0.931 . S
H9 C39 0.929 . S
H10 C43 0.932 . S
H11 C40 0.931 . S
H12 C42 0.929 . S
H13 C45 0.929 . S
H14 C46 0.930 . S
H15 C48 0.929 . S
H16 C49 0.931 . S
H17 C51 0.930 . S
H18 C52 0.932 . S
H19 C54 0.931 1_556 S
H20 C55 0.929 . S
H21 C57 0.929 . S
H22 C58 0.931 . S
H23 C60 0.929 . S
N24 C44 1.433 . S
N24 C50 1.435 . S
N24 C56 1.423 . S
H25 C61 0.932 . S
C26 N1 1.433 . S
C26 C27 1.363 . S
C26 C31 1.370 . S
C27 H0 0.929 . S
C27 C26 1.363 . S
C27 C28 1.385 . S
C28 H2 0.930 . S
C28 C27 1.385 . S
C28 C29 1.357 . S
C29 C28 1.357 . S
C29 C30 1.406 . S
C30 H4 0.929 . S
C30 C29 1.406 . S
C30 C31 1.391 . S
C31 H3 0.931 . S
C31 C26 1.370 . S
C31 C30 1.391 . S
C32 N1 1.435 . S
C32 C33 1.358 . S
C32 C37 1.371 . S
C33 H5 0.930 . S
C33 C32 1.358 . S
C33 C34 1.405 . S
C34 H6 0.932 . S
C34 C33 1.405 . S
C34 C35 1.383 . S
C35 C34 1.383 . S
C35 C36 1.393 . S
C36 H8 0.931 . S
C36 C35 1.393 . S
C36 C37 1.382 . S
C37 H7 0.929 . S
C37 C32 1.371 . S
C37 C36 1.382 . S
C38 N1 1.423 . S
C38 C39 1.362 . S
C38 C43 1.388 . S
C39 H9 0.929 . S
C39 C38 1.362 . S
C39 C40 1.376 . S
C40 H11 0.931 . S
C40 C39 1.376 . S
C40 C41 1.396 . S
C41 C40 1.396 . S
C41 C42 1.348 . S
C41 C59 1.472 . S
C42 H12 0.929 . S
C42 C41 1.348 . S
C42 C43 1.443 . S
C43 H10 0.932 . S
C43 C38 1.388 . S
C43 C42 1.443 . S
C44 N24 1.433 . S
C44 C45 1.363 . S
C44 C49 1.370 . S
C45 H13 0.929 . S
C45 C44 1.363 . S
C45 C46 1.385 . S
C46 H14 0.930 . S
C46 C45 1.385 . S
C46 C47 1.357 . S
C47 C46 1.357 . S
C47 C48 1.406 . S
C48 H15 0.929 . S
C48 C47 1.406 . S
C48 C49 1.391 . S
C49 H16 0.931 . S
C49 C44 1.370 . S
C49 C48 1.391 . S
C50 N24 1.435 . S
C50 C51 1.358 . S
C50 C55 1.371 . S
C51 H17 0.930 . S
C51 C50 1.358 . S
C51 C52 1.405 . S
C52 H18 0.932 . S
C52 C51 1.405 . S
C52 C53 1.383 . S
C53 C52 1.383 . S
C53 C54 1.393 . S
C54 H19 0.931 1_554 S
C54 C53 1.393 . S
C54 C55 1.382 . S
C55 H20 0.929 . S
C55 C50 1.371 . S
C55 C54 1.382 . S
C56 N24 1.423 . S
C56 C57 1.362 . S
C56 C61 1.388 . S
C57 H21 0.929 . S
C57 C56 1.362 . S
C57 C58 1.376 . S
C58 H22 0.931 . S
C58 C57 1.376 . S
C58 C59 1.396 . S
C59 C41 1.472 . S
C59 C58 1.396 . S
C59 C60 1.348 . S
C60 H23 0.929 . S
C60 C59 1.348 . S
C60 C61 1.443 . S
C61 H25 0.932 . S
C61 C56 1.388 . S
C61 C60 1.443 . S
H62 C89 0.929 . S
N63 C88 1.433 . S
N63 C94 1.435 . S
N63 C100 1.423 . S
H64 C90 0.930 . S
H65 C93 0.931 . S
H66 C92 0.929 . S
H67 C95 0.930 . S
H68 C96 0.932 . S
H69 C99 0.929 . S
H70 C98 0.931 . S
H71 C101 0.929 . S
H72 C105 0.932 . S
H73 C102 0.931 . S
H74 C104 0.929 . S
H75 C107 0.929 . S
H76 C108 0.930 . S
H77 C110 0.929 . S
H78 C111 0.931 . S
H79 C113 0.930 . S
H80 C114 0.932 . S
H81 C116 0.931 . S
H82 C117 0.929 . S
H83 C119 0.929 . S
H84 C120 0.931 . S
H85 C122 0.929 . S
N86 C106 1.433 . S
N86 C112 1.435 . S
N86 C118 1.423 . S
H87 C123 0.932 . S
C88 N63 1.433 . S
C88 C89 1.363 . S
C88 C93 1.370 . S
C89 H62 0.929 . S
C89 C88 1.363 . S
C89 C90 1.385 . S
C90 H64 0.930 . S
C90 C89 1.385 . S
C90 C91 1.357 . S
C91 C90 1.357 . S
C91 C92 1.406 . S
C92 H66 0.929 . S
C92 C91 1.406 . S
C92 C93 1.391 . S
C93 H65 0.931 . S
C93 C88 1.370 . S
C93 C92 1.391 . S
C94 N63 1.435 . S
C94 C95 1.358 . S
C94 C99 1.371 1_554 S
C95 H67 0.930 . S
C95 C94 1.358 . S
C95 C96 1.405 1_554 S
C96 H68 0.932 . S
C96 C95 1.405 1_556 S
C96 C97 1.383 . S
C97 C96 1.383 . S
C97 C98 1.393 . S
C98 H70 0.931 . S
C98 C97 1.393 . S
C98 C99 1.382 . S
C99 H69 0.929 . S
C99 C94 1.371 1_556 S
C99 C98 1.382 . S
C100 N63 1.423 . S
C100 C101 1.362 . S
C100 C105 1.388 . S
C101 H71 0.929 . S
C101 C100 1.362 . S
C101 C102 1.376 . S
C102 H73 0.931 . S
C102 C101 1.376 . S
C102 C103 1.396 . S
C103 C102 1.396 . S
C103 C104 1.348 . S
C103 C121 1.472 . S
C104 H74 0.929 . S
C104 C103 1.348 . S
C104 C105 1.443 . S
C105 H72 0.932 . S
C105 C100 1.388 . S
C105 C104 1.443 . S
C106 N86 1.433 . S
C106 C107 1.363 . S
C106 C111 1.370 . S
C107 H75 0.929 . S
C107 C106 1.363 . S
C107 C108 1.385 . S
C108 H76 0.930 . S
C108 C107 1.385 . S
C108 C109 1.357 . S
C109 C108 1.357 . S
C109 C110 1.406 . S
C110 H77 0.929 . S
C110 C109 1.406 . S
C110 C111 1.391 . S
C111 H78 0.931 . S
C111 C106 1.370 . S
C111 C110 1.391 . S
C112 N86 1.435 . S
C112 C113 1.358 . S
C112 C117 1.371 1_554 S
C113 H79 0.930 . S
C113 C112 1.358 . S
C113 C114 1.405 . S
C114 H80 0.932 . S
C114 C113 1.405 . S
C114 C115 1.383 1_554 S
C115 C114 1.383 1_556 S
C115 C116 1.393 . S
C116 H81 0.931 . S
C116 C115 1.393 . S
C116 C117 1.382 . S
C117 H82 0.929 . S
C117 C112 1.371 1_556 S
C117 C116 1.382 . S
C118 N86 1.423 . S
C118 C119 1.362 . S
C118 C123 1.388 . S
C119 H83 0.929 . S
C119 C118 1.362 . S
C119 C120 1.376 . S
C120 H84 0.931 . S
C120 C119 1.376 . S
C120 C121 1.396 . S
C121 C103 1.472 . S
C121 C120 1.396 . S
C121 C122 1.348 . S
C122 H85 0.929 . S
C122 C121 1.348 . S
C122 C123 1.443 . S
C123 H87 0.932 . S
C123 C118 1.388 . S
C123 C122 1.443 . S
H124 C151 0.929 . S
N125 C150 1.433 1_554 S
N125 C156 1.435 . S
N125 C162 1.423 . S
H126 C152 0.930 . S
H127 C155 0.931 . S
H128 C154 0.929 . S
H129 C157 0.930 . S
H130 C158 0.932 . S
H131 C161 0.929 . S
H132 C160 0.931 . S
H133 C163 0.929 1_556 S
H134 C167 0.932 . S
H135 C164 0.931 1_556 S
H136 C166 0.929 . S
H137 C169 0.929 . S
H138 C170 0.930 . S
H139 C172 0.929 . S
H140 C173 0.931 . S
H141 C175 0.930 . S
H142 C176 0.932 . S
H143 C178 0.931 . S
H144 C179 0.929 . S
H145 C181 0.929 1_556 S
H146 C182 0.931 1_556 S
H147 C184 0.929 . S
N148 C168 1.433 1_554 S
N148 C174 1.435 . S
N148 C180 1.423 . S
H149 C185 0.932 . S
C150 N125 1.433 1_556 S
C150 C151 1.363 . S
C150 C155 1.370 . S
C151 H124 0.929 . S
C151 C150 1.363 . S
C151 C152 1.385 . S
C152 H126 0.930 . S
C152 C151 1.385 . S
C152 C153 1.357 . S
C153 C152 1.357 . S
C153 C154 1.406 . S
C154 H128 0.929 . S
C154 C153 1.406 . S
C154 C155 1.391 . S
C155 H127 0.931 . S
C155 C150 1.370 . S
C155 C154 1.391 . S
C156 N125 1.435 . S
C156 C157 1.358 . S
C156 C161 1.371 . S
C157 H129 0.930 . S
C157 C156 1.358 . S
C157 C158 1.405 . S
C158 H130 0.932 . S
C158 C157 1.405 . S
C158 C159 1.383 . S
C159 C158 1.383 . S
C159 C160 1.393 . S
C160 H132 0.931 . S
C160 C159 1.393 . S
C160 C161 1.382 . S
C161 H131 0.929 . S
C161 C156 1.371 . S
C161 C160 1.382 . S
C162 N125 1.423 . S
C162 C163 1.362 . S
C162 C167 1.388 . S
C163 H133 0.929 1_554 S
C163 C162 1.362 . S
C163 C164 1.376 . S
C164 H135 0.931 1_554 S
C164 C163 1.376 . S
C164 C165 1.396 . S
C165 C164 1.396 . S
C165 C166 1.348 . S
C165 C183 1.472 . S
C166 H136 0.929 . S
C166 C165 1.348 . S
C166 C167 1.443 . S
C167 H134 0.932 . S
C167 C162 1.388 . S
C167 C166 1.443 . S
C168 N148 1.433 1_556 S
C168 C169 1.363 . S
C168 C173 1.370 . S
C169 H137 0.929 . S
C169 C168 1.363 . S
C169 C170 1.385 . S
C170 H138 0.930 . S
C170 C169 1.385 . S
C170 C171 1.357 . S
C171 C170 1.357 . S
C171 C172 1.406 . S
C172 H139 0.929 . S
C172 C171 1.406 . S
C172 C173 1.391 . S
C173 H140 0.931 . S
C173 C168 1.370 . S
C173 C172 1.391 . S
C174 N148 1.435 . S
C174 C175 1.358 . S
C174 C179 1.371 . S
C175 H141 0.930 . S
C175 C174 1.358 . S
C175 C176 1.405 . S
C176 H142 0.932 . S
C176 C175 1.405 . S
C176 C177 1.383 . S
C177 C176 1.383 . S
C177 C178 1.393 . S
C178 H143 0.931 . S
C178 C177 1.393 . S
C178 C179 1.382 . S
C179 H144 0.929 . S
C179 C174 1.371 . S
C179 C178 1.382 . S
C180 N148 1.423 . S
C180 C181 1.362 . S
C180 C185 1.388 . S
C181 H145 0.929 1_554 S
C181 C180 1.362 . S
C181 C182 1.376 . S
C182 H146 0.931 1_554 S
C182 C181 1.376 . S
C182 C183 1.396 . S
C183 C165 1.472 . S
C183 C182 1.396 . S
C183 C184 1.348 . S
C184 H147 0.929 . S
C184 C183 1.348 . S
C184 C185 1.443 . S
C185 H149 0.932 . S
C185 C180 1.388 . S
C185 C184 1.443 . S
H186 C213 0.929 . S
N187 C212 1.433 . S
N187 C218 1.435 1_554 S
N187 C224 1.423 . S
H188 C214 0.930 . S
H189 C217 0.931 . S
H190 C216 0.929 . S
H191 C219 0.930 1_554 S
H192 C220 0.932 . S
H193 C223 0.929 . S
H194 C222 0.931 . S
H195 C225 0.929 . S
H196 C229 0.932 . S
H197 C226 0.931 . S
H198 C228 0.929 . S
H199 C231 0.929 . S
H200 C232 0.930 . S
H201 C234 0.929 . S
H202 C235 0.931 . S
H203 C237 0.930 . S
H204 C238 0.932 . S
H205 C240 0.931 . S
H206 C241 0.929 . S
H207 C243 0.929 . S
H208 C244 0.931 . S
H209 C246 0.929 . S
N210 C230 1.433 . S
N210 C236 1.435 1_554 S
N210 C242 1.423 . S
H211 C247 0.932 . S
C212 N187 1.433 . S
C212 C213 1.363 . S
C212 C217 1.370 . S
C213 H186 0.929 . S
C213 C212 1.363 . S
C213 C214 1.385 . S
C214 H188 0.930 . S
C214 C213 1.385 . S
C214 C215 1.357 . S
C215 C214 1.357 . S
C215 C216 1.406 . S
C216 H190 0.929 . S
C216 C215 1.406 . S
C216 C217 1.391 . S
C217 H189 0.931 . S
C217 C212 1.370 . S
C217 C216 1.391 . S
C218 N187 1.435 1_556 S
C218 C219 1.358 . S
C218 C223 1.371 . S
C219 H191 0.930 1_556 S
C219 C218 1.358 . S
C219 C220 1.405 . S
C220 H192 0.932 . S
C220 C219 1.405 . S
C220 C221 1.383 . S
C221 C220 1.383 . S
C221 C222 1.393 . S
C222 H194 0.931 . S
C222 C221 1.393 . S
C222 C223 1.382 . S
C223 H193 0.929 . S
C223 C218 1.371 . S
C223 C222 1.382 . S
C224 N187 1.423 . S
C224 C225 1.362 . S
C224 C229 1.388 1_554 S
C225 H195 0.929 . S
C225 C224 1.362 . S
C225 C226 1.376 . S
C226 H197 0.931 . S
C226 C225 1.376 . S
C226 C227 1.396 . S
C227 C226 1.396 . S
C227 C228 1.348 1_554 S
C227 C245 1.472 . S
C228 H198 0.929 . S
C228 C227 1.348 1_556 S
C228 C229 1.443 . S
C229 H196 0.932 . S
C229 C224 1.388 1_556 S
C229 C228 1.443 . S
C230 N210 1.433 . S
C230 C231 1.363 . S
C230 C235 1.370 . S
C231 H199 0.929 . S
C231 C230 1.363 . S
C231 C232 1.385 . S
C232 H200 0.930 . S
C232 C231 1.385 . S
C232 C233 1.357 . S
C233 C232 1.357 . S
C233 C234 1.406 . S
C234 H201 0.929 . S
C234 C233 1.406 . S
C234 C235 1.391 . S
C235 H202 0.931 . S
C235 C230 1.370 . S
C235 C234 1.391 . S
C236 N210 1.435 1_556 S
C236 C237 1.358 . S
C236 C241 1.371 . S
C237 H203 0.930 . S
C237 C236 1.358 . S
C237 C238 1.405 . S
C238 H204 0.932 . S
C238 C237 1.405 . S
C238 C239 1.383 . S
C239 C238 1.383 . S
C239 C240 1.393 . S
C240 H205 0.931 . S
C240 C239 1.393 . S
C240 C241 1.382 . S
C241 H206 0.929 . S
C241 C236 1.371 . S
C241 C240 1.382 . S
C242 N210 1.423 . S
C242 C243 1.362 . S
C242 C247 1.388 1_554 S
C243 H207 0.929 . S
C243 C242 1.362 . S
C243 C244 1.376 . S
C244 H208 0.931 . S
C244 C243 1.376 . S
C244 C245 1.396 . S
C245 C227 1.472 . S
C245 C244 1.396 . S
C245 C246 1.348 1_554 S
C246 H209 0.929 . S
C246 C245 1.348 1_556 S
C246 C247 1.443 . S
C247 H211 0.932 . S
C247 C242 1.388 1_556 S
C247 C246 1.443 . S
H248 C275 0.929 . S
N249 C274 1.433 . S
N249 C280 1.435 . S
N249 C286 1.423 . S
H250 C276 0.930 . S
H251 C279 0.931 . S
H252 C278 0.929 . S
H253 C281 0.930 . S
H254 C282 0.932 . S
H255 C285 0.929 . S
H256 C284 0.931 . S
H257 C287 0.929 . S
H258 C291 0.932 . S
H259 C288 0.931 . S
H260 C290 0.929 . S
H261 C293 0.929 . S
H262 C294 0.930 . S
H263 C296 0.929 . S
H264 C297 0.931 . S
H265 C299 0.930 . S
H266 C300 0.932 . S
H267 C302 0.931 . S
H268 C303 0.929 . S
H269 C305 0.929 . S
H270 C306 0.931 . S
H271 C308 0.929 . S
N272 C292 1.433 . S
N272 C298 1.435 . S
N272 C304 1.423 . S
H273 C309 0.932 . S
C274 N249 1.433 . S
C274 C275 1.363 . S
C274 C279 1.370 . S
C275 H248 0.929 . S
C275 C274 1.363 . S
C275 C276 1.385 . S
C276 H250 0.930 . S
C276 C275 1.385 . S
C276 C277 1.357 . S
C277 C276 1.357 . S
C277 C278 1.406 . S
C278 H252 0.929 . S
C278 C277 1.406 . S
C278 C279 1.391 . S
C279 H251 0.931 . S
C279 C274 1.370 . S
C279 C278 1.391 . S
C280 N249 1.435 . S
C280 C281 1.358 . S
C280 C285 1.371 1_554 S
C281 H253 0.930 . S
C281 C280 1.358 . S
C281 C282 1.406 . S
C282 H254 0.932 . S
C282 C281 1.406 . S
C282 C283 1.382 1_554 S
C283 C282 1.382 1_556 S
C283 C284 1.393 . S
C284 H256 0.931 . S
C284 C283 1.393 . S
C284 C285 1.382 . S
C285 H255 0.929 . S
C285 C280 1.371 1_556 S
C285 C284 1.382 . S
C286 N249 1.423 . S
C286 C287 1.362 . S
C286 C291 1.388 . S
C287 H257 0.929 . S
C287 C286 1.362 . S
C287 C288 1.376 . S
C288 H259 0.931 . S
C288 C287 1.376 . S
C288 C289 1.396 . S
C289 C288 1.396 . S
C289 C290 1.348 . S
C289 C307 1.472 . S
C290 H260 0.929 . S
C290 C289 1.348 . S
C290 C291 1.443 . S
C291 H258 0.932 . S
C291 C286 1.388 . S
C291 C290 1.443 . S
C292 N272 1.433 . S
C292 C293 1.363 . S
C292 C297 1.370 . S
C293 H261 0.929 . S
C293 C292 1.363 . S
C293 C294 1.385 . S
C294 H262 0.930 . S
C294 C293 1.385 . S
C294 C295 1.357 . S
C295 C294 1.357 . S
C295 C296 1.406 . S
C296 H263 0.929 . S
C296 C295 1.406 . S
C296 C297 1.391 . S
C297 H264 0.931 . S
C297 C292 1.370 . S
C297 C296 1.391 . S
C298 N272 1.435 . S
C298 C299 1.358 . S
C298 C303 1.371 . S
C299 H265 0.930 . S
C299 C298 1.358 . S
C299 C300 1.405 . S
C300 H266 0.932 . S
C300 C299 1.405 . S
C300 C301 1.383 1_554 S
C301 C300 1.383 1_556 S
C301 C302 1.393 . S
C302 H267 0.931 . S
C302 C301 1.393 . S
C302 C303 1.382 1_556 S
C303 H268 0.929 . S
C303 C298 1.371 . S
C303 C302 1.382 1_554 S
C304 N272 1.423 . S
C304 C305 1.362 . S
C304 C309 1.388 . S
C305 H269 0.929 . S
C305 C304 1.362 . S
C305 C306 1.376 . S
C306 H270 0.931 . S
C306 C305 1.376 . S
C306 C307 1.396 . S
C307 C289 1.472 . S
C307 C306 1.396 . S
C307 C308 1.348 . S
C308 H271 0.929 . S
C308 C307 1.348 . S
C308 C309 1.443 . S
C309 H273 0.932 . S
C309 C304 1.388 . S
C309 C308 1.443 . S
H310 C337 0.929 . S
N311 C336 1.433 . S
N311 C342 1.435 . S
N311 C348 1.423 . S
H312 C338 0.930 . S
H313 C341 0.931 . S
H314 C340 0.929 1_556 S
H315 C343 0.930 . S
H316 C344 0.932 . S
H317 C347 0.929 . S
H318 C346 0.931 . S
H319 C349 0.929 . S
H320 C353 0.932 . S
H321 C350 0.931 . S
H322 C352 0.929 . S
H323 C355 0.929 . S
H324 C356 0.930 . S
H325 C358 0.929 1_556 S
H326 C359 0.931 . S
H327 C361 0.930 . S
H328 C362 0.932 . S
H329 C364 0.931 . S
H330 C365 0.929 . S
H331 C367 0.929 . S
H332 C368 0.931 . S
H333 C370 0.929 . S
N334 C354 1.433 . S
N334 C360 1.435 . S
N334 C366 1.423 . S
H335 C371 0.932 . S
C336 N311 1.433 . S
C336 C337 1.363 . S
C336 C341 1.370 . S
C337 H310 0.929 . S
C337 C336 1.363 . S
C337 C338 1.385 . S
C338 H312 0.930 . S
C338 C337 1.385 . S
C338 C339 1.362 . S
C339 C338 1.362 . S
C339 C340 1.409 . S
C340 H314 0.929 1_554 S
C340 C339 1.409 . S
C340 C341 1.391 . S
C341 H313 0.931 . S
C341 C336 1.370 . S
C341 C340 1.391 . S
C342 N311 1.435 . S
C342 C343 1.358 . S
C342 C347 1.371 . S
C343 H315 0.930 . S
C343 C342 1.358 . S
C343 C344 1.405 . S
C344 H316 0.932 . S
C344 C343 1.405 . S
C344 C345 1.383 . S
C345 C344 1.383 . S
C345 C346 1.393 . S
C346 H318 0.931 . S
C346 C345 1.393 . S
C346 C347 1.382 . S
C347 H317 0.929 . S
C347 C342 1.371 . S
C347 C346 1.382 . S
C348 N311 1.423 . S
C348 C349 1.362 . S
C348 C353 1.388 . S
C349 H319 0.929 . S
C349 C348 1.362 . S
C349 C350 1.376 . S
C350 H321 0.931 . S
C350 C349 1.376 . S
C350 C351 1.396 . S
C351 C350 1.396 . S
C351 C352 1.348 . S
C351 C369 1.472 . S
C352 H322 0.929 . S
C352 C351 1.348 . S
C352 C353 1.443 . S
C353 H320 0.932 . S
C353 C348 1.388 . S
C353 C352 1.443 . S
C354 N334 1.433 . S
C354 C355 1.363 . S
C354 C359 1.370 . S
C355 H323 0.929 . S
C355 C354 1.363 . S
C355 C356 1.385 . S
C356 H324 0.930 . S
C356 C355 1.385 . S
C356 C357 1.357 1_554 S
C357 C356 1.357 1_556 S
C357 C358 1.406 1_556 S
C358 H325 0.929 1_554 S
C358 C357 1.406 1_554 S
C358 C359 1.391 . S
C359 H326 0.931 . S
C359 C354 1.370 . S
C359 C358 1.391 . S
C360 N334 1.435 . S
C360 C361 1.358 . S
C360 C365 1.371 . S
C361 H327 0.930 . S
C361 C360 1.358 . S
C361 C362 1.405 . S
C362 H328 0.932 . S
C362 C361 1.405 . S
C362 C363 1.383 . S
C363 C362 1.383 . S
C363 C364 1.393 . S
C364 H329 0.931 . S
C364 C363 1.393 . S
C364 C365 1.382 . S
C365 H330 0.929 . S
C365 C360 1.371 . S
C365 C364 1.382 . S
C366 N334 1.423 . S
C366 C367 1.362 . S
C366 C371 1.388 . S
C367 H331 0.929 . S
C367 C366 1.362 . S
C367 C368 1.376 . S
C368 H332 0.931 . S
C368 C367 1.376 . S
C368 C369 1.396 . S
C369 C351 1.472 . S
C369 C368 1.396 . S
C369 C370 1.348 . S
C370 H333 0.929 . S
C370 C369 1.348 . S
C370 C371 1.443 . S
C371 H335 0.932 . S
C371 C366 1.388 . S
C371 C370 1.443 . S
C372 O399 1.312 . S
C372 O400 1.208 . S
C373 O394 1.331 . S
C373 O397 1.244 . S
C374 O396 1.264 . S
C374 O398 1.273 . S
Mg375 O377 1.936 1_455 S
Mg375 O384 2.081 1_455 S
Mg375 O386 2.023 . S
Mg375 O390 2.031 1_455 S
Mg375 O399 2.291 . S
Mg376 O377 1.963 . S
Mg376 O387 1.942 . S
Mg376 O388 1.955 1_655 S
Mg376 O395 1.986 . S
O377 Mg375 1.936 1_655 S
O377 Mg376 1.963 . S
O377 Mg378 1.915 1_655 S
Mg378 O377 1.915 1_455 S
Mg378 O379 1.915 . S
Mg378 O383 2.013 . S
Mg378 O389 2.114 1_455 S
Mg378 O393 2.013 1_455 S
Mg378 O399 2.114 . S
O379 Mg378 1.915 . S
O379 Mg380 1.936 . S
O379 Mg381 1.963 . S
Mg380 O379 1.936 . S
Mg380 O389 2.291 1_455 S
Mg380 O394 2.081 . S
Mg380 O396 2.023 1_455 S
Mg380 O400 2.031 . S
Mg381 O379 1.963 . S
Mg381 O385 1.986 . S
Mg381 O397 1.942 . S
Mg381 O398 1.955 1_455 S
C382 O393 1.191 . S
C382 O395 1.307 . S
O383 Mg378 2.013 . S
O383 C402 1.191 . S
O384 Mg375 2.081 1_655 S
O384 C392 1.331 . S
O385 Mg381 1.986 . S
O385 C402 1.307 . S
O386 Mg375 2.023 . S
O386 C401 1.264 . S
O387 Mg376 1.942 . S
O387 C392 1.244 . S
O388 Mg376 1.955 1_455 S
O388 C401 1.273 . S
O389 Mg378 2.114 1_655 S
O389 Mg380 2.291 1_655 S
O389 C391 1.312 . S
O390 Mg375 2.031 1_655 S
O390 C391 1.208 . S
C391 O389 1.312 . S
C391 O390 1.208 . S
C392 O384 1.331 . S
C392 O387 1.244 . S
O393 Mg378 2.013 1_655 S
O393 C382 1.191 . S
O394 C373 1.331 . S
O394 Mg380 2.081 . S
O395 Mg376 1.986 . S
O395 C382 1.307 . S
O396 C374 1.264 . S
O396 Mg380 2.023 1_655 S
O397 C373 1.244 . S
O397 Mg381 1.942 . S
O398 C374 1.273 . S
O398 Mg381 1.955 1_655 S
O399 C372 1.312 . S
O399 Mg375 2.291 . S
O399 Mg378 2.114 . S
O400 C372 1.208 . S
O400 Mg380 2.031 . S
C401 O386 1.264 . S
C401 O388 1.273 . S
C402 O383 1.191 . S
C402 O385 1.307 . S
C403 O430 1.312 . S
C403 O431 1.208 . S
C404 O425 1.331 . S
C404 O428 1.244 . S
C405 O427 1.264 . S
C405 O429 1.273 . S
Mg406 O408 1.936 1_545 S
Mg406 O415 2.081 1_545 S
Mg406 O417 2.023 . S
Mg406 O421 2.031 1_545 S
Mg406 O430 2.291 . S
Mg407 O408 1.963 1_545 S
Mg407 O418 1.943 1_545 S
Mg407 O419 1.951 . S
Mg407 O426 1.989 1_545 S
O408 Mg406 1.936 1_565 S
O408 Mg407 1.963 1_565 S
O408 Mg409 1.915 1_565 S
Mg409 O408 1.915 1_545 S
Mg409 O410 1.915 . S
Mg409 O414 2.013 . S
Mg409 O420 2.114 1_545 S
Mg409 O424 2.013 1_545 S
Mg409 O430 2.114 . S
O410 Mg409 1.915 . S
O410 Mg411 1.936 . S
O410 Mg412 1.963 . S
Mg411 O410 1.936 . S
Mg411 O420 2.291 1_545 S
Mg411 O425 2.081 . S
Mg411 O427 2.023 1_545 S
Mg411 O431 2.031 . S
Mg412 O410 1.963 . S
Mg412 O416 1.986 . S
Mg412 O428 1.942 . S
Mg412 O429 1.955 1_545 S
C413 O424 1.191 . S
C413 O426 1.307 . S
O414 Mg409 2.013 . S
O414 C433 1.191 . S
O415 Mg406 2.081 1_565 S
O415 C423 1.331 . S
O416 Mg412 1.986 . S
O416 C433 1.307 . S
O417 Mg406 2.023 . S
O417 C432 1.264 . S
O418 Mg407 1.943 1_565 S
O418 C423 1.244 . S
O419 Mg407 1.951 . S
O419 C432 1.273 . S
O420 Mg409 2.114 1_565 S
O420 Mg411 2.291 1_565 S
O420 C422 1.312 . S
O421 Mg406 2.031 1_565 S
O421 C422 1.208 . S
C422 O420 1.312 . S
C422 O421 1.208 . S
C423 O415 1.331 . S
C423 O418 1.244 . S
O424 Mg409 2.013 1_565 S
O424 C413 1.191 . S
O425 C404 1.331 . S
O425 Mg411 2.081 . S
O426 Mg407 1.989 1_565 S
O426 C413 1.307 . S
O427 C405 1.264 . S
O427 Mg411 2.023 1_565 S
O428 C404 1.244 . S
O428 Mg412 1.942 . S
O429 C405 1.273 . S
O429 Mg412 1.955 1_565 S
O430 C403 1.312 . S
O430 Mg406 2.291 . S
O430 Mg409 2.114 . S
O431 C403 1.208 . S
O431 Mg411 2.031 . S
C432 O417 1.264 . S
C432 O419 1.273 . S
C433 O414 1.191 . S
C433 O416 1.307 . S
C434 O461 1.312 . S
C434 O462 1.208 . S
C435 O456 1.331 . S
C435 O459 1.244 . S
C436 O458 1.264 . S
C436 O460 1.273 . S
Mg437 O439 1.936 . S
Mg437 O446 2.081 . S
Mg437 O448 2.023 . S
Mg437 O452 2.031 . S
Mg437 O461 2.291 . S
Mg438 O439 1.963 . S
Mg438 O449 1.942 . S
Mg438 O450 1.955 . S
Mg438 O457 1.986 . S
O439 Mg437 1.936 . S
O439 Mg438 1.963 . S
O439 Mg440 1.915 . S
Mg440 O439 1.915 . S
Mg440 O441 1.915 . S
Mg440 O445 2.013 . S
Mg440 O451 2.114 . S
Mg440 O455 2.013 . S
Mg440 O461 2.114 . S
O441 Mg440 1.915 . S
O441 Mg442 1.936 . S
O441 Mg443 1.963 . S
Mg442 O441 1.936 . S
Mg442 O451 2.291 . S
Mg442 O456 2.081 . S
Mg442 O458 2.023 . S
Mg442 O462 2.031 . S
Mg443 O441 1.963 . S
Mg443 O447 1.986 . S
Mg443 O459 1.942 . S
Mg443 O460 1.955 . S
C444 O455 1.191 . S
C444 O457 1.307 . S
O445 Mg440 2.013 . S
O445 C464 1.191 . S
O446 Mg437 2.081 . S
O446 C454 1.331 . S
O447 Mg443 1.986 . S
O447 C464 1.307 . S
O448 Mg437 2.023 . S
O448 C463 1.264 . S
O449 Mg438 1.942 . S
O449 C454 1.244 . S
O450 Mg438 1.955 . S
O450 C463 1.273 . S
O451 Mg440 2.114 . S
O451 Mg442 2.291 . S
O451 C453 1.312 . S
O452 Mg437 2.031 . S
O452 C453 1.208 . S
C453 O451 1.312 . S
C453 O452 1.208 . S
C454 O446 1.331 . S
C454 O449 1.244 . S
O455 Mg440 2.013 . S
O455 C444 1.191 . S
O456 C435 1.331 . S
O456 Mg442 2.081 . S
O457 Mg438 1.986 . S
O457 C444 1.307 . S
O458 C436 1.264 . S
O458 Mg442 2.023 . S
O459 C435 1.244 . S
O459 Mg443 1.942 . S
O460 C436 1.273 . S
O460 Mg443 1.955 . S
O461 C434 1.312 . S
O461 Mg437 2.291 . S
O461 Mg440 2.114 . S
O462 C434 1.208 . S
O462 Mg442 2.031 . S
C463 O448 1.264 . S
C463 O450 1.273 . S
C464 O445 1.191 . S
C464 O447 1.307 . S
H465 C471 0.930 . S
H466 C474 0.930 . S
H467 C475 0.930 . S
H468 C476 0.930 . S
H469 C479 0.930 . S
H470 C480 0.930 . S
C471 H465 0.930 . S
C471 C472 1.355 . S
C471 C473 1.415 . S
C472 C471 1.355 . S
C472 C474 1.419 . S
C473 C471 1.415 . S
C473 C478 1.425 . S
C473 C480 1.409 . S
C474 H466 0.930 . S
C474 C472 1.419 . S
C474 C475 1.362 . S
C475 H467 0.930 . S
C475 C474 1.362 . S
C475 C478 1.409 . S
C476 H468 0.930 . S
C476 C477 1.355 . S
C476 C478 1.415 . S
C477 C476 1.355 . S
C477 C479 1.419 . S
C478 C473 1.425 . S
C478 C475 1.409 . S
C478 C476 1.415 . S
C479 H469 0.930 . S
C479 C477 1.419 . S
C479 C480 1.362 . S
C480 H470 0.930 . S
C480 C473 1.409 . S
C480 C479 1.362 . S
H481 C487 0.930 . S
H482 C490 0.930 . S
H483 C491 0.930 . S
H484 C492 0.930 . S
H485 C495 0.930 . S
H486 C496 0.930 . S
C487 H481 0.930 . S
C487 C488 1.355 . S
C487 C489 1.415 . S
C488 C487 1.355 . S
C488 C490 1.419 . S
C489 C487 1.415 . S
C489 C494 1.425 . S
C489 C496 1.409 . S
C490 H482 0.930 . S
C490 C488 1.419 . S
C490 C491 1.362 . S
C491 H483 0.930 . S
C491 C490 1.362 . S
C491 C494 1.409 . S
C492 H484 0.930 . S
C492 C493 1.355 . S
C492 C494 1.415 . S
C493 C492 1.355 . S
C493 C495 1.419 . S
C494 C489 1.425 . S
C494 C491 1.409 . S
C494 C492 1.415 . S
C495 H485 0.930 . S
C495 C493 1.419 . S
C495 C496 1.362 . S
C496 H486 0.930 . S
C496 C489 1.409 . S
C496 C495 1.362 . S
H497 C503 0.930 . S
H498 C506 0.930 . S
H499 C507 0.930 . S
H500 C508 0.930 . S
H501 C511 0.930 . S
H502 C512 0.930 . S
C503 H497 0.930 . S
C503 C504 1.355 . S
C503 C505 1.415 . S
C504 C503 1.355 . S
C504 C506 1.419 . S
C505 C503 1.415 . S
C505 C510 1.425 . S
C505 C512 1.409 . S
C506 H498 0.930 . S
C506 C504 1.419 . S
C506 C507 1.362 . S
C507 H499 0.930 . S
C507 C506 1.362 . S
C507 C510 1.409 . S
C508 H500 0.930 . S
C508 C509 1.355 . S
C508 C510 1.415 . S
C509 C508 1.355 . S
C509 C511 1.419 . S
C510 C505 1.425 . S
C510 C507 1.409 . S
C510 C508 1.415 . S
C511 H501 0.930 . S
C511 C509 1.419 . S
C511 C512 1.362 . S
C512 H502 0.930 . S
C512 C505 1.409 . S
C512 C511 1.362 . S
H513 C519 0.930 . S
H514 C522 0.930 . S
H515 C523 0.930 . S
H516 C524 0.930 . S
H517 C527 0.930 . S
H518 C528 0.930 . S
C519 H513 0.930 . S
C519 C520 1.355 . S
C519 C521 1.415 . S
C520 C519 1.355 . S
C520 C522 1.419 . S
C521 C519 1.415 . S
C521 C526 1.425 . S
C521 C528 1.409 . S
C522 H514 0.930 . S
C522 C520 1.419 . S
C522 C523 1.362 . S
C523 H515 0.930 . S
C523 C522 1.362 . S
C523 C526 1.409 . S
C524 H516 0.930 . S
C524 C525 1.355 . S
C524 C526 1.415 . S
C525 C524 1.355 . S
C525 C527 1.419 . S
C526 C521 1.425 . S
C526 C523 1.409 . S
C526 C524 1.415 . S
C527 H517 0.930 . S
C527 C525 1.419 . S
C527 C528 1.362 . S
C528 H518 0.930 . S
C528 C521 1.409 . S
C528 C527 1.362 . S
H529 C535 0.930 . S
H530 C538 0.930 . S
H531 C539 0.930 . S
H532 C540 0.930 . S
H533 C543 0.930 . S
H534 C544 0.930 . S
C535 H529 0.930 . S
C535 C536 1.355 . S
C535 C537 1.415 . S
C536 C535 1.355 . S
C536 C538 1.419 . S
C537 C535 1.415 . S
C537 C542 1.425 . S
C537 C544 1.409 . S
C538 H530 0.930 . S
C538 C536 1.419 . S
C538 C539 1.362 . S
C539 H531 0.930 . S
C539 C538 1.362 . S
C539 C542 1.409 . S
C540 H532 0.930 . S
C540 C541 1.355 . S
C540 C542 1.415 . S
C541 C540 1.355 . S
C541 C543 1.419 . S
C542 C537 1.425 . S
C542 C539 1.409 . S
C542 C540 1.415 . S
C543 H533 0.930 . S
C543 C541 1.419 . S
C543 C544 1.362 . S
C544 H534 0.930 . S
C544 C537 1.409 . S
C544 C543 1.362 . S
H545 C551 0.930 . S
H546 C554 0.930 . S
H547 C555 0.930 . S
H548 C556 0.930 . S
H549 C559 0.930 . S
H550 C560 0.930 . S
C551 H545 0.930 . S
C551 C552 1.355 . S
C551 C553 1.415 . S
C552 C551 1.355 . S
C552 C554 1.419 . S
C553 C551 1.415 . S
C553 C558 1.425 . S
C553 C560 1.409 . S
C554 H546 0.930 . S
C554 C552 1.419 . S
C554 C555 1.362 . S
C555 H547 0.930 . S
C555 C554 1.362 . S
C555 C558 1.409 . S
C556 H548 0.930 . S
C556 C557 1.355 . S
C556 C558 1.415 . S
C557 C556 1.355 . S
C557 C559 1.419 . S
C558 C553 1.425 . S
C558 C555 1.409 . S
C558 C556 1.415 . S
C559 H549 0.930 . S
C559 C557 1.419 . S
C559 C560 1.362 . S
C560 H550 0.930 . S
C560 C553 1.409 . S
C560 C559 1.362 . S
H561 C567 0.930 . S
H562 C570 0.930 . S
H563 C571 0.930 . S
H564 C572 0.930 . S
H565 C575 0.930 . S
H566 C576 0.930 . S
C567 H561 0.930 . S
C567 C568 1.355 . S
C567 C569 1.415 . S
C568 C567 1.355 . S
C568 C570 1.419 . S
C569 C567 1.415 . S
C569 C574 1.425 . S
C569 C576 1.409 . S
C570 H562 0.930 . S
C570 C568 1.419 . S
C570 C571 1.362 . S
C571 H563 0.930 . S
C571 C570 1.362 . S
C571 C574 1.409 . S
C572 H564 0.930 . S
C572 C573 1.355 . S
C572 C574 1.415 . S
C573 C572 1.355 . S
C573 C575 1.419 . S
C574 C569 1.425 . S
C574 C571 1.409 . S
C574 C572 1.415 . S
C575 H565 0.930 . S
C575 C573 1.419 . S
C575 C576 1.362 . S
C576 H566 0.930 . S
C576 C569 1.409 . S
C576 C575 1.362 . S
H577 C583 0.930 . S
H578 C586 0.930 . S
H579 C587 0.930 . S
H580 C588 0.930 . S
H581 C591 0.930 . S
H582 C592 0.930 . S
C583 H577 0.930 . S
C583 C584 1.355 . S
C583 C585 1.415 . S
C584 C583 1.355 . S
C584 C586 1.419 . S
C585 C583 1.415 . S
C585 C590 1.425 . S
C585 C592 1.409 . S
C586 H578 0.930 . S
C586 C584 1.419 . S
C586 C587 1.362 . S
C587 H579 0.930 . S
C587 C586 1.362 . S
C587 C590 1.409 . S
C588 H580 0.930 . S
C588 C589 1.355 . S
C588 C590 1.415 . S
C589 C588 1.355 . S
C589 C591 1.419 . S
C590 C585 1.425 . S
C590 C587 1.409 . S
C590 C588 1.415 . S
C591 H581 0.930 . S
C591 C589 1.419 . S
C591 C592 1.362 . S
C592 H582 0.930 . S
C592 C585 1.409 . S
C592 C591 1.362 . S
H593 C599 0.930 . S
H594 C602 0.930 . S
H595 C603 0.930 . S
H596 C604 0.930 . S
H597 C607 0.930 . S
H598 C608 0.930 . S
C599 H593 0.930 . S
C599 C600 1.355 . S
C599 C601 1.415 . S
C600 C599 1.355 . S
C600 C602 1.419 . S
C601 C599 1.415 . S
C601 C606 1.425 . S
C601 C608 1.409 . S
C602 H594 0.930 . S
C602 C600 1.419 . S
C602 C603 1.362 . S
C603 H595 0.930 . S
C603 C602 1.362 . S
C603 C606 1.409 . S
C604 H596 0.930 . S
C604 C605 1.355 . S
C604 C606 1.415 . S
C605 C604 1.355 . S
C605 C607 1.419 . S
C606 C601 1.425 . S
C606 C603 1.409 . S
C606 C604 1.415 . S
C607 H597 0.930 . S
C607 C605 1.419 . S
C607 C608 1.362 . S
C608 H598 0.930 . S
C608 C601 1.409 . S
C608 C607 1.362 . S
H609 C615 0.930 . S
H610 C618 0.930 . S
H611 C619 0.930 . S
H612 C620 0.930 . S
H613 C623 0.930 . S
H614 C624 0.930 . S
C615 H609 0.930 . S
C615 C616 1.355 . S
C615 C617 1.415 . S
C616 C615 1.355 . S
C616 C618 1.419 . S
C617 C615 1.415 . S
C617 C622 1.425 . S
C617 C624 1.409 . S
C618 H610 0.930 . S
C618 C616 1.419 . S
C618 C619 1.362 . S
C619 H611 0.930 . S
C619 C618 1.362 . S
C619 C622 1.409 . S
C620 H612 0.930 . S
C620 C621 1.355 . S
C620 C622 1.415 . S
C621 C620 1.355 . S
C621 C623 1.419 . S
C622 C617 1.425 . S
C622 C619 1.409 . S
C622 C620 1.415 . S
C623 H613 0.930 . S
C623 C621 1.419 . S
C623 C624 1.362 . S
C624 H614 0.930 . S
C624 C617 1.409 . S
C624 C623 1.362 . S
H625 C631 0.930 . S
H626 C634 0.930 . S
H627 C635 0.930 . S
H628 C636 0.930 . S
H629 C639 0.930 . S
H630 C640 0.930 . S
C631 H625 0.930 . S
C631 C632 1.355 . S
C631 C633 1.415 . S
C632 C631 1.355 . S
C632 C634 1.419 . S
C633 C631 1.415 . S
C633 C638 1.425 . S
C633 C640 1.409 . S
C634 H626 0.930 . S
C634 C632 1.419 . S
C634 C635 1.362 . S
C635 H627 0.930 . S
C635 C634 1.362 . S
C635 C638 1.409 . S
C636 H628 0.930 . S
C636 C637 1.355 . S
C636 C638 1.415 . S
C637 C636 1.355 . S
C637 C639 1.419 . S
C638 C633 1.425 . S
C638 C635 1.409 . S
C638 C636 1.415 . S
C639 H629 0.930 . S
C639 C637 1.419 . S
C639 C640 1.362 . S
C640 H630 0.930 . S
C640 C633 1.409 . S
C640 C639 1.362 . S
H641 C647 0.930 . S
H642 C650 0.930 . S
H643 C651 0.930 . S
H644 C652 0.930 . S
H645 C655 0.930 . S
H646 C656 0.930 . S
C647 H641 0.930 . S
C647 C648 1.355 . S
C647 C649 1.415 . S
C648 C647 1.355 . S
C648 C650 1.419 . S
C649 C647 1.415 . S
C649 C654 1.425 . S
C649 C656 1.409 . S
C650 H642 0.930 . S
C650 C648 1.419 . S
C650 C651 1.362 . S
C651 H643 0.930 . S
C651 C650 1.362 . S
C651 C654 1.409 . S
C652 H644 0.930 . S
C652 C653 1.355 . S
C652 C654 1.415 . S
C653 C652 1.355 . S
C653 C655 1.419 . S
C654 C649 1.425 . S
C654 C651 1.409 . S
C654 C652 1.415 . S
C655 H645 0.930 . S
C655 C653 1.419 . S
C655 C656 1.362 . S
C656 H646 0.930 . S
C656 C649 1.409 . S
C656 C655 1.362 . S
H657 C663 0.930 . S
H658 C666 0.930 . S
H659 C667 0.930 . S
H660 C668 0.930 . S
H661 C671 0.930 . S
H662 C672 0.930 . S
C663 H657 0.930 . S
C663 C664 1.355 . S
C663 C665 1.415 . S
C664 C663 1.355 . S
C664 C666 1.419 . S
C665 C663 1.415 . S
C665 C670 1.425 . S
C665 C672 1.409 . S
C666 H658 0.930 . S
C666 C664 1.419 . S
C666 C667 1.362 . S
C667 H659 0.930 . S
C667 C666 1.362 . S
C667 C670 1.409 . S
C668 H660 0.930 . S
C668 C669 1.355 . S
C668 C670 1.415 . S
C669 C668 1.355 . S
C669 C671 1.419 . S
C670 C665 1.425 . S
C670 C667 1.409 . S
C670 C668 1.415 . S
C671 H661 0.930 . S
C671 C669 1.419 . S
C671 C672 1.362 . S
C672 H662 0.930 . S
C672 C665 1.409 . S
C672 C671 1.362 . S
H673 C679 0.930 . S
H674 C682 0.930 . S
H675 C683 0.930 . S
H676 C684 0.930 . S
H677 C687 0.930 . S
H678 C688 0.930 . S
C679 H673 0.930 . S
C679 C680 1.355 . S
C679 C681 1.415 . S
C680 C679 1.355 . S
C680 C682 1.419 . S
C681 C679 1.415 . S
C681 C686 1.425 . S
C681 C688 1.409 . S
C682 H674 0.930 . S
C682 C680 1.419 . S
C682 C683 1.362 . S
C683 H675 0.930 . S
C683 C682 1.362 . S
C683 C686 1.409 . S
C684 H676 0.930 . S
C684 C685 1.355 . S
C684 C686 1.415 . S
C685 C684 1.355 . S
C685 C687 1.419 . S
C686 C681 1.425 . S
C686 C683 1.409 . S
C686 C684 1.415 . S
C687 H677 0.930 . S
C687 C685 1.419 . S
C687 C688 1.362 . S
C688 H678 0.930 . S
C688 C681 1.409 . S
C688 C687 1.362 . S
H689 C695 0.930 . S
H690 C698 0.930 . S
H691 C699 0.930 . S
H692 C700 0.930 . S
H693 C703 0.930 . S
H694 C704 0.930 . S
C695 H689 0.930 . S
C695 C696 1.355 . S
C695 C697 1.415 . S
C696 C695 1.355 . S
C696 C698 1.419 . S
C697 C695 1.415 . S
C697 C702 1.425 . S
C697 C704 1.409 . S
C698 H690 0.930 . S
C698 C696 1.419 . S
C698 C699 1.362 . S
C699 H691 0.930 . S
C699 C698 1.362 . S
C699 C702 1.409 . S
C700 H692 0.930 . S
C700 C701 1.355 . S
C700 C702 1.415 . S
C701 C700 1.355 . S
C701 C703 1.419 . S
C702 C697 1.425 . S
C702 C699 1.409 . S
C702 C700 1.415 . S
C703 H693 0.930 . S
C703 C701 1.419 . S
C703 C704 1.362 . S
C704 H694 0.930 . S
C704 C697 1.409 . S
C704 C703 1.362 . S
H705 C711 0.930 1_554 S
H706 C714 0.930 . S
H707 C715 0.930 . S
H708 C716 0.930 . S
H709 C719 0.930 . S
H710 C720 0.930 . S
C711 H705 0.930 1_556 S
C711 C712 1.355 . S
C711 C713 1.415 . S
C712 C711 1.355 . S
C712 C714 1.419 . S
C713 C711 1.415 . S
C713 C718 1.425 . S
C713 C720 1.409 . S
C714 H706 0.930 . S
C714 C712 1.419 . S
C714 C715 1.362 . S
C715 H707 0.930 . S
C715 C714 1.362 . S
C715 C718 1.409 . S
C716 H708 0.930 . S
C716 C717 1.355 . S
C716 C718 1.415 . S
C717 C716 1.355 . S
C717 C719 1.419 . S
C718 C713 1.425 . S
C718 C715 1.409 . S
C718 C716 1.415 . S
C719 H709 0.930 . S
C719 C717 1.419 . S
C719 C720 1.362 . S
C720 H710 0.930 . S
C720 C713 1.409 . S
C720 C719 1.362 . S
H721 C727 0.930 . S
H722 C730 0.930 . S
H723 C731 0.930 . S
H724 C732 0.930 . S
H725 C735 0.930 . S
H726 C736 0.930 . S
C727 H721 0.930 . S
C727 C728 1.355 . S
C727 C729 1.415 . S
C728 C727 1.355 . S
C728 C730 1.419 . S
C729 C727 1.415 . S
C729 C734 1.425 . S
C729 C736 1.409 . S
C730 H722 0.930 . S
C730 C728 1.419 . S
C730 C731 1.362 . S
C731 H723 0.930 . S
C731 C730 1.362 . S
C731 C734 1.409 . S
C732 H724 0.930 . S
C732 C733 1.355 . S
C732 C734 1.415 . S
C733 C732 1.355 . S
C733 C735 1.419 . S
C734 C729 1.425 . S
C734 C731 1.409 . S
C734 C732 1.415 . S
C735 H725 0.930 . S
C735 C733 1.419 . S
C735 C736 1.362 . S
C736 H726 0.930 . S
C736 C729 1.409 . S
C736 C735 1.362 . S
H737 C743 0.930 . S
H738 C746 0.930 . S
H739 C747 0.930 . S
H740 C748 0.930 . S
H741 C751 0.930 . S
H742 C752 0.930 . S
C743 H737 0.930 . S
C743 C744 1.355 . S
C743 C745 1.415 . S
C744 C743 1.355 . S
C744 C746 1.419 . S
C745 C743 1.415 . S
C745 C750 1.425 . S
C745 C752 1.409 . S
C746 H738 0.930 . S
C746 C744 1.419 . S
C746 C747 1.362 . S
C747 H739 0.930 . S
C747 C746 1.362 . S
C747 C750 1.409 . S
C748 H740 0.930 . S
C748 C749 1.355 . S
C748 C750 1.415 . S
C749 C748 1.355 . S
C749 C751 1.419 . S
C750 C745 1.425 . S
C750 C747 1.409 . S
C750 C748 1.415 . S
C751 H741 0.930 . S
C751 C749 1.419 . S
C751 C752 1.362 . S
C752 H742 0.930 . S
C752 C745 1.409 . S
C752 C751 1.362 . S
H753 C759 0.930 . S
H754 C762 0.930 . S
H755 C763 0.930 . S
H756 C764 0.930 . S
H757 C767 0.930 . S
H758 C768 0.930 . S
C759 H753 0.930 . S
C759 C760 1.355 . S
C759 C761 1.415 . S
C760 C759 1.355 . S
C760 C762 1.419 . S
C761 C759 1.415 . S
C761 C766 1.425 . S
C761 C768 1.409 . S
C762 H754 0.930 . S
C762 C760 1.419 . S
C762 C763 1.362 . S
C763 H755 0.930 . S
C763 C762 1.362 . S
C763 C766 1.409 . S
C764 H756 0.930 . S
C764 C765 1.355 . S
C764 C766 1.415 . S
C765 C764 1.355 . S
C765 C767 1.419 . S
C766 C761 1.425 . S
C766 C763 1.409 . S
C766 C764 1.415 . S
C767 H757 0.930 . S
C767 C765 1.419 . S
C767 C768 1.362 . S
C768 H758 0.930 . S
C768 C761 1.409 . S
C768 C767 1.362 . S
H769 C775 0.930 . S
H770 C778 0.930 . S
H771 C779 0.930 . S
H772 C780 0.930 . S
H773 C783 0.930 . S
H774 C784 0.930 . S
C775 H769 0.930 . S
C775 C776 1.355 . S
C775 C777 1.415 . S
C776 C775 1.355 . S
C776 C778 1.419 . S
C777 C775 1.415 . S
C777 C782 1.425 . S
C777 C784 1.409 . S
C778 H770 0.930 . S
C778 C776 1.419 . S
C778 C779 1.362 . S
C779 H771 0.930 . S
C779 C778 1.362 . S
C779 C782 1.409 . S
C780 H772 0.930 . S
C780 C781 1.355 . S
C780 C782 1.415 . S
C781 C780 1.355 . S
C781 C783 1.419 . S
C782 C777 1.425 . S
C782 C779 1.409 . S
C782 C780 1.415 . S
C783 H773 0.930 . S
C783 C781 1.419 . S
C783 C784 1.362 . S
C784 H774 0.930 . S
C784 C777 1.409 . S
C784 C783 1.362 . S
H785 C791 0.930 . S
H786 C794 0.930 . S
H787 C795 0.930 . S
H788 C796 0.930 . S
H789 C799 0.930 . S
H790 C800 0.930 . S
C791 H785 0.930 . S
C791 C792 1.355 . S
C791 C793 1.415 . S
C792 C791 1.355 . S
C792 C794 1.419 . S
C793 C791 1.415 . S
C793 C798 1.425 . S
C793 C800 1.409 . S
C794 H786 0.930 . S
C794 C792 1.419 . S
C794 C795 1.362 . S
C795 H787 0.930 . S
C795 C794 1.362 . S
C795 C798 1.409 . S
C796 H788 0.930 . S
C796 C797 1.355 . S
C796 C798 1.415 . S
C797 C796 1.355 . S
C797 C799 1.419 . S
C798 C793 1.425 . S
C798 C795 1.409 . S
C798 C796 1.415 . S
C799 H789 0.930 . S
C799 C797 1.419 . S
C799 C800 1.362 . S
C800 H790 0.930 . S
C800 C793 1.409 . S
C800 C799 1.362 . S
H801 C807 0.930 . S
H802 C810 0.930 . S
H803 C811 0.930 . S
H804 C812 0.930 . S
H805 C815 0.930 . S
H806 C816 0.930 . S
C807 H801 0.930 . S
C807 C808 1.355 . S
C807 C809 1.415 . S
C808 C807 1.355 . S
C808 C810 1.419 . S
C809 C807 1.415 . S
C809 C814 1.425 . S
C809 C816 1.409 . S
C810 H802 0.930 . S
C810 C808 1.419 . S
C810 C811 1.362 . S
C811 H803 0.930 . S
C811 C810 1.362 . S
C811 C814 1.409 . S
C812 H804 0.930 . S
C812 C813 1.355 . S
C812 C814 1.415 . S
C813 C812 1.355 . S
C813 C815 1.419 . S
C814 C809 1.425 . S
C814 C811 1.409 . S
C814 C812 1.415 . S
C815 H805 0.930 . S
C815 C813 1.419 . S
C815 C816 1.362 . S
C816 H806 0.930 . S
C816 C809 1.409 . S
C816 C815 1.362 . S
H817 C823 0.930 . S
H818 C826 0.930 . S
H819 C827 0.930 . S
H820 C828 0.930 . S
H821 C831 0.930 . S
H822 C832 0.930 . S
C823 H817 0.930 . S
C823 C824 1.355 . S
C823 C825 1.415 . S
C824 C823 1.355 . S
C824 C826 1.419 . S
C825 C823 1.415 . S
C825 C830 1.425 . S
C825 C832 1.409 . S
C826 H818 0.930 . S
C826 C824 1.419 . S
C826 C827 1.362 . S
C827 H819 0.930 . S
C827 C826 1.362 . S
C827 C830 1.409 . S
C828 H820 0.930 . S
C828 C829 1.355 . S
C828 C830 1.415 . S
C829 C828 1.355 . S
C829 C831 1.419 . S
C830 C825 1.425 . S
C830 C827 1.409 . S
C830 C828 1.415 . S
C831 H821 0.930 . S
C831 C829 1.419 . S
C831 C832 1.362 . S
C832 H822 0.930 . S
C832 C825 1.409 . S
C832 C831 1.362 . S
H833 C839 0.930 . S
H834 C842 0.930 . S
H835 C843 0.930 . S
H836 C844 0.930 . S
H837 C847 0.930 . S
H838 C848 0.930 . S
C839 H833 0.930 . S
C839 C840 1.355 . S
C839 C841 1.415 . S
C840 C839 1.355 . S
C840 C842 1.419 . S
C841 C839 1.415 . S
C841 C846 1.425 . S
C841 C848 1.409 . S
C842 H834 0.930 . S
C842 C840 1.419 . S
C842 C843 1.362 . S
C843 H835 0.930 . S
C843 C842 1.362 . S
C843 C846 1.409 . S
C844 H836 0.930 . S
C844 C845 1.355 . S
C844 C846 1.415 . S
C845 C844 1.355 . S
C845 C847 1.419 . S
C846 C841 1.425 . S
C846 C843 1.409 . S
C846 C844 1.415 . S
C847 H837 0.930 . S
C847 C845 1.419 . S
C847 C848 1.362 . S
C848 H838 0.930 . S
C848 C841 1.409 . S
C848 C847 1.362 . S
C472 C47 1.912 . S
C477 C372 2.041 . S
C488 C91 1.774 . S
C493 C404 1.860 . S
C509 C463 1.830 . S
C504 C177 1.942 . S
C525 C392 1.646 . S
C520 C215 1.653 . S
C536 C295 1.765 . S
C541 C422 1.825 . S
C557 C444 1.190 . S
C552 C345 1.099 . S
C573 C413 2.031 . S
C568 C153 1.853 . S
C584 C239 1.245 . S
C589 C453 1.227 . S
C605 C402 1.537 . S
C600 C283 1.610 . S
C616 C357 1.723 . S
C621 C432 1.762 . S
C632 C35 1.822 1_556 S
C637 C435 1.764 . S
C653 C374 1.568 . S
C648 C115 1.570 . S
C669 C382 1.570 . S
C664 C221 1.587 . S
C685 C423 1.456 . S
C680 C301 1.454 . S
C701 C436 2.153 . S
C696 C339 2.120 1_556 S
C717 C373 1.438 . S
C712 C53 1.524 1_556 S
C733 C433 1.542 . S
C728 C97 1.613 . S
C744 C171 1.485 . S
C749 C434 1.524 . S
C765 C403 1.501 . S
C760 C363 1.596 . S
C781 C464 1.530 . S
C776 C29 1.427 . S
C797 C391 1.857 . S
C792 C109 1.797 . S
C813 C405 1.492 . S
C808 C159 1.586 . S
C824 C233 2.021 . S
C829 C454 2.079 . S
C840 C277 1.730 . S
C845 C401 1.904 . S
