# Generated by pormake.
# Topology anh, (6,3)-cn, num edge types: 1
# Building blocks:
#     Node 0, Type 0, BuildingBlock: BETDEL_clean_sbu_0, # of connection points: 6
#     Node 1, Type 0, BuildingBlock: BETDEL_clean_sbu_0, # of connection points: 6
#     Node 2, Type 0, BuildingBlock: BETDEL_clean_sbu_0, # of connection points: 6
#     Node 3, Type 1, BuildingBlock: KAKCAD_clean_linker_0, # of connection points: 3
#     Node 4, Type 1, BuildingBlock: KAKCAD_clean_linker_0, # of connection points: 3
#     Node 5, Type 1, BuildingBlock: KAKCAD_clean_linker_0, # of connection points: 3
#     Node 6, Type 1, BuildingBlock: KAKCAD_clean_linker_0, # of connection points: 3
#     Node 7, Type 1, BuildingBlock: KAKCAD_clean_linker_0, # of connection points: 3
#     Node 8, Type 1, BuildingBlock: KAKCAD_clean_linker_0, # of connection points: 3
#     Edge 9, Type (0, 1), BuildingBlock: OJICUG_clean_linker_0, # of connection points: 2
#     Edge 10, Type (0, 1), BuildingBlock: OJICUG_clean_linker_0, # of connection points: 2
#     Edge 11, Type (0, 1), BuildingBlock: OJICUG_clean_linker_0, # of connection points: 2
#     Edge 12, Type (0, 1), BuildingBlock: OJICUG_clean_linker_0, # of connection points: 2
#     Edge 13, Type (0, 1), BuildingBlock: OJICUG_clean_linker_0, # of connection points: 2
#     Edge 14, Type (0, 1), BuildingBlock: OJICUG_clean_linker_0, # of connection points: 2
#     Edge 15, Type (0, 1), BuildingBlock: OJICUG_clean_linker_0, # of connection points: 2
#     Edge 16, Type (0, 1), BuildingBlock: OJICUG_clean_linker_0, # of connection points: 2
#     Edge 17, Type (0, 1), BuildingBlock: OJICUG_clean_linker_0, # of connection points: 2
#     Edge 18, Type (0, 1), BuildingBlock: OJICUG_clean_linker_0, # of connection points: 2
#     Edge 19, Type (0, 1), BuildingBlock: OJICUG_clean_linker_0, # of connection points: 2
#     Edge 20, Type (0, 1), BuildingBlock: OJICUG_clean_linker_0, # of connection points: 2
#     Edge 21, Type (0, 1), BuildingBlock: OJICUG_clean_linker_0, # of connection points: 2
#     Edge 22, Type (0, 1), BuildingBlock: OJICUG_clean_linker_0, # of connection points: 2
#     Edge 23, Type (0, 1), BuildingBlock: OJICUG_clean_linker_0, # of connection points: 2
#     Edge 24, Type (0, 1), BuildingBlock: OJICUG_clean_linker_0, # of connection points: 2
#     Edge 25, Type (0, 1), BuildingBlock: OJICUG_clean_linker_0, # of connection points: 2
#     Edge 26, Type (0, 1), BuildingBlock: OJICUG_clean_linker_0, # of connection points: 2
# Relax obj value: 0.148
# Max RMSD: 0.167
# Mean RMSD: 0.136
data_MOF--net-anh--node1-BETDEL_clean_sbu_0--node2-KAKCAD_clean_linker_0--edge1-OJICUG_clean_linker_0
_symmetry_space_group_name_H-M    P1
_symmetry_Int_Tables_number       1
_symmetry_cell_setting            triclinic
loop_
_symmetry_equiv_pos_as_xyz
'x, y, z'
_cell_length_a     28.162743
_cell_length_b     28.139856
_cell_length_c     50.055577
_cell_angle_alpha  89.964187
_cell_angle_beta   90.1279
_cell_angle_gamma 120.05831
loop_
_atom_site_label
_atom_site_type_symbol
_atom_site_fract_x
_atom_site_fract_y
_atom_site_fract_z
_atom_type_partial_charge
Dy0 Dy 0.07932 0.49322 0.16673 0.0
C1 C 0.94065 0.57185 0.18527 0.0
C2 C 0.16045 0.46896 0.16377 0.0
Dy3 Dy 0.01724 0.54918 0.16691 0.0
O4 O 0.12427 0.45251 0.18252 0.0
O5 O 0.14976 0.49531 0.14576 0.0
O6 O 0.04271 0.45824 0.20652 0.0
O7 O 0.06586 0.53991 0.19769 0.0
C8 C 0.04529 0.50278 0.21513 0.0
C9 C 0.02794 0.53371 0.11494 0.0
O10 O 0.09863 0.62637 0.17202 0.0
O11 O 0.1485 0.58249 0.16565 0.0
O12 O 0.97802 0.60082 0.16765 0.0
O13 O 0.94917 0.53373 0.19443 0.0
O14 O 1.00365 0.55918 0.1239 0.0
O15 O 0.04692 0.51876 0.13403 0.0
O16 O 0.99968 0.41949 0.1541 0.0
O17 O 0.95188 0.45922 0.17073 0.0
C18 C 0.14612 0.62814 0.16873 0.0
C19 C 0.95283 0.41548 0.16169 0.0
Dy20 Dy 0.46527 0.01728 0.5018 0.0
C21 C 0.68655 0.15424 0.51537 0.0
C22 C 0.35893 0.93837 0.50298 0.0
Dy23 Dy 0.58504 0.07886 0.49911 0.0
O24 O 0.39165 0.95446 0.52328 0.0
O25 O 0.38384 0.96739 0.48201 0.0
O26 O 0.47341 0.0593 0.54086 0.0
O27 O 0.529 0.03288 0.53094 0.0
C28 C 0.51559 0.05593 0.54851 0.0
C29 C 0.55153 0.06412 0.4481 0.0
O30 O 0.57785 0.99665 0.5055 0.0
O31 O 0.48532 0.94883 0.49527 0.0
O32 O 0.67574 0.1164 0.49756 0.0
O33 O 0.64136 0.14745 0.52558 0.0
O34 O 0.60261 0.08887 0.45521 0.0
O35 O 0.52088 0.04751 0.46836 0.0
O36 O 0.47119 0.09817 0.49191 0.0
O37 O 0.56265 0.1456 0.50356 0.0
C38 C 0.53235 0.94996 0.50015 0.0
C39 C 0.51646 0.14495 0.49748 0.0
Dy40 Dy 0.60281 0.6222 0.83328 0.0
C41 C 0.5219 0.40707 0.84405 0.0
C42 C 0.63233 0.7296 0.83355 0.0
Dy43 Dy 0.54675 0.51071 0.83213 0.0
O44 O 0.62048 0.69888 0.85441 0.0
O45 O 0.63067 0.70216 0.81239 0.0
O46 O 0.63774 0.61608 0.87255 0.0
O47 O 0.55394 0.56387 0.86452 0.0
C48 C 0.59122 0.57775 0.88162 0.0
C49 C 0.55093 0.54672 0.78245 0.0
O50 O 0.4714 0.51627 0.8405 0.0
O51 O 0.51583 0.60523 0.82609 0.0
O52 O 0.50264 0.42108 0.82386 0.0
O53 O 0.55162 0.4496 0.85878 0.0
O54 O 0.50929 0.50394 0.79273 0.0
O55 O 0.59089 0.56827 0.7989 0.0
O56 O 0.68104 0.62115 0.82659 0.0
O57 O 0.63509 0.52808 0.83282 0.0
C58 C 0.46975 0.56053 0.83314 0.0
C59 C 0.68186 0.5749 0.82945 0.0
C60 C 0.55275 0.08212 0.31841 0.0
C61 C 0.52844 0.03388 0.33398 0.0
C62 C 0.557 0.07986 0.29065 0.0
C63 C 0.53821 0.02941 0.27747 0.0
C64 C 0.51445 0.98115 0.29298 0.0
C65 C 0.50911 0.98329 0.32071 0.0
C66 C 0.54257 0.02721 0.24769 0.0
C67 C 0.58727 0.06903 0.23386 0.0
C68 C 0.59075 0.06981 0.20569 0.0
C69 C 0.54908 0.02388 0.19127 0.0
C70 C 0.50453 0.97969 0.20514 0.0
C71 C 0.50151 0.98357 0.23306 0.0
C72 C 0.45976 0.92782 0.19232 0.0
C73 C 0.42562 0.92822 0.17177 0.0
C74 C 0.44445 0.87701 0.20462 0.0
C75 C 0.39471 0.82959 0.19853 0.0
C76 C 0.35844 0.83048 0.17948 0.0
C77 C 0.6388 0.11982 0.19298 0.0
C78 C 0.65748 0.17206 0.2045 0.0
C79 C 0.67031 0.11651 0.17192 0.0
C80 C 0.7208 0.16305 0.16426 0.0
C81 C 0.74133 0.21392 0.17765 0.0
C82 C 0.70767 0.21773 0.19724 0.0
C83 C 0.37567 0.87995 0.16529 0.0
H84 H 0.56953 0.12215 0.32759 0.0
H85 H 0.57478 0.11795 0.27954 0.0
H86 H 0.50021 0.94145 0.28376 0.0
H87 H 0.48953 0.94498 0.33164 0.0
H88 H 0.62027 0.10141 0.24531 0.0
H89 H 0.46605 0.95201 0.24353 0.0
H90 H 0.55128 0.02247 0.16971 0.0
H91 H 0.43574 0.96639 0.1619 0.0
H92 H 0.46976 0.87462 0.2203 0.0
H93 H 0.38387 0.79224 0.20942 0.0
H94 H 0.63396 0.1775 0.22008 0.0
H95 H 0.65746 0.07748 0.16227 0.0
H96 H 0.34914 0.88218 0.15027 0.0
H97 H 0.72058 0.25623 0.20747 0.0
H98 H 0.74497 0.15844 0.14877 0.0
C99 C 0.52223 0.58053 0.65464 0.0
C100 C 0.55929 0.5684 0.66738 0.0
C101 C 0.5167 0.57726 0.62682 0.0
C102 C 0.54779 0.56126 0.61112 0.0
C103 C 0.58522 0.54951 0.62402 0.0
C104 C 0.59094 0.55312 0.65189 0.0
C105 C 0.54082 0.55681 0.58147 0.0
C106 C 0.53517 0.59653 0.56729 0.0
C107 C 0.52601 0.59284 0.53951 0.0
C108 C 0.52497 0.54819 0.52543 0.0
C109 C 0.53211 0.50793 0.53944 0.0
C110 C 0.5391 0.51289 0.56743 0.0
C111 C 0.53335 0.46013 0.52633 0.0
C112 C 0.49054 0.42169 0.50992 0.0
C113 C 0.57453 0.44825 0.53382 0.0
C114 C 0.57146 0.39855 0.52681 0.0
C115 C 0.52659 0.35773 0.51223 0.0
C116 C 0.51799 0.63721 0.52691 0.0
C117 C 0.48574 0.65502 0.54043 0.0
C118 C 0.54857 0.66826 0.50471 0.0
C119 C 0.5499 0.71776 0.49768 0.0
C120 C 0.52128 0.73763 0.51293 0.0
C121 C 0.48786 0.70441 0.53381 0.0
C122 C 0.48715 0.37116 0.50299 0.0
H123 H 0.49662 0.59132 0.6663 0.0
H124 H 0.48692 0.58585 0.61765 0.0
H125 H 0.61007 0.53747 0.61256 0.0
H126 H 0.61898 0.54254 0.66143 0.0
H127 H 0.53862 0.63147 0.57813 0.0
H128 H 0.54238 0.48155 0.57852 0.0
H129 H 0.51886 0.54489 0.504 0.0
H130 H 0.45802 0.4292 0.50372 0.0
H131 H 0.60865 0.47696 0.5461 0.0
H132 H 0.60432 0.392 0.53345 0.0
H133 H 0.46074 0.63196 0.5573 0.0
H134 H 0.57395 0.65613 0.49379 0.0
H135 H 0.45214 0.3417 0.49148 0.0
H136 H 0.46417 0.71737 0.54561 0.0
H137 H 0.57567 0.74195 0.48126 0.0
C138 C 0.11365 0.57795 0.98871 0.0
C139 C 0.06537 0.53908 0.00154 0.0
C140 C 0.1156 0.58229 0.96082 0.0
C141 C 0.06893 0.54858 0.94527 0.0
C142 C 0.02073 0.50953 0.95819 0.0
C143 C 0.01913 0.50453 0.98605 0.0
C144 C 0.07068 0.55429 0.91566 0.0
C145 C 0.11468 0.55749 0.90134 0.0
C146 C 0.11903 0.56488 0.87345 0.0
C147 C 0.07549 0.56651 0.8595 0.0
C148 C 0.02939 0.5619 0.87376 0.0
C149 C 0.02881 0.55692 0.90183 0.0
C150 C 0.98023 0.56106 0.86086 0.0
C151 C 0.98484 0.60043 0.84197 0.0
C152 C 0.92724 0.52381 0.87042 0.0
C153 C 0.88116 0.52709 0.8626 0.0
C154 C 0.88546 0.56737 0.84451 0.0
C155 C 0.1704 0.57105 0.8606 0.0
C156 C 0.22123 0.60292 0.87369 0.0
C157 C 0.16927 0.53997 0.83825 0.0
C158 C 0.21689 0.53847 0.83042 0.0
C159 C 0.26685 0.5686 0.84454 0.0
C160 C 0.26822 0.60148 0.86594 0.0
C161 C 0.93813 0.60373 0.83402 0.0
H162 H 0.14964 0.60538 1.0003 0.0
H163 H 0.15322 0.61298 0.95145 0.0
H164 H 0.98428 0.48279 0.94672 0.0
H165 H 0.98122 0.47484 0.99558 0.0
H166 H 0.14592 0.55363 0.91223 0.0
H167 H 0.99555 0.55574 0.91324 0.0
H168 H 0.07742 0.57121 0.838 0.0
H169 H 0.02473 0.63003 0.83418 0.0
H170 H 0.92143 0.49259 0.88481 0.0
H171 H 0.84207 0.49872 0.87157 0.0
H172 H 0.22433 0.62776 0.89086 0.0
H173 H 0.13113 0.51484 0.82765 0.0
H174 H 0.94334 0.635 0.8198 0.0
H175 H 0.30549 0.62487 0.87748 0.0
H176 H 0.21446 0.51322 0.81357 0.0
C177 C 0.98049 0.52284 0.33983 0.0
C178 C 0.02975 0.5362 0.32703 0.0
C179 C 0.9787 0.52566 0.36762 0.0
C180 C 0.02598 0.54074 0.3831 0.0
C181 C 0.07543 0.55444 0.36997 0.0
C182 C 0.07734 0.5526 0.34216 0.0
C183 C 0.02362 0.54178 0.41277 0.0
C184 C 0.97623 0.50361 0.42661 0.0
C185 C 0.97389 0.50557 0.4546 0.0
C186 C 0.01914 0.54483 0.46873 0.0
C187 C 0.06676 0.58171 0.45549 0.0
C188 C 0.06889 0.58088 0.42753 0.0
C189 C 0.11313 0.62278 0.47112 0.0
C190 C 0.10392 0.65139 0.49157 0.0
C191 C 0.16674 0.63567 0.46487 0.0
C192 C 0.21076 0.68083 0.47677 0.0
C193 C 0.20107 0.71303 0.49486 0.0
C194 C 0.92576 0.46505 0.46962 0.0
C195 C 0.87258 0.44678 0.46001 0.0
C196 C 0.93322 0.4428 0.49338 0.0
C197 C 0.8887 0.40006 0.50611 0.0
C198 C 0.83654 0.37797 0.49479 0.0
C199 C 0.82802 0.40316 0.47253 0.0
C200 C 0.14789 0.6961 0.50361 0.0
H201 H 0.94334 0.50983 0.32832 0.0
H202 H 0.9402 0.51594 0.37691 0.0
H203 H 0.11246 0.56524 0.38114 0.0
H204 H 0.11553 0.56226 0.33249 0.0
H205 H 0.94182 0.47144 0.41577 0.0
H206 H 0.10528 0.61177 0.41738 0.0
H207 H 0.0175 0.5466 0.49032 0.0
H208 H 0.06283 0.6421 0.49677 0.0
H209 H 0.17449 0.61292 0.44972 0.0
H210 H 0.25199 0.69375 0.46997 0.0
H211 H 0.86574 0.46434 0.44216 0.0
H212 H 0.97375 0.4556 0.50121 0.0
H213 H 0.13996 0.72103 0.51738 0.0
H214 H 0.78766 0.38614 0.46359 0.0
H215 H 0.89596 0.38045 0.52303 0.0
C216 C 0.52772 0.01743 0.67554 0.0
C217 C 0.55997 0.06561 0.66091 0.0
C218 C 0.53064 0.018 0.70339 0.0
C219 C 0.5666 0.06662 0.71717 0.0
C220 C 0.59986 0.11446 0.70232 0.0
C221 C 0.5962 0.11405 0.6745 0.0
C222 C 0.56891 0.06754 0.74687 0.0
C223 C 0.5621 0.02156 0.76118 0.0
C224 C 0.5633 0.02203 0.78922 0.0
C225 C 0.57248 0.06876 0.80298 0.0
C226 C 0.58034 0.11507 0.78923 0.0
C227 C 0.57784 0.11431 0.7612 0.0
C228 C 0.58919 0.16329 0.80455 0.0
C229 C 0.55733 0.15636 0.82737 0.0
C230 C 0.62793 0.21628 0.7961 0.0
C231 C 0.63071 0.26164 0.80867 0.0
C232 C 0.59465 0.25409 0.82967 0.0
C233 C 0.55893 0.97531 0.80431 0.0
C234 C 0.52165 0.92147 0.79631 0.0
C235 C 0.59525 0.98458 0.82561 0.0
C236 C 0.59833 0.94106 0.83674 0.0
C237 C 0.56592 0.88837 0.82627 0.0
C238 C 0.52521 0.87803 0.80727 0.0
C239 C 0.56054 0.20166 0.84005 0.0
H240 H 0.49892 0.97971 0.66549 0.0
H241 H 0.50368 0.98058 0.71409 0.0
H242 H 0.62892 0.15234 0.71213 0.0
H243 H 0.62179 0.15161 0.66356 0.0
H244 H 0.55762 0.98601 0.75055 0.0
H245 H 0.58142 0.14962 0.75069 0.0
H246 H 0.57402 0.06925 0.82462 0.0
H247 H 0.52701 0.11588 0.83429 0.0
H248 H 0.65396 0.2225 0.77901 0.0
H249 H 0.65712 0.30215 0.80042 0.0
H250 H 0.49224 0.91335 0.78049 0.0
H251 H 0.62451 0.02575 0.8322 0.0
H252 H 0.53188 0.19519 0.85597 0.0
H253 H 0.49976 0.83714 0.79918 0.0
H254 H 0.63014 0.94949 0.8513 0.0
C255 C 0.57026 0.49658 0.00698 0.0
C256 C 0.56011 0.53488 0.99405 0.0
C257 C 0.56769 0.49225 0.03475 0.0
C258 C 0.55516 0.52632 0.05007 0.0
C259 C 0.54454 0.56433 0.03707 0.0
C260 C 0.54684 0.56845 0.0093 0.0
C261 C 0.55356 0.52255 0.07955 0.0
C262 C 0.59332 0.5163 0.09354 0.0
C263 C 0.59184 0.51324 0.1215 0.0
C264 C 0.55152 0.51749 0.13546 0.0
C265 C 0.51139 0.52304 0.1219 0.0
C266 C 0.51223 0.52524 0.09388 0.0
C267 C 0.46816 0.52524 0.13725 0.0
C268 C 0.44611 0.49249 0.16018 0.0
C269 C 0.44812 0.55939 0.12892 0.0
C270 C 0.40411 0.55781 0.14206 0.0
C271 C 0.38002 0.52273 0.16408 0.0
C272 C 0.63278 0.50662 0.13654 0.0
C273 C 0.64739 0.46809 0.12838 0.0
C274 C 0.6576 0.53922 0.15919 0.0
C275 C 0.69961 0.53647 0.17223 0.0
C276 C 0.71771 0.50159 0.16257 0.0
C277 C 0.68946 0.46527 0.14148 0.0
C278 C 0.40296 0.49198 0.17375 0.0
H279 H 0.58004 0.46988 0.9956 0.0
H280 H 0.5752 0.462 0.0442 0.0
H281 H 0.53559 0.5917 0.04839 0.0
H282 H 0.53969 0.59892 0.9998 0.0
H283 H 0.62612 0.51517 0.08281 0.0
H284 H 0.48006 0.52774 0.08317 0.0
H285 H 0.55135 0.51616 0.15709 0.0
H286 H 0.46038 0.46529 0.16703 0.0
H287 H 0.46523 0.58602 0.11173 0.0
H288 H 0.38686 0.58142 0.13374 0.0
H289 H 0.62755 0.44151 0.1114 0.0
H290 H 0.64681 0.56919 0.1659 0.0
H291 H 0.38545 0.46503 0.1908 0.0
H292 H 0.70258 0.43762 0.13393 0.0
H293 H 0.72112 0.56527 0.18826 0.0
C294 C 0.22886 0.44128 0.17422 0.0
C295 C 0.21609 0.4823 0.16924 0.0
H296 H 0.29295 0.4223 0.17666 0.0
C297 C 0.2571 0.53774 0.16969 0.0
H298 H 0.19697 0.39851 0.17491 0.0
C299 C 0.3116 0.55184 0.17206 0.0
C300 C 0.32538 0.51042 0.17289 0.0
H301 H 0.24713 0.57003 0.16714 0.0
H302 H 0.343 0.59476 0.1708 0.0
C303 C 0.28365 0.45522 0.17579 0.0
C304 C 0.74623 0.24822 0.53272 0.0
C305 C 0.73231 0.20957 0.51215 0.0
H306 H 0.79101 0.33374 0.54324 0.0
C307 C 0.75161 0.22698 0.48618 0.0
H308 H 0.73014 0.23533 0.5527 0.0
C309 C 0.78304 0.28234 0.48058 0.0
C310 C 0.79682 0.3211 0.50098 0.0
H311 H 0.73978 0.19809 0.46977 0.0
H312 H 0.79738 0.29489 0.46032 0.0
C313 C 0.77945 0.30402 0.52724 0.0
C314 C 0.62434 0.79981 0.80814 0.0
C315 C 0.62548 0.77743 0.83288 0.0
H316 H 0.60281 0.85195 0.78689 0.0
C317 C 0.60903 0.79349 0.85609 0.0
H318 H 0.63656 0.78773 0.79003 0.0
C319 C 0.58909 0.82975 0.85424 0.0
C320 C 0.58507 0.84935 0.82916 0.0
H321 H 0.60907 0.77607 0.8754 0.0
H322 H 0.57559 0.84133 0.87208 0.0
C323 C 0.60405 0.83544 0.80628 0.0
C324 C 0.84775 0.54636 0.20171 0.0
C325 C 0.88441 0.55784 0.1806 0.0
H326 H 0.76413 0.51829 0.21252 0.0
C327 C 0.86502 0.54492 0.15431 0.0
H328 H 0.86215 0.55399 0.22219 0.0
C329 C 0.80983 0.52266 0.14892 0.0
C330 C 0.77301 0.51351 0.16971 0.0
H331 H 0.89243 0.55079 0.13786 0.0
H332 H 0.79648 0.51489 0.12827 0.0
C333 C 0.79208 0.52505 0.19623 0.0
C334 C 0.29343 0.85126 0.52493 0.0
C335 C 0.312 0.88332 0.50163 0.0
H336 H 0.2436 0.77029 0.541 0.0
C337 C 0.29365 0.85908 0.47656 0.0
H338 H 0.30789 0.86939 0.54448 0.0
C339 C 0.25906 0.80296 0.47465 0.0
C340 C 0.24188 0.77064 0.49779 0.0
H341 H 0.30803 0.88295 0.45835 0.0
H342 H 0.24528 0.78476 0.45505 0.0
C343 C 0.25792 0.79491 0.52301 0.0
C344 C 0.53488 0.343 0.81651 0.0
C345 C 0.53385 0.36264 0.84207 0.0
H346 H 0.55805 0.29551 0.79269 0.0
C347 C 0.55517 0.3481 0.86397 0.0
H348 H 0.5201 0.35481 0.79916 0.0
C349 C 0.57688 0.31356 0.86019 0.0
C350 C 0.57915 0.29553 0.83438 0.0
H351 H 0.55583 0.3641 0.88373 0.0
H352 H 0.59204 0.3012 0.87719 0.0
C353 C 0.55796 0.31035 0.81266 0.0
C354 C 0.53974 0.87946 0.52766 0.0
C355 C 0.5325 0.89707 0.50251 0.0
H356 H 0.54162 0.81599 0.55057 0.0
C357 C 0.52418 0.86309 0.48025 0.0
H358 H 0.54628 0.90468 0.54516 0.0
C359 C 0.52261 0.81233 0.48323 0.0
C360 C 0.52775 0.79369 0.50865 0.0
H361 H 0.51885 0.87578 0.46057 0.0
H362 H 0.51564 0.7869 0.46578 0.0
C363 C 0.53686 0.82844 0.53073 0.0
C364 C 0.78678 0.62319 0.83203 0.0
C365 C 0.73526 0.5745 0.83051 0.0
H366 H 0.87421 0.65959 0.83752 0.0
C367 C 0.73477 0.52424 0.83151 0.0
H368 H 0.78917 0.6628 0.83139 0.0
C369 C 0.78339 0.52242 0.83485 0.0
C370 C 0.83478 0.57077 0.83752 0.0
H371 H 0.69639 0.48573 0.83017 0.0
H372 H 0.78045 0.48258 0.83572 0.0
C373 C 0.83579 0.62135 0.83545 0.0
C374 C 0.22853 0.7104 0.14816 0.0
C375 C 0.19847 0.68176 0.17093 0.0
H376 H 0.30196 0.78013 0.13277 0.0
C377 C 0.22012 0.7036 0.19618 0.0
H378 H 0.21283 0.69449 0.12841 0.0
C379 C 0.2712 0.75199 0.1987 0.0
C380 C 0.30216 0.78055 0.17604 0.0
H381 H 0.19795 0.68254 0.21407 0.0
H382 H 0.28666 0.76706 0.21858 0.0
C383 C 0.27951 0.75954 0.15066 0.0
C384 C 0.49101 0.21631 0.48223 0.0
C385 C 0.5152 0.1973 0.50093 0.0
H386 H 0.47685 0.28185 0.47035 0.0
C387 C 0.54064 0.23007 0.52346 0.0
H388 H 0.47113 0.19215 0.46459 0.0
C389 C 0.54268 0.28046 0.5272 0.0
C390 C 0.52085 0.30142 0.50813 0.0
H391 H 0.55875 0.21635 0.53855 0.0
H392 H 0.5614 0.30277 0.54541 0.0
C393 C 0.49424 0.26789 0.48565 0.0
C394 C 0.36531 0.51302 0.83404 0.0
C395 C 0.41692 0.56161 0.8337 0.0
H396 H 0.27748 0.4769 0.83688 0.0
C397 C 0.41785 0.61208 0.83457 0.0
H398 H 0.3628 0.47338 0.83312 0.0
C399 C 0.36916 0.61404 0.83698 0.0
C400 C 0.31761 0.56565 0.83812 0.0
H401 H 0.45654 0.65041 0.83428 0.0
H402 H 0.37196 0.65376 0.83847 0.0
C403 C 0.31628 0.51503 0.83594 0.0
C404 C 0.88089 0.3425 0.19059 0.0
C405 C 0.90196 0.36056 0.16484 0.0
H406 H 0.81594 0.28227 0.21474 0.0
C407 C 0.87135 0.32814 0.14292 0.0
H408 H 0.90348 0.36627 0.2079 0.0
C409 C 0.82001 0.27972 0.1468 0.0
C410 C 0.79808 0.26262 0.1727 0.0
H411 H 0.88611 0.34126 0.12278 0.0
H412 H 0.79664 0.25683 0.12949 0.0
C413 C 0.83027 0.29434 0.19447 0.0
C414 C 0.05672 0.58288 0.07167 0.0
C415 C 0.04252 0.53526 0.08653 0.0
H416 H 0.07672 0.62165 0.03326 0.0
C417 C 0.03977 0.48964 0.07364 0.0
H418 H 0.05957 0.61877 0.08123 0.0
C419 C 0.0482 0.49085 0.04592 0.0
C420 C 0.06127 0.53832 0.03105 0.0
H421 H 0.0289 0.45251 0.08473 0.0
H422 H 0.04386 0.45465 0.03603 0.0
C423 C 0.06678 0.58468 0.0443 0.0
C424 C 0.52749 0.08743 0.40403 0.0
C425 C 0.53376 0.05024 0.42013 0.0
H426 H 0.51826 0.11033 0.36451 0.0
C427 C 0.53308 1.00484 0.40825 0.0
H428 H 0.52856 0.12313 0.41283 0.0
C429 C 0.52909 0.99819 0.38045 0.0
C430 C 0.52554 0.03689 0.36387 0.0
H431 H 0.53865 0.97606 0.42037 0.0
H432 H 0.53192 0.96429 0.37206 0.0
C433 C 0.52269 0.08048 0.37625 0.0
C434 C 0.51475 0.51294 0.73682 0.0
C435 C 0.55534 0.55423 0.75305 0.0
H436 H 0.48498 0.48537 0.69718 0.0
C437 C 0.59825 0.60098 0.74078 0.0
H438 H 0.48123 0.47617 0.7455 0.0
C439 C 0.60012 0.60609 0.71276 0.0
C440 C 0.55921 0.56446 0.69683 0.0
H441 H 0.62982 0.63354 0.75278 0.0
H442 H 0.63309 0.64251 0.70354 0.0
C443 C 0.51674 0.51798 0.70911 0.0
C444 C 0.53274 0.10281 0.59234 0.0
C445 C 0.53289 0.06184 0.57652 0.0
H446 H 0.54236 0.13663 0.63161 0.0
C447 C 0.54516 0.02387 0.58818 0.0
H448 H 0.52335 0.13243 0.58362 0.0
C449 C 0.55477 0.02545 0.61565 0.0
C450 C 0.55365 0.0659 0.63162 0.0
H451 H 0.54496 0.99159 0.5763 0.0
H452 H 0.56248 0.99477 0.62447 0.0
C453 C 0.54372 0.10526 0.61966 0.0
C454 C 0.53374 0.5564 0.92224 0.0
C455 C 0.58111 0.56264 0.90981 0.0
H456 H 0.49024 0.54326 0.95904 0.0
C457 C 0.61996 0.55681 0.92473 0.0
H458 H 0.50343 0.56105 0.91095 0.0
C459 C 0.61204 0.54573 0.95202 0.0
C460 C 0.56576 0.54164 0.9648 0.0
H461 H 0.65653 0.56115 0.91531 0.0
H462 H 0.64306 0.54228 0.96329 0.0
C463 C 0.5264 0.54658 0.94965 0.0
C464 C 0.05718 0.56515 0.25334 0.0
C465 C 0.03764 0.51186 0.24332 0.0
H466 H 0.07046 0.61471 0.28831 0.0
C467 C 1.01324 0.46691 0.26082 0.0
H468 H 0.0762 0.60044 0.24019 0.0
C469 C 1.00951 0.47508 0.28801 0.0
C470 C 0.03053 0.5283 0.29811 0.0
H471 H 0.9978 0.42546 0.25356 0.0
H472 H 0.99144 0.43997 0.3013 0.0
C473 C 0.05406 0.57336 0.28069 0.0
loop_
_geom_bond_atom_site_label_1
_geom_bond_atom_site_label_2
_geom_bond_distance
_geom_bond_site_symmetry_2
_ccdc_geom_bond_type
Dy0 O4 2.398 . S
Dy0 O5 2.491 . S
Dy0 O6 2.403 . S
Dy0 O7 2.664 . S
Dy0 O11 2.326 . S
Dy0 O15 2.310 . S
Dy0 O16 2.351 1_455 S
C1 O12 1.185 . S
C1 O13 1.355 . S
C2 O4 1.185 . S
C2 O5 1.355 . S
Dy3 O7 2.310 1_655 S
Dy3 O10 2.351 1_655 S
Dy3 O12 2.398 . S
Dy3 O13 2.491 . S
Dy3 O14 2.401 1_655 S
Dy3 O15 2.664 1_655 S
Dy3 O17 2.326 . S
O4 Dy0 2.398 . S
O4 C2 1.185 . S
O5 Dy0 2.491 . S
O5 C2 1.355 . S
O6 Dy0 2.403 . S
O6 C8 1.254 . S
O7 Dy0 2.664 . S
O7 Dy3 2.310 1_455 S
O7 C8 1.268 . S
C8 O6 1.254 . S
C8 O7 1.268 . S
C9 O14 1.269 . S
C9 O15 1.268 . S
O10 Dy3 2.351 1_455 S
O10 C18 1.249 . S
O11 Dy0 2.326 . S
O11 C18 1.267 . S
O12 C1 1.185 . S
O12 Dy3 2.398 . S
O13 C1 1.355 . S
O13 Dy3 2.491 . S
O14 Dy3 2.401 1_455 S
O14 C9 1.269 . S
O15 Dy0 2.310 . S
O15 Dy3 2.664 1_455 S
O15 C9 1.268 . S
O16 Dy0 2.351 1_655 S
O16 C19 1.249 . S
O17 Dy3 2.326 . S
O17 C19 1.267 . S
C18 O10 1.249 . S
C18 O11 1.267 . S
C19 O16 1.249 . S
C19 O17 1.267 . S
Dy20 O24 2.398 . S
Dy20 O25 2.491 . S
Dy20 O26 2.403 1_565 S
Dy20 O27 2.664 1_565 S
Dy20 O31 2.326 . S
Dy20 O35 2.310 1_565 S
Dy20 O36 2.351 1_565 S
C21 O32 1.185 . S
C21 O33 1.355 . S
C22 O24 1.185 . S
C22 O25 1.355 . S
Dy23 O27 2.310 . S
Dy23 O30 2.351 1_545 S
Dy23 O32 2.398 . S
Dy23 O33 2.491 . S
Dy23 O34 2.403 . S
Dy23 O35 2.664 . S
Dy23 O37 2.326 . S
O24 Dy20 2.398 . S
O24 C22 1.185 . S
O25 Dy20 2.491 . S
O25 C22 1.355 . S
O26 Dy20 2.403 1_545 S
O26 C28 1.254 . S
O27 Dy20 2.664 1_545 S
O27 Dy23 2.310 . S
O27 C28 1.268 . S
C28 O26 1.254 . S
C28 O27 1.268 . S
C29 O34 1.254 . S
C29 O35 1.268 . S
O30 Dy23 2.351 1_565 S
O30 C38 1.249 . S
O31 Dy20 2.326 . S
O31 C38 1.267 . S
O32 C21 1.185 . S
O32 Dy23 2.398 . S
O33 C21 1.355 . S
O33 Dy23 2.491 . S
O34 Dy23 2.403 . S
O34 C29 1.254 . S
O35 Dy20 2.310 1_545 S
O35 Dy23 2.664 . S
O35 C29 1.268 . S
O36 Dy20 2.351 1_545 S
O36 C39 1.249 . S
O37 Dy23 2.326 . S
O37 C39 1.267 . S
C38 O30 1.249 . S
C38 O31 1.267 . S
C39 O36 1.249 . S
C39 O37 1.267 . S
Dy40 O44 2.398 . S
Dy40 O45 2.491 . S
Dy40 O46 2.403 . S
Dy40 O47 2.664 . S
Dy40 O51 2.326 . S
Dy40 O55 2.310 . S
Dy40 O56 2.351 . S
C41 O52 1.185 . S
C41 O53 1.355 . S
C42 O44 1.185 . S
C42 O45 1.355 . S
Dy43 O47 2.310 . S
Dy43 O50 2.351 . S
Dy43 O52 2.398 . S
Dy43 O53 2.491 . S
Dy43 O54 2.403 . S
Dy43 O55 2.664 . S
Dy43 O57 2.326 . S
O44 Dy40 2.398 . S
O44 C42 1.185 . S
O45 Dy40 2.491 . S
O45 C42 1.355 . S
O46 Dy40 2.403 . S
O46 C48 1.254 . S
O47 Dy40 2.664 . S
O47 Dy43 2.310 . S
O47 C48 1.268 . S
C48 O46 1.254 . S
C48 O47 1.268 . S
C49 O54 1.254 . S
C49 O55 1.268 . S
O50 Dy43 2.351 . S
O50 C58 1.249 . S
O51 Dy40 2.326 . S
O51 C58 1.267 . S
O52 C41 1.185 . S
O52 Dy43 2.398 . S
O53 C41 1.355 . S
O53 Dy43 2.491 . S
O54 Dy43 2.403 . S
O54 C49 1.254 . S
O55 Dy40 2.310 . S
O55 Dy43 2.664 . S
O55 C49 1.268 . S
O56 Dy40 2.351 . S
O56 C59 1.249 . S
O57 Dy43 2.326 . S
O57 C59 1.267 . S
C58 O50 1.249 . S
C58 O51 1.267 . S
C59 O56 1.249 . S
C59 O57 1.267 . S
C60 C61 1.386 . S
C60 C62 1.397 . S
C60 H84 0.931 . S
C61 C60 1.386 . S
C61 C65 1.397 1_545 S
C62 C60 1.397 . S
C62 C63 1.384 . S
C62 H85 0.930 . S
C63 C62 1.384 . S
C63 C64 1.377 1_545 S
C63 C66 1.481 . S
C64 C63 1.377 1_565 S
C64 C65 1.389 . S
C64 H86 0.929 . S
C65 C61 1.397 1_565 S
C65 C64 1.389 . S
C65 H87 0.931 . S
C66 C63 1.481 . S
C66 C67 1.387 . S
C66 C71 1.390 1_545 S
C67 C66 1.387 . S
C67 C68 1.401 . S
C67 H88 0.930 . S
C68 C67 1.401 . S
C68 C69 1.376 . S
C68 C77 1.511 . S
C69 C68 1.376 . S
C69 C70 1.392 1_545 S
C69 H90 0.931 . S
C70 C69 1.392 1_565 S
C70 C71 1.361 . S
C70 C72 1.500 . S
C71 C66 1.390 1_565 S
C71 C70 1.361 . S
C71 H89 0.931 . S
C72 C70 1.500 . S
C72 C73 1.371 . S
C72 C74 1.365 . S
C73 C72 1.371 . S
C73 C83 1.386 . S
C73 H91 0.931 . S
C74 C72 1.365 . S
C74 C75 1.409 . S
C74 H92 0.929 . S
C75 C74 1.409 . S
C75 C76 1.380 . S
C75 H93 0.930 . S
C76 C75 1.380 . S
C76 C83 1.357 . S
C77 C68 1.511 . S
C77 C78 1.341 . S
C77 C79 1.371 . S
C78 C77 1.341 . S
C78 C82 1.394 . S
C78 H94 0.930 . S
C79 C77 1.371 . S
C79 C80 1.392 . S
C79 H95 0.931 . S
C80 C79 1.392 . S
C80 C81 1.331 . S
C80 H98 0.932 . S
C81 C80 1.331 . S
C81 C82 1.336 . S
C82 C78 1.394 . S
C82 C81 1.336 . S
C82 H97 0.929 . S
C83 C73 1.386 . S
C83 C76 1.357 . S
C83 H96 0.928 . S
H84 C60 0.931 . S
H85 C62 0.930 . S
H86 C64 0.929 . S
H87 C65 0.931 . S
H88 C67 0.930 . S
H89 C71 0.931 . S
H90 C69 0.931 . S
H91 C73 0.931 . S
H92 C74 0.929 . S
H93 C75 0.930 . S
H94 C78 0.930 . S
H95 C79 0.931 . S
H96 C83 0.928 . S
H97 C82 0.929 . S
H98 C80 0.932 . S
C99 C100 1.386 . S
C99 C101 1.397 . S
C99 H123 0.931 . S
C100 C99 1.386 . S
C100 C104 1.397 . S
C101 C99 1.397 . S
C101 C102 1.384 . S
C101 H124 0.930 . S
C102 C101 1.384 . S
C102 C103 1.377 . S
C102 C105 1.481 . S
C103 C102 1.377 . S
C103 C104 1.389 . S
C103 H125 0.929 . S
C104 C100 1.397 . S
C104 C103 1.389 . S
C104 H126 0.931 . S
C105 C102 1.481 . S
C105 C106 1.387 . S
C105 C110 1.390 . S
C106 C105 1.387 . S
C106 C107 1.401 . S
C106 H127 0.930 . S
C107 C106 1.401 . S
C107 C108 1.376 . S
C107 C116 1.511 . S
C108 C107 1.376 . S
C108 C109 1.392 . S
C108 H129 0.931 . S
C109 C108 1.392 . S
C109 C110 1.361 . S
C109 C111 1.500 . S
C110 C105 1.390 . S
C110 C109 1.361 . S
C110 H128 0.931 . S
C111 C109 1.500 . S
C111 C112 1.371 . S
C111 C113 1.365 . S
C112 C111 1.371 . S
C112 C122 1.386 . S
C112 H130 0.931 . S
C113 C111 1.365 . S
C113 C114 1.409 . S
C113 H131 0.929 . S
C114 C113 1.409 . S
C114 C115 1.380 . S
C114 H132 0.930 . S
C115 C114 1.380 . S
C115 C122 1.357 . S
C116 C107 1.511 . S
C116 C117 1.341 . S
C116 C118 1.371 . S
C117 C116 1.341 . S
C117 C121 1.394 . S
C117 H133 0.930 . S
C118 C116 1.371 . S
C118 C119 1.392 . S
C118 H134 0.931 . S
C119 C118 1.392 . S
C119 C120 1.331 . S
C119 H137 0.932 . S
C120 C119 1.331 . S
C120 C121 1.336 . S
C121 C117 1.394 . S
C121 C120 1.336 . S
C121 H136 0.929 . S
C122 C112 1.386 . S
C122 C115 1.357 . S
C122 H135 0.928 . S
H123 C99 0.931 . S
H124 C101 0.930 . S
H125 C103 0.929 . S
H126 C104 0.931 . S
H127 C106 0.930 . S
H128 C110 0.931 . S
H129 C108 0.931 . S
H130 C112 0.931 . S
H131 C113 0.929 . S
H132 C114 0.930 . S
H133 C117 0.930 . S
H134 C118 0.931 . S
H135 C122 0.928 . S
H136 C121 0.929 . S
H137 C119 0.932 . S
C138 C139 1.386 1_556 S
C138 C140 1.397 . S
C138 H162 0.922 1_556 S
C139 C138 1.386 1_554 S
C139 C143 1.397 1_554 S
C140 C138 1.397 . S
C140 C141 1.384 . S
C140 H163 0.930 . S
C141 C140 1.384 . S
C141 C142 1.377 . S
C141 C144 1.481 . S
C142 C141 1.377 . S
C142 C143 1.389 . S
C142 H164 0.929 1_455 S
C143 C139 1.397 1_556 S
C143 C142 1.389 . S
C143 H165 0.931 1_455 S
C144 C141 1.481 . S
C144 C145 1.387 . S
C144 C149 1.390 . S
C145 C144 1.387 . S
C145 C146 1.401 . S
C145 H166 0.930 . S
C146 C145 1.401 . S
C146 C147 1.376 . S
C146 C155 1.511 . S
C147 C146 1.376 . S
C147 C148 1.392 . S
C147 H168 0.931 . S
C148 C147 1.392 . S
C148 C149 1.361 . S
C148 C150 1.500 1_455 S
C149 C144 1.390 . S
C149 C148 1.361 . S
C149 H167 0.931 1_455 S
C150 C148 1.500 1_655 S
C150 C151 1.371 . S
C150 C152 1.365 . S
C151 C150 1.371 . S
C151 C161 1.386 . S
C151 H169 0.931 1_655 S
C152 C150 1.365 . S
C152 C153 1.409 . S
C152 H170 0.929 . S
C153 C152 1.409 . S
C153 C154 1.380 . S
C153 H171 0.930 . S
C154 C153 1.380 . S
C154 C161 1.357 . S
C155 C146 1.511 . S
C155 C156 1.341 . S
C155 C157 1.371 . S
C156 C155 1.341 . S
C156 C160 1.394 . S
C156 H172 0.930 . S
C157 C155 1.371 . S
C157 C158 1.392 . S
C157 H173 0.931 . S
C158 C157 1.392 . S
C158 C159 1.331 . S
C158 H176 0.932 . S
C159 C158 1.331 . S
C159 C160 1.336 . S
C160 C156 1.394 . S
C160 C159 1.336 . S
C160 H175 0.929 . S
C161 C151 1.386 . S
C161 C154 1.357 . S
C161 H174 0.928 . S
H162 C138 0.922 1_554 S
H163 C140 0.930 . S
H164 C142 0.929 1_655 S
H165 C143 0.931 1_655 S
H166 C145 0.930 . S
H167 C149 0.931 1_655 S
H168 C147 0.931 . S
H169 C151 0.931 1_455 S
H170 C152 0.929 . S
H171 C153 0.930 . S
H172 C156 0.930 . S
H173 C157 0.931 . S
H174 C161 0.928 . S
H175 C160 0.929 . S
H176 C158 0.932 . S
C177 C178 1.386 1_655 S
C177 C179 1.397 . S
C177 H201 0.931 . S
C178 C177 1.386 1_455 S
C178 C182 1.397 . S
C179 C177 1.397 . S
C179 C180 1.384 1_655 S
C179 H202 0.930 . S
C180 C179 1.384 1_455 S
C180 C181 1.377 . S
C180 C183 1.481 . S
C181 C180 1.377 . S
C181 C182 1.389 . S
C181 H203 0.929 . S
C182 C178 1.397 . S
C182 C181 1.389 . S
C182 H204 0.931 . S
C183 C180 1.481 . S
C183 C184 1.387 1_455 S
C183 C188 1.390 . S
C184 C183 1.387 1_655 S
C184 C185 1.401 . S
C184 H205 0.930 . S
C185 C184 1.401 . S
C185 C186 1.376 1_655 S
C185 C194 1.511 . S
C186 C185 1.376 1_455 S
C186 C187 1.392 . S
C186 H207 0.931 . S
C187 C186 1.392 . S
C187 C188 1.361 . S
C187 C189 1.500 . S
C188 C183 1.390 . S
C188 C187 1.361 . S
C188 H206 0.931 . S
C189 C187 1.500 . S
C189 C190 1.371 . S
C189 C191 1.365 . S
C190 C189 1.371 . S
C190 C200 1.386 . S
C190 H208 0.931 . S
C191 C189 1.365 . S
C191 C192 1.409 . S
C191 H209 0.929 . S
C192 C191 1.409 . S
C192 C193 1.380 . S
C192 H210 0.930 . S
C193 C192 1.380 . S
C193 C200 1.357 . S
C194 C185 1.511 . S
C194 C195 1.341 . S
C194 C196 1.371 . S
C195 C194 1.341 . S
C195 C199 1.394 . S
C195 H211 0.930 . S
C196 C194 1.371 . S
C196 C197 1.392 . S
C196 H212 0.931 . S
C197 C196 1.392 . S
C197 C198 1.331 . S
C197 H215 0.932 . S
C198 C197 1.331 . S
C198 C199 1.336 . S
C199 C195 1.394 . S
C199 C198 1.336 . S
C199 H214 0.929 . S
C200 C190 1.386 . S
C200 C193 1.357 . S
C200 H213 0.928 . S
H201 C177 0.931 . S
H202 C179 0.930 . S
H203 C181 0.929 . S
H204 C182 0.931 . S
H205 C184 0.930 . S
H206 C188 0.931 . S
H207 C186 0.931 . S
H208 C190 0.931 . S
H209 C191 0.929 . S
H210 C192 0.930 . S
H211 C195 0.930 . S
H212 C196 0.931 . S
H213 C200 0.928 . S
H214 C199 0.929 . S
H215 C197 0.932 . S
C216 C217 1.386 . S
C216 C218 1.397 . S
C216 H240 0.931 1_545 S
C217 C216 1.386 . S
C217 C221 1.397 . S
C218 C216 1.397 . S
C218 C219 1.384 . S
C218 H241 0.930 1_545 S
C219 C218 1.384 . S
C219 C220 1.377 . S
C219 C222 1.481 . S
C220 C219 1.377 . S
C220 C221 1.389 . S
C220 H242 0.929 . S
C221 C217 1.397 . S
C221 C220 1.389 . S
C221 H243 0.931 . S
C222 C219 1.481 . S
C222 C223 1.387 . S
C222 C227 1.390 . S
C223 C222 1.387 . S
C223 C224 1.401 . S
C223 H244 0.930 1_545 S
C224 C223 1.401 . S
C224 C225 1.376 . S
C224 C233 1.511 1_545 S
C225 C224 1.376 . S
C225 C226 1.392 . S
C225 H246 0.931 . S
C226 C225 1.392 . S
C226 C227 1.361 . S
C226 C228 1.500 . S
C227 C222 1.390 . S
C227 C226 1.361 . S
C227 H245 0.931 . S
C228 C226 1.500 . S
C228 C229 1.371 . S
C228 C230 1.365 . S
C229 C228 1.371 . S
C229 C239 1.386 . S
C229 H247 0.931 . S
C230 C228 1.365 . S
C230 C231 1.409 . S
C230 H248 0.929 . S
C231 C230 1.409 . S
C231 C232 1.380 . S
C231 H249 0.930 . S
C232 C231 1.380 . S
C232 C239 1.357 . S
C233 C224 1.511 1_565 S
C233 C234 1.341 . S
C233 C235 1.371 . S
C234 C233 1.341 . S
C234 C238 1.394 . S
C234 H250 0.930 . S
C235 C233 1.371 . S
C235 C236 1.392 . S
C235 H251 0.931 1_565 S
C236 C235 1.392 . S
C236 C237 1.331 . S
C236 H254 0.932 . S
C237 C236 1.331 . S
C237 C238 1.336 . S
C238 C234 1.394 . S
C238 C237 1.336 . S
C238 H253 0.929 . S
C239 C229 1.386 . S
C239 C232 1.357 . S
C239 H252 0.928 . S
H240 C216 0.931 1_565 S
H241 C218 0.930 1_565 S
H242 C220 0.929 . S
H243 C221 0.931 . S
H244 C223 0.930 1_565 S
H245 C227 0.931 . S
H246 C225 0.931 . S
H247 C229 0.931 . S
H248 C230 0.929 . S
H249 C231 0.930 . S
H250 C234 0.930 . S
H251 C235 0.931 1_545 S
H252 C239 0.928 . S
H253 C238 0.929 . S
H254 C236 0.932 . S
C255 C256 1.386 1_554 S
C255 C257 1.397 . S
C255 H279 0.931 1_554 S
C256 C255 1.386 1_556 S
C256 C260 1.397 1_556 S
C257 C255 1.397 . S
C257 C258 1.384 . S
C257 H280 0.930 . S
C258 C257 1.384 . S
C258 C259 1.377 . S
C258 C261 1.481 . S
C259 C258 1.377 . S
C259 C260 1.389 . S
C259 H281 0.929 . S
C260 C256 1.397 1_554 S
C260 C259 1.389 . S
C260 H282 0.931 . S
C261 C258 1.481 . S
C261 C262 1.387 . S
C261 C266 1.390 . S
C262 C261 1.387 . S
C262 C263 1.401 . S
C262 H283 0.930 . S
C263 C262 1.401 . S
C263 C264 1.376 . S
C263 C272 1.511 . S
C264 C263 1.376 . S
C264 C265 1.392 . S
C264 H285 0.931 . S
C265 C264 1.392 . S
C265 C266 1.361 . S
C265 C267 1.500 . S
C266 C261 1.390 . S
C266 C265 1.361 . S
C266 H284 0.931 . S
C267 C265 1.500 . S
C267 C268 1.371 . S
C267 C269 1.365 . S
C268 C267 1.371 . S
C268 C278 1.386 . S
C268 H286 0.931 . S
C269 C267 1.365 . S
C269 C270 1.409 . S
C269 H287 0.929 . S
C270 C269 1.409 . S
C270 C271 1.380 . S
C270 H288 0.930 . S
C271 C270 1.380 . S
C271 C278 1.357 . S
C272 C263 1.511 . S
C272 C273 1.341 . S
C272 C274 1.371 . S
C273 C272 1.341 . S
C273 C277 1.394 . S
C273 H289 0.930 . S
C274 C272 1.371 . S
C274 C275 1.392 . S
C274 H290 0.931 . S
C275 C274 1.392 . S
C275 C276 1.331 . S
C275 H293 0.932 . S
C276 C275 1.331 . S
C276 C277 1.336 . S
C277 C273 1.394 . S
C277 C276 1.336 . S
C277 H292 0.929 . S
C278 C268 1.386 . S
C278 C271 1.357 . S
C278 H291 0.928 . S
H279 C255 0.931 1_556 S
H280 C257 0.930 . S
H281 C259 0.929 . S
H282 C260 0.931 . S
H283 C262 0.930 . S
H284 C266 0.931 . S
H285 C264 0.931 . S
H286 C268 0.931 . S
H287 C269 0.929 . S
H288 C270 0.930 . S
H289 C273 0.930 . S
H290 C274 0.931 . S
H291 C278 0.928 . S
H292 C277 0.929 . S
H293 C275 0.932 . S
C294 C295 1.387 . S
C294 H298 0.950 . S
C294 C303 1.390 . S
C295 C294 1.387 . S
C295 C297 1.387 . S
H296 C303 0.950 . S
C297 C295 1.387 . S
C297 C299 1.390 . S
C297 H301 0.950 . S
H298 C294 0.950 . S
C299 C297 1.390 . S
C299 C300 1.387 . S
C299 H302 0.950 . S
C300 C299 1.387 . S
C300 C303 1.387 . S
H301 C297 0.950 . S
H302 C299 0.950 . S
C303 C294 1.390 . S
C303 H296 0.950 . S
C303 C300 1.387 . S
C304 C305 1.387 . S
C304 H308 0.950 . S
C304 C313 1.390 . S
C305 C304 1.387 . S
C305 C307 1.387 . S
H306 C313 0.950 . S
C307 C305 1.387 . S
C307 C309 1.390 . S
C307 H311 0.950 . S
H308 C304 0.950 . S
C309 C307 1.390 . S
C309 C310 1.387 . S
C309 H312 0.950 . S
C310 C309 1.387 . S
C310 C313 1.387 . S
H311 C307 0.950 . S
H312 C309 0.950 . S
C313 C304 1.390 . S
C313 H306 0.950 . S
C313 C310 1.387 . S
C314 C315 1.387 . S
C314 H318 0.950 . S
C314 C323 1.390 . S
C315 C314 1.387 . S
C315 C317 1.387 . S
H316 C323 0.950 . S
C317 C315 1.387 . S
C317 C319 1.390 . S
C317 H321 0.950 . S
H318 C314 0.950 . S
C319 C317 1.390 . S
C319 C320 1.387 . S
C319 H322 0.950 . S
C320 C319 1.387 . S
C320 C323 1.387 . S
H321 C317 0.950 . S
H322 C319 0.950 . S
C323 C314 1.390 . S
C323 H316 0.950 . S
C323 C320 1.387 . S
C324 C325 1.387 . S
C324 H328 0.950 . S
C324 C333 1.390 . S
C325 C324 1.387 . S
C325 C327 1.387 . S
H326 C333 0.950 . S
C327 C325 1.387 . S
C327 C329 1.390 . S
C327 H331 0.950 . S
H328 C324 0.950 . S
C329 C327 1.390 . S
C329 C330 1.387 . S
C329 H332 0.950 . S
C330 C329 1.387 . S
C330 C333 1.387 . S
H331 C327 0.950 . S
H332 C329 0.950 . S
C333 C324 1.390 . S
C333 H326 0.950 . S
C333 C330 1.387 . S
C334 C335 1.387 . S
C334 H338 0.950 . S
C334 C343 1.390 . S
C335 C334 1.387 . S
C335 C337 1.387 . S
H336 C343 0.950 . S
C337 C335 1.387 . S
C337 C339 1.390 . S
C337 H341 0.950 . S
H338 C334 0.950 . S
C339 C337 1.390 . S
C339 C340 1.387 . S
C339 H342 0.950 . S
C340 C339 1.387 . S
C340 C343 1.387 . S
H341 C337 0.950 . S
H342 C339 0.950 . S
C343 C334 1.390 . S
C343 H336 0.950 . S
C343 C340 1.387 . S
C344 C345 1.387 . S
C344 H348 0.950 . S
C344 C353 1.390 . S
C345 C344 1.387 . S
C345 C347 1.387 . S
H346 C353 0.950 . S
C347 C345 1.387 . S
C347 C349 1.390 . S
C347 H351 0.950 . S
H348 C344 0.950 . S
C349 C347 1.390 . S
C349 C350 1.387 . S
C349 H352 0.950 . S
C350 C349 1.387 . S
C350 C353 1.387 . S
H351 C347 0.950 . S
H352 C349 0.950 . S
C353 C344 1.390 . S
C353 H346 0.950 . S
C353 C350 1.387 . S
C354 C355 1.387 . S
C354 H358 0.950 . S
C354 C363 1.390 . S
C355 C354 1.387 . S
C355 C357 1.387 . S
H356 C363 0.950 . S
C357 C355 1.387 . S
C357 C359 1.390 . S
C357 H361 0.950 . S
H358 C354 0.950 . S
C359 C357 1.390 . S
C359 C360 1.387 . S
C359 H362 0.950 . S
C360 C359 1.387 . S
C360 C363 1.387 . S
H361 C357 0.950 . S
H362 C359 0.950 . S
C363 C354 1.390 . S
C363 H356 0.950 . S
C363 C360 1.387 . S
C364 C365 1.387 . S
C364 H368 0.950 . S
C364 C373 1.390 . S
C365 C364 1.387 . S
C365 C367 1.387 . S
H366 C373 0.950 . S
C367 C365 1.387 . S
C367 C369 1.390 . S
C367 H371 0.950 . S
H368 C364 0.950 . S
C369 C367 1.390 . S
C369 C370 1.387 . S
C369 H372 0.950 . S
C370 C369 1.387 . S
C370 C373 1.387 . S
H371 C367 0.950 . S
H372 C369 0.950 . S
C373 C364 1.390 . S
C373 H366 0.950 . S
C373 C370 1.387 . S
C374 C375 1.387 . S
C374 H378 0.950 . S
C374 C383 1.390 . S
C375 C374 1.387 . S
C375 C377 1.387 . S
H376 C383 0.950 . S
C377 C375 1.387 . S
C377 C379 1.390 . S
C377 H381 0.950 . S
H378 C374 0.950 . S
C379 C377 1.390 . S
C379 C380 1.387 . S
C379 H382 0.950 . S
C380 C379 1.387 . S
C380 C383 1.387 . S
H381 C377 0.950 . S
H382 C379 0.950 . S
C383 C374 1.390 . S
C383 H376 0.950 . S
C383 C380 1.387 . S
C384 C385 1.387 . S
C384 H388 0.950 . S
C384 C393 1.390 . S
C385 C384 1.387 . S
C385 C387 1.387 . S
H386 C393 0.950 . S
C387 C385 1.387 . S
C387 C389 1.390 . S
C387 H391 0.950 . S
H388 C384 0.950 . S
C389 C387 1.390 . S
C389 C390 1.387 . S
C389 H392 0.950 . S
C390 C389 1.387 . S
C390 C393 1.387 . S
H391 C387 0.950 . S
H392 C389 0.950 . S
C393 C384 1.390 . S
C393 H386 0.950 . S
C393 C390 1.387 . S
C394 C395 1.387 . S
C394 H398 0.950 . S
C394 C403 1.390 . S
C395 C394 1.387 . S
C395 C397 1.387 . S
H396 C403 0.950 . S
C397 C395 1.387 . S
C397 C399 1.390 . S
C397 H401 0.950 . S
H398 C394 0.950 . S
C399 C397 1.390 . S
C399 C400 1.387 . S
C399 H402 0.950 . S
C400 C399 1.387 . S
C400 C403 1.387 . S
H401 C397 0.950 . S
H402 C399 0.950 . S
C403 C394 1.390 . S
C403 H396 0.950 . S
C403 C400 1.387 . S
C404 C405 1.387 . S
C404 H408 0.950 . S
C404 C413 1.390 . S
C405 C404 1.387 . S
C405 C407 1.387 . S
H406 C413 0.950 . S
C407 C405 1.387 . S
C407 C409 1.390 . S
C407 H411 0.950 . S
H408 C404 0.950 . S
C409 C407 1.390 . S
C409 C410 1.387 . S
C409 H412 0.950 . S
C410 C409 1.387 . S
C410 C413 1.387 . S
H411 C407 0.950 . S
H412 C409 0.950 . S
C413 C404 1.390 . S
C413 H406 0.950 . S
C413 C410 1.387 . S
C414 C415 1.387 . S
C414 H418 0.950 . S
C414 C423 1.390 . S
C415 C414 1.387 . S
C415 C417 1.387 . S
H416 C423 0.950 . S
C417 C415 1.387 . S
C417 C419 1.390 . S
C417 H421 0.950 . S
H418 C414 0.950 . S
C419 C417 1.390 . S
C419 C420 1.387 . S
C419 H422 0.950 . S
C420 C419 1.387 . S
C420 C423 1.387 . S
H421 C417 0.950 . S
H422 C419 0.950 . S
C423 C414 1.390 . S
C423 H416 0.950 . S
C423 C420 1.387 . S
C424 C425 1.387 . S
C424 H428 0.950 . S
C424 C433 1.390 . S
C425 C424 1.387 . S
C425 C427 1.387 1_545 S
H426 C433 0.950 . S
C427 C425 1.387 1_565 S
C427 C429 1.390 . S
C427 H431 0.950 . S
H428 C424 0.950 . S
C429 C427 1.390 . S
C429 C430 1.387 1_565 S
C429 H432 0.950 . S
C430 C429 1.387 1_545 S
C430 C433 1.387 . S
H431 C427 0.950 . S
H432 C429 0.950 . S
C433 C424 1.390 . S
C433 H426 0.950 . S
C433 C430 1.387 . S
C434 C435 1.387 . S
C434 H438 0.950 . S
C434 C443 1.390 . S
C435 C434 1.387 . S
C435 C437 1.387 . S
H436 C443 0.950 . S
C437 C435 1.387 . S
C437 C439 1.390 . S
C437 H441 0.950 . S
H438 C434 0.950 . S
C439 C437 1.390 . S
C439 C440 1.387 . S
C439 H442 0.950 . S
C440 C439 1.387 . S
C440 C443 1.387 . S
H441 C437 0.950 . S
H442 C439 0.950 . S
C443 C434 1.390 . S
C443 H436 0.950 . S
C443 C440 1.387 . S
C444 C445 1.387 . S
C444 H448 0.950 . S
C444 C453 1.390 . S
C445 C444 1.387 . S
C445 C447 1.387 . S
H446 C453 0.950 . S
C447 C445 1.387 . S
C447 C449 1.390 . S
C447 H451 0.950 1_545 S
H448 C444 0.950 . S
C449 C447 1.390 . S
C449 C450 1.387 . S
C449 H452 0.950 1_545 S
C450 C449 1.387 . S
C450 C453 1.387 . S
H451 C447 0.950 1_565 S
H452 C449 0.950 1_565 S
C453 C444 1.390 . S
C453 H446 0.950 . S
C453 C450 1.387 . S
C454 C455 1.387 . S
C454 H458 0.950 . S
C454 C463 1.390 . S
C455 C454 1.387 . S
C455 C457 1.387 . S
H456 C463 0.950 . S
C457 C455 1.387 . S
C457 C459 1.390 . S
C457 H461 0.950 . S
H458 C454 0.950 . S
C459 C457 1.390 . S
C459 C460 1.387 . S
C459 H462 0.950 . S
C460 C459 1.387 . S
C460 C463 1.387 . S
H461 C457 0.950 . S
H462 C459 0.950 . S
C463 C454 1.390 . S
C463 H456 0.950 . S
C463 C460 1.387 . S
C464 C465 1.387 . S
C464 H468 0.950 . S
C464 C473 1.390 . S
C465 C464 1.387 . S
C465 C467 1.387 . S
H466 C473 0.950 . S
C467 C465 1.387 . S
C467 C469 1.390 . S
C467 H471 0.950 1_455 S
H468 C464 0.950 . S
C469 C467 1.390 . S
C469 C470 1.387 . S
C469 H472 0.950 1_455 S
C470 C469 1.387 . S
C470 C473 1.387 . S
H471 C467 0.950 1_655 S
H472 C469 0.950 1_655 S
C473 C464 1.390 . S
C473 H466 0.950 . S
C473 C470 1.387 . S
C295 C2 1.166 . S
C300 C271 1.144 . S
C305 C21 1.127 . S
C310 C198 1.105 . S
C315 C42 1.170 . S
C320 C237 1.150 . S
C325 C1 1.119 . S
C330 C276 1.093 . S
C340 C193 1.133 . S
C335 C22 1.156 . S
C350 C232 1.088 . S
C345 C41 1.110 . S
C355 C38 2.032 . S
C360 C120 1.960 . S
C365 C59 2.061 . S
C370 C154 2.000 . S
C375 C18 2.018 . S
C380 C76 1.944 . S
C390 C115 1.989 . S
C385 C39 2.050 . S
C400 C159 1.946 . S
C395 C58 2.022 . S
C405 C19 2.064 . S
C410 C81 2.006 . S
C420 C139 1.577 . S
C415 C9 1.505 . S
C425 C29 1.510 . S
C430 C61 1.578 . S
C435 C49 1.508 . S
C440 C100 1.576 . S
C450 C217 1.391 . S
C445 C28 1.369 . S
C460 C256 1.391 . S
C455 C48 1.365 . S
C465 C8 1.363 . S
C470 C178 1.389 . S
