# Generated by pormake.
# Topology anh, (6,3)-cn, num edge types: 1
# Building blocks:
#     Node 0, Type 0, BuildingBlock: CUWYAW_clean_sbu_0, # of connection points: 6
#     Node 1, Type 0, BuildingBlock: CUWYAW_clean_sbu_0, # of connection points: 6
#     Node 2, Type 0, BuildingBlock: CUWYAW_clean_sbu_0, # of connection points: 6
#     Node 3, Type 1, BuildingBlock: VETTIZ_charged_linker_0, # of connection points: 3
#     Node 4, Type 1, BuildingBlock: VETTIZ_charged_linker_0, # of connection points: 3
#     Node 5, Type 1, BuildingBlock: VETTIZ_charged_linker_0, # of connection points: 3
#     Node 6, Type 1, BuildingBlock: VETTIZ_charged_linker_0, # of connection points: 3
#     Node 7, Type 1, BuildingBlock: VETTIZ_charged_linker_0, # of connection points: 3
#     Node 8, Type 1, BuildingBlock: VETTIZ_charged_linker_0, # of connection points: 3
#     Edge 9, Type (0, 1), None
#     Edge 10, Type (0, 1), None
#     Edge 11, Type (0, 1), None
#     Edge 12, Type (0, 1), None
#     Edge 13, Type (0, 1), None
#     Edge 14, Type (0, 1), None
#     Edge 15, Type (0, 1), None
#     Edge 16, Type (0, 1), None
#     Edge 17, Type (0, 1), None
#     Edge 18, Type (0, 1), None
#     Edge 19, Type (0, 1), None
#     Edge 20, Type (0, 1), None
#     Edge 21, Type (0, 1), None
#     Edge 22, Type (0, 1), None
#     Edge 23, Type (0, 1), None
#     Edge 24, Type (0, 1), None
#     Edge 25, Type (0, 1), None
#     Edge 26, Type (0, 1), None
# Relax obj value: 0.467
# Max RMSD: 0.219
# Mean RMSD: 0.184
data_MOF--net-anh--node1-CUWYAW_clean_sbu_0--node2-VETTIZ_charged_linker_0--edge1-none
_symmetry_space_group_name_H-M    P1
_symmetry_Int_Tables_number       1
_symmetry_cell_setting            triclinic
loop_
_symmetry_equiv_pos_as_xyz
'x, y, z'
_cell_length_a     19.419426
_cell_length_b     19.615869
_cell_length_c     37.78467
_cell_angle_alpha  90.146613
_cell_angle_beta   90.091108
_cell_angle_gamma 119.60714
loop_
_atom_site_label
_atom_site_type_symbol
_atom_site_fract_x
_atom_site_fract_y
_atom_site_fract_z
_atom_type_partial_charge
C0 C 1.10637 0.38526 0.14653 0.0
Eu1 Eu 0.21133 0.53229 0.1513 0.0
C2 C 1.02031 0.35529 0.14831 0.0
C3 C 0.98015 0.31502 0.17883 0.0
C4 C 0.91377 0.31854 0.19006 0.0
C5 C 0.88648 0.36155 0.17069 0.0
C6 C 0.91877 0.39146 0.13752 0.0
C7 C 0.98504 0.38737 0.12607 0.0
C8 C 0.25663 0.61434 0.21351 0.0
C9 C 1.10075 0.62145 0.14082 0.0
C10 C 0.36842 0.84876 0.14011 0.0
Eu11 Eu 0.29063 0.69723 0.13882 0.0
C12 C 0.34127 0.9037 0.15007 0.0
C13 C 0.27513 0.87917 0.17218 0.0
C14 C 0.25688 0.93394 0.18642 0.0
C15 C 0.30575 1.01405 0.17933 0.0
C16 C 0.36474 1.03643 0.15315 0.0
C17 C 0.38289 0.98156 0.1389 0.0
C18 C 0.23576 0.60799 0.07977 0.0
C19 C 0.40331 0.61075 0.13995 0.0
O20 O 1.1424 0.42772 0.11889 0.0
O21 O 1.14467 0.41733 0.1759 0.0
O22 O 0.26069 0.55156 0.20668 0.0
O23 O 0.2268 0.6309 0.18716 0.0
O24 O 1.10454 0.55532 0.13894 0.0
O25 O 1.1684 0.68745 0.1453 0.0
O26 O 0.33675 0.80859 0.11125 0.0
O27 O 0.37123 0.8057 0.16596 0.0
O28 O 0.2285 0.66912 0.0856 0.0
O29 O 0.27307 0.59862 0.10464 0.0
O30 O 0.40058 0.67755 0.13938 0.0
O31 O 0.33525 0.5433 0.14253 0.0
H32 H 1.00545 0.28919 0.19618 0.0
H33 H 0.88795 0.29358 0.21548 0.0
H34 H 0.8974 0.42372 0.12207 0.0
H35 H 1.01372 0.41756 0.1019 0.0
H36 H 0.24127 0.81874 0.18059 0.0
H37 H 0.21083 0.91495 0.20625 0.0
H38 H 0.40346 1.0976 0.14682 0.0
H39 H 0.4328 1.00094 0.12112 0.0
C40 C 0.60593 0.27318 0.44726 0.0
Eu41 Eu 0.67459 0.20077 0.47394 0.0
C42 C 0.64898 0.35649 0.43773 0.0
C43 C 0.62397 0.40672 0.45172 0.0
C44 C 0.68001 0.48427 0.45962 0.0
C45 C 0.76108 0.51109 0.45394 0.0
C46 C 0.78356 0.46541 0.43391 0.0
C47 C 0.72757 0.38822 0.42596 0.0
C48 C 0.71177 0.20443 0.54377 0.0
C49 C 0.86972 0.30926 0.47461 0.0
C50 C 0.84299 1.06214 0.51536 0.0
Eu51 Eu 0.75449 1.11336 0.48795 0.0
C52 C 0.92464 1.09261 0.52862 0.0
C53 C 0.98908 1.11566 0.50556 0.0
C54 C 1.06111 1.12523 0.51829 0.0
C55 C 1.06871 1.10914 0.55398 0.0
C56 C 1.00811 1.09869 0.57766 0.0
C57 C 0.93666 1.08962 0.56502 0.0
C58 C 0.73153 1.13036 0.41848 0.0
C59 C 0.56202 1.00288 0.47521 0.0
O60 O 0.62252 0.22721 0.42838 0.0
O61 O 0.60635 0.26066 0.48125 0.0
O62 O 0.71681 0.26302 0.52596 0.0
O63 O 0.68352 0.14359 0.52427 0.0
O64 O 0.80187 0.30482 0.46462 0.0
O65 O 0.86561 0.24278 0.48637 0.0
O66 O 0.79703 1.07933 0.5341 0.0
O67 O 0.83208 1.06338 0.48125 0.0
O68 O 0.71474 1.06305 0.43214 0.0
O69 O 0.75656 0.18171 0.4421 0.0
O70 O 0.62685 1.00336 0.48749 0.0
O71 O 0.5685 1.07175 0.46626 0.0
H72 H 0.56379 0.38359 0.46105 0.0
H73 H 0.66156 0.51942 0.47478 0.0
H74 H 0.84555 0.48487 0.4291 0.0
H75 H 0.7483 0.35076 0.41488 0.0
H76 H 0.98229 1.12063 0.47739 0.0
H77 H 1.10736 0.13614 0.49943 0.0
H78 H 1.01093 1.08714 0.60546 0.0
H79 H 0.88849 1.0735 0.58352 0.0
C80 C 1.01192 0.79469 0.79486 0.0
Eu81 Eu 0.86768 0.75418 0.81184 0.0
C82 C 1.04222 0.73894 0.79306 0.0
C83 C 1.09368 0.74198 0.81979 0.0
C84 C 1.09376 0.67379 0.82984 0.0
C85 C 1.04264 0.60186 0.81321 0.0
C86 C 1.0017 0.60141 0.78264 0.0
C87 C 1.00207 0.67004 0.77234 0.0
C88 C 0.80946 0.7303 0.87904 0.0
C89 C 0.7817 0.55488 0.81045 0.0
C90 C 0.54783 0.58652 0.83316 0.0
Eu91 Eu 0.69463 0.6606 0.81437 0.0
C92 C 0.49843 0.50704 0.84784 0.0
C93 C 0.46592 0.44011 0.82591 0.0
C94 C 0.4131 0.36635 0.83968 0.0
C95 C 0.39091 0.35832 0.87549 0.0
C96 C 0.43039 0.4241 0.89797 0.0
C97 C 0.48287 0.49761 0.88424 0.0
C98 C 0.7558 0.67758 0.74924 0.0
C99 C 0.77813 0.85932 0.80362 0.0
O100 O 0.95821 0.78441 0.77142 0.0
O101 O 0.99239 0.80588 0.82662 0.0
O102 O 0.86977 0.79518 0.8683 0.0
O103 O 0.78536 0.6797 0.85446 0.0
O104 O 0.84429 0.62471 0.80303 0.0
O105 O 0.71505 0.55357 0.81976 0.0
O106 O 0.57012 0.59083 0.80019 0.0
O107 O 0.60427 0.63747 0.85377 0.0
O108 O 0.69625 0.61245 0.76012 0.0
O109 O 0.77653 0.73041 0.77234 0.0
O110 O 0.71255 0.78971 0.8095 0.0
O111 O 0.84731 0.86021 0.80133 0.0
H112 H 1.12631 0.79445 0.83572 0.0
H113 H 1.12828 0.67584 0.8528 0.0
H114 H 0.96362 0.54698 0.7689 0.0
H115 H 0.96316 0.66617 0.75089 0.0
H116 H 0.47816 0.44501 0.7978 0.0
H117 H 0.38414 0.31694 0.82171 0.0
H118 H 0.41499 0.42101 0.92567 0.0
H119 H 0.50817 0.54777 0.90194 0.0
C120 C 0.7517 0.34428 0.17926 0.0
C121 C 0.83243 0.38283 0.18817 0.0
C122 C 0.8584 0.4275 0.21958 0.0
C123 C 0.72373 0.36743 0.23874 0.0
C124 C 0.69761 0.3391 0.20515 0.0
C125 C 0.60869 0.29246 0.20372 0.0
H126 H 0.31406 0.99749 0.24998 0.0
C127 C 0.6589 0.32473 0.26346 0.0
C128 C 0.5888 0.29035 0.24327 0.0
H129 H 0.32769 0.16479 0.1719 0.0
H130 H 0.43048 0.27193 0.20839 0.0
H131 H 0.4652 1.03386 0.24839 0.0
H132 H 0.37879 0.13576 0.32534 0.0
H133 H 0.44141 1.10699 0.34661 0.0
H134 H 0.3527 1.03419 0.32471 0.0
H135 H 0.41912 0.9837 0.28864 0.0
H136 H 0.52399 1.05175 0.28595 0.0
C137 C 0.58196 0.2096 0.18869 0.0
C138 C 0.57872 0.33712 0.18049 0.0
C139 C 0.73718 0.21478 0.36855 0.0
C140 C 0.6982 0.14182 0.38562 0.0
C141 C 0.62173 1.08618 0.37473 0.0
C142 C 0.58134 1.10521 0.34935 0.0
C143 C 0.62034 0.17919 0.33299 0.0
C144 C 0.6983 0.23124 0.34145 0.0
C145 C 0.7342 0.30182 0.3175 0.0
C146 C 0.66265 0.2855 0.29458 0.0
C147 C 0.59607 0.21467 0.30475 0.0
C148 C 0.80342 0.30194 0.29683 0.0
C149 C 0.76129 0.37676 0.33964 0.0
C150 C 0.33598 1.05708 0.24101 0.0
C151 C 0.31723 1.07245 0.2069 0.0
C152 C 0.34471 0.1512 0.19708 0.0
C153 C 0.406 0.21176 0.21652 0.0
C154 C 0.43933 0.19105 0.24429 0.0
C155 C 0.40025 1.11742 0.25885 0.0
C156 C 0.44829 1.10819 0.28796 0.0
C157 C 0.52309 0.18797 0.28684 0.0
C158 C 0.5184 0.23309 0.25936 0.0
C159 C 0.46482 1.04072 0.27762 0.0
C160 C 0.40312 1.09511 0.32314 0.0
H161 H 0.82395 0.45131 0.26977 0.0
H162 H 0.73139 0.31254 0.1545 0.0
H163 H 0.57571 0.38401 0.19583 0.0
H164 H 0.52022 0.29714 0.16857 0.0
H165 H 0.61849 0.36484 0.15752 0.0
H166 H 0.60741 0.1796 0.20453 0.0
H167 H 0.60072 0.21257 0.16073 0.0
H168 H 0.5167 0.17258 0.189 0.0
H169 H 0.7967 0.25819 0.37623 0.0
H170 H 0.59246 1.02944 0.38705 0.0
H171 H 0.52166 1.06132 0.34325 0.0
H172 H 0.82977 0.27102 0.31124 0.0
H173 H 0.85374 0.36197 0.2931 0.0
H174 H 0.78324 0.27221 0.27074 0.0
H175 H 0.71102 0.37187 0.35552 0.0
H176 H 0.78107 0.4292 0.32296 0.0
H177 H 0.81107 0.38699 0.35748 0.0
H178 H 0.92095 0.46052 0.22601 0.0
C179 C 0.80336 0.42068 0.24502 0.0
C180 C 1.11809 1.01816 0.54039 0.0
C181 C 1.12027 1.07532 0.56372 0.0
C182 C 1.13398 1.06816 0.59988 0.0
C183 C 1.08607 0.93045 0.58998 0.0
C184 C 1.09538 0.94367 0.55398 0.0
C185 C 1.05637 0.86837 0.53303 0.0
H186 H 0.75279 0.5049 0.52418 0.0
C187 C 1.03286 0.84588 0.59566 0.0
C188 C 1.01751 0.8086 0.5624 0.0
H189 H 0.9049 0.64224 0.43884 0.0
H190 H 0.99739 0.73662 0.4815 0.0
H191 H 0.87619 0.51212 0.57338 0.0
H192 H 0.76301 0.65249 0.5711 0.0
H193 H 0.75314 0.60783 0.61288 0.0
H194 H 0.71583 0.54756 0.57499 0.0
H195 H 0.79291 0.48883 0.60108 0.0
H196 H 0.89287 0.55421 0.61605 0.0
C197 C 1.12174 0.85856 0.51424 0.0
C198 C 0.99471 0.87123 0.50755 0.0
C199 C 0.86256 0.75854 0.70636 0.0
C200 C 0.80182 0.68476 0.71731 0.0
C201 C 0.78725 0.61735 0.69817 0.0
C202 C 0.83042 0.62377 0.6676 0.0
C203 C 0.88555 0.69844 0.65518 0.0
C204 C 0.90467 0.76383 0.67548 0.0
C205 C 0.97146 0.83706 0.65967 0.0
C206 C 0.98537 0.80468 0.62523 0.0
C207 C 0.93145 0.7241 0.62229 0.0
C208 C 1.04393 0.86905 0.68493 0.0
C209 C 0.94032 0.89509 0.65323 0.0
C210 C 0.80508 0.55663 0.51467 0.0
C211 C 0.81943 0.56975 0.47834 0.0
C212 C 0.89121 0.63345 0.4668 0.0
C213 C 0.94468 0.68735 0.49152 0.0
C214 C 0.92489 0.67756 0.52776 0.0
C215 C 0.8579 0.61097 0.53879 0.0
C216 C 0.84643 0.60791 0.57805 0.0
C217 C 0.91654 0.68626 0.58893 0.0
C218 C 0.9608 0.72773 0.55925 0.0
C219 C 0.852 0.5371 0.59303 0.0
C220 C 0.7656 0.60376 0.58489 0.0
H221 H 1.11635 0.98842 0.64149 0.0
H222 H 1.11448 1.02408 0.5121 0.0
H223 H 0.9645 0.90023 0.52057 0.0
H224 H 0.9461 0.81369 0.49951 0.0
H225 H 1.02361 0.9046 0.48318 0.0
H226 H 1.17714 0.88457 0.53026 0.0
H227 H 1.13649 0.88799 0.48807 0.0
H228 H 1.10522 0.79629 0.51078 0.0
H229 H 0.87642 0.81096 0.72133 0.0
H230 H 0.74212 0.55973 0.70666 0.0
H231 H 0.81726 0.57077 0.65396 0.0
H232 H 1.03908 0.82389 0.70409 0.0
H233 H 1.05035 0.91995 0.70055 0.0
H234 H 1.09971 0.88641 0.67041 0.0
H235 H 0.92554 0.91332 0.67866 0.0
H236 H 0.88583 0.86719 0.63661 0.0
H237 H 0.9828 0.94917 0.63975 0.0
H238 H 1.14318 1.11416 0.61841 0.0
C239 C 1.11603 0.99461 0.61332 0.0
C240 C 0.24781 0.28538 0.86608 0.0
C241 C 0.31208 0.294 0.88663 0.0
C242 C 0.29847 0.2744 0.92284 0.0
C243 C 1.18467 0.29245 0.91976 0.0
C244 C 1.18731 0.29124 0.88332 0.0
C245 C 1.13481 0.31845 0.86663 0.0
H246 H 0.99546 0.56478 0.88039 0.0
C247 C 1.13578 0.32725 0.93021 0.0
C248 C 1.10311 0.33939 0.89923 0.0
H249 H 1.04389 0.47098 0.78644 0.0
H250 H 1.04695 0.36877 0.82152 0.0
H251 H 0.89291 0.38256 0.92529 0.0
H252 H 1.13628 0.55972 0.94972 0.0
H253 H 1.05221 0.56935 0.96363 0.0
H254 H 1.09333 0.59893 0.92137 0.0
H255 H 0.91604 0.47846 0.94062 0.0
H256 H 0.92865 0.41139 0.9689 0.0
C257 C 1.06785 0.24819 0.84661 0.0
C258 C 1.1864 0.3913 0.84286 0.0
C259 C 0.21463 0.49648 0.04058 0.0
C260 C 1.18877 0.54723 0.05347 0.0
C261 C 1.11652 0.5388 0.04123 0.0
C262 C 1.07443 0.48575 0.01417 0.0
C263 C 1.10766 0.44489 -0.00221 0.0
C264 C 1.17292 0.44555 0.0125 0.0
C265 C 1.19461 0.39204 -0.00714 0.0
C266 C 1.13505 0.36517 0.96213 0.0
C267 C 1.08778 0.40083 0.96439 0.0
C268 C 1.18168 0.32365 0.01757 0.0
C269 C 0.28138 0.44208 0.98017 0.0
C270 C 1.00767 0.52239 0.86758 0.0
C271 C 1.02483 0.52841 0.83135 0.0
C272 C 1.03384 0.46917 0.81469 0.0
C273 C 1.03685 0.41095 0.83516 0.0
C274 C 1.03501 0.4153 0.8724 0.0
C275 C 1.01706 0.4683 0.88792 0.0
C276 C 1.02071 0.46777 0.92763 0.0
C277 C 1.05201 0.41085 0.9334 0.0
C278 C 1.05966 0.3801 0.90089 0.0
C279 C 0.93518 0.43363 0.94158 0.0
C280 C 1.07822 0.55261 0.94145 0.0
H281 H 0.22847 0.26583 0.96779 0.0
H282 H 0.25385 0.2947 0.83775 0.0
H283 H 0.25106 0.41528 0.84675 0.0
H284 H 1.17871 0.44216 0.8492 0.0
H285 H 1.17395 0.377 0.81428 0.0
H286 H 1.04534 0.19337 0.86229 0.0
H287 H 1.08915 0.23855 0.82081 0.0
H288 H 1.01615 0.25612 0.84212 0.0
H289 H 0.26788 0.49914 0.05102 0.0
H290 H 1.09266 0.57334 0.05238 0.0
H291 H 1.01886 0.47984 0.00608 0.0
H292 H 1.15568 0.32569 0.04351 0.0
H293 H 0.23837 0.32493 0.02349 0.0
H294 H 1.13973 0.26579 0.00576 0.0
H295 H 0.28807 0.49181 0.96363 0.0
H296 H 0.30209 0.40869 0.96437 0.0
H297 H 0.3227 0.46646 0.003 0.0
H298 H 0.34478 0.27493 0.93906 0.0
C299 C 0.23315 0.2725 0.93963 0.0
C300 C 1.00932 0.44822 0.4779 0.0
C301 C 0.94874 0.37822 0.4598 0.0
C302 C 0.9607 0.37422 0.4234 0.0
C303 C 1.08308 0.50247 0.42249 0.0
C304 C 1.07689 0.50978 0.45854 0.0
C305 C 1.15093 0.58829 0.47098 0.0
H306 H 0.48306 0.94672 0.41148 0.0
C307 C 1.15494 0.5743 0.40827 0.0
C308 C 1.19795 0.62728 0.43626 0.0
H309 H 0.45596 0.87457 0.52013 0.0
H310 H 0.33203 0.75191 0.50433 0.0
H311 H 0.46537 0.79 0.38731 0.0
H312 H 0.30114 0.8769 0.38698 0.0
H313 H 0.29217 0.83096 0.34582 0.0
H314 H 0.38588 0.91392 0.35848 0.0
H315 H 0.46989 0.85875 0.35495 0.0
H316 H 0.41065 0.7543 0.34828 0.0
C317 C 1.2007 0.56854 0.49615 0.0
C318 C 1.12441 0.64159 0.48914 0.0
C319 C 1.19919 0.57967 0.27467 0.0
C320 C 0.25178 0.63671 0.25086 0.0
C321 C 0.30351 0.7125 0.26402 0.0
C322 C 0.30532 0.72988 0.30049 0.0
C323 C 0.25452 0.67098 0.32439 0.0
C324 C 1.2008 0.59835 0.31084 0.0
C325 C 1.14683 0.54463 0.33903 0.0
C326 C 1.18002 0.59456 0.37243 0.0
C327 C 0.24404 0.66833 0.36395 0.0
C328 C 1.15713 0.47101 0.34002 0.0
C329 C 1.06154 0.52797 0.33023 0.0
C330 C 0.45237 0.90586 0.43239 0.0
C331 C 0.48302 0.92403 0.46722 0.0
C332 C 0.43668 0.86498 0.49278 0.0
C333 C 0.3642 0.79315 0.48364 0.0
C334 C 0.33679 0.77594 0.448 0.0
C335 C 0.38396 0.83283 0.42339 0.0
C336 C 0.35907 0.80443 0.38621 0.0
C337 C 0.28857 0.72259 0.39151 0.0
C338 C 0.26998 0.70354 0.428 0.0
C339 C 0.42954 0.80203 0.36791 0.0
C340 C 0.33367 0.85944 0.36811 0.0
H341 H 1.02747 0.42324 0.37759 0.0
H342 H 1.00403 0.45508 0.50601 0.0
H343 H 1.08759 0.65458 0.47079 0.0
H344 H 1.17661 0.698 0.49722 0.0
H345 H 1.08871 0.61289 0.51308 0.0
H346 H 0.21892 0.5294 0.4828 0.0
H347 H 1.16605 0.53816 0.52011 0.0
H348 H 0.2549 0.62211 0.50475 0.0
H349 H 1.15775 0.52115 0.26532 0.0
H350 H 0.34447 0.75759 0.24629 0.0
H351 H 0.3474 0.78835 0.30879 0.0
H352 H 0.21947 0.48681 0.3343 0.0
H353 H 1.11878 0.42686 0.32001 0.0
H354 H 1.14506 0.44304 0.36635 0.0
H355 H 1.06202 0.57512 0.31372 0.0
H356 H 1.02796 0.5266 0.35412 0.0
H357 H 1.02744 0.47205 0.3154 0.0
H358 H 0.91842 0.32361 0.40837 0.0
C359 C 1.02541 0.43385 0.4052 0.0
C360 C 0.77817 0.99888 0.80712 0.0
C361 C 0.77109 0.93035 0.78844 0.0
C362 C 0.75843 0.92928 0.7517 0.0
C363 C 0.76115 1.0566 0.75202 0.0
C364 C 0.77254 1.06142 0.78828 0.0
C365 C 0.77636 0.13914 0.80161 0.0
H366 H 0.79301 0.49751 0.74612 0.0
C367 C 0.76009 1.12887 0.73862 0.0
C368 C 0.76928 0.18015 0.76744 0.0
H369 H 0.77193 0.4306 0.85536 0.0
H370 H 0.7709 0.30708 0.83808 0.0
H371 H 0.90972 0.43658 0.72082 0.0
H372 H 0.65951 0.3458 0.7236 0.0
H373 H 0.67236 0.30379 0.68524 0.0
H374 H 0.71951 0.40923 0.6889 0.0
H375 H 0.8581 0.46757 0.69132 0.0
H376 H 0.87505 0.38732 0.68037 0.0
C377 C 0.85558 0.19149 0.82028 0.0
C378 C 0.70647 1.11869 0.82652 0.0
C379 C 0.72212 0.14857 0.6042 0.0
C380 C 0.72574 0.20976 0.583 0.0
C381 C 0.74528 0.28145 0.59967 0.0
C382 C 0.75861 0.29211 0.6361 0.0
C383 C 0.75245 0.23056 0.6573 0.0
C384 C 0.73641 0.16082 0.64128 0.0
C385 C 0.73848 1.1048 0.66823 0.0
C386 C 0.75392 0.15095 0.70309 0.0
C387 C 0.7611 0.22435 0.69631 0.0
C388 C 0.80824 1.09086 0.65841 0.0
C389 C 0.65605 1.02983 0.66813 0.0
C390 C 0.78861 0.45762 0.76685 0.0
C391 C 0.78295 0.47702 0.80218 0.0
C392 C 0.77634 0.41966 0.8276 0.0
C393 C 0.77567 0.34746 0.81762 0.0
C394 C 0.77942 0.32891 0.78146 0.0
C395 C 0.78475 0.38518 0.75739 0.0
C396 C 0.77967 0.35801 0.72017 0.0
C397 C 0.77081 0.27687 0.72454 0.0
C398 C 0.77292 0.25683 0.76057 0.0
C399 C 0.85921 0.41531 0.7019 0.0
C400 C 0.70454 0.35433 0.7033 0.0
H401 H 0.7438 0.98221 0.70598 0.0
H402 H 0.78783 1.00371 0.83544 0.0
H403 H 0.64943 1.07991 0.81286 0.0
H404 H 0.70573 0.17228 0.83527 0.0
H405 H 0.71041 1.0877 0.85036 0.0
H406 H 0.90539 0.20563 0.80185 0.0
H407 H 0.86238 0.16139 0.8438 0.0
H408 H 0.85958 0.24739 0.82912 0.0
H409 H 0.7091 1.09316 0.59233 0.0
H410 H 0.75005 0.33037 0.58447 0.0
H411 H 0.77286 0.3486 0.64614 0.0
H412 H 0.85433 0.1403 0.64275 0.0
H413 H 0.78767 1.03671 0.64232 0.0
H414 H 0.8404 1.08762 0.68198 0.0
H415 H 0.60822 1.04522 0.66587 0.0
H416 H 0.6433 0.9959 0.69287 0.0
H417 H 0.64985 0.99113 0.6454 0.0
H418 H 0.75273 0.88028 0.7361 0.0
C419 C 0.75357 0.99001 0.73392 0.0
C420 C 0.95395 0.60672 0.14125 0.0
C421 C 1.02962 0.62704 0.12507 0.0
C422 C 1.04235 0.66047 0.09123 0.0
C423 C 0.90931 0.64494 0.0876 0.0
C424 C 0.89499 0.61823 0.12208 0.0
C425 C 0.81323 0.60833 0.13353 0.0
H426 H 0.47878 0.63976 0.07627 0.0
C427 C 0.83895 0.64802 0.07287 0.0
C428 C 0.78063 0.62825 0.09958 0.0
H429 H 0.50891 0.58276 0.1829 0.0
H430 H 0.63576 0.58901 0.16591 0.0
H431 H 0.65403 0.77022 0.0613 0.0
H432 H 0.52498 0.52214 0.0422 0.0
H433 H 0.5891 0.5612 0.00609 0.0
H434 H 0.51511 0.58993 0.01385 0.0
H435 H 0.57647 0.72467 0.02892 0.0
H436 H 0.67795 0.75554 0.01823 0.0
C437 C 0.82639 0.66681 0.16342 0.0
C438 C 0.75789 0.52367 0.14536 0.0
C439 C 0.84564 0.70897 0.94058 0.0
C440 C 0.79015 0.71076 0.9171 0.0
C441 C 0.71619 0.69493 0.93051 0.0
C442 C 0.6979 0.67838 0.96662 0.0
C443 C 0.75385 0.67672 -0.00998 0.0
C444 C 0.82584 0.69091 0.97661 0.0
C445 C 0.8774 0.68502 0.00488 0.0
C446 C 0.82428 0.6638 0.03756 0.0
C447 C 0.75261 0.66068 0.02887 0.0
C448 C 0.95256 0.76706 0.00869 0.0
C449 C 0.8937 0.61799 -0.00615 0.0
C450 C 0.51205 0.62909 0.09642 0.0
C451 C 0.48206 0.61185 0.13112 0.0
C452 C 0.52901 0.59684 0.15582 0.0
C453 C 0.60306 0.6008 0.14606 0.0
C454 C 0.63206 0.61919 0.11089 0.0
C455 C 0.58438 0.63159 0.08708 0.0
C456 C 0.61768 0.64626 0.05048 0.0
C457 C 0.69506 0.64562 0.05562 0.0
C458 C 0.70653 0.62928 0.09121 0.0
C459 C 0.63201 0.72805 0.03876 0.0
C460 C 0.55887 0.57697 0.02667 0.0
H461 H 1.00006 0.69167 0.04664 0.0
H462 H 0.9418 0.58428 0.16799 0.0
H463 H 0.75114 0.48176 0.12398 0.0
H464 H 0.69836 0.51482 0.15186 0.0
H465 H 0.78205 0.50972 0.16922 0.0
H466 H 0.86793 0.72773 0.15477 0.0
H467 H 0.85201 0.65411 0.18715 0.0
H468 H 0.77003 0.6639 0.17116 0.0
H469 H 0.90307 0.72076 0.93105 0.0
H470 H 0.67294 0.69714 0.91321 0.0
H471 H 0.64095 0.66852 0.97492 0.0
H472 H 0.94228 0.81478 -0.00108 0.0
H473 H 1.00306 0.77044 -0.00651 0.0
H474 H 0.97066 0.78297 0.03669 0.0
H475 H 0.83971 0.568 0.98208 0.0
H476 H 0.90939 0.59227 0.01623 0.0
H477 H 0.94145 0.63844 0.97374 0.0
H478 H 1.09914 0.68149 0.07851 0.0
C479 C 0.98389 0.66775 0.07261 0.0
loop_
_geom_bond_atom_site_label_1
_geom_bond_atom_site_label_2
_geom_bond_distance
_geom_bond_site_symmetry_2
_ccdc_geom_bond_type
C0 Eu1 2.835 . S
C0 C2 1.500 . S
C0 O20 1.257 . S
C0 O21 1.260 . S
Eu1 C0 2.835 . S
Eu1 O20 2.473 . S
Eu1 O21 2.480 . S
Eu1 O22 2.430 . S
Eu1 O23 2.670 1_655 S
Eu1 O24 2.394 . S
Eu1 O29 2.355 1_655 S
Eu1 O31 2.374 1_655 S
C2 C0 1.500 . S
C2 C3 1.377 . S
C2 C7 1.377 . S
C3 C2 1.377 . S
C3 C4 1.395 . S
C3 H32 0.931 . S
C4 C3 1.395 . S
C4 C5 1.383 . S
C4 H33 0.931 . S
C5 C4 1.383 . S
C5 C6 1.394 . S
C6 C5 1.394 . S
C6 C7 1.378 . S
C6 H34 0.931 . S
C7 C2 1.377 . S
C7 C6 1.378 . S
C7 H35 0.931 . S
C8 O22 1.259 1_455 S
C8 O23 1.270 . S
C9 O24 1.251 . S
C9 O25 1.251 . S
C10 Eu11 2.835 . S
C10 C12 1.500 . S
C10 O26 1.257 . S
C10 O27 1.260 . S
Eu11 C10 2.835 . S
Eu11 O23 2.355 . S
Eu11 O25 2.374 1_455 S
Eu11 O26 2.473 . S
Eu11 O27 2.480 . S
Eu11 O28 2.430 . S
Eu11 O29 2.670 . S
Eu11 O30 2.394 . S
C12 C10 1.500 . S
C12 C13 1.377 . S
C12 C17 1.377 . S
C13 C12 1.377 . S
C13 C14 1.395 . S
C13 H36 0.931 . S
C14 C13 1.395 . S
C14 C15 1.383 . S
C14 H37 0.931 . S
C15 C14 1.383 . S
C15 C16 1.394 . S
C16 C15 1.394 . S
C16 C17 1.378 . S
C16 H38 0.931 . S
C17 C12 1.377 . S
C17 C16 1.378 . S
C17 H39 0.931 . S
C18 O28 1.259 . S
C18 O29 1.270 . S
C19 O30 1.251 . S
C19 O31 1.251 . S
O20 C0 1.257 . S
O20 Eu1 2.473 . S
O21 C0 1.260 . S
O21 Eu1 2.480 . S
O22 Eu1 2.430 . S
O22 C8 1.259 1_655 S
O23 Eu1 2.670 1_455 S
O23 C8 1.270 . S
O23 Eu11 2.355 . S
O24 Eu1 2.394 . S
O24 C9 1.251 . S
O25 C9 1.251 . S
O25 Eu11 2.374 1_655 S
O26 C10 1.257 . S
O26 Eu11 2.473 . S
O27 C10 1.260 . S
O27 Eu11 2.480 . S
O28 Eu11 2.430 . S
O28 C18 1.259 . S
O29 Eu1 2.355 1_455 S
O29 Eu11 2.670 . S
O29 C18 1.270 . S
O30 Eu11 2.394 . S
O30 C19 1.251 . S
O31 Eu1 2.374 1_455 S
O31 C19 1.251 . S
H32 C3 0.931 . S
H33 C4 0.931 . S
H34 C6 0.931 . S
H35 C7 0.931 . S
H36 C13 0.931 . S
H37 C14 0.931 . S
H38 C16 0.931 . S
H39 C17 0.931 . S
C40 Eu41 2.835 . S
C40 C42 1.500 . S
C40 O60 1.257 . S
C40 O61 1.260 . S
Eu41 C40 2.835 . S
Eu41 O60 2.473 . S
Eu41 O61 2.480 . S
Eu41 O62 2.430 . S
Eu41 O63 2.670 . S
Eu41 O64 2.394 . S
Eu41 O69 2.355 . S
Eu41 O71 2.374 1_545 S
C42 C40 1.500 . S
C42 C43 1.377 . S
C42 C47 1.377 . S
C43 C42 1.377 . S
C43 C44 1.395 . S
C43 H72 0.931 . S
C44 C43 1.395 . S
C44 C45 1.383 . S
C44 H73 0.931 . S
C45 C44 1.383 . S
C45 C46 1.394 . S
C46 C45 1.394 . S
C46 C47 1.378 . S
C46 H74 0.931 . S
C47 C42 1.377 . S
C47 C46 1.378 . S
C47 H75 0.931 . S
C48 O62 1.259 . S
C48 O63 1.270 . S
C49 O64 1.251 . S
C49 O65 1.251 . S
C50 Eu51 2.835 . S
C50 C52 1.500 . S
C50 O66 1.257 . S
C50 O67 1.260 . S
Eu51 C50 2.835 . S
Eu51 O63 2.355 1_565 S
Eu51 O65 2.374 1_565 S
Eu51 O66 2.473 . S
Eu51 O67 2.480 . S
Eu51 O68 2.433 . S
Eu51 O69 2.670 1_565 S
Eu51 O70 2.394 . S
C52 C50 1.500 . S
C52 C53 1.377 . S
C52 C57 1.377 . S
C53 C52 1.377 . S
C53 C54 1.395 . S
C53 H76 0.931 . S
C54 C53 1.395 . S
C54 C55 1.383 . S
C54 H77 0.931 . S
C55 C54 1.383 . S
C55 C56 1.394 . S
C56 C55 1.394 . S
C56 C57 1.378 . S
C56 H78 0.931 . S
C57 C52 1.377 . S
C57 C56 1.378 . S
C57 H79 0.931 . S
C58 O68 1.248 1_545 S
C58 O69 1.270 . S
C59 O70 1.251 . S
C59 O71 1.251 . S
O60 C40 1.257 . S
O60 Eu41 2.473 . S
O61 C40 1.260 . S
O61 Eu41 2.480 . S
O62 Eu41 2.430 . S
O62 C48 1.259 . S
O63 Eu41 2.670 . S
O63 C48 1.270 . S
O63 Eu51 2.355 1_545 S
O64 Eu41 2.394 . S
O64 C49 1.251 . S
O65 C49 1.251 . S
O65 Eu51 2.374 1_545 S
O66 C50 1.257 . S
O66 Eu51 2.473 . S
O67 C50 1.260 . S
O67 Eu51 2.480 . S
O68 Eu51 2.433 . S
O68 C58 1.248 1_565 S
O69 Eu41 2.355 . S
O69 Eu51 2.670 1_545 S
O69 C58 1.270 . S
O70 Eu51 2.394 . S
O70 C59 1.251 . S
O71 Eu41 2.374 1_565 S
O71 C59 1.251 . S
H72 C43 0.931 . S
H73 C44 0.931 . S
H74 C46 0.931 . S
H75 C47 0.931 . S
H76 C53 0.931 . S
H77 C54 0.931 . S
H78 C56 0.931 . S
H79 C57 0.931 . S
C80 Eu81 2.835 . S
C80 C82 1.500 . S
C80 O100 1.257 . S
C80 O101 1.260 . S
Eu81 C80 2.835 . S
Eu81 O100 2.473 . S
Eu81 O101 2.480 . S
Eu81 O102 2.430 . S
Eu81 O103 2.670 . S
Eu81 O104 2.394 . S
Eu81 O109 2.355 . S
Eu81 O111 2.374 . S
C82 C80 1.500 . S
C82 C83 1.377 . S
C82 C87 1.377 . S
C83 C82 1.377 . S
C83 C84 1.395 . S
C83 H112 0.931 . S
C84 C83 1.395 . S
C84 C85 1.383 . S
C84 H113 0.931 . S
C85 C84 1.383 . S
C85 C86 1.394 . S
C86 C85 1.394 . S
C86 C87 1.378 . S
C86 H114 0.931 . S
C87 C82 1.377 . S
C87 C86 1.378 . S
C87 H115 0.931 . S
C88 O102 1.259 . S
C88 O103 1.270 . S
C89 O104 1.251 . S
C89 O105 1.251 . S
C90 Eu91 2.835 . S
C90 C92 1.500 . S
C90 O106 1.257 . S
C90 O107 1.260 . S
Eu91 C90 2.835 . S
Eu91 O103 2.355 . S
Eu91 O105 2.374 . S
Eu91 O106 2.473 . S
Eu91 O107 2.480 . S
Eu91 O108 2.430 . S
Eu91 O109 2.670 . S
Eu91 O110 2.394 . S
C92 C90 1.500 . S
C92 C93 1.377 . S
C92 C97 1.377 . S
C93 C92 1.377 . S
C93 C94 1.395 . S
C93 H116 0.931 . S
C94 C93 1.395 . S
C94 C95 1.383 . S
C94 H117 0.931 . S
C95 C94 1.383 . S
C95 C96 1.394 . S
C96 C95 1.394 . S
C96 C97 1.378 . S
C96 H118 0.931 . S
C97 C92 1.377 . S
C97 C96 1.378 . S
C97 H119 0.931 . S
C98 O108 1.259 . S
C98 O109 1.270 . S
C99 O110 1.251 . S
C99 O111 1.251 . S
O100 C80 1.257 . S
O100 Eu81 2.473 . S
O101 C80 1.260 . S
O101 Eu81 2.480 . S
O102 Eu81 2.430 . S
O102 C88 1.259 . S
O103 Eu81 2.670 . S
O103 C88 1.270 . S
O103 Eu91 2.355 . S
O104 Eu81 2.394 . S
O104 C89 1.251 . S
O105 C89 1.251 . S
O105 Eu91 2.374 . S
O106 C90 1.257 . S
O106 Eu91 2.473 . S
O107 C90 1.260 . S
O107 Eu91 2.480 . S
O108 Eu91 2.430 . S
O108 C98 1.259 . S
O109 Eu81 2.355 . S
O109 Eu91 2.670 . S
O109 C98 1.270 . S
O110 Eu91 2.394 . S
O110 C99 1.251 . S
O111 Eu81 2.374 . S
O111 C99 1.251 . S
H112 C83 0.931 . S
H113 C84 0.931 . S
H114 C86 0.931 . S
H115 C87 0.931 . S
H116 C93 0.931 . S
H117 C94 0.931 . S
H118 C96 0.931 . S
H119 C97 0.931 . S
C120 C121 1.391 . S
C120 C124 1.391 . S
C120 H162 0.948 . S
C121 C120 1.391 . S
C121 C122 1.391 . S
C122 C121 1.391 . S
C122 H178 0.947 . S
C122 C179 1.392 . S
C123 C124 1.391 . S
C123 C127 1.397 . S
C123 C179 1.419 . S
C124 C120 1.391 . S
C124 C123 1.391 . S
C124 C125 1.399 . S
C125 C124 1.399 . S
C125 C128 1.396 . S
C125 C137 1.453 . S
C125 C138 1.684 . S
H126 C150 0.948 . S
C127 C123 1.397 . S
C127 C128 1.394 . S
C127 C146 1.723 . S
C128 C125 1.396 . S
C128 C127 1.394 . S
C128 C158 1.723 . S
H129 C152 0.947 . S
H130 C153 0.948 1_545 S
H131 C159 0.982 . S
H132 C160 0.979 . S
H133 C160 0.980 . S
H134 C160 0.983 . S
H135 C159 0.979 . S
H136 C159 0.977 . S
C137 C125 1.453 . S
C137 H166 0.982 . S
C137 H167 0.979 . S
C137 H168 0.977 . S
C138 C125 1.684 . S
C138 H163 0.979 . S
C138 H164 0.980 . S
C138 H165 0.983 . S
C139 C140 1.391 . S
C139 C144 1.391 . S
C139 H169 0.948 . S
C140 C139 1.391 . S
C140 C141 1.391 1_545 S
C141 C140 1.391 1_565 S
C141 C142 1.392 . S
C141 H170 0.947 . S
C142 C141 1.392 . S
C142 C143 1.419 1_565 S
C142 H171 0.948 . S
C143 C142 1.419 1_545 S
C143 C144 1.391 . S
C143 C147 1.397 . S
C144 C139 1.391 . S
C144 C143 1.391 . S
C144 C145 1.399 . S
C145 C144 1.399 . S
C145 C146 1.396 . S
C145 C148 1.453 . S
C145 C149 1.684 . S
C146 C127 1.723 . S
C146 C145 1.396 . S
C146 C147 1.394 . S
C147 C143 1.397 . S
C147 C146 1.394 . S
C147 C157 1.723 1_545 S
C148 C145 1.453 . S
C148 H172 0.982 . S
C148 H173 0.979 . S
C148 H174 0.977 . S
C149 C145 1.684 . S
C149 H175 0.979 . S
C149 H176 0.980 . S
C149 H177 0.983 . S
C150 H126 0.948 . S
C150 C151 1.391 . S
C150 C155 1.391 . S
C151 C150 1.391 . S
C151 C152 1.391 . S
C152 H129 0.947 . S
C152 C151 1.391 . S
C152 C153 1.392 . S
C153 H130 0.948 1_565 S
C153 C152 1.392 . S
C153 C154 1.419 . S
C154 C153 1.419 . S
C154 C155 1.391 . S
C154 C158 1.397 1_565 S
C155 C150 1.391 . S
C155 C154 1.391 . S
C155 C156 1.399 . S
C156 C155 1.399 . S
C156 C157 1.396 . S
C156 C159 1.453 . S
C156 C160 1.684 . S
C157 C147 1.723 1_565 S
C157 C156 1.396 . S
C157 C158 1.394 1_565 S
C158 C128 1.723 . S
C158 C154 1.397 1_545 S
C158 C157 1.394 1_545 S
C159 H131 0.982 . S
C159 H135 0.979 . S
C159 H136 0.977 . S
C159 C156 1.453 . S
C160 H132 0.979 . S
C160 H133 0.980 . S
C160 H134 0.983 . S
C160 C156 1.684 . S
H161 C179 0.948 . S
H162 C120 0.948 . S
H163 C138 0.979 . S
H164 C138 0.980 . S
H165 C138 0.983 . S
H166 C137 0.982 . S
H167 C137 0.979 . S
H168 C137 0.977 . S
H169 C139 0.948 . S
H170 C141 0.947 . S
H171 C142 0.948 . S
H172 C148 0.982 . S
H173 C148 0.979 . S
H174 C148 0.977 . S
H175 C149 0.979 . S
H176 C149 0.980 . S
H177 C149 0.983 . S
H178 C122 0.947 . S
C179 C122 1.392 . S
C179 C123 1.419 . S
C179 H161 0.948 . S
C180 C181 1.391 . S
C180 C184 1.391 . S
C180 H222 0.948 . S
C181 C180 1.391 . S
C181 C182 1.391 . S
C182 C181 1.391 . S
C182 H238 0.947 . S
C182 C239 1.392 . S
C183 C184 1.391 . S
C183 C187 1.397 . S
C183 C239 1.419 . S
C184 C180 1.391 . S
C184 C183 1.391 . S
C184 C185 1.399 . S
C185 C184 1.399 . S
C185 C188 1.396 . S
C185 C197 1.453 . S
C185 C198 1.684 . S
H186 C210 0.948 . S
C187 C183 1.397 . S
C187 C188 1.394 . S
C187 C206 1.723 . S
C188 C185 1.396 . S
C188 C187 1.394 . S
C188 C218 1.723 . S
H189 C212 0.947 . S
H190 C213 0.948 . S
H191 C219 0.982 . S
H192 C220 0.979 . S
H193 C220 0.980 . S
H194 C220 0.983 . S
H195 C219 0.979 . S
H196 C219 0.977 . S
C197 C185 1.453 . S
C197 H226 0.982 . S
C197 H227 0.979 . S
C197 H228 0.977 . S
C198 C185 1.684 . S
C198 H223 0.979 . S
C198 H224 0.980 . S
C198 H225 0.983 . S
C199 C200 1.391 . S
C199 C204 1.391 . S
C199 H229 0.948 . S
C200 C199 1.391 . S
C200 C201 1.391 . S
C201 C200 1.391 . S
C201 C202 1.392 . S
C201 H230 0.947 . S
C202 C201 1.392 . S
C202 C203 1.419 . S
C202 H231 0.948 . S
C203 C202 1.419 . S
C203 C204 1.391 . S
C203 C207 1.397 . S
C204 C199 1.391 . S
C204 C203 1.391 . S
C204 C205 1.399 . S
C205 C204 1.399 . S
C205 C206 1.396 . S
C205 C208 1.453 . S
C205 C209 1.684 . S
C206 C187 1.723 . S
C206 C205 1.396 . S
C206 C207 1.394 . S
C207 C203 1.397 . S
C207 C206 1.394 . S
C207 C217 1.723 . S
C208 C205 1.453 . S
C208 H232 0.982 . S
C208 H233 0.979 . S
C208 H234 0.977 . S
C209 C205 1.684 . S
C209 H235 0.979 . S
C209 H236 0.980 . S
C209 H237 0.983 . S
C210 H186 0.948 . S
C210 C211 1.391 . S
C210 C215 1.391 . S
C211 C210 1.391 . S
C211 C212 1.391 . S
C212 H189 0.947 . S
C212 C211 1.391 . S
C212 C213 1.392 . S
C213 H190 0.948 . S
C213 C212 1.392 . S
C213 C214 1.419 . S
C214 C213 1.419 . S
C214 C215 1.391 . S
C214 C218 1.397 . S
C215 C210 1.391 . S
C215 C214 1.391 . S
C215 C216 1.399 . S
C216 C215 1.399 . S
C216 C217 1.396 . S
C216 C219 1.453 . S
C216 C220 1.684 . S
C217 C207 1.723 . S
C217 C216 1.396 . S
C217 C218 1.394 . S
C218 C188 1.723 . S
C218 C214 1.397 . S
C218 C217 1.394 . S
C219 H191 0.982 . S
C219 H195 0.979 . S
C219 H196 0.977 . S
C219 C216 1.453 . S
C220 H192 0.979 . S
C220 H193 0.980 . S
C220 H194 0.983 . S
C220 C216 1.684 . S
H221 C239 0.948 . S
H222 C180 0.948 . S
H223 C198 0.979 . S
H224 C198 0.980 . S
H225 C198 0.983 . S
H226 C197 0.982 . S
H227 C197 0.979 . S
H228 C197 0.977 . S
H229 C199 0.948 . S
H230 C201 0.947 . S
H231 C202 0.948 . S
H232 C208 0.982 . S
H233 C208 0.979 . S
H234 C208 0.977 . S
H235 C209 0.979 . S
H236 C209 0.980 . S
H237 C209 0.983 . S
H238 C182 0.947 . S
C239 C182 1.392 . S
C239 C183 1.419 . S
C239 H221 0.948 . S
C240 C241 1.391 . S
C240 C244 1.391 . S
C240 H282 0.948 . S
C241 C240 1.391 . S
C241 C242 1.391 . S
C242 C241 1.391 . S
C242 H298 0.947 . S
C242 C299 1.392 . S
C243 C244 1.391 . S
C243 C247 1.397 . S
C243 C299 1.419 . S
C244 C240 1.391 . S
C244 C243 1.391 . S
C244 C245 1.399 . S
C245 C244 1.399 . S
C245 C248 1.396 . S
C245 C257 1.453 . S
C245 C258 1.684 . S
H246 C270 0.948 . S
C247 C243 1.397 . S
C247 C248 1.394 . S
C247 C266 1.723 . S
C248 C245 1.396 . S
C248 C247 1.394 . S
C248 C278 1.723 1_455 S
H249 C272 0.947 . S
H250 C273 0.948 . S
H251 C279 0.982 . S
H252 C280 0.979 . S
H253 C280 0.980 . S
H254 C280 0.983 . S
H255 C279 0.979 . S
H256 C279 0.977 . S
C257 C245 1.453 . S
C257 H286 0.986 1_455 S
C257 H287 0.979 . S
C257 H288 0.977 1_455 S
C258 C245 1.684 . S
C258 H283 0.979 . S
C258 H284 0.980 . S
C258 H285 0.983 . S
C259 C260 1.391 . S
C259 C264 1.391 . S
C259 H289 0.948 . S
C260 C259 1.391 . S
C260 C261 1.391 1_455 S
C261 C260 1.391 1_655 S
C261 C262 1.392 . S
C261 H290 0.947 . S
C262 C261 1.392 . S
C262 C263 1.419 . S
C262 H291 0.948 . S
C263 C262 1.419 . S
C263 C264 1.391 1_655 S
C263 C267 1.397 1_554 S
C264 C259 1.391 . S
C264 C263 1.391 1_455 S
C264 C265 1.399 1_554 S
C265 C264 1.399 1_556 S
C265 C266 1.396 . S
C265 C268 1.453 . S
C265 C269 1.682 1_556 S
C266 C247 1.723 . S
C266 C265 1.396 . S
C266 C267 1.394 1_455 S
C267 C263 1.397 1_556 S
C267 C266 1.394 1_655 S
C267 C277 1.723 . S
C268 C265 1.453 . S
C268 H292 0.982 . S
C268 H293 0.975 1_556 S
C268 H294 0.980 . S
C269 C265 1.682 1_554 S
C269 H295 0.977 1_554 S
C269 H296 0.965 1_554 S
C269 H297 1.001 . S
C270 H246 0.948 . S
C270 C271 1.391 . S
C270 C275 1.391 . S
C271 C270 1.391 . S
C271 C272 1.391 . S
C272 H249 0.947 . S
C272 C271 1.391 . S
C272 C273 1.392 . S
C273 H250 0.948 . S
C273 C272 1.392 . S
C273 C274 1.419 . S
C274 C273 1.419 . S
C274 C275 1.391 . S
C274 C278 1.397 . S
C275 C270 1.391 . S
C275 C274 1.391 . S
C275 C276 1.399 . S
C276 C275 1.399 . S
C276 C277 1.396 . S
C276 C279 1.453 . S
C276 C280 1.684 . S
C277 C267 1.723 . S
C277 C276 1.396 . S
C277 C278 1.394 . S
C278 C248 1.723 1_655 S
C278 C274 1.397 . S
C278 C277 1.394 . S
C279 H251 0.982 . S
C279 H255 0.979 . S
C279 H256 0.977 . S
C279 C276 1.453 . S
C280 H252 0.979 . S
C280 H253 0.980 . S
C280 H254 0.983 . S
C280 C276 1.684 . S
H281 C299 0.948 . S
H282 C240 0.948 . S
H283 C258 0.979 . S
H284 C258 0.980 . S
H285 C258 0.983 . S
H286 C257 0.986 1_655 S
H287 C257 0.979 . S
H288 C257 0.977 1_655 S
H289 C259 0.948 . S
H290 C261 0.947 . S
H291 C262 0.948 . S
H292 C268 0.982 . S
H293 C268 0.975 1_554 S
H294 C268 0.980 . S
H295 C269 0.977 1_556 S
H296 C269 0.965 1_556 S
H297 C269 1.001 . S
H298 C242 0.947 . S
C299 C242 1.392 . S
C299 C243 1.419 . S
C299 H281 0.948 . S
C300 C301 1.391 . S
C300 C304 1.391 . S
C300 H342 0.948 . S
C301 C300 1.391 . S
C301 C302 1.391 . S
C302 C301 1.391 . S
C302 H358 0.947 . S
C302 C359 1.392 . S
C303 C304 1.391 . S
C303 C307 1.397 1_655 S
C303 C359 1.419 . S
C304 C300 1.391 . S
C304 C303 1.391 . S
C304 C305 1.399 1_655 S
C305 C304 1.399 1_455 S
C305 C308 1.396 . S
C305 C317 1.453 . S
C305 C318 1.684 . S
H306 C330 0.948 . S
C307 C303 1.397 1_455 S
C307 C308 1.394 . S
C307 C326 1.723 . S
C308 C305 1.396 . S
C308 C307 1.394 . S
C308 C338 1.723 . S
H309 C332 0.947 . S
H310 C333 0.948 . S
H311 C339 0.982 . S
H312 C340 0.979 . S
H313 C340 0.980 . S
H314 C340 0.983 . S
H315 C339 0.979 . S
H316 C339 0.977 . S
C317 C305 1.453 . S
C317 H346 0.982 . S
C317 H347 0.979 . S
C317 H348 0.977 . S
C318 C305 1.684 . S
C318 H343 0.979 1_455 S
C318 H344 0.980 . S
C318 H345 0.983 1_455 S
C319 C320 1.391 . S
C319 C324 1.391 . S
C319 H349 0.948 1_455 S
C320 C319 1.391 . S
C320 C321 1.391 . S
C321 C320 1.391 . S
C321 C322 1.392 . S
C321 H350 0.947 . S
C322 C321 1.392 . S
C322 C323 1.419 . S
C322 H351 0.948 . S
C323 C322 1.419 . S
C323 C324 1.391 . S
C323 C327 1.397 . S
C324 C319 1.391 . S
C324 C323 1.391 . S
C324 C325 1.399 1_455 S
C325 C324 1.399 1_655 S
C325 C326 1.396 1_655 S
C325 C328 1.453 . S
C325 C329 1.684 . S
C326 C307 1.723 . S
C326 C325 1.396 1_455 S
C326 C327 1.394 . S
C327 C323 1.397 . S
C327 C326 1.394 . S
C327 C337 1.723 . S
C328 C325 1.453 . S
C328 H352 0.982 1_655 S
C328 H353 0.979 . S
C328 H354 0.977 . S
C329 C325 1.684 . S
C329 H355 0.979 . S
C329 H356 0.980 . S
C329 H357 0.983 . S
C330 H306 0.948 . S
C330 C331 1.391 . S
C330 C335 1.391 . S
C331 C330 1.391 . S
C331 C332 1.391 . S
C332 H309 0.947 . S
C332 C331 1.391 . S
C332 C333 1.392 . S
C333 H310 0.948 . S
C333 C332 1.392 . S
C333 C334 1.419 . S
C334 C333 1.419 . S
C334 C335 1.391 . S
C334 C338 1.397 . S
C335 C330 1.391 . S
C335 C334 1.391 . S
C335 C336 1.399 . S
C336 C335 1.399 . S
C336 C337 1.396 . S
C336 C339 1.453 . S
C336 C340 1.684 . S
C337 C327 1.723 . S
C337 C336 1.396 . S
C337 C338 1.394 . S
C338 C308 1.723 . S
C338 C334 1.397 . S
C338 C337 1.394 . S
C339 H311 0.982 . S
C339 H315 0.979 . S
C339 H316 0.977 . S
C339 C336 1.453 . S
C340 H312 0.979 . S
C340 H313 0.980 . S
C340 H314 0.983 . S
C340 C336 1.684 . S
H341 C359 0.948 . S
H342 C300 0.948 . S
H343 C318 0.979 1_655 S
H344 C318 0.980 . S
H345 C318 0.983 1_655 S
H346 C317 0.982 . S
H347 C317 0.979 . S
H348 C317 0.977 . S
H349 C319 0.948 1_655 S
H350 C321 0.947 . S
H351 C322 0.948 . S
H352 C328 0.982 1_455 S
H353 C328 0.979 . S
H354 C328 0.977 . S
H355 C329 0.979 . S
H356 C329 0.980 . S
H357 C329 0.983 . S
H358 C302 0.947 . S
C359 C302 1.392 . S
C359 C303 1.419 . S
C359 H341 0.948 . S
C360 C361 1.391 . S
C360 C364 1.391 . S
C360 H402 0.948 . S
C361 C360 1.391 . S
C361 C362 1.391 . S
C362 C361 1.391 . S
C362 H418 0.947 . S
C362 C419 1.392 . S
C363 C364 1.391 . S
C363 C367 1.397 . S
C363 C419 1.419 . S
C364 C360 1.391 . S
C364 C363 1.391 . S
C364 C365 1.399 . S
C365 C364 1.399 . S
C365 C368 1.396 . S
C365 C377 1.453 . S
C365 C378 1.684 . S
H366 C390 0.948 . S
C367 C363 1.397 . S
C367 C368 1.394 . S
C367 C386 1.723 . S
C368 C365 1.396 . S
C368 C367 1.394 . S
C368 C398 1.723 1_565 S
H369 C392 0.947 . S
H370 C393 0.948 . S
H371 C399 0.982 . S
H372 C400 0.979 . S
H373 C400 0.980 . S
H374 C400 0.983 . S
H375 C399 0.979 . S
H376 C399 0.977 . S
C377 C365 1.453 . S
C377 H406 0.982 1_565 S
C377 H407 0.979 . S
C377 H408 0.977 1_565 S
C378 C365 1.684 . S
C378 H403 0.979 . S
C378 H404 0.980 . S
C378 H405 0.983 . S
C379 C380 1.391 1_565 S
C379 C384 1.391 . S
C379 H409 0.948 . S
C380 C379 1.391 1_545 S
C380 C381 1.391 . S
C381 C380 1.391 . S
C381 C382 1.392 . S
C381 H410 0.947 . S
C382 C381 1.392 . S
C382 C383 1.419 . S
C382 H411 0.948 . S
C383 C382 1.419 . S
C383 C384 1.391 1_545 S
C383 C387 1.397 . S
C384 C379 1.391 . S
C384 C383 1.391 1_565 S
C384 C385 1.399 . S
C385 C384 1.399 . S
C385 C386 1.396 . S
C385 C388 1.453 . S
C385 C389 1.684 . S
C386 C367 1.723 . S
C386 C385 1.396 . S
C386 C387 1.394 1_565 S
C387 C383 1.397 . S
C387 C386 1.394 1_545 S
C387 C397 1.723 . S
C388 C385 1.453 . S
C388 H412 0.982 . S
C388 H413 0.979 . S
C388 H414 0.977 . S
C389 C385 1.684 . S
C389 H415 0.979 . S
C389 H416 0.980 . S
C389 H417 0.983 . S
C390 H366 0.948 . S
C390 C391 1.391 . S
C390 C395 1.391 . S
C391 C390 1.391 . S
C391 C392 1.391 . S
C392 H369 0.947 . S
C392 C391 1.391 . S
C392 C393 1.392 . S
C393 H370 0.948 . S
C393 C392 1.392 . S
C393 C394 1.419 . S
C394 C393 1.419 . S
C394 C395 1.391 . S
C394 C398 1.397 . S
C395 C390 1.391 . S
C395 C394 1.391 . S
C395 C396 1.399 . S
C396 C395 1.399 . S
C396 C397 1.396 . S
C396 C399 1.453 . S
C396 C400 1.684 . S
C397 C387 1.723 . S
C397 C396 1.396 . S
C397 C398 1.394 . S
C398 C368 1.723 1_545 S
C398 C394 1.397 . S
C398 C397 1.394 . S
C399 H371 0.982 . S
C399 H375 0.979 . S
C399 H376 0.977 . S
C399 C396 1.453 . S
C400 H372 0.979 . S
C400 H373 0.980 . S
C400 H374 0.983 . S
C400 C396 1.684 . S
H401 C419 0.948 . S
H402 C360 0.948 . S
H403 C378 0.979 . S
H404 C378 0.980 . S
H405 C378 0.983 . S
H406 C377 0.982 1_545 S
H407 C377 0.979 . S
H408 C377 0.977 1_545 S
H409 C379 0.948 . S
H410 C381 0.947 . S
H411 C382 0.948 . S
H412 C388 0.982 . S
H413 C388 0.979 . S
H414 C388 0.977 . S
H415 C389 0.979 . S
H416 C389 0.980 . S
H417 C389 0.983 . S
H418 C362 0.947 . S
C419 C362 1.392 . S
C419 C363 1.419 . S
C419 H401 0.948 . S
C420 C421 1.391 . S
C420 C424 1.391 . S
C420 H462 0.948 . S
C421 C420 1.391 . S
C421 C422 1.391 . S
C422 C421 1.391 . S
C422 H478 0.947 . S
C422 C479 1.392 . S
C423 C424 1.391 . S
C423 C427 1.397 . S
C423 C479 1.419 . S
C424 C420 1.391 . S
C424 C423 1.391 . S
C424 C425 1.399 . S
C425 C424 1.399 . S
C425 C428 1.396 . S
C425 C437 1.453 . S
C425 C438 1.684 . S
H426 C450 0.948 . S
C427 C423 1.397 . S
C427 C428 1.394 . S
C427 C446 1.723 . S
C428 C425 1.396 . S
C428 C427 1.394 . S
C428 C458 1.723 . S
H429 C452 0.947 . S
H430 C453 0.948 . S
H431 C459 0.982 . S
H432 C460 0.979 . S
H433 C460 0.980 . S
H434 C460 0.983 . S
H435 C459 0.979 . S
H436 C459 0.977 . S
C437 C425 1.453 . S
C437 H466 0.982 . S
C437 H467 0.979 . S
C437 H468 0.977 . S
C438 C425 1.684 . S
C438 H463 0.979 . S
C438 H464 0.980 . S
C438 H465 0.983 . S
C439 C440 1.391 . S
C439 C444 1.391 . S
C439 H469 0.948 . S
C440 C439 1.391 . S
C440 C441 1.391 . S
C441 C440 1.391 . S
C441 C442 1.392 . S
C441 H470 0.947 . S
C442 C441 1.392 . S
C442 C443 1.419 1_556 S
C442 H471 0.948 1_556 S
C443 C442 1.419 1_554 S
C443 C444 1.391 1_554 S
C443 C447 1.397 . S
C444 C439 1.391 . S
C444 C443 1.391 1_556 S
C444 C445 1.399 1_556 S
C445 C444 1.399 1_554 S
C445 C446 1.396 . S
C445 C448 1.453 . S
C445 C449 1.684 . S
C446 C427 1.723 . S
C446 C445 1.396 . S
C446 C447 1.394 . S
C447 C443 1.397 . S
C447 C446 1.394 . S
C447 C457 1.723 . S
C448 C445 1.453 . S
C448 H472 0.982 . S
C448 H473 0.979 . S
C448 H474 0.977 . S
C449 C445 1.684 . S
C449 H475 0.979 . S
C449 H476 0.980 . S
C449 H477 0.975 1_554 S
C450 H426 0.948 . S
C450 C451 1.391 . S
C450 C455 1.391 . S
C451 C450 1.391 . S
C451 C452 1.391 . S
C452 H429 0.947 . S
C452 C451 1.391 . S
C452 C453 1.392 . S
C453 H430 0.948 . S
C453 C452 1.392 . S
C453 C454 1.419 . S
C454 C453 1.419 . S
C454 C455 1.391 . S
C454 C458 1.397 . S
C455 C450 1.391 . S
C455 C454 1.391 . S
C455 C456 1.399 . S
C456 C455 1.399 . S
C456 C457 1.396 . S
C456 C459 1.453 . S
C456 C460 1.684 . S
C457 C447 1.723 . S
C457 C456 1.396 . S
C457 C458 1.394 . S
C458 C428 1.723 . S
C458 C454 1.397 . S
C458 C457 1.394 . S
C459 H431 0.982 . S
C459 H435 0.979 . S
C459 H436 0.977 . S
C459 C456 1.453 . S
C460 H432 0.979 . S
C460 H433 0.980 . S
C460 H434 0.983 . S
C460 C456 1.684 . S
H461 C479 0.948 . S
H462 C420 0.948 . S
H463 C438 0.979 . S
H464 C438 0.980 . S
H465 C438 0.983 . S
H466 C437 0.982 . S
H467 C437 0.979 . S
H468 C437 0.977 . S
H469 C439 0.948 . S
H470 C441 0.947 . S
H471 C442 0.948 1_554 S
H472 C448 0.982 . S
H473 C448 0.979 . S
H474 C448 0.977 . S
H475 C449 0.979 . S
H476 C449 0.980 . S
H477 C449 0.975 1_556 S
H478 C422 0.947 . S
C479 C422 1.392 . S
C479 C423 1.419 . S
C479 H461 0.948 . S
C19 C451 4.999 . S
C49 C301 4.792 . S
C99 C361 4.709 . S
C9 C421 4.792 . S
C331 C59 4.999 . S
C391 C89 5.052 . S
C55 C181 2.093 . S
C85 C271 1.878 . S
C15 C151 1.927 . S
C211 C45 1.877 . S
C241 C95 2.093 . S
C5 C121 2.391 . S
C260 C18 1.056 . S
C58 C140 1.400 . S
C98 C200 1.055 . S
C380 C48 2.000 . S
C440 C88 2.062 . S
C8 C320 2.062 . S
