# Generated by pormake.
# Topology pth, (4,4)-cn, num edge types: 1
# Building blocks:
#     Node 0, Type 0, BuildingBlock: KUFVIS_clean_sbu_0, # of connection points: 4
#     Node 1, Type 0, BuildingBlock: KUFVIS_clean_sbu_0, # of connection points: 4
#     Node 2, Type 0, BuildingBlock: KUFVIS_clean_sbu_0, # of connection points: 4
#     Node 3, Type 1, BuildingBlock: AZAVOO_clean_linker_0, # of connection points: 4
#     Node 4, Type 1, BuildingBlock: AZAVOO_clean_linker_0, # of connection points: 4
#     Node 5, Type 1, BuildingBlock: AZAVOO_clean_linker_0, # of connection points: 4
#     Edge 6, Type (0, 1), BuildingBlock: TEMPAE_clean_linker_10, # of connection points: 2
#     Edge 7, Type (0, 1), BuildingBlock: TEMPAE_clean_linker_10, # of connection points: 2
#     Edge 8, Type (0, 1), BuildingBlock: TEMPAE_clean_linker_10, # of connection points: 2
#     Edge 9, Type (0, 1), BuildingBlock: TEMPAE_clean_linker_10, # of connection points: 2
#     Edge 10, Type (0, 1), BuildingBlock: TEMPAE_clean_linker_10, # of connection points: 2
#     Edge 11, Type (0, 1), BuildingBlock: TEMPAE_clean_linker_10, # of connection points: 2
#     Edge 12, Type (0, 1), BuildingBlock: TEMPAE_clean_linker_10, # of connection points: 2
#     Edge 13, Type (0, 1), BuildingBlock: TEMPAE_clean_linker_10, # of connection points: 2
#     Edge 14, Type (0, 1), BuildingBlock: TEMPAE_clean_linker_10, # of connection points: 2
#     Edge 15, Type (0, 1), BuildingBlock: TEMPAE_clean_linker_10, # of connection points: 2
#     Edge 16, Type (0, 1), BuildingBlock: TEMPAE_clean_linker_10, # of connection points: 2
#     Edge 17, Type (0, 1), BuildingBlock: TEMPAE_clean_linker_10, # of connection points: 2
# Relax obj value: 0.112
# Max RMSD: 0.225
# Mean RMSD: 0.161
data_MOF--net-pth--node1-KUFVIS_clean_sbu_0--node2-AZAVOO_clean_linker_0--edge1-TEMPAE_clean_linker_10
_symmetry_space_group_name_H-M    P1
_symmetry_Int_Tables_number       1
_symmetry_cell_setting            triclinic
loop_
_symmetry_equiv_pos_as_xyz
'x, y, z'
_cell_length_a     26.223582
_cell_length_b     26.502316
_cell_length_c     72.146562
_cell_angle_alpha  92.710379
_cell_angle_beta   90.949718
_cell_angle_gamma 120.2215
loop_
_atom_site_label
_atom_site_type_symbol
_atom_site_fract_x
_atom_site_fract_y
_atom_site_fract_z
_atom_type_partial_charge
Mn0 Mn 0.09398 0.08312 0.08163 0.0
Mn1 Mn 0.0215 0.14663 0.06426 0.0
C2 C 0.05044 0.05406 0.05209 0.0
C3 C 0.09347 0.01391 0.10024 0.0
C4 C 0.1552 0.20301 0.06598 0.0
O5 O 0.08548 0.12666 0.10419 0.0
O6 O 0.02579 0.15574 0.09184 0.0
C7 C 0.90306 0.0672 0.07794 0.0
N8 N 0.93815 0.09399 0.06367 0.0
C9 C 0.85435 0.053 0.04197 0.0
C10 C 0.81716 0.02565 0.05648 0.0
C11 C 0.8417 0.03241 0.07452 0.0
C12 C 0.91518 0.08663 0.04619 0.0
H13 H 0.92184 0.07222 0.09178 0.0
C14 C 0.05307 0.14957 0.10562 0.0
O15 O 0.1425 0.06092 0.09693 0.0
O16 O 0.04505 0.00726 0.09268 0.0
N17 N 0.01272 0.14105 0.03773 0.0
C18 C 0.05498 0.16697 0.02509 0.0
C19 C 0.03796 0.16285 0.00627 0.0
C20 C 0.97774 0.13307 0.0007 0.0
C21 C 0.93505 0.10663 0.01394 0.0
C22 C 0.95465 0.11203 0.03247 0.0
H23 H 0.1013 0.19089 0.02932 0.0
O24 O 0.09033 0.0419 0.05742 0.0
O25 O 0.03489 0.08025 0.06455 0.0
O26 O 0.15747 0.15991 0.07216 0.0
O27 O 0.10715 0.20385 0.0637 0.0
C28 C 0.87381 0.07516 0.00949 0.0
C29 C 0.83353 0.0478 0.02345 0.0
H30 H 0.76979 -0.00107 0.0539 0.0
H31 H 0.81337 0.011 0.08576 0.0
H32 H 0.07117 0.1832 0.99612 0.0
H33 H 0.96481 0.1307 0.98621 0.0
H34 H 0.85716 0.07125 0.99535 0.0
H35 H 0.78665 0.02264 0.01978 0.0
Mn36 Mn 0.01865 0.06337 0.41412 0.0
Mn37 Mn 0.10684 0.20603 0.42806 0.0
C38 C 0.08767 0.0898 0.43832 0.0
C39 C 0.0 0.98257 0.39483 0.0
C40 C 0.98055 0.13293 0.43957 0.0
O41 O 0.00674 0.10467 0.39291 0.0
O42 O 0.0701 0.19807 0.403 0.0
C43 C 0.19754 0.23319 0.40025 0.0
N44 N 0.18299 0.2334 0.41827 0.0
C45 C 0.28507 0.28171 0.42894 0.0
C46 C 0.30126 0.28272 0.41048 0.0
C47 C 0.25725 0.25799 0.39608 0.0
C48 C 0.22485 0.2559 0.43225 0.0
H49 H 0.16382 0.21408 0.38917 0.0
C50 C 0.03269 0.15951 0.39099 0.0
O51 O 0.95716 0.98551 0.40261 0.0
O52 O 0.0528 0.02729 0.39766 0.0
N53 N 0.14645 0.22221 0.45195 0.0
C54 C 0.12328 0.21524 0.46904 0.0
C55 C 0.16132 0.23789 0.48496 0.0
C56 C 0.22273 0.26795 0.48314 0.0
C57 C 0.2456 0.27375 0.46544 0.0
C58 C 0.20553 0.25088 0.45007 0.0
H59 H 0.07617 0.19273 0.47052 0.0
O60 O 0.04334 0.03678 0.43602 0.0
O61 O 0.0919 0.12571 0.42593 0.0
O62 O 0.96915 0.08541 0.4306 0.0
O63 O 0.03005 0.18063 0.43924 0.0
C64 C 0.30655 0.30142 0.46244 0.0
C65 C 0.32626 0.3049 0.44421 0.0
H66 H 0.34728 0.30197 0.4072 0.0
H67 H 0.26934 0.25819 0.3818 0.0
H68 H 0.14337 0.23276 0.4986 0.0
H69 H 0.2519 0.28645 0.49544 0.0
H70 H 0.33864 0.31956 0.47406 0.0
H71 H 0.37317 0.32541 0.4421 0.0
Mn72 Mn 0.08119 0.0951 0.75156 0.0
Mn73 Mn 0.02523 0.17787 0.76757 0.0
C74 C 0.13361 0.16947 0.77421 0.0
C75 C 0.13513 0.07512 0.73025 0.0
C76 C 0.98181 0.05378 0.77836 0.0
O77 O 0.0156 0.07714 0.73223 0.0
O78 O 0.99042 0.14327 0.74232 0.0
C79 C 0.0764 0.27176 0.74125 0.0
N80 N 0.06821 0.25491 0.759 0.0
C81 C 0.12064 0.35496 0.77139 0.0
C82 C 0.12898 0.37346 0.75324 0.0
C83 C 0.10714 0.33164 0.7381 0.0
C84 C 0.09012 0.29472 0.77366 0.0
H85 H 0.05975 0.23971 0.7296 0.0
C86 C 0.9869 0.10395 0.73046 0.0
O87 O 0.09552 0.03441 0.73981 0.0
O88 O 0.14194 0.12709 0.7326 0.0
N89 N 0.05566 0.21461 0.79182 0.0
C90 C 0.04785 0.18949 0.80837 0.0
C91 C 0.06906 0.22527 0.82491 0.0
C92 C 0.09719 0.28635 0.82427 0.0
C93 C 0.10488 0.31118 0.80706 0.0
C94 C 0.08314 0.27336 0.79105 0.0
H95 H 0.0254 0.14255 0.80897 0.0
O96 O 0.14464 0.12717 0.77166 0.0
O97 O 0.0931 0.16773 0.76312 0.0
O98 O 0.02024 0.04671 0.76996 0.0
O99 O 0.97802 0.09986 0.77764 0.0
C100 C 0.13329 0.37196 0.80516 0.0
C101 C 0.14183 0.39388 0.78733 0.0
H102 H 0.15255 0.41961 0.75076 0.0
H103 H 0.11384 0.34555 0.72404 0.0
H104 H 0.0632 0.2058 0.83813 0.0
H105 H 0.11297 0.31376 0.83707 0.0
H106 H 0.14921 0.40228 0.81731 0.0
H107 H 0.16497 0.44073 0.78604 0.0
H108 H -0.001 0.45782 0.12601 0.0
H109 H 0.07907 0.92026 0.27519 0.0
H110 H 0.90211 0.41071 0.22041 0.0
H111 H 0.9081 0.33337 0.20244 0.0
H112 H 0.07617 0.38655 0.23023 0.0
H113 H 0.0705 0.46487 0.24803 0.0
H114 H 0.93041 0.51613 0.19706 0.0
H115 H 0.94417 0.49109 0.16515 0.0
H116 H 0.11184 0.51021 0.18269 0.0
H117 H 0.0978 0.53578 0.21447 0.0
H118 H 0.93545 0.63094 0.21852 0.0
H119 H 0.95783 0.70448 0.19585 0.0
H120 H 0.13292 0.72911 0.19144 0.0
H121 H 0.11067 0.65633 0.21447 0.0
H122 H 0.913 0.63048 0.25979 0.0
H123 H 0.92107 0.7247 0.26849 0.0
H124 H 0.10959 0.8115 0.26175 0.0
H125 H 0.10094 0.71686 0.25329 0.0
H126 H 0.89198 0.53658 0.28431 0.0
H127 H 0.88488 0.59319 0.31114 0.0
H128 H 0.07466 0.70317 0.31439 0.0
H129 H 0.08161 0.64627 0.28789 0.0
H130 H 0.89171 0.40373 0.26192 0.0
H131 H 0.88242 0.33064 0.28342 0.0
H132 H 0.04704 0.45886 0.31164 0.0
H133 H 0.05795 0.53075 0.28959 0.0
O134 O 0.99465 0.46834 0.13867 0.0
O135 O 0.0826 0.48327 0.14814 0.0
O136 O 0.9773 0.83589 0.27452 0.0
O137 O 0.07464 0.88248 0.27177 0.0
C138 C 0.99131 0.50048 0.24112 0.0
C139 C 0.00396 0.54145 0.22751 0.0
C140 C 0.00851 0.59565 0.23238 0.0
C141 C 0.00136 0.60948 0.25089 0.0
C142 C 0.99078 0.56947 0.26469 0.0
C143 C 0.98517 0.51452 0.25981 0.0
C144 C 0.98616 0.44363 0.23534 0.0
C145 C 0.93907 0.4042 0.22317 0.0
C146 C 0.94262 0.36032 0.2129 0.0
C147 C 0.99285 0.35478 0.2149 0.0
C148 C 0.03695 0.39005 0.22857 0.0
C149 C 0.03368 0.43453 0.23875 0.0
C150 C 0.01304 0.52764 0.20805 0.0
C151 C 0.97019 0.51517 0.19394 0.0
C152 C 0.9781 0.50072 0.17575 0.0
C153 C 0.02911 0.49864 0.17137 0.0
C154 C 0.0721 0.5115 0.18557 0.0
C155 C 0.06415 0.52598 0.20374 0.0
C156 C 0.02148 0.6385 0.21813 0.0
C157 C 0.97866 0.65236 0.21269 0.0
C158 C 0.99151 0.69431 0.19982 0.0
C159 C 0.04714 0.72244 0.192 0.0
C160 C 0.08963 0.70772 0.19721 0.0
C161 C 0.077 0.6663 0.2103 0.0
C162 C 0.00639 0.66693 0.25595 0.0
C163 C 0.956 0.6699 0.26026 0.0
C164 C 0.96073 0.72376 0.26517 0.0
C165 C 0.01599 0.77567 0.26576 0.0
C166 C 0.06638 0.77242 0.2614 0.0
C167 C 0.06158 0.71849 0.25653 0.0
C168 C 0.9873 0.58754 0.28416 0.0
C169 C 0.9321 0.57093 0.29143 0.0
C170 C 0.92808 0.60344 0.30663 0.0
C171 C 0.97922 0.65276 0.31453 0.0
C172 C 0.0347 0.66541 0.30841 0.0
C173 C 0.03873 0.63271 0.29341 0.0
C174 C 0.97551 0.47268 0.27418 0.0
C175 C 0.92562 0.41613 0.2728 0.0
C176 C 0.92028 0.37455 0.28503 0.0
C177 C 0.96395 0.38952 0.29911 0.0
C178 C 0.01258 0.4467 0.30096 0.0
C179 C 0.01864 0.48778 0.28847 0.0
C180 C 0.0373 0.48304 0.15206 0.0
C181 C 0.02122 0.83301 0.27093 0.0
H182 H 0.58105 0.04316 0.46173 0.0
H183 H 0.25613 0.13505 0.63088 0.0
H184 H 0.58904 0.97734 0.55983 0.0
H185 H 0.66744 0.99135 0.53895 0.0
H186 H 0.76106 0.17634 0.55459 0.0
H187 H 0.68356 0.16191 0.57592 0.0
H188 H 0.49334 0.98351 0.53626 0.0
H189 H 0.51756 0.99136 0.50348 0.0
H190 H 0.63697 0.17732 0.51406 0.0
H191 H 0.61236 0.16873 0.54678 0.0
H192 H 0.37858 0.98718 0.55697 0.0
H193 H 0.31362 0.99798 0.53481 0.0
H194 H 0.44691 0.17974 0.53082 0.0
H195 H 0.51011 0.169 0.5537 0.0
H196 H 0.36618 0.97452 0.59541 0.0
H197 H 0.28365 0.98015 0.60866 0.0
H198 H 0.38854 0.1691 0.61134 0.0
H199 H 0.47059 0.16273 0.59803 0.0
H200 H 0.44727 0.95688 0.61833 0.0
H201 H 0.38926 0.94641 0.64567 0.0
H202 H 0.48205 0.13434 0.65564 0.0
H203 H 0.53913 0.14437 0.62827 0.0
H204 H 0.5887 0.96956 0.59619 0.0
H205 H 0.65845 0.96236 0.61757 0.0
H206 H 0.6972 0.12508 0.64635 0.0
H207 H 0.63032 0.13397 0.62438 0.0
O208 O 0.5715 0.04114 0.47467 0.0
O209 O 0.62853 0.13725 0.48051 0.0
O210 O 0.23296 0.03462 0.62146 0.0
O211 O 0.28761 0.13157 0.62528 0.0
C212 C 0.57643 0.06414 0.5765 0.0
C213 C 0.53832 0.06997 0.56382 0.0
C214 C 0.48811 0.07044 0.57012 0.0
C215 C 0.47563 0.06486 0.58903 0.0
C216 C 0.51321 0.0582 0.60172 0.0
C217 C 0.56385 0.05781 0.59549 0.0
C218 C 0.63107 0.06856 0.56948 0.0
C219 C 0.62805 0.0203 0.55952 0.0
C220 C 0.67242 0.02839 0.54752 0.0
C221 C 0.71959 0.08489 0.54522 0.0
C222 C 0.72496 0.13242 0.55629 0.0
C223 C 0.68118 0.12415 0.56855 0.0
C224 C 0.55118 0.07551 0.54382 0.0
C225 C 0.52447 0.02589 0.53141 0.0
C226 C 0.53852 0.03051 0.51273 0.0
C227 C 0.57932 0.08496 0.50616 0.0
C228 C 0.60537 0.13475 0.51866 0.0
C229 C 0.59142 0.13 0.53733 0.0
C230 C 0.44882 0.07731 0.55686 0.0
C231 C 0.39335 0.02935 0.55138 0.0
C232 C 0.35669 0.03551 0.5386 0.0
C233 C 0.37526 0.08966 0.53098 0.0
C234 C 0.43102 0.13765 0.53658 0.0
C235 C 0.46735 0.13155 0.54951 0.0
C236 C 0.42416 0.06821 0.59578 0.0
C237 C 0.37096 0.01703 0.59873 0.0
C238 C 0.32401 0.0204 0.60632 0.0
C239 C 0.3296 0.07512 0.61112 0.0
C240 C 0.38282 0.1263 0.60786 0.0
C241 C 0.42963 0.12283 0.60019 0.0
C242 C 0.49749 0.05134 0.6214 0.0
C243 C 0.45718 0.99554 0.627 0.0
C244 C 0.42366 0.98968 0.64245 0.0
C245 C 0.43074 0.03961 0.65257 0.0
C246 C 0.476 0.09513 0.64817 0.0
C247 C 0.50898 0.10095 0.63261 0.0
C248 C 0.60416 0.05216 0.60878 0.0
C249 C 0.61258 0.00386 0.60702 0.0
C250 C 0.65207 -0.00037 0.61921 0.0
C251 C 0.68248 0.04297 0.63357 0.0
C252 C 0.67356 0.09088 0.63546 0.0
C253 C 0.63524 0.0958 0.62301 0.0
C254 C 0.59473 0.0896 0.48637 0.0
C255 C 0.28036 0.07896 0.61958 0.0
H256 H 0.67938 0.72989 0.0378 0.0
H257 H 0.28694 0.23529 0.88632 0.0
H258 H 0.65178 0.74553 0.93835 0.0
H259 H 0.74097 0.83102 0.95217 0.0
H260 H 0.84416 0.75252 0.93529 0.0
H261 H 0.75429 0.66692 0.92133 0.0
H262 H 0.56114 0.64995 0.964 0.0
H263 H 0.59712 0.68634 0.99612 0.0
H264 H 0.73934 0.65043 0.98853 0.0
H265 H 0.70232 0.61332 0.95653 0.0
H266 H 0.44578 0.53638 0.94169 0.0
H267 H 0.38423 0.48098 0.96677 0.0
H268 H 0.52048 0.44665 0.98542 0.0
H269 H 0.5811 0.50011 0.95977 0.0
H270 H 0.43263 0.52585 0.90118 0.0
H271 H 0.34347 0.43539 0.88999 0.0
H272 H 0.42395 0.33587 0.90682 0.0
H273 H 0.51341 0.42695 0.91765 0.0
H274 H 0.52022 0.61736 0.87791 0.0
H275 H 0.45597 0.56563 0.8503 0.0
H276 H 0.50272 0.43123 0.85311 0.0
H277 H 0.56804 0.48414 0.88026 0.0
H278 H 0.6326 0.73302 0.90042 0.0
H279 H 0.69026 0.80313 0.87761 0.0
H280 H 0.73824 0.68118 0.8537 0.0
H281 H 0.68173 0.61159 0.877 0.0
O282 O 0.66541 0.71454 0.02515 0.0
O283 O 0.73807 0.69586 0.02045 0.0
O284 O 0.28149 0.32483 0.88302 0.0
O285 O 0.32112 0.27157 0.8911 0.0
C286 C 0.64164 0.64452 0.92396 0.0
C287 C 0.60854 0.60914 0.93825 0.0
C288 C 0.55503 0.55647 0.93378 0.0
C289 C 0.53588 0.53838 0.915 0.0
C290 C 0.5698 0.5735 0.90071 0.0
C291 C 0.62176 0.62739 0.90521 0.0
C292 C 0.69683 0.70025 0.92895 0.0
C293 C 0.69394 0.74764 0.93716 0.0
C294 C 0.74488 0.79641 0.94496 0.0
C295 C 0.79932 0.79816 0.9448 0.0
C296 C 0.80262 0.75201 0.93561 0.0
C297 C 0.75161 0.70343 0.9276 0.0
C298 C 0.62908 0.62895 0.95798 0.0
C299 C 0.59974 0.64952 0.96937 0.0
C300 C 0.62053 0.67048 0.98768 0.0
C301 C 0.6712 0.67143 0.99488 0.0
C302 C 0.70024 0.65037 0.98342 0.0
C303 C 0.67923 0.62919 0.96515 0.0
C304 C 0.51768 0.52183 0.94881 0.0
C305 C 0.46201 0.51618 0.951 0.0
C306 C 0.42713 0.48492 0.96535 0.0
C307 C 0.44793 0.45991 0.97795 0.0
C308 C 0.50387 0.46602 0.9759 0.0
C309 C 0.5383 0.4963 0.96129 0.0
C310 C 0.47958 0.48293 0.91011 0.0
C311 C 0.43079 0.48444 0.90252 0.0
C312 C 0.37993 0.43271 0.89614 0.0
C313 C 0.3767 0.37838 0.89741 0.0
C314 C 0.42507 0.37697 0.90556 0.0
C315 C 0.47608 0.42884 0.91186 0.0
C316 C 0.54807 0.55399 0.88115 0.0
C317 C 0.51866 0.57822 0.87201 0.0
C318 C 0.4815 0.54826 0.8564 0.0
C319 C 0.47332 0.49373 0.84982 0.0
C320 C 0.50816 0.47317 0.85779 0.0
C321 C 0.54551 0.5033 0.87332 0.0
C322 C 0.65368 0.66761 0.89051 0.0
C323 C 0.65578 0.72152 0.89032 0.0
C324 C 0.68853 0.76138 0.87731 0.0
C325 C 0.71881 0.74751 0.86403 0.0
C326 C 0.71502 0.69266 0.86379 0.0
C327 C 0.68294 0.65306 0.87704 0.0
C328 C 0.69373 0.69458 0.01425 0.0
C329 C 0.32345 0.32346 0.89009 0.0
C330 C 0.98989 0.15272 0.13031 0.0
C331 C 0.04641 0.17059 0.12411 0.0
C332 C 0.98234 0.17688 0.147 0.0
C333 C 0.03258 0.22156 0.1573 0.0
C334 C 0.08994 0.23804 0.15145 0.0
C335 C 0.09618 0.21157 0.13499 0.0
C336 C 0.9205 0.15705 0.153 0.0
C337 C 0.14451 0.28643 0.16181 0.0
C338 C 0.00635 0.33474 0.18211 0.0
C339 C 0.00369 0.32015 0.2006 0.0
C340 C 0.01713 0.30373 0.16802 0.0
C341 C 0.02461 0.25635 0.17251 0.0
C342 C 0.02224 0.24152 0.19122 0.0
C343 C 0.01248 0.27425 0.20516 0.0
C344 C 0.02041 0.32169 0.1483 0.0
C345 C 0.02868 0.19045 0.19641 0.0
H346 H 0.95149 0.12048 0.12195 0.0
H347 H 0.13985 0.22535 0.13006 0.0
H348 H 0.91723 0.14934 0.16803 0.0
H349 H 0.90963 0.19179 0.15078 0.0
H350 H 0.887 0.11632 0.14506 0.0
H351 H 0.1856 0.28925 0.15676 0.0
H352 H 0.14689 0.32891 0.15998 0.0
H353 H 0.14251 0.27992 0.17691 0.0
H354 H 0.0005 0.371 0.17872 0.0
H355 H 0.01055 0.26338 0.21953 0.0
H356 H 0.98678 0.28454 0.13913 0.0
H357 H 0.06438 0.33395 0.14299 0.0
H358 H 0.01305 0.3592 0.14719 0.0
H359 H 0.99253 0.14943 0.18939 0.0
H360 H 0.02737 0.18566 0.21164 0.0
H361 H 0.07092 0.19575 0.19157 0.0
C362 C 0.95425 0.17653 0.4666 0.0
C363 C 0.93703 0.13108 0.45278 0.0
C364 C 0.91779 0.17106 0.48126 0.0
C365 C 0.86195 0.11971 0.48181 0.0
C366 C 0.84239 0.07555 0.46722 0.0
C367 C 0.88043 0.08145 0.45296 0.0
C368 C 0.94023 0.21905 0.49661 0.0
C369 C 0.78219 0.02108 0.46704 0.0
C370 C 0.79624 0.07335 0.52875 0.0
C371 C 0.75768 0.09522 0.52944 0.0
C372 C 0.83098 0.08159 0.51335 0.0
C373 C 0.82551 0.11098 0.49818 0.0
C374 C 0.786 0.13262 0.49883 0.0
C375 C 0.75281 0.12481 0.51456 0.0
C376 C 0.87371 0.05915 0.51332 0.0
C377 C 0.77763 0.1627 0.48277 0.0
H378 H 0.99752 0.21543 0.46653 0.0
H379 H 0.86636 0.04642 0.44223 0.0
H380 H 0.90835 0.23454 0.49851 0.0
H381 H 0.94432 0.20166 0.50991 0.0
H382 H 0.98394 0.25705 0.4938 0.0
H383 H 0.77145 0.99364 0.45384 0.0
H384 H 0.78049 0.9945 0.47869 0.0
H385 H 0.74762 0.03299 0.46909 0.0
H386 H 0.79943 0.05023 0.54031 0.0
H387 H 0.72201 0.14076 0.5151 0.0
H388 H 0.91914 0.09563 0.51139 0.0
H389 H 0.86212 0.02628 0.50153 0.0
H390 H 0.87376 0.03871 0.52641 0.0
H391 H 0.82085 0.19665 0.47797 0.0
H392 H 0.75122 0.18355 0.48646 0.0
H393 H 0.75445 0.13008 0.47092 0.0
C394 C 0.95583 0.96685 0.79658 0.0
C395 C 0.94081 0.00689 0.79 0.0
C396 C 0.91875 0.92348 0.80821 0.0
C397 C 0.86486 0.91941 0.81313 0.0
C398 C 0.84876 0.95883 0.80622 0.0
C399 C 0.88724 0.00253 0.79487 0.0
C400 C 0.93792 0.8829 0.81559 0.0
C401 C 0.79116 0.95515 0.81095 0.0
C402 C 0.74891 0.7764 0.83176 0.0
C403 C 0.75579 0.79119 0.85089 0.0
C404 C 0.78344 0.81804 0.81922 0.0
C405 C 0.82648 0.87525 0.82609 0.0
C406 C 0.83383 0.89013 0.84544 0.0
C407 C 0.798 0.84799 0.8576 0.0
C408 C 0.7738 0.80093 0.79866 0.0
C409 C 0.88002 0.95034 0.85332 0.0
H410 H 0.99737 0.97023 0.793 0.0
H411 H 0.87521 0.03309 0.78973 0.0
H412 H 0.94228 0.8882 0.83099 0.0
H413 H 0.90399 0.83671 0.81175 0.0
H414 H 0.98078 0.89131 0.81021 0.0
H415 H 0.78375 0.98705 0.80365 0.0
H416 H 0.75371 0.91042 0.80721 0.0
H417 H 0.79074 0.96367 0.82613 0.0
H418 H 0.71589 0.73251 0.82661 0.0
H419 H 0.80362 0.85913 0.87244 0.0
H420 H 0.8148 0.80546 0.79294 0.0
H421 H 0.7634 0.83074 0.79131 0.0
H422 H 0.73732 0.75519 0.79556 0.0
H423 H 0.92448 0.95995 0.84923 0.0
H424 H 0.88024 0.95468 0.86872 0.0
H425 H 0.87205 0.98395 0.84755 0.0
C426 C 0.14161 0.98359 0.12396 0.0
C427 C 0.09209 0.97047 0.11257 0.0
C428 C 0.13907 0.94401 0.13668 0.0
C429 C 0.08596 0.89001 0.13784 0.0
C430 C 0.03655 0.87576 0.12591 0.0
C431 C 0.04012 0.91633 0.11349 0.0
C432 C 0.19246 0.96075 0.1493 0.0
C433 C 0.97934 0.81828 0.1266 0.0
C434 C 0.08438 0.76449 0.16152 0.0
C435 C 0.06066 0.76731 0.17853 0.0
C436 C 0.09421 0.80504 0.14822 0.0
C437 C 0.08054 0.84961 0.15221 0.0
C438 C 0.05837 0.85368 0.16963 0.0
C439 C 0.04838 0.81222 0.18255 0.0
C440 C 0.11735 0.79906 0.12972 0.0
C441 C 0.04394 0.90105 0.17447 0.0
H442 H 0.18186 0.02546 0.1233 0.0
H443 H 0.00186 0.9058 0.1046 0.0
H444 H 0.18199 0.96489 0.16393 0.0
H445 H 0.20434 0.92607 0.14832 0.0
H446 H 0.23142 0.00282 0.1459 0.0
H447 H 0.9464 0.81238 0.11556 0.0
H448 H 0.98772 0.78125 0.12507 0.0
H449 H 0.95991 0.81602 0.1403 0.0
H450 H 0.09354 0.72948 0.1584 0.0
H451 H 0.03078 0.81477 0.19584 0.0
H452 H 0.15698 0.84102 0.12672 0.0
H453 H 0.08338 0.78861 0.1185 0.0
H454 H 0.12904 0.76415 0.12923 0.0
H455 H 0.08274 0.94472 0.17247 0.0
H456 H 0.03053 0.90024 0.18903 0.0
H457 H 0.0074 0.89558 0.16504 0.0
C458 C 0.19257 0.12705 0.44801 0.0
C459 C 0.13368 0.10337 0.4527 0.0
C460 C 0.2355 0.13228 0.46106 0.0
C461 C 0.21833 0.11132 0.47891 0.0
C462 C 0.15895 0.08853 0.48379 0.0
C463 C 0.11723 0.0846 0.47055 0.0
C464 C 0.29856 0.15777 0.45547 0.0
C465 C 0.13879 0.06534 0.50262 0.0
C466 C 0.30375 0.05165 0.50344 0.0
C467 C 0.33644 0.0961 0.5173 0.0
C468 C 0.26564 0.05647 0.49075 0.0
C469 C 0.26066 0.10728 0.49181 0.0
C470 C 0.29426 0.15266 0.50556 0.0
C471 C 0.3316 0.14646 0.51819 0.0
C472 C 0.23004 0.00674 0.47638 0.0
C473 C 0.29071 0.20766 0.50701 0.0
H474 H 0.20461 0.13959 0.43396 0.0
H475 H 0.07128 0.06537 0.47397 0.0
H476 H 0.329 0.19247 0.46596 0.0
H477 H 0.31067 0.12322 0.4549 0.0
H478 H 0.30552 0.17667 0.44168 0.0
H479 H 0.0922 0.0533 0.50468 0.0
H480 H 0.14277 0.02598 0.50416 0.0
H481 H 0.1673 0.09839 0.5138 0.0
H482 H 0.30806 0.01304 0.50248 0.0
H483 H 0.35623 0.1807 0.529 0.0
H484 H 0.23984 0.0228 0.46222 0.0
H485 H 0.18217 0.98921 0.47813 0.0
H486 H 0.23932 0.9704 0.47738 0.0
H487 H 0.3179 0.23785 0.51897 0.0
H488 H 0.24422 0.19654 0.50845 0.0
H489 H 0.30641 0.23083 0.49409 0.0
C490 C 0.19301 0.21467 0.80365 0.0
C491 C 0.17457 0.22145 0.78612 0.0
C492 C 0.23913 0.26251 0.81401 0.0
C493 C 0.26771 0.31817 0.8065 0.0
C494 C 0.2476 0.32557 0.78908 0.0
C495 C 0.20186 0.27676 0.77892 0.0
C496 C 0.25863 0.25316 0.83272 0.0
C497 C 0.27573 0.38455 0.78091 0.0
C498 C 0.36675 0.4472 0.84017 0.0
C499 C 0.42247 0.45416 0.83698 0.0
C500 C 0.31613 0.4041 0.83008 0.0
C501 C 0.32129 0.36729 0.81633 0.0
C502 C 0.37772 0.37527 0.81264 0.0
C503 C 0.42769 0.41866 0.82302 0.0
C504 C 0.25741 0.39826 0.8343 0.0
C505 C 0.38503 0.3365 0.79821 0.0
H506 H 0.17223 0.17155 0.80904 0.0
H507 H 0.18889 0.28143 0.76506 0.0
H508 H 0.30497 0.26278 0.83236 0.0
H509 H 0.25741 0.28374 0.8435 0.0
H510 H 0.23038 0.20769 0.83688 0.0
H511 H 0.27497 0.41723 0.79093 0.0
H512 H 0.32268 0.39966 0.77829 0.0
H513 H 0.25288 0.38348 0.76767 0.0
H514 H 0.3622 0.47383 0.85115 0.0
H515 H 0.47073 0.42401 0.8205 0.0
H516 H 0.22184 0.35178 0.8338 0.0
H517 H 0.24642 0.42051 0.82366 0.0
H518 H 0.25857 0.41912 0.84815 0.0
H519 H 0.36093 0.29052 0.80221 0.0
H520 H 0.43211 0.34976 0.79656 0.0
H521 H 0.3656 0.33765 0.78457 0.0
C522 C 0.93989 0.1334 0.70643 0.0
C523 C 0.94669 0.08933 0.71401 0.0
C524 C 0.89809 0.12036 0.69196 0.0
C525 C 0.86091 0.06146 0.68525 0.0
C526 C 0.86863 0.01681 0.69247 0.0
C527 C 0.91212 0.03144 0.70666 0.0
C528 C 0.89233 0.1695 0.68435 0.0
C529 C 0.82904 0.95344 0.68588 0.0
C530 C 0.7153 0.03742 0.66554 0.0
C531 C 0.7245 0.03938 0.64648 0.0
C532 C 0.75784 0.04036 0.67825 0.0
C533 C 0.81141 0.04701 0.67171 0.0
C534 C 0.81983 0.04673 0.65237 0.0
C535 C 0.77582 0.04234 0.63993 0.0
C536 C 0.74667 0.03933 0.69873 0.0
C537 C 0.87674 0.05487 0.6449 0.0
H538 H 0.96687 0.17827 0.71199 0.0
H539 H 0.9171 0.99727 0.71262 0.0
H540 H 0.89287 0.1673 0.66896 0.0
H541 H 0.84945 0.16501 0.68812 0.0
H542 H 0.92833 0.21327 0.68982 0.0
H543 H 0.84422 0.92478 0.6916 0.0
H544 H 0.78347 0.93832 0.69027 0.0
H545 H 0.82694 0.94821 0.6705 0.0
H546 H 0.67526 0.03479 0.67049 0.0
H547 H 0.78275 0.04415 0.62514 0.0
H548 H 0.77605 0.0834 0.70561 0.0
H549 H 0.75701 0.00836 0.70534 0.0
H550 H 0.70017 0.02652 0.70133 0.0
H551 H 0.9129 0.10032 0.64857 0.0
H552 H 0.87365 0.0469 0.62955 0.0
H553 H 0.88911 0.02506 0.65129 0.0
C554 C 0.9576 0.99495 0.03291 0.0
C555 C 0.01912 0.02973 0.03396 0.0
C556 C 0.92742 0.96452 0.01621 0.0
C557 C 0.95996 0.96727 0.00042 0.0
C558 C 0.0222 0.00339 0.00134 0.0
C559 C 0.05113 0.03408 0.01818 0.0
C560 C 0.8609 0.92728 0.01571 0.0
C561 C 0.05839 0.0072 0.98486 0.0
C562 C 0.8782 0.82815 0.96954 0.0
C563 C 0.84995 0.84413 0.95637 0.0
C564 C 0.91759 0.86915 0.98326 0.0
C565 C 0.92889 0.92739 0.98376 0.0
C566 C 0.90441 0.94476 0.9695 0.0
C567 C 0.8647 0.90271 0.95605 0.0
C568 C 0.94367 0.84901 0.99801 0.0
C569 C 0.91625 0.00646 0.96915 0.0
H570 H 0.93323 0.98987 0.04535 0.0
H571 H 0.09896 0.06027 0.01919 0.0
H572 H 0.84138 0.93841 0.00394 0.0
H573 H 0.84743 0.88041 0.01348 0.0
H574 H 0.84209 0.93315 0.02877 0.0
H575 H 0.1053 0.04241 0.98715 0.0
H576 H 0.05693 0.9649 0.9822 0.0
H577 H 0.03974 0.01529 0.97218 0.0
H578 H 0.86652 0.78272 0.96989 0.0
H579 H 0.84325 0.91516 0.94572 0.0
H580 H 0.92283 0.84776 0.01137 0.0
H581 H 0.99178 0.8801 0.00023 0.0
H582 H 0.93663 0.80469 0.99433 0.0
H583 H 0.88587 0.01135 0.97853 0.0
H584 H 0.9082 0.0166 0.955 0.0
H585 H 0.96223 0.03871 0.97402 0.0
C586 C 0.0357 0.9161 0.38393 0.0
C587 C 0.99042 0.92951 0.38411 0.0
C588 C 0.02868 0.86655 0.37373 0.0
C589 C 0.97571 0.8305 0.36297 0.0
C590 C 0.92937 0.84334 0.36331 0.0
C591 C 0.93697 0.89239 0.37414 0.0
C592 C 0.07872 0.8538 0.37404 0.0
C593 C 0.87283 0.80666 0.35168 0.0
C594 C 0.99681 0.75299 0.321 0.0
C595 C 0.97486 0.69636 0.32685 0.0
C596 C 0.99508 0.79631 0.33236 0.0
C597 C 0.97155 0.78284 0.35015 0.0
C598 C 0.94828 0.72527 0.35602 0.0
C599 C 0.94961 0.68231 0.34414 0.0
C600 C 0.01937 0.8568 0.32545 0.0
C601 C 0.92408 0.70971 0.37504 0.0
H602 H 0.07676 0.94432 0.39189 0.0
H603 H 0.90195 0.90281 0.37432 0.0
H604 H 0.06206 0.80756 0.37711 0.0
H605 H 0.098 0.86012 0.36018 0.0
H606 H 0.11441 0.88264 0.38452 0.0
H607 H 0.8396 0.82001 0.35446 0.0
H608 H 0.88251 0.81089 0.33674 0.0
H609 H 0.85335 0.75977 0.35437 0.0
H610 H 0.01552 0.76335 0.30746 0.0
H611 H 0.93257 0.63833 0.34856 0.0
H612 H 0.05571 0.88967 0.33503 0.0
H613 H 0.98425 0.86848 0.32513 0.0
H614 H 0.03661 0.86015 0.31135 0.0
H615 H 0.96009 0.73483 0.38581 0.0
H616 H 0.90448 0.66229 0.37706 0.0
H617 H 0.88992 0.72202 0.37732 0.0
C618 C 0.2065 0.10307 0.70495 0.0
C619 C 0.17388 0.06387 0.71828 0.0
C620 C 0.2465 0.09495 0.69437 0.0
C621 C 0.25495 0.04725 0.69752 0.0
C622 C 0.22164 0.00718 0.71082 0.0
C623 C 0.181 0.01566 0.72092 0.0
C624 C 0.28026 0.13781 0.67998 0.0
C625 C 0.23008 0.95631 0.71472 0.0
C626 C 0.32565 0.00386 0.65934 0.0
C627 C 0.38537 0.03503 0.6654 0.0
C628 C 0.28242 0.00618 0.6699 0.0
C629 C 0.29932 0.03997 0.68702 0.0
C630 C 0.35921 0.06946 0.69359 0.0
C631 C 0.40169 0.06706 0.6826 0.0
C632 C 0.21915 0.97469 0.66234 0.0
C633 C 0.3787 0.1052 0.71193 0.0
H634 H 0.2009 0.14026 0.70284 0.0
H635 H 0.15618 0.98551 0.73133 0.0
H636 H 0.32817 0.16157 0.68392 0.0
H637 H 0.27433 0.11411 0.6663 0.0
H638 H 0.2659 0.17038 0.67843 0.0
H639 H 0.19979 0.9284 0.72523 0.0
H640 H 0.22257 0.92878 0.70176 0.0
H641 H 0.27629 0.97287 0.71984 0.0
H642 H 0.31307 0.97991 0.64588 0.0
H643 H 0.44788 0.09118 0.68726 0.0
H644 H 0.20503 0.00695 0.65985 0.0
H645 H 0.18954 0.94503 0.67261 0.0
H646 H 0.213 0.9486 0.64911 0.0
H647 H 0.37242 0.14344 0.71116 0.0
H648 H 0.42588 0.12134 0.71575 0.0
H649 H 0.35124 0.07874 0.72315 0.0
C650 C 0.25449 0.24031 0.05295 0.0
C651 C 0.20924 0.25062 0.05842 0.0
C652 C 0.29924 0.27893 0.04187 0.0
C653 C 0.29928 0.32954 0.03644 0.0
C654 C 0.25696 0.34293 0.04334 0.0
C655 C 0.21205 0.303 0.05413 0.0
C656 C 0.34322 0.26277 0.03465 0.0
C657 C 0.25648 0.39727 0.03821 0.0
C658 C 0.43184 0.44161 0.01158 0.0
C659 C 0.41061 0.42665 0.99303 0.0
C660 C 0.39587 0.41098 0.026 0.0
C661 C 0.33804 0.36371 0.0216 0.0
C662 C 0.31683 0.34813 0.00281 0.0
C663 C 0.35325 0.38024 0.98876 0.0
C664 C 0.41939 0.42945 0.04588 0.0
C665 C 0.25576 0.29727 0.99753 0.0
H666 H 0.2527 0.19992 0.05617 0.0
H667 H 0.17759 0.31157 0.05847 0.0
H668 H 0.333 0.24896 0.01964 0.0
H669 H 0.38872 0.30097 0.03605 0.0
H670 H 0.34208 0.22637 0.04203 0.0
H671 H 0.22728 0.4062 0.04706 0.0
H672 H 0.30176 0.43593 0.03949 0.0
H673 H 0.2404 0.39171 0.02352 0.0
H674 H 0.47618 0.47794 0.0148 0.0
H675 H 0.33722 0.36861 0.97436 0.0
H676 H 0.41916 0.39263 0.05265 0.0
H677 H 0.39032 0.44097 0.05378 0.0
H678 H 0.46509 0.46761 0.04695 0.0
H679 H 0.25072 0.25657 0.00295 0.0
H680 H 0.24662 0.29016 0.98225 0.0
H681 H 0.22188 0.30501 0.0039 0.0
C682 C 0.06156 0.23023 0.36642 0.0
C683 C 0.01744 0.18102 0.37455 0.0
C684 C 0.04736 0.25676 0.35251 0.0
C685 C 0.98735 0.23461 0.34703 0.0
C686 C 0.94271 0.18345 0.35467 0.0
C687 C 0.95843 0.15671 0.36823 0.0
C688 C 0.09647 0.31025 0.34433 0.0
C689 C 0.87822 0.15921 0.34943 0.0
C690 C 0.96271 0.3544 0.33057 0.0
C691 C 0.96114 0.3451 0.31128 0.0
C692 C 0.96718 0.31618 0.34238 0.0
C693 C 0.9718 0.26856 0.33465 0.0
C694 C 0.96792 0.25776 0.31512 0.0
C695 C 0.96207 0.29602 0.30363 0.0
C696 C 0.96986 0.32846 0.36313 0.0
C697 C 0.97375 0.20815 0.30635 0.0
H698 H 0.10724 0.24884 0.37125 0.0
H699 H 0.92428 0.11894 0.37468 0.0
H700 H 0.09151 0.30583 0.32894 0.0
H701 H 0.09411 0.34946 0.34903 0.0
H702 H 0.14085 0.31778 0.34852 0.0
H703 H 0.84969 0.1156 0.35491 0.0
H704 H 0.86417 0.18971 0.35512 0.0
H705 H 0.87092 0.15543 0.33412 0.0
H706 H 0.96169 0.39235 0.33639 0.0
H707 H 0.96131 0.28934 0.28866 0.0
H708 H 0.01507 0.34336 0.3689 0.0
H709 H 0.93907 0.28799 0.3699 0.0
H710 H 0.9586 0.36273 0.36686 0.0
H711 H 0.01983 0.21779 0.30865 0.0
H712 H 0.96284 0.20152 0.29116 0.0
H713 H 0.94454 0.16675 0.31292 0.0
loop_
_geom_bond_atom_site_label_1
_geom_bond_atom_site_label_2
_geom_bond_distance
_geom_bond_site_symmetry_2
_ccdc_geom_bond_type
Mn0 O5 2.095 . S
Mn0 O15 2.162 . S
Mn0 O16 2.297 . S
Mn0 O24 2.385 . S
Mn0 O25 2.209 . S
Mn0 O26 2.094 . S
Mn1 O6 2.121 . S
Mn1 N8 2.257 1_455 S
Mn1 N17 2.282 . S
Mn1 O25 2.215 . S
Mn1 O27 2.117 . S
C2 O24 1.234 . S
C2 O25 1.283 . S
C3 O15 1.286 . S
C3 O16 1.248 . S
C4 O26 1.240 . S
C4 O27 1.264 . S
O5 Mn0 2.095 . S
O5 C14 1.250 . S
O6 Mn1 2.121 . S
O6 C14 1.258 . S
C7 N8 1.326 . S
C7 C11 1.460 . S
C7 H13 0.929 . S
N8 Mn1 2.257 1_655 S
N8 C7 1.326 . S
N8 C12 1.362 . S
C9 C10 1.258 . S
C9 C12 1.431 . S
C9 C29 1.449 . S
C10 C9 1.258 . S
C10 C11 1.477 . S
C10 H30 0.931 . S
C11 C7 1.460 . S
C11 C10 1.477 . S
C11 H31 0.930 . S
C12 N8 1.362 . S
C12 C9 1.431 . S
C12 C22 1.476 . S
H13 C7 0.929 . S
C14 O5 1.250 . S
C14 O6 1.258 . S
O15 Mn0 2.162 . S
O15 C3 1.286 . S
O16 Mn0 2.297 . S
O16 C3 1.248 . S
N17 Mn1 2.282 . S
N17 C18 1.328 . S
N17 C22 1.318 1_455 S
C18 N17 1.328 . S
C18 C19 1.457 . S
C18 H23 0.929 . S
C19 C18 1.457 . S
C19 C20 1.291 1_454 S
C19 H32 0.931 1_554 S
C20 C19 1.291 1_656 S
C20 C21 1.373 1_556 S
C20 H33 0.929 . S
C21 C20 1.373 1_554 S
C21 C22 1.396 . S
C21 C28 1.403 . S
C22 C12 1.476 . S
C22 N17 1.318 1_655 S
C22 C21 1.396 . S
H23 C18 0.929 . S
O24 Mn0 2.385 . S
O24 C2 1.234 . S
O25 Mn0 2.209 . S
O25 Mn1 2.215 . S
O25 C2 1.283 . S
O26 Mn0 2.094 . S
O26 C4 1.240 . S
O27 Mn1 2.117 . S
O27 C4 1.264 . S
C28 C21 1.403 . S
C28 C29 1.399 . S
C28 H34 0.929 1_554 S
C29 C9 1.449 . S
C29 C28 1.399 . S
C29 H35 0.930 . S
H30 C10 0.931 . S
H31 C11 0.930 . S
H32 C19 0.931 1_556 S
H33 C20 0.929 . S
H34 C28 0.929 1_556 S
H35 C29 0.930 . S
Mn36 O41 2.095 . S
Mn36 O51 2.162 1_545 S
Mn36 O52 2.297 1_645 S
Mn36 O60 2.385 1_645 S
Mn36 O61 2.209 1_655 S
Mn36 O62 2.096 1_545 S
Mn37 O42 2.121 . S
Mn37 N44 2.257 . S
Mn37 N53 2.282 . S
Mn37 O61 2.215 . S
Mn37 O63 2.117 1_455 S
C38 O60 1.234 1_545 S
C38 O61 1.283 . S
C39 O51 1.281 . S
C39 O52 1.236 1_655 S
C40 O62 1.235 1_545 S
C40 O63 1.264 . S
O41 Mn36 2.095 . S
O41 C50 1.250 1_655 S
O42 Mn37 2.121 . S
O42 C50 1.258 . S
C43 N44 1.326 . S
C43 C47 1.460 . S
C43 H49 0.929 . S
N44 Mn37 2.257 . S
N44 C43 1.326 . S
N44 C48 1.362 . S
C45 C46 1.258 . S
C45 C48 1.431 . S
C45 C65 1.449 . S
C46 C45 1.258 . S
C46 C47 1.477 . S
C46 H66 0.931 . S
C47 C43 1.460 . S
C47 C46 1.477 . S
C47 H67 0.930 . S
C48 N44 1.362 . S
C48 C45 1.431 . S
C48 C58 1.476 . S
H49 C43 0.929 . S
C50 O41 1.250 1_455 S
C50 O42 1.258 . S
O51 Mn36 2.162 1_565 S
O51 C39 1.281 . S
O52 Mn36 2.297 1_465 S
O52 C39 1.236 1_455 S
N53 Mn37 2.282 . S
N53 C54 1.328 . S
N53 C58 1.318 . S
C54 N53 1.328 . S
C54 C55 1.457 . S
C54 H59 0.929 . S
C55 C54 1.457 . S
C55 C56 1.291 . S
C55 H68 0.931 . S
C56 C55 1.291 . S
C56 C57 1.373 . S
C56 H69 0.929 . S
C57 C56 1.373 . S
C57 C58 1.396 . S
C57 C64 1.403 . S
C58 C48 1.476 . S
C58 N53 1.318 . S
C58 C57 1.396 . S
H59 C54 0.929 . S
O60 Mn36 2.385 1_465 S
O60 C38 1.234 1_565 S
O61 Mn36 2.209 1_455 S
O61 Mn37 2.215 . S
O61 C38 1.283 . S
O62 Mn36 2.096 1_565 S
O62 C40 1.235 1_565 S
O63 Mn37 2.117 1_655 S
O63 C40 1.264 . S
C64 C57 1.403 . S
C64 C65 1.399 . S
C64 H70 0.929 . S
C65 C45 1.449 . S
C65 C64 1.399 . S
C65 H71 0.930 . S
H66 C46 0.931 . S
H67 C47 0.930 . S
H68 C55 0.931 . S
H69 C56 0.929 . S
H70 C64 0.929 . S
H71 C65 0.930 . S
Mn72 O77 2.095 . S
Mn72 O87 2.162 . S
Mn72 O88 2.297 . S
Mn72 O96 2.385 . S
Mn72 O97 2.209 . S
Mn72 O98 2.094 . S
Mn73 O78 2.121 . S
Mn73 N80 2.257 . S
Mn73 N89 2.282 . S
Mn73 O97 2.215 . S
Mn73 O99 2.117 . S
C74 O96 1.234 . S
C74 O97 1.283 . S
C75 O87 1.281 . S
C75 O88 1.236 . S
C76 O98 1.240 . S
C76 O99 1.264 . S
O77 Mn72 2.095 . S
O77 C86 1.250 . S
O78 Mn73 2.121 . S
O78 C86 1.258 . S
C79 N80 1.326 . S
C79 C83 1.460 . S
C79 H85 0.929 . S
N80 Mn73 2.257 . S
N80 C79 1.326 . S
N80 C84 1.362 . S
C81 C82 1.258 . S
C81 C84 1.431 . S
C81 C101 1.449 . S
C82 C81 1.258 . S
C82 C83 1.477 . S
C82 H102 0.931 . S
C83 C79 1.460 . S
C83 C82 1.477 . S
C83 H103 0.930 . S
C84 N80 1.362 . S
C84 C81 1.431 . S
C84 C94 1.476 . S
H85 C79 0.929 . S
C86 O77 1.250 . S
C86 O78 1.258 . S
O87 Mn72 2.162 . S
O87 C75 1.281 . S
O88 Mn72 2.297 . S
O88 C75 1.236 . S
N89 Mn73 2.282 . S
N89 C90 1.328 . S
N89 C94 1.318 . S
C90 N89 1.328 . S
C90 C91 1.457 . S
C90 H95 0.929 . S
C91 C90 1.457 . S
C91 C92 1.291 . S
C91 H104 0.931 . S
C92 C91 1.291 . S
C92 C93 1.373 . S
C92 H105 0.929 . S
C93 C92 1.373 . S
C93 C94 1.396 . S
C93 C100 1.403 . S
C94 C84 1.476 . S
C94 N89 1.318 . S
C94 C93 1.396 . S
H95 C90 0.929 . S
O96 Mn72 2.385 . S
O96 C74 1.234 . S
O97 Mn72 2.209 . S
O97 Mn73 2.215 . S
O97 C74 1.283 . S
O98 Mn72 2.094 . S
O98 C76 1.240 . S
O99 Mn73 2.117 . S
O99 C76 1.264 . S
C100 C93 1.403 . S
C100 C101 1.399 . S
C100 H106 0.929 . S
C101 C81 1.449 . S
C101 C100 1.399 . S
C101 H107 0.930 . S
H102 C82 0.931 . S
H103 C83 0.930 . S
H104 C91 0.931 . S
H105 C92 0.929 . S
H106 C100 0.929 . S
H107 C101 0.930 . S
H108 O134 0.856 . S
H109 O137 0.854 . S
H110 C145 0.930 . S
H111 C146 0.930 . S
H112 C148 0.930 . S
H113 C149 0.930 . S
H114 C151 0.931 1_655 S
H115 C152 0.930 1_655 S
H116 C154 0.930 . S
H117 C155 0.929 . S
H118 C157 0.930 1_655 S
H119 C158 0.931 1_655 S
H120 C160 0.930 . S
H121 C161 0.929 . S
H122 C163 0.931 . S
H123 C164 0.930 . S
H124 C166 0.930 . S
H125 C167 0.932 . S
H126 C169 0.930 . S
H127 C170 0.929 . S
H128 C172 0.931 . S
H129 C173 0.930 . S
H130 C175 0.929 . S
H131 C176 0.931 . S
H132 C178 0.930 . S
H133 C179 0.929 . S
O134 H108 0.856 . S
O134 C180 1.300 . S
O135 C180 1.209 . S
O136 C181 1.198 . S
O137 H109 0.854 . S
O137 C181 1.297 . S
C138 C139 1.404 . S
C138 C143 1.397 . S
C138 C144 1.492 . S
C139 C138 1.404 . S
C139 C140 1.396 . S
C139 C150 1.492 . S
C140 C139 1.396 . S
C140 C141 1.397 . S
C140 C156 1.509 . S
C141 C140 1.397 . S
C141 C142 1.412 . S
C141 C162 1.485 . S
C142 C141 1.412 . S
C142 C143 1.388 . S
C142 C168 1.490 . S
C143 C138 1.397 . S
C143 C142 1.388 . S
C143 C174 1.519 . S
C144 C138 1.492 . S
C144 C145 1.363 1_455 S
C144 C149 1.390 . S
C145 H110 0.930 . S
C145 C144 1.363 1_655 S
C145 C146 1.372 . S
C146 H111 0.930 . S
C146 C145 1.372 . S
C146 C147 1.383 1_655 S
C147 C146 1.383 1_455 S
C147 C148 1.395 . S
C148 H112 0.930 . S
C148 C147 1.395 . S
C148 C149 1.362 . S
C149 H113 0.930 . S
C149 C144 1.390 . S
C149 C148 1.362 . S
C150 C139 1.492 . S
C150 C151 1.377 . S
C150 C155 1.397 . S
C151 H114 0.931 1_455 S
C151 C150 1.377 . S
C151 C152 1.376 . S
C152 H115 0.930 1_455 S
C152 C151 1.376 . S
C152 C153 1.376 . S
C153 C152 1.376 . S
C153 C154 1.378 . S
C153 C180 1.486 . S
C154 H116 0.930 . S
C154 C153 1.378 . S
C154 C155 1.376 . S
C155 H117 0.929 . S
C155 C150 1.397 . S
C155 C154 1.376 . S
C156 C140 1.509 . S
C156 C157 1.391 . S
C156 C161 1.386 . S
C157 H118 0.930 1_455 S
C157 C156 1.391 . S
C157 C158 1.375 . S
C158 H119 0.931 1_455 S
C158 C157 1.375 . S
C158 C159 1.375 . S
C159 C158 1.375 . S
C159 C160 1.361 . S
C160 H120 0.930 . S
C160 C159 1.361 . S
C160 C161 1.399 . S
C161 H121 0.929 . S
C161 C156 1.386 . S
C161 C160 1.399 . S
C162 C141 1.485 . S
C162 C163 1.394 1_455 S
C162 C167 1.360 . S
C163 H122 0.931 . S
C163 C162 1.394 1_655 S
C163 C164 1.372 . S
C164 H123 0.930 . S
C164 C163 1.372 . S
C164 C165 1.397 1_655 S
C165 C164 1.397 1_455 S
C165 C166 1.390 . S
C165 C181 1.476 . S
C166 H124 0.930 . S
C166 C165 1.390 . S
C166 C167 1.366 . S
C167 H125 0.932 . S
C167 C162 1.360 . S
C167 C166 1.366 . S
C168 C142 1.490 . S
C168 C169 1.380 1_455 S
C168 C173 1.386 . S
C169 H126 0.930 . S
C169 C168 1.380 1_655 S
C169 C170 1.381 . S
C170 H127 0.929 . S
C170 C169 1.381 . S
C170 C171 1.371 . S
C171 C170 1.371 . S
C171 C172 1.380 1_655 S
C172 H128 0.931 . S
C172 C171 1.380 1_455 S
C172 C173 1.387 . S
C173 H129 0.930 . S
C173 C168 1.386 . S
C173 C172 1.387 . S
C174 C143 1.519 . S
C174 C175 1.377 1_455 S
C174 C179 1.361 . S
C175 H130 0.929 . S
C175 C174 1.377 1_655 S
C175 C176 1.386 . S
C176 H131 0.931 . S
C176 C175 1.386 . S
C176 C177 1.363 1_655 S
C177 C176 1.363 1_455 S
C177 C178 1.385 . S
C178 H132 0.930 . S
C178 C177 1.385 . S
C178 C179 1.396 . S
C179 H133 0.929 . S
C179 C174 1.361 . S
C179 C178 1.396 . S
C180 O134 1.300 . S
C180 O135 1.209 . S
C180 C153 1.486 . S
C181 O136 1.198 . S
C181 O137 1.297 . S
C181 C165 1.476 . S
H182 O208 0.856 . S
H183 O211 0.854 . S
H184 C219 0.930 . S
H185 C220 0.930 . S
H186 C222 0.930 . S
H187 C223 0.930 . S
H188 C225 0.931 . S
H189 C226 0.930 . S
H190 C228 0.930 . S
H191 C229 0.929 . S
H192 C231 0.930 . S
H193 C232 0.931 . S
H194 C234 0.930 . S
H195 C235 0.929 . S
H196 C237 0.931 . S
H197 C238 0.930 . S
H198 C240 0.930 . S
H199 C241 0.932 . S
H200 C243 0.930 . S
H201 C244 0.929 . S
H202 C246 0.931 . S
H203 C247 0.930 . S
H204 C249 0.929 . S
H205 C250 0.931 . S
H206 C252 0.930 . S
H207 C253 0.929 . S
O208 H182 0.856 . S
O208 C254 1.300 . S
O209 C254 1.209 . S
O210 C255 1.199 . S
O211 H183 0.854 . S
O211 C255 1.297 . S
C212 C213 1.404 . S
C212 C217 1.397 . S
C212 C218 1.492 . S
C213 C212 1.404 . S
C213 C214 1.396 . S
C213 C224 1.492 . S
C214 C213 1.396 . S
C214 C215 1.397 . S
C214 C230 1.509 . S
C215 C214 1.397 . S
C215 C216 1.412 . S
C215 C236 1.485 . S
C216 C215 1.412 . S
C216 C217 1.388 . S
C216 C242 1.490 . S
C217 C212 1.397 . S
C217 C216 1.388 . S
C217 C248 1.519 . S
C218 C212 1.492 . S
C218 C219 1.363 . S
C218 C223 1.390 . S
C219 H184 0.930 . S
C219 C218 1.363 . S
C219 C220 1.372 . S
C220 H185 0.930 . S
C220 C219 1.372 . S
C220 C221 1.383 . S
C221 C220 1.383 . S
C221 C222 1.395 . S
C222 H186 0.930 . S
C222 C221 1.395 . S
C222 C223 1.362 . S
C223 H187 0.930 . S
C223 C218 1.390 . S
C223 C222 1.362 . S
C224 C213 1.492 . S
C224 C225 1.377 . S
C224 C229 1.397 . S
C225 H188 0.931 . S
C225 C224 1.377 . S
C225 C226 1.376 . S
C226 H189 0.930 . S
C226 C225 1.376 . S
C226 C227 1.376 . S
C227 C226 1.376 . S
C227 C228 1.378 . S
C227 C254 1.486 . S
C228 H190 0.930 . S
C228 C227 1.378 . S
C228 C229 1.376 . S
C229 H191 0.929 . S
C229 C224 1.397 . S
C229 C228 1.376 . S
C230 C214 1.509 . S
C230 C231 1.391 . S
C230 C235 1.386 . S
C231 H192 0.930 . S
C231 C230 1.391 . S
C231 C232 1.375 . S
C232 H193 0.931 . S
C232 C231 1.375 . S
C232 C233 1.375 . S
C233 C232 1.375 . S
C233 C234 1.361 . S
C234 H194 0.930 . S
C234 C233 1.361 . S
C234 C235 1.399 . S
C235 H195 0.929 . S
C235 C230 1.386 . S
C235 C234 1.399 . S
C236 C215 1.485 . S
C236 C237 1.394 . S
C236 C241 1.360 . S
C237 H196 0.931 . S
C237 C236 1.394 . S
C237 C238 1.372 . S
C238 H197 0.930 . S
C238 C237 1.372 . S
C238 C239 1.397 . S
C239 C238 1.397 . S
C239 C240 1.390 . S
C239 C255 1.476 . S
C240 H198 0.930 . S
C240 C239 1.390 . S
C240 C241 1.366 . S
C241 H199 0.932 . S
C241 C236 1.360 . S
C241 C240 1.366 . S
C242 C216 1.490 . S
C242 C243 1.380 . S
C242 C247 1.386 . S
C243 H200 0.930 . S
C243 C242 1.380 . S
C243 C244 1.381 . S
C244 H201 0.929 . S
C244 C243 1.381 . S
C244 C245 1.371 . S
C245 C244 1.371 . S
C245 C246 1.380 . S
C246 H202 0.931 . S
C246 C245 1.380 . S
C246 C247 1.387 . S
C247 H203 0.930 . S
C247 C242 1.386 . S
C247 C246 1.387 . S
C248 C217 1.519 . S
C248 C249 1.377 . S
C248 C253 1.361 . S
C249 H204 0.929 . S
C249 C248 1.377 . S
C249 C250 1.386 . S
C250 H205 0.931 . S
C250 C249 1.386 . S
C250 C251 1.363 . S
C251 C250 1.363 . S
C251 C252 1.385 . S
C252 H206 0.930 . S
C252 C251 1.385 . S
C252 C253 1.396 . S
C253 H207 0.929 . S
C253 C248 1.361 . S
C253 C252 1.396 . S
C254 O208 1.300 . S
C254 O209 1.209 . S
C254 C227 1.486 . S
C255 O210 1.199 . S
C255 O211 1.297 . S
C255 C239 1.476 . S
H256 O282 0.856 . S
H257 O285 0.854 . S
H258 C293 0.930 . S
H259 C294 0.930 . S
H260 C296 0.930 . S
H261 C297 0.930 . S
H262 C299 0.931 . S
H263 C300 0.930 . S
H264 C302 0.930 . S
H265 C303 0.929 . S
H266 C305 0.930 . S
H267 C306 0.931 . S
H268 C308 0.930 . S
H269 C309 0.929 . S
H270 C311 0.931 . S
H271 C312 0.930 . S
H272 C314 0.930 . S
H273 C315 0.932 . S
H274 C317 0.930 . S
H275 C318 0.929 . S
H276 C320 0.931 . S
H277 C321 0.930 . S
H278 C323 0.929 . S
H279 C324 0.931 . S
H280 C326 0.930 . S
H281 C327 0.929 . S
O282 H256 0.856 . S
O282 C328 1.300 . S
O283 C328 1.209 . S
O284 C329 1.199 . S
O285 H257 0.854 . S
O285 C329 1.297 . S
C286 C287 1.404 . S
C286 C291 1.397 . S
C286 C292 1.492 . S
C287 C286 1.404 . S
C287 C288 1.396 . S
C287 C298 1.492 . S
C288 C287 1.396 . S
C288 C289 1.397 . S
C288 C304 1.509 . S
C289 C288 1.397 . S
C289 C290 1.412 . S
C289 C310 1.485 . S
C290 C289 1.412 . S
C290 C291 1.388 . S
C290 C316 1.490 . S
C291 C286 1.397 . S
C291 C290 1.388 . S
C291 C322 1.519 . S
C292 C286 1.492 . S
C292 C293 1.363 . S
C292 C297 1.390 . S
C293 H258 0.930 . S
C293 C292 1.363 . S
C293 C294 1.372 . S
C294 H259 0.930 . S
C294 C293 1.372 . S
C294 C295 1.383 . S
C295 C294 1.383 . S
C295 C296 1.395 . S
C296 H260 0.930 . S
C296 C295 1.395 . S
C296 C297 1.362 . S
C297 H261 0.930 . S
C297 C292 1.390 . S
C297 C296 1.362 . S
C298 C287 1.492 . S
C298 C299 1.377 . S
C298 C303 1.397 . S
C299 H262 0.931 . S
C299 C298 1.377 . S
C299 C300 1.376 1_556 S
C300 H263 0.930 . S
C300 C299 1.376 1_554 S
C300 C301 1.376 . S
C301 C300 1.376 . S
C301 C302 1.378 1_554 S
C301 C328 1.486 . S
C302 H264 0.930 . S
C302 C301 1.378 1_556 S
C302 C303 1.376 . S
C303 H265 0.929 . S
C303 C298 1.397 . S
C303 C302 1.376 . S
C304 C288 1.509 . S
C304 C305 1.391 . S
C304 C309 1.386 . S
C305 H266 0.930 . S
C305 C304 1.391 . S
C305 C306 1.375 . S
C306 H267 0.931 . S
C306 C305 1.375 . S
C306 C307 1.375 . S
C307 C306 1.375 . S
C307 C308 1.361 . S
C308 H268 0.930 . S
C308 C307 1.361 . S
C308 C309 1.399 . S
C309 H269 0.929 . S
C309 C304 1.386 . S
C309 C308 1.399 . S
C310 C289 1.485 . S
C310 C311 1.394 . S
C310 C315 1.360 . S
C311 H270 0.931 . S
C311 C310 1.394 . S
C311 C312 1.372 . S
C312 H271 0.930 . S
C312 C311 1.372 . S
C312 C313 1.397 . S
C313 C312 1.397 . S
C313 C314 1.390 . S
C313 C329 1.476 . S
C314 H272 0.930 . S
C314 C313 1.390 . S
C314 C315 1.366 . S
C315 H273 0.932 . S
C315 C310 1.360 . S
C315 C314 1.366 . S
C316 C290 1.490 . S
C316 C317 1.380 . S
C316 C321 1.386 . S
C317 H274 0.930 . S
C317 C316 1.380 . S
C317 C318 1.381 . S
C318 H275 0.929 . S
C318 C317 1.381 . S
C318 C319 1.371 . S
C319 C318 1.371 . S
C319 C320 1.380 . S
C320 H276 0.931 . S
C320 C319 1.380 . S
C320 C321 1.387 . S
C321 H277 0.930 . S
C321 C316 1.386 . S
C321 C320 1.387 . S
C322 C291 1.519 . S
C322 C323 1.377 . S
C322 C327 1.361 . S
C323 H278 0.929 . S
C323 C322 1.377 . S
C323 C324 1.386 . S
C324 H279 0.931 . S
C324 C323 1.386 . S
C324 C325 1.363 . S
C325 C324 1.363 . S
C325 C326 1.385 . S
C326 H280 0.930 . S
C326 C325 1.385 . S
C326 C327 1.396 . S
C327 H281 0.929 . S
C327 C322 1.361 . S
C327 C326 1.396 . S
C328 O282 1.300 . S
C328 O283 1.209 . S
C328 C301 1.486 . S
C329 O284 1.199 . S
C329 O285 1.297 . S
C329 C313 1.476 . S
C330 C331 1.391 . S
C330 C332 1.394 . S
C330 H346 0.931 1_455 S
C331 C330 1.391 . S
C331 C335 1.376 . S
C332 C330 1.394 . S
C332 C333 1.369 . S
C332 C336 1.531 1_455 S
C333 C332 1.369 . S
C333 C334 1.410 . S
C333 C341 1.503 . S
C334 C333 1.410 . S
C334 C335 1.392 . S
C334 C337 1.511 . S
C335 C331 1.376 . S
C335 C334 1.392 . S
C335 H347 0.929 . S
C336 C332 1.531 1_655 S
C336 H348 0.960 . S
C336 H349 0.962 . S
C336 H350 0.960 . S
C337 C334 1.511 . S
C337 H351 0.961 . S
C337 H352 0.961 . S
C337 H353 0.961 . S
C338 C339 1.370 . S
C338 C340 1.363 . S
C338 H354 0.931 1_455 S
C339 C338 1.370 . S
C339 C343 1.408 . S
C340 C338 1.363 . S
C340 C341 1.370 . S
C340 C344 1.524 . S
C341 C333 1.503 . S
C341 C340 1.370 . S
C341 C342 1.403 . S
C342 C341 1.403 . S
C342 C343 1.404 . S
C342 C345 1.539 . S
C343 C339 1.408 . S
C343 C342 1.404 . S
C343 H355 0.930 . S
C344 C340 1.524 . S
C344 H356 0.956 1_455 S
C344 H357 0.961 . S
C344 H358 0.961 1_455 S
C345 C342 1.539 . S
C345 H359 0.958 . S
C345 H360 0.961 . S
C345 H361 0.960 . S
H346 C330 0.931 1_655 S
H347 C335 0.929 . S
H348 C336 0.960 . S
H349 C336 0.962 . S
H350 C336 0.960 . S
H351 C337 0.961 . S
H352 C337 0.961 . S
H353 C337 0.961 . S
H354 C338 0.931 1_655 S
H355 C343 0.930 . S
H356 C344 0.956 1_655 S
H357 C344 0.961 . S
H358 C344 0.961 1_655 S
H359 C345 0.958 . S
H360 C345 0.961 . S
H361 C345 0.960 . S
C362 C363 1.391 . S
C362 C364 1.394 . S
C362 H378 0.931 . S
C363 C362 1.391 . S
C363 C367 1.376 . S
C364 C362 1.394 . S
C364 C365 1.369 . S
C364 C368 1.531 . S
C365 C364 1.369 . S
C365 C366 1.410 . S
C365 C373 1.503 . S
C366 C365 1.410 . S
C366 C367 1.392 . S
C366 C369 1.511 . S
C367 C363 1.376 . S
C367 C366 1.392 . S
C367 H379 0.929 . S
C368 C364 1.531 . S
C368 H380 0.960 . S
C368 H381 0.962 . S
C368 H382 0.960 . S
C369 C366 1.511 . S
C369 H383 0.961 1_545 S
C369 H384 0.961 . S
C369 H385 0.961 . S
C370 C371 1.370 . S
C370 C372 1.363 . S
C370 H386 0.931 . S
C371 C370 1.370 . S
C371 C375 1.408 . S
C372 C370 1.363 . S
C372 C373 1.370 . S
C372 C376 1.524 1_545 S
C373 C365 1.503 . S
C373 C372 1.370 . S
C373 C374 1.403 . S
C374 C373 1.403 . S
C374 C375 1.404 . S
C374 C377 1.539 . S
C375 C371 1.408 . S
C375 C374 1.404 . S
C375 H387 0.930 . S
C376 C372 1.524 1_565 S
C376 H388 0.956 . S
C376 H389 0.961 . S
C376 H390 0.961 . S
C377 C374 1.539 . S
C377 H391 0.958 . S
C377 H392 0.961 . S
C377 H393 0.960 . S
H378 C362 0.931 . S
H379 C367 0.929 . S
H380 C368 0.960 . S
H381 C368 0.962 . S
H382 C368 0.960 . S
H383 C369 0.961 1_565 S
H384 C369 0.961 . S
H385 C369 0.961 . S
H386 C370 0.931 . S
H387 C375 0.930 . S
H388 C376 0.956 . S
H389 C376 0.961 . S
H390 C376 0.961 . S
H391 C377 0.958 . S
H392 C377 0.961 . S
H393 C377 0.960 . S
C394 C395 1.391 . S
C394 C396 1.394 . S
C394 H410 0.931 1_655 S
C395 C394 1.391 . S
C395 C399 1.376 . S
C396 C394 1.394 . S
C396 C397 1.369 . S
C396 C400 1.531 . S
C397 C396 1.369 . S
C397 C398 1.410 . S
C397 C405 1.503 . S
C398 C397 1.410 . S
C398 C399 1.392 . S
C398 C401 1.511 . S
C399 C395 1.376 . S
C399 C398 1.392 . S
C399 H411 0.929 . S
C400 C396 1.531 . S
C400 H412 0.960 . S
C400 H413 0.962 . S
C400 H414 0.960 . S
C401 C398 1.511 . S
C401 H415 0.961 . S
C401 H416 0.961 . S
C401 H417 0.961 . S
C402 C403 1.370 . S
C402 C404 1.363 . S
C402 H418 0.931 . S
C403 C402 1.370 . S
C403 C407 1.408 . S
C404 C402 1.363 . S
C404 C405 1.370 . S
C404 C408 1.524 . S
C405 C397 1.503 . S
C405 C404 1.370 . S
C405 C406 1.403 . S
C406 C405 1.403 . S
C406 C407 1.404 . S
C406 C409 1.539 . S
C407 C403 1.408 . S
C407 C406 1.404 . S
C407 H419 0.930 . S
C408 C404 1.524 . S
C408 H420 0.956 . S
C408 H421 0.961 . S
C408 H422 0.961 . S
C409 C406 1.539 . S
C409 H423 0.958 . S
C409 H424 0.961 . S
C409 H425 0.960 . S
H410 C394 0.931 1_455 S
H411 C399 0.929 . S
H412 C400 0.960 . S
H413 C400 0.962 . S
H414 C400 0.960 . S
H415 C401 0.961 . S
H416 C401 0.961 . S
H417 C401 0.961 . S
H418 C402 0.931 . S
H419 C407 0.930 . S
H420 C408 0.956 . S
H421 C408 0.961 . S
H422 C408 0.961 . S
H423 C409 0.958 . S
H424 C409 0.961 . S
H425 C409 0.960 . S
C426 C427 1.391 . S
C426 C428 1.394 . S
C426 H442 0.931 1_565 S
C427 C426 1.391 . S
C427 C431 1.376 . S
C428 C426 1.394 . S
C428 C429 1.369 . S
C428 C432 1.531 . S
C429 C428 1.369 . S
C429 C430 1.410 . S
C429 C437 1.503 . S
C430 C429 1.410 . S
C430 C431 1.392 . S
C430 C433 1.511 1_455 S
C431 C427 1.376 . S
C431 C430 1.392 . S
C431 H443 0.929 . S
C432 C428 1.531 . S
C432 H444 0.960 . S
C432 H445 0.962 . S
C432 H446 0.960 1_565 S
C433 C430 1.511 1_655 S
C433 H447 0.961 . S
C433 H448 0.961 . S
C433 H449 0.961 . S
C434 C435 1.370 . S
C434 C436 1.363 . S
C434 H450 0.931 . S
C435 C434 1.370 . S
C435 C439 1.408 . S
C436 C434 1.363 . S
C436 C437 1.370 . S
C436 C440 1.524 . S
C437 C429 1.503 . S
C437 C436 1.370 . S
C437 C438 1.403 . S
C438 C437 1.403 . S
C438 C439 1.404 . S
C438 C441 1.539 . S
C439 C435 1.408 . S
C439 C438 1.404 . S
C439 H451 0.930 . S
C440 C436 1.524 . S
C440 H452 0.956 . S
C440 H453 0.961 . S
C440 H454 0.961 . S
C441 C438 1.539 . S
C441 H455 0.958 . S
C441 H456 0.961 . S
C441 H457 0.960 . S
H442 C426 0.931 1_545 S
H443 C431 0.929 . S
H444 C432 0.960 . S
H445 C432 0.962 . S
H446 C432 0.960 1_545 S
H447 C433 0.961 . S
H448 C433 0.961 . S
H449 C433 0.961 . S
H450 C434 0.931 . S
H451 C439 0.930 . S
H452 C440 0.956 . S
H453 C440 0.961 . S
H454 C440 0.961 . S
H455 C441 0.958 . S
H456 C441 0.961 . S
H457 C441 0.960 . S
C458 C459 1.391 . S
C458 C460 1.394 . S
C458 H474 0.931 . S
C459 C458 1.391 . S
C459 C463 1.376 . S
C460 C458 1.394 . S
C460 C461 1.369 . S
C460 C464 1.531 . S
C461 C460 1.369 . S
C461 C462 1.410 . S
C461 C469 1.503 . S
C462 C461 1.410 . S
C462 C463 1.392 . S
C462 C465 1.511 . S
C463 C459 1.376 . S
C463 C462 1.392 . S
C463 H475 0.929 . S
C464 C460 1.531 . S
C464 H476 0.960 . S
C464 H477 0.962 . S
C464 H478 0.960 . S
C465 C462 1.511 . S
C465 H479 0.961 . S
C465 H480 0.961 . S
C465 H481 0.961 . S
C466 C467 1.370 . S
C466 C468 1.363 . S
C466 H482 0.931 . S
C467 C466 1.370 . S
C467 C471 1.408 . S
C468 C466 1.363 . S
C468 C469 1.370 . S
C468 C472 1.532 . S
C469 C461 1.503 . S
C469 C468 1.370 . S
C469 C470 1.403 . S
C470 C469 1.403 . S
C470 C471 1.404 . S
C470 C473 1.539 . S
C471 C467 1.408 . S
C471 C470 1.404 . S
C471 H483 0.930 . S
C472 C468 1.532 . S
C472 H484 0.953 1_545 S
C472 H485 0.966 1_545 S
C472 H486 0.951 1_545 S
C473 C470 1.539 . S
C473 H487 0.958 . S
C473 H488 0.961 . S
C473 H489 0.960 . S
H474 C458 0.931 . S
H475 C463 0.929 . S
H476 C464 0.960 . S
H477 C464 0.962 . S
H478 C464 0.960 . S
H479 C465 0.961 . S
H480 C465 0.961 . S
H481 C465 0.961 . S
H482 C466 0.931 . S
H483 C471 0.930 . S
H484 C472 0.953 1_565 S
H485 C472 0.966 1_565 S
H486 C472 0.951 1_565 S
H487 C473 0.958 . S
H488 C473 0.961 . S
H489 C473 0.960 . S
C490 C491 1.391 . S
C490 C492 1.394 . S
C490 H506 0.931 . S
C491 C490 1.391 . S
C491 C495 1.376 . S
C492 C490 1.394 . S
C492 C493 1.369 . S
C492 C496 1.531 . S
C493 C492 1.369 . S
C493 C494 1.410 . S
C493 C501 1.503 . S
C494 C493 1.410 . S
C494 C495 1.392 . S
C494 C497 1.511 . S
C495 C491 1.376 . S
C495 C494 1.392 . S
C495 H507 0.929 . S
C496 C492 1.531 . S
C496 H508 0.960 . S
C496 H509 0.962 . S
C496 H510 0.960 . S
C497 C494 1.511 . S
C497 H511 0.961 . S
C497 H512 0.961 . S
C497 H513 0.961 . S
C498 C499 1.370 . S
C498 C500 1.363 . S
C498 H514 0.931 . S
C499 C498 1.370 . S
C499 C503 1.408 . S
C500 C498 1.363 . S
C500 C501 1.370 . S
C500 C504 1.524 . S
C501 C493 1.503 . S
C501 C500 1.370 . S
C501 C502 1.403 . S
C502 C501 1.403 . S
C502 C503 1.404 . S
C502 C505 1.539 . S
C503 C499 1.408 . S
C503 C502 1.404 . S
C503 H515 0.930 . S
C504 C500 1.524 . S
C504 H516 0.956 . S
C504 H517 0.961 . S
C504 H518 0.961 . S
C505 C502 1.539 . S
C505 H519 0.958 . S
C505 H520 0.961 . S
C505 H521 0.960 . S
H506 C490 0.931 . S
H507 C495 0.929 . S
H508 C496 0.960 . S
H509 C496 0.962 . S
H510 C496 0.960 . S
H511 C497 0.961 . S
H512 C497 0.961 . S
H513 C497 0.961 . S
H514 C498 0.931 . S
H515 C503 0.930 . S
H516 C504 0.956 . S
H517 C504 0.961 . S
H518 C504 0.961 . S
H519 C505 0.958 . S
H520 C505 0.961 . S
H521 C505 0.960 . S
C522 C523 1.391 . S
C522 C524 1.394 . S
C522 H538 0.931 1_655 S
C523 C522 1.391 . S
C523 C527 1.376 . S
C524 C522 1.394 . S
C524 C525 1.369 . S
C524 C528 1.531 . S
C525 C524 1.369 . S
C525 C526 1.410 . S
C525 C533 1.503 . S
C526 C525 1.410 . S
C526 C527 1.392 . S
C526 C529 1.511 . S
C527 C523 1.376 . S
C527 C526 1.392 . S
C527 H539 0.929 . S
C528 C524 1.531 . S
C528 H540 0.960 . S
C528 H541 0.962 . S
C528 H542 0.960 . S
C529 C526 1.511 . S
C529 H543 0.961 1_545 S
C529 H544 0.961 . S
C529 H545 0.961 . S
C530 C531 1.370 . S
C530 C532 1.363 . S
C530 H546 0.931 . S
C531 C530 1.370 . S
C531 C535 1.408 . S
C532 C530 1.363 . S
C532 C533 1.370 . S
C532 C536 1.524 . S
C533 C525 1.503 . S
C533 C532 1.370 . S
C533 C534 1.403 . S
C534 C533 1.403 . S
C534 C535 1.404 . S
C534 C537 1.539 . S
C535 C531 1.408 . S
C535 C534 1.404 . S
C535 H547 0.930 . S
C536 C532 1.524 . S
C536 H548 0.956 . S
C536 H549 0.961 . S
C536 H550 0.961 . S
C537 C534 1.539 . S
C537 H551 0.958 . S
C537 H552 0.961 . S
C537 H553 0.960 . S
H538 C522 0.931 1_455 S
H539 C527 0.929 . S
H540 C528 0.960 . S
H541 C528 0.962 . S
H542 C528 0.960 . S
H543 C529 0.961 1_565 S
H544 C529 0.961 . S
H545 C529 0.961 . S
H546 C530 0.931 . S
H547 C535 0.930 . S
H548 C536 0.956 . S
H549 C536 0.961 . S
H550 C536 0.961 . S
H551 C537 0.958 . S
H552 C537 0.961 . S
H553 C537 0.960 . S
C554 C555 1.391 . S
C554 C556 1.394 . S
C554 H570 0.931 1_565 S
C555 C554 1.391 . S
C555 C559 1.376 . S
C556 C554 1.394 . S
C556 C557 1.369 . S
C556 C560 1.531 . S
C557 C556 1.369 . S
C557 C558 1.410 . S
C557 C565 1.503 1_554 S
C558 C557 1.410 . S
C558 C559 1.392 . S
C558 C561 1.511 . S
C559 C555 1.376 . S
C559 C558 1.392 . S
C559 H571 0.929 1_655 S
C560 C556 1.531 . S
C560 H572 0.960 . S
C560 H573 0.962 . S
C560 H574 0.960 1_565 S
C561 C558 1.511 . S
C561 H575 0.961 . S
C561 H576 0.961 1_554 S
C561 H577 0.961 1_554 S
C562 C563 1.370 . S
C562 C564 1.363 . S
C562 H578 0.931 . S
C563 C562 1.370 . S
C563 C567 1.408 . S
C564 C562 1.363 . S
C564 C565 1.370 . S
C564 C568 1.524 1_556 S
C565 C557 1.503 1_556 S
C565 C564 1.370 . S
C565 C566 1.403 . S
C566 C565 1.403 . S
C566 C567 1.404 . S
C566 C569 1.539 . S
C567 C563 1.408 . S
C567 C566 1.404 . S
C567 H579 0.930 . S
C568 C564 1.524 1_554 S
C568 H580 0.956 . S
C568 H581 0.961 . S
C568 H582 0.961 . S
C569 C566 1.539 . S
C569 H583 0.958 1_565 S
C569 H584 0.961 . S
C569 H585 0.960 1_565 S
H570 C554 0.931 1_545 S
H571 C559 0.929 1_455 S
H572 C560 0.960 . S
H573 C560 0.962 . S
H574 C560 0.960 1_545 S
H575 C561 0.961 . S
H576 C561 0.961 1_556 S
H577 C561 0.961 1_556 S
H578 C562 0.931 . S
H579 C567 0.930 . S
H580 C568 0.956 . S
H581 C568 0.961 . S
H582 C568 0.961 . S
H583 C569 0.958 1_545 S
H584 C569 0.961 . S
H585 C569 0.960 1_545 S
C586 C587 1.391 1_455 S
C586 C588 1.394 . S
C586 H602 0.931 . S
C587 C586 1.391 1_655 S
C587 C591 1.376 . S
C588 C586 1.394 . S
C588 C589 1.369 1_455 S
C588 C592 1.531 . S
C589 C588 1.369 1_655 S
C589 C590 1.410 . S
C589 C597 1.503 . S
C590 C589 1.410 . S
C590 C591 1.392 . S
C590 C593 1.511 . S
C591 C587 1.376 . S
C591 C590 1.392 . S
C591 H603 0.929 . S
C592 C588 1.531 . S
C592 H604 0.960 . S
C592 H605 0.962 . S
C592 H606 0.960 . S
C593 C590 1.511 . S
C593 H607 0.961 . S
C593 H608 0.961 . S
C593 H609 0.961 . S
C594 C595 1.370 1_455 S
C594 C596 1.363 . S
C594 H610 0.931 . S
C595 C594 1.370 1_655 S
C595 C599 1.408 . S
C596 C594 1.363 . S
C596 C597 1.370 1_455 S
C596 C600 1.524 . S
C597 C589 1.503 . S
C597 C596 1.370 1_655 S
C597 C598 1.403 . S
C598 C597 1.403 . S
C598 C599 1.404 . S
C598 C601 1.539 . S
C599 C595 1.408 . S
C599 C598 1.404 . S
C599 H611 0.930 . S
C600 C596 1.524 . S
C600 H612 0.956 . S
C600 H613 0.961 . S
C600 H614 0.961 . S
C601 C598 1.539 . S
C601 H615 0.958 . S
C601 H616 0.961 . S
C601 H617 0.960 . S
H602 C586 0.931 . S
H603 C591 0.929 . S
H604 C592 0.960 . S
H605 C592 0.962 . S
H606 C592 0.960 . S
H607 C593 0.961 . S
H608 C593 0.961 . S
H609 C593 0.961 . S
H610 C594 0.931 . S
H611 C599 0.930 . S
H612 C600 0.956 . S
H613 C600 0.961 . S
H614 C600 0.961 . S
H615 C601 0.958 . S
H616 C601 0.961 . S
H617 C601 0.960 . S
C618 C619 1.391 . S
C618 C620 1.394 . S
C618 H634 0.931 . S
C619 C618 1.391 . S
C619 C623 1.376 . S
C620 C618 1.394 . S
C620 C621 1.369 . S
C620 C624 1.531 . S
C621 C620 1.369 . S
C621 C622 1.410 . S
C621 C629 1.503 . S
C622 C621 1.410 . S
C622 C623 1.392 . S
C622 C625 1.511 . S
C623 C619 1.376 . S
C623 C622 1.392 . S
C623 H635 0.929 . S
C624 C620 1.531 . S
C624 H636 0.960 . S
C624 H637 0.962 . S
C624 H638 0.960 . S
C625 C622 1.511 . S
C625 H639 0.961 1_545 S
C625 H640 0.961 . S
C625 H641 0.961 . S
C626 C627 1.370 . S
C626 C628 1.363 . S
C626 H642 0.931 . S
C627 C626 1.370 . S
C627 C631 1.408 . S
C628 C626 1.363 . S
C628 C629 1.370 . S
C628 C632 1.524 . S
C629 C621 1.503 . S
C629 C628 1.370 . S
C629 C630 1.403 . S
C630 C629 1.403 . S
C630 C631 1.404 . S
C630 C633 1.539 . S
C631 C627 1.408 . S
C631 C630 1.404 . S
C631 H643 0.930 . S
C632 C628 1.524 . S
C632 H644 0.956 . S
C632 H645 0.961 . S
C632 H646 0.961 . S
C633 C630 1.539 . S
C633 H647 0.958 . S
C633 H648 0.961 . S
C633 H649 0.960 . S
H634 C618 0.931 . S
H635 C623 0.929 . S
H636 C624 0.960 . S
H637 C624 0.962 . S
H638 C624 0.960 . S
H639 C625 0.961 1_565 S
H640 C625 0.961 . S
H641 C625 0.961 . S
H642 C626 0.931 . S
H643 C631 0.930 . S
H644 C632 0.956 . S
H645 C632 0.961 . S
H646 C632 0.961 . S
H647 C633 0.958 . S
H648 C633 0.961 . S
H649 C633 0.960 . S
C650 C651 1.391 . S
C650 C652 1.394 . S
C650 H666 0.931 . S
C651 C650 1.391 . S
C651 C655 1.376 . S
C652 C650 1.394 . S
C652 C653 1.369 . S
C652 C656 1.531 . S
C653 C652 1.369 . S
C653 C654 1.410 . S
C653 C661 1.503 . S
C654 C653 1.410 . S
C654 C655 1.392 . S
C654 C657 1.511 . S
C655 C651 1.376 . S
C655 C654 1.392 . S
C655 H667 0.929 . S
C656 C652 1.531 . S
C656 H668 0.960 . S
C656 H669 0.962 . S
C656 H670 0.960 . S
C657 C654 1.511 . S
C657 H671 0.961 . S
C657 H672 0.961 . S
C657 H673 0.961 . S
C658 C659 1.370 1_554 S
C658 C660 1.363 . S
C658 H674 0.931 . S
C659 C658 1.370 1_556 S
C659 C663 1.408 . S
C660 C658 1.363 . S
C660 C661 1.370 . S
C660 C664 1.524 . S
C661 C653 1.503 . S
C661 C660 1.370 . S
C661 C662 1.403 1_554 S
C662 C661 1.403 1_556 S
C662 C663 1.404 . S
C662 C665 1.539 . S
C663 C659 1.408 . S
C663 C662 1.404 . S
C663 H675 0.930 . S
C664 C660 1.524 . S
C664 H676 0.956 . S
C664 H677 0.961 . S
C664 H678 0.961 . S
C665 C662 1.539 . S
C665 H679 0.958 . S
C665 H680 0.961 . S
C665 H681 0.960 . S
H666 C650 0.931 . S
H667 C655 0.929 . S
H668 C656 0.960 . S
H669 C656 0.962 . S
H670 C656 0.960 . S
H671 C657 0.961 . S
H672 C657 0.961 . S
H673 C657 0.961 . S
H674 C658 0.931 . S
H675 C663 0.930 . S
H676 C664 0.956 . S
H677 C664 0.961 . S
H678 C664 0.961 . S
H679 C665 0.958 . S
H680 C665 0.961 . S
H681 C665 0.960 . S
C682 C683 1.391 . S
C682 C684 1.394 . S
C682 H698 0.931 . S
C683 C682 1.391 . S
C683 C687 1.376 1_455 S
C684 C682 1.394 . S
C684 C685 1.369 . S
C684 C688 1.531 . S
C685 C684 1.369 . S
C685 C686 1.410 1_455 S
C685 C693 1.503 . S
C686 C685 1.410 1_655 S
C686 C687 1.392 . S
C686 C689 1.511 . S
C687 C683 1.376 1_655 S
C687 C686 1.392 . S
C687 H699 0.929 . S
C688 C684 1.531 . S
C688 H700 0.960 . S
C688 H701 0.962 . S
C688 H702 0.960 . S
C689 C686 1.511 . S
C689 H703 0.961 . S
C689 H704 0.961 . S
C689 H705 0.961 . S
C690 C691 1.370 . S
C690 C692 1.363 . S
C690 H706 0.931 . S
C691 C690 1.370 . S
C691 C695 1.408 . S
C692 C690 1.363 . S
C692 C693 1.370 . S
C692 C696 1.524 . S
C693 C685 1.503 . S
C693 C692 1.370 . S
C693 C694 1.403 1_455 S
C694 C693 1.403 1_655 S
C694 C695 1.404 1_655 S
C694 C697 1.539 . S
C695 C691 1.408 . S
C695 C694 1.404 1_455 S
C695 H707 0.930 1_455 S
C696 C692 1.524 . S
C696 H708 0.956 . S
C696 H709 0.961 . S
C696 H710 0.961 . S
C697 C694 1.539 . S
C697 H711 0.958 . S
C697 H712 0.961 . S
C697 H713 0.960 . S
H698 C682 0.931 . S
H699 C687 0.929 . S
H700 C688 0.960 . S
H701 C688 0.962 . S
H702 C688 0.960 . S
H703 C689 0.961 . S
H704 C689 0.961 . S
H705 C689 0.961 . S
H706 C690 0.931 . S
H707 C695 0.930 1_655 S
H708 C696 0.956 . S
H709 C696 0.961 . S
H710 C696 0.961 . S
H711 C697 0.958 . S
H712 C697 0.961 . S
H713 C697 0.960 . S
C339 C147 1.445 . S
C331 C14 1.535 . S
C363 C40 1.417 . S
C371 C221 1.365 . S
C395 C76 2.064 1_665 S
C403 C325 2.096 . S
C427 C3 0.775 1_565 S
C435 C159 0.796 . S
C467 C233 0.871 . S
C459 C38 0.873 . S
C491 C74 1.556 . S
C499 C319 1.461 . S
C531 C251 2.099 . S
C523 C86 2.078 1_655 S
C555 C2 1.488 1_665 S
C563 C295 1.447 . S
C595 C171 1.448 . S
C587 C39 1.540 . S
C627 C245 1.390 . S
C619 C75 1.466 . S
C659 C307 0.815 . S
C651 C4 0.807 . S
C683 C50 2.136 . S
C691 C177 2.171 . S
