# Generated by pormake.
# Topology tsx, (6,3)-cn, num edge types: 1
# Building blocks:
#     Node 0, Type 0, BuildingBlock: JUFBIX_clean_sbu_0, # of connection points: 6
#     Node 1, Type 0, BuildingBlock: JUFBIX_clean_sbu_0, # of connection points: 6
#     Node 2, Type 1, BuildingBlock: BELTOD_clean_linker_0, # of connection points: 3
#     Node 3, Type 1, BuildingBlock: BELTOD_clean_linker_0, # of connection points: 3
#     Node 4, Type 1, BuildingBlock: BELTOD_clean_linker_0, # of connection points: 3
#     Node 5, Type 1, BuildingBlock: BELTOD_clean_linker_0, # of connection points: 3
#     Edge 6, Type (0, 1), BuildingBlock: UVAHIK_clean_linker_0, # of connection points: 2
#     Edge 7, Type (0, 1), BuildingBlock: UVAHIK_clean_linker_0, # of connection points: 2
#     Edge 8, Type (0, 1), BuildingBlock: UVAHIK_clean_linker_0, # of connection points: 2
#     Edge 9, Type (0, 1), BuildingBlock: UVAHIK_clean_linker_0, # of connection points: 2
#     Edge 10, Type (0, 1), BuildingBlock: UVAHIK_clean_linker_0, # of connection points: 2
#     Edge 11, Type (0, 1), BuildingBlock: UVAHIK_clean_linker_0, # of connection points: 2
#     Edge 12, Type (0, 1), BuildingBlock: UVAHIK_clean_linker_0, # of connection points: 2
#     Edge 13, Type (0, 1), BuildingBlock: UVAHIK_clean_linker_0, # of connection points: 2
#     Edge 14, Type (0, 1), BuildingBlock: UVAHIK_clean_linker_0, # of connection points: 2
#     Edge 15, Type (0, 1), BuildingBlock: UVAHIK_clean_linker_0, # of connection points: 2
#     Edge 16, Type (0, 1), BuildingBlock: UVAHIK_clean_linker_0, # of connection points: 2
#     Edge 17, Type (0, 1), BuildingBlock: UVAHIK_clean_linker_0, # of connection points: 2
# Relax obj value: 0.144
# Max RMSD: 0.159
# Mean RMSD: 0.123
data_MOF--net-tsx--node1-JUFBIX_clean_sbu_0--node2-BELTOD_clean_linker_0--edge1-UVAHIK_clean_linker_0
_symmetry_space_group_name_H-M    P1
_symmetry_Int_Tables_number       1
_symmetry_cell_setting            triclinic
loop_
_symmetry_equiv_pos_as_xyz
'x, y, z'
_cell_length_a     27.900047
_cell_length_b     33.031618
_cell_length_c     49.627041
_cell_angle_alpha  92.893734
_cell_angle_beta   89.738589
_cell_angle_gamma 96.906946
loop_
_atom_site_label
_atom_site_type_symbol
_atom_site_fract_x
_atom_site_fract_y
_atom_site_fract_z
_atom_type_partial_charge
Co0 Co 0.02102 0.98981 0.01431 0.0
C1 C 0.99061 0.01356 0.96418 0.0
Co2 Co 0.95652 0.02276 0.01585 0.0
C3 C 0.08757 0.92928 0.0204 0.0
C4 C 0.11736 0.98036 0.99826 0.0
N5 N 0.07714 0.96507 0.01123 0.0
N6 N 0.1329 0.9219 0.01377 0.0
C7 C 0.1516 0.95405 0.99983 0.0
H8 H 0.06249 0.90919 0.03178 0.0
H9 H 0.12134 0.0087 0.988 0.0
C10 C 0.98804 -0.0003 0.0661 0.0
N11 N 0.90047 0.04777 0.01909 0.0
C12 C 0.89217 0.08527 0.012 0.0
C13 C 0.85918 0.03213 0.03092 0.0
N14 N 0.84731 0.09355 0.01893 0.0
C15 C 0.82647 0.06005 0.03075 0.0
C16 C 0.93723 0.93779 0.00827 0.0
O17 O 0.02014 0.9841 0.05214 0.0
O18 O 0.9568 0.01755 0.05417 0.0
O19 O 0.91894 0.97115 0.01097 0.0
O20 O 0.98283 0.9384 0.00912 0.0
O21 O 0.95701 0.02785 0.9777 0.0
H22 H 0.85357 0.00267 0.03975 0.0
H23 H 0.91866 0.10619 1.00214 0.0
O24 O 0.02172 0.99604 0.9764 0.0
O25 O 0.05856 0.04132 0.01969 0.0
O26 O 0.9948 0.07416 0.02043 0.0
C27 C 0.04031 0.07474 0.02172 0.0
H28 H 0.18712 0.95781 0.99077 0.0
H29 H 0.79073 0.05652 0.03955 0.0
Co30 Co 0.5149 0.48213 0.51613 0.0
C31 C 0.48413 0.50559 0.46616 0.0
Co32 Co 0.44964 0.51418 0.51785 0.0
C33 C 0.58244 0.42174 0.52153 0.0
C34 C 0.61139 0.47384 0.50012 0.0
N35 N 0.57137 0.45771 0.51292 0.0
N36 N 0.628 0.41515 0.51473 0.0
C37 C 0.64612 0.44794 0.50126 0.0
H38 H 0.55768 0.40096 0.5326 0.0
H39 H 0.61491 0.5025 0.49024 0.0
C40 C 0.48157 0.4914 0.56793 0.0
N41 N 0.39368 0.53948 0.52097 0.0
C42 C 0.38629 0.57705 0.51356 0.0
C43 C 0.35207 0.52472 0.53285 0.0
N44 N 0.34179 0.58632 0.52037 0.0
C45 C 0.32009 0.55332 0.5324 0.0
C46 C 0.43125 0.42926 0.5102 0.0
O47 O 0.51363 0.47581 0.55391 0.0
O48 O 0.45031 0.50938 0.5561 0.0
O49 O 0.41212 0.46221 0.51345 0.0
O50 O 0.477 0.43074 0.51039 0.0
O51 O 0.4498 0.51885 0.47961 0.0
H52 H 0.34575 0.49543 0.54187 0.0
H53 H 0.41321 0.59733 0.50349 0.0
O54 O 0.51592 0.48896 0.47842 0.0
O55 O 0.55214 0.53371 0.52197 0.0
O56 O 0.48789 0.56578 0.52213 0.0
C57 C 0.53341 0.5669 0.52375 0.0
H58 H 0.68161 0.45245 0.4922 0.0
H59 H 0.28428 0.55056 0.54111 0.0
P60 P 0.08019 0.07224 0.44621 0.0
H61 H 0.06508 0.12809 0.49199 0.0
H62 H 0.99276 0.15368 0.51072 0.0
H63 H 0.90431 0.07074 0.45591 0.0
H64 H 0.97707 0.04522 0.43732 0.0
H65 H 0.17518 0.04603 0.44299 0.0
H66 H 0.20859 0.9861 0.45804 0.0
H67 H 0.07257 0.94531 0.4957 0.0
H68 H 0.03926 0.00586 0.48054 0.0
H69 H 0.05978 0.12409 0.40308 0.0
H70 H 0.07145 0.99633 0.41141 0.0
O71 O 0.12197 0.11288 0.44894 0.0
H72 H 0.04278 0.11079 0.35492 0.0
H73 H 0.05423 0.98275 0.36332 0.0
C74 C 0.02644 0.0854 0.46296 0.0
C75 C 0.03009 0.11489 0.48436 0.0
C76 C 0.98863 0.12935 0.49514 0.0
C77 C 0.94278 0.11458 0.48457 0.0
C78 C 0.93917 0.08319 0.46417 0.0
C79 C 0.9807 0.06853 0.45357 0.0
C80 C 0.1049 0.03041 0.46071 0.0
C81 C 0.15269 0.02448 0.45477 0.0
C82 C 0.17164 0.99007 0.46325 0.0
C83 C 0.14301 0.96068 0.47773 0.0
C84 C 0.09551 0.96745 0.48459 0.0
C85 C 0.07642 0.00195 0.47589 0.0
C86 C 0.06767 0.06141 0.41075 0.0
C87 C 0.05877 0.09318 0.39451 0.0
C88 C 0.0487 0.08547 0.36702 0.0
C89 C 0.04729 0.0457 0.35521 0.0
C90 C 0.05575 0.01381 0.37168 0.0
C91 C 0.06555 0.02155 0.39923 0.0
P92 P 0.05682 0.94956 0.58535 0.0
H93 H 0.02459 0.8803 0.54812 0.0
H94 H 0.94428 0.8491 0.53396 0.0
H95 H 0.88123 0.94765 0.57592 0.0
H96 H 0.96178 0.97832 0.59037 0.0
H97 H 0.15773 0.97298 0.57211 0.0
H98 H 0.19908 0.02917 0.54781 0.0
H99 H 0.06174 0.07114 0.53125 0.0
H100 H 0.0208 0.01534 0.55625 0.0
H101 H 0.99139 0.91719 0.62714 0.0
H102 H 0.10743 0.01514 0.62108 0.0
O103 O 0.09084 0.91128 0.58464 0.0
H104 H 0.98135 0.93649 0.67474 0.0
H105 H 0.09814 0.03406 0.66915 0.0
C106 C 0.99885 0.9309 0.57091 0.0
C107 C 0.99353 0.89543 0.55399 0.0
C108 C 0.94759 0.87784 0.54571 0.0
C109 C 0.90632 0.89566 0.55414 0.0
C110 C 0.91225 0.93284 0.56952 0.0
C111 C 0.95822 0.95042 0.57773 0.0
C112 C 0.08621 0.98981 0.56587 0.0
C113 C 0.13648 0.99406 0.56303 0.0
C114 C 0.16005 0.02607 0.54888 0.0
C115 C 0.13376 0.05471 0.53743 0.0
C116 C 0.08317 0.04993 0.54001 0.0
C117 C 0.05964 0.01786 0.55423 0.0
C118 C 0.04914 0.9655 0.62028 0.0
C119 C 0.01427 0.94327 0.63593 0.0
C120 C 0.00856 0.95428 0.66318 0.0
C121 C 0.03856 0.98708 0.67558 0.0
C122 C 0.07438 0.00875 0.66006 0.0
C123 C 0.07955 0.99807 0.63258 0.0
P124 P 0.57393 0.56974 0.94729 0.0
H125 H 0.56029 0.62289 0.99475 0.0
H126 H 0.48906 0.6505 0.01348 0.0
H127 H 0.39892 0.57425 0.95575 0.0
H128 H 0.47044 0.54732 0.9369 0.0
H129 H 0.66599 0.53859 0.94218 0.0
H130 H 0.69889 0.48084 0.96069 0.0
H131 H 0.56629 0.45103 1.00471 0.0
H132 H 0.53328 0.50893 0.98564 0.0
H133 H 0.554 0.62034 0.90346 0.0
H134 H 0.56469 0.49282 0.91352 0.0
O135 O 0.61637 0.60993 0.9495 0.0
H136 H 0.53685 0.60567 0.85542 0.0
H137 H 0.54746 0.4779 0.86552 0.0
C138 C 0.52069 0.5841 0.96394 0.0
C139 C 0.52509 0.61184 0.98634 0.0
C140 C 0.48426 0.62734 0.99717 0.0
C141 C 0.43834 0.61507 0.9858 0.0
C142 C 0.43388 0.58499 0.96456 0.0
C143 C 0.47473 0.56952 0.95379 0.0
C144 C 0.59751 0.5282 0.96272 0.0
C145 C 0.64417 0.51984 0.956 0.0
C146 C 0.66302 0.48694 0.96677 0.0
C147 C 0.63536 0.46146 0.98436 0.0
C148 C 0.58837 0.46993 0.99108 0.0
C149 C 0.56958 0.50313 0.98032 0.0
C150 C 0.5614 0.55786 0.91196 0.0
C151 C 0.55277 0.58919 0.89529 0.0
C152 C 0.54262 0.5807 0.86788 0.0
C153 C 0.54093 0.54061 0.85661 0.0
C154 C 0.54918 0.50917 0.8735 0.0
C155 C 0.559 0.51769 0.90098 0.0
P156 P 0.56743 0.45225 0.08743 0.0
H157 H 0.53733 0.38127 0.05095 0.0
H158 H 0.4578 0.35015 0.03534 0.0
H159 H 0.39331 0.45114 0.07328 0.0
H160 H 0.47268 0.48135 0.08949 0.0
H161 H 0.65115 0.46843 0.05202 0.0
H162 H 0.68729 0.53016 0.03102 0.0
H163 H 0.57302 0.59534 0.06376 0.0
H164 H 0.53812 0.5339 0.0854 0.0
H165 H 0.49773 0.41683 0.1266 0.0
H166 H 0.61858 0.5115 0.12673 0.0
O167 O 0.6051 0.41666 0.08468 0.0
H168 H 0.48482 0.4321 0.17453 0.0
H169 H 0.60608 0.52664 0.17496 0.0
C170 C 0.51066 0.43312 0.07184 0.0
C171 C 0.50614 0.39693 0.05563 0.0
C172 C 0.46068 0.37938 0.04649 0.0
C173 C 0.41916 0.39797 0.05336 0.0
C174 C 0.42449 0.43576 0.06804 0.0
C175 C 0.4699 0.4532 0.07716 0.0
C176 C 0.59236 0.49681 0.07055 0.0
C177 C 0.63386 0.49599 0.05463 0.0
C178 C 0.65421 0.53121 0.04241 0.0
C179 C 0.63322 0.56775 0.04594 0.0
C180 C 0.59044 0.56784 0.06102 0.0
C181 C 0.5703 0.53268 0.07328 0.0
C182 C 0.55816 0.46393 0.12285 0.0
C183 C 0.52113 0.4413 0.13683 0.0
C184 C 0.51375 0.45003 0.16426 0.0
C185 C 0.54404 0.48091 0.17843 0.0
C186 C 0.58208 0.50274 0.16455 0.0
C187 C 0.58908 0.49427 0.13697 0.0
C188 C 0.05571 0.15105 0.02048 0.0
C189 C 0.07216 0.11357 0.02559 0.0
C190 C 0.08694 0.18747 0.02352 0.0
C191 C 0.19558 0.23305 0.05927 0.0
H192 H 0.21912 0.30406 0.99947 0.0
C193 C 0.33531 0.37423 0.06841 0.0
C194 C 0.37043 0.37581 0.04796 0.0
C195 C 0.29199 0.34864 0.06517 0.0
C196 C 0.21258 0.28463 0.01637 0.0
H197 H 0.13372 0.08481 0.03826 0.0
H198 H 0.18763 0.14828 0.04405 0.0
H199 H 0.15581 0.24562 0.99571 0.0
H200 H 0.38625 0.35392 0.00736 0.0
H201 H 0.31048 0.30871 1.00178 0.0
H202 H 0.25293 0.27093 0.07971 0.0
C203 C 0.15082 0.1495 0.03758 0.0
C204 C 0.17627 0.25148 0.01429 0.0
C205 C 0.12001 0.1132 0.03413 0.0
C206 C 0.36008 0.35299 0.02357 0.0
C207 C 0.31654 0.32746 0.02028 0.0
C208 C 0.23135 0.26633 0.06148 0.0
C209 C 0.13467 0.18691 0.03223 0.0
C210 C 0.16834 0.22491 0.03551 0.0
C211 C 0.28277 0.32412 0.04139 0.0
C212 C 0.2409 0.29197 0.03986 0.0
H213 H 0.01901 0.15216 0.01378 0.0
H214 H 0.07376 0.21604 0.01932 0.0
H215 H 0.18993 0.21306 0.07594 0.0
H216 H 0.3423 0.39109 0.08756 0.0
H217 H 0.26638 0.34691 0.08167 0.0
C218 C 0.12997 0.8478 0.02054 0.0
C219 C 0.15648 0.88661 0.01906 0.0
C220 C 0.15379 0.81312 0.02289 0.0
C221 C 0.27355 0.78027 0.03844 0.0
H222 H 0.23255 0.68884 0.98844 0.0
C223 C 0.38899 0.64786 0.02153 0.0
C224 C 0.39635 0.63644 0.99428 0.0
C225 C 0.35271 0.67209 0.02887 0.0
C226 C 0.24444 0.71408 1.00257 0.0
H227 H 0.22841 0.91972 0.02054 0.0
H228 H 0.26982 0.85966 0.02413 0.0
H229 H 0.1831 0.74463 0.99431 0.0
H230 H 0.37057 0.64086 0.95348 0.0
H231 H 0.30793 0.68308 0.96616 0.0
H232 H 0.33634 0.75108 0.04547 0.0
C233 C 0.23072 0.85573 0.02364 0.0
C234 C 0.21575 0.74585 0.00619 0.0
C235 C 0.20701 0.8902 0.02121 0.0
C236 C 0.36543 0.64848 0.9747 0.0
C237 C 0.32935 0.67274 0.982 0.0
C238 C 0.30231 0.74861 0.03475 0.0
C239 C 0.20454 0.81666 0.02402 0.0
C240 C 0.23072 0.77994 0.02355 0.0
C241 C 0.32312 0.68557 0.00911 0.0
C242 C 0.28884 0.7157 0.01616 0.0
H243 H 0.09101 0.84403 0.01884 0.0
H244 H 0.13253 0.78349 0.02337 0.0
H245 H 0.28574 0.80575 0.05232 0.0
H246 H 0.41181 0.63862 0.03713 0.0
H247 H 0.34843 0.68089 0.04998 0.0
C248 C 0.85655 0.89912 0.99785 0.0
C249 C 0.90523 0.8989 1.00486 0.0
C250 C 0.82504 0.86295 0.99647 0.0
C251 C 0.81949 0.74957 0.99606 0.0
H252 H 0.69395 0.75817 0.02821 0.0
C253 C 0.68053 0.60752 0.01061 0.0
C254 C 0.65802 0.60639 0.036 0.0
C255 C 0.70701 0.6435 1.00244 0.0
C256 C 0.72887 0.75519 0.01919 0.0
H257 H 0.95955 0.8605 0.01508 0.0
H258 H 0.90415 0.79736 0.01361 0.0
H259 H 0.74914 0.81958 0.02215 0.0
H260 H 0.64575 0.6421 0.07273 0.0
H261 H 0.69195 0.70436 0.05872 0.0
H262 H 0.79997 0.6848 0.99463 0.0
C263 C 0.89045 0.82535 0.00858 0.0
C264 C 0.76037 0.79051 0.01537 0.0
C265 C 0.92219 0.86156 0.00961 0.0
C266 C 0.66177 0.64213 0.05281 0.0
C267 C 0.68831 0.67791 0.04474 0.0
C268 C 0.78801 0.71412 1.00008 0.0
C269 C 0.84127 0.82574 1.00246 0.0
C270 C 0.80642 0.78816 1.00417 0.0
C271 C 0.71167 0.67898 0.01959 0.0
C272 C 0.74273 0.71653 0.01222 0.0
H273 H 0.84256 0.92738 0.9937 0.0
H274 H 0.78772 0.86429 0.99108 0.0
H275 H 0.85437 0.74666 0.987 0.0
H276 H 0.67802 0.58052 0.99717 0.0
H277 H 0.72409 0.64345 0.9828 0.0
C278 C 0.77639 0.1306 0.0137 0.0
C279 C 0.82662 0.13107 0.01613 0.0
C280 C 0.75588 0.16699 0.01229 0.0
C281 C 0.78535 0.27596 0.99759 0.0
H282 H 0.66423 0.28716 0.03432 0.0
C283 C 0.70417 0.4278 1.00172 0.0
C284 C 0.65522 0.42527 0.99442 0.0
C285 C 0.72479 0.39273 0.00745 0.0
C286 C 0.69793 0.28439 0.02387 0.0
H287 H 0.89472 0.1702 0.01904 0.0
H288 H 0.85902 0.23382 0.0168 0.0
H289 H 0.70144 0.22433 0.03741 0.0
H290 H 0.58886 0.38419 0.98906 0.0
H291 H 0.62485 0.32292 0.99929 0.0
H292 H 0.78181 0.33598 0.98404 0.0
C293 C 0.83545 0.20524 0.01554 0.0
C294 C 0.71921 0.24836 0.02554 0.0
C295 C 0.85598 0.16877 0.01679 0.0
C296 C 0.62663 0.38722 0.99469 0.0
C297 C 0.64728 0.35209 1.00052 0.0
C298 C 0.76421 0.31203 0.99604 0.0
C299 C 0.78509 0.20482 0.01341 0.0
C300 C 0.76304 0.24358 0.01227 0.0
C301 C 0.6969 0.35433 0.00618 0.0
C302 C 0.72015 0.31659 0.00904 0.0
H303 H 0.75288 0.10201 0.01271 0.0
H304 H 0.7171 0.1654 0.01007 0.0
H305 H 0.81865 0.27315 0.98675 0.0
H306 H 0.72687 0.45684 1.00241 0.0
H307 H 0.76287 0.39557 0.01239 0.0
C308 C 0.54717 0.64338 0.52323 0.0
C309 C 0.56466 0.60608 0.5277 0.0
C310 C 0.5777 0.68018 0.52644 0.0
C311 C 0.68741 0.72637 0.56135 0.0
H312 H 0.70457 0.80058 0.50297 0.0
C313 C 0.82405 0.86981 0.57069 0.0
C314 C 0.85753 0.87317 0.54942 0.0
C315 C 0.78113 0.84351 0.56791 0.0
C316 C 0.69984 0.78025 0.51948 0.0
H317 H 0.62746 0.57809 0.53933 0.0
H318 H 0.68018 0.64216 0.54534 0.0
H319 H 0.64289 0.741 0.49917 0.0
H320 H 0.87065 0.85385 0.50792 0.0
H321 H 0.79567 0.80751 0.50314 0.0
H322 H 0.74501 0.76454 0.58138 0.0
C323 C 0.64305 0.64298 0.5393 0.0
C324 C 0.66443 0.74641 0.51739 0.0
C325 C 0.61291 0.6063 0.53572 0.0
C326 C 0.84577 0.85154 0.52475 0.0
C327 C 0.80266 0.82533 0.52193 0.0
C328 C 0.7223 0.76031 0.56357 0.0
C329 C 0.62583 0.68023 0.53464 0.0
C330 C 0.65877 0.71869 0.53806 0.0
C331 C 0.77068 0.82009 0.54379 0.0
C332 C 0.72958 0.78715 0.54245 0.0
H333 H 0.51016 0.64409 0.51695 0.0
H334 H 0.56363 0.70858 0.52278 0.0
H335 H 0.6835 0.70557 0.57763 0.0
H336 H 0.83216 0.88576 0.59004 0.0
H337 H 0.75689 0.84036 0.585 0.0
C338 C 0.62699 0.34082 0.52026 0.0
C339 C 0.65249 0.38013 0.5195 0.0
C340 C 0.65184 0.30657 0.52201 0.0
C341 C 0.71597 0.24092 0.50477 0.0
H342 H 0.83668 0.24792 0.54409 0.0
C343 C 0.86799 0.14537 0.47339 0.0
C344 C 0.89982 0.1347 0.49297 0.0
C345 C 0.8312 0.16899 0.48061 0.0
C346 C 0.80266 0.2449 0.53334 0.0
H347 H 0.72371 0.4145 0.52161 0.0
H348 H 0.76685 0.3553 0.52413 0.0
H349 H 0.78448 0.30125 0.55132 0.0
H350 H 0.91613 0.13835 0.53573 0.0
H351 H 0.85131 0.17909 0.54847 0.0
H352 H 0.73425 0.18456 0.48674 0.0
C353 C 0.72777 0.35058 0.52355 0.0
C354 C 0.77296 0.27586 0.53724 0.0
C355 C 0.70304 0.3846 0.52173 0.0
C356 C 0.89256 0.14656 0.52014 0.0
C357 C 0.85549 0.16999 0.52741 0.0
C358 C 0.74558 0.20979 0.50097 0.0
C359 C 0.70264 0.31104 0.52325 0.0
C360 C 0.73 0.27494 0.52238 0.0
C361 C 0.82508 0.18239 0.50763 0.0
C362 C 0.79003 0.212 0.5146 0.0
H363 H 0.58804 0.33639 0.51848 0.0
H364 H 0.63134 0.27656 0.52199 0.0
H365 H 0.68325 0.23924 0.4929 0.0
H366 H 0.87302 0.13727 0.45223 0.0
H367 H 0.80914 0.17843 0.46473 0.0
C368 C 0.35042 0.38741 0.51119 0.0
C369 C 0.40037 0.38971 0.50658 0.0
C370 C 0.32125 0.34999 0.50864 0.0
C371 C 0.32809 0.2389 0.50932 0.0
H372 H 0.19453 0.23227 0.48638 0.0
C373 C 0.20207 0.08798 0.50988 0.0
C374 C 0.15959 0.09104 0.52485 0.0
C375 C 0.23017 0.12303 0.50156 0.0
C376 C 0.23181 0.23368 0.49273 0.0
H377 H 0.45872 0.35467 0.4949 0.0
H378 H 0.40764 0.28944 0.48977 0.0
H379 H 0.24742 0.29638 0.48333 0.0
H380 H 0.11219 0.13344 0.54152 0.0
H381 H 0.16067 0.19432 0.52656 0.0
H382 H 0.31227 0.17628 0.51892 0.0
C383 C 0.3911 0.31643 0.49599 0.0
C384 C 0.26208 0.27043 0.49115 0.0
C385 C 0.42039 0.35386 0.49881 0.0
C386 C 0.14436 0.12979 0.52981 0.0
C387 C 0.1722 0.16478 0.52125 0.0
C388 C 0.29797 0.20209 0.51062 0.0
C389 C 0.34119 0.31393 0.50114 0.0
C390 C 0.31034 0.27379 0.50003 0.0
C391 C 0.21615 0.16186 0.50781 0.0
C392 C 0.24927 0.19933 0.50289 0.0
H393 H 0.33387 0.41445 0.51732 0.0
H394 H 0.28321 0.34926 0.51329 0.0
H395 H 0.36474 0.24036 0.51672 0.0
H396 H 0.21436 0.05855 0.50525 0.0
H397 H 0.26355 0.11988 0.49087 0.0
C398 C 0.27227 0.62486 0.51413 0.0
C399 C 0.32227 0.62428 0.51703 0.0
C400 C 0.25313 0.66169 0.51142 0.0
C401 C 0.28788 0.76884 0.49327 0.0
H402 H 0.16373 0.78515 0.52475 0.0
C403 C 0.18736 0.90163 0.46391 0.0
C404 C 0.16208 0.92205 0.48387 0.0
C405 C 0.20653 0.86581 0.46931 0.0
C406 C 0.19869 0.78132 0.51608 0.0
H407 H 0.39128 0.6621 0.51991 0.0
H408 H 0.35803 0.72638 0.51557 0.0
H409 H 0.19868 0.72244 0.53225 0.0
H410 H 0.13617 0.92033 0.52506 0.0
H411 H 0.1706 0.85782 0.53479 0.0
H412 H 0.28862 0.82801 0.4777 0.0
C413 C 0.33356 0.6983 0.51476 0.0
C414 C 0.21847 0.74507 0.52006 0.0
C415 C 0.35271 0.66142 0.51724 0.0
C416 C 0.15555 0.9053 0.50929 0.0
C417 C 0.17515 0.86942 0.5148 0.0
C418 C 0.26828 0.8051 0.48944 0.0
C419 C 0.28349 0.69895 0.51176 0.0
C420 C 0.26313 0.73817 0.50848 0.0
C421 C 0.20128 0.84943 0.4949 0.0
C422 C 0.22313 0.81164 0.50047 0.0
H423 H 0.24794 0.59673 0.51355 0.0
H424 H 0.21455 0.66081 0.50863 0.0
H425 H 0.32207 0.76457 0.4838 0.0
H426 H 0.19195 0.91316 0.44389 0.0
H427 H 0.22513 0.85072 0.45323 0.0
C428 C 0.02336 0.97983 0.1093 0.0
C429 C 0.98884 -0.00062 0.096 0.0
C430 C 0.02643 0.98216 0.1375 0.0
C431 C 0.99738 0.04699 0.19654 0.0
H432 H 0.0223 0.95459 0.23727 0.0
C433 C 0.00176 0.0566 0.31304 0.0
C434 C 0.03744 0.03771 0.32581 0.0
C435 C 0.99345 0.05009 0.28529 0.0
C436 C 0.01586 0.98084 0.22619 0.0
H437 H 0.92957 0.03578 0.10205 0.0
H438 H 0.93484 0.03967 0.15118 0.0
H439 H 0.01175 0.9461 0.18842 0.0
H440 H 0.09241 0.99713 0.3193 0.0
H441 H 0.07832 0.98608 0.27088 0.0
H442 H 0.00223 0.08196 0.23409 0.0
C443 C 0.95992 0.02293 0.13978 0.0
C444 C 0.00972 0.97592 0.19817 0.0
C445 C 0.9567 0.02046 0.1116 0.0
C446 C 0.06423 0.01176 0.31017 0.0
C447 C 0.05608 0.00538 0.28238 0.0
C448 C 0.00371 0.05196 0.2245 0.0
C449 C 0.9952 0.00424 0.15308 0.0
C450 C 1.00049 0.00897 0.18299 0.0
C451 C 0.02076 0.02466 0.26952 0.0
C452 C 0.01313 0.01899 0.23973 0.0
H453 H 0.04872 0.96335 0.09793 0.0
H454 H 0.05428 0.96769 0.14706 0.0
H455 H 0.99117 0.07328 0.18543 0.0
H456 H 0.97991 0.07623 0.32456 0.0
H457 H 0.96532 0.06484 0.27623 0.0
C458 C 0.95465 0.02582 0.91933 0.0
C459 C 0.99413 0.017 0.93456 0.0
C460 C 0.95802 0.02729 0.89119 0.0
C461 C 0.04517 0.04146 0.83549 0.0
H462 H 0.9464 0.97678 0.79187 0.0
C463 C 0.07329 0.00261 0.72207 0.0
C464 C 0.03305 0.99756 0.70481 0.0
C465 C 0.06749 0.00915 0.74992 0.0
C466 C 0.97392 0.99571 0.8036 0.0
H467 H 0.06848 0.00394 0.93229 0.0
H468 H 0.07446 0.00714 0.88342 0.0
H469 H 0.93755 0.98161 0.84073 0.0
H470 H 0.95547 0.99728 0.70297 0.0
H471 H 0.94536 0.01004 0.75135 0.0
H472 H 0.08145 0.05599 0.79853 0.0
C473 C 0.04089 0.01274 0.89316 0.0
C474 C 0.96882 0.99833 0.83168 0.0
C475 C 0.03731 0.01064 0.92115 0.0
C476 C 0.98708 0.00054 0.71586 0.0
C477 C 0.98132 0.00762 0.74364 0.0
C478 C 0.05 0.03931 0.80739 0.0
C479 C 0.0012 0.02071 0.87783 0.0
C480 C 0.00473 0.02073 0.84794 0.0
C481 C 0.02133 0.01132 0.76116 0.0
C482 C 0.01479 0.01589 0.79104 0.0
H483 H 0.9209 0.03084 0.92908 0.0
H484 H 0.92693 0.03369 0.87988 0.0
H485 H 0.07316 0.05936 0.84752 0.0
H486 H 0.10909 3e-05 0.71414 0.0
H487 H 0.09914 0.01117 0.76268 0.0
C488 C 0.45002 0.51176 0.61341 0.0
C489 C 0.48244 0.491 0.59781 0.0
C490 C 0.4533 0.51432 0.64157 0.0
C491 C 0.50385 0.46824 0.70002 0.0
H492 H 0.49578 0.57453 0.73545 0.0
C493 C 0.55796 0.50575 0.81194 0.0
C494 C 0.53097 0.53184 0.82732 0.0
C495 C 0.54985 0.49885 0.78418 0.0
C496 C 0.4974 0.54446 0.726 0.0
H497 H 0.54285 0.45556 0.59969 0.0
H498 H 0.54854 0.46004 0.64884 0.0
H499 H 0.48476 0.56531 0.68682 0.0
H500 H 0.47308 0.56994 0.82575 0.0
H501 H 0.4585 0.55757 0.77748 0.0
H502 H 0.51652 0.44738 0.73924 0.0
C503 C 0.52043 0.4742 0.63928 0.0
C504 C 0.49112 0.53919 0.69806 0.0
C505 C 0.51729 0.47179 0.61108 0.0
C506 C 0.49506 0.55022 0.81439 0.0
C507 C 0.48677 0.54317 0.78669 0.0
C508 C 0.50993 0.47346 0.72803 0.0
C509 C 0.48895 0.49604 0.65484 0.0
C510 C 0.49439 0.50107 0.6847 0.0
C511 C 0.51438 0.51771 0.77114 0.0
C512 C 0.50694 0.51169 0.74138 0.0
H513 H 0.42262 0.5268 0.60388 0.0
H514 H 0.42803 0.53084 0.65298 0.0
H515 H 0.50606 0.43836 0.69039 0.0
H516 H 0.58627 0.49149 0.82122 0.0
H517 H 0.57228 0.47952 0.77283 0.0
C518 C 0.44832 0.51726 0.42113 0.0
C519 C 0.4879 0.50923 0.43659 0.0
C520 C 0.45216 0.51883 0.39301 0.0
C521 C 0.54074 0.5344 0.33805 0.0
H522 H 0.44468 0.46815 0.29347 0.0
C523 C 0.57532 0.49394 0.22582 0.0
C524 C 0.53632 0.48962 0.20769 0.0
C525 C 0.56771 0.50019 0.25351 0.0
C526 C 0.47144 0.48746 0.30551 0.0
H527 H 0.56283 0.49765 0.43474 0.0
H528 H 0.56955 0.50093 0.38598 0.0
H529 H 0.43371 0.47338 0.34225 0.0
H530 H 0.45897 0.48988 0.20426 0.0
H531 H 0.44571 0.50176 0.25248 0.0
H532 H 0.5785 0.54873 0.30151 0.0
C533 C 0.53558 0.5059 0.3955 0.0
C534 C 0.46512 0.49036 0.3335 0.0
C535 C 0.53158 0.50374 0.42344 0.0
C536 C 0.48966 0.49255 0.2178 0.0
C537 C 0.48208 0.49922 0.24547 0.0
C538 C 0.54684 0.53188 0.31007 0.0
C539 C 0.49587 0.51312 0.37994 0.0
C540 C 0.50012 0.51327 0.3501 0.0
C541 C 0.52094 0.50272 0.26376 0.0
C542 C 0.51271 0.50779 0.29342 0.0
H543 H 0.41421 0.52158 0.43069 0.0
H544 H 0.42103 0.52462 0.38149 0.0
H545 H 0.56802 0.55274 0.35034 0.0
H546 H 0.61161 0.49132 0.21866 0.0
H547 H 0.59846 0.50196 0.26693 0.0
loop_
_geom_bond_atom_site_label_1
_geom_bond_atom_site_label_2
_geom_bond_distance
_geom_bond_site_symmetry_2
_ccdc_geom_bond_type
Co0 N5 2.057 . S
Co0 O17 2.021 . S
Co0 O20 2.062 1_455 S
Co0 O24 2.117 1_554 S
Co0 O25 2.020 1_565 S
C1 O21 1.259 1_455 S
C1 O24 1.258 1_545 S
Co2 N11 2.057 . S
Co2 O18 2.117 . S
Co2 O19 2.020 1_545 S
Co2 O21 2.021 1_554 S
Co2 O26 2.062 1_655 S
C3 N5 1.316 . S
C3 N6 1.347 . S
C3 H8 0.931 . S
C4 N5 1.375 1_556 S
C4 C7 1.350 . S
C4 H9 0.930 . S
N5 Co0 2.057 . S
N5 C3 1.316 . S
N5 C4 1.375 1_554 S
N6 C3 1.347 . S
N6 C7 1.373 1_554 S
C7 C4 1.350 . S
C7 N6 1.373 1_556 S
C7 H28 0.931 . S
H8 C3 0.931 . S
H9 C4 0.930 . S
C10 O17 1.259 1_545 S
C10 O18 1.258 1_455 S
N11 Co2 2.057 . S
N11 C12 1.316 . S
N11 C13 1.375 . S
C12 N11 1.316 . S
C12 N14 1.347 . S
C12 H23 0.931 1_554 S
C13 N11 1.375 . S
C13 C15 1.350 . S
C13 H22 0.930 . S
N14 C12 1.347 . S
N14 C15 1.373 . S
C15 C13 1.350 . S
C15 N14 1.373 . S
C15 H29 0.931 . S
C16 O19 1.256 . S
C16 O20 1.255 . S
O17 Co0 2.021 . S
O17 C10 1.259 1_565 S
O18 Co2 2.117 . S
O18 C10 1.258 1_655 S
O19 Co2 2.020 1_565 S
O19 C16 1.256 . S
O20 Co0 2.062 1_655 S
O20 C16 1.255 . S
O21 C1 1.259 1_655 S
O21 Co2 2.021 1_556 S
H22 C13 0.930 . S
H23 C12 0.931 1_556 S
O24 Co0 2.117 1_556 S
O24 C1 1.258 1_565 S
O25 Co0 2.020 1_545 S
O25 C27 1.256 . S
O26 Co2 2.062 1_455 S
O26 C27 1.255 . S
C27 O25 1.256 . S
C27 O26 1.255 . S
H28 C7 0.931 . S
H29 C15 0.931 . S
Co30 N35 2.057 . S
Co30 O47 2.021 . S
Co30 O50 2.062 . S
Co30 O54 2.117 . S
Co30 O55 2.020 . S
C31 O51 1.259 . S
C31 O54 1.258 . S
Co32 N41 2.057 . S
Co32 O48 2.117 . S
Co32 O49 2.020 . S
Co32 O51 2.021 . S
Co32 O56 2.062 . S
C33 N35 1.316 . S
C33 N36 1.347 . S
C33 H38 0.931 . S
C34 N35 1.375 . S
C34 C37 1.350 . S
C34 H39 0.930 . S
N35 Co30 2.057 . S
N35 C33 1.316 . S
N35 C34 1.375 . S
N36 C33 1.347 . S
N36 C37 1.373 . S
C37 C34 1.350 . S
C37 N36 1.373 . S
C37 H58 0.931 . S
H38 C33 0.931 . S
H39 C34 0.930 . S
C40 O47 1.259 . S
C40 O48 1.258 . S
N41 Co32 2.057 . S
N41 C42 1.316 . S
N41 C43 1.375 . S
C42 N41 1.316 . S
C42 N44 1.347 . S
C42 H53 0.931 . S
C43 N41 1.375 . S
C43 C45 1.350 . S
C43 H52 0.930 . S
N44 C42 1.347 . S
N44 C45 1.373 . S
C45 C43 1.350 . S
C45 N44 1.373 . S
C45 H59 0.931 . S
C46 O49 1.256 . S
C46 O50 1.255 . S
O47 Co30 2.021 . S
O47 C40 1.259 . S
O48 Co32 2.117 . S
O48 C40 1.258 . S
O49 Co32 2.020 . S
O49 C46 1.256 . S
O50 Co30 2.062 . S
O50 C46 1.255 . S
O51 C31 1.259 . S
O51 Co32 2.021 . S
H52 C43 0.930 . S
H53 C42 0.931 . S
O54 Co30 2.117 . S
O54 C31 1.258 . S
O55 Co30 2.020 . S
O55 C57 1.256 . S
O56 Co32 2.062 . S
O56 C57 1.255 . S
C57 O55 1.256 . S
C57 O56 1.255 . S
H58 C37 0.931 . S
H59 C45 0.931 . S
P60 O71 1.490 . S
P60 C74 1.812 . S
P60 C80 1.803 1_545 S
P60 C86 1.819 . S
H61 C75 0.941 . S
H62 C76 0.939 . S
H63 C78 0.940 . S
H64 C79 0.940 . S
H65 C81 0.939 1_545 S
H66 C82 0.942 . S
H67 C84 0.940 . S
H68 C85 0.939 . S
H69 C87 0.941 . S
H70 C91 0.939 . S
O71 P60 1.490 . S
H72 C88 0.939 . S
H73 C90 0.940 . S
C74 P60 1.812 . S
C74 C75 1.389 . S
C74 C79 1.391 1_455 S
C75 H61 0.941 . S
C75 C74 1.389 . S
C75 C76 1.397 1_455 S
C76 H62 0.939 . S
C76 C75 1.397 1_655 S
C76 C77 1.378 . S
C77 C76 1.378 . S
C77 C78 1.378 . S
C78 H63 0.940 . S
C78 C77 1.378 . S
C78 C79 1.396 . S
C79 H64 0.940 . S
C79 C74 1.391 1_655 S
C79 C78 1.396 . S
C80 P60 1.803 1_565 S
C80 C81 1.378 . S
C80 C85 1.400 . S
C81 H65 0.939 1_565 S
C81 C80 1.378 . S
C81 C82 1.361 . S
C82 H66 0.942 . S
C82 C81 1.361 . S
C82 C83 1.369 . S
C83 C82 1.369 . S
C83 C84 1.404 . S
C84 H67 0.940 . S
C84 C83 1.404 . S
C84 C85 1.389 . S
C85 H68 0.939 . S
C85 C80 1.400 . S
C85 C84 1.389 . S
C86 P60 1.819 . S
C86 C87 1.391 . S
C86 C91 1.391 1_545 S
C87 H69 0.941 . S
C87 C86 1.391 . S
C87 C88 1.396 . S
C88 H72 0.939 . S
C88 C87 1.396 . S
C88 C89 1.397 . S
C89 C88 1.397 . S
C89 C90 1.385 1_545 S
C90 H73 0.940 . S
C90 C89 1.385 1_565 S
C90 C91 1.388 . S
C91 H70 0.939 . S
C91 C86 1.391 1_565 S
C91 C90 1.388 . S
P92 O103 1.490 . S
P92 C106 1.812 1_455 S
P92 C112 1.803 1_565 S
P92 C118 1.819 . S
H93 C107 0.941 . S
H94 C108 0.939 . S
H95 C110 0.940 . S
H96 C111 0.940 . S
H97 C113 0.939 . S
H98 C114 0.942 . S
H99 C116 0.940 . S
H100 C117 0.939 . S
H101 C119 0.941 . S
H102 C123 0.939 . S
O103 P92 1.490 . S
H104 C120 0.939 . S
H105 C122 0.940 . S
C106 P92 1.812 1_655 S
C106 C107 1.389 1_655 S
C106 C111 1.391 . S
C107 H93 0.941 . S
C107 C106 1.389 1_455 S
C107 C108 1.397 1_455 S
C108 H94 0.939 . S
C108 C107 1.397 1_655 S
C108 C109 1.378 . S
C109 C108 1.378 . S
C109 C110 1.378 . S
C110 H95 0.940 . S
C110 C109 1.378 . S
C110 C111 1.396 . S
C111 H96 0.940 . S
C111 C106 1.391 . S
C111 C110 1.396 . S
C112 P92 1.803 1_545 S
C112 C113 1.378 . S
C112 C117 1.400 . S
C113 H97 0.939 . S
C113 C112 1.378 . S
C113 C114 1.361 . S
C114 H98 0.942 . S
C114 C113 1.361 . S
C114 C115 1.369 . S
C115 C114 1.369 . S
C115 C116 1.404 . S
C116 H99 0.940 . S
C116 C115 1.404 . S
C116 C117 1.389 . S
C117 H100 0.939 . S
C117 C112 1.400 . S
C117 C116 1.389 . S
C118 P92 1.819 . S
C118 C119 1.391 . S
C118 C123 1.391 1_565 S
C119 H101 0.941 . S
C119 C118 1.391 . S
C119 C120 1.396 . S
C120 H104 0.939 . S
C120 C119 1.396 . S
C120 C121 1.397 1_565 S
C121 C120 1.397 1_545 S
C121 C122 1.385 . S
C122 H105 0.940 . S
C122 C121 1.385 . S
C122 C123 1.388 . S
C123 H102 0.939 . S
C123 C118 1.391 1_545 S
C123 C122 1.388 . S
P124 O135 1.490 . S
P124 C138 1.812 . S
P124 C144 1.803 . S
P124 C150 1.819 . S
H125 C139 0.941 . S
H126 C140 0.939 . S
H127 C142 0.940 . S
H128 C143 0.940 . S
H129 C145 0.939 . S
H130 C146 0.942 . S
H131 C148 0.940 . S
H132 C149 0.939 . S
H133 C151 0.941 . S
H134 C155 0.939 . S
O135 P124 1.490 . S
H136 C152 0.939 . S
H137 C154 0.940 . S
C138 P124 1.812 . S
C138 C139 1.389 . S
C138 C143 1.391 . S
C139 H125 0.941 . S
C139 C138 1.389 . S
C139 C140 1.397 . S
C140 H126 0.939 . S
C140 C139 1.397 . S
C140 C141 1.378 . S
C141 C140 1.378 . S
C141 C142 1.378 . S
C142 H127 0.940 . S
C142 C141 1.378 . S
C142 C143 1.396 . S
C143 H128 0.940 . S
C143 C138 1.391 . S
C143 C142 1.396 . S
C144 P124 1.803 . S
C144 C145 1.378 . S
C144 C149 1.400 . S
C145 H129 0.939 . S
C145 C144 1.378 . S
C145 C146 1.361 . S
C146 H130 0.942 . S
C146 C145 1.361 . S
C146 C147 1.369 . S
C147 C146 1.369 . S
C147 C148 1.404 . S
C148 H131 0.940 . S
C148 C147 1.404 . S
C148 C149 1.389 . S
C149 H132 0.939 . S
C149 C144 1.400 . S
C149 C148 1.389 . S
C150 P124 1.819 . S
C150 C151 1.391 . S
C150 C155 1.391 . S
C151 H133 0.941 . S
C151 C150 1.391 . S
C151 C152 1.396 . S
C152 H136 0.939 . S
C152 C151 1.396 . S
C152 C153 1.397 . S
C153 C152 1.397 . S
C153 C154 1.385 . S
C154 H137 0.940 . S
C154 C153 1.385 . S
C154 C155 1.388 . S
C155 H134 0.939 . S
C155 C150 1.391 . S
C155 C154 1.388 . S
P156 O167 1.490 . S
P156 C170 1.812 . S
P156 C176 1.803 . S
P156 C182 1.819 . S
H157 C171 0.941 . S
H158 C172 0.939 . S
H159 C174 0.940 . S
H160 C175 0.940 . S
H161 C177 0.939 . S
H162 C178 0.942 . S
H163 C180 0.940 . S
H164 C181 0.939 . S
H165 C183 0.941 . S
H166 C187 0.939 . S
O167 P156 1.490 . S
H168 C184 0.939 . S
H169 C186 0.940 . S
C170 P156 1.812 . S
C170 C171 1.389 . S
C170 C175 1.391 . S
C171 H157 0.941 . S
C171 C170 1.389 . S
C171 C172 1.397 . S
C172 H158 0.939 . S
C172 C171 1.397 . S
C172 C173 1.378 . S
C173 C172 1.378 . S
C173 C174 1.378 . S
C174 H159 0.940 . S
C174 C173 1.378 . S
C174 C175 1.396 . S
C175 H160 0.940 . S
C175 C170 1.391 . S
C175 C174 1.396 . S
C176 P156 1.803 . S
C176 C177 1.378 . S
C176 C181 1.400 . S
C177 H161 0.939 . S
C177 C176 1.378 . S
C177 C178 1.361 . S
C178 H162 0.942 . S
C178 C177 1.361 . S
C178 C179 1.369 . S
C179 C178 1.369 . S
C179 C180 1.404 . S
C180 H163 0.940 . S
C180 C179 1.404 . S
C180 C181 1.389 . S
C181 H164 0.939 . S
C181 C176 1.400 . S
C181 C180 1.389 . S
C182 P156 1.819 . S
C182 C183 1.391 . S
C182 C187 1.391 . S
C183 H165 0.941 . S
C183 C182 1.391 . S
C183 C184 1.396 . S
C184 H168 0.939 . S
C184 C183 1.396 . S
C184 C185 1.397 . S
C185 C184 1.397 . S
C185 C186 1.385 . S
C186 H169 0.940 . S
C186 C185 1.385 . S
C186 C187 1.388 . S
C187 H166 0.939 . S
C187 C182 1.391 . S
C187 C186 1.388 . S
C188 C189 1.349 1_556 S
C188 C190 1.326 1_556 S
C188 H213 0.950 . S
C189 C188 1.349 1_554 S
C189 C205 1.349 . S
C190 C188 1.326 1_554 S
C190 C209 1.444 . S
C190 H214 0.936 1_554 S
C191 C208 1.574 . S
C191 C210 1.368 . S
C191 H215 0.949 . S
H192 C196 0.950 1_556 S
C193 C194 1.349 . S
C193 C195 1.327 . S
C193 H216 0.950 . S
C194 C193 1.349 . S
C194 C206 1.349 . S
C195 C193 1.327 . S
C195 C211 1.429 . S
C195 H217 0.950 . S
C196 H192 0.950 1_554 S
C196 C204 1.574 . S
C196 C212 1.368 . S
H197 C205 0.950 . S
H198 C203 0.950 . S
H199 C204 0.949 1_556 S
H200 C206 0.950 . S
H201 C207 0.950 . S
H202 C208 0.949 . S
C203 H198 0.950 . S
C203 C205 1.327 . S
C203 C209 1.429 . S
C204 C196 1.574 . S
C204 H199 0.949 1_554 S
C204 C210 1.368 . S
C205 C189 1.349 . S
C205 H197 0.950 . S
C205 C203 1.327 . S
C206 C194 1.349 . S
C206 H200 0.950 . S
C206 C207 1.327 . S
C207 H201 0.950 . S
C207 C206 1.327 . S
C207 C211 1.429 . S
C208 C191 1.574 . S
C208 H202 0.949 . S
C208 C212 1.368 . S
C209 C190 1.444 . S
C209 C203 1.429 . S
C209 C210 1.523 . S
C210 C191 1.368 . S
C210 C204 1.368 . S
C210 C209 1.523 . S
C211 C195 1.429 . S
C211 C207 1.429 . S
C211 C212 1.523 . S
C212 C196 1.368 . S
C212 C208 1.368 . S
C212 C211 1.523 . S
H213 C188 0.950 . S
H214 C190 0.936 1_556 S
H215 C191 0.949 . S
H216 C193 0.950 . S
H217 C195 0.950 . S
C218 C219 1.349 1_556 S
C218 C220 1.327 . S
C218 H243 0.950 . S
C219 C218 1.349 1_554 S
C219 C235 1.349 . S
C220 C218 1.327 . S
C220 C239 1.429 1_556 S
C220 H244 0.950 . S
C221 C238 1.574 . S
C221 C240 1.368 1_554 S
C221 H245 0.949 . S
H222 C226 0.949 . S
C223 C224 1.349 . S
C223 C225 1.328 1_556 S
C223 H246 0.950 1_556 S
C224 C223 1.349 . S
C224 C236 1.349 . S
C225 C223 1.328 1_554 S
C225 C241 1.430 1_554 S
C225 H247 0.948 . S
C226 H222 0.949 . S
C226 C234 1.574 . S
C226 C242 1.368 . S
H227 C235 0.950 . S
H228 C233 0.950 . S
H229 C234 0.949 . S
H230 C236 0.950 . S
H231 C237 0.950 . S
H232 C238 0.949 . S
C233 H228 0.950 . S
C233 C235 1.327 . S
C233 C239 1.429 . S
C234 C226 1.574 . S
C234 H229 0.949 . S
C234 C240 1.368 . S
C235 C219 1.349 . S
C235 H227 0.950 . S
C235 C233 1.327 . S
C236 C224 1.349 . S
C236 H230 0.950 . S
C236 C237 1.327 . S
C237 H231 0.950 . S
C237 C236 1.327 . S
C237 C241 1.429 . S
C238 C221 1.574 . S
C238 H232 0.949 . S
C238 C242 1.368 1_554 S
C239 C220 1.429 1_554 S
C239 C233 1.429 . S
C239 C240 1.523 1_554 S
C240 C221 1.368 1_556 S
C240 C234 1.368 . S
C240 C239 1.523 1_556 S
C241 C225 1.430 1_556 S
C241 C237 1.429 . S
C241 C242 1.523 . S
C242 C226 1.368 . S
C242 C238 1.368 1_556 S
C242 C241 1.523 . S
H243 C218 0.950 . S
H244 C220 0.950 . S
H245 C221 0.949 . S
H246 C223 0.950 1_554 S
H247 C225 0.948 . S
C248 C249 1.349 . S
C248 C250 1.327 . S
C248 H273 0.950 . S
C249 C248 1.349 . S
C249 C265 1.349 1_554 S
C250 C248 1.327 . S
C250 C269 1.429 . S
C250 H274 0.950 . S
C251 C268 1.574 . S
C251 C270 1.368 . S
C251 H275 0.949 1_554 S
H252 C256 0.949 . S
C253 C254 1.349 . S
C253 C255 1.327 . S
C253 H276 0.950 . S
C254 C253 1.349 . S
C254 C266 1.349 . S
C255 C253 1.327 . S
C255 C271 1.429 . S
C255 H277 0.950 . S
C256 H252 0.949 . S
C256 C264 1.574 . S
C256 C272 1.368 . S
H257 C265 0.950 . S
H258 C263 0.950 1_556 S
H259 C264 0.949 . S
H260 C266 0.950 . S
H261 C267 0.950 . S
H262 C268 0.949 . S
C263 H258 0.950 1_554 S
C263 C265 1.327 1_554 S
C263 C269 1.429 . S
C264 C256 1.574 . S
C264 H259 0.949 . S
C264 C270 1.368 . S
C265 C249 1.349 1_556 S
C265 H257 0.950 . S
C265 C263 1.327 1_556 S
C266 C254 1.349 . S
C266 H260 0.950 . S
C266 C267 1.327 . S
C267 H261 0.950 . S
C267 C266 1.327 . S
C267 C271 1.429 . S
C268 C251 1.574 . S
C268 H262 0.949 . S
C268 C272 1.368 . S
C269 C250 1.429 . S
C269 C263 1.429 . S
C269 C270 1.523 . S
C270 C251 1.368 . S
C270 C264 1.368 . S
C270 C269 1.523 . S
C271 C255 1.429 . S
C271 C267 1.429 . S
C271 C272 1.523 . S
C272 C256 1.368 . S
C272 C268 1.368 . S
C272 C271 1.523 . S
H273 C248 0.950 . S
H274 C250 0.950 . S
H275 C251 0.949 1_556 S
H276 C253 0.950 . S
H277 C255 0.950 . S
C278 C279 1.349 . S
C278 C280 1.333 . S
C278 H303 0.950 . S
C279 C278 1.349 . S
C279 C295 1.349 . S
C280 C278 1.333 . S
C280 C299 1.429 . S
C280 H304 0.944 1_554 S
C281 C298 1.575 1_554 S
C281 C300 1.369 1_554 S
C281 H305 0.948 . S
H282 C286 0.949 . S
C283 C284 1.349 . S
C283 C285 1.327 . S
C283 H306 0.950 . S
C284 C283 1.349 . S
C284 C296 1.349 . S
C285 C283 1.327 . S
C285 C301 1.429 . S
C285 H307 0.950 . S
C286 H282 0.949 . S
C286 C294 1.574 . S
C286 C302 1.368 . S
H287 C295 0.950 . S
H288 C293 0.950 . S
H289 C294 0.949 . S
H290 C296 0.950 . S
H291 C297 0.950 . S
H292 C298 0.949 . S
C293 H288 0.950 . S
C293 C295 1.327 . S
C293 C299 1.429 . S
C294 C286 1.574 . S
C294 H289 0.949 . S
C294 C300 1.368 . S
C295 C279 1.349 . S
C295 H287 0.950 . S
C295 C293 1.327 . S
C296 C284 1.349 . S
C296 H290 0.950 . S
C296 C297 1.327 . S
C297 H291 0.950 . S
C297 C296 1.327 . S
C297 C301 1.429 . S
C298 C281 1.575 1_556 S
C298 H292 0.949 . S
C298 C302 1.368 . S
C299 C280 1.429 . S
C299 C293 1.429 . S
C299 C300 1.523 1_554 S
C300 C281 1.369 1_556 S
C300 C294 1.368 . S
C300 C299 1.523 1_556 S
C301 C285 1.429 . S
C301 C297 1.429 . S
C301 C302 1.523 . S
C302 C286 1.368 . S
C302 C298 1.368 . S
C302 C301 1.523 . S
H303 C278 0.950 . S
H304 C280 0.944 1_556 S
H305 C281 0.948 . S
H306 C283 0.950 . S
H307 C285 0.950 . S
C308 C309 1.349 . S
C308 C310 1.327 . S
C308 H333 0.950 . S
C309 C308 1.349 . S
C309 C325 1.349 . S
C310 C308 1.327 . S
C310 C329 1.429 . S
C310 H334 0.950 . S
C311 C328 1.574 . S
C311 C330 1.368 . S
C311 H335 0.949 . S
H312 C316 0.949 . S
C313 C314 1.349 . S
C313 C315 1.327 . S
C313 H336 0.950 . S
C314 C313 1.349 . S
C314 C326 1.349 . S
C315 C313 1.327 . S
C315 C331 1.429 . S
C315 H337 0.950 . S
C316 H312 0.949 . S
C316 C324 1.574 . S
C316 C332 1.368 . S
H317 C325 0.950 . S
H318 C323 0.950 . S
H319 C324 0.949 . S
H320 C326 0.950 . S
H321 C327 0.950 . S
H322 C328 0.949 . S
C323 H318 0.950 . S
C323 C325 1.327 . S
C323 C329 1.429 . S
C324 C316 1.574 . S
C324 H319 0.949 . S
C324 C330 1.368 . S
C325 C309 1.349 . S
C325 H317 0.950 . S
C325 C323 1.327 . S
C326 C314 1.349 . S
C326 H320 0.950 . S
C326 C327 1.327 . S
C327 H321 0.950 . S
C327 C326 1.327 . S
C327 C331 1.429 . S
C328 C311 1.574 . S
C328 H322 0.949 . S
C328 C332 1.368 . S
C329 C310 1.429 . S
C329 C323 1.429 . S
C329 C330 1.523 . S
C330 C311 1.368 . S
C330 C324 1.368 . S
C330 C329 1.523 . S
C331 C315 1.429 . S
C331 C327 1.429 . S
C331 C332 1.523 . S
C332 C316 1.368 . S
C332 C328 1.368 . S
C332 C331 1.523 . S
H333 C308 0.950 . S
H334 C310 0.950 . S
H335 C311 0.949 . S
H336 C313 0.950 . S
H337 C315 0.950 . S
C338 C339 1.349 . S
C338 C340 1.327 . S
C338 H363 0.950 . S
C339 C338 1.349 . S
C339 C355 1.349 . S
C340 C338 1.327 . S
C340 C359 1.429 . S
C340 H364 0.950 . S
C341 C358 1.574 . S
C341 C360 1.368 . S
C341 H365 0.949 . S
H342 C346 0.949 . S
C343 C344 1.349 . S
C343 C345 1.327 . S
C343 H366 0.950 . S
C344 C343 1.349 . S
C344 C356 1.349 . S
C345 C343 1.327 . S
C345 C361 1.429 . S
C345 H367 0.950 . S
C346 H342 0.949 . S
C346 C354 1.574 . S
C346 C362 1.368 . S
H347 C355 0.950 . S
H348 C353 0.950 . S
H349 C354 0.949 . S
H350 C356 0.950 . S
H351 C357 0.950 . S
H352 C358 0.949 . S
C353 H348 0.950 . S
C353 C355 1.327 . S
C353 C359 1.429 . S
C354 C346 1.574 . S
C354 H349 0.949 . S
C354 C360 1.368 . S
C355 C339 1.349 . S
C355 H347 0.950 . S
C355 C353 1.327 . S
C356 C344 1.349 . S
C356 H350 0.950 . S
C356 C357 1.327 . S
C357 H351 0.950 . S
C357 C356 1.327 . S
C357 C361 1.429 . S
C358 C341 1.574 . S
C358 H352 0.949 . S
C358 C362 1.368 . S
C359 C340 1.429 . S
C359 C353 1.429 . S
C359 C360 1.523 . S
C360 C341 1.368 . S
C360 C354 1.368 . S
C360 C359 1.523 . S
C361 C345 1.429 . S
C361 C357 1.429 . S
C361 C362 1.523 . S
C362 C346 1.368 . S
C362 C358 1.368 . S
C362 C361 1.523 . S
H363 C338 0.950 . S
H364 C340 0.950 . S
H365 C341 0.949 . S
H366 C343 0.950 . S
H367 C345 0.950 . S
C368 C369 1.349 . S
C368 C370 1.327 . S
C368 H393 0.950 . S
C369 C368 1.349 . S
C369 C385 1.349 . S
C370 C368 1.327 . S
C370 C389 1.429 . S
C370 H394 0.950 . S
C371 C388 1.574 . S
C371 C390 1.368 . S
C371 H395 0.949 . S
H372 C376 0.949 . S
C373 C374 1.349 . S
C373 C375 1.327 . S
C373 H396 0.950 . S
C374 C373 1.349 . S
C374 C386 1.349 . S
C375 C373 1.327 . S
C375 C391 1.429 . S
C375 H397 0.950 . S
C376 H372 0.949 . S
C376 C384 1.574 . S
C376 C392 1.368 . S
H377 C385 0.950 . S
H378 C383 0.950 . S
H379 C384 0.949 . S
H380 C386 0.950 . S
H381 C387 0.950 . S
H382 C388 0.949 . S
C383 H378 0.950 . S
C383 C385 1.327 . S
C383 C389 1.429 . S
C384 C376 1.574 . S
C384 H379 0.949 . S
C384 C390 1.368 . S
C385 C369 1.349 . S
C385 H377 0.950 . S
C385 C383 1.327 . S
C386 C374 1.349 . S
C386 H380 0.950 . S
C386 C387 1.327 . S
C387 H381 0.950 . S
C387 C386 1.327 . S
C387 C391 1.429 . S
C388 C371 1.574 . S
C388 H382 0.949 . S
C388 C392 1.368 . S
C389 C370 1.429 . S
C389 C383 1.429 . S
C389 C390 1.523 . S
C390 C371 1.368 . S
C390 C384 1.368 . S
C390 C389 1.523 . S
C391 C375 1.429 . S
C391 C387 1.429 . S
C391 C392 1.523 . S
C392 C376 1.368 . S
C392 C388 1.368 . S
C392 C391 1.523 . S
H393 C368 0.950 . S
H394 C370 0.950 . S
H395 C371 0.949 . S
H396 C373 0.950 . S
H397 C375 0.950 . S
C398 C399 1.349 . S
C398 C400 1.327 . S
C398 H423 0.950 . S
C399 C398 1.349 . S
C399 C415 1.349 . S
C400 C398 1.327 . S
C400 C419 1.429 . S
C400 H424 0.950 . S
C401 C418 1.574 . S
C401 C420 1.368 . S
C401 H425 0.949 . S
H402 C406 0.949 . S
C403 C404 1.349 . S
C403 C405 1.327 . S
C403 H426 0.950 . S
C404 C403 1.349 . S
C404 C416 1.349 . S
C405 C403 1.327 . S
C405 C421 1.429 . S
C405 H427 0.950 . S
C406 H402 0.949 . S
C406 C414 1.574 . S
C406 C422 1.368 . S
H407 C415 0.950 . S
H408 C413 0.950 . S
H409 C414 0.949 . S
H410 C416 0.950 . S
H411 C417 0.950 . S
H412 C418 0.949 . S
C413 H408 0.950 . S
C413 C415 1.327 . S
C413 C419 1.429 . S
C414 C406 1.574 . S
C414 H409 0.949 . S
C414 C420 1.368 . S
C415 C399 1.349 . S
C415 H407 0.950 . S
C415 C413 1.327 . S
C416 C404 1.349 . S
C416 H410 0.950 . S
C416 C417 1.327 . S
C417 H411 0.950 . S
C417 C416 1.327 . S
C417 C421 1.429 . S
C418 C401 1.574 . S
C418 H412 0.949 . S
C418 C422 1.368 . S
C419 C400 1.429 . S
C419 C413 1.429 . S
C419 C420 1.523 . S
C420 C401 1.368 . S
C420 C414 1.368 . S
C420 C419 1.523 . S
C421 C405 1.429 . S
C421 C417 1.429 . S
C421 C422 1.523 . S
C422 C406 1.368 . S
C422 C418 1.368 . S
C422 C421 1.523 . S
H423 C398 0.950 . S
H424 C400 0.950 . S
H425 C401 0.949 . S
H426 C403 0.950 . S
H427 C405 0.950 . S
C428 C429 1.349 1_565 S
C428 C430 1.327 . S
C428 H453 0.950 . S
C429 C428 1.349 1_545 S
C429 C445 1.349 1_455 S
C430 C428 1.327 . S
C430 C449 1.429 1_565 S
C430 H454 0.950 . S
C431 C448 1.574 . S
C431 C450 1.368 1_655 S
C431 H455 0.949 . S
H432 C436 0.949 . S
C433 C434 1.349 1_655 S
C433 C435 1.327 . S
C433 H456 0.950 . S
C434 C433 1.349 1_455 S
C434 C446 1.349 1_545 S
C435 C433 1.327 . S
C435 C451 1.429 1_655 S
C435 H457 0.950 . S
C436 H432 0.949 . S
C436 C444 1.574 . S
C436 C452 1.368 1_565 S
H437 C445 0.950 . S
H438 C443 0.950 . S
H439 C444 0.949 . S
H440 C446 0.950 . S
H441 C447 0.950 . S
H442 C448 0.949 . S
C443 H438 0.950 . S
C443 C445 1.327 . S
C443 C449 1.429 1_655 S
C444 C436 1.574 . S
C444 H439 0.949 . S
C444 C450 1.368 1_565 S
C445 C429 1.349 1_655 S
C445 H437 0.950 . S
C445 C443 1.327 . S
C446 C434 1.349 1_565 S
C446 H440 0.950 . S
C446 C447 1.327 . S
C447 H441 0.950 . S
C447 C446 1.327 . S
C447 C451 1.429 1_565 S
C448 C431 1.574 . S
C448 H442 0.949 . S
C448 C452 1.368 1_655 S
C449 C430 1.429 1_545 S
C449 C443 1.429 1_455 S
C449 C450 1.523 . S
C450 C431 1.368 1_455 S
C450 C444 1.368 1_545 S
C450 C449 1.523 . S
C451 C435 1.429 1_455 S
C451 C447 1.429 1_545 S
C451 C452 1.523 . S
C452 C436 1.368 1_545 S
C452 C448 1.368 1_455 S
C452 C451 1.523 . S
H453 C428 0.950 . S
H454 C430 0.950 . S
H455 C431 0.949 . S
H456 C433 0.950 . S
H457 C435 0.950 . S
C458 C459 1.349 1_665 S
C458 C460 1.327 . S
C458 H483 0.950 . S
C459 C458 1.349 1_445 S
C459 C475 1.349 . S
C460 C458 1.327 . S
C460 C479 1.429 1_665 S
C460 H484 0.950 . S
C461 C478 1.574 . S
C461 C480 1.368 . S
C461 H485 0.949 . S
H462 C466 0.949 . S
C463 C464 1.349 . S
C463 C465 1.327 . S
C463 H486 0.950 . S
C464 C463 1.349 . S
C464 C476 1.349 1_445 S
C465 C463 1.327 . S
C465 C481 1.429 . S
C465 H487 0.950 . S
C466 H462 0.949 . S
C466 C474 1.574 . S
C466 C482 1.368 1_665 S
H467 C475 0.950 . S
H468 C473 0.950 . S
H469 C474 0.949 . S
H470 C476 0.950 . S
H471 C477 0.950 . S
H472 C478 0.949 . S
C473 H468 0.950 . S
C473 C475 1.327 . S
C473 C479 1.429 . S
C474 C466 1.574 . S
C474 H469 0.949 . S
C474 C480 1.368 1_665 S
C475 C459 1.349 . S
C475 H467 0.950 . S
C475 C473 1.327 . S
C476 C464 1.349 1_665 S
C476 H470 0.950 . S
C476 C477 1.327 . S
C477 H471 0.950 . S
C477 C476 1.327 . S
C477 C481 1.429 1_665 S
C478 C461 1.574 . S
C478 H472 0.949 . S
C478 C482 1.368 . S
C479 C460 1.429 1_445 S
C479 C473 1.429 . S
C479 C480 1.523 . S
C480 C461 1.368 . S
C480 C474 1.368 1_445 S
C480 C479 1.523 . S
C481 C465 1.429 . S
C481 C477 1.429 1_445 S
C481 C482 1.523 . S
C482 C466 1.368 1_445 S
C482 C478 1.368 . S
C482 C481 1.523 . S
H483 C458 0.950 . S
H484 C460 0.950 . S
H485 C461 0.949 . S
H486 C463 0.950 . S
H487 C465 0.950 . S
C488 C489 1.349 . S
C488 C490 1.327 . S
C488 H513 0.950 . S
C489 C488 1.349 . S
C489 C505 1.349 . S
C490 C488 1.327 . S
C490 C509 1.429 . S
C490 H514 0.950 . S
C491 C508 1.574 . S
C491 C510 1.368 . S
C491 H515 0.949 . S
H492 C496 0.949 . S
C493 C494 1.349 . S
C493 C495 1.327 . S
C493 H516 0.950 . S
C494 C493 1.349 . S
C494 C506 1.349 . S
C495 C493 1.327 . S
C495 C511 1.429 . S
C495 H517 0.950 . S
C496 H492 0.949 . S
C496 C504 1.574 . S
C496 C512 1.368 . S
H497 C505 0.950 . S
H498 C503 0.950 . S
H499 C504 0.949 . S
H500 C506 0.950 . S
H501 C507 0.950 . S
H502 C508 0.949 . S
C503 H498 0.950 . S
C503 C505 1.327 . S
C503 C509 1.429 . S
C504 C496 1.574 . S
C504 H499 0.949 . S
C504 C510 1.368 . S
C505 C489 1.349 . S
C505 H497 0.950 . S
C505 C503 1.327 . S
C506 C494 1.349 . S
C506 H500 0.950 . S
C506 C507 1.327 . S
C507 H501 0.950 . S
C507 C506 1.327 . S
C507 C511 1.429 . S
C508 C491 1.574 . S
C508 H502 0.949 . S
C508 C512 1.368 . S
C509 C490 1.429 . S
C509 C503 1.429 . S
C509 C510 1.523 . S
C510 C491 1.368 . S
C510 C504 1.368 . S
C510 C509 1.523 . S
C511 C495 1.429 . S
C511 C507 1.429 . S
C511 C512 1.523 . S
C512 C496 1.368 . S
C512 C508 1.368 . S
C512 C511 1.523 . S
H513 C488 0.950 . S
H514 C490 0.950 . S
H515 C491 0.949 . S
H516 C493 0.950 . S
H517 C495 0.950 . S
C518 C519 1.349 . S
C518 C520 1.327 . S
C518 H543 0.950 . S
C519 C518 1.349 . S
C519 C535 1.349 . S
C520 C518 1.327 . S
C520 C539 1.429 . S
C520 H544 0.950 . S
C521 C538 1.574 . S
C521 C540 1.368 . S
C521 H545 0.949 . S
H522 C526 0.949 . S
C523 C524 1.349 . S
C523 C525 1.327 . S
C523 H546 0.950 . S
C524 C523 1.349 . S
C524 C536 1.349 . S
C525 C523 1.327 . S
C525 C541 1.429 . S
C525 H547 0.950 . S
C526 H522 0.949 . S
C526 C534 1.574 . S
C526 C542 1.368 . S
H527 C535 0.950 . S
H528 C533 0.950 . S
H529 C534 0.949 . S
H530 C536 0.950 . S
H531 C537 0.950 . S
H532 C538 0.949 . S
C533 H528 0.950 . S
C533 C535 1.327 . S
C533 C539 1.429 . S
C534 C526 1.574 . S
C534 H529 0.949 . S
C534 C540 1.368 . S
C535 C519 1.349 . S
C535 H527 0.950 . S
C535 C533 1.327 . S
C536 C524 1.349 . S
C536 H530 0.950 . S
C536 C537 1.327 . S
C537 H531 0.950 . S
C537 C536 1.327 . S
C537 C541 1.429 . S
C538 C521 1.574 . S
C538 H532 0.949 . S
C538 C542 1.368 . S
C539 C520 1.429 . S
C539 C533 1.429 . S
C539 C540 1.523 . S
C540 C521 1.368 . S
C540 C534 1.368 . S
C540 C539 1.523 . S
C541 C525 1.429 . S
C541 C537 1.429 . S
C541 C542 1.523 . S
C542 C526 1.368 . S
C542 C538 1.368 . S
C542 C541 1.523 . S
H543 C518 0.950 . S
H544 C520 0.950 . S
H545 C521 0.949 . S
H546 C523 0.950 . S
H547 C525 0.950 . S
C194 C173 1.352 . S
C189 C27 1.386 . S
C219 N6 1.297 . S
C224 C141 1.316 . S
C249 C16 1.378 . S
C254 C179 1.342 . S
C279 N14 1.330 . S
C284 C147 1.310 . S
C309 C57 1.386 . S
C314 C109 1.352 . S
C339 N36 1.297 . S
C344 C77 1.316 . S
C374 C115 1.342 . S
C369 C46 1.378 . S
C404 C83 1.310 . S
C399 N44 1.330 . S
C429 C10 1.394 . S
C434 C89 1.366 . S
C459 C1 1.526 . S
C464 C121 1.496 . S
C494 C153 1.365 . S
C489 C40 1.394 . S
C519 C31 1.526 . S
C524 C185 1.496 . S
