# Generated by pormake.
# Topology wbl, (4,4)-cn, num edge types: 1
# Building blocks:
#     Node 0, Type 0, BuildingBlock: NAWXER_clean_linker_0, # of connection points: 4
#     Node 1, Type 0, BuildingBlock: NAWXER_clean_linker_0, # of connection points: 4
#     Node 2, Type 0, BuildingBlock: NAWXER_clean_linker_0, # of connection points: 4
#     Node 3, Type 0, BuildingBlock: NAWXER_clean_linker_0, # of connection points: 4
#     Node 4, Type 0, BuildingBlock: NAWXER_clean_linker_0, # of connection points: 4
#     Node 5, Type 0, BuildingBlock: NAWXER_clean_linker_0, # of connection points: 4
#     Node 6, Type 0, BuildingBlock: NAWXER_clean_linker_0, # of connection points: 4
#     Node 7, Type 0, BuildingBlock: NAWXER_clean_linker_0, # of connection points: 4
#     Node 8, Type 1, BuildingBlock: GALJAG_clean_sbu_0, # of connection points: 4
#     Node 9, Type 1, BuildingBlock: GALJAG_clean_sbu_0, # of connection points: 4
#     Node 10, Type 1, BuildingBlock: GALJAG_clean_sbu_0, # of connection points: 4
#     Node 11, Type 1, BuildingBlock: GALJAG_clean_sbu_0, # of connection points: 4
#     Node 12, Type 1, BuildingBlock: GALJAG_clean_sbu_0, # of connection points: 4
#     Node 13, Type 1, BuildingBlock: GALJAG_clean_sbu_0, # of connection points: 4
#     Node 14, Type 1, BuildingBlock: GALJAG_clean_sbu_0, # of connection points: 4
#     Node 15, Type 1, BuildingBlock: GALJAG_clean_sbu_0, # of connection points: 4
#     Edge 16, Type (0, 1), BuildingBlock: KIFKEQ_clean_linker_1, # of connection points: 2
#     Edge 17, Type (0, 1), BuildingBlock: KIFKEQ_clean_linker_1, # of connection points: 2
#     Edge 18, Type (0, 1), BuildingBlock: KIFKEQ_clean_linker_1, # of connection points: 2
#     Edge 19, Type (0, 1), BuildingBlock: KIFKEQ_clean_linker_1, # of connection points: 2
#     Edge 20, Type (0, 1), BuildingBlock: KIFKEQ_clean_linker_1, # of connection points: 2
#     Edge 21, Type (0, 1), BuildingBlock: KIFKEQ_clean_linker_1, # of connection points: 2
#     Edge 22, Type (0, 1), BuildingBlock: KIFKEQ_clean_linker_1, # of connection points: 2
#     Edge 23, Type (0, 1), BuildingBlock: KIFKEQ_clean_linker_1, # of connection points: 2
#     Edge 24, Type (0, 1), BuildingBlock: KIFKEQ_clean_linker_1, # of connection points: 2
#     Edge 25, Type (0, 1), BuildingBlock: KIFKEQ_clean_linker_1, # of connection points: 2
#     Edge 26, Type (0, 1), BuildingBlock: KIFKEQ_clean_linker_1, # of connection points: 2
#     Edge 27, Type (0, 1), BuildingBlock: KIFKEQ_clean_linker_1, # of connection points: 2
#     Edge 28, Type (0, 1), BuildingBlock: KIFKEQ_clean_linker_1, # of connection points: 2
#     Edge 29, Type (0, 1), BuildingBlock: KIFKEQ_clean_linker_1, # of connection points: 2
#     Edge 30, Type (0, 1), BuildingBlock: KIFKEQ_clean_linker_1, # of connection points: 2
#     Edge 31, Type (0, 1), BuildingBlock: KIFKEQ_clean_linker_1, # of connection points: 2
#     Edge 32, Type (0, 1), BuildingBlock: KIFKEQ_clean_linker_1, # of connection points: 2
#     Edge 33, Type (0, 1), BuildingBlock: KIFKEQ_clean_linker_1, # of connection points: 2
#     Edge 34, Type (0, 1), BuildingBlock: KIFKEQ_clean_linker_1, # of connection points: 2
#     Edge 35, Type (0, 1), BuildingBlock: KIFKEQ_clean_linker_1, # of connection points: 2
#     Edge 36, Type (0, 1), BuildingBlock: KIFKEQ_clean_linker_1, # of connection points: 2
#     Edge 37, Type (0, 1), BuildingBlock: KIFKEQ_clean_linker_1, # of connection points: 2
#     Edge 38, Type (0, 1), BuildingBlock: KIFKEQ_clean_linker_1, # of connection points: 2
#     Edge 39, Type (0, 1), BuildingBlock: KIFKEQ_clean_linker_1, # of connection points: 2
#     Edge 40, Type (0, 1), BuildingBlock: KIFKEQ_clean_linker_1, # of connection points: 2
#     Edge 41, Type (0, 1), BuildingBlock: KIFKEQ_clean_linker_1, # of connection points: 2
#     Edge 42, Type (0, 1), BuildingBlock: KIFKEQ_clean_linker_1, # of connection points: 2
#     Edge 43, Type (0, 1), BuildingBlock: KIFKEQ_clean_linker_1, # of connection points: 2
#     Edge 44, Type (0, 1), BuildingBlock: KIFKEQ_clean_linker_1, # of connection points: 2
#     Edge 45, Type (0, 1), BuildingBlock: KIFKEQ_clean_linker_1, # of connection points: 2
#     Edge 46, Type (0, 1), BuildingBlock: KIFKEQ_clean_linker_1, # of connection points: 2
#     Edge 47, Type (0, 1), BuildingBlock: KIFKEQ_clean_linker_1, # of connection points: 2
# Relax obj value: 0.140
# Max RMSD: 0.149
# Mean RMSD: 0.132
data_MOF--net-wbl--node1-GALJAG_clean_sbu_0--node2-NAWXER_clean_linker_0--edge1-KIFKEQ_clean_linker_1
_symmetry_space_group_name_H-M    P1
_symmetry_Int_Tables_number       1
_symmetry_cell_setting            triclinic
loop_
_symmetry_equiv_pos_as_xyz
'x, y, z'
_cell_length_a     44.368341
_cell_length_b     44.528857
_cell_length_c     86.421761
_cell_angle_alpha  90.025422
_cell_angle_beta   90.044722
_cell_angle_gamma 89.981592
loop_
_atom_site_label
_atom_site_type_symbol
_atom_site_fract_x
_atom_site_fract_y
_atom_site_fract_z
_atom_type_partial_charge
C0 C 0.05934 0.92899 0.3754 0.0
C1 C 0.08053 0.94237 0.3854 0.0
C2 C 0.04429 0.94619 0.36428 0.0
C3 C 0.05 0.97708 0.36302 0.0
C4 C 0.0871 0.97309 0.38355 0.0
C5 C 0.07169 0.99032 0.37263 0.0
C6 C 0.03128 0.99627 0.35294 0.0
C7 C 0.093 0.94495 0.32245 0.0
C8 C 0.07887 0.9251 0.3121 0.0
C9 C 0.07628 0.96655 0.33036 0.0
C10 C 0.04493 0.96845 0.32834 0.0
C11 C 0.04763 0.92762 0.30965 0.0
C12 C 0.0308 0.94917 0.31771 0.0
C13 C 0.02719 0.9911 0.33698 0.0
C14 C 0.95086 0.09814 0.31829 0.0
C15 C 0.93092 0.08381 0.30803 0.0
C16 C 0.97102 0.08131 0.32721 0.0
C17 C 0.97114 0.04978 0.32629 0.0
C18 C 0.93188 0.05236 0.3067 0.0
C19 C 0.95184 0.03554 0.31571 0.0
C20 C 0.99162 0.03144 0.33599 0.0
C21 C 0.93215 0.07789 0.37187 0.0
C22 C 0.94812 0.09426 0.38312 0.0
C23 C 0.94762 0.06017 0.36109 0.0
C24 C 0.97929 0.05904 0.36124 0.0
C25 C 0.97975 0.09403 0.38281 0.0
C26 C 0.99515 0.07657 0.37201 0.0
C27 C 0.99608 0.03666 0.35198 0.0
H28 H 0.05335 0.90554 0.37659 0.0
H29 H 0.02723 0.93565 0.35713 0.0
H30 H 0.10377 0.98406 0.39076 0.0
H31 H 0.0764 0.01414 0.37182 0.0
H32 H 0.11715 0.94415 0.32424 0.0
H33 H 0.088 0.98196 0.33797 0.0
H34 H 0.03619 0.91269 0.30169 0.0
H35 H 0.0067 0.9505 0.3158 0.0
H36 H 0.95096 0.12238 0.31936 0.0
H37 H 0.98648 0.09298 0.33482 0.0
H38 H 0.91664 0.04067 0.29897 0.0
H39 H 0.95171 0.01129 0.31467 0.0
H40 H 0.90774 0.07746 0.37197 0.0
H41 H 0.93482 0.04625 0.35319 0.0
H42 H 0.99261 0.10669 0.39125 0.0
H43 H 0.01956 0.07593 0.37241 0.0
N44 N 0.01577 0.01889 0.35975 0.0
N45 N 0.00733 0.00875 0.32912 0.0
C46 C 0.91378 0.45264 0.62201 0.0
C47 C 0.92498 0.43364 0.63366 0.0
C48 C 0.9335 0.46671 0.61169 0.0
C49 C 0.96473 0.4621 0.61292 0.0
C50 C 0.95621 0.42869 0.63467 0.0
C51 C 0.97591 0.44303 0.62448 0.0
C52 C 0.98601 0.47894 0.60307 0.0
C53 C 0.94018 0.41237 0.57268 0.0
C54 C 0.92233 0.42488 0.56088 0.0
C55 C 0.96031 0.43018 0.581 0.0
C56 C 0.96276 0.46102 0.57788 0.0
C57 C 0.92535 0.45561 0.55747 0.0
C58 C 0.94548 0.47351 0.56588 0.0
C59 C 0.98401 0.47998 0.58678 0.0
C60 C 0.09537 0.55198 0.57012 0.0
C61 C 0.08329 0.56957 0.55814 0.0
C62 C 0.07664 0.53367 0.57906 0.0
C63 C 0.04536 0.53322 0.57642 0.0
C64 C 0.05221 0.56809 0.55509 0.0
C65 C 0.03345 0.55006 0.56413 0.0
C66 C 0.02491 0.51483 0.58611 0.0
C67 C 0.06472 0.58112 0.62065 0.0
C68 C 0.08153 0.5675 0.63254 0.0
C69 C 0.0479 0.56359 0.61034 0.0
C70 C 0.04767 0.53217 0.61176 0.0
C71 C 0.08189 0.53601 0.63362 0.0
C72 C 0.06495 0.51856 0.6234 0.0
C73 C 0.02695 0.51354 0.60243 0.0
H74 H 0.8898 0.45681 0.62099 0.0
H75 H 0.92443 0.48181 0.60304 0.0
H76 H 0.96549 0.4145 0.64367 0.0
H77 H -5e-05 0.43944 0.62572 0.0
H78 H 0.93902 0.38861 0.57529 0.0
H79 H 0.97422 0.41973 0.58979 0.0
H80 H 0.91192 0.46587 0.54844 0.0
H81 H 0.94726 0.49719 0.56316 0.0
H82 H 0.11932 0.55232 0.57255 0.0
H83 H 0.08665 0.51994 0.58803 0.0
H84 H 0.04224 0.58156 0.54599 0.0
H85 H 0.00947 0.54983 0.56174 0.0
H86 H 0.0641 0.60533 0.61951 0.0
H87 H 0.03423 0.57463 0.60165 0.0
H88 H 0.09422 0.52486 0.64279 0.0
H89 H 0.06479 0.49438 0.62481 0.0
N90 N 0.0075 0.49556 0.61022 0.0
N91 N 0.0034 0.49805 0.57892 0.0
C92 C 0.5588 0.41717 0.87276 0.0
C93 C 0.57803 0.42882 0.88422 0.0
C94 C 0.54377 0.43643 0.86257 0.0
C95 C 0.54773 0.46765 0.86369 0.0
C96 C 0.58245 0.46004 0.88506 0.0
C97 C 0.56723 0.47926 0.87498 0.0
C98 C 0.52946 0.48845 0.85422 0.0
C99 C 0.5932 0.44293 0.82221 0.0
C100 C 0.57991 0.42615 0.81026 0.0
C101 C 0.57593 0.4626 0.83109 0.0
C102 C 0.54478 0.46534 0.82849 0.0
C103 C 0.54897 0.42961 0.80727 0.0
C104 C 0.53154 0.44904 0.81633 0.0
C105 C 0.5263 0.48604 0.83801 0.0
C106 C 0.44435 0.5916 0.82296 0.0
C107 C 0.42558 0.57728 0.8121 0.0
C108 C 0.4657 0.57512 0.83135 0.0
C109 C 0.46823 0.5439 0.82928 0.0
C110 C 0.42932 0.5463 0.80953 0.0
C111 C 0.45033 0.52984 0.81803 0.0
C112 C 0.4897 0.52551 0.8384 0.0
C113 C 0.42906 0.56689 0.87542 0.0
C114 C 0.44477 0.58272 0.88697 0.0
C115 C 0.44479 0.55002 0.86439 0.0
C116 C 0.47646 0.54928 0.86455 0.0
C117 C 0.47641 0.58254 0.88684 0.0
C118 C 0.49206 0.56595 0.87577 0.0
C119 C 0.49363 0.5284 0.85458 0.0
H120 H 0.55503 0.3932 0.87185 0.0
H121 H 0.52834 0.42699 0.85416 0.0
H122 H 0.59677 0.46969 0.89392 0.0
H123 H 0.57033 0.50329 0.87615 0.0
H124 H 0.61717 0.44132 0.82448 0.0
H125 H 0.58707 0.4759 0.83988 0.0
H126 H 0.53824 0.41704 0.79805 0.0
H127 H 0.50766 0.4511 0.81395 0.0
H128 H 0.44217 0.61541 0.82524 0.0
H129 H 0.48005 0.58681 0.83951 0.0
H130 H 0.41593 0.53463 0.80094 0.0
H131 H 0.45221 0.5059 0.81597 0.0
H132 H 0.40465 0.56639 0.87538 0.0
H133 H 0.4322 0.53666 0.85614 0.0
H134 H 0.48908 0.59478 0.89551 0.0
H135 H 0.51647 0.56552 0.87621 0.0
N136 N 0.51333 0.50972 0.86178 0.0
N137 N 0.50627 0.50443 0.83077 0.0
C138 C 0.44177 0.90522 0.07317 0.0
C139 C 0.42301 0.91788 0.0618 0.0
C140 C 0.46149 0.92323 0.08166 0.0
C141 C 0.4624 0.95439 0.0792 0.0
C142 C 0.4245 0.94893 0.05903 0.0
C143 C 0.44405 0.96702 0.06766 0.0
C144 C 0.48335 0.97373 0.08808 0.0
C145 C 0.42028 0.93587 0.12431 0.0
C146 C 0.43448 0.91937 0.13614 0.0
C147 C 0.43736 0.95221 0.11364 0.0
C148 C 0.46899 0.95203 0.11445 0.0
C149 C 0.46616 0.91909 0.13681 0.0
C150 C 0.48318 0.9353 0.12612 0.0
C151 C 0.48747 0.97137 0.10425 0.0
C152 C 0.56029 0.07804 0.12176 0.0
C153 C 0.57947 0.06485 0.13281 0.0
C154 C 0.54353 0.06009 0.11163 0.0
C155 C 0.54579 0.02866 0.11234 0.0
C156 C 0.58225 0.03341 0.13318 0.0
C157 C 0.56541 0.01552 0.12312 0.0
C158 C 0.52546 0.00924 0.10321 0.0
C159 C 0.58576 0.05645 0.06961 0.0
C160 C 0.57053 0.07413 0.05861 0.0
C161 C 0.57 0.03582 0.07871 0.0
C162 C 0.53859 0.03288 0.07723 0.0
C163 C 0.53929 0.07013 0.0567 0.0
C164 C 0.52353 0.04973 0.0659 0.0
C165 C 0.52121 0.01186 0.08706 0.0
H166 H 0.44162 0.88124 0.07529 0.0
H167 H 0.47626 0.9127 0.09004 0.0
H168 H 0.41031 0.95926 0.05032 0.0
H169 H 0.44463 0.99095 0.06541 0.0
H170 H 0.39594 0.93645 0.12341 0.0
H171 H 0.4258 0.9656 0.10502 0.0
H172 H 0.47786 0.90714 0.14592 0.0
H173 H 0.50752 0.93516 0.12712 0.0
H174 H 0.55777 0.10221 0.12117 0.0
H175 H 0.52804 0.07073 0.10364 0.0
H176 H 0.59643 0.02253 0.1417 0.0
H177 H 0.5672 0.99131 0.12398 0.0
H178 H 0.60978 0.05895 0.07143 0.0
H179 H 0.58239 0.02229 0.08695 0.0
H180 H 0.52694 0.08282 0.04809 0.0
H181 H 0.49941 0.04748 0.06432 0.0
N182 N 0.50023 0.99405 0.08015 0.0
N183 N 0.50851 0.98906 0.11111 0.0
C184 C 0.05951 0.57361 0.88169 0.0
C185 C 0.07563 0.55947 0.8697 0.0
C186 C 0.04333 0.55658 0.89245 0.0
C187 C 0.04338 0.52506 0.89159 0.0
C188 C 0.07562 0.52792 0.86893 0.0
C189 C 0.05966 0.51096 0.87973 0.0
C190 C 0.02449 0.50655 0.90201 0.0
C191 C 0.09144 0.55289 0.93233 0.0
C192 C 0.07892 0.57186 0.94363 0.0
C193 C 0.07326 0.53286 0.92414 0.0
C194 C 0.04207 0.53186 0.92683 0.0
C195 C 0.04785 0.57024 0.94665 0.0
C196 C 0.02959 0.55037 0.93832 0.0
C197 C 0.02261 0.51069 0.91818 0.0
C198 C 0.94281 0.40693 0.93791 0.0
C199 C 0.92485 0.42203 0.94884 0.0
C200 C 0.96302 0.42285 0.92859 0.0
C201 C 0.96516 0.45426 0.92978 0.0
C202 C 0.92829 0.45327 0.95054 0.0
C203 C 0.94818 0.46917 0.94111 0.0
C204 C 0.98542 0.47191 0.91964 0.0
C205 C 0.92077 0.42666 0.8859 0.0
C206 C 0.93484 0.41027 0.87397 0.0
C207 C 0.9378 0.44463 0.89593 0.0
C208 C 0.9693 0.44598 0.89445 0.0
C209 C 0.96644 0.41142 0.87274 0.0
C210 C 0.98339 0.42898 0.88287 0.0
C211 C 0.98767 0.46754 0.90347 0.0
H212 H 0.05914 0.59784 0.88268 0.0
H213 H 0.03025 0.5681 0.9012 0.0
H214 H 0.08719 0.51624 0.85968 0.0
H215 H 0.0597 0.4867 0.87868 0.0
H216 H 0.11544 0.55311 0.93004 0.0
H217 H 0.08368 0.51799 0.91579 0.0
H218 H 0.03764 0.58458 0.95531 0.0
H219 H 0.00564 0.54969 0.94074 0.0
H220 H 0.94079 0.38291 0.93626 0.0
H221 H 0.97672 0.41061 0.92037 0.0
H222 H 0.91548 0.46556 0.95912 0.0
H223 H 0.94987 0.4933 0.94249 0.0
H224 H 0.89653 0.42616 0.88731 0.0
H225 H 0.92622 0.45817 0.90447 0.0
H226 H 0.97815 0.39979 0.86353 0.0
H227 H 0.00762 0.42997 0.88134 0.0
N228 N 0.00715 0.48501 0.89539 0.0
N229 N 0.00293 0.49341 0.92633 0.0
C230 C 0.41416 0.55565 0.13164 0.0
C231 C 0.4267 0.57445 0.12027 0.0
C232 C 0.43274 0.54066 0.14218 0.0
C233 C 0.46418 0.54421 0.14153 0.0
C234 C 0.45811 0.57843 0.11987 0.0
C235 C 0.47667 0.56325 0.13032 0.0
C236 C 0.4843 0.52591 0.15138 0.0
C237 C 0.43817 0.59067 0.18237 0.0
C238 C 0.41899 0.57777 0.19346 0.0
C239 C 0.45846 0.57294 0.17412 0.0
C240 C 0.4597 0.54179 0.17657 0.0
C241 C 0.42092 0.54674 0.19631 0.0
C242 C 0.44117 0.5289 0.18793 0.0
C243 C 0.48082 0.52292 0.16754 0.0
C244 C 0.58595 0.44176 0.1845 0.0
C245 C 0.57107 0.42269 0.19499 0.0
C246 C 0.56974 0.46295 0.1759 0.0
C247 C 0.53826 0.46506 0.17739 0.0
C248 C 0.53977 0.42598 0.19698 0.0
C249 C 0.52359 0.4469 0.18828 0.0
C250 C 0.52027 0.48629 0.16793 0.0
C251 C 0.56362 0.42552 0.13151 0.0
C252 C 0.57972 0.4411 0.12004 0.0
C253 C 0.54649 0.44128 0.14244 0.0
C254 C 0.54579 0.47285 0.14223 0.0
C255 C 0.57978 0.47262 0.12021 0.0
C256 C 0.56297 0.4883 0.13118 0.0
C257 C 0.52424 0.49006 0.15181 0.0
H258 H 0.39001 0.55224 0.13223 0.0
H259 H 0.42262 0.52556 0.15052 0.0
H260 H 0.46845 0.59243 0.11111 0.0
H261 H 0.50088 0.56602 0.12949 0.0
H262 H 0.43782 0.61464 0.18023 0.0
H263 H 0.47334 0.58367 0.16588 0.0
H264 H 0.40648 0.53622 0.20482 0.0
H265 H 0.44202 0.50497 0.19016 0.0
H266 H 0.61001 0.4399 0.18265 0.0
H267 H 0.58184 0.47746 0.16801 0.0
H268 H 0.52765 0.41228 0.20525 0.0
H269 H 0.49942 0.44847 0.18987 0.0
H270 H 0.56299 0.4012 0.13152 0.0
H271 H 0.53276 0.42881 0.15056 0.0
H272 H 0.59222 0.48516 0.11158 0.0
H273 H 0.56261 0.51262 0.13072 0.0
N274 N 0.50604 0.50967 0.14424 0.0
N275 N 0.49868 0.50295 0.17517 0.0
C276 C 0.43716 0.92252 0.3811 0.0
C277 C 0.4211 0.93665 0.36909 0.0
C278 C 0.45377 0.93953 0.39172 0.0
C279 C 0.45432 0.97101 0.39065 0.0
C280 C 0.42155 0.96817 0.36815 0.0
C281 C 0.43804 0.98512 0.37878 0.0
C282 C 0.47392 0.98936 0.40081 0.0
C283 C 0.40532 0.9469 0.43149 0.0
C284 C 0.41695 0.92819 0.44314 0.0
C285 C 0.42433 0.96582 0.42313 0.0
C286 C 0.45552 0.96588 0.42596 0.0
C287 C 0.44798 0.92897 0.44635 0.0
C288 C 0.46711 0.94767 0.43782 0.0
C289 C 0.4759 0.98576 0.41704 0.0
C290 C 0.55764 0.08845 0.4352 0.0
C291 C 0.57739 0.07377 0.44545 0.0
C292 C 0.53692 0.07206 0.42643 0.0
C293 C 0.53572 0.04063 0.42762 0.0
C294 C 0.57537 0.04238 0.44701 0.0
C295 C 0.55461 0.02601 0.43824 0.0
C296 C 0.51475 0.02288 0.41794 0.0
C297 C 0.58144 0.06169 0.38342 0.0
C298 C 0.56823 0.08049 0.37223 0.0
C299 C 0.56339 0.04505 0.39354 0.0
C300 C 0.53184 0.04702 0.39266 0.0
C301 C 0.53667 0.08301 0.3717 0.0
C302 C 0.51868 0.06629 0.38174 0.0
C303 C 0.51233 0.02677 0.40177 0.0
H304 H 0.43717 0.8983 0.3822 0.0
H305 H 0.46678 0.92801 0.40051 0.0
H306 H 0.40995 0.9798 0.35889 0.0
H307 H 0.43845 0.00934 0.37758 0.0
H308 H 0.38137 0.9473 0.42903 0.0
H309 H 0.41456 0.98057 0.41452 0.0
H310 H 0.45751 0.91481 0.4553 0.0
H311 H 0.49102 0.94764 0.44038 0.0
H312 H 0.55817 0.11265 0.43397 0.0
H313 H 0.52189 0.08395 0.41868 0.0
H314 H 0.5904 0.03034 0.45469 0.0
H315 H 0.55389 0.0018 0.43943 0.0
H316 H 0.6057 0.05937 0.38414 0.0
H317 H 0.57406 0.02983 0.40164 0.0
H318 H 0.52578 0.0969 0.36306 0.0
H319 H 0.49438 0.06787 0.38075 0.0
N320 N 0.49202 0.0099 0.3939 0.0
N321 N 0.49649 0.00247 0.42496 0.0
C322 C 0.07445 0.93194 0.63212 0.0
C323 C 0.06065 0.91587 0.62002 0.0
C324 C 0.05709 0.94888 0.64242 0.0
C325 C 0.02556 0.94984 0.64091 0.0
C326 C 0.02906 0.91658 0.61869 0.0
C327 C 0.01174 0.9335 0.62898 0.0
C328 C 0.00709 0.97007 0.65065 0.0
C329 C 0.04451 0.90126 0.68313 0.0
C330 C 0.06463 0.91277 0.69422 0.0
C331 C 0.02691 0.92057 0.67418 0.0
C332 C 0.02923 0.9518 0.67606 0.0
C333 C 0.06688 0.94404 0.69612 0.0
C334 C 0.04911 0.96338 0.6872 0.0
C335 C 0.01013 0.97234 0.66686 0.0
C336 C 0.91323 0.06446 0.6829 0.0
C337 C 0.92824 0.07826 0.69539 0.0
C338 C 0.92759 0.04251 0.67398 0.0
C339 C 0.95782 0.03479 0.67683 0.0
C340 C 0.95781 0.06887 0.69885 0.0
C341 C 0.97244 0.04771 0.68961 0.0
C342 C 0.9743 0.0125 0.66718 0.0
C343 C 0.94165 0.07924 0.6306 0.0
C344 C 0.92081 0.06655 0.62021 0.0
C345 C 0.95726 0.06106 0.64111 0.0
C346 C 0.95231 0.02993 0.64133 0.0
C347 C 0.9154 0.03548 0.62077 0.0
C348 C 0.93121 0.01733 0.63113 0.0
C349 C 0.97108 0.00989 0.65093 0.0
H350 H 0.09871 0.93176 0.63349 0.0
H351 H 0.06841 0.96195 0.65124 0.0
H352 H 0.01773 0.90492 0.60935 0.0
H353 H 0.98751 0.93422 0.62746 0.0
H354 H 0.04243 0.87728 0.68134 0.0
H355 H 0.01125 0.91107 0.6659 0.0
H356 H 0.08194 0.95352 0.7047 0.0
H357 H 0.05102 0.9874 0.68893 0.0
H358 H 0.89053 0.07087 0.67974 0.0
H359 H 0.91487 0.03172 0.66486 0.0
H360 H 0.9699 0.07788 0.70869 0.0
H361 H 0.99547 0.04167 0.69241 0.0
H362 H 0.9462 0.10314 0.63043 0.0
H363 H 0.97384 0.07115 0.64871 0.0
H364 H 0.89984 0.025 0.61276 0.0
H365 H 0.92736 0.9933 0.63101 0.0
N366 N 0.9875 0.98875 0.64338 0.0
N367 N 0.9938 0.99355 0.67445 0.0
In368 In 0.30383 0.69401 0.00249 0.0
O369 O 0.2929 0.74032 0.01244 0.0
O370 O 0.33303 0.73567 0.99934 0.0
C371 C 0.24589 0.67957 0.9966 0.0
C372 C 0.32138 0.66609 0.02879 0.0
C373 C 0.33429 0.67561 0.97713 0.0
O374 O 0.25785 0.70342 0.99164 0.0
O375 O 0.26289 0.66357 0.00491 0.0
O376 O 0.34677 0.67892 0.99014 0.0
O377 O 0.30659 0.68189 0.97686 0.0
C378 C 0.31652 0.75261 0.00738 0.0
O379 O 0.32306 0.65375 0.01567 0.0
O380 O 0.31039 0.69218 0.02865 0.0
In381 In 0.30225 0.80358 0.25306 0.0
O382 O 0.29136 0.75943 0.24068 0.0
O383 O 0.3289 0.76026 0.2559 0.0
C384 C 0.24389 0.81498 0.25977 0.0
C385 C 0.32828 0.82733 0.2276 0.0
C386 C 0.32661 0.82987 0.27832 0.0
O387 O 0.25813 0.79331 0.26571 0.0
O388 O 0.25879 0.8301 0.25012 0.0
O389 O 0.31901 0.84444 0.26643 0.0
O390 O 0.32216 0.80194 0.27745 0.0
C391 C 0.31332 0.7453 0.24644 0.0
O392 O 0.34311 0.81966 0.23941 0.0
O393 O 0.30021 0.82327 0.22865 0.0
In394 In 0.1915 0.804 0.50204 0.0
O395 O 0.15153 0.81755 0.51681 0.0
O396 O 0.19515 0.82245 0.52672 0.0
C397 C 0.16566 0.82907 0.47684 0.0
C398 C 0.18079 0.74513 0.50724 0.0
C399 C 0.24872 0.82094 0.49605 0.0
O400 O 0.16256 0.83953 0.4903 0.0
O401 O 0.18162 0.80568 0.47603 0.0
O402 O 0.23823 0.79591 0.49181 0.0
O403 O 0.23068 0.8369 0.50377 0.0
C404 C 0.167 0.82525 0.52841 0.0
O405 O 0.20267 0.75883 0.51332 0.0
O406 O 0.16519 0.76079 0.49811 0.0
In407 In 0.19255 0.6907 0.75292 0.0
O408 O 0.17248 0.65088 0.76582 0.0
O409 O 0.17563 0.6924 0.77786 0.0
C410 C 0.17041 0.6679 0.72629 0.0
C411 C 0.2505 0.67708 0.75956 0.0
C412 C 0.17677 0.74832 0.74756 0.0
O413 O 0.15488 0.67009 0.73847 0.0
O414 O 0.19721 0.67705 0.72756 0.0
O415 O 0.20065 0.73705 0.74213 0.0
O416 O 0.16178 0.73093 0.75609 0.0
C417 C 0.16799 0.66512 0.77824 0.0
O418 O 0.23824 0.70093 0.76434 0.0
O419 O 0.23393 0.66109 0.75107 0.0
In420 In 0.81073 0.19704 0.50137 0.0
O421 O 0.79846 0.24169 0.51309 0.0
O422 O 0.8361 0.24118 0.49811 0.0
C423 C 0.75543 0.17521 0.49486 0.0
C424 C 0.83114 0.16923 0.52719 0.0
C425 C 0.83995 0.18261 0.47502 0.0
O426 O 0.7624 0.20238 0.49263 0.0
O427 O 0.77616 0.15934 0.50063 0.0
O428 O 0.85276 0.18316 0.48807 0.0
O429 O 0.81241 0.1897 0.4752 0.0
C430 C 0.82006 0.25616 0.50729 0.0
O431 O 0.84322 0.16593 0.51411 0.0
O432 O 0.80835 0.18615 0.52725 0.0
In433 In 0.80828 0.31471 0.75149 0.0
O434 O 0.82577 0.35514 0.73813 0.0
O435 O 0.80707 0.31888 0.72523 0.0
C436 C 0.83394 0.32952 0.77887 0.0
C437 C 0.83198 0.26058 0.74448 0.0
C438 C 0.7497 0.32786 0.75618 0.0
O439 O 0.84535 0.33653 0.76603 0.0
O440 O 0.80969 0.31495 0.77796 0.0
O441 O 0.76024 0.30187 0.75851 0.0
O442 O 0.76849 0.34667 0.75111 0.0
C443 C 0.81974 0.34427 0.72498 0.0
O444 O 0.80394 0.26417 0.74622 0.0
O445 O 0.84757 0.28377 0.74677 0.0
In446 In 0.69155 0.30529 0.00314 0.0
O447 O 0.69921 0.25781 0.01258 0.0
O448 O 0.6586 0.26669 0.00039 0.0
C449 C 0.7502 0.32016 0.99962 0.0
C450 C 0.67242 0.33399 0.02885 0.0
C451 C 0.66583 0.32328 0.97635 0.0
O452 O 0.73956 0.29576 0.99456 0.0
O453 O 0.7316 0.33617 0.0069 0.0
O454 O 0.65313 0.32634 0.98931 0.0
O455 O 0.69132 0.31079 0.97687 0.0
C456 C 0.67414 0.24795 0.00786 0.0
O457 O 0.67339 0.34645 0.01575 0.0
O458 O 0.68133 0.30709 0.02904 0.0
In459 In 0.69197 0.19108 0.25206 0.0
O460 O 0.66967 0.15439 0.26632 0.0
O461 O 0.67963 0.1956 0.27763 0.0
C462 C 0.67019 0.16644 0.2258 0.0
C463 C 0.75 0.17651 0.25786 0.0
C464 C 0.67443 0.24798 0.24597 0.0
O465 O 0.65529 0.16758 0.2382 0.0
O466 O 0.69634 0.17749 0.22663 0.0
O467 O 0.69966 0.2379 0.24165 0.0
O468 O 0.65886 0.22978 0.25375 0.0
C469 C 0.66892 0.16942 0.27869 0.0
O470 O 0.7393 0.20197 0.26122 0.0
O471 O 0.73177 0.15911 0.25118 0.0
H472 H 0.1223 0.88852 0.32396 0.0
H473 H 0.07692 0.91085 0.28128 0.0
H474 H 0.15723 0.85656 0.30983 0.0
H475 H 0.1115 0.87807 0.26708 0.0
H476 H 0.21002 0.86145 0.24894 0.0
H477 H 0.16498 0.88273 0.26069 0.0
H478 H 0.16437 0.81122 0.29446 0.0
H479 H 0.20991 0.79018 0.28283 0.0
C480 C 0.11955 0.88622 0.31156 0.0
C481 C 0.09717 0.90249 0.30369 0.0
C482 C 0.13934 0.8676 0.30347 0.0
C483 C 0.13723 0.86485 0.2873 0.0
C484 C 0.11387 0.87997 0.27952 0.0
C485 C 0.09394 0.89854 0.28765 0.0
C486 C 0.19993 0.84992 0.25868 0.0
C487 C 0.2137 0.82438 0.26509 0.0
C488 C 0.17398 0.86202 0.26536 0.0
C489 C 0.16126 0.84884 0.27862 0.0
C490 C 0.17392 0.82214 0.2844 0.0
C491 C 0.19989 0.81 0.2777 0.0
H492 H 0.12493 0.60867 0.56955 0.0
H493 H 0.08506 0.57795 0.52681 0.0
H494 H 0.15261 0.64712 0.5555 0.0
H495 H 0.11343 0.61591 0.51257 0.0
H496 H 0.1303 0.71482 0.4986 0.0
H497 H 0.11065 0.66873 0.50967 0.0
H498 H 0.19115 0.65982 0.53754 0.0
H499 H 0.21029 0.7068 0.52679 0.0
C500 C 0.12267 0.60971 0.55708 0.0
C501 C 0.10267 0.59052 0.54929 0.0
C502 C 0.13864 0.63169 0.54899 0.0
C503 C 0.13517 0.63479 0.53288 0.0
C504 C 0.11621 0.61457 0.525 0.0
C505 C 0.10001 0.59278 0.53313 0.0
C506 C 0.14404 0.70276 0.50689 0.0
C507 C 0.17168 0.71457 0.51195 0.0
C508 C 0.13285 0.67617 0.5132 0.0
C509 C 0.14916 0.66061 0.52464 0.0
C510 C 0.17771 0.67153 0.52899 0.0
C511 C 0.18881 0.69831 0.52275 0.0
H512 H 0.42762 0.63506 0.80063 0.0
H513 H 0.36892 0.55796 0.80478 0.0
H514 H 0.38781 0.66201 0.78671 0.0
H515 H 0.32998 0.58447 0.79053 0.0
H516 H 0.28867 0.70402 0.78036 0.0
H517 H 0.33358 0.6817 0.79227 0.0
H518 H 0.32376 0.60366 0.76305 0.0
H519 H 0.27919 0.62574 0.75119 0.0
C520 C 0.4063 0.62387 0.79864 0.0
C521 C 0.40165 0.59417 0.8037 0.0
C522 C 0.38361 0.63929 0.79062 0.0
C523 C 0.35603 0.62515 0.78737 0.0
C524 C 0.35129 0.59567 0.79257 0.0
C525 C 0.3737 0.58045 0.8007 0.0
C526 C 0.29651 0.68238 0.77628 0.0
C527 C 0.28025 0.66648 0.76497 0.0
C528 C 0.3222 0.66966 0.78308 0.0
C529 C 0.33181 0.64079 0.77873 0.0
C530 C 0.31653 0.62574 0.76679 0.0
C531 C 0.29109 0.63847 0.75996 0.0
H532 H 0.38565 0.87419 0.07263 0.0
H533 H 0.41421 0.91765 0.03046 0.0
H534 H 0.35541 0.83896 0.05762 0.0
H535 H 0.38345 0.8826 0.01538 0.0
H536 H 0.36645 0.78327 0.99804 0.0
H537 H 0.38807 0.82787 0.01005 0.0
H538 H 0.31099 0.83433 0.04037 0.0
H539 H 0.28944 0.78948 0.02843 0.0
C540 C 0.38519 0.87636 0.06014 0.0
C541 C 0.40247 0.89846 0.0527 0.0
C542 C 0.36761 0.85643 0.05155 0.0
C543 C 0.36704 0.85803 0.03531 0.0
C544 C 0.38358 0.88075 0.02788 0.0
C545 C 0.40101 0.90089 0.0365 0.0
C546 C 0.35379 0.7946 0.00702 0.0
C547 C 0.32643 0.78271 0.01242 0.0
C548 C 0.36612 0.82024 0.01387 0.0
C549 C 0.35138 0.83438 0.02628 0.0
C550 C 0.32305 0.82362 0.03097 0.0
C551 C 0.31063 0.79807 0.02407 0.0
H552 H 0.12229 0.60893 0.93215 0.0
H553 H 0.08001 0.58161 0.97487 0.0
H554 H 0.15819 0.63935 0.94665 0.0
H555 H 0.11572 0.61258 0.98944 0.0
H556 H 0.21561 0.62963 0.00606 0.0
H557 H 0.17071 0.60779 0.99433 0.0
H558 H 0.16375 0.68392 0.96357 0.0
H559 H 0.20891 0.70569 0.97524 0.0
C560 C 0.12051 0.60971 0.94465 0.0
C561 C 0.09858 0.5927 0.9524 0.0
C562 C 0.14083 0.6274 0.95294 0.0
C563 C 0.13978 0.62833 0.96919 0.0
C564 C 0.11716 0.61213 0.97693 0.0
C565 C 0.09664 0.59459 0.9686 0.0
C566 C 0.20414 0.642 0.99701 0.0
C567 C 0.21593 0.66919 0.99145 0.0
C568 C 0.17833 0.62956 0.99034 0.0
C569 C 0.16389 0.64401 0.97792 0.0
C570 C 0.17467 0.6721 0.97299 0.0
C571 C 0.2004 0.68462 0.97972 0.0
H572 H 0.38249 0.62154 0.18187 0.0
H573 H 0.40725 0.57767 0.22458 0.0
H574 H 0.35205 0.65744 0.19622 0.0
H575 H 0.37595 0.61321 0.23901 0.0
H576 H 0.36063 0.71181 0.25672 0.0
H577 H 0.38127 0.66665 0.24491 0.0
H578 H 0.30756 0.66535 0.21221 0.0
H579 H 0.28718 0.71101 0.22389 0.0
C580 C 0.38109 0.61937 0.19433 0.0
C581 C 0.39757 0.59706 0.20212 0.0
C582 C 0.36333 0.63971 0.20255 0.0
C583 C 0.36163 0.63825 0.21878 0.0
C584 C 0.37704 0.61508 0.22652 0.0
C585 C 0.39476 0.59461 0.21827 0.0
C586 C 0.3485 0.70156 0.24721 0.0
C587 C 0.3225 0.71514 0.24111 0.0
C588 C 0.36024 0.67554 0.24048 0.0
C589 C 0.34623 0.66257 0.22751 0.0
C590 C 0.31913 0.6751 0.22204 0.0
C591 C 0.30736 0.70113 0.22879 0.0
H592 H 0.37359 0.89112 0.43165 0.0
H593 H 0.41399 0.92058 0.47451 0.0
H594 H 0.33687 0.86159 0.4461 0.0
H595 H 0.3773 0.8907 0.48904 0.0
H596 H 0.27672 0.87284 0.50466 0.0
H597 H 0.32139 0.89533 0.49298 0.0
H598 H 0.33192 0.81738 0.46372 0.0
H599 H 0.28713 0.79489 0.47537 0.0
C600 C 0.37473 0.89105 0.44417 0.0
C601 C 0.39646 0.90829 0.45197 0.0
C602 C 0.35392 0.87391 0.45245 0.0
C603 C 0.35423 0.87383 0.46871 0.0
C604 C 0.37647 0.89047 0.47652 0.0
C605 C 0.39753 0.90739 0.46822 0.0
C606 C 0.28891 0.86026 0.49594 0.0
C607 C 0.2783 0.83224 0.49083 0.0
C608 C 0.31457 0.87308 0.4893 0.0
C609 C 0.32998 0.85821 0.47734 0.0
C610 C 0.32026 0.82949 0.47279 0.0
C611 C 0.29473 0.81657 0.47952 0.0
H612 H 0.04543 0.86204 0.70874 0.0
H613 H 0.12461 0.91669 0.70163 0.0
H614 H 0.07523 0.82628 0.72353 0.0
H615 H 0.15452 0.88107 0.71684 0.0
H616 H 0.19841 0.78535 0.72489 0.0
H617 H 0.17278 0.82874 0.71362 0.0
H618 H 0.10248 0.82104 0.74794 0.0
H619 H 0.12774 0.77746 0.75899 0.0
C620 C 0.06922 0.86646 0.71041 0.0
C621 C 0.08273 0.89204 0.70393 0.0
C622 C 0.08625 0.84617 0.71905 0.0
C623 C 0.11723 0.85093 0.72143 0.0
C624 C 0.13072 0.87676 0.71515 0.0
C625 C 0.11358 0.89722 0.70655 0.0
C626 C 0.17783 0.79336 0.73022 0.0
C627 C 0.16486 0.77781 0.74268 0.0
C628 C 0.16318 0.81825 0.72379 0.0
C629 C 0.13534 0.82799 0.72974 0.0
C630 C 0.12357 0.81367 0.7429 0.0
C631 C 0.13814 0.78882 0.74928 0.0
H632 H 0.58246 0.42232 0.77872 0.0
H633 H 0.6202 0.38454 0.82045 0.0
H634 H 0.61845 0.3934 0.76322 0.0
H635 H 0.65623 0.35593 0.80506 0.0
H636 H 0.70964 0.29638 0.77388 0.0
H637 H 0.66293 0.3154 0.7853 0.0
H638 H 0.67435 0.39895 0.76063 0.0
H639 H 0.72079 0.37999 0.74923 0.0
C640 C 0.59805 0.40738 0.78453 0.0
C641 C 0.5988 0.40584 0.80076 0.0
C642 C 0.61871 0.39098 0.77569 0.0
C643 C 0.6402 0.37248 0.78293 0.0
C644 C 0.63976 0.36973 0.79913 0.0
C645 C 0.61936 0.38633 0.80795 0.0
C646 C 0.70175 0.31852 0.77063 0.0
C647 C 0.71897 0.33684 0.7608 0.0
C648 C 0.67513 0.32945 0.77722 0.0
C649 C 0.66513 0.35874 0.77395 0.0
C650 C 0.68131 0.37621 0.76328 0.0
C651 C 0.70803 0.36541 0.75682 0.0
H652 H 0.55084 0.13025 0.05086 0.0
H653 H 0.62736 0.07087 0.04596 0.0
H654 H 0.57746 0.16883 0.03648 0.0
H655 H 0.65433 0.11005 0.03178 0.0
H656 H 0.62051 0.22344 0.99936 0.0
H657 H 0.59662 0.17874 0.01 0.0
H658 H 0.67594 0.16121 0.03756 0.0
H659 H 0.70006 0.20595 0.02678 0.0
C660 C 0.57318 0.12522 0.04652 0.0
C661 C 0.58686 0.09734 0.04951 0.0
C662 C 0.58846 0.14739 0.03829 0.0
C663 C 0.6179 0.14238 0.03291 0.0
C664 C 0.63171 0.11457 0.03587 0.0
C665 C 0.61629 0.09221 0.04403 0.0
C666 C 0.63308 0.20978 0.00749 0.0
C667 C 0.66203 0.21834 0.01237 0.0
C668 C 0.61932 0.18428 0.01364 0.0
C669 C 0.63424 0.16676 0.02478 0.0
C670 C 0.66394 0.17425 0.02895 0.0
C671 C 0.67771 0.19988 0.02282 0.0
H672 H 0.89477 0.129 0.31856 0.0
H673 H 0.91605 0.0781 0.27746 0.0
H674 H 0.8543 0.15444 0.30472 0.0
H675 H 0.87594 0.10396 0.26346 0.0
H676 H 0.77558 0.12192 0.25286 0.0
H677 H 0.82221 0.10258 0.26369 0.0
H678 H 0.84001 0.18898 0.2846 0.0
H679 H 0.79258 0.20812 0.27406 0.0
C680 C 0.89118 0.12373 0.30646 0.0
C681 C 0.90839 0.10138 0.29913 0.0
C682 C 0.86804 0.13838 0.29849 0.0
C683 C 0.86169 0.13114 0.28298 0.0
C684 C 0.87981 0.10968 0.27548 0.0
C685 C 0.90281 0.09488 0.28348 0.0
C686 C 0.78963 0.13694 0.25959 0.0
C687 C 0.78032 0.16648 0.2627 0.0
C688 C 0.81652 0.12589 0.26573 0.0
C689 C 0.83487 0.14416 0.27509 0.0
C690 C 0.82618 0.17417 0.27764 0.0
C691 C 0.79915 0.18521 0.27151 0.0
H692 H 0.9128 0.42399 0.52954 0.0
H693 H 0.88452 0.38181 0.57212 0.0
H694 H 0.88216 0.38841 0.51483 0.0
H695 H 0.85489 0.3457 0.55747 0.0
H696 H 0.79236 0.29093 0.52914 0.0
H697 H 0.81184 0.33695 0.54084 0.0
H698 H 0.88727 0.33527 0.50924 0.0
H699 H 0.86746 0.28983 0.49738 0.0
C700 C 0.8997 0.40742 0.53577 0.0
C701 C 0.90134 0.40548 0.55198 0.0
C702 C 0.88235 0.38689 0.52734 0.0
C703 C 0.86622 0.36408 0.53496 0.0
C704 C 0.86676 0.36313 0.55122 0.0
C705 C 0.88408 0.38358 0.55962 0.0
C706 C 0.81271 0.30082 0.52448 0.0
C707 C 0.82857 0.28663 0.51246 0.0
C708 C 0.82399 0.32706 0.53124 0.0
C709 C 0.85133 0.33958 0.52611 0.0
C710 C 0.86604 0.32642 0.5134 0.0
C711 C 0.85477 0.30023 0.50665 0.0
H712 H 0.59542 0.06648 0.47559 0.0
H713 H 0.61235 0.1198 0.43475 0.0
H714 H 0.63591 0.09278 0.48911 0.0
H715 H 0.65263 0.14608 0.44826 0.0
H716 H 0.70919 0.20366 0.47997 0.0
H717 H 0.66346 0.18098 0.46941 0.0
H718 H 0.69088 0.09472 0.48747 0.0
H719 H 0.73624 0.11747 0.49822 0.0
C720 C 0.60776 0.08381 0.4695 0.0
C721 C 0.6007 0.09096 0.45407 0.0
C722 C 0.63092 0.0989 0.47725 0.0
C723 C 0.6475 0.12151 0.46976 0.0
C724 C 0.63997 0.12913 0.45446 0.0
C725 C 0.61687 0.11403 0.4467 0.0
C726 C 0.70522 0.17995 0.48186 0.0
C727 C 0.72635 0.1623 0.48985 0.0
C728 C 0.67914 0.16692 0.47573 0.0
C729 C 0.67363 0.13601 0.47751 0.0
C730 C 0.69427 0.11864 0.48602 0.0
C731 C 0.72035 0.13165 0.49212 0.0
H732 H 0.9556 0.12634 0.70962 0.0
H733 H 0.86771 0.087 0.70175 0.0
H734 H 0.93256 0.16706 0.72357 0.0
H735 H 0.84435 0.13001 0.7141 0.0
H736 H 0.80959 0.20318 0.74619 0.0
H737 H 0.83298 0.15736 0.73615 0.0
H738 H 0.90732 0.21031 0.71863 0.0
H739 H 0.88508 0.25502 0.7296 0.0
C740 C 0.93134 0.12613 0.71085 0.0
C741 C 0.91371 0.10304 0.70439 0.0
C742 C 0.91796 0.15011 0.71863 0.0
C743 C 0.88641 0.15245 0.71974 0.0
C744 C 0.86871 0.12909 0.71359 0.0
C745 C 0.88218 0.10457 0.70618 0.0
C746 C 0.83111 0.20472 0.74034 0.0
C747 C 0.84569 0.23251 0.7388 0.0
C748 C 0.84445 0.17855 0.73445 0.0
C749 C 0.87229 0.17984 0.7266 0.0
C750 C 0.88646 0.20795 0.72499 0.0
C751 C 0.87355 0.23379 0.73118 0.0
H752 H 0.86848 0.44127 0.95675 0.0
H753 H 0.92861 0.3654 0.96159 0.0
H754 H 0.83022 0.41473 0.97139 0.0
H755 H 0.88958 0.33842 0.97597 0.0
H756 H 0.79208 0.29363 0.98077 0.0
H757 H 0.83746 0.31705 0.97014 0.0
H758 H 0.82152 0.39566 0.99824 0.0
H759 H 0.77625 0.37247 0.00877 0.0
C760 C 0.87377 0.4191 0.96112 0.0
C761 C 0.9018 0.40562 0.95806 0.0
C762 C 0.85175 0.40385 0.96951 0.0
C763 C 0.85702 0.3746 0.97494 0.0
C764 C 0.88492 0.36093 0.97187 0.0
C765 C 0.90717 0.37635 0.96358 0.0
C766 C 0.79868 0.31562 0.98492 0.0
C767 C 0.78044 0.33138 0.99545 0.0
C768 C 0.82467 0.32899 0.97886 0.0
C769 C 0.83272 0.35835 0.9832 0.0
C770 C 0.81555 0.37321 0.9945 0.0
C771 C 0.78972 0.35985 0.00058 0.0
H772 H 0.62802 0.42536 0.20768 0.0
H773 H 0.55216 0.36567 0.20136 0.0
H774 H 0.65505 0.38551 0.22141 0.0
H775 H 0.57879 0.32649 0.21533 0.0
H776 H 0.70086 0.28938 0.22683 0.0
H777 H 0.67708 0.33391 0.21552 0.0
H778 H 0.59672 0.31683 0.24225 0.0
H779 H 0.62025 0.27246 0.25345 0.0
C780 C 0.61712 0.4038 0.20917 0.0
C781 C 0.58777 0.39885 0.2035 0.0
C782 C 0.63258 0.38106 0.21708 0.0
C783 C 0.61889 0.35304 0.21959 0.0
C784 C 0.58967 0.34808 0.21387 0.0
C785 C 0.57437 0.37061 0.20589 0.0
C786 C 0.67832 0.29548 0.23048 0.0
C787 C 0.6623 0.27729 0.2409 0.0
C788 C 0.66475 0.32099 0.22403 0.0
C789 C 0.6349 0.32857 0.22785 0.0
C790 C 0.61956 0.31122 0.23889 0.0
C791 C 0.63311 0.2859 0.24536 0.0
H792 H 0.09818 0.88301 0.38575 0.0
H793 H 0.09345 0.96218 0.41464 0.0
H794 H 0.11737 0.85427 0.40764 0.0
H795 H 0.11468 0.9342 0.43601 0.0
H796 H 0.1218 0.87163 0.47641 0.0
H797 H 0.10096 0.89751 0.45407 0.0
H798 H 0.15976 0.84658 0.42398 0.0
H799 H 0.17956 0.81967 0.44642 0.0
C800 C 0.10137 0.89436 0.39671 0.0
C801 C 0.09419 0.92498 0.39836 0.0
C802 C 0.11276 0.87795 0.40923 0.0
C803 C 0.11745 0.89181 0.42367 0.0
C804 C 0.11084 0.92255 0.42519 0.0
C805 C 0.09915 0.93881 0.41278 0.0
C806 C 0.13013 0.86586 0.46501 0.0
C807 C 0.15235 0.84374 0.46314 0.0
C808 C 0.11837 0.88086 0.45218 0.0
C809 C 0.12892 0.87447 0.43718 0.0
C810 C 0.15085 0.85191 0.43532 0.0
C811 C 0.16233 0.83658 0.44817 0.0
H812 H 0.05928 0.61664 0.64757 0.0
H813 H 0.13775 0.55944 0.64493 0.0
H814 H 0.08177 0.64348 0.66933 0.0
H815 H 0.15996 0.58586 0.66693 0.0
H816 H 0.20066 0.65661 0.69938 0.0
H817 H 0.18037 0.63519 0.67548 0.0
H818 H 0.0923 0.62967 0.69656 0.0
H819 H 0.11248 0.65121 0.72035 0.0
C820 C 0.08154 0.61012 0.65148 0.0
C821 C 0.09672 0.58587 0.64457 0.0
C822 C 0.09426 0.62527 0.66404 0.0
C823 C 0.1225 0.6166 0.66992 0.0
C824 C 0.13823 0.59316 0.66261 0.0
C825 C 0.12543 0.57789 0.6501 0.0
C826 C 0.17695 0.65091 0.69887 0.0
C827 C 0.15816 0.65549 0.71174 0.0
C828 C 0.16537 0.63857 0.68522 0.0
C829 C 0.13473 0.63082 0.68414 0.0
C830 C 0.11591 0.63579 0.69696 0.0
C831 C 0.12752 0.64792 0.71063 0.0
H832 H 0.39613 0.62052 0.88514 0.0
H833 H 0.45639 0.57823 0.91774 0.0
H834 H 0.36975 0.64517 0.9065 0.0
H835 H 0.42973 0.60189 0.93906 0.0
H836 H 0.39494 0.66874 0.97363 0.0
H837 H 0.42172 0.64846 0.95136 0.0
H838 H 0.33687 0.6355 0.92762 0.0
H839 H 0.31031 0.657 0.94969 0.0
C840 C 0.40358 0.6164 0.89688 0.0
C841 C 0.42844 0.59771 0.89979 0.0
C842 C 0.38845 0.63041 0.90913 0.0
C843 C 0.39769 0.6257 0.92454 0.0
C844 C 0.4224 0.60669 0.92736 0.0
C845 C 0.43765 0.593 0.91514 0.0
C846 C 0.38207 0.66173 0.96361 0.0
C847 C 0.35057 0.66435 0.96341 0.0
C848 C 0.39738 0.6499 0.95086 0.0
C849 C 0.38148 0.64005 0.9377 0.0
C850 C 0.34992 0.64318 0.93745 0.0
C851 C 0.33466 0.65533 0.95014 0.0
H852 H 0.38304 0.93907 0.15045 0.0
H853 H 0.44547 0.86456 0.1494 0.0
H854 H 0.35614 0.91551 0.17183 0.0
H855 H 0.41881 0.84132 0.17096 0.0
H856 H 0.38837 0.83276 0.22185 0.0
H857 H 0.41248 0.85348 0.19887 0.0
H858 H 0.32506 0.87065 0.17871 0.0
H859 H 0.30085 0.84999 0.20179 0.0
C860 C 0.39074 0.91744 0.15459 0.0
C861 C 0.41655 0.9038 0.14825 0.0
C862 C 0.37536 0.90399 0.16688 0.0
C863 C 0.38553 0.8767 0.17316 0.0
C864 C 0.41076 0.86262 0.16654 0.0
C865 C 0.42604 0.87596 0.1542 0.0
C866 C 0.37429 0.84092 0.21251 0.0
C867 C 0.34274 0.83981 0.21362 0.0
C868 C 0.3881 0.85259 0.19931 0.0
C869 C 0.37065 0.86359 0.18696 0.0
C870 C 0.33907 0.86252 0.18808 0.0
C871 C 0.32524 0.85061 0.20126 0.0
H872 H 0.05666 0.61175 0.85598 0.0
H873 H 0.12982 0.54758 0.85576 0.0
H874 H 0.08026 0.63861 0.83458 0.0
H875 H 0.15283 0.57404 0.83409 0.0
H876 H 0.15854 0.60548 0.7831 0.0
H877 H 0.1377 0.58148 0.8061 0.0
H878 H 0.12763 0.66824 0.82783 0.0
H879 H 0.14865 0.69235 0.80478 0.0
C880 C 0.07798 0.60361 0.85156 0.0
C881 C 0.09121 0.57734 0.85755 0.0
C882 C 0.09142 0.61896 0.83926 0.0
C883 C 0.1182 0.60823 0.8326 0.0
C884 C 0.1319 0.58251 0.83885 0.0
C885 C 0.11866 0.56734 0.85123 0.0
C886 C 0.1519 0.61943 0.79278 0.0
C887 C 0.1552 0.65077 0.79216 0.0
C888 C 0.14017 0.60568 0.80598 0.0
C889 C 0.13118 0.62301 0.81876 0.0
C890 C 0.13426 0.65439 0.81811 0.0
C891 C 0.14636 0.66814 0.80495 0.0
H892 H 0.42872 0.63223 0.10973 0.0
H893 H 0.38158 0.54824 0.10355 0.0
H894 H 0.40026 0.65399 0.08829 0.0
H895 H 0.35274 0.57015 0.08225 0.0
H896 H 0.34308 0.60911 0.03229 0.0
H897 H 0.36553 0.58704 0.05547 0.0
H898 H 0.3482 0.66904 0.08066 0.0
H899 H 0.32588 0.69116 0.05747 0.0
C900 C 0.41208 0.61854 0.10386 0.0
C901 C 0.40743 0.58853 0.10827 0.0
C902 C 0.39562 0.63104 0.09168 0.0
C903 C 0.37434 0.61373 0.08357 0.0
C904 C 0.36918 0.58394 0.08821 0.0
C905 C 0.38547 0.5715 0.10049 0.0
C906 C 0.34382 0.6223 0.04282 0.0
C907 C 0.33285 0.65188 0.04306 0.0
C908 C 0.35652 0.60962 0.05611 0.0
C909 C 0.35869 0.62637 0.06986 0.0
C910 C 0.3471 0.65572 0.07018 0.0
C911 C 0.3342 0.66831 0.05693 0.0
H912 H 0.43984 0.88454 0.35521 0.0
H913 H 0.36644 0.94837 0.3556 0.0
H914 H 0.41574 0.8576 0.33397 0.0
H915 H 0.34265 0.92164 0.3342 0.0
H916 H 0.33322 0.88981 0.28361 0.0
H917 H 0.35459 0.91415 0.3064 0.0
H918 H 0.37024 0.82736 0.32722 0.0
H919 H 0.34896 0.80293 0.30433 0.0
C920 C 0.41833 0.89255 0.35095 0.0
C921 C 0.40517 0.91875 0.35706 0.0
C922 C 0.40457 0.87714 0.33875 0.0
C923 C 0.37744 0.88766 0.33233 0.0
C924 C 0.36383 0.91331 0.33872 0.0
C925 C 0.37748 0.92862 0.35097 0.0
C926 C 0.34119 0.87592 0.29306 0.0
C927 C 0.33947 0.84448 0.29219 0.0
C928 C 0.35323 0.88987 0.30615 0.0
C929 C 0.36399 0.87266 0.31863 0.0
C930 C 0.36231 0.84118 0.31774 0.0
C931 C 0.35005 0.82722 0.30467 0.0
H932 H 0.11296 0.93476 0.60636 0.0
H933 H 0.04975 0.86097 0.60688 0.0
H934 H 0.14032 0.91089 0.58521 0.0
H935 H 0.07704 0.83721 0.58566 0.0
H936 H 0.10718 0.82919 0.53484 0.0
H937 H 0.08348 0.84899 0.55809 0.0
H938 H 0.17122 0.86678 0.57776 0.0
H939 H 0.19506 0.84714 0.5543 0.0
C940 C 0.10523 0.91317 0.60217 0.0
C941 C 0.07903 0.89987 0.60824 0.0
C942 C 0.12091 0.89951 0.59004 0.0
C943 C 0.11068 0.8723 0.58368 0.0
C944 C 0.08515 0.85845 0.59013 0.0
C945 C 0.06952 0.87207 0.60228 0.0
C946 C 0.12145 0.83723 0.54414 0.0
C947 C 0.15297 0.83669 0.54274 0.0
C948 C 0.10786 0.84836 0.55751 0.0
C949 C 0.12548 0.85932 0.5698 0.0
C950 C 0.15706 0.85866 0.56844 0.0
C951 C 0.17069 0.84734 0.55505 0.0
H952 H 0.55102 0.3837 0.90044 0.0
H953 H 0.63613 0.42938 0.89474 0.0
H954 H 0.57229 0.3544 0.92171 0.0
H955 H 0.65727 0.40043 0.91616 0.0
H956 H 0.69228 0.32634 0.9479 0.0
H957 H 0.67133 0.34826 0.92428 0.0
H958 H 0.58856 0.36802 0.94852 0.0
H959 H 0.60942 0.34608 0.97208 0.0
C960 C 0.57441 0.38711 0.90357 0.0
C961 C 0.59191 0.40889 0.89597 0.0
C962 C 0.58648 0.37056 0.91583 0.0
C963 C 0.61637 0.37527 0.92065 0.0
C964 C 0.63423 0.39617 0.91264 0.0
C965 C 0.62208 0.4129 0.90047 0.0
C966 C 0.66951 0.33513 0.94812 0.0
C967 C 0.6525 0.33462 0.96183 0.0
C968 C 0.6576 0.34777 0.93464 0.0
C969 C 0.62834 0.35987 0.93457 0.0
C970 C 0.61105 0.35857 0.94817 0.0
C971 C 0.62305 0.34618 0.96168 0.0
H972 H 0.55568 0.11141 0.14931 0.0
H973 H 0.63737 0.05982 0.14353 0.0
H974 H 0.57861 0.13836 0.17088 0.0
H975 H 0.66005 0.08628 0.1654 0.0
H976 H 0.69897 0.15797 0.19815 0.0
H977 H 0.67808 0.13619 0.17446 0.0
H978 H 0.5926 0.12363 0.19746 0.0
H979 H 0.61332 0.14554 0.22101 0.0
C980 C 0.5787 0.10616 0.15249 0.0
C981 C 0.59468 0.08341 0.14475 0.0
C982 C 0.5917 0.12135 0.16496 0.0
C983 C 0.62101 0.11422 0.16994 0.0
C984 C 0.63747 0.09237 0.1618 0.0
C985 C 0.62441 0.07706 0.14936 0.0
C986 C 0.6757 0.1506 0.19811 0.0
C987 C 0.65778 0.1534 0.21143 0.0
C988 C 0.66379 0.13806 0.18457 0.0
C989 C 0.63367 0.12832 0.18408 0.0
C990 C 0.61575 0.13135 0.1974 0.0
C991 C 0.62769 0.14369 0.21092 0.0
H992 H 0.96049 0.08958 0.41374 0.0
H993 H 0.89939 0.13215 0.38165 0.0
H994 H 0.93428 0.11279 0.43528 0.0
H995 H 0.87345 0.1565 0.40329 0.0
H996 H 0.81509 0.16653 0.44732 0.0
H997 H 0.84109 0.14671 0.42463 0.0
H998 H 0.92661 0.15883 0.44787 0.0
H999 H 0.90043 0.17724 0.47071 0.0
C1000 C 0.94169 0.10438 0.4113 0.0
C1001 C 0.93213 0.1093 0.39602 0.0
C1002 C 0.9267 0.11783 0.42366 0.0
C1003 C 0.9019 0.13686 0.42107 0.0
C1004 C 0.89228 0.14177 0.40574 0.0
C1005 C 0.90715 0.12796 0.39334 0.0
C1006 C 0.83946 0.16509 0.4475 0.0
C1007 C 0.85575 0.17314 0.46081 0.0
C1008 C 0.85441 0.15389 0.43447 0.0
C1009 C 0.88599 0.15085 0.43443 0.0
C1010 C 0.90224 0.16011 0.44759 0.0
C1011 C 0.88728 0.17088 0.46067 0.0
H1012 H 0.92371 0.37559 0.6437 0.0
H1013 H 0.88056 0.46164 0.65003 0.0
H1014 H 0.89362 0.35475 0.66478 0.0
H1015 H 0.85024 0.44073 0.67107 0.0
H1016 H 0.81885 0.32062 0.69587 0.0
H1017 H 0.84012 0.34255 0.67236 0.0
H1018 H 0.86378 0.42257 0.69787 0.0
H1019 H 0.84257 0.40068 0.72136 0.0
C1020 C 0.90754 0.38992 0.64951 0.0
C1021 C 0.90453 0.42023 0.64529 0.0
C1022 C 0.89016 0.37796 0.66147 0.0
C1023 C 0.86964 0.39616 0.66957 0.0
C1024 C 0.86602 0.42626 0.66508 0.0
C1025 C 0.88318 0.43814 0.65298 0.0
C1026 C 0.82819 0.34307 0.69639 0.0
C1027 C 0.82921 0.3589 0.71045 0.0
C1028 C 0.84048 0.35553 0.68297 0.0
C1029 C 0.85371 0.38419 0.68332 0.0
C1030 C 0.8535 0.40055 0.69723 0.0
C1031 C 0.84149 0.38796 0.71069 0.0
H1032 H 0.56297 0.13791 0.3612 0.0
H1033 H 0.61531 0.05672 0.35601 0.0
H1034 H 0.58952 0.16015 0.33926 0.0
H1035 H 0.64234 0.07921 0.33437 0.0
H1036 H 0.64889 0.11258 0.28394 0.0
H1037 H 0.62744 0.09232 0.30768 0.0
H1038 H 0.63947 0.17821 0.33011 0.0
H1039 H 0.6608 0.19863 0.30622 0.0
C1040 C 0.5804 0.12498 0.35549 0.0
C1041 C 0.58693 0.09551 0.36028 0.0
C1042 C 0.59576 0.13779 0.34302 0.0
C1043 C 0.61784 0.12132 0.33502 0.0
C1044 C 0.62517 0.0923 0.34019 0.0
C1045 C 0.60993 0.07956 0.3527 0.0
C1046 C 0.64705 0.12713 0.29394 0.0
C1047 C 0.65645 0.1572 0.29322 0.0
C1048 C 0.63497 0.11546 0.30758 0.0
C1049 C 0.63189 0.13364 0.32079 0.0
C1050 C 0.6414 0.16373 0.32009 0.0
C1051 C 0.65368 0.17537 0.30644 0.0
H1052 H 0.86162 0.06656 0.61129 0.0
H1053 H 0.94757 0.10771 0.60135 0.0
H1054 H 0.83924 0.09283 0.58923 0.0
H1055 H 0.92514 0.13419 0.57943 0.0
H1056 H 0.88419 0.13913 0.53031 0.0
H1057 H 0.90513 0.11669 0.55371 0.0
H1058 H 0.8268 0.14511 0.57949 0.0
H1059 H 0.80578 0.1677 0.55601 0.0
C1060 C 0.87561 0.08147 0.60448 0.0
C1061 C 0.90635 0.08503 0.608 0.0
C1062 C 0.86278 0.09662 0.59193 0.0
C1063 C 0.88052 0.11536 0.58256 0.0
C1064 C 0.91102 0.11962 0.58637 0.0
C1065 C 0.92377 0.10472 0.599 0.0
C1066 C 0.87141 0.14057 0.54096 0.0
C1067 C 0.84334 0.15513 0.54134 0.0
C1068 C 0.88351 0.12793 0.55438 0.0
C1069 C 0.86767 0.12931 0.56844 0.0
C1070 C 0.83943 0.14361 0.56879 0.0
C1071 C 0.82746 0.15658 0.55538 0.0
H1072 H 0.88014 0.42631 0.8615 0.0
H1073 H 0.94879 0.35742 0.85914 0.0
H1074 H 0.85413 0.40317 0.83968 0.0
H1075 H 0.92343 0.33549 0.83677 0.0
H1076 H 0.89221 0.34539 0.78423 0.0
H1077 H 0.91475 0.36112 0.80877 0.0
H1078 H 0.829 0.34975 0.83156 0.0
H1079 H 0.80651 0.33321 0.80705 0.0
C1080 C 0.88944 0.40595 0.85659 0.0
C1081 C 0.91685 0.39399 0.86204 0.0
C1082 C 0.87457 0.39284 0.84402 0.0
C1083 C 0.88703 0.36782 0.83651 0.0
C1084 C 0.91364 0.35504 0.84229 0.0
C1085 C 0.9282 0.36776 0.85504 0.0
C1086 C 0.87825 0.34604 0.7945 0.0
C1087 C 0.84766 0.33813 0.79377 0.0
C1088 C 0.89116 0.35485 0.80852 0.0
C1089 C 0.87356 0.35652 0.82199 0.0
C1090 C 0.84297 0.3486 0.8213 0.0
C1091 C 0.83019 0.33912 0.80732 0.0
H1092 H 0.61859 0.39331 0.12159 0.0
H1093 H 0.57333 0.45208 0.08939 0.0
H1094 H 0.64312 0.3675 0.09997 0.0
H1095 H 0.59664 0.42588 0.06785 0.0
H1096 H 0.6631 0.39392 0.03258 0.0
H1097 H 0.64281 0.41963 0.05513 0.0
H1098 H 0.63446 0.33453 0.07885 0.0
H1099 H 0.65617 0.30908 0.05647 0.0
C1100 C 0.61378 0.40052 0.10987 0.0
C1101 C 0.59439 0.42486 0.10713 0.0
C1102 C 0.62769 0.38572 0.09748 0.0
C1103 C 0.62211 0.39474 0.08212 0.0
C1104 C 0.60219 0.41879 0.07949 0.0
C1105 C 0.58868 0.43375 0.09183 0.0
C1106 C 0.65708 0.38077 0.04266 0.0
C1107 C 0.66107 0.34952 0.04276 0.0
C1108 C 0.64524 0.39545 0.05556 0.0
C1109 C 0.63661 0.37917 0.0688 0.0
C1110 C 0.64113 0.34788 0.06896 0.0
C1111 C 0.65341 0.33324 0.0561 0.0
loop_
_geom_bond_atom_site_label_1
_geom_bond_atom_site_label_2
_geom_bond_distance
_geom_bond_site_symmetry_2
_ccdc_geom_bond_type
C0 C1 1.384 . S
C0 C2 1.384 . S
C0 H28 0.931 . S
C1 C0 1.384 . S
C1 C4 1.382 . S
C2 C0 1.384 . S
C2 C3 1.381 . S
C2 H29 0.930 . S
C3 C2 1.381 . S
C3 C5 1.381 . S
C3 C6 1.487 . S
C4 C1 1.382 . S
C4 C5 1.387 . S
C4 H30 0.930 . S
C5 C3 1.381 . S
C5 C4 1.387 . S
C5 H31 0.931 1_565 S
C6 C3 1.487 . S
C6 C13 1.399 . S
C6 N44 1.343 1_565 S
C7 C8 1.384 . S
C7 C9 1.384 . S
C7 H32 0.931 . S
C8 C7 1.384 . S
C8 C11 1.382 . S
C9 C7 1.384 . S
C9 C10 1.381 . S
C9 H33 0.930 . S
C10 C9 1.381 . S
C10 C12 1.381 . S
C10 C13 1.487 . S
C11 C8 1.382 . S
C11 C12 1.387 . S
C11 H34 0.930 . S
C12 C10 1.381 . S
C12 C11 1.387 . S
C12 H35 0.931 . S
C13 C6 1.399 . S
C13 C10 1.487 . S
C13 N45 1.332 1_455 S
C14 C15 1.384 . S
C14 C16 1.384 . S
C14 H36 0.931 . S
C15 C14 1.384 . S
C15 C18 1.382 . S
C16 C14 1.384 . S
C16 C17 1.381 . S
C16 H37 0.930 . S
C17 C16 1.381 . S
C17 C19 1.381 . S
C17 C20 1.487 . S
C18 C15 1.382 . S
C18 C19 1.387 . S
C18 H38 0.930 . S
C19 C17 1.381 . S
C19 C18 1.387 . S
C19 H39 0.931 1_545 S
C20 C17 1.487 . S
C20 C27 1.399 . S
C20 N45 1.353 1_545 S
C21 C22 1.384 . S
C21 C23 1.384 . S
C21 H40 0.931 . S
C22 C21 1.384 . S
C22 C25 1.382 . S
C23 C21 1.384 . S
C23 C24 1.381 . S
C23 H41 0.930 . S
C24 C23 1.381 . S
C24 C26 1.381 . S
C24 C27 1.487 . S
C25 C22 1.382 . S
C25 C26 1.387 . S
C25 H42 0.930 . S
C26 C24 1.381 . S
C26 C25 1.387 . S
C26 H43 0.931 . S
C27 C20 1.399 . S
C27 C24 1.487 . S
C27 N44 1.343 1_655 S
H28 C0 0.931 . S
H29 C2 0.930 . S
H30 C4 0.930 . S
H31 C5 0.931 1_545 S
H32 C7 0.931 . S
H33 C9 0.930 . S
H34 C11 0.930 . S
H35 C12 0.931 . S
H36 C14 0.931 . S
H37 C16 0.930 . S
H38 C18 0.930 . S
H39 C19 0.931 1_565 S
H40 C21 0.931 . S
H41 C23 0.930 . S
H42 C25 0.930 . S
H43 C26 0.931 . S
N44 C6 1.343 1_545 S
N44 C27 1.343 1_455 S
N45 C13 1.332 1_655 S
N45 C20 1.353 1_565 S
C46 C47 1.384 . S
C46 C48 1.384 . S
C46 H74 0.931 . S
C47 C46 1.384 . S
C47 C50 1.382 . S
C48 C46 1.384 . S
C48 C49 1.381 . S
C48 H75 0.930 . S
C49 C48 1.381 . S
C49 C51 1.381 . S
C49 C52 1.487 . S
C50 C47 1.382 . S
C50 C51 1.387 . S
C50 H76 0.930 . S
C51 C49 1.381 . S
C51 C50 1.387 . S
C51 H77 0.931 1_655 S
C52 C49 1.487 . S
C52 C59 1.399 . S
C52 N90 1.343 1_655 S
C53 C54 1.384 . S
C53 C55 1.384 . S
C53 H78 0.931 . S
C54 C53 1.384 . S
C54 C57 1.382 . S
C55 C53 1.384 . S
C55 C56 1.381 . S
C55 H79 0.930 . S
C56 C55 1.381 . S
C56 C58 1.381 . S
C56 C59 1.487 . S
C57 C54 1.382 . S
C57 C58 1.387 . S
C57 H80 0.930 . S
C58 C56 1.381 . S
C58 C57 1.387 . S
C58 H81 0.931 . S
C59 C52 1.399 . S
C59 C56 1.487 . S
C59 N91 1.343 . S
C60 C61 1.384 . S
C60 C62 1.384 . S
C60 H82 0.931 . S
C61 C60 1.384 . S
C61 C64 1.382 . S
C62 C60 1.384 . S
C62 C63 1.381 . S
C62 H83 0.930 . S
C63 C62 1.381 . S
C63 C65 1.381 . S
C63 C66 1.487 . S
C64 C61 1.382 . S
C64 C65 1.387 . S
C64 H84 0.930 . S
C65 C63 1.381 . S
C65 C64 1.387 . S
C65 H85 0.931 1_455 S
C66 C63 1.487 . S
C66 C73 1.399 . S
C66 N91 1.343 1_455 S
C67 C68 1.384 . S
C67 C69 1.384 . S
C67 H86 0.931 . S
C68 C67 1.384 . S
C68 C71 1.382 . S
C69 C67 1.384 . S
C69 C70 1.381 . S
C69 H87 0.930 . S
C70 C69 1.381 . S
C70 C72 1.381 . S
C70 C73 1.487 . S
C71 C68 1.382 . S
C71 C72 1.387 . S
C71 H88 0.930 . S
C72 C70 1.381 . S
C72 C71 1.387 . S
C72 H89 0.931 . S
C73 C66 1.399 . S
C73 C70 1.487 . S
C73 N90 1.343 . S
H74 C46 0.931 . S
H75 C48 0.930 . S
H76 C50 0.930 . S
H77 C51 0.931 1_455 S
H78 C53 0.931 . S
H79 C55 0.930 . S
H80 C57 0.930 . S
H81 C58 0.931 . S
H82 C60 0.931 . S
H83 C62 0.930 . S
H84 C64 0.930 . S
H85 C65 0.931 1_655 S
H86 C67 0.931 . S
H87 C69 0.930 . S
H88 C71 0.930 . S
H89 C72 0.931 . S
N90 C52 1.343 1_455 S
N90 C73 1.343 . S
N91 C59 1.343 . S
N91 C66 1.343 1_655 S
C92 C93 1.384 . S
C92 C94 1.384 . S
C92 H120 0.931 . S
C93 C92 1.384 . S
C93 C96 1.382 . S
C94 C92 1.384 . S
C94 C95 1.381 . S
C94 H121 0.930 . S
C95 C94 1.381 . S
C95 C97 1.381 . S
C95 C98 1.487 . S
C96 C93 1.382 . S
C96 C97 1.387 . S
C96 H122 0.930 . S
C97 C95 1.381 . S
C97 C96 1.387 . S
C97 H123 0.931 . S
C98 C95 1.487 . S
C98 C105 1.399 . S
C98 N136 1.343 . S
C99 C100 1.384 . S
C99 C101 1.384 . S
C99 H124 0.931 . S
C100 C99 1.384 . S
C100 C103 1.382 . S
C101 C99 1.384 . S
C101 C102 1.381 . S
C101 H125 0.930 . S
C102 C101 1.381 . S
C102 C104 1.381 . S
C102 C105 1.487 . S
C103 C100 1.382 . S
C103 C104 1.387 . S
C103 H126 0.930 . S
C104 C102 1.381 . S
C104 C103 1.387 . S
C104 H127 0.931 . S
C105 C98 1.399 . S
C105 C102 1.487 . S
C105 N137 1.343 . S
C106 C107 1.384 . S
C106 C108 1.384 . S
C106 H128 0.931 . S
C107 C106 1.384 . S
C107 C110 1.382 . S
C108 C106 1.384 . S
C108 C109 1.381 . S
C108 H129 0.930 . S
C109 C108 1.381 . S
C109 C111 1.381 . S
C109 C112 1.487 . S
C110 C107 1.382 . S
C110 C111 1.387 . S
C110 H130 0.930 . S
C111 C109 1.381 . S
C111 C110 1.387 . S
C111 H131 0.931 . S
C112 C109 1.487 . S
C112 C119 1.399 . S
C112 N137 1.343 . S
C113 C114 1.384 . S
C113 C115 1.384 . S
C113 H132 0.931 . S
C114 C113 1.384 . S
C114 C117 1.382 . S
C115 C113 1.384 . S
C115 C116 1.381 . S
C115 H133 0.930 . S
C116 C115 1.381 . S
C116 C118 1.381 . S
C116 C119 1.487 . S
C117 C114 1.382 . S
C117 C118 1.387 . S
C117 H134 0.930 . S
C118 C116 1.381 . S
C118 C117 1.387 . S
C118 H135 0.931 . S
C119 C112 1.399 . S
C119 C116 1.487 . S
C119 N136 1.343 . S
H120 C92 0.931 . S
H121 C94 0.930 . S
H122 C96 0.930 . S
H123 C97 0.931 . S
H124 C99 0.931 . S
H125 C101 0.930 . S
H126 C103 0.930 . S
H127 C104 0.931 . S
H128 C106 0.931 . S
H129 C108 0.930 . S
H130 C110 0.930 . S
H131 C111 0.931 . S
H132 C113 0.931 . S
H133 C115 0.930 . S
H134 C117 0.930 . S
H135 C118 0.931 . S
N136 C98 1.343 . S
N136 C119 1.343 . S
N137 C105 1.343 . S
N137 C112 1.343 . S
C138 C139 1.384 . S
C138 C140 1.384 . S
C138 H166 0.931 . S
C139 C138 1.384 . S
C139 C142 1.382 . S
C140 C138 1.384 . S
C140 C141 1.381 . S
C140 H167 0.930 . S
C141 C140 1.381 . S
C141 C143 1.381 . S
C141 C144 1.487 . S
C142 C139 1.382 . S
C142 C143 1.387 . S
C142 H168 0.930 . S
C143 C141 1.381 . S
C143 C142 1.387 . S
C143 H169 0.931 . S
C144 C141 1.487 . S
C144 C151 1.399 . S
C144 N182 1.343 1_565 S
C145 C146 1.384 . S
C145 C147 1.384 . S
C145 H170 0.931 . S
C146 C145 1.384 . S
C146 C149 1.382 . S
C147 C145 1.384 . S
C147 C148 1.381 . S
C147 H171 0.930 . S
C148 C147 1.381 . S
C148 C150 1.381 . S
C148 C151 1.487 . S
C149 C146 1.382 . S
C149 C150 1.387 . S
C149 H172 0.930 . S
C150 C148 1.381 . S
C150 C149 1.387 . S
C150 H173 0.931 . S
C151 C144 1.399 . S
C151 C148 1.487 . S
C151 N183 1.346 . S
C152 C153 1.384 . S
C152 C154 1.384 . S
C152 H174 0.931 . S
C153 C152 1.384 . S
C153 C156 1.382 . S
C154 C152 1.384 . S
C154 C155 1.381 . S
C154 H175 0.930 . S
C155 C154 1.381 . S
C155 C157 1.381 . S
C155 C158 1.487 . S
C156 C153 1.382 . S
C156 C157 1.387 . S
C156 H176 0.930 . S
C157 C155 1.381 . S
C157 C156 1.387 . S
C157 H177 0.931 . S
C158 C155 1.487 . S
C158 C165 1.399 . S
C158 N183 1.339 1_545 S
C159 C160 1.384 . S
C159 C161 1.384 . S
C159 H178 0.931 . S
C160 C159 1.384 . S
C160 C163 1.382 . S
C161 C159 1.384 . S
C161 C162 1.381 . S
C161 H179 0.930 . S
C162 C161 1.381 . S
C162 C164 1.381 . S
C162 C165 1.487 . S
C163 C160 1.382 . S
C163 C164 1.387 . S
C163 H180 0.930 . S
C164 C162 1.381 . S
C164 C163 1.387 . S
C164 H181 0.931 . S
C165 C158 1.399 . S
C165 C162 1.487 . S
C165 N182 1.343 . S
H166 C138 0.931 . S
H167 C140 0.930 . S
H168 C142 0.930 . S
H169 C143 0.931 . S
H170 C145 0.931 . S
H171 C147 0.930 . S
H172 C149 0.930 . S
H173 C150 0.931 . S
H174 C152 0.931 . S
H175 C154 0.930 . S
H176 C156 0.930 . S
H177 C157 0.931 . S
H178 C159 0.931 . S
H179 C161 0.930 . S
H180 C163 0.930 . S
H181 C164 0.931 . S
N182 C144 1.343 1_545 S
N182 C165 1.343 . S
N183 C151 1.346 . S
N183 C158 1.339 1_565 S
C184 C185 1.384 . S
C184 C186 1.384 . S
C184 H212 0.931 . S
C185 C184 1.384 . S
C185 C188 1.382 . S
C186 C184 1.384 . S
C186 C187 1.381 . S
C186 H213 0.930 . S
C187 C186 1.381 . S
C187 C189 1.381 . S
C187 C190 1.487 . S
C188 C185 1.382 . S
C188 C189 1.387 . S
C188 H214 0.930 . S
C189 C187 1.381 . S
C189 C188 1.387 . S
C189 H215 0.931 . S
C190 C187 1.487 . S
C190 C197 1.399 . S
C190 N228 1.343 . S
C191 C192 1.384 . S
C191 C193 1.384 . S
C191 H216 0.931 . S
C192 C191 1.384 . S
C192 C195 1.382 . S
C193 C191 1.384 . S
C193 C194 1.381 . S
C193 H217 0.930 . S
C194 C193 1.381 . S
C194 C196 1.381 . S
C194 C197 1.487 . S
C195 C192 1.382 . S
C195 C196 1.387 . S
C195 H218 0.930 . S
C196 C194 1.381 . S
C196 C195 1.387 . S
C196 H219 0.931 . S
C197 C190 1.399 . S
C197 C194 1.487 . S
C197 N229 1.343 1_455 S
C198 C199 1.384 . S
C198 C200 1.384 . S
C198 H220 0.931 . S
C199 C198 1.384 . S
C199 C202 1.382 . S
C200 C198 1.384 . S
C200 C201 1.381 . S
C200 H221 0.930 . S
C201 C200 1.381 . S
C201 C203 1.381 . S
C201 C204 1.487 . S
C202 C199 1.382 . S
C202 C203 1.387 . S
C202 H222 0.930 . S
C203 C201 1.381 . S
C203 C202 1.387 . S
C203 H223 0.931 . S
C204 C201 1.487 . S
C204 C211 1.399 . S
C204 N229 1.343 . S
C205 C206 1.384 . S
C205 C207 1.384 . S
C205 H224 0.931 . S
C206 C205 1.384 . S
C206 C209 1.382 . S
C207 C205 1.384 . S
C207 C208 1.381 . S
C207 H225 0.930 . S
C208 C207 1.381 . S
C208 C210 1.381 . S
C208 C211 1.487 . S
C209 C206 1.382 . S
C209 C210 1.387 . S
C209 H226 0.930 . S
C210 C208 1.381 . S
C210 C209 1.387 . S
C210 H227 0.931 . S
C211 C204 1.399 . S
C211 C208 1.487 . S
C211 N228 1.343 1_655 S
H212 C184 0.931 . S
H213 C186 0.930 . S
H214 C188 0.930 . S
H215 C189 0.931 . S
H216 C191 0.931 . S
H217 C193 0.930 . S
H218 C195 0.930 . S
H219 C196 0.931 . S
H220 C198 0.931 . S
H221 C200 0.930 . S
H222 C202 0.930 . S
H223 C203 0.931 . S
H224 C205 0.931 . S
H225 C207 0.930 . S
H226 C209 0.930 . S
H227 C210 0.931 . S
N228 C190 1.343 . S
N228 C211 1.343 1_455 S
N229 C197 1.343 1_655 S
N229 C204 1.343 . S
C230 C231 1.384 . S
C230 C232 1.384 . S
C230 H258 0.931 . S
C231 C230 1.384 . S
C231 C234 1.382 . S
C232 C230 1.384 . S
C232 C233 1.381 . S
C232 H259 0.930 . S
C233 C232 1.381 . S
C233 C235 1.381 . S
C233 C236 1.487 . S
C234 C231 1.382 . S
C234 C235 1.387 . S
C234 H260 0.930 . S
C235 C233 1.381 . S
C235 C234 1.387 . S
C235 H261 0.931 . S
C236 C233 1.487 . S
C236 C243 1.399 . S
C236 N274 1.343 . S
C237 C238 1.384 . S
C237 C239 1.384 . S
C237 H262 0.931 . S
C238 C237 1.384 . S
C238 C241 1.382 . S
C239 C237 1.384 . S
C239 C240 1.381 . S
C239 H263 0.930 . S
C240 C239 1.381 . S
C240 C242 1.381 . S
C240 C243 1.487 . S
C241 C238 1.382 . S
C241 C242 1.387 . S
C241 H264 0.930 . S
C242 C240 1.381 . S
C242 C241 1.387 . S
C242 H265 0.931 . S
C243 C236 1.399 . S
C243 C240 1.487 . S
C243 N275 1.343 . S
C244 C245 1.384 . S
C244 C246 1.384 . S
C244 H266 0.931 . S
C245 C244 1.384 . S
C245 C248 1.382 . S
C246 C244 1.384 . S
C246 C247 1.381 . S
C246 H267 0.930 . S
C247 C246 1.381 . S
C247 C249 1.381 . S
C247 C250 1.487 . S
C248 C245 1.382 . S
C248 C249 1.387 . S
C248 H268 0.930 . S
C249 C247 1.381 . S
C249 C248 1.387 . S
C249 H269 0.931 . S
C250 C247 1.487 . S
C250 C257 1.399 . S
C250 N275 1.343 . S
C251 C252 1.384 . S
C251 C253 1.384 . S
C251 H270 0.931 . S
C252 C251 1.384 . S
C252 C255 1.382 . S
C253 C251 1.384 . S
C253 C254 1.381 . S
C253 H271 0.930 . S
C254 C253 1.381 . S
C254 C256 1.381 . S
C254 C257 1.487 . S
C255 C252 1.382 . S
C255 C256 1.387 . S
C255 H272 0.930 . S
C256 C254 1.381 . S
C256 C255 1.387 . S
C256 H273 0.931 . S
C257 C250 1.399 . S
C257 C254 1.487 . S
C257 N274 1.343 . S
H258 C230 0.931 . S
H259 C232 0.930 . S
H260 C234 0.930 . S
H261 C235 0.931 . S
H262 C237 0.931 . S
H263 C239 0.930 . S
H264 C241 0.930 . S
H265 C242 0.931 . S
H266 C244 0.931 . S
H267 C246 0.930 . S
H268 C248 0.930 . S
H269 C249 0.931 . S
H270 C251 0.931 . S
H271 C253 0.930 . S
H272 C255 0.930 . S
H273 C256 0.931 . S
N274 C236 1.343 . S
N274 C257 1.343 . S
N275 C243 1.343 . S
N275 C250 1.343 . S
C276 C277 1.384 . S
C276 C278 1.384 . S
C276 H304 0.931 . S
C277 C276 1.384 . S
C277 C280 1.382 . S
C278 C276 1.384 . S
C278 C279 1.381 . S
C278 H305 0.930 . S
C279 C278 1.381 . S
C279 C281 1.381 . S
C279 C282 1.487 . S
C280 C277 1.382 . S
C280 C281 1.387 . S
C280 H306 0.930 . S
C281 C279 1.381 . S
C281 C280 1.387 . S
C281 H307 0.931 1_565 S
C282 C279 1.487 . S
C282 C289 1.399 . S
C282 N320 1.343 1_565 S
C283 C284 1.384 . S
C283 C285 1.384 . S
C283 H308 0.931 . S
C284 C283 1.384 . S
C284 C287 1.382 . S
C285 C283 1.384 . S
C285 C286 1.381 . S
C285 H309 0.930 . S
C286 C285 1.381 . S
C286 C288 1.381 . S
C286 C289 1.487 . S
C287 C284 1.382 . S
C287 C288 1.387 . S
C287 H310 0.930 . S
C288 C286 1.381 . S
C288 C287 1.387 . S
C288 H311 0.931 . S
C289 C282 1.399 . S
C289 C286 1.487 . S
C289 N321 1.343 . S
C290 C291 1.384 . S
C290 C292 1.384 . S
C290 H312 0.931 . S
C291 C290 1.384 . S
C291 C294 1.382 . S
C292 C290 1.384 . S
C292 C293 1.381 . S
C292 H313 0.930 . S
C293 C292 1.381 . S
C293 C295 1.381 . S
C293 C296 1.487 . S
C294 C291 1.382 . S
C294 C295 1.387 . S
C294 H314 0.930 . S
C295 C293 1.381 . S
C295 C294 1.387 . S
C295 H315 0.931 1_545 S
C296 C293 1.487 . S
C296 C303 1.399 . S
C296 N321 1.343 1_545 S
C297 C298 1.384 . S
C297 C299 1.384 . S
C297 H316 0.931 . S
C298 C297 1.384 . S
C298 C301 1.382 . S
C299 C297 1.384 . S
C299 C300 1.381 . S
C299 H317 0.930 . S
C300 C299 1.381 . S
C300 C302 1.381 . S
C300 C303 1.487 . S
C301 C298 1.382 . S
C301 C302 1.387 . S
C301 H318 0.930 . S
C302 C300 1.381 . S
C302 C301 1.387 . S
C302 H319 0.931 . S
C303 C296 1.399 . S
C303 C300 1.487 . S
C303 N320 1.343 . S
H304 C276 0.931 . S
H305 C278 0.930 . S
H306 C280 0.930 . S
H307 C281 0.931 1_545 S
H308 C283 0.931 . S
H309 C285 0.930 . S
H310 C287 0.930 . S
H311 C288 0.931 . S
H312 C290 0.931 . S
H313 C292 0.930 . S
H314 C294 0.930 . S
H315 C295 0.931 1_565 S
H316 C297 0.931 . S
H317 C299 0.930 . S
H318 C301 0.930 . S
H319 C302 0.931 . S
N320 C282 1.343 1_545 S
N320 C303 1.343 . S
N321 C289 1.343 . S
N321 C296 1.343 1_565 S
C322 C323 1.384 . S
C322 C324 1.384 . S
C322 H350 0.931 . S
C323 C322 1.384 . S
C323 C326 1.382 . S
C324 C322 1.384 . S
C324 C325 1.381 . S
C324 H351 0.930 . S
C325 C324 1.381 . S
C325 C327 1.381 . S
C325 C328 1.487 . S
C326 C323 1.382 . S
C326 C327 1.387 . S
C326 H352 0.930 . S
C327 C325 1.381 . S
C327 C326 1.387 . S
C327 H353 0.931 1_455 S
C328 C325 1.487 . S
C328 C335 1.399 . S
C328 N366 1.343 1_455 S
C329 C330 1.384 . S
C329 C331 1.384 . S
C329 H354 0.931 . S
C330 C329 1.384 . S
C330 C333 1.382 . S
C331 C329 1.384 . S
C331 C332 1.381 . S
C331 H355 0.930 . S
C332 C331 1.381 . S
C332 C334 1.381 . S
C332 C335 1.487 . S
C333 C330 1.382 . S
C333 C334 1.387 . S
C333 H356 0.930 . S
C334 C332 1.381 . S
C334 C333 1.387 . S
C334 H357 0.931 . S
C335 C328 1.399 . S
C335 C332 1.487 . S
C335 N367 1.343 1_565 S
C336 C337 1.384 . S
C336 C338 1.384 . S
C336 H358 0.931 . S
C337 C336 1.384 . S
C337 C340 1.382 . S
C338 C336 1.384 . S
C338 C339 1.381 . S
C338 H359 0.930 . S
C339 C338 1.381 . S
C339 C341 1.381 . S
C339 C342 1.487 . S
C340 C337 1.382 . S
C340 C341 1.387 . S
C340 H360 0.930 . S
C341 C339 1.381 . S
C341 C340 1.387 . S
C341 H361 0.931 1_655 S
C342 C339 1.487 . S
C342 C349 1.399 . S
C342 N367 1.343 1_655 S
C343 C344 1.384 . S
C343 C345 1.384 . S
C343 H362 0.931 . S
C344 C343 1.384 . S
C344 C347 1.382 . S
C345 C343 1.384 . S
C345 C346 1.381 . S
C345 H363 0.930 . S
C346 C345 1.381 . S
C346 C348 1.381 . S
C346 C349 1.487 . S
C347 C344 1.382 . S
C347 C348 1.387 . S
C347 H364 0.930 . S
C348 C346 1.381 . S
C348 C347 1.387 . S
C348 H365 0.931 . S
C349 C342 1.399 . S
C349 C346 1.487 . S
C349 N366 1.343 1_545 S
H350 C322 0.931 . S
H351 C324 0.930 . S
H352 C326 0.930 . S
H353 C327 0.931 1_655 S
H354 C329 0.931 . S
H355 C331 0.930 . S
H356 C333 0.930 . S
H357 C334 0.931 . S
H358 C336 0.931 . S
H359 C338 0.930 . S
H360 C340 0.930 . S
H361 C341 0.931 1_455 S
H362 C343 0.931 . S
H363 C345 0.930 . S
H364 C347 0.930 . S
H365 C348 0.931 . S
N366 C328 1.343 1_655 S
N366 C349 1.343 1_565 S
N367 C335 1.343 1_545 S
N367 C342 1.343 1_455 S
In368 O369 2.294 . S
In368 O370 2.326 . S
In368 O374 2.266 1_554 S
In368 O375 2.326 1_554 S
In368 O376 2.266 1_554 S
In368 O377 2.326 1_554 S
In368 O379 2.294 . S
In368 O380 2.326 . S
O369 In368 2.294 . S
O369 C378 1.240 . S
O370 In368 2.326 . S
O370 C378 1.252 . S
C371 O374 1.252 . S
C371 O375 1.260 . S
C372 O379 1.240 . S
C372 O380 1.252 . S
C373 O376 1.252 . S
C373 O377 1.260 . S
O374 In368 2.266 1_556 S
O374 C371 1.252 . S
O375 In368 2.326 1_556 S
O375 C371 1.260 . S
O376 In368 2.266 1_556 S
O376 C373 1.252 . S
O377 In368 2.326 1_556 S
O377 C373 1.260 . S
C378 O369 1.240 . S
C378 O370 1.252 . S
O379 In368 2.294 . S
O379 C372 1.240 . S
O380 In368 2.326 . S
O380 C372 1.252 . S
In381 O382 2.294 . S
In381 O383 2.326 . S
In381 O387 2.266 . S
In381 O388 2.326 . S
In381 O389 2.266 . S
In381 O390 2.326 . S
In381 O392 2.294 . S
In381 O393 2.326 . S
O382 In381 2.294 . S
O382 C391 1.240 . S
O383 In381 2.326 . S
O383 C391 1.252 . S
C384 O387 1.252 . S
C384 O388 1.260 . S
C385 O392 1.240 . S
C385 O393 1.252 . S
C386 O389 1.252 . S
C386 O390 1.260 . S
O387 In381 2.266 . S
O387 C384 1.252 . S
O388 In381 2.326 . S
O388 C384 1.260 . S
O389 In381 2.266 . S
O389 C386 1.252 . S
O390 In381 2.326 . S
O390 C386 1.260 . S
C391 O382 1.240 . S
C391 O383 1.252 . S
O392 In381 2.294 . S
O392 C385 1.240 . S
O393 In381 2.326 . S
O393 C385 1.252 . S
In394 O395 2.294 . S
In394 O396 2.326 . S
In394 O400 2.266 . S
In394 O401 2.326 . S
In394 O402 2.266 . S
In394 O403 2.326 . S
In394 O405 2.294 . S
In394 O406 2.326 . S
O395 In394 2.294 . S
O395 C404 1.240 . S
O396 In394 2.326 . S
O396 C404 1.252 . S
C397 O400 1.252 . S
C397 O401 1.260 . S
C398 O405 1.240 . S
C398 O406 1.252 . S
C399 O402 1.252 . S
C399 O403 1.260 . S
O400 In394 2.266 . S
O400 C397 1.252 . S
O401 In394 2.326 . S
O401 C397 1.260 . S
O402 In394 2.266 . S
O402 C399 1.252 . S
O403 In394 2.326 . S
O403 C399 1.260 . S
C404 O395 1.240 . S
C404 O396 1.252 . S
O405 In394 2.294 . S
O405 C398 1.240 . S
O406 In394 2.326 . S
O406 C398 1.252 . S
In407 O408 2.294 . S
In407 O409 2.326 . S
In407 O413 2.266 . S
In407 O414 2.326 . S
In407 O415 2.266 . S
In407 O416 2.326 . S
In407 O418 2.294 . S
In407 O419 2.326 . S
O408 In407 2.294 . S
O408 C417 1.240 . S
O409 In407 2.326 . S
O409 C417 1.252 . S
C410 O413 1.252 . S
C410 O414 1.260 . S
C411 O418 1.240 . S
C411 O419 1.252 . S
C412 O415 1.252 . S
C412 O416 1.260 . S
O413 In407 2.266 . S
O413 C410 1.252 . S
O414 In407 2.326 . S
O414 C410 1.260 . S
O415 In407 2.266 . S
O415 C412 1.252 . S
O416 In407 2.326 . S
O416 C412 1.260 . S
C417 O408 1.240 . S
C417 O409 1.252 . S
O418 In407 2.294 . S
O418 C411 1.240 . S
O419 In407 2.326 . S
O419 C411 1.252 . S
In420 O421 2.294 . S
In420 O422 2.326 . S
In420 O426 2.266 . S
In420 O427 2.326 . S
In420 O428 2.266 . S
In420 O429 2.326 . S
In420 O431 2.294 . S
In420 O432 2.326 . S
O421 In420 2.294 . S
O421 C430 1.240 . S
O422 In420 2.326 . S
O422 C430 1.252 . S
C423 O426 1.252 . S
C423 O427 1.260 . S
C424 O431 1.240 . S
C424 O432 1.252 . S
C425 O428 1.252 . S
C425 O429 1.260 . S
O426 In420 2.266 . S
O426 C423 1.252 . S
O427 In420 2.326 . S
O427 C423 1.260 . S
O428 In420 2.266 . S
O428 C425 1.252 . S
O429 In420 2.326 . S
O429 C425 1.260 . S
C430 O421 1.240 . S
C430 O422 1.252 . S
O431 In420 2.294 . S
O431 C424 1.240 . S
O432 In420 2.326 . S
O432 C424 1.252 . S
In433 O434 2.294 . S
In433 O435 2.326 . S
In433 O439 2.266 . S
In433 O440 2.326 . S
In433 O441 2.266 . S
In433 O442 2.326 . S
In433 O444 2.294 . S
In433 O445 2.326 . S
O434 In433 2.294 . S
O434 C443 1.240 . S
O435 In433 2.326 . S
O435 C443 1.252 . S
C436 O439 1.252 . S
C436 O440 1.260 . S
C437 O444 1.240 . S
C437 O445 1.252 . S
C438 O441 1.252 . S
C438 O442 1.260 . S
O439 In433 2.266 . S
O439 C436 1.252 . S
O440 In433 2.326 . S
O440 C436 1.260 . S
O441 In433 2.266 . S
O441 C438 1.252 . S
O442 In433 2.326 . S
O442 C438 1.260 . S
C443 O434 1.240 . S
C443 O435 1.252 . S
O444 In433 2.294 . S
O444 C437 1.240 . S
O445 In433 2.326 . S
O445 C437 1.252 . S
In446 O447 2.294 . S
In446 O448 2.326 . S
In446 O452 2.266 1_554 S
In446 O453 2.326 1_554 S
In446 O454 2.266 1_554 S
In446 O455 2.326 1_554 S
In446 O457 2.294 . S
In446 O458 2.326 . S
O447 In446 2.294 . S
O447 C456 1.240 . S
O448 In446 2.326 . S
O448 C456 1.252 . S
C449 O452 1.252 . S
C449 O453 1.260 . S
C450 O457 1.240 . S
C450 O458 1.252 . S
C451 O454 1.252 . S
C451 O455 1.260 . S
O452 In446 2.266 1_556 S
O452 C449 1.252 . S
O453 In446 2.326 1_556 S
O453 C449 1.260 . S
O454 In446 2.266 1_556 S
O454 C451 1.252 . S
O455 In446 2.326 1_556 S
O455 C451 1.260 . S
C456 O447 1.240 . S
C456 O448 1.252 . S
O457 In446 2.294 . S
O457 C450 1.240 . S
O458 In446 2.326 . S
O458 C450 1.252 . S
In459 O460 2.294 . S
In459 O461 2.326 . S
In459 O465 2.266 . S
In459 O466 2.326 . S
In459 O467 2.266 . S
In459 O468 2.326 . S
In459 O470 2.294 . S
In459 O471 2.326 . S
O460 In459 2.294 . S
O460 C469 1.240 . S
O461 In459 2.326 . S
O461 C469 1.252 . S
C462 O465 1.252 . S
C462 O466 1.260 . S
C463 O470 1.240 . S
C463 O471 1.252 . S
C464 O467 1.252 . S
C464 O468 1.260 . S
O465 In459 2.266 . S
O465 C462 1.252 . S
O466 In459 2.326 . S
O466 C462 1.260 . S
O467 In459 2.266 . S
O467 C464 1.252 . S
O468 In459 2.326 . S
O468 C464 1.260 . S
C469 O460 1.240 . S
C469 O461 1.252 . S
O470 In459 2.294 . S
O470 C463 1.240 . S
O471 In459 2.326 . S
O471 C463 1.252 . S
H472 C480 0.950 . S
H473 C485 0.950 . S
H474 C482 0.950 . S
H475 C484 0.950 . S
H476 C486 0.950 . S
H477 C488 0.950 . S
H478 C490 0.950 . S
H479 C491 0.950 . S
C480 H472 0.950 . S
C480 C481 1.386 . S
C480 C482 1.391 . S
C481 C480 1.386 . S
C481 C485 1.393 . S
C482 H474 0.950 . S
C482 C480 1.391 . S
C482 C483 1.400 . S
C483 C482 1.400 . S
C483 C484 1.398 . S
C483 C489 1.491 . S
C484 H475 0.950 . S
C484 C483 1.398 . S
C484 C485 1.391 . S
C485 H473 0.950 . S
C485 C481 1.393 . S
C485 C484 1.391 . S
C486 H476 0.950 . S
C486 C487 1.386 . S
C486 C488 1.391 . S
C487 C486 1.386 . S
C487 C491 1.393 . S
C488 H477 0.950 . S
C488 C486 1.391 . S
C488 C489 1.400 . S
C489 C483 1.491 . S
C489 C488 1.400 . S
C489 C490 1.398 . S
C490 H478 0.950 . S
C490 C489 1.398 . S
C490 C491 1.391 . S
C491 H479 0.950 . S
C491 C487 1.393 . S
C491 C490 1.391 . S
H492 C500 0.950 . S
H493 C505 0.950 . S
H494 C502 0.950 . S
H495 C504 0.950 . S
H496 C506 0.950 . S
H497 C508 0.950 . S
H498 C510 0.950 . S
H499 C511 0.950 . S
C500 H492 0.950 . S
C500 C501 1.386 . S
C500 C502 1.391 . S
C501 C500 1.386 . S
C501 C505 1.393 . S
C502 H494 0.950 . S
C502 C500 1.391 . S
C502 C503 1.400 . S
C503 C502 1.400 . S
C503 C504 1.398 . S
C503 C509 1.491 . S
C504 H495 0.950 . S
C504 C503 1.398 . S
C504 C505 1.391 . S
C505 H493 0.950 . S
C505 C501 1.393 . S
C505 C504 1.391 . S
C506 H496 0.950 . S
C506 C507 1.386 . S
C506 C508 1.391 . S
C507 C506 1.386 . S
C507 C511 1.393 . S
C508 H497 0.950 . S
C508 C506 1.391 . S
C508 C509 1.400 . S
C509 C503 1.491 . S
C509 C508 1.400 . S
C509 C510 1.398 . S
C510 H498 0.950 . S
C510 C509 1.398 . S
C510 C511 1.391 . S
C511 H499 0.950 . S
C511 C507 1.393 . S
C511 C510 1.391 . S
H512 C520 0.950 . S
H513 C525 0.950 . S
H514 C522 0.950 . S
H515 C524 0.950 . S
H516 C526 0.950 . S
H517 C528 0.950 . S
H518 C530 0.950 . S
H519 C531 0.950 . S
C520 H512 0.950 . S
C520 C521 1.386 . S
C520 C522 1.391 . S
C521 C520 1.386 . S
C521 C525 1.393 . S
C522 H514 0.950 . S
C522 C520 1.391 . S
C522 C523 1.400 . S
C523 C522 1.400 . S
C523 C524 1.398 . S
C523 C529 1.491 . S
C524 H515 0.950 . S
C524 C523 1.398 . S
C524 C525 1.391 . S
C525 H513 0.950 . S
C525 C521 1.393 . S
C525 C524 1.391 . S
C526 H516 0.950 . S
C526 C527 1.386 . S
C526 C528 1.391 . S
C527 C526 1.386 . S
C527 C531 1.393 . S
C528 H517 0.950 . S
C528 C526 1.391 . S
C528 C529 1.400 . S
C529 C523 1.491 . S
C529 C528 1.400 . S
C529 C530 1.398 . S
C530 H518 0.950 . S
C530 C529 1.398 . S
C530 C531 1.391 . S
C531 H519 0.950 . S
C531 C527 1.393 . S
C531 C530 1.391 . S
H532 C540 0.950 . S
H533 C545 0.950 . S
H534 C542 0.950 . S
H535 C544 0.950 . S
H536 C546 0.950 . S
H537 C548 0.950 . S
H538 C550 0.950 . S
H539 C551 0.950 . S
C540 H532 0.950 . S
C540 C541 1.386 . S
C540 C542 1.391 . S
C541 C540 1.386 . S
C541 C545 1.393 . S
C542 H534 0.950 . S
C542 C540 1.391 . S
C542 C543 1.400 . S
C543 C542 1.400 . S
C543 C544 1.398 . S
C543 C549 1.491 . S
C544 H535 0.950 . S
C544 C543 1.398 . S
C544 C545 1.391 . S
C545 H533 0.950 . S
C545 C541 1.393 . S
C545 C544 1.391 . S
C546 H536 0.950 . S
C546 C547 1.386 . S
C546 C548 1.391 . S
C547 C546 1.386 . S
C547 C551 1.393 . S
C548 H537 0.950 . S
C548 C546 1.391 . S
C548 C549 1.400 . S
C549 C543 1.491 . S
C549 C548 1.400 . S
C549 C550 1.398 . S
C550 H538 0.950 . S
C550 C549 1.398 . S
C550 C551 1.391 . S
C551 H539 0.950 . S
C551 C547 1.393 . S
C551 C550 1.391 . S
H552 C560 0.950 . S
H553 C565 0.950 . S
H554 C562 0.950 . S
H555 C564 0.950 . S
H556 C566 0.950 . S
H557 C568 0.950 . S
H558 C570 0.950 . S
H559 C571 0.950 . S
C560 H552 0.950 . S
C560 C561 1.386 . S
C560 C562 1.391 . S
C561 C560 1.386 . S
C561 C565 1.393 . S
C562 H554 0.950 . S
C562 C560 1.391 . S
C562 C563 1.400 . S
C563 C562 1.400 . S
C563 C564 1.398 . S
C563 C569 1.491 . S
C564 H555 0.950 . S
C564 C563 1.398 . S
C564 C565 1.391 . S
C565 H553 0.950 . S
C565 C561 1.393 . S
C565 C564 1.391 . S
C566 H556 0.950 . S
C566 C567 1.386 . S
C566 C568 1.391 . S
C567 C566 1.386 . S
C567 C571 1.393 . S
C568 H557 0.950 . S
C568 C566 1.391 . S
C568 C569 1.400 . S
C569 C563 1.491 . S
C569 C568 1.400 . S
C569 C570 1.398 . S
C570 H558 0.950 . S
C570 C569 1.398 . S
C570 C571 1.391 . S
C571 H559 0.950 . S
C571 C567 1.393 . S
C571 C570 1.391 . S
H572 C580 0.950 . S
H573 C585 0.950 . S
H574 C582 0.950 . S
H575 C584 0.950 . S
H576 C586 0.950 . S
H577 C588 0.950 . S
H578 C590 0.950 . S
H579 C591 0.950 . S
C580 H572 0.950 . S
C580 C581 1.386 . S
C580 C582 1.391 . S
C581 C580 1.386 . S
C581 C585 1.393 . S
C582 H574 0.950 . S
C582 C580 1.391 . S
C582 C583 1.400 . S
C583 C582 1.400 . S
C583 C584 1.398 . S
C583 C589 1.491 . S
C584 H575 0.950 . S
C584 C583 1.398 . S
C584 C585 1.391 . S
C585 H573 0.950 . S
C585 C581 1.393 . S
C585 C584 1.391 . S
C586 H576 0.950 . S
C586 C587 1.386 . S
C586 C588 1.391 . S
C587 C586 1.386 . S
C587 C591 1.393 . S
C588 H577 0.950 . S
C588 C586 1.391 . S
C588 C589 1.400 . S
C589 C583 1.491 . S
C589 C588 1.400 . S
C589 C590 1.398 . S
C590 H578 0.950 . S
C590 C589 1.398 . S
C590 C591 1.391 . S
C591 H579 0.950 . S
C591 C587 1.393 . S
C591 C590 1.391 . S
H592 C600 0.950 . S
H593 C605 0.950 . S
H594 C602 0.950 . S
H595 C604 0.950 . S
H596 C606 0.950 . S
H597 C608 0.950 . S
H598 C610 0.950 . S
H599 C611 0.950 . S
C600 H592 0.950 . S
C600 C601 1.386 . S
C600 C602 1.391 . S
C601 C600 1.386 . S
C601 C605 1.393 . S
C602 H594 0.950 . S
C602 C600 1.391 . S
C602 C603 1.400 . S
C603 C602 1.400 . S
C603 C604 1.398 . S
C603 C609 1.491 . S
C604 H595 0.950 . S
C604 C603 1.398 . S
C604 C605 1.391 . S
C605 H593 0.950 . S
C605 C601 1.393 . S
C605 C604 1.391 . S
C606 H596 0.950 . S
C606 C607 1.386 . S
C606 C608 1.391 . S
C607 C606 1.386 . S
C607 C611 1.393 . S
C608 H597 0.950 . S
C608 C606 1.391 . S
C608 C609 1.400 . S
C609 C603 1.491 . S
C609 C608 1.400 . S
C609 C610 1.398 . S
C610 H598 0.950 . S
C610 C609 1.398 . S
C610 C611 1.391 . S
C611 H599 0.950 . S
C611 C607 1.393 . S
C611 C610 1.391 . S
H612 C620 0.950 . S
H613 C625 0.950 . S
H614 C622 0.950 . S
H615 C624 0.950 . S
H616 C626 0.950 . S
H617 C628 0.950 . S
H618 C630 0.950 . S
H619 C631 0.950 . S
C620 H612 0.950 . S
C620 C621 1.386 . S
C620 C622 1.391 . S
C621 C620 1.386 . S
C621 C625 1.393 . S
C622 H614 0.950 . S
C622 C620 1.391 . S
C622 C623 1.400 . S
C623 C622 1.400 . S
C623 C624 1.398 . S
C623 C629 1.491 . S
C624 H615 0.950 . S
C624 C623 1.398 . S
C624 C625 1.391 . S
C625 H613 0.950 . S
C625 C621 1.393 . S
C625 C624 1.391 . S
C626 H616 0.950 . S
C626 C627 1.386 . S
C626 C628 1.391 . S
C627 C626 1.386 . S
C627 C631 1.393 . S
C628 H617 0.950 . S
C628 C626 1.391 . S
C628 C629 1.400 . S
C629 C623 1.491 . S
C629 C628 1.400 . S
C629 C630 1.398 . S
C630 H618 0.950 . S
C630 C629 1.398 . S
C630 C631 1.391 . S
C631 H619 0.950 . S
C631 C627 1.393 . S
C631 C630 1.391 . S
H632 C640 0.950 . S
H633 C645 0.950 . S
H634 C642 0.950 . S
H635 C644 0.950 . S
H636 C646 0.950 . S
H637 C648 0.950 . S
H638 C650 0.950 . S
H639 C651 0.950 . S
C640 H632 0.950 . S
C640 C641 1.386 . S
C640 C642 1.391 . S
C641 C640 1.386 . S
C641 C645 1.393 . S
C642 H634 0.950 . S
C642 C640 1.391 . S
C642 C643 1.400 . S
C643 C642 1.400 . S
C643 C644 1.398 . S
C643 C649 1.491 . S
C644 H635 0.950 . S
C644 C643 1.398 . S
C644 C645 1.391 . S
C645 H633 0.950 . S
C645 C641 1.393 . S
C645 C644 1.391 . S
C646 H636 0.950 . S
C646 C647 1.386 . S
C646 C648 1.391 . S
C647 C646 1.386 . S
C647 C651 1.393 . S
C648 H637 0.950 . S
C648 C646 1.391 . S
C648 C649 1.400 . S
C649 C643 1.491 . S
C649 C648 1.400 . S
C649 C650 1.398 . S
C650 H638 0.950 . S
C650 C649 1.398 . S
C650 C651 1.391 . S
C651 H639 0.950 . S
C651 C647 1.393 . S
C651 C650 1.391 . S
H652 C660 0.950 . S
H653 C665 0.950 . S
H654 C662 0.950 . S
H655 C664 0.950 . S
H656 C666 0.982 . S
H657 C668 0.950 . S
H658 C670 0.950 . S
H659 C671 0.950 . S
C660 H652 0.950 . S
C660 C661 1.386 . S
C660 C662 1.391 . S
C661 C660 1.386 . S
C661 C665 1.393 . S
C662 H654 0.950 . S
C662 C660 1.391 . S
C662 C663 1.400 . S
C663 C662 1.400 . S
C663 C664 1.398 . S
C663 C669 1.491 . S
C664 H655 0.950 . S
C664 C663 1.398 . S
C664 C665 1.391 . S
C665 H653 0.950 . S
C665 C661 1.393 . S
C665 C664 1.391 . S
C666 H656 0.982 . S
C666 C667 1.386 . S
C666 C668 1.391 . S
C667 C666 1.386 . S
C667 C671 1.393 . S
C668 H657 0.950 . S
C668 C666 1.391 . S
C668 C669 1.400 . S
C669 C663 1.491 . S
C669 C668 1.400 . S
C669 C670 1.398 . S
C670 H658 0.950 . S
C670 C669 1.398 . S
C670 C671 1.391 . S
C671 H659 0.950 . S
C671 C667 1.393 . S
C671 C670 1.391 . S
H672 C680 0.950 . S
H673 C685 0.950 . S
H674 C682 0.950 . S
H675 C684 0.950 . S
H676 C686 0.950 . S
H677 C688 0.950 . S
H678 C690 0.950 . S
H679 C691 0.950 . S
C680 H672 0.950 . S
C680 C681 1.386 . S
C680 C682 1.391 . S
C681 C680 1.386 . S
C681 C685 1.393 . S
C682 H674 0.950 . S
C682 C680 1.391 . S
C682 C683 1.400 . S
C683 C682 1.400 . S
C683 C684 1.398 . S
C683 C689 1.491 . S
C684 H675 0.950 . S
C684 C683 1.398 . S
C684 C685 1.391 . S
C685 H673 0.950 . S
C685 C681 1.393 . S
C685 C684 1.391 . S
C686 H676 0.950 . S
C686 C687 1.386 . S
C686 C688 1.391 . S
C687 C686 1.386 . S
C687 C691 1.393 . S
C688 H677 0.950 . S
C688 C686 1.391 . S
C688 C689 1.400 . S
C689 C683 1.491 . S
C689 C688 1.400 . S
C689 C690 1.398 . S
C690 H678 0.950 . S
C690 C689 1.398 . S
C690 C691 1.391 . S
C691 H679 0.950 . S
C691 C687 1.393 . S
C691 C690 1.391 . S
H692 C700 0.950 . S
H693 C705 0.950 . S
H694 C702 0.950 . S
H695 C704 0.950 . S
H696 C706 0.950 . S
H697 C708 0.950 . S
H698 C710 0.950 . S
H699 C711 0.950 . S
C700 H692 0.950 . S
C700 C701 1.386 . S
C700 C702 1.391 . S
C701 C700 1.386 . S
C701 C705 1.393 . S
C702 H694 0.950 . S
C702 C700 1.391 . S
C702 C703 1.400 . S
C703 C702 1.400 . S
C703 C704 1.398 . S
C703 C709 1.491 . S
C704 H695 0.950 . S
C704 C703 1.398 . S
C704 C705 1.391 . S
C705 H693 0.950 . S
C705 C701 1.393 . S
C705 C704 1.391 . S
C706 H696 0.950 . S
C706 C707 1.386 . S
C706 C708 1.391 . S
C707 C706 1.386 . S
C707 C711 1.393 . S
C708 H697 0.950 . S
C708 C706 1.391 . S
C708 C709 1.400 . S
C709 C703 1.491 . S
C709 C708 1.400 . S
C709 C710 1.398 . S
C710 H698 0.950 . S
C710 C709 1.398 . S
C710 C711 1.391 . S
C711 H699 0.950 . S
C711 C707 1.393 . S
C711 C710 1.391 . S
H712 C720 0.950 . S
H713 C725 0.950 . S
H714 C722 0.950 . S
H715 C724 0.950 . S
H716 C726 0.950 . S
H717 C728 0.950 . S
H718 C730 0.950 . S
H719 C731 0.950 . S
C720 H712 0.950 . S
C720 C721 1.386 . S
C720 C722 1.391 . S
C721 C720 1.386 . S
C721 C725 1.393 . S
C722 H714 0.950 . S
C722 C720 1.391 . S
C722 C723 1.400 . S
C723 C722 1.400 . S
C723 C724 1.398 . S
C723 C729 1.491 . S
C724 H715 0.950 . S
C724 C723 1.398 . S
C724 C725 1.391 . S
C725 H713 0.950 . S
C725 C721 1.393 . S
C725 C724 1.391 . S
C726 H716 0.950 . S
C726 C727 1.386 . S
C726 C728 1.391 . S
C727 C726 1.386 . S
C727 C731 1.393 . S
C728 H717 0.950 . S
C728 C726 1.391 . S
C728 C729 1.400 . S
C729 C723 1.491 . S
C729 C728 1.400 . S
C729 C730 1.398 . S
C730 H718 0.950 . S
C730 C729 1.398 . S
C730 C731 1.391 . S
C731 H719 0.950 . S
C731 C727 1.393 . S
C731 C730 1.391 . S
H732 C740 0.950 . S
H733 C745 0.950 . S
H734 C742 0.950 . S
H735 C744 0.950 . S
H736 C746 0.950 . S
H737 C748 0.950 . S
H738 C750 0.950 . S
H739 C751 0.950 . S
C740 H732 0.950 . S
C740 C741 1.386 . S
C740 C742 1.391 . S
C741 C740 1.386 . S
C741 C745 1.393 . S
C742 H734 0.950 . S
C742 C740 1.391 . S
C742 C743 1.400 . S
C743 C742 1.400 . S
C743 C744 1.398 . S
C743 C749 1.491 . S
C744 H735 0.950 . S
C744 C743 1.398 . S
C744 C745 1.391 . S
C745 H733 0.950 . S
C745 C741 1.393 . S
C745 C744 1.391 . S
C746 H736 0.950 . S
C746 C747 1.386 . S
C746 C748 1.391 . S
C747 C746 1.386 . S
C747 C751 1.393 . S
C748 H737 0.950 . S
C748 C746 1.391 . S
C748 C749 1.400 . S
C749 C743 1.491 . S
C749 C748 1.400 . S
C749 C750 1.398 . S
C750 H738 0.950 . S
C750 C749 1.398 . S
C750 C751 1.391 . S
C751 H739 0.950 . S
C751 C747 1.393 . S
C751 C750 1.391 . S
H752 C760 0.950 . S
H753 C765 0.950 . S
H754 C762 0.950 . S
H755 C764 0.950 . S
H756 C766 0.950 . S
H757 C768 0.950 . S
H758 C770 0.950 . S
H759 C771 0.950 . S
C760 H752 0.950 . S
C760 C761 1.386 . S
C760 C762 1.391 . S
C761 C760 1.386 . S
C761 C765 1.393 . S
C762 H754 0.950 . S
C762 C760 1.391 . S
C762 C763 1.400 . S
C763 C762 1.400 . S
C763 C764 1.398 . S
C763 C769 1.491 . S
C764 H755 0.950 . S
C764 C763 1.398 . S
C764 C765 1.391 . S
C765 H753 0.950 . S
C765 C761 1.393 . S
C765 C764 1.391 . S
C766 H756 0.950 . S
C766 C767 1.386 . S
C766 C768 1.391 . S
C767 C766 1.386 . S
C767 C771 1.393 . S
C768 H757 0.950 . S
C768 C766 1.391 . S
C768 C769 1.400 . S
C769 C763 1.491 . S
C769 C768 1.400 . S
C769 C770 1.398 . S
C770 H758 0.950 . S
C770 C769 1.398 . S
C770 C771 1.391 . S
C771 H759 0.950 . S
C771 C767 1.393 . S
C771 C770 1.391 . S
H772 C780 0.950 . S
H773 C785 0.950 . S
H774 C782 0.950 . S
H775 C784 0.950 . S
H776 C786 0.950 . S
H777 C788 0.950 . S
H778 C790 0.950 . S
H779 C791 0.950 . S
C780 H772 0.950 . S
C780 C781 1.386 . S
C780 C782 1.391 . S
C781 C780 1.386 . S
C781 C785 1.393 . S
C782 H774 0.950 . S
C782 C780 1.391 . S
C782 C783 1.400 . S
C783 C782 1.400 . S
C783 C784 1.398 . S
C783 C789 1.491 . S
C784 H775 0.950 . S
C784 C783 1.398 . S
C784 C785 1.391 . S
C785 H773 0.950 . S
C785 C781 1.393 . S
C785 C784 1.391 . S
C786 H776 0.950 . S
C786 C787 1.386 . S
C786 C788 1.391 . S
C787 C786 1.386 . S
C787 C791 1.393 . S
C788 H777 0.950 . S
C788 C786 1.391 . S
C788 C789 1.400 . S
C789 C783 1.491 . S
C789 C788 1.400 . S
C789 C790 1.398 . S
C790 H778 0.950 . S
C790 C789 1.398 . S
C790 C791 1.391 . S
C791 H779 0.950 . S
C791 C787 1.393 . S
C791 C790 1.391 . S
H792 C800 0.950 . S
H793 C805 0.950 . S
H794 C802 0.950 . S
H795 C804 0.950 . S
H796 C806 0.950 . S
H797 C808 0.950 . S
H798 C810 0.950 . S
H799 C811 0.950 . S
C800 H792 0.950 . S
C800 C801 1.386 . S
C800 C802 1.391 . S
C801 C800 1.386 . S
C801 C805 1.393 . S
C802 H794 0.950 . S
C802 C800 1.391 . S
C802 C803 1.400 . S
C803 C802 1.400 . S
C803 C804 1.398 . S
C803 C809 1.491 . S
C804 H795 0.950 . S
C804 C803 1.398 . S
C804 C805 1.391 . S
C805 H793 0.950 . S
C805 C801 1.393 . S
C805 C804 1.391 . S
C806 H796 0.950 . S
C806 C807 1.386 . S
C806 C808 1.391 . S
C807 C806 1.386 . S
C807 C811 1.393 . S
C808 H797 0.950 . S
C808 C806 1.391 . S
C808 C809 1.400 . S
C809 C803 1.491 . S
C809 C808 1.400 . S
C809 C810 1.398 . S
C810 H798 0.950 . S
C810 C809 1.398 . S
C810 C811 1.391 . S
C811 H799 0.950 . S
C811 C807 1.393 . S
C811 C810 1.391 . S
H812 C820 0.950 . S
H813 C825 0.950 . S
H814 C822 0.950 . S
H815 C824 0.950 . S
H816 C826 0.950 . S
H817 C828 0.950 . S
H818 C830 0.950 . S
H819 C831 0.950 . S
C820 H812 0.950 . S
C820 C821 1.386 . S
C820 C822 1.391 . S
C821 C820 1.386 . S
C821 C825 1.393 . S
C822 H814 0.950 . S
C822 C820 1.391 . S
C822 C823 1.400 . S
C823 C822 1.400 . S
C823 C824 1.398 . S
C823 C829 1.491 . S
C824 H815 0.950 . S
C824 C823 1.398 . S
C824 C825 1.391 . S
C825 H813 0.950 . S
C825 C821 1.393 . S
C825 C824 1.391 . S
C826 H816 0.950 . S
C826 C827 1.386 . S
C826 C828 1.391 . S
C827 C826 1.386 . S
C827 C831 1.393 . S
C828 H817 0.950 . S
C828 C826 1.391 . S
C828 C829 1.400 . S
C829 C823 1.491 . S
C829 C828 1.400 . S
C829 C830 1.398 . S
C830 H818 0.950 . S
C830 C829 1.398 . S
C830 C831 1.391 . S
C831 H819 0.950 . S
C831 C827 1.393 . S
C831 C830 1.391 . S
H832 C840 0.950 . S
H833 C845 0.950 . S
H834 C842 0.950 . S
H835 C844 0.950 . S
H836 C846 0.950 . S
H837 C848 0.950 . S
H838 C850 0.950 . S
H839 C851 0.950 . S
C840 H832 0.950 . S
C840 C841 1.386 . S
C840 C842 1.391 . S
C841 C840 1.386 . S
C841 C845 1.393 . S
C842 H834 0.950 . S
C842 C840 1.391 . S
C842 C843 1.400 . S
C843 C842 1.400 . S
C843 C844 1.398 . S
C843 C849 1.491 . S
C844 H835 0.950 . S
C844 C843 1.398 . S
C844 C845 1.391 . S
C845 H833 0.950 . S
C845 C841 1.393 . S
C845 C844 1.391 . S
C846 H836 0.950 . S
C846 C847 1.386 . S
C846 C848 1.391 . S
C847 C846 1.386 . S
C847 C851 1.393 . S
C848 H837 0.950 . S
C848 C846 1.391 . S
C848 C849 1.400 . S
C849 C843 1.491 . S
C849 C848 1.400 . S
C849 C850 1.398 . S
C850 H838 0.950 . S
C850 C849 1.398 . S
C850 C851 1.391 . S
C851 H839 0.950 . S
C851 C847 1.393 . S
C851 C850 1.391 . S
H852 C860 0.950 . S
H853 C865 0.950 . S
H854 C862 0.950 . S
H855 C864 0.950 . S
H856 C866 0.950 . S
H857 C868 0.950 . S
H858 C870 0.950 . S
H859 C871 0.950 . S
C860 H852 0.950 . S
C860 C861 1.386 . S
C860 C862 1.391 . S
C861 C860 1.386 . S
C861 C865 1.393 . S
C862 H854 0.950 . S
C862 C860 1.391 . S
C862 C863 1.400 . S
C863 C862 1.400 . S
C863 C864 1.398 . S
C863 C869 1.491 . S
C864 H855 0.950 . S
C864 C863 1.398 . S
C864 C865 1.391 . S
C865 H853 0.950 . S
C865 C861 1.393 . S
C865 C864 1.391 . S
C866 H856 0.950 . S
C866 C867 1.386 . S
C866 C868 1.391 . S
C867 C866 1.386 . S
C867 C871 1.393 . S
C868 H857 0.950 . S
C868 C866 1.391 . S
C868 C869 1.400 . S
C869 C863 1.491 . S
C869 C868 1.400 . S
C869 C870 1.398 . S
C870 H858 0.950 . S
C870 C869 1.398 . S
C870 C871 1.391 . S
C871 H859 0.950 . S
C871 C867 1.393 . S
C871 C870 1.391 . S
H872 C880 0.950 . S
H873 C885 0.950 . S
H874 C882 0.950 . S
H875 C884 0.950 . S
H876 C886 0.950 . S
H877 C888 0.950 . S
H878 C890 0.950 . S
H879 C891 0.950 . S
C880 H872 0.950 . S
C880 C881 1.386 . S
C880 C882 1.391 . S
C881 C880 1.386 . S
C881 C885 1.393 . S
C882 H874 0.950 . S
C882 C880 1.391 . S
C882 C883 1.400 . S
C883 C882 1.400 . S
C883 C884 1.398 . S
C883 C889 1.491 . S
C884 H875 0.950 . S
C884 C883 1.398 . S
C884 C885 1.391 . S
C885 H873 0.950 . S
C885 C881 1.393 . S
C885 C884 1.391 . S
C886 H876 0.950 . S
C886 C887 1.386 . S
C886 C888 1.391 . S
C887 C886 1.386 . S
C887 C891 1.393 . S
C888 H877 0.950 . S
C888 C886 1.391 . S
C888 C889 1.400 . S
C889 C883 1.491 . S
C889 C888 1.400 . S
C889 C890 1.398 . S
C890 H878 0.950 . S
C890 C889 1.398 . S
C890 C891 1.391 . S
C891 H879 0.950 . S
C891 C887 1.393 . S
C891 C890 1.391 . S
H892 C900 0.950 . S
H893 C905 0.950 . S
H894 C902 0.950 . S
H895 C904 0.950 . S
H896 C906 0.950 . S
H897 C908 0.950 . S
H898 C910 0.950 . S
H899 C911 0.950 . S
C900 H892 0.950 . S
C900 C901 1.386 . S
C900 C902 1.391 . S
C901 C900 1.386 . S
C901 C905 1.393 . S
C902 H894 0.950 . S
C902 C900 1.391 . S
C902 C903 1.400 . S
C903 C902 1.400 . S
C903 C904 1.398 . S
C903 C909 1.491 . S
C904 H895 0.950 . S
C904 C903 1.398 . S
C904 C905 1.391 . S
C905 H893 0.950 . S
C905 C901 1.393 . S
C905 C904 1.391 . S
C906 H896 0.950 . S
C906 C907 1.386 . S
C906 C908 1.391 . S
C907 C906 1.386 . S
C907 C911 1.393 . S
C908 H897 0.950 . S
C908 C906 1.391 . S
C908 C909 1.400 . S
C909 C903 1.491 . S
C909 C908 1.400 . S
C909 C910 1.398 . S
C910 H898 0.950 . S
C910 C909 1.398 . S
C910 C911 1.391 . S
C911 H899 0.950 . S
C911 C907 1.393 . S
C911 C910 1.391 . S
H912 C920 0.950 . S
H913 C925 0.950 . S
H914 C922 0.950 . S
H915 C924 0.950 . S
H916 C926 0.950 . S
H917 C928 0.950 . S
H918 C930 0.950 . S
H919 C931 0.950 . S
C920 H912 0.950 . S
C920 C921 1.386 . S
C920 C922 1.391 . S
C921 C920 1.386 . S
C921 C925 1.393 . S
C922 H914 0.950 . S
C922 C920 1.391 . S
C922 C923 1.400 . S
C923 C922 1.400 . S
C923 C924 1.398 . S
C923 C929 1.491 . S
C924 H915 0.950 . S
C924 C923 1.398 . S
C924 C925 1.391 . S
C925 H913 0.950 . S
C925 C921 1.393 . S
C925 C924 1.391 . S
C926 H916 0.950 . S
C926 C927 1.386 . S
C926 C928 1.391 . S
C927 C926 1.386 . S
C927 C931 1.393 . S
C928 H917 0.950 . S
C928 C926 1.391 . S
C928 C929 1.400 . S
C929 C923 1.491 . S
C929 C928 1.400 . S
C929 C930 1.398 . S
C930 H918 0.950 . S
C930 C929 1.398 . S
C930 C931 1.391 . S
C931 H919 0.950 . S
C931 C927 1.393 . S
C931 C930 1.391 . S
H932 C940 0.950 . S
H933 C945 0.950 . S
H934 C942 0.950 . S
H935 C944 0.950 . S
H936 C946 0.950 . S
H937 C948 0.950 . S
H938 C950 0.950 . S
H939 C951 0.950 . S
C940 H932 0.950 . S
C940 C941 1.386 . S
C940 C942 1.391 . S
C941 C940 1.386 . S
C941 C945 1.393 . S
C942 H934 0.950 . S
C942 C940 1.391 . S
C942 C943 1.400 . S
C943 C942 1.400 . S
C943 C944 1.398 . S
C943 C949 1.491 . S
C944 H935 0.950 . S
C944 C943 1.398 . S
C944 C945 1.391 . S
C945 H933 0.950 . S
C945 C941 1.393 . S
C945 C944 1.391 . S
C946 H936 0.950 . S
C946 C947 1.386 . S
C946 C948 1.391 . S
C947 C946 1.386 . S
C947 C951 1.393 . S
C948 H937 0.950 . S
C948 C946 1.391 . S
C948 C949 1.400 . S
C949 C943 1.491 . S
C949 C948 1.400 . S
C949 C950 1.398 . S
C950 H938 0.950 . S
C950 C949 1.398 . S
C950 C951 1.391 . S
C951 H939 0.950 . S
C951 C947 1.393 . S
C951 C950 1.391 . S
H952 C960 0.950 . S
H953 C965 0.950 . S
H954 C962 0.950 . S
H955 C964 0.950 . S
H956 C966 0.950 . S
H957 C968 0.950 . S
H958 C970 0.950 . S
H959 C971 0.950 . S
C960 H952 0.950 . S
C960 C961 1.386 . S
C960 C962 1.391 . S
C961 C960 1.386 . S
C961 C965 1.393 . S
C962 H954 0.950 . S
C962 C960 1.391 . S
C962 C963 1.400 . S
C963 C962 1.400 . S
C963 C964 1.398 . S
C963 C969 1.491 . S
C964 H955 0.950 . S
C964 C963 1.398 . S
C964 C965 1.391 . S
C965 H953 0.950 . S
C965 C961 1.393 . S
C965 C964 1.391 . S
C966 H956 0.950 . S
C966 C967 1.386 . S
C966 C968 1.391 . S
C967 C966 1.386 . S
C967 C971 1.393 . S
C968 H957 0.950 . S
C968 C966 1.391 . S
C968 C969 1.400 . S
C969 C963 1.491 . S
C969 C968 1.400 . S
C969 C970 1.398 . S
C970 H958 0.950 . S
C970 C969 1.398 . S
C970 C971 1.391 . S
C971 H959 0.950 . S
C971 C967 1.393 . S
C971 C970 1.391 . S
H972 C980 0.950 . S
H973 C985 0.950 . S
H974 C982 0.950 . S
H975 C984 0.950 . S
H976 C986 0.950 . S
H977 C988 0.950 . S
H978 C990 0.950 . S
H979 C991 0.950 . S
C980 H972 0.950 . S
C980 C981 1.386 . S
C980 C982 1.391 . S
C981 C980 1.386 . S
C981 C985 1.393 . S
C982 H974 0.950 . S
C982 C980 1.391 . S
C982 C983 1.400 . S
C983 C982 1.400 . S
C983 C984 1.398 . S
C983 C989 1.491 . S
C984 H975 0.950 . S
C984 C983 1.398 . S
C984 C985 1.391 . S
C985 H973 0.950 . S
C985 C981 1.393 . S
C985 C984 1.391 . S
C986 H976 0.950 . S
C986 C987 1.386 . S
C986 C988 1.391 . S
C987 C986 1.386 . S
C987 C991 1.393 . S
C988 H977 0.950 . S
C988 C986 1.391 . S
C988 C989 1.400 . S
C989 C983 1.491 . S
C989 C988 1.400 . S
C989 C990 1.398 . S
C990 H978 0.950 . S
C990 C989 1.398 . S
C990 C991 1.391 . S
C991 H979 0.950 . S
C991 C987 1.393 . S
C991 C990 1.391 . S
H992 C1000 0.950 . S
H993 C1005 0.950 . S
H994 C1002 0.950 . S
H995 C1004 0.950 . S
H996 C1006 0.950 . S
H997 C1008 0.950 . S
H998 C1010 0.950 . S
H999 C1011 0.950 . S
C1000 H992 0.950 . S
C1000 C1001 1.386 . S
C1000 C1002 1.391 . S
C1001 C1000 1.386 . S
C1001 C1005 1.393 . S
C1002 H994 0.950 . S
C1002 C1000 1.391 . S
C1002 C1003 1.400 . S
C1003 C1002 1.400 . S
C1003 C1004 1.398 . S
C1003 C1009 1.491 . S
C1004 H995 0.950 . S
C1004 C1003 1.398 . S
C1004 C1005 1.391 . S
C1005 H993 0.950 . S
C1005 C1001 1.393 . S
C1005 C1004 1.391 . S
C1006 H996 0.950 . S
C1006 C1007 1.386 . S
C1006 C1008 1.391 . S
C1007 C1006 1.386 . S
C1007 C1011 1.393 . S
C1008 H997 0.950 . S
C1008 C1006 1.391 . S
C1008 C1009 1.400 . S
C1009 C1003 1.491 . S
C1009 C1008 1.400 . S
C1009 C1010 1.398 . S
C1010 H998 0.950 . S
C1010 C1009 1.398 . S
C1010 C1011 1.391 . S
C1011 H999 0.950 . S
C1011 C1007 1.393 . S
C1011 C1010 1.391 . S
H1012 C1020 0.950 . S
H1013 C1025 0.950 . S
H1014 C1022 0.950 . S
H1015 C1024 0.950 . S
H1016 C1026 0.950 . S
H1017 C1028 0.950 . S
H1018 C1030 0.950 . S
H1019 C1031 0.950 . S
C1020 H1012 0.950 . S
C1020 C1021 1.386 . S
C1020 C1022 1.391 . S
C1021 C1020 1.386 . S
C1021 C1025 1.393 . S
C1022 H1014 0.950 . S
C1022 C1020 1.391 . S
C1022 C1023 1.400 . S
C1023 C1022 1.400 . S
C1023 C1024 1.398 . S
C1023 C1029 1.491 . S
C1024 H1015 0.950 . S
C1024 C1023 1.398 . S
C1024 C1025 1.391 . S
C1025 H1013 0.950 . S
C1025 C1021 1.393 . S
C1025 C1024 1.391 . S
C1026 H1016 0.950 . S
C1026 C1027 1.386 . S
C1026 C1028 1.391 . S
C1027 C1026 1.386 . S
C1027 C1031 1.393 . S
C1028 H1017 0.950 . S
C1028 C1026 1.391 . S
C1028 C1029 1.400 . S
C1029 C1023 1.491 . S
C1029 C1028 1.400 . S
C1029 C1030 1.398 . S
C1030 H1018 0.950 . S
C1030 C1029 1.398 . S
C1030 C1031 1.391 . S
C1031 H1019 0.950 . S
C1031 C1027 1.393 . S
C1031 C1030 1.391 . S
H1032 C1040 0.950 . S
H1033 C1045 0.950 . S
H1034 C1042 0.950 . S
H1035 C1044 0.950 . S
H1036 C1046 0.950 . S
H1037 C1048 0.950 . S
H1038 C1050 0.950 . S
H1039 C1051 0.950 . S
C1040 H1032 0.950 . S
C1040 C1041 1.386 . S
C1040 C1042 1.391 . S
C1041 C1040 1.386 . S
C1041 C1045 1.393 . S
C1042 H1034 0.950 . S
C1042 C1040 1.391 . S
C1042 C1043 1.400 . S
C1043 C1042 1.400 . S
C1043 C1044 1.398 . S
C1043 C1049 1.491 . S
C1044 H1035 0.950 . S
C1044 C1043 1.398 . S
C1044 C1045 1.391 . S
C1045 H1033 0.950 . S
C1045 C1041 1.393 . S
C1045 C1044 1.391 . S
C1046 H1036 0.950 . S
C1046 C1047 1.386 . S
C1046 C1048 1.391 . S
C1047 C1046 1.386 . S
C1047 C1051 1.393 . S
C1048 H1037 0.950 . S
C1048 C1046 1.391 . S
C1048 C1049 1.400 . S
C1049 C1043 1.491 . S
C1049 C1048 1.400 . S
C1049 C1050 1.398 . S
C1050 H1038 0.950 . S
C1050 C1049 1.398 . S
C1050 C1051 1.391 . S
C1051 H1039 0.950 . S
C1051 C1047 1.393 . S
C1051 C1050 1.391 . S
H1052 C1060 0.950 . S
H1053 C1065 0.950 . S
H1054 C1062 0.950 . S
H1055 C1064 0.950 . S
H1056 C1066 0.950 . S
H1057 C1068 0.950 . S
H1058 C1070 0.950 . S
H1059 C1071 0.950 . S
C1060 H1052 0.950 . S
C1060 C1061 1.386 . S
C1060 C1062 1.391 . S
C1061 C1060 1.386 . S
C1061 C1065 1.393 . S
C1062 H1054 0.950 . S
C1062 C1060 1.391 . S
C1062 C1063 1.400 . S
C1063 C1062 1.400 . S
C1063 C1064 1.398 . S
C1063 C1069 1.491 . S
C1064 H1055 0.950 . S
C1064 C1063 1.398 . S
C1064 C1065 1.391 . S
C1065 H1053 0.950 . S
C1065 C1061 1.393 . S
C1065 C1064 1.391 . S
C1066 H1056 0.950 . S
C1066 C1067 1.386 . S
C1066 C1068 1.391 . S
C1067 C1066 1.386 . S
C1067 C1071 1.393 . S
C1068 H1057 0.950 . S
C1068 C1066 1.391 . S
C1068 C1069 1.400 . S
C1069 C1063 1.491 . S
C1069 C1068 1.400 . S
C1069 C1070 1.398 . S
C1070 H1058 0.950 . S
C1070 C1069 1.398 . S
C1070 C1071 1.391 . S
C1071 H1059 0.950 . S
C1071 C1067 1.393 . S
C1071 C1070 1.391 . S
H1072 C1080 0.950 . S
H1073 C1085 0.950 . S
H1074 C1082 0.950 . S
H1075 C1084 0.950 . S
H1076 C1086 0.950 . S
H1077 C1088 0.950 . S
H1078 C1090 0.950 . S
H1079 C1091 0.950 . S
C1080 H1072 0.950 . S
C1080 C1081 1.386 . S
C1080 C1082 1.391 . S
C1081 C1080 1.386 . S
C1081 C1085 1.393 . S
C1082 H1074 0.950 . S
C1082 C1080 1.391 . S
C1082 C1083 1.400 . S
C1083 C1082 1.400 . S
C1083 C1084 1.398 . S
C1083 C1089 1.491 . S
C1084 H1075 0.950 . S
C1084 C1083 1.398 . S
C1084 C1085 1.391 . S
C1085 H1073 0.950 . S
C1085 C1081 1.393 . S
C1085 C1084 1.391 . S
C1086 H1076 0.950 . S
C1086 C1087 1.386 . S
C1086 C1088 1.391 . S
C1087 C1086 1.386 . S
C1087 C1091 1.393 . S
C1088 H1077 0.950 . S
C1088 C1086 1.391 . S
C1088 C1089 1.400 . S
C1089 C1083 1.491 . S
C1089 C1088 1.400 . S
C1089 C1090 1.398 . S
C1090 H1078 0.950 . S
C1090 C1089 1.398 . S
C1090 C1091 1.391 . S
C1091 H1079 0.950 . S
C1091 C1087 1.393 . S
C1091 C1090 1.391 . S
H1092 C1100 0.950 . S
H1093 C1105 0.950 . S
H1094 C1102 0.950 . S
H1095 C1104 0.950 . S
H1096 C1106 0.950 . S
H1097 C1108 0.950 . S
H1098 C1110 0.950 . S
H1099 C1111 0.950 . S
C1100 H1092 0.950 . S
C1100 C1101 1.386 . S
C1100 C1102 1.391 . S
C1101 C1100 1.386 . S
C1101 C1105 1.393 . S
C1102 H1094 0.950 . S
C1102 C1100 1.391 . S
C1102 C1103 1.400 . S
C1103 C1102 1.400 . S
C1103 C1104 1.398 . S
C1103 C1109 1.491 . S
C1104 H1095 0.950 . S
C1104 C1103 1.398 . S
C1104 C1105 1.391 . S
C1105 H1093 0.950 . S
C1105 C1101 1.393 . S
C1105 C1104 1.391 . S
C1106 H1096 0.950 . S
C1106 C1107 1.386 . S
C1106 C1108 1.391 . S
C1107 C1106 1.386 . S
C1107 C1111 1.393 . S
C1108 H1097 0.950 . S
C1108 C1106 1.391 . S
C1108 C1109 1.400 . S
C1109 C1103 1.491 . S
C1109 C1108 1.400 . S
C1109 C1110 1.398 . S
C1110 H1098 0.950 . S
C1110 C1109 1.398 . S
C1110 C1111 1.391 . S
C1111 H1099 0.950 . S
C1111 C1107 1.393 . S
C1111 C1110 1.391 . S
C487 C384 1.323 . S
C481 C8 1.321 . S
C507 C398 1.313 . S
C501 C61 1.307 . S
C527 C411 1.328 . S
C521 C107 1.310 . S
C541 C139 1.324 . S
C547 C378 1.324 . S
C561 C192 1.331 . S
C567 C371 1.332 . S
C581 C238 1.326 . S
C587 C391 1.326 . S
C607 C399 1.318 . S
C601 C284 1.321 . S
C627 C412 1.331 . S
C621 C330 1.307 . S
C641 C100 1.306 . S
C647 C438 1.320 . S
C667 C456 1.315 . S
C661 C160 1.302 . S
C681 C15 1.316 . S
C687 C463 1.318 . S
C707 C430 1.332 . S
C701 C54 1.312 . S
C721 C291 1.310 . S
C727 C423 1.338 . S
C741 C337 1.310 . S
C747 C437 1.326 . S
C767 C449 1.324 . S
C761 C199 1.302 . S
C781 C245 1.315 . S
C787 C464 1.332 . S
C807 C397 1.740 . S
C801 C1 1.751 . S
C827 C410 1.738 . S
C821 C68 1.737 . S
C841 C114 1.737 . S
C847 C373 1.737 . S
C861 C146 1.747 . S
C867 C385 1.719 . S
C881 C185 1.742 . S
C887 C417 1.715 . S
C907 C372 1.725 . S
C901 C231 1.737 . S
C927 C386 1.730 . S
C921 C277 1.751 . S
C947 C404 1.721 . S
C941 C323 1.748 . S
C967 C451 1.727 . S
C961 C93 1.751 . S
C987 C462 1.741 . S
C981 C153 1.739 . S
C1001 C22 1.737 . S
C1007 C425 1.723 . S
C1027 C443 1.720 . S
C1021 C47 1.737 . S
C1047 C469 1.717 . S
C1041 C298 1.735 . S
C1061 C344 1.736 . S
C1067 C424 1.721 . S
C1087 C436 1.738 . S
C1081 C206 1.737 . S
C1107 C450 1.727 . S
C1101 C252 1.739 . S
