# Generated by pormake.
# Topology dag, (6,3)-cn, num edge types: 1
# Building blocks:
#     Node 0, Type 0, BuildingBlock: OJICUG_clean_sbu_0, # of connection points: 6
#     Node 1, Type 0, BuildingBlock: OJICUG_clean_sbu_0, # of connection points: 6
#     Node 2, Type 0, BuildingBlock: OJICUG_clean_sbu_0, # of connection points: 6
#     Node 3, Type 0, BuildingBlock: OJICUG_clean_sbu_0, # of connection points: 6
#     Node 4, Type 1, BuildingBlock: MIDCAF_clean_linker_0, # of connection points: 3
#     Node 5, Type 1, BuildingBlock: MIDCAF_clean_linker_0, # of connection points: 3
#     Node 6, Type 1, BuildingBlock: MIDCAF_clean_linker_0, # of connection points: 3
#     Node 7, Type 1, BuildingBlock: MIDCAF_clean_linker_0, # of connection points: 3
#     Node 8, Type 1, BuildingBlock: MIDCAF_clean_linker_0, # of connection points: 3
#     Node 9, Type 1, BuildingBlock: MIDCAF_clean_linker_0, # of connection points: 3
#     Node 10, Type 1, BuildingBlock: MIDCAF_clean_linker_0, # of connection points: 3
#     Node 11, Type 1, BuildingBlock: MIDCAF_clean_linker_0, # of connection points: 3
#     Edge 12, Type (0, 1), BuildingBlock: MIFKUJ_clean_linker_0, # of connection points: 2
#     Edge 13, Type (0, 1), BuildingBlock: MIFKUJ_clean_linker_0, # of connection points: 2
#     Edge 14, Type (0, 1), BuildingBlock: MIFKUJ_clean_linker_0, # of connection points: 2
#     Edge 15, Type (0, 1), BuildingBlock: MIFKUJ_clean_linker_0, # of connection points: 2
#     Edge 16, Type (0, 1), BuildingBlock: MIFKUJ_clean_linker_0, # of connection points: 2
#     Edge 17, Type (0, 1), BuildingBlock: MIFKUJ_clean_linker_0, # of connection points: 2
#     Edge 18, Type (0, 1), BuildingBlock: MIFKUJ_clean_linker_0, # of connection points: 2
#     Edge 19, Type (0, 1), BuildingBlock: MIFKUJ_clean_linker_0, # of connection points: 2
#     Edge 20, Type (0, 1), BuildingBlock: MIFKUJ_clean_linker_0, # of connection points: 2
#     Edge 21, Type (0, 1), BuildingBlock: MIFKUJ_clean_linker_0, # of connection points: 2
#     Edge 22, Type (0, 1), BuildingBlock: MIFKUJ_clean_linker_0, # of connection points: 2
#     Edge 23, Type (0, 1), BuildingBlock: MIFKUJ_clean_linker_0, # of connection points: 2
#     Edge 24, Type (0, 1), BuildingBlock: MIFKUJ_clean_linker_0, # of connection points: 2
#     Edge 25, Type (0, 1), BuildingBlock: MIFKUJ_clean_linker_0, # of connection points: 2
#     Edge 26, Type (0, 1), BuildingBlock: MIFKUJ_clean_linker_0, # of connection points: 2
#     Edge 27, Type (0, 1), BuildingBlock: MIFKUJ_clean_linker_0, # of connection points: 2
#     Edge 28, Type (0, 1), BuildingBlock: MIFKUJ_clean_linker_0, # of connection points: 2
#     Edge 29, Type (0, 1), BuildingBlock: MIFKUJ_clean_linker_0, # of connection points: 2
#     Edge 30, Type (0, 1), BuildingBlock: MIFKUJ_clean_linker_0, # of connection points: 2
#     Edge 31, Type (0, 1), BuildingBlock: MIFKUJ_clean_linker_0, # of connection points: 2
#     Edge 32, Type (0, 1), BuildingBlock: MIFKUJ_clean_linker_0, # of connection points: 2
#     Edge 33, Type (0, 1), BuildingBlock: MIFKUJ_clean_linker_0, # of connection points: 2
#     Edge 34, Type (0, 1), BuildingBlock: MIFKUJ_clean_linker_0, # of connection points: 2
#     Edge 35, Type (0, 1), BuildingBlock: MIFKUJ_clean_linker_0, # of connection points: 2
# Relax obj value: 0.257
# Max RMSD: 0.201
# Mean RMSD: 0.165
data_MOF--net-dag--node1-OJICUG_clean_sbu_0--node2-MIDCAF_clean_linker_0--edge1-MIFKUJ_clean_linker_0
_symmetry_space_group_name_H-M    P1
_symmetry_Int_Tables_number       1
_symmetry_cell_setting            triclinic
loop_
_symmetry_equiv_pos_as_xyz
'x, y, z'
_cell_length_a     56.573331
_cell_length_b     54.115734
_cell_length_c     55.497451
_cell_angle_alpha  89.804162
_cell_angle_beta   95.155291
_cell_angle_gamma 89.921674
loop_
_atom_site_label
_atom_site_type_symbol
_atom_site_fract_x
_atom_site_fract_y
_atom_site_fract_z
_atom_type_partial_charge
Sc0 Sc 0.1495 0.86589 0.02947 0.0
Sc1 Sc 0.16853 0.81345 0.99958 0.0
Sc2 Sc 0.2107 0.85328 0.03025 0.0
O3 O 0.1763 0.84417 0.01977 0.0
C4 C 0.18831 0.90615 0.01754 0.0
C5 C 0.13167 0.85312 0.97503 0.0
C6 C 0.21386 0.83453 0.97604 0.0
C7 C 0.12748 0.81202 0.03505 0.0
C8 C 0.18441 0.86476 0.07766 0.0
C9 C 0.21132 0.79461 0.03671 0.0
O10 O 0.16743 0.89953 0.02136 0.0
O11 O 0.14301 0.83279 0.97486 0.0
O12 O 0.22213 0.84632 0.99473 0.0
O13 O 0.12801 0.83518 0.03863 0.0
O14 O 0.2032 0.86138 0.06707 0.0
O15 O 0.19334 0.79088 0.0217 0.0
O16 O 0.16385 0.86617 0.06652 0.0
O17 O 0.14148 0.80115 0.02188 0.0
O18 O 0.21936 0.81609 0.04182 0.0
O19 O 0.13264 0.86723 0.99333 0.0
O20 O 0.20587 0.89139 0.01954 0.0
O21 O 0.19471 0.8222 0.97528 0.0
Sc22 Sc 0.71816 0.64587 0.53229 0.0
Sc23 Sc 0.67631 0.68729 0.50301 0.0
Sc24 Sc 0.65686 0.63322 0.53017 0.0
O25 O 0.68381 0.65547 0.52186 0.0
C26 C 0.69557 0.59337 0.51795 0.0
C27 C 0.72135 0.66616 0.47867 0.0
C28 C 0.63947 0.64946 0.4762 0.0
C29 C 0.71896 0.70448 0.5405 0.0
C30 C 0.69167 0.63239 0.57895 0.0
C31 C 0.63504 0.68673 0.5384 0.0
O32 O 0.71327 0.60752 0.52259 0.0
O33 O 0.70323 0.68 0.47916 0.0
O34 O 0.63965 0.63473 0.4941 0.0
O35 O 0.72765 0.68292 0.54372 0.0
O36 O 0.67152 0.62967 0.56713 0.0
O37 O 0.64855 0.69806 0.525 0.0
O38 O 0.71035 0.63821 0.56905 0.0
O39 O 0.70026 0.70879 0.52669 0.0
O40 O 0.63596 0.66349 0.54166 0.0
O41 O 0.72893 0.65232 0.49631 0.0
O42 O 0.67429 0.60024 0.51945 0.0
O43 O 0.6515 0.66933 0.47684 0.0
Sc44 Sc 0.8258 0.19299 0.09236 0.0
Sc45 Sc 0.78488 0.15028 0.06422 0.0
Sc46 Sc 0.84631 0.13778 0.06856 0.0
O47 O 0.81895 0.16038 0.07494 0.0
C48 C 0.86768 0.1913 0.05812 0.0
C49 C 0.7829 0.20846 0.05396 0.0
C50 C 0.81279 0.13491 0.01898 0.0
C51 C 0.78125 0.17174 0.11733 0.0
C52 C 0.8625 0.15643 0.12163 0.0
C53 C 0.80738 0.09829 0.08114 0.0
O54 O 0.85287 0.20337 0.06938 0.0
O55 O 0.77515 0.1866 0.05071 0.0
O56 O 0.83281 0.13308 0.03134 0.0
O57 O 0.79958 0.18527 0.11697 0.0
O58 O 0.8618 0.14005 0.10525 0.0
O59 O 0.78971 0.11245 0.076 0.0
O60 O 0.85154 0.1769 0.11898 0.0
O61 O 0.77332 0.15841 0.09952 0.0
O62 O 0.82865 0.105 0.07948 0.0
O63 O 0.80095 0.21346 0.06838 0.0
O64 O 0.86783 0.16781 0.05715 0.0
O65 O 0.79378 0.14095 0.02822 0.0
Sc66 Sc 0.34534 0.36242 0.56055 0.0
Sc67 Sc 0.28626 0.34428 0.564 0.0
Sc68 Sc 0.33332 0.30748 0.59031 0.0
O69 O 0.32155 0.33792 0.57151 0.0
C70 C 0.37329 0.31146 0.55484 0.0
C71 C 0.30887 0.35828 0.51455 0.0
C72 C 0.28976 0.28622 0.55582 0.0
C73 C 0.30373 0.39867 0.57369 0.0
C74 C 0.36582 0.35116 0.6141 0.0
C75 C 0.28908 0.32394 0.61828 0.0
O76 O 0.37132 0.33481 0.55344 0.0
O77 O 0.29108 0.35532 0.52691 0.0
O78 O 0.30873 0.28346 0.56973 0.0
O79 O 0.32375 0.3945 0.56588 0.0
O80 O 0.35898 0.32871 0.613 0.0
O81 O 0.27804 0.33461 0.60013 0.0
O82 O 0.36101 0.36663 0.59701 0.0
O83 O 0.28868 0.38182 0.57644 0.0
O84 O 0.30919 0.31368 0.61738 0.0
O85 O 0.33026 0.35909 0.52385 0.0
O86 O 0.35902 0.2981 0.56549 0.0
O87 O 0.27987 0.30709 0.55152 0.0
C88 C 0.02855 0.04981 0.309 0.0
C89 C 0.01912 0.07182 0.31757 0.0
C90 C 0.03065 0.08297 0.33825 0.0
C91 C 0.05164 0.0729 0.34947 0.0
H92 H 0.11116 0.0941 0.39109 0.0
H93 H 0.13564 0.11977 0.41888 0.0
H94 H 0.18684 0.06054 0.4301 0.0
H95 H 0.16264 0.035 0.4014 0.0
H96 H 0.16377 -2e-05 0.35052 0.0
H97 H 0.18119 0.9687 0.32576 0.0
H98 H 0.11118 0.94979 0.2936 0.0
H99 H 0.09385 0.98038 0.31845 0.0
H100 H 0.05643 0.02312 0.31263 0.0
H101 H 0.0204 0.04089 0.29291 0.0
H102 H 0.02368 0.09974 0.34554 0.0
H103 H 0.06035 0.08232 0.36499 0.0
N104 N 0.09816 0.05492 0.36781 0.0
N105 N 0.12978 0.02702 0.36601 0.0
N106 N 0.09459 0.02171 0.3409 0.0
C107 C 0.12046 0.04746 0.37583 0.0
C108 C 0.11685 0.01397 0.34858 0.0
C109 C 0.08506 0.0421 0.3504 0.0
C110 C 0.13492 0.06245 0.39392 0.0
C111 C 0.12755 0.0864 0.39955 0.0
C112 C 0.14157 0.10114 0.41567 0.0
C113 C 0.16322 0.09225 0.42686 0.0
C114 C 0.17043 0.06812 0.42156 0.0
C115 C 0.15649 0.05342 0.4052 0.0
C116 C 0.12742 0.99292 0.33629 0.0
C117 C 0.15208 0.98879 0.33851 0.0
C118 C 0.16209 0.97098 0.32423 0.0
C119 C 0.14761 0.95681 0.30763 0.0
C120 C 0.12288 0.9601 0.3064 0.0
C121 C 0.11293 0.97789 0.32053 0.0
C122 C 0.06154 0.05141 0.34029 0.0
C123 C 0.04942 0.0397 0.32025 0.0
C124 C 0.31536 0.66251 0.62577 0.0
C125 C 0.29722 0.65185 0.63806 0.0
C126 C 0.28866 0.66484 0.6574 0.0
C127 C 0.29859 0.68758 0.66475 0.0
H128 H 0.29887 0.73931 0.71788 0.0
H129 H 0.28912 0.7567 0.756 0.0
H130 H 0.34658 0.8089 0.75414 0.0
H131 H 0.35638 0.79169 0.71564 0.0
H132 H 0.39287 0.78583 0.67472 0.0
H133 H 0.43103 0.79461 0.65912 0.0
H134 H 0.41942 0.73451 0.60835 0.0
H135 H 0.38137 0.72635 0.62313 0.0
H136 H 0.33957 0.69237 0.62344 0.0
H137 H 0.32272 0.65286 0.61109 0.0
H138 H 0.27454 0.65724 0.6671 0.0
H139 H 0.29196 0.69682 0.68007 0.0
N140 N 0.32295 0.73235 0.68185 0.0
N141 N 0.35487 0.75993 0.6807 0.0
N142 N 0.34914 0.72855 0.6518 0.0
C143 C 0.33535 0.75215 0.69122 0.0
C144 C 0.36182 0.74822 0.66088 0.0
C145 C 0.32969 0.7205 0.66207 0.0
C146 C 0.32856 0.76394 0.71368 0.0
C147 C 0.30944 0.75457 0.72542 0.0
C148 C 0.30391 0.76442 0.7474 0.0
C149 C 0.31729 0.78393 0.7582 0.0
C150 C 0.33595 0.79388 0.7462 0.0
C151 C 0.34158 0.78394 0.72418 0.0
C152 C 0.38403 0.75528 0.65031 0.0
C153 C 0.39835 0.77473 0.65999 0.0
C154 C 0.42029 0.77969 0.65115 0.0
C155 C 0.42836 0.76529 0.63247 0.0
C156 C 0.41368 0.74634 0.6224 0.0
C157 C 0.39181 0.74149 0.6311 0.0
C158 C 0.31732 0.69777 0.65294 0.0
C159 C 0.32522 0.68517 0.63305 0.0
C160 C 0.78607 0.71074 0.22991 0.0
C161 C 0.80197 0.69759 0.24619 0.0
C162 C 0.82567 0.69494 0.24076 0.0
C163 C 0.83346 0.70607 0.22009 0.0
H164 H 0.88776 0.70596 0.1724 0.0
H165 H 0.92677 0.6989 0.15795 0.0
H166 H 0.91251 0.75614 0.1041 0.0
H167 H 0.87368 0.7627 0.1179 0.0
H168 H 0.82499 0.79402 0.11568 0.0
H169 H 0.81162 0.83616 0.10626 0.0
H170 H 0.78287 0.84095 0.17553 0.0
H171 H 0.79592 0.79862 0.18495 0.0
H172 H 0.78131 0.73265 0.19772 0.0
H173 H 0.76755 0.71259 0.2331 0.0
H174 H 0.83847 0.68515 0.25296 0.0
H175 H 0.85198 0.70437 0.21682 0.0
N176 N 0.84663 0.72768 0.17452 0.0
N177 N 0.84281 0.76189 0.14842 0.0
N178 N 0.81473 0.7553 0.17624 0.0
C179 C 0.85484 0.74127 0.15637 0.0
C180 C 0.82283 0.76908 0.15825 0.0
C181 C 0.82639 0.73446 0.1843 0.0
C182 C 0.87758 0.73503 0.14645 0.0
C183 C 0.89283 0.71676 0.15724 0.0
C184 C 0.91525 0.7128 0.14906 0.0
C185 C 0.9228 0.72695 0.12987 0.0
C186 C 0.9072 0.7446 0.11865 0.0
C187 C 0.88491 0.74854 0.12677 0.0
C188 C 0.81165 0.79305 0.15112 0.0
C189 C 0.81542 0.80387 0.12872 0.0
C190 C 0.80766 0.82793 0.12325 0.0
C191 C 0.7963 0.84175 0.14022 0.0
C192 C 0.79165 0.83064 0.1622 0.0
C193 C 0.79904 0.8064 0.16751 0.0
C194 C 0.81779 0.72032 0.20462 0.0
C195 C 0.79393 0.72214 0.20951 0.0
C196 C 0.66465 0.42245 0.91199 0.0
C197 C 0.65323 0.40309 0.92326 0.0
C198 C 0.62836 0.40158 0.92001 0.0
C199 C 0.61526 0.41841 0.90509 0.0
H200 H 0.55064 0.42271 0.86506 0.0
H201 H 0.51266 0.40845 0.84569 0.0
H202 H 0.51137 0.47037 0.79618 0.0
H203 H 0.54853 0.48498 0.81583 0.0
H204 H 0.5923 0.51298 0.80836 0.0
H205 H 0.61191 0.54163 0.78356 0.0
H206 H 0.67672 0.53395 0.83058 0.0
H207 H 0.65711 0.50403 0.85519 0.0
H208 H 0.66098 0.45362 0.88812 0.0
H209 H 0.68381 0.42403 0.91398 0.0
H210 H 0.61898 0.38718 0.92883 0.0
H211 H 0.59616 0.41633 0.90268 0.0
N212 N 0.58977 0.4483 0.86851 0.0
N213 N 0.58824 0.4809 0.84069 0.0
N214 N 0.62364 0.47257 0.86454 0.0
C215 C 0.57729 0.46197 0.8512 0.0
C216 C 0.61131 0.48644 0.8472 0.0
C217 C 0.61291 0.45354 0.8754 0.0
C218 C 0.55285 0.45487 0.84187 0.0
C219 C 0.54201 0.43353 0.85034 0.0
C220 C 0.52029 0.42527 0.83916 0.0
C221 C 0.50896 0.43817 0.8193 0.0
C222 C 0.51929 0.46013 0.81167 0.0
C223 C 0.54085 0.46842 0.82285 0.0
C224 C 0.62312 0.50597 0.83378 0.0
C225 C 0.61067 0.51746 0.81371 0.0
C226 C 0.62193 0.53422 0.7995 0.0
C227 C 0.64594 0.54033 0.80505 0.0
C228 C 0.65828 0.52948 0.8256 0.0
C229 C 0.647 0.51242 0.83979 0.0
C230 C 0.62671 0.43725 0.89306 0.0
C231 C 0.65154 0.43937 0.89707 0.0
C232 C 0.61385 0.22983 0.49447 0.0
C233 C 0.59328 0.22268 0.4801 0.0
C234 C 0.59549 0.21446 0.45637 0.0
C235 C 0.61743 0.21554 0.44657 0.0
H236 H 0.66466 0.18704 0.39475 0.0
H237 H 0.67533 0.16802 0.35735 0.0
H238 H 0.7268 0.22576 0.34957 0.0
H239 H 0.71673 0.24431 0.3869 0.0
H240 H 0.71066 0.29453 0.41555 0.0
H241 H 0.72137 0.33743 0.42463 0.0
H242 H 0.70009 0.32839 0.49688 0.0
H243 H 0.68909 0.28557 0.48786 0.0
H244 H 0.65084 0.23831 0.4957 0.0
H245 H 0.61289 0.23563 0.51301 0.0
H246 H 0.58 0.2089 0.44479 0.0
H247 H 0.61828 0.21073 0.42774 0.0
N248 N 0.66495 0.22073 0.42833 0.0
N249 N 0.69454 0.25044 0.42414 0.0
N250 N 0.6706 0.25314 0.45625 0.0
C251 C 0.68315 0.22947 0.41626 0.0
C252 C 0.68843 0.26233 0.44415 0.0
C253 C 0.65877 0.23243 0.4485 0.0
C254 C 0.68981 0.21724 0.39393 0.0
C255 C 0.67836 0.19558 0.38513 0.0
C256 C 0.6844 0.18472 0.36363 0.0
C257 C 0.702 0.19528 0.3505 0.0
C258 C 0.7135 0.21681 0.35943 0.0
C259 C 0.70755 0.22759 0.38085 0.0
C260 C 0.69879 0.28671 0.45092 0.0
C261 C 0.70873 0.30149 0.43355 0.0
C262 C 0.71476 0.32607 0.43867 0.0
C263 C 0.7114 0.33619 0.46138 0.0
C264 C 0.70297 0.32098 0.47927 0.0
C265 C 0.69656 0.29652 0.47404 0.0
C266 C 0.63742 0.22512 0.46026 0.0
C267 C 0.63563 0.23124 0.4846 0.0
C268 C 0.20783 0.28594 0.85986 0.0
C269 C 0.196 0.30597 0.84795 0.0
C270 C 0.17515 0.31502 0.85681 0.0
C271 C 0.16617 0.304 0.87696 0.0
H272 H 0.10587 0.30122 0.91873 0.0
H273 H 0.06741 0.31003 0.93398 0.0
H274 H 0.08564 0.26143 0.99483 0.0
H275 H 0.12376 0.2534 0.98022 0.0
H276 H 0.15507 0.208 0.97266 0.0
H277 H 0.16519 0.16517 0.98173 0.0
H278 H 0.21044 0.16401 0.92311 0.0
H279 H 0.20049 0.20722 0.91396 0.0
H280 H 0.20837 0.25928 0.88824 0.0
H281 H 0.22369 0.27819 0.85326 0.0
H282 H 0.16571 0.33052 0.84807 0.0
H283 H 0.14991 0.3112 0.88315 0.0
N284 N 0.14862 0.27998 0.91912 0.0
N285 N 0.14916 0.24576 0.94518 0.0
N286 N 0.17715 0.2486 0.91685 0.0
C287 C 0.13939 0.26762 0.93749 0.0
C288 C 0.16795 0.23605 0.93502 0.0
C289 C 0.16776 0.27065 0.9089 0.0
C290 C 0.11777 0.27636 0.94809 0.0
C291 C 0.1018 0.29295 0.93566 0.0
C292 C 0.07972 0.29784 0.94431 0.0
C293 C 0.07332 0.28638 0.9656 0.0
C294 C 0.08995 0.27095 0.97861 0.0
C295 C 0.11184 0.26608 0.97002 0.0
C296 C 0.17668 0.21103 0.94232 0.0
C297 C 0.16736 0.19881 0.96176 0.0
C298 C 0.17308 0.17419 0.96694 0.0
C299 C 0.18827 0.16114 0.95287 0.0
C300 C 0.19867 0.17364 0.93427 0.0
C301 C 0.19291 0.19837 0.92901 0.0
C302 C 0.17778 0.28358 0.88851 0.0
C303 C 0.19886 0.27491 0.87985 0.0
C304 C 0.3629 0.60097 0.17184 0.0
C305 C 0.33809 0.59943 0.16763 0.0
C306 C 0.32606 0.58108 0.17969 0.0
C307 C 0.33851 0.5652 0.19627 0.0
H308 H 0.32953 0.51112 0.24879 0.0
H309 H 0.31002 0.48112 0.27347 0.0
H310 H 0.37858 0.45515 0.30385 0.0
H311 H 0.39799 0.4847 0.27926 0.0
H312 H 0.44184 0.52143 0.27962 0.0
H313 H 0.47871 0.53731 0.29972 0.0
H314 H 0.47183 0.60316 0.2555 0.0
H315 H 0.43482 0.58747 0.23539 0.0
H316 H 0.39439 0.58727 0.19146 0.0
H317 H 0.37275 0.61457 0.16248 0.0
H318 H 0.30692 0.57954 0.17698 0.0
H319 H 0.32862 0.55172 0.20575 0.0
N320 N 0.36549 0.53334 0.23112 0.0
N321 N 0.40018 0.52625 0.25669 0.0
N322 N 0.39912 0.55809 0.228 0.0
C323 C 0.3774 0.52014 0.24927 0.0
C324 C 0.41117 0.54522 0.24619 0.0
C325 C 0.37636 0.55221 0.22023 0.0
C326 C 0.36534 0.50044 0.26216 0.0
C327 C 0.34042 0.49874 0.26047 0.0
C328 C 0.32923 0.48166 0.27467 0.0
C329 C 0.34275 0.46576 0.29059 0.0
C330 C 0.36763 0.46688 0.29154 0.0
C331 C 0.37878 0.48402 0.27756 0.0
C332 C 0.43515 0.55328 0.25606 0.0
C333 C 0.4483 0.53915 0.27389 0.0
C334 C 0.46956 0.54815 0.2853 0.0
C335 C 0.47809 0.57153 0.27925 0.0
C336 C 0.46555 0.58518 0.26068 0.0
C337 C 0.44438 0.5761 0.24911 0.0
C338 C 0.36324 0.56741 0.20117 0.0
C339 C 0.37532 0.5852 0.18842 0.0
C340 C 0.86258 0.04704 0.78297 0.0
C341 C 0.83785 0.04557 0.78366 0.0
C342 C 0.825 0.02886 0.76819 0.0
C343 C 0.83681 0.013 0.75337 0.0
H344 H 0.82699 0.95674 0.70263 0.0
H345 H 0.80602 0.92536 0.67763 0.0
H346 H 0.87291 0.89111 0.66544 0.0
H347 H 0.89385 0.92202 0.69075 0.0
H348 H 0.93307 0.92603 0.73759 0.0
H349 H 0.9689 0.91291 0.76171 0.0
H350 H 0.97692 0.98626 0.79186 0.0
H351 H 0.9406 0.9992 0.76833 0.0
H352 H 0.89354 0.03214 0.76908 0.0
H353 H 0.87308 0.05946 0.79485 0.0
H354 H 0.8059 0.02746 0.76817 0.0
H355 H 0.8265 0.99961 0.74245 0.0
N356 N 0.86324 0.97865 0.72526 0.0
N357 N 0.89796 0.9551 0.72385 0.0
N358 N 0.89785 0.98943 0.74933 0.0
C359 C 0.87487 0.95936 0.71595 0.0
C360 C 0.90961 0.97009 0.74048 0.0
C361 C 0.87472 0.99391 0.74183 0.0
C362 C 0.86212 0.94181 0.69894 0.0
C363 C 0.83726 0.94266 0.69446 0.0
C364 C 0.82522 0.92471 0.68004 0.0
C365 C 0.83778 0.90558 0.66974 0.0
C366 C 0.86267 0.90529 0.67352 0.0
C367 C 0.87469 0.92313 0.68796 0.0
C368 C 0.93369 0.96355 0.75136 0.0
C369 C 0.94269 0.93952 0.749 0.0
C370 C 0.96336 0.932 0.76278 0.0
C371 C 0.97559 0.94841 0.77906 0.0
C372 C 0.96758 0.97297 0.77996 0.0
C373 C 0.94681 0.98043 0.76637 0.0
C374 C 0.86172 0.0134 0.75394 0.0
C375 C 0.87436 0.03115 0.76832 0.0
H376 H 0.1551 0.84506 0.10851 0.0
H377 H 0.15431 0.85372 0.15157 0.0
H378 H 0.2158 0.90057 0.14931 0.0
H379 H 0.21741 0.89068 0.10633 0.0
H380 H 0.21721 0.87894 0.1919 0.0
H381 H 0.15811 0.92402 0.14236 0.0
H382 H 0.12437 0.9294 0.11142 0.0
H383 H 0.08067 0.88451 0.15334 0.0
H384 H 0.11427 0.87854 0.18437 0.0
H385 H 0.18627 0.96565 0.28253 0.0
H386 H 0.19818 0.94275 0.24771 0.0
H387 H 0.14374 0.88872 0.25686 0.0
H388 H 0.13206 0.91116 0.29206 0.0
H389 H 0.1396 0.91201 0.21211 0.0
H390 H 0.19994 0.87128 0.26413 0.0
H391 H 0.23433 0.86895 0.29467 0.0
H392 H 0.27634 0.91016 0.24791 0.0
H393 H 0.24209 0.91305 0.21722 0.0
C394 C 0.1687 0.85685 0.11734 0.0
C395 C 0.18614 0.8675 0.10415 0.0
C396 C 0.16819 0.86187 0.14191 0.0
C397 C 0.18455 0.87842 0.15352 0.0
C398 C 0.20289 0.88789 0.1407 0.0
C399 C 0.20379 0.8823 0.11618 0.0
C400 C 0.18122 0.88737 0.17827 0.0
C401 C 0.20031 0.88635 0.19629 0.0
C402 C 0.15909 0.89689 0.18409 0.0
C403 C 0.13877 0.90063 0.16556 0.0
C404 C 0.14134 0.91517 0.1449 0.0
C405 C 0.12225 0.91832 0.12735 0.0
C406 C 0.10041 0.90724 0.13037 0.0
C407 C 0.0976 0.89305 0.151 0.0
C408 C 0.11667 0.88978 0.16858 0.0
C409 C 0.17738 0.94842 0.2777 0.0
C410 C 0.15799 0.9404 0.28989 0.0
C411 C 0.18419 0.93538 0.25774 0.0
C412 C 0.17175 0.91412 0.24967 0.0
C413 C 0.15348 0.90516 0.26277 0.0
C414 C 0.14676 0.91808 0.28279 0.0
C415 C 0.17548 0.90334 0.22581 0.0
C416 C 0.15644 0.90429 0.20783 0.0
C417 C 0.19773 0.89429 0.22003 0.0
C418 C 0.21836 0.89257 0.23846 0.0
C419 C 0.21644 0.88004 0.26044 0.0
C420 C 0.23593 0.87858 0.27776 0.0
C421 C 0.25749 0.88945 0.27326 0.0
C422 C 0.25962 0.90176 0.25139 0.0
C423 C 0.24018 0.90329 0.23401 0.0
H424 H 0.27256 0.88829 0.28669 0.0
H425 H 0.08565 0.9097 0.11676 0.0
H426 H 0.63243 0.73704 0.544 0.0
H427 H 0.60296 0.76028 0.56451 0.0
H428 H 0.5678 0.69211 0.58011 0.0
H429 H 0.59737 0.66884 0.56043 0.0
H430 H 0.55767 0.76626 0.55573 0.0
H431 H 0.54384 0.69327 0.63176 0.0
H432 H 0.56849 0.66408 0.65735 0.0
H433 H 0.63049 0.70739 0.64774 0.0
H434 H 0.60619 0.73712 0.62253 0.0
H435 H 0.4419 0.76166 0.58647 0.0
H436 H 0.48203 0.75878 0.57453 0.0
H437 H 0.51005 0.775 0.64769 0.0
H438 H 0.46975 0.77598 0.66019 0.0
H439 H 0.53192 0.73817 0.63441 0.0
H440 H 0.51752 0.81543 0.5978 0.0
H441 H 0.49612 0.84844 0.57412 0.0
H442 H 0.49629 0.80469 0.50975 0.0
H443 H 0.51738 0.77124 0.53307 0.0
C444 C 0.61847 0.72701 0.55192 0.0
C445 C 0.61733 0.70106 0.55067 0.0
C446 C 0.60166 0.74033 0.56363 0.0
C447 C 0.58341 0.72793 0.57424 0.0
C448 C 0.58209 0.70207 0.57267 0.0
C449 C 0.59896 0.68877 0.56124 0.0
C450 C 0.56502 0.74176 0.58614 0.0
C451 C 0.55215 0.76035 0.57305 0.0
C452 C 0.55853 0.73489 0.60928 0.0
C453 C 0.57315 0.7174 0.62511 0.0
C454 C 0.56269 0.69672 0.63529 0.0
C455 C 0.57662 0.68004 0.64971 0.0
C456 C 0.60105 0.68385 0.65415 0.0
C457 C 0.61158 0.70443 0.64428 0.0
C458 C 0.59773 0.7212 0.62991 0.0
C459 C 0.45656 0.76474 0.60005 0.0
C460 C 0.45254 0.76861 0.62439 0.0
C461 C 0.4796 0.76353 0.59309 0.0
C462 C 0.49923 0.76687 0.61013 0.0
C463 C 0.49524 0.77233 0.63417 0.0
C464 C 0.47213 0.77313 0.64126 0.0
C465 C 0.52356 0.76162 0.60329 0.0
C466 C 0.53767 0.74462 0.61737 0.0
C467 C 0.53167 0.77069 0.5815 0.0
C468 C 0.51901 0.79076 0.56726 0.0
C469 C 0.51288 0.81277 0.57862 0.0
C470 C 0.50082 0.83158 0.56525 0.0
C471 C 0.49484 0.82866 0.54045 0.0
C472 C 0.50096 0.80693 0.52896 0.0
C473 C 0.51302 0.78806 0.54225 0.0
H474 H 0.48549 0.84324 0.53013 0.0
H475 H 0.6118 0.67085 0.66523 0.0
H476 H 0.76925 0.06884 0.06794 0.0
H477 H 0.7638 0.02557 0.07899 0.0
H478 H 0.83001 0.0273 0.12422 0.0
H479 H 0.83611 0.07007 0.11209 0.0
H480 H 0.82936 0.98796 0.10074 0.0
H481 H 0.77209 0.02659 0.14655 0.0
H482 H 0.73799 0.05311 0.15381 0.0
H483 H 0.6925 0.00891 0.10518 0.0
H484 H 0.72642 0.98231 0.09738 0.0
H485 H 0.80991 0.87979 0.17002 0.0
H486 H 0.80739 0.92407 0.16075 0.0
H487 H 0.76999 0.90812 0.09145 0.0
H488 H 0.77295 0.86362 0.10039 0.0
H489 H 0.75454 0.95353 0.12703 0.0
H490 H 0.81625 0.91685 0.08071 0.0
H491 H 0.85137 0.8902 0.0783 0.0
H492 H 0.88955 0.9322 0.1346 0.0
H493 H 0.85447 0.95883 0.1376 0.0
C494 C 0.78253 0.05999 0.08038 0.0
C495 C 0.80313 0.07275 0.08911 0.0
C496 C 0.77934 0.03528 0.08682 0.0
C497 C 0.79634 0.02313 0.10272 0.0
C498 C 0.81667 0.03614 0.11185 0.0
C499 C 0.82014 0.06061 0.10495 0.0
C500 C 0.79366 0.99655 0.10894 0.0
C501 C 0.81301 0.98066 0.10671 0.0
C502 C 0.77229 0.98668 0.11651 0.0
C503 C 0.75185 0.00261 0.1212 0.0
C504 C 0.75485 0.02263 0.13727 0.0
C505 C 0.73555 0.03766 0.1415 0.0
C506 C 0.7131 0.03274 0.12991 0.0
C507 C 0.7099 0.01272 0.11412 0.0
C508 C 0.72916 0.99765 0.1098 0.0
C509 C 0.80069 0.88576 0.15304 0.0
C510 C 0.79161 0.86837 0.1359 0.0
C511 C 0.7993 0.91099 0.14778 0.0
C512 C 0.78849 0.91921 0.12547 0.0
C513 C 0.77828 0.90201 0.10881 0.0
C514 C 0.78007 0.8767 0.11387 0.0
C515 C 0.79012 0.94551 0.11871 0.0
C516 C 0.7707 0.96115 0.12093 0.0
C517 C 0.81152 0.95536 0.11163 0.0
C518 C 0.83269 0.93961 0.10956 0.0
C519 C 0.83206 0.92023 0.09273 0.0
C520 C 0.85197 0.90517 0.09122 0.0
C521 C 0.87266 0.90945 0.10634 0.0
C522 C 0.8735 0.92887 0.12293 0.0
C523 C 0.85362 0.94396 0.12453 0.0
H524 H 0.88805 0.89777 0.10515 0.0
H525 H 0.69818 0.04439 0.13322 0.0
H526 H 0.38586 0.32328 0.65188 0.0
H527 H 0.40599 0.33795 0.68989 0.0
H528 H 0.39467 0.4134 0.66614 0.0
H529 H 0.37511 0.39891 0.62784 0.0
H530 H 0.4376 0.40853 0.68568 0.0
H531 H 0.36151 0.38606 0.70858 0.0
H532 H 0.32673 0.35932 0.71218 0.0
H533 H 0.37027 0.30744 0.75481 0.0
H534 H 0.40542 0.33365 0.75111 0.0
H535 H 0.47026 0.4631 0.79797 0.0
H536 H 0.44102 0.44738 0.76669 0.0
H537 H 0.47016 0.37409 0.77685 0.0
H538 H 0.50012 0.38971 0.80744 0.0
H539 H 0.41616 0.37905 0.76569 0.0
H540 H 0.49284 0.40207 0.73779 0.0
H541 H 0.52593 0.43127 0.73506 0.0
H542 H 0.47761 0.4854 0.7021 0.0
H543 H 0.44415 0.45662 0.70506 0.0
C544 C 0.3877 0.343 0.6547 0.0
C545 C 0.3789 0.35991 0.63677 0.0
C546 C 0.39906 0.35136 0.67654 0.0
C547 C 0.40149 0.37679 0.68105 0.0
C548 C 0.39295 0.39369 0.66309 0.0
C549 C 0.38181 0.38536 0.64116 0.0
C550 C 0.41363 0.38578 0.70417 0.0
C551 C 0.4326 0.40231 0.70312 0.0
C552 C 0.4073 0.37754 0.72702 0.0
C553 C 0.38617 0.36174 0.72938 0.0
C554 C 0.36372 0.36885 0.71856 0.0
C555 C 0.34393 0.3538 0.72063 0.0
C556 C 0.3463 0.33167 0.73368 0.0
C557 C 0.36847 0.32457 0.74469 0.0
C558 C 0.38833 0.33953 0.74262 0.0
C559 C 0.47027 0.44356 0.79383 0.0
C560 C 0.48788 0.42778 0.80487 0.0
C561 C 0.45339 0.43459 0.77613 0.0
C562 C 0.45364 0.40966 0.76941 0.0
C563 C 0.46967 0.39338 0.78194 0.0
C564 C 0.48677 0.40238 0.79946 0.0
C565 C 0.43994 0.40155 0.74692 0.0
C566 C 0.42086 0.38524 0.74814 0.0
C567 C 0.44582 0.41024 0.72417 0.0
C568 C 0.46599 0.42731 0.72189 0.0
C569 C 0.48926 0.42027 0.73014 0.0
C570 C 0.50807 0.43673 0.72854 0.0
C571 C 0.50387 0.4602 0.71848 0.0
C572 C 0.48083 0.46723 0.70993 0.0
C573 C 0.46194 0.45085 0.71156 0.0
H574 H 0.51846 0.47293 0.71725 0.0
H575 H 0.33096 0.32006 0.73531 0.0
H576 H 0.66825 0.56564 0.48566 0.0
H577 H 0.67413 0.52251 0.47487 0.0
H578 H 0.73748 0.51947 0.52441 0.0
H579 H 0.7324 0.56321 0.53401 0.0
H580 H 0.74519 0.49379 0.48791 0.0
H581 H 0.68113 0.49545 0.53813 0.0
H582 H 0.64284 0.50868 0.55184 0.0
H583 H 0.60655 0.48298 0.48537 0.0
H584 H 0.64468 0.46988 0.47112 0.0
H585 H 0.73579 0.3594 0.49971 0.0
H586 H 0.73661 0.40397 0.5083 0.0
H587 H 0.69303 0.4177 0.44181 0.0
H588 H 0.69253 0.37341 0.43291 0.0
H589 H 0.67659 0.43684 0.48854 0.0
H590 H 0.7439 0.43494 0.44004 0.0
H591 H 0.7831 0.42008 0.43019 0.0
H592 H 0.81416 0.44409 0.4996 0.0
H593 H 0.77504 0.45877 0.51 0.0
C594 C 0.68348 0.55577 0.49413 0.0
C595 C 0.69977 0.56763 0.51081 0.0
C596 C 0.68677 0.53106 0.48809 0.0
C597 C 0.70589 0.51743 0.49934 0.0
C598 C 0.72253 0.5295 0.51556 0.0
C599 C 0.71961 0.55446 0.52108 0.0
C600 C 0.70826 0.49056 0.4944 0.0
C601 C 0.73022 0.48134 0.48839 0.0
C602 C 0.68879 0.47414 0.49493 0.0
C603 C 0.6658 0.48188 0.50348 0.0
C604 C 0.665 0.49276 0.52638 0.0
C605 C 0.64332 0.50022 0.53425 0.0
C606 C 0.62228 0.49673 0.51946 0.0
C607 C 0.62287 0.4857 0.49679 0.0
C608 C 0.64451 0.47823 0.48882 0.0
C609 C 0.72672 0.37203 0.4868 0.0
C610 C 0.71419 0.36306 0.46561 0.0
C611 C 0.72723 0.39738 0.49168 0.0
C612 C 0.71489 0.41398 0.47564 0.0
C613 C 0.70272 0.40511 0.45432 0.0
C614 C 0.70257 0.37988 0.44921 0.0
C615 C 0.71326 0.44043 0.4818 0.0
C616 C 0.69146 0.44944 0.48815 0.0
C617 C 0.73298 0.45642 0.4822 0.0
C618 C 0.75649 0.44768 0.4759 0.0
C619 C 0.75904 0.43682 0.4533 0.0
C620 C 0.78125 0.42848 0.44759 0.0
C621 C 0.8011 0.43107 0.46429 0.0
C622 C 0.79877 0.44206 0.4867 0.0
C623 C 0.77658 0.45041 0.4925 0.0
H624 H 0.81828 0.42461 0.45983 0.0
H625 H 0.60552 0.50252 0.52559 0.0
H626 H 0.91007 0.17389 0.04549 0.0
H627 H 0.94108 0.19673 0.02738 0.0
H628 H 0.89753 0.26244 0.02448 0.0
H629 H 0.86673 0.23983 0.04364 0.0
H630 H 0.94452 0.21749 0.98688 0.0
H631 H 0.93264 0.3137 0.0288 0.0
H632 H 0.91796 0.33229 0.0652 0.0
H633 H 0.93439 0.26542 0.10516 0.0
H634 H 0.94941 0.24657 0.0691 0.0
H635 H 0.0313 0.28686 0.93668 0.0
H636 H 0.99167 0.27967 0.94938 0.0
H637 H 0.0203 0.28018 0.02411 0.0
H638 H 0.05955 0.28921 0.01165 0.0
H639 H 0.9773 0.29563 0.02234 0.0
H640 H 0.01622 0.22589 0.98874 0.0
H641 H 0.03541 0.20335 0.95719 0.0
H642 H 0.972 0.21025 0.90894 0.0
H643 H 0.95254 0.23313 0.94014 0.0
C644 C 0.90704 0.19319 0.04097 0.0
C645 C 0.88599 0.20507 0.04614 0.0
C646 C 0.92478 0.20625 0.03054 0.0
C647 C 0.92181 0.23142 0.02474 0.0
C648 C 0.90049 0.24318 0.02924 0.0
C649 C 0.88286 0.23021 0.04011 0.0
C650 C 0.94128 0.24511 0.01429 0.0
C651 C 0.95153 0.23469 0.99455 0.0
C652 C 0.95066 0.26746 0.02434 0.0
C653 C 0.94184 0.27865 0.04617 0.0
C654 C 0.93314 0.30301 0.04538 0.0
C655 C 0.92477 0.31358 0.06594 0.0
C656 C 0.92515 0.30001 0.08745 0.0
C657 C 0.93401 0.27588 0.08846 0.0
C658 C 0.94243 0.26523 0.06796 0.0
C659 C 0.02905 0.28644 0.95584 0.0
C660 C 0.04876 0.28798 0.97313 0.0
C661 C 0.00637 0.28202 0.96308 0.0
C662 C 0.00312 0.27849 0.98767 0.0
C663 C 0.02234 0.28248 0.00501 0.0
C664 C 0.04488 0.28737 0.99782 0.0
C665 C 0.9808 0.2677 0.99531 0.0
C666 C 0.96996 0.2787 0.0144 0.0
C667 C 0.97144 0.2453 0.98536 0.0
C668 C 0.98304 0.23146 0.96664 0.0
C669 C 0.00643 0.22272 0.97134 0.0
C670 C 0.01735 0.20988 0.95354 0.0
C671 C 0.00495 0.20543 0.93104 0.0
C672 C 0.98159 0.21376 0.92634 0.0
C673 C 0.97061 0.22666 0.94408 0.0
H674 H 0.01343 0.19549 0.91728 0.0
H675 H 0.91865 0.30822 0.10334 0.0
H676 H 0.33243 0.33725 0.47949 0.0
H677 H 0.33074 0.34937 0.43689 0.0
H678 H 0.27584 0.40245 0.4483 0.0
H679 H 0.27652 0.38914 0.49069 0.0
H680 H 0.26952 0.38597 0.40338 0.0
H681 H 0.33559 0.41791 0.45402 0.0
H682 H 0.37125 0.41585 0.48301 0.0
H683 H 0.40692 0.37236 0.43268 0.0
H684 H 0.37136 0.37365 0.40375 0.0
H685 H 0.30603 0.47666 0.31774 0.0
H686 H 0.29276 0.45238 0.35128 0.0
H687 H 0.3409 0.39381 0.33596 0.0
H688 H 0.35406 0.41783 0.30229 0.0
H689 H 0.34891 0.41222 0.38174 0.0
H690 H 0.28205 0.38413 0.32948 0.0
H691 H 0.24638 0.38916 0.30093 0.0
H692 H 0.21222 0.42998 0.35426 0.0
H693 H 0.24783 0.4255 0.38304 0.0
C694 C 0.31959 0.35104 0.47269 0.0
C695 C 0.30477 0.36248 0.48828 0.0
C696 C 0.31868 0.35804 0.44841 0.0
C697 C 0.30369 0.37739 0.43956 0.0
C698 C 0.28766 0.38761 0.45473 0.0
C699 C 0.28808 0.38005 0.47893 0.0
C700 C 0.30669 0.38867 0.41555 0.0
C701 C 0.28684 0.39186 0.39868 0.0
C702 C 0.32929 0.39638 0.40934 0.0
C703 C 0.35073 0.39565 0.42683 0.0
C704 C 0.35099 0.40773 0.44926 0.0
C705 C 0.37119 0.40668 0.4657 0.0
C706 C 0.39133 0.39387 0.45979 0.0
C707 C 0.39132 0.38216 0.43739 0.0
C708 C 0.37114 0.38302 0.42095 0.0
C709 C 0.31321 0.45827 0.32101 0.0
C710 C 0.33133 0.44928 0.30759 0.0
C711 C 0.3056 0.44441 0.34019 0.0
C712 C 0.31591 0.42133 0.34615 0.0
C713 C 0.33279 0.41163 0.3317 0.0
C714 C 0.34037 0.42542 0.31256 0.0
C715 C 0.3119 0.40903 0.36934 0.0
C716 C 0.33161 0.40601 0.38626 0.0
C717 C 0.28916 0.40201 0.37561 0.0
C718 C 0.26771 0.40467 0.35834 0.0
C719 C 0.26702 0.39437 0.33506 0.0
C720 C 0.24679 0.39708 0.31884 0.0
C721 C 0.22707 0.40993 0.32576 0.0
C722 C 0.22752 0.42005 0.34892 0.0
C723 C 0.24771 0.4174 0.3652 0.0
H724 H 0.21142 0.41201 0.31318 0.0
H725 H 0.40696 0.39312 0.47254 0.0
H726 H 0.0997 0.89103 0.97074 0.0
H727 H 0.07529 0.90442 0.93468 0.0
H728 H 0.10535 0.84704 0.89313 0.0
H729 H 0.13008 0.83335 0.92932 0.0
H730 H 0.10231 0.89424 0.86977 0.0
H731 H 0.05247 0.83774 0.90797 0.0
H732 H 0.03303 0.81974 0.94195 0.0
H733 H 0.99673 0.88827 0.95143 0.0
H734 H 0.01623 0.90682 0.91773 0.0
H735 H 0.01113 0.91507 0.77182 0.0
H736 H 0.03973 0.89678 0.80262 0.0
H737 H 0.01247 0.94294 0.85701 0.0
H738 H 0.98339 0.96048 0.82677 0.0
H739 H 0.01476 0.89608 0.87127 0.0
H740 H 0.06678 0.95363 0.83561 0.0
H741 H 0.08681 0.97245 0.80241 0.0
H742 H 0.11912 0.90272 0.78845 0.0
H743 H 0.09902 0.8834 0.82138 0.0
C744 C 0.1012 0.88117 0.95399 0.0
C745 C 0.11678 0.86098 0.95299 0.0
C746 C 0.08718 0.88886 0.9334 0.0
C747 C 0.0884 0.87658 0.91134 0.0
C748 C 0.10416 0.8567 0.91005 0.0
C749 C 0.11815 0.84883 0.93076 0.0
C750 C 0.07282 0.88456 0.88988 0.0
C751 C 0.08313 0.89424 0.86982 0.0
C752 C 0.04787 0.88486 0.89023 0.0
C753 C 0.03596 0.87373 0.91043 0.0
C754 C 0.04048 0.84904 0.91742 0.0
C755 C 0.02943 0.83872 0.93661 0.0
C756 C 0.01369 0.85286 0.94887 0.0
C757 C 0.00893 0.87734 0.94193 0.0
C758 C 0.01996 0.88776 0.92276 0.0
C759 C 0.01131 0.92138 0.79033 0.0
C760 C 0.99495 0.93928 0.79679 0.0
C761 C 0.02778 0.91105 0.80787 0.0
C762 C 0.02825 0.91854 0.83211 0.0
C763 C 0.01241 0.93687 0.83842 0.0
C764 C 0.99595 0.9471 0.821 0.0
C765 C 0.04421 0.90648 0.85133 0.0
C766 C 0.03392 0.89588 0.871 0.0
C767 C 0.06914 0.90543 0.85059 0.0
C768 C 0.08116 0.91701 0.83075 0.0
C769 C 0.07797 0.94226 0.8253 0.0
C770 C 0.08938 0.95303 0.80657 0.0
C771 C 0.10417 0.93877 0.79327 0.0
C772 C 0.10763 0.91373 0.79873 0.0
C773 C 0.09624 0.90286 0.81743 0.0
H774 H 0.11299 0.94715 0.77878 0.0
H775 H 0.00515 0.84484 0.96373 0.0
H776 H 0.84981 0.12446 0.99229 0.0
H777 H 0.8482 0.11279 0.94989 0.0
H778 H 0.77196 0.12006 0.94359 0.0
H779 H 0.77335 0.13211 0.98621 0.0
H780 H 0.82772 0.07315 0.92915 0.0
H781 H 0.75457 0.13624 0.88333 0.0
H782 H 0.73687 0.17729 0.88898 0.0
H783 H 0.80234 0.20232 0.92601 0.0
H784 H 0.8205 0.16155 0.92029 0.0
H785 H 0.8049 0.02812 0.81247 0.0
H786 H 0.79302 0.04698 0.84942 0.0
H787 H 0.83368 0.11204 0.83566 0.0
H788 H 0.84519 0.09355 0.79825 0.0
H789 H 0.79276 0.12281 0.85944 0.0
H790 H 0.86075 0.06789 0.86663 0.0
H791 H 0.88124 0.02843 0.8606 0.0
H792 H 0.83151 0.99034 0.90148 0.0
H793 H 0.81048 0.02957 0.90739 0.0
C794 C 0.83265 0.12375 0.98196 0.0
C795 C 0.81168 0.12911 0.99279 0.0
C796 C 0.83178 0.11702 0.95768 0.0
C797 C 0.80998 0.11555 0.94358 0.0
C798 C 0.789 0.12131 0.9541 0.0
C799 C 0.78984 0.12811 0.97849 0.0
C800 C 0.80945 0.10689 0.91821 0.0
C801 C 0.81991 0.08399 0.91397 0.0
C802 C 0.79938 0.12105 0.89835 0.0
C803 C 0.78878 0.14574 0.90163 0.0
C804 C 0.76519 0.15053 0.89261 0.0
C805 C 0.75509 0.17375 0.89583 0.0
C806 C 0.76844 0.19237 0.90792 0.0
C807 C 0.79197 0.18785 0.91674 0.0
C808 C 0.80217 0.16468 0.91355 0.0
C809 C 0.81058 0.04682 0.81676 0.0
C810 C 0.82629 0.05921 0.80262 0.0
C811 C 0.80385 0.05752 0.83797 0.0
C812 C 0.8128 0.08071 0.84544 0.0
C813 C 0.82664 0.09409 0.83023 0.0
C814 C 0.83338 0.08341 0.80899 0.0
C815 C 0.811 0.08915 0.87058 0.0
C816 C 0.80017 0.1119 0.87473 0.0
C817 C 0.8211 0.07511 0.89046 0.0
C818 C 0.8339 0.05158 0.88722 0.0
C819 C 0.8541 0.05106 0.87418 0.0
C820 C 0.86581 0.02875 0.8708 0.0
C821 C 0.85764 0.00688 0.8806 0.0
C822 C 0.83778 0.00729 0.89386 0.0
C823 C 0.82596 0.02955 0.89723 0.0
H824 H 0.86674 0.98962 0.87797 0.0
H825 H 0.76058 0.21032 0.91041 0.0
H826 H 0.41668 0.33167 0.55143 0.0
H827 H 0.45152 0.31239 0.53685 0.0
H828 H 0.41146 0.24575 0.52048 0.0
H829 H 0.37671 0.26465 0.5366 0.0
H830 H 0.45304 0.23349 0.53911 0.0
H831 H 0.42673 0.29005 0.47535 0.0
H832 H 0.41417 0.33015 0.45711 0.0
H833 H 0.48117 0.36203 0.48278 0.0
H834 H 0.49398 0.32232 0.50151 0.0
H835 H 0.55306 0.19366 0.47376 0.0
H836 H 0.51304 0.20424 0.48447 0.0
H837 H 0.53992 0.27244 0.51613 0.0
H838 H 0.57939 0.26246 0.50511 0.0
H839 H 0.50139 0.27936 0.48368 0.0
H840 H 0.52548 0.22524 0.55134 0.0
H841 H 0.53893 0.18567 0.57006 0.0
H842 H 0.4769 0.14958 0.53664 0.0
H843 H 0.46324 0.18891 0.51745 0.0
C844 C 0.41522 0.31297 0.54456 0.0
C845 C 0.39391 0.29975 0.54491 0.0
C846 C 0.43514 0.30197 0.53607 0.0
C847 C 0.43403 0.27781 0.52685 0.0
C848 C 0.41275 0.26447 0.5273 0.0
C849 C 0.3929 0.27529 0.53643 0.0
C850 C 0.45535 0.26647 0.51748 0.0
C851 C 0.46333 0.24333 0.52659 0.0
C852 C 0.46902 0.2793 0.50129 0.0
C853 C 0.46127 0.30319 0.48991 0.0
C854 C 0.43873 0.30565 0.47721 0.0
C855 C 0.43157 0.32833 0.46679 0.0
C856 C 0.44689 0.34861 0.4688 0.0
C857 C 0.46935 0.34629 0.48123 0.0
C858 C 0.47657 0.32371 0.49172 0.0
C859 C 0.55041 0.21081 0.48316 0.0
C860 C 0.56948 0.22714 0.48869 0.0
C861 C 0.5276 0.21675 0.48937 0.0
C862 C 0.52356 0.23913 0.50109 0.0
C863 C 0.54266 0.25508 0.5071 0.0
C864 C 0.56531 0.24918 0.501 0.0
C865 C 0.49938 0.24703 0.50602 0.0
C866 C 0.49082 0.26941 0.49588 0.0
C867 C 0.48527 0.23353 0.5212 0.0
C868 C 0.4935 0.20993 0.53271 0.0
C869 C 0.51483 0.20881 0.54779 0.0
C870 C 0.52246 0.18644 0.55853 0.0
C871 C 0.50882 0.16511 0.55447 0.0
C872 C 0.48748 0.16611 0.53972 0.0
C873 C 0.47978 0.18843 0.52892 0.0
H874 H 0.51475 0.14781 0.56282 0.0
H875 H 0.44145 0.36614 0.46071 0.0
H876 H 0.1547 0.94206 0.00833 0.0
H877 H 0.16024 0.98398 0.99395 0.0
H878 H 0.23548 0.97105 0.99408 0.0
H879 H 0.23019 0.92881 0.00872 0.0
H880 H 0.22516 0.01622 0.01381 0.0
H881 H 0.2031 0.97189 0.94146 0.0
H882 H 0.17942 0.94294 0.91497 0.0
H883 H 0.11779 0.98873 0.91845 0.0
H884 H 0.14101 0.01778 0.94528 0.0
H885 H 0.22999 0.13481 0.95481 0.0
H886 H 0.2353 0.09024 0.96217 0.0
H887 H 0.15997 0.08256 0.96701 0.0
H888 H 0.15455 0.12667 0.95933 0.0
H889 H 0.17735 0.04601 0.94003 0.0
H890 H 0.19786 0.0859 0.01741 0.0
H891 H 0.22088 0.11439 0.04502 0.0
H892 H 0.28525 0.07651 0.03207 0.0
H893 H 0.26261 0.04798 0.00411 0.0
C894 C 0.17248 0.94802 0.0054 0.0
C895 C 0.192 0.93195 0.00963 0.0
C896 C 0.17558 0.972 0.99704 0.0
C897 C 0.19821 0.98047 0.99259 0.0
C898 C 0.21785 0.96477 0.99727 0.0
C899 C 0.21477 0.94065 0.00561 0.0
C900 C 0.20105 0.00587 0.98327 0.0
C901 C 0.21515 0.02264 0.99738 0.0
C902 C 0.18781 0.01422 0.96194 0.0
C903 C 0.1738 0.99696 0.94552 0.0
C904 C 0.18446 0.97572 0.93671 0.0
C905 C 0.17112 0.95929 0.92162 0.0
C906 C 0.1471 0.96397 0.91507 0.0
C907 C 0.1364 0.98513 0.92354 0.0
C908 C 0.14965 0.00161 0.93867 0.0
C909 C 0.2146 0.12351 0.95728 0.0
C910 C 0.1919 0.13423 0.95678 0.0
C911 C 0.21765 0.09814 0.96157 0.0
C912 C 0.19803 0.08316 0.96529 0.0
C913 C 0.17535 0.09378 0.9642 0.0
C914 C 0.17231 0.11903 0.96005 0.0
C915 C 0.20082 0.05649 0.971 0.0
C916 C 0.18778 0.03947 0.95617 0.0
C917 C 0.21502 0.04792 0.99165 0.0
C918 C 0.2286 0.06504 0.00844 0.0
C919 C 0.21695 0.08379 0.02029 0.0
C920 C 0.22992 0.09992 0.03603 0.0
C921 C 0.25452 0.09732 0.04023 0.0
C922 C 0.2662 0.07854 0.02875 0.0
C923 C 0.25331 0.06239 0.01296 0.0
H924 H 0.26453 0.10981 0.05243 0.0
H925 H 0.1368 0.95122 0.9034 0.0
H926 H 0.61223 0.60823 0.46767 0.0
H927 H 0.58813 0.59714 0.43078 0.0
H928 H 0.60899 0.66437 0.39655 0.0
H929 H 0.63355 0.67561 0.43347 0.0
H930 H 0.55059 0.62079 0.40916 0.0
H931 H 0.60808 0.65212 0.33419 0.0
H932 H 0.65018 0.65899 0.32797 0.0
H933 H 0.67099 0.60479 0.3825 0.0
H934 H 0.62897 0.59733 0.38879 0.0
H935 H 0.48158 0.61802 0.29786 0.0
H936 H 0.51253 0.63408 0.32722 0.0
H937 H 0.55155 0.56588 0.32381 0.0
H938 H 0.52063 0.54966 0.29426 0.0
H939 H 0.58079 0.61104 0.32846 0.0
H940 H 0.51757 0.56801 0.365 0.0
H941 H 0.47557 0.5601 0.371 0.0
H942 H 0.46763 0.63494 0.39452 0.0
H943 H 0.50952 0.64338 0.38827 0.0
C944 C 0.6118 0.62072 0.45235 0.0
C945 C 0.62481 0.64289 0.45363 0.0
C946 C 0.59798 0.61432 0.43124 0.0
C947 C 0.59686 0.62985 0.41089 0.0
C948 C 0.60983 0.65197 0.41197 0.0
C949 C 0.62375 0.65842 0.43314 0.0
C950 C 0.58135 0.62305 0.38897 0.0
C951 C 0.55725 0.61876 0.39153 0.0
C952 C 0.59001 0.62039 0.36594 0.0
C953 C 0.61536 0.62438 0.36213 0.0
C954 C 0.62163 0.6416 0.34479 0.0
C955 C 0.64549 0.6456 0.34126 0.0
C956 C 0.66327 0.6324 0.35489 0.0
C957 C 0.65721 0.61509 0.37202 0.0
C958 C 0.63337 0.61098 0.3756 0.0
C959 C 0.49707 0.6067 0.30281 0.0
C960 C 0.49863 0.58251 0.2939 0.0
C961 C 0.5147 0.61588 0.31961 0.0
C962 C 0.5342 0.60109 0.32772 0.0
C963 C 0.53664 0.57757 0.31768 0.0
C964 C 0.51889 0.56827 0.301 0.0
C965 C 0.55024 0.60883 0.34885 0.0
C966 C 0.57427 0.61331 0.34611 0.0
C967 C 0.54165 0.61154 0.37184 0.0
C968 C 0.51658 0.60639 0.37592 0.0
C969 C 0.50681 0.58283 0.37127 0.0
C970 C 0.48304 0.57824 0.37474 0.0
C971 C 0.46893 0.59702 0.38308 0.0
C972 C 0.47858 0.62042 0.38803 0.0
C973 C 0.50233 0.62511 0.38453 0.0
H974 H 0.45053 0.59344 0.38576 0.0
H975 H 0.68173 0.63555 0.35213 0.0
H976 H 0.28183 0.41444 0.61266 0.0
H977 H 0.27553 0.45723 0.62482 0.0
H978 H 0.30531 0.483 0.56026 0.0
H979 H 0.31315 0.44035 0.54915 0.0
H980 H 0.32311 0.50822 0.59456 0.0
H981 H 0.24196 0.48468 0.57095 0.0
H982 H 0.20626 0.45869 0.57193 0.0
H983 H 0.20424 0.47374 0.64764 0.0
H984 H 0.24007 0.49964 0.64715 0.0
H985 H 0.28862 0.63176 0.59291 0.0
H986 H 0.28326 0.58805 0.58306 0.0
H987 H 0.28101 0.57069 0.65866 0.0
H988 H 0.28721 0.6143 0.66887 0.0
H989 H 0.24814 0.54152 0.62162 0.0
H990 H 0.33017 0.56482 0.6439 0.0
H991 H 0.36489 0.59191 0.64136 0.0
H992 H 0.36384 0.5774 0.56524 0.0
H993 H 0.32881 0.55057 0.56728 0.0
C994 C 0.28682 0.42933 0.60105 0.0
C995 C 0.298 0.42424 0.58002 0.0
C996 C 0.28307 0.45378 0.60789 0.0
C997 C 0.28962 0.4735 0.59331 0.0
C998 C 0.30018 0.46822 0.57192 0.0
C999 C 0.30461 0.44386 0.56552 0.0
C1000 C 0.28689 0.49966 0.60081 0.0
C1001 C 0.30653 0.51541 0.6001 0.0
C1002 C 0.26554 0.50915 0.60882 0.0
C1003 C 0.24379 0.49393 0.60904 0.0
C1004 C 0.23395 0.48236 0.58782 0.0
C1005 C 0.21369 0.46766 0.58829 0.0
C1006 C 0.20303 0.46452 0.60985 0.0
C1007 C 0.21253 0.47618 0.63096 0.0
C1008 C 0.23279 0.4909 0.63059 0.0
C1009 C 0.28668 0.61872 0.60745 0.0
C1010 C 0.28883 0.62647 0.63172 0.0
C1011 C 0.28339 0.59381 0.60176 0.0
C1012 C 0.28193 0.57624 0.62018 0.0
C1013 C 0.28198 0.58407 0.64423 0.0
C1014 C 0.28551 0.60902 0.64999 0.0
C1015 C 0.28407 0.54971 0.61458 0.0
C1016 C 0.26453 0.53404 0.6159 0.0
C1017 C 0.30539 0.54023 0.60685 0.0
C1018 C 0.32675 0.5559 0.6057 0.0
C1019 C 0.33724 0.56757 0.62659 0.0
C1020 C 0.35698 0.58285 0.62525 0.0
C1021 C 0.36653 0.58642 0.60314 0.0
C1022 C 0.3564 0.57464 0.58235 0.0
C1023 C 0.33661 0.55939 0.58359 0.0
H1024 H 0.38181 0.59827 0.60213 0.0
H1025 H 0.18737 0.4531 0.61018 0.0
H1026 H 0.08722 0.82882 0.05289 0.0
H1027 H 0.0581 0.80523 0.07294 0.0
H1028 H 0.09841 0.73848 0.0648 0.0
H1029 H 0.12744 0.76203 0.0438 0.0
H1030 H 0.05377 0.72872 0.05574 0.0
H1031 H 0.09828 0.76677 0.12053 0.0
H1032 H 0.11973 0.80016 0.14328 0.0
H1033 H 0.05451 0.84017 0.14642 0.0
H1034 H 0.03268 0.80722 0.12333 0.0
H1035 H 0.96433 0.72104 0.15889 0.0
H1036 H 0.00478 0.72409 0.14695 0.0
H1037 H 0.97703 0.73308 0.0724 0.0
H1038 H 0.93686 0.7285 0.084 0.0
H1039 H 0.02393 0.76182 0.13058 0.0
H1040 H 0.01436 0.71882 0.03297 0.0
H1041 H 0.99648 0.68193 0.01283 0.0
H1042 H 0.99813 0.64435 0.08121 0.0
H1043 H 0.01635 0.68085 0.10176 0.0
C1044 C 0.08999 0.80913 0.05539 0.0
C1045 C 0.10973 0.79733 0.04688 0.0
C1046 C 0.07337 0.79567 0.06701 0.0
C1047 C 0.07634 0.77016 0.07093 0.0
C1048 C 0.09584 0.75817 0.06213 0.0
C1049 C 0.11239 0.77164 0.05014 0.0
C1050 C 0.05854 0.75627 0.08365 0.0
C1051 C 0.04736 0.73575 0.07223 0.0
C1052 C 0.05093 0.76471 0.10581 0.0
C1053 C 0.06384 0.78449 0.12011 0.0
C1054 C 0.08851 0.78273 0.12597 0.0
C1055 C 0.10074 0.80159 0.13893 0.0
C1056 C 0.08849 0.82225 0.1463 0.0
C1057 C 0.06397 0.82411 0.14073 0.0
C1058 C 0.05164 0.80532 0.12774 0.0
C1059 C 0.96689 0.72278 0.13986 0.0
C1060 C 0.94732 0.72478 0.12242 0.0
C1061 C 0.99005 0.72476 0.13308 0.0
C1062 C 0.99408 0.72877 0.10875 0.0
C1063 C 0.97457 0.72954 0.09123 0.0
C1064 C 0.9515 0.72729 0.09794 0.0
C1065 C 0.01814 0.73516 0.10185 0.0
C1066 C 0.03059 0.7543 0.11441 0.0
C1067 C 0.02744 0.72481 0.08127 0.0
C1068 C 0.01665 0.70268 0.06893 0.0
C1069 C 0.01107 0.70264 0.04371 0.0
C1070 C 0.00083 0.6818 0.03222 0.0
C1071 C 0.99613 0.66083 0.04573 0.0
C1072 C 0.00171 0.66063 0.07077 0.0
C1073 C 0.01196 0.68141 0.08235 0.0
H1074 H 0.9882 0.64472 0.0368 0.0
H1075 H 0.09801 0.83679 0.15635 0.0
H1076 H 0.65607 0.6371 0.60848 0.0
H1077 H 0.65739 0.62778 0.65163 0.0
H1078 H 0.73158 0.60898 0.65258 0.0
H1079 H 0.7305 0.61862 0.60921 0.0
H1080 H 0.70234 0.57228 0.67194 0.0
H1081 H 0.71862 0.65865 0.68112 0.0
H1082 H 0.71217 0.70302 0.67267 0.0
H1083 H 0.64286 0.69847 0.69815 0.0
H1084 H 0.64868 0.65397 0.70631 0.0
H1085 H 0.69163 0.53674 0.79194 0.0
H1086 H 0.70872 0.55896 0.75936 0.0
H1087 H 0.6442 0.60143 0.7462 0.0
H1088 H 0.62789 0.58096 0.78003 0.0
H1089 H 0.67803 0.62874 0.73552 0.0
H1090 H 0.65559 0.54439 0.71603 0.0
H1091 H 0.65676 0.49908 0.72114 0.0
H1092 H 0.73127 0.49882 0.71166 0.0
H1093 H 0.73056 0.5442 0.70677 0.0
C1094 C 0.67275 0.6312 0.61788 0.0
C1095 C 0.69316 0.62842 0.60542 0.0
C1096 C 0.67351 0.62606 0.64258 0.0
C1097 C 0.69462 0.61786 0.65529 0.0
C1098 C 0.71517 0.61545 0.64306 0.0
C1099 C 0.71452 0.62097 0.61835 0.0
C1100 C 0.6944 0.60988 0.6808 0.0
C1101 C 0.69767 0.58471 0.68608 0.0
C1102 C 0.68756 0.62604 0.6989 0.0
C1103 C 0.68408 0.65291 0.69425 0.0
C1104 C 0.70194 0.66706 0.68477 0.0
C1105 C 0.69839 0.69225 0.68004 0.0
C1106 C 0.67711 0.70355 0.68485 0.0
C1107 C 0.65935 0.6897 0.69446 0.0
C1108 C 0.66277 0.66449 0.69915 0.0
C1109 C 0.68136 0.55139 0.7827 0.0
C1110 C 0.65808 0.55657 0.78827 0.0
C1111 C 0.69107 0.56388 0.7638 0.0
C1112 C 0.67745 0.58128 0.7497 0.0
C1113 C 0.65501 0.58788 0.75653 0.0
C1114 C 0.64554 0.57585 0.77573 0.0
C1115 C 0.68528 0.59091 0.72656 0.0
C1116 C 0.68336 0.61637 0.72165 0.0
C1117 C 0.69264 0.5749 0.70847 0.0
C1118 C 0.69309 0.54767 0.71137 0.0
C1119 C 0.67224 0.53466 0.7152 0.0
C1120 C 0.67282 0.50899 0.71804 0.0
C1121 C 0.6941 0.49609 0.71681 0.0
C1122 C 0.71482 0.50884 0.71267 0.0
C1123 C 0.71435 0.53453 0.70987 0.0
H1124 H 0.69451 0.47621 0.71901 0.0
H1125 H 0.67438 0.72305 0.68114 0.0
H1126 H 0.87205 0.11125 0.14196 0.0
H1127 H 0.89438 0.10207 0.18077 0.0
H1128 H 0.9061 0.17991 0.19298 0.0
H1129 H 0.88321 0.18936 0.15433 0.0
H1130 H 0.94811 0.14723 0.19734 0.0
H1131 H 0.87197 0.15708 0.22661 0.0
H1132 H 0.82895 0.15054 0.22767 0.0
H1133 H 0.84084 0.07309 0.24073 0.0
H1134 H 0.88392 0.07906 0.23933 0.0
H1135 H 0.01221 0.12122 0.30844 0.0
H1136 H 0.98137 0.14038 0.28096 0.0
H1137 H 0.94927 0.06905 0.26668 0.0
H1138 H 0.97936 0.04988 0.29512 0.0
H1139 H 0.91573 0.10417 0.26629 0.0
H1140 H 0.98956 0.0925 0.23047 0.0
H1141 H 0.0326 0.09712 0.22773 0.0
H1142 H 0.02479 0.17605 0.22501 0.0
H1143 H 0.98171 0.17189 0.22807 0.0
C1144 C 0.87933 0.12643 0.15292 0.0
C1145 C 0.87603 0.15103 0.14507 0.0
C1146 C 0.89189 0.12116 0.17514 0.0
C1147 C 0.90166 0.14034 0.18972 0.0
C1148 C 0.8985 0.16491 0.18198 0.0
C1149 C 0.88548 0.17025 0.15994 0.0
C1150 C 0.91652 0.13438 0.21225 0.0
C1151 C 0.94101 0.13835 0.21269 0.0
C1152 C 0.90716 0.12222 0.23188 0.0
C1153 C 0.88121 0.1185 0.23263 0.0
C1154 C 0.86541 0.1386 0.22944 0.0
C1155 C 0.84101 0.13501 0.23017 0.0
C1156 C 0.83217 0.11141 0.2342 0.0
C1157 C 0.84772 0.09136 0.23757 0.0
C1158 C 0.87214 0.09484 0.23684 0.0
C1159 C 0.99821 0.10966 0.30006 0.0
C1160 C 0.99848 0.08392 0.30374 0.0
C1161 C 0.98069 0.12064 0.28416 0.0
C1162 C 0.96333 0.10607 0.27136 0.0
C1163 C 0.9626 0.08064 0.27623 0.0
C1164 C 0.97998 0.06967 0.29229 0.0
C1165 C 0.94743 0.11678 0.25128 0.0
C1166 C 0.92279 0.11353 0.25118 0.0
C1167 C 0.95663 0.12937 0.23174 0.0
C1168 C 0.98249 0.1319 0.2298 0.0
C1169 C 0.99706 0.11085 0.22947 0.0
C1170 C 0.02145 0.11338 0.22783 0.0
C1171 C 0.03144 0.13686 0.22628 0.0
C1172 C 0.01704 0.15787 0.22628 0.0
C1173 C 0.99264 0.15544 0.22796 0.0
H1174 H 0.05033 0.13879 0.225 0.0
H1175 H 0.81327 0.10867 0.23476 0.0
H1176 H 0.25113 0.79451 0.06864 0.0
H1177 H 0.27175 0.7589 0.08758 0.0
H1178 H 0.22048 0.71006 0.0506 0.0
H1179 H 0.19945 0.74563 0.03168 0.0
H1180 H 0.22986 0.69739 0.09787 0.0
H1181 H 0.27468 0.71531 0.03107 0.0
H1182 H 0.29678 0.74156 0.00447 0.0
H1183 H 0.34806 0.7581 0.06399 0.0
H1184 H 0.32608 0.73226 0.09105 0.0
H1185 H 0.30017 0.59131 0.13413 0.0
H1186 H 0.27786 0.6221 0.10879 0.0
H1187 H 0.32372 0.67956 0.13978 0.0
H1188 H 0.34589 0.64906 0.16517 0.0
H1189 H 0.31595 0.68476 0.09135 0.0
H1190 H 0.26895 0.67027 0.15864 0.0
H1191 H 0.24658 0.64467 0.18555 0.0
H1192 H 0.19931 0.62187 0.12485 0.0
H1193 H 0.22162 0.6471 0.09751 0.0
C1194 C 0.24416 0.77623 0.06448 0.0
C1195 C 0.22365 0.77298 0.04852 0.0
C1196 C 0.25607 0.75588 0.07526 0.0
C1197 C 0.24783 0.73184 0.07021 0.0
C1198 C 0.22718 0.72847 0.05463 0.0
C1199 C 0.21523 0.74884 0.04381 0.0
C1200 C 0.26071 0.71031 0.08153 0.0
C1201 C 0.24859 0.69433 0.09609 0.0
C1202 C 0.2852 0.70658 0.07943 0.0
C1203 C 0.29862 0.72197 0.06314 0.0
C1204 C 0.29058 0.72468 0.03854 0.0
C1205 C 0.3031 0.73947 0.02336 0.0
C1206 C 0.32379 0.75152 0.03255 0.0
C1207 C 0.33203 0.74876 0.05691 0.0
C1208 C 0.31956 0.73402 0.07216 0.0
C1209 C 0.30542 0.61052 0.13559 0.0
C1210 C 0.32482 0.61773 0.15164 0.0
C1211 C 0.2927 0.62807 0.12107 0.0
C1212 C 0.29907 0.65313 0.12252 0.0
C1213 C 0.3186 0.6603 0.13827 0.0
C1214 C 0.3313 0.64281 0.15273 0.0
C1215 C 0.28521 0.67214 0.10807 0.0
C1216 C 0.29716 0.68764 0.09288 0.0
C1217 C 0.26057 0.67543 0.10958 0.0
C1218 C 0.24711 0.66033 0.126 0.0
C1219 C 0.2539 0.65964 0.15101 0.0
C1220 C 0.24122 0.64522 0.16634 0.0
C1221 C 0.22158 0.63159 0.15691 0.0
C1222 C 0.21455 0.6324 0.13212 0.0
C1223 C 0.2272 0.64676 0.11671 0.0
H1224 H 0.21178 0.62044 0.16881 0.0
H1225 H 0.33346 0.76296 0.02079 0.0
H1226 H 0.70668 0.75347 0.53767 0.0
H1227 H 0.72633 0.78799 0.55932 0.0
H1228 H 0.77811 0.73799 0.59436 0.0
H1229 H 0.75845 0.70322 0.57299 0.0
H1230 H 0.76156 0.77041 0.62609 0.0
H1231 H 0.79228 0.77427 0.54815 0.0
H1232 H 0.78958 0.77622 0.50359 0.0
H1233 H 0.75146 0.84482 0.50473 0.0
H1234 H 0.75364 0.84309 0.54931 0.0
H1235 H 0.84771 0.85617 0.67176 0.0
H1236 H 0.8268 0.82291 0.64933 0.0
H1237 H 0.7775 0.87572 0.61474 0.0
H1238 H 0.79892 0.90935 0.63655 0.0
H1239 H 0.79151 0.84263 0.58272 0.0
H1240 H 0.76151 0.83945 0.66057 0.0
H1241 H 0.76388 0.83754 0.70511 0.0
H1242 H 0.8001 0.76781 0.70422 0.0
H1243 H 0.79825 0.76948 0.65966 0.0
C1244 C 0.72227 0.74974 0.54993 0.0
C1245 C 0.73102 0.72551 0.55349 0.0
C1246 C 0.73353 0.76955 0.56224 0.0
C1247 C 0.75381 0.76558 0.57825 0.0
C1248 C 0.76249 0.74145 0.58204 0.0
C1249 C 0.75126 0.7216 0.56973 0.0
C1250 C 0.76587 0.78657 0.59125 0.0
C1251 C 0.76839 0.78606 0.61662 0.0
C1252 C 0.77415 0.80729 0.57886 0.0
C1253 C 0.77292 0.80842 0.55206 0.0
C1254 C 0.78316 0.78967 0.53889 0.0
C1255 C 0.78175 0.79075 0.51363 0.0
C1256 C 0.7703 0.8106 0.50133 0.0
C1257 C 0.76029 0.82944 0.51428 0.0
C1258 C 0.76163 0.82843 0.53954 0.0
C1259 C 0.8326 0.8608 0.65917 0.0
C1260 C 0.82501 0.88544 0.65591 0.0
C1261 C 0.8205 0.84171 0.64657 0.0
C1262 C 0.8004 0.8468 0.63062 0.0
C1263 C 0.79291 0.87139 0.62707 0.0
C1264 C 0.80505 0.89054 0.63966 0.0
C1265 C 0.78737 0.8264 0.61758 0.0
C1266 C 0.78463 0.82702 0.5922 0.0
C1267 C 0.77884 0.8058 0.62997 0.0
C1268 C 0.77993 0.80471 0.65678 0.0
C1269 C 0.77015 0.8238 0.66987 0.0
C1270 C 0.77137 0.82275 0.69513 0.0
C1271 C 0.78218 0.80259 0.70749 0.0
C1272 C 0.79175 0.78342 0.69462 0.0
C1273 C 0.7906 0.7844 0.66936 0.0
H1274 H 0.78311 0.80181 0.72704 0.0
H1275 H 0.76923 0.8114 0.48178 0.0
H1276 H 0.73677 0.15431 0.1248 0.0
H1277 H 0.71922 0.15088 0.16361 0.0
H1278 H 0.78286 0.18156 0.20037 0.0
H1279 H 0.80033 0.18528 0.16205 0.0
H1280 H 0.76644 0.13883 0.22263 0.0
H1281 H 0.7369 0.21748 0.18924 0.0
H1282 H 0.71528 0.2436 0.15808 0.0
H1283 H 0.65162 0.20208 0.16507 0.0
H1284 H 0.67298 0.17548 0.19606 0.0
H1285 H 0.74592 0.19069 0.33401 0.0
H1286 H 0.75528 0.17874 0.29374 0.0
H1287 H 0.68139 0.16273 0.2739 0.0
H1288 H 0.67168 0.17604 0.31394 0.0
H1289 H 0.69736 0.18985 0.24073 0.0
H1290 H 0.72539 0.11643 0.28042 0.0
H1291 H 0.74715 0.08984 0.31103 0.0
H1292 H 0.81336 0.11947 0.29197 0.0
H1293 H 0.79203 0.14663 0.26162 0.0
C1294 C 0.74694 0.1604 0.14116 0.0
C1295 C 0.76986 0.17026 0.14029 0.0
C1296 C 0.73692 0.15841 0.16327 0.0
C1297 C 0.7498 0.16595 0.18479 0.0
C1298 C 0.77268 0.17557 0.18395 0.0
C1299 C 0.78254 0.17788 0.16196 0.0
C1300 C 0.7396 0.16443 0.20836 0.0
C1301 C 0.75135 0.14995 0.22672 0.0
C1302 C 0.71942 0.17828 0.21327 0.0
C1303 C 0.7066 0.1943 0.19471 0.0
C1304 C 0.71834 0.21378 0.18396 0.0
C1305 C 0.70613 0.2287 0.16637 0.0
C1306 C 0.68211 0.22444 0.15953 0.0
C1307 C 0.67024 0.20531 0.17034 0.0
C1308 C 0.68238 0.19031 0.18792 0.0
C1309 C 0.73163 0.18456 0.32114 0.0
C1310 C 0.708 0.18461 0.32715 0.0
C1311 C 0.73707 0.17735 0.29817 0.0
C1312 C 0.71909 0.16954 0.28078 0.0
C1313 C 0.69558 0.1686 0.28702 0.0
C1314 C 0.69008 0.17603 0.31 0.0
C1315 C 0.72468 0.1648 0.25555 0.0
C1316 C 0.71209 0.17814 0.23674 0.0
C1317 C 0.74409 0.14978 0.25025 0.0
C1318 C 0.75704 0.13372 0.2688 0.0
C1319 C 0.74458 0.11748 0.28291 0.0
C1320 C 0.75685 0.10227 0.30022 0.0
C1321 C 0.78162 0.103 0.30349 0.0
C1322 C 0.79417 0.11895 0.28946 0.0
C1323 C 0.78199 0.13425 0.27219 0.0
H1324 H 0.79108 0.09117 0.31686 0.0
H1325 H 0.67268 0.23602 0.14591 0.0
H1326 H 0.24345 0.33553 0.62734 0.0
H1327 H 0.2272 0.33726 0.66671 0.0
H1328 H 0.29552 0.31665 0.70193 0.0
H1329 H 0.31168 0.31424 0.66282 0.0
H1330 H 0.26279 0.29112 0.72 0.0
H1331 H 0.27383 0.37659 0.70288 0.0
H1332 H 0.2698 0.41483 0.67855 0.0
H1333 H 0.19411 0.41245 0.6802 0.0
H1334 H 0.19764 0.37394 0.70423 0.0
H1335 H 0.24194 0.31572 0.8395 0.0
H1336 H 0.25708 0.32458 0.80052 0.0
H1337 H 0.18551 0.3281 0.76669 0.0
H1338 H 0.17016 0.31878 0.8056 0.0
H1339 H 0.21923 0.36369 0.74818 0.0
H1340 H 0.21021 0.27615 0.76489 0.0
H1341 H 0.21638 0.23887 0.79037 0.0
H1342 H 0.29188 0.2471 0.79051 0.0
H1343 H 0.28614 0.28471 0.76537 0.0
C1344 C 0.25499 0.33132 0.64348 0.0
C1345 C 0.27881 0.32457 0.64189 0.0
C1346 C 0.24572 0.3325 0.66598 0.0
C1347 C 0.26022 0.32737 0.68732 0.0
C1348 C 0.28399 0.32065 0.68574 0.0
C1349 C 0.29318 0.31922 0.6633 0.0
C1350 C 0.25056 0.32811 0.7113 0.0
C1351 C 0.25356 0.30716 0.72621 0.0
C1352 C 0.23817 0.34888 0.71933 0.0
C1353 C 0.23598 0.37223 0.70516 0.0
C1354 C 0.2563 0.38411 0.69791 0.0
C1355 C 0.25412 0.40585 0.68419 0.0
C1356 C 0.23171 0.41602 0.67778 0.0
C1357 C 0.21145 0.40452 0.68515 0.0
C1358 C 0.21353 0.38275 0.69884 0.0
C1359 C 0.22939 0.31871 0.82384 0.0
C1360 C 0.20486 0.3161 0.82554 0.0
C1361 C 0.23807 0.32394 0.80164 0.0
C1362 C 0.2224 0.32669 0.78075 0.0
C1363 C 0.19786 0.32608 0.78267 0.0
C1364 C 0.18913 0.32076 0.80492 0.0
C1365 C 0.2317 0.32681 0.75667 0.0
C1366 C 0.22854 0.34779 0.74181 0.0
C1367 C 0.24429 0.30623 0.74873 0.0
C1368 C 0.24774 0.28336 0.76346 0.0
C1369 C 0.22812 0.27011 0.7705 0.0
C1370 C 0.23155 0.24891 0.78487 0.0
C1371 C 0.25451 0.24065 0.7921 0.0
C1372 C 0.2741 0.25354 0.78492 0.0
C1373 C 0.27077 0.27479 0.77061 0.0
H1374 H 0.25713 0.22424 0.80323 0.0
H1375 H 0.23006 0.43283 0.66714 0.0
H1376 H 0.7541 0.63255 0.46468 0.0
H1377 H 0.7699 0.62982 0.42498 0.0
H1378 H 0.73063 0.6953 0.40158 0.0
H1379 H 0.71477 0.6981 0.44069 0.0
H1380 H 0.72372 0.65834 0.36918 0.0
H1381 H 0.79041 0.69665 0.41682 0.0
H1382 H 0.82208 0.69801 0.45037 0.0
H1383 H 0.85206 0.63108 0.42489 0.0
H1384 H 0.82036 0.62919 0.39134 0.0
H1385 H 0.77157 0.7198 0.27497 0.0
H1386 H 0.75916 0.70535 0.31335 0.0
H1387 H 0.80296 0.64045 0.3097 0.0
H1388 H 0.81502 0.65441 0.27051 0.0
H1389 H 0.80873 0.66493 0.35464 0.0
H1390 H 0.74573 0.63187 0.30223 0.0
H1391 H 0.7141 0.63141 0.26864 0.0
H1392 H 0.67695 0.68879 0.30296 0.0
H1393 H 0.70843 0.68978 0.33666 0.0
C1394 C 0.74908 0.64651 0.45115 0.0
C1395 C 0.73306 0.66546 0.45585 0.0
C1396 C 0.75808 0.64489 0.42848 0.0
C1397 C 0.7513 0.66228 0.41031 0.0
C1398 C 0.73589 0.68153 0.41526 0.0
C1399 C 0.7269 0.68314 0.43772 0.0
C1400 C 0.75955 0.66057 0.38579 0.0
C1401 C 0.74231 0.65979 0.36598 0.0
C1402 C 0.78384 0.66142 0.38166 0.0
C1403 C 0.80286 0.6626 0.40178 0.0
C1404 C 0.80364 0.68211 0.4185 0.0
C1405 C 0.82161 0.683 0.43749 0.0
C1406 C 0.83902 0.66459 0.43981 0.0
C1407 C 0.83853 0.6453 0.4231 0.0
C1408 C 0.82057 0.64431 0.4041 0.0
C1409 C 0.77821 0.70215 0.28191 0.0
C1410 C 0.79412 0.68816 0.2694 0.0
C1411 C 0.77116 0.69398 0.30398 0.0
C1412 C 0.77991 0.67169 0.3142 0.0
C1413 C 0.79595 0.65767 0.30202 0.0
C1414 C 0.80288 0.66575 0.2797 0.0
C1415 C 0.77279 0.66398 0.33812 0.0
C1416 C 0.79019 0.66285 0.35779 0.0
C1417 C 0.74859 0.66146 0.34219 0.0
C1418 C 0.72956 0.66098 0.32193 0.0
C1419 C 0.7309 0.64451 0.30255 0.0
C1420 C 0.71296 0.64412 0.28351 0.0
C1421 C 0.69353 0.66007 0.28366 0.0
C1422 C 0.692 0.67643 0.30287 0.0
C1423 C 0.70986 0.67687 0.32198 0.0
H1424 H 0.67966 0.65973 0.26891 0.0
H1425 H 0.85293 0.66532 0.45451 0.0
H1426 H 0.79347 0.25788 0.05615 0.0
H1427 H 0.77245 0.29165 0.03419 0.0
H1428 H 0.72278 0.23967 0.99951 0.0
H1429 H 0.74381 0.20568 0.02112 0.0
H1430 H 0.73738 0.27283 0.96762 0.0
H1431 H 0.70755 0.27503 0.04605 0.0
H1432 H 0.71076 0.27701 0.09061 0.0
H1433 H 0.74559 0.34733 0.08837 0.0
H1434 H 0.74287 0.34561 0.04378 0.0
H1435 H 0.64573 0.35326 0.92283 0.0
H1436 H 0.66886 0.32141 0.94548 0.0
H1437 H 0.71601 0.37713 0.97771 0.0
H1438 H 0.69241 0.40933 0.95561 0.0
H1439 H 0.70445 0.34331 0.01087 0.0
H1440 H 0.73282 0.3418 0.93222 0.0
H1441 H 0.72962 0.33965 0.88768 0.0
H1442 H 0.69768 0.26787 0.89028 0.0
H1443 H 0.70035 0.26974 0.93485 0.0
C1444 C 0.77808 0.25356 0.04386 0.0
C1445 C 0.7703 0.22901 0.04051 0.0
C1446 C 0.76603 0.27294 0.03139 0.0
C1447 C 0.7459 0.26819 0.01544 0.0
C1448 C 0.73826 0.24373 0.01178 0.0
C1449 C 0.75029 0.22433 0.02423 0.0
C1450 C 0.73282 0.2887 0.00243 0.0
C1451 C 0.72992 0.2881 0.97707 0.0
C1452 C 0.72369 0.30894 0.01478 0.0
C1453 C 0.72523 0.31007 0.04159 0.0
C1454 C 0.71606 0.29083 0.05507 0.0
C1455 C 0.71776 0.29192 0.08033 0.0
C1456 C 0.72843 0.31225 0.09232 0.0
C1457 C 0.73736 0.33157 0.07906 0.0
C1458 C 0.73573 0.33056 0.05379 0.0
C1459 C 0.66083 0.35882 0.93496 0.0
C1460 C 0.66721 0.38386 0.93744 0.0
C1461 C 0.6742 0.34055 0.9477 0.0
C1462 C 0.69434 0.34688 0.96302 0.0
C1463 C 0.70059 0.37186 0.96587 0.0
C1464 C 0.68719 0.3902 0.95311 0.0
C1465 C 0.70879 0.32732 0.97605 0.0
C1466 C 0.71198 0.3281 0.00141 0.0
C1467 C 0.71819 0.30722 0.9637 0.0
C1468 C 0.71659 0.30602 0.93688 0.0
C1469 C 0.72493 0.32564 0.92329 0.0
C1470 C 0.72324 0.32446 0.89804 0.0
C1471 C 0.7134 0.30366 0.88615 0.0
C1472 C 0.70527 0.28398 0.89951 0.0
C1473 C 0.70688 0.28509 0.92477 0.0
H1474 H 0.71212 0.30278 0.8666 0.0
H1475 H 0.72973 0.31306 0.11187 0.0
H1476 H 0.31118 0.24321 0.54388 0.0
H1477 H 0.29223 0.20689 0.5241 0.0
H1478 H 0.22404 0.24278 0.52273 0.0
H1479 H 0.24284 0.27935 0.54187 0.0
H1480 H 0.22852 0.18964 0.54108 0.0
H1481 H 0.24411 0.24448 0.47434 0.0
H1482 H 0.27042 0.26996 0.45134 0.0
H1483 H 0.31387 0.2065 0.44067 0.0
H1484 H 0.28799 0.18072 0.46397 0.0
H1485 H 0.14901 0.1255 0.45982 0.0
H1486 H 0.17342 0.15491 0.48389 0.0
H1487 H 0.23637 0.12447 0.45676 0.0
H1488 H 0.21184 0.09603 0.43126 0.0
H1489 H 0.2389 0.17171 0.45503 0.0
H1490 H 0.22233 0.11524 0.51675 0.0
H1491 H 0.1983 0.08846 0.54099 0.0
H1492 H 0.16 0.15176 0.56317 0.0
H1493 H 0.18357 0.17891 0.53879 0.0
C1494 C 0.29215 0.24331 0.53941 0.0
C1495 C 0.27847 0.26411 0.54432 0.0
C1496 C 0.28139 0.22261 0.52814 0.0
C1497 C 0.2568 0.22227 0.52207 0.0
C1498 C 0.24305 0.24277 0.52738 0.0
C1499 C 0.25383 0.26365 0.53816 0.0
C1500 C 0.24534 0.2008 0.50957 0.0
C1501 C 0.23058 0.1857 0.52223 0.0
C1502 C 0.24888 0.19532 0.48531 0.0
C1503 C 0.2643 0.21076 0.47115 0.0
C1504 C 0.25941 0.23602 0.46731 0.0
C1505 C 0.27421 0.2505 0.45417 0.0
C1506 C 0.29385 0.23987 0.44462 0.0
C1507 C 0.29868 0.21472 0.44812 0.0
C1508 C 0.28395 0.20016 0.46128 0.0
C1509 C 0.16803 0.12509 0.45882 0.0
C1510 C 0.1784 0.10846 0.44341 0.0
C1511 C 0.18205 0.1417 0.47294 0.0
C1512 C 0.20682 0.14172 0.47244 0.0
C1513 C 0.21731 0.12476 0.45753 0.0
C1514 C 0.20325 0.10832 0.44313 0.0
C1515 C 0.22148 0.16049 0.48635 0.0
C1516 C 0.23693 0.17521 0.47399 0.0
C1517 C 0.21888 0.16533 0.51106 0.0
C1518 C 0.20462 0.14909 0.52578 0.0
C1519 C 0.20867 0.12344 0.52665 0.0
C1520 C 0.19515 0.10819 0.54044 0.0
C1521 C 0.17761 0.1184 0.55358 0.0
C1522 C 0.17358 0.14388 0.55298 0.0
C1523 C 0.18704 0.15921 0.5392 0.0
H1524 H 0.16716 0.10656 0.56425 0.0
H1525 H 0.30529 0.25111 0.43445 0.0
H1526 H 0.19936 0.8159 0.93157 0.0
H1527 H 0.22145 0.81409 0.89604 0.0
H1528 H 0.28014 0.85203 0.93469 0.0
H1529 H 0.25815 0.85372 0.97076 0.0
H1530 H 0.2393 0.84847 0.86793 0.0
H1531 H 0.33146 0.82634 0.91476 0.0
H1532 H 0.34972 0.80888 0.95319 0.0
H1533 H 0.28729 0.76541 0.96042 0.0
H1534 H 0.26882 0.78237 0.9219 0.0
H1535 H 0.3143 0.83218 0.77267 0.0
H1536 H 0.3023 0.8473 0.8114 0.0
H1537 H 0.29572 0.77212 0.83605 0.0
H1538 H 0.30819 0.757 0.79781 0.0
H1539 H 0.31467 0.801 0.87215 0.0
H1540 H 0.24789 0.8033 0.81086 0.0
H1541 H 0.22677 0.81628 0.77205 0.0
H1542 H 0.23387 0.89236 0.79321 0.0
H1543 H 0.25533 0.87981 0.83204 0.0
C1544 C 0.21693 0.82397 0.93263 0.0
C1545 C 0.22705 0.83476 0.95416 0.0
C1546 C 0.22948 0.82306 0.91218 0.0
C1547 C 0.25246 0.83281 0.91276 0.0
C1548 C 0.26247 0.84422 0.93396 0.0
C1549 C 0.24987 0.84519 0.95452 0.0
C1550 C 0.26604 0.82974 0.89137 0.0
C1551 C 0.25598 0.83843 0.8689 0.0
C1552 C 0.28767 0.81644 0.89262 0.0
C1553 C 0.29868 0.80588 0.91564 0.0
C1554 C 0.32168 0.81302 0.92455 0.0
C1555 C 0.33205 0.80321 0.94633 0.0
C1556 C 0.31963 0.78612 0.95929 0.0
C1557 C 0.29685 0.77872 0.95043 0.0
C1558 C 0.28641 0.78845 0.92863 0.0
C1559 C 0.31068 0.81893 0.78654 0.0
C1560 C 0.31186 0.79341 0.78213 0.0
C1561 C 0.30376 0.82758 0.80858 0.0
C1562 C 0.29792 0.81081 0.82649 0.0
C1563 C 0.30015 0.78538 0.82249 0.0
C1564 C 0.30701 0.77676 0.80053 0.0
C1565 C 0.28769 0.81936 0.84866 0.0
C1566 C 0.29839 0.81171 0.87128 0.0
C1567 C 0.26632 0.8331 0.8475 0.0
C1568 C 0.25348 0.84065 0.82418 0.0
C1569 C 0.24512 0.82281 0.80714 0.0
C1570 C 0.23306 0.83008 0.78516 0.0
C1571 C 0.22906 0.85513 0.78013 0.0
C1572 C 0.23705 0.87296 0.7971 0.0
C1573 C 0.24915 0.86578 0.81909 0.0
H1574 H 0.2197 0.86072 0.76311 0.0
H1575 H 0.32769 0.77856 0.97615 0.0
loop_
_geom_bond_atom_site_label_1
_geom_bond_atom_site_label_2
_geom_bond_distance
_geom_bond_site_symmetry_2
_ccdc_geom_bond_type
Sc0 O3 2.025 . S
Sc0 O10 2.105 . S
Sc0 O13 2.105 . S
Sc0 O16 2.105 . S
Sc0 O19 2.105 1_554 S
Sc1 O3 2.025 . S
Sc1 O11 2.105 1_554 S
Sc1 O15 2.105 . S
Sc1 O17 2.105 . S
Sc1 O21 2.105 1_554 S
Sc2 O3 2.025 . S
Sc2 O12 2.067 1_554 S
Sc2 O14 2.105 . S
Sc2 O18 2.105 . S
Sc2 O20 2.105 . S
O3 Sc0 2.025 . S
O3 Sc1 2.025 . S
O3 Sc2 2.025 . S
C4 O10 1.268 . S
C4 O20 1.268 . S
C5 O11 1.268 . S
C5 O19 1.268 . S
C6 O12 1.297 . S
C6 O21 1.268 . S
C7 O13 1.268 . S
C7 O17 1.268 . S
C8 O14 1.268 . S
C8 O16 1.268 . S
C9 O15 1.268 . S
C9 O18 1.268 . S
O10 Sc0 2.105 . S
O10 C4 1.268 . S
O11 Sc1 2.105 1_556 S
O11 C5 1.268 . S
O12 Sc2 2.067 1_556 S
O12 C6 1.297 . S
O13 Sc0 2.105 . S
O13 C7 1.268 . S
O14 Sc2 2.105 . S
O14 C8 1.268 . S
O15 Sc1 2.105 . S
O15 C9 1.268 . S
O16 Sc0 2.105 . S
O16 C8 1.268 . S
O17 Sc1 2.105 . S
O17 C7 1.268 . S
O18 Sc2 2.105 . S
O18 C9 1.268 . S
O19 Sc0 2.105 1_556 S
O19 C5 1.268 . S
O20 Sc2 2.105 . S
O20 C4 1.268 . S
O21 Sc1 2.105 1_556 S
O21 C6 1.268 . S
Sc22 O25 2.025 . S
Sc22 O32 2.105 . S
Sc22 O35 2.105 . S
Sc22 O38 2.105 . S
Sc22 O41 2.105 . S
Sc23 O25 2.025 . S
Sc23 O33 2.105 . S
Sc23 O37 2.105 . S
Sc23 O39 2.105 . S
Sc23 O43 2.105 . S
Sc24 O25 2.025 . S
Sc24 O34 2.105 . S
Sc24 O36 2.105 . S
Sc24 O40 2.105 . S
Sc24 O42 2.105 . S
O25 Sc22 2.025 . S
O25 Sc23 2.025 . S
O25 Sc24 2.025 . S
C26 O32 1.268 . S
C26 O42 1.268 . S
C27 O33 1.268 . S
C27 O41 1.268 . S
C28 O34 1.268 . S
C28 O43 1.268 . S
C29 O35 1.268 . S
C29 O39 1.268 . S
C30 O36 1.268 . S
C30 O38 1.268 . S
C31 O37 1.268 . S
C31 O40 1.268 . S
O32 Sc22 2.105 . S
O32 C26 1.268 . S
O33 Sc23 2.105 . S
O33 C27 1.268 . S
O34 Sc24 2.105 . S
O34 C28 1.268 . S
O35 Sc22 2.105 . S
O35 C29 1.268 . S
O36 Sc24 2.105 . S
O36 C30 1.268 . S
O37 Sc23 2.105 . S
O37 C31 1.268 . S
O38 Sc22 2.105 . S
O38 C30 1.268 . S
O39 Sc23 2.105 . S
O39 C29 1.268 . S
O40 Sc24 2.105 . S
O40 C31 1.268 . S
O41 Sc22 2.105 . S
O41 C27 1.268 . S
O42 Sc24 2.105 . S
O42 C26 1.268 . S
O43 Sc23 2.105 . S
O43 C28 1.268 . S
Sc44 O47 2.025 . S
Sc44 O54 2.105 . S
Sc44 O57 2.105 . S
Sc44 O60 2.105 . S
Sc44 O63 2.105 . S
Sc45 O47 2.025 . S
Sc45 O55 2.105 . S
Sc45 O59 2.105 . S
Sc45 O61 2.105 . S
Sc45 O65 2.105 . S
Sc46 O47 2.025 . S
Sc46 O56 2.105 . S
Sc46 O58 2.105 . S
Sc46 O62 2.105 . S
Sc46 O64 2.105 . S
O47 Sc44 2.025 . S
O47 Sc45 2.025 . S
O47 Sc46 2.025 . S
C48 O54 1.268 . S
C48 O64 1.268 . S
C49 O55 1.268 . S
C49 O63 1.268 . S
C50 O56 1.268 . S
C50 O65 1.268 . S
C51 O57 1.268 . S
C51 O61 1.268 . S
C52 O58 1.268 . S
C52 O60 1.268 . S
C53 O59 1.268 . S
C53 O62 1.268 . S
O54 Sc44 2.105 . S
O54 C48 1.268 . S
O55 Sc45 2.105 . S
O55 C49 1.268 . S
O56 Sc46 2.105 . S
O56 C50 1.268 . S
O57 Sc44 2.105 . S
O57 C51 1.268 . S
O58 Sc46 2.105 . S
O58 C52 1.268 . S
O59 Sc45 2.105 . S
O59 C53 1.268 . S
O60 Sc44 2.105 . S
O60 C52 1.268 . S
O61 Sc45 2.105 . S
O61 C51 1.268 . S
O62 Sc46 2.105 . S
O62 C53 1.268 . S
O63 Sc44 2.105 . S
O63 C49 1.268 . S
O64 Sc46 2.105 . S
O64 C48 1.268 . S
O65 Sc45 2.105 . S
O65 C50 1.268 . S
Sc66 O69 2.025 . S
Sc66 O76 2.105 . S
Sc66 O79 2.105 . S
Sc66 O82 2.105 . S
Sc66 O85 2.105 . S
Sc67 O69 2.025 . S
Sc67 O77 2.105 . S
Sc67 O81 2.105 . S
Sc67 O83 2.105 . S
Sc67 O87 2.105 . S
Sc68 O69 2.025 . S
Sc68 O78 2.105 . S
Sc68 O80 2.105 . S
Sc68 O84 2.105 . S
Sc68 O86 2.105 . S
O69 Sc66 2.025 . S
O69 Sc67 2.025 . S
O69 Sc68 2.025 . S
C70 O76 1.268 . S
C70 O86 1.268 . S
C71 O77 1.268 . S
C71 O85 1.268 . S
C72 O78 1.268 . S
C72 O87 1.268 . S
C73 O79 1.268 . S
C73 O83 1.268 . S
C74 O80 1.268 . S
C74 O82 1.268 . S
C75 O81 1.268 . S
C75 O84 1.268 . S
O76 Sc66 2.105 . S
O76 C70 1.268 . S
O77 Sc67 2.105 . S
O77 C71 1.268 . S
O78 Sc68 2.105 . S
O78 C72 1.268 . S
O79 Sc66 2.105 . S
O79 C73 1.268 . S
O80 Sc68 2.105 . S
O80 C74 1.268 . S
O81 Sc67 2.105 . S
O81 C75 1.268 . S
O82 Sc66 2.105 . S
O82 C74 1.268 . S
O83 Sc67 2.105 . S
O83 C73 1.268 . S
O84 Sc68 2.105 . S
O84 C75 1.268 . S
O85 Sc66 2.105 . S
O85 C71 1.268 . S
O86 Sc68 2.105 . S
O86 C70 1.268 . S
O87 Sc67 2.105 . S
O87 C72 1.268 . S
C88 C89 1.384 . S
C88 H101 0.947 . S
C88 C123 1.382 . S
C89 C88 1.384 . S
C89 C90 1.378 . S
C90 C89 1.378 . S
C90 C91 1.378 . S
C90 H102 0.952 . S
C91 C90 1.378 . S
C91 H103 0.950 . S
C91 C122 1.383 . S
H92 C111 0.947 . S
H93 C112 0.946 . S
H94 C114 0.953 . S
H95 C115 0.945 . S
H96 C117 0.952 . S
H97 C118 0.949 . S
H98 C120 0.950 . S
H99 C121 0.948 . S
H100 C123 0.951 . S
H101 C88 0.947 . S
H102 C90 0.952 . S
H103 C91 0.950 . S
N104 C107 1.382 . S
N104 C109 1.363 . S
N105 C107 1.371 . S
N105 C108 1.372 . S
N106 C108 1.361 . S
N106 C109 1.377 . S
C107 N104 1.382 . S
C107 N105 1.371 . S
C107 C110 1.480 . S
C108 N105 1.372 . S
C108 N106 1.361 . S
C108 C116 1.457 . S
C109 N104 1.363 . S
C109 N106 1.377 . S
C109 C122 1.479 . S
C110 C107 1.480 . S
C110 C111 1.383 . S
C110 C115 1.385 . S
C111 H92 0.947 . S
C111 C110 1.383 . S
C111 C112 1.388 . S
C112 H93 0.946 . S
C112 C111 1.388 . S
C112 C113 1.384 . S
C113 C112 1.384 . S
C113 C114 1.377 . S
C114 H94 0.953 . S
C114 C113 1.377 . S
C114 C115 1.369 . S
C115 H95 0.945 . S
C115 C110 1.385 . S
C115 C114 1.369 . S
C116 C108 1.457 . S
C116 C117 1.372 . S
C116 C121 1.364 . S
C117 H96 0.952 . S
C117 C116 1.372 . S
C117 C118 1.389 1_545 S
C118 H97 0.949 . S
C118 C117 1.389 1_565 S
C118 C119 1.387 . S
C119 C118 1.387 . S
C119 C120 1.372 . S
C120 H98 0.950 . S
C120 C119 1.372 . S
C120 C121 1.379 1_565 S
C121 H99 0.948 . S
C121 C116 1.364 . S
C121 C120 1.379 1_545 S
C122 C91 1.383 . S
C122 C109 1.479 . S
C122 C123 1.398 . S
C123 C88 1.382 . S
C123 H100 0.951 . S
C123 C122 1.398 . S
C124 C125 1.384 . S
C124 H137 0.947 . S
C124 C159 1.382 . S
C125 C124 1.384 . S
C125 C126 1.378 . S
C126 C125 1.378 . S
C126 C127 1.378 . S
C126 H138 0.952 . S
C127 C126 1.378 . S
C127 H139 0.950 . S
C127 C158 1.383 . S
H128 C147 0.947 . S
H129 C148 0.946 . S
H130 C150 0.953 . S
H131 C151 0.945 . S
H132 C153 0.952 . S
H133 C154 0.949 . S
H134 C156 0.950 . S
H135 C157 0.948 . S
H136 C159 0.951 . S
H137 C124 0.947 . S
H138 C126 0.952 . S
H139 C127 0.950 . S
N140 C143 1.382 . S
N140 C145 1.363 . S
N141 C143 1.371 . S
N141 C144 1.372 . S
N142 C144 1.361 . S
N142 C145 1.377 . S
C143 N140 1.382 . S
C143 N141 1.371 . S
C143 C146 1.480 . S
C144 N141 1.372 . S
C144 N142 1.361 . S
C144 C152 1.457 . S
C145 N140 1.363 . S
C145 N142 1.377 . S
C145 C158 1.479 . S
C146 C143 1.480 . S
C146 C147 1.383 . S
C146 C151 1.385 . S
C147 H128 0.947 . S
C147 C146 1.383 . S
C147 C148 1.388 . S
C148 H129 0.946 . S
C148 C147 1.388 . S
C148 C149 1.384 . S
C149 C148 1.384 . S
C149 C150 1.377 . S
C150 H130 0.953 . S
C150 C149 1.377 . S
C150 C151 1.369 . S
C151 H131 0.945 . S
C151 C146 1.385 . S
C151 C150 1.369 . S
C152 C144 1.457 . S
C152 C153 1.372 . S
C152 C157 1.364 . S
C153 H132 0.952 . S
C153 C152 1.372 . S
C153 C154 1.389 . S
C154 H133 0.949 . S
C154 C153 1.389 . S
C154 C155 1.387 . S
C155 C154 1.387 . S
C155 C156 1.372 . S
C156 H134 0.950 . S
C156 C155 1.372 . S
C156 C157 1.379 . S
C157 H135 0.948 . S
C157 C152 1.364 . S
C157 C156 1.379 . S
C158 C127 1.383 . S
C158 C145 1.479 . S
C158 C159 1.398 . S
C159 C124 1.382 . S
C159 H136 0.951 . S
C159 C158 1.398 . S
C160 C161 1.384 . S
C160 H173 0.947 . S
C160 C195 1.382 . S
C161 C160 1.384 . S
C161 C162 1.378 . S
C162 C161 1.378 . S
C162 C163 1.378 . S
C162 H174 0.952 . S
C163 C162 1.378 . S
C163 H175 0.950 . S
C163 C194 1.383 . S
H164 C183 0.947 . S
H165 C184 0.946 . S
H166 C186 0.953 . S
H167 C187 0.945 . S
H168 C189 0.952 . S
H169 C190 0.949 . S
H170 C192 0.950 . S
H171 C193 0.948 . S
H172 C195 0.951 . S
H173 C160 0.947 . S
H174 C162 0.952 . S
H175 C163 0.950 . S
N176 C179 1.382 . S
N176 C181 1.363 . S
N177 C179 1.371 . S
N177 C180 1.372 . S
N178 C180 1.361 . S
N178 C181 1.377 . S
C179 N176 1.382 . S
C179 N177 1.371 . S
C179 C182 1.480 . S
C180 N177 1.372 . S
C180 N178 1.361 . S
C180 C188 1.457 . S
C181 N176 1.363 . S
C181 N178 1.377 . S
C181 C194 1.479 . S
C182 C179 1.480 . S
C182 C183 1.383 . S
C182 C187 1.385 . S
C183 H164 0.947 . S
C183 C182 1.383 . S
C183 C184 1.388 . S
C184 H165 0.946 . S
C184 C183 1.388 . S
C184 C185 1.384 . S
C185 C184 1.384 . S
C185 C186 1.377 . S
C186 H166 0.953 . S
C186 C185 1.377 . S
C186 C187 1.369 . S
C187 H167 0.945 . S
C187 C182 1.385 . S
C187 C186 1.369 . S
C188 C180 1.457 . S
C188 C189 1.372 . S
C188 C193 1.364 . S
C189 H168 0.952 . S
C189 C188 1.372 . S
C189 C190 1.389 . S
C190 H169 0.949 . S
C190 C189 1.389 . S
C190 C191 1.387 . S
C191 C190 1.387 . S
C191 C192 1.372 . S
C192 H170 0.950 . S
C192 C191 1.372 . S
C192 C193 1.379 . S
C193 H171 0.948 . S
C193 C188 1.364 . S
C193 C192 1.379 . S
C194 C163 1.383 . S
C194 C181 1.479 . S
C194 C195 1.398 . S
C195 C160 1.382 . S
C195 H172 0.951 . S
C195 C194 1.398 . S
C196 C197 1.384 . S
C196 H209 0.947 . S
C196 C231 1.382 . S
C197 C196 1.384 . S
C197 C198 1.378 . S
C198 C197 1.378 . S
C198 C199 1.378 . S
C198 H210 0.952 . S
C199 C198 1.378 . S
C199 H211 0.950 . S
C199 C230 1.383 . S
H200 C219 0.947 . S
H201 C220 0.946 . S
H202 C222 0.953 . S
H203 C223 0.945 . S
H204 C225 0.952 . S
H205 C226 0.949 . S
H206 C228 0.950 . S
H207 C229 0.948 . S
H208 C231 0.951 . S
H209 C196 0.947 . S
H210 C198 0.952 . S
H211 C199 0.950 . S
N212 C215 1.382 . S
N212 C217 1.363 . S
N213 C215 1.371 . S
N213 C216 1.372 . S
N214 C216 1.361 . S
N214 C217 1.377 . S
C215 N212 1.382 . S
C215 N213 1.371 . S
C215 C218 1.480 . S
C216 N213 1.372 . S
C216 N214 1.361 . S
C216 C224 1.457 . S
C217 N212 1.363 . S
C217 N214 1.377 . S
C217 C230 1.479 . S
C218 C215 1.480 . S
C218 C219 1.383 . S
C218 C223 1.385 . S
C219 H200 0.947 . S
C219 C218 1.383 . S
C219 C220 1.388 . S
C220 H201 0.946 . S
C220 C219 1.388 . S
C220 C221 1.384 . S
C221 C220 1.384 . S
C221 C222 1.377 . S
C222 H202 0.953 . S
C222 C221 1.377 . S
C222 C223 1.369 . S
C223 H203 0.945 . S
C223 C218 1.385 . S
C223 C222 1.369 . S
C224 C216 1.457 . S
C224 C225 1.372 . S
C224 C229 1.364 . S
C225 H204 0.952 . S
C225 C224 1.372 . S
C225 C226 1.389 . S
C226 H205 0.949 . S
C226 C225 1.389 . S
C226 C227 1.387 . S
C227 C226 1.387 . S
C227 C228 1.372 . S
C228 H206 0.950 . S
C228 C227 1.372 . S
C228 C229 1.379 . S
C229 H207 0.948 . S
C229 C224 1.364 . S
C229 C228 1.379 . S
C230 C199 1.383 . S
C230 C217 1.479 . S
C230 C231 1.398 . S
C231 C196 1.382 . S
C231 H208 0.951 . S
C231 C230 1.398 . S
C232 C233 1.384 . S
C232 H245 0.947 . S
C232 C267 1.382 . S
C233 C232 1.384 . S
C233 C234 1.378 . S
C234 C233 1.378 . S
C234 C235 1.378 . S
C234 H246 0.952 . S
C235 C234 1.378 . S
C235 H247 0.950 . S
C235 C266 1.383 . S
H236 C255 0.947 . S
H237 C256 0.946 . S
H238 C258 0.953 . S
H239 C259 0.945 . S
H240 C261 0.952 . S
H241 C262 0.949 . S
H242 C264 0.950 . S
H243 C265 0.948 . S
H244 C267 0.951 . S
H245 C232 0.947 . S
H246 C234 0.952 . S
H247 C235 0.950 . S
N248 C251 1.382 . S
N248 C253 1.363 . S
N249 C251 1.371 . S
N249 C252 1.372 . S
N250 C252 1.361 . S
N250 C253 1.377 . S
C251 N248 1.382 . S
C251 N249 1.371 . S
C251 C254 1.480 . S
C252 N249 1.372 . S
C252 N250 1.361 . S
C252 C260 1.457 . S
C253 N248 1.363 . S
C253 N250 1.377 . S
C253 C266 1.479 . S
C254 C251 1.480 . S
C254 C255 1.383 . S
C254 C259 1.385 . S
C255 H236 0.947 . S
C255 C254 1.383 . S
C255 C256 1.388 . S
C256 H237 0.946 . S
C256 C255 1.388 . S
C256 C257 1.384 . S
C257 C256 1.384 . S
C257 C258 1.377 . S
C258 H238 0.953 . S
C258 C257 1.377 . S
C258 C259 1.369 . S
C259 H239 0.945 . S
C259 C254 1.385 . S
C259 C258 1.369 . S
C260 C252 1.457 . S
C260 C261 1.372 . S
C260 C265 1.364 . S
C261 H240 0.952 . S
C261 C260 1.372 . S
C261 C262 1.389 . S
C262 H241 0.949 . S
C262 C261 1.389 . S
C262 C263 1.387 . S
C263 C262 1.387 . S
C263 C264 1.372 . S
C264 H242 0.950 . S
C264 C263 1.372 . S
C264 C265 1.379 . S
C265 H243 0.948 . S
C265 C260 1.364 . S
C265 C264 1.379 . S
C266 C235 1.383 . S
C266 C253 1.479 . S
C266 C267 1.398 . S
C267 C232 1.382 . S
C267 H244 0.951 . S
C267 C266 1.398 . S
C268 C269 1.384 . S
C268 H281 0.947 . S
C268 C303 1.382 . S
C269 C268 1.384 . S
C269 C270 1.378 . S
C270 C269 1.378 . S
C270 C271 1.378 . S
C270 H282 0.952 . S
C271 C270 1.378 . S
C271 H283 0.950 . S
C271 C302 1.383 . S
H272 C291 0.947 . S
H273 C292 0.946 . S
H274 C294 0.953 . S
H275 C295 0.945 . S
H276 C297 0.952 . S
H277 C298 0.949 . S
H278 C300 0.950 . S
H279 C301 0.948 . S
H280 C303 0.951 . S
H281 C268 0.947 . S
H282 C270 0.952 . S
H283 C271 0.950 . S
N284 C287 1.382 . S
N284 C289 1.363 . S
N285 C287 1.371 . S
N285 C288 1.372 . S
N286 C288 1.361 . S
N286 C289 1.377 . S
C287 N284 1.382 . S
C287 N285 1.371 . S
C287 C290 1.480 . S
C288 N285 1.372 . S
C288 N286 1.361 . S
C288 C296 1.457 . S
C289 N284 1.363 . S
C289 N286 1.377 . S
C289 C302 1.479 . S
C290 C287 1.480 . S
C290 C291 1.383 . S
C290 C295 1.385 . S
C291 H272 0.947 . S
C291 C290 1.383 . S
C291 C292 1.388 . S
C292 H273 0.946 . S
C292 C291 1.388 . S
C292 C293 1.384 . S
C293 C292 1.384 . S
C293 C294 1.377 . S
C294 H274 0.953 . S
C294 C293 1.377 . S
C294 C295 1.369 . S
C295 H275 0.945 . S
C295 C290 1.385 . S
C295 C294 1.369 . S
C296 C288 1.457 . S
C296 C297 1.372 . S
C296 C301 1.364 . S
C297 H276 0.952 . S
C297 C296 1.372 . S
C297 C298 1.389 . S
C298 H277 0.949 . S
C298 C297 1.389 . S
C298 C299 1.387 . S
C299 C298 1.387 . S
C299 C300 1.372 . S
C300 H278 0.950 . S
C300 C299 1.372 . S
C300 C301 1.379 . S
C301 H279 0.948 . S
C301 C296 1.364 . S
C301 C300 1.379 . S
C302 C271 1.383 . S
C302 C289 1.479 . S
C302 C303 1.398 . S
C303 C268 1.382 . S
C303 H280 0.951 . S
C303 C302 1.398 . S
C304 C305 1.384 . S
C304 H317 0.947 . S
C304 C339 1.382 . S
C305 C304 1.384 . S
C305 C306 1.378 . S
C306 C305 1.378 . S
C306 C307 1.378 . S
C306 H318 0.952 . S
C307 C306 1.378 . S
C307 H319 0.950 . S
C307 C338 1.383 . S
H308 C327 0.947 . S
H309 C328 0.946 . S
H310 C330 0.953 . S
H311 C331 0.945 . S
H312 C333 0.952 . S
H313 C334 0.949 . S
H314 C336 0.950 . S
H315 C337 0.948 . S
H316 C339 0.951 . S
H317 C304 0.947 . S
H318 C306 0.952 . S
H319 C307 0.950 . S
N320 C323 1.382 . S
N320 C325 1.363 . S
N321 C323 1.371 . S
N321 C324 1.372 . S
N322 C324 1.361 . S
N322 C325 1.377 . S
C323 N320 1.382 . S
C323 N321 1.371 . S
C323 C326 1.480 . S
C324 N321 1.372 . S
C324 N322 1.361 . S
C324 C332 1.457 . S
C325 N320 1.363 . S
C325 N322 1.377 . S
C325 C338 1.479 . S
C326 C323 1.480 . S
C326 C327 1.383 . S
C326 C331 1.385 . S
C327 H308 0.947 . S
C327 C326 1.383 . S
C327 C328 1.388 . S
C328 H309 0.946 . S
C328 C327 1.388 . S
C328 C329 1.384 . S
C329 C328 1.384 . S
C329 C330 1.377 . S
C330 H310 0.953 . S
C330 C329 1.377 . S
C330 C331 1.369 . S
C331 H311 0.945 . S
C331 C326 1.385 . S
C331 C330 1.369 . S
C332 C324 1.457 . S
C332 C333 1.372 . S
C332 C337 1.364 . S
C333 H312 0.952 . S
C333 C332 1.372 . S
C333 C334 1.389 . S
C334 H313 0.949 . S
C334 C333 1.389 . S
C334 C335 1.387 . S
C335 C334 1.387 . S
C335 C336 1.372 . S
C336 H314 0.950 . S
C336 C335 1.372 . S
C336 C337 1.379 . S
C337 H315 0.948 . S
C337 C332 1.364 . S
C337 C336 1.379 . S
C338 C307 1.383 . S
C338 C325 1.479 . S
C338 C339 1.398 . S
C339 C304 1.382 . S
C339 H316 0.951 . S
C339 C338 1.398 . S
C340 C341 1.384 . S
C340 H353 0.947 . S
C340 C375 1.382 1_545 S
C341 C340 1.384 . S
C341 C342 1.378 . S
C342 C341 1.378 . S
C342 C343 1.378 1_545 S
C342 H354 0.952 . S
C343 C342 1.378 1_565 S
C343 H355 0.950 . S
C343 C374 1.383 . S
H344 C363 0.947 . S
H345 C364 0.946 . S
H346 C366 0.953 . S
H347 C367 0.945 . S
H348 C369 0.952 . S
H349 C370 0.949 . S
H350 C372 0.950 . S
H351 C373 0.948 . S
H352 C375 0.951 . S
H353 C340 0.947 . S
H354 C342 0.952 . S
H355 C343 0.950 . S
N356 C359 1.382 . S
N356 C361 1.363 . S
N357 C359 1.371 . S
N357 C360 1.372 . S
N358 C360 1.361 . S
N358 C361 1.377 . S
C359 N356 1.382 . S
C359 N357 1.371 . S
C359 C362 1.480 . S
C360 N357 1.372 . S
C360 N358 1.361 . S
C360 C368 1.457 . S
C361 N356 1.363 . S
C361 N358 1.377 . S
C361 C374 1.479 . S
C362 C359 1.480 . S
C362 C363 1.383 . S
C362 C367 1.385 . S
C363 H344 0.947 . S
C363 C362 1.383 . S
C363 C364 1.388 . S
C364 H345 0.946 . S
C364 C363 1.388 . S
C364 C365 1.384 . S
C365 C364 1.384 . S
C365 C366 1.377 . S
C366 H346 0.953 . S
C366 C365 1.377 . S
C366 C367 1.369 . S
C367 H347 0.945 . S
C367 C362 1.385 . S
C367 C366 1.369 . S
C368 C360 1.457 . S
C368 C369 1.372 . S
C368 C373 1.364 . S
C369 H348 0.952 . S
C369 C368 1.372 . S
C369 C370 1.389 . S
C370 H349 0.949 . S
C370 C369 1.389 . S
C370 C371 1.387 . S
C371 C370 1.387 . S
C371 C372 1.372 . S
C372 H350 0.950 . S
C372 C371 1.372 . S
C372 C373 1.379 . S
C373 H351 0.948 . S
C373 C368 1.364 . S
C373 C372 1.379 . S
C374 C343 1.383 . S
C374 C361 1.479 . S
C374 C375 1.398 . S
C375 C340 1.382 1_565 S
C375 H352 0.951 . S
C375 C374 1.398 . S
H376 C394 0.951 . S
H377 C396 0.951 . S
H378 C398 0.950 . S
H379 C399 0.950 . S
H380 C401 0.950 . S
H381 C404 0.950 . S
H382 C405 0.950 . S
H383 C407 0.950 . S
H384 C408 0.950 . S
H385 C409 0.951 . S
H386 C411 0.951 . S
H387 C413 0.950 . S
H388 C414 0.950 . S
H389 C416 0.950 . S
H390 C419 0.950 . S
H391 C420 0.950 . S
H392 C422 0.950 . S
H393 C423 0.950 . S
C394 H376 0.951 . S
C394 C395 1.366 . S
C394 C396 1.388 . S
C395 C394 1.366 . S
C395 C399 1.385 . S
C396 H377 0.951 . S
C396 C394 1.388 . S
C396 C397 1.366 . S
C397 C396 1.366 . S
C397 C398 1.414 . S
C397 C400 1.499 . S
C398 H378 0.950 . S
C398 C397 1.414 . S
C398 C399 1.374 . S
C399 H379 0.950 . S
C399 C395 1.385 . S
C399 C398 1.374 . S
C400 C397 1.499 . S
C400 C401 1.373 . S
C400 C402 1.389 . S
C401 H380 0.950 . S
C401 C400 1.373 . S
C401 C417 1.377 . S
C402 C400 1.389 . S
C402 C403 1.524 . S
C402 C416 1.377 . S
C403 C402 1.524 . S
C403 C404 1.397 . S
C403 C408 1.363 . S
C404 H381 0.950 . S
C404 C403 1.397 . S
C404 C405 1.334 . S
C405 H382 0.950 . S
C405 C404 1.334 . S
C405 C406 1.287 . S
C406 C405 1.287 . S
C406 C407 1.524 . S
C406 H425 0.913 . S
C407 H383 0.950 . S
C407 C406 1.524 . S
C407 C408 1.415 . S
C408 H384 0.950 . S
C408 C403 1.363 . S
C408 C407 1.415 . S
C409 H385 0.951 . S
C409 C410 1.366 . S
C409 C411 1.388 . S
C410 C409 1.366 . S
C410 C414 1.385 . S
C411 H386 0.951 . S
C411 C409 1.388 . S
C411 C412 1.366 . S
C412 C411 1.366 . S
C412 C413 1.414 . S
C412 C415 1.499 . S
C413 H387 0.950 . S
C413 C412 1.414 . S
C413 C414 1.374 . S
C414 H388 0.950 . S
C414 C410 1.385 . S
C414 C413 1.374 . S
C415 C412 1.499 . S
C415 C416 1.373 . S
C415 C417 1.389 . S
C416 H389 0.950 . S
C416 C402 1.377 . S
C416 C415 1.373 . S
C417 C401 1.377 . S
C417 C415 1.389 . S
C417 C418 1.524 . S
C418 C417 1.524 . S
C418 C419 1.397 . S
C418 C423 1.363 . S
C419 H390 0.950 . S
C419 C418 1.397 . S
C419 C420 1.334 . S
C420 H391 0.950 . S
C420 C419 1.334 . S
C420 C421 1.287 . S
C421 C420 1.287 . S
C421 C422 1.524 . S
C421 H424 0.999 . S
C422 H392 0.950 . S
C422 C421 1.524 . S
C422 C423 1.415 . S
C423 H393 0.950 . S
C423 C418 1.363 . S
C423 C422 1.415 . S
H424 C421 0.999 . S
H425 C406 0.913 . S
H426 C444 0.951 . S
H427 C446 0.951 . S
H428 C448 0.950 . S
H429 C449 0.950 . S
H430 C451 0.950 . S
H431 C454 0.950 . S
H432 C455 0.950 . S
H433 C457 0.950 . S
H434 C458 0.950 . S
H435 C459 0.951 . S
H436 C461 0.951 . S
H437 C463 0.950 . S
H438 C464 0.950 . S
H439 C466 0.950 . S
H440 C469 0.950 . S
H441 C470 0.950 . S
H442 C472 0.950 . S
H443 C473 0.950 . S
C444 H426 0.951 . S
C444 C445 1.366 . S
C444 C446 1.388 . S
C445 C444 1.366 . S
C445 C449 1.385 . S
C446 H427 0.951 . S
C446 C444 1.388 . S
C446 C447 1.366 . S
C447 C446 1.366 . S
C447 C448 1.414 . S
C447 C450 1.499 . S
C448 H428 0.950 . S
C448 C447 1.414 . S
C448 C449 1.374 . S
C449 H429 0.950 . S
C449 C445 1.385 . S
C449 C448 1.374 . S
C450 C447 1.499 . S
C450 C451 1.373 . S
C450 C452 1.389 . S
C451 H430 0.950 . S
C451 C450 1.373 . S
C451 C467 1.377 . S
C452 C450 1.389 . S
C452 C453 1.524 . S
C452 C466 1.377 . S
C453 C452 1.524 . S
C453 C454 1.397 . S
C453 C458 1.363 . S
C454 H431 0.950 . S
C454 C453 1.397 . S
C454 C455 1.334 . S
C455 H432 0.950 . S
C455 C454 1.334 . S
C455 C456 1.287 . S
C456 C455 1.287 . S
C456 C457 1.524 . S
C456 H475 0.913 . S
C457 H433 0.950 . S
C457 C456 1.524 . S
C457 C458 1.415 . S
C458 H434 0.950 . S
C458 C453 1.363 . S
C458 C457 1.415 . S
C459 H435 0.951 . S
C459 C460 1.366 . S
C459 C461 1.388 . S
C460 C459 1.366 . S
C460 C464 1.385 . S
C461 H436 0.951 . S
C461 C459 1.388 . S
C461 C462 1.366 . S
C462 C461 1.366 . S
C462 C463 1.414 . S
C462 C465 1.499 . S
C463 H437 0.950 . S
C463 C462 1.414 . S
C463 C464 1.374 . S
C464 H438 0.950 . S
C464 C460 1.385 . S
C464 C463 1.374 . S
C465 C462 1.499 . S
C465 C466 1.373 . S
C465 C467 1.389 . S
C466 H439 0.950 . S
C466 C452 1.377 . S
C466 C465 1.373 . S
C467 C451 1.377 . S
C467 C465 1.389 . S
C467 C468 1.524 . S
C468 C467 1.524 . S
C468 C469 1.397 . S
C468 C473 1.363 . S
C469 H440 0.950 . S
C469 C468 1.397 . S
C469 C470 1.334 . S
C470 H441 0.950 . S
C470 C469 1.334 . S
C470 C471 1.287 . S
C471 C470 1.287 . S
C471 C472 1.524 . S
C471 H474 0.999 . S
C472 H442 0.950 . S
C472 C471 1.524 . S
C472 C473 1.415 . S
C473 H443 0.950 . S
C473 C468 1.363 . S
C473 C472 1.415 . S
H474 C471 0.999 . S
H475 C456 0.913 . S
H476 C494 0.951 . S
H477 C496 0.951 . S
H478 C498 0.950 . S
H479 C499 0.950 . S
H480 C501 0.950 . S
H481 C504 0.950 . S
H482 C505 0.950 . S
H483 C507 0.950 . S
H484 C508 0.950 . S
H485 C509 0.951 . S
H486 C511 0.951 . S
H487 C513 0.950 . S
H488 C514 0.950 . S
H489 C516 0.950 . S
H490 C519 0.950 . S
H491 C520 0.950 . S
H492 C522 0.950 . S
H493 C523 0.950 . S
C494 H476 0.951 . S
C494 C495 1.366 . S
C494 C496 1.388 . S
C495 C494 1.366 . S
C495 C499 1.385 . S
C496 H477 0.951 . S
C496 C494 1.388 . S
C496 C497 1.366 . S
C497 C496 1.366 . S
C497 C498 1.414 . S
C497 C500 1.499 1_545 S
C498 H478 0.950 . S
C498 C497 1.414 . S
C498 C499 1.374 . S
C499 H479 0.950 . S
C499 C495 1.385 . S
C499 C498 1.374 . S
C500 C497 1.499 1_565 S
C500 C501 1.373 . S
C500 C502 1.389 . S
C501 H480 0.950 . S
C501 C500 1.373 . S
C501 C517 1.377 . S
C502 C500 1.389 . S
C502 C503 1.524 . S
C502 C516 1.377 . S
C503 C502 1.524 . S
C503 C504 1.397 1_565 S
C503 C508 1.363 . S
C504 H481 0.950 . S
C504 C503 1.397 1_545 S
C504 C505 1.334 . S
C505 H482 0.950 . S
C505 C504 1.334 . S
C505 C506 1.287 . S
C506 C505 1.287 . S
C506 C507 1.524 1_545 S
C506 H525 0.913 . S
C507 H483 0.950 . S
C507 C506 1.524 1_565 S
C507 C508 1.415 . S
C508 H484 0.950 . S
C508 C503 1.363 . S
C508 C507 1.415 . S
C509 H485 0.951 . S
C509 C510 1.366 . S
C509 C511 1.388 . S
C510 C509 1.366 . S
C510 C514 1.385 . S
C511 H486 0.951 . S
C511 C509 1.388 . S
C511 C512 1.366 . S
C512 C511 1.366 . S
C512 C513 1.414 . S
C512 C515 1.499 . S
C513 H487 0.950 . S
C513 C512 1.414 . S
C513 C514 1.374 . S
C514 H488 0.950 . S
C514 C510 1.385 . S
C514 C513 1.374 . S
C515 C512 1.499 . S
C515 C516 1.373 . S
C515 C517 1.389 . S
C516 H489 0.950 . S
C516 C502 1.377 . S
C516 C515 1.373 . S
C517 C501 1.377 . S
C517 C515 1.389 . S
C517 C518 1.524 . S
C518 C517 1.524 . S
C518 C519 1.397 . S
C518 C523 1.363 . S
C519 H490 0.950 . S
C519 C518 1.397 . S
C519 C520 1.334 . S
C520 H491 0.950 . S
C520 C519 1.334 . S
C520 C521 1.287 . S
C521 C520 1.287 . S
C521 C522 1.524 . S
C521 H524 0.999 . S
C522 H492 0.950 . S
C522 C521 1.524 . S
C522 C523 1.415 . S
C523 H493 0.950 . S
C523 C518 1.363 . S
C523 C522 1.415 . S
H524 C521 0.999 . S
H525 C506 0.913 . S
H526 C544 0.951 . S
H527 C546 0.951 . S
H528 C548 0.950 . S
H529 C549 0.950 . S
H530 C551 0.950 . S
H531 C554 0.950 . S
H532 C555 0.950 . S
H533 C557 0.950 . S
H534 C558 0.950 . S
H535 C559 0.951 . S
H536 C561 0.951 . S
H537 C563 0.950 . S
H538 C564 0.950 . S
H539 C566 0.950 . S
H540 C569 0.950 . S
H541 C570 0.950 . S
H542 C572 0.950 . S
H543 C573 0.950 . S
C544 H526 0.951 . S
C544 C545 1.366 . S
C544 C546 1.388 . S
C545 C544 1.366 . S
C545 C549 1.385 . S
C546 H527 0.951 . S
C546 C544 1.388 . S
C546 C547 1.366 . S
C547 C546 1.366 . S
C547 C548 1.414 . S
C547 C550 1.499 . S
C548 H528 0.950 . S
C548 C547 1.414 . S
C548 C549 1.374 . S
C549 H529 0.950 . S
C549 C545 1.385 . S
C549 C548 1.374 . S
C550 C547 1.499 . S
C550 C551 1.373 . S
C550 C552 1.389 . S
C551 H530 0.950 . S
C551 C550 1.373 . S
C551 C567 1.377 . S
C552 C550 1.389 . S
C552 C553 1.524 . S
C552 C566 1.377 . S
C553 C552 1.524 . S
C553 C554 1.397 . S
C553 C558 1.363 . S
C554 H531 0.950 . S
C554 C553 1.397 . S
C554 C555 1.334 . S
C555 H532 0.950 . S
C555 C554 1.334 . S
C555 C556 1.287 . S
C556 C555 1.287 . S
C556 C557 1.524 . S
C556 H575 0.913 . S
C557 H533 0.950 . S
C557 C556 1.524 . S
C557 C558 1.415 . S
C558 H534 0.950 . S
C558 C553 1.363 . S
C558 C557 1.415 . S
C559 H535 0.951 . S
C559 C560 1.366 . S
C559 C561 1.388 . S
C560 C559 1.366 . S
C560 C564 1.385 . S
C561 H536 0.951 . S
C561 C559 1.388 . S
C561 C562 1.366 . S
C562 C561 1.366 . S
C562 C563 1.414 . S
C562 C565 1.499 . S
C563 H537 0.950 . S
C563 C562 1.414 . S
C563 C564 1.374 . S
C564 H538 0.950 . S
C564 C560 1.385 . S
C564 C563 1.374 . S
C565 C562 1.499 . S
C565 C566 1.373 . S
C565 C567 1.389 . S
C566 H539 0.950 . S
C566 C552 1.377 . S
C566 C565 1.373 . S
C567 C551 1.377 . S
C567 C565 1.389 . S
C567 C568 1.524 . S
C568 C567 1.524 . S
C568 C569 1.397 . S
C568 C573 1.363 . S
C569 H540 0.950 . S
C569 C568 1.397 . S
C569 C570 1.334 . S
C570 H541 0.950 . S
C570 C569 1.334 . S
C570 C571 1.287 . S
C571 C570 1.287 . S
C571 C572 1.524 . S
C571 H574 0.999 . S
C572 H542 0.950 . S
C572 C571 1.524 . S
C572 C573 1.415 . S
C573 H543 0.950 . S
C573 C568 1.363 . S
C573 C572 1.415 . S
H574 C571 0.999 . S
H575 C556 0.913 . S
H576 C594 0.951 . S
H577 C596 0.951 . S
H578 C598 0.950 . S
H579 C599 0.950 . S
H580 C601 0.950 . S
H581 C604 0.950 . S
H582 C605 0.950 . S
H583 C607 0.950 . S
H584 C608 0.950 . S
H585 C609 0.951 . S
H586 C611 0.951 . S
H587 C613 0.950 . S
H588 C614 0.950 . S
H589 C616 0.950 . S
H590 C619 0.950 . S
H591 C620 0.950 . S
H592 C622 0.950 . S
H593 C623 0.950 . S
C594 H576 0.951 . S
C594 C595 1.366 . S
C594 C596 1.388 . S
C595 C594 1.366 . S
C595 C599 1.385 . S
C596 H577 0.951 . S
C596 C594 1.388 . S
C596 C597 1.366 . S
C597 C596 1.366 . S
C597 C598 1.414 . S
C597 C600 1.499 . S
C598 H578 0.950 . S
C598 C597 1.414 . S
C598 C599 1.374 . S
C599 H579 0.950 . S
C599 C595 1.385 . S
C599 C598 1.374 . S
C600 C597 1.499 . S
C600 C601 1.373 . S
C600 C602 1.389 . S
C601 H580 0.950 . S
C601 C600 1.373 . S
C601 C617 1.377 . S
C602 C600 1.389 . S
C602 C603 1.524 . S
C602 C616 1.377 . S
C603 C602 1.524 . S
C603 C604 1.397 . S
C603 C608 1.363 . S
C604 H581 0.950 . S
C604 C603 1.397 . S
C604 C605 1.334 . S
C605 H582 0.950 . S
C605 C604 1.334 . S
C605 C606 1.287 . S
C606 C605 1.287 . S
C606 C607 1.524 . S
C606 H625 0.913 . S
C607 H583 0.950 . S
C607 C606 1.524 . S
C607 C608 1.415 . S
C608 H584 0.950 . S
C608 C603 1.363 . S
C608 C607 1.415 . S
C609 H585 0.951 . S
C609 C610 1.366 . S
C609 C611 1.388 . S
C610 C609 1.366 . S
C610 C614 1.385 . S
C611 H586 0.951 . S
C611 C609 1.388 . S
C611 C612 1.366 . S
C612 C611 1.366 . S
C612 C613 1.414 . S
C612 C615 1.499 . S
C613 H587 0.950 . S
C613 C612 1.414 . S
C613 C614 1.374 . S
C614 H588 0.950 . S
C614 C610 1.385 . S
C614 C613 1.374 . S
C615 C612 1.499 . S
C615 C616 1.373 . S
C615 C617 1.389 . S
C616 H589 0.950 . S
C616 C602 1.377 . S
C616 C615 1.373 . S
C617 C601 1.377 . S
C617 C615 1.389 . S
C617 C618 1.524 . S
C618 C617 1.524 . S
C618 C619 1.397 . S
C618 C623 1.363 . S
C619 H590 0.950 . S
C619 C618 1.397 . S
C619 C620 1.334 . S
C620 H591 0.950 . S
C620 C619 1.334 . S
C620 C621 1.287 . S
C621 C620 1.287 . S
C621 C622 1.524 . S
C621 H624 0.999 . S
C622 H592 0.950 . S
C622 C621 1.524 . S
C622 C623 1.415 . S
C623 H593 0.950 . S
C623 C618 1.363 . S
C623 C622 1.415 . S
H624 C621 0.999 . S
H625 C606 0.913 . S
H626 C644 0.951 . S
H627 C646 0.951 . S
H628 C648 0.950 1_556 S
H629 C649 0.950 . S
H630 C651 0.950 . S
H631 C654 0.950 . S
H632 C655 0.950 . S
H633 C657 0.950 . S
H634 C658 0.950 . S
H635 C659 0.951 . S
H636 C661 0.951 1_655 S
H637 C663 0.950 1_554 S
H638 C664 0.950 . S
H639 C666 0.950 . S
H640 C669 0.950 1_455 S
H641 C670 0.950 1_455 S
H642 C672 0.950 . S
H643 C673 0.950 . S
C644 H626 0.951 . S
C644 C645 1.366 . S
C644 C646 1.388 . S
C645 C644 1.366 . S
C645 C649 1.385 . S
C646 H627 0.951 . S
C646 C644 1.388 . S
C646 C647 1.366 . S
C647 C646 1.366 . S
C647 C648 1.414 . S
C647 C650 1.499 . S
C648 H628 0.950 1_554 S
C648 C647 1.414 . S
C648 C649 1.374 . S
C649 H629 0.950 . S
C649 C645 1.385 . S
C649 C648 1.374 . S
C650 C647 1.499 . S
C650 C651 1.373 1_554 S
C650 C652 1.389 . S
C651 H630 0.950 . S
C651 C650 1.373 1_556 S
C651 C667 1.377 . S
C652 C650 1.389 . S
C652 C653 1.524 . S
C652 C666 1.377 . S
C653 C652 1.524 . S
C653 C654 1.397 . S
C653 C658 1.363 . S
C654 H631 0.950 . S
C654 C653 1.397 . S
C654 C655 1.334 . S
C655 H632 0.950 . S
C655 C654 1.334 . S
C655 C656 1.287 . S
C656 C655 1.287 . S
C656 C657 1.524 . S
C656 H675 0.913 . S
C657 H633 0.950 . S
C657 C656 1.524 . S
C657 C658 1.415 . S
C658 H634 0.950 . S
C658 C653 1.363 . S
C658 C657 1.415 . S
C659 H635 0.951 . S
C659 C660 1.366 . S
C659 C661 1.388 . S
C660 C659 1.366 . S
C660 C664 1.385 . S
C661 H636 0.951 1_455 S
C661 C659 1.388 . S
C661 C662 1.366 . S
C662 C661 1.366 . S
C662 C663 1.414 . S
C662 C665 1.499 1_455 S
C663 H637 0.950 1_556 S
C663 C662 1.414 . S
C663 C664 1.374 . S
C664 H638 0.950 . S
C664 C660 1.385 . S
C664 C663 1.374 . S
C665 C662 1.499 1_655 S
C665 C666 1.373 1_556 S
C665 C667 1.389 . S
C666 H639 0.950 . S
C666 C652 1.377 . S
C666 C665 1.373 1_554 S
C667 C651 1.377 . S
C667 C665 1.389 . S
C667 C668 1.524 . S
C668 C667 1.524 . S
C668 C669 1.397 . S
C668 C673 1.363 . S
C669 H640 0.950 1_655 S
C669 C668 1.397 . S
C669 C670 1.334 . S
C670 H641 0.950 1_655 S
C670 C669 1.334 . S
C670 C671 1.287 . S
C671 C670 1.287 . S
C671 C672 1.524 . S
C671 H674 0.999 . S
C672 H642 0.950 . S
C672 C671 1.524 . S
C672 C673 1.415 . S
C673 H643 0.950 . S
C673 C668 1.363 . S
C673 C672 1.415 . S
H674 C671 0.999 . S
H675 C656 0.913 . S
H676 C694 0.951 . S
H677 C696 0.951 . S
H678 C698 0.950 . S
H679 C699 0.950 . S
H680 C701 0.950 . S
H681 C704 0.950 . S
H682 C705 0.950 . S
H683 C707 0.950 . S
H684 C708 0.950 . S
H685 C709 0.951 . S
H686 C711 0.951 . S
H687 C713 0.950 . S
H688 C714 0.950 . S
H689 C716 0.950 . S
H690 C719 0.950 . S
H691 C720 0.950 . S
H692 C722 0.950 . S
H693 C723 0.950 . S
C694 H676 0.951 . S
C694 C695 1.366 . S
C694 C696 1.388 . S
C695 C694 1.366 . S
C695 C699 1.385 . S
C696 H677 0.951 . S
C696 C694 1.388 . S
C696 C697 1.366 . S
C697 C696 1.366 . S
C697 C698 1.414 . S
C697 C700 1.499 . S
C698 H678 0.950 . S
C698 C697 1.414 . S
C698 C699 1.374 . S
C699 H679 0.950 . S
C699 C695 1.385 . S
C699 C698 1.374 . S
C700 C697 1.499 . S
C700 C701 1.373 . S
C700 C702 1.389 . S
C701 H680 0.950 . S
C701 C700 1.373 . S
C701 C717 1.377 . S
C702 C700 1.389 . S
C702 C703 1.524 . S
C702 C716 1.377 . S
C703 C702 1.524 . S
C703 C704 1.397 . S
C703 C708 1.363 . S
C704 H681 0.950 . S
C704 C703 1.397 . S
C704 C705 1.334 . S
C705 H682 0.950 . S
C705 C704 1.334 . S
C705 C706 1.287 . S
C706 C705 1.287 . S
C706 C707 1.524 . S
C706 H725 0.913 . S
C707 H683 0.950 . S
C707 C706 1.524 . S
C707 C708 1.415 . S
C708 H684 0.950 . S
C708 C703 1.363 . S
C708 C707 1.415 . S
C709 H685 0.951 . S
C709 C710 1.366 . S
C709 C711 1.388 . S
C710 C709 1.366 . S
C710 C714 1.385 . S
C711 H686 0.951 . S
C711 C709 1.388 . S
C711 C712 1.366 . S
C712 C711 1.366 . S
C712 C713 1.414 . S
C712 C715 1.499 . S
C713 H687 0.950 . S
C713 C712 1.414 . S
C713 C714 1.374 . S
C714 H688 0.950 . S
C714 C710 1.385 . S
C714 C713 1.374 . S
C715 C712 1.499 . S
C715 C716 1.373 . S
C715 C717 1.389 . S
C716 H689 0.950 . S
C716 C702 1.377 . S
C716 C715 1.373 . S
C717 C701 1.377 . S
C717 C715 1.389 . S
C717 C718 1.524 . S
C718 C717 1.524 . S
C718 C719 1.397 . S
C718 C723 1.363 . S
C719 H690 0.950 . S
C719 C718 1.397 . S
C719 C720 1.334 . S
C720 H691 0.950 . S
C720 C719 1.334 . S
C720 C721 1.287 . S
C721 C720 1.287 . S
C721 C722 1.524 . S
C721 H724 0.999 . S
C722 H692 0.950 . S
C722 C721 1.524 . S
C722 C723 1.415 . S
C723 H693 0.950 . S
C723 C718 1.363 . S
C723 C722 1.415 . S
H724 C721 0.999 . S
H725 C706 0.913 . S
H726 C744 0.951 . S
H727 C746 0.951 . S
H728 C748 0.950 . S
H729 C749 0.950 . S
H730 C751 0.950 . S
H731 C754 0.950 . S
H732 C755 0.950 . S
H733 C757 0.950 1_655 S
H734 C758 0.950 . S
H735 C759 0.951 . S
H736 C761 0.951 . S
H737 C763 0.950 . S
H738 C764 0.950 . S
H739 C766 0.950 . S
H740 C769 0.950 . S
H741 C770 0.950 . S
H742 C772 0.950 . S
H743 C773 0.950 . S
C744 H726 0.951 . S
C744 C745 1.366 . S
C744 C746 1.388 . S
C745 C744 1.366 . S
C745 C749 1.385 . S
C746 H727 0.951 . S
C746 C744 1.388 . S
C746 C747 1.366 . S
C747 C746 1.366 . S
C747 C748 1.414 . S
C747 C750 1.499 . S
C748 H728 0.950 . S
C748 C747 1.414 . S
C748 C749 1.374 . S
C749 H729 0.950 . S
C749 C745 1.385 . S
C749 C748 1.374 . S
C750 C747 1.499 . S
C750 C751 1.373 . S
C750 C752 1.389 . S
C751 H730 0.950 . S
C751 C750 1.373 . S
C751 C767 1.377 . S
C752 C750 1.389 . S
C752 C753 1.524 . S
C752 C766 1.377 . S
C753 C752 1.524 . S
C753 C754 1.397 . S
C753 C758 1.363 . S
C754 H731 0.950 . S
C754 C753 1.397 . S
C754 C755 1.334 . S
C755 H732 0.950 . S
C755 C754 1.334 . S
C755 C756 1.287 . S
C756 C755 1.287 . S
C756 C757 1.524 . S
C756 H775 0.913 . S
C757 H733 0.950 1_455 S
C757 C756 1.524 . S
C757 C758 1.415 . S
C758 H734 0.950 . S
C758 C753 1.363 . S
C758 C757 1.415 . S
C759 H735 0.951 . S
C759 C760 1.366 1_455 S
C759 C761 1.388 . S
C760 C759 1.366 1_655 S
C760 C764 1.385 . S
C761 H736 0.951 . S
C761 C759 1.388 . S
C761 C762 1.366 . S
C762 C761 1.366 . S
C762 C763 1.414 . S
C762 C765 1.499 . S
C763 H737 0.950 . S
C763 C762 1.414 . S
C763 C764 1.374 1_455 S
C764 H738 0.950 . S
C764 C760 1.385 . S
C764 C763 1.374 1_655 S
C765 C762 1.499 . S
C765 C766 1.373 . S
C765 C767 1.389 . S
C766 H739 0.950 . S
C766 C752 1.377 . S
C766 C765 1.373 . S
C767 C751 1.377 . S
C767 C765 1.389 . S
C767 C768 1.524 . S
C768 C767 1.524 . S
C768 C769 1.397 . S
C768 C773 1.363 . S
C769 H740 0.950 . S
C769 C768 1.397 . S
C769 C770 1.334 . S
C770 H741 0.950 . S
C770 C769 1.334 . S
C770 C771 1.287 . S
C771 C770 1.287 . S
C771 C772 1.524 . S
C771 H774 0.999 . S
C772 H742 0.950 . S
C772 C771 1.524 . S
C772 C773 1.415 . S
C773 H743 0.950 . S
C773 C768 1.363 . S
C773 C772 1.415 . S
H774 C771 0.999 . S
H775 C756 0.913 . S
H776 C794 0.951 . S
H777 C796 0.951 . S
H778 C798 0.950 . S
H779 C799 0.950 1_554 S
H780 C801 0.950 . S
H781 C804 0.950 . S
H782 C805 0.950 . S
H783 C807 0.950 . S
H784 C808 0.950 . S
H785 C809 0.951 . S
H786 C811 0.951 . S
H787 C813 0.950 . S
H788 C814 0.950 . S
H789 C816 0.950 . S
H790 C819 0.950 . S
H791 C820 0.950 . S
H792 C822 0.950 1_565 S
H793 C823 0.950 . S
C794 H776 0.951 . S
C794 C795 1.366 . S
C794 C796 1.388 . S
C795 C794 1.366 . S
C795 C799 1.385 . S
C796 H777 0.951 . S
C796 C794 1.388 . S
C796 C797 1.366 . S
C797 C796 1.366 . S
C797 C798 1.414 . S
C797 C800 1.499 . S
C798 H778 0.950 . S
C798 C797 1.414 . S
C798 C799 1.374 . S
C799 H779 0.950 1_556 S
C799 C795 1.385 . S
C799 C798 1.374 . S
C800 C797 1.499 . S
C800 C801 1.373 . S
C800 C802 1.389 . S
C801 H780 0.950 . S
C801 C800 1.373 . S
C801 C817 1.377 . S
C802 C800 1.389 . S
C802 C803 1.524 . S
C802 C816 1.377 . S
C803 C802 1.524 . S
C803 C804 1.397 . S
C803 C808 1.363 . S
C804 H781 0.950 . S
C804 C803 1.397 . S
C804 C805 1.334 . S
C805 H782 0.950 . S
C805 C804 1.334 . S
C805 C806 1.287 . S
C806 C805 1.287 . S
C806 C807 1.524 . S
C806 H825 0.913 . S
C807 H783 0.950 . S
C807 C806 1.524 . S
C807 C808 1.415 . S
C808 H784 0.950 . S
C808 C803 1.363 . S
C808 C807 1.415 . S
C809 H785 0.951 . S
C809 C810 1.366 . S
C809 C811 1.388 . S
C810 C809 1.366 . S
C810 C814 1.385 . S
C811 H786 0.951 . S
C811 C809 1.388 . S
C811 C812 1.366 . S
C812 C811 1.366 . S
C812 C813 1.414 . S
C812 C815 1.499 . S
C813 H787 0.950 . S
C813 C812 1.414 . S
C813 C814 1.374 . S
C814 H788 0.950 . S
C814 C810 1.385 . S
C814 C813 1.374 . S
C815 C812 1.499 . S
C815 C816 1.373 . S
C815 C817 1.389 . S
C816 H789 0.950 . S
C816 C802 1.377 . S
C816 C815 1.373 . S
C817 C801 1.377 . S
C817 C815 1.389 . S
C817 C818 1.524 . S
C818 C817 1.524 . S
C818 C819 1.397 . S
C818 C823 1.363 . S
C819 H790 0.950 . S
C819 C818 1.397 . S
C819 C820 1.334 . S
C820 H791 0.950 . S
C820 C819 1.334 . S
C820 C821 1.287 . S
C821 C820 1.287 . S
C821 C822 1.524 . S
C821 H824 0.999 . S
C822 H792 0.950 1_545 S
C822 C821 1.524 . S
C822 C823 1.415 . S
C823 H793 0.950 . S
C823 C818 1.363 . S
C823 C822 1.415 . S
H824 C821 0.999 . S
H825 C806 0.913 . S
H826 C844 0.951 . S
H827 C846 0.951 . S
H828 C848 0.950 . S
H829 C849 0.950 . S
H830 C851 0.950 . S
H831 C854 0.950 . S
H832 C855 0.950 . S
H833 C857 0.950 . S
H834 C858 0.950 . S
H835 C859 0.951 . S
H836 C861 0.951 . S
H837 C863 0.950 . S
H838 C864 0.950 . S
H839 C866 0.950 . S
H840 C869 0.950 . S
H841 C870 0.950 . S
H842 C872 0.950 . S
H843 C873 0.950 . S
C844 H826 0.951 . S
C844 C845 1.366 . S
C844 C846 1.388 . S
C845 C844 1.366 . S
C845 C849 1.385 . S
C846 H827 0.951 . S
C846 C844 1.388 . S
C846 C847 1.366 . S
C847 C846 1.366 . S
C847 C848 1.414 . S
C847 C850 1.499 . S
C848 H828 0.950 . S
C848 C847 1.414 . S
C848 C849 1.374 . S
C849 H829 0.950 . S
C849 C845 1.385 . S
C849 C848 1.374 . S
C850 C847 1.499 . S
C850 C851 1.373 . S
C850 C852 1.389 . S
C851 H830 0.950 . S
C851 C850 1.373 . S
C851 C867 1.377 . S
C852 C850 1.389 . S
C852 C853 1.524 . S
C852 C866 1.377 . S
C853 C852 1.524 . S
C853 C854 1.397 . S
C853 C858 1.363 . S
C854 H831 0.950 . S
C854 C853 1.397 . S
C854 C855 1.334 . S
C855 H832 0.950 . S
C855 C854 1.334 . S
C855 C856 1.287 . S
C856 C855 1.287 . S
C856 C857 1.524 . S
C856 H875 0.913 . S
C857 H833 0.950 . S
C857 C856 1.524 . S
C857 C858 1.415 . S
C858 H834 0.950 . S
C858 C853 1.363 . S
C858 C857 1.415 . S
C859 H835 0.951 . S
C859 C860 1.366 . S
C859 C861 1.388 . S
C860 C859 1.366 . S
C860 C864 1.385 . S
C861 H836 0.951 . S
C861 C859 1.388 . S
C861 C862 1.366 . S
C862 C861 1.366 . S
C862 C863 1.414 . S
C862 C865 1.499 . S
C863 H837 0.950 . S
C863 C862 1.414 . S
C863 C864 1.374 . S
C864 H838 0.950 . S
C864 C860 1.385 . S
C864 C863 1.374 . S
C865 C862 1.499 . S
C865 C866 1.373 . S
C865 C867 1.389 . S
C866 H839 0.950 . S
C866 C852 1.377 . S
C866 C865 1.373 . S
C867 C851 1.377 . S
C867 C865 1.389 . S
C867 C868 1.524 . S
C868 C867 1.524 . S
C868 C869 1.397 . S
C868 C873 1.363 . S
C869 H840 0.950 . S
C869 C868 1.397 . S
C869 C870 1.334 . S
C870 H841 0.950 . S
C870 C869 1.334 . S
C870 C871 1.287 . S
C871 C870 1.287 . S
C871 C872 1.524 . S
C871 H874 0.999 . S
C872 H842 0.950 . S
C872 C871 1.524 . S
C872 C873 1.415 . S
C873 H843 0.950 . S
C873 C868 1.363 . S
C873 C872 1.415 . S
H874 C871 0.999 . S
H875 C856 0.913 . S
H876 C894 0.951 . S
H877 C896 0.951 . S
H878 C898 0.950 1_554 S
H879 C899 0.950 . S
H880 C901 0.950 1_554 S
H881 C904 0.950 . S
H882 C905 0.950 . S
H883 C907 0.950 . S
H884 C908 0.950 . S
H885 C909 0.951 . S
H886 C911 0.951 . S
H887 C913 0.950 . S
H888 C914 0.950 . S
H889 C916 0.950 . S
H890 C919 0.950 . S
H891 C920 0.950 . S
H892 C922 0.950 . S
H893 C923 0.950 . S
C894 H876 0.951 . S
C894 C895 1.366 . S
C894 C896 1.388 . S
C895 C894 1.366 . S
C895 C899 1.385 1_556 S
C896 H877 0.951 . S
C896 C894 1.388 . S
C896 C897 1.366 . S
C897 C896 1.366 . S
C897 C898 1.414 . S
C897 C900 1.499 1_565 S
C898 H878 0.950 1_556 S
C898 C897 1.414 . S
C898 C899 1.374 1_556 S
C899 H879 0.950 . S
C899 C895 1.385 1_554 S
C899 C898 1.374 1_554 S
C900 C897 1.499 1_545 S
C900 C901 1.373 . S
C900 C902 1.389 . S
C901 H880 0.950 1_556 S
C901 C900 1.373 . S
C901 C917 1.377 . S
C902 C900 1.389 . S
C902 C903 1.524 1_545 S
C902 C916 1.377 . S
C903 C902 1.524 1_565 S
C903 C904 1.397 . S
C903 C908 1.363 1_565 S
C904 H881 0.950 . S
C904 C903 1.397 . S
C904 C905 1.334 . S
C905 H882 0.950 . S
C905 C904 1.334 . S
C905 C906 1.287 . S
C906 C905 1.287 . S
C906 C907 1.524 . S
C906 H925 0.913 . S
C907 H883 0.950 . S
C907 C906 1.524 . S
C907 C908 1.415 1_565 S
C908 H884 0.950 . S
C908 C903 1.363 1_545 S
C908 C907 1.415 1_545 S
C909 H885 0.951 . S
C909 C910 1.366 . S
C909 C911 1.388 . S
C910 C909 1.366 . S
C910 C914 1.385 . S
C911 H886 0.951 . S
C911 C909 1.388 . S
C911 C912 1.366 . S
C912 C911 1.366 . S
C912 C913 1.414 . S
C912 C915 1.499 . S
C913 H887 0.950 . S
C913 C912 1.414 . S
C913 C914 1.374 . S
C914 H888 0.950 . S
C914 C910 1.385 . S
C914 C913 1.374 . S
C915 C912 1.499 . S
C915 C916 1.373 . S
C915 C917 1.389 . S
C916 H889 0.950 . S
C916 C902 1.377 . S
C916 C915 1.373 . S
C917 C901 1.377 . S
C917 C915 1.389 . S
C917 C918 1.524 1_556 S
C918 C917 1.524 1_554 S
C918 C919 1.397 . S
C918 C923 1.363 . S
C919 H890 0.950 . S
C919 C918 1.397 . S
C919 C920 1.334 . S
C920 H891 0.950 . S
C920 C919 1.334 . S
C920 C921 1.287 . S
C921 C920 1.287 . S
C921 C922 1.524 . S
C921 H924 0.999 . S
C922 H892 0.950 . S
C922 C921 1.524 . S
C922 C923 1.415 . S
C923 H893 0.950 . S
C923 C918 1.363 . S
C923 C922 1.415 . S
H924 C921 0.999 . S
H925 C906 0.913 . S
H926 C944 0.951 . S
H927 C946 0.951 . S
H928 C948 0.950 . S
H929 C949 0.950 . S
H930 C951 0.950 . S
H931 C954 0.950 . S
H932 C955 0.950 . S
H933 C957 0.950 . S
H934 C958 0.950 . S
H935 C959 0.951 . S
H936 C961 0.951 . S
H937 C963 0.950 . S
H938 C964 0.950 . S
H939 C966 0.950 . S
H940 C969 0.950 . S
H941 C970 0.950 . S
H942 C972 0.950 . S
H943 C973 0.950 . S
C944 H926 0.951 . S
C944 C945 1.366 . S
C944 C946 1.388 . S
C945 C944 1.366 . S
C945 C949 1.385 . S
C946 H927 0.951 . S
C946 C944 1.388 . S
C946 C947 1.366 . S
C947 C946 1.366 . S
C947 C948 1.414 . S
C947 C950 1.499 . S
C948 H928 0.950 . S
C948 C947 1.414 . S
C948 C949 1.374 . S
C949 H929 0.950 . S
C949 C945 1.385 . S
C949 C948 1.374 . S
C950 C947 1.499 . S
C950 C951 1.373 . S
C950 C952 1.389 . S
C951 H930 0.950 . S
C951 C950 1.373 . S
C951 C967 1.377 . S
C952 C950 1.389 . S
C952 C953 1.524 . S
C952 C966 1.377 . S
C953 C952 1.524 . S
C953 C954 1.397 . S
C953 C958 1.363 . S
C954 H931 0.950 . S
C954 C953 1.397 . S
C954 C955 1.334 . S
C955 H932 0.950 . S
C955 C954 1.334 . S
C955 C956 1.287 . S
C956 C955 1.287 . S
C956 C957 1.524 . S
C956 H975 0.913 . S
C957 H933 0.950 . S
C957 C956 1.524 . S
C957 C958 1.415 . S
C958 H934 0.950 . S
C958 C953 1.363 . S
C958 C957 1.415 . S
C959 H935 0.951 . S
C959 C960 1.366 . S
C959 C961 1.388 . S
C960 C959 1.366 . S
C960 C964 1.385 . S
C961 H936 0.951 . S
C961 C959 1.388 . S
C961 C962 1.366 . S
C962 C961 1.366 . S
C962 C963 1.414 . S
C962 C965 1.499 . S
C963 H937 0.950 . S
C963 C962 1.414 . S
C963 C964 1.374 . S
C964 H938 0.950 . S
C964 C960 1.385 . S
C964 C963 1.374 . S
C965 C962 1.499 . S
C965 C966 1.373 . S
C965 C967 1.389 . S
C966 H939 0.950 . S
C966 C952 1.377 . S
C966 C965 1.373 . S
C967 C951 1.377 . S
C967 C965 1.389 . S
C967 C968 1.524 . S
C968 C967 1.524 . S
C968 C969 1.397 . S
C968 C973 1.363 . S
C969 H940 0.950 . S
C969 C968 1.397 . S
C969 C970 1.334 . S
C970 H941 0.950 . S
C970 C969 1.334 . S
C970 C971 1.287 . S
C971 C970 1.287 . S
C971 C972 1.524 . S
C971 H974 0.999 . S
C972 H942 0.950 . S
C972 C971 1.524 . S
C972 C973 1.415 . S
C973 H943 0.950 . S
C973 C968 1.363 . S
C973 C972 1.415 . S
H974 C971 0.999 . S
H975 C956 0.913 . S
H976 C994 0.951 . S
H977 C996 0.951 . S
H978 C998 0.950 . S
H979 C999 0.950 . S
H980 C1001 0.950 . S
H981 C1004 0.950 . S
H982 C1005 0.950 . S
H983 C1007 0.950 . S
H984 C1008 0.950 . S
H985 C1009 0.951 . S
H986 C1011 0.951 . S
H987 C1013 0.950 . S
H988 C1014 0.950 . S
H989 C1016 0.950 . S
H990 C1019 0.950 . S
H991 C1020 0.950 . S
H992 C1022 0.950 . S
H993 C1023 0.950 . S
C994 H976 0.951 . S
C994 C995 1.366 . S
C994 C996 1.388 . S
C995 C994 1.366 . S
C995 C999 1.385 . S
C996 H977 0.951 . S
C996 C994 1.388 . S
C996 C997 1.366 . S
C997 C996 1.366 . S
C997 C998 1.414 . S
C997 C1000 1.499 . S
C998 H978 0.950 . S
C998 C997 1.414 . S
C998 C999 1.374 . S
C999 H979 0.950 . S
C999 C995 1.385 . S
C999 C998 1.374 . S
C1000 C997 1.499 . S
C1000 C1001 1.373 . S
C1000 C1002 1.389 . S
C1001 H980 0.950 . S
C1001 C1000 1.373 . S
C1001 C1017 1.377 . S
C1002 C1000 1.389 . S
C1002 C1003 1.524 . S
C1002 C1016 1.377 . S
C1003 C1002 1.524 . S
C1003 C1004 1.397 . S
C1003 C1008 1.363 . S
C1004 H981 0.950 . S
C1004 C1003 1.397 . S
C1004 C1005 1.334 . S
C1005 H982 0.950 . S
C1005 C1004 1.334 . S
C1005 C1006 1.287 . S
C1006 C1005 1.287 . S
C1006 C1007 1.524 . S
C1006 H1025 0.913 . S
C1007 H983 0.950 . S
C1007 C1006 1.524 . S
C1007 C1008 1.415 . S
C1008 H984 0.950 . S
C1008 C1003 1.363 . S
C1008 C1007 1.415 . S
C1009 H985 0.951 . S
C1009 C1010 1.366 . S
C1009 C1011 1.388 . S
C1010 C1009 1.366 . S
C1010 C1014 1.385 . S
C1011 H986 0.951 . S
C1011 C1009 1.388 . S
C1011 C1012 1.366 . S
C1012 C1011 1.366 . S
C1012 C1013 1.414 . S
C1012 C1015 1.499 . S
C1013 H987 0.950 . S
C1013 C1012 1.414 . S
C1013 C1014 1.374 . S
C1014 H988 0.950 . S
C1014 C1010 1.385 . S
C1014 C1013 1.374 . S
C1015 C1012 1.499 . S
C1015 C1016 1.373 . S
C1015 C1017 1.389 . S
C1016 H989 0.950 . S
C1016 C1002 1.377 . S
C1016 C1015 1.373 . S
C1017 C1001 1.377 . S
C1017 C1015 1.389 . S
C1017 C1018 1.524 . S
C1018 C1017 1.524 . S
C1018 C1019 1.397 . S
C1018 C1023 1.363 . S
C1019 H990 0.950 . S
C1019 C1018 1.397 . S
C1019 C1020 1.334 . S
C1020 H991 0.950 . S
C1020 C1019 1.334 . S
C1020 C1021 1.287 . S
C1021 C1020 1.287 . S
C1021 C1022 1.524 . S
C1021 H1024 0.999 . S
C1022 H992 0.950 . S
C1022 C1021 1.524 . S
C1022 C1023 1.415 . S
C1023 H993 0.950 . S
C1023 C1018 1.363 . S
C1023 C1022 1.415 . S
H1024 C1021 0.999 . S
H1025 C1006 0.913 . S
H1026 C1044 0.951 . S
H1027 C1046 0.951 . S
H1028 C1048 0.950 . S
H1029 C1049 0.950 . S
H1030 C1051 0.950 . S
H1031 C1054 0.950 . S
H1032 C1055 0.950 . S
H1033 C1057 0.950 . S
H1034 C1058 0.950 . S
H1035 C1059 0.951 . S
H1036 C1061 0.951 1_455 S
H1037 C1063 0.950 . S
H1038 C1064 0.950 . S
H1039 C1066 0.950 . S
H1040 C1069 0.950 1_655 S
H1041 C1070 0.950 . S
H1042 C1072 0.950 . S
H1043 C1073 0.950 . S
C1044 H1026 0.951 . S
C1044 C1045 1.366 . S
C1044 C1046 1.388 . S
C1045 C1044 1.366 . S
C1045 C1049 1.385 . S
C1046 H1027 0.951 . S
C1046 C1044 1.388 . S
C1046 C1047 1.366 . S
C1047 C1046 1.366 . S
C1047 C1048 1.414 . S
C1047 C1050 1.499 . S
C1048 H1028 0.950 . S
C1048 C1047 1.414 . S
C1048 C1049 1.374 . S
C1049 H1029 0.950 . S
C1049 C1045 1.385 . S
C1049 C1048 1.374 . S
C1050 C1047 1.499 . S
C1050 C1051 1.373 . S
C1050 C1052 1.389 . S
C1051 H1030 0.950 . S
C1051 C1050 1.373 . S
C1051 C1067 1.377 . S
C1052 C1050 1.389 . S
C1052 C1053 1.524 . S
C1052 C1066 1.377 . S
C1053 C1052 1.524 . S
C1053 C1054 1.397 . S
C1053 C1058 1.363 . S
C1054 H1031 0.950 . S
C1054 C1053 1.397 . S
C1054 C1055 1.334 . S
C1055 H1032 0.950 . S
C1055 C1054 1.334 . S
C1055 C1056 1.287 . S
C1056 C1055 1.287 . S
C1056 C1057 1.524 . S
C1056 H1075 0.913 . S
C1057 H1033 0.950 . S
C1057 C1056 1.524 . S
C1057 C1058 1.415 . S
C1058 H1034 0.950 . S
C1058 C1053 1.363 . S
C1058 C1057 1.415 . S
C1059 H1035 0.951 . S
C1059 C1060 1.366 . S
C1059 C1061 1.388 . S
C1060 C1059 1.366 . S
C1060 C1064 1.385 . S
C1061 H1036 0.951 1_655 S
C1061 C1059 1.388 . S
C1061 C1062 1.366 . S
C1062 C1061 1.366 . S
C1062 C1063 1.414 . S
C1062 C1065 1.499 1_655 S
C1063 H1037 0.950 . S
C1063 C1062 1.414 . S
C1063 C1064 1.374 . S
C1064 H1038 0.950 . S
C1064 C1060 1.385 . S
C1064 C1063 1.374 . S
C1065 C1062 1.499 1_455 S
C1065 C1066 1.373 . S
C1065 C1067 1.389 . S
C1066 H1039 0.950 . S
C1066 C1052 1.377 . S
C1066 C1065 1.373 . S
C1067 C1051 1.377 . S
C1067 C1065 1.389 . S
C1067 C1068 1.524 . S
C1068 C1067 1.524 . S
C1068 C1069 1.397 . S
C1068 C1073 1.363 . S
C1069 H1040 0.950 1_455 S
C1069 C1068 1.397 . S
C1069 C1070 1.334 1_455 S
C1070 H1041 0.950 . S
C1070 C1069 1.334 1_655 S
C1070 C1071 1.287 1_655 S
C1071 C1070 1.287 1_455 S
C1071 C1072 1.524 . S
C1071 H1074 0.999 . S
C1072 H1042 0.950 . S
C1072 C1071 1.524 . S
C1072 C1073 1.415 . S
C1073 H1043 0.950 . S
C1073 C1068 1.363 . S
C1073 C1072 1.415 . S
H1074 C1071 0.999 . S
H1075 C1056 0.913 . S
H1076 C1094 0.951 . S
H1077 C1096 0.951 . S
H1078 C1098 0.950 . S
H1079 C1099 0.950 . S
H1080 C1101 0.950 . S
H1081 C1104 0.950 . S
H1082 C1105 0.950 . S
H1083 C1107 0.950 . S
H1084 C1108 0.950 . S
H1085 C1109 0.951 . S
H1086 C1111 0.951 . S
H1087 C1113 0.950 . S
H1088 C1114 0.950 . S
H1089 C1116 0.950 . S
H1090 C1119 0.950 . S
H1091 C1120 0.950 . S
H1092 C1122 0.950 . S
H1093 C1123 0.950 . S
C1094 H1076 0.951 . S
C1094 C1095 1.366 . S
C1094 C1096 1.388 . S
C1095 C1094 1.366 . S
C1095 C1099 1.385 . S
C1096 H1077 0.951 . S
C1096 C1094 1.388 . S
C1096 C1097 1.366 . S
C1097 C1096 1.366 . S
C1097 C1098 1.414 . S
C1097 C1100 1.499 . S
C1098 H1078 0.950 . S
C1098 C1097 1.414 . S
C1098 C1099 1.374 . S
C1099 H1079 0.950 . S
C1099 C1095 1.385 . S
C1099 C1098 1.374 . S
C1100 C1097 1.499 . S
C1100 C1101 1.373 . S
C1100 C1102 1.389 . S
C1101 H1080 0.950 . S
C1101 C1100 1.373 . S
C1101 C1117 1.377 . S
C1102 C1100 1.389 . S
C1102 C1103 1.524 . S
C1102 C1116 1.377 . S
C1103 C1102 1.524 . S
C1103 C1104 1.397 . S
C1103 C1108 1.363 . S
C1104 H1081 0.950 . S
C1104 C1103 1.397 . S
C1104 C1105 1.334 . S
C1105 H1082 0.950 . S
C1105 C1104 1.334 . S
C1105 C1106 1.287 . S
C1106 C1105 1.287 . S
C1106 C1107 1.524 . S
C1106 H1125 0.913 . S
C1107 H1083 0.950 . S
C1107 C1106 1.524 . S
C1107 C1108 1.415 . S
C1108 H1084 0.950 . S
C1108 C1103 1.363 . S
C1108 C1107 1.415 . S
C1109 H1085 0.951 . S
C1109 C1110 1.366 . S
C1109 C1111 1.388 . S
C1110 C1109 1.366 . S
C1110 C1114 1.385 . S
C1111 H1086 0.951 . S
C1111 C1109 1.388 . S
C1111 C1112 1.366 . S
C1112 C1111 1.366 . S
C1112 C1113 1.414 . S
C1112 C1115 1.499 . S
C1113 H1087 0.950 . S
C1113 C1112 1.414 . S
C1113 C1114 1.374 . S
C1114 H1088 0.950 . S
C1114 C1110 1.385 . S
C1114 C1113 1.374 . S
C1115 C1112 1.499 . S
C1115 C1116 1.373 . S
C1115 C1117 1.389 . S
C1116 H1089 0.950 . S
C1116 C1102 1.377 . S
C1116 C1115 1.373 . S
C1117 C1101 1.377 . S
C1117 C1115 1.389 . S
C1117 C1118 1.524 . S
C1118 C1117 1.524 . S
C1118 C1119 1.397 . S
C1118 C1123 1.363 . S
C1119 H1090 0.950 . S
C1119 C1118 1.397 . S
C1119 C1120 1.334 . S
C1120 H1091 0.950 . S
C1120 C1119 1.334 . S
C1120 C1121 1.287 . S
C1121 C1120 1.287 . S
C1121 C1122 1.524 . S
C1121 H1124 0.999 . S
C1122 H1092 0.950 . S
C1122 C1121 1.524 . S
C1122 C1123 1.415 . S
C1123 H1093 0.950 . S
C1123 C1118 1.363 . S
C1123 C1122 1.415 . S
H1124 C1121 0.999 . S
H1125 C1106 0.913 . S
H1126 C1144 0.951 . S
H1127 C1146 0.951 . S
H1128 C1148 0.950 . S
H1129 C1149 0.950 . S
H1130 C1151 0.950 . S
H1131 C1154 0.950 . S
H1132 C1155 0.950 . S
H1133 C1157 0.950 . S
H1134 C1158 0.950 . S
H1135 C1159 0.951 . S
H1136 C1161 0.951 . S
H1137 C1163 0.950 . S
H1138 C1164 0.950 . S
H1139 C1166 0.950 . S
H1140 C1169 0.950 . S
H1141 C1170 0.950 . S
H1142 C1172 0.950 . S
H1143 C1173 0.950 1_655 S
C1144 H1126 0.951 . S
C1144 C1145 1.366 . S
C1144 C1146 1.388 . S
C1145 C1144 1.366 . S
C1145 C1149 1.385 . S
C1146 H1127 0.951 . S
C1146 C1144 1.388 . S
C1146 C1147 1.366 . S
C1147 C1146 1.366 . S
C1147 C1148 1.414 . S
C1147 C1150 1.499 . S
C1148 H1128 0.950 . S
C1148 C1147 1.414 . S
C1148 C1149 1.374 . S
C1149 H1129 0.950 . S
C1149 C1145 1.385 . S
C1149 C1148 1.374 . S
C1150 C1147 1.499 . S
C1150 C1151 1.373 . S
C1150 C1152 1.389 . S
C1151 H1130 0.950 . S
C1151 C1150 1.373 . S
C1151 C1167 1.377 . S
C1152 C1150 1.389 . S
C1152 C1153 1.524 . S
C1152 C1166 1.377 . S
C1153 C1152 1.524 . S
C1153 C1154 1.397 . S
C1153 C1158 1.363 . S
C1154 H1131 0.950 . S
C1154 C1153 1.397 . S
C1154 C1155 1.334 . S
C1155 H1132 0.950 . S
C1155 C1154 1.334 . S
C1155 C1156 1.287 . S
C1156 C1155 1.287 . S
C1156 C1157 1.524 . S
C1156 H1175 0.913 . S
C1157 H1133 0.950 . S
C1157 C1156 1.524 . S
C1157 C1158 1.415 . S
C1158 H1134 0.950 . S
C1158 C1153 1.363 . S
C1158 C1157 1.415 . S
C1159 H1135 0.951 . S
C1159 C1160 1.366 . S
C1159 C1161 1.388 . S
C1160 C1159 1.366 . S
C1160 C1164 1.385 1_455 S
C1161 H1136 0.951 . S
C1161 C1159 1.388 . S
C1161 C1162 1.366 1_455 S
C1162 C1161 1.366 1_655 S
C1162 C1163 1.414 . S
C1162 C1165 1.499 . S
C1163 H1137 0.950 . S
C1163 C1162 1.414 . S
C1163 C1164 1.374 . S
C1164 H1138 0.950 . S
C1164 C1160 1.385 1_655 S
C1164 C1163 1.374 . S
C1165 C1162 1.499 . S
C1165 C1166 1.373 . S
C1165 C1167 1.389 . S
C1166 H1139 0.950 . S
C1166 C1152 1.377 . S
C1166 C1165 1.373 . S
C1167 C1151 1.377 . S
C1167 C1165 1.389 . S
C1167 C1168 1.524 . S
C1168 C1167 1.524 . S
C1168 C1169 1.397 . S
C1168 C1173 1.363 1_655 S
C1169 H1140 0.950 . S
C1169 C1168 1.397 . S
C1169 C1170 1.334 1_655 S
C1170 H1141 0.950 . S
C1170 C1169 1.334 1_455 S
C1170 C1171 1.287 . S
C1171 C1170 1.287 . S
C1171 C1172 1.524 . S
C1171 H1174 0.999 . S
C1172 H1142 0.950 . S
C1172 C1171 1.524 . S
C1172 C1173 1.415 . S
C1173 H1143 0.950 1_455 S
C1173 C1168 1.363 1_455 S
C1173 C1172 1.415 . S
H1174 C1171 0.999 . S
H1175 C1156 0.913 . S
H1176 C1194 0.951 . S
H1177 C1196 0.951 . S
H1178 C1198 0.950 . S
H1179 C1199 0.950 . S
H1180 C1201 0.950 . S
H1181 C1204 0.950 . S
H1182 C1205 0.950 . S
H1183 C1207 0.950 . S
H1184 C1208 0.950 . S
H1185 C1209 0.951 . S
H1186 C1211 0.951 . S
H1187 C1213 0.950 . S
H1188 C1214 0.950 . S
H1189 C1216 0.950 . S
H1190 C1219 0.950 . S
H1191 C1220 0.950 . S
H1192 C1222 0.950 . S
H1193 C1223 0.950 . S
C1194 H1176 0.951 . S
C1194 C1195 1.366 . S
C1194 C1196 1.388 . S
C1195 C1194 1.366 . S
C1195 C1199 1.385 . S
C1196 H1177 0.951 . S
C1196 C1194 1.388 . S
C1196 C1197 1.366 . S
C1197 C1196 1.366 . S
C1197 C1198 1.414 . S
C1197 C1200 1.499 . S
C1198 H1178 0.950 . S
C1198 C1197 1.414 . S
C1198 C1199 1.374 . S
C1199 H1179 0.950 . S
C1199 C1195 1.385 . S
C1199 C1198 1.374 . S
C1200 C1197 1.499 . S
C1200 C1201 1.373 . S
C1200 C1202 1.389 . S
C1201 H1180 0.950 . S
C1201 C1200 1.373 . S
C1201 C1217 1.377 . S
C1202 C1200 1.389 . S
C1202 C1203 1.524 . S
C1202 C1216 1.377 . S
C1203 C1202 1.524 . S
C1203 C1204 1.397 . S
C1203 C1208 1.363 . S
C1204 H1181 0.950 . S
C1204 C1203 1.397 . S
C1204 C1205 1.334 . S
C1205 H1182 0.950 . S
C1205 C1204 1.334 . S
C1205 C1206 1.287 . S
C1206 C1205 1.287 . S
C1206 C1207 1.524 . S
C1206 H1225 0.913 . S
C1207 H1183 0.950 . S
C1207 C1206 1.524 . S
C1207 C1208 1.415 . S
C1208 H1184 0.950 . S
C1208 C1203 1.363 . S
C1208 C1207 1.415 . S
C1209 H1185 0.951 . S
C1209 C1210 1.366 . S
C1209 C1211 1.388 . S
C1210 C1209 1.366 . S
C1210 C1214 1.385 . S
C1211 H1186 0.951 . S
C1211 C1209 1.388 . S
C1211 C1212 1.366 . S
C1212 C1211 1.366 . S
C1212 C1213 1.414 . S
C1212 C1215 1.499 . S
C1213 H1187 0.950 . S
C1213 C1212 1.414 . S
C1213 C1214 1.374 . S
C1214 H1188 0.950 . S
C1214 C1210 1.385 . S
C1214 C1213 1.374 . S
C1215 C1212 1.499 . S
C1215 C1216 1.373 . S
C1215 C1217 1.389 . S
C1216 H1189 0.950 . S
C1216 C1202 1.377 . S
C1216 C1215 1.373 . S
C1217 C1201 1.377 . S
C1217 C1215 1.389 . S
C1217 C1218 1.524 . S
C1218 C1217 1.524 . S
C1218 C1219 1.397 . S
C1218 C1223 1.363 . S
C1219 H1190 0.950 . S
C1219 C1218 1.397 . S
C1219 C1220 1.334 . S
C1220 H1191 0.950 . S
C1220 C1219 1.334 . S
C1220 C1221 1.287 . S
C1221 C1220 1.287 . S
C1221 C1222 1.524 . S
C1221 H1224 0.999 . S
C1222 H1192 0.950 . S
C1222 C1221 1.524 . S
C1222 C1223 1.415 . S
C1223 H1193 0.950 . S
C1223 C1218 1.363 . S
C1223 C1222 1.415 . S
H1224 C1221 0.999 . S
H1225 C1206 0.913 . S
H1226 C1244 0.951 . S
H1227 C1246 0.951 . S
H1228 C1248 0.950 . S
H1229 C1249 0.950 . S
H1230 C1251 0.950 . S
H1231 C1254 0.950 . S
H1232 C1255 0.950 . S
H1233 C1257 0.950 . S
H1234 C1258 0.950 . S
H1235 C1259 0.951 . S
H1236 C1261 0.951 . S
H1237 C1263 0.950 . S
H1238 C1264 0.950 . S
H1239 C1266 0.950 . S
H1240 C1269 0.950 . S
H1241 C1270 0.950 . S
H1242 C1272 0.950 . S
H1243 C1273 0.950 . S
C1244 H1226 0.951 . S
C1244 C1245 1.366 . S
C1244 C1246 1.388 . S
C1245 C1244 1.366 . S
C1245 C1249 1.385 . S
C1246 H1227 0.951 . S
C1246 C1244 1.388 . S
C1246 C1247 1.366 . S
C1247 C1246 1.366 . S
C1247 C1248 1.414 . S
C1247 C1250 1.499 . S
C1248 H1228 0.950 . S
C1248 C1247 1.414 . S
C1248 C1249 1.374 . S
C1249 H1229 0.950 . S
C1249 C1245 1.385 . S
C1249 C1248 1.374 . S
C1250 C1247 1.499 . S
C1250 C1251 1.373 . S
C1250 C1252 1.389 . S
C1251 H1230 0.950 . S
C1251 C1250 1.373 . S
C1251 C1267 1.377 . S
C1252 C1250 1.389 . S
C1252 C1253 1.524 . S
C1252 C1266 1.377 . S
C1253 C1252 1.524 . S
C1253 C1254 1.397 . S
C1253 C1258 1.363 . S
C1254 H1231 0.950 . S
C1254 C1253 1.397 . S
C1254 C1255 1.334 . S
C1255 H1232 0.950 . S
C1255 C1254 1.334 . S
C1255 C1256 1.287 . S
C1256 C1255 1.287 . S
C1256 C1257 1.524 . S
C1256 H1275 0.913 . S
C1257 H1233 0.950 . S
C1257 C1256 1.524 . S
C1257 C1258 1.415 . S
C1258 H1234 0.950 . S
C1258 C1253 1.363 . S
C1258 C1257 1.415 . S
C1259 H1235 0.951 . S
C1259 C1260 1.366 . S
C1259 C1261 1.388 . S
C1260 C1259 1.366 . S
C1260 C1264 1.385 . S
C1261 H1236 0.951 . S
C1261 C1259 1.388 . S
C1261 C1262 1.366 . S
C1262 C1261 1.366 . S
C1262 C1263 1.414 . S
C1262 C1265 1.499 . S
C1263 H1237 0.950 . S
C1263 C1262 1.414 . S
C1263 C1264 1.374 . S
C1264 H1238 0.950 . S
C1264 C1260 1.385 . S
C1264 C1263 1.374 . S
C1265 C1262 1.499 . S
C1265 C1266 1.373 . S
C1265 C1267 1.389 . S
C1266 H1239 0.950 . S
C1266 C1252 1.377 . S
C1266 C1265 1.373 . S
C1267 C1251 1.377 . S
C1267 C1265 1.389 . S
C1267 C1268 1.524 . S
C1268 C1267 1.524 . S
C1268 C1269 1.397 . S
C1268 C1273 1.363 . S
C1269 H1240 0.950 . S
C1269 C1268 1.397 . S
C1269 C1270 1.334 . S
C1270 H1241 0.950 . S
C1270 C1269 1.334 . S
C1270 C1271 1.287 . S
C1271 C1270 1.287 . S
C1271 C1272 1.524 . S
C1271 H1274 0.999 . S
C1272 H1242 0.950 . S
C1272 C1271 1.524 . S
C1272 C1273 1.415 . S
C1273 H1243 0.950 . S
C1273 C1268 1.363 . S
C1273 C1272 1.415 . S
H1274 C1271 0.999 . S
H1275 C1256 0.913 . S
H1276 C1294 0.951 . S
H1277 C1296 0.951 . S
H1278 C1298 0.950 . S
H1279 C1299 0.950 . S
H1280 C1301 0.950 . S
H1281 C1304 0.950 . S
H1282 C1305 0.950 . S
H1283 C1307 0.950 . S
H1284 C1308 0.950 . S
H1285 C1309 0.951 . S
H1286 C1311 0.951 . S
H1287 C1313 0.950 . S
H1288 C1314 0.950 . S
H1289 C1316 0.950 . S
H1290 C1319 0.950 . S
H1291 C1320 0.950 . S
H1292 C1322 0.950 . S
H1293 C1323 0.950 . S
C1294 H1276 0.951 . S
C1294 C1295 1.366 . S
C1294 C1296 1.388 . S
C1295 C1294 1.366 . S
C1295 C1299 1.385 . S
C1296 H1277 0.951 . S
C1296 C1294 1.388 . S
C1296 C1297 1.366 . S
C1297 C1296 1.366 . S
C1297 C1298 1.414 . S
C1297 C1300 1.499 . S
C1298 H1278 0.950 . S
C1298 C1297 1.414 . S
C1298 C1299 1.374 . S
C1299 H1279 0.950 . S
C1299 C1295 1.385 . S
C1299 C1298 1.374 . S
C1300 C1297 1.499 . S
C1300 C1301 1.373 . S
C1300 C1302 1.389 . S
C1301 H1280 0.950 . S
C1301 C1300 1.373 . S
C1301 C1317 1.377 . S
C1302 C1300 1.389 . S
C1302 C1303 1.524 . S
C1302 C1316 1.377 . S
C1303 C1302 1.524 . S
C1303 C1304 1.397 . S
C1303 C1308 1.363 . S
C1304 H1281 0.950 . S
C1304 C1303 1.397 . S
C1304 C1305 1.334 . S
C1305 H1282 0.950 . S
C1305 C1304 1.334 . S
C1305 C1306 1.287 . S
C1306 C1305 1.287 . S
C1306 C1307 1.524 . S
C1306 H1325 0.913 . S
C1307 H1283 0.950 . S
C1307 C1306 1.524 . S
C1307 C1308 1.415 . S
C1308 H1284 0.950 . S
C1308 C1303 1.363 . S
C1308 C1307 1.415 . S
C1309 H1285 0.951 . S
C1309 C1310 1.366 . S
C1309 C1311 1.388 . S
C1310 C1309 1.366 . S
C1310 C1314 1.385 . S
C1311 H1286 0.951 . S
C1311 C1309 1.388 . S
C1311 C1312 1.366 . S
C1312 C1311 1.366 . S
C1312 C1313 1.414 . S
C1312 C1315 1.499 . S
C1313 H1287 0.950 . S
C1313 C1312 1.414 . S
C1313 C1314 1.374 . S
C1314 H1288 0.950 . S
C1314 C1310 1.385 . S
C1314 C1313 1.374 . S
C1315 C1312 1.499 . S
C1315 C1316 1.373 . S
C1315 C1317 1.389 . S
C1316 H1289 0.950 . S
C1316 C1302 1.377 . S
C1316 C1315 1.373 . S
C1317 C1301 1.377 . S
C1317 C1315 1.389 . S
C1317 C1318 1.524 . S
C1318 C1317 1.524 . S
C1318 C1319 1.397 . S
C1318 C1323 1.363 . S
C1319 H1290 0.950 . S
C1319 C1318 1.397 . S
C1319 C1320 1.334 . S
C1320 H1291 0.950 . S
C1320 C1319 1.334 . S
C1320 C1321 1.287 . S
C1321 C1320 1.287 . S
C1321 C1322 1.524 . S
C1321 H1324 0.999 . S
C1322 H1292 0.950 . S
C1322 C1321 1.524 . S
C1322 C1323 1.415 . S
C1323 H1293 0.950 . S
C1323 C1318 1.363 . S
C1323 C1322 1.415 . S
H1324 C1321 0.999 . S
H1325 C1306 0.913 . S
H1326 C1344 0.951 . S
H1327 C1346 0.951 . S
H1328 C1348 0.950 . S
H1329 C1349 0.950 . S
H1330 C1351 0.950 . S
H1331 C1354 0.950 . S
H1332 C1355 0.950 . S
H1333 C1357 0.950 . S
H1334 C1358 0.950 . S
H1335 C1359 0.951 . S
H1336 C1361 0.951 . S
H1337 C1363 0.950 . S
H1338 C1364 0.950 . S
H1339 C1366 0.950 . S
H1340 C1369 0.950 . S
H1341 C1370 0.950 . S
H1342 C1372 0.950 . S
H1343 C1373 0.950 . S
C1344 H1326 0.951 . S
C1344 C1345 1.366 . S
C1344 C1346 1.388 . S
C1345 C1344 1.366 . S
C1345 C1349 1.385 . S
C1346 H1327 0.951 . S
C1346 C1344 1.388 . S
C1346 C1347 1.366 . S
C1347 C1346 1.366 . S
C1347 C1348 1.414 . S
C1347 C1350 1.499 . S
C1348 H1328 0.950 . S
C1348 C1347 1.414 . S
C1348 C1349 1.374 . S
C1349 H1329 0.950 . S
C1349 C1345 1.385 . S
C1349 C1348 1.374 . S
C1350 C1347 1.499 . S
C1350 C1351 1.373 . S
C1350 C1352 1.389 . S
C1351 H1330 0.950 . S
C1351 C1350 1.373 . S
C1351 C1367 1.377 . S
C1352 C1350 1.389 . S
C1352 C1353 1.524 . S
C1352 C1366 1.377 . S
C1353 C1352 1.524 . S
C1353 C1354 1.397 . S
C1353 C1358 1.363 . S
C1354 H1331 0.950 . S
C1354 C1353 1.397 . S
C1354 C1355 1.334 . S
C1355 H1332 0.950 . S
C1355 C1354 1.334 . S
C1355 C1356 1.287 . S
C1356 C1355 1.287 . S
C1356 C1357 1.524 . S
C1356 H1375 0.913 . S
C1357 H1333 0.950 . S
C1357 C1356 1.524 . S
C1357 C1358 1.415 . S
C1358 H1334 0.950 . S
C1358 C1353 1.363 . S
C1358 C1357 1.415 . S
C1359 H1335 0.951 . S
C1359 C1360 1.366 . S
C1359 C1361 1.388 . S
C1360 C1359 1.366 . S
C1360 C1364 1.385 . S
C1361 H1336 0.951 . S
C1361 C1359 1.388 . S
C1361 C1362 1.366 . S
C1362 C1361 1.366 . S
C1362 C1363 1.414 . S
C1362 C1365 1.499 . S
C1363 H1337 0.950 . S
C1363 C1362 1.414 . S
C1363 C1364 1.374 . S
C1364 H1338 0.950 . S
C1364 C1360 1.385 . S
C1364 C1363 1.374 . S
C1365 C1362 1.499 . S
C1365 C1366 1.373 . S
C1365 C1367 1.389 . S
C1366 H1339 0.950 . S
C1366 C1352 1.377 . S
C1366 C1365 1.373 . S
C1367 C1351 1.377 . S
C1367 C1365 1.389 . S
C1367 C1368 1.524 . S
C1368 C1367 1.524 . S
C1368 C1369 1.397 . S
C1368 C1373 1.363 . S
C1369 H1340 0.950 . S
C1369 C1368 1.397 . S
C1369 C1370 1.334 . S
C1370 H1341 0.950 . S
C1370 C1369 1.334 . S
C1370 C1371 1.287 . S
C1371 C1370 1.287 . S
C1371 C1372 1.524 . S
C1371 H1374 0.999 . S
C1372 H1342 0.950 . S
C1372 C1371 1.524 . S
C1372 C1373 1.415 . S
C1373 H1343 0.950 . S
C1373 C1368 1.363 . S
C1373 C1372 1.415 . S
H1374 C1371 0.999 . S
H1375 C1356 0.913 . S
H1376 C1394 0.951 . S
H1377 C1396 0.951 . S
H1378 C1398 0.950 . S
H1379 C1399 0.950 . S
H1380 C1401 0.950 . S
H1381 C1404 0.950 . S
H1382 C1405 0.950 . S
H1383 C1407 0.950 . S
H1384 C1408 0.950 . S
H1385 C1409 0.951 . S
H1386 C1411 0.951 . S
H1387 C1413 0.950 . S
H1388 C1414 0.950 . S
H1389 C1416 0.950 . S
H1390 C1419 0.950 . S
H1391 C1420 0.950 . S
H1392 C1422 0.950 . S
H1393 C1423 0.950 . S
C1394 H1376 0.951 . S
C1394 C1395 1.366 . S
C1394 C1396 1.388 . S
C1395 C1394 1.366 . S
C1395 C1399 1.385 . S
C1396 H1377 0.951 . S
C1396 C1394 1.388 . S
C1396 C1397 1.366 . S
C1397 C1396 1.366 . S
C1397 C1398 1.414 . S
C1397 C1400 1.499 . S
C1398 H1378 0.950 . S
C1398 C1397 1.414 . S
C1398 C1399 1.374 . S
C1399 H1379 0.950 . S
C1399 C1395 1.385 . S
C1399 C1398 1.374 . S
C1400 C1397 1.499 . S
C1400 C1401 1.373 . S
C1400 C1402 1.389 . S
C1401 H1380 0.950 . S
C1401 C1400 1.373 . S
C1401 C1417 1.377 . S
C1402 C1400 1.389 . S
C1402 C1403 1.524 . S
C1402 C1416 1.377 . S
C1403 C1402 1.524 . S
C1403 C1404 1.397 . S
C1403 C1408 1.363 . S
C1404 H1381 0.950 . S
C1404 C1403 1.397 . S
C1404 C1405 1.334 . S
C1405 H1382 0.950 . S
C1405 C1404 1.334 . S
C1405 C1406 1.287 . S
C1406 C1405 1.287 . S
C1406 C1407 1.524 . S
C1406 H1425 0.913 . S
C1407 H1383 0.950 . S
C1407 C1406 1.524 . S
C1407 C1408 1.415 . S
C1408 H1384 0.950 . S
C1408 C1403 1.363 . S
C1408 C1407 1.415 . S
C1409 H1385 0.951 . S
C1409 C1410 1.366 . S
C1409 C1411 1.388 . S
C1410 C1409 1.366 . S
C1410 C1414 1.385 . S
C1411 H1386 0.951 . S
C1411 C1409 1.388 . S
C1411 C1412 1.366 . S
C1412 C1411 1.366 . S
C1412 C1413 1.414 . S
C1412 C1415 1.499 . S
C1413 H1387 0.950 . S
C1413 C1412 1.414 . S
C1413 C1414 1.374 . S
C1414 H1388 0.950 . S
C1414 C1410 1.385 . S
C1414 C1413 1.374 . S
C1415 C1412 1.499 . S
C1415 C1416 1.373 . S
C1415 C1417 1.389 . S
C1416 H1389 0.950 . S
C1416 C1402 1.377 . S
C1416 C1415 1.373 . S
C1417 C1401 1.377 . S
C1417 C1415 1.389 . S
C1417 C1418 1.524 . S
C1418 C1417 1.524 . S
C1418 C1419 1.397 . S
C1418 C1423 1.363 . S
C1419 H1390 0.950 . S
C1419 C1418 1.397 . S
C1419 C1420 1.334 . S
C1420 H1391 0.950 . S
C1420 C1419 1.334 . S
C1420 C1421 1.287 . S
C1421 C1420 1.287 . S
C1421 C1422 1.524 . S
C1421 H1424 0.999 . S
C1422 H1392 0.950 . S
C1422 C1421 1.524 . S
C1422 C1423 1.415 . S
C1423 H1393 0.950 . S
C1423 C1418 1.363 . S
C1423 C1422 1.415 . S
H1424 C1421 0.999 . S
H1425 C1406 0.913 . S
H1426 C1444 0.951 . S
H1427 C1446 0.951 . S
H1428 C1448 0.950 . S
H1429 C1449 0.950 . S
H1430 C1451 0.950 . S
H1431 C1454 0.950 . S
H1432 C1455 0.950 . S
H1433 C1457 0.950 . S
H1434 C1458 0.950 . S
H1435 C1459 0.951 . S
H1436 C1461 0.951 . S
H1437 C1463 0.950 . S
H1438 C1464 0.950 . S
H1439 C1466 0.950 1_554 S
H1440 C1469 0.950 . S
H1441 C1470 0.950 . S
H1442 C1472 0.950 . S
H1443 C1473 0.950 . S
C1444 H1426 0.951 . S
C1444 C1445 1.366 . S
C1444 C1446 1.388 . S
C1445 C1444 1.366 . S
C1445 C1449 1.385 . S
C1446 H1427 0.951 . S
C1446 C1444 1.388 . S
C1446 C1447 1.366 . S
C1447 C1446 1.366 . S
C1447 C1448 1.414 . S
C1447 C1450 1.499 1_554 S
C1448 H1428 0.950 . S
C1448 C1447 1.414 . S
C1448 C1449 1.374 . S
C1449 H1429 0.950 . S
C1449 C1445 1.385 . S
C1449 C1448 1.374 . S
C1450 C1447 1.499 1_556 S
C1450 C1451 1.373 . S
C1450 C1452 1.389 1_556 S
C1451 H1430 0.950 . S
C1451 C1450 1.373 . S
C1451 C1467 1.377 . S
C1452 C1450 1.389 1_554 S
C1452 C1453 1.524 . S
C1452 C1466 1.377 1_554 S
C1453 C1452 1.524 . S
C1453 C1454 1.397 . S
C1453 C1458 1.363 . S
C1454 H1431 0.950 . S
C1454 C1453 1.397 . S
C1454 C1455 1.334 . S
C1455 H1432 0.950 . S
C1455 C1454 1.334 . S
C1455 C1456 1.287 . S
C1456 C1455 1.287 . S
C1456 C1457 1.524 . S
C1456 H1475 0.913 . S
C1457 H1433 0.950 . S
C1457 C1456 1.524 . S
C1457 C1458 1.415 . S
C1458 H1434 0.950 . S
C1458 C1453 1.363 . S
C1458 C1457 1.415 . S
C1459 H1435 0.951 . S
C1459 C1460 1.366 . S
C1459 C1461 1.388 . S
C1460 C1459 1.366 . S
C1460 C1464 1.385 . S
C1461 H1436 0.951 . S
C1461 C1459 1.388 . S
C1461 C1462 1.366 . S
C1462 C1461 1.366 . S
C1462 C1463 1.414 . S
C1462 C1465 1.499 . S
C1463 H1437 0.950 . S
C1463 C1462 1.414 . S
C1463 C1464 1.374 . S
C1464 H1438 0.950 . S
C1464 C1460 1.385 . S
C1464 C1463 1.374 . S
C1465 C1462 1.499 . S
C1465 C1466 1.373 . S
C1465 C1467 1.389 . S
C1466 H1439 0.950 1_556 S
C1466 C1452 1.377 1_556 S
C1466 C1465 1.373 . S
C1467 C1451 1.377 . S
C1467 C1465 1.389 . S
C1467 C1468 1.524 . S
C1468 C1467 1.524 . S
C1468 C1469 1.397 . S
C1468 C1473 1.363 . S
C1469 H1440 0.950 . S
C1469 C1468 1.397 . S
C1469 C1470 1.334 . S
C1470 H1441 0.950 . S
C1470 C1469 1.334 . S
C1470 C1471 1.287 . S
C1471 C1470 1.287 . S
C1471 C1472 1.524 . S
C1471 H1474 0.999 . S
C1472 H1442 0.950 . S
C1472 C1471 1.524 . S
C1472 C1473 1.415 . S
C1473 H1443 0.950 . S
C1473 C1468 1.363 . S
C1473 C1472 1.415 . S
H1474 C1471 0.999 . S
H1475 C1456 0.913 . S
H1476 C1494 0.951 . S
H1477 C1496 0.951 . S
H1478 C1498 0.950 . S
H1479 C1499 0.950 . S
H1480 C1501 0.950 . S
H1481 C1504 0.950 . S
H1482 C1505 0.950 . S
H1483 C1507 0.950 . S
H1484 C1508 0.950 . S
H1485 C1509 0.951 . S
H1486 C1511 0.951 . S
H1487 C1513 0.950 . S
H1488 C1514 0.950 . S
H1489 C1516 0.950 . S
H1490 C1519 0.950 . S
H1491 C1520 0.950 . S
H1492 C1522 0.950 . S
H1493 C1523 0.950 . S
C1494 H1476 0.951 . S
C1494 C1495 1.366 . S
C1494 C1496 1.388 . S
C1495 C1494 1.366 . S
C1495 C1499 1.385 . S
C1496 H1477 0.951 . S
C1496 C1494 1.388 . S
C1496 C1497 1.366 . S
C1497 C1496 1.366 . S
C1497 C1498 1.414 . S
C1497 C1500 1.499 . S
C1498 H1478 0.950 . S
C1498 C1497 1.414 . S
C1498 C1499 1.374 . S
C1499 H1479 0.950 . S
C1499 C1495 1.385 . S
C1499 C1498 1.374 . S
C1500 C1497 1.499 . S
C1500 C1501 1.373 . S
C1500 C1502 1.389 . S
C1501 H1480 0.950 . S
C1501 C1500 1.373 . S
C1501 C1517 1.377 . S
C1502 C1500 1.389 . S
C1502 C1503 1.524 . S
C1502 C1516 1.377 . S
C1503 C1502 1.524 . S
C1503 C1504 1.397 . S
C1503 C1508 1.363 . S
C1504 H1481 0.950 . S
C1504 C1503 1.397 . S
C1504 C1505 1.334 . S
C1505 H1482 0.950 . S
C1505 C1504 1.334 . S
C1505 C1506 1.287 . S
C1506 C1505 1.287 . S
C1506 C1507 1.524 . S
C1506 H1525 0.913 . S
C1507 H1483 0.950 . S
C1507 C1506 1.524 . S
C1507 C1508 1.415 . S
C1508 H1484 0.950 . S
C1508 C1503 1.363 . S
C1508 C1507 1.415 . S
C1509 H1485 0.951 . S
C1509 C1510 1.366 . S
C1509 C1511 1.388 . S
C1510 C1509 1.366 . S
C1510 C1514 1.385 . S
C1511 H1486 0.951 . S
C1511 C1509 1.388 . S
C1511 C1512 1.366 . S
C1512 C1511 1.366 . S
C1512 C1513 1.414 . S
C1512 C1515 1.499 . S
C1513 H1487 0.950 . S
C1513 C1512 1.414 . S
C1513 C1514 1.374 . S
C1514 H1488 0.950 . S
C1514 C1510 1.385 . S
C1514 C1513 1.374 . S
C1515 C1512 1.499 . S
C1515 C1516 1.373 . S
C1515 C1517 1.389 . S
C1516 H1489 0.950 . S
C1516 C1502 1.377 . S
C1516 C1515 1.373 . S
C1517 C1501 1.377 . S
C1517 C1515 1.389 . S
C1517 C1518 1.524 . S
C1518 C1517 1.524 . S
C1518 C1519 1.397 . S
C1518 C1523 1.363 . S
C1519 H1490 0.950 . S
C1519 C1518 1.397 . S
C1519 C1520 1.334 . S
C1520 H1491 0.950 . S
C1520 C1519 1.334 . S
C1520 C1521 1.287 . S
C1521 C1520 1.287 . S
C1521 C1522 1.524 . S
C1521 H1524 0.999 . S
C1522 H1492 0.950 . S
C1522 C1521 1.524 . S
C1522 C1523 1.415 . S
C1523 H1493 0.950 . S
C1523 C1518 1.363 . S
C1523 C1522 1.415 . S
H1524 C1521 0.999 . S
H1525 C1506 0.913 . S
H1526 C1544 0.951 . S
H1527 C1546 0.951 . S
H1528 C1548 0.950 . S
H1529 C1549 0.950 . S
H1530 C1551 0.950 . S
H1531 C1554 0.950 . S
H1532 C1555 0.950 . S
H1533 C1557 0.950 . S
H1534 C1558 0.950 . S
H1535 C1559 0.951 . S
H1536 C1561 0.951 . S
H1537 C1563 0.950 . S
H1538 C1564 0.950 . S
H1539 C1566 0.950 . S
H1540 C1569 0.950 . S
H1541 C1570 0.950 . S
H1542 C1572 0.950 . S
H1543 C1573 0.950 . S
C1544 H1526 0.951 . S
C1544 C1545 1.366 . S
C1544 C1546 1.388 . S
C1545 C1544 1.366 . S
C1545 C1549 1.385 . S
C1546 H1527 0.951 . S
C1546 C1544 1.388 . S
C1546 C1547 1.366 . S
C1547 C1546 1.366 . S
C1547 C1548 1.414 . S
C1547 C1550 1.499 . S
C1548 H1528 0.950 . S
C1548 C1547 1.414 . S
C1548 C1549 1.374 . S
C1549 H1529 0.950 . S
C1549 C1545 1.385 . S
C1549 C1548 1.374 . S
C1550 C1547 1.499 . S
C1550 C1551 1.373 . S
C1550 C1552 1.389 . S
C1551 H1530 0.950 . S
C1551 C1550 1.373 . S
C1551 C1567 1.377 . S
C1552 C1550 1.389 . S
C1552 C1553 1.524 . S
C1552 C1566 1.377 . S
C1553 C1552 1.524 . S
C1553 C1554 1.397 . S
C1553 C1558 1.363 . S
C1554 H1531 0.950 . S
C1554 C1553 1.397 . S
C1554 C1555 1.334 . S
C1555 H1532 0.950 . S
C1555 C1554 1.334 . S
C1555 C1556 1.287 . S
C1556 C1555 1.287 . S
C1556 C1557 1.524 . S
C1556 H1575 0.913 . S
C1557 H1533 0.950 . S
C1557 C1556 1.524 . S
C1557 C1558 1.415 . S
C1558 H1534 0.950 . S
C1558 C1553 1.363 . S
C1558 C1557 1.415 . S
C1559 H1535 0.951 . S
C1559 C1560 1.366 . S
C1559 C1561 1.388 . S
C1560 C1559 1.366 . S
C1560 C1564 1.385 . S
C1561 H1536 0.951 . S
C1561 C1559 1.388 . S
C1561 C1562 1.366 . S
C1562 C1561 1.366 . S
C1562 C1563 1.414 . S
C1562 C1565 1.499 . S
C1563 H1537 0.950 . S
C1563 C1562 1.414 . S
C1563 C1564 1.374 . S
C1564 H1538 0.950 . S
C1564 C1560 1.385 . S
C1564 C1563 1.374 . S
C1565 C1562 1.499 . S
C1565 C1566 1.373 . S
C1565 C1567 1.389 . S
C1566 H1539 0.950 . S
C1566 C1552 1.377 . S
C1566 C1565 1.373 . S
C1567 C1551 1.377 . S
C1567 C1565 1.389 . S
C1567 C1568 1.524 . S
C1568 C1567 1.524 . S
C1568 C1569 1.397 . S
C1568 C1573 1.363 . S
C1569 H1540 0.950 . S
C1569 C1568 1.397 . S
C1569 C1570 1.334 . S
C1570 H1541 0.950 . S
C1570 C1569 1.334 . S
C1570 C1571 1.287 . S
C1571 C1570 1.287 . S
C1571 C1572 1.524 . S
C1571 H1574 0.999 . S
C1572 H1542 0.950 . S
C1572 C1571 1.524 . S
C1572 C1573 1.415 . S
C1573 H1543 0.950 . S
C1573 C1568 1.363 . S
C1573 C1572 1.415 . S
H1574 C1571 0.999 . S
H1575 C1556 0.913 . S
C395 C8 1.328 . S
C410 C119 1.236 . S
C445 C31 1.668 . S
C460 C155 1.599 . S
C495 C53 1.347 . S
C510 C191 1.333 . S
C560 C221 1.394 . S
C545 C74 1.471 . S
C610 C263 1.375 . S
C595 C26 1.367 . S
C645 C48 1.653 . S
C660 C293 1.576 . S
C695 C71 1.317 . S
C710 C329 1.219 . S
C745 C5 1.495 . S
C760 C371 1.422 . S
C795 C50 1.314 1_556 S
C810 C341 1.249 . S
C860 C233 1.608 . S
C845 C70 1.649 . S
C910 C299 1.360 . S
C895 C4 1.341 1_556 S
C945 C28 1.500 . S
C960 C335 1.438 . S
C1010 C125 1.371 . S
C995 C73 1.352 . S
C1045 C7 1.658 . S
C1060 C185 1.537 . S
C1110 C227 1.262 . S
C1095 C30 1.339 . S
C1160 C89 1.419 . S
C1145 C52 1.469 . S
C1210 C305 1.272 . S
C1195 C9 1.295 . S
C1260 C365 1.257 . S
C1245 C29 1.291 . S
C1295 C51 1.443 . S
C1310 C257 1.412 . S
C1360 C269 1.403 . S
C1345 C75 1.424 . S
C1410 C161 1.380 . S
C1395 C27 1.433 . S
C1445 C49 1.293 . S
C1460 C197 1.263 . S
C1510 C113 1.252 . S
C1495 C72 1.280 . S
C1560 C149 1.432 . S
C1545 C6 1.450 . S
