# Generated by pormake.
# Topology dag, (6,3)-cn, num edge types: 1
# Building blocks:
#     Node 0, Type 0, BuildingBlock: MIDCAF_clean_sbu_0, # of connection points: 6
#     Node 1, Type 0, BuildingBlock: MIDCAF_clean_sbu_0, # of connection points: 6
#     Node 2, Type 0, BuildingBlock: MIDCAF_clean_sbu_0, # of connection points: 6
#     Node 3, Type 0, BuildingBlock: MIDCAF_clean_sbu_0, # of connection points: 6
#     Node 4, Type 1, BuildingBlock: KAKCAD_clean_linker_0, # of connection points: 3
#     Node 5, Type 1, BuildingBlock: KAKCAD_clean_linker_0, # of connection points: 3
#     Node 6, Type 1, BuildingBlock: KAKCAD_clean_linker_0, # of connection points: 3
#     Node 7, Type 1, BuildingBlock: KAKCAD_clean_linker_0, # of connection points: 3
#     Node 8, Type 1, BuildingBlock: KAKCAD_clean_linker_0, # of connection points: 3
#     Node 9, Type 1, BuildingBlock: KAKCAD_clean_linker_0, # of connection points: 3
#     Node 10, Type 1, BuildingBlock: KAKCAD_clean_linker_0, # of connection points: 3
#     Node 11, Type 1, BuildingBlock: KAKCAD_clean_linker_0, # of connection points: 3
#     Edge 12, Type (0, 1), BuildingBlock: UVAHIK_clean_linker_0, # of connection points: 2
#     Edge 13, Type (0, 1), BuildingBlock: UVAHIK_clean_linker_0, # of connection points: 2
#     Edge 14, Type (0, 1), BuildingBlock: UVAHIK_clean_linker_0, # of connection points: 2
#     Edge 15, Type (0, 1), BuildingBlock: UVAHIK_clean_linker_0, # of connection points: 2
#     Edge 16, Type (0, 1), BuildingBlock: UVAHIK_clean_linker_0, # of connection points: 2
#     Edge 17, Type (0, 1), BuildingBlock: UVAHIK_clean_linker_0, # of connection points: 2
#     Edge 18, Type (0, 1), BuildingBlock: UVAHIK_clean_linker_0, # of connection points: 2
#     Edge 19, Type (0, 1), BuildingBlock: UVAHIK_clean_linker_0, # of connection points: 2
#     Edge 20, Type (0, 1), BuildingBlock: UVAHIK_clean_linker_0, # of connection points: 2
#     Edge 21, Type (0, 1), BuildingBlock: UVAHIK_clean_linker_0, # of connection points: 2
#     Edge 22, Type (0, 1), BuildingBlock: UVAHIK_clean_linker_0, # of connection points: 2
#     Edge 23, Type (0, 1), BuildingBlock: UVAHIK_clean_linker_0, # of connection points: 2
#     Edge 24, Type (0, 1), BuildingBlock: UVAHIK_clean_linker_0, # of connection points: 2
#     Edge 25, Type (0, 1), BuildingBlock: UVAHIK_clean_linker_0, # of connection points: 2
#     Edge 26, Type (0, 1), BuildingBlock: UVAHIK_clean_linker_0, # of connection points: 2
#     Edge 27, Type (0, 1), BuildingBlock: UVAHIK_clean_linker_0, # of connection points: 2
#     Edge 28, Type (0, 1), BuildingBlock: UVAHIK_clean_linker_0, # of connection points: 2
#     Edge 29, Type (0, 1), BuildingBlock: UVAHIK_clean_linker_0, # of connection points: 2
#     Edge 30, Type (0, 1), BuildingBlock: UVAHIK_clean_linker_0, # of connection points: 2
#     Edge 31, Type (0, 1), BuildingBlock: UVAHIK_clean_linker_0, # of connection points: 2
#     Edge 32, Type (0, 1), BuildingBlock: UVAHIK_clean_linker_0, # of connection points: 2
#     Edge 33, Type (0, 1), BuildingBlock: UVAHIK_clean_linker_0, # of connection points: 2
#     Edge 34, Type (0, 1), BuildingBlock: UVAHIK_clean_linker_0, # of connection points: 2
#     Edge 35, Type (0, 1), BuildingBlock: UVAHIK_clean_linker_0, # of connection points: 2
# Relax obj value: 0.304
# Max RMSD: 0.191
# Mean RMSD: 0.179
data_MOF--net-dag--node1-MIDCAF_clean_sbu_0--node2-KAKCAD_clean_linker_0--edge1-UVAHIK_clean_linker_0
_symmetry_space_group_name_H-M    P1
_symmetry_Int_Tables_number       1
_symmetry_cell_setting            triclinic
loop_
_symmetry_equiv_pos_as_xyz
'x, y, z'
_cell_length_a     59.549222
_cell_length_b     61.19513
_cell_length_c     45.673927
_cell_angle_alpha  94.051502
_cell_angle_beta   90.354855
_cell_angle_gamma 90.123481
loop_
_atom_site_label
_atom_site_type_symbol
_atom_site_fract_x
_atom_site_fract_y
_atom_site_fract_z
_atom_type_partial_charge
Zn0 Zn 0.1373 0.84552 0.15965 0.0
Zn1 Zn 0.12492 0.84801 0.03121 0.0
Zn2 Zn 0.14057 0.84048 0.07391 0.0
C3 C 0.14052 0.88698 0.0542 0.0
C4 C 0.11452 0.8068 0.0398 0.0
O5 O 0.14971 0.80678 0.08148 0.0
O6 O 0.14389 0.8255 0.12227 0.0
C7 C 0.17076 0.86022 0.11266 0.0
O8 O 0.15464 0.87266 0.0623 0.0
O9 O 0.12141 0.88039 0.04488 0.0
O10 O 0.1027 0.82379 0.03748 0.0
O11 O 0.13453 0.80914 0.05001 0.0
O12 O 0.15548 0.84876 0.12306 0.0
O13 O 0.17076 0.86016 0.08463 0.0
O14 O 0.11105 0.85229 0.09861 0.0
O15 O 0.10663 0.85735 0.14764 0.0
C16 C 0.09915 0.85814 0.1213 0.0
O17 O 0.16964 0.85345 0.05246 0.0
O18 O 0.15532 0.8385 0.01142 0.0
C19 C 0.14916 0.8072 0.10935 0.0
C20 C 0.17258 0.84474 0.0262 0.0
Zn21 Zn 0.64576 0.63508 0.48669 0.0
Zn22 Zn 0.67818 0.66459 0.5724 0.0
Zn23 Zn 0.66145 0.65611 0.52324 0.0
C24 C 0.6713 0.61842 0.56314 0.0
C25 C 0.63767 0.68912 0.56742 0.0
O26 O 0.67482 0.6707 0.48436 0.0
O27 O 0.64395 0.66122 0.46022 0.0
C28 C 0.69066 0.62992 0.48024 0.0
O29 O 0.66448 0.62452 0.53859 0.0
O30 O 0.67786 0.6326 0.58292 0.0
O31 O 0.6535 0.68573 0.58514 0.0
O32 O 0.63703 0.67889 0.54198 0.0
O33 O 0.67432 0.61677 0.48217 0.0
O34 O 0.68814 0.64999 0.49024 0.0
O35 O 0.62535 0.66317 0.51892 0.0
O36 O 0.61735 0.62842 0.50806 0.0
C37 C 0.61069 0.6477 0.51528 0.0
O38 O 0.69156 0.67321 0.50954 0.0
O39 O 0.70549 0.67805 0.55469 0.0
C40 C 0.66112 0.67348 0.46291 0.0
C41 C 0.70697 0.68066 0.52751 0.0
Zn42 Zn 0.81352 0.11569 0.96151 0.0
Zn43 Zn 0.80666 0.13216 0.0607 0.0
Zn44 Zn 0.81734 0.12856 0.00937 0.0
C45 C 0.85181 0.11662 0.05721 0.0
C46 C 0.77429 0.1057 0.02854 0.0
O47 O 0.80308 0.15538 0.98481 0.0
O48 O 0.78358 0.13118 0.95722 0.0
C49 C 0.84313 0.15214 0.96619 0.0
O50 O 0.84826 0.11883 0.02986 0.0
O51 O 0.83585 0.11967 0.07525 0.0
O52 O 0.77804 0.11403 0.05429 0.0
O53 O 0.78789 0.10918 0.00804 0.0
O54 O 0.84176 0.13361 0.95199 0.0
O55 O 0.82899 0.15664 0.98703 0.0
O56 O 0.84413 0.10486 0.99934 0.0
O57 O 0.81905 0.08512 0.97372 0.0
C58 C 0.83785 0.08635 0.98688 0.0
O59 O 0.81449 0.16436 0.01381 0.0
O60 O 0.80551 0.16512 0.06088 0.0
C61 C 0.78682 0.15096 0.96652 0.0
C62 C 0.80966 0.17516 0.0382 0.0
Zn63 Zn 0.38159 0.33979 0.61325 0.0
Zn64 Zn 0.35033 0.3903 0.55557 0.0
Zn65 Zn 0.35921 0.35865 0.57799 0.0
C66 C 0.3897 0.37654 0.53165 0.0
C67 C 0.31891 0.38514 0.59432 0.0
O68 O 0.33187 0.34269 0.59926 0.0
O69 O 0.35407 0.32636 0.62973 0.0
C70 C 0.39211 0.32148 0.55548 0.0
O71 O 0.37923 0.35889 0.53739 0.0
O72 O 0.38319 0.39469 0.54384 0.0
O73 O 0.33388 0.39984 0.59327 0.0
O74 O 0.32394 0.36546 0.58507 0.0
O75 O 0.39779 0.32109 0.58217 0.0
O76 O 0.37733 0.33537 0.54767 0.0
O77 O 0.37634 0.38504 0.60103 0.0
O78 O 0.39529 0.36757 0.63336 0.0
C79 C 0.38961 0.38542 0.62299 0.0
O80 O 0.35652 0.34633 0.5319 0.0
O81 O 0.33139 0.37176 0.52507 0.0
C82 C 0.33457 0.32985 0.61994 0.0
C83 C 0.33938 0.35302 0.51756 0.0
C84 C 0.0811 0.14232 0.19806 0.0
C85 C 0.06097 0.15112 0.20959 0.0
C86 C 0.10059 0.14269 0.21519 0.0
C87 C 0.10051 0.15194 0.24423 0.0
C88 C 0.0808 0.16184 0.25536 0.0
C89 C 0.06115 0.16134 0.23823 0.0
C90 C 0.1202 0.14878 0.26351 0.0
C91 C 0.13056 0.16636 0.28005 0.0
C92 C 0.14973 0.16267 0.29733 0.0
C93 C 0.15843 0.14134 0.29768 0.0
C94 C 0.14797 0.12383 0.28172 0.0
C95 C 0.12887 0.12758 0.2649 0.0
C96 C 0.15741 0.10159 0.28134 0.0
C97 C 0.17854 0.09717 0.26899 0.0
C98 C 0.14446 0.08438 0.29091 0.0
C99 C 0.15211 0.06285 0.287 0.0
C100 C 0.1726 0.05808 0.27272 0.0
C101 C 0.16153 0.18081 0.31442 0.0
C102 C 0.16761 0.20003 0.30129 0.0
C103 C 0.16879 0.17796 0.34323 0.0
C104 C 0.18284 0.19337 0.35803 0.0
C105 C 0.19002 0.21201 0.34438 0.0
C106 C 0.18176 0.21549 0.31614 0.0
C107 C 0.18603 0.07557 0.26451 0.0
H108 H 0.08157 0.13415 0.17625 0.0
H109 H 0.11562 0.13502 0.20604 0.0
H110 H 0.08029 0.16899 0.27773 0.0
H111 H 0.04597 0.1685 0.24762 0.0
H112 H 0.12389 0.18278 0.27925 0.0
H113 H 0.12091 0.1139 0.25243 0.0
H114 H 0.17351 0.13833 0.31019 0.0
H115 H 0.1887 0.11031 0.26134 0.0
H116 H 0.12817 0.08756 0.30074 0.0
H117 H 0.1416 0.04988 0.29434 0.0
H118 H 0.16238 0.20256 0.27904 0.0
H119 H 0.16406 0.16347 0.35406 0.0
H120 H 0.20177 0.07258 0.25319 0.0
H121 H 0.18703 0.22966 0.30498 0.0
H122 H 0.18843 0.19047 0.38003 0.0
C123 C 0.39037 0.60119 0.80524 0.0
C124 C 0.40967 0.58873 0.79822 0.0
C125 C 0.3923 0.62279 0.81727 0.0
C126 C 0.41356 0.63236 0.8222 0.0
C127 C 0.43282 0.61955 0.81657 0.0
C128 C 0.4309 0.59794 0.80481 0.0
C129 C 0.41577 0.65619 0.82994 0.0
C130 C 0.4032 0.66672 0.85274 0.0
C131 C 0.40484 0.68957 0.85882 0.0
C132 C 0.4191 0.70175 0.84167 0.0
C133 C 0.43128 0.69147 0.81852 0.0
C134 C 0.42972 0.66872 0.81297 0.0
C135 C 0.44478 0.70456 0.79907 0.0
C136 C 0.44187 0.70164 0.76853 0.0
C137 C 0.46091 0.71956 0.81074 0.0
C138 C 0.47466 0.73073 0.79203 0.0
C139 C 0.47217 0.72733 0.76142 0.0
C140 C 0.39055 0.70121 0.8814 0.0
C141 C 0.36768 0.6959 0.88354 0.0
C142 C 0.39916 0.71914 0.89896 0.0
C143 C 0.38495 0.73229 0.91685 0.0
C144 C 0.36187 0.72767 0.91774 0.0
C145 C 0.35348 0.70898 0.90158 0.0
C146 C 0.45535 0.713 0.74989 0.0
H147 H 0.37379 0.59443 0.80067 0.0
H148 H 0.37719 0.63234 0.82128 0.0
H149 H 0.44941 0.62653 0.82035 0.0
H150 H 0.44608 0.58882 0.7995 0.0
H151 H 0.39224 0.65713 0.86574 0.0
H152 H 0.43902 0.6608 0.79486 0.0
H153 H 0.41987 0.71944 0.84528 0.0
H154 H 0.42934 0.69033 0.75907 0.0
H155 H 0.4634 0.72208 0.83425 0.0
H156 H 0.48752 0.74169 0.80143 0.0
H157 H 0.36047 0.68234 0.87009 0.0
H158 H 0.4168 0.72341 0.89822 0.0
H159 H 0.45327 0.70985 0.72639 0.0
H160 H 0.33572 0.70513 0.90164 0.0
H161 H 0.39193 0.74638 0.92946 0.0
C162 C 0.84639 0.84381 0.08848 0.0
C163 C 0.85989 0.84298 0.11374 0.0
C164 C 0.82311 0.84117 0.0901 0.0
C165 C 0.81281 0.83768 0.11701 0.0
C166 C 0.82641 0.83605 0.14201 0.0
C167 C 0.84966 0.83859 0.14037 0.0
C168 C 0.78792 0.83762 0.11963 0.0
C169 C 0.77706 0.82366 0.13819 0.0
C170 C 0.75384 0.82548 0.14348 0.0
C171 C 0.74142 0.84124 0.12932 0.0
C172 C 0.75211 0.85557 0.11118 0.0
C173 C 0.77522 0.85333 0.10598 0.0
C174 C 0.73997 0.87477 0.101 0.0
C175 C 0.71845 0.87281 0.08818 0.0
C176 C 0.74985 0.8956 0.10527 0.0
C177 C 0.73859 0.91406 0.09695 0.0
C178 C 0.71707 0.91225 0.08423 0.0
C179 C 0.74322 0.81259 0.16617 0.0
C180 C 0.74984 0.7909 0.16983 0.0
C181 C 0.72748 0.82245 0.18575 0.0
C182 C 0.71904 0.81115 0.20879 0.0
C183 C 0.72633 0.78978 0.21318 0.0
C184 C 0.7416 0.77967 0.19313 0.0
C185 C 0.70714 0.89142 0.0796 0.0
H186 H 0.85369 0.84725 0.06764 0.0
H187 H 0.81312 0.84229 0.07037 0.0
H188 H 0.81907 0.83365 0.16318 0.0
H189 H 0.8596 0.83744 0.16014 0.0
H190 H 0.78692 0.81198 0.14951 0.0
H191 H 0.78355 0.86472 0.09248 0.0
H192 H 0.72363 0.84316 0.13358 0.0
H193 H 0.71047 0.85691 0.08468 0.0
H194 H 0.76624 0.89771 0.11553 0.0
H195 H 0.74686 0.92983 0.10032 0.0
H196 H 0.7617 0.78267 0.15496 0.0
H197 H 0.7222 0.83922 0.18397 0.0
H198 H 0.69059 0.8896 0.06976 0.0
H199 H 0.74776 0.76331 0.19589 0.0
H200 H 0.70697 0.81932 0.22341 0.0
C201 C 0.60026 0.2509 0.59001 0.0
C202 C 0.59466 0.25685 0.56167 0.0
C203 C 0.61952 0.25931 0.60438 0.0
C204 C 0.63404 0.27348 0.59054 0.0
C205 C 0.62944 0.27788 0.56127 0.0
C206 C 0.60991 0.26986 0.54712 0.0
C207 C 0.65271 0.28501 0.60729 0.0
C208 C 0.66411 0.27499 0.62981 0.0
C209 C 0.67997 0.28669 0.64765 0.0
C210 C 0.6854 0.30828 0.64179 0.0
C211 C 0.67423 0.3187 0.61944 0.0
C212 C 0.65782 0.30693 0.60253 0.0
C213 C 0.67829 0.34232 0.61509 0.0
C214 C 0.68246 0.35743 0.6392 0.0
C215 C 0.67689 0.35018 0.58692 0.0
C216 C 0.67864 0.37257 0.58311 0.0
C217 C 0.68231 0.38774 0.60729 0.0
C218 C 0.68909 0.27717 0.67423 0.0
C219 C 0.6745 0.26703 0.69318 0.0
C220 C 0.71193 0.27927 0.68187 0.0
C221 C 0.71995 0.27147 0.70804 0.0
C222 C 0.70526 0.26157 0.72721 0.0
C223 C 0.68245 0.2594 0.71936 0.0
C224 C 0.68466 0.37977 0.63531 0.0
H225 H 0.58928 0.24044 0.60167 0.0
H226 H 0.62229 0.25551 0.6269 0.0
H227 H 0.64052 0.28821 0.54954 0.0
H228 H 0.60627 0.27492 0.52536 0.0
H229 H 0.66042 0.25815 0.63393 0.0
H230 H 0.6481 0.31528 0.58663 0.0
H231 H 0.69776 0.31721 0.65545 0.0
H232 H 0.68338 0.35217 0.6613 0.0
H233 H 0.6741 0.33906 0.56773 0.0
H234 H 0.67647 0.37795 0.56121 0.0
H235 H 0.65672 0.26559 0.6882 0.0
H236 H 0.72357 0.28694 0.6676 0.0
H237 H 0.68797 0.39081 0.65443 0.0
H238 H 0.67053 0.2523 0.73381 0.0
H239 H 0.73768 0.27312 0.71317 0.0
C240 C 0.68252 0.4834 0.24234 0.0
C241 C 0.68294 0.4925 0.27138 0.0
C242 C 0.6715 0.46342 0.23538 0.0
C243 C 0.66109 0.45207 0.25748 0.0
C244 C 0.66203 0.46124 0.28661 0.0
C245 C 0.67261 0.48129 0.29338 0.0
C246 C 0.64985 0.43047 0.25072 0.0
C247 C 0.65872 0.4151 0.22963 0.0
C248 C 0.64953 0.39393 0.22537 0.0
C249 C 0.63119 0.38806 0.24247 0.0
C250 C 0.62201 0.40327 0.26354 0.0
C251 C 0.63111 0.42449 0.26697 0.0
C252 C 0.6039 0.39696 0.28354 0.0
C253 C 0.58432 0.38624 0.27279 0.0
C254 C 0.60594 0.40247 0.31382 0.0
C255 C 0.58851 0.39815 0.33283 0.0
C256 C 0.56846 0.38832 0.32209 0.0
C257 C 0.66073 0.37756 0.20501 0.0
C258 C 0.66618 0.38265 0.17637 0.0
C259 C 0.66801 0.35759 0.21508 0.0
C260 C 0.68139 0.34346 0.19733 0.0
C261 C 0.68744 0.34888 0.16904 0.0
C262 C 0.67925 0.36832 0.15841 0.0
C263 C 0.56671 0.38202 0.29189 0.0
H264 H 0.69039 0.49189 0.22507 0.0
H265 H 0.67097 0.457 0.21268 0.0
H266 H 0.65492 0.45279 0.30443 0.0
H267 H 0.67301 0.48796 0.31601 0.0
H268 H 0.67363 0.41911 0.2176 0.0
H269 H 0.62364 0.43633 0.28276 0.0
H270 H 0.62451 0.37154 0.23994 0.0
H271 H 0.58233 0.38182 0.24954 0.0
H272 H 0.62105 0.4103 0.32283 0.0
H273 H 0.59074 0.40266 0.35602 0.0
H274 H 0.66074 0.39796 0.16814 0.0
H275 H 0.66422 0.35339 0.23716 0.0
H276 H 0.55148 0.37448 0.28286 0.0
H277 H 0.68375 0.37287 0.13671 0.0
H278 H 0.68738 0.32846 0.20591 0.0
C279 C 0.08116 0.21863 0.91921 0.0
C280 C 0.06958 0.2136 0.94458 0.0
C281 C 0.10397 0.21406 0.91623 0.0
C282 C 0.11607 0.20483 0.93887 0.0
C283 C 0.10486 0.20138 0.96521 0.0
C284 C 0.08184 0.20559 0.96796 0.0
C285 C 0.13958 0.19712 0.9337 0.0
C286 C 0.15362 0.20787 0.91476 0.0
C287 C 0.17384 0.19844 0.9046 0.0
C288 C 0.18124 0.17889 0.916 0.0
C289 C 0.16804 0.16844 0.93643 0.0
C290 C 0.14713 0.17755 0.94471 0.0
C291 C 0.17472 0.14703 0.94745 0.0
C292 C 0.1833 0.13011 0.92831 0.0
C293 C 0.17061 0.14271 0.97679 0.0
C294 C 0.17374 0.12173 0.98634 0.0
C295 C 0.18119 0.10448 0.96684 0.0
C296 C 0.18578 0.20829 0.88017 0.0
C297 C 0.17325 0.21606 0.85684 0.0
C298 C 0.20929 0.21036 0.87986 0.0
C299 C 0.21991 0.22055 0.85708 0.0
C300 C 0.20719 0.22889 0.83431 0.0
C301 C 0.18378 0.2263 0.83434 0.0
C302 C 0.1865 0.10909 0.9379 0.0
H303 H 0.07239 0.2253 0.90102 0.0
H304 H 0.11171 0.21676 0.89542 0.0
H305 H 0.11367 0.19475 0.98338 0.0
H306 H 0.07348 0.20147 0.98784 0.0
H307 H 0.14838 0.22336 0.9069 0.0
H308 H 0.13615 0.1686 0.95844 0.0
H309 H 0.19685 0.17152 0.90837 0.0
H310 H 0.18655 0.13281 0.90554 0.0
H311 H 0.16427 0.15546 0.99221 0.0
H312 H 0.16929 0.11885 0.00869 0.0
H313 H 0.15516 0.21416 0.85588 0.0
H314 H 0.2194 0.20455 0.8975 0.0
H315 H 0.19262 0.0963 0.92239 0.0
H316 H 0.17356 0.23202 0.81675 0.0
H317 H 0.23801 0.22234 0.85762 0.0
C318 C 0.36386 0.65695 0.43453 0.0
C319 C 0.38111 0.64128 0.4336 0.0
C320 C 0.34219 0.65115 0.4247 0.0
C321 C 0.33731 0.62948 0.41431 0.0
C322 C 0.35457 0.61384 0.41338 0.0
C323 C 0.37628 0.61972 0.42271 0.0
C324 C 0.31416 0.62298 0.4052 0.0
C325 C 0.30211 0.63494 0.38523 0.0
C326 C 0.28023 0.6286 0.37633 0.0
C327 C 0.27023 0.61042 0.38836 0.0
C328 C 0.28207 0.5984 0.40847 0.0
C329 C 0.30408 0.60465 0.41651 0.0
C330 C 0.27153 0.57948 0.4217 0.0
C331 C 0.25055 0.58161 0.43553 0.0
C332 C 0.28314 0.55957 0.42222 0.0
C333 C 0.27429 0.54233 0.437 0.0
C334 C 0.25376 0.54471 0.45191 0.0
C335 C 0.26806 0.64077 0.35411 0.0
C336 C 0.26836 0.66378 0.35574 0.0
C337 C 0.25647 0.62947 0.33073 0.0
C338 C 0.24561 0.64094 0.30931 0.0
C339 C 0.24594 0.66396 0.31095 0.0
C340 C 0.25739 0.67524 0.33447 0.0
C341 C 0.24183 0.56444 0.45074 0.0
H342 H 0.36718 0.6737 0.44271 0.0
H343 H 0.32914 0.66347 0.42579 0.0
H344 H 0.35126 0.59706 0.40534 0.0
H345 H 0.38923 0.60728 0.42195 0.0
H346 H 0.31008 0.64879 0.37593 0.0
H347 H 0.31319 0.59558 0.43232 0.0
H348 H 0.25326 0.60559 0.38204 0.0
H349 H 0.24134 0.59686 0.43557 0.0
H350 H 0.29929 0.55748 0.41161 0.0
H351 H 0.28401 0.52743 0.4378 0.0
H352 H 0.27702 0.67296 0.37357 0.0
H353 H 0.25611 0.61173 0.32873 0.0
H354 H 0.22595 0.56669 0.46198 0.0
H355 H 0.25815 0.69297 0.3362 0.0
H356 H 0.23681 0.63179 0.29159 0.0
C357 C 0.99918 0.7713 0.7812 0.0
C358 C 0.99467 0.76329 0.8087 0.0
C359 C 0.98287 0.78318 0.76688 0.0
C360 C 0.96201 0.78755 0.78014 0.0
C361 C 0.95715 0.77874 0.80692 0.0
C362 C 0.97324 0.76656 0.82095 0.0
C363 C 0.94622 0.80318 0.76794 0.0
C364 C 0.93616 0.79878 0.74033 0.0
C365 C 0.9203 0.81338 0.72967 0.0
C366 C 0.91532 0.8329 0.74666 0.0
C367 C 0.9255 0.83751 0.77429 0.0
C368 C 0.94083 0.82247 0.78472 0.0
C369 C 0.92 0.85769 0.79284 0.0
C370 C 0.92008 0.87833 0.78116 0.0
C371 C 0.91562 0.85645 0.82288 0.0
C372 C 0.91178 0.87541 0.84097 0.0
C373 C 0.91233 0.89612 0.82952 0.0
C374 C 0.90781 0.80736 0.70192 0.0
C375 C 0.91887 0.79755 0.67726 0.0
C376 C 0.88441 0.8101 0.70058 0.0
C377 C 0.87225 0.80254 0.6756 0.0
C378 C 0.88318 0.79212 0.65122 0.0
C379 C 0.90671 0.79007 0.65218 0.0
C380 C 0.91642 0.89739 0.79937 0.0
H381 H 0.01557 0.769 0.7713 0.0
H382 H 0.98696 0.78995 0.74628 0.0
H383 H 0.94114 0.78196 0.8175 0.0
H384 H 0.96937 0.76086 0.84227 0.0
H385 H 0.93992 0.78352 0.72785 0.0
H386 H 0.94887 0.82589 0.80593 0.0
H387 H 0.90321 0.8443 0.73868 0.0
H388 H 0.92353 0.87978 0.75812 0.0
H389 H 0.91527 0.84076 0.83246 0.0
H390 H 0.90885 0.87387 0.86411 0.0
H391 H 0.93692 0.79546 0.67746 0.0
H392 H 0.87533 0.81727 0.71934 0.0
H393 H 0.91673 0.9131 0.78985 0.0
H394 H 0.91573 0.78246 0.63366 0.0
H395 H 0.85415 0.80408 0.67595 0.0
C396 C 0.19017 0.89639 0.12144 0.0
C397 C 0.18316 0.87647 0.13181 0.0
C398 C 0.19705 0.91363 0.1412 0.0
C399 C 0.21305 0.94835 0.18763 0.0
H400 H 0.17046 0.95334 0.25165 0.0
C401 C 0.20133 0.02817 0.26277 0.0
C402 C 0.17876 0.03503 0.26379 0.0
C403 C 0.2069 0.007 0.25155 0.0
C404 C 0.18265 0.9521 0.2341 0.0
H405 H 0.18051 0.85784 0.17026 0.0
H406 H 0.19334 0.88756 0.20463 0.0
H407 H 0.17314 0.9192 0.2216 0.0
H408 H 0.14444 0.02476 0.25375 0.0
H409 H 0.15409 0.98802 0.23518 0.0
H410 H 0.2213 0.982 0.19923 0.0
C411 C 0.19266 0.89029 0.18147 0.0
C412 C 0.1844 0.93242 0.217 0.0
C413 C 0.18542 0.87325 0.16179 0.0
C414 C 0.16193 0.02001 0.25413 0.0
C415 C 0.16747 0.99889 0.24332 0.0
C416 C 0.21127 0.96812 0.20482 0.0
C417 C 0.19737 0.91105 0.17161 0.0
C418 C 0.19905 0.93052 0.1929 0.0
C419 C 0.18999 0.99224 0.24156 0.0
C420 C 0.19541 0.97038 0.22748 0.0
H421 H 0.18876 0.89919 0.09841 0.0
H422 H 0.20048 0.92939 0.13278 0.0
H423 H 0.22471 0.94732 0.16948 0.0
H424 H 0.21471 0.03922 0.27033 0.0
H425 H 0.2244 0.00221 0.25051 0.0
C426 C 0.62338 0.72398 0.59156 0.0
C427 C 0.61903 0.70322 0.57771 0.0
C428 C 0.6062 0.73583 0.60603 0.0
C429 C 0.57422 0.74634 0.65582 0.0
H430 H 0.51123 0.73486 0.63947 0.0
C431 C 0.51155 0.73391 0.7462 0.0
C432 C 0.48848 0.7366 0.74136 0.0
C433 C 0.52697 0.73847 0.72459 0.0
C434 C 0.52865 0.73882 0.64429 0.0
H435 H 0.59367 0.67849 0.56786 0.0
H436 H 0.56379 0.69863 0.59341 0.0
H437 H 0.53857 0.72757 0.60094 0.0
H438 H 0.46349 0.74806 0.71142 0.0
H439 H 0.49051 0.75672 0.67385 0.0
H440 H 0.56429 0.75769 0.69911 0.0
C441 C 0.58006 0.70643 0.59227 0.0
C442 C 0.54442 0.73427 0.62221 0.0
C443 C 0.59717 0.6948 0.57746 0.0
C444 C 0.48122 0.74558 0.71548 0.0
C445 C 0.49669 0.75043 0.69395 0.0
C446 C 0.55841 0.75126 0.67772 0.0
C447 C 0.5845 0.72681 0.60757 0.0
C448 C 0.56751 0.73682 0.62818 0.0
C449 C 0.51967 0.74607 0.69773 0.0
C450 C 0.53557 0.74641 0.67274 0.0
H451 H 0.64023 0.73071 0.59203 0.0
H452 H 0.61017 0.75162 0.61705 0.0
H453 H 0.5918 0.74858 0.66141 0.0
H454 H 0.5176 0.72679 0.76582 0.0
H455 H 0.54443 0.73454 0.72826 0.0
C456 C 0.75911 0.07075 0.00554 0.0
C457 C 0.75567 0.09007 0.02321 0.0
C458 C 0.74329 0.05387 0.00488 0.0
C459 C 0.69806 0.03462 0.05281 0.0
H460 H 0.70537 0.9834 0.99903 0.0
C461 C 0.7067 0.95141 0.09439 0.0
C462 C 0.70574 0.93234 0.07552 0.0
C463 C 0.70115 0.97162 0.08426 0.0
C464 C 0.70241 0.99754 0.01408 0.0
H465 H 0.73211 0.10816 0.05139 0.0
H466 H 0.70354 0.07952 0.04844 0.0
H467 H 0.71649 0.01887 0.98407 0.0
H468 H 0.69557 0.91899 0.03227 0.0
H469 H 0.68492 0.95437 0.01466 0.0
H470 H 0.68301 0.01343 0.08225 0.0
C471 C 0.71899 0.07658 0.03649 0.0
C472 C 0.70936 0.018 0.00569 0.0
C473 C 0.73525 0.09316 0.03801 0.0
C474 C 0.69668 0.93352 0.04721 0.0
C475 C 0.69083 0.95384 0.03706 0.0
C476 C 0.69032 0.01433 0.06073 0.0
C477 C 0.72328 0.05618 0.02122 0.0
C478 C 0.70908 0.0365 0.02589 0.0
C479 C 0.69414 0.97331 0.055 0.0
C480 C 0.69421 0.99523 0.04253 0.0
H481 H 0.7748 0.06799 0.99398 0.0
H482 H 0.74771 0.03855 0.99312 0.0
H483 H 0.69699 0.04827 0.06911 0.0
H484 H 0.71319 0.9509 0.11656 0.0
H485 H 0.70418 0.986 0.09893 0.0
C486 C 0.40274 0.28712 0.52664 0.0
C487 C 0.40631 0.30951 0.53381 0.0
C488 C 0.42007 0.27417 0.51417 0.0
C489 C 0.47978 0.27657 0.48833 0.0
H490 H 0.48861 0.23136 0.54255 0.0
C491 C 0.5685 0.24873 0.51832 0.0
C492 C 0.57195 0.25182 0.54889 0.0
C493 C 0.54671 0.24771 0.50651 0.0
C494 C 0.48634 0.24366 0.52686 0.0
H495 H 0.43012 0.33614 0.53312 0.0
H496 H 0.45997 0.31407 0.51082 0.0
H497 H 0.4513 0.24622 0.53585 0.0
H498 H 0.55484 0.25522 0.59088 0.0
H499 H 0.51741 0.25294 0.57052 0.0
H500 H 0.51529 0.27549 0.48168 0.0
C501 C 0.44388 0.30631 0.51389 0.0
C502 C 0.46485 0.25205 0.52273 0.0
C503 C 0.42671 0.31909 0.52657 0.0
C504 C 0.55309 0.25239 0.56732 0.0
C505 C 0.53145 0.25109 0.55557 0.0
C506 C 0.50131 0.26823 0.49257 0.0
C507 C 0.44122 0.28349 0.509 0.0
C508 C 0.4616 0.26962 0.5049 0.0
C509 C 0.52796 0.24942 0.52505 0.0
C510 C 0.50498 0.2527 0.51334 0.0
H511 H 0.38725 0.27937 0.53274 0.0
H512 H 0.41746 0.25667 0.51055 0.0
H513 H 0.47773 0.28979 0.47398 0.0
H514 H 0.5826 0.24779 0.50344 0.0
H515 H 0.54453 0.24628 0.4829 0.0
C516 C 0.71485 0.60093 0.45697 0.0
C517 C 0.70907 0.62315 0.46024 0.0
C518 C 0.72554 0.59245 0.43162 0.0
C519 C 0.72038 0.60307 0.35554 0.0
H520 H 0.74831 0.54585 0.3474 0.0
C521 C 0.71743 0.51558 0.27934 0.0
C522 C 0.69394 0.51368 0.27946 0.0
C523 C 0.72791 0.53409 0.2932 0.0
C524 C 0.74098 0.56207 0.34878 0.0
H525 H 0.71262 0.65456 0.4417 0.0
H526 H 0.73124 0.63972 0.39703 0.0
H527 H 0.7557 0.56994 0.39111 0.0
H528 H 0.66288 0.52987 0.292 0.0
H529 H 0.68091 0.56215 0.31586 0.0
H530 H 0.70463 0.59467 0.31402 0.0
C531 C 0.72732 0.62878 0.41393 0.0
C532 C 0.7451 0.57583 0.37401 0.0
C533 C 0.7168 0.63732 0.4396 0.0
C534 C 0.68103 0.53112 0.29157 0.0
C535 C 0.69142 0.54965 0.30505 0.0
C536 C 0.71637 0.58937 0.33027 0.0
C537 C 0.73045 0.60603 0.40886 0.0
C538 C 0.73352 0.59578 0.37862 0.0
C539 C 0.71499 0.55101 0.30705 0.0
C540 C 0.72534 0.56811 0.32764 0.0
H541 H 0.7092 0.58971 0.47274 0.0
H542 H 0.72759 0.57486 0.42863 0.0
H543 H 0.7112 0.61833 0.35818 0.0
H544 H 0.72765 0.50216 0.27026 0.0
H545 H 0.74608 0.5347 0.29433 0.0
C546 C 0.87218 0.16546 0.93284 0.0
C547 C 0.86146 0.16733 0.96014 0.0
C548 C 0.89261 0.176 0.929 0.0
C549 C 0.93495 0.21487 0.9638 0.0
H550 H 0.97625 0.17402 0.92404 0.0
C551 C 0.03283 0.22026 0.97113 0.0
C552 C 0.04461 0.21437 0.94514 0.0
C553 C 0.00938 0.21849 0.97188 0.0
C554 C 0.96492 0.1858 0.93482 0.0
H555 H 0.86264 0.183 0.00418 0.0
H556 H 0.89883 0.20088 0.99782 0.0
H557 H 0.93686 0.16465 0.92633 0.0
H558 H 0.0407 0.20255 0.89937 0.0
H559 H 0.00016 0.20013 0.90057 0.0
H560 H 0.96362 0.23569 0.973 0.0
C561 C 0.89131 0.1916 0.97919 0.0
C562 C 0.94224 0.18047 0.93604 0.0
C563 C 0.87059 0.18133 0.98286 0.0
C564 C 0.03231 0.20756 0.91971 0.0
C565 C 0.00902 0.20588 0.92045 0.0
C566 C 0.95783 0.2202 0.96267 0.0
C567 C 0.90301 0.18821 0.95259 0.0
C568 C 0.92692 0.19493 0.95041 0.0
C569 C 0.99733 0.21072 0.94669 0.0
C570 C 0.973 0.20571 0.94803 0.0
H571 H 0.86531 0.15499 0.91484 0.0
H572 H 0.90084 0.17362 0.90793 0.0
H573 H 0.92358 0.22637 0.97504 0.0
H574 H 0.04176 0.22581 0.99102 0.0
H575 H 0.0008 0.22228 0.99245 0.0
C576 C 0.28925 0.41034 0.61389 0.0
C577 C 0.29549 0.39271 0.59438 0.0
C578 C 0.27233 0.4247 0.60615 0.0
C579 C 0.23589 0.43852 0.5416 0.0
H580 H 0.26254 0.4957 0.56023 0.0
C581 C 0.24719 0.50511 0.46025 0.0
C582 C 0.24602 0.52726 0.47053 0.0
C583 C 0.24362 0.48856 0.47931 0.0
C584 C 0.25445 0.47999 0.55516 0.0
H585 H 0.28702 0.37442 0.55353 0.0
H586 H 0.25861 0.39978 0.53922 0.0
H587 H 0.27241 0.46575 0.58923 0.0
H588 H 0.23885 0.54946 0.5084 0.0
H589 H 0.23283 0.52052 0.5418 0.0
H590 H 0.21957 0.4529 0.50557 0.0
C591 C 0.2661 0.40263 0.56079 0.0
C592 C 0.26002 0.46264 0.57202 0.0
C593 C 0.28247 0.38788 0.56905 0.0
C594 C 0.23978 0.53253 0.49981 0.0
C595 C 0.23644 0.51598 0.51896 0.0
C596 C 0.23064 0.45589 0.52435 0.0
C597 C 0.26209 0.42218 0.57819 0.0
C598 C 0.25155 0.44138 0.56485 0.0
C599 C 0.23904 0.49384 0.50913 0.0
C600 C 0.2405 0.47661 0.5304 0.0
H601 H 0.299 0.41431 0.63367 0.0
H602 H 0.26894 0.43892 0.6209 0.0
H603 H 0.2285 0.42263 0.53575 0.0
H604 H 0.25177 0.50058 0.43771 0.0
H605 H 0.24593 0.47167 0.47112 0.0
C606 C 0.08323 0.78278 0.02162 0.0
C607 C 0.10645 0.78611 0.02479 0.0
C608 C 0.07475 0.76807 0.99961 0.0
C609 C 0.0584 0.73746 0.95013 0.0
H610 H 0.08927 0.74972 0.87868 0.0
C611 C 0.0091 0.73571 0.84241 0.0
C612 C 0.01284 0.75423 0.82658 0.0
C613 C 0.02453 0.72992 0.86376 0.0
C614 C 0.08038 0.7461 0.89838 0.0
H615 H 0.13914 0.77479 0.00991 0.0
H616 H 0.12434 0.7486 0.97153 0.0
H617 H 0.10838 0.75606 0.92554 0.0
H618 H 0.03621 0.78046 0.81946 0.0
H619 H 0.06261 0.771 0.85702 0.0
H620 H 0.02961 0.72981 0.92339 0.0
C621 C 0.11263 0.75774 0.98567 0.0
C622 C 0.09153 0.74936 0.92538 0.0
C623 C 0.12114 0.77253 0.0079 0.0
C624 C 0.03298 0.76596 0.83109 0.0
C625 C 0.04822 0.7604 0.85269 0.0
C626 C 0.04711 0.7346 0.92322 0.0
C627 C 0.08933 0.75632 0.98015 0.0
C628 C 0.08024 0.7463 0.95176 0.0
C629 C 0.04384 0.74278 0.87011 0.0
C630 C 0.05755 0.74007 0.89712 0.0
H631 H 0.07154 0.79299 0.03449 0.0
H632 H 0.05675 0.76764 0.9962 0.0
H633 H 0.04938 0.73428 0.96991 0.0
H634 H 0.99379 0.72624 0.83911 0.0
H635 H 0.02081 0.71592 0.87614 0.0
C636 C 0.84329 0.04617 0.98407 0.0
C637 C 0.85276 0.06717 0.98386 0.0
C638 C 0.85534 0.02777 0.97354 0.0
C639 C 0.89541 0.01329 0.91668 0.0
H640 H 0.89156 0.95567 0.94654 0.0
C641 C 0.92275 0.93468 0.8475 0.0
C642 C 0.90883 0.91623 0.8492 0.0
C643 C 0.91988 0.95325 0.86686 0.0
C644 C 0.89267 0.97162 0.93777 0.0
H645 H 0.88265 0.08544 0.97421 0.0
H646 H 0.90379 0.05308 0.95514 0.0
H647 H 0.88076 0.98786 0.97779 0.0
H648 H 0.88062 0.90304 0.87203 0.0
H649 H 0.87529 0.93542 0.90528 0.0
H650 H 0.90616 0.99707 0.87615 0.0
C651 C 0.88707 0.05091 0.9637 0.0
C652 C 0.88666 0.99007 0.9558 0.0
C653 C 0.87511 0.06936 0.97486 0.0
C654 C 0.89184 0.91685 0.87045 0.0
C655 C 0.88889 0.93541 0.88964 0.0
C656 C 0.90126 0.99482 0.89853 0.0
C657 C 0.87698 0.03002 0.96205 0.0
C658 C 0.8874 0.01105 0.9452 0.0
C659 C 0.90294 0.95382 0.88827 0.0
C660 C 0.89935 0.97368 0.90858 0.0
H661 H 0.82603 0.04411 0.99076 0.0
H662 H 0.84702 0.01196 0.97238 0.0
H663 H 0.89588 0.02922 0.90774 0.0
H664 H 0.93617 0.93459 0.83159 0.0
H665 H 0.93115 0.96702 0.8653 0.0
C666 C 0.42374 0.39306 0.51023 0.0
C667 C 0.40799 0.37596 0.50985 0.0
C668 C 0.44105 0.39263 0.48969 0.0
C669 C 0.45773 0.3681 0.41672 0.0
H670 H 0.51674 0.38888 0.44213 0.0
C671 C 0.53596 0.36641 0.34021 0.0
C672 C 0.54937 0.38543 0.34242 0.0
C673 C 0.51855 0.36371 0.3602 0.0
C674 C 0.50032 0.38315 0.43463 0.0
H675 H 0.3975 0.34533 0.48705 0.0
H676 H 0.42807 0.34431 0.45147 0.0
H677 H 0.48688 0.38679 0.47799 0.0
H678 H 0.55417 0.41696 0.36657 0.0
H679 H 0.52419 0.41214 0.40135 0.0
H680 H 0.47133 0.36455 0.37325 0.0
C681 C 0.42701 0.35811 0.46759 0.0
C682 C 0.48318 0.38199 0.45519 0.0
C683 C 0.40963 0.35859 0.48813 0.0
C684 C 0.54462 0.40184 0.36465 0.0
C685 C 0.52738 0.3991 0.38461 0.0
C686 C 0.47496 0.3692 0.39611 0.0
C687 C 0.44299 0.37511 0.4682 0.0
C688 C 0.46155 0.37482 0.44645 0.0
C689 C 0.51427 0.37994 0.38284 0.0
C690 C 0.49634 0.37711 0.40479 0.0
H691 H 0.42278 0.40676 0.52654 0.0
H692 H 0.45277 0.40622 0.49046 0.0
H693 H 0.44123 0.36266 0.40918 0.0
H694 H 0.53923 0.3534 0.32348 0.0
H695 H 0.50878 0.34872 0.35835 0.0
C696 C 0.13045 0.92627 0.05085 0.0
C697 C 0.14708 0.91007 0.05141 0.0
C698 C 0.13594 0.94754 0.04418 0.0
C699 C 0.1831 0.98652 0.0358 0.0
H700 H 0.14112 0.01207 0.98277 0.0
C701 C 0.18786 0.07707 0.0048 0.0
C702 C 0.18156 0.08156 0.97608 0.0
C703 C 0.18574 0.0559 0.01431 0.0
C704 C 0.15318 0.00514 0.99733 0.0
H705 H 0.18261 0.90356 0.04601 0.0
H706 H 0.19227 0.9408 0.03423 0.0
H707 H 0.1334 0.97621 0.99992 0.0
H708 H 0.16875 0.06693 0.93461 0.0
H709 H 0.16573 0.03008 0.95086 0.0
H710 H 0.2031 0.01545 0.03258 0.0
C711 C 0.17501 0.93714 0.03941 0.0
C712 C 0.14856 0.98465 0.00756 0.0
C713 C 0.1695 0.91581 0.04625 0.0
C714 C 0.17397 0.06414 0.95679 0.0
C715 C 0.17192 0.043 0.96625 0.0
C716 C 0.18774 0.0071 0.02552 0.0
C717 C 0.15818 0.95312 0.03756 0.0
C718 C 0.16338 0.97508 0.02703 0.0
C719 C 0.17727 0.03869 0.99533 0.0
C720 C 0.17282 0.01665 0.0061 0.0
H721 H 0.11304 0.92236 0.05491 0.0
H722 H 0.12263 0.95954 0.04364 0.0
H723 H 0.19483 0.97967 0.05086 0.0
H724 H 0.19408 0.09001 0.02016 0.0
H725 H 0.18996 0.05322 0.03687 0.0
C726 C 0.57094 0.63554 0.52034 0.0
C727 C 0.58634 0.65234 0.51566 0.0
C728 C 0.54794 0.63874 0.51631 0.0
C729 C 0.51027 0.66833 0.47102 0.0
H730 H 0.46366 0.64589 0.51981 0.0
C731 C 0.40733 0.65818 0.47213 0.0
C732 C 0.40405 0.64716 0.44436 0.0
C733 C 0.42906 0.66236 0.48303 0.0
C734 C 0.47646 0.65247 0.50613 0.0
H735 H 0.58971 0.68596 0.50423 0.0
H736 H 0.54938 0.69145 0.49669 0.0
H737 H 0.50262 0.64717 0.53733 0.0
H738 H 0.42081 0.6326 0.40583 0.0
H739 H 0.45875 0.64018 0.42467 0.0
H740 H 0.48428 0.67279 0.43933 0.0
C741 C 0.55518 0.67585 0.50362 0.0
C742 C 0.49874 0.65309 0.51609 0.0
C743 C 0.57821 0.67274 0.50808 0.0
C744 C 0.42287 0.64101 0.42737 0.0
C745 C 0.44456 0.64549 0.43806 0.0
C746 C 0.48806 0.66742 0.46091 0.0
C747 C 0.53987 0.6587 0.50707 0.0
C748 C 0.51593 0.66069 0.49842 0.0
C749 C 0.44789 0.65595 0.46615 0.0
C750 C 0.47099 0.65912 0.47814 0.0
H751 H 0.57674 0.61965 0.5262 0.0
H752 H 0.53658 0.62517 0.51891 0.0
H753 H 0.52318 0.67408 0.45681 0.0
H754 H 0.39309 0.66299 0.48574 0.0
H755 H 0.43116 0.67051 0.50471 0.0
C756 C 0.41058 0.40733 0.66288 0.0
C757 C 0.39629 0.40663 0.63821 0.0
C758 C 0.41444 0.42706 0.67954 0.0
C759 C 0.40747 0.48753 0.67911 0.0
H760 H 0.40612 0.48493 0.7637 0.0
C761 C 0.39349 0.56411 0.75731 0.0
C762 C 0.40787 0.56698 0.7818 0.0
C763 C 0.3932 0.54435 0.74004 0.0
C764 C 0.40675 0.48589 0.74013 0.0
H765 H 0.37558 0.42631 0.61104 0.0
H766 H 0.38197 0.4605 0.64027 0.0
H767 H 0.40478 0.45109 0.73216 0.0
H768 H 0.43271 0.55116 0.80793 0.0
H769 H 0.43209 0.51647 0.77778 0.0
H770 H 0.40886 0.5224 0.68718 0.0
C771 C 0.39047 0.44592 0.64661 0.0
C772 C 0.40609 0.4665 0.72201 0.0
C773 C 0.38672 0.42625 0.62987 0.0
C774 C 0.42153 0.54944 0.7891 0.0
C775 C 0.4211 0.52958 0.77195 0.0
C776 C 0.40796 0.50691 0.69721 0.0
C777 C 0.40402 0.44651 0.672 0.0
C778 C 0.40625 0.46708 0.69125 0.0
C779 C 0.40717 0.52696 0.74699 0.0
C780 C 0.40739 0.5063 0.7279 0.0
H781 H 0.41832 0.39254 0.66981 0.0
H782 H 0.42534 0.42699 0.6986 0.0
H783 H 0.40804 0.4886 0.65556 0.0
H784 H 0.38295 0.5774 0.75091 0.0
H785 H 0.38209 0.54271 0.72114 0.0
C786 C 0.06263 0.87306 0.14063 0.0
C787 C 0.07513 0.86338 0.11718 0.0
C788 C 0.0393 0.87461 0.13855 0.0
C789 C 0.99045 0.86783 0.0871 0.0
H790 H 0.95996 0.8514 0.15709 0.0
C791 C 0.89741 0.83944 0.08868 0.0
C792 C 0.88441 0.84747 0.11268 0.0
C793 C 0.92051 0.84359 0.08807 0.0
C794 C 0.96818 0.85628 0.13748 0.0
H795 H 0.07301 0.84898 0.07246 0.0
H796 H 0.0323 0.85114 0.0691 0.0
H797 H 0.0005 0.8558 0.15782 0.0
H798 H 0.88542 0.86695 0.15428 0.0
H799 H 0.92566 0.87385 0.1534 0.0
H800 H 0.95792 0.86761 0.06663 0.0
C801 C 0.04051 0.85783 0.08898 0.0
C802 C 0.99145 0.85891 0.1379 0.0
C803 C 0.0639 0.85652 0.09094 0.0
C804 C 0.89499 0.86004 0.13579 0.0
C805 C 0.91804 0.8641 0.13525 0.0
C806 C 0.96711 0.86504 0.08663 0.0
C807 C 0.02787 0.86626 0.11312 0.0
C808 C 0.00292 0.86469 0.11273 0.0
C809 C 0.93109 0.85579 0.1115 0.0
C810 C 0.95576 0.8592 0.11183 0.0
H811 H 0.0708 0.8788 0.161 0.0
H812 H 0.03016 0.88176 0.15727 0.0
H813 H 0.9987 0.87249 0.06741 0.0
H814 H 0.88983 0.82955 0.07063 0.0
H815 H 0.93019 0.83678 0.06963 0.0
C816 C 0.67218 0.58771 0.59659 0.0
C817 C 0.67229 0.59484 0.56805 0.0
C818 C 0.6734 0.56537 0.60106 0.0
C819 C 0.6675 0.51001 0.56142 0.0
H820 H 0.69831 0.49123 0.63033 0.0
C821 C 0.69131 0.41988 0.57763 0.0
C822 C 0.6828 0.41175 0.60346 0.0
C823 C 0.69056 0.44227 0.57343 0.0
C824 C 0.68963 0.49632 0.61104 0.0
H825 H 0.67421 0.58426 0.52184 0.0
H826 H 0.67741 0.54554 0.52954 0.0
H827 H 0.69609 0.5302 0.62251 0.0
H828 H 0.66689 0.42124 0.64516 0.0
H829 H 0.66668 0.46033 0.63826 0.0
H830 H 0.66186 0.47589 0.54961 0.0
C831 C 0.6755 0.55697 0.54856 0.0
C832 C 0.68816 0.51864 0.60661 0.0
C833 C 0.67381 0.57924 0.54409 0.0
C834 C 0.67406 0.42677 0.62526 0.0
C835 C 0.67375 0.44919 0.62128 0.0
C836 C 0.66939 0.48769 0.56557 0.0
C837 C 0.67524 0.54967 0.57711 0.0
C838 C 0.67696 0.52584 0.5818 0.0
C839 C 0.68174 0.45708 0.59521 0.0
C840 C 0.68036 0.48068 0.59048 0.0
H841 H 0.67087 0.59938 0.61546 0.0
H842 H 0.67266 0.56045 0.62334 0.0
H843 H 0.65831 0.51481 0.54239 0.0
H844 H 0.69861 0.40898 0.56058 0.0
H845 H 0.69701 0.44806 0.55324 0.0
C846 C 0.89373 0.11718 0.05138 0.0
C847 C 0.87483 0.1133 0.06859 0.0
C848 C 0.9152 0.11856 0.06414 0.0
C849 C 0.94776 0.10745 0.13146 0.0
H850 H 0.98222 0.15847 0.11295 0.0
C851 C 0.01997 0.14143 0.20606 0.0
C852 C 0.0397 0.14808 0.19243 0.0
C853 C 0.00059 0.13634 0.18949 0.0
C854 C 0.97296 0.14399 0.11814 0.0
H855 H 0.86388 0.1062 0.11214 0.0
H856 H 0.90108 0.10852 0.1342 0.0
H857 H 0.94793 0.14896 0.08544 0.0
H858 H 0.05422 0.15539 0.15079 0.0
H859 H 0.02045 0.14635 0.12186 0.0
H860 H 0.97258 0.1027 0.16449 0.0
C861 C 0.89946 0.11054 0.11092 0.0
C862 C 0.95334 0.13848 0.10227 0.0
C863 C 0.87806 0.10929 0.09826 0.0
C864 C 0.03936 0.15014 0.16194 0.0
C865 C 0.01995 0.1451 0.14538 0.0
C866 C 0.96736 0.11297 0.14734 0.0
C867 C 0.91821 0.11588 0.09427 0.0
C868 C 0.94031 0.12031 0.109 0.0
C869 C 0.00042 0.13781 0.15889 0.0
C870 C 0.98004 0.13149 0.14116 0.0
H871 H 0.89183 0.12034 0.02846 0.0
H872 H 0.92936 0.12234 0.05059 0.0
H873 H 0.93832 0.09317 0.13694 0.0
H874 H 0.0197 0.13944 0.22943 0.0
H875 H 0.98573 0.13113 0.20067 0.0
C876 C 0.15196 0.79012 0.15693 0.0
C877 C 0.15587 0.78867 0.12656 0.0
C878 C 0.16082 0.77461 0.17462 0.0
C879 C 0.18497 0.71964 0.17687 0.0
H880 H 0.21448 0.74585 0.24679 0.0
C881 C 0.23655 0.66979 0.25823 0.0
C882 C 0.23451 0.67629 0.28826 0.0
C883 C 0.22669 0.68216 0.23693 0.0
C884 C 0.20609 0.7382 0.2276 0.0
H885 H 0.17107 0.7691 0.09061 0.0
H886 H 0.18672 0.74167 0.12189 0.0
H887 H 0.19741 0.76922 0.21209 0.0
H888 H 0.2196 0.70023 0.31949 0.0
H889 H 0.20225 0.72161 0.28256 0.0
H890 H 0.19352 0.68852 0.19276 0.0
C891 C 0.17675 0.75495 0.13184 0.0
C892 C 0.19635 0.75162 0.20764 0.0
C893 C 0.16782 0.77061 0.11397 0.0
C894 C 0.22187 0.69504 0.29654 0.0
C895 C 0.21196 0.70731 0.27533 0.0
C896 C 0.19468 0.70612 0.19703 0.0
C897 C 0.17387 0.75722 0.16247 0.0
C898 C 0.18536 0.74253 0.18231 0.0
C899 C 0.21453 0.70125 0.24524 0.0
C900 C 0.20504 0.71528 0.22288 0.0
H901 H 0.14257 0.80365 0.1673 0.0
H902 H 0.15785 0.77651 0.19805 0.0
H903 H 0.17658 0.7122 0.15754 0.0
H904 H 0.24633 0.65549 0.25115 0.0
H905 H 0.22914 0.67711 0.21397 0.0
C906 C 0.74684 0.68089 0.51263 0.0
C907 C 0.72672 0.69234 0.51764 0.0
C908 C 0.76741 0.69202 0.51473 0.0
C909 C 0.79401 0.74753 0.52807 0.0
H910 H 0.83076 0.71744 0.58278 0.0
C911 C 0.85031 0.79248 0.61621 0.0
C912 C 0.86985 0.78221 0.62587 0.0
C913 C 0.83633 0.78191 0.59489 0.0
C914 C 0.82111 0.726 0.56702 0.0
H915 H 0.71187 0.72429 0.52647 0.0
H916 H 0.74758 0.74382 0.53012 0.0
H917 H 0.80023 0.69806 0.5571 0.0
H918 H 0.89049 0.75309 0.61942 0.0
H919 H 0.86651 0.73501 0.58174 0.0
H920 H 0.81448 0.77582 0.53915 0.0
C921 C 0.74775 0.72638 0.52414 0.0
C922 C 0.80353 0.71481 0.55215 0.0
C923 C 0.72724 0.71523 0.52198 0.0
C924 C 0.87567 0.7616 0.61247 0.0
C925 C 0.86175 0.75108 0.59106 0.0
C926 C 0.81168 0.75876 0.54297 0.0
C927 C 0.76812 0.71475 0.52224 0.0
C928 C 0.78933 0.72557 0.53312 0.0
C929 C 0.84158 0.76083 0.58258 0.0
C930 C 0.82504 0.7483 0.56328 0.0
H931 H 0.74676 0.66316 0.50968 0.0
H932 H 0.78277 0.68262 0.5126 0.0
H933 H 0.78357 0.75626 0.51331 0.0
H934 H 0.84549 0.8085 0.62564 0.0
H935 H 0.82088 0.78989 0.58911 0.0
C936 C 0.78739 0.20736 0.02537 0.0
C937 C 0.80587 0.19889 0.03998 0.0
C938 C 0.77875 0.22795 0.03455 0.0
C939 C 0.77303 0.2591 0.10434 0.0
H940 H 0.74372 0.30279 0.06009 0.0
C941 C 0.72372 0.32873 0.16405 0.0
C942 C 0.70334 0.33486 0.15148 0.0
C943 C 0.73871 0.31518 0.14803 0.0
C944 C 0.75167 0.29062 0.07274 0.0
H945 H 0.83088 0.2056 0.07395 0.0
H946 H 0.81618 0.24176 0.08964 0.0
H947 H 0.76691 0.27454 0.03451 0.0
H948 H 0.68277 0.33212 0.11215 0.0
H949 H 0.70855 0.30757 0.08434 0.0
H950 H 0.75714 0.27409 0.14224 0.0
C951 C 0.80822 0.23254 0.07128 0.0
C952 C 0.76506 0.27456 0.05809 0.0
C953 C 0.81677 0.21198 0.06216 0.0
C954 C 0.69841 0.32757 0.12231 0.0
C955 C 0.71327 0.31366 0.10636 0.0
C956 C 0.75953 0.2749 0.11886 0.0
C957 C 0.78838 0.24019 0.05868 0.0
C958 C 0.77584 0.25861 0.07379 0.0
C959 C 0.73351 0.30705 0.11917 0.0
C960 C 0.74859 0.29086 0.10333 0.0
H961 H 0.77823 0.19719 0.00903 0.0
H962 H 0.76333 0.23329 0.0246 0.0
H963 H 0.78056 0.24668 0.117 0.0
H964 H 0.72813 0.33453 0.18631 0.0
H965 H 0.75436 0.31098 0.1584 0.0
C966 C 0.31914 0.29782 0.64313 0.0
C967 C 0.31558 0.31875 0.63326 0.0
C968 C 0.30318 0.28814 0.66022 0.0
C969 C 0.26025 0.30307 0.71412 0.0
H970 H 0.25081 0.24019 0.71052 0.0
C971 C 0.20859 0.25948 0.80055 0.0
C972 C 0.21801 0.2402 0.81034 0.0
C973 C 0.2179 0.26953 0.77689 0.0
C974 C 0.25337 0.25776 0.71189 0.0
H975 H 0.29211 0.34566 0.63232 0.0
H976 H 0.26389 0.32867 0.66281 0.0
H977 H 0.26969 0.25663 0.67023 0.0
H978 H 0.24474 0.21651 0.80317 0.0
H979 H 0.26118 0.23416 0.76195 0.0
H980 H 0.24433 0.30409 0.75616 0.0
C981 C 0.27916 0.31981 0.65717 0.0
C982 C 0.26407 0.2672 0.68875 0.0
C983 C 0.29516 0.32944 0.63956 0.0
C984 C 0.23719 0.2314 0.79625 0.0
C985 C 0.24642 0.24137 0.77243 0.0
C986 C 0.24943 0.29362 0.73727 0.0
C987 C 0.28327 0.29922 0.66816 0.0
C988 C 0.26823 0.28988 0.68997 0.0
C989 C 0.23677 0.26045 0.76234 0.0
C990 C 0.24643 0.27078 0.73674 0.0
H991 H 0.33473 0.28919 0.63849 0.0
H992 H 0.30707 0.27244 0.66854 0.0
H993 H 0.26341 0.32055 0.71591 0.0
H994 H 0.19394 0.26679 0.81118 0.0
H995 H 0.21006 0.28417 0.76962 0.0
C996 C 0.68863 0.69678 0.43778 0.0
C997 C 0.66696 0.68784 0.43942 0.0
C998 C 0.69462 0.70872 0.41403 0.0
C999 C 0.7007 0.74167 0.36814 0.0
H1000 H 0.67595 0.72259 0.29184 0.0
C1001 C 0.7157 0.79029 0.2664 0.0
C1002 C 0.71871 0.77846 0.23917 0.0
C1003 C 0.70896 0.77971 0.29099 0.0
C1004 C 0.68324 0.72802 0.3129 0.0
H1005 H 0.6342 0.68549 0.41843 0.0
H1006 H 0.64432 0.707 0.37772 0.0
H1007 H 0.6656 0.70344 0.33451 0.0
H1008 H 0.71674 0.7461 0.21657 0.0
H1009 H 0.706 0.7275 0.25968 0.0
H1010 H 0.71918 0.76559 0.34625 0.0
C1011 C 0.65701 0.7041 0.39407 0.0
C1012 C 0.67699 0.71724 0.33754 0.0
C1013 C 0.65113 0.6919 0.41756 0.0
C1014 C 0.71484 0.75573 0.23722 0.0
C1015 C 0.70835 0.74509 0.26191 0.0
C1016 C 0.70716 0.7523 0.34343 0.0
C1017 C 0.67896 0.71229 0.39166 0.0
C1018 C 0.68558 0.72396 0.36551 0.0
C1019 C 0.70532 0.75695 0.28913 0.0
C1020 C 0.69848 0.74563 0.31548 0.0
H1021 H 0.70118 0.69401 0.45436 0.0
H1022 H 0.71174 0.71458 0.41282 0.0
H1023 H 0.70748 0.74747 0.38934 0.0
H1024 H 0.71886 0.80776 0.26893 0.0
H1025 H 0.7065 0.78945 0.31143 0.0
C1026 C 0.78569 0.18871 0.9487 0.0
C1027 C 0.77521 0.1684 0.95164 0.0
C1028 C 0.77674 0.20345 0.92968 0.0
C1029 C 0.72656 0.21418 0.88341 0.0
H1030 H 0.77065 0.23606 0.83051 0.0
C1031 C 0.70469 0.23444 0.76598 0.0
C1032 C 0.71345 0.25375 0.7555 0.0
C1033 C 0.71163 0.22746 0.79301 0.0
C1034 C 0.75815 0.23038 0.84536 0.0
H1035 H 0.74657 0.14808 0.93838 0.0
H1036 H 0.73113 0.17349 0.9051 0.0
H1037 H 0.78315 0.21867 0.87416 0.0
H1038 H 0.73654 0.2808 0.76541 0.0
H1039 H 0.7491 0.26819 0.81239 0.0
H1040 H 0.70161 0.22502 0.85378 0.0
C1041 C 0.74606 0.17831 0.91762 0.0
C1042 C 0.76529 0.22049 0.87047 0.0
C1043 C 0.75498 0.16364 0.93658 0.0
C1044 C 0.72965 0.2657 0.77258 0.0
C1045 C 0.73676 0.25858 0.79957 0.0
C1046 C 0.71945 0.22391 0.85821 0.0
C1047 C 0.75719 0.1981 0.91322 0.0
C1048 C 0.74958 0.21175 0.88939 0.0
C1049 C 0.72767 0.23948 0.81014 0.0
C1050 C 0.73518 0.2316 0.83855 0.0
H1051 H 0.80143 0.19273 0.95985 0.0
H1052 H 0.78556 0.21868 0.92709 0.0
H1053 H 0.71401 0.20802 0.89781 0.0
H1054 H 0.69256 0.22455 0.75317 0.0
H1055 H 0.70468 0.21241 0.8003 0.0
C1056 C 0.31215 0.34835 0.47588 0.0
C1057 C 0.32863 0.33925 0.49348 0.0
C1058 C 0.29916 0.33501 0.45637 0.0
C1059 C 0.29377 0.27917 0.41952 0.0
H1060 H 0.23022 0.29299 0.42163 0.0
C1061 C 0.22526 0.21863 0.37412 0.0
C1062 C 0.20687 0.2271 0.35913 0.0
C1063 C 0.2411 0.23262 0.38825 0.0
C1064 C 0.24793 0.28907 0.42041 0.0
H1065 H 0.34524 0.30912 0.50328 0.0
H1066 H 0.32227 0.28566 0.46935 0.0
H1067 H 0.25668 0.31664 0.44955 0.0
H1068 H 0.19087 0.25697 0.34703 0.0
H1069 H 0.21871 0.28146 0.3715 0.0
H1070 H 0.28483 0.25132 0.39069 0.0
C1071 C 0.31954 0.30318 0.47048 0.0
C1072 C 0.26315 0.30265 0.43642 0.0
C1073 C 0.3327 0.31661 0.48995 0.0
C1074 C 0.20487 0.24992 0.35829 0.0
C1075 C 0.22071 0.26395 0.37253 0.0
C1076 C 0.2785 0.26554 0.40351 0.0
C1077 C 0.30217 0.31219 0.45411 0.0
C1078 C 0.28626 0.29788 0.43623 0.0
C1079 C 0.23897 0.25545 0.38778 0.0
C1080 C 0.25539 0.2703 0.40386 0.0
H1081 H 0.30874 0.36578 0.47785 0.0
H1082 H 0.28634 0.34256 0.44355 0.0
H1083 H 0.31147 0.27515 0.41865 0.0
H1084 H 0.2275 0.20111 0.3748 0.0
H1085 H 0.25481 0.22553 0.40002 0.0
C1086 C 0.21416 0.84308 0.03337 0.0
C1087 C 0.19539 0.84063 0.01461 0.0
C1088 C 0.23516 0.83527 0.02411 0.0
C1089 C 0.26912 0.7996 0.00655 0.0
H1090 H 0.29292 0.80372 0.9283 0.0
C1091 C 0.32863 0.73564 0.95025 0.0
C1092 C 0.34629 0.74325 0.93341 0.0
C1093 C 0.3128 0.75027 0.96271 0.0
C1094 C 0.28665 0.80263 0.95036 0.0
H1095 H 0.18422 0.82955 0.97077 0.0
H1096 H 0.22089 0.81612 0.9545 0.0
H1097 H 0.26076 0.82618 0.94423 0.0
H1098 H 0.36144 0.77214 0.9168 0.0
H1099 H 0.33377 0.79767 0.93862 0.0
H1100 H 0.29459 0.7756 0.01238 0.0
C1101 C 0.21938 0.82401 0.9764 0.0
C1102 C 0.26817 0.81537 0.95938 0.0
C1103 C 0.19834 0.83163 0.98573 0.0
C1104 C 0.34814 0.76583 0.92992 0.0
C1105 C 0.3322 0.78041 0.94216 0.0
C1106 C 0.28746 0.78673 0.99743 0.0
C1107 C 0.23782 0.82509 0.9958 0.0
C1108 C 0.259 0.81372 0.98739 0.0
C1109 C 0.3142 0.77274 0.95833 0.0
C1110 C 0.29617 0.78785 0.96908 0.0
H1111 H 0.21245 0.85001 0.05576 0.0
H1112 H 0.24916 0.83654 0.03938 0.0
H1113 H 0.26226 0.79782 0.02816 0.0
H1114 H 0.32688 0.71835 0.95341 0.0
H1115 H 0.29899 0.74387 0.97488 0.0
loop_
_geom_bond_atom_site_label_1
_geom_bond_atom_site_label_2
_geom_bond_distance
_geom_bond_site_symmetry_2
_ccdc_geom_bond_type
Zn0 O6 1.920 . S
Zn0 O12 1.898 . S
Zn0 O15 1.905 . S
Zn1 O9 1.905 . S
Zn1 O10 1.898 . S
Zn1 O18 1.920 . S
Zn2 O5 2.080 . S
Zn2 O8 2.114 . S
Zn2 O11 2.120 . S
Zn2 O13 2.120 . S
Zn2 O14 2.114 . S
Zn2 O17 2.080 . S
C3 O8 1.166 . S
C3 O9 1.182 1_554 S
C4 O10 1.167 . S
C4 O11 1.299 1_556 S
O5 Zn2 2.080 . S
O5 C19 1.305 . S
O6 Zn0 1.920 . S
O6 C19 1.234 . S
C7 O12 1.167 . S
C7 O13 1.299 . S
O8 Zn2 2.114 . S
O8 C3 1.166 . S
O9 Zn1 1.905 . S
O9 C3 1.182 1_556 S
O10 Zn1 1.898 . S
O10 C4 1.167 . S
O11 Zn2 2.120 . S
O11 C4 1.299 1_554 S
O12 Zn0 1.898 . S
O12 C7 1.167 . S
O13 Zn2 2.120 . S
O13 C7 1.299 . S
O14 Zn2 2.114 . S
O14 C16 1.166 . S
O15 Zn0 1.905 . S
O15 C16 1.182 . S
C16 O14 1.166 . S
C16 O15 1.182 . S
O17 Zn2 2.080 . S
O17 C20 1.305 . S
O18 Zn1 1.920 . S
O18 C20 1.234 1_556 S
C19 O5 1.305 . S
C19 O6 1.234 . S
C20 O17 1.305 . S
C20 O18 1.234 1_554 S
Zn21 O27 1.920 . S
Zn21 O33 1.898 . S
Zn21 O36 1.905 . S
Zn22 O30 1.905 . S
Zn22 O31 1.898 . S
Zn22 O39 1.920 . S
Zn23 O26 2.080 . S
Zn23 O29 2.114 . S
Zn23 O32 2.120 . S
Zn23 O34 2.120 . S
Zn23 O35 2.114 . S
Zn23 O38 2.080 . S
C24 O29 1.166 . S
C24 O30 1.182 . S
C25 O31 1.167 . S
C25 O32 1.299 . S
O26 Zn23 2.080 . S
O26 C40 1.305 . S
O27 Zn21 1.920 . S
O27 C40 1.234 . S
C28 O33 1.167 . S
C28 O34 1.299 . S
O29 Zn23 2.114 . S
O29 C24 1.166 . S
O30 Zn22 1.905 . S
O30 C24 1.182 . S
O31 Zn22 1.898 . S
O31 C25 1.167 . S
O32 Zn23 2.120 . S
O32 C25 1.299 . S
O33 Zn21 1.898 . S
O33 C28 1.167 . S
O34 Zn23 2.120 . S
O34 C28 1.299 . S
O35 Zn23 2.114 . S
O35 C37 1.166 . S
O36 Zn21 1.905 . S
O36 C37 1.182 . S
C37 O35 1.166 . S
C37 O36 1.182 . S
O38 Zn23 2.080 . S
O38 C41 1.305 . S
O39 Zn22 1.920 . S
O39 C41 1.234 . S
C40 O26 1.305 . S
C40 O27 1.234 . S
C41 O38 1.305 . S
C41 O39 1.234 . S
Zn42 O48 1.920 . S
Zn42 O54 1.898 . S
Zn42 O57 1.905 . S
Zn43 O51 1.905 . S
Zn43 O52 1.898 . S
Zn43 O60 1.920 . S
Zn44 O47 2.080 1_554 S
Zn44 O50 2.114 . S
Zn44 O53 2.120 . S
Zn44 O55 2.120 1_554 S
Zn44 O56 2.114 1_554 S
Zn44 O59 2.080 . S
C45 O50 1.166 . S
C45 O51 1.182 . S
C46 O52 1.167 . S
C46 O53 1.299 . S
O47 Zn44 2.080 1_556 S
O47 C61 1.305 . S
O48 Zn42 1.920 . S
O48 C61 1.234 . S
C49 O54 1.167 . S
C49 O55 1.299 . S
O50 Zn44 2.114 . S
O50 C45 1.166 . S
O51 Zn43 1.905 . S
O51 C45 1.182 . S
O52 Zn43 1.898 . S
O52 C46 1.167 . S
O53 Zn44 2.120 . S
O53 C46 1.299 . S
O54 Zn42 1.898 . S
O54 C49 1.167 . S
O55 Zn44 2.120 1_556 S
O55 C49 1.299 . S
O56 Zn44 2.114 1_556 S
O56 C58 1.166 . S
O57 Zn42 1.905 . S
O57 C58 1.182 . S
C58 O56 1.166 . S
C58 O57 1.182 . S
O59 Zn44 2.080 . S
O59 C62 1.305 . S
O60 Zn43 1.920 . S
O60 C62 1.234 . S
C61 O47 1.305 . S
C61 O48 1.234 . S
C62 O59 1.305 . S
C62 O60 1.234 . S
Zn63 O69 1.920 . S
Zn63 O75 1.898 . S
Zn63 O78 1.905 . S
Zn64 O72 1.905 . S
Zn64 O73 1.898 . S
Zn64 O81 1.920 . S
Zn65 O68 2.080 . S
Zn65 O71 2.114 . S
Zn65 O74 2.120 . S
Zn65 O76 2.120 . S
Zn65 O77 2.114 . S
Zn65 O80 2.080 . S
C66 O71 1.166 . S
C66 O72 1.182 . S
C67 O73 1.167 . S
C67 O74 1.299 . S
O68 Zn65 2.080 . S
O68 C82 1.305 . S
O69 Zn63 1.920 . S
O69 C82 1.234 . S
C70 O75 1.167 . S
C70 O76 1.299 . S
O71 Zn65 2.114 . S
O71 C66 1.166 . S
O72 Zn64 1.905 . S
O72 C66 1.182 . S
O73 Zn64 1.898 . S
O73 C67 1.167 . S
O74 Zn65 2.120 . S
O74 C67 1.299 . S
O75 Zn63 1.898 . S
O75 C70 1.167 . S
O76 Zn65 2.120 . S
O76 C70 1.299 . S
O77 Zn65 2.114 . S
O77 C79 1.166 . S
O78 Zn63 1.905 . S
O78 C79 1.182 . S
C79 O77 1.166 . S
C79 O78 1.182 . S
O80 Zn65 2.080 . S
O80 C83 1.305 . S
O81 Zn64 1.920 . S
O81 C83 1.234 . S
C82 O68 1.305 . S
C82 O69 1.234 . S
C83 O80 1.305 . S
C83 O81 1.234 . S
C84 C85 1.386 . S
C84 C86 1.397 . S
C84 H108 0.931 . S
C85 C84 1.386 . S
C85 C89 1.397 . S
C86 C84 1.397 . S
C86 C87 1.384 . S
C86 H109 0.930 . S
C87 C86 1.384 . S
C87 C88 1.377 . S
C87 C90 1.481 . S
C88 C87 1.377 . S
C88 C89 1.389 . S
C88 H110 0.929 . S
C89 C85 1.397 . S
C89 C88 1.389 . S
C89 H111 0.931 . S
C90 C87 1.481 . S
C90 C91 1.387 . S
C90 C95 1.390 . S
C91 C90 1.387 . S
C91 C92 1.401 . S
C91 H112 0.930 . S
C92 C91 1.401 . S
C92 C93 1.376 . S
C92 C101 1.511 . S
C93 C92 1.376 . S
C93 C94 1.392 . S
C93 H114 0.931 . S
C94 C93 1.392 . S
C94 C95 1.361 . S
C94 C96 1.500 . S
C95 C90 1.390 . S
C95 C94 1.361 . S
C95 H113 0.931 . S
C96 C94 1.500 . S
C96 C97 1.371 . S
C96 C98 1.365 . S
C97 C96 1.371 . S
C97 C107 1.386 . S
C97 H115 0.931 . S
C98 C96 1.365 . S
C98 C99 1.409 . S
C98 H116 0.929 . S
C99 C98 1.409 . S
C99 C100 1.380 . S
C99 H117 0.930 . S
C100 C99 1.380 . S
C100 C107 1.357 . S
C101 C92 1.511 . S
C101 C102 1.341 . S
C101 C103 1.371 . S
C102 C101 1.341 . S
C102 C106 1.394 . S
C102 H118 0.930 . S
C103 C101 1.371 . S
C103 C104 1.392 . S
C103 H119 0.931 . S
C104 C103 1.392 . S
C104 C105 1.331 . S
C104 H122 0.932 . S
C105 C104 1.331 . S
C105 C106 1.336 . S
C106 C102 1.394 . S
C106 C105 1.336 . S
C106 H121 0.929 . S
C107 C97 1.386 . S
C107 C100 1.357 . S
C107 H120 0.928 . S
H108 C84 0.931 . S
H109 C86 0.930 . S
H110 C88 0.929 . S
H111 C89 0.931 . S
H112 C91 0.930 . S
H113 C95 0.931 . S
H114 C93 0.931 . S
H115 C97 0.931 . S
H116 C98 0.929 . S
H117 C99 0.930 . S
H118 C102 0.930 . S
H119 C103 0.931 . S
H120 C107 0.928 . S
H121 C106 0.929 . S
H122 C104 0.932 . S
C123 C124 1.386 . S
C123 C125 1.397 . S
C123 H147 0.931 . S
C124 C123 1.386 . S
C124 C128 1.397 . S
C125 C123 1.397 . S
C125 C126 1.384 . S
C125 H148 0.930 . S
C126 C125 1.384 . S
C126 C127 1.377 . S
C126 C129 1.481 . S
C127 C126 1.377 . S
C127 C128 1.389 . S
C127 H149 0.929 . S
C128 C124 1.397 . S
C128 C127 1.389 . S
C128 H150 0.931 . S
C129 C126 1.481 . S
C129 C130 1.387 . S
C129 C134 1.390 . S
C130 C129 1.387 . S
C130 C131 1.401 . S
C130 H151 0.930 . S
C131 C130 1.401 . S
C131 C132 1.376 . S
C131 C140 1.511 . S
C132 C131 1.376 . S
C132 C133 1.392 . S
C132 H153 0.931 . S
C133 C132 1.392 . S
C133 C134 1.361 . S
C133 C135 1.500 . S
C134 C129 1.390 . S
C134 C133 1.361 . S
C134 H152 0.931 . S
C135 C133 1.500 . S
C135 C136 1.371 . S
C135 C137 1.365 . S
C136 C135 1.371 . S
C136 C146 1.386 . S
C136 H154 0.931 . S
C137 C135 1.365 . S
C137 C138 1.409 . S
C137 H155 0.929 . S
C138 C137 1.409 . S
C138 C139 1.380 . S
C138 H156 0.930 . S
C139 C138 1.380 . S
C139 C146 1.357 . S
C140 C131 1.511 . S
C140 C141 1.341 . S
C140 C142 1.371 . S
C141 C140 1.341 . S
C141 C145 1.394 . S
C141 H157 0.930 . S
C142 C140 1.371 . S
C142 C143 1.392 . S
C142 H158 0.931 . S
C143 C142 1.392 . S
C143 C144 1.331 . S
C143 H161 0.932 . S
C144 C143 1.331 . S
C144 C145 1.336 . S
C145 C141 1.394 . S
C145 C144 1.336 . S
C145 H160 0.929 . S
C146 C136 1.386 . S
C146 C139 1.357 . S
C146 H159 0.928 . S
H147 C123 0.931 . S
H148 C125 0.930 . S
H149 C127 0.929 . S
H150 C128 0.931 . S
H151 C130 0.930 . S
H152 C134 0.931 . S
H153 C132 0.931 . S
H154 C136 0.931 . S
H155 C137 0.929 . S
H156 C138 0.930 . S
H157 C141 0.930 . S
H158 C142 0.931 . S
H159 C146 0.928 . S
H160 C145 0.929 . S
H161 C143 0.932 . S
C162 C163 1.386 . S
C162 C164 1.397 . S
C162 H186 0.931 . S
C163 C162 1.386 . S
C163 C167 1.397 . S
C164 C162 1.397 . S
C164 C165 1.384 . S
C164 H187 0.930 . S
C165 C164 1.384 . S
C165 C166 1.377 . S
C165 C168 1.481 . S
C166 C165 1.377 . S
C166 C167 1.389 . S
C166 H188 0.929 . S
C167 C163 1.397 . S
C167 C166 1.389 . S
C167 H189 0.931 . S
C168 C165 1.481 . S
C168 C169 1.387 . S
C168 C173 1.390 . S
C169 C168 1.387 . S
C169 C170 1.401 . S
C169 H190 0.930 . S
C170 C169 1.401 . S
C170 C171 1.376 . S
C170 C179 1.511 . S
C171 C170 1.376 . S
C171 C172 1.392 . S
C171 H192 0.931 . S
C172 C171 1.392 . S
C172 C173 1.361 . S
C172 C174 1.500 . S
C173 C168 1.390 . S
C173 C172 1.361 . S
C173 H191 0.931 . S
C174 C172 1.500 . S
C174 C175 1.371 . S
C174 C176 1.365 . S
C175 C174 1.371 . S
C175 C185 1.386 . S
C175 H193 0.931 . S
C176 C174 1.365 . S
C176 C177 1.409 . S
C176 H194 0.929 . S
C177 C176 1.409 . S
C177 C178 1.380 . S
C177 H195 0.930 . S
C178 C177 1.380 . S
C178 C185 1.357 . S
C179 C170 1.511 . S
C179 C180 1.341 . S
C179 C181 1.371 . S
C180 C179 1.341 . S
C180 C184 1.394 . S
C180 H196 0.930 . S
C181 C179 1.371 . S
C181 C182 1.392 . S
C181 H197 0.931 . S
C182 C181 1.392 . S
C182 C183 1.331 . S
C182 H200 0.932 . S
C183 C182 1.331 . S
C183 C184 1.336 . S
C184 C180 1.394 . S
C184 C183 1.336 . S
C184 H199 0.929 . S
C185 C175 1.386 . S
C185 C178 1.357 . S
C185 H198 0.928 . S
H186 C162 0.931 . S
H187 C164 0.930 . S
H188 C166 0.929 . S
H189 C167 0.931 . S
H190 C169 0.930 . S
H191 C173 0.931 . S
H192 C171 0.931 . S
H193 C175 0.931 . S
H194 C176 0.929 . S
H195 C177 0.930 . S
H196 C180 0.930 . S
H197 C181 0.931 . S
H198 C185 0.928 . S
H199 C184 0.929 . S
H200 C182 0.932 . S
C201 C202 1.386 . S
C201 C203 1.397 . S
C201 H225 0.931 . S
C202 C201 1.386 . S
C202 C206 1.397 . S
C203 C201 1.397 . S
C203 C204 1.384 . S
C203 H226 0.930 . S
C204 C203 1.384 . S
C204 C205 1.377 . S
C204 C207 1.481 . S
C205 C204 1.377 . S
C205 C206 1.389 . S
C205 H227 0.929 . S
C206 C202 1.397 . S
C206 C205 1.389 . S
C206 H228 0.931 . S
C207 C204 1.481 . S
C207 C208 1.387 . S
C207 C212 1.390 . S
C208 C207 1.387 . S
C208 C209 1.401 . S
C208 H229 0.930 . S
C209 C208 1.401 . S
C209 C210 1.376 . S
C209 C218 1.511 . S
C210 C209 1.376 . S
C210 C211 1.392 . S
C210 H231 0.931 . S
C211 C210 1.392 . S
C211 C212 1.361 . S
C211 C213 1.500 . S
C212 C207 1.390 . S
C212 C211 1.361 . S
C212 H230 0.931 . S
C213 C211 1.500 . S
C213 C214 1.371 . S
C213 C215 1.365 . S
C214 C213 1.371 . S
C214 C224 1.386 . S
C214 H232 0.931 . S
C215 C213 1.365 . S
C215 C216 1.409 . S
C215 H233 0.929 . S
C216 C215 1.409 . S
C216 C217 1.380 . S
C216 H234 0.930 . S
C217 C216 1.380 . S
C217 C224 1.357 . S
C218 C209 1.511 . S
C218 C219 1.341 . S
C218 C220 1.371 . S
C219 C218 1.341 . S
C219 C223 1.394 . S
C219 H235 0.930 . S
C220 C218 1.371 . S
C220 C221 1.392 . S
C220 H236 0.931 . S
C221 C220 1.392 . S
C221 C222 1.331 . S
C221 H239 0.932 . S
C222 C221 1.331 . S
C222 C223 1.336 . S
C223 C219 1.394 . S
C223 C222 1.336 . S
C223 H238 0.929 . S
C224 C214 1.386 . S
C224 C217 1.357 . S
C224 H237 0.928 . S
H225 C201 0.931 . S
H226 C203 0.930 . S
H227 C205 0.929 . S
H228 C206 0.931 . S
H229 C208 0.930 . S
H230 C212 0.931 . S
H231 C210 0.931 . S
H232 C214 0.931 . S
H233 C215 0.929 . S
H234 C216 0.930 . S
H235 C219 0.930 . S
H236 C220 0.931 . S
H237 C224 0.928 . S
H238 C223 0.929 . S
H239 C221 0.932 . S
C240 C241 1.386 . S
C240 C242 1.397 . S
C240 H264 0.931 . S
C241 C240 1.386 . S
C241 C245 1.397 . S
C242 C240 1.397 . S
C242 C243 1.384 . S
C242 H265 0.930 . S
C243 C242 1.384 . S
C243 C244 1.377 . S
C243 C246 1.481 . S
C244 C243 1.377 . S
C244 C245 1.389 . S
C244 H266 0.929 . S
C245 C241 1.397 . S
C245 C244 1.389 . S
C245 H267 0.931 . S
C246 C243 1.481 . S
C246 C247 1.387 . S
C246 C251 1.390 . S
C247 C246 1.387 . S
C247 C248 1.401 . S
C247 H268 0.930 . S
C248 C247 1.401 . S
C248 C249 1.376 . S
C248 C257 1.511 . S
C249 C248 1.376 . S
C249 C250 1.392 . S
C249 H270 0.931 . S
C250 C249 1.392 . S
C250 C251 1.361 . S
C250 C252 1.500 . S
C251 C246 1.390 . S
C251 C250 1.361 . S
C251 H269 0.931 . S
C252 C250 1.500 . S
C252 C253 1.371 . S
C252 C254 1.365 . S
C253 C252 1.371 . S
C253 C263 1.386 . S
C253 H271 0.931 . S
C254 C252 1.365 . S
C254 C255 1.409 . S
C254 H272 0.929 . S
C255 C254 1.409 . S
C255 C256 1.380 . S
C255 H273 0.930 . S
C256 C255 1.380 . S
C256 C263 1.357 . S
C257 C248 1.511 . S
C257 C258 1.341 . S
C257 C259 1.371 . S
C258 C257 1.341 . S
C258 C262 1.394 . S
C258 H274 0.930 . S
C259 C257 1.371 . S
C259 C260 1.392 . S
C259 H275 0.931 . S
C260 C259 1.392 . S
C260 C261 1.331 . S
C260 H278 0.932 . S
C261 C260 1.331 . S
C261 C262 1.336 . S
C262 C258 1.394 . S
C262 C261 1.336 . S
C262 H277 0.929 . S
C263 C253 1.386 . S
C263 C256 1.357 . S
C263 H276 0.928 . S
H264 C240 0.931 . S
H265 C242 0.930 . S
H266 C244 0.929 . S
H267 C245 0.931 . S
H268 C247 0.930 . S
H269 C251 0.931 . S
H270 C249 0.931 . S
H271 C253 0.931 . S
H272 C254 0.929 . S
H273 C255 0.930 . S
H274 C258 0.930 . S
H275 C259 0.931 . S
H276 C263 0.928 . S
H277 C262 0.929 . S
H278 C260 0.932 . S
C279 C280 1.386 . S
C279 C281 1.397 . S
C279 H303 0.931 . S
C280 C279 1.386 . S
C280 C284 1.397 . S
C281 C279 1.397 . S
C281 C282 1.384 . S
C281 H304 0.930 . S
C282 C281 1.384 . S
C282 C283 1.377 . S
C282 C285 1.481 . S
C283 C282 1.377 . S
C283 C284 1.389 . S
C283 H305 0.929 . S
C284 C280 1.397 . S
C284 C283 1.389 . S
C284 H306 0.931 . S
C285 C282 1.481 . S
C285 C286 1.387 . S
C285 C290 1.390 . S
C286 C285 1.387 . S
C286 C287 1.401 . S
C286 H307 0.930 . S
C287 C286 1.401 . S
C287 C288 1.376 . S
C287 C296 1.511 . S
C288 C287 1.376 . S
C288 C289 1.392 . S
C288 H309 0.931 . S
C289 C288 1.392 . S
C289 C290 1.361 . S
C289 C291 1.500 . S
C290 C285 1.390 . S
C290 C289 1.361 . S
C290 H308 0.931 . S
C291 C289 1.500 . S
C291 C292 1.371 . S
C291 C293 1.365 . S
C292 C291 1.371 . S
C292 C302 1.386 . S
C292 H310 0.931 . S
C293 C291 1.365 . S
C293 C294 1.409 . S
C293 H311 0.929 . S
C294 C293 1.409 . S
C294 C295 1.380 . S
C294 H312 0.930 . S
C295 C294 1.380 . S
C295 C302 1.357 . S
C296 C287 1.511 . S
C296 C297 1.341 . S
C296 C298 1.371 . S
C297 C296 1.341 . S
C297 C301 1.394 . S
C297 H313 0.930 . S
C298 C296 1.371 . S
C298 C299 1.392 . S
C298 H314 0.931 . S
C299 C298 1.392 . S
C299 C300 1.331 . S
C299 H317 0.932 . S
C300 C299 1.331 . S
C300 C301 1.336 . S
C301 C297 1.394 . S
C301 C300 1.336 . S
C301 H316 0.929 . S
C302 C292 1.386 . S
C302 C295 1.357 . S
C302 H315 0.928 . S
H303 C279 0.931 . S
H304 C281 0.930 . S
H305 C283 0.929 . S
H306 C284 0.931 . S
H307 C286 0.930 . S
H308 C290 0.931 . S
H309 C288 0.931 . S
H310 C292 0.931 . S
H311 C293 0.929 . S
H312 C294 0.930 . S
H313 C297 0.930 . S
H314 C298 0.931 . S
H315 C302 0.928 . S
H316 C301 0.929 . S
H317 C299 0.932 . S
C318 C319 1.386 . S
C318 C320 1.397 . S
C318 H342 0.931 . S
C319 C318 1.386 . S
C319 C323 1.397 . S
C320 C318 1.397 . S
C320 C321 1.384 . S
C320 H343 0.930 . S
C321 C320 1.384 . S
C321 C322 1.377 . S
C321 C324 1.481 . S
C322 C321 1.377 . S
C322 C323 1.389 . S
C322 H344 0.929 . S
C323 C319 1.397 . S
C323 C322 1.389 . S
C323 H345 0.931 . S
C324 C321 1.481 . S
C324 C325 1.387 . S
C324 C329 1.390 . S
C325 C324 1.387 . S
C325 C326 1.401 . S
C325 H346 0.930 . S
C326 C325 1.401 . S
C326 C327 1.376 . S
C326 C335 1.511 . S
C327 C326 1.376 . S
C327 C328 1.392 . S
C327 H348 0.931 . S
C328 C327 1.392 . S
C328 C329 1.361 . S
C328 C330 1.500 . S
C329 C324 1.390 . S
C329 C328 1.361 . S
C329 H347 0.931 . S
C330 C328 1.500 . S
C330 C331 1.371 . S
C330 C332 1.365 . S
C331 C330 1.371 . S
C331 C341 1.386 . S
C331 H349 0.931 . S
C332 C330 1.365 . S
C332 C333 1.409 . S
C332 H350 0.929 . S
C333 C332 1.409 . S
C333 C334 1.380 . S
C333 H351 0.930 . S
C334 C333 1.380 . S
C334 C341 1.357 . S
C335 C326 1.511 . S
C335 C336 1.341 . S
C335 C337 1.371 . S
C336 C335 1.341 . S
C336 C340 1.394 . S
C336 H352 0.930 . S
C337 C335 1.371 . S
C337 C338 1.392 . S
C337 H353 0.931 . S
C338 C337 1.392 . S
C338 C339 1.331 . S
C338 H356 0.932 . S
C339 C338 1.331 . S
C339 C340 1.336 . S
C340 C336 1.394 . S
C340 C339 1.336 . S
C340 H355 0.929 . S
C341 C331 1.386 . S
C341 C334 1.357 . S
C341 H354 0.928 . S
H342 C318 0.931 . S
H343 C320 0.930 . S
H344 C322 0.929 . S
H345 C323 0.931 . S
H346 C325 0.930 . S
H347 C329 0.931 . S
H348 C327 0.931 . S
H349 C331 0.931 . S
H350 C332 0.929 . S
H351 C333 0.930 . S
H352 C336 0.930 . S
H353 C337 0.931 . S
H354 C341 0.928 . S
H355 C340 0.929 . S
H356 C338 0.932 . S
C357 C358 1.386 . S
C357 C359 1.397 1_455 S
C357 H381 0.931 . S
C358 C357 1.386 . S
C358 C362 1.397 1_455 S
C359 C357 1.397 1_655 S
C359 C360 1.384 . S
C359 H382 0.930 . S
C360 C359 1.384 . S
C360 C361 1.377 . S
C360 C363 1.481 . S
C361 C360 1.377 . S
C361 C362 1.389 . S
C361 H383 0.929 . S
C362 C358 1.397 1_655 S
C362 C361 1.389 . S
C362 H384 0.940 . S
C363 C360 1.481 . S
C363 C364 1.387 . S
C363 C368 1.390 . S
C364 C363 1.387 . S
C364 C365 1.401 . S
C364 H385 0.930 . S
C365 C364 1.401 . S
C365 C366 1.376 . S
C365 C374 1.511 . S
C366 C365 1.376 . S
C366 C367 1.392 . S
C366 H387 0.931 . S
C367 C366 1.392 . S
C367 C368 1.361 . S
C367 C369 1.500 . S
C368 C363 1.390 . S
C368 C367 1.361 . S
C368 H386 0.931 . S
C369 C367 1.500 . S
C369 C370 1.371 . S
C369 C371 1.365 . S
C370 C369 1.371 . S
C370 C380 1.386 . S
C370 H388 0.931 . S
C371 C369 1.365 . S
C371 C372 1.409 . S
C371 H389 0.929 . S
C372 C371 1.409 . S
C372 C373 1.380 . S
C372 H390 0.930 . S
C373 C372 1.380 . S
C373 C380 1.357 . S
C374 C365 1.511 . S
C374 C375 1.341 . S
C374 C376 1.371 . S
C375 C374 1.341 . S
C375 C379 1.394 . S
C375 H391 0.930 . S
C376 C374 1.371 . S
C376 C377 1.392 . S
C376 H392 0.931 . S
C377 C376 1.392 . S
C377 C378 1.331 . S
C377 H395 0.932 . S
C378 C377 1.331 . S
C378 C379 1.336 . S
C379 C375 1.394 . S
C379 C378 1.336 . S
C379 H394 0.929 . S
C380 C370 1.386 . S
C380 C373 1.357 . S
C380 H393 0.928 . S
H381 C357 0.931 . S
H382 C359 0.930 . S
H383 C361 0.929 . S
H384 C362 0.940 . S
H385 C364 0.930 . S
H386 C368 0.931 . S
H387 C366 0.931 . S
H388 C370 0.931 . S
H389 C371 0.929 . S
H390 C372 0.930 . S
H391 C375 0.930 . S
H392 C376 0.931 . S
H393 C380 0.928 . S
H394 C379 0.929 . S
H395 C377 0.932 . S
C396 C397 1.349 . S
C396 C398 1.327 . S
C396 H421 0.950 . S
C397 C396 1.349 . S
C397 C413 1.349 . S
C398 C396 1.327 . S
C398 C417 1.429 . S
C398 H422 0.950 . S
C399 C416 1.574 . S
C399 C418 1.368 . S
C399 H423 0.949 . S
H400 C404 0.949 . S
C401 C402 1.349 . S
C401 C403 1.327 1_545 S
C401 H424 0.950 . S
C402 C401 1.349 . S
C402 C414 1.349 . S
C403 C401 1.327 1_565 S
C403 C419 1.429 . S
C403 H425 0.950 . S
C404 H400 0.949 . S
C404 C412 1.574 . S
C404 C420 1.368 . S
H405 C413 0.950 . S
H406 C411 0.950 . S
H407 C412 0.949 . S
H408 C414 0.950 . S
H409 C415 0.950 . S
H410 C416 0.949 . S
C411 H406 0.950 . S
C411 C413 1.327 . S
C411 C417 1.429 . S
C412 C404 1.574 . S
C412 H407 0.949 . S
C412 C418 1.368 . S
C413 C397 1.349 . S
C413 H405 0.950 . S
C413 C411 1.327 . S
C414 C402 1.349 . S
C414 H408 0.950 . S
C414 C415 1.327 1_545 S
C415 H409 0.950 . S
C415 C414 1.327 1_565 S
C415 C419 1.429 . S
C416 C399 1.574 . S
C416 H410 0.949 . S
C416 C420 1.368 . S
C417 C398 1.429 . S
C417 C411 1.429 . S
C417 C418 1.523 . S
C418 C399 1.368 . S
C418 C412 1.368 . S
C418 C417 1.523 . S
C419 C403 1.429 . S
C419 C415 1.429 . S
C419 C420 1.523 . S
C420 C404 1.368 . S
C420 C416 1.368 . S
C420 C419 1.523 . S
H421 C396 0.950 . S
H422 C398 0.950 . S
H423 C399 0.949 . S
H424 C401 0.950 . S
H425 C403 0.950 . S
C426 C427 1.349 . S
C426 C428 1.327 . S
C426 H451 0.950 . S
C427 C426 1.349 . S
C427 C443 1.349 . S
C428 C426 1.327 . S
C428 C447 1.429 . S
C428 H452 0.950 . S
C429 C446 1.574 . S
C429 C448 1.368 . S
C429 H453 0.949 . S
H430 C434 0.949 . S
C431 C432 1.349 . S
C431 C433 1.327 . S
C431 H454 0.950 . S
C432 C431 1.349 . S
C432 C444 1.349 . S
C433 C431 1.327 . S
C433 C449 1.429 . S
C433 H455 0.950 . S
C434 H430 0.949 . S
C434 C442 1.574 . S
C434 C450 1.368 . S
H435 C443 0.950 . S
H436 C441 0.950 . S
H437 C442 0.949 . S
H438 C444 0.950 . S
H439 C445 0.950 . S
H440 C446 0.949 . S
C441 H436 0.950 . S
C441 C443 1.327 . S
C441 C447 1.429 . S
C442 C434 1.574 . S
C442 H437 0.949 . S
C442 C448 1.368 . S
C443 C427 1.349 . S
C443 H435 0.950 . S
C443 C441 1.327 . S
C444 C432 1.349 . S
C444 H438 0.950 . S
C444 C445 1.327 . S
C445 H439 0.950 . S
C445 C444 1.327 . S
C445 C449 1.429 . S
C446 C429 1.574 . S
C446 H440 0.949 . S
C446 C450 1.368 . S
C447 C428 1.429 . S
C447 C441 1.429 . S
C447 C448 1.523 . S
C448 C429 1.368 . S
C448 C442 1.368 . S
C448 C447 1.523 . S
C449 C433 1.429 . S
C449 C445 1.429 . S
C449 C450 1.523 . S
C450 C434 1.368 . S
C450 C446 1.368 . S
C450 C449 1.523 . S
H451 C426 0.950 . S
H452 C428 0.950 . S
H453 C429 0.949 . S
H454 C431 0.950 . S
H455 C433 0.950 . S
C456 C457 1.349 . S
C456 C458 1.327 . S
C456 H481 0.950 . S
C457 C456 1.349 . S
C457 C473 1.349 . S
C458 C456 1.327 . S
C458 C477 1.429 . S
C458 H482 0.950 . S
C459 C476 1.574 . S
C459 C478 1.368 . S
C459 H483 0.949 . S
H460 C464 0.949 1_565 S
C461 C462 1.349 . S
C461 C463 1.327 . S
C461 H484 0.950 . S
C462 C461 1.349 . S
C462 C474 1.349 . S
C463 C461 1.327 . S
C463 C479 1.429 . S
C463 H485 0.950 1_565 S
C464 H460 0.949 1_545 S
C464 C472 1.574 . S
C464 C480 1.368 . S
H465 C473 0.950 . S
H466 C471 0.950 . S
H467 C472 0.949 . S
H468 C474 0.950 . S
H469 C475 0.950 . S
H470 C476 0.949 . S
C471 H466 0.950 . S
C471 C473 1.327 . S
C471 C477 1.429 . S
C472 C464 1.574 . S
C472 H467 0.949 . S
C472 C478 1.368 . S
C473 C457 1.349 . S
C473 H465 0.950 . S
C473 C471 1.327 . S
C474 C462 1.349 . S
C474 H468 0.950 . S
C474 C475 1.327 . S
C475 H469 0.950 . S
C475 C474 1.327 . S
C475 C479 1.429 . S
C476 C459 1.574 . S
C476 H470 0.949 . S
C476 C480 1.368 . S
C477 C458 1.429 . S
C477 C471 1.429 . S
C477 C478 1.523 . S
C478 C459 1.368 . S
C478 C472 1.368 . S
C478 C477 1.523 . S
C479 C463 1.429 . S
C479 C475 1.429 . S
C479 C480 1.523 1_565 S
C480 C464 1.368 . S
C480 C476 1.368 . S
C480 C479 1.523 1_545 S
H481 C456 0.950 . S
H482 C458 0.950 . S
H483 C459 0.949 . S
H484 C461 0.950 . S
H485 C463 0.950 1_545 S
C486 C487 1.349 . S
C486 C488 1.327 . S
C486 H511 0.950 . S
C487 C486 1.349 . S
C487 C503 1.349 . S
C488 C486 1.327 . S
C488 C507 1.429 . S
C488 H512 0.950 . S
C489 C506 1.574 . S
C489 C508 1.368 . S
C489 H513 0.949 . S
H490 C494 0.949 . S
C491 C492 1.349 . S
C491 C493 1.327 . S
C491 H514 0.950 . S
C492 C491 1.349 . S
C492 C504 1.349 . S
C493 C491 1.327 . S
C493 C509 1.429 . S
C493 H515 0.950 . S
C494 H490 0.949 . S
C494 C502 1.574 . S
C494 C510 1.368 . S
H495 C503 0.950 . S
H496 C501 0.950 . S
H497 C502 0.949 . S
H498 C504 0.950 . S
H499 C505 0.950 . S
H500 C506 0.949 . S
C501 H496 0.950 . S
C501 C503 1.327 . S
C501 C507 1.429 . S
C502 C494 1.574 . S
C502 H497 0.949 . S
C502 C508 1.368 . S
C503 C487 1.349 . S
C503 H495 0.950 . S
C503 C501 1.327 . S
C504 C492 1.349 . S
C504 H498 0.950 . S
C504 C505 1.327 . S
C505 H499 0.950 . S
C505 C504 1.327 . S
C505 C509 1.429 . S
C506 C489 1.574 . S
C506 H500 0.949 . S
C506 C510 1.368 . S
C507 C488 1.429 . S
C507 C501 1.429 . S
C507 C508 1.523 . S
C508 C489 1.368 . S
C508 C502 1.368 . S
C508 C507 1.523 . S
C509 C493 1.429 . S
C509 C505 1.429 . S
C509 C510 1.523 . S
C510 C494 1.368 . S
C510 C506 1.368 . S
C510 C509 1.523 . S
H511 C486 0.950 . S
H512 C488 0.950 . S
H513 C489 0.949 . S
H514 C491 0.950 . S
H515 C493 0.950 . S
C516 C517 1.349 . S
C516 C518 1.327 . S
C516 H541 0.950 . S
C517 C516 1.349 . S
C517 C533 1.349 . S
C518 C516 1.327 . S
C518 C537 1.429 . S
C518 H542 0.950 . S
C519 C536 1.574 . S
C519 C538 1.368 . S
C519 H543 0.949 . S
H520 C524 0.949 . S
C521 C522 1.349 . S
C521 C523 1.327 . S
C521 H544 0.950 . S
C522 C521 1.349 . S
C522 C534 1.349 . S
C523 C521 1.327 . S
C523 C539 1.429 . S
C523 H545 0.950 . S
C524 H520 0.949 . S
C524 C532 1.574 . S
C524 C540 1.368 . S
H525 C533 0.950 . S
H526 C531 0.950 . S
H527 C532 0.949 . S
H528 C534 0.950 . S
H529 C535 0.950 . S
H530 C536 0.949 . S
C531 H526 0.950 . S
C531 C533 1.327 . S
C531 C537 1.429 . S
C532 C524 1.574 . S
C532 H527 0.949 . S
C532 C538 1.368 . S
C533 C517 1.349 . S
C533 H525 0.950 . S
C533 C531 1.327 . S
C534 C522 1.349 . S
C534 H528 0.950 . S
C534 C535 1.327 . S
C535 H529 0.950 . S
C535 C534 1.327 . S
C535 C539 1.429 . S
C536 C519 1.574 . S
C536 H530 0.949 . S
C536 C540 1.368 . S
C537 C518 1.429 . S
C537 C531 1.429 . S
C537 C538 1.523 . S
C538 C519 1.368 . S
C538 C532 1.368 . S
C538 C537 1.523 . S
C539 C523 1.429 . S
C539 C535 1.429 . S
C539 C540 1.523 . S
C540 C524 1.368 . S
C540 C536 1.368 . S
C540 C539 1.523 . S
H541 C516 0.950 . S
H542 C518 0.950 . S
H543 C519 0.949 . S
H544 C521 0.950 . S
H545 C523 0.950 . S
C546 C547 1.349 . S
C546 C548 1.327 . S
C546 H571 0.950 . S
C547 C546 1.349 . S
C547 C563 1.349 1_556 S
C548 C546 1.327 . S
C548 C567 1.429 . S
C548 H572 0.950 . S
C549 C566 1.574 1_655 S
C549 C568 1.368 . S
C549 H573 0.949 1_556 S
H550 C554 0.949 1_455 S
C551 C552 1.349 . S
C551 C553 1.327 . S
C551 H574 0.982 . S
C552 C551 1.349 . S
C552 C564 1.349 . S
C553 C551 1.327 . S
C553 C569 1.429 . S
C553 H575 0.950 1_556 S
C554 H550 0.949 1_655 S
C554 C562 1.574 . S
C554 C570 1.368 1_655 S
H555 C563 0.950 . S
H556 C561 0.950 . S
H557 C562 0.949 . S
H558 C564 0.950 . S
H559 C565 0.950 . S
H560 C566 0.949 1_554 S
C561 H556 0.950 . S
C561 C563 1.327 . S
C561 C567 1.429 1_554 S
C562 C554 1.574 . S
C562 H557 0.949 . S
C562 C568 1.368 . S
C563 C547 1.349 1_554 S
C563 H555 0.950 . S
C563 C561 1.327 . S
C564 C552 1.349 . S
C564 H558 0.950 . S
C564 C565 1.327 . S
C565 H559 0.950 . S
C565 C564 1.327 . S
C565 C569 1.429 . S
C566 C549 1.574 1_455 S
C566 H560 0.949 1_556 S
C566 C570 1.368 . S
C567 C548 1.429 . S
C567 C561 1.429 1_556 S
C567 C568 1.523 . S
C568 C549 1.368 . S
C568 C562 1.368 . S
C568 C567 1.523 . S
C569 C553 1.429 . S
C569 C565 1.429 . S
C569 C570 1.523 . S
C570 C554 1.368 1_455 S
C570 C566 1.368 . S
C570 C569 1.523 . S
H571 C546 0.950 . S
H572 C548 0.950 . S
H573 C549 0.949 1_554 S
H574 C551 0.982 . S
H575 C553 0.950 1_554 S
C576 C577 1.349 . S
C576 C578 1.327 . S
C576 H601 0.950 . S
C577 C576 1.349 . S
C577 C593 1.349 . S
C578 C576 1.327 . S
C578 C597 1.429 . S
C578 H602 0.950 . S
C579 C596 1.574 . S
C579 C598 1.368 . S
C579 H603 0.949 . S
H580 C584 0.949 . S
C581 C582 1.349 . S
C581 C583 1.327 . S
C581 H604 0.950 . S
C582 C581 1.349 . S
C582 C594 1.349 . S
C583 C581 1.327 . S
C583 C599 1.429 . S
C583 H605 0.950 . S
C584 H580 0.949 . S
C584 C592 1.574 . S
C584 C600 1.368 . S
H585 C593 0.950 . S
H586 C591 0.950 . S
H587 C592 0.949 . S
H588 C594 0.950 . S
H589 C595 0.950 . S
H590 C596 0.949 . S
C591 H586 0.950 . S
C591 C593 1.327 . S
C591 C597 1.429 . S
C592 C584 1.574 . S
C592 H587 0.949 . S
C592 C598 1.368 . S
C593 C577 1.349 . S
C593 H585 0.950 . S
C593 C591 1.327 . S
C594 C582 1.349 . S
C594 H588 0.950 . S
C594 C595 1.327 . S
C595 H589 0.950 . S
C595 C594 1.327 . S
C595 C599 1.429 . S
C596 C579 1.574 . S
C596 H590 0.949 . S
C596 C600 1.368 . S
C597 C578 1.429 . S
C597 C591 1.429 . S
C597 C598 1.523 . S
C598 C579 1.368 . S
C598 C592 1.368 . S
C598 C597 1.523 . S
C599 C583 1.429 . S
C599 C595 1.429 . S
C599 C600 1.523 . S
C600 C584 1.368 . S
C600 C596 1.368 . S
C600 C599 1.523 . S
H601 C576 0.950 . S
H602 C578 0.950 . S
H603 C579 0.949 . S
H604 C581 0.950 . S
H605 C583 0.950 . S
C606 C607 1.349 . S
C606 C608 1.327 . S
C606 H631 0.950 . S
C607 C606 1.349 . S
C607 C623 1.349 . S
C608 C606 1.327 . S
C608 C627 1.429 . S
C608 H632 0.950 . S
C609 C626 1.574 . S
C609 C628 1.368 . S
C609 H633 0.949 . S
H610 C614 0.949 . S
C611 C612 1.349 . S
C611 C613 1.327 . S
C611 H634 0.950 . S
C612 C611 1.349 . S
C612 C624 1.349 . S
C613 C611 1.327 . S
C613 C629 1.429 . S
C613 H635 0.950 . S
C614 H610 0.949 . S
C614 C622 1.574 . S
C614 C630 1.368 . S
H615 C623 0.950 1_554 S
H616 C621 0.950 . S
H617 C622 0.949 . S
H618 C624 0.950 . S
H619 C625 0.950 . S
H620 C626 0.949 . S
C621 H616 0.950 . S
C621 C623 1.327 . S
C621 C627 1.429 . S
C622 C614 1.574 . S
C622 H617 0.949 . S
C622 C628 1.368 . S
C623 C607 1.349 . S
C623 H615 0.950 1_556 S
C623 C621 1.327 . S
C624 C612 1.349 . S
C624 H618 0.950 . S
C624 C625 1.327 . S
C625 H619 0.950 . S
C625 C624 1.327 . S
C625 C629 1.429 . S
C626 C609 1.574 . S
C626 H620 0.949 . S
C626 C630 1.368 . S
C627 C608 1.429 . S
C627 C621 1.429 . S
C627 C628 1.523 . S
C628 C609 1.368 . S
C628 C622 1.368 . S
C628 C627 1.523 . S
C629 C613 1.429 . S
C629 C625 1.429 . S
C629 C630 1.523 . S
C630 C614 1.368 . S
C630 C626 1.368 . S
C630 C629 1.523 . S
H631 C606 0.950 . S
H632 C608 0.950 . S
H633 C609 0.949 . S
H634 C611 0.950 . S
H635 C613 0.950 . S
C636 C637 1.349 . S
C636 C638 1.327 . S
C636 H661 0.950 . S
C637 C636 1.349 . S
C637 C653 1.349 . S
C638 C636 1.327 . S
C638 C657 1.429 . S
C638 H662 0.950 . S
C639 C656 1.574 . S
C639 C658 1.368 . S
C639 H663 0.949 . S
H640 C644 0.949 . S
C641 C642 1.349 . S
C641 C643 1.327 . S
C641 H664 0.950 . S
C642 C641 1.349 . S
C642 C654 1.349 . S
C643 C641 1.327 . S
C643 C659 1.429 . S
C643 H665 0.950 . S
C644 H640 0.949 . S
C644 C652 1.574 1_565 S
C644 C660 1.368 . S
H645 C653 0.950 . S
H646 C651 0.950 . S
H647 C652 0.949 . S
H648 C654 0.950 . S
H649 C655 0.950 . S
H650 C656 0.949 . S
C651 H646 0.950 . S
C651 C653 1.327 . S
C651 C657 1.429 . S
C652 C644 1.574 1_545 S
C652 H647 0.949 . S
C652 C658 1.368 . S
C653 C637 1.349 . S
C653 H645 0.950 . S
C653 C651 1.327 . S
C654 C642 1.349 . S
C654 H648 0.950 . S
C654 C655 1.327 . S
C655 H649 0.950 . S
C655 C654 1.327 . S
C655 C659 1.429 . S
C656 C639 1.574 . S
C656 H650 0.949 . S
C656 C660 1.368 1_545 S
C657 C638 1.429 . S
C657 C651 1.429 . S
C657 C658 1.523 . S
C658 C639 1.368 . S
C658 C652 1.368 . S
C658 C657 1.523 . S
C659 C643 1.429 . S
C659 C655 1.429 . S
C659 C660 1.523 . S
C660 C644 1.368 . S
C660 C656 1.368 1_565 S
C660 C659 1.523 . S
H661 C636 0.950 . S
H662 C638 0.950 . S
H663 C639 0.949 . S
H664 C641 0.950 . S
H665 C643 0.950 . S
C666 C667 1.349 . S
C666 C668 1.327 . S
C666 H691 0.950 . S
C667 C666 1.349 . S
C667 C683 1.349 . S
C668 C666 1.327 . S
C668 C687 1.429 . S
C668 H692 0.950 . S
C669 C686 1.574 . S
C669 C688 1.368 . S
C669 H693 0.949 . S
H670 C674 0.949 . S
C671 C672 1.349 . S
C671 C673 1.327 . S
C671 H694 0.950 . S
C672 C671 1.349 . S
C672 C684 1.349 . S
C673 C671 1.327 . S
C673 C689 1.429 . S
C673 H695 0.950 . S
C674 H670 0.949 . S
C674 C682 1.574 . S
C674 C690 1.368 . S
H675 C683 0.950 . S
H676 C681 0.950 . S
H677 C682 0.949 . S
H678 C684 0.950 . S
H679 C685 0.950 . S
H680 C686 0.949 . S
C681 H676 0.950 . S
C681 C683 1.327 . S
C681 C687 1.429 . S
C682 C674 1.574 . S
C682 H677 0.949 . S
C682 C688 1.368 . S
C683 C667 1.349 . S
C683 H675 0.950 . S
C683 C681 1.327 . S
C684 C672 1.349 . S
C684 H678 0.950 . S
C684 C685 1.327 . S
C685 H679 0.950 . S
C685 C684 1.327 . S
C685 C689 1.429 . S
C686 C669 1.574 . S
C686 H680 0.949 . S
C686 C690 1.368 . S
C687 C668 1.429 . S
C687 C681 1.429 . S
C687 C688 1.523 . S
C688 C669 1.368 . S
C688 C682 1.368 . S
C688 C687 1.523 . S
C689 C673 1.429 . S
C689 C685 1.429 . S
C689 C690 1.523 . S
C690 C674 1.368 . S
C690 C686 1.368 . S
C690 C689 1.523 . S
H691 C666 0.950 . S
H692 C668 0.950 . S
H693 C669 0.949 . S
H694 C671 0.950 . S
H695 C673 0.950 . S
C696 C697 1.349 1_556 S
C696 C698 1.327 . S
C696 H721 0.950 . S
C697 C696 1.349 1_554 S
C697 C713 1.349 . S
C698 C696 1.327 . S
C698 C717 1.429 1_556 S
C698 H722 0.950 . S
C699 C716 1.574 1_565 S
C699 C718 1.393 . S
C699 H723 0.949 . S
H700 C704 0.949 . S
C701 C702 1.349 . S
C701 C703 1.327 1_556 S
C701 H724 0.950 1_556 S
C702 C701 1.349 . S
C702 C714 1.349 . S
C703 C701 1.327 1_554 S
C703 C719 1.429 1_554 S
C703 H725 0.950 . S
C704 H700 0.949 . S
C704 C712 1.574 1_545 S
C704 C720 1.368 . S
H705 C713 0.950 . S
H706 C711 0.950 . S
H707 C712 0.949 . S
H708 C714 0.950 . S
H709 C715 0.950 . S
H710 C716 0.949 . S
C711 H706 0.950 . S
C711 C713 1.327 . S
C711 C717 1.429 . S
C712 C704 1.574 1_565 S
C712 H707 0.949 . S
C712 C718 1.336 1_556 S
C713 C697 1.349 . S
C713 H705 0.950 . S
C713 C711 1.327 . S
C714 C702 1.349 . S
C714 H708 0.950 . S
C714 C715 1.327 . S
C715 H709 0.950 . S
C715 C714 1.327 . S
C715 C719 1.429 . S
C716 C699 1.574 1_545 S
C716 H710 0.949 . S
C716 C720 1.368 1_554 S
C717 C698 1.429 1_554 S
C717 C711 1.429 . S
C717 C718 1.534 . S
C718 C699 1.393 . S
C718 C712 1.336 1_554 S
C718 C717 1.534 . S
C719 C703 1.429 1_556 S
C719 C715 1.429 . S
C719 C720 1.523 . S
C720 C704 1.368 . S
C720 C716 1.368 1_556 S
C720 C719 1.523 . S
H721 C696 0.950 . S
H722 C698 0.950 . S
H723 C699 0.949 . S
H724 C701 0.950 1_554 S
H725 C703 0.950 . S
C726 C727 1.349 . S
C726 C728 1.327 . S
C726 H751 0.950 . S
C727 C726 1.349 . S
C727 C743 1.349 . S
C728 C726 1.327 . S
C728 C747 1.429 . S
C728 H752 0.950 . S
C729 C746 1.574 . S
C729 C748 1.368 . S
C729 H753 0.949 . S
H730 C734 0.949 . S
C731 C732 1.349 . S
C731 C733 1.327 . S
C731 H754 0.950 . S
C732 C731 1.349 . S
C732 C744 1.349 . S
C733 C731 1.327 . S
C733 C749 1.429 . S
C733 H755 0.950 . S
C734 H730 0.949 . S
C734 C742 1.574 . S
C734 C750 1.368 . S
H735 C743 0.950 . S
H736 C741 0.950 . S
H737 C742 0.949 . S
H738 C744 0.950 . S
H739 C745 0.950 . S
H740 C746 0.949 . S
C741 H736 0.950 . S
C741 C743 1.327 . S
C741 C747 1.429 . S
C742 C734 1.574 . S
C742 H737 0.949 . S
C742 C748 1.368 . S
C743 C727 1.349 . S
C743 H735 0.950 . S
C743 C741 1.327 . S
C744 C732 1.349 . S
C744 H738 0.950 . S
C744 C745 1.327 . S
C745 H739 0.950 . S
C745 C744 1.327 . S
C745 C749 1.429 . S
C746 C729 1.574 . S
C746 H740 0.949 . S
C746 C750 1.368 . S
C747 C728 1.429 . S
C747 C741 1.429 . S
C747 C748 1.523 . S
C748 C729 1.368 . S
C748 C742 1.368 . S
C748 C747 1.523 . S
C749 C733 1.429 . S
C749 C745 1.429 . S
C749 C750 1.523 . S
C750 C734 1.368 . S
C750 C746 1.368 . S
C750 C749 1.523 . S
H751 C726 0.950 . S
H752 C728 0.950 . S
H753 C729 0.949 . S
H754 C731 0.950 . S
H755 C733 0.950 . S
C756 C757 1.349 . S
C756 C758 1.327 . S
C756 H781 0.950 . S
C757 C756 1.349 . S
C757 C773 1.349 . S
C758 C756 1.327 . S
C758 C777 1.429 . S
C758 H782 0.950 . S
C759 C776 1.574 . S
C759 C778 1.368 . S
C759 H783 0.949 . S
H760 C764 0.949 . S
C761 C762 1.349 . S
C761 C763 1.327 . S
C761 H784 0.950 . S
C762 C761 1.349 . S
C762 C774 1.349 . S
C763 C761 1.327 . S
C763 C779 1.429 . S
C763 H785 0.950 . S
C764 H760 0.949 . S
C764 C772 1.574 . S
C764 C780 1.368 . S
H765 C773 0.950 . S
H766 C771 0.950 . S
H767 C772 0.949 . S
H768 C774 0.950 . S
H769 C775 0.950 . S
H770 C776 0.949 . S
C771 H766 0.950 . S
C771 C773 1.327 . S
C771 C777 1.429 . S
C772 C764 1.574 . S
C772 H767 0.949 . S
C772 C778 1.368 . S
C773 C757 1.349 . S
C773 H765 0.950 . S
C773 C771 1.327 . S
C774 C762 1.349 . S
C774 H768 0.950 . S
C774 C775 1.327 . S
C775 H769 0.950 . S
C775 C774 1.327 . S
C775 C779 1.429 . S
C776 C759 1.574 . S
C776 H770 0.949 . S
C776 C780 1.368 . S
C777 C758 1.429 . S
C777 C771 1.429 . S
C777 C778 1.523 . S
C778 C759 1.368 . S
C778 C772 1.368 . S
C778 C777 1.523 . S
C779 C763 1.429 . S
C779 C775 1.429 . S
C779 C780 1.523 . S
C780 C764 1.368 . S
C780 C776 1.368 . S
C780 C779 1.523 . S
H781 C756 0.950 . S
H782 C758 0.950 . S
H783 C759 0.949 . S
H784 C761 0.950 . S
H785 C763 0.950 . S
C786 C787 1.349 . S
C786 C788 1.327 . S
C786 H811 0.950 . S
C787 C786 1.349 . S
C787 C803 1.349 . S
C788 C786 1.327 . S
C788 C807 1.429 . S
C788 H812 0.950 . S
C789 C806 1.574 . S
C789 C808 1.368 1_655 S
C789 H813 0.949 1_655 S
H790 C794 0.949 . S
C791 C792 1.349 . S
C791 C793 1.327 . S
C791 H814 0.950 . S
C792 C791 1.349 . S
C792 C804 1.349 . S
C793 C791 1.327 . S
C793 C809 1.429 . S
C793 H815 0.950 . S
C794 H790 0.949 . S
C794 C802 1.574 . S
C794 C810 1.368 . S
H795 C803 0.950 . S
H796 C801 0.950 . S
H797 C802 0.963 . S
H798 C804 0.950 . S
H799 C805 0.950 . S
H800 C806 0.949 . S
C801 H796 0.950 . S
C801 C803 1.327 . S
C801 C807 1.429 . S
C802 C794 1.574 . S
C802 H797 0.963 . S
C802 C808 1.368 1_655 S
C803 C787 1.349 . S
C803 H795 0.950 . S
C803 C801 1.327 . S
C804 C792 1.349 . S
C804 H798 0.950 . S
C804 C805 1.327 . S
C805 H799 0.950 . S
C805 C804 1.327 . S
C805 C809 1.429 . S
C806 C789 1.574 . S
C806 H800 0.949 . S
C806 C810 1.368 . S
C807 C788 1.429 . S
C807 C801 1.429 . S
C807 C808 1.523 . S
C808 C789 1.368 1_455 S
C808 C802 1.368 1_455 S
C808 C807 1.523 . S
C809 C793 1.429 . S
C809 C805 1.429 . S
C809 C810 1.523 . S
C810 C794 1.368 . S
C810 C806 1.368 . S
C810 C809 1.523 . S
H811 C786 0.950 . S
H812 C788 0.950 . S
H813 C789 0.949 1_455 S
H814 C791 0.950 . S
H815 C793 0.950 . S
C816 C817 1.349 . S
C816 C818 1.327 . S
C816 H841 0.950 . S
C817 C816 1.349 . S
C817 C833 1.349 . S
C818 C816 1.327 . S
C818 C837 1.429 . S
C818 H842 0.950 . S
C819 C836 1.574 . S
C819 C838 1.368 . S
C819 H843 0.949 . S
H820 C824 0.949 . S
C821 C822 1.349 . S
C821 C823 1.327 . S
C821 H844 0.950 . S
C822 C821 1.349 . S
C822 C834 1.349 . S
C823 C821 1.327 . S
C823 C839 1.429 . S
C823 H845 0.950 . S
C824 H820 0.949 . S
C824 C832 1.574 . S
C824 C840 1.368 . S
H825 C833 0.950 . S
H826 C831 0.950 . S
H827 C832 0.949 . S
H828 C834 0.950 . S
H829 C835 0.950 . S
H830 C836 0.949 . S
C831 H826 0.950 . S
C831 C833 1.327 . S
C831 C837 1.429 . S
C832 C824 1.574 . S
C832 H827 0.949 . S
C832 C838 1.368 . S
C833 C817 1.349 . S
C833 H825 0.950 . S
C833 C831 1.327 . S
C834 C822 1.349 . S
C834 H828 0.950 . S
C834 C835 1.327 . S
C835 H829 0.950 . S
C835 C834 1.327 . S
C835 C839 1.429 . S
C836 C819 1.574 . S
C836 H830 0.949 . S
C836 C840 1.368 . S
C837 C818 1.429 . S
C837 C831 1.429 . S
C837 C838 1.523 . S
C838 C819 1.368 . S
C838 C832 1.368 . S
C838 C837 1.523 . S
C839 C823 1.429 . S
C839 C835 1.429 . S
C839 C840 1.523 . S
C840 C824 1.368 . S
C840 C836 1.368 . S
C840 C839 1.523 . S
H841 C816 0.950 . S
H842 C818 0.950 . S
H843 C819 0.949 . S
H844 C821 0.950 . S
H845 C823 0.950 . S
C846 C847 1.349 . S
C846 C848 1.327 . S
C846 H871 0.950 . S
C847 C846 1.349 . S
C847 C863 1.349 . S
C848 C846 1.327 . S
C848 C867 1.429 . S
C848 H872 0.950 . S
C849 C866 1.574 . S
C849 C868 1.368 . S
C849 H873 0.949 . S
H850 C854 0.949 . S
C851 C852 1.349 . S
C851 C853 1.327 . S
C851 H874 0.950 . S
C852 C851 1.349 . S
C852 C864 1.349 . S
C853 C851 1.327 . S
C853 C869 1.429 1_455 S
C853 H875 0.950 . S
C854 H850 0.949 . S
C854 C862 1.574 . S
C854 C870 1.368 . S
H855 C863 0.950 . S
H856 C861 0.950 . S
H857 C862 0.949 . S
H858 C864 0.950 . S
H859 C865 0.950 . S
H860 C866 0.949 . S
C861 H856 0.950 . S
C861 C863 1.327 . S
C861 C867 1.429 . S
C862 C854 1.574 . S
C862 H857 0.949 . S
C862 C868 1.368 . S
C863 C847 1.349 . S
C863 H855 0.950 . S
C863 C861 1.327 . S
C864 C852 1.349 . S
C864 H858 0.950 . S
C864 C865 1.327 1_455 S
C865 H859 0.950 . S
C865 C864 1.327 1_655 S
C865 C869 1.429 . S
C866 C849 1.574 . S
C866 H860 0.949 . S
C866 C870 1.368 . S
C867 C848 1.429 . S
C867 C861 1.429 . S
C867 C868 1.523 . S
C868 C849 1.368 . S
C868 C862 1.368 . S
C868 C867 1.523 . S
C869 C853 1.429 1_655 S
C869 C865 1.429 . S
C869 C870 1.523 . S
C870 C854 1.368 . S
C870 C866 1.368 . S
C870 C869 1.523 . S
H871 C846 0.950 . S
H872 C848 0.950 . S
H873 C849 0.949 . S
H874 C851 0.950 . S
H875 C853 0.950 . S
C876 C877 1.349 . S
C876 C878 1.327 . S
C876 H901 0.950 . S
C877 C876 1.349 . S
C877 C893 1.349 . S
C878 C876 1.327 . S
C878 C897 1.429 . S
C878 H902 0.950 . S
C879 C896 1.574 . S
C879 C898 1.368 . S
C879 H903 0.949 . S
H880 C884 0.949 . S
C881 C882 1.349 . S
C881 C883 1.327 . S
C881 H904 0.950 . S
C882 C881 1.349 . S
C882 C894 1.349 . S
C883 C881 1.327 . S
C883 C899 1.429 . S
C883 H905 0.950 . S
C884 H880 0.949 . S
C884 C892 1.574 . S
C884 C900 1.368 . S
H885 C893 0.950 . S
H886 C891 0.950 . S
H887 C892 0.949 . S
H888 C894 0.950 . S
H889 C895 0.950 . S
H890 C896 0.949 . S
C891 H886 0.950 . S
C891 C893 1.327 . S
C891 C897 1.429 . S
C892 C884 1.574 . S
C892 H887 0.949 . S
C892 C898 1.368 . S
C893 C877 1.349 . S
C893 H885 0.950 . S
C893 C891 1.327 . S
C894 C882 1.349 . S
C894 H888 0.950 . S
C894 C895 1.327 . S
C895 H889 0.950 . S
C895 C894 1.327 . S
C895 C899 1.429 . S
C896 C879 1.574 . S
C896 H890 0.949 . S
C896 C900 1.368 . S
C897 C878 1.429 . S
C897 C891 1.429 . S
C897 C898 1.523 . S
C898 C879 1.368 . S
C898 C892 1.368 . S
C898 C897 1.523 . S
C899 C883 1.429 . S
C899 C895 1.429 . S
C899 C900 1.523 . S
C900 C884 1.368 . S
C900 C896 1.368 . S
C900 C899 1.523 . S
H901 C876 0.950 . S
H902 C878 0.950 . S
H903 C879 0.949 . S
H904 C881 0.950 . S
H905 C883 0.950 . S
C906 C907 1.349 . S
C906 C908 1.327 . S
C906 H931 0.950 . S
C907 C906 1.349 . S
C907 C923 1.349 . S
C908 C906 1.327 . S
C908 C927 1.429 . S
C908 H932 0.950 . S
C909 C926 1.574 . S
C909 C928 1.368 . S
C909 H933 0.949 . S
H910 C914 0.949 . S
C911 C912 1.349 . S
C911 C913 1.327 . S
C911 H934 0.950 . S
C912 C911 1.349 . S
C912 C924 1.349 . S
C913 C911 1.327 . S
C913 C929 1.429 . S
C913 H935 0.950 . S
C914 H910 0.949 . S
C914 C922 1.574 . S
C914 C930 1.368 . S
H915 C923 0.950 . S
H916 C921 0.950 . S
H917 C922 0.949 . S
H918 C924 0.950 . S
H919 C925 0.950 . S
H920 C926 0.949 . S
C921 H916 0.950 . S
C921 C923 1.327 . S
C921 C927 1.429 . S
C922 C914 1.574 . S
C922 H917 0.949 . S
C922 C928 1.368 . S
C923 C907 1.349 . S
C923 H915 0.950 . S
C923 C921 1.327 . S
C924 C912 1.349 . S
C924 H918 0.950 . S
C924 C925 1.327 . S
C925 H919 0.950 . S
C925 C924 1.327 . S
C925 C929 1.429 . S
C926 C909 1.574 . S
C926 H920 0.949 . S
C926 C930 1.368 . S
C927 C908 1.429 . S
C927 C921 1.429 . S
C927 C928 1.523 . S
C928 C909 1.368 . S
C928 C922 1.368 . S
C928 C927 1.523 . S
C929 C913 1.429 . S
C929 C925 1.429 . S
C929 C930 1.523 . S
C930 C914 1.368 . S
C930 C926 1.368 . S
C930 C929 1.523 . S
H931 C906 0.950 . S
H932 C908 0.950 . S
H933 C909 0.949 . S
H934 C911 0.950 . S
H935 C913 0.950 . S
C936 C937 1.349 . S
C936 C938 1.327 . S
C936 H961 0.950 . S
C937 C936 1.349 . S
C937 C953 1.349 . S
C938 C936 1.327 . S
C938 C957 1.429 . S
C938 H962 0.950 . S
C939 C956 1.574 . S
C939 C958 1.368 . S
C939 H963 0.949 . S
H940 C944 0.949 . S
C941 C942 1.349 . S
C941 C943 1.327 . S
C941 H964 0.950 . S
C942 C941 1.349 . S
C942 C954 1.349 . S
C943 C941 1.327 . S
C943 C959 1.429 . S
C943 H965 0.950 . S
C944 H940 0.949 . S
C944 C952 1.574 . S
C944 C960 1.368 . S
H945 C953 0.950 . S
H946 C951 0.950 . S
H947 C952 0.949 . S
H948 C954 0.950 . S
H949 C955 0.950 . S
H950 C956 0.949 . S
C951 H946 0.950 . S
C951 C953 1.327 . S
C951 C957 1.429 . S
C952 C944 1.574 . S
C952 H947 0.949 . S
C952 C958 1.368 . S
C953 C937 1.349 . S
C953 H945 0.950 . S
C953 C951 1.327 . S
C954 C942 1.349 . S
C954 H948 0.950 . S
C954 C955 1.327 . S
C955 H949 0.950 . S
C955 C954 1.327 . S
C955 C959 1.429 . S
C956 C939 1.574 . S
C956 H950 0.949 . S
C956 C960 1.368 . S
C957 C938 1.429 . S
C957 C951 1.429 . S
C957 C958 1.523 . S
C958 C939 1.368 . S
C958 C952 1.368 . S
C958 C957 1.523 . S
C959 C943 1.429 . S
C959 C955 1.429 . S
C959 C960 1.523 . S
C960 C944 1.368 . S
C960 C956 1.368 . S
C960 C959 1.523 . S
H961 C936 0.950 . S
H962 C938 0.950 . S
H963 C939 0.949 . S
H964 C941 0.950 . S
H965 C943 0.950 . S
C966 C967 1.349 . S
C966 C968 1.327 . S
C966 H991 0.950 . S
C967 C966 1.349 . S
C967 C983 1.349 . S
C968 C966 1.327 . S
C968 C987 1.429 . S
C968 H992 0.950 . S
C969 C986 1.574 . S
C969 C988 1.368 . S
C969 H993 0.949 . S
H970 C974 0.949 . S
C971 C972 1.349 . S
C971 C973 1.327 . S
C971 H994 0.950 . S
C972 C971 1.349 . S
C972 C984 1.349 . S
C973 C971 1.327 . S
C973 C989 1.429 . S
C973 H995 0.950 . S
C974 H970 0.949 . S
C974 C982 1.574 . S
C974 C990 1.368 . S
H975 C983 0.950 . S
H976 C981 0.950 . S
H977 C982 0.949 . S
H978 C984 0.950 . S
H979 C985 0.950 . S
H980 C986 0.949 . S
C981 H976 0.950 . S
C981 C983 1.327 . S
C981 C987 1.429 . S
C982 C974 1.574 . S
C982 H977 0.949 . S
C982 C988 1.368 . S
C983 C967 1.349 . S
C983 H975 0.950 . S
C983 C981 1.327 . S
C984 C972 1.349 . S
C984 H978 0.950 . S
C984 C985 1.327 . S
C985 H979 0.950 . S
C985 C984 1.327 . S
C985 C989 1.429 . S
C986 C969 1.574 . S
C986 H980 0.949 . S
C986 C990 1.368 . S
C987 C968 1.429 . S
C987 C981 1.429 . S
C987 C988 1.523 . S
C988 C969 1.368 . S
C988 C982 1.368 . S
C988 C987 1.523 . S
C989 C973 1.429 . S
C989 C985 1.429 . S
C989 C990 1.523 . S
C990 C974 1.368 . S
C990 C986 1.368 . S
C990 C989 1.523 . S
H991 C966 0.950 . S
H992 C968 0.950 . S
H993 C969 0.949 . S
H994 C971 0.950 . S
H995 C973 0.950 . S
C996 C997 1.349 . S
C996 C998 1.327 . S
C996 H1021 0.950 . S
C997 C996 1.349 . S
C997 C1013 1.349 . S
C998 C996 1.327 . S
C998 C1017 1.429 . S
C998 H1022 0.950 . S
C999 C1016 1.574 . S
C999 C1018 1.368 . S
C999 H1023 0.949 . S
H1000 C1004 0.949 . S
C1001 C1002 1.349 . S
C1001 C1003 1.327 . S
C1001 H1024 0.950 . S
C1002 C1001 1.349 . S
C1002 C1014 1.349 . S
C1003 C1001 1.327 . S
C1003 C1019 1.429 . S
C1003 H1025 0.950 . S
C1004 H1000 0.949 . S
C1004 C1012 1.574 . S
C1004 C1020 1.368 . S
H1005 C1013 0.950 . S
H1006 C1011 0.950 . S
H1007 C1012 0.949 . S
H1008 C1014 0.950 . S
H1009 C1015 0.950 . S
H1010 C1016 0.949 . S
C1011 H1006 0.950 . S
C1011 C1013 1.327 . S
C1011 C1017 1.429 . S
C1012 C1004 1.574 . S
C1012 H1007 0.949 . S
C1012 C1018 1.368 . S
C1013 C997 1.349 . S
C1013 H1005 0.950 . S
C1013 C1011 1.327 . S
C1014 C1002 1.349 . S
C1014 H1008 0.950 . S
C1014 C1015 1.327 . S
C1015 H1009 0.950 . S
C1015 C1014 1.327 . S
C1015 C1019 1.429 . S
C1016 C999 1.574 . S
C1016 H1010 0.949 . S
C1016 C1020 1.368 . S
C1017 C998 1.429 . S
C1017 C1011 1.429 . S
C1017 C1018 1.523 . S
C1018 C999 1.368 . S
C1018 C1012 1.368 . S
C1018 C1017 1.523 . S
C1019 C1003 1.429 . S
C1019 C1015 1.429 . S
C1019 C1020 1.523 . S
C1020 C1004 1.368 . S
C1020 C1016 1.368 . S
C1020 C1019 1.523 . S
H1021 C996 0.950 . S
H1022 C998 0.950 . S
H1023 C999 0.949 . S
H1024 C1001 0.950 . S
H1025 C1003 0.950 . S
C1026 C1027 1.349 . S
C1026 C1028 1.327 . S
C1026 H1051 0.950 . S
C1027 C1026 1.349 . S
C1027 C1043 1.349 . S
C1028 C1026 1.327 . S
C1028 C1047 1.429 . S
C1028 H1052 0.950 . S
C1029 C1046 1.574 . S
C1029 C1048 1.368 . S
C1029 H1053 0.949 . S
H1030 C1034 0.949 . S
C1031 C1032 1.349 . S
C1031 C1033 1.327 . S
C1031 H1054 0.950 . S
C1032 C1031 1.349 . S
C1032 C1044 1.349 . S
C1033 C1031 1.327 . S
C1033 C1049 1.429 . S
C1033 H1055 0.950 . S
C1034 H1030 0.949 . S
C1034 C1042 1.574 . S
C1034 C1050 1.368 . S
H1035 C1043 0.950 . S
H1036 C1041 0.950 . S
H1037 C1042 0.949 . S
H1038 C1044 0.950 . S
H1039 C1045 0.950 . S
H1040 C1046 0.949 . S
C1041 H1036 0.950 . S
C1041 C1043 1.327 . S
C1041 C1047 1.429 . S
C1042 C1034 1.574 . S
C1042 H1037 0.949 . S
C1042 C1048 1.368 . S
C1043 C1027 1.349 . S
C1043 H1035 0.950 . S
C1043 C1041 1.327 . S
C1044 C1032 1.349 . S
C1044 H1038 0.950 . S
C1044 C1045 1.327 . S
C1045 H1039 0.950 . S
C1045 C1044 1.327 . S
C1045 C1049 1.429 . S
C1046 C1029 1.574 . S
C1046 H1040 0.949 . S
C1046 C1050 1.368 . S
C1047 C1028 1.429 . S
C1047 C1041 1.429 . S
C1047 C1048 1.523 . S
C1048 C1029 1.368 . S
C1048 C1042 1.368 . S
C1048 C1047 1.523 . S
C1049 C1033 1.429 . S
C1049 C1045 1.429 . S
C1049 C1050 1.523 . S
C1050 C1034 1.368 . S
C1050 C1046 1.368 . S
C1050 C1049 1.523 . S
H1051 C1026 0.950 . S
H1052 C1028 0.950 . S
H1053 C1029 0.949 . S
H1054 C1031 0.950 . S
H1055 C1033 0.950 . S
C1056 C1057 1.349 . S
C1056 C1058 1.327 . S
C1056 H1081 0.950 . S
C1057 C1056 1.349 . S
C1057 C1073 1.349 . S
C1058 C1056 1.327 . S
C1058 C1077 1.429 . S
C1058 H1082 0.950 . S
C1059 C1076 1.574 . S
C1059 C1078 1.368 . S
C1059 H1083 0.949 . S
H1060 C1064 0.949 . S
C1061 C1062 1.349 . S
C1061 C1063 1.327 . S
C1061 H1084 0.950 . S
C1062 C1061 1.349 . S
C1062 C1074 1.349 . S
C1063 C1061 1.327 . S
C1063 C1079 1.429 . S
C1063 H1085 0.950 . S
C1064 H1060 0.949 . S
C1064 C1072 1.574 . S
C1064 C1080 1.368 . S
H1065 C1073 0.950 . S
H1066 C1071 0.950 . S
H1067 C1072 0.949 . S
H1068 C1074 0.950 . S
H1069 C1075 0.950 . S
H1070 C1076 0.949 . S
C1071 H1066 0.950 . S
C1071 C1073 1.327 . S
C1071 C1077 1.429 . S
C1072 C1064 1.574 . S
C1072 H1067 0.949 . S
C1072 C1078 1.368 . S
C1073 C1057 1.349 . S
C1073 H1065 0.950 . S
C1073 C1071 1.327 . S
C1074 C1062 1.349 . S
C1074 H1068 0.950 . S
C1074 C1075 1.327 . S
C1075 H1069 0.950 . S
C1075 C1074 1.327 . S
C1075 C1079 1.429 . S
C1076 C1059 1.574 . S
C1076 H1070 0.949 . S
C1076 C1080 1.368 . S
C1077 C1058 1.429 . S
C1077 C1071 1.429 . S
C1077 C1078 1.523 . S
C1078 C1059 1.368 . S
C1078 C1072 1.368 . S
C1078 C1077 1.523 . S
C1079 C1063 1.429 . S
C1079 C1075 1.429 . S
C1079 C1080 1.523 . S
C1080 C1064 1.368 . S
C1080 C1076 1.368 . S
C1080 C1079 1.523 . S
H1081 C1056 0.950 . S
H1082 C1058 0.950 . S
H1083 C1059 0.949 . S
H1084 C1061 0.950 . S
H1085 C1063 0.950 . S
C1086 C1087 1.349 . S
C1086 C1088 1.327 1_554 S
C1086 H1111 0.950 . S
C1087 C1086 1.349 . S
C1087 C1103 1.349 . S
C1088 C1086 1.327 1_556 S
C1088 C1107 1.429 . S
C1088 H1112 0.950 . S
C1089 C1106 1.574 . S
C1089 C1108 1.368 . S
C1089 H1113 0.949 1_556 S
H1090 C1094 0.949 . S
C1091 C1092 1.349 . S
C1091 C1093 1.327 . S
C1091 H1114 0.950 . S
C1092 C1091 1.349 . S
C1092 C1104 1.349 . S
C1093 C1091 1.327 . S
C1093 C1109 1.429 . S
C1093 H1115 0.950 . S
C1094 H1090 0.949 . S
C1094 C1102 1.574 . S
C1094 C1110 1.368 . S
H1095 C1103 0.950 . S
H1096 C1101 0.950 . S
H1097 C1102 0.949 . S
H1098 C1104 0.950 . S
H1099 C1105 0.950 . S
H1100 C1106 0.949 . S
C1101 H1096 0.950 . S
C1101 C1103 1.327 . S
C1101 C1107 1.429 1_554 S
C1102 C1094 1.574 . S
C1102 H1097 0.949 . S
C1102 C1108 1.368 . S
C1103 C1087 1.349 . S
C1103 H1095 0.950 . S
C1103 C1101 1.327 . S
C1104 C1092 1.349 . S
C1104 H1098 0.950 . S
C1104 C1105 1.327 . S
C1105 H1099 0.950 . S
C1105 C1104 1.327 . S
C1105 C1109 1.429 . S
C1106 C1089 1.574 . S
C1106 H1100 0.949 . S
C1106 C1110 1.368 . S
C1107 C1088 1.429 . S
C1107 C1101 1.429 1_556 S
C1107 C1108 1.523 . S
C1108 C1089 1.368 . S
C1108 C1102 1.368 . S
C1108 C1107 1.523 . S
C1109 C1093 1.429 . S
C1109 C1105 1.429 . S
C1109 C1110 1.523 . S
C1110 C1094 1.368 . S
C1110 C1106 1.368 . S
C1110 C1109 1.523 . S
H1111 C1086 0.950 . S
H1112 C1088 0.950 . S
H1113 C1089 0.949 1_554 S
H1114 C1091 0.950 . S
H1115 C1093 0.950 . S
C397 C7 0.648 . S
C402 C100 0.577 . S
C427 C25 0.748 . S
C432 C139 0.747 . S
C457 C46 0.855 . S
C462 C178 0.856 . S
C492 C202 0.718 . S
C487 C70 0.720 . S
C522 C241 0.565 . S
C517 C28 0.643 . S
C547 C49 0.724 . S
C552 C280 0.722 . S
C577 C67 0.845 . S
C582 C334 0.846 . S
C607 C4 0.743 . S
C612 C358 0.741 . S
C637 C58 1.797 . S
C642 C373 1.925 . S
C672 C256 1.616 . S
C667 C66 1.544 . S
C702 C295 1.962 . S
C697 C3 1.951 . S
C727 C37 1.845 . S
C732 C319 1.929 . S
C762 C124 1.927 . S
C757 C79 1.798 . S
C787 C16 1.848 . S
C792 C163 1.930 . S
C822 C217 1.948 . S
C817 C24 1.937 . S
C852 C85 1.623 . S
C847 C45 1.550 . S
C882 C339 1.435 . S
C877 C19 1.231 . S
C912 C378 1.263 . S
C907 C41 1.171 . S
C937 C62 0.959 . S
C942 C261 1.013 . S
C972 C300 1.262 . S
C967 C82 1.112 . S
C1002 C183 1.444 . S
C997 C40 1.239 . S
C1027 C61 1.102 . S
C1032 C222 1.250 . S
C1062 C105 1.019 . S
C1057 C83 0.969 . S
C1092 C144 1.258 . S
C1087 C20 1.167 . S
