# Generated by pormake.
# Topology ptr, (4,4)-cn, num edge types: 1
# Building blocks:
#     Node 0, Type 0, BuildingBlock: NAHDIM_clean_sbu_0, # of connection points: 4
#     Node 1, Type 0, BuildingBlock: NAHDIM_clean_sbu_0, # of connection points: 4
#     Node 2, Type 0, BuildingBlock: NAHDIM_clean_sbu_0, # of connection points: 4
#     Node 3, Type 0, BuildingBlock: NAHDIM_clean_sbu_0, # of connection points: 4
#     Node 4, Type 0, BuildingBlock: NAHDIM_clean_sbu_0, # of connection points: 4
#     Node 5, Type 0, BuildingBlock: NAHDIM_clean_sbu_0, # of connection points: 4
#     Node 6, Type 0, BuildingBlock: NAHDIM_clean_sbu_0, # of connection points: 4
#     Node 7, Type 0, BuildingBlock: NAHDIM_clean_sbu_0, # of connection points: 4
#     Node 8, Type 0, BuildingBlock: NAHDIM_clean_sbu_0, # of connection points: 4
#     Node 9, Type 0, BuildingBlock: NAHDIM_clean_sbu_0, # of connection points: 4
#     Node 10, Type 0, BuildingBlock: NAHDIM_clean_sbu_0, # of connection points: 4
#     Node 11, Type 0, BuildingBlock: NAHDIM_clean_sbu_0, # of connection points: 4
#     Node 12, Type 0, BuildingBlock: NAHDIM_clean_sbu_0, # of connection points: 4
#     Node 13, Type 0, BuildingBlock: NAHDIM_clean_sbu_0, # of connection points: 4
#     Node 14, Type 0, BuildingBlock: NAHDIM_clean_sbu_0, # of connection points: 4
#     Node 15, Type 0, BuildingBlock: NAHDIM_clean_sbu_0, # of connection points: 4
#     Node 16, Type 0, BuildingBlock: NAHDIM_clean_sbu_0, # of connection points: 4
#     Node 17, Type 0, BuildingBlock: NAHDIM_clean_sbu_0, # of connection points: 4
#     Node 18, Type 1, BuildingBlock: MUDLON_clean_linker_0, # of connection points: 4
#     Node 19, Type 1, BuildingBlock: MUDLON_clean_linker_0, # of connection points: 4
#     Node 20, Type 1, BuildingBlock: MUDLON_clean_linker_0, # of connection points: 4
#     Node 21, Type 1, BuildingBlock: MUDLON_clean_linker_0, # of connection points: 4
#     Node 22, Type 1, BuildingBlock: MUDLON_clean_linker_0, # of connection points: 4
#     Node 23, Type 1, BuildingBlock: MUDLON_clean_linker_0, # of connection points: 4
#     Node 24, Type 1, BuildingBlock: MUDLON_clean_linker_0, # of connection points: 4
#     Node 25, Type 1, BuildingBlock: MUDLON_clean_linker_0, # of connection points: 4
#     Node 26, Type 1, BuildingBlock: MUDLON_clean_linker_0, # of connection points: 4
#     Node 27, Type 1, BuildingBlock: MUDLON_clean_linker_0, # of connection points: 4
#     Node 28, Type 1, BuildingBlock: MUDLON_clean_linker_0, # of connection points: 4
#     Node 29, Type 1, BuildingBlock: MUDLON_clean_linker_0, # of connection points: 4
#     Node 30, Type 1, BuildingBlock: MUDLON_clean_linker_0, # of connection points: 4
#     Node 31, Type 1, BuildingBlock: MUDLON_clean_linker_0, # of connection points: 4
#     Node 32, Type 1, BuildingBlock: MUDLON_clean_linker_0, # of connection points: 4
#     Node 33, Type 1, BuildingBlock: MUDLON_clean_linker_0, # of connection points: 4
#     Node 34, Type 1, BuildingBlock: MUDLON_clean_linker_0, # of connection points: 4
#     Node 35, Type 1, BuildingBlock: MUDLON_clean_linker_0, # of connection points: 4
#     Edge 36, Type (0, 1), BuildingBlock: KIFKEQ_clean_linker_1, # of connection points: 2
#     Edge 37, Type (0, 1), BuildingBlock: KIFKEQ_clean_linker_1, # of connection points: 2
#     Edge 38, Type (0, 1), BuildingBlock: KIFKEQ_clean_linker_1, # of connection points: 2
#     Edge 39, Type (0, 1), BuildingBlock: KIFKEQ_clean_linker_1, # of connection points: 2
#     Edge 40, Type (0, 1), BuildingBlock: KIFKEQ_clean_linker_1, # of connection points: 2
#     Edge 41, Type (0, 1), BuildingBlock: KIFKEQ_clean_linker_1, # of connection points: 2
#     Edge 42, Type (0, 1), BuildingBlock: KIFKEQ_clean_linker_1, # of connection points: 2
#     Edge 43, Type (0, 1), BuildingBlock: KIFKEQ_clean_linker_1, # of connection points: 2
#     Edge 44, Type (0, 1), BuildingBlock: KIFKEQ_clean_linker_1, # of connection points: 2
#     Edge 45, Type (0, 1), BuildingBlock: KIFKEQ_clean_linker_1, # of connection points: 2
#     Edge 46, Type (0, 1), BuildingBlock: KIFKEQ_clean_linker_1, # of connection points: 2
#     Edge 47, Type (0, 1), BuildingBlock: KIFKEQ_clean_linker_1, # of connection points: 2
#     Edge 48, Type (0, 1), BuildingBlock: KIFKEQ_clean_linker_1, # of connection points: 2
#     Edge 49, Type (0, 1), BuildingBlock: KIFKEQ_clean_linker_1, # of connection points: 2
#     Edge 50, Type (0, 1), BuildingBlock: KIFKEQ_clean_linker_1, # of connection points: 2
#     Edge 51, Type (0, 1), BuildingBlock: KIFKEQ_clean_linker_1, # of connection points: 2
#     Edge 52, Type (0, 1), BuildingBlock: KIFKEQ_clean_linker_1, # of connection points: 2
#     Edge 53, Type (0, 1), BuildingBlock: KIFKEQ_clean_linker_1, # of connection points: 2
#     Edge 54, Type (0, 1), BuildingBlock: KIFKEQ_clean_linker_1, # of connection points: 2
#     Edge 55, Type (0, 1), BuildingBlock: KIFKEQ_clean_linker_1, # of connection points: 2
#     Edge 56, Type (0, 1), BuildingBlock: KIFKEQ_clean_linker_1, # of connection points: 2
#     Edge 57, Type (0, 1), BuildingBlock: KIFKEQ_clean_linker_1, # of connection points: 2
#     Edge 58, Type (0, 1), BuildingBlock: KIFKEQ_clean_linker_1, # of connection points: 2
#     Edge 59, Type (0, 1), BuildingBlock: KIFKEQ_clean_linker_1, # of connection points: 2
#     Edge 60, Type (0, 1), BuildingBlock: KIFKEQ_clean_linker_1, # of connection points: 2
#     Edge 61, Type (0, 1), BuildingBlock: KIFKEQ_clean_linker_1, # of connection points: 2
#     Edge 62, Type (0, 1), BuildingBlock: KIFKEQ_clean_linker_1, # of connection points: 2
#     Edge 63, Type (0, 1), BuildingBlock: KIFKEQ_clean_linker_1, # of connection points: 2
#     Edge 64, Type (0, 1), BuildingBlock: KIFKEQ_clean_linker_1, # of connection points: 2
#     Edge 65, Type (0, 1), BuildingBlock: KIFKEQ_clean_linker_1, # of connection points: 2
#     Edge 66, Type (0, 1), BuildingBlock: KIFKEQ_clean_linker_1, # of connection points: 2
#     Edge 67, Type (0, 1), BuildingBlock: KIFKEQ_clean_linker_1, # of connection points: 2
#     Edge 68, Type (0, 1), BuildingBlock: KIFKEQ_clean_linker_1, # of connection points: 2
#     Edge 69, Type (0, 1), BuildingBlock: KIFKEQ_clean_linker_1, # of connection points: 2
#     Edge 70, Type (0, 1), BuildingBlock: KIFKEQ_clean_linker_1, # of connection points: 2
#     Edge 71, Type (0, 1), BuildingBlock: KIFKEQ_clean_linker_1, # of connection points: 2
#     Edge 72, Type (0, 1), BuildingBlock: KIFKEQ_clean_linker_1, # of connection points: 2
#     Edge 73, Type (0, 1), BuildingBlock: KIFKEQ_clean_linker_1, # of connection points: 2
#     Edge 74, Type (0, 1), BuildingBlock: KIFKEQ_clean_linker_1, # of connection points: 2
#     Edge 75, Type (0, 1), BuildingBlock: KIFKEQ_clean_linker_1, # of connection points: 2
#     Edge 76, Type (0, 1), BuildingBlock: KIFKEQ_clean_linker_1, # of connection points: 2
#     Edge 77, Type (0, 1), BuildingBlock: KIFKEQ_clean_linker_1, # of connection points: 2
#     Edge 78, Type (0, 1), BuildingBlock: KIFKEQ_clean_linker_1, # of connection points: 2
#     Edge 79, Type (0, 1), BuildingBlock: KIFKEQ_clean_linker_1, # of connection points: 2
#     Edge 80, Type (0, 1), BuildingBlock: KIFKEQ_clean_linker_1, # of connection points: 2
#     Edge 81, Type (0, 1), BuildingBlock: KIFKEQ_clean_linker_1, # of connection points: 2
#     Edge 82, Type (0, 1), BuildingBlock: KIFKEQ_clean_linker_1, # of connection points: 2
#     Edge 83, Type (0, 1), BuildingBlock: KIFKEQ_clean_linker_1, # of connection points: 2
#     Edge 84, Type (0, 1), BuildingBlock: KIFKEQ_clean_linker_1, # of connection points: 2
#     Edge 85, Type (0, 1), BuildingBlock: KIFKEQ_clean_linker_1, # of connection points: 2
#     Edge 86, Type (0, 1), BuildingBlock: KIFKEQ_clean_linker_1, # of connection points: 2
#     Edge 87, Type (0, 1), BuildingBlock: KIFKEQ_clean_linker_1, # of connection points: 2
#     Edge 88, Type (0, 1), BuildingBlock: KIFKEQ_clean_linker_1, # of connection points: 2
#     Edge 89, Type (0, 1), BuildingBlock: KIFKEQ_clean_linker_1, # of connection points: 2
#     Edge 90, Type (0, 1), BuildingBlock: KIFKEQ_clean_linker_1, # of connection points: 2
#     Edge 91, Type (0, 1), BuildingBlock: KIFKEQ_clean_linker_1, # of connection points: 2
#     Edge 92, Type (0, 1), BuildingBlock: KIFKEQ_clean_linker_1, # of connection points: 2
#     Edge 93, Type (0, 1), BuildingBlock: KIFKEQ_clean_linker_1, # of connection points: 2
#     Edge 94, Type (0, 1), BuildingBlock: KIFKEQ_clean_linker_1, # of connection points: 2
#     Edge 95, Type (0, 1), BuildingBlock: KIFKEQ_clean_linker_1, # of connection points: 2
#     Edge 96, Type (0, 1), BuildingBlock: KIFKEQ_clean_linker_1, # of connection points: 2
#     Edge 97, Type (0, 1), BuildingBlock: KIFKEQ_clean_linker_1, # of connection points: 2
#     Edge 98, Type (0, 1), BuildingBlock: KIFKEQ_clean_linker_1, # of connection points: 2
#     Edge 99, Type (0, 1), BuildingBlock: KIFKEQ_clean_linker_1, # of connection points: 2
#     Edge 100, Type (0, 1), BuildingBlock: KIFKEQ_clean_linker_1, # of connection points: 2
#     Edge 101, Type (0, 1), BuildingBlock: KIFKEQ_clean_linker_1, # of connection points: 2
#     Edge 102, Type (0, 1), BuildingBlock: KIFKEQ_clean_linker_1, # of connection points: 2
#     Edge 103, Type (0, 1), BuildingBlock: KIFKEQ_clean_linker_1, # of connection points: 2
#     Edge 104, Type (0, 1), BuildingBlock: KIFKEQ_clean_linker_1, # of connection points: 2
#     Edge 105, Type (0, 1), BuildingBlock: KIFKEQ_clean_linker_1, # of connection points: 2
#     Edge 106, Type (0, 1), BuildingBlock: KIFKEQ_clean_linker_1, # of connection points: 2
#     Edge 107, Type (0, 1), BuildingBlock: KIFKEQ_clean_linker_1, # of connection points: 2
# Relax obj value: 0.063
# Max RMSD: 0.201
# Mean RMSD: 0.102
data_MOF--net-ptr--node1-NAHDIM_clean_sbu_0--node2-MUDLON_clean_linker_0--edge1-KIFKEQ_clean_linker_1
_symmetry_space_group_name_H-M    P1
_symmetry_Int_Tables_number       1
_symmetry_cell_setting            triclinic
loop_
_symmetry_equiv_pos_as_xyz
'x, y, z'
_cell_length_a     108.2437
_cell_length_b     106.40698
_cell_length_c     62.114072
_cell_angle_alpha  91.532222
_cell_angle_beta   89.24359
_cell_angle_gamma 121.5984
loop_
_atom_site_label
_atom_site_type_symbol
_atom_site_fract_x
_atom_site_fract_y
_atom_site_fract_z
_atom_type_partial_charge
C0 C 0.02269 0.36423 0.02858 0.0
O1 O 0.01548 0.36572 0.04461 0.0
O2 O 0.98506 0.35044 0.00244 0.0
Zn3 Zn 0.0037 0.3701 0.00615 0.0
O4 O 0.00325 0.38146 0.03229 0.0
C5 C 0.99474 0.38185 0.97446 0.0
O6 O 0.98271 0.37366 0.98528 0.0
O7 O 0.01995 0.36612 0.00948 0.0
C8 C 0.99206 0.38023 0.04127 0.0
O9 O 0.97915 0.37066 0.03347 0.0
C10 C 0.97914 0.34051 0.01649 0.0
O11 O 0.98506 0.34294 0.03566 0.0
O12 O 0.00618 0.38224 0.98017 0.0
C13 C 0.6651 0.64454 0.99661 0.0
O14 O 0.65659 0.645 0.98219 0.0
O15 O 0.64037 0.65421 0.02837 0.0
Zn16 Zn 0.63967 0.63523 0.0213 0.0
O17 O 0.62746 0.62437 0.99525 0.0
C18 C 0.61842 0.61826 0.05246 0.0
O19 O 0.61161 0.62333 0.04176 0.0
O20 O 0.66018 0.64026 0.01544 0.0
C21 C 0.61693 0.62492 0.98757 0.0
O22 O 0.61301 0.63353 0.99687 0.0
C23 C 0.6424 0.66397 0.01501 0.0
O24 O 0.64343 0.66162 0.99438 0.0
O25 O 0.63119 0.62194 0.04672 0.0
C26 C 0.35652 0.02653 0.01983 0.0
O27 O 0.35032 0.0188 0.03708 0.0
O28 O 0.34635 0.98861 0.02071 0.0
Zn29 Zn 0.3661 0.00587 0.01343 0.0
O30 O 0.37388 0.00159 0.98641 0.0
C31 C 0.37732 0.9996 0.05029 0.0
O32 O 0.36575 0.9865 0.04663 0.0
O33 O 0.36411 0.02325 0.00789 0.0
C34 C 0.3783 0.99263 0.98567 0.0
O35 O 0.37746 0.98544 0.00303 0.0
C36 C 0.33563 0.98273 0.00783 0.0
O37 O 0.33732 0.9878 0.98827 0.0
O38 O 0.37988 0.01014 0.03813 0.0
C39 C 0.97572 0.64294 0.98745 0.0
O40 O 0.98762 0.6476 0.97612 0.0
O41 O 0.00769 0.65415 0.01676 0.0
Zn42 Zn 0.9909 0.63339 0.0107 0.0
O43 O 0.99449 0.62358 0.98516 0.0
C44 C 0.99815 0.62392 0.04847 0.0
O45 O 0.01101 0.63515 0.04352 0.0
O46 O 0.97389 0.63547 0.00412 0.0
C47 C 0.00553 0.62238 0.98327 0.0
O48 O 0.01556 0.62804 0.99831 0.0
C49 C 0.01876 0.662 0.00512 0.0
O50 O 0.02039 0.65662 0.98677 0.0
O51 O 0.98733 0.62095 0.03681 0.0
C52 C 0.3357 0.35828 0.02835 0.0
O53 O 0.34064 0.35132 0.03904 0.0
O54 O 0.35839 0.34797 0.00137 0.0
Zn55 Zn 0.36258 0.36854 0.00763 0.0
O56 O 0.3752 0.37719 0.03414 0.0
C57 C 0.38052 0.37917 0.96972 0.0
O58 O 0.38235 0.3682 0.97374 0.0
O59 O 0.34346 0.36687 0.01348 0.0
C60 C 0.38785 0.38869 0.0338 0.0
O61 O 0.39316 0.39535 0.01549 0.0
C62 C 0.36674 0.34354 0.00673 0.0
O63 O 0.3789 0.35268 0.01692 0.0
O64 O 0.37235 0.38145 0.98197 0.0
C65 C 0.6411 0.97618 0.02283 0.0
O66 O 0.64584 0.9885 0.03409 0.0
O67 O 0.64833 0.00801 0.99696 0.0
Zn68 Zn 0.62874 0.9898 0.00255 0.0
O69 O 0.61909 0.99146 0.02966 0.0
C70 C 0.61612 0.99622 0.9678 0.0
O71 O 0.62531 0.00969 0.97496 0.0
O72 O 0.63263 0.9735 0.00704 0.0
C73 C 0.61431 0.99999 0.03313 0.0
O74 O 0.61588 0.00931 0.01834 0.0
C75 C 0.65441 0.02047 0.00678 0.0
O76 O 0.64759 0.02277 0.02257 0.0
O77 O 0.61562 0.98542 0.97696 0.0
C78 C 0.68569 0.6952 0.37021 0.0
O79 O 0.67427 0.69118 0.38244 0.0
O80 O 0.65353 0.68515 0.33662 0.0
Zn81 Zn 0.67055 0.70496 0.346 0.0
O82 O 0.66606 0.71339 0.37221 0.0
C83 C 0.67742 0.71566 0.30276 0.0
O84 O 0.67547 0.70254 0.29882 0.0
O85 O 0.68696 0.70194 0.35297 0.0
C86 C 0.65513 0.71479 0.37377 0.0
O87 O 0.64578 0.71015 0.35781 0.0
C88 C 0.64331 0.67611 0.34873 0.0
O89 O 0.64301 0.67979 0.369 0.0
O90 O 0.67611 0.71924 0.32194 0.0
C91 C 0.3246 0.96937 0.32227 0.0
O92 O 0.31545 0.96581 0.30627 0.0
O93 O 0.30373 0.98842 0.35247 0.0
Zn94 Zn 0.30114 0.96848 0.34623 0.0
O95 O 0.28853 0.95911 0.32008 0.0
C96 C 0.29143 0.96029 0.39011 0.0
O97 O 0.29838 0.97466 0.39336 0.0
O98 O 0.32084 0.97098 0.34113 0.0
C99 C 0.27694 0.95907 0.3168 0.0
O100 O 0.27279 0.96548 0.33101 0.0
C101 C 0.31398 7e-05 0.3441 0.0
O102 O 0.32286 0.99906 0.33055 0.0
O103 O 0.2913 0.95517 0.37134 0.0
C104 C 0.02532 0.35888 0.34176 0.0
O105 O 0.01402 0.34718 0.34996 0.0
O106 O 0.0179 0.3231 0.3482 0.0
Zn107 Zn 0.03796 0.3406 0.34234 0.0
O108 O 0.04613 0.33664 0.31554 0.0
C109 C 0.04833 0.34622 0.3863 0.0
O110 O 0.03593 0.34533 0.39014 0.0
O111 O 0.03673 0.35863 0.33758 0.0
C112 C 0.04633 0.32488 0.31254 0.0
O113 O 0.04084 0.31474 0.32732 0.0
C114 C 0.01536 0.31316 0.36153 0.0
O115 O 0.02623 0.31377 0.37169 0.0
O116 O 0.05151 0.3446 0.36707 0.0
C117 C 0.64485 0.98059 0.3414 0.0
O118 O 0.65675 0.99289 0.34726 0.0
O119 O 0.67976 0.98905 0.35324 0.0
Zn120 Zn 0.66325 0.96853 0.34562 0.0
O121 O 0.66836 0.96088 0.31916 0.0
C122 C 0.672 0.95551 0.37569 0.0
O123 O 0.68405 0.96362 0.36484 0.0
O124 O 0.64494 0.96868 0.34003 0.0
C125 C 0.66084 0.94728 0.31377 0.0
O126 O 0.64956 0.93834 0.32555 0.0
C127 C 0.68994 0.99726 0.34043 0.0
O128 O 0.69 0.99239 0.32079 0.0
O129 O 0.66071 0.95552 0.37034 0.0
C130 C 0.00102 0.6921 0.36396 0.0
O131 O 0.00766 0.68748 0.37607 0.0
O132 O 0.02627 0.68447 0.34126 0.0
Zn133 Zn 0.02815 0.7043 0.34447 0.0
O134 O 0.03994 0.71452 0.37109 0.0
C135 C 0.03641 0.71054 0.29979 0.0
O136 O 0.02723 0.69628 0.29735 0.0
O137 O 0.00792 0.7004 0.34833 0.0
C138 C 0.05369 0.72264 0.37042 0.0
O139 O 0.06034 0.72466 0.35184 0.0
C140 C 0.03606 0.68256 0.3333 0.0
O141 O 0.04835 0.69402 0.3269 0.0
O142 O 0.03812 0.71656 0.31836 0.0
C143 C 0.291 0.29919 0.351 0.0
O144 O 0.27871 0.29779 0.35733 0.0
O145 O 0.31676 0.34539 0.32861 0.0
Zn146 Zn 0.29748 0.32788 0.33718 0.0
O147 O 0.2899 0.33195 0.36471 0.0
C148 C 0.27969 0.33293 0.31046 0.0
O149 O 0.28561 0.34486 0.32287 0.0
O150 O 0.30034 0.31088 0.34162 0.0
C151 C 0.29385 0.3448 0.37203 0.0
O152 O 0.30381 0.3564 0.36171 0.0
C153 C 0.32788 0.351 0.3407 0.0
O154 O 0.32672 0.34565 0.35994 0.0
O155 O 0.28309 0.32333 0.31337 0.0
C156 C 0.36661 0.04253 0.69057 0.0
O157 O 0.36837 0.05448 0.70031 0.0
O158 O 0.32071 0.01908 0.67122 0.0
Zn159 Zn 0.33919 0.03861 0.67677 0.0
O160 O 0.33731 0.04754 0.70459 0.0
C161 C 0.33753 0.04796 0.63415 0.0
O162 O 0.32924 0.03368 0.63045 0.0
O163 O 0.35531 0.03454 0.67926 0.0
C164 C 0.32611 0.04825 0.70825 0.0
O165 O 0.31581 0.04302 0.69364 0.0
C166 C 0.31812 0.00817 0.68253 0.0
O167 O 0.32728 0.01017 0.69785 0.0
O168 O 0.34313 0.05263 0.65271 0.0
C169 C 0.0063 0.31322 0.68684 0.0
O170 O 0.00595 0.32296 0.69987 0.0
O171 O 0.9788 0.32139 0.68978 0.0
Zn172 Zn 0.97528 0.30082 0.68501 0.0
O173 O 0.9625 0.29067 0.65913 0.0
C174 C 0.95852 0.29134 0.72418 0.0
O175 O 0.95734 0.30278 0.72066 0.0
O176 O 0.99448 0.30263 0.67906 0.0
C177 C 0.94874 0.28418 0.65962 0.0
O178 O 0.94227 0.28417 0.67767 0.0
C179 C 0.97068 0.32572 0.68285 0.0
O180 O 0.95909 0.31655 0.67153 0.0
O181 O 0.96588 0.28839 0.71118 0.0
C182 C 0.70193 0.69887 0.6527 0.0
O183 O 0.70285 0.69102 0.63679 0.0
O184 O 0.6853 0.66131 0.68561 0.0
Zn185 Zn 0.70509 0.67845 0.6781 0.0
O186 O 0.71266 0.673 0.65185 0.0
C187 C 0.71435 0.68077 0.72224 0.0
O188 O 0.70045 0.67493 0.72612 0.0
O189 O 0.70291 0.69575 0.67197 0.0
C190 C 0.72111 0.6681 0.65316 0.0
O191 O 0.72515 0.66651 0.67223 0.0
C192 C 0.68243 0.64813 0.68643 0.0
O193 O 0.69272 0.64538 0.68217 0.0
O194 O 0.71887 0.68349 0.70294 0.0
C195 C 0.31172 0.31501 0.6638 0.0
O196 O 0.32511 0.32506 0.65875 0.0
O197 O 0.34348 0.32277 0.6865 0.0
Zn198 Zn 0.32711 0.30224 0.67826 0.0
O199 O 0.33235 0.29511 0.65137 0.0
C200 C 0.3351 0.2877 0.70675 0.0
O201 O 0.34705 0.2955 0.69557 0.0
O202 O 0.30929 0.30328 0.67263 0.0
C203 C 0.32536 0.28143 0.64645 0.0
O204 O 0.31461 0.27225 0.65885 0.0
C205 C 0.35625 0.32878 0.6789 0.0
O206 O 0.35951 0.32129 0.6653 0.0
O207 O 0.32413 0.28858 0.70237 0.0
C208 C 0.65983 0.02728 0.66739 0.0
O209 O 0.66158 0.01866 0.65379 0.0
O210 O 0.68689 0.01863 0.67222 0.0
Zn211 Zn 0.69019 0.03911 0.67519 0.0
O212 O 0.70182 0.0496 0.70189 0.0
C213 C 0.71405 0.05333 0.64677 0.0
O214 O 0.71937 0.04873 0.66137 0.0
O215 O 0.67075 0.03729 0.67782 0.0
C216 C 0.70908 0.06363 0.70287 0.0
O217 O 0.70887 0.07098 0.68636 0.0
C218 C 0.695 0.01472 0.68056 0.0
O219 O 0.70612 0.02429 0.69239 0.0
O220 O 0.70117 0.05055 0.64902 0.0
C221 C 0.97448 0.65199 0.69168 0.0
O222 O 0.98107 0.66498 0.70153 0.0
O223 O 0.98171 0.68314 0.66123 0.0
Zn224 Zn 0.9623 0.6661 0.67053 0.0
O225 O 0.95505 0.67123 0.69758 0.0
C226 C 0.94871 0.67039 0.63466 0.0
O227 O 0.95865 0.68423 0.63909 0.0
O228 O 0.96525 0.64937 0.67709 0.0
C229 C 0.94689 0.67652 0.69755 0.0
O230 O 0.94294 0.67911 0.67911 0.0
C231 C 0.9899 0.69488 0.67216 0.0
O232 O 0.98566 0.69676 0.69124 0.0
O233 O 0.94804 0.6603 0.64605 0.0
H234 H 0.2178 0.35967 0.16384 0.0
N235 N 0.21169 0.34528 0.12618 0.0
H236 H 0.22521 0.35358 0.1971 0.0
H237 H 0.21134 0.31978 0.13341 0.0
H238 H 0.2185 0.31349 0.16659 0.0
H239 H 0.20776 0.3246 0.0953 0.0
H240 H 0.22634 0.32629 0.07058 0.0
H241 H 0.23759 0.36877 0.11907 0.0
H242 H 0.25634 0.37049 0.09494 0.0
H243 H 0.20171 0.36203 0.11421 0.0
H244 H 0.18829 0.31679 0.12514 0.0
H245 H 0.17654 0.3545 0.10721 0.0
H246 H 0.16309 0.30922 0.11923 0.0
H247 H 0.10662 0.33585 0.13137 0.0
H248 H 0.09719 0.33668 0.1666 0.0
H249 H 0.08684 0.2923 0.17792 0.0
H250 H 0.09619 0.29143 0.142 0.0
H251 H 0.08242 0.29449 0.09258 0.0
H252 H 0.06883 0.3014 0.06962 0.0
H253 H 0.10447 0.34676 0.07244 0.0
H254 H 0.11809 0.33971 0.09466 0.0
H255 H 0.13011 0.3391 0.12769 0.0
H256 H 0.15542 0.3466 0.12816 0.0
H257 H 0.14487 0.30606 0.09452 0.0
N258 N 0.10726 0.31247 0.1127 0.0
H259 H 0.11917 0.2983 0.09493 0.0
C260 C 0.21408 0.34028 0.14616 0.0
C261 C 0.2177 0.34945 0.16452 0.0
C262 C 0.22187 0.34591 0.1835 0.0
C263 C 0.22252 0.33308 0.18445 0.0
C264 C 0.21829 0.32355 0.16628 0.0
C265 C 0.2141 0.3271 0.14732 0.0
C266 C 0.22135 0.34662 0.10902 0.0
C267 C 0.21822 0.33476 0.0949 0.0
C268 C 0.2289 0.33571 0.0809 0.0
C269 C 0.24289 0.34849 0.08085 0.0
C270 C 0.24567 0.36056 0.09425 0.0
C271 C 0.235 0.35961 0.10814 0.0
C272 C 0.19688 0.34008 0.12053 0.0
C273 C 0.19331 0.35047 0.11504 0.0
C274 C 0.17891 0.34614 0.11122 0.0
C275 C 0.16772 0.33127 0.11298 0.0
C276 C 0.17141 0.32075 0.11759 0.0
C277 C 0.18586 0.32509 0.1212 0.0
C278 C 0.10212 0.31349 0.1339 0.0
C279 C 0.10239 0.32626 0.14128 0.0
C280 C 0.09706 0.32678 0.16163 0.0
C281 C 0.09133 0.31459 0.17514 0.0
C282 C 0.09109 0.30184 0.16782 0.0
C283 C 0.09648 0.30134 0.1474 0.0
C284 C 0.10118 0.31651 0.09558 0.0
C285 C 0.08745 0.30583 0.08765 0.0
C286 C 0.07967 0.30984 0.07471 0.0
C287 C 0.08545 0.32469 0.06954 0.0
C288 C 0.09971 0.33522 0.07602 0.0
C289 C 0.10752 0.33117 0.08888 0.0
C290 C 0.1226 0.31797 0.11143 0.0
C291 C 0.13312 0.33178 0.12033 0.0
C292 C 0.14773 0.33616 0.12039 0.0
C293 C 0.15225 0.32694 0.1114 0.0
C294 C 0.14177 0.31335 0.10188 0.0
C295 C 0.12711 0.30893 0.10194 0.0
H296 H 0.71634 0.80781 0.14755 0.0
N297 N 0.69562 0.80244 0.11967 0.0
H298 H 0.71365 0.79478 0.18089 0.0
H299 H 0.66992 0.78273 0.1391 0.0
H300 H 0.66712 0.77004 0.17243 0.0
H301 H 0.66856 0.78741 0.1012 0.0
H302 H 0.65905 0.76524 0.07813 0.0
H303 H 0.71086 0.79273 0.09971 0.0
H304 H 0.70155 0.7708 0.07622 0.0
H305 H 0.71482 0.82771 0.10202 0.0
H306 H 0.67263 0.80532 0.13185 0.0
H307 H 0.71371 0.84997 0.09927 0.0
H308 H 0.67166 0.82761 0.13004 0.0
H309 H 0.70992 0.92099 0.13829 0.0
H310 H 0.70574 0.92968 0.17295 0.0
H311 H 0.66689 0.88698 0.18174 0.0
H312 H 0.67128 0.87837 0.14733 0.0
H313 H 0.66472 0.88707 0.11492 0.0
H314 H 0.65558 0.89793 0.09068 0.0
H315 H 0.69753 0.92173 0.05978 0.0
H316 H 0.70677 0.91125 0.08494 0.0
H317 H 0.71535 0.89156 0.12441 0.0
H318 H 0.71542 0.86865 0.1232 0.0
H319 H 0.66977 0.84437 0.10713 0.0
N320 N 0.69313 0.89497 0.11884 0.0
H321 H 0.66975 0.86732 0.10915 0.0
C322 C 0.69341 0.79633 0.14082 0.0
C323 C 0.70557 0.79978 0.15319 0.0
C324 C 0.704 0.79234 0.17222 0.0
C325 C 0.69017 0.78126 0.17919 0.0
C326 C 0.67794 0.77834 0.16731 0.0
C327 C 0.67953 0.78575 0.1483 0.0
C328 C 0.69043 0.79161 0.10235 0.0
C329 C 0.6759 0.78406 0.09541 0.0
C330 C 0.67049 0.77141 0.08215 0.0
C331 C 0.67951 0.76615 0.07569 0.0
C332 C 0.69428 0.77444 0.08128 0.0
C333 C 0.69965 0.78702 0.09451 0.0
C334 C 0.69398 0.81493 0.11736 0.0
C335 C 0.70533 0.82762 0.10797 0.0
C336 C 0.7047 0.84034 0.10657 0.0
C337 C 0.69268 0.84067 0.1147 0.0
C338 C 0.68105 0.82774 0.12348 0.0
C339 C 0.68165 0.81497 0.12471 0.0
C340 C 0.691 0.89909 0.14025 0.0
C341 C 0.70064 0.91348 0.1479 0.0
C342 C 0.69816 0.91844 0.16758 0.0
C343 C 0.68592 0.90905 0.18002 0.0
C344 C 0.67648 0.89444 0.17264 0.0
C345 C 0.67897 0.88951 0.15291 0.0
C346 C 0.68656 0.89858 0.10197 0.0
C347 C 0.6719 0.8944 0.10271 0.0
C348 C 0.66664 0.90057 0.08866 0.0
C349 C 0.67588 0.91092 0.07346 0.0
C350 C 0.6902 0.91407 0.07161 0.0
C351 C 0.69548 0.908 0.08581 0.0
C352 C 0.69265 0.88121 0.11674 0.0
C353 C 0.70541 0.88128 0.12049 0.0
C354 C 0.70542 0.86818 0.11965 0.0
C355 C 0.69261 0.85463 0.11491 0.0
C356 C 0.6798 0.85457 0.111 0.0
C357 C 0.67979 0.86773 0.11197 0.0
H358 H 0.12255 0.75829 0.13875 0.0
N359 N 0.12895 0.78331 0.1208 0.0
H360 H 0.10822 0.74739 0.17104 0.0
H361 H 0.12023 0.79717 0.15017 0.0
H362 H 0.1068 0.78684 0.18307 0.0
H363 H 0.1029 0.78115 0.11492 0.0
H364 H 0.08403 0.76433 0.08947 0.0
H365 H 0.13201 0.76883 0.08772 0.0
H366 H 0.11319 0.75204 0.06202 0.0
H367 H 0.15744 0.79542 0.12157 0.0
H368 H 0.12438 0.80592 0.11379 0.0
H369 H 0.1762 0.82144 0.11831 0.0
H370 H 0.1429 0.83205 0.11213 0.0
H371 H 0.22815 0.89374 0.13589 0.0
H372 H 0.23841 0.90442 0.17101 0.0
H373 H 0.20421 0.91327 0.18265 0.0
H374 H 0.19401 0.90267 0.14693 0.0
H375 H 0.21355 0.91672 0.09817 0.0
H376 H 0.23409 0.92915 0.0736 0.0
H377 H 0.23889 0.89129 0.0738 0.0
H378 H 0.21874 0.87924 0.09898 0.0
H379 H 0.20521 0.8693 0.13813 0.0
H380 H 0.18684 0.84337 0.13766 0.0
H381 H 0.16147 0.85122 0.09285 0.0
N382 N 0.20403 0.89138 0.11767 0.0
H383 H 0.17965 0.87765 0.09475 0.0
C384 C 0.12261 0.77855 0.14189 0.0
C385 C 0.11933 0.76466 0.14858 0.0
C386 C 0.11116 0.75847 0.16715 0.0
C387 C 0.10622 0.76617 0.17977 0.0
C388 C 0.1101 0.78042 0.17358 0.0
C389 C 0.11805 0.78648 0.15475 0.0
C390 C 0.11883 0.77609 0.10331 0.0
C391 C 0.10538 0.77515 0.10307 0.0
C392 C 0.09458 0.76549 0.08859 0.0
C393 C 0.09712 0.75678 0.07395 0.0
C394 C 0.11097 0.75867 0.07304 0.0
C395 C 0.12171 0.76822 0.08769 0.0
C396 C 0.13957 0.79875 0.11829 0.0
C397 C 0.15426 0.80341 0.11935 0.0
C398 C 0.16495 0.81832 0.11767 0.0
C399 C 0.16115 0.82901 0.11529 0.0
C400 C 0.14633 0.82422 0.11372 0.0
C401 C 0.13566 0.80924 0.11493 0.0
C402 C 0.21025 0.89742 0.13867 0.0
C403 C 0.22282 0.89798 0.14586 0.0
C404 C 0.22863 0.90399 0.16611 0.0
C405 C 0.22208 0.90962 0.17967 0.0
C406 C 0.20955 0.9091 0.17249 0.0
C407 C 0.20368 0.90301 0.15219 0.0
C408 C 0.21455 0.89709 0.10044 0.0
C409 C 0.21887 0.91101 0.09253 0.0
C410 C 0.23059 0.91806 0.07841 0.0
C411 C 0.23824 0.91127 0.07178 0.0
C412 C 0.2334 0.89695 0.07883 0.0
C413 C 0.22173 0.88995 0.09309 0.0
C414 C 0.19371 0.87563 0.11679 0.0
C415 C 0.19569 0.86561 0.12836 0.0
C416 C 0.18516 0.85058 0.12781 0.0
C417 C 0.17255 0.84505 0.11524 0.0
C418 C 0.17084 0.85504 0.1031 0.0
C419 C 0.18127 0.87015 0.104 0.0
H420 H 0.36772 0.23755 0.86292 0.0
N421 N 0.34841 0.21881 0.89061 0.0
H422 H 0.36303 0.24558 0.82902 0.0
H423 H 0.32181 0.20784 0.87195 0.0
H424 H 0.31697 0.21611 0.83825 0.0
H425 H 0.32533 0.22049 0.90537 0.0
H426 H 0.32647 0.23889 0.93087 0.0
H427 H 0.37088 0.23771 0.91498 0.0
H428 H 0.37214 0.25628 0.94058 0.0
H429 H 0.35644 0.20242 0.86914 0.0
H430 H 0.3277 0.20006 0.91986 0.0
H431 H 0.348 0.17651 0.87367 0.0
H432 H 0.32001 0.17451 0.92555 0.0
H433 H 0.33763 0.11029 0.89371 0.0
H434 H 0.33925 0.09982 0.85919 0.0
H435 H 0.29647 0.0902 0.8424 0.0
H436 H 0.29484 0.10051 0.87735 0.0
H437 H 0.29867 0.08527 0.92434 0.0
H438 H 0.30606 0.07341 0.94986 0.0
H439 H 0.34659 0.11469 0.96012 0.0
H440 H 0.33947 0.12626 0.93419 0.0
H441 H 0.34199 0.13484 0.89863 0.0
H442 H 0.34985 0.16065 0.89592 0.0
H443 H 0.30655 0.15026 0.91228 0.0
N444 N 0.31462 0.11206 0.90857 0.0
H445 H 0.29907 0.12442 0.91649 0.0
C446 C 0.34516 0.22225 0.86995 0.0
C447 C 0.35664 0.23269 0.85742 0.0
C448 C 0.35394 0.23722 0.83811 0.0
C449 C 0.33963 0.23148 0.83107 0.0
C450 C 0.32809 0.22078 0.84342 0.0
C451 C 0.33083 0.21608 0.86264 0.0
C452 C 0.34811 0.2278 0.90815 0.0
C453 C 0.33555 0.2281 0.91317 0.0
C454 C 0.33621 0.23866 0.92774 0.0
C455 C 0.34943 0.24914 0.93755 0.0
C456 C 0.36178 0.24829 0.93342 0.0
C457 C 0.3611 0.23773 0.9188 0.0
C458 C 0.34284 0.20336 0.89405 0.0
C459 C 0.34839 0.19634 0.88137 0.0
C460 C 0.34366 0.18153 0.8842 0.0
C461 C 0.33343 0.17335 0.90023 0.0
C462 C 0.32777 0.18035 0.91289 0.0
C463 C 0.3323 0.19514 0.90972 0.0
C464 C 0.31603 0.10614 0.88813 0.0
C465 C 0.3286 0.10598 0.88261 0.0
C466 C 0.32955 0.10004 0.86279 0.0
C467 C 0.31799 0.09418 0.84802 0.0
C468 C 0.30548 0.09446 0.85352 0.0
C469 C 0.30455 0.1004 0.87338 0.0
C470 C 0.31843 0.10659 0.92688 0.0
C471 C 0.30903 0.09183 0.93242 0.0
C472 C 0.31328 0.08508 0.94712 0.0
C473 C 0.32704 0.09304 0.95688 0.0
C474 C 0.33607 0.10812 0.95249 0.0
C475 C 0.33189 0.11482 0.93759 0.0
C476 C 0.31993 0.12766 0.90817 0.0
C477 C 0.33422 0.1381 0.90206 0.0
C478 C 0.33867 0.15292 0.90019 0.0
C479 C 0.32883 0.15765 0.90363 0.0
C480 C 0.31453 0.14716 0.90982 0.0
C481 C 0.31019 0.13236 0.91216 0.0
H482 H 0.75603 0.13598 0.88184 0.0
N483 N 0.77695 0.13556 0.90293 0.0
H484 H 0.74602 0.12499 0.84643 0.0
H485 H 0.7875 0.12295 0.87479 0.0
H486 H 0.778 0.11252 0.83924 0.0
H487 H 0.7734 0.10828 0.90707 0.0
H488 H 0.7557 0.08875 0.93013 0.0
H489 H 0.76165 0.13825 0.93443 0.0
H490 H 0.74379 0.11869 0.95755 0.0
H491 H 0.79057 0.16467 0.9051 0.0
H492 H 0.79776 0.12867 0.90967 0.0
H493 H 0.81656 0.18232 0.90896 0.0
H494 H 0.82383 0.1461 0.912 0.0
H495 H 0.8868 0.23197 0.89394 0.0
H496 H 0.89857 0.24413 0.86074 0.0
H497 H 0.9081 0.21017 0.8461 0.0
H498 H 0.89628 0.19798 0.87984 0.0
H499 H 0.9092 0.21594 0.92963 0.0
H500 H 0.92164 0.2365 0.95542 0.0
H501 H 0.88438 0.24133 0.95674 0.0
H502 H 0.87234 0.22126 0.93025 0.0
H503 H 0.86321 0.20911 0.88844 0.0
H504 H 0.83748 0.1915 0.88846 0.0
H505 H 0.84372 0.1643 0.93213 0.0
N506 N 0.8843 0.20687 0.90962 0.0
H507 H 0.86995 0.18177 0.93089 0.0
C508 C 0.77255 0.13044 0.88101 0.0
C509 C 0.76097 0.13104 0.87245 0.0
C510 C 0.75531 0.12479 0.85218 0.0
C511 C 0.76118 0.11782 0.83996 0.0
C512 C 0.77307 0.11759 0.84833 0.0
C513 C 0.77865 0.12375 0.86867 0.0
C514 C 0.76877 0.12474 0.91898 0.0
C515 C 0.76728 0.11079 0.9184 0.0
C516 C 0.75707 0.09958 0.9315 0.0
C517 C 0.74824 0.10214 0.94546 0.0
C518 C 0.75049 0.1164 0.94707 0.0
C519 C 0.76065 0.12757 0.93388 0.0
C520 C 0.79224 0.14542 0.90676 0.0
C521 C 0.79781 0.16061 0.90688 0.0
C522 C 0.8127 0.17065 0.90885 0.0
C523 C 0.82242 0.16569 0.91036 0.0
C524 C 0.81673 0.15038 0.91099 0.0
C525 C 0.80177 0.14034 0.90941 0.0
C526 C 0.89061 0.21395 0.88943 0.0
C527 C 0.89133 0.22704 0.88365 0.0
C528 C 0.898 0.23396 0.86452 0.0
C529 C 0.9042 0.22807 0.85074 0.0
C530 C 0.90348 0.215 0.85647 0.0
C531 C 0.89668 0.20799 0.87561 0.0
C532 C 0.88989 0.21702 0.92791 0.0
C533 C 0.90361 0.22124 0.93589 0.0
C534 C 0.91067 0.23297 0.95073 0.0
C535 C 0.90408 0.2407 0.95806 0.0
C536 C 0.8899 0.23581 0.95114 0.0
C537 C 0.8829 0.22417 0.93612 0.0
C538 C 0.86874 0.1967 0.90942 0.0
C539 C 0.85925 0.19935 0.89786 0.0
C540 C 0.84433 0.18927 0.89815 0.0
C541 C 0.83839 0.17643 0.91038 0.0
C542 C 0.84786 0.17392 0.92223 0.0
C543 C 0.86286 0.18393 0.92165 0.0
H544 H 0.80031 0.719 0.88521 0.0
N545 N 0.80218 0.69784 0.90365 0.0
H546 H 0.78733 0.71702 0.85205 0.0
H547 H 0.79046 0.67447 0.8747 0.0
H548 H 0.7778 0.6725 0.84159 0.0
H549 H 0.78172 0.66882 0.91046 0.0
H550 H 0.76071 0.6599 0.93399 0.0
H551 H 0.79849 0.7132 0.93457 0.0
H552 H 0.77767 0.70432 0.9588 0.0
H553 H 0.82855 0.72046 0.91197 0.0
H554 H 0.80473 0.67349 0.89976 0.0
H555 H 0.85111 0.72056 0.91345 0.0
H556 H 0.82723 0.67357 0.89933 0.0
H557 H 0.92061 0.7174 0.88181 0.0
H558 H 0.92914 0.71464 0.84634 0.0
H559 H 0.8879 0.67431 0.83487 0.0
H560 H 0.87937 0.67747 0.8701 0.0
H561 H 0.88695 0.66992 0.90169 0.0
H562 H 0.89797 0.65978 0.92368 0.0
H563 H 0.92359 0.70204 0.9566 0.0
H564 H 0.91278 0.71225 0.93386 0.0
H565 H 0.8903 0.71986 0.88959 0.0
H566 H 0.86747 0.71915 0.89103 0.0
H567 H 0.84659 0.67569 0.91828 0.0
N568 N 0.89536 0.69908 0.90027 0.0
H569 H 0.8692 0.67611 0.91529 0.0
C570 C 0.79643 0.69697 0.88251 0.0
C571 C 0.79566 0.70894 0.87549 0.0
C572 C 0.78826 0.70779 0.85654 0.0
C573 C 0.78143 0.69455 0.84428 0.0
C574 C 0.78276 0.68277 0.85086 0.0
C575 C 0.79015 0.68394 0.86979 0.0
C576 C 0.79161 0.69175 0.92061 0.0
C577 C 0.78114 0.6766 0.9213 0.0
C578 C 0.76911 0.67149 0.93489 0.0
C579 C 0.76739 0.68144 0.94804 0.0
C580 C 0.77853 0.69641 0.94857 0.0
C581 C 0.79049 0.7015 0.93491 0.0
C582 C 0.81502 0.6971 0.9053 0.0
C583 C 0.82824 0.71019 0.9094 0.0
C584 C 0.84114 0.71021 0.91 0.0
C585 C 0.84114 0.69712 0.90606 0.0
C586 C 0.82774 0.68388 0.90254 0.0
C587 C 0.81479 0.68384 0.90242 0.0
C588 C 0.89944 0.69768 0.87856 0.0
C589 C 0.91339 0.70809 0.87146 0.0
C590 C 0.91826 0.7064 0.8513 0.0
C591 C 0.90925 0.69417 0.83783 0.0
C592 C 0.89508 0.68392 0.84475 0.0
C593 C 0.8902 0.68566 0.86493 0.0
C594 C 0.89919 0.69195 0.91599 0.0
C595 C 0.89471 0.67695 0.91391 0.0
C596 C 0.90097 0.67111 0.92665 0.0
C597 C 0.91182 0.68015 0.94172 0.0
C598 C 0.91546 0.69486 0.94486 0.0
C599 C 0.90922 0.70068 0.93205 0.0
C600 C 0.88162 0.69819 0.90246 0.0
C601 C 0.88077 0.71019 0.89589 0.0
C602 C 0.86769 0.7098 0.89694 0.0
C603 C 0.85509 0.69742 0.90502 0.0
C604 C 0.85596 0.68535 0.91171 0.0
C605 C 0.86903 0.68565 0.91023 0.0
H606 H 0.74772 0.6224 0.47235 0.0
N607 N 0.77126 0.64289 0.45225 0.0
H608 H 0.73928 0.62414 0.50848 0.0
H609 H 0.78618 0.6654 0.48197 0.0
H610 H 0.77777 0.66737 0.5176 0.0
H611 H 0.78014 0.67208 0.44914 0.0
H612 H 0.76782 0.68167 0.42892 0.0
H613 H 0.75159 0.62868 0.42165 0.0
H614 H 0.73948 0.63828 0.40061 0.0
H615 H 0.77332 0.61973 0.44252 0.0
H616 H 0.79911 0.66691 0.45192 0.0
H617 H 0.79532 0.61892 0.43797 0.0
H618 H 0.8212 0.66619 0.44934 0.0
H619 H 0.86738 0.62126 0.4673 0.0
H620 H 0.87987 0.62588 0.50192 0.0
H621 H 0.88184 0.66738 0.509 0.0
H622 H 0.86913 0.66256 0.47458 0.0
H623 H 0.88335 0.66823 0.44236 0.0
H624 H 0.90473 0.67707 0.41993 0.0
H625 H 0.88641 0.63342 0.39119 0.0
H626 H 0.86516 0.62449 0.41458 0.0
H627 H 0.83521 0.6191 0.45912 0.0
H628 H 0.81342 0.62035 0.45885 0.0
H629 H 0.8375 0.66293 0.42893 0.0
N630 N 0.86166 0.63925 0.44683 0.0
H631 H 0.85942 0.66199 0.43067 0.0
C632 C 0.76756 0.64368 0.4744 0.0
C633 C 0.75442 0.63211 0.48236 0.0
C634 C 0.74958 0.63319 0.5029 0.0
C635 C 0.75782 0.64594 0.51589 0.0
C636 C 0.77124 0.65732 0.50815 0.0
C637 C 0.77606 0.65622 0.48761 0.0
C638 C 0.76662 0.64957 0.43708 0.0
C639 C 0.77151 0.66469 0.43826 0.0
C640 C 0.76446 0.67019 0.42656 0.0
C641 C 0.75248 0.66069 0.41342 0.0
C642 C 0.74845 0.64583 0.41095 0.0
C643 C 0.75543 0.64034 0.42276 0.0
C644 C 0.78454 0.64326 0.44805 0.0
C645 C 0.78378 0.62991 0.44372 0.0
C646 C 0.7964 0.62949 0.44139 0.0
C647 C 0.81015 0.64245 0.4438 0.0
C648 C 0.81087 0.65596 0.4473 0.0
C649 C 0.79819 0.65638 0.44915 0.0
C650 C 0.86744 0.64157 0.46833 0.0
C651 C 0.87028 0.63121 0.47656 0.0
C652 C 0.87737 0.63385 0.4963 0.0
C653 C 0.88189 0.64703 0.50803 0.0
C654 C 0.8786 0.6572 0.50014 0.0
C655 C 0.87133 0.65445 0.48052 0.0
C656 C 0.87267 0.64557 0.43036 0.0
C657 C 0.88373 0.66059 0.43097 0.0
C658 C 0.89598 0.66569 0.41793 0.0
C659 C 0.89743 0.65592 0.40394 0.0
C660 C 0.8858 0.64119 0.40211 0.0
C661 C 0.87358 0.63608 0.41527 0.0
C662 C 0.84896 0.6403 0.44482 0.0
C663 C 0.83574 0.62867 0.45242 0.0
C664 C 0.82324 0.62938 0.45205 0.0
C665 C 0.82355 0.6417 0.44365 0.0
C666 C 0.83682 0.65334 0.43577 0.0
C667 C 0.84943 0.65274 0.43655 0.0
H668 H 0.37746 0.13 0.47028 0.0
N669 N 0.35921 0.13613 0.45217 0.0
H670 H 0.3744 0.11768 0.50435 0.0
H671 H 0.33823 0.1301 0.48232 0.0
H672 H 0.33514 0.11796 0.5166 0.0
H673 H 0.33073 0.11357 0.45026 0.0
H674 H 0.32073 0.09155 0.42713 0.0
H675 H 0.37223 0.13149 0.41898 0.0
H676 H 0.3623 0.10928 0.3958 0.0
H677 H 0.37771 0.16352 0.46576 0.0
H678 H 0.33615 0.13685 0.43443 0.0
H679 H 0.37522 0.18495 0.46436 0.0
H680 H 0.33403 0.15828 0.43173 0.0
H681 H 0.36803 0.25194 0.46599 0.0
H682 H 0.3667 0.26219 0.50117 0.0
H683 H 0.3295 0.21984 0.51747 0.0
H684 H 0.331 0.20974 0.48272 0.0
H685 H 0.32055 0.21337 0.45058 0.0
H686 H 0.30731 0.22091 0.42831 0.0
H687 H 0.34677 0.25 0.3938 0.0
H688 H 0.35987 0.24204 0.41588 0.0
H689 H 0.3737 0.22413 0.44362 0.0
H690 H 0.37594 0.20245 0.44207 0.0
H691 H 0.32957 0.17447 0.45108 0.0
N692 N 0.34996 0.22503 0.44998 0.0
H693 H 0.32742 0.19607 0.45097 0.0
C694 C 0.35812 0.13094 0.47375 0.0
C695 C 0.36837 0.12765 0.48056 0.0
C696 C 0.36661 0.12065 0.50005 0.0
C697 C 0.35447 0.11676 0.51315 0.0
C698 C 0.3445 0.12063 0.50673 0.0
C699 C 0.3463 0.12767 0.48722 0.0
C700 C 0.35232 0.12422 0.43638 0.0
C701 C 0.33765 0.11289 0.43818 0.0
C702 C 0.33195 0.10024 0.425 0.0
C703 C 0.34077 0.09859 0.40982 0.0
C704 C 0.35519 0.11026 0.40722 0.0
C705 C 0.36089 0.12294 0.42044 0.0
C706 C 0.35725 0.1485 0.45025 0.0
C707 C 0.36813 0.16232 0.45834 0.0
C708 C 0.36673 0.17461 0.45731 0.0
C709 C 0.35445 0.17346 0.44776 0.0
C710 C 0.34355 0.15961 0.4395 0.0
C711 C 0.34484 0.14724 0.4409 0.0
C712 C 0.34973 0.2301 0.47166 0.0
C713 C 0.35976 0.24485 0.47735 0.0
C714 C 0.35891 0.25069 0.49735 0.0
C715 C 0.34796 0.24183 0.51207 0.0
C716 C 0.33817 0.22691 0.50661 0.0
C717 C 0.33901 0.22111 0.4866 0.0
C718 C 0.34127 0.22714 0.43483 0.0
C719 C 0.32629 0.22101 0.43783 0.0
C720 C 0.31874 0.22548 0.4252 0.0
C721 C 0.326 0.23619 0.40941 0.0
C722 C 0.34079 0.24163 0.40564 0.0
C723 C 0.34831 0.23713 0.41825 0.0
C724 C 0.35049 0.21181 0.44767 0.0
C725 C 0.36403 0.21326 0.44497 0.0
C726 C 0.36528 0.20085 0.44435 0.0
C727 C 0.35297 0.18662 0.44681 0.0
C728 C 0.3393 0.18517 0.44894 0.0
C729 C 0.33805 0.19761 0.44914 0.0
H730 H 0.80671 0.10891 0.49431 0.0
N731 N 0.8 0.11725 0.45863 0.0
H732 H 0.79252 0.10044 0.52757 0.0
H733 H 0.77513 0.11726 0.46784 0.0
H734 H 0.76104 0.10902 0.50096 0.0
H735 H 0.78425 0.1231 0.43082 0.0
H736 H 0.76745 0.1061 0.40322 0.0
H737 H 0.79675 0.09189 0.44519 0.0
H738 H 0.77995 0.07478 0.41778 0.0
H739 H 0.82746 0.12808 0.44792 0.0
H740 H 0.79649 0.14101 0.46188 0.0
H741 H 0.84664 0.15401 0.44453 0.0
H742 H 0.81561 0.16691 0.45938 0.0
H743 H 0.90187 0.22577 0.47368 0.0
H744 H 0.91198 0.23455 0.50941 0.0
H745 H 0.87639 0.24052 0.52581 0.0
H746 H 0.86667 0.23232 0.48929 0.0
H747 H 0.89042 0.25154 0.44379 0.0
H748 H 0.91198 0.26452 0.42137 0.0
H749 H 0.9109 0.22369 0.40983 0.0
H750 H 0.88997 0.21106 0.43318 0.0
H751 H 0.87922 0.20049 0.47032 0.0
H752 H 0.86002 0.17466 0.46848 0.0
H753 H 0.83238 0.1863 0.43612 0.0
N754 N 0.87761 0.22403 0.45715 0.0
H755 H 0.85167 0.21242 0.4388 0.0
C756 C 0.79201 0.11365 0.47857 0.0
C757 C 0.79683 0.10911 0.49582 0.0
C758 C 0.78874 0.10434 0.5148 0.0
C759 C 0.77561 0.104 0.51685 0.0
C760 C 0.771 0.10897 0.49976 0.0
C761 C 0.77912 0.11377 0.48082 0.0
C762 C 0.79171 0.10868 0.44012 0.0
C763 C 0.78357 0.11271 0.42779 0.0
C764 C 0.77392 0.10295 0.41208 0.0
C765 C 0.77231 0.08906 0.40838 0.0
C766 C 0.78105 0.08545 0.42 0.0
C767 C 0.79061 0.09516 0.43572 0.0
C768 C 0.81064 0.13259 0.45541 0.0
C769 C 0.82482 0.13654 0.4502 0.0
C770 C 0.83576 0.15135 0.44843 0.0
C771 C 0.83271 0.16258 0.45195 0.0
C772 C 0.81833 0.15856 0.4564 0.0
C773 C 0.80737 0.14371 0.45803 0.0
C774 C 0.88355 0.22858 0.47865 0.0
C775 C 0.89623 0.22901 0.48485 0.0
C776 C 0.90194 0.2339 0.50549 0.0
C777 C 0.89501 0.23825 0.5206 0.0
C778 C 0.88215 0.23748 0.51451 0.0
C779 C 0.87652 0.23273 0.49373 0.0
C780 C 0.88848 0.23036 0.44038 0.0
C781 C 0.89468 0.24535 0.43605 0.0
C782 C 0.90701 0.25274 0.42312 0.0
C783 C 0.91335 0.24522 0.41389 0.0
C784 C 0.90656 0.22995 0.41706 0.0
C785 C 0.89436 0.22262 0.43031 0.0
C786 C 0.86683 0.20848 0.45486 0.0
C787 C 0.86907 0.19757 0.46284 0.0
C788 C 0.85808 0.18271 0.46155 0.0
C789 C 0.84462 0.17836 0.45215 0.0
C790 C 0.84254 0.18927 0.44372 0.0
C791 C 0.85355 0.20417 0.4451 0.0
H792 H 0.01286 0.56844 0.2183 0.0
N793 N 0.98947 0.54398 0.23546 0.0
H794 H 0.01358 0.57961 0.1842 0.0
H795 H 0.96867 0.53365 0.20575 0.0
H796 H 0.96928 0.54485 0.17139 0.0
H797 H 0.97454 0.55613 0.24828 0.0
H798 H 0.98264 0.5777 0.27173 0.0
H799 H 0.01384 0.55672 0.26212 0.0
H800 H 0.02151 0.57757 0.28648 0.0
H801 H 0.0166 0.54923 0.22571 0.0
H802 H 0.97385 0.51589 0.24662 0.0
H803 H 0.02439 0.53166 0.22673 0.0
H804 H 0.98128 0.49777 0.2464 0.0
H805 H 0.03856 0.46804 0.20343 0.0
H806 H 0.03208 0.45344 0.16982 0.0
H807 H 0.98712 0.43948 0.17985 0.0
H808 H 0.99375 0.45416 0.21353 0.0
H809 H 0.9966 0.44722 0.2488 0.0
H810 H 0.99607 0.43017 0.2747 0.0
H811 H 0.04294 0.4559 0.27784 0.0
H812 H 0.04322 0.47332 0.25276 0.0
H813 H 0.02988 0.49379 0.20688 0.0
H814 H 0.02226 0.51158 0.20812 0.0
H815 H 0.99507 0.48965 0.26303 0.0
N816 N 0.02094 0.47041 0.23098 0.0
H817 H 0.00204 0.47142 0.26089 0.0
C818 C 0.99069 0.55008 0.21449 0.0
C819 C 0.00341 0.563 0.20797 0.0
C820 C 0.0038 0.56941 0.18846 0.0
C821 C 0.99148 0.56312 0.17511 0.0
C822 C 0.97889 0.55002 0.18143 0.0
C823 C 0.97855 0.54356 0.20092 0.0
C824 C 0.99353 0.55477 0.25289 0.0
C825 C 0.98471 0.56062 0.25685 0.0
C826 C 0.98936 0.57296 0.27042 0.0
C827 C 0.00289 0.57961 0.28088 0.0
C828 C 0.01124 0.57306 0.27822 0.0
C829 C 0.00673 0.56091 0.26424 0.0
C830 C 0.99459 0.5339 0.2363 0.0
C831 C 0.00882 0.53808 0.23041 0.0
C832 C 0.01324 0.52791 0.23083 0.0
C833 C 0.00347 0.51318 0.2365 0.0
C834 C 0.98922 0.50904 0.24231 0.0
C835 C 0.98489 0.51933 0.24231 0.0
C836 C 0.01668 0.46214 0.2109 0.0
C837 C 0.02734 0.46189 0.19825 0.0
C838 C 0.02361 0.45361 0.17905 0.0
C839 C 0.00909 0.44535 0.17217 0.0
C840 C 0.99837 0.44564 0.18485 0.0
C841 C 0.00214 0.45402 0.20405 0.0
C842 C 0.02 0.46169 0.24901 0.0
C843 C 0.00673 0.44944 0.25555 0.0
C844 C 0.00647 0.43957 0.27021 0.0
C845 C 0.01947 0.44149 0.27822 0.0
C846 C 0.03268 0.45412 0.27233 0.0
C847 C 0.0329 0.4641 0.25794 0.0
C848 C 0.01655 0.48109 0.23353 0.0
C849 C 0.02225 0.4928 0.21917 0.0
C850 C 0.01795 0.50308 0.22006 0.0
C851 C 0.00804 0.50216 0.23575 0.0
C852 C 0.00251 0.49058 0.25046 0.0
C853 C 0.00661 0.4801 0.2493 0.0
H854 H 0.58196 0.54341 0.22534 0.0
N855 N 0.55733 0.53679 0.24464 0.0
H856 H 0.59109 0.55533 0.1907 0.0
H857 H 0.54237 0.54296 0.21588 0.0
H858 H 0.55128 0.55468 0.18111 0.0
H859 H 0.55048 0.55817 0.24907 0.0
H860 H 0.56265 0.57996 0.2727 0.0
H861 H 0.57519 0.54145 0.27683 0.0
H862 H 0.58741 0.56328 0.3008 0.0
H863 H 0.55187 0.50968 0.23875 0.0
H864 H 0.53102 0.53389 0.25436 0.0
H865 H 0.5284 0.48661 0.23889 0.0
H866 H 0.50757 0.51086 0.25552 0.0
H867 H 0.46849 0.42784 0.20358 0.0
H868 H 0.45711 0.42043 0.16792 0.0
H869 H 0.4329 0.44141 0.18305 0.0
H870 H 0.444 0.44838 0.21863 0.0
H871 H 0.44917 0.4531 0.258 0.0
H872 H 0.4273 0.43932 0.28007 0.0
H873 H 0.42938 0.40008 0.27105 0.0
H874 H 0.45111 0.41389 0.2489 0.0
H875 H 0.48653 0.44591 0.25464 0.0
H876 H 0.50924 0.46946 0.26049 0.0
H877 H 0.49013 0.4921 0.23222 0.0
N878 N 0.46272 0.44117 0.23543 0.0
H879 H 0.46734 0.46867 0.22762 0.0
C880 C 0.56155 0.54231 0.22317 0.0
C881 C 0.57516 0.54567 0.21557 0.0
C882 C 0.58031 0.55242 0.19577 0.0
C883 C 0.57193 0.556 0.18318 0.0
C884 C 0.55808 0.55224 0.19056 0.0
C885 C 0.55292 0.54545 0.21038 0.0
C886 C 0.56194 0.54812 0.2612 0.0
C887 C 0.55818 0.55892 0.26072 0.0
C888 C 0.56516 0.57142 0.27429 0.0
C889 C 0.5761 0.57341 0.28846 0.0
C890 C 0.57916 0.56214 0.28985 0.0
C891 C 0.57213 0.54962 0.27634 0.0
C892 C 0.5433 0.52349 0.24668 0.0
C893 C 0.54223 0.50996 0.24262 0.0
C894 C 0.52879 0.49678 0.24287 0.0
C895 C 0.51602 0.4968 0.24737 0.0
C896 C 0.51713 0.51041 0.25178 0.0
C897 C 0.53061 0.52364 0.25132 0.0
C898 C 0.45715 0.43864 0.21376 0.0
C899 C 0.46089 0.431 0.19899 0.0
C900 C 0.4544 0.42683 0.17865 0.0
C901 C 0.44401 0.43023 0.1727 0.0
C902 C 0.44069 0.4384 0.18725 0.0
C903 C 0.44715 0.44253 0.20758 0.0
C904 C 0.45172 0.43444 0.25176 0.0
C905 C 0.44512 0.44164 0.26121 0.0
C906 C 0.43263 0.43376 0.27383 0.0
C907 C 0.42655 0.41858 0.27701 0.0
C908 C 0.43371 0.4117 0.2686 0.0
C909 C 0.44616 0.41958 0.25613 0.0
C910 C 0.47533 0.45544 0.24038 0.0
C911 C 0.48723 0.45601 0.25003 0.0
C912 C 0.50022 0.46948 0.25316 0.0
C913 C 0.50166 0.48271 0.24645 0.0
C914 C 0.48945 0.48218 0.23768 0.0
C915 C 0.47638 0.46869 0.23482 0.0
H916 H 0.53553 0.95853 0.20195 0.0
N917 N 0.53152 0.97712 0.22595 0.0
H918 H 0.55033 0.96394 0.16936 0.0
H919 H 0.54556 0.00346 0.20512 0.0
H920 H 0.5602 0.00887 0.17225 0.0
H921 H 0.55469 0.00281 0.24188 0.0
H922 H 0.57237 0.00493 0.26801 0.0
H923 H 0.52962 0.95571 0.24944 0.0
H924 H 0.54754 0.95753 0.27485 0.0
H925 H 0.51017 0.97118 0.19888 0.0
H926 H 0.52968 0.99451 0.2588 0.0
H927 H 0.49299 0.97934 0.20114 0.0
H928 H 0.51219 0.00208 0.26148 0.0
H929 H 0.4358 0.98666 0.2161 0.0
H930 H 0.42474 0.98632 0.18215 0.0
H931 H 0.45853 0.03169 0.17226 0.0
H932 H 0.46969 0.03195 0.20661 0.0
H933 H 0.45155 0.02707 0.25356 0.0
H934 H 0.43036 0.01911 0.27652 0.0
H935 H 0.42382 0.97545 0.27816 0.0
H936 H 0.44458 0.98328 0.25478 0.0
H937 H 0.45507 0.98313 0.22088 0.0
H938 H 0.47243 0.9753 0.22021 0.0
H939 H 0.50521 0.01786 0.24658 0.0
N940 N 0.46002 0.01022 0.23464 0.0
H941 H 0.48736 0.02539 0.24815 0.0
C942 C 0.53935 0.9805 0.20583 0.0
C943 C 0.54079 0.9695 0.19542 0.0
C944 C 0.5493 0.97263 0.17695 0.0
C945 C 0.55642 0.98683 0.16839 0.0
C946 C 0.55474 0.99782 0.1785 0.0
C947 C 0.54639 0.99474 0.19723 0.0
C948 C 0.54076 0.97906 0.24387 0.0
C949 C 0.55289 0.99294 0.24945 0.0
C950 C 0.56307 0.9941 0.26424 0.0
C951 C 0.56152 0.98138 0.2734 0.0
C952 C 0.54904 0.9676 0.26842 0.0
C953 C 0.53877 0.9665 0.25385 0.0
C954 C 0.52162 0.98242 0.2282 0.0
C955 C 0.51082 0.97808 0.21249 0.0
C956 C 0.50086 0.98263 0.21394 0.0
C957 C 0.50116 0.99139 0.23152 0.0
C958 C 0.51181 0.99559 0.24749 0.0
C959 C 0.52191 0.99118 0.24591 0.0
C960 C 0.45372 0.00936 0.21388 0.0
C961 C 0.44104 0.99648 0.20655 0.0
C962 C 0.4347 0.99629 0.18706 0.0
C963 C 0.44079 0.00896 0.17448 0.0
C964 C 0.45355 0.02179 0.18167 0.0
C965 C 0.45997 0.02193 0.20117 0.0
C966 C 0.44971 0.00588 0.25214 0.0
C967 C 0.44577 0.0159 0.25937 0.0
C968 C 0.43365 0.01131 0.27256 0.0
C969 C 0.42523 0.99655 0.27894 0.0
C970 C 0.42987 0.98681 0.27314 0.0
C971 C 0.44192 0.99137 0.2598 0.0
C972 C 0.46987 0.00492 0.23473 0.0
C973 C 0.4659 0.99079 0.22674 0.0
C974 C 0.47596 0.98634 0.22616 0.0
C975 C 0.49031 0.99598 0.23316 0.0
C976 C 0.49422 0.01006 0.24131 0.0
C977 C 0.48407 0.01443 0.24213 0.0
H978 H 0.41238 0.96112 0.80199 0.0
N979 N 0.43839 0.97937 0.78552 0.0
H980 H 0.40318 0.96287 0.83744 0.0
H981 H 0.45399 0.99962 0.81746 0.0
H982 H 0.44498 0.00138 0.8531 0.0
H983 H 0.44712 0.00866 0.78632 0.0
H984 H 0.43776 0.02016 0.76371 0.0
H985 H 0.42227 0.96775 0.75028 0.0
H986 H 0.41321 0.97935 0.72687 0.0
H987 H 0.44318 0.95863 0.79759 0.0
H988 H 0.46477 0.00194 0.77027 0.0
H989 H 0.46585 0.95903 0.79689 0.0
H990 H 0.48718 0.00198 0.76788 0.0
H991 H 0.53405 0.95834 0.79926 0.0
H992 H 0.54698 0.96017 0.83247 0.0
H993 H 0.55486 0.0039 0.84487 0.0
H994 H 0.542 0.00201 0.81197 0.0
H995 H 0.55291 0.00792 0.77762 0.0
H996 H 0.57242 0.01693 0.75135 0.0
H997 H 0.55118 0.97373 0.72026 0.0
H998 H 0.53208 0.96464 0.74755 0.0
H999 H 0.50421 0.95654 0.77619 0.0
H1000 H 0.48185 0.95681 0.77516 0.0
H1001 H 0.5066 0.00414 0.78634 0.0
N1002 N 0.53094 0.97913 0.78214 0.0
H1003 H 0.5289 0.00378 0.78528 0.0
C1004 C 0.43379 0.98018 0.80713 0.0
C1005 C 0.41956 0.96983 0.81321 0.0
C1006 C 0.41437 0.97082 0.83348 0.0
C1007 C 0.42335 0.98227 0.8481 0.0
C1008 C 0.43774 0.99253 0.84211 0.0
C1009 C 0.44293 0.9915 0.82182 0.0
C1010 C 0.43523 0.98723 0.77011 0.0
C1011 C 0.43988 0.00222 0.77323 0.0
C1012 C 0.43459 0.00884 0.76012 0.0
C1013 C 0.42458 0.00064 0.74359 0.0
C1014 C 0.42068 0.98591 0.73971 0.0
C1015 C 0.42593 0.97929 0.7529 0.0
C1016 C 0.45209 0.98011 0.78388 0.0
C1017 C 0.45278 0.96814 0.79112 0.0
C1018 C 0.46577 0.96835 0.79048 0.0
C1019 C 0.47845 0.98047 0.78206 0.0
C1020 C 0.47776 0.99251 0.77474 0.0
C1021 C 0.46478 0.99243 0.77587 0.0
C1022 C 0.53705 0.97999 0.80301 0.0
C1023 C 0.53837 0.9682 0.80938 0.0
C1024 C 0.54573 0.96926 0.82833 0.0
C1025 C 0.55203 0.98223 0.84115 0.0
C1026 C 0.55028 0.99385 0.83514 0.0
C1027 C 0.54283 0.99273 0.8163 0.0
C1028 C 0.54117 0.98548 0.76476 0.0
C1029 C 0.55235 0.00041 0.76507 0.0
C1030 C 0.56349 0.0056 0.74983 0.0
C1031 C 0.56355 0.99601 0.73381 0.0
C1032 C 0.55172 0.98135 0.73267 0.0
C1033 C 0.54071 0.97614 0.74809 0.0
C1034 C 0.51815 0.98002 0.78132 0.0
C1035 C 0.50474 0.96695 0.77829 0.0
C1036 C 0.49196 0.96715 0.77795 0.0
C1037 C 0.49226 0.98047 0.78112 0.0
C1038 C 0.50584 0.99366 0.78372 0.0
C1039 C 0.51867 0.99346 0.78353 0.0
H1040 H 0.98986 0.54422 0.81392 0.0
N1041 N 0.01165 0.55583 0.784 0.0
H1042 H 0.99027 0.55481 0.84924 0.0
H1043 H 0.0344 0.57844 0.80368 0.0
H1044 H 0.03537 0.58858 0.83983 0.0
H1045 H 0.026 0.57179 0.75011 0.0
H1046 H 0.0193 0.58571 0.7272 0.0
H1047 H 0.98541 0.5542 0.784 0.0
H1048 H 0.97888 0.56823 0.76186 0.0
H1049 H 0.98439 0.53206 0.77396 0.0
H1050 H 0.02828 0.54469 0.7888 0.0
H1051 H 0.97718 0.50628 0.77249 0.0
H1052 H 0.021 0.51874 0.78843 0.0
H1053 H 0.96107 0.42957 0.81549 0.0
H1054 H 0.96532 0.42146 0.84965 0.0
H1055 H 0.01114 0.45367 0.84444 0.0
H1056 H 0.00674 0.46193 0.81047 0.0
H1057 H 0.00517 0.44911 0.77775 0.0
H1058 H 0.00601 0.43126 0.75345 0.0
H1059 H 0.96076 0.41238 0.73805 0.0
H1060 H 0.96001 0.43047 0.76244 0.0
H1061 H 0.96558 0.46175 0.79929 0.0
H1062 H 0.9729 0.48756 0.79621 0.0
H1063 H 0.01348 0.49705 0.76762 0.0
N1064 N 0.98073 0.44941 0.78927 0.0
H1065 H 0.00632 0.47141 0.77177 0.0
C1066 C 0.01207 0.56074 0.80599 0.0
C1067 C 0.99981 0.55393 0.81942 0.0
C1068 C 1.00015 0.55994 0.83983 0.0
C1069 C 0.01284 0.5727 0.8475 0.0
C1070 C 0.02528 0.57901 0.83436 0.0
C1071 C 0.02483 0.57315 0.81378 0.0
C1072 C 0.00633 0.56198 0.76884 0.0
C1073 C 0.01556 0.57073 0.75236 0.0
C1074 C 0.01176 0.57876 0.73944 0.0
C1075 C 0.99859 0.5782 0.7428 0.0
C1076 C 0.98902 0.56882 0.75861 0.0
C1077 C 0.99282 0.5608 0.77147 0.0
C1078 C 0.00701 0.54045 0.78133 0.0
C1079 C 0.99255 0.52937 0.77677 0.0
C1080 C 0.98837 0.51451 0.77616 0.0
C1081 C 0.99846 0.51033 0.78045 0.0
C1082 C 0.01295 0.52147 0.78467 0.0
C1083 C 0.01714 0.53633 0.78501 0.0
C1084 C 0.98354 0.44623 0.81041 0.0
C1085 C 0.97198 0.43504 0.82196 0.0
C1086 C 0.97443 0.43046 0.84143 0.0
C1087 C 0.98857 0.4369 0.84962 0.0
C1088 C 1.00015 0.44843 0.83836 0.0
C1089 C 0.99764 0.45316 0.81899 0.0
C1090 C 0.98244 0.4411 0.77201 0.0
C1091 C 0.9955 0.44143 0.76881 0.0
C1092 C 0.99596 0.43112 0.75498 0.0
C1093 C 0.98341 0.4203 0.74405 0.0
C1094 C 0.97063 0.42063 0.74614 0.0
C1095 C 0.97018 0.43094 0.76005 0.0
C1096 C 0.98527 0.46456 0.78567 0.0
C1097 C 0.97601 0.46942 0.79223 0.0
C1098 C 0.98019 0.48417 0.7903 0.0
C1099 C 0.99378 0.49446 0.78155 0.0
C1100 C 0.00301 0.48951 0.77467 0.0
C1101 C 0.99886 0.47474 0.77686 0.0
H1102 H 0.44957 0.43959 0.79784 0.0
N1103 N 0.45126 0.46463 0.78381 0.0
H1104 H 0.43909 0.42727 0.83161 0.0
H1105 H 0.44067 0.47353 0.81562 0.0
H1106 H 0.43002 0.46113 0.84967 0.0
H1107 H 0.42462 0.45473 0.76988 0.0
H1108 H 0.41023 0.43393 0.74524 0.0
H1109 H 0.46204 0.45134 0.75663 0.0
H1110 H 0.44797 0.4311 0.73154 0.0
H1111 H 0.473 0.45908 0.79072 0.0
H1112 H 0.46457 0.49328 0.77613 0.0
H1113 H 0.49881 0.47685 0.79068 0.0
H1114 H 0.49058 0.51159 0.77777 0.0
H1115 H 0.5774 0.54056 0.82224 0.0
H1116 H 0.58473 0.55425 0.85664 0.0
H1117 H 0.55363 0.56746 0.84745 0.0
H1118 H 0.54644 0.55376 0.81292 0.0
H1119 H 0.55969 0.5634 0.77953 0.0
H1120 H 0.57795 0.58093 0.75485 0.0
H1121 H 0.59514 0.55248 0.74665 0.0
H1122 H 0.57654 0.53481 0.77103 0.0
H1123 H 0.54244 0.51334 0.81455 0.0
H1124 H 0.5166 0.49545 0.81147 0.0
H1125 H 0.51337 0.52156 0.76215 0.0
N1126 N 0.55802 0.53857 0.7945 0.0
H1127 H 0.53899 0.5399 0.76651 0.0
C1128 C 0.44601 0.45761 0.80428 0.0
C1129 C 0.44561 0.44456 0.80919 0.0
C1130 C 0.43959 0.4375 0.82853 0.0
C1131 C 0.43375 0.44324 0.8433 0.0
C1132 C 0.43434 0.45639 0.83852 0.0
C1133 C 0.44048 0.46352 0.8192 0.0
C1134 C 0.44438 0.45464 0.76557 0.0
C1135 C 0.42986 0.44983 0.76118 0.0
C1136 C 0.42166 0.43793 0.747 0.0
C1137 C 0.42787 0.43064 0.73662 0.0
C1138 C 0.44272 0.43619 0.73971 0.0
C1139 C 0.45087 0.44797 0.75411 0.0
C1140 C 0.46676 0.4748 0.78306 0.0
C1141 C 0.47667 0.47044 0.78748 0.0
C1142 C 0.49155 0.48074 0.78775 0.0
C1143 C 0.49693 0.49579 0.78444 0.0
C1144 C 0.48696 0.50011 0.78002 0.0
C1145 C 0.47206 0.48969 0.77921 0.0
C1146 C 0.56144 0.54616 0.81512 0.0
C1147 C 0.57211 0.54633 0.82779 0.0
C1148 C 0.57621 0.55409 0.84744 0.0
C1149 C 0.56971 0.56189 0.85479 0.0
C1150 C 0.55891 0.56165 0.84212 0.0
C1151 C 0.55477 0.55381 0.82245 0.0
C1152 C 0.56676 0.54775 0.7771 0.0
C1153 C 0.56715 0.56075 0.77203 0.0
C1154 C 0.57769 0.57084 0.75802 0.0
C1155 C 0.58813 0.56821 0.74898 0.0
C1156 C 0.58719 0.55481 0.75315 0.0
C1157 C 0.5766 0.5447 0.76709 0.0
C1158 C 0.5428 0.52797 0.79083 0.0
C1159 C 0.53614 0.51518 0.80305 0.0
C1160 C 0.52133 0.50487 0.80109 0.0
C1161 C 0.51278 0.5069 0.78637 0.0
C1162 C 0.5195 0.51968 0.77388 0.0
C1163 C 0.53432 0.53019 0.77623 0.0
H1164 H 0.70256 0.90881 0.54171 0.0
N1165 N 0.68195 0.89159 0.56923 0.0
H1166 H 0.69957 0.91719 0.50686 0.0
H1167 H 0.65612 0.88302 0.54938 0.0
H1168 H 0.65304 0.89134 0.51477 0.0
H1169 H 0.65933 0.8942 0.58346 0.0
H1170 H 0.66103 0.91272 0.60915 0.0
H1171 H 0.70401 0.90861 0.59532 0.0
H1172 H 0.70564 0.92661 0.62223 0.0
H1173 H 0.69893 0.88065 0.56907 0.0
H1174 H 0.65452 0.86854 0.57758 0.0
H1175 H 0.69176 0.85485 0.57191 0.0
H1176 H 0.64697 0.84253 0.57887 0.0
H1177 H 0.6728 0.78452 0.5494 0.0
H1178 H 0.67172 0.77356 0.51432 0.0
H1179 H 0.62702 0.76123 0.50754 0.0
H1180 H 0.62807 0.77202 0.54347 0.0
H1181 H 0.63642 0.7594 0.59073 0.0
H1182 H 0.6469 0.74814 0.61173 0.0
H1183 H 0.68904 0.78811 0.60739 0.0
H1184 H 0.6786 0.79914 0.58607 0.0
H1185 H 0.67329 0.80789 0.54899 0.0
H1186 H 0.68032 0.83347 0.55053 0.0
H1187 H 0.6468 0.8234 0.59769 0.0
N1188 N 0.65056 0.78491 0.57064 0.0
H1189 H 0.63917 0.79728 0.59501 0.0
C1190 C 0.67964 0.89537 0.5482 0.0
C1191 C 0.69173 0.90485 0.53576 0.0
C1192 C 0.68999 0.90957 0.51587 0.0
C1193 C 0.67606 0.90495 0.50813 0.0
C1194 C 0.66391 0.89521 0.52044 0.0
C1195 C 0.66567 0.8904 0.54025 0.0
C1196 C 0.68169 0.90029 0.58714 0.0
C1197 C 0.66943 0.90114 0.59194 0.0
C1198 C 0.6704 0.9117 0.60688 0.0
C1199 C 0.68358 0.92142 0.61756 0.0
C1200 C 0.69545 0.91965 0.61389 0.0
C1201 C 0.69452 0.90926 0.59872 0.0
C1202 C 0.67727 0.87644 0.57267 0.0
C1203 C 0.6876 0.87235 0.57148 0.0
C1204 C 0.68343 0.85757 0.57288 0.0
C1205 C 0.66872 0.84649 0.57513 0.0
C1206 C 0.6584 0.85072 0.57718 0.0
C1207 C 0.66266 0.8656 0.57614 0.0
C1208 C 0.65043 0.77906 0.54926 0.0
C1209 C 0.66272 0.77949 0.54054 0.0
C1210 C 0.66214 0.77332 0.52024 0.0
C1211 C 0.64931 0.7666 0.50802 0.0
C1212 C 0.63704 0.76624 0.51662 0.0
C1213 C 0.63764 0.77246 0.53705 0.0
C1214 C 0.65662 0.78005 0.5867 0.0
C1215 C 0.64784 0.76586 0.59484 0.0
C1216 C 0.65386 0.75946 0.60687 0.0
C1217 C 0.66885 0.76717 0.61103 0.0
C1218 C 0.67749 0.7818 0.60416 0.0
C1219 C 0.67147 0.78818 0.59211 0.0
C1220 C 0.65544 0.80044 0.57168 0.0
C1221 C 0.66727 0.81099 0.55953 0.0
C1222 C 0.67147 0.82581 0.56068 0.0
C1223 C 0.6642 0.83062 0.57433 0.0
C1224 C 0.65253 0.82011 0.58676 0.0
C1225 C 0.64821 0.80519 0.58537 0.0
H1226 H 0.25015 0.88012 0.55675 0.0
N1227 N 0.22533 0.87311 0.57582 0.0
H1228 H 0.25967 0.89289 0.52278 0.0
H1229 H 0.2107 0.87999 0.54751 0.0
H1230 H 0.22003 0.89261 0.51338 0.0
H1231 H 0.22134 0.89648 0.57988 0.0
H1232 H 0.23395 0.91732 0.60488 0.0
H1233 H 0.24049 0.87473 0.61023 0.0
H1234 H 0.25259 0.89526 0.63637 0.0
H1235 H 0.21738 0.846 0.5631 0.0
H1236 H 0.20045 0.87145 0.5911 0.0
H1237 H 0.19321 0.82394 0.56332 0.0
H1238 H 0.1764 0.84927 0.59288 0.0
H1239 H 0.1232 0.75737 0.5515 0.0
H1240 H 0.11265 0.74784 0.51568 0.0
H1241 H 0.10826 0.78553 0.50777 0.0
H1242 H 0.11883 0.79495 0.54326 0.0
H1243 H 0.10733 0.79008 0.57776 0.0
H1244 H 0.08551 0.77775 0.59997 0.0
H1245 H 0.09944 0.74956 0.62476 0.0
H1246 H 0.12097 0.76165 0.60182 0.0
H1247 H 0.15171 0.78365 0.58114 0.0
H1248 H 0.17554 0.80614 0.58475 0.0
H1249 H 0.15623 0.83212 0.57301 0.0
N1250 N 0.12681 0.78129 0.57192 0.0
H1251 H 0.13237 0.80957 0.57138 0.0
C1252 C 0.22979 0.87912 0.55463 0.0
C1253 C 0.24346 0.88263 0.54714 0.0
C1254 C 0.24884 0.88987 0.52773 0.0
C1255 C 0.24062 0.8938 0.51541 0.0
C1256 C 0.22669 0.88988 0.52263 0.0
C1257 C 0.2213 0.88259 0.54205 0.0
C1258 C 0.23022 0.88413 0.59293 0.0
C1259 C 0.22801 0.89602 0.59226 0.0
C1260 C 0.23516 0.90793 0.6068 0.0
C1261 C 0.24452 0.90814 0.62252 0.0
C1262 C 0.24578 0.89568 0.62415 0.0
C1263 C 0.23876 0.88385 0.60941 0.0
C1264 C 0.21085 0.86034 0.57727 0.0
C1265 C 0.20845 0.84674 0.56966 0.0
C1266 C 0.1946 0.8341 0.57001 0.0
C1267 C 0.18275 0.83467 0.57841 0.0
C1268 C 0.18517 0.84836 0.5861 0.0
C1269 C 0.19904 0.86111 0.58532 0.0
C1270 C 0.1219 0.77687 0.55005 0.0
C1271 C 0.12014 0.76364 0.54185 0.0
C1272 C 0.11403 0.75819 0.5215 0.0
C1273 C 0.10959 0.76592 0.50894 0.0
C1274 C 0.11174 0.77941 0.51695 0.0
C1275 C 0.11778 0.78481 0.53734 0.0
C1276 C 0.11566 0.77661 0.58799 0.0
C1277 C 0.10584 0.78146 0.58827 0.0
C1278 C 0.09337 0.77443 0.60109 0.0
C1279 C 0.0906 0.76249 0.61387 0.0
C1280 C 0.10108 0.7585 0.61475 0.0
C1281 C 0.11345 0.76546 0.60185 0.0
C1282 C 0.14037 0.7949 0.5755 0.0
C1283 C 0.15267 0.79425 0.57964 0.0
C1284 C 0.1663 0.80714 0.58143 0.0
C1285 C 0.16798 0.82105 0.57864 0.0
C1286 C 0.15546 0.82168 0.5753 0.0
C1287 C 0.14175 0.80873 0.57401 0.0
H1288 H 0.21982 0.33317 0.54134 0.0
N1289 N 0.22634 0.35848 0.56363 0.0
H1290 H 0.23032 0.33164 0.50719 0.0
H1291 H 0.24369 0.38062 0.53822 0.0
H1292 H 0.25415 0.3792 0.50365 0.0
H1293 H 0.25061 0.37327 0.58614 0.0
H1294 H 0.26052 0.36335 0.61091 0.0
H1295 H 0.21189 0.33029 0.57864 0.0
H1296 H 0.22168 0.32016 0.60362 0.0
H1297 H 0.19997 0.33656 0.54751 0.0
H1298 H 0.22131 0.37729 0.58468 0.0
H1299 H 0.1773 0.33625 0.54916 0.0
H1300 H 0.19849 0.37671 0.58748 0.0
H1301 H 0.12457 0.33785 0.53659 0.0
H1302 H 0.11157 0.33686 0.50416 0.0
H1303 H 0.11849 0.37979 0.52113 0.0
H1304 H 0.13074 0.3802 0.55415 0.0
H1305 H 0.13119 0.37168 0.60412 0.0
H1306 H 0.11071 0.36103 0.6292 0.0
H1307 H 0.09226 0.31906 0.59514 0.0
H1308 H 0.11245 0.32984 0.56998 0.0
H1309 H 0.13573 0.33405 0.57064 0.0
H1310 H 0.1578 0.33322 0.57096 0.0
H1311 H 0.18341 0.38069 0.5655 0.0
N1312 N 0.13417 0.35903 0.56868 0.0
H1313 H 0.16124 0.38141 0.56627 0.0
C1314 C 0.23099 0.35707 0.54234 0.0
C1315 C 0.22711 0.34327 0.53312 0.0
C1316 C 0.23311 0.3424 0.5135 0.0
C1317 C 0.24313 0.3553 0.50274 0.0
C1318 C 0.24662 0.36907 0.51168 0.0
C1319 C 0.24058 0.36991 0.53129 0.0
C1320 C 0.23062 0.35255 0.58054 0.0
C1321 C 0.24413 0.36174 0.59029 0.0
C1322 C 0.24972 0.35604 0.60451 0.0
C1323 C 0.24189 0.34094 0.60925 0.0
C1324 C 0.22803 0.33181 0.60014 0.0
C1325 C 0.2224 0.33758 0.58593 0.0
C1326 C 0.21244 0.35716 0.56567 0.0
C1327 C 0.19977 0.34538 0.5562 0.0
C1328 C 0.18673 0.34515 0.55734 0.0
C1329 C 0.18605 0.35656 0.56823 0.0
C1330 C 0.19865 0.36794 0.57846 0.0
C1331 C 0.21168 0.36825 0.57707 0.0
C1332 C 0.12843 0.35904 0.54792 0.0
C1333 C 0.12332 0.34705 0.53327 0.0
C1334 C 0.11599 0.34658 0.5146 0.0
C1335 C 0.11378 0.35817 0.5101 0.0
C1336 C 0.11964 0.3705 0.52429 0.0
C1337 C 0.12679 0.37085 0.54304 0.0
C1338 C 0.12342 0.35165 0.58519 0.0
C1339 C 0.12288 0.3601 0.60244 0.0
C1340 C 0.11119 0.35397 0.61676 0.0
C1341 C 0.09977 0.33922 0.61403 0.0
C1342 C 0.10077 0.33052 0.59747 0.0
C1343 C 0.11243 0.33666 0.58315 0.0
C1344 C 0.14686 0.35789 0.56877 0.0
C1345 C 0.14606 0.34429 0.56975 0.0
C1346 C 0.15875 0.34382 0.56972 0.0
C1347 C 0.17246 0.3569 0.56842 0.0
C1348 C 0.17311 0.37042 0.56707 0.0
C1349 C 0.16046 0.37087 0.56733 0.0
H1350 H 0.97081 0.38133 0.06427 0.0
H1351 H 0.01724 0.40067 0.06119 0.0
H1352 H 0.97398 0.39747 0.09522 0.0
H1353 H 0.02034 0.41649 0.09213 0.0
H1354 H 0.02304 0.45312 0.13349 0.0
H1355 H 0.0181 0.43754 0.10139 0.0
H1356 H 0.98154 0.40131 0.1333 0.0
H1357 H 0.98645 0.41699 0.16545 0.0
C1358 C 0.98167 0.38898 0.0702 0.0
C1359 C 0.99377 0.38975 0.06021 0.0
C1360 C 0.98347 0.39817 0.08797 0.0
C1361 C 0.99742 0.40833 0.09602 0.0
C1362 C 0.00947 0.409 0.08607 0.0
C1363 C 0.00768 0.39984 0.0684 0.0
C1364 C 0.01394 0.44184 0.13364 0.0
C1365 C 0.00523 0.43623 0.15206 0.0
C1366 C 0.01111 0.4329 0.11526 0.0
C1367 C 0.99953 0.41813 0.11489 0.0
C1368 C 0.99047 0.41268 0.13303 0.0
C1369 C 0.99329 0.42165 0.15143 0.0
H1370 H 0.62963 0.60654 0.07908 0.0
H1371 H 0.59106 0.60792 0.06767 0.0
H1372 H 0.61794 0.59097 0.11005 0.0
H1373 H 0.5793 0.59214 0.09828 0.0
H1374 H 0.57017 0.57913 0.16919 0.0
H1375 H 0.58112 0.59365 0.13718 0.0
H1376 H 0.59843 0.5663 0.11961 0.0
H1377 H 0.58748 0.55177 0.15174 0.0
C1378 C 0.61864 0.60345 0.08309 0.0
C1379 C 0.6113 0.60853 0.07096 0.0
C1380 C 0.6119 0.59445 0.10076 0.0
C1381 C 0.59769 0.59033 0.10667 0.0
C1382 C 0.59033 0.59528 0.09436 0.0
C1383 C 0.59706 0.60428 0.07674 0.0
C1384 C 0.57612 0.57607 0.15833 0.0
C1385 C 0.57794 0.56428 0.163 0.0
C1386 C 0.58242 0.58441 0.13999 0.0
C1387 C 0.59067 0.58115 0.12584 0.0
C1388 C 0.59233 0.56924 0.13035 0.0
C1389 C 0.58604 0.5609 0.14873 0.0
H1390 H 0.40291 0.02485 0.06176 0.0
H1391 H 0.37449 0.97921 0.0787 0.0
H1392 H 0.41962 0.02791 0.09045 0.0
H1393 H 0.39095 0.98235 0.1074 0.0
H1394 H 0.42919 0.98752 0.14294 0.0
H1395 H 0.41482 0.986 0.112 0.0
H1396 H 0.4211 0.02848 0.12996 0.0
H1397 H 0.4356 0.03004 0.16087 0.0
C1398 C 0.4002 0.0155 0.07163 0.0
C1399 C 0.38739 0.00178 0.0679 0.0
C1400 C 0.40975 0.01727 0.08809 0.0
C1401 C 0.40667 0.00534 0.10109 0.0
C1402 C 0.3938 0.99168 0.09742 0.0
C1403 C 0.38429 0.98992 0.08104 0.0
C1404 C 0.42755 0.99656 0.14022 0.0
C1405 C 0.43341 0.00883 0.15444 0.0
C1406 C 0.41929 0.99568 0.12253 0.0
C1407 C 0.41665 0.00703 0.11868 0.0
C1408 C 0.42302 0.0196 0.13239 0.0
C1409 C 0.43133 0.02049 0.15009 0.0
H1410 H 0.3821 0.00624 0.94735 0.0
H1411 H 0.38941 0.97492 0.97875 0.0
H1412 H 0.39333 0.00365 0.91467 0.0
H1413 H 0.40088 0.97254 0.94611 0.0
H1414 H 0.40566 0.96041 0.87582 0.0
H1415 H 0.39476 0.96276 0.90913 0.0
H1416 H 0.41719 0.00997 0.90148 0.0
H1417 H 0.42768 0.00756 0.86781 0.0
C1418 C 0.38612 0.99881 0.9473 0.0
C1419 C 0.38485 0.99079 0.96568 0.0
C1420 C 0.39266 0.99742 0.92861 0.0
C1421 C 0.39807 0.98795 0.92782 0.0
C1422 C 0.3967 0.97983 0.94613 0.0
C1423 C 0.39017 0.98124 0.96487 0.0
C1424 C 0.40823 0.97128 0.88123 0.0
C1425 C 0.4175 0.98379 0.86913 0.0
C1426 C 0.40209 0.97265 0.90042 0.0
C1427 C 0.40506 0.98654 0.9079 0.0
C1428 C 0.41454 0.99908 0.896 0.0
C1429 C 0.42069 0.99772 0.87685 0.0
H1430 H 0.97137 0.38007 0.95553 0.0
H1431 H 0.01815 0.40346 0.95239 0.0
H1432 H 0.97101 0.39451 0.92628 0.0
H1433 H 0.01784 0.41837 0.92334 0.0
H1434 H 0.00887 0.42945 0.85549 0.0
H1435 H 0.01123 0.41692 0.88611 0.0
H1436 H 0.97659 0.41867 0.91865 0.0
H1437 H 0.97402 0.43079 0.88778 0.0
C1438 C 0.98161 0.38838 0.94868 0.0
C1439 C 0.99479 0.39063 0.95633 0.0
C1440 C 0.98142 0.39678 0.93199 0.0
C1441 C 0.99441 0.40775 0.92258 0.0
C1442 C 0.00762 0.40994 0.93011 0.0
C1443 C 0.00781 0.40143 0.94679 0.0
C1444 C 0.00193 0.42734 0.86936 0.0
C1445 C 0.99119 0.43097 0.86922 0.0
C1446 C 0.00328 0.42018 0.88692 0.0
C1447 C 0.99397 0.4166 0.90476 0.0
C1448 C 0.98369 0.4209 0.90497 0.0
C1449 C 0.98226 0.42792 0.88735 0.0
H1450 H 0.59412 0.62328 0.96601 0.0
H1451 H 0.62207 0.60555 0.96584 0.0
H1452 H 0.58119 0.60755 0.93466 0.0
H1453 H 0.60935 0.59011 0.9346 0.0
H1454 H 0.57523 0.55357 0.89289 0.0
H1455 H 0.58554 0.5686 0.92556 0.0
H1456 H 0.58559 0.60487 0.89586 0.0
H1457 H 0.57523 0.58979 0.86309 0.0
C1458 C 0.59752 0.61606 0.95929 0.0
C1459 C 0.6091 0.61564 0.96846 0.0
C1460 C 0.59015 0.6071 0.94132 0.0
C1461 C 0.59418 0.59751 0.93228 0.0
C1462 C 0.6058 0.59717 0.94143 0.0
C1463 C 0.61316 0.60612 0.95927 0.0
C1464 C 0.57742 0.56474 0.89334 0.0
C1465 C 0.57458 0.57056 0.87534 0.0
C1466 C 0.58332 0.57335 0.91204 0.0
C1467 C 0.58654 0.58797 0.91318 0.0
C1468 C 0.58313 0.5936 0.89552 0.0
C1469 C 0.5772 0.58497 0.87676 0.0
H1470 H 0.03048 0.62565 0.96649 0.0
H1471 H 0.98407 0.6019 0.95695 0.0
H1472 H 0.03299 0.61336 0.93426 0.0
H1473 H 0.9866 0.5894 0.92511 0.0
H1474 H 0.99807 0.55922 0.8846 0.0
H1475 H 0.99654 0.57101 0.91792 0.0
H1476 H 0.02658 0.61382 0.8923 0.0
H1477 H 0.02754 0.60227 0.85847 0.0
C1478 C 0.02083 0.61774 0.95762 0.0
C1479 C 0.00709 0.61475 0.96417 0.0
C1480 C 0.02228 0.61076 0.9392 0.0
C1481 C 0.00998 0.60043 0.92735 0.0
C1482 C 0.99623 0.59725 0.93411 0.0
C1483 C 0.99481 0.60446 0.95222 0.0
C1484 C 0.00425 0.57115 0.88588 0.0
C1485 C 0.01286 0.57974 0.86862 0.0
C1486 C 0.00344 0.57787 0.90504 0.0
C1487 C 0.01145 0.59328 0.90758 0.0
C1488 C 0.02042 0.60189 0.89076 0.0
C1489 C 0.02102 0.59521 0.87142 0.0
H1490 H 0.39684 0.37585 0.93895 0.0
H1491 H 0.38183 0.40474 0.95945 0.0
H1492 H 0.40989 0.39201 0.90926 0.0
H1493 H 0.39525 0.42117 0.92997 0.0
H1494 H 0.40785 0.43737 0.86017 0.0
H1495 H 0.39509 0.42236 0.89119 0.0
H1496 H 0.4307 0.4159 0.90234 0.0
H1497 H 0.44331 0.43072 0.87114 0.0
C1498 C 0.39638 0.3857 0.93719 0.0
C1499 C 0.38829 0.389 0.95157 0.0
C1500 C 0.40396 0.39503 0.92023 0.0
C1501 C 0.40371 0.40795 0.9173 0.0
C1502 C 0.39556 0.41124 0.93164 0.0
C1503 C 0.38791 0.40185 0.94858 0.0
C1504 C 0.41302 0.4329 0.86945 0.0
C1505 C 0.42654 0.43514 0.86317 0.0
C1506 C 0.40572 0.4243 0.88723 0.0
C1507 C 0.41181 0.41782 0.89916 0.0
C1508 C 0.42555 0.42046 0.89323 0.0
C1509 C 0.43281 0.42899 0.8754 0.0
H1510 H 0.61137 0.01638 0.9498 0.0
H1511 H 0.59875 0.97059 0.94469 0.0
H1512 H 0.59544 0.01268 0.91996 0.0
H1513 H 0.58313 0.96697 0.91418 0.0
H1514 H 0.54605 0.9625 0.87304 0.0
H1515 H 0.56118 0.96559 0.90401 0.0
H1516 H 0.59384 0.00888 0.88218 0.0
H1517 H 0.57857 0.00589 0.85171 0.0
C1518 C 0.60527 0.00553 0.94218 0.0
C1519 C 0.60638 0.99379 0.94957 0.0
C1520 C 0.59618 0.00342 0.92496 0.0
C1521 C 0.58805 0.98954 0.9145 0.0
C1522 C 0.58908 0.97776 0.92199 0.0
C1523 C 0.59811 0.97985 0.9394 0.0
C1524 C 0.55647 0.97266 0.87493 0.0
C1525 C 0.56108 0.98401 0.86008 0.0
C1526 C 0.56518 0.97442 0.89261 0.0
C1527 C 0.57873 0.98752 0.89569 0.0
C1528 C 0.58335 0.99878 0.88064 0.0
C1529 C 0.57461 0.99707 0.86313 0.0
H1530 H 0.60688 0.01932 0.04945 0.0
H1531 H 0.60416 0.97829 0.06266 0.0
H1532 H 0.59386 0.01733 0.08281 0.0
H1533 H 0.59066 0.97594 0.09534 0.0
H1534 H 0.57792 0.9811 0.16235 0.0
H1535 H 0.59283 0.98547 0.13044 0.0
H1536 H 0.57063 0.00391 0.09898 0.0
H1537 H 0.55615 1.00005 0.13143 0.0
C1538 C 0.60344 0.00985 0.05943 0.0
C1539 C 0.60659 0.99899 0.05345 0.0
C1540 C 0.5959 0.00865 0.0785 0.0
C1541 C 0.5912 0.99648 0.09188 0.0
C1542 C 0.59435 0.98563 0.08576 0.0
C1543 C 0.60203 0.98692 0.06689 0.0
C1544 C 0.57629 0.98613 0.1486 0.0
C1545 C 0.56583 0.99014 0.14924 0.0
C1546 C 0.58477 0.98858 0.13025 0.0
C1547 C 0.58284 0.99489 0.11195 0.0
C1548 C 0.57255 0.99919 0.11281 0.0
C1549 C 0.5642 0.99692 0.13134 0.0
H1550 H 0.01889 0.6285 0.0774 0.0
H1551 H 0.97383 0.59824 0.06112 0.0
H1552 H 0.01669 0.61309 0.10713 0.0
H1553 H 0.97172 0.58255 0.09071 0.0
H1554 H 0.97052 0.56786 0.16074 0.0
H1555 H 0.97163 0.58203 0.12975 0.0
H1556 H 0.01392 0.58956 0.11362 0.0
H1557 H 0.01285 0.57554 0.14474 0.0
C1558 C 0.00851 0.61852 0.08011 0.0
C1559 C 0.99654 0.6146 0.06686 0.0
C1560 C 0.00728 0.6096 0.09709 0.0
C1561 C 0.99406 0.5965 0.10121 0.0
C1562 C 0.98203 0.59263 0.08808 0.0
C1563 C 0.98325 0.60159 0.07108 0.0
C1564 C 0.97995 0.57236 0.15038 0.0
C1565 C 0.99163 0.57065 0.15524 0.0
C1566 C 0.98059 0.58049 0.13261 0.0
C1567 C 0.99292 0.58705 0.11929 0.0
C1568 C 0.00439 0.58493 0.12381 0.0
C1569 C 0.00377 0.57686 0.1416 0.0
H1570 H 0.38016 0.37757 0.07424 0.0
H1571 H 0.41483 0.41342 0.03889 0.0
H1572 H 0.39403 0.38769 0.10744 0.0
H1573 H 0.42857 0.42369 0.07221 0.0
H1574 H 0.45489 0.42906 0.13304 0.0
H1575 H 0.4415 0.41877 0.09938 0.0
H1576 H 0.40188 0.40877 0.13172 0.0
H1577 H 0.41511 0.41849 0.16544 0.0
C1578 C 0.39073 0.38763 0.07355 0.0
C1579 C 0.39637 0.3947 0.05391 0.0
C1580 C 0.39864 0.39348 0.09261 0.0
C1581 C 0.41238 0.40654 0.09249 0.0
C1582 C 0.41809 0.41353 0.07282 0.0
C1583 C 0.41017 0.40768 0.05374 0.0
C1584 C 0.44331 0.42459 0.13297 0.0
C1585 C 0.43608 0.42462 0.15192 0.0
C1586 C 0.43566 0.41882 0.11364 0.0
C1587 C 0.42061 0.41291 0.11288 0.0
C1588 C 0.41343 0.41306 0.13181 0.0
C1589 C 0.42106 0.41882 0.15108 0.0
H1590 H 0.63173 0.71702 0.38499 0.0
H1591 H 0.67458 0.72928 0.40624 0.0
H1592 H 0.62937 0.72994 0.41654 0.0
H1593 H 0.67219 0.7421 0.43752 0.0
H1594 H 0.67013 0.77732 0.47676 0.0
H1595 H 0.67077 0.76477 0.44379 0.0
H1596 H 0.62802 0.72777 0.45763 0.0
H1597 H 0.62745 0.74023 0.49098 0.0
C1598 C 0.64062 0.72243 0.39637 0.0
C1599 C 0.65336 0.72216 0.39308 0.0
C1600 C 0.63924 0.72977 0.41444 0.0
C1601 C 0.65065 0.73712 0.42935 0.0
C1602 C 0.66331 0.73672 0.42611 0.0
C1603 C 0.66463 0.72929 0.40825 0.0
C1604 C 0.66086 0.76651 0.47282 0.0
C1605 C 0.64883 0.75968 0.48668 0.0
C1606 C 0.66122 0.75934 0.45392 0.0
C1607 C 0.64953 0.74522 0.44832 0.0
C1608 C 0.63717 0.73867 0.46154 0.0
C1609 C 0.63684 0.74583 0.4806 0.0
H1610 H 0.27651 0.93008 0.38915 0.0
H1611 H 0.28861 0.96765 0.43158 0.0
H1612 H 0.26341 0.91351 0.41862 0.0
H1613 H 0.27569 0.95108 0.46105 0.0
H1614 H 0.23923 0.91748 0.50303 0.0
H1615 H 0.25084 0.93305 0.47209 0.0
H1616 H 0.26847 0.90622 0.45304 0.0
H1617 H 0.25646 0.89035 0.48363 0.0
C1618 C 0.27642 0.93481 0.40476 0.0
C1619 C 0.28361 0.9502 0.40801 0.0
C1620 C 0.26895 0.92531 0.42166 0.0
C1621 C 0.26848 0.93098 0.44215 0.0
C1622 C 0.27567 0.94636 0.44537 0.0
C1623 C 0.28317 0.95586 0.42851 0.0
C1624 C 0.24537 0.91475 0.49204 0.0
C1625 C 0.24693 0.90268 0.49579 0.0
C1626 C 0.25218 0.92378 0.47446 0.0
C1627 C 0.26066 0.92094 0.4602 0.0
C1628 C 0.26193 0.90865 0.46365 0.0
C1629 C 0.25516 0.89964 0.48128 0.0
H1630 H 0.04268 0.34466 0.42943 0.0
H1631 H 0.07632 0.35277 0.38364 0.0
H1632 H 0.05867 0.34762 0.45887 0.0
H1633 H 0.09255 0.3563 0.41312 0.0
H1634 H 0.09454 0.36745 0.50812 0.0
H1635 H 0.07953 0.36544 0.47799 0.0
H1636 H 0.09662 0.34335 0.43992 0.0
H1637 H 0.11243 0.34629 0.46966 0.0
C1638 C 0.05355 0.34723 0.42566 0.0
C1639 C 0.05823 0.34848 0.4042 0.0
C1640 C 0.06277 0.34902 0.44257 0.0
C1641 C 0.07695 0.35225 0.43844 0.0
C1642 C 0.08165 0.3536 0.41693 0.0
C1643 C 0.07237 0.35167 0.40001 0.0
C1644 C 0.09535 0.36243 0.4932 0.0
C1645 C 0.10479 0.3571 0.49136 0.0
C1646 C 0.08653 0.36105 0.47599 0.0
C1647 C 0.08675 0.35414 0.45651 0.0
C1648 C 0.09625 0.34888 0.45458 0.0
C1649 C 0.1052 0.35039 0.47177 0.0
H1650 H 0.05994 0.34441 0.28025 0.0
H1651 H 0.04772 0.30074 0.30012 0.0
H1652 H 0.07108 0.34127 0.24792 0.0
H1653 H 0.05906 0.29769 0.26774 0.0
H1654 H 0.06635 0.29316 0.19424 0.0
H1655 H 0.05564 0.29516 0.22807 0.0
H1656 H 0.09217 0.33952 0.23813 0.0
H1657 H 0.10288 0.33751 0.20447 0.0
C1658 C 0.05965 0.33414 0.27775 0.0
C1659 C 0.05295 0.32283 0.2928 0.0
C1660 C 0.06613 0.33239 0.25928 0.0
C1661 C 0.06604 0.31927 0.25535 0.0
C1662 C 0.05923 0.30789 0.27027 0.0
C1663 C 0.05279 0.30967 0.28885 0.0
C1664 C 0.0722 0.30324 0.20386 0.0
C1665 C 0.08539 0.31523 0.19656 0.0
C1666 C 0.06606 0.30439 0.22322 0.0
C1667 C 0.07298 0.31756 0.23564 0.0
C1668 C 0.08642 0.32934 0.22869 0.0
C1669 C 0.09255 0.32819 0.20941 0.0
H1670 H 0.68139 0.74326 0.30532 0.0
H1671 H 0.68006 0.7111 0.25987 0.0
H1672 H 0.68485 0.75942 0.27574 0.0
H1673 H 0.68377 0.72737 0.23037 0.0
H1674 H 0.67238 0.75143 0.18241 0.0
H1675 H 0.66987 0.73609 0.21249 0.0
H1676 H 0.70229 0.77471 0.24796 0.0
H1677 H 0.70445 0.7902 0.21802 0.0
C1678 C 0.68195 0.73968 0.28904 0.0
C1679 C 0.68036 0.72584 0.28495 0.0
C1680 C 0.68402 0.74899 0.2721 0.0
C1681 C 0.6845 0.74465 0.2507 0.0
C1682 C 0.68321 0.73094 0.24666 0.0
C1683 C 0.68117 0.72164 0.26359 0.0
C1684 C 0.67884 0.7567 0.19673 0.0
C1685 C 0.68855 0.77206 0.19787 0.0
C1686 C 0.67754 0.74787 0.21386 0.0
C1687 C 0.68594 0.75416 0.23257 0.0
C1688 C 0.6956 0.76954 0.23381 0.0
C1689 C 0.69692 0.77839 0.21661 0.0
H1690 H 0.28252 0.94458 0.28494 0.0
H1691 H 0.25167 0.95688 0.30424 0.0
H1692 H 0.26831 0.93236 0.25274 0.0
H1693 H 0.23728 0.94438 0.27198 0.0
H1694 H 0.22619 0.9351 0.19859 0.0
H1695 H 0.23871 0.94682 0.23244 0.0
H1696 H 0.24503 0.91059 0.24282 0.0
H1697 H 0.23258 0.89892 0.20908 0.0
C1698 C 0.27267 0.94463 0.28237 0.0
C1699 C 0.26822 0.95169 0.2972 0.0
C1700 C 0.26446 0.93753 0.26395 0.0
C1701 C 0.25161 0.9373 0.25988 0.0
C1702 C 0.24719 0.94445 0.27461 0.0
C1703 C 0.2554 0.95155 0.29312 0.0
C1704 C 0.23007 0.92955 0.20828 0.0
C1705 C 0.22854 0.91617 0.20106 0.0
C1706 C 0.23724 0.93626 0.22766 0.0
C1707 C 0.24301 0.92971 0.24018 0.0
C1708 C 0.24099 0.91607 0.2333 0.0
C1709 C 0.23385 0.90938 0.21398 0.0
H1710 H 0.68418 0.96255 0.28724 0.0
H1711 H 0.64643 0.91917 0.2968 0.0
H1712 H 0.69066 0.95324 0.25557 0.0
H1713 H 0.65274 0.90993 0.26481 0.0
H1714 H 0.67632 0.8952 0.21861 0.0
H1715 H 0.67054 0.90438 0.25129 0.0
H1716 H 0.68222 0.9447 0.21923 0.0
H1717 H 0.68805 0.93557 0.18673 0.0
C1718 C 0.67723 0.95104 0.28254 0.0
C1719 C 0.66477 0.94161 0.29453 0.0
C1720 C 0.68091 0.94571 0.26432 0.0
C1721 C 0.6722 0.93084 0.25761 0.0
C1722 C 0.65978 0.9214 0.26968 0.0
C1723 C 0.65612 0.92672 0.28795 0.0
C1724 C 0.6776 0.906 0.21856 0.0
C1725 C 0.6827 0.91468 0.20011 0.0
C1726 C 0.67428 0.91126 0.23726 0.0
C1727 C 0.67594 0.92529 0.23789 0.0
C1728 C 0.68106 0.93396 0.21944 0.0
C1729 C 0.68441 0.92872 0.20079 0.0
H1730 H 0.04312 0.69995 0.26403 0.0
H1731 H 0.05157 0.7405 0.29524 0.0
H1732 H 0.06042 0.71412 0.23571 0.0
H1733 H 0.06868 0.75464 0.26652 0.0
H1734 H 0.08358 0.76901 0.19393 0.0
H1735 H 0.06682 0.75627 0.22339 0.0
H1736 H 0.08913 0.73363 0.23684 0.0
H1737 H 0.10648 0.74692 0.20825 0.0
C1738 C 0.04852 0.71187 0.26469 0.0
C1739 C 0.04599 0.71912 0.28184 0.0
C1740 C 0.05849 0.71996 0.24858 0.0
C1741 C 0.0659 0.73544 0.24907 0.0
C1742 C 0.06307 0.74271 0.26583 0.0
C1743 C 0.05332 0.73462 0.28222 0.0
C1744 C 0.08521 0.76162 0.20344 0.0
C1745 C 0.09645 0.75902 0.19854 0.0
C1746 C 0.07551 0.75425 0.22021 0.0
C1747 C 0.07666 0.74391 0.23218 0.0
C1748 C 0.08794 0.74143 0.22761 0.0
C1749 C 0.09782 0.749 0.21113 0.0
H1750 H 0.26687 0.31073 0.27972 0.0
H1751 H 0.26974 0.35104 0.30182 0.0
H1752 H 0.25111 0.30859 0.25018 0.0
H1753 H 0.25429 0.34904 0.27228 0.0
H1754 H 0.21751 0.33652 0.22693 0.0
H1755 H 0.22969 0.3346 0.25835 0.0
H1756 H 0.2537 0.32164 0.21693 0.0
H1757 H 0.24153 0.32353 0.1856 0.0
C1758 C 0.2641 0.31909 0.27834 0.0
C1759 C 0.26961 0.33109 0.29306 0.0
C1760 C 0.25512 0.31789 0.26138 0.0
C1761 C 0.25143 0.32864 0.25889 0.0
C1762 C 0.25672 0.34045 0.2739 0.0
C1763 C 0.2657 0.34166 0.29076 0.0
C1764 C 0.22533 0.33318 0.22457 0.0
C1765 C 0.22862 0.33028 0.20376 0.0
C1766 C 0.23231 0.33208 0.24255 0.0
C1767 C 0.24276 0.32809 0.24013 0.0
C1768 C 0.24559 0.32458 0.2194 0.0
C1769 C 0.23861 0.32567 0.20142 0.0
H1770 H 0.27285 0.32315 0.39691 0.0
H1771 H 0.29859 0.37053 0.39073 0.0
H1772 H 0.26063 0.32607 0.4281 0.0
H1773 H 0.28613 0.37343 0.42169 0.0
H1774 H 0.27178 0.37262 0.49208 0.0
H1775 H 0.2841 0.37032 0.46048 0.0
H1776 H 0.24339 0.33354 0.43692 0.0
H1777 H 0.23107 0.33582 0.46859 0.0
C1778 C 0.27589 0.3342 0.40218 0.0
C1779 C 0.28671 0.34661 0.39133 0.0
C1780 C 0.2688 0.33586 0.41997 0.0
C1781 C 0.27234 0.34998 0.42732 0.0
C1782 C 0.28324 0.3624 0.41657 0.0
C1783 C 0.29034 0.36074 0.39877 0.0
C1784 C 0.26542 0.36418 0.48001 0.0
C1785 C 0.25044 0.3544 0.48286 0.0
C1786 C 0.27249 0.36285 0.4619 0.0
C1787 C 0.26474 0.35171 0.44622 0.0
C1788 C 0.24972 0.34208 0.44889 0.0
C1789 C 0.24265 0.3434 0.46701 0.0
H1790 H 0.69501 0.95572 0.39337 0.0
H1791 H 0.64869 0.93599 0.39993 0.0
H1792 H 0.69517 0.94251 0.42454 0.0
H1793 H 0.64877 0.92234 0.43087 0.0
H1794 H 0.65832 0.91543 0.50042 0.0
H1795 H 0.65666 0.92662 0.46772 0.0
H1796 H 0.688 0.91859 0.43691 0.0
H1797 H 0.68986 0.90768 0.46981 0.0
C1798 C 0.68482 0.94843 0.40133 0.0
C1799 C 0.67184 0.94695 0.39419 0.0
C1800 C 0.68489 0.94076 0.41915 0.0
C1801 C 0.67197 0.93131 0.43022 0.0
C1802 C 0.65894 0.92967 0.4229 0.0
C1803 C 0.65888 0.93743 0.4051 0.0
C1804 C 0.66471 0.91589 0.48655 0.0
C1805 C 0.67428 0.91075 0.4877 0.0
C1806 C 0.66374 0.92228 0.46778 0.0
C1807 C 0.67226 0.9236 0.44968 0.0
C1808 C 0.6815 0.91804 0.45067 0.0
C1809 C 0.68255 0.91175 0.46949 0.0
H1810 H 0.08298 0.74171 0.37454 0.0
H1811 H 0.04345 0.71871 0.41168 0.0
H1812 H 0.09689 0.7522 0.40773 0.0
H1813 H 0.05735 0.72931 0.44476 0.0
H1814 H 0.08832 0.73741 0.49985 0.0
H1815 H 0.07519 0.72711 0.46608 0.0
H1816 H 0.10027 0.76992 0.43732 0.0
H1817 H 0.11369 0.78017 0.47102 0.0
C1818 C 0.07725 0.73893 0.38976 0.0
C1819 C 0.06211 0.72935 0.39046 0.0
C1820 C 0.08522 0.745 0.40875 0.0
C1821 C 0.07822 0.74153 0.42885 0.0
C1822 C 0.06307 0.73203 0.42953 0.0
C1823 C 0.0551 0.72603 0.41056 0.0
C1824 C 0.09117 0.74459 0.48623 0.0
C1825 C 0.10206 0.7596 0.48808 0.0
C1826 C 0.08354 0.73872 0.46697 0.0
C1827 C 0.08665 0.74773 0.44909 0.0
C1828 C 0.0977 0.76269 0.45079 0.0
C1829 C 0.10529 0.76858 0.47012 0.0
H1830 H 0.30343 0.05102 0.72147 0.0
H1831 H 0.34577 0.06073 0.74113 0.0
H1832 H 0.30138 0.06236 0.75489 0.0
H1833 H 0.3436 0.07184 0.77464 0.0
H1834 H 0.34135 0.10467 0.82099 0.0
H1835 H 0.34318 0.09364 0.78714 0.0
H1836 H 0.29867 0.05795 0.79374 0.0
H1837 H 0.29684 0.06895 0.82767 0.0
C1838 C 0.31228 0.05553 0.73293 0.0
C1839 C 0.32477 0.05499 0.72861 0.0
C1840 C 0.31107 0.06196 0.75213 0.0
C1841 C 0.32233 0.06802 0.7674 0.0
C1842 C 0.33481 0.06745 0.76308 0.0
C1843 C 0.33602 0.061 0.74392 0.0
C1844 C 0.33198 0.09442 0.8153 0.0
C1845 C 0.31896 0.08767 0.82707 0.0
C1846 C 0.33304 0.0881 0.7959 0.0
C1847 C 0.32109 0.07489 0.78779 0.0
C1848 C 0.30802 0.06823 0.79942 0.0
C1849 C 0.30697 0.07454 0.81885 0.0
H1850 H 0.95717 0.26581 0.73495 0.0
H1851 H 0.9424 0.29498 0.75496 0.0
H1852 H 0.94368 0.24954 0.76458 0.0
H1853 H 0.92922 0.27893 0.78469 0.0
H1854 H 0.89494 0.24006 0.82153 0.0
H1855 H 0.90803 0.25474 0.7905 0.0
H1856 H 0.94356 0.24858 0.80392 0.0
H1857 H 0.93035 0.23376 0.83496 0.0
C1858 C 0.95112 0.2688 0.74573 0.0
C1859 C 0.95082 0.28167 0.74254 0.0
C1860 C 0.94344 0.2595 0.76275 0.0
C1861 C 0.93528 0.26288 0.77691 0.0
C1862 C 0.93515 0.27585 0.77384 0.0
C1863 C 0.94281 0.28512 0.75686 0.0
C1864 C 0.90554 0.24183 0.81784 0.0
C1865 C 0.91167 0.23586 0.83079 0.0
C1866 C 0.91306 0.25027 0.80009 0.0
C1867 C 0.92692 0.253 0.79489 0.0
C1868 C 0.93286 0.24661 0.8074 0.0
C1869 C 0.9253 0.23811 0.82517 0.0
H1870 H 0.74381 0.69332 0.72 0.0
H1871 H 0.7079 0.67438 0.76471 0.0
H1872 H 0.76034 0.69686 0.74912 0.0
H1873 H 0.72446 0.67808 0.79378 0.0
H1874 H 0.75484 0.67068 0.83406 0.0
H1875 H 0.73905 0.66772 0.8043 0.0
H1876 H 0.77079 0.71143 0.78296 0.0
H1877 H 0.78684 0.71424 0.81249 0.0
C1878 C 0.73945 0.69 0.73605 0.0
C1879 C 0.72452 0.68352 0.74001 0.0
C1880 C 0.74894 0.69209 0.75274 0.0
C1881 C 0.74369 0.68768 0.77372 0.0
C1882 C 0.7288 0.68139 0.77772 0.0
C1883 C 0.71933 0.67936 0.76107 0.0
C1884 C 0.75857 0.67958 0.82285 0.0
C1885 C 0.77213 0.69267 0.82559 0.0
C1886 C 0.74943 0.67796 0.80596 0.0
C1887 C 0.75363 0.68938 0.79136 0.0
C1888 C 0.76729 0.7024 0.79388 0.0
C1889 C 0.77642 0.70406 0.81087 0.0
H1890 H 0.73889 0.65703 0.65016 0.0
H1891 H 0.71498 0.67032 0.61139 0.0
H1892 H 0.74736 0.65059 0.61752 0.0
H1893 H 0.72365 0.66415 0.57884 0.0
H1894 H 0.73008 0.63852 0.52525 0.0
H1895 H 0.72092 0.6429 0.55884 0.0
H1896 H 0.76356 0.66265 0.58717 0.0
H1897 H 0.7726 0.65773 0.5538 0.0
C1898 C 0.73547 0.65861 0.63469 0.0
C1899 C 0.72626 0.66419 0.63339 0.0
C1900 C 0.74037 0.65498 0.61599 0.0
C1901 C 0.73616 0.65683 0.59558 0.0
C1902 C 0.72692 0.66238 0.59431 0.0
C1903 C 0.72203 0.66601 0.61299 0.0
C1904 C 0.73745 0.64355 0.53877 0.0
C1905 C 0.75209 0.64779 0.53683 0.0
C1906 C 0.73224 0.64623 0.55793 0.0
C1907 C 0.74153 0.65323 0.57563 0.0
C1908 C 0.75609 0.65715 0.57389 0.0
C1909 C 0.76131 0.65447 0.5547 0.0
H1910 H 0.35415 0.07816 0.63629 0.0
H1911 H 0.32657 0.04158 0.59327 0.0
H1912 H 0.35794 0.09542 0.60815 0.0
H1913 H 0.33055 0.05881 0.56512 0.0
H1914 H 0.32872 0.09319 0.52645 0.0
H1915 H 0.3245 0.07718 0.55653 0.0
H1916 H 0.36996 0.10343 0.57316 0.0
H1917 H 0.3741 0.11978 0.54348 0.0
C1918 C 0.34893 0.0738 0.62082 0.0
C1919 C 0.34005 0.05849 0.61703 0.0
C1920 C 0.35116 0.08369 0.60468 0.0
C1921 C 0.34451 0.0785 0.58442 0.0
C1922 C 0.33565 0.06319 0.58065 0.0
C1923 C 0.33345 0.0533 0.59676 0.0
C1924 C 0.33777 0.09573 0.53677 0.0
C1925 C 0.35176 0.10777 0.53254 0.0
C1926 C 0.33538 0.08643 0.55384 0.0
C1927 C 0.34691 0.08894 0.56712 0.0
C1928 C 0.36083 0.10123 0.56331 0.0
C1929 C 0.36322 0.11052 0.54618 0.0
H1930 H 0.95765 0.27651 0.62301 0.0
H1931 H 0.92048 0.27535 0.65173 0.0
H1932 H 0.94361 0.26457 0.59037 0.0
H1933 H 0.90648 0.26349 0.61886 0.0
H1934 H 0.89598 0.26083 0.54454 0.0
H1935 H 0.90802 0.27113 0.57909 0.0
H1936 H 0.92124 0.2393 0.58012 0.0
H1937 H 0.90877 0.22858 0.54603 0.0
C1938 C 0.94649 0.27371 0.62235 0.0
C1939 C 0.94016 0.27687 0.63993 0.0
C1940 C 0.93844 0.2668 0.60372 0.0
C1941 C 0.92397 0.26309 0.60216 0.0
C1942 C 0.91765 0.2663 0.61966 0.0
C1943 C 0.92564 0.27302 0.63846 0.0
C1944 C 0.90117 0.2558 0.55231 0.0
C1945 C 0.90148 0.24393 0.54235 0.0
C1946 C 0.90811 0.26175 0.57206 0.0
C1947 C 0.91565 0.25608 0.58213 0.0
C1948 C 0.91568 0.24401 0.57251 0.0
C1949 C 0.90859 0.23793 0.55293 0.0
H1950 H 0.31218 0.25303 0.63094 0.0
H1951 H 0.34771 0.29724 0.61846 0.0
H1952 H 0.31861 0.24388 0.59904 0.0
H1953 H 0.35434 0.28801 0.58679 0.0
H1954 H 0.34979 0.26827 0.51814 0.0
H1955 H 0.34507 0.27806 0.55101 0.0
H1956 H 0.33723 0.23968 0.58511 0.0
H1957 H 0.34189 0.22985 0.55213 0.0
C1958 C 0.32141 0.26079 0.62146 0.0
C1959 C 0.32939 0.27587 0.6272 0.0
C1960 C 0.32517 0.25552 0.60325 0.0
C1961 C 0.33701 0.26521 0.59038 0.0
C1962 C 0.34505 0.28029 0.59621 0.0
C1963 C 0.34128 0.28556 0.61441 0.0
C1964 C 0.3473 0.26204 0.53274 0.0
C1965 C 0.34618 0.24827 0.53252 0.0
C1966 C 0.34458 0.26765 0.55159 0.0
C1967 C 0.3407 0.25962 0.57067 0.0
C1968 C 0.33994 0.24601 0.57059 0.0
C1969 C 0.34263 0.24039 0.55172 0.0
H1970 H 0.70694 0.06524 0.61408 0.0
H1971 H 0.74149 0.06009 0.6372 0.0
H1972 H 0.72185 0.07864 0.58321 0.0
H1973 H 0.75619 0.07314 0.60623 0.0
H1974 H 0.78432 0.10866 0.55901 0.0
H1975 H 0.7694 0.09734 0.59076 0.0
H1976 H 0.73132 0.07389 0.55038 0.0
H1977 H 0.74621 0.08528 0.5187 0.0
C1978 C 0.71769 0.06694 0.61257 0.0
C1979 C 0.72302 0.06159 0.62809 0.0
C1980 C 0.72621 0.07457 0.59483 0.0
C1981 C 0.74023 0.07699 0.59226 0.0
C1982 C 0.74555 0.07169 0.60788 0.0
C1983 C 0.73706 0.0641 0.62558 0.0
C1984 C 0.77276 0.10109 0.55693 0.0
C1985 C 0.76646 0.09784 0.53634 0.0
C1986 C 0.76421 0.09459 0.57511 0.0
C1987 C 0.74917 0.08465 0.57311 0.0
C1988 C 0.74283 0.08165 0.55254 0.0
C1989 C 0.75137 0.08818 0.53437 0.0
H1990 H 0.93117 0.64357 0.61463 0.0
H1991 H 0.94257 0.68902 0.61488 0.0
H1992 H 0.91461 0.63794 0.58464 0.0
H1993 H 0.92557 0.68331 0.58566 0.0
H1994 H 0.90718 0.67252 0.51773 0.0
H1995 H 0.92289 0.67794 0.54865 0.0
H1996 H 0.89238 0.63494 0.57388 0.0
H1997 H 0.87695 0.62938 0.54234 0.0
C1998 C 0.93001 0.65232 0.60842 0.0
C1999 C 0.93825 0.66676 0.61699 0.0
C2000 C 0.92044 0.64908 0.59131 0.0
C2001 C 0.91875 0.66017 0.58259 0.0
C2002 C 0.92679 0.67454 0.59158 0.0
C2003 C 0.9365 0.67781 0.60844 0.0
C2004 C 0.90377 0.6643 0.53002 0.0
C2005 C 0.89084 0.65055 0.52769 0.0
C2006 C 0.91276 0.66741 0.54781 0.0
C2007 C 0.90894 0.6569 0.56388 0.0
C2008 C 0.89582 0.64321 0.56168 0.0
C2009 C 0.88692 0.64004 0.5437 0.0
H2010 H 0.9301 0.68858 0.70315 0.0
H2011 H 0.95161 0.67093 0.73839 0.0
H2012 H 0.92117 0.69312 0.73686 0.0
H2013 H 0.94239 0.67515 0.77206 0.0
H2014 H 0.93614 0.69868 0.8295 0.0
H2015 H 0.94539 0.69495 0.79557 0.0
H2016 H 0.90404 0.67994 0.76537 0.0
H2017 H 0.89498 0.68432 0.79913 0.0
C2018 C 0.93289 0.68563 0.71808 0.0
C2019 C 0.94159 0.67941 0.71807 0.0
C2020 C 0.92769 0.68814 0.7374 0.0
C2021 C 0.93103 0.68448 0.75717 0.0
C2022 C 0.93976 0.67829 0.75715 0.0
C2023 C 0.94499 0.6758 0.73783 0.0
C2024 C 0.92907 0.69478 0.81555 0.0
C2025 C 0.91483 0.69187 0.81703 0.0
C2026 C 0.93432 0.69245 0.79616 0.0
C2027 C 0.92546 0.6871 0.77774 0.0
C2028 C 0.91122 0.68421 0.77918 0.0
C2029 C 0.90596 0.68657 0.7986 0.0
H2030 H 0.31154 0.26751 0.73007 0.0
H2031 H 0.35772 0.28659 0.72289 0.0
H2032 H 0.31118 0.25204 0.75879 0.0
H2033 H 0.35747 0.27163 0.75184 0.0
H2034 H 0.35238 0.23507 0.79175 0.0
H2035 H 0.34999 0.24712 0.76062 0.0
H2036 H 0.31882 0.25363 0.79537 0.0
H2037 H 0.32094 0.24113 0.82623 0.0
C2038 C 0.32161 0.26844 0.73467 0.0
C2039 C 0.33465 0.27826 0.72418 0.0
C2040 C 0.32142 0.25962 0.75117 0.0
C2041 C 0.33428 0.2605 0.75758 0.0
C2042 C 0.3473 0.27037 0.74705 0.0
C2043 C 0.34746 0.27908 0.73052 0.0
C2044 C 0.34492 0.23896 0.79259 0.0
C2045 C 0.33692 0.23727 0.81141 0.0
C2046 C 0.34359 0.24593 0.77483 0.0
C2047 C 0.33437 0.25157 0.77557 0.0
C2048 C 0.32592 0.24932 0.79413 0.0
C2049 C 0.32714 0.24219 0.81184 0.0
H2050 H 0.7088 0.05211 0.74184 0.0
H2051 H 0.7283 0.09323 0.70816 0.0
H2052 H 0.72189 0.06543 0.77443 0.0
H2053 H 0.74177 0.10651 0.74052 0.0
H2054 H 0.75023 0.12692 0.8085 0.0
H2055 H 0.73794 0.11378 0.77539 0.0
H2056 H 0.74541 0.07886 0.79037 0.0
H2057 H 0.75692 0.09157 0.82407 0.0
C2058 C 0.71599 0.06398 0.74133 0.0
C2059 C 0.71745 0.07162 0.72244 0.0
C2060 C 0.72357 0.07162 0.75999 0.0
C2061 C 0.73289 0.08707 0.76015 0.0
C2062 C 0.73451 0.09465 0.74111 0.0
C2063 C 0.72684 0.08703 0.72251 0.0
C2064 C 0.74915 0.11638 0.80482 0.0
C2065 C 0.75453 0.1103 0.81903 0.0
C2066 C 0.74227 0.10893 0.78567 0.0
C2067 C 0.74066 0.09523 0.78018 0.0
C2068 C 0.74628 0.08928 0.7942 0.0
C2069 C 0.75308 0.09669 0.81341 0.0
H2070 H 0.03888 0.35874 -0.00044 0.0
H2071 H 0.0295 0.35839 0.06749 0.0
H2072 H 0.05422 0.34873 0.00727 0.0
H2073 H 0.04472 0.34855 0.07503 0.0
H2074 H 0.05729 0.31487 0.0794 0.0
H2075 H 0.04255 0.32441 0.06748 0.0
H2076 H 0.07763 0.35548 0.02724 0.0
H2077 H 0.09242 0.3456 0.03876 0.0
C2078 C 0.04016 0.35665 0.0161 0.0
C2079 C 0.03287 0.35926 0.03289 0.0
C2080 C 0.04896 0.35095 0.0205 0.0
C2081 C 0.05048 0.34767 0.04171 0.0
C2082 C 0.04351 0.35069 0.05847 0.0
C2083 C 0.03485 0.35643 0.05413 0.0
C2084 C 0.06179 0.32347 0.06759 0.0
C2085 C 0.07606 0.32946 0.06004 0.0
C2086 C 0.05339 0.32908 0.06098 0.0
C2087 C 0.05901 0.34083 0.04667 0.0
C2088 C 0.07302 0.34642 0.03829 0.0
C2089 C 0.0815 0.34083 0.045 0.0
H2090 H 0.64936 0.68835 0.99161 0.0
H2091 H 0.64214 0.67253 0.05671 0.0
H2092 H 0.65722 0.71316 0.0056 0.0
H2093 H 0.64988 0.69719 0.07051 0.0
H2094 H 0.68491 0.74493 0.08634 0.0
H2095 H 0.6744 0.72018 0.07094 0.0
H2096 H 0.6491 0.72857 0.02697 0.0
H2097 H 0.65989 0.75369 0.04232 0.0
C2098 C 0.64924 0.6901 0.00885 0.0
C2099 C 0.64531 0.6785 0.02306 0.0
C2100 C 0.65368 0.70429 0.01683 0.0
C2101 C 0.65435 0.70712 0.03914 0.0
C2102 C 0.64972 0.69537 0.05324 0.0
C2103 C 0.64523 0.68123 0.04531 0.0
C2104 C 0.67725 0.7416 0.0732 0.0
C2105 C 0.67332 0.75131 0.06541 0.0
C2106 C 0.67108 0.72735 0.06457 0.0
C2107 C 0.66083 0.7224 0.0479 0.0
C2108 C 0.65699 0.73212 0.03981 0.0
C2109 C 0.6631 0.74643 0.04863 0.0
H2110 H 0.32848 0.97106 0.04788 0.0
H2111 H 0.31023 0.96746 0.9849 0.0
H2112 H 0.30473 0.95253 0.06108 0.0
H2113 H 0.28639 0.94851 0.99805 0.0
H2114 H 0.24425 0.93039 0.03881 0.0
H2115 H 0.26767 0.94656 0.02196 0.0
H2116 H 0.2865 0.92685 0.05888 0.0
H2117 H 0.26336 0.91132 0.07657 0.0
C2118 C 0.31942 0.96619 0.03675 0.0
C2119 C 0.32125 0.97079 0.01534 0.0
C2120 C 0.30579 0.95545 0.0443 0.0
C2121 C 0.29363 0.94897 0.03062 0.0
C2122 C 0.29549 0.95339 0.00908 0.0
C2123 C 0.30917 0.96419 0.00152 0.0
C2124 C 0.25338 0.9295 0.04332 0.0
C2125 C 0.25191 0.91963 0.05922 0.0
C2126 C 0.26679 0.93866 0.03346 0.0
C2127 C 0.27902 0.93812 0.03922 0.0
C2128 C 0.27737 0.92775 0.05434 0.0
C2129 C 0.26401 0.91866 0.06427 0.0
H2130 H 0.34106 0.03665 0.04146 0.0
H2131 H 0.36543 0.0424 0.98304 0.0
H2132 H 0.33505 0.05442 0.02914 0.0
H2133 H 0.3591 0.05971 0.97049 0.0
H2134 H 0.35446 0.0978 0.95763 0.0
H2135 H 0.36277 0.08364 0.97575 0.0
H2136 H 0.31995 0.05577 0.00241 0.0
H2137 H 0.31185 0.07056 0.98535 0.0
C2138 C 0.34519 0.04175 0.02605 0.0
C2139 C 0.3537 0.03807 0.01322 0.0
C2140 C 0.34167 0.05187 0.01893 0.0
C2141 C 0.34656 0.0585 0.9988 0.0
C2142 C 0.35534 0.05504 0.98624 0.0
C2143 C 0.3589 0.04501 0.99338 0.0
C2144 C 0.34689 0.08893 0.96783 0.0
C2145 C 0.33243 0.08531 0.96989 0.0
C2146 C 0.35162 0.08064 0.97798 0.0
C2147 C 0.34199 0.06841 0.99029 0.0
C2148 C 0.3277 0.06516 0.99314 0.0
C2149 C 0.32299 0.07354 0.98311 0.0
H2150 H 0.96477 0.33213 0.97813 0.0
H2151 H 0.96447 0.31595 0.04135 0.0
H2152 H 0.94504 0.30783 0.96706 0.0
H2153 H 0.94433 0.29154 0.03035 0.0
H2154 H 0.92388 0.2472 0.99033 0.0
H2155 H 0.94059 0.27136 0.00661 0.0
H2156 H 0.91985 0.28996 0.9717 0.0
H2157 H 0.90377 0.26611 0.95449 0.0
C2158 C 0.96036 0.32343 0.98979 0.0
C2159 C 0.96628 0.32597 0.01059 0.0
C2160 C 0.94893 0.30948 0.98348 0.0
C2161 C 0.94305 0.29771 0.99782 0.0
C2162 C 0.9487 0.30034 0.01884 0.0
C2163 C 0.9602 0.31434 0.02517 0.0
C2164 C 0.92285 0.25644 0.98618 0.0
C2165 C 0.91257 0.2547 0.97087 0.0
C2166 C 0.93233 0.27026 0.99573 0.0
C2167 C 0.93169 0.28265 0.99025 0.0
C2168 C 0.92082 0.28071 0.97597 0.0
C2169 C 0.91143 0.26694 0.96633 0.0
H2170 H 0.68532 0.64291 0.02077 0.0
H2171 H 0.67934 0.65765 0.95975 0.0
H2172 H 0.7107 0.65209 0.01133 0.0
H2173 H 0.70447 0.66669 0.95047 0.0
H2174 H 0.75281 0.69592 0.94998 0.0
H2175 H 0.72858 0.68707 0.96378 0.0
H2176 H 0.72527 0.64681 0.98344 0.0
H2177 H 0.74987 0.65585 0.97002 0.0
C2178 C 0.6894 0.64807 0.00537 0.0
C2179 C 0.68033 0.6496 0.99104 0.0
C2180 C 0.70388 0.65326 -3e-05 0.0
C2181 C 0.70958 0.66023 0.98027 0.0
C2182 C 0.70045 0.66159 0.96592 0.0
C2183 C 0.68601 0.65631 0.9712 0.0
C2184 C 0.74712 0.68534 0.95771 0.0
C2185 C 0.75331 0.67659 0.95889 0.0
C2186 C 0.73314 0.68019 0.96538 0.0
C2187 C 0.72497 0.66618 0.97443 0.0
C2188 C 0.73134 0.65767 0.97655 0.0
C2189 C 0.74536 0.6628 0.96875 0.0
H2190 H 0.9775 0.65943 0.95352 0.0
H2191 H 0.95053 0.63662 0.00816 0.0
H2192 H 0.96154 0.66818 0.94472 0.0
H2193 H 0.9345 0.64559 -0.00067 0.0
H2194 H 0.90226 0.65281 0.95841 0.0
H2195 H 0.91715 0.64325 0.97057 0.0
H2196 H 0.95579 0.68589 0.9607 0.0
H2197 H 0.94108 0.69526 0.94792 0.0
C2198 C 0.96814 0.65624 0.96366 0.0
C2199 C 0.96534 0.64738 0.98162 0.0
C2200 C 0.95904 0.66137 0.95869 0.0
C2201 C 0.94688 0.65775 0.97151 0.0
C2202 C 0.9438 0.64855 0.98915 0.0
C2203 C 0.95298 0.64344 0.99421 0.0
C2204 C 0.91393 0.66014 0.95898 0.0
C2205 C 0.92047 0.67478 0.95209 0.0
C2206 C 0.92244 0.6547 0.96609 0.0
C2207 C 0.93764 0.66377 0.96632 0.0
C2208 C 0.94411 0.67856 0.96037 0.0
C2209 C 0.93564 0.68399 0.95333 0.0
H2210 H 0.38484 0.33281 0.00602 0.0
H2211 H 0.34086 0.32056 0.99201 0.0
H2212 H 0.37975 0.30906 0.99144 0.0
H2213 H 0.33559 0.29663 0.97818 0.0
H2214 H 0.33813 0.26588 0.92785 0.0
H2215 H 0.34156 0.2877 0.94686 0.0
H2216 H 0.36698 0.28283 0.9953 0.0
H2217 H 0.36373 0.261 0.97585 0.0
C2218 C 0.37401 0.32494 0.00016 0.0
C2219 C 0.36331 0.32862 -8e-05 0.0
C2220 C 0.37106 0.31128 0.99191 0.0
C2221 C 0.35729 0.30095 0.98343 0.0
C2222 C 0.34641 0.30443 0.98412 0.0
C2223 C 0.34941 0.31813 0.99215 0.0
C2224 C 0.34423 0.26929 0.94276 0.0
C2225 C 0.35062 0.26169 0.95039 0.0
C2226 C 0.34619 0.28182 0.95372 0.0
C2227 C 0.35453 0.28704 0.97268 0.0
C2228 C 0.36067 0.27924 0.98059 0.0
C2229 C 0.35878 0.26672 0.96951 0.0
H2230 H 0.6739 0.01746 0.98264 0.0
H2231 H 0.66801 0.05014 0.01583 0.0
H2232 H 0.69756 0.03678 0.97012 0.0
H2233 H 0.6915 0.06964 0.00253 0.0
H2234 H 0.73914 0.10115 0.9872 0.0
H2235 H 0.71727 0.08118 0.00394 0.0
H2236 H 0.70686 0.0555 0.94452 0.0
H2237 H 0.72876 0.07519 0.9282 0.0
C2238 C 0.67765 0.0288 0.98719 0.0
C2239 C 0.66903 0.03229 6e-05 0.0
C2240 C 0.6912 0.03991 0.97992 0.0
C2241 C 0.69641 0.05482 0.98507 0.0
C2242 C 0.68793 0.05828 0.99842 0.0
C2243 C 0.67441 0.04711 0.00594 0.0
C2244 C 0.7322 0.09115 0.97786 0.0
C2245 C 0.73571 0.08969 0.95645 0.0
C2246 C 0.71964 0.07974 0.98739 0.0
C2247 C 0.71026 0.06669 0.97561 0.0
C2248 C 0.71394 0.06522 0.95429 0.0
C2249 C 0.72652 0.07653 0.94487 0.0
H2250 H 0.65929 0.97958 0.05523 0.0
H2251 H 0.63389 0.94973 0.00305 0.0
H2252 H 0.66771 0.96333 0.06456 0.0
H2253 H 0.6426 0.93342 0.01231 0.0
H2254 H 0.64911 0.90154 0.05569 0.0
H2255 H 0.64062 0.91696 0.04163 0.0
H2256 H 0.68357 0.95546 0.04999 0.0
H2257 H 0.69186 0.94031 0.0649 0.0
C2258 C 0.65553 0.96956 0.04566 0.0
C2259 C 0.64594 0.96598 0.02835 0.0
C2260 C 0.66047 0.96028 0.05092 0.0
C2261 C 0.65597 0.94717 0.03901 0.0
C2262 C 0.64623 0.94344 0.02181 0.0
C2263 C 0.64128 0.95279 0.01648 0.0
C2264 C 0.65675 0.91329 0.05442 0.0
C2265 C 0.67115 0.91967 0.06162 0.0
C2266 C 0.65192 0.9221 0.04617 0.0
C2267 C 0.66138 0.93746 0.04499 0.0
C2268 C 0.67594 0.94369 0.05106 0.0
C2269 C 0.68075 0.93493 0.05933 0.0
H2270 H 0.04755 0.67788 0.99477 0.0
H2271 H 0.01487 0.68004 0.03237 0.0
H2272 H 0.0661 0.7018 0.00981 0.0
H2273 H 0.03314 0.70427 0.04646 0.0
H2274 H 0.07088 0.73618 0.0896 0.0
H2275 H 0.05182 0.71421 0.07136 0.0
H2276 H 0.07666 0.72749 0.01228 0.0
H2277 H 0.09612 0.74928 0.03112 0.0
C2278 C 0.04432 0.68362 0.00596 0.0
C2279 C 0.02983 0.67704 0.01263 0.0
C2280 C 0.05493 0.69739 0.01449 0.0
C2281 C 0.0512 0.70499 0.02958 0.0
C2282 C 0.03653 0.69862 0.03538 0.0
C2283 C 0.02601 0.68475 0.02721 0.0
C2284 C 0.07215 0.73454 0.07261 0.0
C2285 C 0.08493 0.74446 0.06174 0.0
C2286 C 0.06118 0.72193 0.06207 0.0
C2287 C 0.0626 0.719 0.04024 0.0
C2288 C 0.07526 0.72922 0.02917 0.0
C2289 C 0.08636 0.74176 0.03987 0.0
H2290 H 0.3177 0.34237 0.06111 0.0
H2291 H 0.32123 0.36928 0.00771 0.0
H2292 H 0.29445 0.33924 0.07073 0.0
H2293 H 0.29765 0.36579 0.01701 0.0
H2294 H 0.26506 0.37162 0.05911 0.0
H2295 H 0.28688 0.37333 0.04458 0.0
H2296 H 0.26969 0.32767 0.05965 0.0
H2297 H 0.24827 0.32619 0.07526 0.0
C2298 C 0.31345 0.34751 0.05129 0.0
C2299 C 0.32136 0.35613 0.0337 0.0
C2300 C 0.30002 0.34561 0.05669 0.0
C2301 C 0.29411 0.35219 0.04458 0.0
C2302 C 0.30195 0.36068 0.02682 0.0
C2303 C 0.31544 0.36264 0.02145 0.0
C2304 C 0.26591 0.36193 0.05926 0.0
C2305 C 0.25497 0.34883 0.06862 0.0
C2306 C 0.27837 0.36286 0.0507 0.0
C2307 C 0.28014 0.35069 0.05119 0.0
C2308 C 0.26881 0.33734 0.0594 0.0
C2309 C 0.25641 0.33643 0.06807 0.0
H2310 H 0.68546 0.68056 0.40563 0.0
H2311 H 0.71003 0.70056 0.3479 0.0
H2312 H 0.70209 0.67265 0.41459 0.0
H2313 H 0.72666 0.69239 0.35683 0.0
H2314 H 0.76094 0.68731 0.39501 0.0
H2315 H 0.74532 0.69629 0.38397 0.0
H2316 H 0.7075 0.65444 0.40031 0.0
H2317 H 0.72295 0.6457 0.412 0.0
C2318 C 0.69443 0.68329 0.39483 0.0
C2319 C 0.69636 0.69112 0.37598 0.0
C2320 C 0.70391 0.67866 0.39992 0.0
C2321 C 0.71559 0.68173 0.38628 0.0
C2322 C 0.71779 0.6899 0.36768 0.0
C2323 C 0.70823 0.69453 0.36254 0.0
C2324 C 0.74929 0.68004 0.39618 0.0
C2325 C 0.74321 0.66579 0.4044 0.0
C2326 C 0.74035 0.68514 0.3897 0.0
C2327 C 0.72519 0.67612 0.39148 0.0
C2328 C 0.71915 0.66174 0.39905 0.0
C2329 C 0.72803 0.65665 0.40546 0.0
H2330 H 0.33744 0.02723 0.33507 0.0
H2331 H 0.29641 0.00598 0.36866 0.0
H2332 H 0.3428 0.05113 0.34928 0.0
H2333 H 0.30155 0.02992 0.3823 0.0
H2334 H 0.32501 0.07111 0.42637 0.0
H2335 H 0.3175 0.0476 0.40856 0.0
H2336 H 0.33683 0.06997 0.3492 0.0
H2337 H 0.34456 0.09367 0.36728 0.0
C2338 C 0.32946 0.02768 0.34521 0.0
C2339 C 0.31657 0.01469 0.35093 0.0
C2340 C 0.33249 0.04141 0.35325 0.0
C2341 C 0.32266 0.04246 0.36709 0.0
C2342 C 0.30949 0.0295 0.37204 0.0
C2343 C 0.30651 0.01577 0.36413 0.0
C2344 C 0.32743 0.07101 0.40941 0.0
C2345 C 0.33533 0.08425 0.39821 0.0
C2346 C 0.3231 0.0575 0.39916 0.0
C2347 C 0.32651 0.05685 0.3774 0.0
C2348 C 0.33418 0.07008 0.36604 0.0
C2349 C 0.33858 0.08365 0.37636 0.0
H2350 H 0.0058 0.29498 0.39589 0.0
H2351 H 0.99072 0.30559 0.33915 0.0
H2352 H 0.98088 0.27764 0.40626 0.0
H2353 H 0.96571 0.28769 0.34895 0.0
H2354 H 0.92353 0.26927 0.38793 0.0
H2355 H 0.94794 0.2847 0.37396 0.0
H2356 H 0.95971 0.25488 0.39913 0.0
H2357 H 0.93573 0.24017 0.4146 0.0
C2358 C 0.99715 0.2934 0.38541 0.0
C2359 C 1.00023 0.30171 0.36676 0.0
C2360 C 0.98282 0.28336 0.39128 0.0
C2361 C 0.97119 0.28121 0.37847 0.0
C2362 C 0.97434 0.28922 0.35944 0.0
C2363 C 0.98868 0.29943 0.35372 0.0
C2364 C 0.93133 0.26603 0.3906 0.0
C2365 C 0.92761 0.25351 0.40266 0.0
C2366 C 0.94532 0.27478 0.38228 0.0
C2367 C 0.95592 0.27115 0.38554 0.0
C2368 C 0.95197 0.25823 0.39666 0.0
C2369 C 0.93806 0.2496 0.40524 0.0
H2370 H 0.00115 0.36084 0.34104 0.0
H2371 H 0.04734 0.38603 0.32921 0.0
H2372 H 0.99924 0.38132 0.3286 0.0
H2373 H 0.04537 0.40651 0.31682 0.0
H2374 H 0.03748 0.44473 0.31168 0.0
H2375 H 0.03881 0.42529 0.3296 0.0
H2376 H 0.00251 0.39229 0.29181 0.0
H2377 H 0.00145 0.41153 0.27336 0.0
C2378 C 0.01092 0.37079 0.33601 0.0
C2379 C 0.02438 0.37176 0.33595 0.0
C2380 C 0.0098 0.38249 0.32883 0.0
C2381 C 0.02214 0.39548 0.32168 0.0
C2382 C 0.0357 0.39668 0.3224 0.0
C2383 C 0.0368 0.38491 0.32936 0.0
C2384 C 0.02979 0.43334 0.30715 0.0
C2385 C 0.01937 0.42976 0.29099 0.0
C2386 C 0.03053 0.42222 0.31748 0.0
C2387 C 0.02076 0.4073 0.31209 0.0
C2388 C 0.01005 0.4037 0.29652 0.0
C2389 C 0.00941 0.41477 0.28601 0.0
H2390 H 0.6189 0.65448 0.36883 0.0
H2391 H 0.64338 0.66381 0.30967 0.0
H2392 H 0.60209 0.62926 0.35557 0.0
H2393 H 0.62664 0.63874 0.29658 0.0
H2394 H 0.60552 0.58904 0.29177 0.0
H2395 H 0.62112 0.61371 0.30724 0.0
H2396 H 0.58343 0.61548 0.32547 0.0
H2397 H 0.56769 0.59055 0.31018 0.0
C2398 C 0.62065 0.6512 0.35298 0.0
C2399 C 0.63253 0.66114 0.34036 0.0
C2400 C 0.611 0.63678 0.34539 0.0
C2401 C 0.61315 0.63201 0.32515 0.0
C2402 C 0.62485 0.64204 0.31239 0.0
C2403 C 0.63439 0.65645 0.31986 0.0
C2404 C 0.60052 0.59455 0.29944 0.0
C2405 C 0.58536 0.58783 0.29981 0.0
C2406 C 0.60947 0.60875 0.30806 0.0
C2407 C 0.60349 0.61656 0.31736 0.0
C2408 C 0.58832 0.60969 0.31843 0.0
C2409 C 0.57933 0.59548 0.3096 0.0
H2410 H 0.33518 0.96561 0.28424 0.0
H2411 H 0.34728 0.97935 0.35065 0.0
H2412 H 0.35954 0.97108 0.27648 0.0
H2413 H 0.37176 0.98463 0.34287 0.0
H2414 H 0.41766 0.01025 0.31002 0.0
H2415 H 0.39324 0.00264 0.32232 0.0
H2416 H 0.37584 0.96253 0.28374 0.0
H2417 H 0.40003 0.97038 0.27073 0.0
C2418 C 0.34301 0.96968 0.29726 0.0
C2419 C 0.33928 0.97206 0.31806 0.0
C2420 C 0.35697 0.97271 0.29283 0.0
C2421 C 0.36758 0.97822 0.30909 0.0
C2422 C 0.36384 0.98049 0.32998 0.0
C2423 C 0.34981 0.9774 0.33444 0.0
C2424 C 0.40863 0.99977 0.30427 0.0
C2425 C 0.41084 0.991 0.28925 0.0
C2426 C 0.39465 0.99534 0.31148 0.0
C2427 C 0.38258 0.98206 0.3038 0.0
C2428 C 0.38489 0.97294 0.28969 0.0
C2429 C 0.39882 0.97736 0.28246 0.0
H2430 H 0.61789 0.95713 0.3308 0.0
H2431 H 0.64256 0.00474 0.33703 0.0
H2432 H 0.59727 0.95794 0.31705 0.0
H2433 H 0.62196 0.00548 0.32333 0.0
H2434 H 0.59079 0.99946 0.26753 0.0
H2435 H 0.61026 0.99966 0.28682 0.0
H2436 H 0.57893 0.96509 0.32754 0.0
H2437 H 0.55929 0.96515 0.30867 0.0
C2438 C 0.61887 0.96774 0.32946 0.0
C2439 C 0.63191 0.98087 0.33484 0.0
C2440 C 0.60703 0.9682 0.32171 0.0
C2441 C 0.60805 0.98178 0.31903 0.0
C2442 C 0.62093 0.99487 0.32503 0.0
C2443 C 0.6327 0.99442 0.33294 0.0
C2444 C 0.58798 0.99215 0.28096 0.0
C2445 C 0.5734 0.9823 0.28652 0.0
C2446 C 0.59918 0.99224 0.29196 0.0
C2447 C 0.59611 0.98237 0.30865 0.0
C2448 C 0.58159 0.97271 0.31457 0.0
C2449 C 0.57036 0.97273 0.30371 0.0
H2450 H 0.01667 0.65755 0.35417 0.0
H2451 H 0.04811 0.67345 0.30271 0.0
H2452 H 0.00993 0.6323 0.34529 0.0
H2453 H 0.04083 0.64824 0.29286 0.0
H2454 H 0.03119 0.60267 0.2838 0.0
H2455 H 0.0404 0.62686 0.30022 0.0
H2456 H 0.99687 0.61399 0.31964 0.0
H2457 H 0.98789 0.58933 0.30514 0.0
C2458 C 0.02214 0.65561 0.34095 0.0
C2459 C 0.03288 0.66744 0.32909 0.0
C2460 C 0.01821 0.64112 0.33572 0.0
C2461 C 0.02469 0.63809 0.31818 0.0
C2462 C 0.03574 0.65005 0.30671 0.0
C2463 C 0.03988 0.66455 0.31225 0.0
C2464 C 0.02361 0.60478 0.29217 0.0
C2465 C 0.00872 0.59395 0.29291 0.0
C2466 C 0.02888 0.61884 0.30127 0.0
C2467 C 0.0194 0.62259 0.31097 0.0
C2468 C 0.0046 0.61158 0.31248 0.0
C2469 C 0.99937 0.59743 0.30378 0.0
H2470 H 0.35373 0.36627 0.36249 0.0
H2471 H 0.33441 0.36202 0.30018 0.0
H2472 H 0.37764 0.38377 0.34773 0.0
H2473 H 0.35824 0.37947 0.28558 0.0
H2474 H 0.40383 0.39252 0.26224 0.0
H2475 H 0.37999 0.37746 0.27844 0.0
H2476 H 0.39254 0.40929 0.33092 0.0
H2477 H 0.41665 0.42444 0.31465 0.0
C2478 C 0.35455 0.36918 0.34573 0.0
C2479 C 0.34218 0.36264 0.33246 0.0
C2480 C 0.36823 0.37925 0.33733 0.0
C2481 C 0.3698 0.38287 0.31547 0.0
C2482 C 0.35737 0.37673 0.30242 0.0
C2483 C 0.34371 0.36677 0.31083 0.0
C2484 C 0.40156 0.39627 0.27732 0.0
C2485 C 0.41213 0.40959 0.28728 0.0
C2486 C 0.38785 0.38773 0.28646 0.0
C2487 C 0.38439 0.39224 0.30588 0.0
C2488 C 0.39495 0.40554 0.31597 0.0
C2489 C 0.40868 0.41421 0.30664 0.0
H2490 H 0.27412 0.27351 0.37257 0.0
H2491 H 0.3159 0.29944 0.34187 0.0
H2492 H 0.28085 0.25617 0.38426 0.0
H2493 H 0.32271 0.28231 0.35392 0.0
H2494 H 0.32816 0.244 0.36708 0.0
H2495 H 0.31821 0.25742 0.35055 0.0
H2496 H 0.29755 0.257 0.41073 0.0
H2497 H 0.30744 0.24367 0.42717 0.0
C2498 C 0.2847 0.27546 0.36817 0.0
C2499 C 0.29452 0.28793 0.35643 0.0
C2500 C 0.28857 0.26555 0.37497 0.0
C2501 C 0.30235 0.26789 0.37016 0.0
C2502 C 0.31195 0.28006 0.35771 0.0
C2503 C 0.30808 0.28996 0.35092 0.0
C2504 C 0.3214 0.24669 0.37671 0.0
C2505 C 0.31863 0.24277 0.39846 0.0
C2506 C 0.31572 0.25439 0.36725 0.0
C2507 C 0.30713 0.25834 0.37933 0.0
C2508 C 0.30392 0.25394 0.40084 0.0
C2509 C 0.3096 0.24626 0.41028 0.0
H2510 H 0.69175 0.01129 0.3787 0.0
H2511 H 0.71492 0.01659 0.31913 0.0
H2512 H 0.7117 0.0349 0.39201 0.0
H2513 H 0.73489 0.04041 0.33245 0.0
H2514 H 0.77381 0.06999 0.37947 0.0
H2515 H 0.75365 0.04885 0.36075 0.0
H2516 H 0.7243 0.06153 0.38624 0.0
H2517 H 0.74435 0.08236 0.40549 0.0
C2518 C 0.70105 0.01755 0.36836 0.0
C2519 C 0.70178 0.01201 0.3479 0.0
C2520 C 0.71244 0.03116 0.37593 0.0
C2521 C 0.72486 0.03955 0.36326 0.0
C2522 C 0.7255 0.03414 0.34264 0.0
C2523 C 0.71404 0.02053 0.33499 0.0
C2524 C 0.76307 0.06833 0.38089 0.0
C2525 C 0.76066 0.07777 0.39412 0.0
C2526 C 0.75154 0.0563 0.37002 0.0
C2527 C 0.73736 0.05344 0.37221 0.0
C2528 C 0.73508 0.06333 0.38449 0.0
C2529 C 0.7466 0.07537 0.39531 0.0
H2530 H 0.98328 0.69831 0.34125 0.0
H2531 H 0.98392 0.67454 0.39615 0.0
H2532 H 0.95759 0.68912 0.3479 0.0
H2533 H 0.95855 0.66565 0.40292 0.0
H2534 H 0.91058 0.64004 0.39911 0.0
H2535 H 0.93508 0.64862 0.38693 0.0
H2536 H 0.94162 0.69144 0.3745 0.0
H2537 H 0.91672 0.68262 0.38578 0.0
C2538 C 0.97797 0.69119 0.35476 0.0
C2539 C 0.98563 0.68711 0.36812 0.0
C2540 C 0.96328 0.68596 0.35859 0.0
C2541 C 0.95598 0.67652 0.37579 0.0
C2542 C 0.96374 0.67263 0.38924 0.0
C2543 C 0.97835 0.67784 0.38545 0.0
C2544 C 0.91703 0.65115 0.3932 0.0
C2545 C 0.91165 0.66065 0.39354 0.0
C2546 C 0.93119 0.65615 0.38652 0.0
C2547 C 0.9404 0.6708 0.38013 0.0
C2548 C 0.93481 0.68009 0.37934 0.0
C2549 C 0.92058 0.67507 0.38598 0.0
H2550 H 0.36541 0.01781 0.6742 0.0
H2551 H 0.39085 0.05585 0.71609 0.0
H2552 H 0.38065 0.00821 0.68368 0.0
H2553 H 0.40593 0.04609 0.72584 0.0
H2554 H 0.43644 0.02888 0.72897 0.0
H2555 H 0.42368 0.03974 0.71317 0.0
H2556 H 0.38341 0.99765 0.71628 0.0
H2557 H 0.39604 0.98688 0.73215 0.0
C2558 C 0.37433 0.0242 0.68529 0.0
C2559 C 0.37682 0.03754 0.69455 0.0
C2560 C 0.38303 0.01865 0.69079 0.0
C2561 C 0.39442 0.02631 0.70567 0.0
C2562 C 0.39732 0.03997 0.71419 0.0
C2563 C 0.38861 0.04552 0.7087 0.0
C2564 C 0.42487 0.02194 0.72619 0.0
C2565 C 0.41728 0.007 0.73185 0.0
C2566 C 0.41757 0.02816 0.71714 0.0
C2567 C 0.40253 0.01957 0.71348 0.0
C2568 C 0.39504 0.00454 0.71853 0.0
C2569 C 0.40231 0.99834 0.72762 0.0
H2570 H 0.99557 0.34886 0.70015 0.0
H2571 H 0.95262 0.33628 0.67914 0.0
H2572 H 1.00003 0.37287 0.71212 0.0
H2573 H 0.95682 0.36005 0.69188 0.0
H2574 H 0.97136 0.40787 0.70467 0.0
H2575 H 0.96949 0.38603 0.68732 0.0
H2576 H 0.99257 0.38242 0.74075 0.0
H2577 H 0.9947 0.4043 0.75762 0.0
C2578 C 0.98708 0.35122 0.69809 0.0
C2579 C 0.97371 0.34063 0.68884 0.0
C2580 C 0.9896 0.36497 0.70505 0.0
C2581 C 0.97874 0.36839 0.70318 0.0
C2582 C 0.96551 0.35791 0.69335 0.0
C2583 C 0.96305 0.34422 0.68616 0.0
C2584 C 0.97613 0.40244 0.71253 0.0
C2585 C 0.98323 0.40783 0.73244 0.0
C2586 C 0.97502 0.3899 0.70267 0.0
C2587 C 0.98086 0.38241 0.71262 0.0
C2588 C 0.9882 0.38803 0.73235 0.0
C2589 C 0.98941 0.40059 0.74208 0.0
H2590 H 0.65883 0.65016 0.69615 0.0
H2591 H 0.67293 0.61896 0.69153 0.0
H2592 H 0.63513 0.63072 0.70861 0.0
H2593 H 0.64929 0.59958 0.70441 0.0
H2594 H 0.60133 0.56524 0.71272 0.0
H2595 H 0.62344 0.58439 0.69541 0.0
H2596 H 0.62568 0.61676 0.74131 0.0
H2597 H 0.60374 0.59774 0.75856 0.0
C2598 C 0.65687 0.63915 0.69774 0.0
C2599 C 0.66782 0.63614 0.69298 0.0
C2600 C 0.6433 0.62802 0.70496 0.0
C2601 C 0.64034 0.61362 0.70762 0.0
C2602 C 0.65116 0.61052 0.70232 0.0
C2603 C 0.66475 0.62166 0.69508 0.0
C2604 C 0.60652 0.57646 0.71904 0.0
C2605 C 0.60074 0.57995 0.73701 0.0
C2606 C 0.61919 0.58742 0.70914 0.0
C2607 C 0.62633 0.6021 0.717 0.0
C2608 C 0.62033 0.60562 0.73461 0.0
C2609 C 0.60771 0.59469 0.74449 0.0
H2610 H 0.70135 0.70956 0.61357 0.0
H2611 H 0.69544 0.71456 0.68154 0.0
H2612 H 0.69477 0.72758 0.60565 0.0
H2613 H 0.68897 0.73278 0.67354 0.0
H2614 H 0.65899 0.74782 0.64442 0.0
H2615 H 0.6684 0.73261 0.65591 0.0
H2616 H 0.7034 0.75389 0.6101 0.0
H2617 H 0.69379 0.76871 0.59815 0.0
C2618 C 0.69878 0.71461 0.62686 0.0
C2619 C 0.69888 0.71058 0.64818 0.0
C2620 C 0.6951 0.72502 0.62232 0.0
C2621 C 0.69137 0.73163 0.63898 0.0
C2622 C 0.69169 0.72779 0.66036 0.0
C2623 C 0.69547 0.71742 0.66493 0.0
C2624 C 0.66876 0.74932 0.63693 0.0
C2625 C 0.67559 0.75943 0.6203 0.0
C2626 C 0.67421 0.7407 0.64364 0.0
C2627 C 0.68658 0.74197 0.63378 0.0
C2628 C 0.69376 0.75253 0.61782 0.0
C2629 C 0.68834 0.76116 0.61116 0.0
H2630 H 0.31238 0.98203 0.6987 0.0
H2631 H 0.29586 0.00041 0.65438 0.0
H2632 H 0.29329 0.95718 0.68754 0.0
H2633 H 0.27677 0.97552 0.64328 0.0
H2634 H 0.23792 0.92812 0.63958 0.0
H2635 H 0.25456 0.95206 0.65677 0.0
H2636 H 0.28902 0.94302 0.65247 0.0
H2637 H 0.2727 0.91945 0.6347 0.0
C2638 C 0.30458 0.98078 0.68678 0.0
C2639 C 0.30571 0.9932 0.67729 0.0
C2640 C 0.29368 0.96655 0.68036 0.0
C2641 C 0.28359 0.96443 0.66449 0.0
C2642 C 0.28433 0.97683 0.65567 0.0
C2643 C 0.29532 0.99108 0.66194 0.0
C2644 C 0.24904 0.93122 0.64231 0.0
C2645 C 0.25394 0.92181 0.63561 0.0
C2646 C 0.25854 0.94491 0.65222 0.0
C2647 C 0.27308 0.9494 0.65592 0.0
C2648 C 0.27782 0.93977 0.65009 0.0
C2649 C 0.2684 0.92619 0.63997 0.0
H2650 H 0.03351 0.33698 0.69483 0.0
H2651 H 0.01086 0.29437 0.66216 0.0
H2652 H 0.0563 0.34177 0.67922 0.0
H2653 H 0.03372 0.29899 0.64704 0.0
H2654 H 0.07191 0.32244 0.5997 0.0
H2655 H 0.04973 0.31478 0.61962 0.0
H2656 H 0.07472 0.33539 0.67752 0.0
H2657 H 0.09707 0.34317 0.65738 0.0
C2658 C 0.03342 0.32852 0.68462 0.0
C2659 C 0.02034 0.31537 0.67952 0.0
C2660 C 0.04652 0.33123 0.67577 0.0
C2661 C 0.04683 0.32082 0.6617 0.0
C2662 C 0.03383 0.30737 0.65747 0.0
C2663 C 0.02073 0.30469 0.66623 0.0
C2664 C 0.07269 0.32506 0.61679 0.0
C2665 C 0.08628 0.3334 0.62695 0.0
C2666 C 0.05994 0.32066 0.62824 0.0
C2667 C 0.06042 0.32445 0.6502 0.0
C2668 C 0.07398 0.33245 0.66056 0.0
C2669 C 0.08678 0.33689 0.64904 0.0
H2670 H 0.31433 0.34114 0.65514 0.0
H2671 H 0.28237 0.29479 0.66207 0.0
H2672 H 0.29531 0.34569 0.64584 0.0
H2673 H 0.26317 0.29941 0.65255 0.0
H2674 H 0.24151 0.31528 0.60142 0.0
H2675 H 0.2567 0.3076 0.61822 0.0
H2676 H 0.27368 0.34508 0.66227 0.0
H2677 H 0.25835 0.35267 0.64573 0.0
C2678 C 0.30321 0.33191 0.6548 0.0
C2679 C 0.29985 0.31759 0.65924 0.0
C2680 C 0.29229 0.33456 0.64965 0.0
C2681 C 0.27775 0.32293 0.6486 0.0
C2682 C 0.27431 0.30858 0.65325 0.0
C2683 C 0.28527 0.30595 0.65873 0.0
C2684 C 0.24813 0.32163 0.61513 0.0
C2685 C 0.24889 0.33472 0.62203 0.0
C2686 C 0.25685 0.31723 0.62473 0.0
C2687 C 0.26652 0.32587 0.64133 0.0
C2688 C 0.2665 0.33835 0.64924 0.0
C2689 C 0.25775 0.34271 0.63974 0.0
H2690 H 0.71323 0.00477 0.68814 0.0
H2691 H 0.67134 0.99126 0.66113 0.0
H2692 H 0.71022 0.98123 0.67636 0.0
H2693 H 0.66838 0.96777 0.6494 0.0
H2694 H 0.66363 0.92249 0.64443 0.0
H2695 H 0.66591 0.94422 0.66278 0.0
H2696 H 0.70975 0.97081 0.63928 0.0
H2697 H 0.70742 0.94941 0.6204 0.0
C2698 C 0.70331 0.99672 0.67994 0.0
C2699 C 0.69258 0.99993 0.6754 0.0
C2700 C 0.70162 0.98327 0.67314 0.0
C2701 C 0.6891 0.9727 0.66189 0.0
C2702 C 0.67809 0.97565 0.6582 0.0
C2703 C 0.67984 0.98915 0.66479 0.0
C2704 C 0.67376 0.93296 0.64316 0.0
C2705 C 0.68532 0.93413 0.63084 0.0
C2706 C 0.67507 0.94538 0.65375 0.0
C2707 C 0.68801 0.95919 0.65248 0.0
C2708 C 0.69972 0.96027 0.64085 0.0
C2709 C 0.69837 0.94793 0.63007 0.0
H2710 H 0.00165 0.69397 0.6335 0.0
H2711 H 0.01113 0.7205 0.69189 0.0
H2712 H 0.02599 0.71095 0.62042 0.0
H2713 H 0.03571 0.73747 0.67877 0.0
H2714 H 0.07406 0.77145 0.6356 0.0
H2715 H 0.04953 0.75576 0.64997 0.0
H2716 H 0.05036 0.71699 0.6302 0.0
H2717 H 0.07446 0.7325 0.61531 0.0
C2718 C 0.00891 0.70344 0.64355 0.0
C2719 C 0.00446 0.7058 0.66383 0.0
C2720 C 0.02291 0.71314 0.63608 0.0
C2721 C 0.03284 0.72545 0.64868 0.0
C2722 C 0.02829 0.7281 0.66868 0.0
C2723 C 0.01423 0.71835 0.67621 0.0
C2724 C 0.06898 0.75958 0.63436 0.0
C2725 C 0.07624 0.75324 0.62435 0.0
C2726 C 0.05499 0.75061 0.64272 0.0
C2727 C 0.04797 0.73514 0.64104 0.0
C2728 C 0.05538 0.72886 0.63146 0.0
C2729 C 0.0693 0.73778 0.6232 0.0
H2730 H 0.96355 0.62418 0.67404 0.0
H2731 H 0.99346 0.6545 0.72233 0.0
H2732 H 0.96978 0.60601 0.68361 0.0
H2733 H 0.99942 0.63634 0.73211 0.0
H2734 H 0.01747 0.60711 0.73318 0.0
H2735 H 0.01187 0.62451 0.71844 0.0
H2736 H 0.96671 0.58995 0.71319 0.0
H2737 H 0.97243 0.57233 0.72703 0.0
C2738 C 0.97142 0.62696 0.68671 0.0
C2739 C 0.97802 0.6408 0.69741 0.0
C2740 C 0.97495 0.61653 0.69224 0.0
C2741 C 0.98517 0.61975 0.70853 0.0
C2742 C 0.99172 0.63359 0.7192 0.0
C2743 C 0.9882 0.64398 0.71369 0.0
C2744 C 0.0064 0.6031 0.72838 0.0
C2745 C 0.99539 0.58831 0.73141 0.0
C2746 C 0.00315 0.61314 0.72021 0.0
C2747 C 0.9888 0.60868 0.71494 0.0
C2748 C 0.97788 0.59375 0.71703 0.0
C2749 C 0.98114 0.58368 0.72517 0.0
H2750 H 0.38556 0.34347 0.67214 0.0
H2751 H 0.35174 0.34896 0.69962 0.0
H2752 H 0.40367 0.36882 0.68319 0.0
H2753 H 0.36982 0.37422 0.71057 0.0
H2754 H 0.40465 0.42308 0.71021 0.0
H2755 H 0.38771 0.39882 0.6942 0.0
H2756 H 0.41318 0.38202 0.71918 0.0
H2757 H 0.42984 0.40601 0.73573 0.0
C2758 C 0.38199 0.35009 0.68044 0.0
C2759 C 0.36724 0.34419 0.68512 0.0
C2760 C 0.39235 0.36458 0.68678 0.0
C2761 C 0.38813 0.37348 0.69766 0.0
C2762 C 0.37336 0.36767 0.70197 0.0
C2763 C 0.36303 0.35315 0.69587 0.0
C2764 C 0.40666 0.41423 0.71228 0.0
C2765 C 0.4186 0.41653 0.72439 0.0
C2766 C 0.39698 0.40036 0.70306 0.0
C2767 C 0.39911 0.38854 0.70554 0.0
C2768 C 0.41136 0.39098 0.7168 0.0
C2769 C 0.42095 0.40478 0.72621 0.0
H2770 H 0.63389 0.00418 0.65271 0.0
H2771 H 0.65242 0.04315 0.69412 0.0
H2772 H 0.60967 0.9972 0.66508 0.0
H2773 H 0.6282 0.03608 0.70656 0.0
H2774 H 0.58119 0.02318 0.71566 0.0
H2775 H 0.60389 0.03166 0.69614 0.0
H2776 H 0.59781 0.98835 0.70062 0.0
H2777 H 0.57549 0.97997 0.72048 0.0
C2778 C 0.6328 0.01138 0.66421 0.0
C2779 C 0.6451 0.02414 0.67262 0.0
C2780 C 0.61892 0.00733 0.67135 0.0
C2781 C 0.61705 0.01602 0.68693 0.0
C2782 C 0.62928 0.02921 0.69443 0.0
C2783 C 0.64317 0.03321 0.6874 0.0
C2784 C 0.58467 0.01545 0.71244 0.0
C2785 C 0.57646 0.00088 0.71973 0.0
C2786 C 0.59765 0.02031 0.7012 0.0
C2787 C 0.60262 0.01067 0.69683 0.0
C2788 C 0.59416 0.99598 0.7034 0.0
C2789 C 0.58129 0.99117 0.71477 0.0
loop_
_geom_bond_atom_site_label_1
_geom_bond_atom_site_label_2
_geom_bond_distance
_geom_bond_site_symmetry_2
_ccdc_geom_bond_type
C0 O1 1.160 . S
C0 O7 1.185 . S
O1 C0 1.160 . S
O2 Zn3 1.899 1_656 S
O2 C10 1.284 1_556 S
Zn3 O2 1.899 1_454 S
Zn3 O4 2.032 . S
Zn3 O7 2.086 . S
Zn3 O12 1.977 1_554 S
O4 Zn3 2.032 . S
O4 C8 1.278 1_455 S
C5 O6 1.203 1_455 S
C5 O12 1.267 . S
O6 C5 1.203 1_655 S
O7 C0 1.185 . S
O7 Zn3 2.086 . S
C8 O4 1.278 1_655 S
C8 O9 1.211 . S
O9 C8 1.211 . S
C10 O2 1.284 1_554 S
C10 O11 1.273 . S
O11 C10 1.273 . S
O12 Zn3 1.977 1_556 S
O12 C5 1.267 . S
C13 O14 1.160 1_554 S
C13 O20 1.185 . S
O14 C13 1.160 1_556 S
O15 Zn16 1.899 . S
O15 C23 1.284 . S
Zn16 O15 1.899 . S
Zn16 O17 2.032 1_554 S
Zn16 O20 2.086 . S
Zn16 O25 1.977 . S
O17 Zn16 2.032 1_556 S
O17 C21 1.278 . S
C18 O19 1.203 . S
C18 O25 1.267 . S
O19 C18 1.203 . S
O20 C13 1.185 . S
O20 Zn16 2.086 . S
C21 O17 1.278 . S
C21 O22 1.211 . S
O22 C21 1.211 . S
C23 O15 1.284 . S
C23 O24 1.273 . S
O24 C23 1.273 . S
O25 Zn16 1.977 . S
O25 C18 1.267 . S
C26 O27 1.160 1_554 S
C26 O33 1.185 . S
O27 C26 1.160 1_556 S
O28 Zn29 1.899 1_565 S
O28 C36 1.284 . S
Zn29 O28 1.899 1_545 S
Zn29 O30 2.032 1_554 S
Zn29 O33 2.086 . S
Zn29 O38 1.977 . S
O30 Zn29 2.032 1_556 S
O30 C34 1.278 . S
C31 O32 1.203 1_545 S
C31 O38 1.267 . S
O32 C31 1.203 1_565 S
O33 C26 1.185 . S
O33 Zn29 2.086 . S
C34 O30 1.278 . S
C34 O35 1.211 1_545 S
O35 C34 1.211 1_565 S
C36 O28 1.284 . S
C36 O37 1.273 . S
O37 C36 1.273 . S
O38 Zn29 1.977 . S
O38 C31 1.267 . S
C39 O40 1.160 . S
C39 O46 1.185 1_556 S
O40 C39 1.160 . S
O41 Zn42 1.899 1_455 S
O41 C49 1.284 . S
Zn42 O41 1.899 1_655 S
Zn42 O43 2.032 1_554 S
Zn42 O46 2.086 . S
Zn42 O51 1.977 . S
O43 Zn42 2.032 1_556 S
O43 C47 1.278 1_655 S
C44 O45 1.141 1_655 S
C44 O51 1.331 . S
O45 C44 1.141 1_455 S
O46 C39 1.185 1_554 S
O46 Zn42 2.086 . S
C47 O43 1.278 1_455 S
C47 O48 1.211 . S
O48 C47 1.211 . S
C49 O41 1.284 . S
C49 O50 1.273 . S
O50 C49 1.273 . S
O51 Zn42 1.977 . S
O51 C44 1.331 . S
C52 O53 1.160 . S
C52 O59 1.185 . S
O53 C52 1.160 . S
O54 Zn55 1.899 1_556 S
O54 C62 1.288 . S
Zn55 O54 1.899 1_554 S
Zn55 O56 2.032 . S
Zn55 O59 2.086 . S
Zn55 O64 1.977 1_554 S
O56 Zn55 2.032 . S
O56 C60 1.278 . S
C57 O58 1.203 . S
C57 O64 1.267 . S
O58 C57 1.203 . S
O59 C52 1.185 . S
O59 Zn55 2.086 . S
C60 O56 1.278 . S
C60 O61 1.211 . S
O61 C60 1.211 . S
C62 O54 1.288 . S
C62 O63 1.268 1_556 S
O63 C62 1.268 1_554 S
O64 Zn55 1.977 1_556 S
O64 C57 1.267 . S
C65 O66 1.160 . S
C65 O72 1.185 . S
O66 C65 1.160 . S
O67 Zn68 1.899 1_546 S
O67 C75 1.284 1_556 S
Zn68 O67 1.899 1_564 S
Zn68 O69 2.032 . S
Zn68 O72 2.086 . S
Zn68 O77 1.977 1_554 S
O69 Zn68 2.032 . S
O69 C73 1.278 1_565 S
C70 O71 1.138 1_565 S
C70 O77 1.336 . S
O71 C70 1.138 1_545 S
O72 C65 1.185 . S
O72 Zn68 2.086 . S
C73 O69 1.278 1_545 S
C73 O74 1.211 . S
O74 C73 1.211 . S
C75 O67 1.284 1_554 S
C75 O76 1.273 . S
O76 C75 1.273 . S
O77 Zn68 1.977 1_556 S
O77 C70 1.336 . S
C78 O79 1.160 . S
C78 O85 1.185 . S
O79 C78 1.160 . S
O80 Zn81 1.899 . S
O80 C88 1.284 . S
Zn81 O80 1.899 . S
Zn81 O82 2.032 . S
Zn81 O85 2.086 . S
Zn81 O90 1.977 . S
O82 Zn81 2.032 . S
O82 C86 1.278 . S
C83 O84 1.203 . S
C83 O90 1.267 . S
O84 C83 1.203 . S
O85 C78 1.185 . S
O85 Zn81 2.086 . S
C86 O82 1.278 . S
C86 O87 1.211 . S
O87 C86 1.211 . S
C88 O80 1.284 . S
C88 O89 1.273 . S
O89 C88 1.273 . S
O90 Zn81 1.977 . S
O90 C83 1.267 . S
C91 O92 1.160 . S
C91 O98 1.185 . S
O92 C91 1.160 . S
O93 Zn94 1.899 . S
O93 C101 1.284 . S
Zn94 O93 1.899 . S
Zn94 O95 2.032 . S
Zn94 O98 2.086 . S
Zn94 O103 1.977 . S
O95 Zn94 2.032 . S
O95 C99 1.278 . S
C96 O97 1.203 . S
C96 O103 1.267 . S
O97 C96 1.203 . S
O98 C91 1.185 . S
O98 Zn94 2.086 . S
C99 O95 1.278 . S
C99 O100 1.211 . S
O100 C99 1.211 . S
C101 O93 1.284 . S
C101 O102 1.273 . S
O102 C101 1.273 . S
O103 Zn94 1.977 . S
O103 C96 1.267 . S
C104 O105 1.160 . S
C104 O111 1.185 . S
O105 C104 1.160 . S
O106 Zn107 1.899 . S
O106 C114 1.284 . S
Zn107 O106 1.899 . S
Zn107 O108 2.032 . S
Zn107 O111 2.086 . S
Zn107 O116 1.977 . S
O108 Zn107 2.032 . S
O108 C112 1.278 . S
C109 O110 1.203 . S
C109 O116 1.267 . S
O110 C109 1.203 . S
O111 C104 1.185 . S
O111 Zn107 2.086 . S
C112 O108 1.278 . S
C112 O113 1.211 . S
O113 C112 1.211 . S
C114 O106 1.284 . S
C114 O115 1.273 . S
O115 C114 1.273 . S
O116 Zn107 1.977 . S
O116 C109 1.267 . S
C117 O118 1.160 . S
C117 O124 1.185 . S
O118 C117 1.160 . S
O119 Zn120 1.899 . S
O119 C127 1.281 . S
Zn120 O119 1.899 . S
Zn120 O121 2.032 . S
Zn120 O124 2.086 . S
Zn120 O129 1.977 . S
O121 Zn120 2.032 . S
O121 C125 1.278 . S
C122 O123 1.203 . S
C122 O129 1.267 . S
O123 C122 1.203 . S
O124 C117 1.185 . S
O124 Zn120 2.086 . S
C125 O121 1.278 . S
C125 O126 1.211 . S
O126 C125 1.211 . S
C127 O119 1.281 . S
C127 O128 1.301 . S
O128 C127 1.301 . S
O129 Zn120 1.977 . S
O129 C122 1.267 . S
C130 O131 1.160 . S
C130 O137 1.185 1_655 S
O131 C130 1.160 . S
O132 Zn133 1.899 . S
O132 C140 1.284 . S
Zn133 O132 1.899 . S
Zn133 O134 2.032 . S
Zn133 O137 2.086 . S
Zn133 O142 1.977 . S
O134 Zn133 2.032 . S
O134 C138 1.278 . S
C135 O136 1.203 . S
C135 O142 1.267 . S
O136 C135 1.203 . S
O137 C130 1.185 1_455 S
O137 Zn133 2.086 . S
C138 O134 1.278 . S
C138 O139 1.211 . S
O139 C138 1.211 . S
C140 O132 1.284 . S
C140 O141 1.273 . S
O141 C140 1.273 . S
O142 Zn133 1.977 . S
O142 C135 1.267 . S
C143 O144 1.160 . S
C143 O150 1.185 . S
O144 C143 1.160 . S
O145 Zn146 1.899 . S
O145 C153 1.284 . S
Zn146 O145 1.899 . S
Zn146 O147 2.032 . S
Zn146 O150 2.086 . S
Zn146 O155 1.977 . S
O147 Zn146 2.032 . S
O147 C151 1.278 . S
C148 O149 1.203 . S
C148 O155 1.267 . S
O149 C148 1.203 . S
O150 C143 1.185 . S
O150 Zn146 2.086 . S
C151 O147 1.278 . S
C151 O152 1.211 . S
O152 C151 1.211 . S
C153 O145 1.284 . S
C153 O154 1.273 . S
O154 C153 1.273 . S
O155 Zn146 1.977 . S
O155 C148 1.267 . S
C156 O157 1.160 . S
C156 O163 1.185 . S
O157 C156 1.160 . S
O158 Zn159 1.899 . S
O158 C166 1.284 . S
Zn159 O158 1.899 . S
Zn159 O160 2.032 . S
Zn159 O163 2.086 . S
Zn159 O168 1.977 . S
O160 Zn159 2.032 . S
O160 C164 1.278 . S
C161 O162 1.203 . S
C161 O168 1.267 . S
O162 C161 1.203 . S
O163 C156 1.185 . S
O163 Zn159 2.086 . S
C164 O160 1.278 . S
C164 O165 1.211 . S
O165 C164 1.211 . S
C166 O158 1.284 . S
C166 O167 1.273 . S
O167 C166 1.273 . S
O168 Zn159 1.977 . S
O168 C161 1.267 . S
C169 O170 1.160 . S
C169 O176 1.185 1_455 S
O170 C169 1.160 . S
O171 Zn172 1.899 . S
O171 C179 1.284 . S
Zn172 O171 1.899 . S
Zn172 O173 2.032 . S
Zn172 O176 2.086 . S
Zn172 O181 1.977 . S
O173 Zn172 2.032 . S
O173 C177 1.278 . S
C174 O175 1.203 . S
C174 O181 1.267 . S
O175 C174 1.203 . S
O176 C169 1.185 1_655 S
O176 Zn172 2.086 . S
C177 O173 1.278 . S
C177 O178 1.211 . S
O178 C177 1.211 . S
C179 O171 1.284 . S
C179 O180 1.273 . S
O180 C179 1.273 . S
O181 Zn172 1.977 . S
O181 C174 1.267 . S
C182 O183 1.160 . S
C182 O189 1.185 . S
O183 C182 1.160 . S
O184 Zn185 1.899 . S
O184 C192 1.284 . S
Zn185 O184 1.899 . S
Zn185 O186 2.032 . S
Zn185 O189 2.086 . S
Zn185 O194 1.977 . S
O186 Zn185 2.032 . S
O186 C190 1.278 . S
C187 O188 1.203 . S
C187 O194 1.267 . S
O188 C187 1.203 . S
O189 C182 1.185 . S
O189 Zn185 2.086 . S
C190 O186 1.278 . S
C190 O191 1.211 . S
O191 C190 1.211 . S
C192 O184 1.284 . S
C192 O193 1.273 . S
O193 C192 1.273 . S
O194 Zn185 1.977 . S
O194 C187 1.267 . S
C195 O196 1.160 . S
C195 O202 1.185 . S
O196 C195 1.160 . S
O197 Zn198 1.899 . S
O197 C205 1.284 . S
Zn198 O197 1.899 . S
Zn198 O199 2.032 . S
Zn198 O202 2.086 . S
Zn198 O207 1.977 . S
O199 Zn198 2.032 . S
O199 C203 1.278 . S
C200 O201 1.203 . S
C200 O207 1.267 . S
O201 C200 1.203 . S
O202 C195 1.185 . S
O202 Zn198 2.086 . S
C203 O199 1.278 . S
C203 O204 1.211 . S
O204 C203 1.211 . S
C205 O197 1.284 . S
C205 O206 1.273 . S
O206 C205 1.273 . S
O207 Zn198 1.977 . S
O207 C200 1.267 . S
C208 O209 1.160 . S
C208 O215 1.185 . S
O209 C208 1.160 . S
O210 Zn211 1.899 . S
O210 C218 1.284 . S
Zn211 O210 1.899 . S
Zn211 O212 2.032 . S
Zn211 O215 2.086 . S
Zn211 O220 1.977 . S
O212 Zn211 2.032 . S
O212 C216 1.278 . S
C213 O214 1.203 . S
C213 O220 1.267 . S
O214 C213 1.203 . S
O215 C208 1.185 . S
O215 Zn211 2.086 . S
C216 O212 1.278 . S
C216 O217 1.211 . S
O217 C216 1.211 . S
C218 O210 1.284 . S
C218 O219 1.273 . S
O219 C218 1.273 . S
O220 Zn211 1.977 . S
O220 C213 1.267 . S
C221 O222 1.160 . S
C221 O228 1.185 . S
O222 C221 1.160 . S
O223 Zn224 1.899 . S
O223 C231 1.284 . S
Zn224 O223 1.899 . S
Zn224 O225 2.032 . S
Zn224 O228 2.086 . S
Zn224 O233 1.977 . S
O225 Zn224 2.032 . S
O225 C229 1.278 . S
C226 O227 1.203 . S
C226 O233 1.267 . S
O227 C226 1.203 . S
O228 C221 1.185 . S
O228 Zn224 2.086 . S
C229 O225 1.278 . S
C229 O230 1.211 . S
O230 C229 1.211 . S
C231 O223 1.284 . S
C231 O232 1.273 . S
O232 C231 1.273 . S
O233 Zn224 1.977 . S
O233 C226 1.267 . S
H234 C261 0.929 . S
N235 C260 1.433 . S
N235 C266 1.435 . S
N235 C272 1.423 . S
H236 C262 0.930 . S
H237 C265 0.931 . S
H238 C264 0.929 . S
H239 C267 0.930 . S
H240 C268 0.932 . S
H241 C271 0.929 . S
H242 C270 0.931 . S
H243 C273 0.929 . S
H244 C277 0.932 . S
H245 C274 0.931 . S
H246 C276 0.929 . S
H247 C279 0.929 . S
H248 C280 0.930 . S
H249 C282 0.929 . S
H250 C283 0.931 . S
H251 C285 0.930 . S
H252 C286 0.932 . S
H253 C288 0.931 . S
H254 C289 0.929 . S
H255 C291 0.929 . S
H256 C292 0.931 . S
H257 C294 0.929 . S
N258 C278 1.433 . S
N258 C284 1.435 . S
N258 C290 1.423 . S
H259 C295 0.932 . S
C260 N235 1.433 . S
C260 C261 1.363 . S
C260 C265 1.370 . S
C261 H234 0.929 . S
C261 C260 1.363 . S
C261 C262 1.385 . S
C262 H236 0.930 . S
C262 C261 1.385 . S
C262 C263 1.357 . S
C263 C262 1.357 . S
C263 C264 1.406 . S
C264 H238 0.929 . S
C264 C263 1.406 . S
C264 C265 1.391 . S
C265 H237 0.931 . S
C265 C260 1.370 . S
C265 C264 1.391 . S
C266 N235 1.435 . S
C266 C267 1.358 . S
C266 C271 1.371 . S
C267 H239 0.930 . S
C267 C266 1.358 . S
C267 C268 1.405 . S
C268 H240 0.932 . S
C268 C267 1.405 . S
C268 C269 1.383 . S
C269 C268 1.383 . S
C269 C270 1.393 . S
C270 H242 0.931 . S
C270 C269 1.393 . S
C270 C271 1.382 . S
C271 H241 0.929 . S
C271 C266 1.371 . S
C271 C270 1.382 . S
C272 N235 1.423 . S
C272 C273 1.362 . S
C272 C277 1.388 . S
C273 H243 0.929 . S
C273 C272 1.362 . S
C273 C274 1.376 . S
C274 H245 0.931 . S
C274 C273 1.376 . S
C274 C275 1.396 . S
C275 C274 1.396 . S
C275 C276 1.348 . S
C275 C293 1.472 . S
C276 H246 0.929 . S
C276 C275 1.348 . S
C276 C277 1.443 . S
C277 H244 0.932 . S
C277 C272 1.388 . S
C277 C276 1.443 . S
C278 N258 1.433 . S
C278 C279 1.363 . S
C278 C283 1.370 . S
C279 H247 0.929 . S
C279 C278 1.363 . S
C279 C280 1.385 . S
C280 H248 0.930 . S
C280 C279 1.385 . S
C280 C281 1.357 . S
C281 C280 1.357 . S
C281 C282 1.406 . S
C282 H249 0.929 . S
C282 C281 1.406 . S
C282 C283 1.391 . S
C283 H250 0.931 . S
C283 C278 1.370 . S
C283 C282 1.391 . S
C284 N258 1.435 . S
C284 C285 1.358 . S
C284 C289 1.371 . S
C285 H251 0.930 . S
C285 C284 1.358 . S
C285 C286 1.405 . S
C286 H252 0.932 . S
C286 C285 1.405 . S
C286 C287 1.383 . S
C287 C286 1.383 . S
C287 C288 1.393 . S
C288 H253 0.931 . S
C288 C287 1.393 . S
C288 C289 1.382 . S
C289 H254 0.929 . S
C289 C284 1.371 . S
C289 C288 1.382 . S
C290 N258 1.423 . S
C290 C291 1.362 . S
C290 C295 1.388 . S
C291 H255 0.929 . S
C291 C290 1.362 . S
C291 C292 1.376 . S
C292 H256 0.931 . S
C292 C291 1.376 . S
C292 C293 1.396 . S
C293 C275 1.472 . S
C293 C292 1.396 . S
C293 C294 1.348 . S
C294 H257 0.929 . S
C294 C293 1.348 . S
C294 C295 1.443 . S
C295 H259 0.932 . S
C295 C290 1.388 . S
C295 C294 1.443 . S
H296 C323 0.929 . S
N297 C322 1.433 . S
N297 C328 1.435 . S
N297 C334 1.423 . S
H298 C324 0.930 . S
H299 C327 0.931 . S
H300 C326 0.929 . S
H301 C329 0.930 . S
H302 C330 0.932 . S
H303 C333 0.929 . S
H304 C332 0.931 . S
H305 C335 0.929 . S
H306 C339 0.932 . S
H307 C336 0.931 . S
H308 C338 0.929 . S
H309 C341 0.929 . S
H310 C342 0.930 . S
H311 C344 0.929 . S
H312 C345 0.931 . S
H313 C347 0.930 . S
H314 C348 0.932 . S
H315 C350 0.931 . S
H316 C351 0.929 . S
H317 C353 0.929 . S
H318 C354 0.931 . S
H319 C356 0.929 . S
N320 C340 1.433 . S
N320 C346 1.435 . S
N320 C352 1.423 . S
H321 C357 0.932 . S
C322 N297 1.433 . S
C322 C323 1.363 . S
C322 C327 1.370 . S
C323 H296 0.929 . S
C323 C322 1.363 . S
C323 C324 1.385 . S
C324 H298 0.930 . S
C324 C323 1.385 . S
C324 C325 1.357 . S
C325 C324 1.357 . S
C325 C326 1.406 . S
C326 H300 0.929 . S
C326 C325 1.406 . S
C326 C327 1.391 . S
C327 H299 0.931 . S
C327 C322 1.370 . S
C327 C326 1.391 . S
C328 N297 1.435 . S
C328 C329 1.358 . S
C328 C333 1.371 . S
C329 H301 0.930 . S
C329 C328 1.358 . S
C329 C330 1.405 . S
C330 H302 0.932 . S
C330 C329 1.405 . S
C330 C331 1.383 . S
C331 C330 1.383 . S
C331 C332 1.393 . S
C332 H304 0.931 . S
C332 C331 1.393 . S
C332 C333 1.382 . S
C333 H303 0.929 . S
C333 C328 1.371 . S
C333 C332 1.382 . S
C334 N297 1.423 . S
C334 C335 1.362 . S
C334 C339 1.388 . S
C335 H305 0.929 . S
C335 C334 1.362 . S
C335 C336 1.376 . S
C336 H307 0.931 . S
C336 C335 1.376 . S
C336 C337 1.396 . S
C337 C336 1.396 . S
C337 C338 1.348 . S
C337 C355 1.472 . S
C338 H308 0.929 . S
C338 C337 1.348 . S
C338 C339 1.443 . S
C339 H306 0.932 . S
C339 C334 1.388 . S
C339 C338 1.443 . S
C340 N320 1.433 . S
C340 C341 1.363 . S
C340 C345 1.370 . S
C341 H309 0.929 . S
C341 C340 1.363 . S
C341 C342 1.385 . S
C342 H310 0.930 . S
C342 C341 1.385 . S
C342 C343 1.357 . S
C343 C342 1.357 . S
C343 C344 1.406 . S
C344 H311 0.929 . S
C344 C343 1.406 . S
C344 C345 1.391 . S
C345 H312 0.931 . S
C345 C340 1.370 . S
C345 C344 1.391 . S
C346 N320 1.435 . S
C346 C347 1.358 . S
C346 C351 1.371 . S
C347 H313 0.930 . S
C347 C346 1.358 . S
C347 C348 1.405 . S
C348 H314 0.932 . S
C348 C347 1.405 . S
C348 C349 1.383 . S
C349 C348 1.383 . S
C349 C350 1.393 . S
C350 H315 0.931 . S
C350 C349 1.393 . S
C350 C351 1.382 . S
C351 H316 0.929 . S
C351 C346 1.371 . S
C351 C350 1.382 . S
C352 N320 1.423 . S
C352 C353 1.362 . S
C352 C357 1.388 . S
C353 H317 0.929 . S
C353 C352 1.362 . S
C353 C354 1.376 . S
C354 H318 0.931 . S
C354 C353 1.376 . S
C354 C355 1.396 . S
C355 C337 1.472 . S
C355 C354 1.396 . S
C355 C356 1.348 . S
C356 H319 0.929 . S
C356 C355 1.348 . S
C356 C357 1.443 . S
C357 H321 0.932 . S
C357 C352 1.388 . S
C357 C356 1.443 . S
H358 C385 0.929 . S
N359 C384 1.433 . S
N359 C390 1.435 . S
N359 C396 1.423 . S
H360 C386 0.930 . S
H361 C389 0.931 . S
H362 C388 0.929 . S
H363 C391 0.930 . S
H364 C392 0.932 . S
H365 C395 0.929 . S
H366 C394 0.931 . S
H367 C397 0.929 . S
H368 C401 0.932 . S
H369 C398 0.931 . S
H370 C400 0.929 . S
H371 C403 0.929 . S
H372 C404 0.930 . S
H373 C406 0.929 . S
H374 C407 0.931 . S
H375 C409 0.930 . S
H376 C410 0.932 . S
H377 C412 0.931 . S
H378 C413 0.929 . S
H379 C415 0.929 . S
H380 C416 0.931 . S
H381 C418 0.929 . S
N382 C402 1.433 . S
N382 C408 1.435 . S
N382 C414 1.423 . S
H383 C419 0.932 . S
C384 N359 1.433 . S
C384 C385 1.363 . S
C384 C389 1.370 . S
C385 H358 0.929 . S
C385 C384 1.363 . S
C385 C386 1.385 . S
C386 H360 0.930 . S
C386 C385 1.385 . S
C386 C387 1.357 . S
C387 C386 1.357 . S
C387 C388 1.406 . S
C388 H362 0.929 . S
C388 C387 1.406 . S
C388 C389 1.391 . S
C389 H361 0.931 . S
C389 C384 1.370 . S
C389 C388 1.391 . S
C390 N359 1.435 . S
C390 C391 1.358 . S
C390 C395 1.371 . S
C391 H363 0.930 . S
C391 C390 1.358 . S
C391 C392 1.405 . S
C392 H364 0.932 . S
C392 C391 1.405 . S
C392 C393 1.383 . S
C393 C392 1.383 . S
C393 C394 1.393 . S
C394 H366 0.931 . S
C394 C393 1.393 . S
C394 C395 1.382 . S
C395 H365 0.929 . S
C395 C390 1.371 . S
C395 C394 1.382 . S
C396 N359 1.423 . S
C396 C397 1.362 . S
C396 C401 1.388 . S
C397 H367 0.929 . S
C397 C396 1.362 . S
C397 C398 1.376 . S
C398 H369 0.931 . S
C398 C397 1.376 . S
C398 C399 1.396 . S
C399 C398 1.396 . S
C399 C400 1.348 . S
C399 C417 1.472 . S
C400 H370 0.929 . S
C400 C399 1.348 . S
C400 C401 1.443 . S
C401 H368 0.932 . S
C401 C396 1.388 . S
C401 C400 1.443 . S
C402 N382 1.433 . S
C402 C403 1.363 . S
C402 C407 1.370 . S
C403 H371 0.929 . S
C403 C402 1.363 . S
C403 C404 1.385 . S
C404 H372 0.930 . S
C404 C403 1.385 . S
C404 C405 1.357 . S
C405 C404 1.357 . S
C405 C406 1.406 . S
C406 H373 0.929 . S
C406 C405 1.406 . S
C406 C407 1.391 . S
C407 H374 0.931 . S
C407 C402 1.370 . S
C407 C406 1.391 . S
C408 N382 1.435 . S
C408 C409 1.358 . S
C408 C413 1.371 . S
C409 H375 0.930 . S
C409 C408 1.358 . S
C409 C410 1.405 . S
C410 H376 0.932 . S
C410 C409 1.405 . S
C410 C411 1.383 . S
C411 C410 1.383 . S
C411 C412 1.393 . S
C412 H377 0.931 . S
C412 C411 1.393 . S
C412 C413 1.382 . S
C413 H378 0.929 . S
C413 C408 1.371 . S
C413 C412 1.382 . S
C414 N382 1.423 . S
C414 C415 1.362 . S
C414 C419 1.388 . S
C415 H379 0.929 . S
C415 C414 1.362 . S
C415 C416 1.376 . S
C416 H380 0.931 . S
C416 C415 1.376 . S
C416 C417 1.396 . S
C417 C399 1.472 . S
C417 C416 1.396 . S
C417 C418 1.348 . S
C418 H381 0.929 . S
C418 C417 1.348 . S
C418 C419 1.443 . S
C419 H383 0.932 . S
C419 C414 1.388 . S
C419 C418 1.443 . S
H420 C447 0.929 . S
N421 C446 1.433 . S
N421 C452 1.435 . S
N421 C458 1.423 . S
H422 C448 0.930 . S
H423 C451 0.931 . S
H424 C450 0.929 . S
H425 C453 0.930 . S
H426 C454 0.932 . S
H427 C457 0.929 . S
H428 C456 0.931 . S
H429 C459 0.929 . S
H430 C463 0.932 . S
H431 C460 0.931 . S
H432 C462 0.929 . S
H433 C465 0.929 . S
H434 C466 0.930 . S
H435 C468 0.929 . S
H436 C469 0.931 . S
H437 C471 0.930 . S
H438 C472 0.932 . S
H439 C474 0.931 . S
H440 C475 0.929 . S
H441 C477 0.929 . S
H442 C478 0.931 . S
H443 C480 0.929 . S
N444 C464 1.433 . S
N444 C470 1.435 . S
N444 C476 1.423 . S
H445 C481 0.932 . S
C446 N421 1.433 . S
C446 C447 1.363 . S
C446 C451 1.370 . S
C447 H420 0.929 . S
C447 C446 1.363 . S
C447 C448 1.385 . S
C448 H422 0.930 . S
C448 C447 1.385 . S
C448 C449 1.357 . S
C449 C448 1.357 . S
C449 C450 1.406 . S
C450 H424 0.929 . S
C450 C449 1.406 . S
C450 C451 1.391 . S
C451 H423 0.931 . S
C451 C446 1.370 . S
C451 C450 1.391 . S
C452 N421 1.435 . S
C452 C453 1.358 . S
C452 C457 1.371 . S
C453 H425 0.930 . S
C453 C452 1.358 . S
C453 C454 1.405 . S
C454 H426 0.932 . S
C454 C453 1.405 . S
C454 C455 1.383 . S
C455 C454 1.383 . S
C455 C456 1.393 . S
C456 H428 0.931 . S
C456 C455 1.393 . S
C456 C457 1.382 . S
C457 H427 0.929 . S
C457 C452 1.371 . S
C457 C456 1.382 . S
C458 N421 1.423 . S
C458 C459 1.362 . S
C458 C463 1.388 . S
C459 H429 0.929 . S
C459 C458 1.362 . S
C459 C460 1.376 . S
C460 H431 0.931 . S
C460 C459 1.376 . S
C460 C461 1.396 . S
C461 C460 1.396 . S
C461 C462 1.348 . S
C461 C479 1.472 . S
C462 H432 0.929 . S
C462 C461 1.348 . S
C462 C463 1.443 . S
C463 H430 0.932 . S
C463 C458 1.388 . S
C463 C462 1.443 . S
C464 N444 1.433 . S
C464 C465 1.363 . S
C464 C469 1.370 . S
C465 H433 0.929 . S
C465 C464 1.363 . S
C465 C466 1.385 . S
C466 H434 0.930 . S
C466 C465 1.385 . S
C466 C467 1.357 . S
C467 C466 1.357 . S
C467 C468 1.406 . S
C468 H435 0.929 . S
C468 C467 1.406 . S
C468 C469 1.391 . S
C469 H436 0.931 . S
C469 C464 1.370 . S
C469 C468 1.391 . S
C470 N444 1.435 . S
C470 C471 1.358 . S
C470 C475 1.371 . S
C471 H437 0.930 . S
C471 C470 1.358 . S
C471 C472 1.405 . S
C472 H438 0.932 . S
C472 C471 1.405 . S
C472 C473 1.383 . S
C473 C472 1.383 . S
C473 C474 1.393 . S
C474 H439 0.931 . S
C474 C473 1.393 . S
C474 C475 1.382 . S
C475 H440 0.929 . S
C475 C470 1.371 . S
C475 C474 1.382 . S
C476 N444 1.423 . S
C476 C477 1.362 . S
C476 C481 1.388 . S
C477 H441 0.929 . S
C477 C476 1.362 . S
C477 C478 1.376 . S
C478 H442 0.931 . S
C478 C477 1.376 . S
C478 C479 1.396 . S
C479 C461 1.472 . S
C479 C478 1.396 . S
C479 C480 1.348 . S
C480 H443 0.929 . S
C480 C479 1.348 . S
C480 C481 1.443 . S
C481 H445 0.932 . S
C481 C476 1.388 . S
C481 C480 1.443 . S
H482 C509 0.929 . S
N483 C508 1.433 . S
N483 C514 1.435 . S
N483 C520 1.423 . S
H484 C510 0.930 . S
H485 C513 0.931 . S
H486 C512 0.929 . S
H487 C515 0.930 . S
H488 C516 0.932 . S
H489 C519 0.929 . S
H490 C518 0.931 . S
H491 C521 0.929 . S
H492 C525 0.932 . S
H493 C522 0.931 . S
H494 C524 0.929 . S
H495 C527 0.929 . S
H496 C528 0.930 . S
H497 C530 0.929 . S
H498 C531 0.931 . S
H499 C533 0.930 . S
H500 C534 0.932 . S
H501 C536 0.931 . S
H502 C537 0.929 . S
H503 C539 0.929 . S
H504 C540 0.931 . S
H505 C542 0.929 . S
N506 C526 1.433 . S
N506 C532 1.435 . S
N506 C538 1.423 . S
H507 C543 0.932 . S
C508 N483 1.433 . S
C508 C509 1.363 . S
C508 C513 1.370 . S
C509 H482 0.929 . S
C509 C508 1.363 . S
C509 C510 1.385 . S
C510 H484 0.930 . S
C510 C509 1.385 . S
C510 C511 1.357 . S
C511 C510 1.357 . S
C511 C512 1.406 . S
C512 H486 0.929 . S
C512 C511 1.406 . S
C512 C513 1.391 . S
C513 H485 0.931 . S
C513 C508 1.370 . S
C513 C512 1.391 . S
C514 N483 1.435 . S
C514 C515 1.358 . S
C514 C519 1.371 . S
C515 H487 0.930 . S
C515 C514 1.358 . S
C515 C516 1.405 . S
C516 H488 0.932 . S
C516 C515 1.405 . S
C516 C517 1.383 . S
C517 C516 1.383 . S
C517 C518 1.393 . S
C518 H490 0.931 . S
C518 C517 1.393 . S
C518 C519 1.382 . S
C519 H489 0.929 . S
C519 C514 1.371 . S
C519 C518 1.382 . S
C520 N483 1.423 . S
C520 C521 1.362 . S
C520 C525 1.388 . S
C521 H491 0.929 . S
C521 C520 1.362 . S
C521 C522 1.376 . S
C522 H493 0.931 . S
C522 C521 1.376 . S
C522 C523 1.396 . S
C523 C522 1.396 . S
C523 C524 1.348 . S
C523 C541 1.472 . S
C524 H494 0.929 . S
C524 C523 1.348 . S
C524 C525 1.443 . S
C525 H492 0.932 . S
C525 C520 1.388 . S
C525 C524 1.443 . S
C526 N506 1.433 . S
C526 C527 1.363 . S
C526 C531 1.370 . S
C527 H495 0.929 . S
C527 C526 1.363 . S
C527 C528 1.385 . S
C528 H496 0.930 . S
C528 C527 1.385 . S
C528 C529 1.357 . S
C529 C528 1.357 . S
C529 C530 1.406 . S
C530 H497 0.929 . S
C530 C529 1.406 . S
C530 C531 1.391 . S
C531 H498 0.931 . S
C531 C526 1.370 . S
C531 C530 1.391 . S
C532 N506 1.435 . S
C532 C533 1.358 . S
C532 C537 1.371 . S
C533 H499 0.930 . S
C533 C532 1.358 . S
C533 C534 1.405 . S
C534 H500 0.932 . S
C534 C533 1.405 . S
C534 C535 1.383 . S
C535 C534 1.383 . S
C535 C536 1.393 . S
C536 H501 0.931 . S
C536 C535 1.393 . S
C536 C537 1.382 . S
C537 H502 0.929 . S
C537 C532 1.371 . S
C537 C536 1.382 . S
C538 N506 1.423 . S
C538 C539 1.362 . S
C538 C543 1.388 . S
C539 H503 0.929 . S
C539 C538 1.362 . S
C539 C540 1.376 . S
C540 H504 0.931 . S
C540 C539 1.376 . S
C540 C541 1.396 . S
C541 C523 1.472 . S
C541 C540 1.396 . S
C541 C542 1.348 . S
C542 H505 0.929 . S
C542 C541 1.348 . S
C542 C543 1.443 . S
C543 H507 0.932 . S
C543 C538 1.388 . S
C543 C542 1.443 . S
H544 C571 0.929 . S
N545 C570 1.433 . S
N545 C576 1.435 . S
N545 C582 1.423 . S
H546 C572 0.930 . S
H547 C575 0.931 . S
H548 C574 0.929 . S
H549 C577 0.930 . S
H550 C578 0.932 . S
H551 C581 0.929 . S
H552 C580 0.931 . S
H553 C583 0.929 . S
H554 C587 0.932 . S
H555 C584 0.931 . S
H556 C586 0.929 . S
H557 C589 0.929 . S
H558 C590 0.930 . S
H559 C592 0.929 . S
H560 C593 0.931 . S
H561 C595 0.930 . S
H562 C596 0.932 . S
H563 C598 0.931 . S
H564 C599 0.929 . S
H565 C601 0.929 . S
H566 C602 0.931 . S
H567 C604 0.929 . S
N568 C588 1.433 . S
N568 C594 1.435 . S
N568 C600 1.423 . S
H569 C605 0.932 . S
C570 N545 1.433 . S
C570 C571 1.363 . S
C570 C575 1.370 . S
C571 H544 0.929 . S
C571 C570 1.363 . S
C571 C572 1.385 . S
C572 H546 0.930 . S
C572 C571 1.385 . S
C572 C573 1.357 . S
C573 C572 1.357 . S
C573 C574 1.406 . S
C574 H548 0.929 . S
C574 C573 1.406 . S
C574 C575 1.391 . S
C575 H547 0.931 . S
C575 C570 1.370 . S
C575 C574 1.391 . S
C576 N545 1.435 . S
C576 C577 1.358 . S
C576 C581 1.371 . S
C577 H549 0.930 . S
C577 C576 1.358 . S
C577 C578 1.405 . S
C578 H550 0.932 . S
C578 C577 1.405 . S
C578 C579 1.383 . S
C579 C578 1.383 . S
C579 C580 1.393 . S
C580 H552 0.931 . S
C580 C579 1.393 . S
C580 C581 1.382 . S
C581 H551 0.929 . S
C581 C576 1.371 . S
C581 C580 1.382 . S
C582 N545 1.423 . S
C582 C583 1.362 . S
C582 C587 1.388 . S
C583 H553 0.929 . S
C583 C582 1.362 . S
C583 C584 1.376 . S
C584 H555 0.931 . S
C584 C583 1.376 . S
C584 C585 1.396 . S
C585 C584 1.396 . S
C585 C586 1.348 . S
C585 C603 1.472 . S
C586 H556 0.929 . S
C586 C585 1.348 . S
C586 C587 1.443 . S
C587 H554 0.932 . S
C587 C582 1.388 . S
C587 C586 1.443 . S
C588 N568 1.433 . S
C588 C589 1.363 . S
C588 C593 1.370 . S
C589 H557 0.929 . S
C589 C588 1.363 . S
C589 C590 1.385 . S
C590 H558 0.930 . S
C590 C589 1.385 . S
C590 C591 1.357 . S
C591 C590 1.357 . S
C591 C592 1.406 . S
C592 H559 0.929 . S
C592 C591 1.406 . S
C592 C593 1.391 . S
C593 H560 0.931 . S
C593 C588 1.370 . S
C593 C592 1.391 . S
C594 N568 1.435 . S
C594 C595 1.358 . S
C594 C599 1.371 . S
C595 H561 0.930 . S
C595 C594 1.358 . S
C595 C596 1.405 . S
C596 H562 0.932 . S
C596 C595 1.405 . S
C596 C597 1.383 . S
C597 C596 1.383 . S
C597 C598 1.393 . S
C598 H563 0.931 . S
C598 C597 1.393 . S
C598 C599 1.382 . S
C599 H564 0.929 . S
C599 C594 1.371 . S
C599 C598 1.382 . S
C600 N568 1.423 . S
C600 C601 1.362 . S
C600 C605 1.388 . S
C601 H565 0.929 . S
C601 C600 1.362 . S
C601 C602 1.376 . S
C602 H566 0.931 . S
C602 C601 1.376 . S
C602 C603 1.396 . S
C603 C585 1.472 . S
C603 C602 1.396 . S
C603 C604 1.348 . S
C604 H567 0.929 . S
C604 C603 1.348 . S
C604 C605 1.443 . S
C605 H569 0.932 . S
C605 C600 1.388 . S
C605 C604 1.443 . S
H606 C633 0.929 . S
N607 C632 1.433 . S
N607 C638 1.435 . S
N607 C644 1.423 . S
H608 C634 0.930 . S
H609 C637 0.931 . S
H610 C636 0.929 . S
H611 C639 0.930 . S
H612 C640 0.932 . S
H613 C643 0.929 . S
H614 C642 0.931 . S
H615 C645 0.929 . S
H616 C649 0.932 . S
H617 C646 0.931 . S
H618 C648 0.929 . S
H619 C651 0.929 . S
H620 C652 0.930 . S
H621 C654 0.929 . S
H622 C655 0.931 . S
H623 C657 0.930 . S
H624 C658 0.932 . S
H625 C660 0.931 . S
H626 C661 0.929 . S
H627 C663 0.929 . S
H628 C664 0.931 . S
H629 C666 0.929 . S
N630 C650 1.433 . S
N630 C656 1.435 . S
N630 C662 1.423 . S
H631 C667 0.932 . S
C632 N607 1.433 . S
C632 C633 1.363 . S
C632 C637 1.370 . S
C633 H606 0.929 . S
C633 C632 1.363 . S
C633 C634 1.385 . S
C634 H608 0.930 . S
C634 C633 1.385 . S
C634 C635 1.357 . S
C635 C634 1.357 . S
C635 C636 1.406 . S
C636 H610 0.929 . S
C636 C635 1.406 . S
C636 C637 1.391 . S
C637 H609 0.931 . S
C637 C632 1.370 . S
C637 C636 1.391 . S
C638 N607 1.435 . S
C638 C639 1.358 . S
C638 C643 1.371 . S
C639 H611 0.930 . S
C639 C638 1.358 . S
C639 C640 1.405 . S
C640 H612 0.932 . S
C640 C639 1.405 . S
C640 C641 1.383 . S
C641 C640 1.383 . S
C641 C642 1.393 . S
C642 H614 0.931 . S
C642 C641 1.393 . S
C642 C643 1.382 . S
C643 H613 0.929 . S
C643 C638 1.371 . S
C643 C642 1.382 . S
C644 N607 1.423 . S
C644 C645 1.362 . S
C644 C649 1.388 . S
C645 H615 0.929 . S
C645 C644 1.362 . S
C645 C646 1.376 . S
C646 H617 0.931 . S
C646 C645 1.376 . S
C646 C647 1.396 . S
C647 C646 1.396 . S
C647 C648 1.348 . S
C647 C665 1.472 . S
C648 H618 0.929 . S
C648 C647 1.348 . S
C648 C649 1.443 . S
C649 H616 0.932 . S
C649 C644 1.388 . S
C649 C648 1.443 . S
C650 N630 1.433 . S
C650 C651 1.363 . S
C650 C655 1.370 . S
C651 H619 0.929 . S
C651 C650 1.363 . S
C651 C652 1.385 . S
C652 H620 0.930 . S
C652 C651 1.385 . S
C652 C653 1.357 . S
C653 C652 1.357 . S
C653 C654 1.406 . S
C654 H621 0.929 . S
C654 C653 1.406 . S
C654 C655 1.391 . S
C655 H622 0.931 . S
C655 C650 1.370 . S
C655 C654 1.391 . S
C656 N630 1.435 . S
C656 C657 1.358 . S
C656 C661 1.371 . S
C657 H623 0.930 . S
C657 C656 1.358 . S
C657 C658 1.405 . S
C658 H624 0.932 . S
C658 C657 1.405 . S
C658 C659 1.383 . S
C659 C658 1.383 . S
C659 C660 1.393 . S
C660 H625 0.931 . S
C660 C659 1.393 . S
C660 C661 1.382 . S
C661 H626 0.929 . S
C661 C656 1.371 . S
C661 C660 1.382 . S
C662 N630 1.423 . S
C662 C663 1.362 . S
C662 C667 1.388 . S
C663 H627 0.929 . S
C663 C662 1.362 . S
C663 C664 1.376 . S
C664 H628 0.931 . S
C664 C663 1.376 . S
C664 C665 1.396 . S
C665 C647 1.472 . S
C665 C664 1.396 . S
C665 C666 1.348 . S
C666 H629 0.929 . S
C666 C665 1.348 . S
C666 C667 1.443 . S
C667 H631 0.932 . S
C667 C662 1.388 . S
C667 C666 1.443 . S
H668 C695 0.929 . S
N669 C694 1.433 . S
N669 C700 1.435 . S
N669 C706 1.423 . S
H670 C696 0.930 . S
H671 C699 0.931 . S
H672 C698 0.929 . S
H673 C701 0.930 . S
H674 C702 0.932 . S
H675 C705 0.929 . S
H676 C704 0.931 . S
H677 C707 0.929 . S
H678 C711 0.932 . S
H679 C708 0.931 . S
H680 C710 0.929 . S
H681 C713 0.929 . S
H682 C714 0.930 . S
H683 C716 0.929 . S
H684 C717 0.931 . S
H685 C719 0.930 . S
H686 C720 0.932 . S
H687 C722 0.931 . S
H688 C723 0.929 . S
H689 C725 0.929 . S
H690 C726 0.931 . S
H691 C728 0.929 . S
N692 C712 1.433 . S
N692 C718 1.435 . S
N692 C724 1.423 . S
H693 C729 0.932 . S
C694 N669 1.433 . S
C694 C695 1.363 . S
C694 C699 1.370 . S
C695 H668 0.929 . S
C695 C694 1.363 . S
C695 C696 1.385 . S
C696 H670 0.930 . S
C696 C695 1.385 . S
C696 C697 1.357 . S
C697 C696 1.357 . S
C697 C698 1.406 . S
C698 H672 0.929 . S
C698 C697 1.406 . S
C698 C699 1.391 . S
C699 H671 0.931 . S
C699 C694 1.370 . S
C699 C698 1.391 . S
C700 N669 1.435 . S
C700 C701 1.358 . S
C700 C705 1.371 . S
C701 H673 0.930 . S
C701 C700 1.358 . S
C701 C702 1.405 . S
C702 H674 0.932 . S
C702 C701 1.405 . S
C702 C703 1.383 . S
C703 C702 1.383 . S
C703 C704 1.393 . S
C704 H676 0.931 . S
C704 C703 1.393 . S
C704 C705 1.382 . S
C705 H675 0.929 . S
C705 C700 1.371 . S
C705 C704 1.382 . S
C706 N669 1.423 . S
C706 C707 1.362 . S
C706 C711 1.388 . S
C707 H677 0.929 . S
C707 C706 1.362 . S
C707 C708 1.376 . S
C708 H679 0.931 . S
C708 C707 1.376 . S
C708 C709 1.396 . S
C709 C708 1.396 . S
C709 C710 1.348 . S
C709 C727 1.472 . S
C710 H680 0.929 . S
C710 C709 1.348 . S
C710 C711 1.443 . S
C711 H678 0.932 . S
C711 C706 1.388 . S
C711 C710 1.443 . S
C712 N692 1.433 . S
C712 C713 1.363 . S
C712 C717 1.370 . S
C713 H681 0.929 . S
C713 C712 1.363 . S
C713 C714 1.385 . S
C714 H682 0.930 . S
C714 C713 1.385 . S
C714 C715 1.357 . S
C715 C714 1.357 . S
C715 C716 1.406 . S
C716 H683 0.929 . S
C716 C715 1.406 . S
C716 C717 1.391 . S
C717 H684 0.931 . S
C717 C712 1.370 . S
C717 C716 1.391 . S
C718 N692 1.435 . S
C718 C719 1.358 . S
C718 C723 1.371 . S
C719 H685 0.930 . S
C719 C718 1.358 . S
C719 C720 1.405 . S
C720 H686 0.932 . S
C720 C719 1.405 . S
C720 C721 1.383 . S
C721 C720 1.383 . S
C721 C722 1.393 . S
C722 H687 0.931 . S
C722 C721 1.393 . S
C722 C723 1.382 . S
C723 H688 0.929 . S
C723 C718 1.371 . S
C723 C722 1.382 . S
C724 N692 1.423 . S
C724 C725 1.362 . S
C724 C729 1.388 . S
C725 H689 0.929 . S
C725 C724 1.362 . S
C725 C726 1.376 . S
C726 H690 0.931 . S
C726 C725 1.376 . S
C726 C727 1.396 . S
C727 C709 1.472 . S
C727 C726 1.396 . S
C727 C728 1.348 . S
C728 H691 0.929 . S
C728 C727 1.348 . S
C728 C729 1.443 . S
C729 H693 0.932 . S
C729 C724 1.388 . S
C729 C728 1.443 . S
H730 C757 0.929 . S
N731 C756 1.433 . S
N731 C762 1.435 . S
N731 C768 1.423 . S
H732 C758 0.930 . S
H733 C761 0.931 . S
H734 C760 0.929 . S
H735 C763 0.930 . S
H736 C764 0.932 . S
H737 C767 0.929 . S
H738 C766 0.931 . S
H739 C769 0.929 . S
H740 C773 0.932 . S
H741 C770 0.931 . S
H742 C772 0.929 . S
H743 C775 0.929 . S
H744 C776 0.930 . S
H745 C778 0.929 . S
H746 C779 0.931 . S
H747 C781 0.930 . S
H748 C782 0.932 . S
H749 C784 0.931 . S
H750 C785 0.929 . S
H751 C787 0.929 . S
H752 C788 0.931 . S
H753 C790 0.929 . S
N754 C774 1.433 . S
N754 C780 1.435 . S
N754 C786 1.423 . S
H755 C791 0.932 . S
C756 N731 1.433 . S
C756 C757 1.363 . S
C756 C761 1.370 . S
C757 H730 0.929 . S
C757 C756 1.363 . S
C757 C758 1.385 . S
C758 H732 0.930 . S
C758 C757 1.385 . S
C758 C759 1.357 . S
C759 C758 1.357 . S
C759 C760 1.406 . S
C760 H734 0.929 . S
C760 C759 1.406 . S
C760 C761 1.391 . S
C761 H733 0.931 . S
C761 C756 1.370 . S
C761 C760 1.391 . S
C762 N731 1.435 . S
C762 C763 1.358 . S
C762 C767 1.371 . S
C763 H735 0.930 . S
C763 C762 1.358 . S
C763 C764 1.405 . S
C764 H736 0.932 . S
C764 C763 1.405 . S
C764 C765 1.383 . S
C765 C764 1.383 . S
C765 C766 1.393 . S
C766 H738 0.931 . S
C766 C765 1.393 . S
C766 C767 1.382 . S
C767 H737 0.929 . S
C767 C762 1.371 . S
C767 C766 1.382 . S
C768 N731 1.423 . S
C768 C769 1.362 . S
C768 C773 1.388 . S
C769 H739 0.929 . S
C769 C768 1.362 . S
C769 C770 1.376 . S
C770 H741 0.931 . S
C770 C769 1.376 . S
C770 C771 1.396 . S
C771 C770 1.396 . S
C771 C772 1.348 . S
C771 C789 1.472 . S
C772 H742 0.929 . S
C772 C771 1.348 . S
C772 C773 1.443 . S
C773 H740 0.932 . S
C773 C768 1.388 . S
C773 C772 1.443 . S
C774 N754 1.433 . S
C774 C775 1.363 . S
C774 C779 1.370 . S
C775 H743 0.929 . S
C775 C774 1.363 . S
C775 C776 1.385 . S
C776 H744 0.930 . S
C776 C775 1.385 . S
C776 C777 1.357 . S
C777 C776 1.357 . S
C777 C778 1.406 . S
C778 H745 0.929 . S
C778 C777 1.406 . S
C778 C779 1.391 . S
C779 H746 0.931 . S
C779 C774 1.370 . S
C779 C778 1.391 . S
C780 N754 1.435 . S
C780 C781 1.358 . S
C780 C785 1.371 . S
C781 H747 0.930 . S
C781 C780 1.358 . S
C781 C782 1.405 . S
C782 H748 0.932 . S
C782 C781 1.405 . S
C782 C783 1.383 . S
C783 C782 1.383 . S
C783 C784 1.393 . S
C784 H749 0.931 . S
C784 C783 1.393 . S
C784 C785 1.382 . S
C785 H750 0.929 . S
C785 C780 1.371 . S
C785 C784 1.382 . S
C786 N754 1.423 . S
C786 C787 1.362 . S
C786 C791 1.388 . S
C787 H751 0.929 . S
C787 C786 1.362 . S
C787 C788 1.376 . S
C788 H752 0.931 . S
C788 C787 1.376 . S
C788 C789 1.396 . S
C789 C771 1.472 . S
C789 C788 1.396 . S
C789 C790 1.348 . S
C790 H753 0.929 . S
C790 C789 1.348 . S
C790 C791 1.443 . S
C791 H755 0.932 . S
C791 C786 1.388 . S
C791 C790 1.443 . S
H792 C819 0.929 . S
N793 C818 1.433 . S
N793 C824 1.435 . S
N793 C830 1.423 . S
H794 C820 0.930 . S
H795 C823 0.931 . S
H796 C822 0.929 . S
H797 C825 0.930 . S
H798 C826 0.932 . S
H799 C829 0.929 . S
H800 C828 0.931 . S
H801 C831 0.929 . S
H802 C835 0.932 1_655 S
H803 C832 0.931 . S
H804 C834 0.937 . S
H805 C837 0.929 . S
H806 C838 0.930 . S
H807 C840 0.929 . S
H808 C841 0.931 . S
H809 C843 0.930 . S
H810 C844 0.932 . S
H811 C846 0.931 . S
H812 C847 0.929 . S
H813 C849 0.929 . S
H814 C850 0.931 . S
H815 C852 0.929 . S
N816 C836 1.433 . S
N816 C842 1.435 . S
N816 C848 1.423 . S
H817 C853 0.932 1_655 S
C818 N793 1.433 . S
C818 C819 1.363 . S
C818 C823 1.370 1_455 S
C819 H792 0.929 . S
C819 C818 1.363 . S
C819 C820 1.385 . S
C820 H794 0.930 . S
C820 C819 1.385 . S
C820 C821 1.357 1_455 S
C821 C820 1.357 1_655 S
C821 C822 1.406 . S
C822 H796 0.929 . S
C822 C821 1.406 . S
C822 C823 1.391 . S
C823 H795 0.931 . S
C823 C818 1.370 1_655 S
C823 C822 1.391 . S
C824 N793 1.435 . S
C824 C825 1.358 1_455 S
C824 C829 1.371 . S
C825 H797 0.930 . S
C825 C824 1.358 1_655 S
C825 C826 1.405 . S
C826 H798 0.932 . S
C826 C825 1.405 . S
C826 C827 1.383 1_655 S
C827 C826 1.383 1_455 S
C827 C828 1.393 . S
C828 H800 0.931 . S
C828 C827 1.393 . S
C828 C829 1.382 . S
C829 H799 0.929 . S
C829 C824 1.371 . S
C829 C828 1.382 . S
C830 N793 1.423 . S
C830 C831 1.362 . S
C830 C835 1.388 . S
C831 H801 0.929 . S
C831 C830 1.362 . S
C831 C832 1.376 . S
C832 H803 0.931 . S
C832 C831 1.376 . S
C832 C833 1.396 . S
C833 C832 1.396 . S
C833 C834 1.348 . S
C833 C851 1.472 . S
C834 H804 0.937 . S
C834 C833 1.348 . S
C834 C835 1.443 . S
C835 H802 0.932 1_455 S
C835 C830 1.388 . S
C835 C834 1.443 . S
C836 N816 1.433 . S
C836 C837 1.363 . S
C836 C841 1.370 1_455 S
C837 H805 0.929 . S
C837 C836 1.363 . S
C837 C838 1.385 . S
C838 H806 0.930 . S
C838 C837 1.385 . S
C838 C839 1.357 1_455 S
C839 C838 1.357 1_655 S
C839 C840 1.406 . S
C840 H807 0.929 . S
C840 C839 1.406 . S
C840 C841 1.391 . S
C841 H808 0.931 . S
C841 C836 1.370 1_655 S
C841 C840 1.391 . S
C842 N816 1.435 . S
C842 C843 1.358 1_455 S
C842 C847 1.371 . S
C843 H809 0.930 . S
C843 C842 1.358 1_655 S
C843 C844 1.405 . S
C844 H810 0.932 . S
C844 C843 1.405 . S
C844 C845 1.383 1_655 S
C845 C844 1.383 1_455 S
C845 C846 1.393 . S
C846 H811 0.931 . S
C846 C845 1.393 . S
C846 C847 1.382 . S
C847 H812 0.929 . S
C847 C842 1.371 . S
C847 C846 1.382 . S
C848 N816 1.423 . S
C848 C849 1.362 . S
C848 C853 1.388 . S
C849 H813 0.929 . S
C849 C848 1.362 . S
C849 C850 1.376 . S
C850 H814 0.931 . S
C850 C849 1.376 . S
C850 C851 1.396 . S
C851 C833 1.472 . S
C851 C850 1.396 . S
C851 C852 1.348 . S
C852 H815 0.929 . S
C852 C851 1.348 . S
C852 C853 1.443 . S
C853 H817 0.932 1_455 S
C853 C848 1.388 . S
C853 C852 1.443 . S
H854 C881 0.929 . S
N855 C880 1.433 . S
N855 C886 1.435 . S
N855 C892 1.423 . S
H856 C882 0.930 . S
H857 C885 0.931 . S
H858 C884 0.929 . S
H859 C887 0.930 . S
H860 C888 0.932 . S
H861 C891 0.929 . S
H862 C890 0.931 . S
H863 C893 0.929 . S
H864 C897 0.932 . S
H865 C894 0.931 . S
H866 C896 0.929 . S
H867 C899 0.929 . S
H868 C900 0.930 . S
H869 C902 0.929 . S
H870 C903 0.931 . S
H871 C905 0.930 . S
H872 C906 0.932 . S
H873 C908 0.931 . S
H874 C909 0.929 . S
H875 C911 0.929 . S
H876 C912 0.931 . S
H877 C914 0.929 . S
N878 C898 1.433 . S
N878 C904 1.435 . S
N878 C910 1.423 . S
H879 C915 0.932 . S
C880 N855 1.433 . S
C880 C881 1.363 . S
C880 C885 1.370 . S
C881 H854 0.929 . S
C881 C880 1.363 . S
C881 C882 1.385 . S
C882 H856 0.930 . S
C882 C881 1.385 . S
C882 C883 1.357 . S
C883 C882 1.357 . S
C883 C884 1.406 . S
C884 H858 0.929 . S
C884 C883 1.406 . S
C884 C885 1.391 . S
C885 H857 0.931 . S
C885 C880 1.370 . S
C885 C884 1.391 . S
C886 N855 1.435 . S
C886 C887 1.358 . S
C886 C891 1.371 . S
C887 H859 0.930 . S
C887 C886 1.358 . S
C887 C888 1.405 . S
C888 H860 0.932 . S
C888 C887 1.405 . S
C888 C889 1.383 . S
C889 C888 1.383 . S
C889 C890 1.393 . S
C890 H862 0.931 . S
C890 C889 1.393 . S
C890 C891 1.382 . S
C891 H861 0.929 . S
C891 C886 1.371 . S
C891 C890 1.382 . S
C892 N855 1.423 . S
C892 C893 1.362 . S
C892 C897 1.388 . S
C893 H863 0.929 . S
C893 C892 1.362 . S
C893 C894 1.376 . S
C894 H865 0.931 . S
C894 C893 1.376 . S
C894 C895 1.396 . S
C895 C894 1.396 . S
C895 C896 1.348 . S
C895 C913 1.472 . S
C896 H866 0.929 . S
C896 C895 1.348 . S
C896 C897 1.443 . S
C897 H864 0.932 . S
C897 C892 1.388 . S
C897 C896 1.443 . S
C898 N878 1.433 . S
C898 C899 1.363 . S
C898 C903 1.370 . S
C899 H867 0.929 . S
C899 C898 1.363 . S
C899 C900 1.385 . S
C900 H868 0.930 . S
C900 C899 1.385 . S
C900 C901 1.357 . S
C901 C900 1.357 . S
C901 C902 1.406 . S
C902 H869 0.929 . S
C902 C901 1.406 . S
C902 C903 1.391 . S
C903 H870 0.931 . S
C903 C898 1.370 . S
C903 C902 1.391 . S
C904 N878 1.435 . S
C904 C905 1.358 . S
C904 C909 1.371 . S
C905 H871 0.930 . S
C905 C904 1.358 . S
C905 C906 1.405 . S
C906 H872 0.932 . S
C906 C905 1.405 . S
C906 C907 1.383 . S
C907 C906 1.383 . S
C907 C908 1.393 . S
C908 H873 0.931 . S
C908 C907 1.393 . S
C908 C909 1.382 . S
C909 H874 0.929 . S
C909 C904 1.371 . S
C909 C908 1.382 . S
C910 N878 1.423 . S
C910 C911 1.362 . S
C910 C915 1.388 . S
C911 H875 0.929 . S
C911 C910 1.362 . S
C911 C912 1.376 . S
C912 H876 0.931 . S
C912 C911 1.376 . S
C912 C913 1.396 . S
C913 C895 1.472 . S
C913 C912 1.396 . S
C913 C914 1.348 . S
C914 H877 0.929 . S
C914 C913 1.348 . S
C914 C915 1.443 . S
C915 H879 0.932 . S
C915 C910 1.388 . S
C915 C914 1.443 . S
H916 C943 0.929 . S
N917 C942 1.433 . S
N917 C948 1.435 . S
N917 C954 1.423 . S
H918 C944 0.930 . S
H919 C947 0.931 . S
H920 C946 0.929 . S
H921 C949 0.930 . S
H922 C950 0.932 . S
H923 C953 0.929 . S
H924 C952 0.931 . S
H925 C955 0.929 . S
H926 C959 0.932 1_545 S
H927 C956 0.931 . S
H928 C958 0.929 . S
H929 C961 0.929 . S
H930 C962 0.930 . S
H931 C964 0.929 . S
H932 C965 0.931 . S
H933 C967 0.930 . S
H934 C968 0.932 . S
H935 C970 0.931 . S
H936 C971 0.929 . S
H937 C973 0.929 . S
H938 C974 0.931 . S
H939 C976 0.929 . S
N940 C960 1.433 . S
N940 C966 1.435 . S
N940 C972 1.423 . S
H941 C977 0.932 1_545 S
C942 N917 1.433 . S
C942 C943 1.363 . S
C942 C947 1.370 1_565 S
C943 H916 0.929 . S
C943 C942 1.363 . S
C943 C944 1.385 . S
C944 H918 0.930 . S
C944 C943 1.385 . S
C944 C945 1.357 1_565 S
C945 C944 1.357 1_545 S
C945 C946 1.406 . S
C946 H920 0.929 . S
C946 C945 1.406 . S
C946 C947 1.391 . S
C947 H919 0.931 . S
C947 C942 1.370 1_545 S
C947 C946 1.391 . S
C948 N917 1.435 . S
C948 C949 1.358 1_565 S
C948 C953 1.371 . S
C949 H921 0.930 . S
C949 C948 1.358 1_545 S
C949 C950 1.405 . S
C950 H922 0.932 . S
C950 C949 1.405 . S
C950 C951 1.383 1_545 S
C951 C950 1.383 1_565 S
C951 C952 1.393 . S
C952 H924 0.931 . S
C952 C951 1.393 . S
C952 C953 1.382 . S
C953 H923 0.929 . S
C953 C948 1.371 . S
C953 C952 1.382 . S
C954 N917 1.423 . S
C954 C955 1.362 . S
C954 C959 1.388 . S
C955 H925 0.929 . S
C955 C954 1.362 . S
C955 C956 1.376 . S
C956 H927 0.931 . S
C956 C955 1.376 . S
C956 C957 1.396 . S
C957 C956 1.396 . S
C957 C958 1.348 . S
C957 C975 1.472 . S
C958 H928 0.929 . S
C958 C957 1.348 . S
C958 C959 1.443 . S
C959 H926 0.932 1_565 S
C959 C954 1.388 . S
C959 C958 1.443 . S
C960 N940 1.433 . S
C960 C961 1.363 . S
C960 C965 1.370 1_565 S
C961 H929 0.929 . S
C961 C960 1.363 . S
C961 C962 1.385 . S
C962 H930 0.930 . S
C962 C961 1.385 . S
C962 C963 1.357 1_565 S
C963 C962 1.357 1_545 S
C963 C964 1.406 . S
C964 H931 0.929 . S
C964 C963 1.406 . S
C964 C965 1.391 . S
C965 H932 0.931 . S
C965 C960 1.370 1_545 S
C965 C964 1.391 . S
C966 N940 1.435 . S
C966 C967 1.358 1_565 S
C966 C971 1.371 . S
C967 H933 0.930 . S
C967 C966 1.358 1_545 S
C967 C968 1.405 . S
C968 H934 0.932 . S
C968 C967 1.405 . S
C968 C969 1.383 1_545 S
C969 C968 1.383 1_565 S
C969 C970 1.393 . S
C970 H935 0.931 . S
C970 C969 1.393 . S
C970 C971 1.382 . S
C971 H936 0.929 . S
C971 C966 1.371 . S
C971 C970 1.382 . S
C972 N940 1.423 . S
C972 C973 1.362 . S
C972 C977 1.388 . S
C973 H937 0.929 . S
C973 C972 1.362 . S
C973 C974 1.376 . S
C974 H938 0.931 . S
C974 C973 1.376 . S
C974 C975 1.396 . S
C975 C957 1.472 . S
C975 C974 1.396 . S
C975 C976 1.348 . S
C976 H939 0.929 . S
C976 C975 1.348 . S
C976 C977 1.443 . S
C977 H941 0.932 1_565 S
C977 C972 1.388 . S
C977 C976 1.443 . S
H978 C1005 0.929 . S
N979 C1004 1.433 . S
N979 C1010 1.435 . S
N979 C1016 1.423 . S
H980 C1006 0.930 . S
H981 C1009 0.931 . S
H982 C1008 0.929 . S
H983 C1011 0.930 . S
H984 C1012 0.932 . S
H985 C1015 0.929 . S
H986 C1014 0.931 . S
H987 C1017 0.929 . S
H988 C1021 0.932 . S
H989 C1018 0.931 . S
H990 C1020 0.922 1_545 S
H991 C1023 0.929 . S
H992 C1024 0.930 . S
H993 C1026 0.965 . S
H994 C1027 0.953 . S
H995 C1029 0.930 . S
H996 C1030 0.932 . S
H997 C1032 0.931 . S
H998 C1033 0.929 . S
H999 C1035 0.929 . S
H1000 C1036 0.931 . S
H1001 C1038 0.881 1_545 S
N1002 C1022 1.433 . S
N1002 C1028 1.435 . S
N1002 C1034 1.423 . S
H1003 C1039 0.957 . S
C1004 N979 1.433 . S
C1004 C1005 1.363 . S
C1004 C1009 1.370 1_565 S
C1005 H978 0.929 . S
C1005 C1004 1.363 . S
C1005 C1006 1.385 . S
C1006 H980 0.930 . S
C1006 C1005 1.385 . S
C1006 C1007 1.357 . S
C1007 C1006 1.357 . S
C1007 C1008 1.406 1_565 S
C1008 H982 0.929 . S
C1008 C1007 1.406 1_545 S
C1008 C1009 1.391 . S
C1009 H981 0.931 . S
C1009 C1004 1.370 1_545 S
C1009 C1008 1.391 . S
C1010 N979 1.435 . S
C1010 C1011 1.358 1_565 S
C1010 C1015 1.371 . S
C1011 H983 0.930 . S
C1011 C1010 1.358 1_545 S
C1011 C1012 1.405 . S
C1012 H984 0.932 . S
C1012 C1011 1.405 . S
C1012 C1013 1.383 . S
C1013 C1012 1.383 . S
C1013 C1014 1.393 1_545 S
C1014 H986 0.931 . S
C1014 C1013 1.393 1_565 S
C1014 C1015 1.382 . S
C1015 H985 0.929 . S
C1015 C1010 1.371 . S
C1015 C1014 1.382 . S
C1016 N979 1.423 . S
C1016 C1017 1.362 . S
C1016 C1021 1.388 1_565 S
C1017 H987 0.929 . S
C1017 C1016 1.362 . S
C1017 C1018 1.376 . S
C1018 H989 0.931 . S
C1018 C1017 1.376 . S
C1018 C1019 1.396 . S
C1019 C1018 1.396 . S
C1019 C1020 1.378 . S
C1019 C1037 1.472 . S
C1020 H990 0.922 1_565 S
C1020 C1019 1.378 . S
C1020 C1021 1.420 1_565 S
C1021 H988 0.932 . S
C1021 C1016 1.388 1_545 S
C1021 C1020 1.420 1_545 S
C1022 N1002 1.433 . S
C1022 C1023 1.363 . S
C1022 C1027 1.353 1_565 S
C1023 H991 0.929 . S
C1023 C1022 1.363 . S
C1023 C1024 1.385 . S
C1024 H992 0.930 . S
C1024 C1023 1.385 . S
C1024 C1025 1.357 . S
C1025 C1024 1.357 . S
C1025 C1026 1.362 1_565 S
C1026 H993 0.965 . S
C1026 C1025 1.362 1_545 S
C1026 C1027 1.397 . S
C1027 H994 0.953 . S
C1027 C1022 1.353 1_545 S
C1027 C1026 1.397 . S
C1028 N1002 1.435 . S
C1028 C1029 1.358 1_565 S
C1028 C1033 1.371 . S
C1029 H995 0.930 . S
C1029 C1028 1.358 1_545 S
C1029 C1030 1.405 . S
C1030 H996 0.932 . S
C1030 C1029 1.405 . S
C1030 C1031 1.383 . S
C1031 C1030 1.383 . S
C1031 C1032 1.393 1_545 S
C1032 H997 0.931 . S
C1032 C1031 1.393 1_565 S
C1032 C1033 1.382 . S
C1033 H998 0.929 . S
C1033 C1028 1.371 . S
C1033 C1032 1.382 . S
C1034 N1002 1.423 . S
C1034 C1035 1.362 . S
C1034 C1039 1.334 1_565 S
C1035 H999 0.929 . S
C1035 C1034 1.362 . S
C1035 C1036 1.376 . S
C1036 H1000 0.931 . S
C1036 C1035 1.376 . S
C1036 C1037 1.396 . S
C1037 C1019 1.472 . S
C1037 C1036 1.396 . S
C1037 C1038 1.367 . S
C1038 H1001 0.881 1_565 S
C1038 C1037 1.367 . S
C1038 C1039 1.508 1_565 S
C1039 H1003 0.957 . S
C1039 C1034 1.334 1_545 S
C1039 C1038 1.508 1_545 S
H1040 C1067 0.929 . S
N1041 C1066 1.433 . S
N1041 C1072 1.435 . S
N1041 C1078 1.423 . S
H1042 C1068 0.930 . S
H1043 C1071 0.931 . S
H1044 C1070 0.929 . S
H1045 C1073 0.930 . S
H1046 C1074 0.932 . S
H1047 C1077 0.929 . S
H1048 C1076 0.931 . S
H1049 C1079 0.929 . S
H1050 C1083 0.932 1_455 S
H1051 C1080 0.931 . S
H1052 C1082 0.929 . S
H1053 C1085 0.929 . S
H1054 C1086 0.930 . S
H1055 C1088 0.929 . S
H1056 C1089 0.931 . S
H1057 C1091 0.930 . S
H1058 C1092 0.932 . S
H1059 C1094 0.931 . S
H1060 C1095 0.929 . S
H1061 C1097 0.929 . S
H1062 C1098 0.931 . S
H1063 C1100 0.929 . S
N1064 C1084 1.433 . S
N1064 C1090 1.435 . S
N1064 C1096 1.423 . S
H1065 C1101 0.932 1_455 S
C1066 N1041 1.433 . S
C1066 C1067 1.363 . S
C1066 C1071 1.370 1_655 S
C1067 H1040 0.929 . S
C1067 C1066 1.363 . S
C1067 C1068 1.385 . S
C1068 H1042 0.930 . S
C1068 C1067 1.385 . S
C1068 C1069 1.357 1_655 S
C1069 C1068 1.357 1_455 S
C1069 C1070 1.406 . S
C1070 H1044 0.929 . S
C1070 C1069 1.406 . S
C1070 C1071 1.391 . S
C1071 H1043 0.931 . S
C1071 C1066 1.370 1_455 S
C1071 C1070 1.391 . S
C1072 N1041 1.435 . S
C1072 C1073 1.358 1_655 S
C1072 C1077 1.371 . S
C1073 H1045 0.930 . S
C1073 C1072 1.358 1_455 S
C1073 C1074 1.405 . S
C1074 H1046 0.932 . S
C1074 C1073 1.405 . S
C1074 C1075 1.383 1_455 S
C1075 C1074 1.383 1_655 S
C1075 C1076 1.393 . S
C1076 H1048 0.931 . S
C1076 C1075 1.393 . S
C1076 C1077 1.382 . S
C1077 H1047 0.929 . S
C1077 C1072 1.371 . S
C1077 C1076 1.382 . S
C1078 N1041 1.423 . S
C1078 C1079 1.362 . S
C1078 C1083 1.388 . S
C1079 H1049 0.929 . S
C1079 C1078 1.362 . S
C1079 C1080 1.376 . S
C1080 H1051 0.931 . S
C1080 C1079 1.376 . S
C1080 C1081 1.396 . S
C1081 C1080 1.396 . S
C1081 C1082 1.348 . S
C1081 C1099 1.472 . S
C1082 H1052 0.929 . S
C1082 C1081 1.348 . S
C1082 C1083 1.443 . S
C1083 H1050 0.932 1_655 S
C1083 C1078 1.388 . S
C1083 C1082 1.443 . S
C1084 N1064 1.433 . S
C1084 C1085 1.363 . S
C1084 C1089 1.370 1_655 S
C1085 H1053 0.929 . S
C1085 C1084 1.363 . S
C1085 C1086 1.385 . S
C1086 H1054 0.930 . S
C1086 C1085 1.385 . S
C1086 C1087 1.357 1_655 S
C1087 C1086 1.357 1_455 S
C1087 C1088 1.406 . S
C1088 H1055 0.929 . S
C1088 C1087 1.406 . S
C1088 C1089 1.391 . S
C1089 H1056 0.931 . S
C1089 C1084 1.370 1_455 S
C1089 C1088 1.391 . S
C1090 N1064 1.435 . S
C1090 C1091 1.358 1_655 S
C1090 C1095 1.371 . S
C1091 H1057 0.930 . S
C1091 C1090 1.358 1_455 S
C1091 C1092 1.405 . S
C1092 H1058 0.932 . S
C1092 C1091 1.405 . S
C1092 C1093 1.383 1_455 S
C1093 C1092 1.383 1_655 S
C1093 C1094 1.393 . S
C1094 H1059 0.931 . S
C1094 C1093 1.393 . S
C1094 C1095 1.382 . S
C1095 H1060 0.929 . S
C1095 C1090 1.371 . S
C1095 C1094 1.382 . S
C1096 N1064 1.423 . S
C1096 C1097 1.362 . S
C1096 C1101 1.388 . S
C1097 H1061 0.929 . S
C1097 C1096 1.362 . S
C1097 C1098 1.376 . S
C1098 H1062 0.931 . S
C1098 C1097 1.376 . S
C1098 C1099 1.396 . S
C1099 C1081 1.472 . S
C1099 C1098 1.396 . S
C1099 C1100 1.348 . S
C1100 H1063 0.929 . S
C1100 C1099 1.348 . S
C1100 C1101 1.443 . S
C1101 H1065 0.932 1_655 S
C1101 C1096 1.388 . S
C1101 C1100 1.443 . S
H1102 C1129 0.929 . S
N1103 C1128 1.433 . S
N1103 C1134 1.435 . S
N1103 C1140 1.423 . S
H1104 C1130 0.930 . S
H1105 C1133 0.931 . S
H1106 C1132 0.929 . S
H1107 C1135 0.930 . S
H1108 C1136 0.932 . S
H1109 C1139 0.929 . S
H1110 C1138 0.931 . S
H1111 C1141 0.929 . S
H1112 C1145 0.932 . S
H1113 C1142 0.931 . S
H1114 C1144 0.929 . S
H1115 C1147 0.929 . S
H1116 C1148 0.930 . S
H1117 C1150 0.929 . S
H1118 C1151 0.931 . S
H1119 C1153 0.930 . S
H1120 C1154 0.932 . S
H1121 C1156 0.931 . S
H1122 C1157 0.929 . S
H1123 C1159 0.929 . S
H1124 C1160 0.931 . S
H1125 C1162 0.929 . S
N1126 C1146 1.433 . S
N1126 C1152 1.435 . S
N1126 C1158 1.423 . S
H1127 C1163 0.932 . S
C1128 N1103 1.433 . S
C1128 C1129 1.363 . S
C1128 C1133 1.370 . S
C1129 H1102 0.929 . S
C1129 C1128 1.363 . S
C1129 C1130 1.385 . S
C1130 H1104 0.930 . S
C1130 C1129 1.385 . S
C1130 C1131 1.357 . S
C1131 C1130 1.357 . S
C1131 C1132 1.406 . S
C1132 H1106 0.929 . S
C1132 C1131 1.406 . S
C1132 C1133 1.391 . S
C1133 H1105 0.931 . S
C1133 C1128 1.370 . S
C1133 C1132 1.391 . S
C1134 N1103 1.435 . S
C1134 C1135 1.358 . S
C1134 C1139 1.371 . S
C1135 H1107 0.930 . S
C1135 C1134 1.358 . S
C1135 C1136 1.405 . S
C1136 H1108 0.932 . S
C1136 C1135 1.405 . S
C1136 C1137 1.383 . S
C1137 C1136 1.383 . S
C1137 C1138 1.393 . S
C1138 H1110 0.931 . S
C1138 C1137 1.393 . S
C1138 C1139 1.382 . S
C1139 H1109 0.929 . S
C1139 C1134 1.371 . S
C1139 C1138 1.382 . S
C1140 N1103 1.423 . S
C1140 C1141 1.362 . S
C1140 C1145 1.388 . S
C1141 H1111 0.929 . S
C1141 C1140 1.362 . S
C1141 C1142 1.376 . S
C1142 H1113 0.931 . S
C1142 C1141 1.376 . S
C1142 C1143 1.396 . S
C1143 C1142 1.396 . S
C1143 C1144 1.348 . S
C1143 C1161 1.472 . S
C1144 H1114 0.929 . S
C1144 C1143 1.348 . S
C1144 C1145 1.443 . S
C1145 H1112 0.932 . S
C1145 C1140 1.388 . S
C1145 C1144 1.443 . S
C1146 N1126 1.433 . S
C1146 C1147 1.363 . S
C1146 C1151 1.370 . S
C1147 H1115 0.929 . S
C1147 C1146 1.363 . S
C1147 C1148 1.385 . S
C1148 H1116 0.930 . S
C1148 C1147 1.385 . S
C1148 C1149 1.357 . S
C1149 C1148 1.357 . S
C1149 C1150 1.406 . S
C1150 H1117 0.929 . S
C1150 C1149 1.406 . S
C1150 C1151 1.391 . S
C1151 H1118 0.931 . S
C1151 C1146 1.370 . S
C1151 C1150 1.391 . S
C1152 N1126 1.435 . S
C1152 C1153 1.358 . S
C1152 C1157 1.371 . S
C1153 H1119 0.930 . S
C1153 C1152 1.358 . S
C1153 C1154 1.405 . S
C1154 H1120 0.932 . S
C1154 C1153 1.405 . S
C1154 C1155 1.383 . S
C1155 C1154 1.383 . S
C1155 C1156 1.393 . S
C1156 H1121 0.931 . S
C1156 C1155 1.393 . S
C1156 C1157 1.382 . S
C1157 H1122 0.929 . S
C1157 C1152 1.371 . S
C1157 C1156 1.382 . S
C1158 N1126 1.423 . S
C1158 C1159 1.362 . S
C1158 C1163 1.388 . S
C1159 H1123 0.929 . S
C1159 C1158 1.362 . S
C1159 C1160 1.376 . S
C1160 H1124 0.931 . S
C1160 C1159 1.376 . S
C1160 C1161 1.396 . S
C1161 C1143 1.472 . S
C1161 C1160 1.396 . S
C1161 C1162 1.348 . S
C1162 H1125 0.929 . S
C1162 C1161 1.348 . S
C1162 C1163 1.443 . S
C1163 H1127 0.932 . S
C1163 C1158 1.388 . S
C1163 C1162 1.443 . S
H1164 C1191 0.929 . S
N1165 C1190 1.433 . S
N1165 C1196 1.435 . S
N1165 C1202 1.423 . S
H1166 C1192 0.930 . S
H1167 C1195 0.931 . S
H1168 C1194 0.929 . S
H1169 C1197 0.930 . S
H1170 C1198 0.932 . S
H1171 C1201 0.929 . S
H1172 C1200 0.931 . S
H1173 C1203 0.929 . S
H1174 C1207 0.932 . S
H1175 C1204 0.931 . S
H1176 C1206 0.929 . S
H1177 C1209 0.929 . S
H1178 C1210 0.930 . S
H1179 C1212 0.929 . S
H1180 C1213 0.931 . S
H1181 C1215 0.930 . S
H1182 C1216 0.932 . S
H1183 C1218 0.931 . S
H1184 C1219 0.929 . S
H1185 C1221 0.929 . S
H1186 C1222 0.931 . S
H1187 C1224 0.929 . S
N1188 C1208 1.433 . S
N1188 C1214 1.435 . S
N1188 C1220 1.423 . S
H1189 C1225 0.932 . S
C1190 N1165 1.433 . S
C1190 C1191 1.363 . S
C1190 C1195 1.370 . S
C1191 H1164 0.929 . S
C1191 C1190 1.363 . S
C1191 C1192 1.385 . S
C1192 H1166 0.930 . S
C1192 C1191 1.385 . S
C1192 C1193 1.357 . S
C1193 C1192 1.357 . S
C1193 C1194 1.406 . S
C1194 H1168 0.929 . S
C1194 C1193 1.406 . S
C1194 C1195 1.391 . S
C1195 H1167 0.931 . S
C1195 C1190 1.370 . S
C1195 C1194 1.391 . S
C1196 N1165 1.435 . S
C1196 C1197 1.358 . S
C1196 C1201 1.371 . S
C1197 H1169 0.930 . S
C1197 C1196 1.358 . S
C1197 C1198 1.405 . S
C1198 H1170 0.932 . S
C1198 C1197 1.405 . S
C1198 C1199 1.383 . S
C1199 C1198 1.383 . S
C1199 C1200 1.393 . S
C1200 H1172 0.931 . S
C1200 C1199 1.393 . S
C1200 C1201 1.382 . S
C1201 H1171 0.929 . S
C1201 C1196 1.371 . S
C1201 C1200 1.382 . S
C1202 N1165 1.423 . S
C1202 C1203 1.362 . S
C1202 C1207 1.388 . S
C1203 H1173 0.929 . S
C1203 C1202 1.362 . S
C1203 C1204 1.376 . S
C1204 H1175 0.931 . S
C1204 C1203 1.376 . S
C1204 C1205 1.396 . S
C1205 C1204 1.396 . S
C1205 C1206 1.348 . S
C1205 C1223 1.472 . S
C1206 H1176 0.929 . S
C1206 C1205 1.348 . S
C1206 C1207 1.443 . S
C1207 H1174 0.932 . S
C1207 C1202 1.388 . S
C1207 C1206 1.443 . S
C1208 N1188 1.433 . S
C1208 C1209 1.363 . S
C1208 C1213 1.370 . S
C1209 H1177 0.929 . S
C1209 C1208 1.363 . S
C1209 C1210 1.385 . S
C1210 H1178 0.930 . S
C1210 C1209 1.385 . S
C1210 C1211 1.357 . S
C1211 C1210 1.357 . S
C1211 C1212 1.406 . S
C1212 H1179 0.929 . S
C1212 C1211 1.406 . S
C1212 C1213 1.391 . S
C1213 H1180 0.931 . S
C1213 C1208 1.370 . S
C1213 C1212 1.391 . S
C1214 N1188 1.435 . S
C1214 C1215 1.358 . S
C1214 C1219 1.371 . S
C1215 H1181 0.930 . S
C1215 C1214 1.358 . S
C1215 C1216 1.405 . S
C1216 H1182 0.932 . S
C1216 C1215 1.405 . S
C1216 C1217 1.383 . S
C1217 C1216 1.383 . S
C1217 C1218 1.393 . S
C1218 H1183 0.931 . S
C1218 C1217 1.393 . S
C1218 C1219 1.382 . S
C1219 H1184 0.929 . S
C1219 C1214 1.371 . S
C1219 C1218 1.382 . S
C1220 N1188 1.423 . S
C1220 C1221 1.362 . S
C1220 C1225 1.388 . S
C1221 H1185 0.929 . S
C1221 C1220 1.362 . S
C1221 C1222 1.376 . S
C1222 H1186 0.931 . S
C1222 C1221 1.376 . S
C1222 C1223 1.396 . S
C1223 C1205 1.472 . S
C1223 C1222 1.396 . S
C1223 C1224 1.348 . S
C1224 H1187 0.929 . S
C1224 C1223 1.348 . S
C1224 C1225 1.443 . S
C1225 H1189 0.932 . S
C1225 C1220 1.388 . S
C1225 C1224 1.443 . S
H1226 C1253 0.929 . S
N1227 C1252 1.433 . S
N1227 C1258 1.435 . S
N1227 C1264 1.423 . S
H1228 C1254 0.930 . S
H1229 C1257 0.931 . S
H1230 C1256 0.929 . S
H1231 C1259 0.930 . S
H1232 C1260 0.932 . S
H1233 C1263 0.929 . S
H1234 C1262 0.931 . S
H1235 C1265 0.929 . S
H1236 C1269 0.932 . S
H1237 C1266 0.931 . S
H1238 C1268 0.929 . S
H1239 C1271 0.929 . S
H1240 C1272 0.930 . S
H1241 C1274 0.929 . S
H1242 C1275 0.931 . S
H1243 C1277 0.930 . S
H1244 C1278 0.932 . S
H1245 C1280 0.931 . S
H1246 C1281 0.929 . S
H1247 C1283 0.929 . S
H1248 C1284 0.931 . S
H1249 C1286 0.929 . S
N1250 C1270 1.433 . S
N1250 C1276 1.435 . S
N1250 C1282 1.423 . S
H1251 C1287 0.932 . S
C1252 N1227 1.433 . S
C1252 C1253 1.363 . S
C1252 C1257 1.370 . S
C1253 H1226 0.929 . S
C1253 C1252 1.363 . S
C1253 C1254 1.385 . S
C1254 H1228 0.930 . S
C1254 C1253 1.385 . S
C1254 C1255 1.357 . S
C1255 C1254 1.357 . S
C1255 C1256 1.406 . S
C1256 H1230 0.929 . S
C1256 C1255 1.406 . S
C1256 C1257 1.391 . S
C1257 H1229 0.931 . S
C1257 C1252 1.370 . S
C1257 C1256 1.391 . S
C1258 N1227 1.435 . S
C1258 C1259 1.358 . S
C1258 C1263 1.371 . S
C1259 H1231 0.930 . S
C1259 C1258 1.358 . S
C1259 C1260 1.405 . S
C1260 H1232 0.932 . S
C1260 C1259 1.405 . S
C1260 C1261 1.383 . S
C1261 C1260 1.383 . S
C1261 C1262 1.393 . S
C1262 H1234 0.931 . S
C1262 C1261 1.393 . S
C1262 C1263 1.382 . S
C1263 H1233 0.929 . S
C1263 C1258 1.371 . S
C1263 C1262 1.382 . S
C1264 N1227 1.423 . S
C1264 C1265 1.362 . S
C1264 C1269 1.388 . S
C1265 H1235 0.929 . S
C1265 C1264 1.362 . S
C1265 C1266 1.376 . S
C1266 H1237 0.931 . S
C1266 C1265 1.376 . S
C1266 C1267 1.396 . S
C1267 C1266 1.396 . S
C1267 C1268 1.348 . S
C1267 C1285 1.472 . S
C1268 H1238 0.929 . S
C1268 C1267 1.348 . S
C1268 C1269 1.443 . S
C1269 H1236 0.932 . S
C1269 C1264 1.388 . S
C1269 C1268 1.443 . S
C1270 N1250 1.433 . S
C1270 C1271 1.363 . S
C1270 C1275 1.370 . S
C1271 H1239 0.929 . S
C1271 C1270 1.363 . S
C1271 C1272 1.385 . S
C1272 H1240 0.930 . S
C1272 C1271 1.385 . S
C1272 C1273 1.357 . S
C1273 C1272 1.357 . S
C1273 C1274 1.406 . S
C1274 H1241 0.929 . S
C1274 C1273 1.406 . S
C1274 C1275 1.391 . S
C1275 H1242 0.931 . S
C1275 C1270 1.370 . S
C1275 C1274 1.391 . S
C1276 N1250 1.435 . S
C1276 C1277 1.358 . S
C1276 C1281 1.371 . S
C1277 H1243 0.930 . S
C1277 C1276 1.358 . S
C1277 C1278 1.405 . S
C1278 H1244 0.932 . S
C1278 C1277 1.405 . S
C1278 C1279 1.383 . S
C1279 C1278 1.383 . S
C1279 C1280 1.393 . S
C1280 H1245 0.931 . S
C1280 C1279 1.393 . S
C1280 C1281 1.382 . S
C1281 H1246 0.929 . S
C1281 C1276 1.371 . S
C1281 C1280 1.382 . S
C1282 N1250 1.423 . S
C1282 C1283 1.362 . S
C1282 C1287 1.388 . S
C1283 H1247 0.929 . S
C1283 C1282 1.362 . S
C1283 C1284 1.376 . S
C1284 H1248 0.931 . S
C1284 C1283 1.376 . S
C1284 C1285 1.396 . S
C1285 C1267 1.472 . S
C1285 C1284 1.396 . S
C1285 C1286 1.348 . S
C1286 H1249 0.929 . S
C1286 C1285 1.348 . S
C1286 C1287 1.443 . S
C1287 H1251 0.932 . S
C1287 C1282 1.388 . S
C1287 C1286 1.443 . S
H1288 C1315 0.929 . S
N1289 C1314 1.433 . S
N1289 C1320 1.435 . S
N1289 C1326 1.423 . S
H1290 C1316 0.930 . S
H1291 C1319 0.931 . S
H1292 C1318 0.929 . S
H1293 C1321 0.930 . S
H1294 C1322 0.932 . S
H1295 C1325 0.929 . S
H1296 C1324 0.931 . S
H1297 C1327 0.929 . S
H1298 C1331 0.932 . S
H1299 C1328 0.931 . S
H1300 C1330 0.929 . S
H1301 C1333 0.929 . S
H1302 C1334 0.930 . S
H1303 C1336 0.929 . S
H1304 C1337 0.931 . S
H1305 C1339 0.930 . S
H1306 C1340 0.932 . S
H1307 C1342 0.931 . S
H1308 C1343 0.929 . S
H1309 C1345 0.929 . S
H1310 C1346 0.931 . S
H1311 C1348 0.929 . S
N1312 C1332 1.433 . S
N1312 C1338 1.435 . S
N1312 C1344 1.423 . S
H1313 C1349 0.932 . S
C1314 N1289 1.433 . S
C1314 C1315 1.363 . S
C1314 C1319 1.370 . S
C1315 H1288 0.929 . S
C1315 C1314 1.363 . S
C1315 C1316 1.385 . S
C1316 H1290 0.930 . S
C1316 C1315 1.385 . S
C1316 C1317 1.357 . S
C1317 C1316 1.357 . S
C1317 C1318 1.406 . S
C1318 H1292 0.929 . S
C1318 C1317 1.406 . S
C1318 C1319 1.391 . S
C1319 H1291 0.931 . S
C1319 C1314 1.370 . S
C1319 C1318 1.391 . S
C1320 N1289 1.435 . S
C1320 C1321 1.358 . S
C1320 C1325 1.371 . S
C1321 H1293 0.930 . S
C1321 C1320 1.358 . S
C1321 C1322 1.405 . S
C1322 H1294 0.932 . S
C1322 C1321 1.405 . S
C1322 C1323 1.383 . S
C1323 C1322 1.383 . S
C1323 C1324 1.393 . S
C1324 H1296 0.931 . S
C1324 C1323 1.393 . S
C1324 C1325 1.382 . S
C1325 H1295 0.929 . S
C1325 C1320 1.371 . S
C1325 C1324 1.382 . S
C1326 N1289 1.423 . S
C1326 C1327 1.362 . S
C1326 C1331 1.388 . S
C1327 H1297 0.929 . S
C1327 C1326 1.362 . S
C1327 C1328 1.376 . S
C1328 H1299 0.931 . S
C1328 C1327 1.376 . S
C1328 C1329 1.396 . S
C1329 C1328 1.396 . S
C1329 C1330 1.348 . S
C1329 C1347 1.472 . S
C1330 H1300 0.929 . S
C1330 C1329 1.348 . S
C1330 C1331 1.443 . S
C1331 H1298 0.932 . S
C1331 C1326 1.388 . S
C1331 C1330 1.443 . S
C1332 N1312 1.433 . S
C1332 C1333 1.363 . S
C1332 C1337 1.370 . S
C1333 H1301 0.929 . S
C1333 C1332 1.363 . S
C1333 C1334 1.385 . S
C1334 H1302 0.930 . S
C1334 C1333 1.385 . S
C1334 C1335 1.357 . S
C1335 C1334 1.357 . S
C1335 C1336 1.406 . S
C1336 H1303 0.929 . S
C1336 C1335 1.406 . S
C1336 C1337 1.391 . S
C1337 H1304 0.931 . S
C1337 C1332 1.370 . S
C1337 C1336 1.391 . S
C1338 N1312 1.435 . S
C1338 C1339 1.358 . S
C1338 C1343 1.371 . S
C1339 H1305 0.930 . S
C1339 C1338 1.358 . S
C1339 C1340 1.405 . S
C1340 H1306 0.932 . S
C1340 C1339 1.405 . S
C1340 C1341 1.383 . S
C1341 C1340 1.383 . S
C1341 C1342 1.393 . S
C1342 H1307 0.931 . S
C1342 C1341 1.393 . S
C1342 C1343 1.382 . S
C1343 H1308 0.929 . S
C1343 C1338 1.371 . S
C1343 C1342 1.382 . S
C1344 N1312 1.423 . S
C1344 C1345 1.362 . S
C1344 C1349 1.388 . S
C1345 H1309 0.929 . S
C1345 C1344 1.362 . S
C1345 C1346 1.376 . S
C1346 H1310 0.931 . S
C1346 C1345 1.376 . S
C1346 C1347 1.396 . S
C1347 C1329 1.472 . S
C1347 C1346 1.396 . S
C1347 C1348 1.348 . S
C1348 H1311 0.929 . S
C1348 C1347 1.348 . S
C1348 C1349 1.443 . S
C1349 H1313 0.932 . S
C1349 C1344 1.388 . S
C1349 C1348 1.443 . S
H1350 C1358 0.950 . S
H1351 C1363 0.950 . S
H1352 C1360 0.950 . S
H1353 C1362 0.950 . S
H1354 C1364 0.950 . S
H1355 C1366 0.950 . S
H1356 C1368 0.950 . S
H1357 C1369 0.950 . S
C1358 H1350 0.950 . S
C1358 C1359 1.386 . S
C1358 C1360 1.391 . S
C1359 C1358 1.386 . S
C1359 C1363 1.393 1_655 S
C1360 H1352 0.950 . S
C1360 C1358 1.391 . S
C1360 C1361 1.400 . S
C1361 C1360 1.400 . S
C1361 C1362 1.398 1_655 S
C1361 C1367 1.491 . S
C1362 H1353 0.950 . S
C1362 C1361 1.398 1_455 S
C1362 C1363 1.391 . S
C1363 H1351 0.950 . S
C1363 C1359 1.393 1_455 S
C1363 C1362 1.391 . S
C1364 H1354 0.950 . S
C1364 C1365 1.386 1_455 S
C1364 C1366 1.391 . S
C1365 C1364 1.386 1_655 S
C1365 C1369 1.393 . S
C1366 H1355 0.950 . S
C1366 C1364 1.391 . S
C1366 C1367 1.400 1_455 S
C1367 C1361 1.491 . S
C1367 C1366 1.400 1_655 S
C1367 C1368 1.398 . S
C1368 H1356 0.950 . S
C1368 C1367 1.398 . S
C1368 C1369 1.391 . S
C1369 H1357 0.950 . S
C1369 C1365 1.393 . S
C1369 C1368 1.391 . S
H1370 C1378 0.950 . S
H1371 C1383 0.950 . S
H1372 C1380 0.950 . S
H1373 C1382 0.950 . S
H1374 C1384 0.950 . S
H1375 C1386 0.950 . S
H1376 C1388 0.950 . S
H1377 C1389 0.950 . S
C1378 H1370 0.950 . S
C1378 C1379 1.386 . S
C1378 C1380 1.391 . S
C1379 C1378 1.386 . S
C1379 C1383 1.393 . S
C1380 H1372 0.950 . S
C1380 C1378 1.391 . S
C1380 C1381 1.400 . S
C1381 C1380 1.400 . S
C1381 C1382 1.398 . S
C1381 C1387 1.491 . S
C1382 H1373 0.950 . S
C1382 C1381 1.398 . S
C1382 C1383 1.391 . S
C1383 H1371 0.950 . S
C1383 C1379 1.393 . S
C1383 C1382 1.391 . S
C1384 H1374 0.950 . S
C1384 C1385 1.386 . S
C1384 C1386 1.391 . S
C1385 C1384 1.386 . S
C1385 C1389 1.393 . S
C1386 H1375 0.950 . S
C1386 C1384 1.391 . S
C1386 C1387 1.400 . S
C1387 C1381 1.491 . S
C1387 C1386 1.400 . S
C1387 C1388 1.398 . S
C1388 H1376 0.950 . S
C1388 C1387 1.398 . S
C1388 C1389 1.391 . S
C1389 H1377 0.950 . S
C1389 C1385 1.393 . S
C1389 C1388 1.391 . S
H1390 C1398 0.950 . S
H1391 C1403 0.950 1_565 S
H1392 C1400 0.950 . S
H1393 C1402 0.902 1_565 S
H1394 C1404 1.015 . S
H1395 C1406 0.952 . S
H1396 C1408 0.950 . S
H1397 C1409 0.950 . S
C1398 H1390 0.950 . S
C1398 C1399 1.386 . S
C1398 C1400 1.391 . S
C1399 C1398 1.386 . S
C1399 C1403 1.393 . S
C1400 H1392 0.950 . S
C1400 C1398 1.391 . S
C1400 C1401 1.400 . S
C1401 C1400 1.400 . S
C1401 C1402 1.423 . S
C1401 C1407 1.491 . S
C1402 H1393 0.902 1_545 S
C1402 C1401 1.423 . S
C1402 C1403 1.415 . S
C1403 H1391 0.950 1_545 S
C1403 C1399 1.393 . S
C1403 C1402 1.415 . S
C1404 H1394 1.015 . S
C1404 C1405 1.354 1_565 S
C1404 C1406 1.363 . S
C1405 C1404 1.354 1_545 S
C1405 C1409 1.393 . S
C1406 H1395 0.952 . S
C1406 C1404 1.363 . S
C1406 C1407 1.396 1_565 S
C1407 C1401 1.491 . S
C1407 C1406 1.396 1_545 S
C1407 C1408 1.398 . S
C1408 H1396 0.950 . S
C1408 C1407 1.398 . S
C1408 C1409 1.391 . S
C1409 H1397 0.950 . S
C1409 C1405 1.393 . S
C1409 C1408 1.391 . S
H1410 C1418 0.950 . S
H1411 C1423 0.950 . S
H1412 C1420 0.950 . S
H1413 C1422 0.950 . S
H1414 C1424 0.950 . S
H1415 C1426 0.950 . S
H1416 C1428 0.950 . S
H1417 C1429 0.950 . S
C1418 H1410 0.950 . S
C1418 C1419 1.393 . S
C1418 C1420 1.391 . S
C1419 C1418 1.393 . S
C1419 C1423 1.380 1_545 S
C1420 H1412 0.950 . S
C1420 C1418 1.391 . S
C1420 C1421 1.400 1_545 S
C1421 C1420 1.400 1_565 S
C1421 C1422 1.398 . S
C1421 C1427 1.491 . S
C1422 H1413 0.950 . S
C1422 C1421 1.398 . S
C1422 C1423 1.391 . S
C1423 H1411 0.950 . S
C1423 C1419 1.380 1_565 S
C1423 C1422 1.391 . S
C1424 H1414 0.950 . S
C1424 C1425 1.386 . S
C1424 C1426 1.391 . S
C1425 C1424 1.386 . S
C1425 C1429 1.393 1_565 S
C1426 H1415 0.950 . S
C1426 C1424 1.391 . S
C1426 C1427 1.400 . S
C1427 C1421 1.491 . S
C1427 C1426 1.400 . S
C1427 C1428 1.398 1_565 S
C1428 H1416 0.950 . S
C1428 C1427 1.398 1_545 S
C1428 C1429 1.391 . S
C1429 H1417 0.950 . S
C1429 C1425 1.393 1_545 S
C1429 C1428 1.391 . S
H1430 C1438 0.950 . S
H1431 C1443 0.950 . S
H1432 C1440 0.950 . S
H1433 C1442 0.950 . S
H1434 C1444 0.950 . S
H1435 C1446 0.950 . S
H1436 C1448 0.950 . S
H1437 C1449 0.950 . S
C1438 H1430 0.950 . S
C1438 C1439 1.386 1_655 S
C1438 C1440 1.391 . S
C1439 C1438 1.386 1_455 S
C1439 C1443 1.393 . S
C1440 H1432 0.950 . S
C1440 C1438 1.391 . S
C1440 C1441 1.400 1_655 S
C1441 C1440 1.400 1_455 S
C1441 C1442 1.398 . S
C1441 C1447 1.491 . S
C1442 H1433 0.950 . S
C1442 C1441 1.398 . S
C1442 C1443 1.391 . S
C1443 H1431 0.950 . S
C1443 C1439 1.393 . S
C1443 C1442 1.391 . S
C1444 H1434 0.950 . S
C1444 C1445 1.386 . S
C1444 C1446 1.391 . S
C1445 C1444 1.386 . S
C1445 C1449 1.393 1_455 S
C1446 H1435 0.950 . S
C1446 C1444 1.391 . S
C1446 C1447 1.400 . S
C1447 C1441 1.491 . S
C1447 C1446 1.400 . S
C1447 C1448 1.398 1_455 S
C1448 H1436 0.950 . S
C1448 C1447 1.398 1_655 S
C1448 C1449 1.391 . S
C1449 H1437 0.950 . S
C1449 C1445 1.393 1_655 S
C1449 C1448 1.391 . S
H1450 C1458 0.950 . S
H1451 C1463 0.950 . S
H1452 C1460 0.950 . S
H1453 C1462 0.950 . S
H1454 C1464 0.950 . S
H1455 C1466 0.950 . S
H1456 C1468 0.950 . S
H1457 C1469 0.950 . S
C1458 H1450 0.950 . S
C1458 C1459 1.386 . S
C1458 C1460 1.391 . S
C1459 C1458 1.386 . S
C1459 C1463 1.393 . S
C1460 H1452 0.950 . S
C1460 C1458 1.391 . S
C1460 C1461 1.400 . S
C1461 C1460 1.400 . S
C1461 C1462 1.398 . S
C1461 C1467 1.491 . S
C1462 H1453 0.950 . S
C1462 C1461 1.398 . S
C1462 C1463 1.391 . S
C1463 H1451 0.950 . S
C1463 C1459 1.393 . S
C1463 C1462 1.391 . S
C1464 H1454 0.950 . S
C1464 C1465 1.386 . S
C1464 C1466 1.391 . S
C1465 C1464 1.386 . S
C1465 C1469 1.393 . S
C1466 H1455 0.950 . S
C1466 C1464 1.391 . S
C1466 C1467 1.400 . S
C1467 C1461 1.491 . S
C1467 C1466 1.400 . S
C1467 C1468 1.398 . S
C1468 H1456 0.950 . S
C1468 C1467 1.398 . S
C1468 C1469 1.391 . S
C1469 H1457 0.950 . S
C1469 C1465 1.393 . S
C1469 C1468 1.391 . S
H1470 C1478 0.950 . S
H1471 C1483 0.950 . S
H1472 C1480 0.950 . S
H1473 C1482 0.950 . S
H1474 C1484 0.950 . S
H1475 C1486 0.950 . S
H1476 C1488 0.950 . S
H1477 C1489 0.950 . S
C1478 H1470 0.950 . S
C1478 C1479 1.386 . S
C1478 C1480 1.391 . S
C1479 C1478 1.386 . S
C1479 C1483 1.393 1_455 S
C1480 H1472 0.950 . S
C1480 C1478 1.391 . S
C1480 C1481 1.400 . S
C1481 C1480 1.400 . S
C1481 C1482 1.398 1_455 S
C1481 C1487 1.491 . S
C1482 H1473 0.950 . S
C1482 C1481 1.398 1_655 S
C1482 C1483 1.391 . S
C1483 H1471 0.950 . S
C1483 C1479 1.393 1_655 S
C1483 C1482 1.391 . S
C1484 H1474 0.950 . S
C1484 C1485 1.386 1_655 S
C1484 C1486 1.391 . S
C1485 C1484 1.386 1_455 S
C1485 C1489 1.393 . S
C1486 H1475 0.950 . S
C1486 C1484 1.391 . S
C1486 C1487 1.400 1_655 S
C1487 C1481 1.491 . S
C1487 C1486 1.400 1_455 S
C1487 C1488 1.398 . S
C1488 H1476 0.950 . S
C1488 C1487 1.398 . S
C1488 C1489 1.391 . S
C1489 H1477 0.950 . S
C1489 C1485 1.393 . S
C1489 C1488 1.391 . S
H1490 C1498 0.950 . S
H1491 C1503 0.950 . S
H1492 C1500 0.950 . S
H1493 C1502 0.950 . S
H1494 C1504 0.950 . S
H1495 C1506 0.950 . S
H1496 C1508 0.950 . S
H1497 C1509 0.950 . S
C1498 H1490 0.950 . S
C1498 C1499 1.386 . S
C1498 C1500 1.391 . S
C1499 C1498 1.386 . S
C1499 C1503 1.393 . S
C1500 H1492 0.950 . S
C1500 C1498 1.391 . S
C1500 C1501 1.400 . S
C1501 C1500 1.400 . S
C1501 C1502 1.398 . S
C1501 C1507 1.491 . S
C1502 H1493 0.950 . S
C1502 C1501 1.398 . S
C1502 C1503 1.391 . S
C1503 H1491 0.950 . S
C1503 C1499 1.393 . S
C1503 C1502 1.391 . S
C1504 H1494 0.950 . S
C1504 C1505 1.386 . S
C1504 C1506 1.391 . S
C1505 C1504 1.386 . S
C1505 C1509 1.393 . S
C1506 H1495 0.950 . S
C1506 C1504 1.391 . S
C1506 C1507 1.400 . S
C1507 C1501 1.491 . S
C1507 C1506 1.400 . S
C1507 C1508 1.398 . S
C1508 H1496 0.950 . S
C1508 C1507 1.398 . S
C1508 C1509 1.391 . S
C1509 H1497 0.950 . S
C1509 C1505 1.393 . S
C1509 C1508 1.391 . S
H1510 C1518 0.950 . S
H1511 C1523 0.950 . S
H1512 C1520 0.950 . S
H1513 C1522 0.950 . S
H1514 C1524 0.950 . S
H1515 C1526 0.950 . S
H1516 C1528 0.950 . S
H1517 C1529 0.950 . S
C1518 H1510 0.950 . S
C1518 C1519 1.386 1_545 S
C1518 C1520 1.391 . S
C1519 C1518 1.386 1_565 S
C1519 C1523 1.393 . S
C1520 H1512 0.950 . S
C1520 C1518 1.391 . S
C1520 C1521 1.400 1_545 S
C1521 C1520 1.400 1_565 S
C1521 C1522 1.398 . S
C1521 C1527 1.491 . S
C1522 H1513 0.950 . S
C1522 C1521 1.398 . S
C1522 C1523 1.391 . S
C1523 H1511 0.950 . S
C1523 C1519 1.393 . S
C1523 C1522 1.391 . S
C1524 H1514 0.950 . S
C1524 C1525 1.386 . S
C1524 C1526 1.391 . S
C1525 C1524 1.386 . S
C1525 C1529 1.393 1_565 S
C1526 H1515 0.950 . S
C1526 C1524 1.391 . S
C1526 C1527 1.400 . S
C1527 C1521 1.491 . S
C1527 C1526 1.400 . S
C1527 C1528 1.398 1_565 S
C1528 H1516 0.950 . S
C1528 C1527 1.398 1_545 S
C1528 C1529 1.391 . S
C1529 H1517 0.950 . S
C1529 C1525 1.393 1_545 S
C1529 C1528 1.391 . S
H1530 C1538 0.950 . S
H1531 C1543 0.950 . S
H1532 C1540 0.950 . S
H1533 C1542 0.950 . S
H1534 C1544 0.950 . S
H1535 C1546 0.950 . S
H1536 C1548 0.950 . S
H1537 C1549 0.950 . S
C1538 H1530 0.950 . S
C1538 C1539 1.386 . S
C1538 C1540 1.391 . S
C1539 C1538 1.386 . S
C1539 C1543 1.393 . S
C1540 H1532 0.950 . S
C1540 C1538 1.391 . S
C1540 C1541 1.400 . S
C1541 C1540 1.400 . S
C1541 C1542 1.398 . S
C1541 C1547 1.491 . S
C1542 H1533 0.950 . S
C1542 C1541 1.398 . S
C1542 C1543 1.391 . S
C1543 H1531 0.950 . S
C1543 C1539 1.393 . S
C1543 C1542 1.391 . S
C1544 H1534 0.950 . S
C1544 C1545 1.386 . S
C1544 C1546 1.391 . S
C1545 C1544 1.386 . S
C1545 C1549 1.393 . S
C1546 H1535 0.950 . S
C1546 C1544 1.391 . S
C1546 C1547 1.400 . S
C1547 C1541 1.491 . S
C1547 C1546 1.400 . S
C1547 C1548 1.398 . S
C1548 H1536 0.950 . S
C1548 C1547 1.398 . S
C1548 C1549 1.391 . S
C1549 H1537 0.950 . S
C1549 C1545 1.393 . S
C1549 C1548 1.391 . S
H1550 C1558 0.950 . S
H1551 C1563 0.950 . S
H1552 C1560 0.950 . S
H1553 C1562 0.950 . S
H1554 C1564 0.950 . S
H1555 C1566 0.950 . S
H1556 C1568 0.950 . S
H1557 C1569 0.950 . S
C1558 H1550 0.950 . S
C1558 C1559 1.386 1_455 S
C1558 C1560 1.391 . S
C1559 C1558 1.386 1_655 S
C1559 C1563 1.393 . S
C1560 H1552 0.950 . S
C1560 C1558 1.391 . S
C1560 C1561 1.400 1_455 S
C1561 C1560 1.400 1_655 S
C1561 C1562 1.398 . S
C1561 C1567 1.491 . S
C1562 H1553 0.950 . S
C1562 C1561 1.398 . S
C1562 C1563 1.391 . S
C1563 H1551 0.950 . S
C1563 C1559 1.393 . S
C1563 C1562 1.391 . S
C1564 H1554 0.950 . S
C1564 C1565 1.386 . S
C1564 C1566 1.391 . S
C1565 C1564 1.386 . S
C1565 C1569 1.393 1_655 S
C1566 H1555 0.950 . S
C1566 C1564 1.391 . S
C1566 C1567 1.400 . S
C1567 C1561 1.491 . S
C1567 C1566 1.400 . S
C1567 C1568 1.398 1_655 S
C1568 H1556 0.950 . S
C1568 C1567 1.398 1_455 S
C1568 C1569 1.391 . S
C1569 H1557 0.950 . S
C1569 C1565 1.393 1_455 S
C1569 C1568 1.391 . S
H1570 C1578 0.950 . S
H1571 C1583 0.950 . S
H1572 C1580 0.950 . S
H1573 C1582 0.950 . S
H1574 C1584 0.950 . S
H1575 C1586 0.950 . S
H1576 C1588 0.950 . S
H1577 C1589 0.950 . S
C1578 H1570 0.950 . S
C1578 C1579 1.386 . S
C1578 C1580 1.391 . S
C1579 C1578 1.386 . S
C1579 C1583 1.393 . S
C1580 H1572 0.950 . S
C1580 C1578 1.391 . S
C1580 C1581 1.400 . S
C1581 C1580 1.400 . S
C1581 C1582 1.398 . S
C1581 C1587 1.491 . S
C1582 H1573 0.950 . S
C1582 C1581 1.398 . S
C1582 C1583 1.391 . S
C1583 H1571 0.950 . S
C1583 C1579 1.393 . S
C1583 C1582 1.391 . S
C1584 H1574 0.950 . S
C1584 C1585 1.386 . S
C1584 C1586 1.391 . S
C1585 C1584 1.386 . S
C1585 C1589 1.393 . S
C1586 H1575 0.950 . S
C1586 C1584 1.391 . S
C1586 C1587 1.400 . S
C1587 C1581 1.491 . S
C1587 C1586 1.400 . S
C1587 C1588 1.398 . S
C1588 H1576 0.950 . S
C1588 C1587 1.398 . S
C1588 C1589 1.391 . S
C1589 H1577 0.950 . S
C1589 C1585 1.393 . S
C1589 C1588 1.391 . S
H1590 C1598 0.950 . S
H1591 C1603 0.950 . S
H1592 C1600 0.950 . S
H1593 C1602 0.950 . S
H1594 C1604 0.950 . S
H1595 C1606 0.950 . S
H1596 C1608 0.950 . S
H1597 C1609 0.950 . S
C1598 H1590 0.950 . S
C1598 C1599 1.386 . S
C1598 C1600 1.391 . S
C1599 C1598 1.386 . S
C1599 C1603 1.393 . S
C1600 H1592 0.950 . S
C1600 C1598 1.391 . S
C1600 C1601 1.400 . S
C1601 C1600 1.400 . S
C1601 C1602 1.398 . S
C1601 C1607 1.491 . S
C1602 H1593 0.950 . S
C1602 C1601 1.398 . S
C1602 C1603 1.391 . S
C1603 H1591 0.950 . S
C1603 C1599 1.393 . S
C1603 C1602 1.391 . S
C1604 H1594 0.950 . S
C1604 C1605 1.386 . S
C1604 C1606 1.391 . S
C1605 C1604 1.386 . S
C1605 C1609 1.393 . S
C1606 H1595 0.950 . S
C1606 C1604 1.391 . S
C1606 C1607 1.400 . S
C1607 C1601 1.491 . S
C1607 C1606 1.400 . S
C1607 C1608 1.398 . S
C1608 H1596 0.950 . S
C1608 C1607 1.398 . S
C1608 C1609 1.391 . S
C1609 H1597 0.950 . S
C1609 C1605 1.393 . S
C1609 C1608 1.391 . S
H1610 C1618 0.950 . S
H1611 C1623 0.950 . S
H1612 C1620 0.950 . S
H1613 C1622 0.950 . S
H1614 C1624 0.950 . S
H1615 C1626 0.950 . S
H1616 C1628 0.950 . S
H1617 C1629 0.950 . S
C1618 H1610 0.950 . S
C1618 C1619 1.386 . S
C1618 C1620 1.391 . S
C1619 C1618 1.386 . S
C1619 C1623 1.393 . S
C1620 H1612 0.950 . S
C1620 C1618 1.391 . S
C1620 C1621 1.400 . S
C1621 C1620 1.400 . S
C1621 C1622 1.398 . S
C1621 C1627 1.491 . S
C1622 H1613 0.950 . S
C1622 C1621 1.398 . S
C1622 C1623 1.391 . S
C1623 H1611 0.950 . S
C1623 C1619 1.393 . S
C1623 C1622 1.391 . S
C1624 H1614 0.950 . S
C1624 C1625 1.386 . S
C1624 C1626 1.391 . S
C1625 C1624 1.386 . S
C1625 C1629 1.393 . S
C1626 H1615 0.950 . S
C1626 C1624 1.391 . S
C1626 C1627 1.400 . S
C1627 C1621 1.491 . S
C1627 C1626 1.400 . S
C1627 C1628 1.398 . S
C1628 H1616 0.950 . S
C1628 C1627 1.398 . S
C1628 C1629 1.391 . S
C1629 H1617 0.950 . S
C1629 C1625 1.393 . S
C1629 C1628 1.391 . S
H1630 C1638 0.950 . S
H1631 C1643 0.950 . S
H1632 C1640 0.950 . S
H1633 C1642 0.950 . S
H1634 C1644 0.950 . S
H1635 C1646 0.950 . S
H1636 C1648 0.950 . S
H1637 C1649 0.950 . S
C1638 H1630 0.950 . S
C1638 C1639 1.386 . S
C1638 C1640 1.391 . S
C1639 C1638 1.386 . S
C1639 C1643 1.393 . S
C1640 H1632 0.950 . S
C1640 C1638 1.391 . S
C1640 C1641 1.400 . S
C1641 C1640 1.400 . S
C1641 C1642 1.398 . S
C1641 C1647 1.491 . S
C1642 H1633 0.950 . S
C1642 C1641 1.398 . S
C1642 C1643 1.391 . S
C1643 H1631 0.950 . S
C1643 C1639 1.393 . S
C1643 C1642 1.391 . S
C1644 H1634 0.950 . S
C1644 C1645 1.386 . S
C1644 C1646 1.391 . S
C1645 C1644 1.386 . S
C1645 C1649 1.393 . S
C1646 H1635 0.950 . S
C1646 C1644 1.391 . S
C1646 C1647 1.400 . S
C1647 C1641 1.491 . S
C1647 C1646 1.400 . S
C1647 C1648 1.398 . S
C1648 H1636 0.950 . S
C1648 C1647 1.398 . S
C1648 C1649 1.391 . S
C1649 H1637 0.950 . S
C1649 C1645 1.393 . S
C1649 C1648 1.391 . S
H1650 C1658 0.950 . S
H1651 C1663 0.950 . S
H1652 C1660 0.950 . S
H1653 C1662 0.950 . S
H1654 C1664 0.950 . S
H1655 C1666 0.950 . S
H1656 C1668 0.950 . S
H1657 C1669 0.950 . S
C1658 H1650 0.950 . S
C1658 C1659 1.386 . S
C1658 C1660 1.391 . S
C1659 C1658 1.386 . S
C1659 C1663 1.393 . S
C1660 H1652 0.950 . S
C1660 C1658 1.391 . S
C1660 C1661 1.400 . S
C1661 C1660 1.400 . S
C1661 C1662 1.398 . S
C1661 C1667 1.491 . S
C1662 H1653 0.950 . S
C1662 C1661 1.398 . S
C1662 C1663 1.391 . S
C1663 H1651 0.950 . S
C1663 C1659 1.393 . S
C1663 C1662 1.391 . S
C1664 H1654 0.950 . S
C1664 C1665 1.386 . S
C1664 C1666 1.391 . S
C1665 C1664 1.386 . S
C1665 C1669 1.393 . S
C1666 H1655 0.950 . S
C1666 C1664 1.391 . S
C1666 C1667 1.400 . S
C1667 C1661 1.491 . S
C1667 C1666 1.400 . S
C1667 C1668 1.398 . S
C1668 H1656 0.950 . S
C1668 C1667 1.398 . S
C1668 C1669 1.391 . S
C1669 H1657 0.950 . S
C1669 C1665 1.393 . S
C1669 C1668 1.391 . S
H1670 C1678 0.950 . S
H1671 C1683 0.950 . S
H1672 C1680 0.950 . S
H1673 C1682 0.950 . S
H1674 C1684 0.950 . S
H1675 C1686 0.950 . S
H1676 C1688 0.950 . S
H1677 C1689 0.950 . S
C1678 H1670 0.950 . S
C1678 C1679 1.386 . S
C1678 C1680 1.391 . S
C1679 C1678 1.386 . S
C1679 C1683 1.393 . S
C1680 H1672 0.950 . S
C1680 C1678 1.391 . S
C1680 C1681 1.400 . S
C1681 C1680 1.400 . S
C1681 C1682 1.398 . S
C1681 C1687 1.491 . S
C1682 H1673 0.950 . S
C1682 C1681 1.398 . S
C1682 C1683 1.391 . S
C1683 H1671 0.950 . S
C1683 C1679 1.393 . S
C1683 C1682 1.391 . S
C1684 H1674 0.950 . S
C1684 C1685 1.386 . S
C1684 C1686 1.391 . S
C1685 C1684 1.386 . S
C1685 C1689 1.393 . S
C1686 H1675 0.950 . S
C1686 C1684 1.391 . S
C1686 C1687 1.400 . S
C1687 C1681 1.491 . S
C1687 C1686 1.400 . S
C1687 C1688 1.398 . S
C1688 H1676 0.950 . S
C1688 C1687 1.398 . S
C1688 C1689 1.391 . S
C1689 H1677 0.950 . S
C1689 C1685 1.393 . S
C1689 C1688 1.391 . S
H1690 C1698 0.950 . S
H1691 C1703 0.950 . S
H1692 C1700 0.950 . S
H1693 C1702 0.950 . S
H1694 C1704 0.950 . S
H1695 C1706 0.950 . S
H1696 C1708 0.950 . S
H1697 C1709 0.950 . S
C1698 H1690 0.950 . S
C1698 C1699 1.386 . S
C1698 C1700 1.391 . S
C1699 C1698 1.386 . S
C1699 C1703 1.393 . S
C1700 H1692 0.950 . S
C1700 C1698 1.391 . S
C1700 C1701 1.400 . S
C1701 C1700 1.400 . S
C1701 C1702 1.398 . S
C1701 C1707 1.491 . S
C1702 H1693 0.950 . S
C1702 C1701 1.398 . S
C1702 C1703 1.391 . S
C1703 H1691 0.950 . S
C1703 C1699 1.393 . S
C1703 C1702 1.391 . S
C1704 H1694 0.950 . S
C1704 C1705 1.386 . S
C1704 C1706 1.391 . S
C1705 C1704 1.386 . S
C1705 C1709 1.393 . S
C1706 H1695 0.950 . S
C1706 C1704 1.391 . S
C1706 C1707 1.400 . S
C1707 C1701 1.491 . S
C1707 C1706 1.400 . S
C1707 C1708 1.398 . S
C1708 H1696 0.950 . S
C1708 C1707 1.398 . S
C1708 C1709 1.391 . S
C1709 H1697 0.950 . S
C1709 C1705 1.393 . S
C1709 C1708 1.391 . S
H1710 C1718 0.950 . S
H1711 C1723 0.950 . S
H1712 C1720 0.950 . S
H1713 C1722 0.950 . S
H1714 C1724 0.950 . S
H1715 C1726 0.950 . S
H1716 C1728 0.950 . S
H1717 C1729 0.950 . S
C1718 H1710 0.950 . S
C1718 C1719 1.386 . S
C1718 C1720 1.391 . S
C1719 C1718 1.386 . S
C1719 C1723 1.393 . S
C1720 H1712 0.950 . S
C1720 C1718 1.391 . S
C1720 C1721 1.400 . S
C1721 C1720 1.400 . S
C1721 C1722 1.398 . S
C1721 C1727 1.491 . S
C1722 H1713 0.950 . S
C1722 C1721 1.398 . S
C1722 C1723 1.391 . S
C1723 H1711 0.950 . S
C1723 C1719 1.393 . S
C1723 C1722 1.391 . S
C1724 H1714 0.950 . S
C1724 C1725 1.386 . S
C1724 C1726 1.391 . S
C1725 C1724 1.386 . S
C1725 C1729 1.393 . S
C1726 H1715 0.950 . S
C1726 C1724 1.391 . S
C1726 C1727 1.400 . S
C1727 C1721 1.491 . S
C1727 C1726 1.400 . S
C1727 C1728 1.398 . S
C1728 H1716 0.950 . S
C1728 C1727 1.398 . S
C1728 C1729 1.391 . S
C1729 H1717 0.950 . S
C1729 C1725 1.393 . S
C1729 C1728 1.391 . S
H1730 C1738 0.950 . S
H1731 C1743 0.950 . S
H1732 C1740 0.950 . S
H1733 C1742 0.950 . S
H1734 C1744 0.950 . S
H1735 C1746 0.950 . S
H1736 C1748 0.950 . S
H1737 C1749 0.950 . S
C1738 H1730 0.950 . S
C1738 C1739 1.386 . S
C1738 C1740 1.391 . S
C1739 C1738 1.386 . S
C1739 C1743 1.393 . S
C1740 H1732 0.950 . S
C1740 C1738 1.391 . S
C1740 C1741 1.400 . S
C1741 C1740 1.400 . S
C1741 C1742 1.398 . S
C1741 C1747 1.491 . S
C1742 H1733 0.950 . S
C1742 C1741 1.398 . S
C1742 C1743 1.391 . S
C1743 H1731 0.950 . S
C1743 C1739 1.393 . S
C1743 C1742 1.391 . S
C1744 H1734 0.950 . S
C1744 C1745 1.386 . S
C1744 C1746 1.391 . S
C1745 C1744 1.386 . S
C1745 C1749 1.393 . S
C1746 H1735 0.950 . S
C1746 C1744 1.391 . S
C1746 C1747 1.400 . S
C1747 C1741 1.491 . S
C1747 C1746 1.400 . S
C1747 C1748 1.398 . S
C1748 H1736 0.950 . S
C1748 C1747 1.398 . S
C1748 C1749 1.391 . S
C1749 H1737 0.950 . S
C1749 C1745 1.393 . S
C1749 C1748 1.391 . S
H1750 C1758 0.950 . S
H1751 C1763 0.950 . S
H1752 C1760 0.950 . S
H1753 C1762 0.950 . S
H1754 C1764 0.950 . S
H1755 C1766 0.950 . S
H1756 C1768 0.950 . S
H1757 C1769 0.950 . S
C1758 H1750 0.950 . S
C1758 C1759 1.386 . S
C1758 C1760 1.391 . S
C1759 C1758 1.386 . S
C1759 C1763 1.393 . S
C1760 H1752 0.950 . S
C1760 C1758 1.391 . S
C1760 C1761 1.400 . S
C1761 C1760 1.400 . S
C1761 C1762 1.398 . S
C1761 C1767 1.491 . S
C1762 H1753 0.950 . S
C1762 C1761 1.398 . S
C1762 C1763 1.391 . S
C1763 H1751 0.950 . S
C1763 C1759 1.393 . S
C1763 C1762 1.391 . S
C1764 H1754 0.950 . S
C1764 C1765 1.386 . S
C1764 C1766 1.391 . S
C1765 C1764 1.386 . S
C1765 C1769 1.393 . S
C1766 H1755 0.950 . S
C1766 C1764 1.391 . S
C1766 C1767 1.400 . S
C1767 C1761 1.491 . S
C1767 C1766 1.400 . S
C1767 C1768 1.398 . S
C1768 H1756 0.950 . S
C1768 C1767 1.398 . S
C1768 C1769 1.391 . S
C1769 H1757 0.950 . S
C1769 C1765 1.393 . S
C1769 C1768 1.391 . S
H1770 C1778 0.950 . S
H1771 C1783 0.950 . S
H1772 C1780 0.950 . S
H1773 C1782 0.950 . S
H1774 C1784 0.950 . S
H1775 C1786 0.950 . S
H1776 C1788 0.950 . S
H1777 C1789 0.950 . S
C1778 H1770 0.950 . S
C1778 C1779 1.386 . S
C1778 C1780 1.391 . S
C1779 C1778 1.386 . S
C1779 C1783 1.393 . S
C1780 H1772 0.950 . S
C1780 C1778 1.391 . S
C1780 C1781 1.400 . S
C1781 C1780 1.400 . S
C1781 C1782 1.398 . S
C1781 C1787 1.491 . S
C1782 H1773 0.950 . S
C1782 C1781 1.398 . S
C1782 C1783 1.391 . S
C1783 H1771 0.950 . S
C1783 C1779 1.393 . S
C1783 C1782 1.391 . S
C1784 H1774 0.950 . S
C1784 C1785 1.386 . S
C1784 C1786 1.391 . S
C1785 C1784 1.386 . S
C1785 C1789 1.393 . S
C1786 H1775 0.950 . S
C1786 C1784 1.391 . S
C1786 C1787 1.400 . S
C1787 C1781 1.491 . S
C1787 C1786 1.400 . S
C1787 C1788 1.398 . S
C1788 H1776 0.950 . S
C1788 C1787 1.398 . S
C1788 C1789 1.391 . S
C1789 H1777 0.950 . S
C1789 C1785 1.393 . S
C1789 C1788 1.391 . S
H1790 C1798 0.950 . S
H1791 C1803 0.950 . S
H1792 C1800 0.950 . S
H1793 C1802 0.950 . S
H1794 C1804 0.950 . S
H1795 C1806 0.950 . S
H1796 C1808 0.950 . S
H1797 C1809 0.950 . S
C1798 H1790 0.950 . S
C1798 C1799 1.386 . S
C1798 C1800 1.391 . S
C1799 C1798 1.386 . S
C1799 C1803 1.393 . S
C1800 H1792 0.950 . S
C1800 C1798 1.391 . S
C1800 C1801 1.400 . S
C1801 C1800 1.400 . S
C1801 C1802 1.398 . S
C1801 C1807 1.491 . S
C1802 H1793 0.950 . S
C1802 C1801 1.398 . S
C1802 C1803 1.391 . S
C1803 H1791 0.950 . S
C1803 C1799 1.393 . S
C1803 C1802 1.391 . S
C1804 H1794 0.950 . S
C1804 C1805 1.386 . S
C1804 C1806 1.391 . S
C1805 C1804 1.386 . S
C1805 C1809 1.393 . S
C1806 H1795 0.950 . S
C1806 C1804 1.391 . S
C1806 C1807 1.400 . S
C1807 C1801 1.491 . S
C1807 C1806 1.400 . S
C1807 C1808 1.398 . S
C1808 H1796 0.950 . S
C1808 C1807 1.398 . S
C1808 C1809 1.391 . S
C1809 H1797 0.950 . S
C1809 C1805 1.393 . S
C1809 C1808 1.391 . S
H1810 C1818 0.950 . S
H1811 C1823 0.950 . S
H1812 C1820 0.950 . S
H1813 C1822 0.950 . S
H1814 C1824 0.950 . S
H1815 C1826 0.950 . S
H1816 C1828 0.950 . S
H1817 C1829 0.950 . S
C1818 H1810 0.950 . S
C1818 C1819 1.386 . S
C1818 C1820 1.391 . S
C1819 C1818 1.386 . S
C1819 C1823 1.393 . S
C1820 H1812 0.950 . S
C1820 C1818 1.391 . S
C1820 C1821 1.400 . S
C1821 C1820 1.400 . S
C1821 C1822 1.398 . S
C1821 C1827 1.491 . S
C1822 H1813 0.950 . S
C1822 C1821 1.398 . S
C1822 C1823 1.391 . S
C1823 H1811 0.950 . S
C1823 C1819 1.393 . S
C1823 C1822 1.391 . S
C1824 H1814 0.950 . S
C1824 C1825 1.386 . S
C1824 C1826 1.391 . S
C1825 C1824 1.386 . S
C1825 C1829 1.393 . S
C1826 H1815 0.950 . S
C1826 C1824 1.391 . S
C1826 C1827 1.400 . S
C1827 C1821 1.491 . S
C1827 C1826 1.400 . S
C1827 C1828 1.398 . S
C1828 H1816 0.950 . S
C1828 C1827 1.398 . S
C1828 C1829 1.391 . S
C1829 H1817 0.950 . S
C1829 C1825 1.393 . S
C1829 C1828 1.391 . S
H1830 C1838 0.950 . S
H1831 C1843 0.950 . S
H1832 C1840 0.950 . S
H1833 C1842 0.950 . S
H1834 C1844 0.950 . S
H1835 C1846 0.950 . S
H1836 C1848 0.950 . S
H1837 C1849 0.950 . S
C1838 H1830 0.950 . S
C1838 C1839 1.386 . S
C1838 C1840 1.391 . S
C1839 C1838 1.386 . S
C1839 C1843 1.393 . S
C1840 H1832 0.950 . S
C1840 C1838 1.391 . S
C1840 C1841 1.400 . S
C1841 C1840 1.400 . S
C1841 C1842 1.398 . S
C1841 C1847 1.491 . S
C1842 H1833 0.950 . S
C1842 C1841 1.398 . S
C1842 C1843 1.391 . S
C1843 H1831 0.950 . S
C1843 C1839 1.393 . S
C1843 C1842 1.391 . S
C1844 H1834 0.950 . S
C1844 C1845 1.386 . S
C1844 C1846 1.391 . S
C1845 C1844 1.386 . S
C1845 C1849 1.393 . S
C1846 H1835 0.950 . S
C1846 C1844 1.391 . S
C1846 C1847 1.400 . S
C1847 C1841 1.491 . S
C1847 C1846 1.400 . S
C1847 C1848 1.398 . S
C1848 H1836 0.950 . S
C1848 C1847 1.398 . S
C1848 C1849 1.391 . S
C1849 H1837 0.950 . S
C1849 C1845 1.393 . S
C1849 C1848 1.391 . S
H1850 C1858 0.950 . S
H1851 C1863 0.950 . S
H1852 C1860 0.950 . S
H1853 C1862 0.950 . S
H1854 C1864 0.950 . S
H1855 C1866 0.950 . S
H1856 C1868 0.950 . S
H1857 C1869 0.950 . S
C1858 H1850 0.950 . S
C1858 C1859 1.386 . S
C1858 C1860 1.391 . S
C1859 C1858 1.386 . S
C1859 C1863 1.393 . S
C1860 H1852 0.950 . S
C1860 C1858 1.391 . S
C1860 C1861 1.400 . S
C1861 C1860 1.400 . S
C1861 C1862 1.398 . S
C1861 C1867 1.491 . S
C1862 H1853 0.950 . S
C1862 C1861 1.398 . S
C1862 C1863 1.391 . S
C1863 H1851 0.950 . S
C1863 C1859 1.393 . S
C1863 C1862 1.391 . S
C1864 H1854 0.950 . S
C1864 C1865 1.386 . S
C1864 C1866 1.391 . S
C1865 C1864 1.386 . S
C1865 C1869 1.393 . S
C1866 H1855 0.950 . S
C1866 C1864 1.391 . S
C1866 C1867 1.400 . S
C1867 C1861 1.491 . S
C1867 C1866 1.400 . S
C1867 C1868 1.398 . S
C1868 H1856 0.950 . S
C1868 C1867 1.398 . S
C1868 C1869 1.391 . S
C1869 H1857 0.950 . S
C1869 C1865 1.393 . S
C1869 C1868 1.391 . S
H1870 C1878 0.950 . S
H1871 C1883 0.950 . S
H1872 C1880 0.950 . S
H1873 C1882 0.950 . S
H1874 C1884 0.950 . S
H1875 C1886 0.950 . S
H1876 C1888 0.950 . S
H1877 C1889 0.950 . S
C1878 H1870 0.950 . S
C1878 C1879 1.386 . S
C1878 C1880 1.391 . S
C1879 C1878 1.386 . S
C1879 C1883 1.393 . S
C1880 H1872 0.950 . S
C1880 C1878 1.391 . S
C1880 C1881 1.400 . S
C1881 C1880 1.400 . S
C1881 C1882 1.398 . S
C1881 C1887 1.491 . S
C1882 H1873 0.950 . S
C1882 C1881 1.398 . S
C1882 C1883 1.391 . S
C1883 H1871 0.950 . S
C1883 C1879 1.393 . S
C1883 C1882 1.391 . S
C1884 H1874 0.950 . S
C1884 C1885 1.386 . S
C1884 C1886 1.391 . S
C1885 C1884 1.386 . S
C1885 C1889 1.393 . S
C1886 H1875 0.950 . S
C1886 C1884 1.391 . S
C1886 C1887 1.400 . S
C1887 C1881 1.491 . S
C1887 C1886 1.400 . S
C1887 C1888 1.398 . S
C1888 H1876 0.950 . S
C1888 C1887 1.398 . S
C1888 C1889 1.391 . S
C1889 H1877 0.950 . S
C1889 C1885 1.393 . S
C1889 C1888 1.391 . S
H1890 C1898 0.950 . S
H1891 C1903 0.950 . S
H1892 C1900 0.950 . S
H1893 C1902 0.950 . S
H1894 C1904 0.950 . S
H1895 C1906 0.950 . S
H1896 C1908 0.950 . S
H1897 C1909 0.950 . S
C1898 H1890 0.950 . S
C1898 C1899 1.386 . S
C1898 C1900 1.391 . S
C1899 C1898 1.386 . S
C1899 C1903 1.393 . S
C1900 H1892 0.950 . S
C1900 C1898 1.391 . S
C1900 C1901 1.400 . S
C1901 C1900 1.400 . S
C1901 C1902 1.398 . S
C1901 C1907 1.491 . S
C1902 H1893 0.950 . S
C1902 C1901 1.398 . S
C1902 C1903 1.391 . S
C1903 H1891 0.950 . S
C1903 C1899 1.393 . S
C1903 C1902 1.391 . S
C1904 H1894 0.950 . S
C1904 C1905 1.386 . S
C1904 C1906 1.391 . S
C1905 C1904 1.386 . S
C1905 C1909 1.393 . S
C1906 H1895 0.950 . S
C1906 C1904 1.391 . S
C1906 C1907 1.400 . S
C1907 C1901 1.491 . S
C1907 C1906 1.400 . S
C1907 C1908 1.398 . S
C1908 H1896 0.950 . S
C1908 C1907 1.398 . S
C1908 C1909 1.391 . S
C1909 H1897 0.950 . S
C1909 C1905 1.393 . S
C1909 C1908 1.391 . S
H1910 C1918 0.950 . S
H1911 C1923 0.950 . S
H1912 C1920 0.950 . S
H1913 C1922 0.950 . S
H1914 C1924 0.950 . S
H1915 C1926 0.950 . S
H1916 C1928 0.950 . S
H1917 C1929 0.950 . S
C1918 H1910 0.950 . S
C1918 C1919 1.386 . S
C1918 C1920 1.391 . S
C1919 C1918 1.386 . S
C1919 C1923 1.393 . S
C1920 H1912 0.950 . S
C1920 C1918 1.391 . S
C1920 C1921 1.400 . S
C1921 C1920 1.400 . S
C1921 C1922 1.398 . S
C1921 C1927 1.491 . S
C1922 H1913 0.950 . S
C1922 C1921 1.398 . S
C1922 C1923 1.391 . S
C1923 H1911 0.950 . S
C1923 C1919 1.393 . S
C1923 C1922 1.391 . S
C1924 H1914 0.950 . S
C1924 C1925 1.386 . S
C1924 C1926 1.391 . S
C1925 C1924 1.386 . S
C1925 C1929 1.393 . S
C1926 H1915 0.950 . S
C1926 C1924 1.391 . S
C1926 C1927 1.400 . S
C1927 C1921 1.491 . S
C1927 C1926 1.400 . S
C1927 C1928 1.398 . S
C1928 H1916 0.950 . S
C1928 C1927 1.398 . S
C1928 C1929 1.391 . S
C1929 H1917 0.950 . S
C1929 C1925 1.393 . S
C1929 C1928 1.391 . S
H1930 C1938 0.950 . S
H1931 C1943 0.950 . S
H1932 C1940 0.950 . S
H1933 C1942 0.950 . S
H1934 C1944 0.950 . S
H1935 C1946 0.950 . S
H1936 C1948 0.950 . S
H1937 C1949 0.950 . S
C1938 H1930 0.950 . S
C1938 C1939 1.386 . S
C1938 C1940 1.391 . S
C1939 C1938 1.386 . S
C1939 C1943 1.393 . S
C1940 H1932 0.950 . S
C1940 C1938 1.391 . S
C1940 C1941 1.400 . S
C1941 C1940 1.400 . S
C1941 C1942 1.398 . S
C1941 C1947 1.491 . S
C1942 H1933 0.950 . S
C1942 C1941 1.398 . S
C1942 C1943 1.391 . S
C1943 H1931 0.950 . S
C1943 C1939 1.393 . S
C1943 C1942 1.391 . S
C1944 H1934 0.950 . S
C1944 C1945 1.386 . S
C1944 C1946 1.391 . S
C1945 C1944 1.386 . S
C1945 C1949 1.393 . S
C1946 H1935 0.950 . S
C1946 C1944 1.391 . S
C1946 C1947 1.400 . S
C1947 C1941 1.491 . S
C1947 C1946 1.400 . S
C1947 C1948 1.398 . S
C1948 H1936 0.950 . S
C1948 C1947 1.398 . S
C1948 C1949 1.391 . S
C1949 H1937 0.950 . S
C1949 C1945 1.393 . S
C1949 C1948 1.391 . S
H1950 C1958 0.950 . S
H1951 C1963 0.950 . S
H1952 C1960 0.950 . S
H1953 C1962 0.950 . S
H1954 C1964 0.950 . S
H1955 C1966 0.950 . S
H1956 C1968 0.950 . S
H1957 C1969 0.950 . S
C1958 H1950 0.950 . S
C1958 C1959 1.386 . S
C1958 C1960 1.391 . S
C1959 C1958 1.386 . S
C1959 C1963 1.393 . S
C1960 H1952 0.950 . S
C1960 C1958 1.391 . S
C1960 C1961 1.400 . S
C1961 C1960 1.400 . S
C1961 C1962 1.398 . S
C1961 C1967 1.491 . S
C1962 H1953 0.950 . S
C1962 C1961 1.398 . S
C1962 C1963 1.391 . S
C1963 H1951 0.950 . S
C1963 C1959 1.393 . S
C1963 C1962 1.391 . S
C1964 H1954 0.950 . S
C1964 C1965 1.386 . S
C1964 C1966 1.391 . S
C1965 C1964 1.386 . S
C1965 C1969 1.393 . S
C1966 H1955 0.950 . S
C1966 C1964 1.391 . S
C1966 C1967 1.400 . S
C1967 C1961 1.491 . S
C1967 C1966 1.400 . S
C1967 C1968 1.398 . S
C1968 H1956 0.950 . S
C1968 C1967 1.398 . S
C1968 C1969 1.391 . S
C1969 H1957 0.950 . S
C1969 C1965 1.393 . S
C1969 C1968 1.391 . S
H1970 C1978 0.950 . S
H1971 C1983 0.950 . S
H1972 C1980 0.950 . S
H1973 C1982 0.950 . S
H1974 C1984 0.950 . S
H1975 C1986 0.950 . S
H1976 C1988 0.950 . S
H1977 C1989 0.950 . S
C1978 H1970 0.950 . S
C1978 C1979 1.386 . S
C1978 C1980 1.391 . S
C1979 C1978 1.386 . S
C1979 C1983 1.393 . S
C1980 H1972 0.950 . S
C1980 C1978 1.391 . S
C1980 C1981 1.400 . S
C1981 C1980 1.400 . S
C1981 C1982 1.398 . S
C1981 C1987 1.491 . S
C1982 H1973 0.950 . S
C1982 C1981 1.398 . S
C1982 C1983 1.391 . S
C1983 H1971 0.950 . S
C1983 C1979 1.393 . S
C1983 C1982 1.391 . S
C1984 H1974 0.950 . S
C1984 C1985 1.386 . S
C1984 C1986 1.391 . S
C1985 C1984 1.386 . S
C1985 C1989 1.393 . S
C1986 H1975 0.950 . S
C1986 C1984 1.391 . S
C1986 C1987 1.400 . S
C1987 C1981 1.491 . S
C1987 C1986 1.400 . S
C1987 C1988 1.398 . S
C1988 H1976 0.950 . S
C1988 C1987 1.398 . S
C1988 C1989 1.391 . S
C1989 H1977 0.950 . S
C1989 C1985 1.393 . S
C1989 C1988 1.391 . S
H1990 C1998 0.950 . S
H1991 C2003 0.950 . S
H1992 C2000 0.950 . S
H1993 C2002 0.950 . S
H1994 C2004 0.950 . S
H1995 C2006 0.950 . S
H1996 C2008 0.950 . S
H1997 C2009 0.950 . S
C1998 H1990 0.950 . S
C1998 C1999 1.386 . S
C1998 C2000 1.391 . S
C1999 C1998 1.386 . S
C1999 C2003 1.393 . S
C2000 H1992 0.950 . S
C2000 C1998 1.391 . S
C2000 C2001 1.400 . S
C2001 C2000 1.400 . S
C2001 C2002 1.398 . S
C2001 C2007 1.491 . S
C2002 H1993 0.950 . S
C2002 C2001 1.398 . S
C2002 C2003 1.391 . S
C2003 H1991 0.950 . S
C2003 C1999 1.393 . S
C2003 C2002 1.391 . S
C2004 H1994 0.950 . S
C2004 C2005 1.386 . S
C2004 C2006 1.391 . S
C2005 C2004 1.386 . S
C2005 C2009 1.393 . S
C2006 H1995 0.950 . S
C2006 C2004 1.391 . S
C2006 C2007 1.400 . S
C2007 C2001 1.491 . S
C2007 C2006 1.400 . S
C2007 C2008 1.398 . S
C2008 H1996 0.950 . S
C2008 C2007 1.398 . S
C2008 C2009 1.391 . S
C2009 H1997 0.950 . S
C2009 C2005 1.393 . S
C2009 C2008 1.391 . S
H2010 C2018 0.950 . S
H2011 C2023 0.950 . S
H2012 C2020 0.950 . S
H2013 C2022 0.950 . S
H2014 C2024 0.950 . S
H2015 C2026 0.950 . S
H2016 C2028 0.950 . S
H2017 C2029 0.950 . S
C2018 H2010 0.950 . S
C2018 C2019 1.386 . S
C2018 C2020 1.391 . S
C2019 C2018 1.386 . S
C2019 C2023 1.393 . S
C2020 H2012 0.950 . S
C2020 C2018 1.391 . S
C2020 C2021 1.400 . S
C2021 C2020 1.400 . S
C2021 C2022 1.398 . S
C2021 C2027 1.491 . S
C2022 H2013 0.950 . S
C2022 C2021 1.398 . S
C2022 C2023 1.391 . S
C2023 H2011 0.950 . S
C2023 C2019 1.393 . S
C2023 C2022 1.391 . S
C2024 H2014 0.950 . S
C2024 C2025 1.386 . S
C2024 C2026 1.391 . S
C2025 C2024 1.386 . S
C2025 C2029 1.393 . S
C2026 H2015 0.950 . S
C2026 C2024 1.391 . S
C2026 C2027 1.400 . S
C2027 C2021 1.491 . S
C2027 C2026 1.400 . S
C2027 C2028 1.398 . S
C2028 H2016 0.950 . S
C2028 C2027 1.398 . S
C2028 C2029 1.391 . S
C2029 H2017 0.950 . S
C2029 C2025 1.393 . S
C2029 C2028 1.391 . S
H2030 C2038 0.950 . S
H2031 C2043 0.950 . S
H2032 C2040 0.950 . S
H2033 C2042 0.950 . S
H2034 C2044 0.950 . S
H2035 C2046 0.950 . S
H2036 C2048 0.950 . S
H2037 C2049 0.950 . S
C2038 H2030 0.950 . S
C2038 C2039 1.386 . S
C2038 C2040 1.391 . S
C2039 C2038 1.386 . S
C2039 C2043 1.393 . S
C2040 H2032 0.950 . S
C2040 C2038 1.391 . S
C2040 C2041 1.400 . S
C2041 C2040 1.400 . S
C2041 C2042 1.398 . S
C2041 C2047 1.491 . S
C2042 H2033 0.950 . S
C2042 C2041 1.398 . S
C2042 C2043 1.391 . S
C2043 H2031 0.950 . S
C2043 C2039 1.393 . S
C2043 C2042 1.391 . S
C2044 H2034 0.950 . S
C2044 C2045 1.386 . S
C2044 C2046 1.391 . S
C2045 C2044 1.386 . S
C2045 C2049 1.393 . S
C2046 H2035 0.950 . S
C2046 C2044 1.391 . S
C2046 C2047 1.400 . S
C2047 C2041 1.491 . S
C2047 C2046 1.400 . S
C2047 C2048 1.398 . S
C2048 H2036 0.950 . S
C2048 C2047 1.398 . S
C2048 C2049 1.391 . S
C2049 H2037 0.950 . S
C2049 C2045 1.393 . S
C2049 C2048 1.391 . S
H2050 C2058 0.950 . S
H2051 C2063 0.950 . S
H2052 C2060 0.950 . S
H2053 C2062 0.950 . S
H2054 C2064 0.950 . S
H2055 C2066 0.950 . S
H2056 C2068 0.950 . S
H2057 C2069 0.950 . S
C2058 H2050 0.950 . S
C2058 C2059 1.386 . S
C2058 C2060 1.391 . S
C2059 C2058 1.386 . S
C2059 C2063 1.393 . S
C2060 H2052 0.950 . S
C2060 C2058 1.391 . S
C2060 C2061 1.400 . S
C2061 C2060 1.400 . S
C2061 C2062 1.398 . S
C2061 C2067 1.491 . S
C2062 H2053 0.950 . S
C2062 C2061 1.398 . S
C2062 C2063 1.391 . S
C2063 H2051 0.950 . S
C2063 C2059 1.393 . S
C2063 C2062 1.391 . S
C2064 H2054 0.950 . S
C2064 C2065 1.386 . S
C2064 C2066 1.391 . S
C2065 C2064 1.386 . S
C2065 C2069 1.393 . S
C2066 H2055 0.950 . S
C2066 C2064 1.391 . S
C2066 C2067 1.400 . S
C2067 C2061 1.491 . S
C2067 C2066 1.400 . S
C2067 C2068 1.398 . S
C2068 H2056 0.950 . S
C2068 C2067 1.398 . S
C2068 C2069 1.391 . S
C2069 H2057 0.950 . S
C2069 C2065 1.393 . S
C2069 C2068 1.391 . S
H2070 C2078 0.950 . S
H2071 C2083 0.950 . S
H2072 C2080 0.950 . S
H2073 C2082 0.950 . S
H2074 C2084 0.950 . S
H2075 C2086 0.950 . S
H2076 C2088 0.950 . S
H2077 C2089 0.950 . S
C2078 H2070 0.950 . S
C2078 C2079 1.386 . S
C2078 C2080 1.391 . S
C2079 C2078 1.386 . S
C2079 C2083 1.393 . S
C2080 H2072 0.950 . S
C2080 C2078 1.391 . S
C2080 C2081 1.400 . S
C2081 C2080 1.400 . S
C2081 C2082 1.398 . S
C2081 C2087 1.491 . S
C2082 H2073 0.950 . S
C2082 C2081 1.398 . S
C2082 C2083 1.391 . S
C2083 H2071 0.950 . S
C2083 C2079 1.393 . S
C2083 C2082 1.391 . S
C2084 H2074 0.950 . S
C2084 C2085 1.386 . S
C2084 C2086 1.391 . S
C2085 C2084 1.386 . S
C2085 C2089 1.393 . S
C2086 H2075 0.950 . S
C2086 C2084 1.391 . S
C2086 C2087 1.400 . S
C2087 C2081 1.491 . S
C2087 C2086 1.400 . S
C2087 C2088 1.398 . S
C2088 H2076 0.950 . S
C2088 C2087 1.398 . S
C2088 C2089 1.391 . S
C2089 H2077 0.950 . S
C2089 C2085 1.393 . S
C2089 C2088 1.391 . S
H2090 C2098 0.950 . S
H2091 C2103 0.950 . S
H2092 C2100 0.950 . S
H2093 C2102 0.950 . S
H2094 C2104 0.950 . S
H2095 C2106 0.950 . S
H2096 C2108 0.950 . S
H2097 C2109 0.950 . S
C2098 H2090 0.950 . S
C2098 C2099 1.386 . S
C2098 C2100 1.391 . S
C2099 C2098 1.386 . S
C2099 C2103 1.393 . S
C2100 H2092 0.950 . S
C2100 C2098 1.391 . S
C2100 C2101 1.400 . S
C2101 C2100 1.400 . S
C2101 C2102 1.398 . S
C2101 C2107 1.491 . S
C2102 H2093 0.950 . S
C2102 C2101 1.398 . S
C2102 C2103 1.391 . S
C2103 H2091 0.950 . S
C2103 C2099 1.393 . S
C2103 C2102 1.391 . S
C2104 H2094 0.950 . S
C2104 C2105 1.386 . S
C2104 C2106 1.391 . S
C2105 C2104 1.386 . S
C2105 C2109 1.393 . S
C2106 H2095 0.950 . S
C2106 C2104 1.391 . S
C2106 C2107 1.400 . S
C2107 C2101 1.491 . S
C2107 C2106 1.400 . S
C2107 C2108 1.398 . S
C2108 H2096 0.950 . S
C2108 C2107 1.398 . S
C2108 C2109 1.391 . S
C2109 H2097 0.950 . S
C2109 C2105 1.393 . S
C2109 C2108 1.391 . S
H2110 C2118 0.950 . S
H2111 C2123 0.950 . S
H2112 C2120 0.950 . S
H2113 C2122 0.950 . S
H2114 C2124 0.950 . S
H2115 C2126 0.950 . S
H2116 C2128 0.950 . S
H2117 C2129 0.950 . S
C2118 H2110 0.950 . S
C2118 C2119 1.386 . S
C2118 C2120 1.391 . S
C2119 C2118 1.386 . S
C2119 C2123 1.393 . S
C2120 H2112 0.950 . S
C2120 C2118 1.391 . S
C2120 C2121 1.400 . S
C2121 C2120 1.400 . S
C2121 C2122 1.398 . S
C2121 C2127 1.491 . S
C2122 H2113 0.950 . S
C2122 C2121 1.398 . S
C2122 C2123 1.391 . S
C2123 H2111 0.950 . S
C2123 C2119 1.393 . S
C2123 C2122 1.391 . S
C2124 H2114 0.950 . S
C2124 C2125 1.386 . S
C2124 C2126 1.391 . S
C2125 C2124 1.386 . S
C2125 C2129 1.393 . S
C2126 H2115 0.950 . S
C2126 C2124 1.391 . S
C2126 C2127 1.400 . S
C2127 C2121 1.491 . S
C2127 C2126 1.400 . S
C2127 C2128 1.398 . S
C2128 H2116 0.950 . S
C2128 C2127 1.398 . S
C2128 C2129 1.391 . S
C2129 H2117 0.950 . S
C2129 C2125 1.393 . S
C2129 C2128 1.391 . S
H2130 C2138 0.950 . S
H2131 C2143 0.950 . S
H2132 C2140 0.950 . S
H2133 C2142 0.950 . S
H2134 C2144 0.950 . S
H2135 C2146 0.950 . S
H2136 C2148 0.950 . S
H2137 C2149 0.950 . S
C2138 H2130 0.950 . S
C2138 C2139 1.386 1_554 S
C2138 C2140 1.391 . S
C2139 C2138 1.386 1_556 S
C2139 C2143 1.393 . S
C2140 H2132 0.950 . S
C2140 C2138 1.391 . S
C2140 C2141 1.400 1_554 S
C2141 C2140 1.400 1_556 S
C2141 C2142 1.398 . S
C2141 C2147 1.491 . S
C2142 H2133 0.950 . S
C2142 C2141 1.398 . S
C2142 C2143 1.391 . S
C2143 H2131 0.950 . S
C2143 C2139 1.393 . S
C2143 C2142 1.391 . S
C2144 H2134 0.950 . S
C2144 C2145 1.386 . S
C2144 C2146 1.391 . S
C2145 C2144 1.386 . S
C2145 C2149 1.393 . S
C2146 H2135 0.950 . S
C2146 C2144 1.391 . S
C2146 C2147 1.400 . S
C2147 C2141 1.491 . S
C2147 C2146 1.400 . S
C2147 C2148 1.398 . S
C2148 H2136 0.950 . S
C2148 C2147 1.398 . S
C2148 C2149 1.391 . S
C2149 H2137 0.950 . S
C2149 C2145 1.393 . S
C2149 C2148 1.391 . S
H2150 C2158 0.950 . S
H2151 C2163 0.950 . S
H2152 C2160 0.950 . S
H2153 C2162 0.950 . S
H2154 C2164 0.950 . S
H2155 C2166 0.950 1_554 S
H2156 C2168 0.950 . S
H2157 C2169 0.950 . S
C2158 H2150 0.950 . S
C2158 C2159 1.386 . S
C2158 C2160 1.391 . S
C2159 C2158 1.386 . S
C2159 C2163 1.393 1_556 S
C2160 H2152 0.950 . S
C2160 C2158 1.391 . S
C2160 C2161 1.400 . S
C2161 C2160 1.400 . S
C2161 C2162 1.398 1_556 S
C2161 C2167 1.491 . S
C2162 H2153 0.950 . S
C2162 C2161 1.398 1_554 S
C2162 C2163 1.391 . S
C2163 H2151 0.950 . S
C2163 C2159 1.393 1_554 S
C2163 C2162 1.391 . S
C2164 H2154 0.950 . S
C2164 C2165 1.386 . S
C2164 C2166 1.391 . S
C2165 C2164 1.386 . S
C2165 C2169 1.393 . S
C2166 H2155 0.950 1_556 S
C2166 C2164 1.391 . S
C2166 C2167 1.400 . S
C2167 C2161 1.491 . S
C2167 C2166 1.400 . S
C2167 C2168 1.398 . S
C2168 H2156 0.950 . S
C2168 C2167 1.398 . S
C2168 C2169 1.391 . S
C2169 H2157 0.950 . S
C2169 C2165 1.393 . S
C2169 C2168 1.391 . S
H2170 C2178 0.971 . S
H2171 C2183 0.950 . S
H2172 C2180 0.950 . S
H2173 C2182 0.950 . S
H2174 C2184 0.950 . S
H2175 C2186 0.950 . S
H2176 C2188 0.950 . S
H2177 C2189 0.950 . S
C2178 H2170 0.971 . S
C2178 C2179 1.376 1_554 S
C2178 C2180 1.381 1_554 S
C2179 C2178 1.376 1_556 S
C2179 C2183 1.393 . S
C2180 H2172 0.950 . S
C2180 C2178 1.381 1_556 S
C2180 C2181 1.400 . S
C2181 C2180 1.400 . S
C2181 C2182 1.398 . S
C2181 C2187 1.491 . S
C2182 H2173 0.950 . S
C2182 C2181 1.398 . S
C2182 C2183 1.391 . S
C2183 H2171 0.950 . S
C2183 C2179 1.393 . S
C2183 C2182 1.391 . S
C2184 H2174 0.950 . S
C2184 C2185 1.386 . S
C2184 C2186 1.391 . S
C2185 C2184 1.386 . S
C2185 C2189 1.393 . S
C2186 H2175 0.950 . S
C2186 C2184 1.391 . S
C2186 C2187 1.400 . S
C2187 C2181 1.491 . S
C2187 C2186 1.400 . S
C2187 C2188 1.398 . S
C2188 H2176 0.950 . S
C2188 C2187 1.398 . S
C2188 C2189 1.391 . S
C2189 H2177 0.950 . S
C2189 C2185 1.393 . S
C2189 C2188 1.391 . S
H2190 C2198 0.950 . S
H2191 C2203 0.927 1_554 S
H2192 C2200 0.950 . S
H2193 C2202 0.950 . S
H2194 C2204 0.950 . S
H2195 C2206 0.950 . S
H2196 C2208 0.950 . S
H2197 C2209 0.950 . S
C2198 H2190 0.950 . S
C2198 C2199 1.386 . S
C2198 C2200 1.391 . S
C2199 C2198 1.386 . S
C2199 C2203 1.406 . S
C2200 H2192 0.950 . S
C2200 C2198 1.391 . S
C2200 C2201 1.400 . S
C2201 C2200 1.400 . S
C2201 C2202 1.398 . S
C2201 C2207 1.491 . S
C2202 H2193 0.950 . S
C2202 C2201 1.398 . S
C2202 C2203 1.402 . S
C2203 H2191 0.927 1_556 S
C2203 C2199 1.406 . S
C2203 C2202 1.402 . S
C2204 H2194 0.950 . S
C2204 C2205 1.386 . S
C2204 C2206 1.391 . S
C2205 C2204 1.386 . S
C2205 C2209 1.393 . S
C2206 H2195 0.950 . S
C2206 C2204 1.391 . S
C2206 C2207 1.400 . S
C2207 C2201 1.491 . S
C2207 C2206 1.400 . S
C2207 C2208 1.398 . S
C2208 H2196 0.950 . S
C2208 C2207 1.398 . S
C2208 C2209 1.391 . S
C2209 H2197 0.950 . S
C2209 C2205 1.393 . S
C2209 C2208 1.391 . S
H2210 C2218 0.979 . S
H2211 C2223 0.950 . S
H2212 C2220 0.933 1_554 S
H2213 C2222 0.950 . S
H2214 C2224 0.950 . S
H2215 C2226 0.950 . S
H2216 C2228 0.950 . S
H2217 C2229 0.950 . S
C2218 H2210 0.979 . S
C2218 C2219 1.368 1_554 S
C2218 C2220 1.381 1_554 S
C2219 C2218 1.368 1_556 S
C2219 C2223 1.393 . S
C2220 H2212 0.933 1_556 S
C2220 C2218 1.381 1_556 S
C2220 C2221 1.400 . S
C2221 C2220 1.400 . S
C2221 C2222 1.398 . S
C2221 C2227 1.491 . S
C2222 H2213 0.950 . S
C2222 C2221 1.398 . S
C2222 C2223 1.391 . S
C2223 H2211 0.950 . S
C2223 C2219 1.393 . S
C2223 C2222 1.391 . S
C2224 H2214 0.950 . S
C2224 C2225 1.386 . S
C2224 C2226 1.391 . S
C2225 C2224 1.386 . S
C2225 C2229 1.393 . S
C2226 H2215 0.950 . S
C2226 C2224 1.391 . S
C2226 C2227 1.400 . S
C2227 C2221 1.491 . S
C2227 C2226 1.400 . S
C2227 C2228 1.398 . S
C2228 H2216 0.950 . S
C2228 C2227 1.398 . S
C2228 C2229 1.391 . S
C2229 H2217 0.950 . S
C2229 C2225 1.393 . S
C2229 C2228 1.391 . S
H2230 C2238 0.950 . S
H2231 C2243 0.950 . S
H2232 C2240 0.950 . S
H2233 C2242 0.950 . S
H2234 C2244 0.950 . S
H2235 C2246 0.950 1_554 S
H2236 C2248 0.950 . S
H2237 C2249 0.950 . S
C2238 H2230 0.950 . S
C2238 C2239 1.386 . S
C2238 C2240 1.391 . S
C2239 C2238 1.386 . S
C2239 C2243 1.393 1_556 S
C2240 H2232 0.950 . S
C2240 C2238 1.391 . S
C2240 C2241 1.400 . S
C2241 C2240 1.400 . S
C2241 C2242 1.398 1_556 S
C2241 C2247 1.491 . S
C2242 H2233 0.950 . S
C2242 C2241 1.398 1_554 S
C2242 C2243 1.391 . S
C2243 H2231 0.950 . S
C2243 C2239 1.393 1_554 S
C2243 C2242 1.391 . S
C2244 H2234 0.950 . S
C2244 C2245 1.386 . S
C2244 C2246 1.391 . S
C2245 C2244 1.386 . S
C2245 C2249 1.393 . S
C2246 H2235 0.950 1_556 S
C2246 C2244 1.391 . S
C2246 C2247 1.400 . S
C2247 C2241 1.491 . S
C2247 C2246 1.400 . S
C2247 C2248 1.398 . S
C2248 H2236 0.950 . S
C2248 C2247 1.398 . S
C2248 C2249 1.391 . S
C2249 H2237 0.950 . S
C2249 C2245 1.393 . S
C2249 C2248 1.391 . S
H2250 C2258 0.950 . S
H2251 C2263 0.950 . S
H2252 C2260 0.950 . S
H2253 C2262 0.950 . S
H2254 C2264 0.950 . S
H2255 C2266 0.950 . S
H2256 C2268 0.950 . S
H2257 C2269 0.950 . S
C2258 H2250 0.950 . S
C2258 C2259 1.386 . S
C2258 C2260 1.391 . S
C2259 C2258 1.386 . S
C2259 C2263 1.393 . S
C2260 H2252 0.950 . S
C2260 C2258 1.391 . S
C2260 C2261 1.400 . S
C2261 C2260 1.400 . S
C2261 C2262 1.398 . S
C2261 C2267 1.491 . S
C2262 H2253 0.950 . S
C2262 C2261 1.398 . S
C2262 C2263 1.391 . S
C2263 H2251 0.950 . S
C2263 C2259 1.393 . S
C2263 C2262 1.391 . S
C2264 H2254 0.950 . S
C2264 C2265 1.386 . S
C2264 C2266 1.391 . S
C2265 C2264 1.386 . S
C2265 C2269 1.393 . S
C2266 H2255 0.950 . S
C2266 C2264 1.391 . S
C2266 C2267 1.400 . S
C2267 C2261 1.491 . S
C2267 C2266 1.400 . S
C2267 C2268 1.398 . S
C2268 H2256 0.950 . S
C2268 C2267 1.398 . S
C2268 C2269 1.391 . S
C2269 H2257 0.950 . S
C2269 C2265 1.393 . S
C2269 C2268 1.391 . S
H2270 C2278 0.950 1_556 S
H2271 C2283 0.950 . S
H2272 C2280 0.950 . S
H2273 C2282 0.950 . S
H2274 C2284 0.950 . S
H2275 C2286 0.950 . S
H2276 C2288 0.950 . S
H2277 C2289 0.950 . S
C2278 H2270 0.950 1_554 S
C2278 C2279 1.386 . S
C2278 C2280 1.391 . S
C2279 C2278 1.386 . S
C2279 C2283 1.393 . S
C2280 H2272 0.950 . S
C2280 C2278 1.391 . S
C2280 C2281 1.400 . S
C2281 C2280 1.400 . S
C2281 C2282 1.398 . S
C2281 C2287 1.491 . S
C2282 H2273 0.950 . S
C2282 C2281 1.398 . S
C2282 C2283 1.391 . S
C2283 H2271 0.950 . S
C2283 C2279 1.393 . S
C2283 C2282 1.391 . S
C2284 H2274 0.950 . S
C2284 C2285 1.386 . S
C2284 C2286 1.391 . S
C2285 C2284 1.386 . S
C2285 C2289 1.393 . S
C2286 H2275 0.950 . S
C2286 C2284 1.391 . S
C2286 C2287 1.400 . S
C2287 C2281 1.491 . S
C2287 C2286 1.400 . S
C2287 C2288 1.398 . S
C2288 H2276 0.950 . S
C2288 C2287 1.398 . S
C2288 C2289 1.391 . S
C2289 H2277 0.950 . S
C2289 C2285 1.393 . S
C2289 C2288 1.391 . S
H2290 C2298 0.950 . S
H2291 C2303 0.950 . S
H2292 C2300 0.950 . S
H2293 C2302 0.950 . S
H2294 C2304 0.950 . S
H2295 C2306 0.950 . S
H2296 C2308 0.950 . S
H2297 C2309 0.950 . S
C2298 H2290 0.950 . S
C2298 C2299 1.386 . S
C2298 C2300 1.391 . S
C2299 C2298 1.386 . S
C2299 C2303 1.393 . S
C2300 H2292 0.950 . S
C2300 C2298 1.391 . S
C2300 C2301 1.400 . S
C2301 C2300 1.400 . S
C2301 C2302 1.398 . S
C2301 C2307 1.491 . S
C2302 H2293 0.950 . S
C2302 C2301 1.398 . S
C2302 C2303 1.391 . S
C2303 H2291 0.950 . S
C2303 C2299 1.393 . S
C2303 C2302 1.391 . S
C2304 H2294 0.950 . S
C2304 C2305 1.386 . S
C2304 C2306 1.391 . S
C2305 C2304 1.386 . S
C2305 C2309 1.393 . S
C2306 H2295 0.950 . S
C2306 C2304 1.391 . S
C2306 C2307 1.400 . S
C2307 C2301 1.491 . S
C2307 C2306 1.400 . S
C2307 C2308 1.398 . S
C2308 H2296 0.950 . S
C2308 C2307 1.398 . S
C2308 C2309 1.391 . S
C2309 H2297 0.950 . S
C2309 C2305 1.393 . S
C2309 C2308 1.391 . S
H2310 C2318 0.950 . S
H2311 C2323 0.950 . S
H2312 C2320 0.950 . S
H2313 C2322 0.950 . S
H2314 C2324 0.950 . S
H2315 C2326 0.950 . S
H2316 C2328 0.950 . S
H2317 C2329 0.950 . S
C2318 H2310 0.950 . S
C2318 C2319 1.386 . S
C2318 C2320 1.391 . S
C2319 C2318 1.386 . S
C2319 C2323 1.393 . S
C2320 H2312 0.950 . S
C2320 C2318 1.391 . S
C2320 C2321 1.400 . S
C2321 C2320 1.400 . S
C2321 C2322 1.398 . S
C2321 C2327 1.491 . S
C2322 H2313 0.950 . S
C2322 C2321 1.398 . S
C2322 C2323 1.391 . S
C2323 H2311 0.950 . S
C2323 C2319 1.393 . S
C2323 C2322 1.391 . S
C2324 H2314 0.950 . S
C2324 C2325 1.386 . S
C2324 C2326 1.391 . S
C2325 C2324 1.386 . S
C2325 C2329 1.393 . S
C2326 H2315 0.950 . S
C2326 C2324 1.391 . S
C2326 C2327 1.400 . S
C2327 C2321 1.491 . S
C2327 C2326 1.400 . S
C2327 C2328 1.398 . S
C2328 H2316 0.950 . S
C2328 C2327 1.398 . S
C2328 C2329 1.391 . S
C2329 H2317 0.950 . S
C2329 C2325 1.393 . S
C2329 C2328 1.391 . S
H2330 C2338 0.950 . S
H2331 C2343 0.950 . S
H2332 C2340 0.950 . S
H2333 C2342 0.950 . S
H2334 C2344 0.950 . S
H2335 C2346 0.950 . S
H2336 C2348 0.950 . S
H2337 C2349 0.950 . S
C2338 H2330 0.950 . S
C2338 C2339 1.386 . S
C2338 C2340 1.391 . S
C2339 C2338 1.386 . S
C2339 C2343 1.393 . S
C2340 H2332 0.950 . S
C2340 C2338 1.391 . S
C2340 C2341 1.400 . S
C2341 C2340 1.400 . S
C2341 C2342 1.398 . S
C2341 C2347 1.491 . S
C2342 H2333 0.950 . S
C2342 C2341 1.398 . S
C2342 C2343 1.391 . S
C2343 H2331 0.950 . S
C2343 C2339 1.393 . S
C2343 C2342 1.391 . S
C2344 H2334 0.950 . S
C2344 C2345 1.386 . S
C2344 C2346 1.391 . S
C2345 C2344 1.386 . S
C2345 C2349 1.393 . S
C2346 H2335 0.950 . S
C2346 C2344 1.391 . S
C2346 C2347 1.400 . S
C2347 C2341 1.491 . S
C2347 C2346 1.400 . S
C2347 C2348 1.398 . S
C2348 H2336 0.950 . S
C2348 C2347 1.398 . S
C2348 C2349 1.391 . S
C2349 H2337 0.950 . S
C2349 C2345 1.393 . S
C2349 C2348 1.391 . S
H2350 C2358 0.950 . S
H2351 C2363 0.950 . S
H2352 C2360 0.950 . S
H2353 C2362 0.950 . S
H2354 C2364 0.950 . S
H2355 C2366 0.950 . S
H2356 C2368 0.950 . S
H2357 C2369 0.950 . S
C2358 H2350 0.950 . S
C2358 C2359 1.386 . S
C2358 C2360 1.391 . S
C2359 C2358 1.386 . S
C2359 C2363 1.393 . S
C2360 H2352 0.950 . S
C2360 C2358 1.391 . S
C2360 C2361 1.400 . S
C2361 C2360 1.400 . S
C2361 C2362 1.398 . S
C2361 C2367 1.491 . S
C2362 H2353 0.950 . S
C2362 C2361 1.398 . S
C2362 C2363 1.391 . S
C2363 H2351 0.950 . S
C2363 C2359 1.393 . S
C2363 C2362 1.391 . S
C2364 H2354 0.950 . S
C2364 C2365 1.386 . S
C2364 C2366 1.391 . S
C2365 C2364 1.386 . S
C2365 C2369 1.393 . S
C2366 H2355 0.950 . S
C2366 C2364 1.391 . S
C2366 C2367 1.400 . S
C2367 C2361 1.491 . S
C2367 C2366 1.400 . S
C2367 C2368 1.398 . S
C2368 H2356 0.950 . S
C2368 C2367 1.398 . S
C2368 C2369 1.391 . S
C2369 H2357 0.950 . S
C2369 C2365 1.393 . S
C2369 C2368 1.391 . S
H2370 C2378 0.950 . S
H2371 C2383 0.950 . S
H2372 C2380 0.950 . S
H2373 C2382 0.950 . S
H2374 C2384 0.950 . S
H2375 C2386 0.950 . S
H2376 C2388 0.950 . S
H2377 C2389 0.950 1_655 S
C2378 H2370 0.950 . S
C2378 C2379 1.386 . S
C2378 C2380 1.391 . S
C2379 C2378 1.386 . S
C2379 C2383 1.393 . S
C2380 H2372 0.950 . S
C2380 C2378 1.391 . S
C2380 C2381 1.400 . S
C2381 C2380 1.400 . S
C2381 C2382 1.398 . S
C2381 C2387 1.491 . S
C2382 H2373 0.950 . S
C2382 C2381 1.398 . S
C2382 C2383 1.391 . S
C2383 H2371 0.950 . S
C2383 C2379 1.393 . S
C2383 C2382 1.391 . S
C2384 H2374 0.950 . S
C2384 C2385 1.386 . S
C2384 C2386 1.391 . S
C2385 C2384 1.386 . S
C2385 C2389 1.393 . S
C2386 H2375 0.950 . S
C2386 C2384 1.391 . S
C2386 C2387 1.400 . S
C2387 C2381 1.491 . S
C2387 C2386 1.400 . S
C2387 C2388 1.398 . S
C2388 H2376 0.950 . S
C2388 C2387 1.398 . S
C2388 C2389 1.391 . S
C2389 H2377 0.950 1_455 S
C2389 C2385 1.393 . S
C2389 C2388 1.391 . S
H2390 C2398 0.950 . S
H2391 C2403 0.950 . S
H2392 C2400 0.950 . S
H2393 C2402 0.950 . S
H2394 C2404 0.950 . S
H2395 C2406 0.950 . S
H2396 C2408 0.950 . S
H2397 C2409 0.950 . S
C2398 H2390 0.950 . S
C2398 C2399 1.386 . S
C2398 C2400 1.391 . S
C2399 C2398 1.386 . S
C2399 C2403 1.393 . S
C2400 H2392 0.950 . S
C2400 C2398 1.391 . S
C2400 C2401 1.400 . S
C2401 C2400 1.400 . S
C2401 C2402 1.398 . S
C2401 C2407 1.491 . S
C2402 H2393 0.950 . S
C2402 C2401 1.398 . S
C2402 C2403 1.391 . S
C2403 H2391 0.950 . S
C2403 C2399 1.393 . S
C2403 C2402 1.391 . S
C2404 H2394 0.950 . S
C2404 C2405 1.386 . S
C2404 C2406 1.391 . S
C2405 C2404 1.386 . S
C2405 C2409 1.393 . S
C2406 H2395 0.950 . S
C2406 C2404 1.391 . S
C2406 C2407 1.400 . S
C2407 C2401 1.491 . S
C2407 C2406 1.400 . S
C2407 C2408 1.398 . S
C2408 H2396 0.950 . S
C2408 C2407 1.398 . S
C2408 C2409 1.391 . S
C2409 H2397 0.950 . S
C2409 C2405 1.393 . S
C2409 C2408 1.391 . S
H2410 C2418 0.950 . S
H2411 C2423 0.950 . S
H2412 C2420 0.950 . S
H2413 C2422 0.950 . S
H2414 C2424 0.950 . S
H2415 C2426 0.950 . S
H2416 C2428 0.950 . S
H2417 C2429 0.950 . S
C2418 H2410 0.950 . S
C2418 C2419 1.386 . S
C2418 C2420 1.391 . S
C2419 C2418 1.386 . S
C2419 C2423 1.393 . S
C2420 H2412 0.950 . S
C2420 C2418 1.391 . S
C2420 C2421 1.400 . S
C2421 C2420 1.400 . S
C2421 C2422 1.398 . S
C2421 C2427 1.491 . S
C2422 H2413 0.950 . S
C2422 C2421 1.398 . S
C2422 C2423 1.391 . S
C2423 H2411 0.950 . S
C2423 C2419 1.393 . S
C2423 C2422 1.391 . S
C2424 H2414 0.950 . S
C2424 C2425 1.386 . S
C2424 C2426 1.391 . S
C2425 C2424 1.386 . S
C2425 C2429 1.393 . S
C2426 H2415 0.950 . S
C2426 C2424 1.391 . S
C2426 C2427 1.400 . S
C2427 C2421 1.491 . S
C2427 C2426 1.400 . S
C2427 C2428 1.398 . S
C2428 H2416 0.950 . S
C2428 C2427 1.398 . S
C2428 C2429 1.391 . S
C2429 H2417 0.950 . S
C2429 C2425 1.393 . S
C2429 C2428 1.391 . S
H2430 C2438 0.950 . S
H2431 C2443 0.950 . S
H2432 C2440 0.950 . S
H2433 C2442 0.950 . S
H2434 C2444 0.950 . S
H2435 C2446 0.950 . S
H2436 C2448 0.950 . S
H2437 C2449 0.950 . S
C2438 H2430 0.950 . S
C2438 C2439 1.386 . S
C2438 C2440 1.391 . S
C2439 C2438 1.386 . S
C2439 C2443 1.393 . S
C2440 H2432 0.950 . S
C2440 C2438 1.391 . S
C2440 C2441 1.400 . S
C2441 C2440 1.400 . S
C2441 C2442 1.398 . S
C2441 C2447 1.491 . S
C2442 H2433 0.950 . S
C2442 C2441 1.398 . S
C2442 C2443 1.391 . S
C2443 H2431 0.950 . S
C2443 C2439 1.393 . S
C2443 C2442 1.391 . S
C2444 H2434 0.950 . S
C2444 C2445 1.386 . S
C2444 C2446 1.391 . S
C2445 C2444 1.386 . S
C2445 C2449 1.393 . S
C2446 H2435 0.950 . S
C2446 C2444 1.391 . S
C2446 C2447 1.400 . S
C2447 C2441 1.491 . S
C2447 C2446 1.400 . S
C2447 C2448 1.398 . S
C2448 H2436 0.950 . S
C2448 C2447 1.398 . S
C2448 C2449 1.391 . S
C2449 H2437 0.950 . S
C2449 C2445 1.393 . S
C2449 C2448 1.391 . S
H2450 C2458 0.950 . S
H2451 C2463 0.950 . S
H2452 C2460 0.950 1_655 S
H2453 C2462 0.950 . S
H2454 C2464 0.950 . S
H2455 C2466 0.950 . S
H2456 C2468 0.950 . S
H2457 C2469 0.950 . S
C2458 H2450 0.950 . S
C2458 C2459 1.386 . S
C2458 C2460 1.391 . S
C2459 C2458 1.386 . S
C2459 C2463 1.393 . S
C2460 H2452 0.950 1_455 S
C2460 C2458 1.391 . S
C2460 C2461 1.400 . S
C2461 C2460 1.400 . S
C2461 C2462 1.398 . S
C2461 C2467 1.491 . S
C2462 H2453 0.950 . S
C2462 C2461 1.398 . S
C2462 C2463 1.391 . S
C2463 H2451 0.950 . S
C2463 C2459 1.393 . S
C2463 C2462 1.391 . S
C2464 H2454 0.950 . S
C2464 C2465 1.386 . S
C2464 C2466 1.391 . S
C2465 C2464 1.386 . S
C2465 C2469 1.393 1_455 S
C2466 H2455 0.950 . S
C2466 C2464 1.391 . S
C2466 C2467 1.400 . S
C2467 C2461 1.491 . S
C2467 C2466 1.400 . S
C2467 C2468 1.398 1_455 S
C2468 H2456 0.950 . S
C2468 C2467 1.398 1_655 S
C2468 C2469 1.391 . S
C2469 H2457 0.950 . S
C2469 C2465 1.393 1_655 S
C2469 C2468 1.391 . S
H2470 C2478 0.950 . S
H2471 C2483 0.950 . S
H2472 C2480 0.950 . S
H2473 C2482 0.950 . S
H2474 C2484 0.950 . S
H2475 C2486 0.950 . S
H2476 C2488 0.950 . S
H2477 C2489 0.950 . S
C2478 H2470 0.950 . S
C2478 C2479 1.386 . S
C2478 C2480 1.391 . S
C2479 C2478 1.386 . S
C2479 C2483 1.393 . S
C2480 H2472 0.950 . S
C2480 C2478 1.391 . S
C2480 C2481 1.400 . S
C2481 C2480 1.400 . S
C2481 C2482 1.398 . S
C2481 C2487 1.491 . S
C2482 H2473 0.950 . S
C2482 C2481 1.398 . S
C2482 C2483 1.391 . S
C2483 H2471 0.950 . S
C2483 C2479 1.393 . S
C2483 C2482 1.391 . S
C2484 H2474 0.950 . S
C2484 C2485 1.386 . S
C2484 C2486 1.391 . S
C2485 C2484 1.386 . S
C2485 C2489 1.393 . S
C2486 H2475 0.950 . S
C2486 C2484 1.391 . S
C2486 C2487 1.400 . S
C2487 C2481 1.491 . S
C2487 C2486 1.400 . S
C2487 C2488 1.398 . S
C2488 H2476 0.950 . S
C2488 C2487 1.398 . S
C2488 C2489 1.391 . S
C2489 H2477 0.950 . S
C2489 C2485 1.393 . S
C2489 C2488 1.391 . S
H2490 C2498 0.950 . S
H2491 C2503 0.950 . S
H2492 C2500 0.950 . S
H2493 C2502 0.950 . S
H2494 C2504 0.950 . S
H2495 C2506 0.950 . S
H2496 C2508 0.950 . S
H2497 C2509 0.950 . S
C2498 H2490 0.950 . S
C2498 C2499 1.386 . S
C2498 C2500 1.391 . S
C2499 C2498 1.386 . S
C2499 C2503 1.393 . S
C2500 H2492 0.950 . S
C2500 C2498 1.391 . S
C2500 C2501 1.400 . S
C2501 C2500 1.400 . S
C2501 C2502 1.398 . S
C2501 C2507 1.491 . S
C2502 H2493 0.950 . S
C2502 C2501 1.398 . S
C2502 C2503 1.391 . S
C2503 H2491 0.950 . S
C2503 C2499 1.393 . S
C2503 C2502 1.391 . S
C2504 H2494 0.950 . S
C2504 C2505 1.386 . S
C2504 C2506 1.391 . S
C2505 C2504 1.386 . S
C2505 C2509 1.393 . S
C2506 H2495 0.950 . S
C2506 C2504 1.391 . S
C2506 C2507 1.400 . S
C2507 C2501 1.491 . S
C2507 C2506 1.400 . S
C2507 C2508 1.398 . S
C2508 H2496 0.950 . S
C2508 C2507 1.398 . S
C2508 C2509 1.391 . S
C2509 H2497 0.950 . S
C2509 C2505 1.393 . S
C2509 C2508 1.391 . S
H2510 C2518 0.950 . S
H2511 C2523 0.950 . S
H2512 C2520 0.950 . S
H2513 C2522 0.950 . S
H2514 C2524 0.950 . S
H2515 C2526 0.950 . S
H2516 C2528 0.950 . S
H2517 C2529 0.950 . S
C2518 H2510 0.950 . S
C2518 C2519 1.386 . S
C2518 C2520 1.391 . S
C2519 C2518 1.386 . S
C2519 C2523 1.393 . S
C2520 H2512 0.950 . S
C2520 C2518 1.391 . S
C2520 C2521 1.400 . S
C2521 C2520 1.400 . S
C2521 C2522 1.398 . S
C2521 C2527 1.491 . S
C2522 H2513 0.950 . S
C2522 C2521 1.398 . S
C2522 C2523 1.391 . S
C2523 H2511 0.950 . S
C2523 C2519 1.393 . S
C2523 C2522 1.391 . S
C2524 H2514 0.950 . S
C2524 C2525 1.386 . S
C2524 C2526 1.391 . S
C2525 C2524 1.386 . S
C2525 C2529 1.393 . S
C2526 H2515 0.950 . S
C2526 C2524 1.391 . S
C2526 C2527 1.400 . S
C2527 C2521 1.491 . S
C2527 C2526 1.400 . S
C2527 C2528 1.398 . S
C2528 H2516 0.950 . S
C2528 C2527 1.398 . S
C2528 C2529 1.391 . S
C2529 H2517 0.950 . S
C2529 C2525 1.393 . S
C2529 C2528 1.391 . S
H2530 C2538 0.950 . S
H2531 C2543 0.950 . S
H2532 C2540 0.950 . S
H2533 C2542 0.950 . S
H2534 C2544 0.950 . S
H2535 C2546 0.950 . S
H2536 C2548 0.950 . S
H2537 C2549 0.950 . S
C2538 H2530 0.950 . S
C2538 C2539 1.386 . S
C2538 C2540 1.391 . S
C2539 C2538 1.386 . S
C2539 C2543 1.393 . S
C2540 H2532 0.950 . S
C2540 C2538 1.391 . S
C2540 C2541 1.400 . S
C2541 C2540 1.400 . S
C2541 C2542 1.398 . S
C2541 C2547 1.491 . S
C2542 H2533 0.950 . S
C2542 C2541 1.398 . S
C2542 C2543 1.391 . S
C2543 H2531 0.950 . S
C2543 C2539 1.393 . S
C2543 C2542 1.391 . S
C2544 H2534 0.950 . S
C2544 C2545 1.386 . S
C2544 C2546 1.391 . S
C2545 C2544 1.386 . S
C2545 C2549 1.393 . S
C2546 H2535 0.950 . S
C2546 C2544 1.391 . S
C2546 C2547 1.400 . S
C2547 C2541 1.491 . S
C2547 C2546 1.400 . S
C2547 C2548 1.398 . S
C2548 H2536 0.950 . S
C2548 C2547 1.398 . S
C2548 C2549 1.391 . S
C2549 H2537 0.950 . S
C2549 C2545 1.393 . S
C2549 C2548 1.391 . S
H2550 C2558 0.950 . S
H2551 C2563 0.950 . S
H2552 C2560 0.950 . S
H2553 C2562 0.950 . S
H2554 C2564 0.950 . S
H2555 C2566 0.950 . S
H2556 C2568 0.950 1_565 S
H2557 C2569 0.911 1_565 S
C2558 H2550 0.950 . S
C2558 C2559 1.386 . S
C2558 C2560 1.391 . S
C2559 C2558 1.386 . S
C2559 C2563 1.393 . S
C2560 H2552 0.950 . S
C2560 C2558 1.391 . S
C2560 C2561 1.400 . S
C2561 C2560 1.400 . S
C2561 C2562 1.398 . S
C2561 C2567 1.491 . S
C2562 H2553 0.950 . S
C2562 C2561 1.398 . S
C2562 C2563 1.391 . S
C2563 H2551 0.950 . S
C2563 C2559 1.393 . S
C2563 C2562 1.391 . S
C2564 H2554 0.950 . S
C2564 C2565 1.386 . S
C2564 C2566 1.391 . S
C2565 C2564 1.386 . S
C2565 C2569 1.401 . S
C2566 H2555 0.950 . S
C2566 C2564 1.391 . S
C2566 C2567 1.400 . S
C2567 C2561 1.491 . S
C2567 C2566 1.400 . S
C2567 C2568 1.398 . S
C2568 H2556 0.950 1_545 S
C2568 C2567 1.398 . S
C2568 C2569 1.423 . S
C2569 H2557 0.911 1_545 S
C2569 C2565 1.401 . S
C2569 C2568 1.423 . S
H2570 C2578 0.950 . S
H2571 C2583 0.950 . S
H2572 C2580 0.923 1_455 S
H2573 C2582 0.950 . S
H2574 C2584 0.950 . S
H2575 C2586 0.950 . S
H2576 C2588 0.950 1_455 S
H2577 C2589 0.950 . S
C2578 H2570 0.950 . S
C2578 C2579 1.386 . S
C2578 C2580 1.391 . S
C2579 C2578 1.386 . S
C2579 C2583 1.393 . S
C2580 H2572 0.923 1_655 S
C2580 C2578 1.391 . S
C2580 C2581 1.400 . S
C2581 C2580 1.400 . S
C2581 C2582 1.398 . S
C2581 C2587 1.491 . S
C2582 H2573 0.950 . S
C2582 C2581 1.398 . S
C2582 C2583 1.391 . S
C2583 H2571 0.950 . S
C2583 C2579 1.393 . S
C2583 C2582 1.391 . S
C2584 H2574 0.950 . S
C2584 C2585 1.386 . S
C2584 C2586 1.391 . S
C2585 C2584 1.386 . S
C2585 C2589 1.393 1_655 S
C2586 H2575 0.950 . S
C2586 C2584 1.391 . S
C2586 C2587 1.400 . S
C2587 C2581 1.491 . S
C2587 C2586 1.400 . S
C2587 C2588 1.398 . S
C2588 H2576 0.950 1_655 S
C2588 C2587 1.398 . S
C2588 C2589 1.391 1_655 S
C2589 H2577 0.950 . S
C2589 C2585 1.393 1_455 S
C2589 C2588 1.391 1_455 S
H2590 C2598 0.950 . S
H2591 C2603 0.950 . S
H2592 C2600 0.950 . S
H2593 C2602 0.950 . S
H2594 C2604 0.950 . S
H2595 C2606 0.950 . S
H2596 C2608 0.950 . S
H2597 C2609 0.950 . S
C2598 H2590 0.950 . S
C2598 C2599 1.386 . S
C2598 C2600 1.391 . S
C2599 C2598 1.386 . S
C2599 C2603 1.393 . S
C2600 H2592 0.950 . S
C2600 C2598 1.391 . S
C2600 C2601 1.400 . S
C2601 C2600 1.400 . S
C2601 C2602 1.398 . S
C2601 C2607 1.491 . S
C2602 H2593 0.950 . S
C2602 C2601 1.398 . S
C2602 C2603 1.391 . S
C2603 H2591 0.950 . S
C2603 C2599 1.393 . S
C2603 C2602 1.391 . S
C2604 H2594 0.950 . S
C2604 C2605 1.386 . S
C2604 C2606 1.391 . S
C2605 C2604 1.386 . S
C2605 C2609 1.393 . S
C2606 H2595 0.950 . S
C2606 C2604 1.391 . S
C2606 C2607 1.400 . S
C2607 C2601 1.491 . S
C2607 C2606 1.400 . S
C2607 C2608 1.398 . S
C2608 H2596 0.950 . S
C2608 C2607 1.398 . S
C2608 C2609 1.391 . S
C2609 H2597 0.950 . S
C2609 C2605 1.393 . S
C2609 C2608 1.391 . S
H2610 C2618 0.950 . S
H2611 C2623 0.950 . S
H2612 C2620 0.950 . S
H2613 C2622 0.950 . S
H2614 C2624 0.950 . S
H2615 C2626 0.950 . S
H2616 C2628 0.950 . S
H2617 C2629 0.950 . S
C2618 H2610 0.950 . S
C2618 C2619 1.386 . S
C2618 C2620 1.391 . S
C2619 C2618 1.386 . S
C2619 C2623 1.393 . S
C2620 H2612 0.950 . S
C2620 C2618 1.391 . S
C2620 C2621 1.400 . S
C2621 C2620 1.400 . S
C2621 C2622 1.398 . S
C2621 C2627 1.491 . S
C2622 H2613 0.950 . S
C2622 C2621 1.398 . S
C2622 C2623 1.391 . S
C2623 H2611 0.950 . S
C2623 C2619 1.393 . S
C2623 C2622 1.391 . S
C2624 H2614 0.950 . S
C2624 C2625 1.386 . S
C2624 C2626 1.391 . S
C2625 C2624 1.386 . S
C2625 C2629 1.393 . S
C2626 H2615 0.950 . S
C2626 C2624 1.391 . S
C2626 C2627 1.400 . S
C2627 C2621 1.491 . S
C2627 C2626 1.400 . S
C2627 C2628 1.398 . S
C2628 H2616 0.950 . S
C2628 C2627 1.398 . S
C2628 C2629 1.391 . S
C2629 H2617 0.950 . S
C2629 C2625 1.393 . S
C2629 C2628 1.391 . S
H2630 C2638 0.950 . S
H2631 C2643 0.950 . S
H2632 C2640 0.950 . S
H2633 C2642 0.950 . S
H2634 C2644 0.950 . S
H2635 C2646 0.950 . S
H2636 C2648 0.950 . S
H2637 C2649 0.950 . S
C2638 H2630 0.950 . S
C2638 C2639 1.386 . S
C2638 C2640 1.391 . S
C2639 C2638 1.386 . S
C2639 C2643 1.393 . S
C2640 H2632 0.950 . S
C2640 C2638 1.391 . S
C2640 C2641 1.400 . S
C2641 C2640 1.400 . S
C2641 C2642 1.398 . S
C2641 C2647 1.491 . S
C2642 H2633 0.950 . S
C2642 C2641 1.398 . S
C2642 C2643 1.391 . S
C2643 H2631 0.950 . S
C2643 C2639 1.393 . S
C2643 C2642 1.391 . S
C2644 H2634 0.950 . S
C2644 C2645 1.386 . S
C2644 C2646 1.391 . S
C2645 C2644 1.386 . S
C2645 C2649 1.393 . S
C2646 H2635 0.950 . S
C2646 C2644 1.391 . S
C2646 C2647 1.400 . S
C2647 C2641 1.491 . S
C2647 C2646 1.400 . S
C2647 C2648 1.398 . S
C2648 H2636 0.950 . S
C2648 C2647 1.398 . S
C2648 C2649 1.391 . S
C2649 H2637 0.950 . S
C2649 C2645 1.393 . S
C2649 C2648 1.391 . S
H2650 C2658 0.950 . S
H2651 C2663 0.950 . S
H2652 C2660 0.950 . S
H2653 C2662 0.950 . S
H2654 C2664 0.950 . S
H2655 C2666 0.950 . S
H2656 C2668 0.950 . S
H2657 C2669 0.950 . S
C2658 H2650 0.950 . S
C2658 C2659 1.386 . S
C2658 C2660 1.391 . S
C2659 C2658 1.386 . S
C2659 C2663 1.393 . S
C2660 H2652 0.950 . S
C2660 C2658 1.391 . S
C2660 C2661 1.400 . S
C2661 C2660 1.400 . S
C2661 C2662 1.398 . S
C2661 C2667 1.491 . S
C2662 H2653 0.950 . S
C2662 C2661 1.398 . S
C2662 C2663 1.391 . S
C2663 H2651 0.950 . S
C2663 C2659 1.393 . S
C2663 C2662 1.391 . S
C2664 H2654 0.950 . S
C2664 C2665 1.386 . S
C2664 C2666 1.391 . S
C2665 C2664 1.386 . S
C2665 C2669 1.393 . S
C2666 H2655 0.950 . S
C2666 C2664 1.391 . S
C2666 C2667 1.400 . S
C2667 C2661 1.491 . S
C2667 C2666 1.400 . S
C2667 C2668 1.398 . S
C2668 H2656 0.950 . S
C2668 C2667 1.398 . S
C2668 C2669 1.391 . S
C2669 H2657 0.950 . S
C2669 C2665 1.393 . S
C2669 C2668 1.391 . S
H2670 C2678 0.950 . S
H2671 C2683 0.950 . S
H2672 C2680 0.950 . S
H2673 C2682 0.950 . S
H2674 C2684 0.950 . S
H2675 C2686 0.950 . S
H2676 C2688 0.950 . S
H2677 C2689 0.950 . S
C2678 H2670 0.950 . S
C2678 C2679 1.386 . S
C2678 C2680 1.391 . S
C2679 C2678 1.386 . S
C2679 C2683 1.393 . S
C2680 H2672 0.950 . S
C2680 C2678 1.391 . S
C2680 C2681 1.400 . S
C2681 C2680 1.400 . S
C2681 C2682 1.398 . S
C2681 C2687 1.491 . S
C2682 H2673 0.950 . S
C2682 C2681 1.398 . S
C2682 C2683 1.391 . S
C2683 H2671 0.950 . S
C2683 C2679 1.393 . S
C2683 C2682 1.391 . S
C2684 H2674 0.950 . S
C2684 C2685 1.386 . S
C2684 C2686 1.391 . S
C2685 C2684 1.386 . S
C2685 C2689 1.393 . S
C2686 H2675 0.950 . S
C2686 C2684 1.391 . S
C2686 C2687 1.400 . S
C2687 C2681 1.491 . S
C2687 C2686 1.400 . S
C2687 C2688 1.398 . S
C2688 H2676 0.950 . S
C2688 C2687 1.398 . S
C2688 C2689 1.391 . S
C2689 H2677 0.950 . S
C2689 C2685 1.393 . S
C2689 C2688 1.391 . S
H2690 C2698 0.950 . S
H2691 C2703 0.950 . S
H2692 C2700 0.950 . S
H2693 C2702 0.950 . S
H2694 C2704 0.950 . S
H2695 C2706 0.950 . S
H2696 C2708 0.950 . S
H2697 C2709 0.950 . S
C2698 H2690 0.950 . S
C2698 C2699 1.386 . S
C2698 C2700 1.391 . S
C2699 C2698 1.386 . S
C2699 C2703 1.393 . S
C2700 H2692 0.950 . S
C2700 C2698 1.391 . S
C2700 C2701 1.400 . S
C2701 C2700 1.400 . S
C2701 C2702 1.398 . S
C2701 C2707 1.491 . S
C2702 H2693 0.950 . S
C2702 C2701 1.398 . S
C2702 C2703 1.391 . S
C2703 H2691 0.950 . S
C2703 C2699 1.393 . S
C2703 C2702 1.391 . S
C2704 H2694 0.950 . S
C2704 C2705 1.386 . S
C2704 C2706 1.391 . S
C2705 C2704 1.386 . S
C2705 C2709 1.393 . S
C2706 H2695 0.950 . S
C2706 C2704 1.391 . S
C2706 C2707 1.400 . S
C2707 C2701 1.491 . S
C2707 C2706 1.400 . S
C2707 C2708 1.398 . S
C2708 H2696 0.950 . S
C2708 C2707 1.398 . S
C2708 C2709 1.391 . S
C2709 H2697 0.950 . S
C2709 C2705 1.393 . S
C2709 C2708 1.391 . S
H2710 C2718 0.950 . S
H2711 C2723 0.950 . S
H2712 C2720 0.950 . S
H2713 C2722 0.950 . S
H2714 C2724 0.950 . S
H2715 C2726 0.950 . S
H2716 C2728 0.950 . S
H2717 C2729 0.950 . S
C2718 H2710 0.950 . S
C2718 C2719 1.386 . S
C2718 C2720 1.391 . S
C2719 C2718 1.386 . S
C2719 C2723 1.393 . S
C2720 H2712 0.950 . S
C2720 C2718 1.391 . S
C2720 C2721 1.400 . S
C2721 C2720 1.400 . S
C2721 C2722 1.398 . S
C2721 C2727 1.491 . S
C2722 H2713 0.950 . S
C2722 C2721 1.398 . S
C2722 C2723 1.391 . S
C2723 H2711 0.950 . S
C2723 C2719 1.393 . S
C2723 C2722 1.391 . S
C2724 H2714 0.950 . S
C2724 C2725 1.386 . S
C2724 C2726 1.391 . S
C2725 C2724 1.386 . S
C2725 C2729 1.393 . S
C2726 H2715 0.950 . S
C2726 C2724 1.391 . S
C2726 C2727 1.400 . S
C2727 C2721 1.491 . S
C2727 C2726 1.400 . S
C2727 C2728 1.398 . S
C2728 H2716 0.950 . S
C2728 C2727 1.398 . S
C2728 C2729 1.391 . S
C2729 H2717 0.950 . S
C2729 C2725 1.393 . S
C2729 C2728 1.391 . S
H2730 C2738 0.950 . S
H2731 C2743 0.950 . S
H2732 C2740 0.950 . S
H2733 C2742 0.950 . S
H2734 C2744 0.950 1_455 S
H2735 C2746 0.950 1_455 S
H2736 C2748 0.950 . S
H2737 C2749 0.950 . S
C2738 H2730 0.950 . S
C2738 C2739 1.386 . S
C2738 C2740 1.391 . S
C2739 C2738 1.386 . S
C2739 C2743 1.393 . S
C2740 H2732 0.950 . S
C2740 C2738 1.391 . S
C2740 C2741 1.400 . S
C2741 C2740 1.400 . S
C2741 C2742 1.398 . S
C2741 C2747 1.491 . S
C2742 H2733 0.950 . S
C2742 C2741 1.398 . S
C2742 C2743 1.391 . S
C2743 H2731 0.950 . S
C2743 C2739 1.393 . S
C2743 C2742 1.391 . S
C2744 H2734 0.950 1_655 S
C2744 C2745 1.386 . S
C2744 C2746 1.391 . S
C2745 C2744 1.386 . S
C2745 C2749 1.393 . S
C2746 H2735 0.950 1_655 S
C2746 C2744 1.391 . S
C2746 C2747 1.400 . S
C2747 C2741 1.491 . S
C2747 C2746 1.400 . S
C2747 C2748 1.398 . S
C2748 H2736 0.950 . S
C2748 C2747 1.398 . S
C2748 C2749 1.391 . S
C2749 H2737 0.950 . S
C2749 C2745 1.393 . S
C2749 C2748 1.391 . S
H2750 C2758 0.950 . S
H2751 C2763 0.950 . S
H2752 C2760 0.950 . S
H2753 C2762 0.950 . S
H2754 C2764 0.950 . S
H2755 C2766 0.950 . S
H2756 C2768 0.950 . S
H2757 C2769 0.950 . S
C2758 H2750 0.950 . S
C2758 C2759 1.386 . S
C2758 C2760 1.391 . S
C2759 C2758 1.386 . S
C2759 C2763 1.393 . S
C2760 H2752 0.950 . S
C2760 C2758 1.391 . S
C2760 C2761 1.400 . S
C2761 C2760 1.400 . S
C2761 C2762 1.398 . S
C2761 C2767 1.491 . S
C2762 H2753 0.950 . S
C2762 C2761 1.398 . S
C2762 C2763 1.391 . S
C2763 H2751 0.950 . S
C2763 C2759 1.393 . S
C2763 C2762 1.391 . S
C2764 H2754 0.950 . S
C2764 C2765 1.386 . S
C2764 C2766 1.391 . S
C2765 C2764 1.386 . S
C2765 C2769 1.393 . S
C2766 H2755 0.950 . S
C2766 C2764 1.391 . S
C2766 C2767 1.400 . S
C2767 C2761 1.491 . S
C2767 C2766 1.400 . S
C2767 C2768 1.398 . S
C2768 H2756 0.950 . S
C2768 C2767 1.398 . S
C2768 C2769 1.391 . S
C2769 H2757 0.950 . S
C2769 C2765 1.393 . S
C2769 C2768 1.391 . S
H2770 C2778 0.950 . S
H2771 C2783 0.950 . S
H2772 C2780 0.962 . S
H2773 C2782 0.950 . S
H2774 C2784 0.950 . S
H2775 C2786 0.950 . S
H2776 C2788 0.950 1_565 S
H2777 C2789 0.950 . S
C2778 H2770 0.950 . S
C2778 C2779 1.386 . S
C2778 C2780 1.391 . S
C2779 C2778 1.386 . S
C2779 C2783 1.393 . S
C2780 H2772 0.962 . S
C2780 C2778 1.391 . S
C2780 C2781 1.400 . S
C2781 C2780 1.400 . S
C2781 C2782 1.398 . S
C2781 C2787 1.491 . S
C2782 H2773 0.950 . S
C2782 C2781 1.398 . S
C2782 C2783 1.391 . S
C2783 H2771 0.950 . S
C2783 C2779 1.393 . S
C2783 C2782 1.391 . S
C2784 H2774 0.950 . S
C2784 C2785 1.386 . S
C2784 C2786 1.391 . S
C2785 C2784 1.386 . S
C2785 C2789 1.393 1_545 S
C2786 H2775 0.950 . S
C2786 C2784 1.391 . S
C2786 C2787 1.400 . S
C2787 C2781 1.491 . S
C2787 C2786 1.400 . S
C2787 C2788 1.398 . S
C2788 H2776 0.950 1_545 S
C2788 C2787 1.398 . S
C2788 C2789 1.391 1_545 S
C2789 H2777 0.950 . S
C2789 C2785 1.393 1_565 S
C2789 C2788 1.391 1_565 S
C1359 C8 1.545 . S
C1365 C839 1.550 . S
C1379 C18 1.534 . S
C1385 C883 1.546 . S
C1405 C963 1.552 . S
C1399 C31 1.537 . S
C1419 C34 1.566 . S
C1425 C1007 1.572 . S
C1439 C5 1.549 . S
C1445 C1087 1.536 . S
C1459 C21 1.575 . S
C1465 C1149 1.565 . S
C1479 C47 1.517 . S
C1485 C1069 1.524 . S
C1505 C1131 1.541 . S
C1499 C57 1.539 . S
C1525 C1025 1.587 . S
C1519 C70 1.569 . S
C1539 C73 1.535 . S
C1545 C945 1.546 . S
C1565 C821 1.558 . S
C1559 C44 1.572 . S
C1579 C60 1.570 . S
C1585 C901 1.579 . S
C1599 C86 1.612 . S
C1605 C1211 1.591 . S
C1619 C96 1.573 . S
C1625 C1255 1.566 . S
C1645 C1335 1.586 . S
C1639 C109 1.631 . S
C1659 C112 1.644 . S
C1665 C281 1.621 . S
C1679 C83 1.642 . S
C1685 C325 1.626 . S
C1699 C99 1.580 . S
C1705 C405 1.571 . S
C1719 C125 1.570 . S
C1725 C343 1.579 . S
C1739 C135 1.576 . S
C1745 C387 1.563 . S
C1765 C263 1.577 . S
C1759 C148 1.636 . S
C1785 C1317 1.643 . S
C1779 C151 1.681 . S
C1805 C1193 1.584 . S
C1799 C122 1.611 . S
C1825 C1273 1.610 . S
C1819 C138 1.598 . S
C1839 C164 1.592 . S
C1845 C467 1.581 . S
C1859 C174 1.565 . S
C1865 C529 1.553 . S
C1879 C187 1.633 . S
C1885 C573 1.623 . S
C1899 C190 1.677 . S
C1905 C635 1.681 . S
C1925 C697 1.618 . S
C1919 C161 1.638 . S
C1945 C777 1.593 . S
C1939 C177 1.599 . S
C1965 C715 1.625 . S
C1959 C203 1.611 . S
C1985 C759 1.544 . S
C1979 C213 1.571 . S
C1999 C226 1.632 . S
C2005 C653 1.603 . S
C2025 C591 1.652 . S
C2019 C229 1.643 . S
C2039 C200 1.627 . S
C2045 C449 1.580 . S
C2065 C511 1.575 . S
C2059 C216 1.593 . S
C2085 C287 1.355 . S
C2079 C0 1.388 . S
C2099 C23 1.401 . S
C2105 C331 1.342 . S
C2125 C411 1.337 . S
C2119 C36 1.416 . S
C2145 C473 1.368 . S
C2139 C26 1.408 1_556 S
C2165 C535 1.297 . S
C2159 C10 1.392 1_556 S
C2185 C579 1.375 . S
C2179 C13 1.377 1_556 S
C2199 C39 1.395 . S
C2205 C597 1.395 . S
C2219 C62 1.386 . S
C2225 C455 1.285 . S
C2239 C75 1.378 1_556 S
C2245 C517 1.302 . S
C2259 C65 1.436 . S
C2265 C349 1.444 . S
C2285 C393 1.289 . S
C2279 C49 1.383 . S
C2299 C52 1.384 . S
C2305 C269 1.356 . S
C2325 C641 1.357 . S
C2319 C78 1.362 . S
C2339 C101 1.444 1_545 S
C2345 C703 1.370 . S
C2359 C114 1.453 1_655 S
C2365 C783 1.376 . S
C2385 C845 1.288 . S
C2379 C104 1.318 . S
C2399 C88 1.386 . S
C2405 C889 1.320 . S
C2419 C91 1.236 . S
C2425 C969 1.215 . S
C2439 C117 1.262 . S
C2445 C951 1.232 . S
C2459 C140 1.329 . S
C2465 C827 1.271 . S
C2485 C907 1.325 . S
C2479 C153 1.398 . S
C2499 C143 1.413 . S
C2505 C721 1.385 . S
C2519 C127 1.430 1_545 S
C2525 C765 1.371 . S
C2545 C659 1.378 . S
C2539 C130 1.399 . S
C2565 C1013 1.272 . S
C2559 C156 1.308 . S
C2579 C179 1.310 . S
C2585 C1093 1.230 . S
C2599 C192 1.392 . S
C2605 C1155 1.304 . S
C2625 C1217 1.350 . S
C2619 C182 1.366 . S
C2645 C1261 1.371 . S
C2639 C166 1.451 1_565 S
C2659 C169 1.420 . S
C2665 C1341 1.370 . S
C2679 C195 1.392 . S
C2685 C1323 1.376 . S
C2699 C218 1.435 1_565 S
C2705 C1199 1.334 . S
C2725 C1279 1.375 . S
C2719 C231 1.434 1_455 S
C2745 C1075 1.271 . S
C2739 C221 1.301 . S
C2765 C1137 1.291 . S
C2759 C205 1.387 . S
C2779 C208 1.272 . S
C2785 C1031 1.274 . S
