# Generated by pormake.
# Topology anh, (6,3)-cn, num edge types: 1
# Building blocks:
#     Node 0, Type 0, BuildingBlock: PAMTOO_clean_sbu_0, # of connection points: 6
#     Node 1, Type 0, BuildingBlock: PAMTOO_clean_sbu_0, # of connection points: 6
#     Node 2, Type 0, BuildingBlock: PAMTOO_clean_sbu_0, # of connection points: 6
#     Node 3, Type 1, BuildingBlock: PAMTOO_clean_linker_0, # of connection points: 3
#     Node 4, Type 1, BuildingBlock: PAMTOO_clean_linker_0, # of connection points: 3
#     Node 5, Type 1, BuildingBlock: PAMTOO_clean_linker_0, # of connection points: 3
#     Node 6, Type 1, BuildingBlock: PAMTOO_clean_linker_0, # of connection points: 3
#     Node 7, Type 1, BuildingBlock: PAMTOO_clean_linker_0, # of connection points: 3
#     Node 8, Type 1, BuildingBlock: PAMTOO_clean_linker_0, # of connection points: 3
#     Edge 9, Type (0, 1), BuildingBlock: AJUNOK_clean_linker_0, # of connection points: 2
#     Edge 10, Type (0, 1), BuildingBlock: AJUNOK_clean_linker_0, # of connection points: 2
#     Edge 11, Type (0, 1), BuildingBlock: AJUNOK_clean_linker_0, # of connection points: 2
#     Edge 12, Type (0, 1), BuildingBlock: AJUNOK_clean_linker_0, # of connection points: 2
#     Edge 13, Type (0, 1), BuildingBlock: AJUNOK_clean_linker_0, # of connection points: 2
#     Edge 14, Type (0, 1), BuildingBlock: AJUNOK_clean_linker_0, # of connection points: 2
#     Edge 15, Type (0, 1), BuildingBlock: AJUNOK_clean_linker_0, # of connection points: 2
#     Edge 16, Type (0, 1), BuildingBlock: AJUNOK_clean_linker_0, # of connection points: 2
#     Edge 17, Type (0, 1), BuildingBlock: AJUNOK_clean_linker_0, # of connection points: 2
#     Edge 18, Type (0, 1), BuildingBlock: AJUNOK_clean_linker_0, # of connection points: 2
#     Edge 19, Type (0, 1), BuildingBlock: AJUNOK_clean_linker_0, # of connection points: 2
#     Edge 20, Type (0, 1), BuildingBlock: AJUNOK_clean_linker_0, # of connection points: 2
#     Edge 21, Type (0, 1), BuildingBlock: AJUNOK_clean_linker_0, # of connection points: 2
#     Edge 22, Type (0, 1), BuildingBlock: AJUNOK_clean_linker_0, # of connection points: 2
#     Edge 23, Type (0, 1), BuildingBlock: AJUNOK_clean_linker_0, # of connection points: 2
#     Edge 24, Type (0, 1), BuildingBlock: AJUNOK_clean_linker_0, # of connection points: 2
#     Edge 25, Type (0, 1), BuildingBlock: AJUNOK_clean_linker_0, # of connection points: 2
#     Edge 26, Type (0, 1), BuildingBlock: AJUNOK_clean_linker_0, # of connection points: 2
# Relax obj value: 0.227
# Max RMSD: 0.178
# Mean RMSD: 0.127
data_MOF--net-anh--node1-PAMTOO_clean_sbu_0--node2-PAMTOO_clean_linker_0--edge1-AJUNOK_clean_linker_0
_symmetry_space_group_name_H-M    P1
_symmetry_Int_Tables_number       1
_symmetry_cell_setting            triclinic
loop_
_symmetry_equiv_pos_as_xyz
'x, y, z'
_cell_length_a     21.633223
_cell_length_b     21.302241
_cell_length_c     36.643259
_cell_angle_alpha  88.745335
_cell_angle_beta   95.547061
_cell_angle_gamma 94.733884
loop_
_atom_site_label
_atom_site_type_symbol
_atom_site_fract_x
_atom_site_fract_y
_atom_site_fract_z
_atom_type_partial_charge
Dy0 Dy 0.22453 0.57871 0.11777 0.0
Dy1 Dy 0.20764 0.4332 0.14649 0.0
C2 C 0.19291 0.46334 0.06319 0.0
O3 O 1.12128 0.55357 0.10841 0.0
O4 O 1.11355 0.47186 0.15003 0.0
O5 O 0.26719 0.64677 0.08136 0.0
O6 O 0.2051 0.67652 0.11922 0.0
O7 O 0.25258 0.48776 0.19401 0.0
O8 O 0.2141 0.58186 0.17801 0.0
O9 O 0.30679 0.44857 0.12979 0.0
O10 O 0.31984 0.55447 0.14043 0.0
O11 O 0.18913 0.36619 0.18977 0.0
O12 O 0.20622 0.33332 0.13641 0.0
C13 C 1.08741 0.51505 0.12865 0.0
O14 O 0.2286 0.51554 0.06974 0.0
O15 O 0.16471 0.43491 0.08947 0.0
C16 C 0.29149 0.74621 0.10756 0.0
C17 C 0.38446 0.84301 0.1277 0.0
C18 C 0.34437 0.84844 0.09541 0.0
C19 C 0.29826 0.80031 0.08541 0.0
C20 C 0.33086 0.74091 0.14005 0.0
C21 C 0.37681 0.78908 0.15013 0.0
C22 C 0.24517 0.69443 0.09593 0.0
C23 C 0.23702 0.54291 0.20307 0.0
C24 C 0.34366 0.50092 0.13517 0.0
C25 C 1.12789 0.27754 0.16751 0.0
C26 C 1.0121 0.21072 0.17559 0.0
C27 C 1.06758 0.18754 0.19162 0.0
C28 C 1.12513 0.22096 0.18773 0.0
C29 C 1.07284 0.29916 0.15003 0.0
C30 C 1.01535 0.26621 0.15421 0.0
C31 C 0.18638 0.31794 0.16821 0.0
H32 H 0.3486 0.88998 0.07796 0.0
H33 H 0.26825 0.80509 0.06023 0.0
H34 H 0.32649 0.69919 0.15737 0.0
H35 H 0.40721 0.78366 0.17508 0.0
H36 H 1.06616 0.14535 0.20867 0.0
H37 H 0.16712 0.20399 0.20169 0.0
H38 H 1.07417 0.34288 0.13436 0.0
H39 H 0.97324 0.28502 0.14163 0.0
Dy40 Dy 0.6232 0.12312 0.49849 0.0
Dy41 Dy 0.77565 0.14233 0.50291 0.0
C42 C 0.70615 0.13048 0.57408 0.0
O43 O 0.6451 0.22305 0.48125 0.0
O44 O 0.74374 0.23892 0.50997 0.0
O45 O 0.54041 0.10177 0.52608 0.0
O46 O 0.53254 0.12951 0.46862 0.0
O47 O 0.73803 0.15768 0.44482 0.0
O48 O 0.65179 0.08895 0.44596 0.0
O49 O 0.75587 0.03726 0.49914 0.0
O50 O 0.65143 1.02516 0.5087 0.0
O51 O 0.86226 0.13002 0.48024 0.0
O52 O 0.86251 0.17821 0.53178 0.0
C53 C 0.69288 0.26108 0.49383 0.0
O54 O 0.65971 0.15535 0.55488 0.0
O55 O 0.75007 0.10788 0.55743 0.0
C56 C 0.45642 0.05415 0.48819 0.0
C57 C 0.36603 0.95314 0.47321 0.0
C58 C 0.42619 0.94188 0.48857 0.0
C59 C 0.47109 0.99198 0.49595 0.0
C60 C 0.39662 0.06553 0.47253 0.0
C61 C 0.35173 1.01531 0.46494 0.0
C62 C 0.50318 0.1072 0.49618 0.0
C63 C 0.69468 0.11926 0.42788 0.0
C64 C 0.70464 1.00162 0.50448 0.0
C65 C 0.9395 0.21488 0.49276 0.0
C66 C 1.02096 0.31372 0.46824 0.0
C67 C 0.99848 0.2638 0.44491 0.0
C68 C 0.95832 0.21472 0.45708 0.0
C69 C 0.96321 0.26422 0.51632 0.0
C70 C 1.00321 0.31334 0.50409 0.0
C71 C 0.8953 0.16415 0.50543 0.0
H72 H 0.43867 0.89426 0.4945 0.0
H73 H 0.51721 0.98218 0.50775 0.0
H74 H 0.38467 0.11322 0.46623 0.0
H75 H 0.30567 1.02501 0.45295 0.0
H76 H 1.01081 0.26344 0.41697 0.0
H77 H 0.94141 0.17715 0.43834 0.0
H78 H 0.95035 0.26528 0.54413 0.0
H79 H 1.02026 0.35116 0.52264 0.0
Dy80 Dy 0.7679 0.63073 0.81432 0.0
Dy81 Dy 0.61596 0.62363 0.81416 0.0
C82 C 0.68113 0.62382 0.74179 0.0
O83 O 0.74213 0.72969 0.8046 0.0
O84 O 0.64404 0.72575 0.82408 0.0
O85 O 0.84407 0.64922 0.78043 0.0
O86 O 0.86252 0.62792 0.83836 0.0
O87 O 0.65368 0.59466 0.87041 0.0
O88 O 0.75183 0.64507 0.8725 0.0
O89 O 0.63926 0.52432 0.80659 0.0
O90 O 0.74328 0.52898 0.82705 0.0
O91 O 0.52631 0.59378 0.78606 0.0
O92 O 0.53183 0.63793 0.83914 0.0
C93 C 0.6944 0.75787 0.81417 0.0
O94 O 0.72202 0.59284 0.7617 0.0
O95 O 0.64086 0.65338 0.75806 0.0
C96 C 0.92584 0.58589 0.79795 0.0
C97 C 1.0085 0.49432 0.78686 0.0
C98 C 1.01882 0.55598 0.77287 0.0
C99 C 0.97777 0.60154 0.7785 0.0
C100 C 0.91316 0.52355 0.80969 0.0
C101 C 0.95431 0.47843 0.80457 0.0
C102 C 0.88549 0.63442 0.8067 0.0
C103 C 0.70599 0.61594 0.88875 0.0
C104 C 0.68988 0.49645 0.81793 0.0
C105 C 0.4642 0.54657 0.82918 0.0
C106 C 0.40895 0.42889 0.85039 0.0
C107 C 0.46981 0.44896 0.8644 0.0
C108 C 0.49717 0.50715 0.85386 0.0
C109 C 0.40304 0.52721 0.81543 0.0
C110 C 0.37551 0.46859 0.82599 0.0
C111 C 0.49723 0.60339 0.81476 0.0
H112 H 1.06013 0.56967 0.75917 0.0
H113 H 0.98764 0.64937 0.76875 0.0
H114 H 0.87287 0.51035 0.82437 0.0
H115 H 0.94554 0.43227 0.81686 0.0
H116 H 0.49708 0.41871 0.88256 0.0
H117 H 0.54499 0.52045 0.86411 0.0
H118 H 0.37734 0.55652 0.79587 0.0
H119 H 0.32848 0.4539 0.81479 0.0
H120 H 0.80598 0.12934 0.27617 0.0
H121 H 0.62366 1.03033 0.25925 0.0
H122 H 0.73689 0.05855 0.16961 0.0
H123 H 0.59904 0.06572 0.14811 0.0
C124 C 0.58205 0.03808 0.17175 0.0
O125 O 0.6306 1.0087 0.19015 0.0
H126 H 0.56373 0.07173 0.19008 0.0
C127 C 0.76918 0.10494 0.25836 0.0
C128 C 0.77791 0.09739 0.22128 0.0
C129 C 0.7141 0.08034 0.27275 0.0
C130 C 0.6673 0.04826 0.24924 0.0
C131 C 0.67574 0.04028 0.21225 0.0
C132 C 0.73104 0.0645 0.19833 0.0
H133 H 0.69804 0.75895 0.58924 0.0
H134 H 0.70149 0.56017 0.57142 0.0
H135 H 0.71523 0.69101 0.4811 0.0
H136 H 0.65611 0.55096 0.45677 0.0
C137 C 0.66515 0.53388 0.4855 0.0
O138 O 0.71553 0.57069 0.50193 0.0
H139 H 0.62252 0.53891 0.49964 0.0
C140 C 0.70064 0.72011 0.57094 0.0
C141 C 0.70658 0.73262 0.53363 0.0
C142 C 0.69871 0.6582 0.58492 0.0
C143 C 0.70319 0.60831 0.56115 0.0
C144 C 0.70918 0.61981 0.52386 0.0
C145 C 0.71033 0.68207 0.50994 0.0
H146 H 0.15929 0.41158 0.89611 0.0
H147 H 0.22602 0.24509 0.94882 0.0
H148 H 0.1868 0.25132 0.83154 0.0
H149 H 0.30118 0.14455 0.86358 0.0
C150 C 0.2968 0.17901 0.88532 0.0
O151 O 0.23383 0.18579 0.88749 0.0
H152 H 0.31664 0.15825 0.91151 0.0
C153 C 0.1741 0.36444 0.89408 0.0
C154 C 0.17019 0.33543 0.85983 0.0
C155 C 0.19347 0.33217 0.92615 0.0
C156 C 0.21002 0.27022 0.92413 0.0
C157 C 0.20926 0.24185 0.8899 0.0
C158 C 0.18796 0.27385 0.85784 0.0
H159 H 0.16445 0.48488 0.3565 0.0
H160 H 0.24998 0.6743 0.3646 0.0
H161 H 0.17258 0.58503 0.45794 0.0
H162 H 0.15919 0.72342 0.45665 0.0
C163 C 0.19229 0.73575 0.43572 0.0
O164 O 0.23018 0.6874 0.43325 0.0
H165 H 0.16439 0.74342 0.40904 0.0
C166 C 0.17887 0.52646 0.3727 0.0
C167 C 0.16523 0.52797 0.40933 0.0
C168 C 0.20979 0.57878 0.35644 0.0
C169 C 0.22597 0.63359 0.37679 0.0
C170 C 0.21235 0.63553 0.4133 0.0
C171 C 0.18223 0.58297 0.42954 0.0
H172 H 0.69705 1.00097 0.72737 0.0
H173 H 0.70749 0.2004 0.74597 0.0
H174 H 0.70194 0.07012 0.83721 0.0
H175 H 0.65786 0.20819 0.85818 0.0
C176 C 0.66163 0.2199 0.82875 0.0
O177 O 0.7108 0.19036 0.81724 0.0
H178 H 0.61678 0.20212 0.81344 0.0
C179 C 0.69885 0.04002 0.74607 0.0
C180 C 0.69861 1.02775 0.78381 0.0
C181 C 0.70213 0.1019 0.73214 0.0
C182 C 0.70384 0.1523 0.7563 0.0
C183 C 0.70364 0.14098 0.79412 0.0
C184 C 0.70064 0.07864 0.8079 0.0
H185 H 0.84439 0.55461 0.04452 0.0
H186 H 0.64666 0.51825 0.04888 0.0
H187 H 0.77177 0.49242 0.14579 0.0
H188 H 0.61952 0.5791 0.11302 0.0
C189 C 0.61731 0.53662 0.13125 0.0
O190 O 0.65118 0.49041 0.11818 0.0
H191 H 0.64002 0.55096 0.15865 0.0
C192 C 0.80516 0.53941 0.05973 0.0
C193 C 0.81648 0.52237 0.09691 0.0
C194 C 0.74455 0.5376 0.04191 0.0
C195 C 0.69376 0.51989 0.06213 0.0
C196 C 0.70263 0.50487 0.09961 0.0
C197 C 0.76445 0.50495 0.11699 0.0
C198 C 0.45153 0.54232 0.15993 0.0
C199 C 0.41346 0.5014 0.13596 0.0
C200 C 0.51674 0.54967 0.15921 0.0
C201 C 0.54782 0.51701 0.13431 0.0
H202 H 0.43059 0.57005 0.17914 0.0
H203 H 0.54307 0.58325 0.17768 0.0
S204 S 0.46971 0.40612 0.06414 0.0
N205 N 0.41187 0.42797 0.08604 0.0
N206 N 0.53401 0.44332 0.08386 0.0
C207 C 0.51035 0.47579 0.11003 0.0
C208 C 0.44358 0.46739 0.11122 0.0
C209 C 1.04425 0.42941 0.45881 0.0
C210 C 1.0606 0.36758 0.45471 0.0
C211 C 1.07906 0.48109 0.44467 0.0
C212 C 1.13155 0.47279 0.42599 0.0
H213 H 1.00327 0.43778 0.47224 0.0
H214 H 1.0638 0.52775 0.44756 0.0
S215 S 0.19763 0.32101 0.41144 0.0
N216 N 1.13509 0.30118 0.43296 0.0
N217 N 0.20096 0.39844 0.40659 0.0
C218 C 0.14951 0.41134 0.4227 0.0
C219 C 1.11393 0.35871 0.43699 0.0
C220 C 0.74641 0.8608 0.79434 0.0
C221 C 0.69675 0.82809 0.81086 0.0
C222 C 0.74784 0.9258 0.78741 0.0
C223 C 0.70014 0.96137 0.79702 0.0
H224 H 0.78385 0.83588 0.78548 0.0
H225 H 0.78588 0.94825 0.77342 0.0
S226 S 0.56189 0.90093 0.84325 0.0
N227 N 0.60004 0.83796 0.83854 0.0
N228 N 0.60342 0.96049 0.82548 0.0
C229 C 0.65164 0.9304 0.81501 0.0
C230 C 0.64974 0.86375 0.82188 0.0
C231 C 0.97616 0.46624 0.13235 0.0
C232 C 1.01772 0.51931 0.12594 0.0
C233 C 0.91059 0.46827 0.12569 0.0
C234 C 0.88366 0.52372 0.11284 0.0
H235 H 0.99439 0.42189 0.14093 0.0
H236 H 0.88104 0.42527 0.12874 0.0
S237 S 0.97051 0.67824 0.09731 0.0
N238 N 1.02561 0.63073 0.10971 0.0
N239 N 0.9039 0.63463 0.09801 0.0
C240 C 0.92456 0.57796 0.10882 0.0
C241 C 0.99092 0.57576 0.11511 0.0
C242 C 0.28815 0.89344 0.42944 0.0
C243 C 0.31882 0.89982 0.46495 0.0
C244 C 0.24616 0.84124 0.42036 0.0
C245 C 0.23269 0.79433 0.44666 0.0
H246 H 0.2981 0.92807 0.40827 0.0
H247 H 0.22491 0.83699 0.39242 0.0
S248 S 0.29856 0.79037 0.54377 0.0
N249 N 0.33142 0.85597 0.5268 0.0
N250 N 0.25228 0.75785 0.50963 0.0
C251 C 0.26213 0.80076 0.48238 0.0
C252 C 0.30518 0.85357 0.49158 0.0
C253 C 0.63078 0.39142 0.80533 0.0
C254 C 0.68568 0.42609 0.81991 0.0
C255 C 0.62415 0.32538 0.80752 0.0
C256 C 0.67207 0.29087 0.82435 0.0
H257 H 0.59208 0.41534 0.79223 0.0
H258 H 0.58069 0.30118 0.7963 0.0
S259 S 0.8247 0.35772 0.86765 0.0
N260 N 0.78886 0.4199 0.85224 0.0
N261 N 0.77583 0.29593 0.85649 0.0
C262 C 0.72714 0.32456 0.83911 0.0
C263 C 0.73414 0.39196 0.83678 0.0
C264 C 0.75979 0.90641 0.5258 0.0
C265 C 0.70728 0.93214 0.50747 0.0
C266 C 0.76038 0.84122 0.53264 0.0
C267 C 0.7092 0.79922 0.52055 0.0
H268 H 0.79956 0.9371 0.53647 0.0
H269 H 0.80042 0.82364 0.54847 0.0
S270 S 0.56301 0.84168 0.46826 0.0
N271 N 0.60437 0.9098 0.47528 0.0
N272 N 0.60625 0.78737 0.48762 0.0
C273 C 0.65777 0.82388 0.50065 0.0
C274 C 0.65662 0.89031 0.49424 0.0
C275 C 1.11896 0.47377 0.80451 0.0
C276 C 1.05888 0.45061 0.79021 0.0
C277 C 0.16001 0.43353 0.82269 0.0
C278 C 1.14187 0.3692 0.82757 0.0
H279 H 1.13184 0.52395 0.80568 0.0
H280 H 0.20309 0.45408 0.83674 0.0
S281 S 0.99858 0.28275 0.78449 0.0
N282 N 0.99071 0.35727 0.77299 0.0
N283 N 1.06662 0.28188 0.80912 0.0
C284 C 1.08653 0.34404 0.80821 0.0
C285 C 1.04517 0.38489 0.78904 0.0
C286 C 0.441 0.91823 0.17352 0.0
C287 C 0.43447 0.89323 0.138 0.0
C288 C 0.48824 0.96528 0.18397 0.0
C289 C 0.53053 0.9891 0.15926 0.0
H290 H 0.40912 0.90154 0.19333 0.0
H291 H 0.49187 0.98316 0.21161 0.0
S292 S 0.53651 0.93612 0.06406 0.0
N293 N 0.4763 0.89353 0.07875 0.0
N294 N 0.56509 0.98194 0.09847 0.0
C295 C 0.52532 0.9637 0.12394 0.0
C296 C 0.47711 0.91599 0.11323 0.0
C297 C 0.72564 0.37252 0.514 0.0
C298 C 0.68833 0.33061 0.49019 0.0
C299 C 0.71928 0.4379 0.51227 0.0
C300 C 0.67644 0.46422 0.48597 0.0
H301 H 0.75887 0.35458 0.53486 0.0
H302 H 0.74767 0.46776 0.53196 0.0
S303 S 0.56896 0.37577 0.41661 0.0
N304 N 0.60764 0.321 0.43905 0.0
N305 N 0.59637 0.44314 0.43572 0.0
C306 C 0.63954 0.42291 0.46182 0.0
C307 C 0.64545 0.3565 0.46381 0.0
C308 C 0.35758 0.32343 0.83197 0.0
C309 C 0.38204 0.36518 0.85992 0.0
C310 C 0.33353 0.26226 0.8403 0.0
C311 C 0.33323 0.24074 0.87684 0.0
H312 H 0.35708 0.33815 0.80346 0.0
H313 H 0.31329 0.23212 0.8181 0.0
S314 S 0.38938 0.33265 0.96001 0.0
N315 N 0.40281 0.38154 0.92555 0.0
N316 N 0.35847 0.26615 0.94117 0.0
C317 C 0.35804 0.28187 0.905 0.0
C318 C 0.38215 0.34421 0.89655 0.0
C319 C 0.90929 0.21745 0.20012 0.0
C320 C 0.95078 0.18099 0.18434 0.0
C321 C 0.85305 0.19008 0.21142 0.0
C322 C 0.83579 0.12545 0.20684 0.0
H323 H 0.92125 0.26723 0.20476 0.0
H324 H 0.823 0.21961 0.22414 0.0
S325 S 0.92661 1.01005 0.16546 0.0
N326 N 0.97005 0.0774 0.16368 0.0
N327 N 0.86366 1.02595 0.18457 0.0
C328 C 0.87596 0.08875 0.19018 0.0
C329 C 0.93372 0.1165 0.1791 0.0
C330 C 0.23243 0.45123 0.00182 0.0
C331 C 0.19015 0.43133 0.02746 0.0
C332 C 0.23412 0.41812 0.96932 0.0
C333 C 0.19413 0.36368 0.96158 0.0
H334 H 0.26508 0.49209 0.00707 0.0
H335 H 0.26705 0.43497 0.95012 0.0
S336 S 1.07204 0.29399 0.01775 0.0
N337 N 1.10483 0.35502 0.04144 0.0
N338 N 1.10937 0.29287 0.98058 0.0
C339 C 0.15124 0.34365 -0.01353 0.0
C340 C 0.14886 0.37751 0.01934 0.0
C341 C 0.71953 0.15756 0.36576 0.0
C342 C 0.69579 0.10885 0.38822 0.0
C343 C 0.7239 0.14821 0.32841 0.0
C344 C 0.70574 0.08942 0.31213 0.0
H345 H 0.73471 0.20344 0.37711 0.0
H346 H 0.74184 0.18747 0.31217 0.0
S347 S 0.6438 0.94541 0.35983 0.0
N348 N 0.65475 0.99945 0.39193 0.0
N349 N 0.66513 0.98098 0.32201 0.0
C350 C 0.68198 0.04019 0.33441 0.0
C351 C 0.67655 0.0501 0.37237 0.0
C352 C 0.6423 0.66466 0.67976 0.0
C353 C 0.68384 0.62853 0.70146 0.0
C354 C 0.64691 0.67338 0.64203 0.0
C355 C 0.69306 0.64613 0.62454 0.0
H356 H 0.60645 0.68722 0.69203 0.0
H357 H 0.61419 0.70186 0.62643 0.0
S358 S 0.81374 0.54776 0.66857 0.0
N359 N 0.77274 0.56486 0.7022 0.0
N360 N 0.78147 0.58224 0.63158 0.0
C361 C 0.73441 0.60934 0.64569 0.0
C362 C 0.72981 0.60033 0.68406 0.0
C363 C 0.66342 0.15375 0.63328 0.0
C364 C 0.70815 0.12599 0.61471 0.0
C365 C 0.6628 0.14761 0.67149 0.0
C366 C 0.70649 0.11302 0.6924 0.0
H367 H 0.62807 0.17981 0.61822 0.0
H368 H 0.62685 0.16851 0.68463 0.0
S369 S 0.83587 0.03472 0.65808 0.0
N370 N 0.79936 0.06505 0.62102 0.0
N371 N 0.79772 0.0539 0.69254 0.0
C372 C 0.75241 0.08657 0.67449 0.0
C373 C 0.75338 0.09296 0.63574 0.0
C374 C 0.67771 0.61477 0.95331 0.0
C375 C 0.71712 0.59754 0.92763 0.0
C376 C 0.68675 0.59512 -0.00984 0.0
C377 C 0.73451 0.55616 0.00236 0.0
H378 H 0.6402 0.64423 0.94495 0.0
H379 H 0.65651 0.61123 0.00929 0.0
S380 S 0.84435 0.49123 0.94379 0.0
N381 N 0.80263 0.53656 0.91573 0.0
N382 N 0.81759 0.49631 0.98424 0.0
C383 C 0.77261 0.53679 0.97626 0.0
C384 C 0.76436 0.55824 0.93909 0.0
C385 C 0.2074 0.60795 0.25394 0.0
C386 C 0.23922 0.55776 0.24258 0.0
C387 C 0.20048 0.61657 0.29116 0.0
C388 C 0.22493 0.57515 0.31813 0.0
H389 H 0.18526 0.63917 0.23392 0.0
H390 H 0.1734 0.654 0.29871 0.0
S391 S 0.32009 0.44261 0.30391 0.0
N392 N 0.30172 0.47071 0.26228 0.0
N393 N 0.28762 0.48685 0.33189 0.0
C394 C 0.25995 0.52736 0.30751 0.0
C395 C 0.26746 0.51873 0.26981 0.0
loop_
_geom_bond_atom_site_label_1
_geom_bond_atom_site_label_2
_geom_bond_distance
_geom_bond_site_symmetry_2
_ccdc_geom_bond_type
Dy0 O3 2.307 1_455 S
Dy0 O5 2.395 . S
Dy0 O6 2.379 . S
Dy0 O8 2.339 . S
Dy0 O10 2.298 . S
Dy0 O14 2.275 . S
Dy0 C22 2.738 . S
Dy1 O4 2.298 . S
Dy1 O7 2.275 1_655 S
Dy1 O9 2.307 1_655 S
Dy1 O11 2.395 . S
Dy1 O12 2.379 . S
Dy1 O15 2.339 . S
Dy1 C31 2.738 . S
C2 O14 1.254 . S
C2 O15 1.257 1_455 S
O3 Dy0 2.307 1_655 S
O3 C13 1.266 . S
O4 Dy1 2.298 . S
O4 C13 1.236 . S
O5 Dy0 2.395 . S
O5 C22 1.255 . S
O6 Dy0 2.379 . S
O6 C22 1.249 . S
O7 Dy1 2.275 1_455 S
O7 C23 1.254 . S
O8 Dy0 2.339 . S
O8 C23 1.257 . S
O9 Dy1 2.307 1_455 S
O9 C24 1.266 . S
O10 Dy0 2.298 . S
O10 C24 1.236 . S
O11 Dy1 2.395 . S
O11 C31 1.255 . S
O12 Dy1 2.379 . S
O12 C31 1.249 . S
C13 O3 1.266 . S
C13 O4 1.236 . S
O14 Dy0 2.275 . S
O14 C2 1.254 . S
O15 Dy1 2.339 . S
O15 C2 1.257 1_655 S
C16 C19 1.344 . S
C16 C20 1.328 . S
C16 C22 1.516 . S
C17 C18 1.304 . S
C17 C21 1.323 . S
C18 C17 1.304 . S
C18 C19 1.371 . S
C18 H32 0.930 . S
C19 C16 1.344 . S
C19 C18 1.371 . S
C19 H33 0.931 . S
C20 C16 1.328 . S
C20 C21 1.433 . S
C20 H34 0.931 . S
C21 C17 1.323 . S
C21 C20 1.433 . S
C21 H35 0.933 . S
C22 Dy0 2.738 . S
C22 O5 1.255 . S
C22 O6 1.249 . S
C22 C16 1.516 . S
C23 O7 1.254 . S
C23 O8 1.257 . S
C24 O9 1.266 . S
C24 O10 1.236 . S
C25 C28 1.344 . S
C25 C29 1.328 . S
C25 C31 1.516 . S
C26 C27 1.304 . S
C26 C30 1.323 . S
C27 C26 1.304 . S
C27 C28 1.371 . S
C27 H36 0.930 . S
C28 C25 1.344 . S
C28 C27 1.371 . S
C28 H37 0.931 . S
C29 C25 1.328 . S
C29 C30 1.433 . S
C29 H38 0.931 . S
C30 C26 1.323 . S
C30 C29 1.433 . S
C30 H39 0.933 . S
C31 Dy1 2.738 . S
C31 O11 1.255 . S
C31 O12 1.249 . S
C31 C25 1.516 . S
H32 C18 0.930 . S
H33 C19 0.931 . S
H34 C20 0.931 . S
H35 C21 0.933 . S
H36 C27 0.930 . S
H37 C28 0.931 . S
H38 C29 0.931 . S
H39 C30 0.933 . S
Dy40 O43 2.307 1_565 S
Dy40 O45 2.395 . S
Dy40 O46 2.379 . S
Dy40 O48 2.339 1_565 S
Dy40 O50 2.298 . S
Dy40 O54 2.275 1_565 S
Dy40 C62 2.738 . S
Dy41 O44 2.298 . S
Dy41 O47 2.275 . S
Dy41 O49 2.307 1_545 S
Dy41 O51 2.395 . S
Dy41 O52 2.379 . S
Dy41 O55 2.339 . S
Dy41 C71 2.738 . S
C42 O54 1.254 . S
C42 O55 1.257 . S
O43 Dy40 2.307 1_545 S
O43 C53 1.266 . S
O44 Dy41 2.298 . S
O44 C53 1.236 . S
O45 Dy40 2.395 . S
O45 C62 1.255 . S
O46 Dy40 2.379 . S
O46 C62 1.249 . S
O47 Dy41 2.275 . S
O47 C63 1.254 . S
O48 Dy40 2.339 1_545 S
O48 C63 1.257 . S
O49 Dy41 2.307 1_565 S
O49 C64 1.266 . S
O50 Dy40 2.298 . S
O50 C64 1.236 . S
O51 Dy41 2.395 . S
O51 C71 1.255 . S
O52 Dy41 2.379 . S
O52 C71 1.249 . S
C53 O43 1.266 . S
C53 O44 1.236 . S
O54 Dy40 2.275 1_545 S
O54 C42 1.254 . S
O55 Dy41 2.339 . S
O55 C42 1.257 . S
C56 C59 1.344 . S
C56 C60 1.328 . S
C56 C62 1.516 . S
C57 C58 1.304 . S
C57 C61 1.323 . S
C58 C57 1.304 . S
C58 C59 1.371 . S
C58 H72 0.930 . S
C59 C56 1.344 . S
C59 C58 1.371 . S
C59 H73 0.931 . S
C60 C56 1.328 . S
C60 C61 1.433 . S
C60 H74 0.931 . S
C61 C57 1.323 . S
C61 C60 1.433 . S
C61 H75 0.933 . S
C62 Dy40 2.738 . S
C62 O45 1.255 . S
C62 O46 1.249 . S
C62 C56 1.516 . S
C63 O47 1.254 . S
C63 O48 1.257 . S
C64 O49 1.266 . S
C64 O50 1.236 . S
C65 C68 1.344 . S
C65 C69 1.328 . S
C65 C71 1.516 . S
C66 C67 1.304 . S
C66 C70 1.323 . S
C67 C66 1.304 . S
C67 C68 1.371 . S
C67 H76 0.930 . S
C68 C65 1.344 . S
C68 C67 1.371 . S
C68 H77 0.931 . S
C69 C65 1.328 . S
C69 C70 1.433 . S
C69 H78 0.931 . S
C70 C66 1.323 . S
C70 C69 1.433 . S
C70 H79 0.933 . S
C71 Dy41 2.738 . S
C71 O51 1.255 . S
C71 O52 1.249 . S
C71 C65 1.516 . S
H72 C58 0.930 . S
H73 C59 0.931 . S
H74 C60 0.931 . S
H75 C61 0.933 . S
H76 C67 0.930 . S
H77 C68 0.931 . S
H78 C69 0.931 . S
H79 C70 0.933 . S
Dy80 O83 2.307 . S
Dy80 O85 2.395 . S
Dy80 O86 2.379 . S
Dy80 O88 2.339 . S
Dy80 O90 2.298 . S
Dy80 O94 2.275 . S
Dy80 C102 2.738 . S
Dy81 O84 2.298 . S
Dy81 O87 2.275 . S
Dy81 O89 2.307 . S
Dy81 O91 2.395 . S
Dy81 O92 2.379 . S
Dy81 O95 2.339 . S
Dy81 C111 2.738 . S
C82 O94 1.254 . S
C82 O95 1.257 . S
O83 Dy80 2.307 . S
O83 C93 1.266 . S
O84 Dy81 2.298 . S
O84 C93 1.236 . S
O85 Dy80 2.395 . S
O85 C102 1.255 . S
O86 Dy80 2.379 . S
O86 C102 1.249 . S
O87 Dy81 2.275 . S
O87 C103 1.254 . S
O88 Dy80 2.339 . S
O88 C103 1.257 . S
O89 Dy81 2.307 . S
O89 C104 1.266 . S
O90 Dy80 2.298 . S
O90 C104 1.236 . S
O91 Dy81 2.395 . S
O91 C111 1.255 . S
O92 Dy81 2.379 . S
O92 C111 1.249 . S
C93 O83 1.266 . S
C93 O84 1.236 . S
O94 Dy80 2.275 . S
O94 C82 1.254 . S
O95 Dy81 2.339 . S
O95 C82 1.257 . S
C96 C99 1.344 . S
C96 C100 1.328 . S
C96 C102 1.516 . S
C97 C98 1.304 . S
C97 C101 1.323 . S
C98 C97 1.304 . S
C98 C99 1.371 . S
C98 H112 0.930 . S
C99 C96 1.344 . S
C99 C98 1.371 . S
C99 H113 0.931 . S
C100 C96 1.328 . S
C100 C101 1.433 . S
C100 H114 0.931 . S
C101 C97 1.323 . S
C101 C100 1.433 . S
C101 H115 0.933 . S
C102 Dy80 2.738 . S
C102 O85 1.255 . S
C102 O86 1.249 . S
C102 C96 1.516 . S
C103 O87 1.254 . S
C103 O88 1.257 . S
C104 O89 1.266 . S
C104 O90 1.236 . S
C105 C108 1.344 . S
C105 C109 1.328 . S
C105 C111 1.516 . S
C106 C107 1.304 . S
C106 C110 1.323 . S
C107 C106 1.304 . S
C107 C108 1.371 . S
C107 H116 0.930 . S
C108 C105 1.344 . S
C108 C107 1.371 . S
C108 H117 0.931 . S
C109 C105 1.328 . S
C109 C110 1.433 . S
C109 H118 0.931 . S
C110 C106 1.323 . S
C110 C109 1.433 . S
C110 H119 0.933 . S
C111 Dy81 2.738 . S
C111 O91 1.255 . S
C111 O92 1.249 . S
C111 C105 1.516 . S
H112 C98 0.930 . S
H113 C99 0.931 . S
H114 C100 0.931 . S
H115 C101 0.933 . S
H116 C107 0.930 . S
H117 C108 0.931 . S
H118 C109 0.931 . S
H119 C110 0.933 . S
H120 C127 0.929 . S
H121 C130 0.930 1_565 S
H122 C132 0.929 . S
H123 C124 0.969 . S
C124 H123 0.969 . S
C124 O125 1.550 . S
C124 H126 0.973 . S
O125 C124 1.550 . S
O125 C131 1.412 1_565 S
H126 C124 0.973 . S
C127 H120 0.929 . S
C127 C128 1.400 . S
C127 C129 1.364 . S
C128 C127 1.400 . S
C128 C132 1.377 . S
C129 C127 1.364 . S
C129 C130 1.374 . S
C130 H121 0.930 1_545 S
C130 C129 1.374 . S
C130 C131 1.383 . S
C131 O125 1.412 1_545 S
C131 C130 1.383 . S
C131 C132 1.394 . S
C132 H122 0.929 . S
C132 C128 1.377 . S
C132 C131 1.394 . S
H133 C140 0.929 . S
H134 C143 0.930 . S
H135 C145 0.929 . S
H136 C137 0.969 . S
C137 H136 0.969 . S
C137 O138 1.550 . S
C137 H139 0.973 . S
O138 C137 1.550 . S
O138 C144 1.412 . S
H139 C137 0.973 . S
C140 H133 0.929 . S
C140 C141 1.400 . S
C140 C142 1.364 . S
C141 C140 1.400 . S
C141 C145 1.377 . S
C142 C140 1.364 . S
C142 C143 1.374 . S
C143 H134 0.930 . S
C143 C142 1.374 . S
C143 C144 1.383 . S
C144 O138 1.412 . S
C144 C143 1.383 . S
C144 C145 1.394 . S
C145 H135 0.929 . S
C145 C141 1.377 . S
C145 C144 1.394 . S
H146 C153 0.929 . S
H147 C156 0.930 . S
H148 C158 0.929 . S
H149 C150 0.969 . S
C150 H149 0.969 . S
C150 O151 1.550 . S
C150 H152 0.973 . S
O151 C150 1.550 . S
O151 C157 1.412 . S
H152 C150 0.973 . S
C153 H146 0.929 . S
C153 C154 1.400 . S
C153 C155 1.364 1_655 S
C154 C153 1.400 . S
C154 C158 1.377 1_655 S
C155 C153 1.364 1_455 S
C155 C156 1.374 . S
C156 H147 0.930 . S
C156 C155 1.374 . S
C156 C157 1.383 . S
C157 O151 1.412 . S
C157 C156 1.383 . S
C157 C158 1.394 . S
C158 H148 0.929 . S
C158 C154 1.377 1_455 S
C158 C157 1.394 . S
H159 C166 0.929 . S
H160 C169 0.930 . S
H161 C171 0.929 . S
H162 C163 0.969 . S
C163 H162 0.969 . S
C163 O164 1.550 . S
C163 H165 0.973 . S
O164 C163 1.550 . S
O164 C170 1.412 . S
H165 C163 0.973 . S
C166 H159 0.929 . S
C166 C167 1.400 1_655 S
C166 C168 1.364 1_655 S
C167 C166 1.400 1_455 S
C167 C171 1.379 . S
C168 C166 1.364 1_455 S
C168 C169 1.374 . S
C169 H160 0.930 . S
C169 C168 1.374 . S
C169 C170 1.383 . S
C170 O164 1.412 . S
C170 C169 1.383 . S
C170 C171 1.394 . S
C171 H161 0.929 . S
C171 C167 1.379 . S
C171 C170 1.394 . S
H172 C179 0.929 . S
H173 C182 0.930 . S
H174 C184 0.929 . S
H175 C176 0.969 . S
C176 H175 0.969 . S
C176 O177 1.550 . S
C176 H178 0.973 . S
O177 C176 1.550 . S
O177 C183 1.412 . S
H178 C176 0.973 . S
C179 H172 0.929 . S
C179 C180 1.400 . S
C179 C181 1.364 . S
C180 C179 1.400 . S
C180 C184 1.377 . S
C181 C179 1.364 . S
C181 C182 1.374 1_565 S
C182 H173 0.930 . S
C182 C181 1.374 1_545 S
C182 C183 1.383 . S
C183 O177 1.412 . S
C183 C182 1.383 . S
C183 C184 1.394 1_545 S
C184 H174 0.929 . S
C184 C180 1.377 . S
C184 C183 1.394 1_565 S
H185 C192 0.929 . S
H186 C195 0.930 . S
H187 C197 0.929 . S
H188 C189 0.969 . S
C189 H188 0.969 . S
C189 O190 1.550 . S
C189 H191 0.973 . S
O190 C189 1.550 . S
O190 C196 1.412 . S
H191 C189 0.973 . S
C192 H185 0.929 . S
C192 C193 1.400 . S
C192 C194 1.364 . S
C193 C192 1.400 . S
C193 C197 1.377 . S
C194 C192 1.364 . S
C194 C195 1.374 . S
C195 H186 0.930 . S
C195 C194 1.374 . S
C195 C196 1.383 . S
C196 O190 1.412 . S
C196 C195 1.383 . S
C196 C197 1.394 . S
C197 H187 0.929 . S
C197 C193 1.377 . S
C197 C196 1.394 . S
C198 C199 1.369 . S
C198 C200 1.419 . S
C198 H202 0.930 . S
C199 C198 1.369 . S
C199 C208 1.429 . S
C200 C198 1.419 . S
C200 C201 1.363 . S
C200 H203 0.929 . S
C201 C200 1.363 . S
C201 C207 1.428 . S
H202 C198 0.930 . S
H203 C200 0.929 . S
S204 N205 1.613 . S
S204 N206 1.610 . S
N205 S204 1.613 . S
N205 C208 1.350 . S
N206 S204 1.610 . S
N206 C207 1.351 . S
C207 C201 1.428 . S
C207 N206 1.351 . S
C207 C208 1.434 . S
C208 C199 1.429 . S
C208 N205 1.350 . S
C208 C207 1.434 . S
C209 C210 1.369 . S
C209 C211 1.419 . S
C209 H213 0.930 . S
C210 C209 1.369 . S
C210 C219 1.429 . S
C211 C209 1.419 . S
C211 C212 1.363 . S
C211 H214 0.929 1_655 S
C212 C211 1.363 . S
C212 C218 1.428 . S
H213 C209 0.930 . S
H214 C211 0.929 1_455 S
S215 N216 1.613 . S
S215 N217 1.610 . S
N216 S215 1.613 . S
N216 C219 1.350 . S
N217 S215 1.610 . S
N217 C218 1.351 . S
C218 C212 1.428 . S
C218 N217 1.351 . S
C218 C219 1.434 . S
C219 C210 1.429 . S
C219 N216 1.350 . S
C219 C218 1.434 . S
C220 C221 1.369 . S
C220 C222 1.419 . S
C220 H224 0.930 . S
C221 C220 1.369 . S
C221 C230 1.429 . S
C222 C220 1.419 . S
C222 C223 1.363 . S
C222 H225 0.929 . S
C223 C222 1.363 . S
C223 C229 1.428 . S
H224 C220 0.930 . S
H225 C222 0.929 . S
S226 N227 1.613 . S
S226 N228 1.610 . S
N227 S226 1.613 . S
N227 C230 1.350 . S
N228 S226 1.610 . S
N228 C229 1.351 . S
C229 C223 1.428 . S
C229 N228 1.351 . S
C229 C230 1.434 . S
C230 C221 1.429 . S
C230 N227 1.350 . S
C230 C229 1.434 . S
C231 C232 1.369 . S
C231 C233 1.419 . S
C231 H235 0.930 . S
C232 C231 1.369 . S
C232 C241 1.429 . S
C233 C231 1.419 . S
C233 C234 1.363 . S
C233 H236 0.929 . S
C234 C233 1.363 . S
C234 C240 1.428 . S
H235 C231 0.930 . S
H236 C233 0.929 . S
S237 N238 1.613 . S
S237 N239 1.610 . S
N238 S237 1.613 . S
N238 C241 1.350 . S
N239 S237 1.610 . S
N239 C240 1.351 . S
C240 C234 1.428 . S
C240 N239 1.351 . S
C240 C241 1.434 . S
C241 C232 1.429 . S
C241 N238 1.350 . S
C241 C240 1.434 . S
C242 C243 1.369 . S
C242 C244 1.419 . S
C242 H246 0.930 . S
C243 C242 1.369 . S
C243 C252 1.429 . S
C244 C242 1.419 . S
C244 C245 1.363 . S
C244 H247 0.929 . S
C245 C244 1.363 . S
C245 C251 1.428 . S
H246 C242 0.930 . S
H247 C244 0.929 . S
S248 N249 1.613 . S
S248 N250 1.610 . S
N249 S248 1.613 . S
N249 C252 1.350 . S
N250 S248 1.610 . S
N250 C251 1.351 . S
C251 C245 1.428 . S
C251 N250 1.351 . S
C251 C252 1.434 . S
C252 C243 1.429 . S
C252 N249 1.350 . S
C252 C251 1.434 . S
C253 C254 1.369 . S
C253 C255 1.419 . S
C253 H257 0.930 . S
C254 C253 1.369 . S
C254 C263 1.429 . S
C255 C253 1.419 . S
C255 C256 1.363 . S
C255 H258 0.929 . S
C256 C255 1.363 . S
C256 C262 1.428 . S
H257 C253 0.930 . S
H258 C255 0.929 . S
S259 N260 1.613 . S
S259 N261 1.610 . S
N260 S259 1.613 . S
N260 C263 1.350 . S
N261 S259 1.610 . S
N261 C262 1.351 . S
C262 C256 1.428 . S
C262 N261 1.351 . S
C262 C263 1.434 . S
C263 C254 1.429 . S
C263 N260 1.350 . S
C263 C262 1.434 . S
C264 C265 1.369 . S
C264 C266 1.419 . S
C264 H268 0.930 . S
C265 C264 1.369 . S
C265 C274 1.429 . S
C266 C264 1.419 . S
C266 C267 1.363 . S
C266 H269 0.929 . S
C267 C266 1.363 . S
C267 C273 1.428 . S
H268 C264 0.930 . S
H269 C266 0.929 . S
S270 N271 1.613 . S
S270 N272 1.610 . S
N271 S270 1.613 . S
N271 C274 1.350 . S
N272 S270 1.610 . S
N272 C273 1.351 . S
C273 C267 1.428 . S
C273 N272 1.351 . S
C273 C274 1.434 . S
C274 C265 1.429 . S
C274 N271 1.350 . S
C274 C273 1.434 . S
C275 C276 1.369 . S
C275 C277 1.419 . S
C275 H279 0.930 . S
C276 C275 1.369 . S
C276 C285 1.429 . S
C277 C275 1.419 . S
C277 C278 1.363 . S
C277 H280 0.929 . S
C278 C277 1.363 . S
C278 C284 1.428 . S
H279 C275 0.930 . S
H280 C277 0.929 . S
S281 N282 1.613 1_455 S
S281 N283 1.610 . S
N282 S281 1.613 1_655 S
N282 C285 1.350 . S
N283 S281 1.610 . S
N283 C284 1.351 1_455 S
C284 C278 1.428 . S
C284 N283 1.351 1_655 S
C284 C285 1.434 . S
C285 C276 1.429 . S
C285 N282 1.350 . S
C285 C284 1.434 . S
C286 C287 1.369 . S
C286 C288 1.419 . S
C286 H290 0.930 . S
C287 C286 1.369 . S
C287 C296 1.429 . S
C288 C286 1.419 . S
C288 C289 1.363 . S
C288 H291 0.929 . S
C289 C288 1.363 . S
C289 C295 1.428 . S
H290 C286 0.930 . S
H291 C288 0.929 . S
S292 N293 1.613 . S
S292 N294 1.610 . S
N293 S292 1.613 . S
N293 C296 1.350 . S
N294 S292 1.610 . S
N294 C295 1.351 . S
C295 C289 1.428 . S
C295 N294 1.351 . S
C295 C296 1.434 . S
C296 C287 1.429 . S
C296 N293 1.350 . S
C296 C295 1.434 . S
C297 C298 1.369 . S
C297 C299 1.419 . S
C297 H301 0.930 . S
C298 C297 1.369 . S
C298 C307 1.429 . S
C299 C297 1.419 . S
C299 C300 1.363 . S
C299 H302 0.929 . S
C300 C299 1.363 . S
C300 C306 1.428 . S
H301 C297 0.930 . S
H302 C299 0.929 . S
S303 N304 1.613 . S
S303 N305 1.610 . S
N304 S303 1.613 . S
N304 C307 1.350 . S
N305 S303 1.610 . S
N305 C306 1.351 . S
C306 C300 1.428 . S
C306 N305 1.351 . S
C306 C307 1.434 . S
C307 C298 1.429 . S
C307 N304 1.350 . S
C307 C306 1.434 . S
C308 C309 1.369 . S
C308 C310 1.419 . S
C308 H312 0.930 . S
C309 C308 1.369 . S
C309 C318 1.429 . S
C310 C308 1.419 . S
C310 C311 1.363 . S
C310 H313 0.929 . S
C311 C310 1.363 . S
C311 C317 1.428 . S
H312 C308 0.930 . S
H313 C310 0.929 . S
S314 N315 1.613 . S
S314 N316 1.610 . S
N315 S314 1.613 . S
N315 C318 1.350 . S
N316 S314 1.610 . S
N316 C317 1.351 . S
C317 C311 1.428 . S
C317 N316 1.351 . S
C317 C318 1.434 . S
C318 C309 1.429 . S
C318 N315 1.350 . S
C318 C317 1.434 . S
C319 C320 1.369 . S
C319 C321 1.419 . S
C319 H323 0.930 . S
C320 C319 1.369 . S
C320 C329 1.429 . S
C321 C319 1.419 . S
C321 C322 1.363 . S
C321 H324 0.929 . S
C322 C321 1.363 . S
C322 C328 1.428 . S
H323 C319 0.930 . S
H324 C321 0.929 . S
S325 N326 1.613 . S
S325 N327 1.610 . S
N326 S325 1.613 . S
N326 C329 1.350 . S
N327 S325 1.610 . S
N327 C328 1.351 . S
C328 C322 1.428 . S
C328 N327 1.351 . S
C328 C329 1.434 . S
C329 C320 1.429 . S
C329 N326 1.350 . S
C329 C328 1.434 . S
C330 C331 1.369 . S
C330 C332 1.419 . S
C330 H334 0.930 . S
C331 C330 1.369 . S
C331 C340 1.429 1_455 S
C332 C330 1.419 . S
C332 C333 1.363 1_554 S
C332 H335 0.929 1_554 S
C333 C332 1.363 1_556 S
C333 C339 1.426 . S
H334 C330 0.930 . S
H335 C332 0.929 1_556 S
S336 N337 1.613 1_556 S
S336 N338 1.610 . S
N337 S336 1.613 1_554 S
N337 C340 1.350 . S
N338 S336 1.610 . S
N338 C339 1.352 1_655 S
C339 C333 1.426 . S
C339 N338 1.352 1_455 S
C339 C340 1.435 1_456 S
C340 C331 1.429 1_655 S
C340 N337 1.350 . S
C340 C339 1.435 1_654 S
C341 C342 1.369 . S
C341 C343 1.419 . S
C341 H345 0.930 . S
C342 C341 1.369 . S
C342 C351 1.429 1_545 S
C343 C341 1.419 . S
C343 C344 1.363 . S
C343 H346 0.929 . S
C344 C343 1.363 . S
C344 C350 1.428 1_545 S
H345 C341 0.930 . S
H346 C343 0.929 . S
S347 N348 1.613 . S
S347 N349 1.610 . S
N348 S347 1.613 . S
N348 C351 1.350 . S
N349 S347 1.610 . S
N349 C350 1.351 . S
C350 C344 1.428 1_565 S
C350 N349 1.351 . S
C350 C351 1.434 . S
C351 C342 1.429 1_565 S
C351 N348 1.350 . S
C351 C350 1.434 . S
C352 C353 1.369 . S
C352 C354 1.419 . S
C352 H356 0.930 . S
C353 C352 1.369 . S
C353 C362 1.429 . S
C354 C352 1.419 . S
C354 C355 1.363 . S
C354 H357 0.929 . S
C355 C354 1.363 . S
C355 C361 1.428 . S
H356 C352 0.930 . S
H357 C354 0.929 . S
S358 N359 1.613 . S
S358 N360 1.610 . S
N359 S358 1.613 . S
N359 C362 1.350 . S
N360 S358 1.610 . S
N360 C361 1.351 . S
C361 C355 1.428 . S
C361 N360 1.351 . S
C361 C362 1.434 . S
C362 C353 1.429 . S
C362 N359 1.350 . S
C362 C361 1.434 . S
C363 C364 1.369 1_545 S
C363 C365 1.419 . S
C363 H367 0.930 . S
C364 C363 1.369 1_565 S
C364 C373 1.429 . S
C365 C363 1.419 . S
C365 C366 1.372 . S
C365 H368 0.929 . S
C366 C365 1.372 . S
C366 C372 1.417 1_545 S
H367 C363 0.930 . S
H368 C365 0.929 . S
S369 N370 1.613 . S
S369 N371 1.610 . S
N370 S369 1.613 . S
N370 C373 1.350 . S
N371 S369 1.610 . S
N371 C372 1.351 . S
C372 C366 1.417 1_565 S
C372 N371 1.351 . S
C372 C373 1.434 . S
C373 C364 1.429 . S
C373 N370 1.350 . S
C373 C372 1.434 . S
C374 C375 1.369 . S
C374 C376 1.419 . S
C374 H378 0.930 . S
C375 C374 1.369 . S
C375 C384 1.429 . S
C376 C374 1.419 . S
C376 C377 1.363 1_556 S
C376 H379 0.929 1_556 S
C377 C376 1.363 1_554 S
C377 C383 1.428 . S
H378 C374 0.930 . S
H379 C376 0.929 1_554 S
S380 N381 1.613 . S
S380 N382 1.610 1_556 S
N381 S380 1.613 . S
N381 C384 1.350 . S
N382 S380 1.610 1_554 S
N382 C383 1.351 . S
C383 C377 1.428 . S
C383 N382 1.351 . S
C383 C384 1.434 1_554 S
C384 C375 1.429 . S
C384 N381 1.350 . S
C384 C383 1.434 1_556 S
C385 C386 1.369 . S
C385 C387 1.419 . S
C385 H389 0.930 . S
C386 C385 1.369 . S
C386 C395 1.429 . S
C387 C385 1.419 . S
C387 C388 1.363 . S
C387 H390 0.929 . S
C388 C387 1.363 . S
C388 C394 1.428 . S
H389 C385 0.930 . S
H390 C387 0.929 . S
S391 N392 1.613 . S
S391 N393 1.610 1_655 S
N392 S391 1.613 . S
N392 C395 1.350 1_655 S
N393 S391 1.610 1_455 S
N393 C394 1.351 . S
C394 C388 1.428 . S
C394 N393 1.351 . S
C394 C395 1.434 . S
C395 C386 1.429 . S
C395 N392 1.350 1_455 S
C395 C394 1.434 . S
C199 C24 3.087 . S
C201 C189 2.880 . S
C210 C66 1.217 . S
C212 C167 1.275 1_655 S
C221 C93 1.809 . S
C223 C180 1.781 . S
C232 C13 3.079 . S
C234 C193 3.042 . S
C245 C163 1.377 . S
C243 C57 1.392 . S
C256 C176 1.846 . S
C254 C104 2.024 . S
C265 C64 1.892 . S
C267 C141 1.849 . S
C276 C97 0.695 . S
C278 C154 0.645 . S
C287 C17 1.440 . S
C289 C124 1.443 . S
C300 C137 1.735 . S
C298 C53 1.909 . S
C311 C150 0.727 . S
C309 C106 0.727 . S
C320 C26 1.257 . S
C322 C128 1.311 . S
C333 C155 1.110 . S
C331 C2 1.103 . S
C342 C63 1.487 . S
C344 C129 1.573 . S
C353 C82 1.408 . S
C355 C142 1.422 . S
C366 C181 1.521 1_545 S
C364 C42 1.509 1_565 S
C377 C194 1.761 . S
C375 C103 1.736 . S
C386 C23 1.515 . S
C388 C168 1.571 . S
