# Generated by pormake.
# Topology eea, (3,6)-cn, num edge types: 1
# Building blocks:
#     Node 0, Type 0, BuildingBlock: BETDAH_clean_linker_0, # of connection points: 3
#     Node 1, Type 0, BuildingBlock: BETDAH_clean_linker_0, # of connection points: 3
#     Node 2, Type 0, BuildingBlock: BETDAH_clean_linker_0, # of connection points: 3
#     Node 3, Type 0, BuildingBlock: BETDAH_clean_linker_0, # of connection points: 3
#     Node 4, Type 0, BuildingBlock: BETDAH_clean_linker_0, # of connection points: 3
#     Node 5, Type 0, BuildingBlock: BETDAH_clean_linker_0, # of connection points: 3
#     Node 6, Type 0, BuildingBlock: BETDAH_clean_linker_0, # of connection points: 3
#     Node 7, Type 0, BuildingBlock: BETDAH_clean_linker_0, # of connection points: 3
#     Node 8, Type 0, BuildingBlock: BETDAH_clean_linker_0, # of connection points: 3
#     Node 9, Type 0, BuildingBlock: BETDAH_clean_linker_0, # of connection points: 3
#     Node 10, Type 0, BuildingBlock: BETDAH_clean_linker_0, # of connection points: 3
#     Node 11, Type 0, BuildingBlock: BETDAH_clean_linker_0, # of connection points: 3
#     Node 12, Type 0, BuildingBlock: BETDAH_clean_linker_0, # of connection points: 3
#     Node 13, Type 0, BuildingBlock: BETDAH_clean_linker_0, # of connection points: 3
#     Node 14, Type 0, BuildingBlock: BETDAH_clean_linker_0, # of connection points: 3
#     Node 15, Type 0, BuildingBlock: BETDAH_clean_linker_0, # of connection points: 3
#     Node 16, Type 0, BuildingBlock: BETDAH_clean_linker_0, # of connection points: 3
#     Node 17, Type 0, BuildingBlock: BETDAH_clean_linker_0, # of connection points: 3
#     Node 18, Type 1, BuildingBlock: KUMBUR_clean_sbu_0, # of connection points: 6
#     Node 19, Type 1, BuildingBlock: KUMBUR_clean_sbu_0, # of connection points: 6
#     Node 20, Type 1, BuildingBlock: KUMBUR_clean_sbu_0, # of connection points: 6
#     Node 21, Type 1, BuildingBlock: KUMBUR_clean_sbu_0, # of connection points: 6
#     Node 22, Type 1, BuildingBlock: KUMBUR_clean_sbu_0, # of connection points: 6
#     Node 23, Type 1, BuildingBlock: KUMBUR_clean_sbu_0, # of connection points: 6
#     Node 24, Type 1, BuildingBlock: KUMBUR_clean_sbu_0, # of connection points: 6
#     Node 25, Type 1, BuildingBlock: KUMBUR_clean_sbu_0, # of connection points: 6
#     Node 26, Type 1, BuildingBlock: KUMBUR_clean_sbu_0, # of connection points: 6
#     Edge 27, Type (0, 1), BuildingBlock: KIFKEQ_clean_linker_1, # of connection points: 2
#     Edge 28, Type (0, 1), BuildingBlock: KIFKEQ_clean_linker_1, # of connection points: 2
#     Edge 29, Type (0, 1), BuildingBlock: KIFKEQ_clean_linker_1, # of connection points: 2
#     Edge 30, Type (0, 1), BuildingBlock: KIFKEQ_clean_linker_1, # of connection points: 2
#     Edge 31, Type (0, 1), BuildingBlock: KIFKEQ_clean_linker_1, # of connection points: 2
#     Edge 32, Type (0, 1), BuildingBlock: KIFKEQ_clean_linker_1, # of connection points: 2
#     Edge 33, Type (0, 1), BuildingBlock: KIFKEQ_clean_linker_1, # of connection points: 2
#     Edge 34, Type (0, 1), BuildingBlock: KIFKEQ_clean_linker_1, # of connection points: 2
#     Edge 35, Type (0, 1), BuildingBlock: KIFKEQ_clean_linker_1, # of connection points: 2
#     Edge 36, Type (0, 1), BuildingBlock: KIFKEQ_clean_linker_1, # of connection points: 2
#     Edge 37, Type (0, 1), BuildingBlock: KIFKEQ_clean_linker_1, # of connection points: 2
#     Edge 38, Type (0, 1), BuildingBlock: KIFKEQ_clean_linker_1, # of connection points: 2
#     Edge 39, Type (0, 1), BuildingBlock: KIFKEQ_clean_linker_1, # of connection points: 2
#     Edge 40, Type (0, 1), BuildingBlock: KIFKEQ_clean_linker_1, # of connection points: 2
#     Edge 41, Type (0, 1), BuildingBlock: KIFKEQ_clean_linker_1, # of connection points: 2
#     Edge 42, Type (0, 1), BuildingBlock: KIFKEQ_clean_linker_1, # of connection points: 2
#     Edge 43, Type (0, 1), BuildingBlock: KIFKEQ_clean_linker_1, # of connection points: 2
#     Edge 44, Type (0, 1), BuildingBlock: KIFKEQ_clean_linker_1, # of connection points: 2
#     Edge 45, Type (0, 1), BuildingBlock: KIFKEQ_clean_linker_1, # of connection points: 2
#     Edge 46, Type (0, 1), BuildingBlock: KIFKEQ_clean_linker_1, # of connection points: 2
#     Edge 47, Type (0, 1), BuildingBlock: KIFKEQ_clean_linker_1, # of connection points: 2
#     Edge 48, Type (0, 1), BuildingBlock: KIFKEQ_clean_linker_1, # of connection points: 2
#     Edge 49, Type (0, 1), BuildingBlock: KIFKEQ_clean_linker_1, # of connection points: 2
#     Edge 50, Type (0, 1), BuildingBlock: KIFKEQ_clean_linker_1, # of connection points: 2
#     Edge 51, Type (0, 1), BuildingBlock: KIFKEQ_clean_linker_1, # of connection points: 2
#     Edge 52, Type (0, 1), BuildingBlock: KIFKEQ_clean_linker_1, # of connection points: 2
#     Edge 53, Type (0, 1), BuildingBlock: KIFKEQ_clean_linker_1, # of connection points: 2
#     Edge 54, Type (0, 1), BuildingBlock: KIFKEQ_clean_linker_1, # of connection points: 2
#     Edge 55, Type (0, 1), BuildingBlock: KIFKEQ_clean_linker_1, # of connection points: 2
#     Edge 56, Type (0, 1), BuildingBlock: KIFKEQ_clean_linker_1, # of connection points: 2
#     Edge 57, Type (0, 1), BuildingBlock: KIFKEQ_clean_linker_1, # of connection points: 2
#     Edge 58, Type (0, 1), BuildingBlock: KIFKEQ_clean_linker_1, # of connection points: 2
#     Edge 59, Type (0, 1), BuildingBlock: KIFKEQ_clean_linker_1, # of connection points: 2
#     Edge 60, Type (0, 1), BuildingBlock: KIFKEQ_clean_linker_1, # of connection points: 2
#     Edge 61, Type (0, 1), BuildingBlock: KIFKEQ_clean_linker_1, # of connection points: 2
#     Edge 62, Type (0, 1), BuildingBlock: KIFKEQ_clean_linker_1, # of connection points: 2
#     Edge 63, Type (0, 1), BuildingBlock: KIFKEQ_clean_linker_1, # of connection points: 2
#     Edge 64, Type (0, 1), BuildingBlock: KIFKEQ_clean_linker_1, # of connection points: 2
#     Edge 65, Type (0, 1), BuildingBlock: KIFKEQ_clean_linker_1, # of connection points: 2
#     Edge 66, Type (0, 1), BuildingBlock: KIFKEQ_clean_linker_1, # of connection points: 2
#     Edge 67, Type (0, 1), BuildingBlock: KIFKEQ_clean_linker_1, # of connection points: 2
#     Edge 68, Type (0, 1), BuildingBlock: KIFKEQ_clean_linker_1, # of connection points: 2
#     Edge 69, Type (0, 1), BuildingBlock: KIFKEQ_clean_linker_1, # of connection points: 2
#     Edge 70, Type (0, 1), BuildingBlock: KIFKEQ_clean_linker_1, # of connection points: 2
#     Edge 71, Type (0, 1), BuildingBlock: KIFKEQ_clean_linker_1, # of connection points: 2
#     Edge 72, Type (0, 1), BuildingBlock: KIFKEQ_clean_linker_1, # of connection points: 2
#     Edge 73, Type (0, 1), BuildingBlock: KIFKEQ_clean_linker_1, # of connection points: 2
#     Edge 74, Type (0, 1), BuildingBlock: KIFKEQ_clean_linker_1, # of connection points: 2
#     Edge 75, Type (0, 1), BuildingBlock: KIFKEQ_clean_linker_1, # of connection points: 2
#     Edge 76, Type (0, 1), BuildingBlock: KIFKEQ_clean_linker_1, # of connection points: 2
#     Edge 77, Type (0, 1), BuildingBlock: KIFKEQ_clean_linker_1, # of connection points: 2
#     Edge 78, Type (0, 1), BuildingBlock: KIFKEQ_clean_linker_1, # of connection points: 2
#     Edge 79, Type (0, 1), BuildingBlock: KIFKEQ_clean_linker_1, # of connection points: 2
#     Edge 80, Type (0, 1), BuildingBlock: KIFKEQ_clean_linker_1, # of connection points: 2
# Relax obj value: 0.023
# Max RMSD: 0.163
# Mean RMSD: 0.118
data_MOF--net-eea--node1-KUMBUR_clean_sbu_0--node2-BETDAH_clean_linker_0--edge1-KIFKEQ_clean_linker_1
_symmetry_space_group_name_H-M    P1
_symmetry_Int_Tables_number       1
_symmetry_cell_setting            triclinic
loop_
_symmetry_equiv_pos_as_xyz
'x, y, z'
_cell_length_a     55.549654
_cell_length_b     56.857954
_cell_length_c     67.034628
_cell_angle_alpha  90.010887
_cell_angle_beta   89.931536
_cell_angle_gamma 119.9936
loop_
_atom_site_label
_atom_site_type_symbol
_atom_site_fract_x
_atom_site_fract_y
_atom_site_fract_z
_atom_type_partial_charge
H0 H 0.24376 0.06967 0.44371 0.0
H1 H 0.2618 0.15111 0.42949 0.0
H2 H 0.22774 0.08853 0.38508 0.0
C3 C 0.24405 0.08442 0.43334 0.0
C4 C 0.23441 0.07597 0.41387 0.0
C5 C 0.25428 0.11157 0.43935 0.0
C6 C 0.25334 0.12994 0.42558 0.0
C7 C 0.24345 0.12142 0.40608 0.0
C8 C 0.23429 0.09463 0.40035 0.0
N9 N 0.2456 0.13996 0.39112 0.0
C10 C 0.2373 0.15914 0.39338 0.0
H11 H 0.94913 0.18035 0.44218 0.0
H12 H 0.87411 0.10404 0.43135 0.0
H13 H 0.93563 0.14089 0.38524 0.0
C14 C 0.9365 0.16324 0.43253 0.0
C15 C 0.94564 0.16301 0.41298 0.0
C16 C 0.91039 0.1423 0.43922 0.0
C17 C 0.89406 0.12037 0.42633 0.0
C18 C 0.90334 0.11978 0.4069 0.0
C19 C 0.92878 0.14129 0.40033 0.0
N20 N 0.88757 0.09846 0.39318 0.0
C21 C 0.86447 0.07341 0.39768 0.0
H22 H 0.83614 0.77212 0.43968 0.0
H23 H 0.91639 0.77875 0.43095 0.0
H24 H 0.88174 0.80686 0.38567 0.0
C25 C 0.85454 0.77829 0.43063 0.0
C26 C 0.85642 0.79018 0.41192 0.0
C27 C 0.87583 0.77372 0.43762 0.0
C28 C 0.89991 0.78213 0.42577 0.0
C29 C 0.90199 0.7941 0.40689 0.0
C30 C 0.8801 0.79773 0.40017 0.0
N31 N 0.92516 0.80261 0.39379 0.0
C32 C 0.94957 0.8016 0.39651 0.0
H33 H 0.072 0.23512 0.59957 0.0
H34 H 0.14718 0.23266 0.61153 0.0
H35 H 0.08486 0.20987 0.65706 0.0
C36 C 0.08456 0.23057 0.60946 0.0
C37 C 0.0751 0.22171 0.62902 0.0
C38 C 0.11082 0.23514 0.603 0.0
C39 C 0.12714 0.22951 0.61628 0.0
C40 C 0.11759 0.22008 0.63576 0.0
C41 C 0.09192 0.21675 0.64197 0.0
N42 N 0.13311 0.21437 0.64995 0.0
C43 C 0.15704 0.21262 0.64679 0.0
H44 H 0.76788 0.83572 0.59887 0.0
H45 H 0.76259 0.90684 0.61367 0.0
H46 H 0.79262 0.87245 0.65696 0.0
C47 C 0.7714 0.85168 0.6093 0.0
C48 C 0.78139 0.85155 0.62858 0.0
C49 C 0.76446 0.8715 0.60373 0.0
C50 C 0.76808 0.89165 0.61763 0.0
C51 C 0.77803 0.8916 0.63687 0.0
C52 C 0.7846 0.87175 0.64211 0.0
N53 N 0.78011 0.90998 0.65195 0.0
C54 C 0.78542 0.9363 0.64894 0.0
H55 H 0.17787 0.93503 0.59886 0.0
H56 H 0.09402 0.86757 0.60304 0.0
H57 H 0.1236 0.93295 0.64542 0.0
C58 C 0.15798 0.9247 0.60647 0.0
C59 C 0.1535 0.93704 0.62312 0.0
C60 C 0.13662 0.89981 0.59893 0.0
C61 C 0.11057 0.88671 0.60869 0.0
C62 C 0.10605 0.89869 0.62565 0.0
C63 C 0.12737 0.92385 0.63245 0.0
N64 N 0.08027 0.88698 0.63605 0.0
C65 C 0.05909 0.85994 0.6357 0.0
H66 H 0.91501 0.40733 0.7767 0.0
H67 H 0.8885 0.46666 0.78086 0.0
H68 H 0.84995 0.40155 0.73863 0.0
C69 C 0.90227 0.41552 0.77138 0.0
C70 C 0.88266 0.40181 0.75625 0.0
C71 C 0.90438 0.43877 0.78054 0.0
C72 C 0.88722 0.44887 0.7739 0.0
C73 C 0.86766 0.43534 0.75873 0.0
C74 C 0.86524 0.41179 0.75025 0.0
N75 N 0.84879 0.44379 0.75259 0.0
C76 C 0.85641 0.47059 0.74857 0.0
H77 H 0.6165 0.51434 0.7757 0.0
H78 H 0.54148 0.43849 0.76332 0.0
H79 H 0.60382 0.47705 0.718 0.0
C80 C 0.60403 0.49756 0.76575 0.0
C81 C 0.61345 0.49806 0.74617 0.0
C82 C 0.57775 0.47639 0.77204 0.0
C83 C 0.56159 0.45495 0.75869 0.0
C84 C 0.5712 0.45517 0.73923 0.0
C85 C 0.59678 0.47685 0.73313 0.0
N86 N 0.5556 0.43481 0.72486 0.0
C87 C 0.53255 0.40931 0.72824 0.0
H88 H 0.50683 0.11189 0.77508 0.0
H89 H 0.5855 0.11491 0.7658 0.0
H90 H 0.54756 0.13578 0.71834 0.0
C91 C 0.5246 0.11636 0.7658 0.0
C92 C 0.52492 0.12485 0.74607 0.0
C93 C 0.54609 0.11229 0.77326 0.0
C94 C 0.56865 0.11758 0.76045 0.0
C95 C 0.56918 0.12616 0.74059 0.0
C96 C 0.54713 0.12933 0.73362 0.0
N97 N 0.59074 0.13122 0.72668 0.0
C98 C 0.61659 0.13339 0.7301 0.0
H99 H 0.73663 0.56667 0.93062 0.0
H100 H 0.8112 0.56358 0.94297 0.0
H101 H 0.74819 0.53948 0.98793 0.0
C102 C 0.74888 0.56206 0.94075 0.0
C103 C 0.73859 0.55216 0.96006 0.0
C104 C 0.77518 0.5666 0.93443 0.0
C105 C 0.79108 0.56035 0.94761 0.0
C106 C 0.78096 0.55007 0.96681 0.0
C107 C 0.75511 0.54644 0.97285 0.0
N108 N 0.79608 0.54376 0.98096 0.0
C109 C 0.82037 0.54261 0.97799 0.0
H110 H 0.4348 0.16623 0.93211 0.0
H111 H 0.43263 0.23988 0.94353 0.0
H112 H 0.46468 0.20862 0.98776 0.0
C113 C 0.43884 0.18307 0.94177 0.0
C114 C 0.45021 0.18465 0.96082 0.0
C115 C 0.4324 0.20289 0.93521 0.0
C116 C 0.43801 0.22478 0.94801 0.0
C117 C 0.44951 0.22654 0.967 0.0
C118 C 0.45544 0.20659 0.97318 0.0
N119 N 0.45465 0.24747 0.98076 0.0
C120 C 0.45688 0.27225 0.97607 0.0
H121 H 0.84369 0.26671 0.93436 0.0
H122 H 0.75774 0.20275 0.93431 0.0
H123 H 0.78583 0.26928 0.97555 0.0
C124 C 0.82294 0.25731 0.94066 0.0
C125 C 0.81746 0.27053 0.95619 0.0
C126 C 0.80147 0.23311 0.93233 0.0
C127 C 0.77447 0.22131 0.94058 0.0
C128 C 0.76898 0.23421 0.95646 0.0
C129 C 0.79034 0.25904 0.96372 0.0
N130 N 0.74186 0.22427 0.96441 0.0
C131 C 0.72231 0.19713 0.96795 0.0
H132 H 0.57852 0.73791 0.11168 0.0
H133 H 0.59845 0.81974 0.09686 0.0
H134 H 0.56413 0.75695 0.05262 0.0
C135 C 0.5793 0.75273 0.10116 0.0
C136 C 0.5699 0.74429 0.08165 0.0
C137 C 0.5899 0.77999 0.10703 0.0
C138 C 0.58966 0.7985 0.09305 0.0
C139 C 0.58007 0.78999 0.0735 0.0
C140 C 0.57048 0.76307 0.06792 0.0
N141 N 0.58296 0.80864 0.05841 0.0
C142 C 0.57442 0.82768 0.06029 0.0
H143 H 0.28313 0.84403 0.10906 0.0
H144 H 0.20812 0.76844 0.0973 0.0
H145 H 0.27034 0.80493 0.05181 0.0
C146 C 0.27066 0.82739 0.09903 0.0
C147 C 0.28058 0.82717 0.07966 0.0
C148 C 0.24435 0.80653 0.10545 0.0
C149 C 0.22826 0.78467 0.09249 0.0
C150 C 0.23801 0.784 0.07326 0.0
C151 C 0.26375 0.80535 0.06696 0.0
N152 N 0.2224 0.76279 0.05942 0.0
C153 C 0.19889 0.73792 0.06367 0.0
H154 H 0.17086 0.44222 0.10936 0.0
H155 H 0.25018 0.44733 0.09945 0.0
H156 H 0.21137 0.46775 0.05245 0.0
C157 C 0.18832 0.44688 0.09972 0.0
C158 C 0.18833 0.45581 0.08011 0.0
C159 C 0.21033 0.44355 0.10702 0.0
C160 C 0.23304 0.44963 0.0942 0.0
C161 C 0.23342 0.45867 0.07452 0.0
C162 C 0.21106 0.46147 0.06775 0.0
N163 N 0.25519 0.46466 0.06058 0.0
C164 C 0.28085 0.46631 0.06372 0.0
H165 H 0.40367 0.90055 0.266 0.0
H166 H 0.47897 0.89843 0.27826 0.0
H167 H 0.41644 0.87559 0.32362 0.0
C168 C 0.41624 0.8961 0.27595 0.0
C169 C 0.40672 0.88728 0.29551 0.0
C170 C 0.44256 0.90073 0.26957 0.0
C171 C 0.45888 0.89522 0.28294 0.0
C172 C 0.44927 0.88585 0.30241 0.0
C173 C 0.42355 0.88244 0.30854 0.0
N174 N 0.46477 0.88029 0.31672 0.0
C175 C 0.48871 0.87851 0.31369 0.0
H176 H 0.10516 0.50271 0.26365 0.0
H177 H 0.13051 0.58781 0.2634 0.0
H178 H 0.1653 0.55707 0.30619 0.0
C179 C 0.1172 0.52282 0.27007 0.0
C180 C 0.1354 0.52709 0.28601 0.0
C181 C 0.11559 0.54469 0.26166 0.0
C182 C 0.13164 0.57089 0.2698 0.0
C183 C 0.14945 0.57517 0.28598 0.0
C184 C 0.15142 0.5534 0.29374 0.0
N185 N 0.16653 0.60113 0.29454 0.0
C186 C 0.16176 0.62286 0.29352 0.0
H187 H 0.51021 0.60134 0.26573 0.0
H188 H 0.42654 0.5336 0.27016 0.0
H189 H 0.45613 0.59897 0.31254 0.0
C190 C 0.49038 0.59094 0.27341 0.0
C191 C 0.48593 0.60323 0.29011 0.0
C192 C 0.46906 0.56598 0.26592 0.0
C193 C 0.44307 0.55278 0.27577 0.0
C194 C 0.43858 0.56471 0.29278 0.0
C195 C 0.45988 0.58992 0.29953 0.0
N196 N 0.41287 0.55292 0.30329 0.0
C197 C 0.39162 0.52589 0.30293 0.0
Tb198 Tb 0.49694 0.9902 0.99623 0.0
C199 C 0.55035 0.08105 0.05898 0.0
C200 C 0.59913 0.09504 0.05729 0.0
C201 C 0.58503 0.12758 0.06699 0.0
C202 C 0.57094 0.07506 0.05498 0.0
C203 C 0.55701 0.10717 0.06552 0.0
C204 C 0.60609 0.12153 0.06284 0.0
C205 C 0.50794 0.09022 0.07027 0.0
N206 N 0.52366 0.06071 0.05748 0.0
C207 C 0.50245 0.06465 0.06369 0.0
C208 C 0.53533 0.1117 0.07093 0.0
Tb209 Tb 0.51639 0.01969 0.04588 0.0
N210 N 0.56322 0.04916 0.04991 0.0
C211 C 0.58286 0.04142 0.04849 0.0
C212 C 0.61936 0.08756 0.05455 0.0
C213 C 0.61114 0.06052 0.05045 0.0
H214 H 0.48118 0.04829 0.06309 0.0
H215 H 0.62658 0.05436 0.04872 0.0
H216 H 0.62763 0.13725 0.06449 0.0
H217 H 0.49103 0.09337 0.07475 0.0
H218 H 0.57713 0.02073 0.04519 0.0
H219 H 0.38703 0.95608 0.99116 0.0
H220 H 0.64126 0.1023 0.05611 0.0
H221 H 0.5324 0.96092 0.9809 0.0
H222 H 0.43644 0.98964 0.99515 0.0
H223 H 0.52257 0.91534 0.97048 0.0
H224 H 0.59062 0.14788 0.07179 0.0
H225 H 0.37229 0.90788 0.98485 0.0
H226 H 0.38586 0.87253 0.97792 0.0
H227 H 0.53954 0.13147 0.07605 0.0
H228 H 0.42286 0.86144 0.97201 0.0
N229 N 0.45021 0.96089 0.99178 0.0
C230 C 0.43066 0.96881 0.99236 0.0
C231 C 0.39416 0.92257 0.98663 0.0
C232 C 0.41435 0.91488 0.98472 0.0
C233 C 0.40242 0.94976 0.99011 0.0
C234 C 0.4425 0.93482 0.98725 0.0
H235 H 0.47399 0.87742 0.96886 0.0
N236 N 0.48982 0.9489 0.98553 0.0
C237 C 0.50563 0.91877 0.97428 0.0
C238 C 0.46311 0.92861 0.98389 0.0
C239 C 0.51111 0.94461 0.98012 0.0
C240 C 0.47819 0.8974 0.97344 0.0
C241 C 0.45647 0.90226 0.97799 0.0
O242 O 0.51926 1.00057 0.96904 0.0
O243 O 0.52797 0.02172 0.0149 0.0
O244 O 0.51217 0.04915 0.02723 0.0
O245 O 0.48414 0.02058 1.00169 0.0
O246 O 0.54181 0.00571 0.9938 0.0
O247 O 0.48465 0.00698 0.97312 0.0
O248 O 0.4939 0.00828 0.07301 0.0
O249 O 0.48517 0.98851 0.02711 0.0
O250 O 0.49948 0.96047 0.01545 0.0
O251 O 0.52924 0.98926 0.04009 0.0
O252 O 0.47168 0.00473 0.04833 0.0
O253 O 0.52897 0.00271 0.06869 0.0
C254 C 0.54987 0.02407 1.00735 0.0
C255 C 0.49432 0.99965 0.94005 0.0
C256 C 0.49576 0.0099 0.90432 0.0
C257 C 0.50588 0.01807 0.92392 0.0
C258 C 0.47438 0.98306 0.9011 0.0
C259 C 0.47319 0.97294 0.93632 0.0
C260 C 0.46337 0.96472 0.91696 0.0
C261 C 0.49556 0.04391 0.01159 0.0
C262 C 0.50356 0.00874 0.96073 0.0
C263 C 0.42844 0.88191 0.97635 0.0
C264 C 0.40739 0.88821 0.97973 0.0
C265 C 0.46344 0.98674 0.03451 0.0
C266 C 0.51929 0.00972 0.10186 0.0
C267 C 0.50689 0.99181 0.11817 0.0
C268 C 0.51696 1.00012 0.13778 0.0
C269 C 0.53914 0.02668 0.14077 0.0
C270 C 0.54124 0.0361 0.10538 0.0
C271 C 0.55101 0.0445 0.12472 0.0
C272 C 0.51694 0.9657 0.03046 0.0
C273 C 0.50998 1.00049 0.08119 0.0
H274 H 0.52209 0.03881 0.92669 0.0
H275 H 0.46624 0.97624 0.88623 0.0
H276 H 0.46405 0.95853 0.94841 0.0
H277 H 0.44696 0.94409 0.91424 0.0
H278 H 0.48999 0.97134 0.11555 0.0
H279 H 0.54719 0.03375 0.15562 0.0
H280 H 0.55104 0.05012 0.09316 0.0
H281 H 0.56802 0.0649 0.12727 0.0
Tb282 Tb 0.02459 0.50614 0.99782 0.0
C283 C 0.92477 0.46592 0.05426 0.0
C284 C 0.9109 0.4998 0.05111 0.0
C285 C 0.87634 0.45313 0.05895 0.0
C286 C 0.93148 0.49221 0.05032 0.0
C287 C 0.89731 0.44617 0.05924 0.0
C288 C 0.88313 0.47994 0.05485 0.0
C289 C 0.91408 0.4153 0.06667 0.0
N290 N 0.94572 0.46024 0.05464 0.0
C291 C 0.94101 0.43571 0.06173 0.0
C292 C 0.89202 0.4204 0.0651 0.0
Tb293 Tb 0.98898 0.49439 0.0453 0.0
N294 N 0.95857 0.5107 0.04699 0.0
C295 C 0.96678 0.53774 0.04606 0.0
C296 C 0.919 0.52721 0.04879 0.0
C297 C 0.94715 0.54632 0.04663 0.0
H298 H 0.95788 0.43153 0.06298 0.0
H299 H 0.95375 0.56767 0.04528 0.0
H300 H 0.86695 0.48528 0.05525 0.0
H301 H 0.91036 0.39568 0.0717 0.0
H302 H 0.98835 0.55288 0.04421 0.0
H303 H 0.05548 0.42971 0.99547 0.0
H304 H 0.90385 0.53389 0.04921 0.0
H305 H 0.05883 0.57083 0.98422 0.0
H306 H 0.02231 0.44628 0.99711 0.0
H307 H 0.10738 0.60597 0.97712 0.0
H308 H 0.85503 0.43818 0.06249 0.0
H309 H 0.10589 0.46224 0.99271 0.0
H310 H 0.1444 0.51063 0.98853 0.0
H311 H 0.87121 0.40462 0.06905 0.0
H312 H 0.15859 0.55876 0.98337 0.0
N313 N 0.05345 0.48817 0.99571 0.0
C314 C 0.04415 0.46088 0.99577 0.0
C315 C 0.09139 0.46971 0.99338 0.0
C316 C 0.10066 0.4975 0.99208 0.0
C317 C 0.06295 0.4513 0.99487 0.0
C318 C 0.08089 0.50611 0.99312 0.0
H319 H 0.14483 0.59447 0.9787 0.0
N320 N 0.06878 0.53989 0.99021 0.0
C321 C 0.10248 0.58553 0.98087 0.0
C322 C 0.08887 0.533 0.99023 0.0
C323 C 0.07498 0.56555 0.98482 0.0
C324 C 0.12357 0.57898 0.98184 0.0
C325 C 0.11683 0.55232 0.98624 0.0
O326 O 0.01913 0.52019 0.97006 0.0
O327 O 0.99036 0.50473 0.01414 0.0
O328 O 0.96073 0.46062 0.02614 0.0
O329 O 0.99088 0.46338 1.00049 0.0
O330 O 0.00973 0.53512 0.99384 0.0
O331 O 0.01103 0.47917 0.97354 0.0
O332 O 1.00028 0.48412 0.07252 0.0
O333 O 0.02276 0.4953 0.02871 0.0
O334 O 0.05303 0.53712 0.01868 0.0
O335 O 0.02121 0.5376 0.04106 0.0
O336 O 1.00387 0.4654 0.04932 0.0
O337 O 1.00027 0.52167 0.06944 0.0
C338 C 0.9893 0.52431 1.00617 0.0
C339 C 0.02552 0.4992 0.94174 0.0
C340 C 0.02188 0.49465 0.90545 0.0
C341 C 0.00991 0.49392 0.92414 0.0
C342 C 0.04983 0.50109 0.90465 0.0
C343 C 0.05333 0.50557 0.94059 0.0
C344 C 0.06542 0.50659 0.92212 0.0
C345 C 0.96692 0.45059 0.01035 0.0
C346 C 0.0122 0.49734 0.96111 0.0
C347 C 0.13692 0.54418 0.98619 0.0
C348 C 0.12884 0.51679 0.98913 0.0
C349 C 0.02372 0.47558 0.03649 0.0
C350 C 0.99141 0.50175 0.10156 0.0
C351 C 0.00863 0.50943 0.11848 0.0
C352 C 0.99717 0.50425 0.1379 0.0
C353 C 0.96802 0.49129 0.13987 0.0
C354 C 0.96257 0.48939 0.10398 0.0
C355 C 0.95098 0.48418 0.12305 0.0
C356 C 0.04641 0.54894 0.03299 0.0
C357 C 1.00389 0.50585 0.08157 0.0
H358 H 0.98829 0.48864 0.92506 0.0
H359 H 0.05969 0.50206 0.89048 0.0
H360 H 0.06564 0.50959 0.95391 0.0
H361 H 0.08692 0.51155 0.92134 0.0
H362 H 0.03094 0.51951 0.1164 0.0
H363 H 0.9582 0.48618 0.1544 0.0
H364 H 0.94901 0.48357 0.0912 0.0
H365 H 0.92865 0.4743 0.12481 0.0
Tb366 Tb 0.52211 0.50348 0.04324 0.0
C367 C 0.46733 0.54467 0.98348 0.0
C368 C 0.41848 0.51122 0.98523 0.0
C369 C 0.43281 0.55792 0.97658 0.0
C370 C 0.44665 0.5185 0.98719 0.0
C371 C 0.46079 0.56463 0.97764 0.0
C372 C 0.41166 0.53123 0.98041 0.0
C373 C 0.50985 0.5955 0.97273 0.0
N374 N 0.49398 0.55016 0.98457 0.0
C375 C 0.51523 0.57497 0.97865 0.0
C376 C 0.48252 0.59043 0.97249 0.0
Tb377 Tb 0.50106 0.51563 0.99493 0.0
N378 N 0.45423 0.49982 0.99151 0.0
C379 C 0.43445 0.47288 0.99242 0.0
C380 C 0.39814 0.48394 0.9875 0.0
C381 C 0.4062 0.46463 0.99078 0.0
H382 H 0.53647 0.57926 0.97893 0.0
H383 H 0.39067 0.44336 0.99212 0.0
H384 H 0.39014 0.52611 0.97905 0.0
H385 H 0.52679 0.61524 0.96845 0.0
H386 H 0.44007 0.45757 0.99506 0.0
H387 H 0.63194 0.57741 0.04685 0.0
H388 H 0.37626 0.47749 0.98621 0.0
H389 H 0.48785 0.43895 0.05729 0.0
H390 H 0.58223 0.56232 0.04435 0.0
H391 H 0.49861 0.4029 0.06555 0.0
H392 H 0.42731 0.57302 0.97233 0.0
H393 H 0.64741 0.54376 0.05088 0.0
H394 H 0.63463 0.495 0.05603 0.0
H395 H 0.47839 0.60634 0.9679 0.0
H396 H 0.59825 0.44737 0.06134 0.0
N397 N 0.56907 0.52012 0.04641 0.0
C398 C 0.58837 0.54723 0.04619 0.0
C399 C 0.62543 0.53693 0.04979 0.0
C400 C 0.60554 0.50937 0.05128 0.0
C401 C 0.61676 0.55597 0.04758 0.0
C402 C 0.57722 0.50161 0.04967 0.0
H403 H 0.54739 0.41287 0.06528 0.0
N404 N 0.53008 0.46897 0.05198 0.0
C405 C 0.51523 0.42309 0.06187 0.0
C406 C 0.55695 0.47502 0.05265 0.0
C407 C 0.50923 0.44361 0.05725 0.0
C408 C 0.54278 0.42877 0.06165 0.0
C409 C 0.56411 0.45513 0.0573 0.0
O410 O 0.50069 0.4907 0.07066 0.0
O411 O 0.4902 0.5052 0.02593 0.0
O412 O 0.50493 0.54806 0.01464 0.0
O413 O 0.53401 0.54647 0.03913 0.0
O414 O 0.47735 0.47488 0.04636 0.0
O415 O 0.5357 0.53091 0.06729 0.0
O416 O 0.52267 0.52688 0.96749 0.0
O417 O 0.53303 0.51433 0.01242 0.0
O418 O 0.51897 0.4721 0.02285 0.0
O419 O 0.48796 0.47243 0.99965 0.0
O420 O 0.54583 0.54437 0.99192 0.0
O421 O 0.48754 0.48694 0.97172 0.0
C422 C 0.46865 0.4857 0.03356 0.0
C423 C 0.52718 0.51164 0.09957 0.0
C424 C 0.52674 0.51691 0.13585 0.0
C425 C 0.51639 0.5175 0.11674 0.0
C426 C 0.54762 0.50988 0.13748 0.0
C427 C 0.54794 0.50466 0.10166 0.0
C428 C 0.55799 0.5037 0.12052 0.0
C429 C 0.52195 0.55869 0.03008 0.0
C430 C 0.51717 0.51353 0.07959 0.0
C431 C 0.59227 0.4624 0.05799 0.0
C432 C 0.61298 0.4895 0.05496 0.0
C433 C 0.55462 0.53391 1.00494 0.0
C434 C 0.49638 0.5043 0.93885 0.0
C435 C 0.50907 0.49974 0.9222 0.0
C436 C 0.49877 0.49868 0.90279 0.0
C437 C 0.47596 0.50273 0.90031 0.0
C438 C 0.4738 0.50846 0.93594 0.0
C439 C 0.46373 0.50775 0.91676 0.0
C440 C 0.50084 0.46071 1.00817 0.0
C441 C 0.50619 0.5036 0.95916 0.0
H442 H 0.5005 0.52313 0.11518 0.0
H443 H 0.55582 0.50901 0.15194 0.0
H444 H 0.55652 0.50015 0.08873 0.0
H445 H 0.57403 0.4983 0.12199 0.0
H446 H 0.52643 0.49634 0.92439 0.0
H447 H 0.46772 0.50223 0.88558 0.0
H448 H 0.46377 0.51197 0.94849 0.0
H449 H 0.44625 0.51092 0.91464 0.0
Tb450 Tb 0.16096 0.32295 0.32993 0.0
C451 C 0.21696 0.41477 0.39141 0.0
C452 C 0.2655 0.42784 0.38963 0.0
C453 C 0.25236 0.46132 0.39865 0.0
C454 C 0.23716 0.40817 0.38758 0.0
C455 C 0.22418 0.44125 0.39741 0.0
C456 C 0.27301 0.45462 0.39475 0.0
C457 C 0.17529 0.42543 0.40195 0.0
N458 N 0.19009 0.39475 0.39014 0.0
C459 C 0.16924 0.39945 0.39599 0.0
C460 C 0.20288 0.44653 0.40244 0.0
Tb461 Tb 0.18193 0.35314 0.37924 0.0
N462 N 0.22892 0.38204 0.38288 0.0
C463 C 0.24818 0.37379 0.38155 0.0
C464 C 0.28532 0.41981 0.38705 0.0
C465 C 0.27658 0.39256 0.3833 0.0
H466 H 0.14782 0.38338 0.39553 0.0
H467 H 0.2917 0.38599 0.38167 0.0
H468 H 0.29468 0.4701 0.39621 0.0
H469 H 0.15867 0.42917 0.40613 0.0
H470 H 0.24202 0.35294 0.37852 0.0
H471 H 0.05121 0.28997 0.32608 0.0
H472 H 0.30732 0.43429 0.38842 0.0
H473 H 0.19539 0.29277 0.31419 0.0
H474 H 0.10083 0.32313 0.3295 0.0
H475 H 0.18477 0.24691 0.30396 0.0
H476 H 0.25838 0.48187 0.40306 0.0
H477 H 0.03575 0.24155 0.32003 0.0
H478 H 0.04859 0.2057 0.31299 0.0
H479 H 0.20753 0.46661 0.40711 0.0
H480 H 0.08505 0.19398 0.30669 0.0
N481 N 0.11404 0.29398 0.32601 0.0
C482 C 0.09474 0.30222 0.32679 0.0
C483 C 0.05772 0.25608 0.32153 0.0
C484 C 0.07762 0.24805 0.31942 0.0
C485 C 0.06638 0.28339 0.32487 0.0
C486 C 0.10591 0.26778 0.32161 0.0
H487 H 0.13597 0.20935 0.30294 0.0
N488 N 0.15305 0.28131 0.31933 0.0
C489 C 0.16807 0.25063 0.30795 0.0
C490 C 0.12621 0.26121 0.31804 0.0
C491 C 0.174 0.27664 0.31369 0.0
C492 C 0.14052 0.22946 0.30745 0.0
C493 C 0.11912 0.2347 0.31224 0.0
O494 O 0.18286 0.33296 0.30259 0.0
O495 O 0.19278 0.35441 0.34819 0.0
O496 O 0.17846 0.38267 0.3602 0.0
O497 O 0.14874 0.35379 0.33551 0.0
O498 O 0.20564 0.33769 0.32699 0.0
O499 O 0.1485 0.3397 0.30689 0.0
O500 O 0.1603 0.3431 0.40671 0.0
O501 O 0.15005 0.32195 0.36092 0.0
O502 O 0.16352 0.29322 0.34916 0.0
O503 O 0.19393 0.32206 0.37353 0.0
O504 O 0.13733 0.33863 0.38228 0.0
O505 O 0.19435 0.336 0.40202 0.0
C506 C 0.21432 0.35617 0.34047 0.0
C507 C 0.15755 0.33177 0.2738 0.0
C508 C 0.15907 0.34139 0.23797 0.0
C509 C 0.16938 0.34979 0.25749 0.0
C510 C 0.13722 0.3147 0.235 0.0
C511 C 0.13594 0.30519 0.27034 0.0
C512 C 0.12593 0.29673 0.25104 0.0
C513 C 0.16113 0.37741 0.34505 0.0
C514 C 0.16713 0.34115 0.29436 0.0
C515 C 0.09097 0.21456 0.31094 0.0
C516 C 0.07022 0.22123 0.31454 0.0
C517 C 0.1286 0.32046 0.36858 0.0
C518 C 0.18596 0.34405 0.43526 0.0
C519 C 0.1738 0.32633 0.45169 0.0
C520 C 0.18444 0.33468 0.47117 0.0
C521 C 0.20698 0.36111 0.4739 0.0
C522 C 0.20828 0.37031 0.43852 0.0
C523 C 0.21863 0.37876 0.45774 0.0
C524 C 0.18122 0.29841 0.36401 0.0
C525 C 0.17597 0.3347 0.41474 0.0
H526 H 0.18597 0.37043 0.26005 0.0
H527 H 0.12892 0.30772 0.22019 0.0
H528 H 0.1266 0.29108 0.28258 0.0
H529 H 0.10915 0.27621 0.24853 0.0
H530 H 0.15663 0.30594 0.44925 0.0
H531 H 0.21547 0.36822 0.48865 0.0
H532 H 0.21788 0.3842 0.4262 0.0
H533 H 0.23592 0.39907 0.4601 0.0
Tb534 Tb 0.69242 0.8409 0.33233 0.0
C535 C 0.59282 0.79922 0.3892 0.0
C536 C 0.57874 0.83306 0.38729 0.0
C537 C 0.5444 0.78609 0.39447 0.0
C538 C 0.59938 0.82562 0.38586 0.0
C539 C 0.56541 0.77918 0.39401 0.0
C540 C 0.55106 0.81302 0.39109 0.0
C541 C 0.58212 0.74775 0.39915 0.0
N542 N 0.61376 0.79355 0.38874 0.0
C543 C 0.609 0.7684 0.39433 0.0
C544 C 0.56014 0.75306 0.39875 0.0
Tb545 Tb 0.65693 0.82826 0.37987 0.0
N546 N 0.6264 0.8443 0.38247 0.0
C547 C 0.63448 0.87132 0.38202 0.0
C548 C 0.5867 0.8605 0.38551 0.0
C549 C 0.61477 0.87976 0.38321 0.0
H550 H 0.62577 0.76398 0.39451 0.0
H551 H 0.62126 0.90112 0.38224 0.0
H552 H 0.53484 0.81826 0.392 0.0
H553 H 0.57838 0.72774 0.40312 0.0
H554 H 0.65599 0.88658 0.3801 0.0
H555 H 0.72781 0.76788 0.32904 0.0
H556 H 0.57148 0.86708 0.38642 0.0
H557 H 0.72416 0.90575 0.31882 0.0
H558 H 0.69307 0.78246 0.33119 0.0
H559 H 0.77193 0.94223 0.31144 0.0
H560 H 0.52313 0.77093 0.39793 0.0
H561 H 0.77773 0.80198 0.3259 0.0
H562 H 0.81464 0.85097 0.32155 0.0
H563 H 0.53936 0.73706 0.40253 0.0
H564 H 0.82671 0.89857 0.31663 0.0
N565 N 0.72283 0.82477 0.32969 0.0
C566 C 0.71467 0.79772 0.3297 0.0
C567 C 0.76253 0.80858 0.32679 0.0
C568 C 0.77061 0.8361 0.32557 0.0
C569 C 0.73437 0.78928 0.32849 0.0
C570 C 0.74997 0.84356 0.32692 0.0
H571 H 0.81082 0.93276 0.31248 0.0
N572 N 0.73589 0.87599 0.32458 0.0
C573 C 0.76798 0.92207 0.31512 0.0
C574 C 0.75678 0.87018 0.32422 0.0
C575 C 0.7409 0.9013 0.31926 0.0
C576 C 0.78989 0.91667 0.31577 0.0
C577 C 0.78437 0.89034 0.32003 0.0
O578 O 0.68255 0.85323 0.30548 0.0
O579 O 0.658 0.83886 0.34889 0.0
O580 O 0.6286 0.79624 0.35944 0.0
O581 O 0.6601 0.7976 0.3357 0.0
O582 O 0.6771 0.86962 0.32887 0.0
O583 O 0.68212 0.81525 0.30724 0.0
O584 O 0.66431 0.81611 0.40786 0.0
O585 O 0.69063 0.82949 0.3631 0.0
O586 O 0.72078 0.87197 0.35313 0.0
O587 O 0.68889 0.87164 0.37591 0.0
O588 O 0.6727 0.79988 0.38387 0.0
O589 O 0.67203 0.85675 0.40319 0.0
C590 C 0.65679 0.85854 0.34128 0.0
C591 C 0.69247 0.83758 0.27591 0.0
C592 C 0.68817 0.8375 0.23965 0.0
C593 C 0.67586 0.83048 0.2587 0.0
C594 C 0.71729 0.8515 0.23805 0.0
C595 C 0.72148 0.85117 0.27398 0.0
C596 C 0.7338 0.8581 0.25513 0.0
C597 C 0.63521 0.78538 0.34437 0.0
C598 C 0.67919 0.83206 0.29568 0.0
C599 C 0.80531 0.88334 0.31962 0.0
C600 C 0.79843 0.85624 0.32242 0.0
C601 C 0.69228 0.81017 0.37087 0.0
C602 C 0.65963 0.83898 0.43575 0.0
C603 C 0.67586 0.84425 0.45305 0.0
C604 C 0.66512 0.84529 0.47189 0.0
C605 C 0.6378 0.84062 0.47315 0.0
C606 C 0.6324 0.83425 0.43739 0.0
C607 C 0.62155 0.835 0.45601 0.0
C608 C 0.71403 0.88338 0.36767 0.0
C609 C 0.67175 0.83949 0.4161 0.0
H610 H 0.65341 0.82004 0.26013 0.0
H611 H 0.72727 0.85695 0.22356 0.0
H612 H 0.73462 0.85664 0.28697 0.0
H613 H 0.75621 0.8687 0.25376 0.0
H614 H 0.697 0.84813 0.4518 0.0
H615 H 0.62889 0.84103 0.48744 0.0
H616 H 0.61961 0.83021 0.42431 0.0
H617 H 0.60052 0.83136 0.45715 0.0
Tb618 Tb 0.18956 0.83588 0.37666 0.0
C619 C 0.13317 0.87444 0.31643 0.0
C620 C 0.08464 0.84011 0.31843 0.0
C621 C 0.09771 0.88641 0.30945 0.0
C622 C 0.11299 0.84812 0.32034 0.0
C623 C 0.1259 0.89382 0.31043 0.0
C624 C 0.07708 0.85957 0.31349 0.0
C625 C 0.1747 0.92549 0.30513 0.0
N626 N 0.16004 0.8806 0.31744 0.0
C627 C 0.18081 0.9055 0.31122 0.0
C628 C 0.14714 0.91976 0.30501 0.0
Tb629 Tb 0.1683 0.84695 0.32807 0.0
N630 N 0.12127 0.82998 0.32476 0.0
C631 C 0.10205 0.80289 0.32581 0.0
C632 C 0.06484 0.81268 0.32087 0.0
C633 C 0.07363 0.79393 0.32424 0.0
H634 H 0.2022 0.91027 0.31142 0.0
H635 H 0.05853 0.77255 0.3257 0.0
H636 H 0.0554 0.8539 0.31218 0.0
H637 H 0.19125 0.94532 0.30063 0.0
H638 H 0.10827 0.78801 0.32851 0.0
H639 H 0.29886 0.9114 0.38082 0.0
H640 H 0.04283 0.80568 0.31962 0.0
H641 H 0.15625 0.7712 0.39039 0.0
H642 H 0.24898 0.8954 0.37802 0.0
H643 H 0.1679 0.73575 0.39866 0.0
H644 H 0.09166 0.90107 0.30508 0.0
H645 H 0.31525 0.87847 0.38498 0.0
H646 H 0.30341 0.82998 0.39012 0.0
H647 H 0.14245 0.93525 0.30028 0.0
H648 H 0.26768 0.78206 0.39522 0.0
N649 N 0.23662 0.85338 0.38009 0.0
C650 C 0.25552 0.8806 0.37992 0.0
C651 C 0.29319 0.87124 0.38378 0.0
C652 C 0.2737 0.84355 0.38518 0.0
C653 C 0.284 0.88987 0.3815 0.0
C654 C 0.24526 0.83525 0.38342 0.0
H655 H 0.21701 0.74677 0.39878 0.0
N656 N 0.19832 0.8019 0.38547 0.0
C657 C 0.18428 0.75613 0.39514 0.0
C658 C 0.22536 0.8085 0.38632 0.0
C659 C 0.17776 0.7763 0.39053 0.0
C660 C 0.21202 0.7624 0.39514 0.0
C661 C 0.23302 0.78898 0.39099 0.0
O662 O 0.16819 0.82276 0.40407 0.0
O663 O 0.15742 0.83678 0.35909 0.0
O664 O 0.17187 0.87965 0.34739 0.0
O665 O 0.20071 0.87861 0.37235 0.0
O666 O 0.14489 0.80665 0.3796 0.0
O667 O 0.20241 0.86343 0.40062 0.0
O668 O 0.18981 0.85835 0.3006 0.0
O669 O 0.20054 0.84679 0.34588 0.0
O670 O 0.18811 0.80526 0.35632 0.0
O671 O 0.15658 0.804 0.33292 0.0
O672 O 0.21301 0.87616 0.32492 0.0
O673 O 0.15528 0.8181 0.30499 0.0
C674 C 0.13597 0.81716 0.36669 0.0
C675 C 0.19446 0.84434 0.43293 0.0
C676 C 0.19428 0.85015 0.46916 0.0
C677 C 0.18368 0.85031 0.45005 0.0
C678 C 0.21538 0.84344 0.47083 0.0
C679 C 0.21545 0.8377 0.43506 0.0
C680 C 0.22575 0.83717 0.45391 0.0
C681 C 0.18863 0.89055 0.36295 0.0
C682 C 0.18418 0.84578 0.41294 0.0
C683 C 0.26132 0.79679 0.39184 0.0
C684 C 0.28165 0.82406 0.38892 0.0
C685 C 0.22202 0.86637 0.33831 0.0
C686 C 0.16349 0.8353 0.2721 0.0
C687 C 0.17612 0.83081 0.25538 0.0
C688 C 0.16555 0.82952 0.23603 0.0
C689 C 0.14254 0.83328 0.23367 0.0
C690 C 0.14068 0.83914 0.26931 0.0
C691 C 0.13035 0.8382 0.25019 0.0
C692 C 0.17049 0.79334 0.34144 0.0
C693 C 0.17364 0.83492 0.29235 0.0
H694 H 0.16761 0.85569 0.44846 0.0
H695 H 0.22377 0.84289 0.48529 0.0
H696 H 0.22402 0.83311 0.42217 0.0
H697 H 0.24197 0.83202 0.45542 0.0
H698 H 0.19365 0.82765 0.25748 0.0
H699 H 0.13411 0.83262 0.21899 0.0
H700 H 0.13067 0.84257 0.28191 0.0
H701 H 0.1127 0.84114 0.24817 0.0
Tb702 Tb 0.82918 0.6565 0.66193 0.0
C703 C 0.88484 0.74823 0.7238 0.0
C704 C 0.93325 0.76086 0.72202 0.0
C705 C 0.92054 0.79451 0.73145 0.0
C706 C 0.90486 0.74144 0.71984 0.0
C707 C 0.89229 0.77463 0.73016 0.0
C708 C 0.94102 0.78763 0.72734 0.0
C709 C 0.84353 0.75896 0.73523 0.0
N710 N 0.85791 0.72836 0.72253 0.0
C711 C 0.83724 0.73308 0.72882 0.0
C712 C 0.87117 0.77996 0.73563 0.0
Tb713 Tb 0.8493 0.68677 0.71128 0.0
N714 N 0.89636 0.71527 0.71506 0.0
C715 C 0.91538 0.70671 0.71386 0.0
C716 C 0.95286 0.75255 0.71945 0.0
C717 C 0.94384 0.72524 0.71568 0.0
H718 H 0.81578 0.71709 0.72842 0.0
H719 H 0.95878 0.71844 0.71412 0.0
H720 H 0.96273 0.80294 0.7289 0.0
H721 H 0.82705 0.76272 0.73978 0.0
H722 H 0.90899 0.68578 0.71087 0.0
H723 H 0.71969 0.62432 0.65739 0.0
H724 H 0.9749 0.76683 0.72091 0.0
H725 H 0.86336 0.62583 0.64677 0.0
H726 H 0.7694 0.65726 0.6609 0.0
H727 H 0.85245 0.57981 0.6367 0.0
H728 H 0.92675 0.81502 0.73611 0.0
H729 H 0.70392 0.57576 0.65171 0.0
H730 H 0.71643 0.53958 0.64511 0.0
H731 H 0.876 0.79997 0.74063 0.0
H732 H 0.75267 0.52746 0.63918 0.0
N733 N 0.78225 0.62779 0.6579 0.0
C734 C 0.76313 0.63625 0.65839 0.0
C735 C 0.7259 0.59017 0.65328 0.0
C736 C 0.74565 0.5819 0.65145 0.0
C737 C 0.73474 0.61756 0.65641 0.0
C738 C 0.77398 0.60149 0.65372 0.0
H739 H 0.80354 0.54248 0.63561 0.0
N740 N 0.82107 0.61466 0.65173 0.0
C741 C 0.83584 0.58369 0.64059 0.0
C742 C 0.79416 0.59469 0.65039 0.0
C743 C 0.84193 0.60979 0.64626 0.0
C744 C 0.80822 0.56265 0.64005 0.0
C745 C 0.78692 0.5681 0.6447 0.0
O746 O 0.85157 0.66629 0.63481 0.0
O747 O 0.86068 0.68801 0.68034 0.0
O748 O 0.84563 0.71637 0.69234 0.0
O749 O 0.81755 0.68784 0.66677 0.0
O750 O 0.87384 0.6709 0.65963 0.0
O751 O 0.81679 0.67253 0.63836 0.0
O752 O 0.827 0.67639 0.73849 0.0
O753 O 0.8176 0.65577 0.69276 0.0
O754 O 0.83072 0.62656 0.68148 0.0
O755 O 0.86076 0.65517 0.70607 0.0
O756 O 0.80483 0.67291 0.71372 0.0
O757 O 0.86123 0.66949 0.73427 0.0
C758 C 0.88232 0.68959 0.67294 0.0
C759 C 0.82635 0.66385 0.60564 0.0
C760 C 0.8267 0.67226 0.56967 0.0
C761 C 0.83683 0.68167 0.5891 0.0
C762 C 0.80646 0.64479 0.56708 0.0
C763 C 0.80626 0.63658 0.60252 0.0
C764 C 0.7965 0.62712 0.58335 0.0
C765 C 0.82924 0.71126 0.67658 0.0
C766 C 0.8357 0.67398 0.62611 0.0
C767 C 0.75872 0.5481 0.64333 0.0
C768 C 0.7381 0.555 0.64673 0.0
C769 C 0.79612 0.65463 0.70009 0.0
C770 C 0.85211 0.67727 0.76736 0.0
C771 C 0.83986 0.65939 0.7837 0.0
C772 C 0.85017 0.66769 0.80327 0.0
C773 C 0.87247 0.6942 0.80617 0.0
C774 C 0.8742 0.70361 0.7708 0.0
C775 C 0.88422 0.712 0.79009 0.0
C776 C 0.8477 0.6314 0.69675 0.0
C777 C 0.84255 0.66801 0.74675 0.0
H778 H 0.85221 0.70284 0.5914 0.0
H779 H 0.79839 0.63694 0.55236 0.0
H780 H 0.79793 0.62263 0.61492 0.0
H781 H 0.78094 0.60603 0.58111 0.0
H782 H 0.82287 0.63895 0.78114 0.0
H783 H 0.8807 0.70127 0.82098 0.0
H784 H 0.88391 0.7176 0.75855 0.0
H785 H 0.90132 0.73236 0.79258 0.0
Tb786 Tb 0.36055 0.17408 0.664 0.0
C787 C 0.26186 0.13449 0.72136 0.0
C788 C 0.24823 0.16864 0.71913 0.0
C789 C 0.21363 0.12192 0.7268 0.0
C790 C 0.26865 0.16089 0.71774 0.0
C791 C 0.23442 0.11473 0.7264 0.0
C792 C 0.22053 0.14887 0.72315 0.0
C793 C 0.25073 0.08304 0.73185 0.0
N794 N 0.2826 0.12853 0.72094 0.0
C795 C 0.27764 0.10341 0.72679 0.0
C796 C 0.22894 0.08862 0.7314 0.0
Tb797 Tb 0.32583 0.16279 0.71172 0.0
N798 N 0.29569 0.17932 0.71413 0.0
C799 C 0.30404 0.20639 0.71342 0.0
C800 C 0.25645 0.19611 0.71708 0.0
C801 C 0.28456 0.21512 0.71457 0.0
H802 H 0.29427 0.09879 0.72701 0.0
H803 H 0.29126 0.23651 0.7134 0.0
H804 H 0.20447 0.15434 0.72403 0.0
H805 H 0.24682 0.06304 0.73602 0.0
H806 H 0.32558 0.22146 0.71134 0.0
H807 H 0.39614 0.10116 0.66207 0.0
H808 H 0.24141 0.20292 0.71796 0.0
H809 H 0.39188 0.23845 0.64927 0.0
H810 H 0.36136 0.11571 0.66398 0.0
H811 H 0.43941 0.27468 0.64102 0.0
H812 H 0.19234 0.10699 0.73043 0.0
H813 H 0.44595 0.13521 0.65812 0.0
H814 H 0.48265 0.18402 0.65266 0.0
H815 H 0.20813 0.07284 0.73536 0.0
H816 H 0.49448 0.23138 0.64676 0.0
N817 N 0.391 0.15796 0.6616 0.0
C818 C 0.38291 0.13094 0.66215 0.0
C819 C 0.43073 0.14179 0.65892 0.0
C820 C 0.43871 0.16924 0.65713 0.0
C821 C 0.40263 0.12252 0.66108 0.0
C822 C 0.41806 0.17668 0.65838 0.0
H823 H 0.47838 0.26532 0.64203 0.0
N824 N 0.40381 0.20893 0.65548 0.0
C825 C 0.43559 0.25467 0.64507 0.0
C826 C 0.42472 0.20317 0.65514 0.0
C827 C 0.40864 0.23404 0.64972 0.0
C828 C 0.45755 0.24934 0.64571 0.0
C829 C 0.4522 0.22319 0.65047 0.0
O830 O 0.34981 0.18534 0.63702 0.0
O831 O 0.32649 0.17267 0.68064 0.0
O832 O 0.29712 0.13042 0.69165 0.0
O833 O 0.32837 0.13093 0.66809 0.0
O834 O 0.34538 0.20288 0.66019 0.0
O835 O 0.34997 0.14771 0.63932 0.0
O836 O 0.333 0.15095 0.73991 0.0
O837 O 0.35928 0.16347 0.69495 0.0
O838 O 0.38937 0.20568 0.68425 0.0
O839 O 0.35811 0.20601 0.70734 0.0
O840 O 0.34143 0.13434 0.71607 0.0
O841 O 0.3414 0.19174 0.73471 0.0
C842 C 0.32528 0.19223 0.6728 0.0
C843 C 0.35931 0.16905 0.60762 0.0
C844 C 0.35429 0.1687 0.5714 0.0
C845 C 0.34236 0.16203 0.59058 0.0
C846 C 0.38337 0.18226 0.56949 0.0
C847 C 0.38826 0.18217 0.60537 0.0
C848 C 0.40019 0.18875 0.58639 0.0
C849 C 0.30352 0.11908 0.6768 0.0
C850 C 0.34649 0.16398 0.62754 0.0
C851 C 0.47316 0.21624 0.65012 0.0
C852 C 0.46643 0.18928 0.65348 0.0
C853 C 0.36092 0.14428 0.70299 0.0
C854 C 0.32871 0.17465 0.76742 0.0
C855 C 0.34441 0.17867 0.78483 0.0
C856 C 0.33392 0.18036 0.8036 0.0
C857 C 0.30736 0.17761 0.80469 0.0
C858 C 0.3022 0.17181 0.76888 0.0
C859 C 0.29159 0.17323 0.78744 0.0
C860 C 0.38305 0.21744 0.6988 0.0
C861 C 0.34076 0.17457 0.74786 0.0
H862 H 0.31996 0.15194 0.59225 0.0
H863 H 0.39306 0.18744 0.5549 0.0
H864 H 0.40164 0.18755 0.61822 0.0
H865 H 0.42257 0.199 0.58478 0.0
H866 H 0.36501 0.18109 0.78371 0.0
H867 H 0.29865 0.17857 0.81893 0.0
H868 H 0.28983 0.16879 0.75572 0.0
H869 H 0.27113 0.17106 0.78845 0.0
Tb870 Tb 0.8597 0.17372 0.71083 0.0
C871 C 0.80248 0.21175 0.65122 0.0
C872 C 0.75387 0.17759 0.65307 0.0
C873 C 0.76722 0.22415 0.64473 0.0
C874 C 0.78218 0.18539 0.65489 0.0
C875 C 0.79536 0.23142 0.6457 0.0
C876 C 0.74648 0.19725 0.64843 0.0
C877 C 0.84428 0.26327 0.64116 0.0
N878 N 0.82932 0.21782 0.65227 0.0
C879 C 0.85023 0.24299 0.64666 0.0
C880 C 0.81673 0.25757 0.6409 0.0
Tb881 Tb 0.83728 0.18374 0.66237 0.0
N882 N 0.79029 0.16708 0.65916 0.0
C883 C 0.7709 0.14004 0.66027 0.0
C884 C 0.73393 0.15019 0.65543 0.0
C885 C 0.74252 0.13128 0.65873 0.0
H886 H 0.87162 0.24773 0.64697 0.0
H887 H 0.7273 0.10993 0.66019 0.0
H888 H 0.72483 0.19173 0.64719 0.0
H889 H 0.86094 0.28331 0.63717 0.0
H890 H 0.77694 0.12504 0.66296 0.0
H891 H 0.96953 0.24799 0.71295 0.0
H892 H 0.71194 0.14335 0.65425 0.0
H893 H 0.82596 0.10976 0.72628 0.0
H894 H 0.91974 0.23266 0.71078 0.0
H895 H 0.83705 0.07414 0.73521 0.0
H896 H 0.76128 0.23901 0.6407 0.0
H897 H 0.98525 0.21461 0.71748 0.0
H898 H 0.97274 0.1661 0.72357 0.0
H899 H 0.81216 0.27329 0.63659 0.0
H900 H 0.93659 0.11866 0.72989 0.0
N901 N 0.90676 0.19058 0.71358 0.0
C902 C 0.92599 0.21769 0.71287 0.0
C903 C 0.96323 0.20768 0.71656 0.0
C904 C 0.94344 0.18016 0.71857 0.0
C905 C 0.95442 0.22657 0.71407 0.0
C906 C 0.91507 0.17225 0.71715 0.0
H907 H 0.88586 0.08423 0.73463 0.0
N908 N 0.86803 0.13965 0.72026 0.0
C909 C 0.85354 0.0942 0.7311 0.0
C910 C 0.89493 0.14578 0.72073 0.0
C911 C 0.84735 0.11449 0.72609 0.0
C912 C 0.88111 0.09994 0.73069 0.0
C913 C 0.90228 0.12614 0.72577 0.0
O914 O 0.83878 0.162 0.73847 0.0
O915 O 0.82713 0.1742 0.6935 0.0
O916 O 0.84045 0.21593 0.68197 0.0
O917 O 0.8714 0.21655 0.70576 0.0
O918 O 0.81504 0.14495 0.71469 0.0
O919 O 0.87377 0.20207 0.73432 0.0
O920 O 0.85801 0.1951 0.63462 0.0
O921 O 0.8698 0.18344 0.67978 0.0
O922 O 0.85649 0.14174 0.69108 0.0
O923 O 0.82502 0.1408 0.66768 0.0
O924 O 0.88199 0.21257 0.65862 0.0
O925 O 0.82396 0.15464 0.63945 0.0
C926 C 0.80584 0.15491 0.70154 0.0
C927 C 0.86596 0.18367 0.76691 0.0
C928 C 0.86499 0.18814 0.80324 0.0
C929 C 0.85452 0.18857 0.78414 0.0
C930 C 0.88668 0.18224 0.80477 0.0
C931 C 0.88757 0.17787 0.7689 0.0
C932 C 0.89777 0.17707 0.78773 0.0
C933 C 0.85833 0.22779 0.69676 0.0
C934 C 0.85552 0.18508 0.74697 0.0
C935 C 0.93047 0.1335 0.72624 0.0
C936 C 0.95105 0.1605 0.72263 0.0
C937 C 0.89116 0.20274 0.67186 0.0
C938 C 0.83126 0.17142 0.60644 0.0
C939 C 0.84379 0.16699 0.58963 0.0
C940 C 0.83283 0.16531 0.57037 0.0
C941 C 0.80951 0.16861 0.56819 0.0
C942 C 0.80815 0.17482 0.60383 0.0
C943 C 0.79741 0.17349 0.58479 0.0
C944 C 0.83818 0.12961 0.6766 0.0
C945 C 0.8419 0.17148 0.62659 0.0
H946 H 0.83796 0.1933 0.78264 0.0
H947 H 0.89498 0.18142 0.81921 0.0
H948 H 0.89666 0.1741 0.75592 0.0
H949 H 0.91444 0.17253 0.78913 0.0
H950 H 0.86157 0.16419 0.5916 0.0
H951 H 0.80076 0.16764 0.55357 0.0
H952 H 0.79824 0.17824 0.61649 0.0
H953 H 0.77953 0.17608 0.5829 0.0
H954 H 0.30537 0.88174 0.08843 0.0
H955 H 0.31805 0.82465 0.05387 0.0
H956 H 0.34882 0.91863 0.07588 0.0
H957 H 0.36032 0.86189 0.0399 0.0
H958 H 0.45077 0.93337 0.03524 0.0
H959 H 0.40667 0.89429 0.04547 0.0
H960 H 0.36986 0.94565 0.04844 0.0
H961 H 0.41437 0.98467 0.03931 0.0
C962 C 0.31734 0.87693 0.07817 0.0
C963 C 0.30785 0.84996 0.07225 0.0
C964 C 0.34217 0.89831 0.07057 0.0
C965 C 0.35818 0.89355 0.05652 0.0
C966 C 0.34885 0.86655 0.05074 0.0
C967 C 0.32422 0.8451 0.05859 0.0
C968 C 0.43304 0.93607 0.03767 0.0
C969 C 0.43587 0.96198 0.03633 0.0
C970 C 0.40766 0.91366 0.04361 0.0
C971 C 0.38454 0.91668 0.04823 0.0
C972 C 0.38724 0.94248 0.04571 0.0
C973 C 0.41265 0.96485 0.04016 0.0
H974 H 0.18963 0.49386 0.0537 0.0
H975 H 0.13247 0.42462 0.08901 0.0
H976 H 0.15094 0.4981 0.041 0.0
H977 H 0.09429 0.43024 0.07765 0.0
H978 H 0.02527 0.42948 0.04268 0.0
H979 H 0.065 0.42442 0.05142 0.0
H980 H 0.11842 0.51159 0.04847 0.0
H981 H 0.07859 0.51622 0.0389 0.0
C982 C 0.16888 0.47949 0.05882 0.0
C983 C 0.1645 0.45885 0.07249 0.0
C984 C 0.1466 0.48221 0.05171 0.0
C985 C 0.11918 0.46456 0.05818 0.0
C986 C 0.11486 0.44402 0.07192 0.0
C987 C 0.13705 0.44109 0.07881 0.0
C988 C 0.04563 0.44749 0.04362 0.0
C989 C 0.04886 0.47315 0.03968 0.0
C990 C 0.06847 0.44468 0.04887 0.0
C991 C 0.0952 0.46759 0.05096 0.0
C992 C 0.09841 0.49335 0.04679 0.0
C993 C 0.07552 0.49609 0.04126 0.0
H994 H 0.5211 0.70711 0.06431 0.0
H995 H 0.60043 0.71924 0.08383 0.0
H996 H 0.5082 0.66161 0.0526 0.0
H997 H 0.58864 0.6747 0.07108 0.0
H998 H 0.55302 0.58543 0.06274 0.0
H999 H 0.56253 0.62872 0.07608 0.0
H1000 H 0.51534 0.63706 0.02807 0.0
H1001 H 0.5038 0.59245 0.01576 0.0
C1002 C 0.53578 0.69995 0.06598 0.0
C1003 C 0.56161 0.71643 0.07509 0.0
C1004 C 0.52856 0.67401 0.05911 0.0
C1005 C 0.54732 0.66424 0.06082 0.0
C1006 C 0.57328 0.68103 0.06989 0.0
C1007 C 0.58019 0.70668 0.07713 0.0
C1008 C 0.54453 0.59637 0.05501 0.0
C1009 C 0.528 0.58552 0.03789 0.0
C1010 C 0.55026 0.62149 0.0626 0.0
C1011 C 0.54011 0.63684 0.05307 0.0
C1012 C 0.52337 0.62587 0.03601 0.0
C1013 C 0.51711 0.60039 0.02868 0.0
H1014 H 0.86682 0.28159 0.97294 0.0
H1015 H 0.81825 0.31882 0.95712 0.0
H1016 H 0.90328 0.32515 0.98649 0.0
H1017 H 0.85504 0.36251 0.97007 0.0
H1018 H 0.94657 0.43912 0.9727 0.0
H1019 H 0.91018 0.39534 0.95953 0.0
H1020 H 0.90338 0.35834 0.01699 0.0
H1021 H 0.93935 0.40226 0.03023 0.0
C1022 C 0.86408 0.29914 0.97228 0.0
C1023 C 0.83977 0.29691 0.96405 0.0
C1024 C 0.88481 0.32395 0.98008 0.0
C1025 C 0.88191 0.34712 0.97929 0.0
C1026 C 0.85778 0.34496 0.97079 0.0
C1027 C 0.83676 0.32001 0.96346 0.0
C1028 C 0.93722 0.4216 0.98248 0.0
C1029 C 0.94543 0.42403 1.00252 0.0
C1030 C 0.91641 0.39666 0.97499 0.0
C1031 C 0.90399 0.37354 0.98727 0.0
C1032 C 0.91264 0.37587 1.00723 0.0
C1033 C 0.93298 0.40099 0.01485 0.0
H1034 H 0.71407 0.58275 0.95076 0.0
H1035 H 0.70034 0.51334 0.98583 0.0
H1036 H 0.67032 0.57733 0.96257 0.0
H1037 H 0.65761 0.50932 0.99894 0.0
H1038 H 0.56722 0.49269 1.00317 0.0
H1039 H 0.61125 0.49651 0.99285 0.0
H1040 H 0.6481 0.58376 0.98932 0.0
H1041 H 0.60375 0.57951 0.99877 0.0
C1042 C 0.70181 0.56627 0.96097 0.0
C1043 C 0.71117 0.54855 0.96722 0.0
C1044 C 0.67674 0.56345 0.96813 0.0
C1045 C 0.6602 0.54305 0.98203 0.0
C1046 C 0.66942 0.52518 0.98818 0.0
C1047 C 0.69435 0.52779 0.98082 0.0
C1048 C 0.58491 0.51267 1.00054 0.0
C1049 C 0.58212 0.53585 1.00204 0.0
C1050 C 0.61028 0.51495 0.99456 0.0
C1051 C 0.63352 0.54048 0.98988 0.0
C1052 C 0.63073 0.56365 0.99216 0.0
C1053 C 0.60535 0.56131 0.99786 0.0
H1054 H 0.47101 0.15732 0.9395 0.0
H1055 H 0.44384 0.16397 0.99869 0.0
H1056 H 0.48227 0.12353 0.95188 0.0
H1057 H 0.45646 0.13131 0.01105 0.0
H1058 H 0.51402 0.09522 0.02659 0.0
H1059 H 0.50297 0.12928 0.01438 0.0
H1060 H 0.45309 0.0748 0.96744 0.0
H1061 H 0.46308 0.04047 0.97987 0.0
C1062 C 0.46729 0.15156 0.95508 0.0
C1063 C 0.4566 0.16356 0.96807 0.0
C1064 C 0.47395 0.13237 0.96217 0.0
C1065 C 0.47047 0.12509 0.98244 0.0
C1066 C 0.45979 0.13695 0.99543 0.0
C1067 C 0.45266 0.15574 0.9883 0.0
C1068 C 0.50037 0.09031 0.01388 0.0
C1069 C 0.48919 0.06489 1.00445 0.0
C1070 C 0.49418 0.10987 1.00683 0.0
C1071 C 0.47724 0.1046 0.98995 0.0
C1072 C 0.46639 0.07943 0.98038 0.0
C1073 C 0.4721 0.05973 0.98761 0.0
H1074 H 0.69247 0.18972 1.00108 0.0
H1075 H 0.70026 0.14736 0.95039 0.0
H1076 H 0.65191 0.1478 0.01266 0.0
H1077 H 0.65933 0.10522 0.96174 0.0
H1078 H 0.5992 0.02921 0.99665 0.0
H1079 H 0.64237 0.07073 0.98817 0.0
H1080 H 0.60364 0.11821 1.00262 0.0
H1081 H 0.56062 0.07672 0.01095 0.0
C1082 C 0.68548 0.17128 0.99249 0.0
C1083 C 0.69936 0.17158 0.97492 0.0
C1084 C 0.66217 0.14733 0.99904 0.0
C1085 C 0.65222 0.12309 0.98812 0.0
C1086 C 0.66658 0.12341 0.97064 0.0
C1087 C 0.68991 0.14749 0.96407 0.0
C1088 C 0.60012 0.04861 0.99827 0.0
C1089 C 0.57669 0.04972 1.00486 0.0
C1090 C 0.62475 0.07237 0.99326 0.0
C1091 C 0.62653 0.09787 0.99462 0.0
C1092 C 0.60319 0.09899 1.00161 0.0
C1093 C 0.57848 0.07518 1.0065 0.0
H1094 H 0.87012 0.56813 0.95826 0.0
H1095 H 0.82433 0.50866 1.00367 0.0
H1096 H 0.91071 0.56282 0.96457 0.0
H1097 H 0.86478 0.50372 0.01048 0.0
H1098 H 0.93458 0.48324 1.00594 0.0
H1099 H 0.89357 0.48682 0.99795 0.0
H1100 H 0.94606 0.57322 0.98898 0.0
H1101 H 0.9869 0.56935 0.99673 0.0
C1102 C 0.86875 0.55381 0.96949 0.0
C1103 C 0.84413 0.53863 0.98037 0.0
C1104 C 0.89204 0.55089 0.97328 0.0
C1105 C 0.8912 0.53281 0.9881 0.0
C1106 C 0.86623 0.51748 0.99875 0.0
C1107 C 0.84304 0.52037 0.99492 0.0
C1108 C 0.93725 0.50301 1.00251 0.0
C1109 C 0.96389 0.52614 1.00248 0.0
C1110 C 0.91374 0.50511 0.99786 0.0
C1111 C 0.91631 0.53037 0.9928 0.0
C1112 C 0.94313 0.55338 0.99252 0.0
C1113 C 0.96657 0.55124 0.99715 0.0
H1114 H 0.4197 0.28877 0.98223 0.0
H1115 H 0.50598 0.31706 0.96943 0.0
H1116 H 0.43051 0.33566 0.98779 0.0
H1117 H 0.51698 0.36402 0.97472 0.0
H1118 H 0.52931 0.4341 0.01601 0.0
H1119 H 0.51815 0.38897 1.00504 0.0
H1120 H 0.4473 0.38096 0.97259 0.0
H1121 H 0.45809 0.42598 0.98392 0.0
C1122 C 0.44082 0.3052 0.98004 0.0
C1123 C 0.46204 0.29966 0.97529 0.0
C1124 C 0.44705 0.33198 0.98323 0.0
C1125 C 0.47466 0.35351 0.98189 0.0
C1126 C 0.4956 0.34784 0.97615 0.0
C1127 C 0.48931 0.32109 0.97291 0.0
C1128 C 0.51127 0.42271 1.00663 0.0
C1129 C 0.49441 0.43354 1.00106 0.0
C1130 C 0.50507 0.39695 1.00013 0.0
C1131 C 0.48188 0.38143 0.98788 0.0
C1132 C 0.46518 0.39236 0.98213 0.0
C1133 C 0.47144 0.4182 0.98858 0.0
H1134 H 0.14518 0.72226 0.05611 0.0
H1135 H 0.20036 0.69217 0.07097 0.0
H1136 H 0.10723 0.67563 0.0508 0.0
H1137 H 0.16252 0.64549 0.06599 0.0
H1138 H 0.10242 0.57367 0.02668 0.0
H1139 H 0.13807 0.61891 0.03679 0.0
H1140 H 0.07579 0.6311 0.06596 0.0
H1141 H 0.03981 0.58582 0.05538 0.0
C1142 C 0.14889 0.70553 0.05874 0.0
C1143 C 0.17544 0.71056 0.06408 0.0
C1144 C 0.12722 0.67885 0.05572 0.0
C1145 C 0.13186 0.65677 0.0578 0.0
C1146 C 0.15831 0.66199 0.06397 0.0
C1147 C 0.1799 0.68865 0.06704 0.0
C1148 C 0.09622 0.58598 0.03516 0.0
C1149 C 0.06814 0.57618 0.03998 0.0
C1150 C 0.11678 0.61187 0.04119 0.0
C1151 C 0.10987 0.6287 0.05226 0.0
C1152 C 0.08182 0.61878 0.05732 0.0
C1153 C 0.0612 0.59276 0.05133 0.0
H1154 H 0.3056 0.44129 0.08263 0.0
H1155 H 0.3186 0.50054 0.03761 0.0
H1156 H 0.35145 0.44684 0.07514 0.0
H1157 H 0.36389 0.50568 0.02956 0.0
H1158 H 0.45524 0.52639 0.0323 0.0
H1159 H 0.4105 0.52259 0.04042 0.0
H1160 H 0.37528 0.43644 0.05026 0.0
H1161 H 0.42013 0.44054 0.04243 0.0
C1162 C 0.31841 0.45564 0.07124 0.0
C1163 C 0.30878 0.47069 0.06083 0.0
C1164 C 0.34458 0.45867 0.06674 0.0
C1165 C 0.36158 0.47669 0.05162 0.0
C1166 C 0.3518 0.49194 0.04147 0.0
C1167 C 0.32576 0.48895 0.04603 0.0
C1168 C 0.43781 0.50661 0.03587 0.0
C1169 C 0.44108 0.48365 0.03633 0.0
C1170 C 0.41208 0.50438 0.04061 0.0
C1171 C 0.38904 0.47918 0.04617 0.0
C1172 C 0.39248 0.45627 0.04646 0.0
C1173 C 0.41815 0.45854 0.04174 0.0
H1174 H 0.55386 0.83535 0.02669 0.0
H1175 H 0.57317 0.86246 0.08764 0.0
H1176 H 0.53861 0.86816 0.02055 0.0
H1177 H 0.55725 0.89521 0.08179 0.0
H1178 H 0.55881 0.97126 0.05506 0.0
H1179 H 0.57126 0.93705 0.06354 0.0
H1180 H 0.50229 0.87784 0.02845 0.0
H1181 H 0.49007 0.91211 0.01973 0.0
C1182 C 0.55453 0.84827 0.03882 0.0
C1183 C 0.56457 0.84658 0.05759 0.0
C1184 C 0.54563 0.86693 0.03538 0.0
C1185 C 0.54656 0.88427 0.0507 0.0
C1186 C 0.5565 0.88233 0.06962 0.0
C1187 C 0.56545 0.86357 0.07304 0.0
C1188 C 0.54623 0.95093 0.04919 0.0
C1189 C 0.52372 0.94458 0.03641 0.0
C1190 C 0.55327 0.93124 0.05419 0.0
C1191 C 0.53791 0.90472 0.04658 0.0
C1192 C 0.51491 0.89821 0.03426 0.0
C1193 C 0.5079 0.91788 0.02925 0.0
H1194 H 0.95361 0.19387 0.37987 0.0
H1195 H 0.99781 0.18292 0.42855 0.0
H1196 H 0.99757 0.23062 0.36656 0.0
H1197 H 0.04195 0.21929 0.41491 0.0
H1198 H 0.11589 0.26712 0.36989 0.0
H1199 H 0.07115 0.22783 0.37963 0.0
H1200 H 0.03479 0.27932 0.38276 0.0
H1201 H 0.07959 0.31861 0.37361 0.0
C1202 C 0.97277 0.19928 0.38766 0.0
C1203 C 0.97234 0.18567 0.40529 0.0
C1204 C 0.99786 0.22024 0.38003 0.0
C1205 C 0.02312 0.2276 0.38962 0.0
C1206 C 0.02276 0.21379 0.40713 0.0
C1207 C 0.99756 0.19322 0.41502 0.0
C1208 C 0.09817 0.26987 0.37221 0.0
C1209 C 0.10101 0.2958 0.37068 0.0
C1210 C 0.0727 0.24749 0.37798 0.0
C1211 C 0.04958 0.25061 0.382 0.0
C1212 C 0.05222 0.27633 0.37966 0.0
C1213 C 0.07778 0.29875 0.3744 0.0
H1214 H 0.8272 0.77194 0.37706 0.0
H1215 H 0.83383 0.81785 0.43004 0.0
H1216 H 0.78852 0.77769 0.36533 0.0
H1217 H 0.79578 0.82435 0.41797 0.0
H1218 H 0.74648 0.85179 0.37422 0.0
H1219 H 0.78731 0.84801 0.3831 0.0
H1220 H 0.73641 0.76075 0.38379 0.0
H1221 H 0.69546 0.76455 0.37552 0.0
C1222 C 0.82056 0.78347 0.38609 0.0
C1223 C 0.83348 0.79437 0.40451 0.0
C1224 C 0.79844 0.78673 0.37938 0.0
C1225 C 0.78927 0.80158 0.3907 0.0
C1226 C 0.80258 0.81299 0.40889 0.0
C1227 C 0.8242 0.80914 0.41584 0.0
C1228 C 0.74411 0.83182 0.3759 0.0
C1229 C 0.71786 0.80841 0.37373 0.0
C1230 C 0.76743 0.82967 0.38115 0.0
C1231 C 0.76503 0.80408 0.38406 0.0
C1232 C 0.73891 0.78071 0.38148 0.0
C1233 C 0.71551 0.78288 0.37676 0.0
H1234 H 0.18596 0.03847 0.39622 0.0
H1235 H 0.26555 0.05152 0.41596 0.0
H1236 H 0.17368 0.99314 0.38446 0.0
H1237 H 0.25435 0.00715 0.40321 0.0
H1238 H 0.21942 0.91788 0.39554 0.0
H1239 H 0.22853 0.9612 0.40849 0.0
H1240 H 0.18119 0.9685 0.36011 0.0
H1241 H 0.17008 0.92383 0.34815 0.0
C1242 C 0.20084 0.03157 0.39792 0.0
C1243 C 0.22655 0.04825 0.40714 0.0
C1244 C 0.19397 0.00572 0.39103 0.0
C1245 C 0.21295 0.99622 0.39284 0.0
C1246 C 0.23882 0.01326 0.40195 0.0
C1247 C 0.24539 0.03881 0.4092 0.0
C1248 C 0.21082 0.92859 0.38763 0.0
C1249 C 0.19437 0.91742 0.3705 0.0
C1250 C 0.21631 0.95374 0.395 0.0
C1251 C 0.20602 0.96882 0.38526 0.0
C1252 C 0.18935 0.95753 0.3682 0.0
C1253 C 0.18333 0.93201 0.36107 0.0
H1254 H 0.54125 0.62042 0.29566 0.0
H1255 H 0.48108 0.64691 0.3015 0.0
H1256 H 0.57728 0.66387 0.30894 0.0
H1257 H 0.51706 0.69053 0.31429 0.0
H1258 H 0.5802 0.75565 0.355 0.0
H1259 H 0.54503 0.71172 0.34236 0.0
H1260 H 0.60542 0.71085 0.30211 0.0
H1261 H 0.64099 0.75419 0.31556 0.0
C1262 C 0.53578 0.63565 0.29958 0.0
C1263 C 0.50823 0.6301 0.29761 0.0
C1264 C 0.55647 0.66065 0.30717 0.0
C1265 C 0.55022 0.68088 0.31283 0.0
C1266 C 0.52267 0.67536 0.31055 0.0
C1267 C 0.50198 0.65032 0.30313 0.0
C1268 C 0.58617 0.74594 0.3437 0.0
C1269 C 0.61365 0.75844 0.33657 0.0
C1270 C 0.5658 0.7208 0.33619 0.0
C1271 C 0.57219 0.70753 0.32111 0.0
C1272 C 0.59969 0.72011 0.31392 0.0
C1273 C 0.62013 0.74517 0.32156 0.0
H1274 H 0.3549 0.85674 0.27897 0.0
H1275 H 0.39732 0.90976 0.32855 0.0
H1276 H 0.31036 0.85021 0.29159 0.0
H1277 H 0.35298 0.90382 0.34083 0.0
H1278 H 0.27153 0.91232 0.33369 0.0
H1279 H 0.31638 0.91675 0.32464 0.0
H1280 H 0.27922 0.82959 0.32572 0.0
H1281 H 0.23448 0.82522 0.33534 0.0
C1282 C 0.35471 0.86709 0.29249 0.0
C1283 C 0.37964 0.8838 0.30274 0.0
C1284 C 0.32922 0.86318 0.2998 0.0
C1285 C 0.32816 0.87642 0.31725 0.0
C1286 C 0.35313 0.89335 0.32736 0.0
C1287 C 0.37848 0.89673 0.32034 0.0
C1288 C 0.27312 0.89415 0.33243 0.0
C1289 C 0.24963 0.86848 0.33569 0.0
C1290 C 0.29876 0.89667 0.32722 0.0
C1291 C 0.30132 0.87353 0.32441 0.0
C1292 C 0.27786 0.84779 0.32775 0.0
C1293 C 0.25231 0.8453 0.33347 0.0
H1294 H 0.18329 0.52771 0.2962 0.0
H1295 H 0.09415 0.4754 0.29515 0.0
H1296 H 0.18837 0.49163 0.31151 0.0
H1297 H 0.09918 0.43917 0.31064 0.0
H1298 H 0.12295 0.3727 0.31729 0.0
H1299 H 0.1162 0.40841 0.3034 0.0
H1300 H 0.17982 0.4668 0.34249 0.0
H1301 H 0.18727 0.43112 0.35601 0.0
C1302 C 0.16473 0.50853 0.29939 0.0
C1303 C 0.13829 0.50447 0.29455 0.0
C1304 C 0.16764 0.48786 0.30825 0.0
C1305 C 0.14419 0.46255 0.3125 0.0
C1306 C 0.11772 0.45834 0.30742 0.0
C1307 C 0.11481 0.47906 0.29851 0.0
C1308 C 0.13546 0.3931 0.32305 0.0
C1309 C 0.1557 0.39898 0.33781 0.0
C1310 C 0.13142 0.41359 0.31514 0.0
C1311 C 0.14749 0.44052 0.32177 0.0
C1312 C 0.16733 0.44633 0.33685 0.0
C1313 C 0.17141 0.4258 0.34476 0.0
H1314 H 0.33905 0.51127 0.29301 0.0
H1315 H 0.38864 0.48296 0.3226 0.0
H1316 H 0.29659 0.47031 0.30359 0.0
H1317 H 0.34624 0.44201 0.33353 0.0
H1318 H 0.26321 0.3597 0.33075 0.0
H1319 H 0.30673 0.40016 0.32134 0.0
H1320 H 0.26999 0.44995 0.33389 0.0
H1321 H 0.22633 0.40935 0.34277 0.0
C1322 C 0.34077 0.49597 0.30152 0.0
C1323 C 0.36696 0.49989 0.30671 0.0
C1324 C 0.31649 0.47271 0.30785 0.0
C1325 C 0.31789 0.45288 0.3196 0.0
C1326 C 0.34431 0.45668 0.32438 0.0
C1327 C 0.3686 0.48004 0.31808 0.0
C1328 C 0.26464 0.37939 0.33177 0.0
C1329 C 0.2415 0.38137 0.33783 0.0
C1330 C 0.28959 0.40259 0.32642 0.0
C1331 C 0.29192 0.42838 0.32671 0.0
C1332 C 0.26887 0.4304 0.3332 0.0
C1333 C 0.24391 0.40715 0.33861 0.0
H1334 H 0.53871 0.9041 0.29435 0.0
H1335 H 0.49194 0.84377 0.33901 0.0
H1336 H 0.57904 0.89842 0.30078 0.0
H1337 H 0.53214 0.83847 0.34596 0.0
H1338 H 0.60187 0.8177 0.34116 0.0
H1339 H 0.56106 0.8217 0.33349 0.0
H1340 H 0.61394 0.90821 0.32539 0.0
H1341 H 0.65461 0.90393 0.33284 0.0
C1342 C 0.53707 0.88949 0.30543 0.0
C1343 C 0.51225 0.87418 0.31606 0.0
C1344 C 0.56022 0.88638 0.3093 0.0
C1345 C 0.55904 0.86798 0.32397 0.0
C1346 C 0.53386 0.85249 0.33436 0.0
C1347 C 0.51081 0.85558 0.33044 0.0
C1348 C 0.60469 0.83759 0.33804 0.0
C1349 C 0.63141 0.86062 0.3381 0.0
C1350 C 0.58127 0.83993 0.33355 0.0
C1351 C 0.58401 0.86533 0.32875 0.0
C1352 C 0.61088 0.88827 0.3287 0.0
C1353 C 0.63422 0.88589 0.33317 0.0
H1354 H 0.20478 0.6734 0.29068 0.0
H1355 H 0.11692 0.62743 0.30308 0.0
H1356 H 0.20572 0.71517 0.30086 0.0
H1357 H 0.11768 0.66929 0.31341 0.0
H1358 H 0.1305 0.75719 0.31584 0.0
H1359 H 0.12701 0.7159 0.30162 0.0
H1360 H 0.19997 0.73056 0.33457 0.0
H1361 H 0.20366 0.77163 0.34858 0.0
C1362 C 0.18556 0.67245 0.29518 0.0
C1363 C 0.16076 0.64751 0.29603 0.0
C1364 C 0.18611 0.69622 0.30117 0.0
C1365 C 0.16183 0.69543 0.30815 0.0
C1366 C 0.13666 0.67052 0.30801 0.0
C1367 C 0.13618 0.64664 0.3021 0.0
C1368 C 0.14574 0.75153 0.32007 0.0
C1369 C 0.1673 0.76768 0.33341 0.0
C1370 C 0.14367 0.72787 0.31197 0.0
C1371 C 0.16336 0.72016 0.31684 0.0
C1372 C 0.18473 0.7362 0.33028 0.0
C1373 C 0.18665 0.75962 0.3385 0.0
H1374 H 0.81039 0.05675 0.39078 0.0
H1375 H 0.86712 0.02822 0.40479 0.0
H1376 H 0.77297 0.00982 0.38573 0.0
H1377 H 0.82982 0.98124 0.40007 0.0
H1378 H 0.77 0.90899 0.36095 0.0
H1379 H 0.8052 0.95444 0.37098 0.0
H1380 H 0.74248 0.96512 0.40102 0.0
H1381 H 0.70694 0.91962 0.39051 0.0
C1382 C 0.81456 0.0403 0.39329 0.0
C1383 C 0.84139 0.04586 0.3983 0.0
C1384 C 0.7932 0.01345 0.39041 0.0
C1385 C 0.79842 0.99172 0.39232 0.0
C1386 C 0.82516 0.99747 0.39818 0.0
C1387 C 0.84644 0.02429 0.4011 0.0
C1388 C 0.7636 0.921 0.36961 0.0
C1389 C 0.73552 0.91071 0.37468 0.0
C1390 C 0.7839 0.94702 0.3756 0.0
C1391 C 0.77674 0.96349 0.38687 0.0
C1392 C 0.74869 0.95308 0.3922 0.0
C1393 C 0.72834 0.92693 0.38626 0.0
H1394 H 0.98695 0.83346 0.36935 0.0
H1395 H 0.97336 0.77582 0.41585 0.0
H1396 H 0.03169 0.8373 0.36144 0.0
H1397 H 0.01871 0.78005 0.40842 0.0
H1398 H 0.08739 0.77229 0.37635 0.0
H1399 H 0.04261 0.76859 0.38398 0.0
H1400 H 0.07814 0.85449 0.37282 0.0
H1401 H 0.12273 0.8579 0.36499 0.0
C1402 C 0.99382 0.82186 0.37806 0.0
C1403 C 0.97686 0.80448 0.39327 0.0
C1404 C 0.01956 0.82414 0.3736 0.0
C1405 C 0.02911 0.80906 0.38426 0.0
C1406 C 0.01203 0.79175 0.39967 0.0
C1407 C 0.98614 0.78945 0.4041 0.0
C1408 C 0.08549 0.79031 0.37535 0.0
C1409 C 0.10845 0.81524 0.3696 0.0
C1410 C 0.05986 0.78828 0.37993 0.0
C1411 C 0.05652 0.81123 0.37913 0.0
C1412 C 0.07962 0.83623 0.37336 0.0
C1413 C 0.10528 0.83824 0.36878 0.0
H1414 H 0.21593 0.16654 0.36009 0.0
H1415 H 0.23721 0.19459 0.4207 0.0
H1416 H 0.20104 0.19963 0.35408 0.0
H1417 H 0.22163 0.22763 0.41499 0.0
H1418 H 0.22335 0.3037 0.38822 0.0
H1419 H 0.23545 0.26923 0.39662 0.0
H1420 H 0.16547 0.21013 0.36224 0.0
H1421 H 0.15362 0.24469 0.35359 0.0
C1422 C 0.21709 0.17972 0.37219 0.0
C1423 C 0.22759 0.1782 0.39081 0.0
C1424 C 0.2084 0.19855 0.36882 0.0
C1425 C 0.20998 0.21626 0.38407 0.0
C1426 C 0.22037 0.21448 0.40287 0.0
C1427 C 0.22912 0.19554 0.40621 0.0
C1428 C 0.21047 0.28335 0.38249 0.0
C1429 C 0.18778 0.27712 0.36993 0.0
C1430 C 0.21731 0.2635 0.38744 0.0
C1431 C 0.20157 0.23691 0.38001 0.0
C1432 C 0.1784 0.23053 0.36791 0.0
C1433 C 0.1716 0.25037 0.36294 0.0
H1434 H 0.62112 0.52978 0.71371 0.0
H1435 H 0.6658 0.5177 0.76147 0.0
H1436 H 0.66495 0.56623 0.70012 0.0
H1437 H 0.70988 0.55392 0.74759 0.0
H1438 H 0.74721 0.65302 0.7047 0.0
H1439 H 0.70256 0.61424 0.71468 0.0
H1440 H 0.73872 0.56248 0.71298 0.0
H1441 H 0.78333 0.60129 0.70247 0.0
C1442 C 0.64037 0.53496 0.72128 0.0
C1443 C 0.64009 0.52105 0.7387 0.0
C1444 C 0.6654 0.55575 0.71349 0.0
C1445 C 0.6908 0.56272 0.7227 0.0
C1446 C 0.6906 0.54872 0.74007 0.0
C1447 C 0.66543 0.52826 0.74812 0.0
C1448 C 0.74538 0.63319 0.70596 0.0
C1449 C 0.76853 0.63004 0.70244 0.0
C1450 C 0.7199 0.61105 0.71172 0.0
C1451 C 0.71725 0.58542 0.71473 0.0
C1452 C 0.74027 0.58208 0.71085 0.0
C1453 C 0.76567 0.60418 0.70462 0.0
H1454 H 0.5046 0.15586 0.76199 0.0
H1455 H 0.49313 0.10257 0.71264 0.0
H1456 H 0.46663 0.16206 0.74935 0.0
H1457 H 0.45463 0.10815 0.70034 0.0
H1458 H 0.36383 0.09868 0.70866 0.0
H1459 H 0.40459 0.09485 0.71741 0.0
H1460 H 0.45604 0.18201 0.71494 0.0
H1461 H 0.41534 0.18579 0.70562 0.0
C1462 C 0.49392 0.14544 0.74847 0.0
C1463 C 0.50185 0.12869 0.73834 0.0
C1464 C 0.47234 0.14914 0.74117 0.0
C1465 C 0.4577 0.13564 0.72382 0.0
C1466 C 0.46553 0.11881 0.71373 0.0
C1467 C 0.48758 0.11565 0.72075 0.0
C1468 C 0.38396 0.11698 0.7096 0.0
C1469 C 0.38647 0.14246 0.70599 0.0
C1470 C 0.40727 0.11479 0.71461 0.0
C1471 C 0.43352 0.13812 0.71687 0.0
C1472 C 0.43608 0.16368 0.7133 0.0
C1473 C 0.41283 0.16583 0.70779 0.0
H1474 H 0.92408 0.39186 0.74467 0.0
H1475 H 0.83471 0.35491 0.74705 0.0
H1476 H 0.9192 0.35076 0.72927 0.0
H1477 H 0.82983 0.31394 0.7317 0.0
H1478 H 0.83035 0.25444 0.68688 0.0
H1479 H 0.8373 0.29721 0.70028 0.0
H1480 H 0.90371 0.30364 0.73757 0.0
H1481 H 0.89737 0.26134 0.72377 0.0
C1482 C 0.90341 0.37491 0.74203 0.0
C1483 C 0.8798 0.37672 0.74704 0.0
C1484 C 0.9006 0.35137 0.73319 0.0
C1485 C 0.87412 0.32909 0.72916 0.0
C1486 C 0.85053 0.3309 0.73423 0.0
C1487 C 0.85334 0.3544 0.74306 0.0
C1488 C 0.84671 0.26514 0.69771 0.0
C1489 C 0.86336 0.25444 0.70416 0.0
C1490 C 0.8505 0.28955 0.70556 0.0
C1491 C 0.87098 0.30382 0.72007 0.0
C1492 C 0.88794 0.29335 0.72626 0.0
C1493 C 0.88417 0.26896 0.71841 0.0
H1494 H 0.20861 0.95376 0.62902 0.0
H1495 H 0.14894 0.98094 0.63432 0.0
H1496 H 0.24478 0.99711 0.64231 0.0
H1497 H 0.18508 0.02449 0.64711 0.0
H1498 H 0.24853 0.08981 0.68758 0.0
H1499 H 0.21309 0.04581 0.67519 0.0
H1500 H 0.27319 0.04391 0.6352 0.0
H1501 H 0.30898 0.08728 0.6484 0.0
C1502 C 0.2033 0.96912 0.63283 0.0
C1503 C 0.17585 0.96381 0.63069 0.0
C1504 C 0.22406 0.99406 0.64042 0.0
C1505 C 0.21799 0.01446 0.64592 0.0
C1506 C 0.19055 0.00918 0.64351 0.0
C1507 C 0.16977 0.98419 0.63608 0.0
C1508 C 0.25436 0.07985 0.6764 0.0
C1509 C 0.28182 0.09207 0.66925 0.0
C1510 C 0.23385 0.05468 0.66904 0.0
C1511 C 0.24009 0.04111 0.6541 0.0
C1512 C 0.26757 0.0534 0.64691 0.0
C1513 C 0.28814 0.07848 0.65441 0.0
H1514 H 0.02321 0.19127 0.61257 0.0
H1515 H 0.06589 0.24437 0.66205 0.0
H1516 H 0.97879 0.18516 0.6251 0.0
H1517 H 0.02167 0.23889 0.67422 0.0
H1518 H 0.94064 0.24833 0.66601 0.0
H1519 H 0.98526 0.25219 0.65699 0.0
H1520 H 0.9478 0.16508 0.65999 0.0
H1521 H 0.90327 0.16129 0.66963 0.0
C1522 C 0.0231 0.20171 0.62605 0.0
C1523 C 0.04807 0.21833 0.6363 0.0
C1524 C 0.99768 0.19805 0.63331 0.0
C1525 C 0.99675 0.21147 0.65069 0.0
C1526 C 0.02174 0.22827 0.66082 0.0
C1527 C 0.04702 0.23139 0.65385 0.0
C1528 C 0.94211 0.23006 0.66514 0.0
C1529 C 0.91861 0.20459 0.66897 0.0
C1530 C 0.96761 0.23226 0.65996 0.0
C1531 C 0.97003 0.20895 0.65773 0.0
C1532 C 0.94654 0.1834 0.66157 0.0
C1533 C 0.92113 0.18124 0.66728 0.0
H1534 H 0.77307 0.82744 0.66539 0.0
H1535 H 0.80461 0.82704 0.60641 0.0
H1536 H 0.78685 0.79524 0.67668 0.0
H1537 H 0.8169 0.79344 0.61769 0.0
H1538 H 0.79825 0.70863 0.64407 0.0
H1539 H 0.78788 0.74286 0.63191 0.0
H1540 H 0.83543 0.79609 0.68011 0.0
H1541 H 0.84699 0.76226 0.69198 0.0
C1542 C 0.78312 0.82071 0.65482 0.0
C1543 C 0.78808 0.8303 0.63499 0.0
C1544 C 0.79088 0.80214 0.66134 0.0
C1545 C 0.80316 0.79213 0.64811 0.0
C1546 C 0.80745 0.80093 0.62817 0.0
C1547 C 0.80019 0.82 0.6217 0.0
C1548 C 0.80673 0.72762 0.65212 0.0
C1549 C 0.82318 0.73243 0.66929 0.0
C1550 C 0.80081 0.74726 0.64503 0.0
C1551 C 0.81077 0.772 0.6551 0.0
C1552 C 0.8273 0.77701 0.67218 0.0
C1553 C 0.83376 0.75756 0.67905 0.0
H1554 H 0.00653 0.84497 0.62553 0.0
H1555 H 0.05635 0.81715 0.65541 0.0
H1556 H 0.96416 0.80379 0.63593 0.0
H1557 H 0.01404 0.77598 0.66617 0.0
H1558 H 0.93133 0.69337 0.66317 0.0
H1559 H 0.97476 0.73397 0.65379 0.0
H1560 H 0.93755 0.78338 0.66625 0.0
H1561 H 0.89401 0.74264 0.67511 0.0
C1562 C 0.00833 0.82973 0.63407 0.0
C1563 C 0.03454 0.83385 0.6394 0.0
C1564 C 0.9841 0.80634 0.64029 0.0
C1565 C 0.9856 0.7866 0.65207 0.0
C1566 C 0.01205 0.79059 0.65699 0.0
C1567 C 0.03629 0.81407 0.65078 0.0
C1568 C 0.93264 0.713 0.66416 0.0
C1569 C 0.90941 0.71484 0.67018 0.0
C1570 C 0.95753 0.73628 0.65883 0.0
C1571 C 0.95969 0.76201 0.65911 0.0
C1572 C 0.93654 0.76388 0.66556 0.0
C1573 C 0.91166 0.74056 0.67094 0.0
H1574 H 0.16087 0.17835 0.67226 0.0
H1575 H 0.20657 0.23774 0.62679 0.0
H1576 H 0.20113 0.17297 0.67872 0.0
H1577 H 0.24695 0.23199 0.63274 0.0
H1578 H 0.32322 0.2376 0.66396 0.0
H1579 H 0.28254 0.24202 0.65685 0.0
H1580 H 0.22946 0.15571 0.66588 0.0
H1581 H 0.27028 0.15158 0.6732 0.0
C1582 C 0.17951 0.18995 0.66342 0.0
C1583 C 0.18063 0.20831 0.64895 0.0
C1584 C 0.2026 0.18681 0.66705 0.0
C1585 C 0.2275 0.20199 0.65628 0.0
C1586 C 0.22835 0.22017 0.64155 0.0
C1587 C 0.20517 0.22334 0.63795 0.0
C1588 C 0.30279 0.21963 0.66455 0.0
C1589 C 0.29994 0.1944 0.66968 0.0
C1590 C 0.27944 0.22208 0.66029 0.0
C1591 C 0.2525 0.19925 0.66074 0.0
C1592 C 0.24973 0.17387 0.66566 0.0
C1593 C 0.27315 0.17146 0.66994 0.0
H1594 H 0.7822 0.96993 0.62136 0.0
H1595 H 0.80635 0.96559 0.68172 0.0
H1596 H 0.79634 0.01805 0.62641 0.0
H1597 H 0.81992 0.01302 0.68703 0.0
H1598 H 0.86736 0.10399 0.6852 0.0
H1599 H 0.85546 0.05783 0.67681 0.0
H1600 H 0.7825 0.04652 0.64547 0.0
H1601 H 0.79457 0.09296 0.65372 0.0
C1602 C 0.79051 0.97937 0.63566 0.0
C1603 C 0.79337 0.96445 0.65117 0.0
C1604 C 0.79847 0.00675 0.63861 0.0
C1605 C 0.80946 0.01943 0.6571 0.0
C1606 C 0.81209 0.00412 0.67252 0.0
C1607 C 0.80415 0.97693 0.66955 0.0
C1608 C 0.84871 0.09167 0.67659 0.0
C1609 C 0.83163 0.10202 0.67048 0.0
C1610 C 0.8419 0.06518 0.67175 0.0
C1611 C 0.81783 0.04835 0.66066 0.0
C1612 C 0.80126 0.05899 0.65393 0.0
C1613 C 0.8081 0.08557 0.65877 0.0
H1614 H 0.52071 0.38083 0.69476 0.0
H1615 H 0.49431 0.37577 0.75587 0.0
H1616 H 0.48419 0.33408 0.68907 0.0
H1617 H 0.45746 0.32831 0.75033 0.0
H1618 H 0.37725 0.25403 0.72235 0.0
H1619 H 0.41316 0.30032 0.73107 0.0
H1620 H 0.47407 0.28886 0.69914 0.0
H1621 H 0.43855 0.24296 0.69054 0.0
C1622 C 0.50699 0.36953 0.707 0.0
C1623 C 0.5102 0.38165 0.72572 0.0
C1624 C 0.48618 0.34271 0.7038 0.0
C1625 C 0.46804 0.3273 0.71929 0.0
C1626 C 0.47103 0.33966 0.73807 0.0
C1627 C 0.49209 0.36669 0.74129 0.0
C1628 C 0.39835 0.26136 0.7173 0.0
C1629 C 0.40484 0.24492 0.70534 0.0
C1630 C 0.41894 0.28785 0.72238 0.0
C1631 C 0.44642 0.29846 0.71557 0.0
C1632 C 0.45301 0.2816 0.70426 0.0
C1633 C 0.43256 0.25522 0.69927 0.0
H1634 H 0.65444 0.16759 0.70398 0.0
H1635 H 0.64169 0.10906 0.74955 0.0
H1636 H 0.70002 0.17316 0.69636 0.0
H1637 H 0.68783 0.11507 0.74248 0.0
H1638 H 0.75761 0.1095 0.71066 0.0
H1639 H 0.71241 0.10485 0.71812 0.0
H1640 H 0.74658 0.1907 0.70744 0.0
H1641 H 0.79164 0.19502 0.69972 0.0
C1642 C 0.66171 0.15625 0.71262 0.0
C1643 C 0.64471 0.13807 0.72746 0.0
C1644 C 0.68792 0.1595 0.7083 0.0
C1645 C 0.69789 0.14459 0.71873 0.0
C1646 C 0.68085 0.12664 0.73387 0.0
C1647 C 0.65451 0.12336 0.73813 0.0
C1648 C 0.75532 0.1273 0.7097 0.0
C1649 C 0.77805 0.15247 0.70412 0.0
C1650 C 0.72945 0.12473 0.7142 0.0
C1651 C 0.72559 0.14739 0.71355 0.0
C1652 C 0.74845 0.17265 0.70789 0.0
C1653 C 0.77437 0.17518 0.70336 0.0
H1654 H 0.86035 0.5123 0.77067 0.0
H1655 H 0.86056 0.48582 0.71045 0.0
H1656 H 0.86086 0.55303 0.75784 0.0
H1657 H 0.86126 0.5264 0.69752 0.0
H1658 H 0.82056 0.57832 0.68479 0.0
H1659 H 0.82631 0.54132 0.69724 0.0
H1660 H 0.88905 0.59616 0.73841 0.0
H1661 H 0.88362 0.63352 0.72575 0.0
C1662 C 0.86107 0.51558 0.75471 0.0
C1663 C 0.86052 0.49626 0.74146 0.0
C1664 C 0.86139 0.53881 0.74735 0.0
C1665 C 0.86088 0.5428 0.72666 0.0
C1666 C 0.86129 0.52372 0.71352 0.0
C1667 C 0.86111 0.50066 0.72087 0.0
C1668 C 0.83595 0.58271 0.69623 0.0
C1669 C 0.85185 0.60905 0.70405 0.0
C1670 C 0.83923 0.56143 0.7034 0.0
C1671 C 0.85827 0.56584 0.71874 0.0
C1672 C 0.87412 0.59212 0.72665 0.0
C1673 C 0.87104 0.61352 0.71933 0.0
H1674 H 0.49441 0.94235 0.25991 0.0
H1675 H 0.41522 0.88668 0.23351 0.0
H1676 H 0.51141 0.9641 0.22771 0.0
H1677 H 0.43245 0.90769 0.20095 0.0
H1678 H 0.46238 0.97077 0.14982 0.0
H1679 H 0.44425 0.94549 0.18095 0.0
H1680 H 0.52682 0.96186 0.19626 0.0
H1681 H 0.54478 0.98808 0.16571 0.0
C1682 C 0.48077 0.93439 0.24711 0.0
C1683 C 0.45344 0.9127 0.24938 0.0
C1684 C 0.49056 0.94684 0.22849 0.0
C1685 C 0.47348 0.93779 0.21139 0.0
C1686 C 0.44622 0.91572 0.21365 0.0
C1687 C 0.43632 0.90349 0.23237 0.0
C1688 C 0.4765 0.96864 0.15979 0.0
C1689 C 0.50504 0.9816 0.15535 0.0
C1690 C 0.46614 0.95407 0.1777 0.0
C1691 C 0.484 0.95172 0.19154 0.0
C1692 C 0.51237 0.96372 0.18648 0.0
C1693 C 0.52272 0.9786 0.1688 0.0
H1694 H 0.13178 0.57052 0.2258 0.0
H1695 H 0.06023 0.50862 0.25722 0.0
H1696 H 0.10354 0.56157 0.19561 0.0
H1697 H 0.03181 0.50016 0.22717 0.0
H1698 H 0.98883 0.52077 0.17468 0.0
H1699 H 0.01705 0.53064 0.20466 0.0
H1700 H 0.07587 0.51666 0.17236 0.0
H1701 H 0.04695 0.505 0.14258 0.0
C1702 C 0.10994 0.55524 0.22627 0.0
C1703 C 0.09811 0.54028 0.2438 0.0
C1704 C 0.09388 0.55003 0.20902 0.0
C1705 C 0.06555 0.5302 0.20912 0.0
C1706 C 0.05358 0.51564 0.22676 0.0
C1707 C 0.0698 0.52041 0.24388 0.0
C1708 C 0.00749 0.51929 0.17391 0.0
C1709 C 0.01531 0.51181 0.15603 0.0
C1710 C 0.02374 0.52518 0.19111 0.0
C1711 C 0.04858 0.5244 0.19078 0.0
C1712 C 0.05689 0.51762 0.17293 0.0
C1713 C 0.04034 0.51113 0.15582 0.0
H1714 H 0.51182 0.55675 0.25856 0.0
H1715 H 0.43854 0.55045 0.23139 0.0
H1716 H 0.52395 0.54358 0.22724 0.0
H1717 H 0.45119 0.5384 0.19955 0.0
H1718 H 0.47279 0.49799 0.148 0.0
H1719 H 0.45684 0.50715 0.17961 0.0
H1720 H 0.54222 0.56213 0.19624 0.0
H1721 H 0.55784 0.55206 0.16521 0.0
C1722 C 0.49825 0.55244 0.24582 0.0
C1723 C 0.47428 0.55469 0.24742 0.0
C1724 C 0.50534 0.54517 0.22774 0.0
C1725 C 0.48894 0.54042 0.21054 0.0
C1726 C 0.46432 0.54171 0.21238 0.0
C1727 C 0.45702 0.54862 0.23064 0.0
C1728 C 0.48804 0.51214 0.15843 0.0
C1729 C 0.51657 0.52409 0.1542 0.0
C1730 C 0.47893 0.51745 0.17657 0.0
C1731 C 0.49817 0.5351 0.19082 0.0
C1732 C 0.52668 0.54775 0.1861 0.0
C1733 C 0.53572 0.54217 0.16816 0.0
H1734 H 0.89204 0.4526 0.81658 0.0
H1735 H 0.95874 0.45205 0.78393 0.0
H1736 H 0.92085 0.46749 0.84648 0.0
H1737 H 0.98801 0.46781 0.81358 0.0
H1738 H 0.01919 0.46156 0.87503 0.0
H1739 H 0.99183 0.45049 0.8446 0.0
H1740 H 0.95994 0.5026 0.86309 0.0
H1741 H 0.98686 0.51301 0.89388 0.0
C1742 C 0.91312 0.45628 0.8157 0.0
C1743 C 0.92311 0.45105 0.79795 0.0
C1744 C 0.92969 0.46485 0.83284 0.0
C1745 C 0.95676 0.46863 0.83259 0.0
C1746 C 0.96708 0.46448 0.81453 0.0
C1747 C 0.9504 0.45563 0.79747 0.0
C1748 C 0.00647 0.47079 0.87252 0.0
C1749 C 0.00521 0.48819 0.88684 0.0
C1750 C 0.99084 0.46455 0.855 0.0
C1751 C 0.97372 0.47577 0.85122 0.0
C1752 C 0.97256 0.49328 0.86556 0.0
C1753 C 0.98802 0.4993 0.88321 0.0
H1754 H 0.60404 0.48836 0.80845 0.0
H1755 H 0.526 0.46793 0.78064 0.0
H1756 H 0.58559 0.49172 0.84078 0.0
H1757 H 0.50785 0.4723 0.81255 0.0
H1758 H 0.47203 0.46066 0.87392 0.0
H1759 H 0.49129 0.45326 0.84351 0.0
H1760 H 0.57296 0.51783 0.86046 0.0
H1761 H 0.55356 0.52413 0.89143 0.0
C1762 C 0.58296 0.48468 0.80925 0.0
C1763 C 0.56643 0.47767 0.79198 0.0
C1764 C 0.57237 0.48675 0.8278 0.0
C1765 C 0.54507 0.48223 0.82952 0.0
C1766 C 0.52867 0.47528 0.81212 0.0
C1767 C 0.53912 0.47285 0.7937 0.0
C1768 C 0.49414 0.47312 0.87118 0.0
C1769 C 0.51125 0.49307 0.88501 0.0
C1770 C 0.50524 0.46906 0.85362 0.0
C1771 C 0.53375 0.4852 0.84915 0.0
C1772 C 0.55099 0.50474 0.86333 0.0
C1773 C 0.5399 0.50847 0.8811 0.0
H1774 H 0.5618 0.07611 0.78725 0.0
H1775 H 0.52521 0.12369 0.80691 0.0
H1776 H 0.55292 0.05472 0.82018 0.0
H1777 H 0.51543 0.10149 0.83934 0.0
H1778 H 0.46648 0.02507 0.88036 0.0
H1779 H 0.48203 0.0526 0.85001 0.0
H1780 H 0.56438 0.06432 0.85815 0.0
H1781 H 0.54874 0.03703 0.88894 0.0
C1782 C 0.55228 0.08239 0.79859 0.0
C1783 C 0.54387 0.10144 0.79409 0.0
C1784 C 0.5471 0.07 0.81749 0.0
C1785 C 0.53312 0.07611 0.83234 0.0
C1786 C 0.52579 0.09594 0.82815 0.0
C1787 C 0.5313 0.10858 0.80943 0.0
C1788 C 0.48801 0.03389 0.87583 0.0
C1789 C 0.50643 0.02906 0.88708 0.0
C1790 C 0.49696 0.04969 0.85845 0.0
C1791 C 0.52447 0.06068 0.8516 0.0
C1792 C 0.54304 0.05607 0.86297 0.0
C1793 C 0.53418 0.04066 0.88065 0.0
H1794 H 0.08334 0.22118 0.56701 0.0
H1795 H 0.16265 0.27674 0.59329 0.0
H1796 H 0.10043 0.2423 0.53446 0.0
H1797 H 0.17952 0.29861 0.56111 0.0
H1798 H 0.2125 0.3227 0.49898 0.0
H1799 H 0.19475 0.29648 0.52955 0.0
H1800 H 0.11209 0.28022 0.51465 0.0
H1801 H 0.12999 0.30551 0.4835 0.0
C1802 C 0.10444 0.23799 0.56584 0.0
C1803 C 0.12164 0.24714 0.58281 0.0
C1804 C 0.11426 0.25028 0.54714 0.0
C1805 C 0.1415 0.27236 0.54485 0.0
C1806 C 0.15867 0.28135 0.56191 0.0
C1807 C 0.14896 0.26882 0.58052 0.0
C1808 C 0.19047 0.31327 0.50217 0.0
C1809 C 0.17269 0.3163 0.48883 0.0
C1810 C 0.18024 0.29838 0.51986 0.0
C1811 C 0.15191 0.28638 0.52502 0.0
C1812 C 0.13396 0.28878 0.5113 0.0
C1813 C 0.14419 0.30337 0.49339 0.0
H1814 H 0.71848 0.87536 0.59532 0.0
H1815 H 0.7818 0.86391 0.56723 0.0
H1816 H 0.69607 0.8702 0.56319 0.0
H1817 H 0.76 0.85966 0.53481 0.0
H1818 H 0.69603 0.8226 0.48408 0.0
H1819 H 0.72118 0.83021 0.51544 0.0
H1820 H 0.69862 0.89012 0.5322 0.0
H1821 H 0.67268 0.88161 0.50123 0.0
C1822 C 0.7279 0.87224 0.58218 0.0
C1823 C 0.75192 0.87007 0.58382 0.0
C1824 C 0.71509 0.86934 0.56367 0.0
C1825 C 0.72614 0.86453 0.54623 0.0
C1826 C 0.75052 0.86286 0.54788 0.0
C1827 C 0.76315 0.86544 0.56646 0.0
C1828 C 0.69668 0.83753 0.49444 0.0
C1829 C 0.6822 0.85134 0.49027 0.0
C1830 C 0.7112 0.84201 0.51242 0.0
C1831 C 0.71188 0.86068 0.52657 0.0
C1832 C 0.69807 0.8751 0.522 0.0
C1833 C 0.68329 0.87035 0.50417 0.0
H1834 H 0.17947 0.89066 0.59163 0.0
H1835 H 0.10605 0.88404 0.56443 0.0
H1836 H 0.1916 0.87739 0.56036 0.0
H1837 H 0.11868 0.87183 0.53265 0.0
H1838 H 0.14033 0.83099 0.48139 0.0
H1839 H 0.12439 0.84034 0.51294 0.0
H1840 H 0.20973 0.89597 0.52927 0.0
H1841 H 0.22535 0.88577 0.49829 0.0
C1842 C 0.16587 0.88626 0.5789 0.0
C1843 C 0.14187 0.88847 0.58047 0.0
C1844 C 0.17295 0.87892 0.56085 0.0
C1845 C 0.1565 0.87403 0.54367 0.0
C1846 C 0.13185 0.87526 0.54547 0.0
C1847 C 0.12456 0.88226 0.5637 0.0
C1848 C 0.15557 0.84532 0.49174 0.0
C1849 C 0.1841 0.85742 0.48744 0.0
C1850 C 0.14647 0.85074 0.50984 0.0
C1851 C 0.16571 0.86863 0.52398 0.0
C1852 C 0.19421 0.88142 0.51919 0.0
C1853 C 0.20324 0.87575 0.5013 0.0
H1854 H 0.61947 0.76171 0.12837 0.0
H1855 H 0.59053 0.81956 0.13147 0.0
H1856 H 0.63968 0.77543 0.16133 0.0
H1857 H 0.61255 0.83436 0.16424 0.0
H1858 H 0.69189 0.87033 0.20865 0.0
H1859 H 0.6658 0.85691 0.17723 0.0
H1860 H 0.61995 0.77399 0.19786 0.0
H1861 H 0.64567 0.78746 0.2294 0.0
C1862 C 0.61699 0.77709 0.13609 0.0
C1863 C 0.60278 0.78912 0.1272 0.0
C1864 C 0.62884 0.78506 0.15499 0.0
C1865 C 0.62745 0.80575 0.16537 0.0
C1866 C 0.61386 0.81832 0.15649 0.0
C1867 C 0.60143 0.80992 0.13767 0.0
C1868 C 0.67599 0.84931 0.20652 0.0
C1869 C 0.67083 0.82988 0.22138 0.0
C1870 C 0.66099 0.8417 0.18864 0.0
C1871 C 0.64096 0.81444 0.18516 0.0
C1872 C 0.63536 0.79513 0.20019 0.0
C1873 C 0.64996 0.80283 0.21822 0.0
H1874 H 0.27053 0.81857 0.14187 0.0
H1875 H 0.19287 0.79895 0.1138 0.0
H1876 H 0.25211 0.82227 0.17411 0.0
H1877 H 0.17474 0.80364 0.14564 0.0
H1878 H 0.13874 0.79167 0.20707 0.0
H1879 H 0.15798 0.78437 0.1766 0.0
H1880 H 0.2397 0.84874 0.19365 0.0
H1881 H 0.22032 0.85499 0.22464 0.0
C1882 C 0.24955 0.81518 0.14259 0.0
C1883 C 0.23311 0.80829 0.12528 0.0
C1884 C 0.23898 0.81744 0.16108 0.0
C1885 C 0.21178 0.8132 0.16271 0.0
C1886 C 0.19548 0.80642 0.14527 0.0
C1887 C 0.20592 0.80382 0.1269 0.0
C1888 C 0.16085 0.80412 0.20433 0.0
C1889 C 0.17799 0.824 0.21819 0.0
C1890 C 0.17193 0.80011 0.18675 0.0
C1891 C 0.20045 0.81621 0.1823 0.0
C1892 C 0.21772 0.83568 0.1965 0.0
C1893 C 0.20664 0.83938 0.21429 0.0
H1894 H 0.19055 0.45562 0.14084 0.0
H1895 H 0.22589 0.40717 0.12072 0.0
H1896 H 0.18069 0.4333 0.17323 0.0
H1897 H 0.21689 0.38555 0.15363 0.0
H1898 H 0.21218 0.36788 0.22276 0.0
H1899 H 0.22835 0.39509 0.19195 0.0
H1900 H 0.14638 0.38406 0.18319 0.0
H1901 H 0.13028 0.3566 0.21354 0.0
C1902 C 0.19637 0.4403 0.14328 0.0
C1903 C 0.20851 0.43287 0.12783 0.0
C1904 C 0.19081 0.42759 0.16196 0.0
C1905 C 0.19768 0.4074 0.16597 0.0
C1906 C 0.2114 0.40109 0.15104 0.0
C1907 C 0.21664 0.41358 0.13217 0.0
C1908 C 0.19781 0.3716 0.21432 0.0
C1909 C 0.17001 0.36024 0.22058 0.0
C1910 C 0.20698 0.38697 0.19663 0.0
C1911 C 0.18867 0.39178 0.18511 0.0
C1912 C 0.1611 0.38097 0.19177 0.0
C1913 C 0.15184 0.3652 0.20913 0.0
H1914 H 0.74835 0.55294 0.89822 0.0
H1915 H 0.82706 0.60856 0.92524 0.0
H1916 H 0.76584 0.57449 0.86586 0.0
H1917 H 0.84433 0.63091 0.89322 0.0
H1918 H 0.87814 0.65593 0.8313 0.0
H1919 H 0.86016 0.62945 0.86174 0.0
H1920 H 0.77744 0.61244 0.84622 0.0
H1921 H 0.79558 0.63799 0.81521 0.0
C1922 C 0.7694 0.56988 0.89726 0.0
C1923 C 0.78631 0.57893 0.91437 0.0
C1924 C 0.77945 0.58242 0.87866 0.0
C1925 C 0.80665 0.60467 0.87663 0.0
C1926 C 0.82353 0.61354 0.89383 0.0
C1927 C 0.8136 0.60076 0.91234 0.0
C1928 C 0.85605 0.64628 0.83433 0.0
C1929 C 0.83832 0.64916 0.82085 0.0
C1930 C 0.84569 0.63124 0.85195 0.0
C1931 C 0.81726 0.61894 0.8569 0.0
C1932 C 0.79938 0.62122 0.84304 0.0
C1933 C 0.80975 0.63596 0.8252 0.0
H1934 H 0.39368 0.15628 0.91628 0.0
H1935 H 0.44081 0.24348 0.90882 0.0
H1936 H 0.37229 0.15189 0.88381 0.0
H1937 H 0.41836 0.23893 0.87661 0.0
H1938 H 0.34382 0.21712 0.83317 0.0
H1939 H 0.369 0.2233 0.86442 0.0
H1940 H 0.38649 0.16024 0.84706 0.0
H1941 H 0.36131 0.15408 0.81574 0.0
C1942 C 0.39978 0.17453 0.90769 0.0
C1943 C 0.4192 0.20026 0.91528 0.0
C1944 C 0.38737 0.17196 0.88907 0.0
C1945 C 0.39369 0.19505 0.87765 0.0
C1946 C 0.41293 0.22078 0.88517 0.0
C1947 C 0.42567 0.22336 0.90369 0.0
C1948 C 0.35312 0.20464 0.83602 0.0
C1949 C 0.35052 0.18504 0.82206 0.0
C1950 C 0.3677 0.20832 0.85383 0.0
C1951 C 0.37965 0.19221 0.8582 0.0
C1952 C 0.37732 0.17281 0.84414 0.0
C1953 C 0.36309 0.16942 0.82618 0.0
H1954 H 0.84392 0.22277 0.92629 0.0
H1955 H 0.77284 0.21867 0.89704 0.0
H1956 H 0.85747 0.21027 0.89524 0.0
H1957 H 0.78683 0.20713 0.86561 0.0
H1958 H 0.81048 0.16812 0.81445 0.0
H1959 H 0.79306 0.17587 0.8459 0.0
H1960 H 0.87754 0.23039 0.8647 0.0
H1961 H 0.89466 0.22192 0.83373 0.0
C1962 C 0.8311 0.21904 0.91319 0.0
C1963 C 0.80736 0.22177 0.91411 0.0
C1964 C 0.839 0.21213 0.89528 0.0
C1965 C 0.82362 0.20817 0.87765 0.0
C1966 C 0.79917 0.20982 0.87881 0.0
C1967 C 0.79108 0.21642 0.89685 0.0
C1968 C 0.82524 0.18187 0.82531 0.0
C1969 C 0.85396 0.1942 0.82166 0.0
C1970 C 0.81528 0.18635 0.84337 0.0
C1971 C 0.83382 0.20349 0.85814 0.0
C1972 C 0.86253 0.2164 0.85409 0.0
C1973 C 0.87242 0.21171 0.83621 0.0
H1974 H 0.25477 0.15078 0.46418 0.0
H1975 H 0.2847 0.09376 0.46017 0.0
H1976 H 0.27718 0.16554 0.49684 0.0
H1977 H 0.30523 0.10737 0.49305 0.0
H1978 H 0.31139 0.1188 0.56132 0.0
H1979 H 0.28527 0.10546 0.52993 0.0
H1980 H 0.33117 0.18839 0.50933 0.0
H1981 H 0.35771 0.20165 0.54058 0.0
C1982 C 0.26596 0.14131 0.47016 0.0
C1983 C 0.26746 0.12073 0.45946 0.0
C1984 C 0.27861 0.14968 0.48892 0.0
C1985 C 0.29255 0.13729 0.49753 0.0
C1986 C 0.29411 0.11685 0.48692 0.0
C1987 C 0.28207 0.10893 0.46807 0.0
C1988 C 0.3156 0.1342 0.55019 0.0
C1989 C 0.33662 0.1612 0.55329 0.0
C1990 C 0.30077 0.12658 0.53225 0.0
C1991 C 0.30626 0.14592 0.51726 0.0
C1992 C 0.32644 0.17314 0.52071 0.0
C1993 C 0.34168 0.18067 0.53849 0.0
H1994 H 0.93733 0.15522 0.47538 0.0
H1995 H 0.8588 0.13407 0.44806 0.0
H1996 H 0.91929 0.15896 0.50778 0.0
H1997 H 0.84104 0.13879 0.48004 0.0
H1998 H 0.80601 0.12697 0.54172 0.0
H1999 H 0.82506 0.1197 0.51115 0.0
H2000 H 0.90658 0.18517 0.5274 0.0
H2001 H 0.88742 0.1914 0.55851 0.0
C2002 C 0.91624 0.15149 0.4763 0.0
C2003 C 0.89944 0.14414 0.45916 0.0
C2004 C 0.90589 0.15377 0.49488 0.0
C2005 C 0.87855 0.1491 0.49676 0.0
C2006 C 0.86191 0.14189 0.47948 0.0
C2007 C 0.87213 0.13927 0.46103 0.0
C2008 C 0.82805 0.13967 0.53878 0.0
C2009 C 0.84519 0.15986 0.55246 0.0
C2010 C 0.83901 0.13568 0.52114 0.0
C2011 C 0.86741 0.15209 0.51644 0.0
C2012 C 0.8847 0.17188 0.53045 0.0
C2013 C 0.87374 0.17557 0.5483 0.0
H2014 H 0.91026 0.78893 0.47053 0.0
H2015 H 0.83166 0.7253 0.4484 0.0
H2016 H 0.89996 0.76667 0.50332 0.0
H2017 H 0.82176 0.70251 0.48049 0.0
H2018 H 0.79446 0.68062 0.5435 0.0
H2019 H 0.80808 0.70612 0.51245 0.0
H2020 H 0.89384 0.72971 0.52376 0.0
H2021 H 0.87996 0.70489 0.55553 0.0
C2022 C 0.89101 0.76995 0.47259 0.0
C2023 C 0.87164 0.75902 0.45694 0.0
C2024 C 0.88505 0.75713 0.49139 0.0
C2025 C 0.85969 0.73292 0.4949 0.0
C2026 C 0.84106 0.72153 0.4788 0.0
C2027 C 0.84683 0.73446 0.46024 0.0
C2028 C 0.81627 0.69151 0.53945 0.0
C2029 C 0.83609 0.69061 0.55192 0.0
C2030 C 0.82414 0.70595 0.52147 0.0
C2031 C 0.85209 0.71961 0.51512 0.0
C2032 C 0.87214 0.71958 0.52803 0.0
C2033 C 0.86423 0.70535 0.54627 0.0
loop_
_geom_bond_atom_site_label_1
_geom_bond_atom_site_label_2
_geom_bond_distance
_geom_bond_site_symmetry_2
_ccdc_geom_bond_type
H0 C3 0.929 . S
H1 C6 0.929 . S
H2 C8 0.930 . S
C3 H0 0.929 . S
C3 C4 1.398 . S
C3 C5 1.396 . S
C4 C3 1.398 . S
C4 C8 1.407 . S
C5 C3 1.396 . S
C5 C6 1.394 . S
C6 H1 0.929 . S
C6 C5 1.394 . S
C6 C7 1.382 . S
C7 C6 1.382 . S
C7 C8 1.392 . S
C7 N9 1.420 . S
C8 H2 0.930 . S
C8 C4 1.407 . S
C8 C7 1.392 . S
N9 C7 1.420 . S
N9 C10 1.244 . S
C10 N9 1.244 . S
H11 C14 0.929 . S
H12 C17 0.929 . S
H13 C19 0.930 . S
C14 H11 0.929 . S
C14 C15 1.398 . S
C14 C16 1.396 . S
C15 C14 1.398 . S
C15 C19 1.407 . S
C16 C14 1.396 . S
C16 C17 1.394 . S
C17 H12 0.929 . S
C17 C16 1.394 . S
C17 C18 1.382 . S
C18 C17 1.382 . S
C18 C19 1.392 . S
C18 N20 1.420 . S
C19 H13 0.930 . S
C19 C15 1.407 . S
C19 C18 1.392 . S
N20 C18 1.420 . S
N20 C21 1.244 . S
C21 N20 1.244 . S
H22 C25 0.929 . S
H23 C28 0.929 . S
H24 C30 0.930 . S
C25 H22 0.929 . S
C25 C26 1.398 . S
C25 C27 1.396 . S
C26 C25 1.398 . S
C26 C30 1.407 . S
C27 C25 1.396 . S
C27 C28 1.394 . S
C28 H23 0.929 . S
C28 C27 1.394 . S
C28 C29 1.382 . S
C29 C28 1.382 . S
C29 C30 1.392 . S
C29 N31 1.420 . S
C30 H24 0.930 . S
C30 C26 1.407 . S
C30 C29 1.392 . S
N31 C29 1.420 . S
N31 C32 1.244 . S
C32 N31 1.244 . S
H33 C36 0.929 . S
H34 C39 0.929 . S
H35 C41 0.930 . S
C36 H33 0.929 . S
C36 C37 1.398 . S
C36 C38 1.396 . S
C37 C36 1.398 . S
C37 C41 1.407 . S
C38 C36 1.396 . S
C38 C39 1.394 . S
C39 H34 0.929 . S
C39 C38 1.394 . S
C39 C40 1.382 . S
C40 C39 1.382 . S
C40 C41 1.392 . S
C40 N42 1.420 . S
C41 H35 0.930 . S
C41 C37 1.407 . S
C41 C40 1.392 . S
N42 C40 1.420 . S
N42 C43 1.244 . S
C43 N42 1.244 . S
H44 C47 0.929 . S
H45 C50 0.929 . S
H46 C52 0.930 . S
C47 H44 0.929 . S
C47 C48 1.398 . S
C47 C49 1.396 . S
C48 C47 1.398 . S
C48 C52 1.407 . S
C49 C47 1.396 . S
C49 C50 1.394 . S
C50 H45 0.929 . S
C50 C49 1.394 . S
C50 C51 1.382 . S
C51 C50 1.382 . S
C51 C52 1.392 . S
C51 N53 1.420 . S
C52 H46 0.930 . S
C52 C48 1.407 . S
C52 C51 1.392 . S
N53 C51 1.420 . S
N53 C54 1.244 . S
C54 N53 1.244 . S
H55 C58 0.929 . S
H56 C61 0.929 . S
H57 C63 0.930 . S
C58 H55 0.929 . S
C58 C59 1.398 . S
C58 C60 1.396 . S
C59 C58 1.398 . S
C59 C63 1.407 . S
C60 C58 1.396 . S
C60 C61 1.394 . S
C61 H56 0.929 . S
C61 C60 1.394 . S
C61 C62 1.382 . S
C62 C61 1.382 . S
C62 C63 1.392 . S
C62 N64 1.420 . S
C63 H57 0.930 . S
C63 C59 1.407 . S
C63 C62 1.392 . S
N64 C62 1.420 . S
N64 C65 1.244 . S
C65 N64 1.244 . S
H66 C69 0.929 . S
H67 C72 0.929 . S
H68 C74 0.930 . S
C69 H66 0.929 . S
C69 C70 1.398 . S
C69 C71 1.396 . S
C70 C69 1.398 . S
C70 C74 1.407 . S
C71 C69 1.396 . S
C71 C72 1.394 . S
C72 H67 0.929 . S
C72 C71 1.394 . S
C72 C73 1.382 . S
C73 C72 1.382 . S
C73 C74 1.392 . S
C73 N75 1.420 . S
C74 H68 0.930 . S
C74 C70 1.407 . S
C74 C73 1.392 . S
N75 C73 1.420 . S
N75 C76 1.244 . S
C76 N75 1.244 . S
H77 C80 0.929 . S
H78 C83 0.929 . S
H79 C85 0.930 . S
C80 H77 0.929 . S
C80 C81 1.398 . S
C80 C82 1.396 . S
C81 C80 1.398 . S
C81 C85 1.407 . S
C82 C80 1.396 . S
C82 C83 1.394 . S
C83 H78 0.929 . S
C83 C82 1.394 . S
C83 C84 1.382 . S
C84 C83 1.382 . S
C84 C85 1.392 . S
C84 N86 1.420 . S
C85 H79 0.930 . S
C85 C81 1.407 . S
C85 C84 1.392 . S
N86 C84 1.420 . S
N86 C87 1.244 . S
C87 N86 1.244 . S
H88 C91 0.929 . S
H89 C94 0.929 . S
H90 C96 0.930 . S
C91 H88 0.929 . S
C91 C92 1.398 . S
C91 C93 1.396 . S
C92 C91 1.398 . S
C92 C96 1.407 . S
C93 C91 1.396 . S
C93 C94 1.394 . S
C94 H89 0.929 . S
C94 C93 1.394 . S
C94 C95 1.382 . S
C95 C94 1.382 . S
C95 C96 1.392 . S
C95 N97 1.420 . S
C96 H90 0.930 . S
C96 C92 1.407 . S
C96 C95 1.392 . S
N97 C95 1.420 . S
N97 C98 1.244 . S
C98 N97 1.244 . S
H99 C102 0.929 . S
H100 C105 0.929 . S
H101 C107 0.930 . S
C102 H99 0.929 . S
C102 C103 1.398 . S
C102 C104 1.396 . S
C103 C102 1.398 . S
C103 C107 1.407 . S
C104 C102 1.396 . S
C104 C105 1.394 . S
C105 H100 0.929 . S
C105 C104 1.394 . S
C105 C106 1.382 . S
C106 C105 1.382 . S
C106 C107 1.392 . S
C106 N108 1.420 . S
C107 H101 0.930 . S
C107 C103 1.407 . S
C107 C106 1.392 . S
N108 C106 1.420 . S
N108 C109 1.244 . S
C109 N108 1.244 . S
H110 C113 0.929 . S
H111 C116 0.929 . S
H112 C118 0.930 . S
C113 H110 0.929 . S
C113 C114 1.398 . S
C113 C115 1.396 . S
C114 C113 1.398 . S
C114 C118 1.407 . S
C115 C113 1.396 . S
C115 C116 1.394 . S
C116 H111 0.929 . S
C116 C115 1.394 . S
C116 C117 1.382 . S
C117 C116 1.382 . S
C117 C118 1.392 . S
C117 N119 1.420 . S
C118 H112 0.930 . S
C118 C114 1.407 . S
C118 C117 1.392 . S
N119 C117 1.420 . S
N119 C120 1.244 . S
C120 N119 1.244 . S
H121 C124 0.929 . S
H122 C127 0.929 . S
H123 C129 0.930 . S
C124 H121 0.929 . S
C124 C125 1.398 . S
C124 C126 1.396 . S
C125 C124 1.398 . S
C125 C129 1.407 . S
C126 C124 1.396 . S
C126 C127 1.394 . S
C127 H122 0.929 . S
C127 C126 1.394 . S
C127 C128 1.382 . S
C128 C127 1.382 . S
C128 C129 1.392 . S
C128 N130 1.420 . S
C129 H123 0.930 . S
C129 C125 1.407 . S
C129 C128 1.392 . S
N130 C128 1.420 . S
N130 C131 1.244 . S
C131 N130 1.244 . S
H132 C135 0.929 . S
H133 C138 0.929 . S
H134 C140 0.930 . S
C135 H132 0.929 . S
C135 C136 1.398 . S
C135 C137 1.396 . S
C136 C135 1.398 . S
C136 C140 1.407 . S
C137 C135 1.396 . S
C137 C138 1.394 . S
C138 H133 0.929 . S
C138 C137 1.394 . S
C138 C139 1.382 . S
C139 C138 1.382 . S
C139 C140 1.392 . S
C139 N141 1.420 . S
C140 H134 0.930 . S
C140 C136 1.407 . S
C140 C139 1.392 . S
N141 C139 1.420 . S
N141 C142 1.244 . S
C142 N141 1.244 . S
H143 C146 0.929 . S
H144 C149 0.929 . S
H145 C151 0.930 . S
C146 H143 0.929 . S
C146 C147 1.398 . S
C146 C148 1.396 . S
C147 C146 1.398 . S
C147 C151 1.407 . S
C148 C146 1.396 . S
C148 C149 1.394 . S
C149 H144 0.929 . S
C149 C148 1.394 . S
C149 C150 1.382 . S
C150 C149 1.382 . S
C150 C151 1.392 . S
C150 N152 1.420 . S
C151 H145 0.930 . S
C151 C147 1.407 . S
C151 C150 1.392 . S
N152 C150 1.420 . S
N152 C153 1.244 . S
C153 N152 1.244 . S
H154 C157 0.929 . S
H155 C160 0.929 . S
H156 C162 0.930 . S
C157 H154 0.929 . S
C157 C158 1.398 . S
C157 C159 1.396 . S
C158 C157 1.398 . S
C158 C162 1.407 . S
C159 C157 1.396 . S
C159 C160 1.394 . S
C160 H155 0.929 . S
C160 C159 1.394 . S
C160 C161 1.382 . S
C161 C160 1.382 . S
C161 C162 1.392 . S
C161 N163 1.420 . S
C162 H156 0.930 . S
C162 C158 1.407 . S
C162 C161 1.392 . S
N163 C161 1.420 . S
N163 C164 1.244 . S
C164 N163 1.244 . S
H165 C168 0.929 . S
H166 C171 0.929 . S
H167 C173 0.930 . S
C168 H165 0.929 . S
C168 C169 1.398 . S
C168 C170 1.396 . S
C169 C168 1.398 . S
C169 C173 1.407 . S
C170 C168 1.396 . S
C170 C171 1.394 . S
C171 H166 0.929 . S
C171 C170 1.394 . S
C171 C172 1.382 . S
C172 C171 1.382 . S
C172 C173 1.392 . S
C172 N174 1.420 . S
C173 H167 0.930 . S
C173 C169 1.407 . S
C173 C172 1.392 . S
N174 C172 1.420 . S
N174 C175 1.244 . S
C175 N174 1.244 . S
H176 C179 0.929 . S
H177 C182 0.929 . S
H178 C184 0.930 . S
C179 H176 0.929 . S
C179 C180 1.398 . S
C179 C181 1.396 . S
C180 C179 1.398 . S
C180 C184 1.407 . S
C181 C179 1.396 . S
C181 C182 1.394 . S
C182 H177 0.929 . S
C182 C181 1.394 . S
C182 C183 1.382 . S
C183 C182 1.382 . S
C183 C184 1.392 . S
C183 N185 1.420 . S
C184 H178 0.930 . S
C184 C180 1.407 . S
C184 C183 1.392 . S
N185 C183 1.420 . S
N185 C186 1.244 . S
C186 N185 1.244 . S
H187 C190 0.929 . S
H188 C193 0.929 . S
H189 C195 0.930 . S
C190 H187 0.929 . S
C190 C191 1.398 . S
C190 C192 1.396 . S
C191 C190 1.398 . S
C191 C195 1.407 . S
C192 C190 1.396 . S
C192 C193 1.394 . S
C193 H188 0.929 . S
C193 C192 1.394 . S
C193 C194 1.382 . S
C194 C193 1.382 . S
C194 C195 1.392 . S
C194 N196 1.420 . S
C195 H189 0.930 . S
C195 C191 1.407 . S
C195 C194 1.392 . S
N196 C194 1.420 . S
N196 C197 1.244 . S
C197 N196 1.244 . S
Tb198 N229 2.660 . S
Tb198 N236 2.600 . S
Tb198 O242 2.546 . S
Tb198 O243 2.610 1_566 S
Tb198 O245 2.320 1_565 S
Tb198 O246 2.552 1_565 S
Tb198 O247 2.413 1_565 S
Tb198 O249 2.362 1_556 S
Tb198 O250 2.423 1_556 S
Tb198 C262 2.832 1_565 S
C199 C202 1.432 . S
C199 C203 1.414 . S
C199 N206 1.359 . S
C200 C202 1.417 . S
C200 C204 1.432 . S
C200 C212 1.410 . S
C201 C203 1.444 . S
C201 C204 1.317 . S
C201 H224 0.929 . S
C202 C199 1.432 . S
C202 C200 1.417 . S
C202 N210 1.360 . S
C203 C199 1.414 . S
C203 C201 1.444 . S
C203 C208 1.385 . S
C204 C200 1.432 . S
C204 C201 1.317 . S
C204 H216 0.930 . S
C205 C207 1.392 . S
C205 C208 1.370 . S
C205 H217 0.931 . S
N206 C199 1.359 . S
N206 C207 1.327 . S
N206 Tb209 2.600 . S
C207 C205 1.392 . S
C207 N206 1.327 . S
C207 H214 0.930 . S
C208 C203 1.385 . S
C208 C205 1.370 . S
C208 H227 0.930 . S
Tb209 N206 2.600 . S
Tb209 N210 2.660 . S
Tb209 O243 2.362 . S
Tb209 O244 2.421 . S
Tb209 O248 2.546 . S
Tb209 O249 2.610 1_545 S
Tb209 O251 2.320 1_545 S
Tb209 O252 2.552 1_545 S
Tb209 O253 2.413 1_545 S
Tb209 C273 2.833 . S
N210 C202 1.360 . S
N210 Tb209 2.660 . S
N210 C211 1.305 . S
C211 N210 1.305 . S
C211 C213 1.407 . S
C211 H218 0.930 . S
C212 C200 1.410 . S
C212 C213 1.345 . S
C212 H220 0.930 . S
C213 C211 1.407 . S
C213 C212 1.345 . S
C213 H215 0.930 . S
H214 C207 0.930 . S
H215 C213 0.930 . S
H216 C204 0.930 . S
H217 C205 0.931 . S
H218 C211 0.930 . S
H219 C233 0.930 . S
H220 C212 0.930 . S
H221 C239 0.930 . S
H222 C230 0.930 . S
H223 C237 0.931 . S
H224 C201 0.929 . S
H225 C231 0.930 . S
H226 C264 0.930 . S
H227 C208 0.930 . S
H228 C263 0.929 . S
N229 Tb198 2.660 . S
N229 C230 1.305 . S
N229 C234 1.360 . S
C230 H222 0.930 . S
C230 N229 1.305 . S
C230 C233 1.407 . S
C231 H225 0.930 . S
C231 C232 1.410 . S
C231 C233 1.345 . S
C232 C231 1.410 . S
C232 C234 1.417 . S
C232 C264 1.432 . S
C233 H219 0.930 . S
C233 C230 1.407 . S
C233 C231 1.345 . S
C234 N229 1.360 . S
C234 C232 1.417 . S
C234 C238 1.432 . S
H235 C240 0.930 . S
N236 Tb198 2.600 . S
N236 C238 1.359 . S
N236 C239 1.327 . S
C237 H223 0.931 . S
C237 C239 1.392 . S
C237 C240 1.370 . S
C238 C234 1.432 . S
C238 N236 1.359 . S
C238 C241 1.414 . S
C239 H221 0.930 . S
C239 N236 1.327 . S
C239 C237 1.392 . S
C240 H235 0.930 . S
C240 C237 1.370 . S
C240 C241 1.385 . S
C241 C238 1.414 . S
C241 C240 1.385 . S
C241 C263 1.444 . S
O242 Tb198 2.546 . S
O242 C262 1.238 1_565 S
O243 Tb198 2.610 1_544 S
O243 Tb209 2.362 . S
O243 C254 1.283 1_554 S
O244 Tb209 2.421 . S
O244 C261 1.262 . S
O245 Tb198 2.320 1_545 S
O245 C261 1.260 1_556 S
O246 Tb198 2.552 1_545 S
O246 C254 1.243 . S
O247 Tb198 2.413 1_545 S
O247 C262 1.267 . S
O248 Tb209 2.546 . S
O248 C273 1.251 . S
O249 Tb198 2.362 1_554 S
O249 Tb209 2.610 1_565 S
O249 C265 1.283 . S
O250 Tb198 2.423 1_554 S
O250 C272 1.258 . S
O251 Tb209 2.320 1_565 S
O251 C272 1.260 . S
O252 Tb209 2.552 1_565 S
O252 C265 1.243 . S
O253 Tb209 2.413 1_565 S
O253 C273 1.256 1_565 S
C254 O243 1.283 1_556 S
C254 O246 1.243 . S
C255 C257 1.382 . S
C255 C259 1.393 1_545 S
C255 C262 1.502 . S
C256 C257 1.400 . S
C256 C258 1.384 . S
C257 C255 1.382 . S
C257 C256 1.400 . S
C257 H274 0.930 . S
C258 C256 1.384 . S
C258 C260 1.392 1_545 S
C258 H275 0.931 . S
C259 C255 1.393 1_565 S
C259 C260 1.401 . S
C259 H276 0.930 . S
C260 C258 1.392 1_565 S
C260 C259 1.401 . S
C260 H277 0.930 . S
C261 O244 1.262 . S
C261 O245 1.260 1_554 S
C262 Tb198 2.832 1_545 S
C262 O242 1.238 1_545 S
C262 O247 1.267 . S
C262 C255 1.502 . S
C263 H228 0.929 . S
C263 C241 1.444 . S
C263 C264 1.317 . S
C264 H226 0.930 . S
C264 C232 1.432 . S
C264 C263 1.317 . S
C265 O249 1.283 . S
C265 O252 1.243 . S
C266 C267 1.382 1_545 S
C266 C270 1.393 . S
C266 C273 1.500 . S
C267 C266 1.382 1_565 S
C267 C268 1.400 . S
C267 H278 0.930 . S
C268 C267 1.400 . S
C268 C269 1.384 . S
C269 C268 1.384 . S
C269 C271 1.392 1_565 S
C269 H279 0.931 . S
C270 C266 1.393 . S
C270 C271 1.401 . S
C270 H280 0.930 . S
C271 C269 1.392 1_545 S
C271 C270 1.401 . S
C271 H281 0.930 . S
C272 O250 1.258 . S
C272 O251 1.260 . S
C273 Tb209 2.833 . S
C273 O248 1.251 . S
C273 O253 1.256 1_545 S
C273 C266 1.500 . S
H274 C257 0.930 . S
H275 C258 0.931 . S
H276 C259 0.930 . S
H277 C260 0.930 . S
H278 C267 0.930 . S
H279 C269 0.931 . S
H280 C270 0.930 . S
H281 C271 0.930 . S
Tb282 N313 2.660 . S
Tb282 N320 2.600 . S
Tb282 O326 2.546 . S
Tb282 O327 2.610 1_456 S
Tb282 O329 2.320 1_455 S
Tb282 O330 2.552 1_455 S
Tb282 O331 2.416 . S
Tb282 O333 2.362 1_556 S
Tb282 O334 2.421 1_556 S
Tb282 C346 2.833 . S
C283 C286 1.432 . S
C283 C287 1.414 . S
C283 N290 1.359 . S
C284 C286 1.417 . S
C284 C288 1.432 . S
C284 C296 1.410 . S
C285 C287 1.444 . S
C285 C288 1.317 . S
C285 H308 0.929 . S
C286 C283 1.432 . S
C286 C284 1.417 . S
C286 N294 1.360 . S
C287 C283 1.414 . S
C287 C285 1.444 . S
C287 C292 1.385 . S
C288 C284 1.432 . S
C288 C285 1.317 . S
C288 H300 0.930 . S
C289 C291 1.392 . S
C289 C292 1.370 . S
C289 H301 0.931 . S
N290 C283 1.359 . S
N290 C291 1.327 . S
N290 Tb293 2.600 . S
C291 C289 1.392 . S
C291 N290 1.327 . S
C291 H298 0.930 . S
C292 C287 1.385 . S
C292 C289 1.370 . S
C292 H311 0.930 . S
Tb293 N290 2.600 . S
Tb293 N294 2.660 . S
Tb293 O327 2.362 . S
Tb293 O328 2.421 . S
Tb293 O332 2.546 . S
Tb293 O333 2.610 1_655 S
Tb293 O335 2.320 1_655 S
Tb293 O336 2.552 1_655 S
Tb293 O337 2.413 1_655 S
Tb293 C357 2.833 . S
N294 C286 1.360 . S
N294 Tb293 2.660 . S
N294 C295 1.305 . S
C295 N294 1.305 . S
C295 C297 1.407 . S
C295 H302 0.930 . S
C296 C284 1.410 . S
C296 C297 1.345 . S
C296 H304 0.930 . S
C297 C295 1.407 . S
C297 C296 1.345 . S
C297 H299 0.930 . S
H298 C291 0.930 . S
H299 C297 0.930 . S
H300 C288 0.930 . S
H301 C289 0.931 . S
H302 C295 0.930 . S
H303 C317 0.930 . S
H304 C296 0.930 . S
H305 C323 0.930 . S
H306 C314 0.930 . S
H307 C321 0.931 . S
H308 C285 0.929 . S
H309 C315 0.930 . S
H310 C348 0.930 . S
H311 C292 0.930 . S
H312 C347 0.929 . S
N313 Tb282 2.660 . S
N313 C314 1.305 . S
N313 C318 1.360 . S
C314 H306 0.930 . S
C314 N313 1.305 . S
C314 C317 1.407 . S
C315 H309 0.930 . S
C315 C316 1.410 . S
C315 C317 1.345 . S
C316 C315 1.410 . S
C316 C318 1.417 . S
C316 C348 1.432 . S
C317 H303 0.930 . S
C317 C314 1.407 . S
C317 C315 1.345 . S
C318 N313 1.360 . S
C318 C316 1.417 . S
C318 C322 1.432 . S
H319 C324 0.930 . S
N320 Tb282 2.600 . S
N320 C322 1.359 . S
N320 C323 1.327 . S
C321 H307 0.931 . S
C321 C323 1.392 . S
C321 C324 1.370 . S
C322 C318 1.432 . S
C322 N320 1.359 . S
C322 C325 1.414 . S
C323 H305 0.930 . S
C323 N320 1.327 . S
C323 C321 1.392 . S
C324 H319 0.930 . S
C324 C321 1.370 . S
C324 C325 1.385 . S
C325 C322 1.414 . S
C325 C324 1.385 . S
C325 C347 1.444 . S
O326 Tb282 2.546 . S
O326 C346 1.251 . S
O327 Tb282 2.610 1_654 S
O327 Tb293 2.362 . S
O327 C338 1.283 1_554 S
O328 Tb293 2.421 . S
O328 C345 1.262 . S
O329 Tb282 2.320 1_655 S
O329 C345 1.260 1_556 S
O330 Tb282 2.552 1_655 S
O330 C338 1.243 . S
O331 Tb282 2.416 . S
O331 C346 1.255 . S
O332 Tb293 2.546 . S
O332 C357 1.251 . S
O333 Tb282 2.362 1_554 S
O333 Tb293 2.610 1_455 S
O333 C349 1.283 . S
O334 Tb282 2.421 1_554 S
O334 C356 1.262 . S
O335 Tb293 2.320 1_455 S
O335 C356 1.260 . S
O336 Tb293 2.552 1_455 S
O336 C349 1.243 . S
O337 Tb293 2.413 1_455 S
O337 C357 1.256 1_455 S
C338 O327 1.283 1_556 S
C338 O330 1.243 . S
C339 C341 1.382 1_455 S
C339 C343 1.393 . S
C339 C346 1.500 . S
C340 C341 1.400 . S
C340 C342 1.384 . S
C341 C339 1.382 1_655 S
C341 C340 1.400 . S
C341 H358 0.930 . S
C342 C340 1.384 . S
C342 C344 1.392 1_655 S
C342 H359 0.931 . S
C343 C339 1.393 . S
C343 C344 1.401 . S
C343 H360 0.930 . S
C344 C342 1.392 1_455 S
C344 C343 1.401 . S
C344 H361 0.930 . S
C345 O328 1.262 . S
C345 O329 1.260 1_554 S
C346 Tb282 2.833 . S
C346 O326 1.251 . S
C346 O331 1.255 . S
C346 C339 1.500 . S
C347 H312 0.929 . S
C347 C325 1.444 . S
C347 C348 1.317 . S
C348 H310 0.930 . S
C348 C316 1.432 . S
C348 C347 1.317 . S
C349 O333 1.283 . S
C349 O336 1.243 . S
C350 C351 1.382 . S
C350 C354 1.393 1_455 S
C350 C357 1.500 1_455 S
C351 C350 1.382 . S
C351 C352 1.400 . S
C351 H362 0.930 . S
C352 C351 1.400 . S
C352 C353 1.384 . S
C353 C352 1.384 . S
C353 C355 1.392 1_455 S
C353 H363 0.931 . S
C354 C350 1.393 1_655 S
C354 C355 1.401 . S
C354 H364 0.930 . S
C355 C353 1.392 1_655 S
C355 C354 1.401 . S
C355 H365 0.930 . S
C356 O334 1.262 . S
C356 O335 1.260 . S
C357 Tb293 2.833 . S
C357 O332 1.251 . S
C357 O337 1.256 1_655 S
C357 C350 1.500 1_655 S
H358 C341 0.930 . S
H359 C342 0.931 . S
H360 C343 0.930 . S
H361 C344 0.930 . S
H362 C351 0.930 . S
H363 C353 0.931 . S
H364 C354 0.930 . S
H365 C355 0.930 . S
Tb366 N397 2.660 . S
Tb366 N404 2.600 . S
Tb366 O410 2.546 . S
Tb366 O411 2.610 . S
Tb366 O413 2.320 . S
Tb366 O414 2.552 . S
Tb366 O415 2.413 . S
Tb366 O417 2.362 . S
Tb366 O418 2.421 . S
Tb366 C430 2.833 . S
C367 C370 1.432 . S
C367 C371 1.414 . S
C367 N374 1.359 . S
C368 C370 1.417 . S
C368 C372 1.432 . S
C368 C380 1.410 . S
C369 C371 1.444 . S
C369 C372 1.317 . S
C369 H392 0.929 . S
C370 C367 1.432 . S
C370 C368 1.417 . S
C370 N378 1.360 . S
C371 C367 1.414 . S
C371 C369 1.444 . S
C371 C376 1.385 . S
C372 C368 1.432 . S
C372 C369 1.317 . S
C372 H384 0.930 . S
C373 C375 1.392 . S
C373 C376 1.370 . S
C373 H385 0.931 . S
N374 C367 1.359 . S
N374 C375 1.327 . S
N374 Tb377 2.600 . S
C375 C373 1.392 . S
C375 N374 1.327 . S
C375 H382 0.930 . S
C376 C371 1.385 . S
C376 C373 1.370 . S
C376 H395 0.930 . S
Tb377 N374 2.600 . S
Tb377 N378 2.660 . S
Tb377 O411 2.362 1_556 S
Tb377 O412 2.421 1_556 S
Tb377 O416 2.546 . S
Tb377 O417 2.610 1_556 S
Tb377 O419 2.320 . S
Tb377 O420 2.552 . S
Tb377 O421 2.413 . S
Tb377 C441 2.833 . S
N378 C370 1.360 . S
N378 Tb377 2.660 . S
N378 C379 1.305 . S
C379 N378 1.305 . S
C379 C381 1.407 . S
C379 H386 0.930 . S
C380 C368 1.410 . S
C380 C381 1.345 . S
C380 H388 0.930 . S
C381 C379 1.407 . S
C381 C380 1.345 . S
C381 H383 0.930 . S
H382 C375 0.930 . S
H383 C381 0.930 . S
H384 C372 0.930 . S
H385 C373 0.931 . S
H386 C379 0.930 . S
H387 C401 0.930 . S
H388 C380 0.930 . S
H389 C407 0.930 . S
H390 C398 0.930 . S
H391 C405 0.931 . S
H392 C369 0.929 . S
H393 C399 0.930 . S
H394 C432 0.930 . S
H395 C376 0.930 . S
H396 C431 0.929 . S
N397 Tb366 2.660 . S
N397 C398 1.305 . S
N397 C402 1.360 . S
C398 H390 0.930 . S
C398 N397 1.305 . S
C398 C401 1.407 . S
C399 H393 0.930 . S
C399 C400 1.410 . S
C399 C401 1.345 . S
C400 C399 1.410 . S
C400 C402 1.417 . S
C400 C432 1.432 . S
C401 H387 0.930 . S
C401 C398 1.407 . S
C401 C399 1.345 . S
C402 N397 1.360 . S
C402 C400 1.417 . S
C402 C406 1.432 . S
H403 C408 0.930 . S
N404 Tb366 2.600 . S
N404 C406 1.359 . S
N404 C407 1.327 . S
C405 H391 0.931 . S
C405 C407 1.392 . S
C405 C408 1.370 . S
C406 C402 1.432 . S
C406 N404 1.359 . S
C406 C409 1.414 . S
C407 H389 0.930 . S
C407 N404 1.327 . S
C407 C405 1.392 . S
C408 H403 0.930 . S
C408 C405 1.370 . S
C408 C409 1.385 . S
C409 C406 1.414 . S
C409 C408 1.385 . S
C409 C431 1.444 . S
O410 Tb366 2.546 . S
O410 C430 1.251 . S
O411 Tb366 2.610 . S
O411 Tb377 2.362 1_554 S
O411 C422 1.283 . S
O412 Tb377 2.421 1_554 S
O412 C429 1.262 . S
O413 Tb366 2.320 . S
O413 C429 1.260 . S
O414 Tb366 2.552 . S
O414 C422 1.243 . S
O415 Tb366 2.413 . S
O415 C430 1.256 . S
O416 Tb377 2.546 . S
O416 C441 1.251 . S
O417 Tb366 2.362 . S
O417 Tb377 2.610 1_554 S
O417 C433 1.283 1_554 S
O418 Tb366 2.421 . S
O418 C440 1.262 . S
O419 Tb377 2.320 . S
O419 C440 1.260 1_556 S
O420 Tb377 2.552 . S
O420 C433 1.243 . S
O421 Tb377 2.413 . S
O421 C441 1.256 . S
C422 O411 1.283 . S
C422 O414 1.243 . S
C423 C425 1.382 . S
C423 C427 1.393 . S
C423 C430 1.500 . S
C424 C425 1.400 . S
C424 C426 1.384 . S
C425 C423 1.382 . S
C425 C424 1.400 . S
C425 H442 0.930 . S
C426 C424 1.384 . S
C426 C428 1.392 . S
C426 H443 0.931 . S
C427 C423 1.393 . S
C427 C428 1.401 . S
C427 H444 0.930 . S
C428 C426 1.392 . S
C428 C427 1.401 . S
C428 H445 0.930 . S
C429 O412 1.262 . S
C429 O413 1.260 . S
C430 Tb366 2.833 . S
C430 O410 1.251 . S
C430 O415 1.256 . S
C430 C423 1.500 . S
C431 H396 0.929 . S
C431 C409 1.444 . S
C431 C432 1.317 . S
C432 H394 0.930 . S
C432 C400 1.432 . S
C432 C431 1.317 . S
C433 O417 1.283 1_556 S
C433 O420 1.243 . S
C434 C435 1.382 . S
C434 C438 1.393 . S
C434 C441 1.500 . S
C435 C434 1.382 . S
C435 C436 1.400 . S
C435 H446 0.930 . S
C436 C435 1.400 . S
C436 C437 1.384 . S
C437 C436 1.384 . S
C437 C439 1.392 . S
C437 H447 0.931 . S
C438 C434 1.393 . S
C438 C439 1.401 . S
C438 H448 0.930 . S
C439 C437 1.392 . S
C439 C438 1.401 . S
C439 H449 0.930 . S
C440 O418 1.262 . S
C440 O419 1.260 1_554 S
C441 Tb377 2.833 . S
C441 O416 1.251 . S
C441 O421 1.256 . S
C441 C434 1.500 . S
H442 C425 0.930 . S
H443 C426 0.931 . S
H444 C427 0.930 . S
H445 C428 0.930 . S
H446 C435 0.930 . S
H447 C437 0.931 . S
H448 C438 0.930 . S
H449 C439 0.930 . S
Tb450 N481 2.660 . S
Tb450 N488 2.600 . S
Tb450 O494 2.546 . S
Tb450 O495 2.610 . S
Tb450 O497 2.320 . S
Tb450 O498 2.552 . S
Tb450 O499 2.413 . S
Tb450 O501 2.362 . S
Tb450 O502 2.421 . S
Tb450 C514 2.833 . S
C451 C454 1.432 . S
C451 C455 1.414 . S
C451 N458 1.359 . S
C452 C454 1.417 . S
C452 C456 1.432 . S
C452 C464 1.410 . S
C453 C455 1.444 . S
C453 C456 1.317 . S
C453 H476 0.929 . S
C454 C451 1.432 . S
C454 C452 1.417 . S
C454 N462 1.360 . S
C455 C451 1.414 . S
C455 C453 1.444 . S
C455 C460 1.385 . S
C456 C452 1.432 . S
C456 C453 1.317 . S
C456 H468 0.930 . S
C457 C459 1.392 . S
C457 C460 1.370 . S
C457 H469 0.931 . S
N458 C451 1.359 . S
N458 C459 1.327 . S
N458 Tb461 2.600 . S
C459 C457 1.392 . S
C459 N458 1.327 . S
C459 H466 0.930 . S
C460 C455 1.385 . S
C460 C457 1.370 . S
C460 H479 0.930 . S
Tb461 N458 2.600 . S
Tb461 N462 2.660 . S
Tb461 O495 2.362 . S
Tb461 O496 2.421 . S
Tb461 O500 2.546 . S
Tb461 O501 2.610 . S
Tb461 O503 2.320 . S
Tb461 O504 2.552 . S
Tb461 O505 2.413 . S
Tb461 C525 2.833 . S
N462 C454 1.360 . S
N462 Tb461 2.660 . S
N462 C463 1.305 . S
C463 N462 1.305 . S
C463 C465 1.407 . S
C463 H470 0.930 . S
C464 C452 1.410 . S
C464 C465 1.345 . S
C464 H472 0.930 . S
C465 C463 1.407 . S
C465 C464 1.345 . S
C465 H467 0.930 . S
H466 C459 0.930 . S
H467 C465 0.930 . S
H468 C456 0.930 . S
H469 C457 0.931 . S
H470 C463 0.930 . S
H471 C485 0.930 . S
H472 C464 0.930 . S
H473 C491 0.930 . S
H474 C482 0.930 . S
H475 C489 0.931 . S
H476 C453 0.929 . S
H477 C483 0.930 . S
H478 C516 0.930 . S
H479 C460 0.930 . S
H480 C515 0.929 . S
N481 Tb450 2.660 . S
N481 C482 1.305 . S
N481 C486 1.360 . S
C482 H474 0.930 . S
C482 N481 1.305 . S
C482 C485 1.407 . S
C483 H477 0.930 . S
C483 C484 1.410 . S
C483 C485 1.345 . S
C484 C483 1.410 . S
C484 C486 1.417 . S
C484 C516 1.432 . S
C485 H471 0.930 . S
C485 C482 1.407 . S
C485 C483 1.345 . S
C486 N481 1.360 . S
C486 C484 1.417 . S
C486 C490 1.432 . S
H487 C492 0.930 . S
N488 Tb450 2.600 . S
N488 C490 1.359 . S
N488 C491 1.327 . S
C489 H475 0.931 . S
C489 C491 1.392 . S
C489 C492 1.370 . S
C490 C486 1.432 . S
C490 N488 1.359 . S
C490 C493 1.414 . S
C491 H473 0.930 . S
C491 N488 1.327 . S
C491 C489 1.392 . S
C492 H487 0.930 . S
C492 C489 1.370 . S
C492 C493 1.385 . S
C493 C490 1.414 . S
C493 C492 1.385 . S
C493 C515 1.444 . S
O494 Tb450 2.546 . S
O494 C514 1.251 . S
O495 Tb450 2.610 . S
O495 Tb461 2.362 . S
O495 C506 1.283 . S
O496 Tb461 2.421 . S
O496 C513 1.262 . S
O497 Tb450 2.320 . S
O497 C513 1.260 . S
O498 Tb450 2.552 . S
O498 C506 1.243 . S
O499 Tb450 2.413 . S
O499 C514 1.256 . S
O500 Tb461 2.546 . S
O500 C525 1.251 . S
O501 Tb450 2.362 . S
O501 Tb461 2.610 . S
O501 C517 1.283 . S
O502 Tb450 2.421 . S
O502 C524 1.262 . S
O503 Tb461 2.320 . S
O503 C524 1.260 . S
O504 Tb461 2.552 . S
O504 C517 1.243 . S
O505 Tb461 2.413 . S
O505 C525 1.256 . S
C506 O495 1.283 . S
C506 O498 1.243 . S
C507 C509 1.382 . S
C507 C511 1.393 . S
C507 C514 1.500 . S
C508 C509 1.400 . S
C508 C510 1.384 . S
C509 C507 1.382 . S
C509 C508 1.400 . S
C509 H526 0.930 . S
C510 C508 1.384 . S
C510 C512 1.392 . S
C510 H527 0.931 . S
C511 C507 1.393 . S
C511 C512 1.401 . S
C511 H528 0.930 . S
C512 C510 1.392 . S
C512 C511 1.401 . S
C512 H529 0.930 . S
C513 O496 1.262 . S
C513 O497 1.260 . S
C514 Tb450 2.833 . S
C514 O494 1.251 . S
C514 O499 1.256 . S
C514 C507 1.500 . S
C515 H480 0.929 . S
C515 C493 1.444 . S
C515 C516 1.317 . S
C516 H478 0.930 . S
C516 C484 1.432 . S
C516 C515 1.317 . S
C517 O501 1.283 . S
C517 O504 1.243 . S
C518 C519 1.382 . S
C518 C522 1.393 . S
C518 C525 1.500 . S
C519 C518 1.382 . S
C519 C520 1.400 . S
C519 H530 0.930 . S
C520 C519 1.400 . S
C520 C521 1.384 . S
C521 C520 1.384 . S
C521 C523 1.392 . S
C521 H531 0.931 . S
C522 C518 1.393 . S
C522 C523 1.401 . S
C522 H532 0.930 . S
C523 C521 1.392 . S
C523 C522 1.401 . S
C523 H533 0.930 . S
C524 O502 1.262 . S
C524 O503 1.260 . S
C525 Tb461 2.833 . S
C525 O500 1.251 . S
C525 O505 1.256 . S
C525 C518 1.500 . S
H526 C509 0.930 . S
H527 C510 0.931 . S
H528 C511 0.930 . S
H529 C512 0.930 . S
H530 C519 0.930 . S
H531 C521 0.931 . S
H532 C522 0.930 . S
H533 C523 0.930 . S
Tb534 N565 2.660 . S
Tb534 N572 2.600 . S
Tb534 O578 2.546 . S
Tb534 O579 2.610 . S
Tb534 O581 2.320 . S
Tb534 O582 2.552 . S
Tb534 O583 2.413 . S
Tb534 O585 2.362 . S
Tb534 O586 2.421 . S
Tb534 C598 2.833 . S
C535 C538 1.432 . S
C535 C539 1.414 . S
C535 N542 1.359 . S
C536 C538 1.417 . S
C536 C540 1.432 . S
C536 C548 1.410 . S
C537 C539 1.444 . S
C537 C540 1.317 . S
C537 H560 0.929 . S
C538 C535 1.432 . S
C538 C536 1.417 . S
C538 N546 1.360 . S
C539 C535 1.414 . S
C539 C537 1.444 . S
C539 C544 1.385 . S
C540 C536 1.432 . S
C540 C537 1.317 . S
C540 H552 0.930 . S
C541 C543 1.392 . S
C541 C544 1.370 . S
C541 H553 0.931 . S
N542 C535 1.359 . S
N542 C543 1.327 . S
N542 Tb545 2.600 . S
C543 C541 1.392 . S
C543 N542 1.327 . S
C543 H550 0.930 . S
C544 C539 1.385 . S
C544 C541 1.370 . S
C544 H563 0.930 . S
Tb545 N542 2.600 . S
Tb545 N546 2.660 . S
Tb545 O579 2.362 . S
Tb545 O580 2.421 . S
Tb545 O584 2.546 . S
Tb545 O585 2.610 . S
Tb545 O587 2.320 . S
Tb545 O588 2.552 . S
Tb545 O589 2.413 . S
Tb545 C609 2.833 . S
N546 C538 1.360 . S
N546 Tb545 2.660 . S
N546 C547 1.305 . S
C547 N546 1.305 . S
C547 C549 1.407 . S
C547 H554 0.930 . S
C548 C536 1.410 . S
C548 C549 1.345 . S
C548 H556 0.930 . S
C549 C547 1.407 . S
C549 C548 1.345 . S
C549 H551 0.930 . S
H550 C543 0.930 . S
H551 C549 0.930 . S
H552 C540 0.930 . S
H553 C541 0.931 . S
H554 C547 0.930 . S
H555 C569 0.930 . S
H556 C548 0.930 . S
H557 C575 0.930 . S
H558 C566 0.930 . S
H559 C573 0.931 . S
H560 C537 0.929 . S
H561 C567 0.930 . S
H562 C600 0.930 . S
H563 C544 0.930 . S
H564 C599 0.929 . S
N565 Tb534 2.660 . S
N565 C566 1.305 . S
N565 C570 1.360 . S
C566 H558 0.930 . S
C566 N565 1.305 . S
C566 C569 1.407 . S
C567 H561 0.930 . S
C567 C568 1.410 . S
C567 C569 1.345 . S
C568 C567 1.410 . S
C568 C570 1.417 . S
C568 C600 1.432 . S
C569 H555 0.930 . S
C569 C566 1.407 . S
C569 C567 1.345 . S
C570 N565 1.360 . S
C570 C568 1.417 . S
C570 C574 1.432 . S
H571 C576 0.930 . S
N572 Tb534 2.600 . S
N572 C574 1.359 . S
N572 C575 1.327 . S
C573 H559 0.931 . S
C573 C575 1.392 . S
C573 C576 1.370 . S
C574 C570 1.432 . S
C574 N572 1.359 . S
C574 C577 1.414 . S
C575 H557 0.930 . S
C575 N572 1.327 . S
C575 C573 1.392 . S
C576 H571 0.930 . S
C576 C573 1.370 . S
C576 C577 1.385 . S
C577 C574 1.414 . S
C577 C576 1.385 . S
C577 C599 1.444 . S
O578 Tb534 2.546 . S
O578 C598 1.251 . S
O579 Tb534 2.610 . S
O579 Tb545 2.362 . S
O579 C590 1.283 . S
O580 Tb545 2.421 . S
O580 C597 1.262 . S
O581 Tb534 2.320 . S
O581 C597 1.260 . S
O582 Tb534 2.552 . S
O582 C590 1.243 . S
O583 Tb534 2.413 . S
O583 C598 1.256 . S
O584 Tb545 2.546 . S
O584 C609 1.251 . S
O585 Tb534 2.362 . S
O585 Tb545 2.610 . S
O585 C601 1.283 . S
O586 Tb534 2.421 . S
O586 C608 1.262 . S
O587 Tb545 2.320 . S
O587 C608 1.260 . S
O588 Tb545 2.552 . S
O588 C601 1.243 . S
O589 Tb545 2.413 . S
O589 C609 1.256 . S
C590 O579 1.283 . S
C590 O582 1.243 . S
C591 C593 1.382 . S
C591 C595 1.393 . S
C591 C598 1.500 . S
C592 C593 1.400 . S
C592 C594 1.384 . S
C593 C591 1.382 . S
C593 C592 1.400 . S
C593 H610 0.930 . S
C594 C592 1.384 . S
C594 C596 1.392 . S
C594 H611 0.931 . S
C595 C591 1.393 . S
C595 C596 1.401 . S
C595 H612 0.930 . S
C596 C594 1.392 . S
C596 C595 1.401 . S
C596 H613 0.930 . S
C597 O580 1.262 . S
C597 O581 1.260 . S
C598 Tb534 2.833 . S
C598 O578 1.251 . S
C598 O583 1.256 . S
C598 C591 1.500 . S
C599 H564 0.929 . S
C599 C577 1.444 . S
C599 C600 1.317 . S
C600 H562 0.930 . S
C600 C568 1.432 . S
C600 C599 1.317 . S
C601 O585 1.283 . S
C601 O588 1.243 . S
C602 C603 1.382 . S
C602 C606 1.393 . S
C602 C609 1.500 . S
C603 C602 1.382 . S
C603 C604 1.400 . S
C603 H614 0.930 . S
C604 C603 1.400 . S
C604 C605 1.384 . S
C605 C604 1.384 . S
C605 C607 1.392 . S
C605 H615 0.931 . S
C606 C602 1.393 . S
C606 C607 1.401 . S
C606 H616 0.930 . S
C607 C605 1.392 . S
C607 C606 1.401 . S
C607 H617 0.930 . S
C608 O586 1.262 . S
C608 O587 1.260 . S
C609 Tb545 2.833 . S
C609 O584 1.251 . S
C609 O589 1.256 . S
C609 C602 1.500 . S
H610 C593 0.930 . S
H611 C594 0.931 . S
H612 C595 0.930 . S
H613 C596 0.930 . S
H614 C603 0.930 . S
H615 C605 0.931 . S
H616 C606 0.930 . S
H617 C607 0.930 . S
Tb618 N649 2.660 . S
Tb618 N656 2.600 . S
Tb618 O662 2.546 . S
Tb618 O663 2.610 . S
Tb618 O665 2.320 . S
Tb618 O666 2.552 . S
Tb618 O667 2.413 . S
Tb618 O669 2.362 . S
Tb618 O670 2.421 . S
Tb618 C682 2.833 . S
C619 C622 1.432 . S
C619 C623 1.414 . S
C619 N626 1.359 . S
C620 C622 1.417 . S
C620 C624 1.432 . S
C620 C632 1.410 . S
C621 C623 1.444 . S
C621 C624 1.317 . S
C621 H644 0.929 . S
C622 C619 1.432 . S
C622 C620 1.417 . S
C622 N630 1.360 . S
C623 C619 1.414 . S
C623 C621 1.444 . S
C623 C628 1.385 . S
C624 C620 1.432 . S
C624 C621 1.317 . S
C624 H636 0.930 . S
C625 C627 1.392 . S
C625 C628 1.370 . S
C625 H637 0.931 . S
N626 C619 1.359 . S
N626 C627 1.327 . S
N626 Tb629 2.600 . S
C627 C625 1.392 . S
C627 N626 1.327 . S
C627 H634 0.930 . S
C628 C623 1.385 . S
C628 C625 1.370 . S
C628 H647 0.930 . S
Tb629 N626 2.600 . S
Tb629 N630 2.660 . S
Tb629 O663 2.362 . S
Tb629 O664 2.421 . S
Tb629 O668 2.546 . S
Tb629 O669 2.610 . S
Tb629 O671 2.320 . S
Tb629 O672 2.552 . S
Tb629 O673 2.413 . S
Tb629 C693 2.833 . S
N630 C622 1.360 . S
N630 Tb629 2.660 . S
N630 C631 1.305 . S
C631 N630 1.305 . S
C631 C633 1.407 . S
C631 H638 0.930 . S
C632 C620 1.410 . S
C632 C633 1.345 . S
C632 H640 0.930 . S
C633 C631 1.407 . S
C633 C632 1.345 . S
C633 H635 0.930 . S
H634 C627 0.930 . S
H635 C633 0.930 . S
H636 C624 0.930 . S
H637 C625 0.931 . S
H638 C631 0.930 . S
H639 C653 0.930 . S
H640 C632 0.930 . S
H641 C659 0.930 . S
H642 C650 0.930 . S
H643 C657 0.931 . S
H644 C621 0.929 . S
H645 C651 0.930 . S
H646 C684 0.930 . S
H647 C628 0.930 . S
H648 C683 0.929 . S
N649 Tb618 2.660 . S
N649 C650 1.305 . S
N649 C654 1.360 . S
C650 H642 0.930 . S
C650 N649 1.305 . S
C650 C653 1.407 . S
C651 H645 0.930 . S
C651 C652 1.410 . S
C651 C653 1.345 . S
C652 C651 1.410 . S
C652 C654 1.417 . S
C652 C684 1.432 . S
C653 H639 0.930 . S
C653 C650 1.407 . S
C653 C651 1.345 . S
C654 N649 1.360 . S
C654 C652 1.417 . S
C654 C658 1.432 . S
H655 C660 0.930 . S
N656 Tb618 2.600 . S
N656 C658 1.359 . S
N656 C659 1.327 . S
C657 H643 0.931 . S
C657 C659 1.392 . S
C657 C660 1.370 . S
C658 C654 1.432 . S
C658 N656 1.359 . S
C658 C661 1.414 . S
C659 H641 0.930 . S
C659 N656 1.327 . S
C659 C657 1.392 . S
C660 H655 0.930 . S
C660 C657 1.370 . S
C660 C661 1.385 . S
C661 C658 1.414 . S
C661 C660 1.385 . S
C661 C683 1.444 . S
O662 Tb618 2.546 . S
O662 C682 1.251 . S
O663 Tb618 2.610 . S
O663 Tb629 2.362 . S
O663 C674 1.283 . S
O664 Tb629 2.421 . S
O664 C681 1.262 . S
O665 Tb618 2.320 . S
O665 C681 1.260 . S
O666 Tb618 2.552 . S
O666 C674 1.243 . S
O667 Tb618 2.413 . S
O667 C682 1.256 . S
O668 Tb629 2.546 . S
O668 C693 1.251 . S
O669 Tb618 2.362 . S
O669 Tb629 2.610 . S
O669 C685 1.283 . S
O670 Tb618 2.421 . S
O670 C692 1.262 . S
O671 Tb629 2.320 . S
O671 C692 1.260 . S
O672 Tb629 2.552 . S
O672 C685 1.243 . S
O673 Tb629 2.413 . S
O673 C693 1.256 . S
C674 O663 1.283 . S
C674 O666 1.243 . S
C675 C677 1.382 . S
C675 C679 1.393 . S
C675 C682 1.500 . S
C676 C677 1.400 . S
C676 C678 1.384 . S
C677 C675 1.382 . S
C677 C676 1.400 . S
C677 H694 0.930 . S
C678 C676 1.384 . S
C678 C680 1.392 . S
C678 H695 0.931 . S
C679 C675 1.393 . S
C679 C680 1.401 . S
C679 H696 0.930 . S
C680 C678 1.392 . S
C680 C679 1.401 . S
C680 H697 0.930 . S
C681 O664 1.262 . S
C681 O665 1.260 . S
C682 Tb618 2.833 . S
C682 O662 1.251 . S
C682 O667 1.256 . S
C682 C675 1.500 . S
C683 H648 0.929 . S
C683 C661 1.444 . S
C683 C684 1.317 . S
C684 H646 0.930 . S
C684 C652 1.432 . S
C684 C683 1.317 . S
C685 O669 1.283 . S
C685 O672 1.243 . S
C686 C687 1.382 . S
C686 C690 1.393 . S
C686 C693 1.500 . S
C687 C686 1.382 . S
C687 C688 1.400 . S
C687 H698 0.930 . S
C688 C687 1.400 . S
C688 C689 1.384 . S
C689 C688 1.384 . S
C689 C691 1.392 . S
C689 H699 0.931 . S
C690 C686 1.393 . S
C690 C691 1.401 . S
C690 H700 0.930 . S
C691 C689 1.392 . S
C691 C690 1.401 . S
C691 H701 0.930 . S
C692 O670 1.262 . S
C692 O671 1.260 . S
C693 Tb629 2.833 . S
C693 O668 1.251 . S
C693 O673 1.256 . S
C693 C686 1.500 . S
H694 C677 0.930 . S
H695 C678 0.931 . S
H696 C679 0.930 . S
H697 C680 0.930 . S
H698 C687 0.930 . S
H699 C689 0.931 . S
H700 C690 0.930 . S
H701 C691 0.930 . S
Tb702 N733 2.660 . S
Tb702 N740 2.600 . S
Tb702 O746 2.546 . S
Tb702 O747 2.610 . S
Tb702 O749 2.320 . S
Tb702 O750 2.552 . S
Tb702 O751 2.413 . S
Tb702 O753 2.362 . S
Tb702 O754 2.421 . S
Tb702 C766 2.833 . S
C703 C706 1.432 . S
C703 C707 1.414 . S
C703 N710 1.359 . S
C704 C706 1.417 . S
C704 C708 1.432 . S
C704 C716 1.410 . S
C705 C707 1.444 . S
C705 C708 1.317 . S
C705 H728 0.929 . S
C706 C703 1.432 . S
C706 C704 1.417 . S
C706 N714 1.360 . S
C707 C703 1.414 . S
C707 C705 1.444 . S
C707 C712 1.385 . S
C708 C704 1.432 . S
C708 C705 1.317 . S
C708 H720 0.930 . S
C709 C711 1.392 . S
C709 C712 1.370 . S
C709 H721 0.931 . S
N710 C703 1.359 . S
N710 C711 1.327 . S
N710 Tb713 2.600 . S
C711 C709 1.392 . S
C711 N710 1.327 . S
C711 H718 0.930 . S
C712 C707 1.385 . S
C712 C709 1.370 . S
C712 H731 0.930 . S
Tb713 N710 2.600 . S
Tb713 N714 2.660 . S
Tb713 O747 2.362 . S
Tb713 O748 2.421 . S
Tb713 O752 2.546 . S
Tb713 O753 2.610 . S
Tb713 O755 2.320 . S
Tb713 O756 2.552 . S
Tb713 O757 2.413 . S
Tb713 C777 2.833 . S
N714 C706 1.360 . S
N714 Tb713 2.660 . S
N714 C715 1.305 . S
C715 N714 1.305 . S
C715 C717 1.407 . S
C715 H722 0.930 . S
C716 C704 1.410 . S
C716 C717 1.345 . S
C716 H724 0.930 . S
C717 C715 1.407 . S
C717 C716 1.345 . S
C717 H719 0.930 . S
H718 C711 0.930 . S
H719 C717 0.930 . S
H720 C708 0.930 . S
H721 C709 0.931 . S
H722 C715 0.930 . S
H723 C737 0.930 . S
H724 C716 0.930 . S
H725 C743 0.930 . S
H726 C734 0.930 . S
H727 C741 0.931 . S
H728 C705 0.929 . S
H729 C735 0.930 . S
H730 C768 0.930 . S
H731 C712 0.930 . S
H732 C767 0.929 . S
N733 Tb702 2.660 . S
N733 C734 1.305 . S
N733 C738 1.360 . S
C734 H726 0.930 . S
C734 N733 1.305 . S
C734 C737 1.407 . S
C735 H729 0.930 . S
C735 C736 1.410 . S
C735 C737 1.345 . S
C736 C735 1.410 . S
C736 C738 1.417 . S
C736 C768 1.432 . S
C737 H723 0.930 . S
C737 C734 1.407 . S
C737 C735 1.345 . S
C738 N733 1.360 . S
C738 C736 1.417 . S
C738 C742 1.432 . S
H739 C744 0.930 . S
N740 Tb702 2.600 . S
N740 C742 1.359 . S
N740 C743 1.327 . S
C741 H727 0.931 . S
C741 C743 1.392 . S
C741 C744 1.370 . S
C742 C738 1.432 . S
C742 N740 1.359 . S
C742 C745 1.414 . S
C743 H725 0.930 . S
C743 N740 1.327 . S
C743 C741 1.392 . S
C744 H739 0.930 . S
C744 C741 1.370 . S
C744 C745 1.385 . S
C745 C742 1.414 . S
C745 C744 1.385 . S
C745 C767 1.444 . S
O746 Tb702 2.546 . S
O746 C766 1.251 . S
O747 Tb702 2.610 . S
O747 Tb713 2.362 . S
O747 C758 1.283 . S
O748 Tb713 2.421 . S
O748 C765 1.262 . S
O749 Tb702 2.320 . S
O749 C765 1.260 . S
O750 Tb702 2.552 . S
O750 C758 1.243 . S
O751 Tb702 2.413 . S
O751 C766 1.256 . S
O752 Tb713 2.546 . S
O752 C777 1.251 . S
O753 Tb702 2.362 . S
O753 Tb713 2.610 . S
O753 C769 1.283 . S
O754 Tb702 2.421 . S
O754 C776 1.262 . S
O755 Tb713 2.320 . S
O755 C776 1.260 . S
O756 Tb713 2.552 . S
O756 C769 1.243 . S
O757 Tb713 2.413 . S
O757 C777 1.256 . S
C758 O747 1.283 . S
C758 O750 1.243 . S
C759 C761 1.382 . S
C759 C763 1.393 . S
C759 C766 1.500 . S
C760 C761 1.400 . S
C760 C762 1.384 . S
C761 C759 1.382 . S
C761 C760 1.400 . S
C761 H778 0.930 . S
C762 C760 1.384 . S
C762 C764 1.392 . S
C762 H779 0.931 . S
C763 C759 1.393 . S
C763 C764 1.401 . S
C763 H780 0.930 . S
C764 C762 1.392 . S
C764 C763 1.401 . S
C764 H781 0.930 . S
C765 O748 1.262 . S
C765 O749 1.260 . S
C766 Tb702 2.833 . S
C766 O746 1.251 . S
C766 O751 1.256 . S
C766 C759 1.500 . S
C767 H732 0.929 . S
C767 C745 1.444 . S
C767 C768 1.317 . S
C768 H730 0.930 . S
C768 C736 1.432 . S
C768 C767 1.317 . S
C769 O753 1.283 . S
C769 O756 1.243 . S
C770 C771 1.382 . S
C770 C774 1.393 . S
C770 C777 1.500 . S
C771 C770 1.382 . S
C771 C772 1.400 . S
C771 H782 0.930 . S
C772 C771 1.400 . S
C772 C773 1.384 . S
C773 C772 1.384 . S
C773 C775 1.392 . S
C773 H783 0.931 . S
C774 C770 1.393 . S
C774 C775 1.401 . S
C774 H784 0.930 . S
C775 C773 1.392 . S
C775 C774 1.401 . S
C775 H785 0.930 . S
C776 O754 1.262 . S
C776 O755 1.260 . S
C777 Tb713 2.833 . S
C777 O752 1.251 . S
C777 O757 1.256 . S
C777 C770 1.500 . S
H778 C761 0.930 . S
H779 C762 0.931 . S
H780 C763 0.930 . S
H781 C764 0.930 . S
H782 C771 0.930 . S
H783 C773 0.931 . S
H784 C774 0.930 . S
H785 C775 0.930 . S
Tb786 N817 2.660 . S
Tb786 N824 2.600 . S
Tb786 O830 2.546 . S
Tb786 O831 2.610 . S
Tb786 O833 2.320 . S
Tb786 O834 2.552 . S
Tb786 O835 2.413 . S
Tb786 O837 2.362 . S
Tb786 O838 2.421 . S
Tb786 C850 2.833 . S
C787 C790 1.432 . S
C787 C791 1.414 . S
C787 N794 1.359 . S
C788 C790 1.417 . S
C788 C792 1.432 . S
C788 C800 1.410 . S
C789 C791 1.444 . S
C789 C792 1.317 . S
C789 H812 0.929 . S
C790 C787 1.432 . S
C790 C788 1.417 . S
C790 N798 1.360 . S
C791 C787 1.414 . S
C791 C789 1.444 . S
C791 C796 1.385 . S
C792 C788 1.432 . S
C792 C789 1.317 . S
C792 H804 0.930 . S
C793 C795 1.392 . S
C793 C796 1.370 . S
C793 H805 0.931 . S
N794 C787 1.359 . S
N794 C795 1.327 . S
N794 Tb797 2.600 . S
C795 C793 1.392 . S
C795 N794 1.327 . S
C795 H802 0.930 . S
C796 C791 1.385 . S
C796 C793 1.370 . S
C796 H815 0.930 . S
Tb797 N794 2.600 . S
Tb797 N798 2.660 . S
Tb797 O831 2.362 . S
Tb797 O832 2.421 . S
Tb797 O836 2.546 . S
Tb797 O837 2.610 . S
Tb797 O839 2.320 . S
Tb797 O840 2.552 . S
Tb797 O841 2.413 . S
Tb797 C861 2.833 . S
N798 C790 1.360 . S
N798 Tb797 2.660 . S
N798 C799 1.305 . S
C799 N798 1.305 . S
C799 C801 1.407 . S
C799 H806 0.930 . S
C800 C788 1.410 . S
C800 C801 1.345 . S
C800 H808 0.930 . S
C801 C799 1.407 . S
C801 C800 1.345 . S
C801 H803 0.930 . S
H802 C795 0.930 . S
H803 C801 0.930 . S
H804 C792 0.930 . S
H805 C793 0.931 . S
H806 C799 0.930 . S
H807 C821 0.930 . S
H808 C800 0.930 . S
H809 C827 0.930 . S
H810 C818 0.930 . S
H811 C825 0.931 . S
H812 C789 0.929 . S
H813 C819 0.930 . S
H814 C852 0.930 . S
H815 C796 0.930 . S
H816 C851 0.929 . S
N817 Tb786 2.660 . S
N817 C818 1.305 . S
N817 C822 1.360 . S
C818 H810 0.930 . S
C818 N817 1.305 . S
C818 C821 1.407 . S
C819 H813 0.930 . S
C819 C820 1.410 . S
C819 C821 1.345 . S
C820 C819 1.410 . S
C820 C822 1.417 . S
C820 C852 1.432 . S
C821 H807 0.930 . S
C821 C818 1.407 . S
C821 C819 1.345 . S
C822 N817 1.360 . S
C822 C820 1.417 . S
C822 C826 1.432 . S
H823 C828 0.930 . S
N824 Tb786 2.600 . S
N824 C826 1.359 . S
N824 C827 1.327 . S
C825 H811 0.931 . S
C825 C827 1.392 . S
C825 C828 1.370 . S
C826 C822 1.432 . S
C826 N824 1.359 . S
C826 C829 1.414 . S
C827 H809 0.930 . S
C827 N824 1.327 . S
C827 C825 1.392 . S
C828 H823 0.930 . S
C828 C825 1.370 . S
C828 C829 1.385 . S
C829 C826 1.414 . S
C829 C828 1.385 . S
C829 C851 1.444 . S
O830 Tb786 2.546 . S
O830 C850 1.251 . S
O831 Tb786 2.610 . S
O831 Tb797 2.362 . S
O831 C842 1.283 . S
O832 Tb797 2.421 . S
O832 C849 1.262 . S
O833 Tb786 2.320 . S
O833 C849 1.260 . S
O834 Tb786 2.552 . S
O834 C842 1.243 . S
O835 Tb786 2.413 . S
O835 C850 1.256 . S
O836 Tb797 2.546 . S
O836 C861 1.251 . S
O837 Tb786 2.362 . S
O837 Tb797 2.610 . S
O837 C853 1.283 . S
O838 Tb786 2.421 . S
O838 C860 1.262 . S
O839 Tb797 2.320 . S
O839 C860 1.260 . S
O840 Tb797 2.552 . S
O840 C853 1.243 . S
O841 Tb797 2.413 . S
O841 C861 1.256 . S
C842 O831 1.283 . S
C842 O834 1.243 . S
C843 C845 1.382 . S
C843 C847 1.393 . S
C843 C850 1.500 . S
C844 C845 1.400 . S
C844 C846 1.384 . S
C845 C843 1.382 . S
C845 C844 1.400 . S
C845 H862 0.930 . S
C846 C844 1.384 . S
C846 C848 1.392 . S
C846 H863 0.931 . S
C847 C843 1.393 . S
C847 C848 1.401 . S
C847 H864 0.930 . S
C848 C846 1.392 . S
C848 C847 1.401 . S
C848 H865 0.930 . S
C849 O832 1.262 . S
C849 O833 1.260 . S
C850 Tb786 2.833 . S
C850 O830 1.251 . S
C850 O835 1.256 . S
C850 C843 1.500 . S
C851 H816 0.929 . S
C851 C829 1.444 . S
C851 C852 1.317 . S
C852 H814 0.930 . S
C852 C820 1.432 . S
C852 C851 1.317 . S
C853 O837 1.283 . S
C853 O840 1.243 . S
C854 C855 1.382 . S
C854 C858 1.393 . S
C854 C861 1.500 . S
C855 C854 1.382 . S
C855 C856 1.400 . S
C855 H866 0.930 . S
C856 C855 1.400 . S
C856 C857 1.384 . S
C857 C856 1.384 . S
C857 C859 1.392 . S
C857 H867 0.931 . S
C858 C854 1.393 . S
C858 C859 1.401 . S
C858 H868 0.930 . S
C859 C857 1.392 . S
C859 C858 1.401 . S
C859 H869 0.930 . S
C860 O838 1.262 . S
C860 O839 1.260 . S
C861 Tb797 2.833 . S
C861 O836 1.251 . S
C861 O841 1.256 . S
C861 C854 1.500 . S
H862 C845 0.930 . S
H863 C846 0.931 . S
H864 C847 0.930 . S
H865 C848 0.930 . S
H866 C855 0.930 . S
H867 C857 0.931 . S
H868 C858 0.930 . S
H869 C859 0.930 . S
Tb870 N901 2.660 . S
Tb870 N908 2.600 . S
Tb870 O914 2.546 . S
Tb870 O915 2.610 . S
Tb870 O917 2.320 . S
Tb870 O918 2.552 . S
Tb870 O919 2.413 . S
Tb870 O921 2.362 . S
Tb870 O922 2.421 . S
Tb870 C934 2.833 . S
C871 C874 1.432 . S
C871 C875 1.414 . S
C871 N878 1.359 . S
C872 C874 1.417 . S
C872 C876 1.432 . S
C872 C884 1.410 . S
C873 C875 1.444 . S
C873 C876 1.317 . S
C873 H896 0.929 . S
C874 C871 1.432 . S
C874 C872 1.417 . S
C874 N882 1.360 . S
C875 C871 1.414 . S
C875 C873 1.444 . S
C875 C880 1.385 . S
C876 C872 1.432 . S
C876 C873 1.317 . S
C876 H888 0.930 . S
C877 C879 1.392 . S
C877 C880 1.370 . S
C877 H889 0.931 . S
N878 C871 1.359 . S
N878 C879 1.327 . S
N878 Tb881 2.600 . S
C879 C877 1.392 . S
C879 N878 1.327 . S
C879 H886 0.930 . S
C880 C875 1.385 . S
C880 C877 1.370 . S
C880 H899 0.930 . S
Tb881 N878 2.600 . S
Tb881 N882 2.660 . S
Tb881 O915 2.362 . S
Tb881 O916 2.421 . S
Tb881 O920 2.546 . S
Tb881 O921 2.610 . S
Tb881 O923 2.320 . S
Tb881 O924 2.552 . S
Tb881 O925 2.413 . S
Tb881 C945 2.833 . S
N882 C874 1.360 . S
N882 Tb881 2.660 . S
N882 C883 1.305 . S
C883 N882 1.305 . S
C883 C885 1.407 . S
C883 H890 0.930 . S
C884 C872 1.410 . S
C884 C885 1.345 . S
C884 H892 0.930 . S
C885 C883 1.407 . S
C885 C884 1.345 . S
C885 H887 0.930 . S
H886 C879 0.930 . S
H887 C885 0.930 . S
H888 C876 0.930 . S
H889 C877 0.931 . S
H890 C883 0.930 . S
H891 C905 0.930 . S
H892 C884 0.930 . S
H893 C911 0.930 . S
H894 C902 0.930 . S
H895 C909 0.931 . S
H896 C873 0.929 . S
H897 C903 0.930 1_455 S
H898 C936 0.930 1_455 S
H899 C880 0.930 . S
H900 C935 0.929 . S
N901 Tb870 2.660 . S
N901 C902 1.305 . S
N901 C906 1.360 . S
C902 H894 0.930 . S
C902 N901 1.305 . S
C902 C905 1.407 . S
C903 H897 0.930 1_655 S
C903 C904 1.410 . S
C903 C905 1.345 . S
C904 C903 1.410 . S
C904 C906 1.417 . S
C904 C936 1.432 . S
C905 H891 0.930 . S
C905 C902 1.407 . S
C905 C903 1.345 . S
C906 N901 1.360 . S
C906 C904 1.417 . S
C906 C910 1.432 . S
H907 C912 0.930 . S
N908 Tb870 2.600 . S
N908 C910 1.359 . S
N908 C911 1.327 . S
C909 H895 0.931 . S
C909 C911 1.392 . S
C909 C912 1.370 . S
C910 C906 1.432 . S
C910 N908 1.359 . S
C910 C913 1.414 . S
C911 H893 0.930 . S
C911 N908 1.327 . S
C911 C909 1.392 . S
C912 H907 0.930 . S
C912 C909 1.370 . S
C912 C913 1.385 . S
C913 C910 1.414 . S
C913 C912 1.385 . S
C913 C935 1.444 . S
O914 Tb870 2.546 . S
O914 C934 1.251 . S
O915 Tb870 2.610 . S
O915 Tb881 2.362 . S
O915 C926 1.283 . S
O916 Tb881 2.421 . S
O916 C933 1.262 . S
O917 Tb870 2.320 . S
O917 C933 1.260 . S
O918 Tb870 2.552 . S
O918 C926 1.243 . S
O919 Tb870 2.413 . S
O919 C934 1.256 . S
O920 Tb881 2.546 . S
O920 C945 1.251 . S
O921 Tb870 2.362 . S
O921 Tb881 2.610 . S
O921 C937 1.283 . S
O922 Tb870 2.421 . S
O922 C944 1.262 . S
O923 Tb881 2.320 . S
O923 C944 1.260 . S
O924 Tb881 2.552 . S
O924 C937 1.243 . S
O925 Tb881 2.413 . S
O925 C945 1.256 . S
C926 O915 1.283 . S
C926 O918 1.243 . S
C927 C929 1.382 . S
C927 C931 1.393 . S
C927 C934 1.500 . S
C928 C929 1.400 . S
C928 C930 1.384 . S
C929 C927 1.382 . S
C929 C928 1.400 . S
C929 H946 0.930 . S
C930 C928 1.384 . S
C930 C932 1.392 . S
C930 H947 0.931 . S
C931 C927 1.393 . S
C931 C932 1.401 . S
C931 H948 0.930 . S
C932 C930 1.392 . S
C932 C931 1.401 . S
C932 H949 0.930 . S
C933 O916 1.262 . S
C933 O917 1.260 . S
C934 Tb870 2.833 . S
C934 O914 1.251 . S
C934 O919 1.256 . S
C934 C927 1.500 . S
C935 H900 0.929 . S
C935 C913 1.444 . S
C935 C936 1.317 . S
C936 H898 0.930 1_655 S
C936 C904 1.432 . S
C936 C935 1.317 . S
C937 O921 1.283 . S
C937 O924 1.243 . S
C938 C939 1.382 . S
C938 C942 1.393 . S
C938 C945 1.500 . S
C939 C938 1.382 . S
C939 C940 1.400 . S
C939 H950 0.930 . S
C940 C939 1.400 . S
C940 C941 1.384 . S
C941 C940 1.384 . S
C941 C943 1.392 . S
C941 H951 0.931 . S
C942 C938 1.393 . S
C942 C943 1.401 . S
C942 H952 0.930 . S
C943 C941 1.392 . S
C943 C942 1.401 . S
C943 H953 0.930 . S
C944 O922 1.262 . S
C944 O923 1.260 . S
C945 Tb881 2.833 . S
C945 O920 1.251 . S
C945 O925 1.256 . S
C945 C938 1.500 . S
H946 C929 0.930 . S
H947 C930 0.931 . S
H948 C931 0.930 . S
H949 C932 0.930 . S
H950 C939 0.930 . S
H951 C941 0.931 . S
H952 C942 0.930 . S
H953 C943 0.930 . S
H954 C962 0.950 . S
H955 C967 0.950 . S
H956 C964 0.950 . S
H957 C966 0.950 . S
H958 C968 0.950 . S
H959 C970 0.950 . S
H960 C972 0.950 . S
H961 C973 0.950 . S
C962 H954 0.950 . S
C962 C963 1.386 . S
C962 C964 1.391 . S
C963 C962 1.386 . S
C963 C967 1.393 . S
C964 H956 0.950 . S
C964 C962 1.391 . S
C964 C965 1.400 . S
C965 C964 1.400 . S
C965 C966 1.398 . S
C965 C971 1.491 . S
C966 H957 0.950 . S
C966 C965 1.398 . S
C966 C967 1.391 . S
C967 H955 0.950 . S
C967 C963 1.393 . S
C967 C966 1.391 . S
C968 H958 0.950 . S
C968 C969 1.386 . S
C968 C970 1.391 . S
C969 C968 1.386 . S
C969 C973 1.393 . S
C970 H959 0.950 . S
C970 C968 1.391 . S
C970 C971 1.400 . S
C971 C965 1.491 . S
C971 C970 1.400 . S
C971 C972 1.398 . S
C972 H960 0.950 . S
C972 C971 1.398 . S
C972 C973 1.391 . S
C973 H961 0.950 . S
C973 C969 1.393 . S
C973 C972 1.391 . S
H974 C982 0.950 . S
H975 C987 0.950 . S
H976 C984 0.950 . S
H977 C986 0.950 . S
H978 C988 0.950 . S
H979 C990 0.950 . S
H980 C992 0.950 . S
H981 C993 0.950 . S
C982 H974 0.950 . S
C982 C983 1.386 . S
C982 C984 1.391 . S
C983 C982 1.386 . S
C983 C987 1.393 . S
C984 H976 0.950 . S
C984 C982 1.391 . S
C984 C985 1.400 . S
C985 C984 1.400 . S
C985 C986 1.398 . S
C985 C991 1.491 . S
C986 H977 0.950 . S
C986 C985 1.398 . S
C986 C987 1.391 . S
C987 H975 0.950 . S
C987 C983 1.393 . S
C987 C986 1.391 . S
C988 H978 0.950 . S
C988 C989 1.386 . S
C988 C990 1.391 . S
C989 C988 1.386 . S
C989 C993 1.393 . S
C990 H979 0.950 . S
C990 C988 1.391 . S
C990 C991 1.400 . S
C991 C985 1.491 . S
C991 C990 1.400 . S
C991 C992 1.398 . S
C992 H980 0.950 . S
C992 C991 1.398 . S
C992 C993 1.391 . S
C993 H981 0.950 . S
C993 C989 1.393 . S
C993 C992 1.391 . S
H994 C1002 0.950 . S
H995 C1007 0.950 . S
H996 C1004 0.950 . S
H997 C1006 0.950 . S
H998 C1008 0.950 . S
H999 C1010 0.950 . S
H1000 C1012 0.950 . S
H1001 C1013 0.950 . S
C1002 H994 0.950 . S
C1002 C1003 1.386 . S
C1002 C1004 1.391 . S
C1003 C1002 1.386 . S
C1003 C1007 1.393 . S
C1004 H996 0.950 . S
C1004 C1002 1.391 . S
C1004 C1005 1.400 . S
C1005 C1004 1.400 . S
C1005 C1006 1.398 . S
C1005 C1011 1.491 . S
C1006 H997 0.950 . S
C1006 C1005 1.398 . S
C1006 C1007 1.391 . S
C1007 H995 0.950 . S
C1007 C1003 1.393 . S
C1007 C1006 1.391 . S
C1008 H998 0.950 . S
C1008 C1009 1.386 . S
C1008 C1010 1.391 . S
C1009 C1008 1.386 . S
C1009 C1013 1.393 . S
C1010 H999 0.950 . S
C1010 C1008 1.391 . S
C1010 C1011 1.400 . S
C1011 C1005 1.491 . S
C1011 C1010 1.400 . S
C1011 C1012 1.398 . S
C1012 H1000 0.950 . S
C1012 C1011 1.398 . S
C1012 C1013 1.391 . S
C1013 H1001 0.950 . S
C1013 C1009 1.393 . S
C1013 C1012 1.391 . S
H1014 C1022 0.950 . S
H1015 C1027 0.950 . S
H1016 C1024 0.950 . S
H1017 C1026 0.950 . S
H1018 C1028 0.950 . S
H1019 C1030 0.950 . S
H1020 C1032 0.950 . S
H1021 C1033 0.950 1_554 S
C1022 H1014 0.950 . S
C1022 C1023 1.386 . S
C1022 C1024 1.391 . S
C1023 C1022 1.386 . S
C1023 C1027 1.393 . S
C1024 H1016 0.950 . S
C1024 C1022 1.391 . S
C1024 C1025 1.400 . S
C1025 C1024 1.400 . S
C1025 C1026 1.398 . S
C1025 C1031 1.491 . S
C1026 H1017 0.950 . S
C1026 C1025 1.398 . S
C1026 C1027 1.391 . S
C1027 H1015 0.950 . S
C1027 C1023 1.393 . S
C1027 C1026 1.391 . S
C1028 H1018 0.950 . S
C1028 C1029 1.386 . S
C1028 C1030 1.391 . S
C1029 C1028 1.386 . S
C1029 C1033 1.393 . S
C1030 H1019 0.950 . S
C1030 C1028 1.391 . S
C1030 C1031 1.400 . S
C1031 C1025 1.491 . S
C1031 C1030 1.400 . S
C1031 C1032 1.398 . S
C1032 H1020 0.950 . S
C1032 C1031 1.398 . S
C1032 C1033 1.391 . S
C1033 H1021 0.950 1_556 S
C1033 C1029 1.393 . S
C1033 C1032 1.391 . S
H1034 C1042 0.950 . S
H1035 C1047 0.950 . S
H1036 C1044 0.950 . S
H1037 C1046 0.950 . S
H1038 C1048 0.950 . S
H1039 C1050 0.950 1_554 S
H1040 C1052 0.950 . S
H1041 C1053 0.950 . S
C1042 H1034 0.950 . S
C1042 C1043 1.386 . S
C1042 C1044 1.391 . S
C1043 C1042 1.386 . S
C1043 C1047 1.393 . S
C1044 H1036 0.950 . S
C1044 C1042 1.391 . S
C1044 C1045 1.400 . S
C1045 C1044 1.400 . S
C1045 C1046 1.398 . S
C1045 C1051 1.491 . S
C1046 H1037 0.950 . S
C1046 C1045 1.398 . S
C1046 C1047 1.391 . S
C1047 H1035 0.950 . S
C1047 C1043 1.393 . S
C1047 C1046 1.391 . S
C1048 H1038 0.950 . S
C1048 C1049 1.386 1_554 S
C1048 C1050 1.391 1_554 S
C1049 C1048 1.386 1_556 S
C1049 C1053 1.393 . S
C1050 H1039 0.950 1_556 S
C1050 C1048 1.391 1_556 S
C1050 C1051 1.400 . S
C1051 C1045 1.491 . S
C1051 C1050 1.400 . S
C1051 C1052 1.398 . S
C1052 H1040 0.950 . S
C1052 C1051 1.398 . S
C1052 C1053 1.391 . S
C1053 H1041 0.950 . S
C1053 C1049 1.393 . S
C1053 C1052 1.391 . S
H1054 C1062 0.950 . S
H1055 C1067 0.950 . S
H1056 C1064 0.950 . S
H1057 C1066 0.950 . S
H1058 C1068 0.982 . S
H1059 C1070 0.961 . S
H1060 C1072 0.950 . S
H1061 C1073 0.950 . S
C1062 H1054 0.950 . S
C1062 C1063 1.386 . S
C1062 C1064 1.391 . S
C1063 C1062 1.386 . S
C1063 C1067 1.393 . S
C1064 H1056 0.950 . S
C1064 C1062 1.391 . S
C1064 C1065 1.400 . S
C1065 C1064 1.400 . S
C1065 C1066 1.398 . S
C1065 C1071 1.491 . S
C1066 H1057 0.950 . S
C1066 C1065 1.398 . S
C1066 C1067 1.391 . S
C1067 H1055 0.950 . S
C1067 C1063 1.393 . S
C1067 C1066 1.391 . S
C1068 H1058 0.982 . S
C1068 C1069 1.371 1_554 S
C1068 C1070 1.377 1_554 S
C1069 C1068 1.371 1_556 S
C1069 C1073 1.393 . S
C1070 H1059 0.961 . S
C1070 C1068 1.377 1_556 S
C1070 C1071 1.400 . S
C1071 C1065 1.491 . S
C1071 C1070 1.400 . S
C1071 C1072 1.398 . S
C1072 H1060 0.950 . S
C1072 C1071 1.398 . S
C1072 C1073 1.391 . S
C1073 H1061 0.950 . S
C1073 C1069 1.393 . S
C1073 C1072 1.391 . S
H1074 C1082 0.950 . S
H1075 C1087 0.950 . S
H1076 C1084 0.950 . S
H1077 C1086 0.950 . S
H1078 C1088 0.950 . S
H1079 C1090 0.950 . S
H1080 C1092 0.950 . S
H1081 C1093 0.950 . S
C1082 H1074 0.950 . S
C1082 C1083 1.386 . S
C1082 C1084 1.391 . S
C1083 C1082 1.386 . S
C1083 C1087 1.393 . S
C1084 H1076 0.950 . S
C1084 C1082 1.391 . S
C1084 C1085 1.400 . S
C1085 C1084 1.400 . S
C1085 C1086 1.398 . S
C1085 C1091 1.491 . S
C1086 H1077 0.950 . S
C1086 C1085 1.398 . S
C1086 C1087 1.391 . S
C1087 H1075 0.950 . S
C1087 C1083 1.393 . S
C1087 C1086 1.391 . S
C1088 H1078 0.950 . S
C1088 C1089 1.386 . S
C1088 C1090 1.391 . S
C1089 C1088 1.386 . S
C1089 C1093 1.393 . S
C1090 H1079 0.950 . S
C1090 C1088 1.391 . S
C1090 C1091 1.400 . S
C1091 C1085 1.491 . S
C1091 C1090 1.400 . S
C1091 C1092 1.398 . S
C1092 H1080 0.950 . S
C1092 C1091 1.398 . S
C1092 C1093 1.391 . S
C1093 H1081 0.950 . S
C1093 C1089 1.393 . S
C1093 C1092 1.391 . S
H1094 C1102 0.950 . S
H1095 C1107 0.950 . S
H1096 C1104 0.950 . S
H1097 C1106 0.950 . S
H1098 C1108 0.965 . S
H1099 C1110 0.950 . S
H1100 C1112 0.950 . S
H1101 C1113 0.950 . S
C1102 H1094 0.950 . S
C1102 C1103 1.386 . S
C1102 C1104 1.391 . S
C1103 C1102 1.386 . S
C1103 C1107 1.393 . S
C1104 H1096 0.950 . S
C1104 C1102 1.391 . S
C1104 C1105 1.400 . S
C1105 C1104 1.400 . S
C1105 C1106 1.398 . S
C1105 C1111 1.491 . S
C1106 H1097 0.950 . S
C1106 C1105 1.398 . S
C1106 C1107 1.391 . S
C1107 H1095 0.950 . S
C1107 C1103 1.393 . S
C1107 C1106 1.391 . S
C1108 H1098 0.965 . S
C1108 C1109 1.386 . S
C1108 C1110 1.391 . S
C1109 C1108 1.386 . S
C1109 C1113 1.393 . S
C1110 H1099 0.950 . S
C1110 C1108 1.391 . S
C1110 C1111 1.400 . S
C1111 C1105 1.491 . S
C1111 C1110 1.400 . S
C1111 C1112 1.398 . S
C1112 H1100 0.950 . S
C1112 C1111 1.398 . S
C1112 C1113 1.391 . S
C1113 H1101 0.950 . S
C1113 C1109 1.393 . S
C1113 C1112 1.391 . S
H1114 C1122 0.950 . S
H1115 C1127 0.950 . S
H1116 C1124 0.950 . S
H1117 C1126 0.986 . S
H1118 C1128 0.950 . S
H1119 C1130 0.950 1_554 S
H1120 C1132 0.950 . S
H1121 C1133 0.950 . S
C1122 H1114 0.950 . S
C1122 C1123 1.386 . S
C1122 C1124 1.391 . S
C1123 C1122 1.386 . S
C1123 C1127 1.393 . S
C1124 H1116 0.950 . S
C1124 C1122 1.391 . S
C1124 C1125 1.400 . S
C1125 C1124 1.400 . S
C1125 C1126 1.398 . S
C1125 C1131 1.491 . S
C1126 H1117 0.986 . S
C1126 C1125 1.398 . S
C1126 C1127 1.391 . S
C1127 H1115 0.950 . S
C1127 C1123 1.393 . S
C1127 C1126 1.391 . S
C1128 H1118 0.950 . S
C1128 C1129 1.386 1_554 S
C1128 C1130 1.391 1_554 S
C1129 C1128 1.386 1_556 S
C1129 C1133 1.393 . S
C1130 H1119 0.950 1_556 S
C1130 C1128 1.391 1_556 S
C1130 C1131 1.400 . S
C1131 C1125 1.491 . S
C1131 C1130 1.400 . S
C1131 C1132 1.398 . S
C1132 H1120 0.950 . S
C1132 C1131 1.398 . S
C1132 C1133 1.391 . S
C1133 H1121 0.950 . S
C1133 C1129 1.393 . S
C1133 C1132 1.391 . S
H1134 C1142 0.950 . S
H1135 C1147 0.950 . S
H1136 C1144 0.950 . S
H1137 C1146 0.950 . S
H1138 C1148 0.950 . S
H1139 C1150 0.950 . S
H1140 C1152 0.950 . S
H1141 C1153 0.950 . S
C1142 H1134 0.950 . S
C1142 C1143 1.386 . S
C1142 C1144 1.391 . S
C1143 C1142 1.386 . S
C1143 C1147 1.393 . S
C1144 H1136 0.950 . S
C1144 C1142 1.391 . S
C1144 C1145 1.400 . S
C1145 C1144 1.400 . S
C1145 C1146 1.398 . S
C1145 C1151 1.491 . S
C1146 H1137 0.950 . S
C1146 C1145 1.398 . S
C1146 C1147 1.391 . S
C1147 H1135 0.950 . S
C1147 C1143 1.393 . S
C1147 C1146 1.391 . S
C1148 H1138 0.950 . S
C1148 C1149 1.386 . S
C1148 C1150 1.391 . S
C1149 C1148 1.386 . S
C1149 C1153 1.393 . S
C1150 H1139 0.950 . S
C1150 C1148 1.391 . S
C1150 C1151 1.400 . S
C1151 C1145 1.491 . S
C1151 C1150 1.400 . S
C1151 C1152 1.398 . S
C1152 H1140 0.950 . S
C1152 C1151 1.398 . S
C1152 C1153 1.391 . S
C1153 H1141 0.950 . S
C1153 C1149 1.393 . S
C1153 C1152 1.391 . S
H1154 C1162 0.950 . S
H1155 C1167 0.950 . S
H1156 C1164 0.950 . S
H1157 C1166 0.950 . S
H1158 C1168 0.950 . S
H1159 C1170 0.950 . S
H1160 C1172 0.950 . S
H1161 C1173 0.950 . S
C1162 H1154 0.950 . S
C1162 C1163 1.386 . S
C1162 C1164 1.391 . S
C1163 C1162 1.386 . S
C1163 C1167 1.393 . S
C1164 H1156 0.950 . S
C1164 C1162 1.391 . S
C1164 C1165 1.400 . S
C1165 C1164 1.400 . S
C1165 C1166 1.398 . S
C1165 C1171 1.491 . S
C1166 H1157 0.950 . S
C1166 C1165 1.398 . S
C1166 C1167 1.391 . S
C1167 H1155 0.950 . S
C1167 C1163 1.393 . S
C1167 C1166 1.391 . S
C1168 H1158 0.950 . S
C1168 C1169 1.386 . S
C1168 C1170 1.391 . S
C1169 C1168 1.386 . S
C1169 C1173 1.393 . S
C1170 H1159 0.950 . S
C1170 C1168 1.391 . S
C1170 C1171 1.400 . S
C1171 C1165 1.491 . S
C1171 C1170 1.400 . S
C1171 C1172 1.398 . S
C1172 H1160 0.950 . S
C1172 C1171 1.398 . S
C1172 C1173 1.391 . S
C1173 H1161 0.950 . S
C1173 C1169 1.393 . S
C1173 C1172 1.391 . S
H1174 C1182 0.950 . S
H1175 C1187 0.950 . S
H1176 C1184 0.950 . S
H1177 C1186 0.950 . S
H1178 C1188 0.950 . S
H1179 C1190 0.950 . S
H1180 C1192 0.950 . S
H1181 C1193 0.950 . S
C1182 H1174 0.950 . S
C1182 C1183 1.386 . S
C1182 C1184 1.391 . S
C1183 C1182 1.386 . S
C1183 C1187 1.393 . S
C1184 H1176 0.950 . S
C1184 C1182 1.391 . S
C1184 C1185 1.400 . S
C1185 C1184 1.400 . S
C1185 C1186 1.398 . S
C1185 C1191 1.491 . S
C1186 H1177 0.950 . S
C1186 C1185 1.398 . S
C1186 C1187 1.391 . S
C1187 H1175 0.950 . S
C1187 C1183 1.393 . S
C1187 C1186 1.391 . S
C1188 H1178 0.950 . S
C1188 C1189 1.386 . S
C1188 C1190 1.391 . S
C1189 C1188 1.386 . S
C1189 C1193 1.393 . S
C1190 H1179 0.950 . S
C1190 C1188 1.391 . S
C1190 C1191 1.400 . S
C1191 C1185 1.491 . S
C1191 C1190 1.400 . S
C1191 C1192 1.398 . S
C1192 H1180 0.950 . S
C1192 C1191 1.398 . S
C1192 C1193 1.391 . S
C1193 H1181 0.950 . S
C1193 C1189 1.393 . S
C1193 C1192 1.391 . S
H1194 C1202 0.950 . S
H1195 C1207 0.950 . S
H1196 C1204 0.950 . S
H1197 C1206 0.950 1_455 S
H1198 C1208 0.950 . S
H1199 C1210 0.950 . S
H1200 C1212 0.950 . S
H1201 C1213 0.950 . S
C1202 H1194 0.950 . S
C1202 C1203 1.386 . S
C1202 C1204 1.391 . S
C1203 C1202 1.386 . S
C1203 C1207 1.393 . S
C1204 H1196 0.950 . S
C1204 C1202 1.391 . S
C1204 C1205 1.400 . S
C1205 C1204 1.400 . S
C1205 C1206 1.398 . S
C1205 C1211 1.491 1_655 S
C1206 H1197 0.950 1_655 S
C1206 C1205 1.398 . S
C1206 C1207 1.391 . S
C1207 H1195 0.950 . S
C1207 C1203 1.393 . S
C1207 C1206 1.391 . S
C1208 H1198 0.950 . S
C1208 C1209 1.386 . S
C1208 C1210 1.391 . S
C1209 C1208 1.386 . S
C1209 C1213 1.393 . S
C1210 H1199 0.950 . S
C1210 C1208 1.391 . S
C1210 C1211 1.400 . S
C1211 C1205 1.491 1_455 S
C1211 C1210 1.400 . S
C1211 C1212 1.398 . S
C1212 H1200 0.950 . S
C1212 C1211 1.398 . S
C1212 C1213 1.391 . S
C1213 H1201 0.950 . S
C1213 C1209 1.393 . S
C1213 C1212 1.391 . S
H1214 C1222 0.950 . S
H1215 C1227 0.950 . S
H1216 C1224 0.950 . S
H1217 C1226 0.950 . S
H1218 C1228 0.950 . S
H1219 C1230 0.950 . S
H1220 C1232 0.950 . S
H1221 C1233 0.950 . S
C1222 H1214 0.950 . S
C1222 C1223 1.386 . S
C1222 C1224 1.391 . S
C1223 C1222 1.386 . S
C1223 C1227 1.393 . S
C1224 H1216 0.950 . S
C1224 C1222 1.391 . S
C1224 C1225 1.400 . S
C1225 C1224 1.400 . S
C1225 C1226 1.398 . S
C1225 C1231 1.491 . S
C1226 H1217 0.950 . S
C1226 C1225 1.398 . S
C1226 C1227 1.391 . S
C1227 H1215 0.950 . S
C1227 C1223 1.393 . S
C1227 C1226 1.391 . S
C1228 H1218 0.950 . S
C1228 C1229 1.386 . S
C1228 C1230 1.391 . S
C1229 C1228 1.386 . S
C1229 C1233 1.393 . S
C1230 H1219 0.950 . S
C1230 C1228 1.391 . S
C1230 C1231 1.400 . S
C1231 C1225 1.491 . S
C1231 C1230 1.400 . S
C1231 C1232 1.398 . S
C1232 H1220 0.950 . S
C1232 C1231 1.398 . S
C1232 C1233 1.391 . S
C1233 H1221 0.950 . S
C1233 C1229 1.393 . S
C1233 C1232 1.391 . S
H1234 C1242 0.950 . S
H1235 C1247 0.950 . S
H1236 C1244 0.950 . S
H1237 C1246 0.950 . S
H1238 C1248 0.950 . S
H1239 C1250 0.950 1_545 S
H1240 C1252 0.950 . S
H1241 C1253 0.950 . S
C1242 H1234 0.950 . S
C1242 C1243 1.386 . S
C1242 C1244 1.391 . S
C1243 C1242 1.386 . S
C1243 C1247 1.393 . S
C1244 H1236 0.950 . S
C1244 C1242 1.391 . S
C1244 C1245 1.400 . S
C1245 C1244 1.400 . S
C1245 C1246 1.398 . S
C1245 C1251 1.491 1_545 S
C1246 H1237 0.950 . S
C1246 C1245 1.398 . S
C1246 C1247 1.391 . S
C1247 H1235 0.950 . S
C1247 C1243 1.393 . S
C1247 C1246 1.391 . S
C1248 H1238 0.950 . S
C1248 C1249 1.386 . S
C1248 C1250 1.391 . S
C1249 C1248 1.386 . S
C1249 C1253 1.393 . S
C1250 H1239 0.950 1_565 S
C1250 C1248 1.391 . S
C1250 C1251 1.400 . S
C1251 C1245 1.491 1_565 S
C1251 C1250 1.400 . S
C1251 C1252 1.398 . S
C1252 H1240 0.950 . S
C1252 C1251 1.398 . S
C1252 C1253 1.391 . S
C1253 H1241 0.950 . S
C1253 C1249 1.393 . S
C1253 C1252 1.391 . S
H1254 C1262 0.950 . S
H1255 C1267 0.950 . S
H1256 C1264 0.950 . S
H1257 C1266 0.950 . S
H1258 C1268 0.950 . S
H1259 C1270 0.950 . S
H1260 C1272 0.950 . S
H1261 C1273 0.950 . S
C1262 H1254 0.950 . S
C1262 C1263 1.386 . S
C1262 C1264 1.391 . S
C1263 C1262 1.386 . S
C1263 C1267 1.393 . S
C1264 H1256 0.950 . S
C1264 C1262 1.391 . S
C1264 C1265 1.400 . S
C1265 C1264 1.400 . S
C1265 C1266 1.398 . S
C1265 C1271 1.491 . S
C1266 H1257 0.950 . S
C1266 C1265 1.398 . S
C1266 C1267 1.391 . S
C1267 H1255 0.950 . S
C1267 C1263 1.393 . S
C1267 C1266 1.391 . S
C1268 H1258 0.950 . S
C1268 C1269 1.386 . S
C1268 C1270 1.391 . S
C1269 C1268 1.386 . S
C1269 C1273 1.393 . S
C1270 H1259 0.950 . S
C1270 C1268 1.391 . S
C1270 C1271 1.400 . S
C1271 C1265 1.491 . S
C1271 C1270 1.400 . S
C1271 C1272 1.398 . S
C1272 H1260 0.950 . S
C1272 C1271 1.398 . S
C1272 C1273 1.391 . S
C1273 H1261 0.950 . S
C1273 C1269 1.393 . S
C1273 C1272 1.391 . S
H1274 C1282 0.950 . S
H1275 C1287 0.950 . S
H1276 C1284 0.950 . S
H1277 C1286 0.950 . S
H1278 C1288 0.950 . S
H1279 C1290 0.950 . S
H1280 C1292 0.950 . S
H1281 C1293 0.950 . S
C1282 H1274 0.950 . S
C1282 C1283 1.386 . S
C1282 C1284 1.391 . S
C1283 C1282 1.386 . S
C1283 C1287 1.393 . S
C1284 H1276 0.950 . S
C1284 C1282 1.391 . S
C1284 C1285 1.400 . S
C1285 C1284 1.400 . S
C1285 C1286 1.398 . S
C1285 C1291 1.491 . S
C1286 H1277 0.950 . S
C1286 C1285 1.398 . S
C1286 C1287 1.391 . S
C1287 H1275 0.950 . S
C1287 C1283 1.393 . S
C1287 C1286 1.391 . S
C1288 H1278 0.950 . S
C1288 C1289 1.386 . S
C1288 C1290 1.391 . S
C1289 C1288 1.386 . S
C1289 C1293 1.393 . S
C1290 H1279 0.950 . S
C1290 C1288 1.391 . S
C1290 C1291 1.400 . S
C1291 C1285 1.491 . S
C1291 C1290 1.400 . S
C1291 C1292 1.398 . S
C1292 H1280 0.950 . S
C1292 C1291 1.398 . S
C1292 C1293 1.391 . S
C1293 H1281 0.950 . S
C1293 C1289 1.393 . S
C1293 C1292 1.391 . S
H1294 C1302 0.950 . S
H1295 C1307 0.950 . S
H1296 C1304 0.950 . S
H1297 C1306 0.950 . S
H1298 C1308 0.950 . S
H1299 C1310 0.950 . S
H1300 C1312 0.950 . S
H1301 C1313 0.950 . S
C1302 H1294 0.950 . S
C1302 C1303 1.386 . S
C1302 C1304 1.391 . S
C1303 C1302 1.386 . S
C1303 C1307 1.393 . S
C1304 H1296 0.950 . S
C1304 C1302 1.391 . S
C1304 C1305 1.400 . S
C1305 C1304 1.400 . S
C1305 C1306 1.398 . S
C1305 C1311 1.491 . S
C1306 H1297 0.950 . S
C1306 C1305 1.398 . S
C1306 C1307 1.391 . S
C1307 H1295 0.950 . S
C1307 C1303 1.393 . S
C1307 C1306 1.391 . S
C1308 H1298 0.950 . S
C1308 C1309 1.386 . S
C1308 C1310 1.391 . S
C1309 C1308 1.386 . S
C1309 C1313 1.393 . S
C1310 H1299 0.950 . S
C1310 C1308 1.391 . S
C1310 C1311 1.400 . S
C1311 C1305 1.491 . S
C1311 C1310 1.400 . S
C1311 C1312 1.398 . S
C1312 H1300 0.950 . S
C1312 C1311 1.398 . S
C1312 C1313 1.391 . S
C1313 H1301 0.950 . S
C1313 C1309 1.393 . S
C1313 C1312 1.391 . S
H1314 C1322 0.950 . S
H1315 C1327 0.950 . S
H1316 C1324 0.950 . S
H1317 C1326 0.950 . S
H1318 C1328 0.950 . S
H1319 C1330 0.950 . S
H1320 C1332 0.950 . S
H1321 C1333 0.950 . S
C1322 H1314 0.950 . S
C1322 C1323 1.386 . S
C1322 C1324 1.391 . S
C1323 C1322 1.386 . S
C1323 C1327 1.393 . S
C1324 H1316 0.950 . S
C1324 C1322 1.391 . S
C1324 C1325 1.400 . S
C1325 C1324 1.400 . S
C1325 C1326 1.398 . S
C1325 C1331 1.491 . S
C1326 H1317 0.950 . S
C1326 C1325 1.398 . S
C1326 C1327 1.391 . S
C1327 H1315 0.950 . S
C1327 C1323 1.393 . S
C1327 C1326 1.391 . S
C1328 H1318 0.950 . S
C1328 C1329 1.386 . S
C1328 C1330 1.391 . S
C1329 C1328 1.386 . S
C1329 C1333 1.393 . S
C1330 H1319 0.950 . S
C1330 C1328 1.391 . S
C1330 C1331 1.400 . S
C1331 C1325 1.491 . S
C1331 C1330 1.400 . S
C1331 C1332 1.398 . S
C1332 H1320 0.950 . S
C1332 C1331 1.398 . S
C1332 C1333 1.391 . S
C1333 H1321 0.950 . S
C1333 C1329 1.393 . S
C1333 C1332 1.391 . S
H1334 C1342 0.950 . S
H1335 C1347 0.950 . S
H1336 C1344 0.950 . S
H1337 C1346 0.950 . S
H1338 C1348 0.950 . S
H1339 C1350 0.950 . S
H1340 C1352 0.950 . S
H1341 C1353 0.950 . S
C1342 H1334 0.950 . S
C1342 C1343 1.386 . S
C1342 C1344 1.391 . S
C1343 C1342 1.386 . S
C1343 C1347 1.393 . S
C1344 H1336 0.950 . S
C1344 C1342 1.391 . S
C1344 C1345 1.400 . S
C1345 C1344 1.400 . S
C1345 C1346 1.398 . S
C1345 C1351 1.491 . S
C1346 H1337 0.950 . S
C1346 C1345 1.398 . S
C1346 C1347 1.391 . S
C1347 H1335 0.950 . S
C1347 C1343 1.393 . S
C1347 C1346 1.391 . S
C1348 H1338 0.950 . S
C1348 C1349 1.386 . S
C1348 C1350 1.391 . S
C1349 C1348 1.386 . S
C1349 C1353 1.393 . S
C1350 H1339 0.950 . S
C1350 C1348 1.391 . S
C1350 C1351 1.400 . S
C1351 C1345 1.491 . S
C1351 C1350 1.400 . S
C1351 C1352 1.398 . S
C1352 H1340 0.950 . S
C1352 C1351 1.398 . S
C1352 C1353 1.391 . S
C1353 H1341 0.950 . S
C1353 C1349 1.393 . S
C1353 C1352 1.391 . S
H1354 C1362 0.950 . S
H1355 C1367 0.950 . S
H1356 C1364 0.950 . S
H1357 C1366 0.950 . S
H1358 C1368 0.950 . S
H1359 C1370 0.950 . S
H1360 C1372 0.950 . S
H1361 C1373 0.950 . S
C1362 H1354 0.950 . S
C1362 C1363 1.386 . S
C1362 C1364 1.391 . S
C1363 C1362 1.386 . S
C1363 C1367 1.393 . S
C1364 H1356 0.950 . S
C1364 C1362 1.391 . S
C1364 C1365 1.400 . S
C1365 C1364 1.400 . S
C1365 C1366 1.398 . S
C1365 C1371 1.491 . S
C1366 H1357 0.950 . S
C1366 C1365 1.398 . S
C1366 C1367 1.391 . S
C1367 H1355 0.950 . S
C1367 C1363 1.393 . S
C1367 C1366 1.391 . S
C1368 H1358 0.950 . S
C1368 C1369 1.386 . S
C1368 C1370 1.391 . S
C1369 C1368 1.386 . S
C1369 C1373 1.393 . S
C1370 H1359 0.950 . S
C1370 C1368 1.391 . S
C1370 C1371 1.400 . S
C1371 C1365 1.491 . S
C1371 C1370 1.400 . S
C1371 C1372 1.398 . S
C1372 H1360 0.950 . S
C1372 C1371 1.398 . S
C1372 C1373 1.391 . S
C1373 H1361 0.950 . S
C1373 C1369 1.393 . S
C1373 C1372 1.391 . S
H1374 C1382 0.950 . S
H1375 C1387 0.950 . S
H1376 C1384 0.950 . S
H1377 C1386 0.950 . S
H1378 C1388 0.950 . S
H1379 C1390 0.950 . S
H1380 C1392 0.950 . S
H1381 C1393 0.950 . S
C1382 H1374 0.950 . S
C1382 C1383 1.386 . S
C1382 C1384 1.391 1_545 S
C1383 C1382 1.386 . S
C1383 C1387 1.393 . S
C1384 H1376 0.950 . S
C1384 C1382 1.391 1_565 S
C1384 C1385 1.400 . S
C1385 C1384 1.400 . S
C1385 C1386 1.398 . S
C1385 C1391 1.491 . S
C1386 H1377 0.950 . S
C1386 C1385 1.398 . S
C1386 C1387 1.391 1_565 S
C1387 H1375 0.950 . S
C1387 C1383 1.393 . S
C1387 C1386 1.391 1_545 S
C1388 H1378 0.950 . S
C1388 C1389 1.386 . S
C1388 C1390 1.391 . S
C1389 C1388 1.386 . S
C1389 C1393 1.393 . S
C1390 H1379 0.950 . S
C1390 C1388 1.391 . S
C1390 C1391 1.400 . S
C1391 C1385 1.491 . S
C1391 C1390 1.400 . S
C1391 C1392 1.398 . S
C1392 H1380 0.950 . S
C1392 C1391 1.398 . S
C1392 C1393 1.391 . S
C1393 H1381 0.950 . S
C1393 C1389 1.393 . S
C1393 C1392 1.391 . S
H1394 C1402 0.950 . S
H1395 C1407 0.950 1_655 S
H1396 C1404 0.950 . S
H1397 C1406 0.950 . S
H1398 C1408 0.950 . S
H1399 C1410 0.950 . S
H1400 C1412 0.950 . S
H1401 C1413 0.950 . S
C1402 H1394 0.950 . S
C1402 C1403 1.386 1_455 S
C1402 C1404 1.391 . S
C1403 C1402 1.386 1_655 S
C1403 C1407 1.393 1_655 S
C1404 H1396 0.950 . S
C1404 C1402 1.391 . S
C1404 C1405 1.400 . S
C1405 C1404 1.400 . S
C1405 C1406 1.398 . S
C1405 C1411 1.491 . S
C1406 H1397 0.950 . S
C1406 C1405 1.398 . S
C1406 C1407 1.391 . S
C1407 H1395 0.950 1_455 S
C1407 C1403 1.393 1_455 S
C1407 C1406 1.391 . S
C1408 H1398 0.950 . S
C1408 C1409 1.386 . S
C1408 C1410 1.391 . S
C1409 C1408 1.386 . S
C1409 C1413 1.393 . S
C1410 H1399 0.950 . S
C1410 C1408 1.391 . S
C1410 C1411 1.400 . S
C1411 C1405 1.491 . S
C1411 C1410 1.400 . S
C1411 C1412 1.398 . S
C1412 H1400 0.950 . S
C1412 C1411 1.398 . S
C1412 C1413 1.391 . S
C1413 H1401 0.950 . S
C1413 C1409 1.393 . S
C1413 C1412 1.391 . S
H1414 C1422 0.950 . S
H1415 C1427 0.950 . S
H1416 C1424 0.950 . S
H1417 C1426 0.950 . S
H1418 C1428 0.950 . S
H1419 C1430 0.950 . S
H1420 C1432 0.950 . S
H1421 C1433 0.950 . S
C1422 H1414 0.950 . S
C1422 C1423 1.386 . S
C1422 C1424 1.391 . S
C1423 C1422 1.386 . S
C1423 C1427 1.393 . S
C1424 H1416 0.950 . S
C1424 C1422 1.391 . S
C1424 C1425 1.400 . S
C1425 C1424 1.400 . S
C1425 C1426 1.398 . S
C1425 C1431 1.491 . S
C1426 H1417 0.950 . S
C1426 C1425 1.398 . S
C1426 C1427 1.391 . S
C1427 H1415 0.950 . S
C1427 C1423 1.393 . S
C1427 C1426 1.391 . S
C1428 H1418 0.950 . S
C1428 C1429 1.386 . S
C1428 C1430 1.391 . S
C1429 C1428 1.386 . S
C1429 C1433 1.393 . S
C1430 H1419 0.950 . S
C1430 C1428 1.391 . S
C1430 C1431 1.400 . S
C1431 C1425 1.491 . S
C1431 C1430 1.400 . S
C1431 C1432 1.398 . S
C1432 H1420 0.950 . S
C1432 C1431 1.398 . S
C1432 C1433 1.391 . S
C1433 H1421 0.950 . S
C1433 C1429 1.393 . S
C1433 C1432 1.391 . S
H1434 C1442 0.950 . S
H1435 C1447 0.950 . S
H1436 C1444 0.950 . S
H1437 C1446 0.950 . S
H1438 C1448 0.950 . S
H1439 C1450 0.950 . S
H1440 C1452 0.950 . S
H1441 C1453 0.950 . S
C1442 H1434 0.950 . S
C1442 C1443 1.386 . S
C1442 C1444 1.391 . S
C1443 C1442 1.386 . S
C1443 C1447 1.393 . S
C1444 H1436 0.950 . S
C1444 C1442 1.391 . S
C1444 C1445 1.400 . S
C1445 C1444 1.400 . S
C1445 C1446 1.398 . S
C1445 C1451 1.491 . S
C1446 H1437 0.950 . S
C1446 C1445 1.398 . S
C1446 C1447 1.391 . S
C1447 H1435 0.950 . S
C1447 C1443 1.393 . S
C1447 C1446 1.391 . S
C1448 H1438 0.950 . S
C1448 C1449 1.386 . S
C1448 C1450 1.391 . S
C1449 C1448 1.386 . S
C1449 C1453 1.393 . S
C1450 H1439 0.950 . S
C1450 C1448 1.391 . S
C1450 C1451 1.400 . S
C1451 C1445 1.491 . S
C1451 C1450 1.400 . S
C1451 C1452 1.398 . S
C1452 H1440 0.950 . S
C1452 C1451 1.398 . S
C1452 C1453 1.391 . S
C1453 H1441 0.950 . S
C1453 C1449 1.393 . S
C1453 C1452 1.391 . S
H1454 C1462 0.950 . S
H1455 C1467 0.950 . S
H1456 C1464 0.950 . S
H1457 C1466 0.950 . S
H1458 C1468 0.950 . S
H1459 C1470 0.950 . S
H1460 C1472 0.950 . S
H1461 C1473 0.950 . S
C1462 H1454 0.950 . S
C1462 C1463 1.386 . S
C1462 C1464 1.391 . S
C1463 C1462 1.386 . S
C1463 C1467 1.393 . S
C1464 H1456 0.950 . S
C1464 C1462 1.391 . S
C1464 C1465 1.400 . S
C1465 C1464 1.400 . S
C1465 C1466 1.398 . S
C1465 C1471 1.491 . S
C1466 H1457 0.950 . S
C1466 C1465 1.398 . S
C1466 C1467 1.391 . S
C1467 H1455 0.950 . S
C1467 C1463 1.393 . S
C1467 C1466 1.391 . S
C1468 H1458 0.950 . S
C1468 C1469 1.386 . S
C1468 C1470 1.391 . S
C1469 C1468 1.386 . S
C1469 C1473 1.393 . S
C1470 H1459 0.950 . S
C1470 C1468 1.391 . S
C1470 C1471 1.400 . S
C1471 C1465 1.491 . S
C1471 C1470 1.400 . S
C1471 C1472 1.398 . S
C1472 H1460 0.950 . S
C1472 C1471 1.398 . S
C1472 C1473 1.391 . S
C1473 H1461 0.950 . S
C1473 C1469 1.393 . S
C1473 C1472 1.391 . S
H1474 C1482 0.950 . S
H1475 C1487 0.950 . S
H1476 C1484 0.950 . S
H1477 C1486 0.950 . S
H1478 C1488 0.950 . S
H1479 C1490 0.950 . S
H1480 C1492 0.950 . S
H1481 C1493 0.950 . S
C1482 H1474 0.950 . S
C1482 C1483 1.386 . S
C1482 C1484 1.391 . S
C1483 C1482 1.386 . S
C1483 C1487 1.393 . S
C1484 H1476 0.950 . S
C1484 C1482 1.391 . S
C1484 C1485 1.400 . S
C1485 C1484 1.400 . S
C1485 C1486 1.398 . S
C1485 C1491 1.491 . S
C1486 H1477 0.950 . S
C1486 C1485 1.398 . S
C1486 C1487 1.391 . S
C1487 H1475 0.950 . S
C1487 C1483 1.393 . S
C1487 C1486 1.391 . S
C1488 H1478 0.950 . S
C1488 C1489 1.386 . S
C1488 C1490 1.391 . S
C1489 C1488 1.386 . S
C1489 C1493 1.393 . S
C1490 H1479 0.950 . S
C1490 C1488 1.391 . S
C1490 C1491 1.400 . S
C1491 C1485 1.491 . S
C1491 C1490 1.400 . S
C1491 C1492 1.398 . S
C1492 H1480 0.950 . S
C1492 C1491 1.398 . S
C1492 C1493 1.391 . S
C1493 H1481 0.950 . S
C1493 C1489 1.393 . S
C1493 C1492 1.391 . S
H1494 C1502 0.950 . S
H1495 C1507 0.950 . S
H1496 C1504 0.950 . S
H1497 C1506 0.950 1_545 S
H1498 C1508 0.950 . S
H1499 C1510 0.950 . S
H1500 C1512 0.950 . S
H1501 C1513 0.950 . S
C1502 H1494 0.950 . S
C1502 C1503 1.386 . S
C1502 C1504 1.391 . S
C1503 C1502 1.386 . S
C1503 C1507 1.393 . S
C1504 H1496 0.950 . S
C1504 C1502 1.391 . S
C1504 C1505 1.400 . S
C1505 C1504 1.400 . S
C1505 C1506 1.398 . S
C1505 C1511 1.491 1_565 S
C1506 H1497 0.950 1_565 S
C1506 C1505 1.398 . S
C1506 C1507 1.391 . S
C1507 H1495 0.950 . S
C1507 C1503 1.393 . S
C1507 C1506 1.391 . S
C1508 H1498 0.950 . S
C1508 C1509 1.386 . S
C1508 C1510 1.391 . S
C1509 C1508 1.386 . S
C1509 C1513 1.393 . S
C1510 H1499 0.950 . S
C1510 C1508 1.391 . S
C1510 C1511 1.400 . S
C1511 C1505 1.491 1_545 S
C1511 C1510 1.400 . S
C1511 C1512 1.398 . S
C1512 H1500 0.950 . S
C1512 C1511 1.398 . S
C1512 C1513 1.391 . S
C1513 H1501 0.950 . S
C1513 C1509 1.393 . S
C1513 C1512 1.391 . S
H1514 C1522 0.950 . S
H1515 C1527 0.950 . S
H1516 C1524 0.950 1_655 S
H1517 C1526 0.950 . S
H1518 C1528 0.950 . S
H1519 C1530 0.950 1_455 S
H1520 C1532 0.950 . S
H1521 C1533 0.950 . S
C1522 H1514 0.950 . S
C1522 C1523 1.386 . S
C1522 C1524 1.391 . S
C1523 C1522 1.386 . S
C1523 C1527 1.393 . S
C1524 H1516 0.950 1_455 S
C1524 C1522 1.391 . S
C1524 C1525 1.400 . S
C1525 C1524 1.400 . S
C1525 C1526 1.398 . S
C1525 C1531 1.491 1_455 S
C1526 H1517 0.950 . S
C1526 C1525 1.398 . S
C1526 C1527 1.391 . S
C1527 H1515 0.950 . S
C1527 C1523 1.393 . S
C1527 C1526 1.391 . S
C1528 H1518 0.950 . S
C1528 C1529 1.386 . S
C1528 C1530 1.391 . S
C1529 C1528 1.386 . S
C1529 C1533 1.393 . S
C1530 H1519 0.950 1_655 S
C1530 C1528 1.391 . S
C1530 C1531 1.400 . S
C1531 C1525 1.491 1_655 S
C1531 C1530 1.400 . S
C1531 C1532 1.398 . S
C1532 H1520 0.950 . S
C1532 C1531 1.398 . S
C1532 C1533 1.391 . S
C1533 H1521 0.950 . S
C1533 C1529 1.393 . S
C1533 C1532 1.391 . S
H1534 C1542 0.950 . S
H1535 C1547 0.950 . S
H1536 C1544 0.950 . S
H1537 C1546 0.950 . S
H1538 C1548 0.950 . S
H1539 C1550 0.950 . S
H1540 C1552 0.950 . S
H1541 C1553 0.950 . S
C1542 H1534 0.950 . S
C1542 C1543 1.386 . S
C1542 C1544 1.391 . S
C1543 C1542 1.386 . S
C1543 C1547 1.393 . S
C1544 H1536 0.950 . S
C1544 C1542 1.391 . S
C1544 C1545 1.400 . S
C1545 C1544 1.400 . S
C1545 C1546 1.398 . S
C1545 C1551 1.491 . S
C1546 H1537 0.950 . S
C1546 C1545 1.398 . S
C1546 C1547 1.391 . S
C1547 H1535 0.950 . S
C1547 C1543 1.393 . S
C1547 C1546 1.391 . S
C1548 H1538 0.950 . S
C1548 C1549 1.386 . S
C1548 C1550 1.391 . S
C1549 C1548 1.386 . S
C1549 C1553 1.393 . S
C1550 H1539 0.950 . S
C1550 C1548 1.391 . S
C1550 C1551 1.400 . S
C1551 C1545 1.491 . S
C1551 C1550 1.400 . S
C1551 C1552 1.398 . S
C1552 H1540 0.950 . S
C1552 C1551 1.398 . S
C1552 C1553 1.391 . S
C1553 H1541 0.950 . S
C1553 C1549 1.393 . S
C1553 C1552 1.391 . S
H1554 C1562 0.944 . S
H1555 C1567 0.950 . S
H1556 C1564 0.950 . S
H1557 C1566 0.950 . S
H1558 C1568 0.950 . S
H1559 C1570 0.950 . S
H1560 C1572 0.950 . S
H1561 C1573 0.950 . S
C1562 H1554 0.944 . S
C1562 C1563 1.386 1_655 S
C1562 C1564 1.391 . S
C1563 C1562 1.386 1_455 S
C1563 C1567 1.393 . S
C1564 H1556 0.950 . S
C1564 C1562 1.391 . S
C1564 C1565 1.400 . S
C1565 C1564 1.400 . S
C1565 C1566 1.398 . S
C1565 C1571 1.491 . S
C1566 H1557 0.950 . S
C1566 C1565 1.398 . S
C1566 C1567 1.391 1_655 S
C1567 H1555 0.950 . S
C1567 C1563 1.393 . S
C1567 C1566 1.391 1_455 S
C1568 H1558 0.950 . S
C1568 C1569 1.386 . S
C1568 C1570 1.391 . S
C1569 C1568 1.386 . S
C1569 C1573 1.393 . S
C1570 H1559 0.950 . S
C1570 C1568 1.391 . S
C1570 C1571 1.400 . S
C1571 C1565 1.491 . S
C1571 C1570 1.400 . S
C1571 C1572 1.398 . S
C1572 H1560 0.950 . S
C1572 C1571 1.398 . S
C1572 C1573 1.391 . S
C1573 H1561 0.950 . S
C1573 C1569 1.393 . S
C1573 C1572 1.391 . S
H1574 C1582 0.950 . S
H1575 C1587 0.950 . S
H1576 C1584 0.950 . S
H1577 C1586 0.950 . S
H1578 C1588 0.950 . S
H1579 C1590 0.950 . S
H1580 C1592 0.950 . S
H1581 C1593 0.950 . S
C1582 H1574 0.950 . S
C1582 C1583 1.386 . S
C1582 C1584 1.391 . S
C1583 C1582 1.386 . S
C1583 C1587 1.393 . S
C1584 H1576 0.950 . S
C1584 C1582 1.391 . S
C1584 C1585 1.400 . S
C1585 C1584 1.400 . S
C1585 C1586 1.398 . S
C1585 C1591 1.491 . S
C1586 H1577 0.950 . S
C1586 C1585 1.398 . S
C1586 C1587 1.391 . S
C1587 H1575 0.950 . S
C1587 C1583 1.393 . S
C1587 C1586 1.391 . S
C1588 H1578 0.950 . S
C1588 C1589 1.386 . S
C1588 C1590 1.391 . S
C1589 C1588 1.386 . S
C1589 C1593 1.393 . S
C1590 H1579 0.950 . S
C1590 C1588 1.391 . S
C1590 C1591 1.400 . S
C1591 C1585 1.491 . S
C1591 C1590 1.400 . S
C1591 C1592 1.398 . S
C1592 H1580 0.950 . S
C1592 C1591 1.398 . S
C1592 C1593 1.391 . S
C1593 H1581 0.950 . S
C1593 C1589 1.393 . S
C1593 C1592 1.391 . S
H1594 C1602 0.950 . S
H1595 C1607 0.950 . S
H1596 C1604 0.950 . S
H1597 C1606 0.950 . S
H1598 C1608 0.950 . S
H1599 C1610 0.950 . S
H1600 C1612 0.950 . S
H1601 C1613 0.950 . S
C1602 H1594 0.950 . S
C1602 C1603 1.386 1_545 S
C1602 C1604 1.391 . S
C1603 C1602 1.386 1_565 S
C1603 C1607 1.393 . S
C1604 H1596 0.950 . S
C1604 C1602 1.391 . S
C1604 C1605 1.400 . S
C1605 C1604 1.400 . S
C1605 C1606 1.398 . S
C1605 C1611 1.491 . S
C1606 H1597 0.950 . S
C1606 C1605 1.398 . S
C1606 C1607 1.391 1_545 S
C1607 H1595 0.950 . S
C1607 C1603 1.393 . S
C1607 C1606 1.391 1_565 S
C1608 H1598 0.950 . S
C1608 C1609 1.386 . S
C1608 C1610 1.391 . S
C1609 C1608 1.386 . S
C1609 C1613 1.393 . S
C1610 H1599 0.950 . S
C1610 C1608 1.391 . S
C1610 C1611 1.400 . S
C1611 C1605 1.491 . S
C1611 C1610 1.400 . S
C1611 C1612 1.398 . S
C1612 H1600 0.950 . S
C1612 C1611 1.398 . S
C1612 C1613 1.391 . S
C1613 H1601 0.950 . S
C1613 C1609 1.393 . S
C1613 C1612 1.391 . S
H1614 C1622 0.950 . S
H1615 C1627 0.950 . S
H1616 C1624 0.950 . S
H1617 C1626 0.950 . S
H1618 C1628 0.950 . S
H1619 C1630 0.950 . S
H1620 C1632 0.950 . S
H1621 C1633 0.950 . S
C1622 H1614 0.950 . S
C1622 C1623 1.386 . S
C1622 C1624 1.391 . S
C1623 C1622 1.386 . S
C1623 C1627 1.393 . S
C1624 H1616 0.950 . S
C1624 C1622 1.391 . S
C1624 C1625 1.400 . S
C1625 C1624 1.400 . S
C1625 C1626 1.398 . S
C1625 C1631 1.491 . S
C1626 H1617 0.950 . S
C1626 C1625 1.398 . S
C1626 C1627 1.391 . S
C1627 H1615 0.950 . S
C1627 C1623 1.393 . S
C1627 C1626 1.391 . S
C1628 H1618 0.950 . S
C1628 C1629 1.386 . S
C1628 C1630 1.391 . S
C1629 C1628 1.386 . S
C1629 C1633 1.393 . S
C1630 H1619 0.950 . S
C1630 C1628 1.391 . S
C1630 C1631 1.400 . S
C1631 C1625 1.491 . S
C1631 C1630 1.400 . S
C1631 C1632 1.398 . S
C1632 H1620 0.950 . S
C1632 C1631 1.398 . S
C1632 C1633 1.391 . S
C1633 H1621 0.950 . S
C1633 C1629 1.393 . S
C1633 C1632 1.391 . S
H1634 C1642 0.950 . S
H1635 C1647 0.950 . S
H1636 C1644 0.950 . S
H1637 C1646 0.950 . S
H1638 C1648 0.950 . S
H1639 C1650 0.950 . S
H1640 C1652 0.950 . S
H1641 C1653 0.950 . S
C1642 H1634 0.950 . S
C1642 C1643 1.386 . S
C1642 C1644 1.391 . S
C1643 C1642 1.386 . S
C1643 C1647 1.393 . S
C1644 H1636 0.950 . S
C1644 C1642 1.391 . S
C1644 C1645 1.400 . S
C1645 C1644 1.400 . S
C1645 C1646 1.398 . S
C1645 C1651 1.491 . S
C1646 H1637 0.950 . S
C1646 C1645 1.398 . S
C1646 C1647 1.391 . S
C1647 H1635 0.950 . S
C1647 C1643 1.393 . S
C1647 C1646 1.391 . S
C1648 H1638 0.950 . S
C1648 C1649 1.386 . S
C1648 C1650 1.391 . S
C1649 C1648 1.386 . S
C1649 C1653 1.393 . S
C1650 H1639 0.950 . S
C1650 C1648 1.391 . S
C1650 C1651 1.400 . S
C1651 C1645 1.491 . S
C1651 C1650 1.400 . S
C1651 C1652 1.398 . S
C1652 H1640 0.950 . S
C1652 C1651 1.398 . S
C1652 C1653 1.391 . S
C1653 H1641 0.950 . S
C1653 C1649 1.393 . S
C1653 C1652 1.391 . S
H1654 C1662 0.950 . S
H1655 C1667 0.950 . S
H1656 C1664 0.950 . S
H1657 C1666 0.950 . S
H1658 C1668 0.950 . S
H1659 C1670 0.950 . S
H1660 C1672 0.950 . S
H1661 C1673 0.950 . S
C1662 H1654 0.950 . S
C1662 C1663 1.386 . S
C1662 C1664 1.391 . S
C1663 C1662 1.386 . S
C1663 C1667 1.393 . S
C1664 H1656 0.950 . S
C1664 C1662 1.391 . S
C1664 C1665 1.400 . S
C1665 C1664 1.400 . S
C1665 C1666 1.398 . S
C1665 C1671 1.491 . S
C1666 H1657 0.950 . S
C1666 C1665 1.398 . S
C1666 C1667 1.391 . S
C1667 H1655 0.950 . S
C1667 C1663 1.393 . S
C1667 C1666 1.391 . S
C1668 H1658 0.950 . S
C1668 C1669 1.386 . S
C1668 C1670 1.391 . S
C1669 C1668 1.386 . S
C1669 C1673 1.393 . S
C1670 H1659 0.950 . S
C1670 C1668 1.391 . S
C1670 C1671 1.400 . S
C1671 C1665 1.491 . S
C1671 C1670 1.400 . S
C1671 C1672 1.398 . S
C1672 H1660 0.950 . S
C1672 C1671 1.398 . S
C1672 C1673 1.391 . S
C1673 H1661 0.950 . S
C1673 C1669 1.393 . S
C1673 C1672 1.391 . S
H1674 C1682 0.950 . S
H1675 C1687 0.950 . S
H1676 C1684 0.950 . S
H1677 C1686 0.950 . S
H1678 C1688 0.950 . S
H1679 C1690 0.950 . S
H1680 C1692 0.950 . S
H1681 C1693 0.950 . S
C1682 H1674 0.950 . S
C1682 C1683 1.386 . S
C1682 C1684 1.391 . S
C1683 C1682 1.386 . S
C1683 C1687 1.393 . S
C1684 H1676 0.950 . S
C1684 C1682 1.391 . S
C1684 C1685 1.400 . S
C1685 C1684 1.400 . S
C1685 C1686 1.398 . S
C1685 C1691 1.491 . S
C1686 H1677 0.950 . S
C1686 C1685 1.398 . S
C1686 C1687 1.391 . S
C1687 H1675 0.950 . S
C1687 C1683 1.393 . S
C1687 C1686 1.391 . S
C1688 H1678 0.950 . S
C1688 C1689 1.386 . S
C1688 C1690 1.391 . S
C1689 C1688 1.386 . S
C1689 C1693 1.393 . S
C1690 H1679 0.950 . S
C1690 C1688 1.391 . S
C1690 C1691 1.400 . S
C1691 C1685 1.491 . S
C1691 C1690 1.400 . S
C1691 C1692 1.398 . S
C1692 H1680 0.950 . S
C1692 C1691 1.398 . S
C1692 C1693 1.391 . S
C1693 H1681 0.950 . S
C1693 C1689 1.393 . S
C1693 C1692 1.391 . S
H1694 C1702 0.950 . S
H1695 C1707 0.950 . S
H1696 C1704 0.950 . S
H1697 C1706 0.950 . S
H1698 C1708 0.950 . S
H1699 C1710 0.950 . S
H1700 C1712 0.950 . S
H1701 C1713 0.950 . S
C1702 H1694 0.950 . S
C1702 C1703 1.386 . S
C1702 C1704 1.391 . S
C1703 C1702 1.386 . S
C1703 C1707 1.393 . S
C1704 H1696 0.950 . S
C1704 C1702 1.391 . S
C1704 C1705 1.400 . S
C1705 C1704 1.400 . S
C1705 C1706 1.398 . S
C1705 C1711 1.491 . S
C1706 H1697 0.950 . S
C1706 C1705 1.398 . S
C1706 C1707 1.391 . S
C1707 H1695 0.950 . S
C1707 C1703 1.393 . S
C1707 C1706 1.391 . S
C1708 H1698 0.950 . S
C1708 C1709 1.386 . S
C1708 C1710 1.391 . S
C1709 C1708 1.386 . S
C1709 C1713 1.393 . S
C1710 H1699 0.950 . S
C1710 C1708 1.391 . S
C1710 C1711 1.400 . S
C1711 C1705 1.491 . S
C1711 C1710 1.400 . S
C1711 C1712 1.398 . S
C1712 H1700 0.950 . S
C1712 C1711 1.398 . S
C1712 C1713 1.391 . S
C1713 H1701 0.950 . S
C1713 C1709 1.393 . S
C1713 C1712 1.391 . S
H1714 C1722 0.950 . S
H1715 C1727 0.950 . S
H1716 C1724 0.950 . S
H1717 C1726 0.950 . S
H1718 C1728 0.950 . S
H1719 C1730 0.950 . S
H1720 C1732 0.950 . S
H1721 C1733 0.950 . S
C1722 H1714 0.950 . S
C1722 C1723 1.386 . S
C1722 C1724 1.391 . S
C1723 C1722 1.386 . S
C1723 C1727 1.393 . S
C1724 H1716 0.950 . S
C1724 C1722 1.391 . S
C1724 C1725 1.400 . S
C1725 C1724 1.400 . S
C1725 C1726 1.398 . S
C1725 C1731 1.491 . S
C1726 H1717 0.950 . S
C1726 C1725 1.398 . S
C1726 C1727 1.391 . S
C1727 H1715 0.950 . S
C1727 C1723 1.393 . S
C1727 C1726 1.391 . S
C1728 H1718 0.950 . S
C1728 C1729 1.386 . S
C1728 C1730 1.391 . S
C1729 C1728 1.386 . S
C1729 C1733 1.393 . S
C1730 H1719 0.950 . S
C1730 C1728 1.391 . S
C1730 C1731 1.400 . S
C1731 C1725 1.491 . S
C1731 C1730 1.400 . S
C1731 C1732 1.398 . S
C1732 H1720 0.950 . S
C1732 C1731 1.398 . S
C1732 C1733 1.391 . S
C1733 H1721 0.950 . S
C1733 C1729 1.393 . S
C1733 C1732 1.391 . S
H1734 C1742 0.950 . S
H1735 C1747 0.950 . S
H1736 C1744 0.950 . S
H1737 C1746 0.950 . S
H1738 C1748 0.950 . S
H1739 C1750 0.950 . S
H1740 C1752 0.950 . S
H1741 C1753 0.950 . S
C1742 H1734 0.950 . S
C1742 C1743 1.386 . S
C1742 C1744 1.391 . S
C1743 C1742 1.386 . S
C1743 C1747 1.393 . S
C1744 H1736 0.950 . S
C1744 C1742 1.391 . S
C1744 C1745 1.400 . S
C1745 C1744 1.400 . S
C1745 C1746 1.398 . S
C1745 C1751 1.491 . S
C1746 H1737 0.950 . S
C1746 C1745 1.398 . S
C1746 C1747 1.391 . S
C1747 H1735 0.950 . S
C1747 C1743 1.393 . S
C1747 C1746 1.391 . S
C1748 H1738 0.950 . S
C1748 C1749 1.386 . S
C1748 C1750 1.391 . S
C1749 C1748 1.386 . S
C1749 C1753 1.393 . S
C1750 H1739 0.950 . S
C1750 C1748 1.391 . S
C1750 C1751 1.400 . S
C1751 C1745 1.491 . S
C1751 C1750 1.400 . S
C1751 C1752 1.398 . S
C1752 H1740 0.950 . S
C1752 C1751 1.398 . S
C1752 C1753 1.391 . S
C1753 H1741 0.950 . S
C1753 C1749 1.393 . S
C1753 C1752 1.391 . S
H1754 C1762 0.950 . S
H1755 C1767 0.950 . S
H1756 C1764 0.950 . S
H1757 C1766 0.950 . S
H1758 C1768 0.950 . S
H1759 C1770 0.950 . S
H1760 C1772 0.950 . S
H1761 C1773 0.950 . S
C1762 H1754 0.950 . S
C1762 C1763 1.386 . S
C1762 C1764 1.391 . S
C1763 C1762 1.386 . S
C1763 C1767 1.393 . S
C1764 H1756 0.950 . S
C1764 C1762 1.391 . S
C1764 C1765 1.400 . S
C1765 C1764 1.400 . S
C1765 C1766 1.398 . S
C1765 C1771 1.491 . S
C1766 H1757 0.950 . S
C1766 C1765 1.398 . S
C1766 C1767 1.391 . S
C1767 H1755 0.950 . S
C1767 C1763 1.393 . S
C1767 C1766 1.391 . S
C1768 H1758 0.950 . S
C1768 C1769 1.386 . S
C1768 C1770 1.391 . S
C1769 C1768 1.386 . S
C1769 C1773 1.393 . S
C1770 H1759 0.950 . S
C1770 C1768 1.391 . S
C1770 C1771 1.400 . S
C1771 C1765 1.491 . S
C1771 C1770 1.400 . S
C1771 C1772 1.398 . S
C1772 H1760 0.950 . S
C1772 C1771 1.398 . S
C1772 C1773 1.391 . S
C1773 H1761 0.950 . S
C1773 C1769 1.393 . S
C1773 C1772 1.391 . S
H1774 C1782 0.950 . S
H1775 C1787 0.950 . S
H1776 C1784 0.950 . S
H1777 C1786 0.950 . S
H1778 C1788 0.950 . S
H1779 C1790 0.950 . S
H1780 C1792 0.950 . S
H1781 C1793 0.950 . S
C1782 H1774 0.950 . S
C1782 C1783 1.386 . S
C1782 C1784 1.391 . S
C1783 C1782 1.386 . S
C1783 C1787 1.393 . S
C1784 H1776 0.950 . S
C1784 C1782 1.391 . S
C1784 C1785 1.400 . S
C1785 C1784 1.400 . S
C1785 C1786 1.398 . S
C1785 C1791 1.491 . S
C1786 H1777 0.950 . S
C1786 C1785 1.398 . S
C1786 C1787 1.391 . S
C1787 H1775 0.950 . S
C1787 C1783 1.393 . S
C1787 C1786 1.391 . S
C1788 H1778 0.950 . S
C1788 C1789 1.386 . S
C1788 C1790 1.391 . S
C1789 C1788 1.386 . S
C1789 C1793 1.393 . S
C1790 H1779 0.950 . S
C1790 C1788 1.391 . S
C1790 C1791 1.400 . S
C1791 C1785 1.491 . S
C1791 C1790 1.400 . S
C1791 C1792 1.398 . S
C1792 H1780 0.950 . S
C1792 C1791 1.398 . S
C1792 C1793 1.391 . S
C1793 H1781 0.950 . S
C1793 C1789 1.393 . S
C1793 C1792 1.391 . S
H1794 C1802 0.950 . S
H1795 C1807 0.950 . S
H1796 C1804 0.950 . S
H1797 C1806 0.950 . S
H1798 C1808 0.950 . S
H1799 C1810 0.950 . S
H1800 C1812 0.950 . S
H1801 C1813 0.950 . S
C1802 H1794 0.950 . S
C1802 C1803 1.386 . S
C1802 C1804 1.391 . S
C1803 C1802 1.386 . S
C1803 C1807 1.393 . S
C1804 H1796 0.950 . S
C1804 C1802 1.391 . S
C1804 C1805 1.400 . S
C1805 C1804 1.400 . S
C1805 C1806 1.398 . S
C1805 C1811 1.491 . S
C1806 H1797 0.950 . S
C1806 C1805 1.398 . S
C1806 C1807 1.391 . S
C1807 H1795 0.950 . S
C1807 C1803 1.393 . S
C1807 C1806 1.391 . S
C1808 H1798 0.950 . S
C1808 C1809 1.386 . S
C1808 C1810 1.391 . S
C1809 C1808 1.386 . S
C1809 C1813 1.393 . S
C1810 H1799 0.950 . S
C1810 C1808 1.391 . S
C1810 C1811 1.400 . S
C1811 C1805 1.491 . S
C1811 C1810 1.400 . S
C1811 C1812 1.398 . S
C1812 H1800 0.950 . S
C1812 C1811 1.398 . S
C1812 C1813 1.391 . S
C1813 H1801 0.950 . S
C1813 C1809 1.393 . S
C1813 C1812 1.391 . S
H1814 C1822 0.950 . S
H1815 C1827 0.950 . S
H1816 C1824 0.950 . S
H1817 C1826 0.950 . S
H1818 C1828 0.950 . S
H1819 C1830 0.950 . S
H1820 C1832 0.950 . S
H1821 C1833 0.950 . S
C1822 H1814 0.950 . S
C1822 C1823 1.386 . S
C1822 C1824 1.391 . S
C1823 C1822 1.386 . S
C1823 C1827 1.393 . S
C1824 H1816 0.950 . S
C1824 C1822 1.391 . S
C1824 C1825 1.400 . S
C1825 C1824 1.400 . S
C1825 C1826 1.398 . S
C1825 C1831 1.491 . S
C1826 H1817 0.950 . S
C1826 C1825 1.398 . S
C1826 C1827 1.391 . S
C1827 H1815 0.950 . S
C1827 C1823 1.393 . S
C1827 C1826 1.391 . S
C1828 H1818 0.950 . S
C1828 C1829 1.386 . S
C1828 C1830 1.391 . S
C1829 C1828 1.386 . S
C1829 C1833 1.393 . S
C1830 H1819 0.950 . S
C1830 C1828 1.391 . S
C1830 C1831 1.400 . S
C1831 C1825 1.491 . S
C1831 C1830 1.400 . S
C1831 C1832 1.398 . S
C1832 H1820 0.950 . S
C1832 C1831 1.398 . S
C1832 C1833 1.391 . S
C1833 H1821 0.950 . S
C1833 C1829 1.393 . S
C1833 C1832 1.391 . S
H1834 C1842 0.950 . S
H1835 C1847 0.950 . S
H1836 C1844 0.950 . S
H1837 C1846 0.950 . S
H1838 C1848 0.950 . S
H1839 C1850 0.950 . S
H1840 C1852 0.950 . S
H1841 C1853 0.950 . S
C1842 H1834 0.950 . S
C1842 C1843 1.386 . S
C1842 C1844 1.391 . S
C1843 C1842 1.386 . S
C1843 C1847 1.393 . S
C1844 H1836 0.950 . S
C1844 C1842 1.391 . S
C1844 C1845 1.400 . S
C1845 C1844 1.400 . S
C1845 C1846 1.398 . S
C1845 C1851 1.491 . S
C1846 H1837 0.950 . S
C1846 C1845 1.398 . S
C1846 C1847 1.391 . S
C1847 H1835 0.950 . S
C1847 C1843 1.393 . S
C1847 C1846 1.391 . S
C1848 H1838 0.950 . S
C1848 C1849 1.386 . S
C1848 C1850 1.391 . S
C1849 C1848 1.386 . S
C1849 C1853 1.393 . S
C1850 H1839 0.950 . S
C1850 C1848 1.391 . S
C1850 C1851 1.400 . S
C1851 C1845 1.491 . S
C1851 C1850 1.400 . S
C1851 C1852 1.398 . S
C1852 H1840 0.950 . S
C1852 C1851 1.398 . S
C1852 C1853 1.391 . S
C1853 H1841 0.950 . S
C1853 C1849 1.393 . S
C1853 C1852 1.391 . S
H1854 C1862 0.950 . S
H1855 C1867 0.950 . S
H1856 C1864 0.950 . S
H1857 C1866 0.950 . S
H1858 C1868 0.950 . S
H1859 C1870 0.950 . S
H1860 C1872 0.950 . S
H1861 C1873 0.950 . S
C1862 H1854 0.950 . S
C1862 C1863 1.386 . S
C1862 C1864 1.391 . S
C1863 C1862 1.386 . S
C1863 C1867 1.393 . S
C1864 H1856 0.950 . S
C1864 C1862 1.391 . S
C1864 C1865 1.400 . S
C1865 C1864 1.400 . S
C1865 C1866 1.398 . S
C1865 C1871 1.491 . S
C1866 H1857 0.950 . S
C1866 C1865 1.398 . S
C1866 C1867 1.391 . S
C1867 H1855 0.950 . S
C1867 C1863 1.393 . S
C1867 C1866 1.391 . S
C1868 H1858 0.950 . S
C1868 C1869 1.386 . S
C1868 C1870 1.391 . S
C1869 C1868 1.386 . S
C1869 C1873 1.393 . S
C1870 H1859 0.950 . S
C1870 C1868 1.391 . S
C1870 C1871 1.400 . S
C1871 C1865 1.491 . S
C1871 C1870 1.400 . S
C1871 C1872 1.398 . S
C1872 H1860 0.950 . S
C1872 C1871 1.398 . S
C1872 C1873 1.391 . S
C1873 H1861 0.950 . S
C1873 C1869 1.393 . S
C1873 C1872 1.391 . S
H1874 C1882 0.950 . S
H1875 C1887 0.950 . S
H1876 C1884 0.950 . S
H1877 C1886 0.950 . S
H1878 C1888 0.950 . S
H1879 C1890 0.950 . S
H1880 C1892 0.950 . S
H1881 C1893 0.950 . S
C1882 H1874 0.950 . S
C1882 C1883 1.386 . S
C1882 C1884 1.391 . S
C1883 C1882 1.386 . S
C1883 C1887 1.393 . S
C1884 H1876 0.950 . S
C1884 C1882 1.391 . S
C1884 C1885 1.400 . S
C1885 C1884 1.400 . S
C1885 C1886 1.398 . S
C1885 C1891 1.491 . S
C1886 H1877 0.950 . S
C1886 C1885 1.398 . S
C1886 C1887 1.391 . S
C1887 H1875 0.950 . S
C1887 C1883 1.393 . S
C1887 C1886 1.391 . S
C1888 H1878 0.950 . S
C1888 C1889 1.386 . S
C1888 C1890 1.391 . S
C1889 C1888 1.386 . S
C1889 C1893 1.393 . S
C1890 H1879 0.950 . S
C1890 C1888 1.391 . S
C1890 C1891 1.400 . S
C1891 C1885 1.491 . S
C1891 C1890 1.400 . S
C1891 C1892 1.398 . S
C1892 H1880 0.950 . S
C1892 C1891 1.398 . S
C1892 C1893 1.391 . S
C1893 H1881 0.950 . S
C1893 C1889 1.393 . S
C1893 C1892 1.391 . S
H1894 C1902 0.950 . S
H1895 C1907 0.950 . S
H1896 C1904 0.950 . S
H1897 C1906 0.950 . S
H1898 C1908 0.950 . S
H1899 C1910 0.950 . S
H1900 C1912 0.950 . S
H1901 C1913 0.950 . S
C1902 H1894 0.950 . S
C1902 C1903 1.386 . S
C1902 C1904 1.391 . S
C1903 C1902 1.386 . S
C1903 C1907 1.393 . S
C1904 H1896 0.950 . S
C1904 C1902 1.391 . S
C1904 C1905 1.400 . S
C1905 C1904 1.400 . S
C1905 C1906 1.398 . S
C1905 C1911 1.491 . S
C1906 H1897 0.950 . S
C1906 C1905 1.398 . S
C1906 C1907 1.391 . S
C1907 H1895 0.950 . S
C1907 C1903 1.393 . S
C1907 C1906 1.391 . S
C1908 H1898 0.950 . S
C1908 C1909 1.386 . S
C1908 C1910 1.391 . S
C1909 C1908 1.386 . S
C1909 C1913 1.393 . S
C1910 H1899 0.950 . S
C1910 C1908 1.391 . S
C1910 C1911 1.400 . S
C1911 C1905 1.491 . S
C1911 C1910 1.400 . S
C1911 C1912 1.398 . S
C1912 H1900 0.950 . S
C1912 C1911 1.398 . S
C1912 C1913 1.391 . S
C1913 H1901 0.950 . S
C1913 C1909 1.393 . S
C1913 C1912 1.391 . S
H1914 C1922 0.950 . S
H1915 C1927 0.950 . S
H1916 C1924 0.950 . S
H1917 C1926 0.950 . S
H1918 C1928 0.950 . S
H1919 C1930 0.950 . S
H1920 C1932 0.950 . S
H1921 C1933 0.950 . S
C1922 H1914 0.950 . S
C1922 C1923 1.386 . S
C1922 C1924 1.391 . S
C1923 C1922 1.386 . S
C1923 C1927 1.393 . S
C1924 H1916 0.950 . S
C1924 C1922 1.391 . S
C1924 C1925 1.400 . S
C1925 C1924 1.400 . S
C1925 C1926 1.398 . S
C1925 C1931 1.491 . S
C1926 H1917 0.950 . S
C1926 C1925 1.398 . S
C1926 C1927 1.391 . S
C1927 H1915 0.950 . S
C1927 C1923 1.393 . S
C1927 C1926 1.391 . S
C1928 H1918 0.950 . S
C1928 C1929 1.386 . S
C1928 C1930 1.391 . S
C1929 C1928 1.386 . S
C1929 C1933 1.393 . S
C1930 H1919 0.950 . S
C1930 C1928 1.391 . S
C1930 C1931 1.400 . S
C1931 C1925 1.491 . S
C1931 C1930 1.400 . S
C1931 C1932 1.398 . S
C1932 H1920 0.950 . S
C1932 C1931 1.398 . S
C1932 C1933 1.391 . S
C1933 H1921 0.950 . S
C1933 C1929 1.393 . S
C1933 C1932 1.391 . S
H1934 C1942 0.950 . S
H1935 C1947 0.950 . S
H1936 C1944 0.950 . S
H1937 C1946 0.950 . S
H1938 C1948 0.950 . S
H1939 C1950 0.950 . S
H1940 C1952 0.950 . S
H1941 C1953 0.950 . S
C1942 H1934 0.950 . S
C1942 C1943 1.386 . S
C1942 C1944 1.391 . S
C1943 C1942 1.386 . S
C1943 C1947 1.393 . S
C1944 H1936 0.950 . S
C1944 C1942 1.391 . S
C1944 C1945 1.400 . S
C1945 C1944 1.400 . S
C1945 C1946 1.398 . S
C1945 C1951 1.491 . S
C1946 H1937 0.950 . S
C1946 C1945 1.398 . S
C1946 C1947 1.391 . S
C1947 H1935 0.950 . S
C1947 C1943 1.393 . S
C1947 C1946 1.391 . S
C1948 H1938 0.950 . S
C1948 C1949 1.386 . S
C1948 C1950 1.391 . S
C1949 C1948 1.386 . S
C1949 C1953 1.393 . S
C1950 H1939 0.950 . S
C1950 C1948 1.391 . S
C1950 C1951 1.400 . S
C1951 C1945 1.491 . S
C1951 C1950 1.400 . S
C1951 C1952 1.398 . S
C1952 H1940 0.950 . S
C1952 C1951 1.398 . S
C1952 C1953 1.391 . S
C1953 H1941 0.950 . S
C1953 C1949 1.393 . S
C1953 C1952 1.391 . S
H1954 C1962 0.950 . S
H1955 C1967 0.950 . S
H1956 C1964 0.950 . S
H1957 C1966 0.950 . S
H1958 C1968 0.950 . S
H1959 C1970 0.950 . S
H1960 C1972 0.950 . S
H1961 C1973 0.950 . S
C1962 H1954 0.950 . S
C1962 C1963 1.386 . S
C1962 C1964 1.391 . S
C1963 C1962 1.386 . S
C1963 C1967 1.393 . S
C1964 H1956 0.950 . S
C1964 C1962 1.391 . S
C1964 C1965 1.400 . S
C1965 C1964 1.400 . S
C1965 C1966 1.398 . S
C1965 C1971 1.491 . S
C1966 H1957 0.950 . S
C1966 C1965 1.398 . S
C1966 C1967 1.391 . S
C1967 H1955 0.950 . S
C1967 C1963 1.393 . S
C1967 C1966 1.391 . S
C1968 H1958 0.950 . S
C1968 C1969 1.386 . S
C1968 C1970 1.391 . S
C1969 C1968 1.386 . S
C1969 C1973 1.393 . S
C1970 H1959 0.950 . S
C1970 C1968 1.391 . S
C1970 C1971 1.400 . S
C1971 C1965 1.491 . S
C1971 C1970 1.400 . S
C1971 C1972 1.398 . S
C1972 H1960 0.950 . S
C1972 C1971 1.398 . S
C1972 C1973 1.391 . S
C1973 H1961 0.950 . S
C1973 C1969 1.393 . S
C1973 C1972 1.391 . S
H1974 C1982 0.950 . S
H1975 C1987 0.950 . S
H1976 C1984 0.950 . S
H1977 C1986 0.950 . S
H1978 C1988 0.950 . S
H1979 C1990 0.950 . S
H1980 C1992 0.950 . S
H1981 C1993 0.950 . S
C1982 H1974 0.950 . S
C1982 C1983 1.386 . S
C1982 C1984 1.391 . S
C1983 C1982 1.386 . S
C1983 C1987 1.393 . S
C1984 H1976 0.950 . S
C1984 C1982 1.391 . S
C1984 C1985 1.400 . S
C1985 C1984 1.400 . S
C1985 C1986 1.398 . S
C1985 C1991 1.491 . S
C1986 H1977 0.950 . S
C1986 C1985 1.398 . S
C1986 C1987 1.391 . S
C1987 H1975 0.950 . S
C1987 C1983 1.393 . S
C1987 C1986 1.391 . S
C1988 H1978 0.950 . S
C1988 C1989 1.386 . S
C1988 C1990 1.391 . S
C1989 C1988 1.386 . S
C1989 C1993 1.393 . S
C1990 H1979 0.950 . S
C1990 C1988 1.391 . S
C1990 C1991 1.400 . S
C1991 C1985 1.491 . S
C1991 C1990 1.400 . S
C1991 C1992 1.398 . S
C1992 H1980 0.950 . S
C1992 C1991 1.398 . S
C1992 C1993 1.391 . S
C1993 H1981 0.950 . S
C1993 C1989 1.393 . S
C1993 C1992 1.391 . S
H1994 C2002 0.950 . S
H1995 C2007 0.950 . S
H1996 C2004 0.950 . S
H1997 C2006 0.950 . S
H1998 C2008 0.950 . S
H1999 C2010 0.950 . S
H2000 C2012 0.950 . S
H2001 C2013 0.950 . S
C2002 H1994 0.950 . S
C2002 C2003 1.386 . S
C2002 C2004 1.391 . S
C2003 C2002 1.386 . S
C2003 C2007 1.393 . S
C2004 H1996 0.950 . S
C2004 C2002 1.391 . S
C2004 C2005 1.400 . S
C2005 C2004 1.400 . S
C2005 C2006 1.398 . S
C2005 C2011 1.491 . S
C2006 H1997 0.950 . S
C2006 C2005 1.398 . S
C2006 C2007 1.391 . S
C2007 H1995 0.950 . S
C2007 C2003 1.393 . S
C2007 C2006 1.391 . S
C2008 H1998 0.950 . S
C2008 C2009 1.386 . S
C2008 C2010 1.391 . S
C2009 C2008 1.386 . S
C2009 C2013 1.393 . S
C2010 H1999 0.950 . S
C2010 C2008 1.391 . S
C2010 C2011 1.400 . S
C2011 C2005 1.491 . S
C2011 C2010 1.400 . S
C2011 C2012 1.398 . S
C2012 H2000 0.950 . S
C2012 C2011 1.398 . S
C2012 C2013 1.391 . S
C2013 H2001 0.950 . S
C2013 C2009 1.393 . S
C2013 C2012 1.391 . S
H2014 C2022 0.950 . S
H2015 C2027 0.950 . S
H2016 C2024 0.950 . S
H2017 C2026 0.950 . S
H2018 C2028 0.950 . S
H2019 C2030 0.950 . S
H2020 C2032 0.950 . S
H2021 C2033 0.950 . S
C2022 H2014 0.950 . S
C2022 C2023 1.386 . S
C2022 C2024 1.391 . S
C2023 C2022 1.386 . S
C2023 C2027 1.393 . S
C2024 H2016 0.950 . S
C2024 C2022 1.391 . S
C2024 C2025 1.400 . S
C2025 C2024 1.400 . S
C2025 C2026 1.398 . S
C2025 C2031 1.491 . S
C2026 H2017 0.950 . S
C2026 C2025 1.398 . S
C2026 C2027 1.391 . S
C2027 H2015 0.950 . S
C2027 C2023 1.393 . S
C2027 C2026 1.391 . S
C2028 H2018 0.950 . S
C2028 C2029 1.386 . S
C2028 C2030 1.391 . S
C2029 C2028 1.386 . S
C2029 C2033 1.393 . S
C2030 H2019 0.950 . S
C2030 C2028 1.391 . S
C2030 C2031 1.400 . S
C2031 C2025 1.491 . S
C2031 C2030 1.400 . S
C2031 C2032 1.398 . S
C2032 H2020 0.950 . S
C2032 C2031 1.398 . S
C2032 C2033 1.391 . S
C2033 H2021 0.950 . S
C2033 C2029 1.393 . S
C2033 C2032 1.391 . S
C963 C147 1.450 . S
C969 C265 1.399 . S
C983 C158 1.474 . S
C989 C349 1.421 . S
C1003 C136 1.448 . S
C1009 C429 1.447 . S
C1023 C125 1.421 . S
C1029 C345 1.421 1_556 S
C1049 C433 1.383 . S
C1043 C103 1.434 . S
C1063 C114 1.409 . S
C1069 C261 1.398 1_556 S
C1089 C254 1.455 . S
C1083 C131 1.495 . S
C1109 C338 1.457 . S
C1103 C109 1.531 . S
C1123 C120 1.525 . S
C1129 C440 1.491 1_556 S
C1143 C153 1.495 . S
C1149 C356 1.463 . S
C1163 C164 1.478 . S
C1169 C422 1.415 . S
C1189 C272 1.426 . S
C1183 C142 1.473 . S
C1209 C517 1.408 . S
C1203 C15 1.446 . S
C1223 C26 1.472 . S
C1229 C601 1.435 . S
C1243 C4 1.450 . S
C1249 C681 1.445 . S
C1263 C191 1.422 . S
C1269 C597 1.420 . S
C1283 C169 1.438 . S
C1289 C685 1.363 . S
C1303 C180 1.408 . S
C1309 C513 1.404 . S
C1323 C197 1.497 . S
C1329 C506 1.456 . S
C1343 C175 1.525 . S
C1349 C590 1.474 . S
C1369 C692 1.475 . S
C1363 C186 1.509 . S
C1383 C21 1.494 . S
C1389 C608 1.464 . S
C1409 C674 1.425 . S
C1403 C32 1.469 . S
C1423 C10 1.461 . S
C1429 C524 1.431 . S
C1449 C769 1.395 . S
C1443 C81 1.449 . S
C1463 C92 1.481 . S
C1469 C853 1.409 . S
C1489 C933 1.433 . S
C1483 C70 1.445 . S
C1509 C849 1.417 . S
C1503 C59 1.424 . S
C1529 C937 1.361 . S
C1523 C37 1.438 . S
C1543 C48 1.399 . S
C1549 C765 1.399 . S
C1563 C65 1.495 . S
C1569 C758 1.456 . S
C1583 C43 1.518 . S
C1589 C842 1.478 . S
C1609 C944 1.492 . S
C1603 C54 1.517 . S
C1623 C87 1.494 . S
C1629 C860 1.451 . S
C1643 C98 1.469 . S
C1649 C926 1.424 . S
C1663 C76 1.465 . S
C1669 C776 1.440 . S
C1683 C170 1.561 . S
C1689 C268 1.418 . S
C1709 C352 1.465 . S
C1703 C181 1.610 . S
C1723 C192 1.569 . S
C1729 C424 1.390 . S
C1743 C71 1.581 . S
C1749 C340 1.374 . S
C1763 C82 1.571 . S
C1769 C436 1.455 . S
C1789 C256 1.349 . S
C1783 C93 1.530 . S
C1803 C38 1.548 . S
C1809 C520 1.443 . S
C1823 C49 1.617 . S
C1829 C604 1.450 . S
C1843 C60 1.570 . S
C1849 C676 1.391 . S
C1863 C137 1.587 . S
C1869 C592 1.414 . S
C1889 C688 1.451 . S
C1883 C148 1.570 . S
C1903 C159 1.523 . S
C1909 C508 1.380 . S
C1923 C104 1.548 . S
C1929 C772 1.444 . S
C1943 C115 1.618 . S
C1949 C856 1.487 . S
C1969 C928 1.402 . S
C1963 C126 1.568 . S
C1983 C5 1.586 . S
C1989 C844 1.371 . S
C2003 C16 1.570 . S
C2009 C940 1.452 . S
C2023 C27 1.522 . S
C2029 C760 1.340 . S
