# Generated by pormake.
# Topology pyr, (3,6)-cn, num edge types: 1
# Building blocks:
#     Node 0, Type 0, BuildingBlock: BETDIP_clean_linker_0, # of connection points: 3
#     Node 1, Type 0, BuildingBlock: BETDIP_clean_linker_0, # of connection points: 3
#     Node 2, Type 0, BuildingBlock: BETDIP_clean_linker_0, # of connection points: 3
#     Node 3, Type 0, BuildingBlock: BETDIP_clean_linker_0, # of connection points: 3
#     Node 4, Type 0, BuildingBlock: BETDIP_clean_linker_0, # of connection points: 3
#     Node 5, Type 0, BuildingBlock: BETDIP_clean_linker_0, # of connection points: 3
#     Node 6, Type 0, BuildingBlock: BETDIP_clean_linker_0, # of connection points: 3
#     Node 7, Type 0, BuildingBlock: BETDIP_clean_linker_0, # of connection points: 3
#     Node 8, Type 1, BuildingBlock: BETGAK_clean_sbu_0, # of connection points: 6
#     Node 9, Type 1, BuildingBlock: BETGAK_clean_sbu_0, # of connection points: 6
#     Node 10, Type 1, BuildingBlock: BETGAK_clean_sbu_0, # of connection points: 6
#     Node 11, Type 1, BuildingBlock: BETGAK_clean_sbu_0, # of connection points: 6
#     Edge 12, Type (0, 1), BuildingBlock: XUDNAN_clean_linker_2, # of connection points: 2
#     Edge 13, Type (0, 1), BuildingBlock: XUDNAN_clean_linker_2, # of connection points: 2
#     Edge 14, Type (0, 1), BuildingBlock: XUDNAN_clean_linker_2, # of connection points: 2
#     Edge 15, Type (0, 1), BuildingBlock: XUDNAN_clean_linker_2, # of connection points: 2
#     Edge 16, Type (0, 1), BuildingBlock: XUDNAN_clean_linker_2, # of connection points: 2
#     Edge 17, Type (0, 1), BuildingBlock: XUDNAN_clean_linker_2, # of connection points: 2
#     Edge 18, Type (0, 1), BuildingBlock: XUDNAN_clean_linker_2, # of connection points: 2
#     Edge 19, Type (0, 1), BuildingBlock: XUDNAN_clean_linker_2, # of connection points: 2
#     Edge 20, Type (0, 1), BuildingBlock: XUDNAN_clean_linker_2, # of connection points: 2
#     Edge 21, Type (0, 1), BuildingBlock: XUDNAN_clean_linker_2, # of connection points: 2
#     Edge 22, Type (0, 1), BuildingBlock: XUDNAN_clean_linker_2, # of connection points: 2
#     Edge 23, Type (0, 1), BuildingBlock: XUDNAN_clean_linker_2, # of connection points: 2
#     Edge 24, Type (0, 1), BuildingBlock: XUDNAN_clean_linker_2, # of connection points: 2
#     Edge 25, Type (0, 1), BuildingBlock: XUDNAN_clean_linker_2, # of connection points: 2
#     Edge 26, Type (0, 1), BuildingBlock: XUDNAN_clean_linker_2, # of connection points: 2
#     Edge 27, Type (0, 1), BuildingBlock: XUDNAN_clean_linker_2, # of connection points: 2
#     Edge 28, Type (0, 1), BuildingBlock: XUDNAN_clean_linker_2, # of connection points: 2
#     Edge 29, Type (0, 1), BuildingBlock: XUDNAN_clean_linker_2, # of connection points: 2
#     Edge 30, Type (0, 1), BuildingBlock: XUDNAN_clean_linker_2, # of connection points: 2
#     Edge 31, Type (0, 1), BuildingBlock: XUDNAN_clean_linker_2, # of connection points: 2
#     Edge 32, Type (0, 1), BuildingBlock: XUDNAN_clean_linker_2, # of connection points: 2
#     Edge 33, Type (0, 1), BuildingBlock: XUDNAN_clean_linker_2, # of connection points: 2
#     Edge 34, Type (0, 1), BuildingBlock: XUDNAN_clean_linker_2, # of connection points: 2
#     Edge 35, Type (0, 1), BuildingBlock: XUDNAN_clean_linker_2, # of connection points: 2
# Relax obj value: 0.131
# Max RMSD: 0.168
# Mean RMSD: 0.137
data_MOF--net-pyr--node1-BETGAK_clean_sbu_0--node2-BETDIP_clean_linker_0--edge1-XUDNAN_clean_linker_2
_symmetry_space_group_name_H-M    P1
_symmetry_Int_Tables_number       1
_symmetry_cell_setting            triclinic
loop_
_symmetry_equiv_pos_as_xyz
'x, y, z'
_cell_length_a     37.486898
_cell_length_b     39.768028
_cell_length_c     37.785301
_cell_angle_alpha  92.988734
_cell_angle_beta   86.498676
_cell_angle_gamma 106.52986
loop_
_atom_site_label
_atom_site_type_symbol
_atom_site_fract_x
_atom_site_fract_y
_atom_site_fract_z
_atom_type_partial_charge
H0 H 0.32228 0.32971 0.21474 0.0
H1 H 0.40886 0.31198 0.14289 0.0
H2 H 0.36421 0.24108 0.22721 0.0
H3 H 0.37498 0.39514 0.19932 0.0
C4 C 0.36093 0.38535 0.17495 0.0
C5 C 0.34171 0.31474 0.20699 0.0
C6 C 0.34011 0.28417 0.22477 0.0
C7 C 0.36657 0.32492 0.17761 0.0
C8 C 0.39021 0.30447 0.16601 0.0
C9 C 0.38948 0.2742 0.18397 0.0
C10 C 0.36448 0.2643 0.21326 0.0
N11 N 0.36574 0.35412 0.15801 0.0
H12 H 0.18149 0.85035 0.71782 0.0
H13 H 0.20886 0.7915 0.6271 0.0
H14 H 0.29543 0.85132 0.69389 0.0
H15 H 0.12796 0.7951 0.61234 0.0
C16 C 0.14125 0.81715 0.62969 0.0
C17 C 0.2024 0.84261 0.70089 0.0
C18 C 0.24 0.85412 0.70922 0.0
C19 C 0.1915 0.82131 0.67056 0.0
C20 C 0.21797 0.80954 0.64941 0.0
C21 C 0.25541 0.81906 0.65859 0.0
C22 C 0.26629 0.8424 0.68776 0.0
N23 N 0.15341 0.81018 0.66263 0.0
H24 H 0.71006 0.42671 0.851 0.0
H25 H 0.62567 0.32804 0.84395 0.0
H26 H 0.70644 0.34546 0.92454 0.0
H27 H 0.66556 0.44676 0.81848 0.0
C28 C 0.65295 0.42441 0.80121 0.0
C29 C 0.69692 0.40103 0.86132 0.0
C30 C 0.71267 0.38939 0.89046 0.0
C31 C 0.66531 0.3792 0.84425 0.0
C32 C 0.6496 0.34482 0.857 0.0
C33 C 0.66365 0.3318 0.88617 0.0
C34 C 0.69519 0.35478 0.90252 0.0
N35 N 0.64988 0.38948 0.8132 0.0
H36 H 0.83789 0.6569 0.35388 0.0
H37 H 0.93266 0.74736 0.36651 0.0
H38 H 0.83959 0.72946 0.44245 0.0
H39 H 0.87547 0.63555 0.31915 0.0
C40 C 0.89646 0.65718 0.30716 0.0
C41 C 0.85209 0.68044 0.36853 0.0
C42 C 0.83435 0.6904 0.39968 0.0
C43 C 0.88772 0.7007 0.35638 0.0
C44 C 0.90529 0.7317 0.37561 0.0
C45 C 0.88843 0.74181 0.40718 0.0
C46 C 0.853 0.72107 0.41877 0.0
N47 N 0.90639 0.69095 0.32495 0.0
H48 H 0.64605 0.79247 0.93008 0.0
H49 H 0.73108 0.77601 0.8552 0.0
H50 H 0.6859 0.8626 0.84396 0.0
H51 H 0.67946 0.7106 0.87205 0.0
C52 C 0.694 0.72003 0.89624 0.0
C53 C 0.66377 0.80006 0.9064 0.0
C54 C 0.66266 0.82966 0.88816 0.0
C55 C 0.68794 0.78031 0.89423 0.0
C56 C 0.71158 0.79061 0.8641 0.0
C57 C 0.71093 0.82023 0.84599 0.0
C58 C 0.68629 0.83956 0.85792 0.0
N59 N 0.69011 0.75142 0.91358 0.0
H60 H 0.84065 0.20722 0.37858 0.0
H61 H 0.84725 0.29111 0.45618 0.0
H62 H 0.74886 0.25156 0.39569 0.0
H63 H 0.8841 0.25693 0.48229 0.0
C64 C 0.89432 0.24345 0.45988 0.0
C65 C 0.82798 0.22586 0.39237 0.0
C66 C 0.79199 0.22607 0.38483 0.0
C67 C 0.84772 0.24897 0.41808 0.0
C68 C 0.83176 0.27321 0.43625 0.0
C69 C 0.796 0.27456 0.4282 0.0
C70 C 0.77632 0.2508 0.40236 0.0
N71 N 0.88342 0.24655 0.42526 0.0
H72 H 0.33303 0.66605 0.22083 0.0
H73 H 0.4205 0.76137 0.23649 0.0
H74 H 0.34219 0.75303 0.15403 0.0
H75 H 0.42365 0.73313 0.29511 0.0
C76 C 0.41361 0.70508 0.28939 0.0
C77 C 0.34698 0.6926 0.21309 0.0
C78 C 0.33334 0.7067 0.18466 0.0
C79 C 0.37797 0.71159 0.23243 0.0
C80 C 0.3962 0.74676 0.22255 0.0
C81 C 0.38388 0.76256 0.19379 0.0
C82 C 0.3522 0.74183 0.17556 0.0
N83 N 0.39013 0.69281 0.25951 0.0
H84 H 0.13465 0.3405 0.71959 0.0
H85 H 0.22641 0.43423 0.72802 0.0
H86 H 0.22142 0.36359 0.6373 0.0
H87 H 0.18931 0.45467 0.76395 0.0
C88 C 0.16785 0.43322 0.77563 0.0
C89 C 0.1608 0.35733 0.70904 0.0
C90 C 0.17661 0.34782 0.67662 0.0
C91 C 0.1776 0.38929 0.72715 0.0
C92 C 0.2119 0.41084 0.71334 0.0
C93 C 0.22822 0.40198 0.68083 0.0
C94 C 0.20994 0.37052 0.66271 0.0
N95 N 0.15913 0.39899 0.75876 0.0
La96 La 0.04874 0.05082 0.50582 0.0
La97 La 0.03105 1.03332 0.58296 0.0
C98 C 0.05703 0.07888 0.4465 0.0
C99 C 0.08687 0.10555 0.42796 0.0
C100 C 0.12225 0.1006 0.42037 0.0
C101 C 0.14989 0.12571 0.40207 0.0
C102 C 0.14285 0.15636 0.39121 0.0
C103 C 0.10774 0.16167 0.39939 0.0
C104 C 0.07991 0.13636 0.41746 0.0
C105 C 0.09737 1.02567 0.53553 0.0
C106 C 0.07525 0.11017 0.56763 0.0
C107 C 1.01994 1.00431 0.64177 0.0
C108 C 0.9861 0.97982 0.65712 0.0
C109 C 0.95094 0.98187 0.64841 0.0
C110 C 0.91863 0.95898 0.66292 0.0
C111 C 0.92065 0.933 0.68596 0.0
C112 C 0.95602 0.93051 0.69403 0.0
C113 C 0.98849 0.95382 0.67974 0.0
C114 C 0.98199 0.05763 0.55286 0.0
C115 C 1.00419 0.9741 0.52096 0.0
O116 O 0.06358 0.04894 0.45159 0.0
O117 O 0.04085 0.09006 0.47449 0.0
O118 O 0.09055 1.02183 0.50222 0.0
O119 O 0.08029 0.04616 0.54978 0.0
O120 O 0.0663 0.10227 0.53415 0.0
O121 O 0.07027 0.08526 0.59093 0.0
O122 O 1.01767 0.03604 0.63746 0.0
O123 O 0.03547 0.99226 0.61388 0.0
O124 O 0.98871 0.062 0.58615 0.0
O125 O 0.9996 0.03748 0.53904 0.0
O126 O 1.01351 0.98174 0.5544 0.0
O127 O 1.00923 0.9992 0.49793 0.0
H128 H 0.12863 0.07728 0.42838 0.0
H129 H 0.17688 0.12119 0.39648 0.0
H130 H 0.10154 0.18497 0.39108 0.0
H131 H 0.05284 0.14072 0.42305 0.0
H132 H 0.94839 1.00147 0.6306 0.0
H133 H 0.89207 0.96226 0.65657 0.0
H134 H 0.95864 0.91052 0.71126 0.0
H135 H 1.01542 0.95155 0.68633 0.0
La136 La 0.55652 0.05279 0.05676 0.0
La137 La 0.49038 0.04319 1.02556 0.0
C138 C 0.62217 0.0636 0.07647 0.0
C139 C 0.63948 0.07383 0.11083 0.0
C140 C 0.62476 0.05515 0.14151 0.0
C141 C 0.64044 0.06632 0.17417 0.0
C142 C 0.67075 0.09656 0.17681 0.0
C143 C 0.68557 0.11507 0.1461 0.0
C144 C 0.67015 0.10368 0.11336 0.0
C145 C 0.5023 1.0027 0.09022 0.0
C146 C 0.5065 0.0945 0.09231 0.0
C147 C 0.42396 1.03209 1.00736 0.0
C148 C 0.40183 1.01636 0.9765 0.0
C149 C 0.39439 0.03817 0.95155 0.0
C150 C 0.37305 1.02378 0.92256 0.0
C151 C 0.35837 0.98723 0.91804 0.0
C152 C 0.36552 0.96541 0.9432 0.0
C153 C 0.38697 0.97981 0.97216 0.0
C154 C 0.54484 0.09313 0.99231 0.0
C155 C 0.54094 1.00262 0.98952 0.0
O156 O 0.59831 1.03263 0.07388 0.0
O157 O 0.61023 0.08731 0.06231 0.0
O158 O 0.52668 1.02859 0.10507 0.0
O159 O 0.50756 1.00659 0.05686 0.0
O160 O 0.54145 0.09479 0.08695 0.0
O161 O 0.48059 0.07124 0.07501 0.0
O162 O 0.45014 0.06119 1.00218 0.0
O163 O 0.435 1.01113 1.02678 0.0
O164 O 0.52043 0.06737 0.97725 0.0
O165 O 0.53932 0.08932 1.02564 0.0
O166 O 0.50573 1.00104 0.99593 0.0
O167 O 0.56669 1.02689 1.00604 0.0
H168 H 0.60085 1.03219 0.14044 0.0
H169 H 0.6283 0.05178 0.19751 0.0
H170 H 0.7092 0.13827 0.1474 0.0
H171 H 0.68187 0.11848 0.09006 0.0
H172 H 0.40514 0.06645 0.9544 0.0
H173 H 0.36843 0.04131 0.90346 0.0
H174 H 0.3541 0.93717 0.94079 0.0
H175 H 0.39172 0.96226 0.99117 0.0
La176 La 0.52607 0.51816 0.51337 0.0
La177 La 0.53067 0.58092 0.56024 0.0
C178 C 0.54519 0.47127 0.4762 0.0
C179 C 0.57495 0.45383 0.47811 0.0
C180 C 0.57246 0.42781 0.50274 0.0
C181 C 0.6016 0.41257 0.50471 0.0
C182 C 0.63379 0.42327 0.4823 0.0
C183 C 0.6361 0.44906 0.45759 0.0
C184 C 0.60692 0.46402 0.45538 0.0
C185 C 0.46273 0.51719 0.54809 0.0
C186 C 0.5587 0.52105 0.59226 0.0
C187 C 0.5155 0.6303 0.59693 0.0
C188 C 0.49157 0.6533 0.59322 0.0
C189 C 0.49827 0.68499 0.61307 0.0
C190 C 0.47436 0.70612 0.61167 0.0
C191 C 0.44324 0.69583 0.59042 0.0
C192 C 0.4374 0.66458 0.56955 0.0
C193 C 0.46137 0.64347 0.57096 0.0
C194 C 0.59326 0.58122 0.52408 0.0
C195 C 0.49719 0.57686 0.48086 0.0
O196 O 0.51814 0.46448 0.50074 0.0
O197 O 0.55664 0.50468 0.4695 0.0
O198 O 0.46533 0.50241 0.51697 0.0
O199 O 0.49495 0.52867 0.55988 0.0
O200 O 0.55561 0.50717 0.55926 0.0
O201 O 0.54843 0.55012 0.60005 0.0
O202 O 0.54436 0.63474 0.57461 0.0
O203 O 0.49818 0.59708 0.601 0.0
O204 O 0.59174 0.59401 0.55628 0.0
O205 O 0.56065 0.57062 0.51337 0.0
O206 O 0.50231 0.59301 0.51296 0.0
O207 O 0.5062 0.54707 0.47448 0.0
H208 H 0.54818 0.41934 0.52063 0.0
H209 H 0.59916 0.39271 0.52398 0.0
H210 H 0.66027 0.45731 0.43952 0.0
H211 H 0.6095 0.48377 0.43594 0.0
H212 H 0.52161 0.69309 0.63017 0.0
H213 H 0.47996 0.73031 0.62762 0.0
H214 H 0.41354 0.65574 0.55317 0.0
H215 H 0.45573 0.61906 0.55539 0.0
La216 La 1.02237 0.5132 0.04882 0.0
La217 La 0.02735 0.58292 1.02106 0.0
C218 C 0.04101 0.4591 0.06121 0.0
C219 C 0.07438 0.45377 0.0762 0.0
C220 C 0.08829 0.47091 0.10806 0.0
C221 C 0.12177 0.46796 0.1201 0.0
C222 C 0.14237 0.44821 0.10034 0.0
C223 C 0.12806 0.43081 0.06864 0.0
C224 C 0.09439 0.43347 0.05682 0.0
C225 C 0.99316 0.55349 0.09222 0.0
C226 C 0.09642 0.58012 0.06255 0.0
C227 C 1.00945 0.63735 1.00846 0.0
C228 C 0.97637 0.64333 0.99355 0.0
C229 C 0.96233 0.62667 0.96156 0.0
C230 C 0.92919 0.63046 0.94951 0.0
C231 C 0.90913 0.65061 0.96939 0.0
C232 C 0.92356 0.66749 1.00126 0.0
C233 C 0.95688 0.66398 1.01309 0.0
C234 C 0.05695 0.54247 0.97814 0.0
C235 C 0.95305 0.51636 1.00756 0.0
O236 O 1.01885 0.47188 0.08261 0.0
O237 O 0.04702 0.47396 1.03051 0.0
O238 O 0.98008 0.51953 0.08946 0.0
O239 O 1.02249 0.56296 0.07269 0.0
O240 O 0.08027 0.54545 0.06146 0.0
O241 O 0.07897 0.60155 0.05033 0.0
O242 O 0.03119 0.6241 0.98701 0.0
O243 O 1.00327 0.62258 0.03922 0.0
O244 O 0.07018 0.57642 0.98093 0.0
O245 O 0.02735 0.53321 0.99729 0.0
O246 O 0.96943 0.55097 1.00849 0.0
O247 O 0.97035 0.4948 1.01989 0.0
H248 H 0.07367 0.48708 0.12341 0.0
H249 H 0.13149 0.48127 0.14491 0.0
H250 H 0.14332 0.41585 0.05236 0.0
H251 H 0.08443 0.42039 0.03195 0.0
H252 H 0.97656 0.61026 0.94607 0.0
H253 H 0.91934 0.61752 0.92458 0.0
H254 H 0.90868 0.68272 1.01764 0.0
H255 H 0.96697 0.67673 0.03805 0.0
H256 H 0.29933 0.21659 0.23764 0.0
H257 H 0.31617 0.32403 0.27778 0.0
H258 H 0.26693 0.30334 0.32467 0.0
H259 H 0.20132 0.18793 0.25256 0.0
H260 H 0.20053 0.14486 0.26594 0.0
H261 H 0.23702 0.16825 0.23566 0.0
H262 H 0.2868 0.16212 0.27767 0.0
H263 H 0.25046 0.13853 0.30801 0.0
H264 H 0.28493 0.17732 0.32335 0.0
H265 H 0.21455 0.27054 0.36647 0.0
H266 H 0.16535 0.228 0.40116 0.0
H267 H 0.18539 0.14259 0.33428 0.0
C268 C 0.29322 0.23582 0.25659 0.0
C269 C 0.31171 0.27196 0.254 0.0
C270 C 0.30209 0.29624 0.27894 0.0
C271 C 0.27431 0.28473 0.30577 0.0
C272 C 0.2566 0.24889 0.3074 0.0
C273 C 0.26589 0.22482 0.28358 0.0
C274 C 0.24288 0.18776 0.29097 0.0
C275 C 0.21903 0.17125 0.25941 0.0
C276 C 0.26776 0.16511 0.30058 0.0
C277 C 0.21905 0.19469 0.32265 0.0
C278 C 0.22717 0.23009 0.33169 0.0
C279 C 0.20808 0.24274 0.35973 0.0
C280 C 0.18013 0.21848 0.37914 0.0
C281 C 0.17185 0.18209 0.37048 0.0
C282 C 0.19156 0.17023 0.34181 0.0
H283 H 0.2906 0.85058 0.75725 0.0
H284 H 0.21659 0.91139 0.73188 0.0
H285 H 0.23788 0.95169 0.7833 0.0
H286 H 0.27984 0.859 0.85207 0.0
H287 H 0.328 0.86279 0.85898 0.0
H288 H 0.30604 0.83829 0.82086 0.0
H289 H 0.35749 0.8768 0.77939 0.0
H290 H 0.37965 0.90138 0.81737 0.0
H291 H 0.36651 0.92385 0.78232 0.0
H292 H 0.26835 0.98589 0.83694 0.0
H293 H 0.30515 1.01108 0.88891 0.0
H294 H 0.36069 0.9288 0.87714 0.0
C295 C 0.27898 0.87248 0.76234 0.0
C296 C 0.25193 0.87786 0.74055 0.0
C297 C 0.23701 0.90652 0.74849 0.0
C298 C 0.24908 0.92964 0.77749 0.0
C299 C 0.27603 0.92368 0.79821 0.0
C300 C 0.29076 0.89579 0.79099 0.0
C301 C 0.31974 0.89538 0.81699 0.0
C302 C 0.30767 0.86188 0.8385 0.0
C303 C 0.35812 0.89962 0.79787 0.0
C304 C 0.31911 0.92749 0.83999 0.0
C305 C 0.29371 0.94345 0.8288 0.0
C306 C 0.28837 0.97364 0.84591 0.0
C307 C 0.30956 0.98787 0.87525 0.0
C308 C 0.33582 0.97193 0.88712 0.0
C309 C 0.34051 0.94134 0.86909 0.0
H310 H 0.64018 0.48675 0.78121 0.0
H311 H 0.62846 0.37989 0.74249 0.0
H312 H 0.60464 0.39319 0.68655 0.0
H313 H 0.55523 0.49493 0.74332 0.0
H314 H 0.57496 0.54038 0.73285 0.0
H315 H 0.5916 0.52275 0.76945 0.0
H316 H 0.65876 0.54328 0.74213 0.0
H317 H 0.64231 0.56087 0.70539 0.0
H318 H 0.66854 0.52941 0.69729 0.0
H319 H 0.58389 0.41961 0.63215 0.0
H320 H 0.56417 0.45349 0.58823 0.0
H321 H 0.58468 0.54349 0.66191 0.0
C322 C 0.63249 0.466 0.76102 0.0
C323 C 0.63658 0.43194 0.76696 0.0
C324 C 0.62583 0.40598 0.73938 0.0
C325 C 0.61226 0.41348 0.70719 0.0
C326 C 0.60877 0.44719 0.70226 0.0
C327 C 0.61821 0.47296 0.72874 0.0
C328 C 0.61091 0.50684 0.71706 0.0
C329 C 0.58142 0.51682 0.74217 0.0
C330 C 0.6473 0.53688 0.71538 0.0
C331 C 0.59613 0.49638 0.67982 0.0
C332 C 0.59552 0.46186 0.67178 0.0
C333 C 0.58411 0.44649 0.63866 0.0
C334 C 0.57291 0.46628 0.61352 0.0
C335 C 0.57231 0.50166 0.62074 0.0
C336 C 0.58427 0.51665 0.65491 0.0
H337 H 0.88168 0.59511 0.26916 0.0
H338 H 0.95446 0.70158 0.26853 0.0
H339 H 0.9859 0.68711 0.21259 0.0
H340 H 0.94975 0.55235 0.23648 0.0
H341 H 0.91787 0.51968 0.20994 0.0
H342 H 0.90078 0.53879 0.2493 0.0
H343 H 0.85421 0.55752 0.21224 0.0
H344 H 0.8712 0.53849 0.17274 0.0
H345 H 0.87132 0.5839 0.1741 0.0
H346 H 1.01059 0.66 0.15715 0.0
H347 H 0.02625 0.62305 0.10735 0.0
H348 H 0.93648 0.53445 0.14358 0.0
C349 C 0.90419 0.61543 0.25717 0.0
C350 C 0.91562 0.64949 0.27325 0.0
C351 C 0.94518 0.67533 0.25676 0.0
C352 C 0.96318 0.66732 0.22494 0.0
C353 C 0.95123 0.6334 0.20983 0.0
C354 C 0.92232 0.60789 0.22541 0.0
C355 C 0.915 0.57336 0.20412 0.0
C356 C 0.92123 0.54434 0.22629 0.0
C357 C 0.87559 0.5627 0.18996 0.0
C358 C 0.94449 0.58322 0.1742 0.0
C359 C 0.96508 0.61799 0.17793 0.0
C360 C 0.99443 0.63285 0.15392 0.0
C361 C 1.00305 0.61165 0.1256 0.0
C362 C 0.98239 0.57593 0.1213 0.0
C363 C 0.95261 0.56172 0.14595 0.0
H364 H 0.36887 0.20403 0.16719 0.0
H365 H 0.46532 0.29493 0.17388 0.0
H366 H 0.50659 0.25731 0.15649 0.0
H367 H 0.41023 0.14025 0.19958 0.0
H368 H 0.38716 0.1058 0.16892 0.0
H369 H 0.36555 0.13946 0.18383 0.0
H370 H 0.36082 0.15443 0.11863 0.0
H371 H 0.38198 0.12058 0.10356 0.0
H372 H 0.40223 0.16494 0.08968 0.0
H373 H 0.53697 0.2095 0.13852 0.0
H374 H 0.55395 0.15719 0.11368 0.0
H375 H 0.43705 0.09813 0.11614 0.0
C376 C 0.39872 0.21589 0.16516 0.0
C377 C 0.41413 0.25222 0.17205 0.0
C378 C 0.45316 0.2671 0.16859 0.0
C379 C 0.47672 0.24592 0.15904 0.0
C380 C 0.46066 0.21005 0.15275 0.0
C381 C 0.42251 0.19526 0.15516 0.0
C382 C 0.41209 0.15653 0.14476 0.0
C383 C 0.39261 0.1342 0.17615 0.0
C384 C 0.38786 0.14868 0.11222 0.0
C385 C 0.45033 0.15183 0.1358 0.0
C386 C 0.47801 0.18284 0.1412 0.0
C387 C 0.51553 0.18508 0.13423 0.0
C388 C 0.5249 0.15512 0.12033 0.0
C389 C 0.49682 0.12353 0.11304 0.0
C390 C 0.45915 0.12182 0.12159 0.0
H391 H 0.12433 0.83849 0.56723 0.0
H392 H 0.15319 0.87598 0.67454 0.0
H393 H 0.14872 0.9344 0.66099 0.0
H394 H 0.17336 0.91872 0.52322 0.0
H395 H 0.13767 0.91455 0.49205 0.0
H396 H 0.14478 0.87586 0.50971 0.0
H397 H 0.07525 0.85582 0.53168 0.0
H398 H 0.068 0.89441 0.51402 0.0
H399 H 0.05644 0.88509 0.56013 0.0
H400 H 0.13724 0.98797 0.63693 0.0
H401 H 0.12078 1.03285 0.6032 0.0
H402 H 0.10072 0.96095 0.51152 0.0
C403 C 0.13007 0.85915 0.58771 0.0
C404 C 0.13986 0.85281 0.62168 0.0
C405 C 0.14665 0.88029 0.64803 0.0
C406 C 0.14389 0.91361 0.64066 0.0
C407 C 0.13423 0.91902 0.60688 0.0
C408 C 0.12743 0.89257 0.58079 0.0
C409 C 0.11643 0.90496 0.54697 0.0
C410 C 0.14476 0.90343 0.51617 0.0
C411 C 0.07668 0.88381 0.53767 0.0
C412 C 0.11816 0.94246 0.55815 0.0
C413 C 0.12826 0.95005 0.59285 0.0
C414 C 0.12978 0.98251 0.60958 0.0
C415 C 0.12048 1.0078 0.59031 0.0
C416 C 0.1101 1.0004 0.55478 0.0
C417 C 0.10934 0.96749 0.53847 0.0
H418 H 0.77246 0.37309 0.92219 0.0
H419 H 0.73235 0.46177 0.90028 0.0
H420 H 0.78754 0.50185 0.92694 0.0
H421 H 0.81052 0.40798 1.00797 0.0
H422 H 0.85045 0.39119 1.00177 0.0
H423 H 0.80783 0.36884 0.9807 0.0
H424 H 0.84364 0.37373 0.91967 0.0
H425 H 0.88635 0.39612 0.94055 0.0
H426 H 0.87085 0.41624 0.90504 0.0
H427 H 0.84839 0.53382 0.95609 0.0
H428 H 0.90827 0.55418 0.98502 0.0
H429 H 0.91118 0.44627 0.99064 0.0
C430 C 0.77492 0.40089 0.92315 0.0
C431 C 0.74715 0.41363 0.90822 0.0
C432 C 0.75273 0.4506 0.91031 0.0
C433 C 0.78422 0.47388 0.92586 0.0
C434 C 0.81085 0.4605 0.93985 0.0
C435 C 0.80655 0.4248 0.93877 0.0
C436 C 0.83967 0.41755 0.95582 0.0
C437 C 0.82632 0.39504 0.98851 0.0
C438 C 0.86141 0.39985 0.92865 0.0
C439 C 0.86316 0.45462 0.96661 0.0
C440 C 0.84583 0.47894 0.95702 0.0
C441 C 0.86197 0.51482 0.96368 0.0
C442 C 0.89638 0.52624 0.9803 0.0
C443 C 0.91529 0.50224 0.99064 0.0
C444 C 0.89791 0.46567 0.98354 0.0
H445 H 0.80595 0.67708 0.46868 0.0
H446 H 0.77548 0.6559 0.35892 0.0
H447 H 0.7125 0.62168 0.37901 0.0
H448 H 0.75086 0.59359 0.50333 0.0
H449 H 0.73749 0.61312 0.54427 0.0
H450 H 0.78131 0.63361 0.5214 0.0
H451 H 0.76298 0.69159 0.51987 0.0
H452 H 0.71923 0.67135 0.54287 0.0
H453 H 0.71985 0.69115 0.50092 0.0
H454 H 0.6517 0.59173 0.41087 0.0
H455 H 0.597 0.57113 0.45211 0.0
H456 H 0.66562 0.61362 0.54129 0.0
C457 C 0.78613 0.66537 0.44874 0.0
C458 C 0.79621 0.66911 0.41204 0.0
C459 C 0.76911 0.65291 0.3871 0.0
C460 C 0.73304 0.63352 0.39827 0.0
C461 C 0.72414 0.63055 0.43454 0.0
C462 C 0.74984 0.64618 0.45942 0.0
C463 C 0.73254 0.6405 0.49682 0.0
C464 C 0.7517 0.61892 0.51768 0.0
C465 C 0.73372 0.67574 0.51625 0.0
C466 C 0.69295 0.61969 0.48906 0.0
C467 C 0.68885 0.61388 0.45295 0.0
C468 C 0.65467 0.59597 0.43919 0.0
C469 C 0.62374 0.58423 0.46286 0.0
C470 C 0.62704 0.59058 0.49993 0.0
C471 C 0.66228 0.60818 0.51311 0.0
H472 H 0.30087 0.35628 0.13399 0.0
H473 H 0.35896 0.45209 0.19035 0.0
H474 H 0.31102 0.47996 0.17479 0.0
H475 H 0.26691 0.39646 0.06282 0.0
H476 H 0.22252 0.36345 0.06288 0.0
H477 H 0.26336 0.35245 0.07533 0.0
H478 H 0.22978 0.3302 0.13522 0.0
H479 H 0.18893 0.34125 0.12305 0.0
H480 H 0.21064 0.35913 0.16381 0.0
H481 H 0.2558 0.49659 0.15457 0.0
H482 H 0.19618 0.50027 0.1334 0.0
H483 H 0.17166 0.39174 0.09445 0.0
C484 C 0.30393 0.38339 0.14232 0.0
C485 C 0.33391 0.40242 0.16277 0.0
C486 C 0.33635 0.43738 0.17426 0.0
C487 C 0.30931 0.45335 0.16556 0.0
C488 C 0.27977 0.43377 0.14575 0.0
C489 C 0.2768 0.39949 0.13442 0.0
C490 C 0.24089 0.38338 0.11581 0.0
C491 C 0.24891 0.37335 0.0769 0.0
C492 C 0.2161 0.35162 0.13567 0.0
C493 C 0.22408 0.41389 0.11855 0.0
C494 C 0.24711 0.44281 0.13557 0.0
C495 C 0.23745 0.47405 0.14134 0.0
C496 C 0.20329 0.47575 0.12949 0.0
C497 C 0.17885 0.44623 0.11242 0.0
C498 C 0.1897 0.41498 0.10693 0.0
H499 H 0.6499 0.30246 0.9552 0.0
H500 H 0.63785 0.27265 0.84346 0.0
H501 H 0.60874 0.21134 0.85903 0.0
H502 H 0.67023 0.2221 0.98158 0.0
H503 H 0.64383 0.2192 1.02337 0.0
H504 H 0.6645 0.26137 1.00428 0.0
H505 H 0.60011 0.27321 1.00712 0.0
H506 H 0.57927 0.23109 1.02624 0.0
H507 H 0.56163 0.24205 0.98639 0.0
H508 H 0.58026 0.15208 0.88565 0.0
H509 H 0.55326 0.10001 0.92112 0.0
H510 H 0.58088 0.16369 1.01776 0.0
C511 C 0.64135 0.28307 0.93392 0.0
C512 C 0.64635 0.29357 0.89765 0.0
C513 C 0.63417 0.26652 0.87126 0.0
C514 C 0.61764 0.23112 0.87992 0.0
C515 C 0.61282 0.22189 0.91546 0.0
C516 C 0.6242 0.24702 0.94222 0.0
C517 C 0.61478 0.22938 0.97836 0.0
C518 C 0.65047 0.23325 0.99808 0.0
C519 C 0.58732 0.24486 1.00087 0.0
C520 C 0.59644 0.19063 0.96766 0.0
C521 C 0.59593 0.18727 0.93106 0.0
C522 C 0.58059 0.15463 0.91429 0.0
C523 C 0.56516 0.12488 0.93493 0.0
C524 C 0.56449 0.12679 0.97262 0.0
C525 C 0.58081 0.16063 0.98913 0.0
H526 H 0.92061 0.81014 0.38649 0.0
H527 H 0.89935 0.74447 0.47791 0.0
H528 H 0.9278 0.79621 0.51622 0.0
H529 H 1.0097 0.86968 0.41356 0.0
H530 H 1.00043 0.90801 0.39727 0.0
H531 H 0.98046 0.8655 0.37649 0.0
H532 H 0.91461 0.87402 0.387 0.0
H533 H 0.93437 0.91644 0.40798 0.0
H534 H 0.89868 0.88369 0.43132 0.0
H535 H 0.95735 0.85491 0.54505 0.0
H536 H 0.98474 0.91696 0.56285 0.0
H537 H 0.98558 0.94613 0.45354 0.0
C538 C 0.92248 0.80668 0.41449 0.0
C539 C 0.90786 0.77319 0.42922 0.0
C540 C 0.91024 0.76983 0.46609 0.0
C541 C 0.92645 0.79907 0.48805 0.0
C542 C 0.94007 0.83174 0.47291 0.0
C543 C 0.93826 0.83582 0.437 0.0
C544 C 0.95366 0.87425 0.42793 0.0
C545 C 0.98811 0.87967 0.40229 0.0
C546 C 0.92353 0.8879 0.41266 0.0
C547 C 0.96415 0.89104 0.46433 0.0
C548 C 0.95631 0.86593 0.48979 0.0
C549 C 0.96353 0.87482 0.52534 0.0
C550 C 0.97909 0.91027 0.5352 0.0
C551 C 0.98716 0.9367 0.50974 0.0
C552 C 0.97955 0.92673 0.47377 0.0
H553 H 0.30759 0.79543 0.68862 0.0
H554 H 0.26441 0.80475 0.58672 0.0
H555 H 0.30919 0.77562 0.55717 0.0
H556 H 0.40442 0.81273 0.65837 0.0
H557 H 0.41289 0.7818 0.68769 0.0
H558 H 0.37808 0.80406 0.70008 0.0
H559 H 0.32851 0.74407 0.70832 0.0
H560 H 0.36311 0.72164 0.69594 0.0
H561 H 0.32089 0.7118 0.67217 0.0
H562 H 0.35841 0.74371 0.53944 0.0
H563 H 0.40679 0.71207 0.53533 0.0
H564 H 0.41656 0.72512 0.64939 0.0
C565 C 0.30791 0.79204 0.65999 0.0
C566 C 0.28272 0.80271 0.63994 0.0
C567 C 0.28339 0.79668 0.60264 0.0
C568 C 0.30884 0.78035 0.58564 0.0
C569 C 0.33336 0.77027 0.60635 0.0
C570 C 0.33302 0.776 0.64273 0.0
C571 C 0.36135 0.76207 0.65935 0.0
C572 C 0.39094 0.79195 0.67743 0.0
C573 C 0.34232 0.73318 0.68547 0.0
C574 C 0.37764 0.74727 0.6267 0.0
C575 C 0.36133 0.75225 0.5963 0.0
C576 C 0.37144 0.73984 0.56309 0.0
C577 C 0.39879 0.72177 0.56103 0.0
C578 C 0.41566 0.71635 0.59201 0.0
C579 C 0.40485 0.72947 0.62511 0.0
H580 H 0.78642 0.84193 0.84677 0.0
H581 H 0.69454 0.82605 0.7777 0.0
H582 H 0.73922 0.84778 0.72718 0.0
H583 H 0.83864 0.92259 0.81204 0.0
H584 H 0.88338 0.91524 0.8167 0.0
H585 H 0.84451 0.8946 0.84595 0.0
H586 H 0.85359 0.83368 0.82781 0.0
H587 H 0.89246 0.85418 0.79832 0.0
H588 H 0.85381 0.81999 0.78157 0.0
H589 H 0.79376 0.87279 0.68512 0.0
H590 H 0.85326 0.90475 0.65555 0.0
H591 H 0.90896 0.9088 0.75386 0.0
C592 C 0.77592 0.84252 0.82079 0.0
C593 C 0.73734 0.832 0.81565 0.0
C594 C 0.72417 0.83386 0.78176 0.0
C595 C 0.74929 0.84596 0.75304 0.0
C596 C 0.7873 0.85635 0.75896 0.0
C597 C 0.80055 0.8551 0.79208 0.0
C598 C 0.84237 0.87079 0.79216 0.0
C599 C 0.85282 0.9027 0.81825 0.0
C600 C 0.86169 0.843 0.80045 0.0
C601 C 0.85056 0.8816 0.75404 0.0
C602 C 0.81854 0.87241 0.73518 0.0
C603 C 0.819 0.88024 0.69966 0.0
C604 C 0.85293 0.89868 0.68319 0.0
C605 C 0.88588 0.90975 0.70242 0.0
C606 C 0.88456 0.90041 0.73817 0.0
H607 H 0.75716 0.23903 0.32766 0.0
H608 H 0.78055 0.15524 0.3827 0.0
H609 H 0.74891 0.11218 0.33693 0.0
H610 H 0.66569 0.18833 0.29664 0.0
H611 H 0.67344 0.2092 0.25453 0.0
H612 H 0.69499 0.23279 0.29328 0.0
H613 H 0.75978 0.24453 0.26023 0.0
H614 H 0.73849 0.2208 0.2215 0.0
H615 H 0.77493 0.20801 0.24138 0.0
H616 H 0.71722 0.07884 0.28406 0.0
H617 H 0.68924 0.05767 0.22653 0.0
H618 H 0.68801 0.1635 0.20533 0.0
C619 C 0.75496 0.21152 0.33032 0.0
C620 C 0.77102 0.20027 0.35863 0.0
C621 C 0.76841 0.16423 0.36103 0.0
C622 C 0.75039 0.13964 0.33532 0.0
C623 C 0.73531 0.15162 0.30739 0.0
C624 C 0.73741 0.18669 0.3047 0.0
C625 C 0.72089 0.19296 0.27095 0.0
C626 C 0.68672 0.20662 0.27936 0.0
C627 C 0.75028 0.21805 0.24712 0.0
C628 C 0.70977 0.15606 0.25482 0.0
C629 C 0.71787 0.13252 0.27646 0.0
C630 C 0.71055 0.09697 0.26696 0.0
C631 C 0.69463 0.08519 0.23434 0.0
C632 C 0.68664 0.109 0.21158 0.0
C633 C 0.69419 0.14482 0.22212 0.0
H634 H 0.44654 0.71999 0.35572 0.0
H635 H 0.40142 0.63276 0.2825 0.0
H636 H 0.41678 0.59244 0.32295 0.0
H637 H 0.52291 0.69002 0.38439 0.0
H638 H 0.51887 0.70428 0.43015 0.0
H639 H 0.50448 0.72662 0.39574 0.0
H640 H 0.43923 0.71555 0.42715 0.0
H641 H 0.45341 0.69312 0.46163 0.0
H642 H 0.41283 0.67135 0.43729 0.0
H643 H 0.4393 0.56076 0.37123 0.0
H644 H 0.46396 0.54054 0.42246 0.0
H645 H 0.49312 0.64646 0.46854 0.0
C646 C 0.43977 0.69235 0.34816 0.0
C647 C 0.42253 0.68003 0.31517 0.0
C648 C 0.41436 0.64344 0.30704 0.0
C649 C 0.42313 0.62014 0.33011 0.0
C650 C 0.44002 0.63311 0.36211 0.0
C651 C 0.44802 0.66843 0.37135 0.0
C652 C 0.46589 0.67531 0.40769 0.0
C653 C 0.50538 0.70057 0.40429 0.0
C654 C 0.44139 0.6897 0.43506 0.0
C655 C 0.46708 0.63853 0.41734 0.0
C656 C 0.45207 0.61471 0.39039 0.0
C657 C 0.45083 0.57938 0.39236 0.0
C658 C 0.46515 0.56804 0.42197 0.0
C659 C 0.48072 0.59135 0.45051 0.0
C660 C 0.48126 0.6274 0.44787 0.0
H661 H 0.18047 0.49611 0.81201 0.0
H662 H 0.107 0.38992 0.81191 0.0
H663 H 0.07154 0.40595 0.86445 0.0
H664 H 0.18309 0.50971 0.90773 0.0
H665 H 0.18378 0.55515 0.90667 0.0
H666 H 0.20356 0.535 0.86962 0.0
H667 H 0.16086 0.55301 0.82735 0.0
H668 H 0.14094 0.57319 0.86425 0.0
H669 H 0.11116 0.53998 0.83652 0.0
H670 H 0.04278 0.43467 0.91627 0.0
H671 H 0.02387 0.47291 0.963 0.0
H672 H 0.11702 0.56015 0.93011 0.0
C673 C 0.15699 0.47617 0.82316 0.0
C674 C 0.14652 0.44174 0.80782 0.0
C675 C 0.11562 0.41643 0.82315 0.0
C676 C 0.0953 0.42534 0.85303 0.0
C677 C 0.10631 0.45962 0.8674 0.0
C678 C 0.13656 0.4846 0.853 0.0
C679 C 0.14254 0.51966 0.87317 0.0
C680 C 0.1805 0.53051 0.89031 0.0
C681 C 0.13863 0.54813 0.84887 0.0
C682 C 0.11073 0.51071 0.90105 0.0
C683 C 0.09016 0.47593 0.8973 0.0
C684 C 0.05893 0.46183 0.91953 0.0
C685 C 0.04845 0.48376 0.94612 0.0
C686 C 0.06916 0.51945 0.95053 0.0
C687 C 0.10077 0.53294 0.92762 0.0
H688 H 0.68178 0.89956 0.90635 0.0
H689 H 0.58709 0.80715 0.89888 0.0
H690 H 0.54472 0.84296 0.91886 0.0
H691 H 0.64873 0.93486 0.98627 0.0
H692 H 0.66738 0.97993 0.97402 0.0
H693 H 0.68948 0.94746 0.95665 0.0
H694 H 0.68266 0.96452 0.89264 0.0
H695 H 0.6602 0.99685 0.90986 0.0
H696 H 0.63724 0.9632 0.87839 0.0
H697 H 0.51305 0.88892 0.93989 0.0
H698 H 0.49478 0.93957 0.96742 0.0
H699 H 0.61077 1.00139 0.96412 0.0
C700 C 0.65206 0.88704 0.90868 0.0
C701 C 0.63745 0.85079 0.90087 0.0
C702 C 0.59861 0.83496 0.90479 0.0
C703 C 0.57443 0.85511 0.91585 0.0
C704 C 0.58969 0.89091 0.9232 0.0
C705 C 0.62766 0.90664 0.92025 0.0
C706 C 0.63719 0.94498 0.9322 0.0
C707 C 0.66216 0.95221 0.96419 0.0
C708 C 0.6554 0.96879 0.90143 0.0
C709 C 0.59868 0.94835 0.94259 0.0
C710 C 0.57161 0.91704 0.93661 0.0
C711 C 0.534 0.91358 0.94464 0.0
C712 C 0.52389 0.94259 0.9601 0.0
C713 C 0.55134 0.97448 0.96787 0.0
C714 C 0.58913 0.97744 0.95837 0.0
H715 H 0.91673 0.22766 0.52285 0.0
H716 H 0.90837 0.1942 0.41164 0.0
H717 H 0.92882 0.14267 0.4239 0.0
H718 H 1.00055 0.1993 0.53578 0.0
H719 H 0.98544 0.18586 0.58034 0.0
H720 H 0.97171 0.22117 0.56245 0.0
H721 H 0.90238 0.18808 0.57671 0.0
H722 H 0.91591 0.15244 0.59406 0.0
H723 H 0.88368 0.14399 0.55896 0.0
H724 H 0.9455 0.0925 0.44854 0.0
H725 H 0.96482 0.05026 0.4834 0.0
H726 H 0.96497 0.11704 0.57794 0.0
C727 C 0.91977 0.20971 0.50107 0.0
C728 C 0.91084 0.21489 0.46643 0.0
C729 C 0.91504 0.19087 0.43848 0.0
C730 C 0.92654 0.16138 0.44514 0.0
C731 C 0.9342 0.15653 0.47974 0.0
C732 C 0.93172 0.18031 0.50716 0.0
C733 C 0.94182 0.16884 0.54187 0.0
C734 C 0.97697 0.19537 0.55593 0.0
C735 C 0.90898 0.16299 0.56952 0.0
C736 C 0.94942 0.13454 0.52975 0.0
C737 C 0.9448 0.12791 0.49383 0.0
C738 C 0.94962 0.09754 0.47663 0.0
C739 C 0.9604 0.07369 0.49659 0.0
C740 C 0.96662 0.08068 0.5331 0.0
C741 C 0.96042 0.11115 0.54998 0.0
H742 H 0.27266 0.72356 0.15477 0.0
H743 H 0.31823 0.63614 0.16687 0.0
H744 H 0.26447 0.59638 0.13799 0.0
H745 H 0.17549 0.6753 0.17003 0.0
H746 H 0.15819 0.69692 0.13697 0.0
H747 H 0.20048 0.71949 0.15845 0.0
H748 H 0.23584 0.7304 0.09734 0.0
H749 H 0.19361 0.70793 0.07569 0.0
H750 H 0.23497 0.69371 0.06696 0.0
H751 H 0.20416 0.56421 0.10909 0.0
H752 H 0.14397 0.54326 0.08071 0.0
H753 H 0.13521 0.64989 0.08365 0.0
C754 C 0.27161 0.69613 0.15112 0.0
C755 C 0.30033 0.68348 0.16421 0.0
C756 C 0.2969 0.64705 0.15845 0.0
C757 C 0.26627 0.62398 0.14163 0.0
C758 C 0.23841 0.63705 0.12984 0.0
C759 C 0.2408 0.67235 0.13405 0.0
C760 C 0.20658 0.67916 0.11867 0.0
C761 C 0.18384 0.69358 0.14777 0.0
C762 C 0.21846 0.7043 0.08783 0.0
C763 C 0.18473 0.6423 0.1054 0.0
C764 C 0.20378 0.61849 0.11232 0.0
C765 C 0.18924 0.5828 0.10344 0.0
C766 C 0.15467 0.57104 0.0872 0.0
C767 C 0.13413 0.59454 0.07935 0.0
C768 C 0.14987 0.63092 0.08872 0.0
H769 H 0.28439 0.38402 0.63954 0.0
H770 H 0.25297 0.47455 0.68573 0.0
H771 H 0.31051 0.51357 0.65913 0.0
H772 H 0.38338 0.41773 0.64658 0.0
H773 H 0.39411 0.3991 0.60414 0.0
H774 H 0.35181 0.37808 0.62906 0.0
H775 H 0.31317 0.3812 0.57538 0.0
H776 H 0.35534 0.40216 0.55028 0.0
H777 H 0.31839 0.42298 0.55615 0.0
H778 H 0.37218 0.54326 0.62669 0.0
H779 H 0.43021 0.56042 0.58854 0.0
H780 H 0.41794 0.45109 0.55944 0.0
C781 C 0.28915 0.41201 0.64398 0.0
C782 C 0.26373 0.42583 0.66524 0.0
C783 C 0.27204 0.46286 0.67047 0.0
C784 C 0.30465 0.48541 0.65515 0.0
C785 C 0.32871 0.4708 0.63417 0.0
C786 C 0.32114 0.43494 0.62833 0.0
C787 C 0.35056 0.42586 0.60337 0.0
C788 C 0.37118 0.4039 0.62191 0.0
C789 C 0.33333 0.40694 0.56927 0.0
C790 C 0.37585 0.46221 0.59597 0.0
C791 C 0.36308 0.48782 0.61434 0.0
C792 C 0.38234 0.52338 0.61218 0.0
C793 C 0.41535 0.53293 0.59064 0.0
C794 C 0.42843 0.5071 0.57122 0.0
C795 C 0.40832 0.47136 0.57389 0.0
H796 H 0.75453 0.74747 0.93698 0.0
H797 H 0.69415 0.6529 0.88009 0.0
H798 H 0.74105 0.62352 0.89503 0.0
H799 H 0.844 0.74264 0.90659 0.0
H800 H 0.86608 0.75976 0.94737 0.0
H801 H 0.82583 0.77202 0.93548 0.0
H802 H 0.79195 0.74994 0.99532 0.0
H803 H 0.83219 0.73773 1.00748 0.0
H804 H 0.78723 0.70558 1.00747 0.0
H805 H 0.79546 0.60521 0.91483 0.0
H806 H 0.85446 0.59981 0.93589 0.0
H807 H 0.88173 0.7082 0.97561 0.0
C808 C 0.75076 0.72032 0.92839 0.0
C809 C 0.72043 0.70207 0.90798 0.0
C810 C 0.71704 0.66703 0.89615 0.0
C811 C 0.74348 0.6502 0.90449 0.0
C812 C 0.77338 0.66902 0.92429 0.0
C813 C 0.77727 0.70337 0.93593 0.0
C814 C 0.81335 0.71855 0.9545 0.0
C815 C 0.83881 0.7501 0.9348 0.0
C816 C 0.80571 0.72853 0.99351 0.0
C817 C 0.82918 0.68742 0.95142 0.0
C818 C 0.80556 0.65902 0.93423 0.0
C819 C 0.81427 0.62735 0.92819 0.0
C820 C 0.84809 0.62466 0.93998 0.0
C821 C 0.8731 0.65363 0.95726 0.0
C822 C 0.86322 0.68536 0.96297 0.0
H823 H 0.3954 0.79391 0.12605 0.0
H824 H 0.41697 0.81984 0.23721 0.0
H825 H 0.4474 0.88126 0.22237 0.0
H826 H 0.48281 0.85259 0.09057 0.0
H827 H 0.46242 0.86519 0.05323 0.0
H828 H 0.442 0.82282 0.07196 0.0
H829 H 0.37871 0.83663 0.08105 0.0
H830 H 0.39897 0.87907 0.0624 0.0
H831 H 0.37606 0.87584 0.10595 0.0
H832 H 0.47508 0.94148 0.19621 0.0
H833 H 0.49994 0.99418 0.16119 0.0
H834 H 0.46315 0.93294 0.06499 0.0
C835 C 0.40632 0.8124 0.14747 0.0
C836 C 0.40338 0.80079 0.18327 0.0
C837 C 0.41886 0.82676 0.2097 0.0
C838 C 0.43616 0.86223 0.20147 0.0
C839 C 0.43849 0.87253 0.16632 0.0
C840 C 0.42418 0.84835 0.13958 0.0
C841 C 0.43112 0.86676 0.10385 0.0
C842 C 0.45606 0.85089 0.07839 0.0
C843 C 0.394 0.86443 0.08732 0.0
C844 C 0.45136 0.90498 0.11468 0.0
C845 C 0.45502 0.90742 0.15102 0.0
C846 C 0.47234 0.93957 0.16778 0.0
C847 C 0.48651 0.96972 0.14737 0.0
C848 C 0.48401 0.96868 0.10989 0.0
C849 C 0.46576 0.93534 0.09345 0.0
H850 H 0.15094 0.27931 0.69905 0.0
H851 H 0.16095 0.34252 0.60684 0.0
H852 H 0.13578 0.28896 0.56992 0.0
H853 H 0.17875 0.20899 0.65428 0.0
H854 H 0.14644 0.17451 0.67871 0.0
H855 H 0.16302 0.21779 0.69893 0.0
H856 H 0.0951 0.22033 0.71119 0.0
H857 H 0.0783 0.1769 0.69129 0.0
H858 H 0.06421 0.21276 0.67504 0.0
H859 H 0.11224 0.2292 0.54224 0.0
H860 H 0.08986 0.16655 0.52533 0.0
H861 H 0.09468 0.13991 0.63469 0.0
C862 C 0.1472 0.2818 0.67122 0.0
C863 C 0.15798 0.31519 0.65581 0.0
C864 C 0.15316 0.3173 0.61917 0.0
C865 C 0.13881 0.28701 0.59798 0.0
C866 C 0.12928 0.25452 0.61368 0.0
C867 C 0.13302 0.25158 0.64947 0.0
C868 C 0.12156 0.21315 0.65915 0.0
C869 C 0.15441 0.20302 0.67362 0.0
C870 C 0.08778 0.20533 0.68574 0.0
C871 C 0.11121 0.19509 0.62318 0.0
C872 C 0.11581 0.21962 0.59746 0.0
C873 C 0.10844 0.20974 0.56216 0.0
C874 C 0.09579 0.1739 0.55281 0.0
C875 C 0.09057 0.14796 0.57854 0.0
C876 C 0.09852 0.15891 0.61428 0.0
H877 H 0.72355 0.26596 0.45225 0.0
H878 H 0.83095 0.34411 0.44192 0.0
H879 H 0.80182 0.39022 0.4634 0.0
H880 H 0.6731 0.3149 0.41754 0.0
H881 H 0.63205 0.29996 0.44636 0.0
H882 H 0.66222 0.27237 0.43672 0.0
H883 H 0.66985 0.26843 0.50397 0.0
H884 H 0.63951 0.29601 0.51386 0.0
H885 H 0.68553 0.30816 0.53083 0.0
H886 H 0.75994 0.42859 0.47703 0.0
H887 H 0.70849 0.45624 0.48269 0.0
H888 H 0.62823 0.35329 0.48308 0.0
C889 C 0.74107 0.2927 0.45509 0.0
C890 C 0.77955 0.30143 0.44548 0.0
C891 C 0.80154 0.3367 0.44966 0.0
C892 C 0.78521 0.36309 0.46176 0.0
C893 C 0.74697 0.35371 0.46989 0.0
C894 C 0.72522 0.3193 0.46702 0.0
C895 C 0.68431 0.31655 0.47405 0.0
C896 C 0.66161 0.29999 0.44174 0.0
C897 C 0.6689 0.29608 0.50769 0.0
C898 C 0.68626 0.35496 0.47969 0.0
C899 C 0.7227 0.37593 0.47776 0.0
C900 C 0.73136 0.41243 0.47924 0.0
C901 C 0.702 0.42788 0.48222 0.0
C902 C 0.66449 0.40684 0.4835 0.0
C903 C 0.65666 0.36996 0.48297 0.0
loop_
_geom_bond_atom_site_label_1
_geom_bond_atom_site_label_2
_geom_bond_distance
_geom_bond_site_symmetry_2
_ccdc_geom_bond_type
H0 C5 0.930 . S
H1 C8 0.930 . S
H2 C10 0.930 . S
H3 C4 1.016 . S
C4 H3 1.016 . S
C4 N11 1.286 . S
C5 H0 0.930 . S
C5 C6 1.397 . S
C5 C7 1.361 . S
C6 C5 1.397 . S
C6 C10 1.390 . S
C7 C5 1.361 . S
C7 C8 1.393 . S
C7 N11 1.413 . S
C8 H1 0.930 . S
C8 C7 1.393 . S
C8 C9 1.399 . S
C9 C8 1.399 . S
C9 C10 1.381 . S
C10 H2 0.930 . S
C10 C6 1.390 . S
C10 C9 1.381 . S
N11 C4 1.286 . S
N11 C7 1.413 . S
H12 C17 0.930 . S
H13 C20 0.930 . S
H14 C22 0.930 . S
H15 C16 1.016 . S
C16 H15 1.016 . S
C16 N23 1.286 . S
C17 H12 0.930 . S
C17 C18 1.397 . S
C17 C19 1.361 . S
C18 C17 1.397 . S
C18 C22 1.390 . S
C19 C17 1.361 . S
C19 C20 1.393 . S
C19 N23 1.413 . S
C20 H13 0.930 . S
C20 C19 1.393 . S
C20 C21 1.399 . S
C21 C20 1.399 . S
C21 C22 1.381 . S
C22 H14 0.930 . S
C22 C18 1.390 . S
C22 C21 1.381 . S
N23 C16 1.286 . S
N23 C19 1.413 . S
H24 C29 0.930 . S
H25 C32 0.930 . S
H26 C34 0.930 . S
H27 C28 1.016 . S
C28 H27 1.016 . S
C28 N35 1.286 . S
C29 H24 0.930 . S
C29 C30 1.397 . S
C29 C31 1.361 . S
C30 C29 1.397 . S
C30 C34 1.390 . S
C31 C29 1.361 . S
C31 C32 1.393 . S
C31 N35 1.413 . S
C32 H25 0.930 . S
C32 C31 1.393 . S
C32 C33 1.399 . S
C33 C32 1.399 . S
C33 C34 1.381 . S
C34 H26 0.930 . S
C34 C30 1.390 . S
C34 C33 1.381 . S
N35 C28 1.286 . S
N35 C31 1.413 . S
H36 C41 0.930 . S
H37 C44 0.930 . S
H38 C46 0.930 . S
H39 C40 1.016 . S
C40 H39 1.016 . S
C40 N47 1.286 . S
C41 H36 0.930 . S
C41 C42 1.397 . S
C41 C43 1.361 . S
C42 C41 1.397 . S
C42 C46 1.390 . S
C43 C41 1.361 . S
C43 C44 1.393 . S
C43 N47 1.413 . S
C44 H37 0.930 . S
C44 C43 1.393 . S
C44 C45 1.399 . S
C45 C44 1.399 . S
C45 C46 1.381 . S
C46 H38 0.930 . S
C46 C42 1.390 . S
C46 C45 1.381 . S
N47 C40 1.286 . S
N47 C43 1.413 . S
H48 C53 0.930 . S
H49 C56 0.930 . S
H50 C58 0.930 . S
H51 C52 1.016 . S
C52 H51 1.016 . S
C52 N59 1.286 . S
C53 H48 0.930 . S
C53 C54 1.397 . S
C53 C55 1.361 . S
C54 C53 1.397 . S
C54 C58 1.390 . S
C55 C53 1.361 . S
C55 C56 1.393 . S
C55 N59 1.413 . S
C56 H49 0.930 . S
C56 C55 1.393 . S
C56 C57 1.399 . S
C57 C56 1.399 . S
C57 C58 1.381 . S
C58 H50 0.930 . S
C58 C54 1.390 . S
C58 C57 1.381 . S
N59 C52 1.286 . S
N59 C55 1.413 . S
H60 C65 0.930 . S
H61 C68 0.930 . S
H62 C70 0.930 . S
H63 C64 1.016 . S
C64 H63 1.016 . S
C64 N71 1.286 . S
C65 H60 0.930 . S
C65 C66 1.397 . S
C65 C67 1.361 . S
C66 C65 1.397 . S
C66 C70 1.390 . S
C67 C65 1.361 . S
C67 C68 1.393 . S
C67 N71 1.413 . S
C68 H61 0.930 . S
C68 C67 1.393 . S
C68 C69 1.399 . S
C69 C68 1.399 . S
C69 C70 1.381 . S
C70 H62 0.930 . S
C70 C66 1.390 . S
C70 C69 1.381 . S
N71 C64 1.286 . S
N71 C67 1.413 . S
H72 C77 0.930 . S
H73 C80 0.930 . S
H74 C82 0.930 . S
H75 C76 1.016 . S
C76 H75 1.016 . S
C76 N83 1.286 . S
C77 H72 0.930 . S
C77 C78 1.397 . S
C77 C79 1.361 . S
C78 C77 1.397 . S
C78 C82 1.390 . S
C79 C77 1.361 . S
C79 C80 1.393 . S
C79 N83 1.413 . S
C80 H73 0.930 . S
C80 C79 1.393 . S
C80 C81 1.399 . S
C81 C80 1.399 . S
C81 C82 1.381 . S
C82 H74 0.930 . S
C82 C78 1.390 . S
C82 C81 1.381 . S
N83 C76 1.286 . S
N83 C79 1.413 . S
H84 C89 0.930 . S
H85 C92 0.930 . S
H86 C94 0.930 . S
H87 C88 1.016 . S
C88 H87 1.016 . S
C88 N95 1.286 . S
C89 H84 0.930 . S
C89 C90 1.397 . S
C89 C91 1.361 . S
C90 C89 1.397 . S
C90 C94 1.390 . S
C91 C89 1.361 . S
C91 C92 1.393 . S
C91 N95 1.413 . S
C92 H85 0.930 . S
C92 C91 1.393 . S
C92 C93 1.399 . S
C93 C92 1.399 . S
C93 C94 1.381 . S
C94 H86 0.930 . S
C94 C90 1.390 . S
C94 C93 1.381 . S
N95 C88 1.286 . S
N95 C91 1.413 . S
La96 C98 2.928 . S
La96 O116 2.521 . S
La96 O117 2.628 . S
La96 O118 2.554 1_545 S
La96 O119 2.757 1_545 S
La96 O120 2.470 . S
La96 O125 2.482 1_455 S
La96 O127 2.503 1_445 S
La97 C107 2.942 . S
La97 O119 2.491 1_655 S
La97 O121 2.489 1_665 S
La97 O122 2.528 . S
La97 O123 2.646 . S
La97 O124 2.541 1_565 S
La97 O125 2.746 1_565 S
La97 O126 2.480 . S
C98 La96 2.928 . S
C98 C99 1.503 . S
C98 O116 1.261 . S
C98 O117 1.243 . S
C99 C98 1.503 . S
C99 C100 1.394 . S
C99 C104 1.373 . S
C100 C99 1.394 . S
C100 C101 1.380 . S
C100 H128 0.930 . S
C101 C100 1.380 . S
C101 C102 1.376 . S
C101 H129 0.930 . S
C102 C101 1.376 . S
C102 C103 1.370 . S
C103 C102 1.370 . S
C103 C104 1.396 . S
C103 H130 0.929 . S
C104 C99 1.373 . S
C104 C103 1.396 . S
C104 H131 0.929 . S
C105 O118 1.240 . S
C105 O119 1.289 . S
C106 O120 1.258 . S
C106 O121 1.256 . S
C107 La97 2.942 . S
C107 C108 1.503 . S
C107 O122 1.261 . S
C107 O123 1.243 . S
C108 C107 1.503 . S
C108 C109 1.394 . S
C108 C113 1.373 . S
C109 C108 1.394 . S
C109 C110 1.380 . S
C109 H132 0.930 . S
C110 C109 1.380 . S
C110 C111 1.376 . S
C110 H133 0.930 . S
C111 C110 1.376 . S
C111 C112 1.370 . S
C112 C111 1.370 . S
C112 C113 1.396 . S
C112 H134 0.929 . S
C113 C108 1.373 . S
C113 C112 1.396 . S
C113 H135 0.929 . S
C114 O124 1.240 . S
C114 O125 1.289 . S
C115 O126 1.258 . S
C115 O127 1.256 . S
O116 La96 2.521 . S
O116 C98 1.261 . S
O117 La96 2.628 . S
O117 C98 1.243 . S
O118 La96 2.554 1_565 S
O118 C105 1.240 . S
O119 La96 2.757 1_565 S
O119 La97 2.491 1_455 S
O119 C105 1.289 . S
O120 La96 2.470 . S
O120 C106 1.258 . S
O121 La97 2.489 1_445 S
O121 C106 1.256 . S
O122 La97 2.528 . S
O122 C107 1.261 . S
O123 La97 2.646 . S
O123 C107 1.243 . S
O124 La97 2.541 1_545 S
O124 C114 1.240 . S
O125 La96 2.482 1_655 S
O125 La97 2.746 1_545 S
O125 C114 1.289 . S
O126 La97 2.480 . S
O126 C115 1.258 . S
O127 La96 2.503 1_665 S
O127 C115 1.256 . S
H128 C100 0.930 . S
H129 C101 0.930 . S
H130 C103 0.929 . S
H131 C104 0.929 . S
H132 C109 0.930 . S
H133 C110 0.930 . S
H134 C112 0.929 . S
H135 C113 0.929 . S
La136 C138 2.928 . S
La136 O156 2.521 . S
La136 O157 2.628 . S
La136 O158 2.554 1_545 S
La136 O159 2.757 1_545 S
La136 O160 2.470 . S
La136 O165 2.481 . S
La136 O167 2.503 1_544 S
La137 C147 2.928 1_545 S
La137 O159 2.482 1_546 S
La137 O161 2.503 1_556 S
La137 O162 2.521 1_545 S
La137 O163 2.628 1_545 S
La137 O164 2.554 . S
La137 O165 2.757 1_556 S
La137 O166 2.470 1_545 S
C138 La136 2.928 . S
C138 C139 1.503 . S
C138 O156 1.261 . S
C138 O157 1.243 . S
C139 C138 1.503 . S
C139 C140 1.394 . S
C139 C144 1.373 . S
C140 C139 1.394 . S
C140 C141 1.380 . S
C140 H168 0.930 . S
C141 C140 1.380 . S
C141 C142 1.376 . S
C141 H169 0.930 . S
C142 C141 1.376 . S
C142 C143 1.370 . S
C143 C142 1.370 . S
C143 C144 1.396 . S
C143 H170 0.929 . S
C144 C139 1.373 . S
C144 C143 1.396 . S
C144 H171 0.929 . S
C145 O158 1.240 . S
C145 O159 1.289 . S
C146 O160 1.258 . S
C146 O161 1.256 . S
C147 La137 2.928 1_565 S
C147 C148 1.503 . S
C147 O162 1.261 . S
C147 O163 1.243 . S
C148 C147 1.503 . S
C148 C149 1.394 . S
C148 C153 1.373 . S
C149 C148 1.394 . S
C149 C150 1.380 . S
C149 H172 0.930 . S
C150 C149 1.380 . S
C150 C151 1.376 . S
C150 H173 0.930 . S
C151 C150 1.376 . S
C151 C152 1.370 . S
C152 C151 1.370 . S
C152 C153 1.396 . S
C152 H174 0.929 . S
C153 C148 1.373 . S
C153 C152 1.396 . S
C153 H175 0.929 . S
C154 O164 1.240 . S
C154 O165 1.291 1_556 S
C155 O166 1.258 . S
C155 O167 1.256 . S
O156 La136 2.521 . S
O156 C138 1.261 . S
O157 La136 2.628 . S
O157 C138 1.243 . S
O158 La136 2.554 1_565 S
O158 C145 1.240 . S
O159 La136 2.757 1_565 S
O159 La137 2.482 1_564 S
O159 C145 1.289 . S
O160 La136 2.470 . S
O160 C146 1.258 . S
O161 La137 2.503 1_554 S
O161 C146 1.256 . S
O162 La137 2.521 1_565 S
O162 C147 1.261 . S
O163 La137 2.628 1_565 S
O163 C147 1.243 . S
O164 La137 2.554 . S
O164 C154 1.240 . S
O165 La136 2.481 . S
O165 La137 2.757 1_554 S
O165 C154 1.291 1_554 S
O166 La137 2.470 1_565 S
O166 C155 1.258 . S
O167 La136 2.503 1_566 S
O167 C155 1.256 . S
H168 C140 0.930 . S
H169 C141 0.930 . S
H170 C143 0.929 . S
H171 C144 0.929 . S
H172 C149 0.930 . S
H173 C150 0.930 . S
H174 C152 0.929 . S
H175 C153 0.929 . S
La176 C178 2.928 . S
La176 O196 2.521 . S
La176 O197 2.628 . S
La176 O198 2.554 . S
La176 O199 2.757 . S
La176 O200 2.470 . S
La176 O205 2.482 . S
La176 O207 2.503 . S
La177 C187 2.928 . S
La177 O199 2.482 . S
La177 O201 2.503 . S
La177 O202 2.521 . S
La177 O203 2.628 . S
La177 O204 2.554 . S
La177 O205 2.757 . S
La177 O206 2.470 . S
C178 La176 2.928 . S
C178 C179 1.503 . S
C178 O196 1.261 . S
C178 O197 1.243 . S
C179 C178 1.503 . S
C179 C180 1.394 . S
C179 C184 1.373 . S
C180 C179 1.394 . S
C180 C181 1.380 . S
C180 H208 0.930 . S
C181 C180 1.380 . S
C181 C182 1.376 . S
C181 H209 0.930 . S
C182 C181 1.376 . S
C182 C183 1.370 . S
C183 C182 1.370 . S
C183 C184 1.396 . S
C183 H210 0.929 . S
C184 C179 1.373 . S
C184 C183 1.396 . S
C184 H211 0.929 . S
C185 O198 1.240 . S
C185 O199 1.289 . S
C186 O200 1.258 . S
C186 O201 1.256 . S
C187 La177 2.928 . S
C187 C188 1.503 . S
C187 O202 1.261 . S
C187 O203 1.243 . S
C188 C187 1.503 . S
C188 C189 1.394 . S
C188 C193 1.373 . S
C189 C188 1.394 . S
C189 C190 1.380 . S
C189 H212 0.930 . S
C190 C189 1.380 . S
C190 C191 1.376 . S
C190 H213 0.930 . S
C191 C190 1.376 . S
C191 C192 1.370 . S
C192 C191 1.370 . S
C192 C193 1.396 . S
C192 H214 0.929 . S
C193 C188 1.373 . S
C193 C192 1.396 . S
C193 H215 0.929 . S
C194 O204 1.240 . S
C194 O205 1.289 . S
C195 O206 1.258 . S
C195 O207 1.256 . S
O196 La176 2.521 . S
O196 C178 1.261 . S
O197 La176 2.628 . S
O197 C178 1.243 . S
O198 La176 2.554 . S
O198 C185 1.240 . S
O199 La176 2.757 . S
O199 La177 2.482 . S
O199 C185 1.289 . S
O200 La176 2.470 . S
O200 C186 1.258 . S
O201 La177 2.503 . S
O201 C186 1.256 . S
O202 La177 2.521 . S
O202 C187 1.261 . S
O203 La177 2.628 . S
O203 C187 1.243 . S
O204 La177 2.554 . S
O204 C194 1.240 . S
O205 La176 2.482 . S
O205 La177 2.757 . S
O205 C194 1.289 . S
O206 La177 2.470 . S
O206 C195 1.258 . S
O207 La176 2.503 . S
O207 C195 1.256 . S
H208 C180 0.930 . S
H209 C181 0.930 . S
H210 C183 0.929 . S
H211 C184 0.929 . S
H212 C189 0.930 . S
H213 C190 0.930 . S
H214 C192 0.929 . S
H215 C193 0.929 . S
La216 C218 2.928 . S
La216 O236 2.521 . S
La216 O237 2.628 . S
La216 O238 2.554 1_455 S
La216 O239 2.757 1_455 S
La216 O240 2.470 . S
La216 O245 2.482 1_554 S
La216 O247 2.503 1_454 S
La217 C227 2.928 1_455 S
La217 O239 2.482 1_456 S
La217 O241 2.503 1_556 S
La217 O242 2.521 1_455 S
La217 O243 2.628 1_455 S
La217 O244 2.554 . S
La217 O245 2.757 . S
La217 O246 2.470 1_455 S
C218 La216 2.928 . S
C218 C219 1.503 . S
C218 O236 1.261 . S
C218 O237 1.243 . S
C219 C218 1.503 . S
C219 C220 1.394 . S
C219 C224 1.373 . S
C220 C219 1.394 . S
C220 C221 1.380 . S
C220 H248 0.930 . S
C221 C220 1.380 . S
C221 C222 1.376 . S
C221 H249 0.930 . S
C222 C221 1.376 . S
C222 C223 1.370 . S
C223 C222 1.370 . S
C223 C224 1.396 . S
C223 H250 0.929 . S
C224 C219 1.373 . S
C224 C223 1.396 . S
C224 H251 0.929 . S
C225 O238 1.240 . S
C225 O239 1.289 . S
C226 O240 1.258 . S
C226 O241 1.256 . S
C227 La217 2.928 1_655 S
C227 C228 1.503 . S
C227 O242 1.261 . S
C227 O243 1.243 . S
C228 C227 1.503 . S
C228 C229 1.394 . S
C228 C233 1.373 . S
C229 C228 1.394 . S
C229 C230 1.380 . S
C229 H252 0.930 . S
C230 C229 1.380 . S
C230 C231 1.376 . S
C230 H253 0.930 . S
C231 C230 1.376 . S
C231 C232 1.370 . S
C232 C231 1.370 . S
C232 C233 1.396 . S
C232 H254 0.929 . S
C233 C228 1.373 . S
C233 C232 1.396 . S
C233 H255 0.929 . S
C234 O244 1.240 . S
C234 O245 1.289 . S
C235 O246 1.258 . S
C235 O247 1.256 . S
O236 La216 2.521 . S
O236 C218 1.261 . S
O237 La216 2.628 . S
O237 C218 1.243 . S
O238 La216 2.554 1_655 S
O238 C225 1.240 . S
O239 La216 2.757 1_655 S
O239 La217 2.482 1_654 S
O239 C225 1.289 . S
O240 La216 2.470 . S
O240 C226 1.258 . S
O241 La217 2.503 1_554 S
O241 C226 1.256 . S
O242 La217 2.521 1_655 S
O242 C227 1.261 . S
O243 La217 2.628 1_655 S
O243 C227 1.243 . S
O244 La217 2.554 . S
O244 C234 1.240 . S
O245 La216 2.482 1_556 S
O245 La217 2.757 . S
O245 C234 1.289 . S
O246 La217 2.470 1_655 S
O246 C235 1.258 . S
O247 La216 2.503 1_656 S
O247 C235 1.256 . S
H248 C220 0.930 . S
H249 C221 0.930 . S
H250 C223 0.929 . S
H251 C224 0.929 . S
H252 C229 0.930 . S
H253 C230 0.930 . S
H254 C232 0.929 . S
H255 C233 0.929 . S
H256 C268 0.930 . S
H257 C270 0.930 . S
H258 C271 0.930 . S
H259 C275 0.959 . S
H260 C275 0.959 . S
H261 C275 0.961 . S
H262 C276 0.960 . S
H263 C276 0.961 . S
H264 C276 0.959 . S
H265 C279 0.929 . S
H266 C280 0.931 . S
H267 C282 0.930 . S
C268 H256 0.930 . S
C268 C269 1.399 . S
C268 C273 1.399 . S
C269 C268 1.399 . S
C269 C270 1.376 . S
C270 H257 0.930 . S
C270 C269 1.376 . S
C270 C271 1.388 . S
C271 H258 0.930 . S
C271 C270 1.388 . S
C271 C272 1.390 . S
C272 C271 1.390 . S
C272 C273 1.394 . S
C272 C278 1.465 . S
C273 C268 1.399 . S
C273 C272 1.394 . S
C273 C274 1.516 . S
C274 C273 1.516 . S
C274 C275 1.502 . S
C274 C276 1.561 . S
C274 C277 1.526 . S
C275 H259 0.959 . S
C275 H260 0.959 . S
C275 H261 0.961 . S
C275 C274 1.502 . S
C276 H262 0.960 . S
C276 H263 0.961 . S
C276 H264 0.959 . S
C276 C274 1.561 . S
C277 C274 1.526 . S
C277 C278 1.396 . S
C277 C282 1.390 . S
C278 C272 1.465 . S
C278 C277 1.396 . S
C278 C279 1.399 . S
C279 H265 0.929 . S
C279 C278 1.399 . S
C279 C280 1.385 . S
C280 H266 0.931 . S
C280 C279 1.385 . S
C280 C281 1.389 . S
C281 C280 1.389 . S
C281 C282 1.387 . S
C282 H267 0.930 . S
C282 C277 1.390 . S
C282 C281 1.387 . S
H283 C295 0.930 . S
H284 C297 0.930 . S
H285 C298 0.930 . S
H286 C302 0.959 . S
H287 C302 0.959 . S
H288 C302 0.961 . S
H289 C303 0.960 . S
H290 C303 0.961 . S
H291 C303 0.959 . S
H292 C306 0.929 . S
H293 C307 0.931 . S
H294 C309 0.930 . S
C295 H283 0.930 . S
C295 C296 1.399 . S
C295 C300 1.399 . S
C296 C295 1.399 . S
C296 C297 1.376 . S
C297 H284 0.930 . S
C297 C296 1.376 . S
C297 C298 1.388 . S
C298 H285 0.930 . S
C298 C297 1.388 . S
C298 C299 1.390 . S
C299 C298 1.390 . S
C299 C300 1.394 . S
C299 C305 1.465 . S
C300 C295 1.399 . S
C300 C299 1.394 . S
C300 C301 1.516 . S
C301 C300 1.516 . S
C301 C302 1.502 . S
C301 C303 1.561 . S
C301 C304 1.526 . S
C302 H286 0.959 . S
C302 H287 0.959 . S
C302 H288 0.961 . S
C302 C301 1.502 . S
C303 H289 0.960 . S
C303 H290 0.961 . S
C303 H291 0.959 . S
C303 C301 1.561 . S
C304 C301 1.526 . S
C304 C305 1.396 . S
C304 C309 1.390 . S
C305 C299 1.465 . S
C305 C304 1.396 . S
C305 C306 1.399 . S
C306 H292 0.929 . S
C306 C305 1.399 . S
C306 C307 1.385 . S
C307 H293 0.931 . S
C307 C306 1.385 . S
C307 C308 1.389 . S
C308 C307 1.389 . S
C308 C309 1.387 . S
C309 H294 0.930 . S
C309 C304 1.390 . S
C309 C308 1.387 . S
H310 C322 0.930 . S
H311 C324 0.930 . S
H312 C325 0.930 . S
H313 C329 0.959 . S
H314 C329 0.959 . S
H315 C329 0.961 . S
H316 C330 0.960 . S
H317 C330 0.961 . S
H318 C330 0.959 . S
H319 C333 0.929 . S
H320 C334 0.931 . S
H321 C336 0.930 . S
C322 H310 0.930 . S
C322 C323 1.399 . S
C322 C327 1.399 . S
C323 C322 1.399 . S
C323 C324 1.376 . S
C324 H311 0.930 . S
C324 C323 1.376 . S
C324 C325 1.388 . S
C325 H312 0.930 . S
C325 C324 1.388 . S
C325 C326 1.390 . S
C326 C325 1.390 . S
C326 C327 1.394 . S
C326 C332 1.465 . S
C327 C322 1.399 . S
C327 C326 1.394 . S
C327 C328 1.516 . S
C328 C327 1.516 . S
C328 C329 1.502 . S
C328 C330 1.561 . S
C328 C331 1.526 . S
C329 H313 0.959 . S
C329 H314 0.959 . S
C329 H315 0.961 . S
C329 C328 1.502 . S
C330 H316 0.960 . S
C330 H317 0.961 . S
C330 H318 0.959 . S
C330 C328 1.561 . S
C331 C328 1.526 . S
C331 C332 1.396 . S
C331 C336 1.390 . S
C332 C326 1.465 . S
C332 C331 1.396 . S
C332 C333 1.399 . S
C333 H319 0.929 . S
C333 C332 1.399 . S
C333 C334 1.385 . S
C334 H320 0.931 . S
C334 C333 1.385 . S
C334 C335 1.389 . S
C335 C334 1.389 . S
C335 C336 1.387 . S
C336 H321 0.930 . S
C336 C331 1.390 . S
C336 C335 1.387 . S
H337 C349 0.930 . S
H338 C351 0.930 . S
H339 C352 0.930 . S
H340 C356 0.959 . S
H341 C356 0.959 . S
H342 C356 0.961 . S
H343 C357 0.960 . S
H344 C357 0.961 . S
H345 C357 0.959 . S
H346 C360 0.929 . S
H347 C361 0.931 . S
H348 C363 0.930 . S
C349 H337 0.930 . S
C349 C350 1.399 . S
C349 C354 1.399 . S
C350 C349 1.399 . S
C350 C351 1.376 . S
C351 H338 0.930 . S
C351 C350 1.376 . S
C351 C352 1.388 . S
C352 H339 0.930 . S
C352 C351 1.388 . S
C352 C353 1.390 . S
C353 C352 1.390 . S
C353 C354 1.394 . S
C353 C359 1.465 . S
C354 C349 1.399 . S
C354 C353 1.394 . S
C354 C355 1.516 . S
C355 C354 1.516 . S
C355 C356 1.502 . S
C355 C357 1.561 . S
C355 C358 1.526 . S
C356 H340 0.959 . S
C356 H341 0.959 . S
C356 H342 0.961 . S
C356 C355 1.502 . S
C357 H343 0.960 . S
C357 H344 0.961 . S
C357 H345 0.959 . S
C357 C355 1.561 . S
C358 C355 1.526 . S
C358 C359 1.396 . S
C358 C363 1.390 . S
C359 C353 1.465 . S
C359 C358 1.396 . S
C359 C360 1.399 . S
C360 H346 0.929 . S
C360 C359 1.399 . S
C360 C361 1.385 . S
C361 H347 0.931 . S
C361 C360 1.385 . S
C361 C362 1.389 . S
C362 C361 1.389 . S
C362 C363 1.387 . S
C363 H348 0.930 . S
C363 C358 1.390 . S
C363 C362 1.387 . S
H364 C376 0.930 . S
H365 C378 0.930 . S
H366 C379 0.930 . S
H367 C383 0.959 . S
H368 C383 0.959 . S
H369 C383 0.961 . S
H370 C384 0.960 . S
H371 C384 0.961 . S
H372 C384 0.959 . S
H373 C387 0.929 . S
H374 C388 0.931 . S
H375 C390 0.930 . S
C376 H364 0.930 . S
C376 C377 1.399 . S
C376 C381 1.399 . S
C377 C376 1.399 . S
C377 C378 1.376 . S
C378 H365 0.930 . S
C378 C377 1.376 . S
C378 C379 1.388 . S
C379 H366 0.930 . S
C379 C378 1.388 . S
C379 C380 1.390 . S
C380 C379 1.390 . S
C380 C381 1.394 . S
C380 C386 1.465 . S
C381 C376 1.399 . S
C381 C380 1.394 . S
C381 C382 1.516 . S
C382 C381 1.516 . S
C382 C383 1.502 . S
C382 C384 1.561 . S
C382 C385 1.526 . S
C383 H367 0.959 . S
C383 H368 0.959 . S
C383 H369 0.961 . S
C383 C382 1.502 . S
C384 H370 0.960 . S
C384 H371 0.961 . S
C384 H372 0.959 . S
C384 C382 1.561 . S
C385 C382 1.526 . S
C385 C386 1.396 . S
C385 C390 1.390 . S
C386 C380 1.465 . S
C386 C385 1.396 . S
C386 C387 1.399 . S
C387 H373 0.929 . S
C387 C386 1.399 . S
C387 C388 1.385 . S
C388 H374 0.931 . S
C388 C387 1.385 . S
C388 C389 1.389 . S
C389 C388 1.389 . S
C389 C390 1.387 . S
C390 H375 0.930 . S
C390 C385 1.390 . S
C390 C389 1.387 . S
H391 C403 0.930 . S
H392 C405 0.930 . S
H393 C406 0.930 . S
H394 C410 0.959 . S
H395 C410 0.959 . S
H396 C410 0.961 . S
H397 C411 0.960 . S
H398 C411 0.961 . S
H399 C411 0.959 . S
H400 C414 0.929 . S
H401 C415 0.931 1_545 S
H402 C417 0.930 . S
C403 H391 0.930 . S
C403 C404 1.399 . S
C403 C408 1.399 . S
C404 C403 1.399 . S
C404 C405 1.376 . S
C405 H392 0.930 . S
C405 C404 1.376 . S
C405 C406 1.388 . S
C406 H393 0.930 . S
C406 C405 1.388 . S
C406 C407 1.390 . S
C407 C406 1.390 . S
C407 C408 1.394 . S
C407 C413 1.465 . S
C408 C403 1.399 . S
C408 C407 1.394 . S
C408 C409 1.516 . S
C409 C408 1.516 . S
C409 C410 1.502 . S
C409 C411 1.561 . S
C409 C412 1.526 . S
C410 H394 0.959 . S
C410 H395 0.959 . S
C410 H396 0.961 . S
C410 C409 1.502 . S
C411 H397 0.960 . S
C411 H398 0.961 . S
C411 H399 0.959 . S
C411 C409 1.561 . S
C412 C409 1.526 . S
C412 C413 1.396 . S
C412 C417 1.390 . S
C413 C407 1.465 . S
C413 C412 1.396 . S
C413 C414 1.399 . S
C414 H400 0.929 . S
C414 C413 1.399 . S
C414 C415 1.385 . S
C415 H401 0.931 1_565 S
C415 C414 1.385 . S
C415 C416 1.389 . S
C416 C415 1.389 . S
C416 C417 1.387 . S
C417 H402 0.930 . S
C417 C412 1.390 . S
C417 C416 1.387 . S
H418 C430 0.930 . S
H419 C432 0.930 . S
H420 C433 0.930 . S
H421 C437 0.959 . S
H422 C437 0.959 . S
H423 C437 0.961 . S
H424 C438 0.960 . S
H425 C438 0.961 . S
H426 C438 0.959 . S
H427 C441 0.929 . S
H428 C442 0.931 . S
H429 C444 0.930 . S
C430 H418 0.930 . S
C430 C431 1.399 . S
C430 C435 1.399 . S
C431 C430 1.399 . S
C431 C432 1.376 . S
C432 H419 0.930 . S
C432 C431 1.376 . S
C432 C433 1.388 . S
C433 H420 0.930 . S
C433 C432 1.388 . S
C433 C434 1.390 . S
C434 C433 1.390 . S
C434 C435 1.394 . S
C434 C440 1.465 . S
C435 C430 1.399 . S
C435 C434 1.394 . S
C435 C436 1.516 . S
C436 C435 1.516 . S
C436 C437 1.502 . S
C436 C438 1.561 . S
C436 C439 1.526 . S
C437 H421 0.959 . S
C437 H422 0.959 . S
C437 H423 0.961 . S
C437 C436 1.502 . S
C438 H424 0.960 . S
C438 H425 0.961 . S
C438 H426 0.959 . S
C438 C436 1.561 . S
C439 C436 1.526 . S
C439 C440 1.396 . S
C439 C444 1.390 . S
C440 C434 1.465 . S
C440 C439 1.396 . S
C440 C441 1.399 . S
C441 H427 0.929 . S
C441 C440 1.399 . S
C441 C442 1.385 . S
C442 H428 0.931 . S
C442 C441 1.385 . S
C442 C443 1.389 . S
C443 C442 1.389 . S
C443 C444 1.387 . S
C444 H429 0.930 . S
C444 C439 1.390 . S
C444 C443 1.387 . S
H445 C457 0.930 . S
H446 C459 0.930 . S
H447 C460 0.930 . S
H448 C464 0.959 . S
H449 C464 0.959 . S
H450 C464 0.961 . S
H451 C465 0.960 . S
H452 C465 0.961 . S
H453 C465 0.959 . S
H454 C468 0.929 . S
H455 C469 0.931 . S
H456 C471 0.930 . S
C457 H445 0.930 . S
C457 C458 1.399 . S
C457 C462 1.399 . S
C458 C457 1.399 . S
C458 C459 1.376 . S
C459 H446 0.930 . S
C459 C458 1.376 . S
C459 C460 1.388 . S
C460 H447 0.930 . S
C460 C459 1.388 . S
C460 C461 1.390 . S
C461 C460 1.390 . S
C461 C462 1.394 . S
C461 C467 1.465 . S
C462 C457 1.399 . S
C462 C461 1.394 . S
C462 C463 1.516 . S
C463 C462 1.516 . S
C463 C464 1.502 . S
C463 C465 1.561 . S
C463 C466 1.526 . S
C464 H448 0.959 . S
C464 H449 0.959 . S
C464 H450 0.961 . S
C464 C463 1.502 . S
C465 H451 0.960 . S
C465 H452 0.961 . S
C465 H453 0.959 . S
C465 C463 1.561 . S
C466 C463 1.526 . S
C466 C467 1.396 . S
C466 C471 1.390 . S
C467 C461 1.465 . S
C467 C466 1.396 . S
C467 C468 1.399 . S
C468 H454 0.929 . S
C468 C467 1.399 . S
C468 C469 1.385 . S
C469 H455 0.931 . S
C469 C468 1.385 . S
C469 C470 1.389 . S
C470 C469 1.389 . S
C470 C471 1.387 . S
C471 H456 0.930 . S
C471 C466 1.390 . S
C471 C470 1.387 . S
H472 C484 0.930 . S
H473 C486 0.930 . S
H474 C487 0.930 . S
H475 C491 0.959 . S
H476 C491 0.959 . S
H477 C491 0.961 . S
H478 C492 0.960 . S
H479 C492 0.961 . S
H480 C492 0.959 . S
H481 C495 0.929 . S
H482 C496 0.931 . S
H483 C498 0.930 . S
C484 H472 0.930 . S
C484 C485 1.399 . S
C484 C489 1.399 . S
C485 C484 1.399 . S
C485 C486 1.376 . S
C486 H473 0.930 . S
C486 C485 1.376 . S
C486 C487 1.388 . S
C487 H474 0.930 . S
C487 C486 1.388 . S
C487 C488 1.390 . S
C488 C487 1.390 . S
C488 C489 1.394 . S
C488 C494 1.465 . S
C489 C484 1.399 . S
C489 C488 1.394 . S
C489 C490 1.516 . S
C490 C489 1.516 . S
C490 C491 1.502 . S
C490 C492 1.561 . S
C490 C493 1.526 . S
C491 H475 0.959 . S
C491 H476 0.959 . S
C491 H477 0.961 . S
C491 C490 1.502 . S
C492 H478 0.960 . S
C492 H479 0.961 . S
C492 H480 0.959 . S
C492 C490 1.561 . S
C493 C490 1.526 . S
C493 C494 1.396 . S
C493 C498 1.390 . S
C494 C488 1.465 . S
C494 C493 1.396 . S
C494 C495 1.399 . S
C495 H481 0.929 . S
C495 C494 1.399 . S
C495 C496 1.385 . S
C496 H482 0.931 . S
C496 C495 1.385 . S
C496 C497 1.389 . S
C497 C496 1.389 . S
C497 C498 1.387 . S
C498 H483 0.930 . S
C498 C493 1.390 . S
C498 C497 1.387 . S
H499 C511 0.930 . S
H500 C513 0.930 . S
H501 C514 0.930 . S
H502 C518 0.959 . S
H503 C518 0.959 . S
H504 C518 0.961 . S
H505 C519 0.960 . S
H506 C519 0.961 . S
H507 C519 0.959 . S
H508 C522 0.929 . S
H509 C523 0.931 . S
H510 C525 0.930 . S
C511 H499 0.930 . S
C511 C512 1.399 . S
C511 C516 1.399 . S
C512 C511 1.399 . S
C512 C513 1.376 . S
C513 H500 0.930 . S
C513 C512 1.376 . S
C513 C514 1.388 . S
C514 H501 0.930 . S
C514 C513 1.388 . S
C514 C515 1.390 . S
C515 C514 1.390 . S
C515 C516 1.394 . S
C515 C521 1.465 . S
C516 C511 1.399 . S
C516 C515 1.394 . S
C516 C517 1.516 . S
C517 C516 1.516 . S
C517 C518 1.502 . S
C517 C519 1.561 . S
C517 C520 1.526 . S
C518 H502 0.959 . S
C518 H503 0.959 . S
C518 H504 0.961 . S
C518 C517 1.502 . S
C519 H505 0.960 . S
C519 H506 0.961 . S
C519 H507 0.959 . S
C519 C517 1.561 . S
C520 C517 1.526 . S
C520 C521 1.396 . S
C520 C525 1.390 . S
C521 C515 1.465 . S
C521 C520 1.396 . S
C521 C522 1.399 . S
C522 H508 0.929 . S
C522 C521 1.399 . S
C522 C523 1.385 . S
C523 H509 0.931 . S
C523 C522 1.385 . S
C523 C524 1.389 . S
C524 C523 1.389 . S
C524 C525 1.387 . S
C525 H510 0.930 . S
C525 C520 1.390 . S
C525 C524 1.387 . S
H526 C538 0.930 . S
H527 C540 0.930 . S
H528 C541 0.930 . S
H529 C545 0.959 . S
H530 C545 0.959 . S
H531 C545 0.961 . S
H532 C546 0.960 . S
H533 C546 0.961 . S
H534 C546 0.959 . S
H535 C549 0.929 . S
H536 C550 0.931 . S
H537 C552 0.930 . S
C538 H526 0.930 . S
C538 C539 1.399 . S
C538 C543 1.399 . S
C539 C538 1.399 . S
C539 C540 1.376 . S
C540 H527 0.930 . S
C540 C539 1.376 . S
C540 C541 1.388 . S
C541 H528 0.930 . S
C541 C540 1.388 . S
C541 C542 1.390 . S
C542 C541 1.390 . S
C542 C543 1.394 . S
C542 C548 1.465 . S
C543 C538 1.399 . S
C543 C542 1.394 . S
C543 C544 1.516 . S
C544 C543 1.516 . S
C544 C545 1.502 . S
C544 C546 1.561 . S
C544 C547 1.526 . S
C545 H529 0.959 . S
C545 H530 0.959 . S
C545 H531 0.961 . S
C545 C544 1.502 . S
C546 H532 0.960 . S
C546 H533 0.961 . S
C546 H534 0.959 . S
C546 C544 1.561 . S
C547 C544 1.526 . S
C547 C548 1.396 . S
C547 C552 1.390 . S
C548 C542 1.465 . S
C548 C547 1.396 . S
C548 C549 1.399 . S
C549 H535 0.929 . S
C549 C548 1.399 . S
C549 C550 1.385 . S
C550 H536 0.931 . S
C550 C549 1.385 . S
C550 C551 1.389 . S
C551 C550 1.389 . S
C551 C552 1.387 . S
C552 H537 0.930 . S
C552 C547 1.390 . S
C552 C551 1.387 . S
H553 C565 0.930 . S
H554 C567 0.930 . S
H555 C568 0.930 . S
H556 C572 0.959 . S
H557 C572 0.959 . S
H558 C572 0.961 . S
H559 C573 0.960 . S
H560 C573 0.961 . S
H561 C573 0.959 . S
H562 C576 0.929 . S
H563 C577 0.931 . S
H564 C579 0.930 . S
C565 H553 0.930 . S
C565 C566 1.399 . S
C565 C570 1.399 . S
C566 C565 1.399 . S
C566 C567 1.376 . S
C567 H554 0.930 . S
C567 C566 1.376 . S
C567 C568 1.388 . S
C568 H555 0.930 . S
C568 C567 1.388 . S
C568 C569 1.390 . S
C569 C568 1.390 . S
C569 C570 1.394 . S
C569 C575 1.465 . S
C570 C565 1.399 . S
C570 C569 1.394 . S
C570 C571 1.516 . S
C571 C570 1.516 . S
C571 C572 1.502 . S
C571 C573 1.561 . S
C571 C574 1.526 . S
C572 H556 0.959 . S
C572 H557 0.959 . S
C572 H558 0.961 . S
C572 C571 1.502 . S
C573 H559 0.960 . S
C573 H560 0.961 . S
C573 H561 0.959 . S
C573 C571 1.561 . S
C574 C571 1.526 . S
C574 C575 1.396 . S
C574 C579 1.390 . S
C575 C569 1.465 . S
C575 C574 1.396 . S
C575 C576 1.399 . S
C576 H562 0.929 . S
C576 C575 1.399 . S
C576 C577 1.385 . S
C577 H563 0.931 . S
C577 C576 1.385 . S
C577 C578 1.389 . S
C578 C577 1.389 . S
C578 C579 1.387 . S
C579 H564 0.930 . S
C579 C574 1.390 . S
C579 C578 1.387 . S
H580 C592 0.930 . S
H581 C594 0.930 . S
H582 C595 0.930 . S
H583 C599 0.959 . S
H584 C599 0.959 . S
H585 C599 0.961 . S
H586 C600 0.960 . S
H587 C600 0.961 . S
H588 C600 0.959 . S
H589 C603 0.929 . S
H590 C604 0.931 . S
H591 C606 0.930 . S
C592 H580 0.930 . S
C592 C593 1.399 . S
C592 C597 1.399 . S
C593 C592 1.399 . S
C593 C594 1.376 . S
C594 H581 0.930 . S
C594 C593 1.376 . S
C594 C595 1.388 . S
C595 H582 0.930 . S
C595 C594 1.388 . S
C595 C596 1.390 . S
C596 C595 1.390 . S
C596 C597 1.394 . S
C596 C602 1.465 . S
C597 C592 1.399 . S
C597 C596 1.394 . S
C597 C598 1.516 . S
C598 C597 1.516 . S
C598 C599 1.502 . S
C598 C600 1.561 . S
C598 C601 1.526 . S
C599 H583 0.959 . S
C599 H584 0.959 . S
C599 H585 0.961 . S
C599 C598 1.502 . S
C600 H586 0.960 . S
C600 H587 0.961 . S
C600 H588 0.959 . S
C600 C598 1.561 . S
C601 C598 1.526 . S
C601 C602 1.396 . S
C601 C606 1.390 . S
C602 C596 1.465 . S
C602 C601 1.396 . S
C602 C603 1.399 . S
C603 H589 0.929 . S
C603 C602 1.399 . S
C603 C604 1.385 . S
C604 H590 0.931 . S
C604 C603 1.385 . S
C604 C605 1.389 . S
C605 C604 1.389 . S
C605 C606 1.387 . S
C606 H591 0.930 . S
C606 C601 1.390 . S
C606 C605 1.387 . S
H607 C619 0.930 . S
H608 C621 0.930 . S
H609 C622 0.930 . S
H610 C626 0.959 . S
H611 C626 0.959 . S
H612 C626 0.961 . S
H613 C627 0.960 . S
H614 C627 0.961 . S
H615 C627 0.959 . S
H616 C630 0.929 . S
H617 C631 0.931 . S
H618 C633 0.930 . S
C619 H607 0.930 . S
C619 C620 1.399 . S
C619 C624 1.399 . S
C620 C619 1.399 . S
C620 C621 1.376 . S
C621 H608 0.930 . S
C621 C620 1.376 . S
C621 C622 1.388 . S
C622 H609 0.930 . S
C622 C621 1.388 . S
C622 C623 1.390 . S
C623 C622 1.390 . S
C623 C624 1.394 . S
C623 C629 1.465 . S
C624 C619 1.399 . S
C624 C623 1.394 . S
C624 C625 1.516 . S
C625 C624 1.516 . S
C625 C626 1.502 . S
C625 C627 1.561 . S
C625 C628 1.526 . S
C626 H610 0.959 . S
C626 H611 0.959 . S
C626 H612 0.961 . S
C626 C625 1.502 . S
C627 H613 0.960 . S
C627 H614 0.961 . S
C627 H615 0.959 . S
C627 C625 1.561 . S
C628 C625 1.526 . S
C628 C629 1.396 . S
C628 C633 1.390 . S
C629 C623 1.465 . S
C629 C628 1.396 . S
C629 C630 1.399 . S
C630 H616 0.929 . S
C630 C629 1.399 . S
C630 C631 1.385 . S
C631 H617 0.931 . S
C631 C630 1.385 . S
C631 C632 1.389 . S
C632 C631 1.389 . S
C632 C633 1.387 . S
C633 H618 0.930 . S
C633 C628 1.390 . S
C633 C632 1.387 . S
H634 C646 0.930 . S
H635 C648 0.930 . S
H636 C649 0.930 . S
H637 C653 0.959 . S
H638 C653 0.959 . S
H639 C653 0.961 . S
H640 C654 0.960 . S
H641 C654 0.961 . S
H642 C654 0.959 . S
H643 C657 0.929 . S
H644 C658 0.931 . S
H645 C660 0.930 . S
C646 H634 0.930 . S
C646 C647 1.399 . S
C646 C651 1.399 . S
C647 C646 1.399 . S
C647 C648 1.376 . S
C648 H635 0.930 . S
C648 C647 1.376 . S
C648 C649 1.388 . S
C649 H636 0.930 . S
C649 C648 1.388 . S
C649 C650 1.390 . S
C650 C649 1.390 . S
C650 C651 1.394 . S
C650 C656 1.465 . S
C651 C646 1.399 . S
C651 C650 1.394 . S
C651 C652 1.516 . S
C652 C651 1.516 . S
C652 C653 1.502 . S
C652 C654 1.561 . S
C652 C655 1.526 . S
C653 H637 0.959 . S
C653 H638 0.959 . S
C653 H639 0.961 . S
C653 C652 1.502 . S
C654 H640 0.960 . S
C654 H641 0.961 . S
C654 H642 0.959 . S
C654 C652 1.561 . S
C655 C652 1.526 . S
C655 C656 1.396 . S
C655 C660 1.390 . S
C656 C650 1.465 . S
C656 C655 1.396 . S
C656 C657 1.399 . S
C657 H643 0.929 . S
C657 C656 1.399 . S
C657 C658 1.385 . S
C658 H644 0.931 . S
C658 C657 1.385 . S
C658 C659 1.389 . S
C659 C658 1.389 . S
C659 C660 1.387 . S
C660 H645 0.930 . S
C660 C655 1.390 . S
C660 C659 1.387 . S
H661 C673 0.930 . S
H662 C675 0.930 . S
H663 C676 0.930 . S
H664 C680 0.959 . S
H665 C680 0.959 . S
H666 C680 0.961 . S
H667 C681 0.960 . S
H668 C681 0.961 . S
H669 C681 0.959 . S
H670 C684 0.929 . S
H671 C685 0.931 . S
H672 C687 0.930 . S
C673 H661 0.930 . S
C673 C674 1.399 . S
C673 C678 1.399 . S
C674 C673 1.399 . S
C674 C675 1.376 . S
C675 H662 0.930 . S
C675 C674 1.376 . S
C675 C676 1.388 . S
C676 H663 0.930 . S
C676 C675 1.388 . S
C676 C677 1.390 . S
C677 C676 1.390 . S
C677 C678 1.394 . S
C677 C683 1.465 . S
C678 C673 1.399 . S
C678 C677 1.394 . S
C678 C679 1.516 . S
C679 C678 1.516 . S
C679 C680 1.502 . S
C679 C681 1.561 . S
C679 C682 1.526 . S
C680 H664 0.959 . S
C680 H665 0.959 . S
C680 H666 0.961 . S
C680 C679 1.502 . S
C681 H667 0.960 . S
C681 H668 0.961 . S
C681 H669 0.959 . S
C681 C679 1.561 . S
C682 C679 1.526 . S
C682 C683 1.396 . S
C682 C687 1.390 . S
C683 C677 1.465 . S
C683 C682 1.396 . S
C683 C684 1.399 . S
C684 H670 0.929 . S
C684 C683 1.399 . S
C684 C685 1.385 . S
C685 H671 0.931 . S
C685 C684 1.385 . S
C685 C686 1.389 . S
C686 C685 1.389 . S
C686 C687 1.387 . S
C687 H672 0.930 . S
C687 C682 1.390 . S
C687 C686 1.387 . S
H688 C700 0.930 . S
H689 C702 0.930 . S
H690 C703 0.930 . S
H691 C707 0.959 . S
H692 C707 0.959 . S
H693 C707 0.961 . S
H694 C708 0.960 . S
H695 C708 0.961 . S
H696 C708 0.959 . S
H697 C711 0.929 . S
H698 C712 0.931 . S
H699 C714 0.930 . S
C700 H688 0.930 . S
C700 C701 1.399 . S
C700 C705 1.399 . S
C701 C700 1.399 . S
C701 C702 1.376 . S
C702 H689 0.930 . S
C702 C701 1.376 . S
C702 C703 1.388 . S
C703 H690 0.930 . S
C703 C702 1.388 . S
C703 C704 1.390 . S
C704 C703 1.390 . S
C704 C705 1.394 . S
C704 C710 1.465 . S
C705 C700 1.399 . S
C705 C704 1.394 . S
C705 C706 1.516 . S
C706 C705 1.516 . S
C706 C707 1.502 . S
C706 C708 1.561 . S
C706 C709 1.526 . S
C707 H691 0.959 . S
C707 H692 0.959 . S
C707 H693 0.961 . S
C707 C706 1.502 . S
C708 H694 0.960 . S
C708 H695 0.961 . S
C708 H696 0.959 . S
C708 C706 1.561 . S
C709 C706 1.526 . S
C709 C710 1.396 . S
C709 C714 1.390 . S
C710 C704 1.465 . S
C710 C709 1.396 . S
C710 C711 1.399 . S
C711 H697 0.929 . S
C711 C710 1.399 . S
C711 C712 1.385 . S
C712 H698 0.931 . S
C712 C711 1.385 . S
C712 C713 1.389 . S
C713 C712 1.389 . S
C713 C714 1.387 . S
C714 H699 0.930 . S
C714 C709 1.390 . S
C714 C713 1.387 . S
H715 C727 0.930 . S
H716 C729 0.930 . S
H717 C730 0.930 . S
H718 C734 0.959 . S
H719 C734 0.959 . S
H720 C734 0.961 . S
H721 C735 0.960 . S
H722 C735 0.961 . S
H723 C735 0.959 . S
H724 C738 0.929 . S
H725 C739 0.931 . S
H726 C741 0.930 . S
C727 H715 0.930 . S
C727 C728 1.399 . S
C727 C732 1.399 . S
C728 C727 1.399 . S
C728 C729 1.376 . S
C729 H716 0.930 . S
C729 C728 1.376 . S
C729 C730 1.388 . S
C730 H717 0.930 . S
C730 C729 1.388 . S
C730 C731 1.390 . S
C731 C730 1.390 . S
C731 C732 1.394 . S
C731 C737 1.465 . S
C732 C727 1.399 . S
C732 C731 1.394 . S
C732 C733 1.516 . S
C733 C732 1.516 . S
C733 C734 1.502 . S
C733 C735 1.561 . S
C733 C736 1.526 . S
C734 H718 0.959 . S
C734 H719 0.959 . S
C734 H720 0.961 . S
C734 C733 1.502 . S
C735 H721 0.960 . S
C735 H722 0.961 . S
C735 H723 0.959 . S
C735 C733 1.561 . S
C736 C733 1.526 . S
C736 C737 1.396 . S
C736 C741 1.390 . S
C737 C731 1.465 . S
C737 C736 1.396 . S
C737 C738 1.399 . S
C738 H724 0.929 . S
C738 C737 1.399 . S
C738 C739 1.385 . S
C739 H725 0.931 . S
C739 C738 1.385 . S
C739 C740 1.389 . S
C740 C739 1.389 . S
C740 C741 1.387 . S
C741 H726 0.930 . S
C741 C736 1.390 . S
C741 C740 1.387 . S
H742 C754 0.930 . S
H743 C756 0.930 . S
H744 C757 0.930 . S
H745 C761 0.959 . S
H746 C761 0.959 . S
H747 C761 0.961 . S
H748 C762 0.960 . S
H749 C762 0.961 . S
H750 C762 0.959 . S
H751 C765 0.929 . S
H752 C766 0.931 . S
H753 C768 0.930 . S
C754 H742 0.930 . S
C754 C755 1.399 . S
C754 C759 1.399 . S
C755 C754 1.399 . S
C755 C756 1.376 . S
C756 H743 0.930 . S
C756 C755 1.376 . S
C756 C757 1.388 . S
C757 H744 0.930 . S
C757 C756 1.388 . S
C757 C758 1.390 . S
C758 C757 1.390 . S
C758 C759 1.394 . S
C758 C764 1.465 . S
C759 C754 1.399 . S
C759 C758 1.394 . S
C759 C760 1.516 . S
C760 C759 1.516 . S
C760 C761 1.502 . S
C760 C762 1.561 . S
C760 C763 1.526 . S
C761 H745 0.959 . S
C761 H746 0.959 . S
C761 H747 0.961 . S
C761 C760 1.502 . S
C762 H748 0.960 . S
C762 H749 0.961 . S
C762 H750 0.959 . S
C762 C760 1.561 . S
C763 C760 1.526 . S
C763 C764 1.396 . S
C763 C768 1.390 . S
C764 C758 1.465 . S
C764 C763 1.396 . S
C764 C765 1.399 . S
C765 H751 0.929 . S
C765 C764 1.399 . S
C765 C766 1.385 . S
C766 H752 0.931 . S
C766 C765 1.385 . S
C766 C767 1.389 . S
C767 C766 1.389 . S
C767 C768 1.387 . S
C768 H753 0.930 . S
C768 C763 1.390 . S
C768 C767 1.387 . S
H769 C781 0.930 . S
H770 C783 0.930 . S
H771 C784 0.930 . S
H772 C788 0.959 . S
H773 C788 0.959 . S
H774 C788 0.961 . S
H775 C789 0.960 . S
H776 C789 0.961 . S
H777 C789 0.959 . S
H778 C792 0.929 . S
H779 C793 0.931 . S
H780 C795 0.930 . S
C781 H769 0.930 . S
C781 C782 1.399 . S
C781 C786 1.399 . S
C782 C781 1.399 . S
C782 C783 1.376 . S
C783 H770 0.930 . S
C783 C782 1.376 . S
C783 C784 1.388 . S
C784 H771 0.930 . S
C784 C783 1.388 . S
C784 C785 1.390 . S
C785 C784 1.390 . S
C785 C786 1.394 . S
C785 C791 1.465 . S
C786 C781 1.399 . S
C786 C785 1.394 . S
C786 C787 1.516 . S
C787 C786 1.516 . S
C787 C788 1.502 . S
C787 C789 1.561 . S
C787 C790 1.526 . S
C788 H772 0.959 . S
C788 H773 0.959 . S
C788 H774 0.961 . S
C788 C787 1.502 . S
C789 H775 0.960 . S
C789 H776 0.961 . S
C789 H777 0.959 . S
C789 C787 1.561 . S
C790 C787 1.526 . S
C790 C791 1.396 . S
C790 C795 1.390 . S
C791 C785 1.465 . S
C791 C790 1.396 . S
C791 C792 1.399 . S
C792 H778 0.929 . S
C792 C791 1.399 . S
C792 C793 1.385 . S
C793 H779 0.931 . S
C793 C792 1.385 . S
C793 C794 1.389 . S
C794 C793 1.389 . S
C794 C795 1.387 . S
C795 H780 0.930 . S
C795 C790 1.390 . S
C795 C794 1.387 . S
H796 C808 0.930 . S
H797 C810 0.930 . S
H798 C811 0.930 . S
H799 C815 0.959 . S
H800 C815 0.959 . S
H801 C815 0.961 . S
H802 C816 0.960 . S
H803 C816 0.961 . S
H804 C816 0.959 . S
H805 C819 0.929 . S
H806 C820 0.931 . S
H807 C822 0.930 . S
C808 H796 0.930 . S
C808 C809 1.399 . S
C808 C813 1.399 . S
C809 C808 1.399 . S
C809 C810 1.376 . S
C810 H797 0.930 . S
C810 C809 1.376 . S
C810 C811 1.388 . S
C811 H798 0.930 . S
C811 C810 1.388 . S
C811 C812 1.390 . S
C812 C811 1.390 . S
C812 C813 1.394 . S
C812 C818 1.465 . S
C813 C808 1.399 . S
C813 C812 1.394 . S
C813 C814 1.516 . S
C814 C813 1.516 . S
C814 C815 1.502 . S
C814 C816 1.561 . S
C814 C817 1.526 . S
C815 H799 0.959 . S
C815 H800 0.959 . S
C815 H801 0.961 . S
C815 C814 1.502 . S
C816 H802 0.960 . S
C816 H803 0.961 . S
C816 H804 0.959 . S
C816 C814 1.561 . S
C817 C814 1.526 . S
C817 C818 1.396 . S
C817 C822 1.390 . S
C818 C812 1.465 . S
C818 C817 1.396 . S
C818 C819 1.399 . S
C819 H805 0.929 . S
C819 C818 1.399 . S
C819 C820 1.385 . S
C820 H806 0.931 . S
C820 C819 1.385 . S
C820 C821 1.389 . S
C821 C820 1.389 . S
C821 C822 1.387 . S
C822 H807 0.930 . S
C822 C817 1.390 . S
C822 C821 1.387 . S
H823 C835 0.930 . S
H824 C837 0.930 . S
H825 C838 0.930 . S
H826 C842 0.959 . S
H827 C842 0.959 . S
H828 C842 0.961 . S
H829 C843 0.960 . S
H830 C843 0.961 . S
H831 C843 0.959 . S
H832 C846 0.929 . S
H833 C847 0.931 . S
H834 C849 0.930 . S
C835 H823 0.930 . S
C835 C836 1.399 . S
C835 C840 1.399 . S
C836 C835 1.399 . S
C836 C837 1.376 . S
C837 H824 0.930 . S
C837 C836 1.376 . S
C837 C838 1.388 . S
C838 H825 0.930 . S
C838 C837 1.388 . S
C838 C839 1.390 . S
C839 C838 1.390 . S
C839 C840 1.394 . S
C839 C845 1.465 . S
C840 C835 1.399 . S
C840 C839 1.394 . S
C840 C841 1.516 . S
C841 C840 1.516 . S
C841 C842 1.502 . S
C841 C843 1.561 . S
C841 C844 1.526 . S
C842 H826 0.959 . S
C842 H827 0.959 . S
C842 H828 0.961 . S
C842 C841 1.502 . S
C843 H829 0.960 . S
C843 H830 0.961 . S
C843 H831 0.959 . S
C843 C841 1.561 . S
C844 C841 1.526 . S
C844 C845 1.396 . S
C844 C849 1.390 . S
C845 C839 1.465 . S
C845 C844 1.396 . S
C845 C846 1.399 . S
C846 H832 0.929 . S
C846 C845 1.399 . S
C846 C847 1.385 . S
C847 H833 0.931 . S
C847 C846 1.385 . S
C847 C848 1.389 . S
C848 C847 1.389 . S
C848 C849 1.387 . S
C849 H834 0.930 . S
C849 C844 1.390 . S
C849 C848 1.387 . S
H850 C862 0.930 . S
H851 C864 0.930 . S
H852 C865 0.930 . S
H853 C869 0.959 . S
H854 C869 0.959 . S
H855 C869 0.961 . S
H856 C870 0.960 . S
H857 C870 0.961 . S
H858 C870 0.959 . S
H859 C873 0.929 . S
H860 C874 0.931 . S
H861 C876 0.930 . S
C862 H850 0.930 . S
C862 C863 1.399 . S
C862 C867 1.399 . S
C863 C862 1.399 . S
C863 C864 1.376 . S
C864 H851 0.930 . S
C864 C863 1.376 . S
C864 C865 1.388 . S
C865 H852 0.930 . S
C865 C864 1.388 . S
C865 C866 1.390 . S
C866 C865 1.390 . S
C866 C867 1.394 . S
C866 C872 1.465 . S
C867 C862 1.399 . S
C867 C866 1.394 . S
C867 C868 1.516 . S
C868 C867 1.516 . S
C868 C869 1.502 . S
C868 C870 1.561 . S
C868 C871 1.526 . S
C869 H853 0.959 . S
C869 H854 0.959 . S
C869 H855 0.961 . S
C869 C868 1.502 . S
C870 H856 0.960 . S
C870 H857 0.961 . S
C870 H858 0.959 . S
C870 C868 1.561 . S
C871 C868 1.526 . S
C871 C872 1.396 . S
C871 C876 1.390 . S
C872 C866 1.465 . S
C872 C871 1.396 . S
C872 C873 1.399 . S
C873 H859 0.929 . S
C873 C872 1.399 . S
C873 C874 1.385 . S
C874 H860 0.931 . S
C874 C873 1.385 . S
C874 C875 1.389 . S
C875 C874 1.389 . S
C875 C876 1.387 . S
C876 H861 0.930 . S
C876 C871 1.390 . S
C876 C875 1.387 . S
H877 C889 0.930 . S
H878 C891 0.930 . S
H879 C892 0.930 . S
H880 C896 0.959 . S
H881 C896 0.959 . S
H882 C896 0.961 . S
H883 C897 0.960 . S
H884 C897 0.961 . S
H885 C897 0.959 . S
H886 C900 0.929 . S
H887 C901 0.931 . S
H888 C903 0.930 . S
C889 H877 0.930 . S
C889 C890 1.399 . S
C889 C894 1.399 . S
C890 C889 1.399 . S
C890 C891 1.376 . S
C891 H878 0.930 . S
C891 C890 1.376 . S
C891 C892 1.388 . S
C892 H879 0.930 . S
C892 C891 1.388 . S
C892 C893 1.390 . S
C893 C892 1.390 . S
C893 C894 1.394 . S
C893 C899 1.465 . S
C894 C889 1.399 . S
C894 C893 1.394 . S
C894 C895 1.516 . S
C895 C894 1.516 . S
C895 C896 1.502 . S
C895 C897 1.561 . S
C895 C898 1.526 . S
C896 H880 0.959 . S
C896 H881 0.959 . S
C896 H882 0.961 . S
C896 C895 1.502 . S
C897 H883 0.960 . S
C897 H884 0.961 . S
C897 H885 0.959 . S
C897 C895 1.561 . S
C898 C895 1.526 . S
C898 C899 1.396 . S
C898 C903 1.390 . S
C899 C893 1.465 . S
C899 C898 1.396 . S
C899 C900 1.399 . S
C900 H886 0.929 . S
C900 C899 1.399 . S
C900 C901 1.385 . S
C901 H887 0.931 . S
C901 C900 1.385 . S
C901 C902 1.389 . S
C902 C901 1.389 . S
C902 C903 1.387 . S
C903 H888 0.930 . S
C903 C898 1.390 . S
C903 C902 1.387 . S
C269 C6 1.036 . S
C281 C102 1.072 . S
C296 C18 1.244 . S
C308 C151 1.184 . S
C335 C186 2.604 . S
C323 C28 2.646 . S
C350 C40 1.816 . S
C362 C225 1.738 . S
C389 C146 2.306 . S
C377 C9 2.214 . S
C416 C105 0.852 . S
C404 C16 0.806 . S
C443 C235 1.889 . S
C431 C30 1.921 . S
C470 C194 1.330 . S
C458 C42 1.341 . S
C485 C4 1.452 . S
C497 C222 1.481 . S
C524 C154 2.483 . S
C512 C33 2.604 . S
C539 C45 2.069 . S
C551 C115 2.071 . S
C566 C21 1.068 . S
C578 C191 1.036 . S
C605 C111 1.049 . S
C593 C57 1.080 . S
C620 C66 1.274 . S
C632 C142 1.198 . S
C647 C76 2.696 . S
C659 C195 2.647 . S
C674 C88 1.758 . S
C686 C234 1.706 . S
C701 C54 2.211 . S
C713 C155 2.291 . S
C740 C114 0.889 . S
C728 C64 0.945 . S
C767 C226 1.803 . S
C755 C78 1.842 . S
C794 C185 1.367 . S
C782 C93 1.374 . S
C809 C52 1.451 . S
C821 C231 1.472 . S
C848 C145 2.472 . S
C836 C81 2.594 . S
C875 C106 2.052 . S
C863 C90 2.051 . S
C890 C69 1.076 . S
C902 C182 1.017 . S
