# Generated by pormake.
# Topology anh, (6,3)-cn, num edge types: 1
# Building blocks:
#     Node 0, Type 0, BuildingBlock: BETDAH_clean_sbu_0, # of connection points: 6
#     Node 1, Type 0, BuildingBlock: BETDAH_clean_sbu_0, # of connection points: 6
#     Node 2, Type 0, BuildingBlock: BETDAH_clean_sbu_0, # of connection points: 6
#     Node 3, Type 1, BuildingBlock: QEWDON_clean_linker_0, # of connection points: 3
#     Node 4, Type 1, BuildingBlock: QEWDON_clean_linker_0, # of connection points: 3
#     Node 5, Type 1, BuildingBlock: QEWDON_clean_linker_0, # of connection points: 3
#     Node 6, Type 1, BuildingBlock: QEWDON_clean_linker_0, # of connection points: 3
#     Node 7, Type 1, BuildingBlock: QEWDON_clean_linker_0, # of connection points: 3
#     Node 8, Type 1, BuildingBlock: QEWDON_clean_linker_0, # of connection points: 3
#     Edge 9, Type (0, 1), BuildingBlock: XIVTED_clean_linker_0, # of connection points: 2
#     Edge 10, Type (0, 1), BuildingBlock: XIVTED_clean_linker_0, # of connection points: 2
#     Edge 11, Type (0, 1), BuildingBlock: XIVTED_clean_linker_0, # of connection points: 2
#     Edge 12, Type (0, 1), BuildingBlock: XIVTED_clean_linker_0, # of connection points: 2
#     Edge 13, Type (0, 1), BuildingBlock: XIVTED_clean_linker_0, # of connection points: 2
#     Edge 14, Type (0, 1), BuildingBlock: XIVTED_clean_linker_0, # of connection points: 2
#     Edge 15, Type (0, 1), BuildingBlock: XIVTED_clean_linker_0, # of connection points: 2
#     Edge 16, Type (0, 1), BuildingBlock: XIVTED_clean_linker_0, # of connection points: 2
#     Edge 17, Type (0, 1), BuildingBlock: XIVTED_clean_linker_0, # of connection points: 2
#     Edge 18, Type (0, 1), BuildingBlock: XIVTED_clean_linker_0, # of connection points: 2
#     Edge 19, Type (0, 1), BuildingBlock: XIVTED_clean_linker_0, # of connection points: 2
#     Edge 20, Type (0, 1), BuildingBlock: XIVTED_clean_linker_0, # of connection points: 2
#     Edge 21, Type (0, 1), BuildingBlock: XIVTED_clean_linker_0, # of connection points: 2
#     Edge 22, Type (0, 1), BuildingBlock: XIVTED_clean_linker_0, # of connection points: 2
#     Edge 23, Type (0, 1), BuildingBlock: XIVTED_clean_linker_0, # of connection points: 2
#     Edge 24, Type (0, 1), BuildingBlock: XIVTED_clean_linker_0, # of connection points: 2
#     Edge 25, Type (0, 1), BuildingBlock: XIVTED_clean_linker_0, # of connection points: 2
#     Edge 26, Type (0, 1), BuildingBlock: XIVTED_clean_linker_0, # of connection points: 2
# Relax obj value: 0.135
# Max RMSD: 0.176
# Mean RMSD: 0.126
data_MOF--net-anh--node1-BETDAH_clean_sbu_0--node2-QEWDON_clean_linker_0--edge1-XIVTED_clean_linker_0
_symmetry_space_group_name_H-M    P1
_symmetry_Int_Tables_number       1
_symmetry_cell_setting            triclinic
loop_
_symmetry_equiv_pos_as_xyz
'x, y, z'
_cell_length_a     33.185511
_cell_length_b     39.680574
_cell_length_c     48.201362
_cell_angle_alpha  96.444888
_cell_angle_beta   92.262661
_cell_angle_gamma 129.52536
loop_
_atom_site_label
_atom_site_type_symbol
_atom_site_fract_x
_atom_site_fract_y
_atom_site_fract_z
_atom_type_partial_charge
Ho0 Ho 0.11038 0.52303 0.13904 0.0
Ho1 Ho 1.04855 0.54865 0.16326 0.0
C2 C 0.16551 0.6287 0.15542 0.0
C3 C 0.17458 0.52062 0.11246 0.0
C4 C 0.23241 0.55277 0.11712 0.0
C5 C 0.26163 0.54691 0.10034 0.0
C6 C 0.31677 0.57639 0.10639 0.0
C7 C 0.34327 0.61217 0.12927 0.0
C8 C 0.31361 0.6187 0.14529 0.0
C9 C 0.25872 0.58907 0.1394 0.0
C10 C 0.11557 0.53373 0.19583 0.0
C11 C 0.99253 0.44326 0.14573 0.0
C12 C 0.98832 0.55087 0.19402 0.0
C13 C 0.93172 0.51696 0.19528 0.0
C14 C 0.91158 0.5151 0.22058 0.0
C15 C 0.85721 0.48401 0.22126 0.0
C16 C 0.8221 0.45471 0.19649 0.0
C17 C 0.84337 0.45495 0.1717 0.0
C18 C 0.89754 0.4855 0.17118 0.0
C19 C 1.0463 0.54253 0.10689 0.0
O20 O 0.16409 0.59793 0.14002 0.0
O21 O 0.12716 0.61745 0.17028 0.0
O22 O 0.15323 0.49928 0.13328 0.0
O23 O 0.1519 0.53535 0.10298 0.0
O24 O 0.1147 0.50388 0.18107 0.0
O25 O 0.11688 0.55732 0.18004 0.0
O26 O 0.99432 0.47399 0.16134 0.0
O27 O 1.03077 0.45442 0.13079 0.0
O28 O 1.00056 0.56706 0.17062 0.0
O29 O 1.01725 0.54133 0.20271 0.0
O30 O 1.04489 0.5703 0.12283 0.0
O31 O 1.04371 0.5166 0.12119 0.0
H32 H 0.24184 0.51896 0.08311 0.0
H33 H 0.3384 0.57003 0.09388 0.0
H34 H 0.33274 0.64614 0.1628 0.0
H35 H 0.23675 0.59391 0.15277 0.0
H36 H 0.93773 0.53836 0.23961 0.0
H37 H 0.84261 0.4842 0.24092 0.0
H38 H 0.81823 0.43361 0.15202 0.0
H39 H 0.91253 0.48558 0.15159 0.0
Ho40 Ho 0.67283 0.07034 0.48247 0.0
Ho41 Ho 0.6016 0.09062 0.46656 0.0
C42 C 0.54457 0.99011 0.46887 0.0
C43 C 0.71552 0.04168 0.50512 0.0
C44 C 0.69694 0.99746 0.50788 0.0
C45 C 0.72558 0.99326 0.52717 0.0
C46 C 0.70799 0.95122 0.52997 0.0
C47 C 0.66125 0.91268 0.51358 0.0
C48 C 0.63259 0.91719 0.49434 0.0
C49 C 0.65033 0.95919 0.49149 0.0
C50 C 0.65533 0.069 0.42697 0.0
C51 C 0.73067 0.1708 0.47871 0.0
C52 C 0.55815 0.11934 0.44513 0.0
C53 C 0.56866 0.16161 0.45091 0.0
C54 C 0.5455 0.1712 0.43202 0.0
C55 C 0.55329 0.21044 0.43822 0.0
C56 C 0.5842 0.24064 0.46354 0.0
C57 C 0.60838 0.2312 0.48206 0.0
C58 C 0.60084 0.19214 0.47574 0.0
C59 C 0.61673 0.09069 0.52186 0.0
O60 O 0.58993 1.00543 0.48301 0.0
O61 O 0.5416 0.01622 0.45577 0.0
O62 O 0.71988 0.05027 0.4795 0.0
O63 O 0.69338 0.05465 0.51925 0.0
O64 O 0.70001 0.08306 0.43965 0.0
O65 O 0.62191 0.05399 0.44375 0.0
O66 O 0.6841 0.15611 0.46691 0.0
O67 O 0.73562 0.14456 0.49011 0.0
O68 O 0.54101 0.09619 0.46545 0.0
O69 O 0.59448 0.1208 0.43406 0.0
O70 O 0.57304 0.07751 0.50857 0.0
O71 O 0.65159 0.1065 0.50581 0.0
H72 H 0.76153 0.02249 0.54008 0.0
H73 H 0.73064 0.94888 0.5452 0.0
H74 H 0.59687 0.88829 0.4811 0.0
H75 H 0.62781 0.96178 0.47636 0.0
H76 H 0.52088 0.1481 0.41265 0.0
H77 H 0.53484 0.21696 0.42323 0.0
H78 H 0.63184 0.25326 0.50189 0.0
H79 H 0.61922 0.18529 0.49053 0.0
Ho80 Ho 0.65594 0.5997 0.83287 0.0
Ho81 Ho 0.58184 0.50467 0.84048 0.0
C82 C 0.52946 0.55151 0.83972 0.0
C83 C 0.70029 0.67289 0.81389 0.0
C84 C 0.69076 0.70411 0.81257 0.0
C85 C 0.71938 0.73746 0.79628 0.0
C86 C 0.71095 0.76761 0.79495 0.0
C87 C 0.6737 0.76487 0.80995 0.0
C88 C 0.64486 0.73109 0.82615 0.0
C89 C 0.65334 0.70099 0.82745 0.0
C90 C 0.65332 0.5879 0.88671 0.0
C91 C 0.70911 0.5536 0.83678 0.0
C92 C 0.54041 0.42984 0.85608 0.0
C93 C 0.55244 0.40012 0.85054 0.0
C94 C 0.53501 0.36715 0.86675 0.0
C95 C 0.54639 0.33881 0.86118 0.0
C96 C 0.57541 0.34304 0.83926 0.0
C97 C 0.59344 0.37674 0.82338 0.0
C98 C 0.58217 0.40503 0.82901 0.0
C99 C 0.58533 0.517 0.78657 0.0
O100 O 0.57502 0.58463 0.83151 0.0
O101 O 0.52468 0.51802 0.84754 0.0
O102 O 0.71428 0.67124 0.83911 0.0
O103 O 0.66523 0.6335 0.79833 0.0
O104 O 0.69585 0.61931 0.87741 0.0
O105 O 0.61411 0.56664 0.86769 0.0
O106 O 0.66245 0.51998 0.84351 0.0
O107 O 0.71512 0.58766 0.82907 0.0
O108 O 0.52017 0.43344 0.83393 0.0
O109 O 0.57764 0.46826 0.87213 0.0
O110 O 0.54252 0.48634 0.79594 0.0
O111 O 0.62429 0.53765 0.8057 0.0
H112 H 0.74846 0.7403 0.78468 0.0
H113 H 0.73417 0.79346 0.78253 0.0
H114 H 0.61531 0.7276 0.8376 0.0
H115 H 0.63078 0.67534 0.84009 0.0
H116 H 0.51248 0.36323 0.88364 0.0
H117 H 0.53258 0.31368 0.8741 0.0
H118 H 0.61519 0.38065 0.8061 0.0
H119 H 0.59618 0.43048 0.81632 0.0
H120 H 0.61355 0.07845 0.2061 0.0
C121 C 0.58041 0.04357 0.19892 0.0
C122 C 0.55507 0.01657 0.21931 0.0
C123 C 0.56154 0.02621 0.16982 0.0
H124 H 0.49051 0.95113 0.22646 0.0
C125 C 0.50992 0.97193 0.21069 0.0
C126 C 0.48977 0.95334 0.18213 0.0
C127 C 0.51669 0.9802 0.16176 0.0
C128 C 0.58634 0.05637 0.14816 0.0
H129 H 0.50157 0.96508 0.13976 0.0
C130 C 0.63951 0.09724 0.1532 0.0
C131 C 0.66091 0.12517 0.13267 0.0
C132 C 0.55565 0.04514 0.12226 0.0
H133 H 0.51437 0.01586 0.11763 0.0
C134 C 0.57701 0.07218 0.10189 0.0
H135 H 0.66476 0.10734 0.17267 0.0
C136 C 0.62906 0.11167 0.10695 0.0
H137 H 0.64403 0.13242 0.09092 0.0
H138 H 0.55265 0.06279 0.08217 0.0
H139 H 0.56399 0.56526 0.57573 0.0
C140 C 0.57231 0.54522 0.56498 0.0
C141 C 0.59101 0.52889 0.58087 0.0
C142 C 0.56208 0.53415 0.53538 0.0
H143 H 0.61228 0.48753 0.57906 0.0
C144 C 0.60019 0.50182 0.56684 0.0
C145 C 0.58957 0.48998 0.53729 0.0
C146 C 0.57121 0.5068 0.52175 0.0
C147 C 0.53804 0.54817 0.51871 0.0
H148 H 0.56337 0.49811 0.49893 0.0
C149 C 0.55718 0.5921 0.52411 0.0
C150 C 0.5337 0.60485 0.50827 0.0
C151 C 0.49499 0.51709 0.49736 0.0
H152 H 0.47892 0.48292 0.49301 0.0
C153 C 0.47162 0.52952 0.48167 0.0
H154 H 0.59027 0.61627 0.54056 0.0
C155 C 0.49076 0.57304 0.48701 0.0
H156 H 0.47238 0.58194 0.47417 0.0
H157 H 0.43854 0.50533 0.46526 0.0
H158 H 0.12927 0.54877 0.89424 0.0
C159 C 0.10061 0.54965 0.88381 0.0
C160 C 0.06766 0.55128 0.90041 0.0
C161 C 0.09695 0.54925 0.85446 0.0
H162 H 1.00291 0.55121 0.9011 0.0
C163 C 1.02843 0.55093 0.88787 0.0
C164 C 1.02079 0.55002 0.85895 0.0
C165 C 1.05632 0.55013 0.8423 0.0
C166 C 0.13394 0.54606 0.83718 0.0
H167 H 1.05139 0.55045 0.8201 0.0
C168 C 0.18057 0.55257 0.8489 0.0
C169 C 0.21184 0.54788 0.83109 0.0
C170 C 0.121 0.5344 0.8076 0.0
H171 H 0.08659 0.52746 0.797 0.0
C172 C 0.15108 0.53018 0.79054 0.0
H173 H 0.19325 0.56177 0.8714 0.0
C174 C 0.19541 0.53688 0.80194 0.0
H175 H 0.21709 0.53301 0.78759 0.0
H176 H 0.13953 0.52119 0.76788 0.0
H177 H 0.09087 0.54327 0.41846 0.0
C178 C 0.12724 0.57684 0.42579 0.0
C179 C 0.15525 0.60325 0.40557 0.0
C180 C 0.14452 0.59438 0.45497 0.0
H181 H 0.222 0.66809 0.39873 0.0
C182 C 0.20053 0.64774 0.4144 0.0
C183 C 0.21894 0.66649 0.44302 0.0
C184 C 0.1919 0.63936 0.46322 0.0
C185 C 0.11158 0.567 0.47656 0.0
H186 H 0.20744 0.65402 0.48526 0.0
C187 C 0.07528 0.51964 0.47098 0.0
C188 C 1.04409 0.49512 0.49146 0.0
C189 C 0.11465 0.58848 0.50297 0.0
H190 H 0.13928 0.62419 0.50806 0.0
C191 C 0.08471 0.56431 0.52329 0.0
H192 H 0.07148 0.50154 0.45112 0.0
C193 C 1.04994 0.51814 0.51769 0.0
H194 H 1.02639 0.5003 0.53371 0.0
H195 H 0.08785 0.58156 0.54341 0.0
H196 H 0.60746 0.02357 0.73072 0.0
C197 C 0.6131 0.05198 0.74169 0.0
C198 C 0.63056 0.08761 0.72781 0.0
C199 C 0.60006 0.05178 0.76909 0.0
H200 H 0.64634 0.14982 0.73072 0.0
C201 C 0.63568 0.12349 0.74186 0.0
C202 C 0.62234 0.12354 0.76914 0.0
C203 C 0.60573 0.08802 0.78276 0.0
C204 C 0.57553 0.01214 0.78262 0.0
H205 H 0.59581 0.08802 0.80392 0.0
C206 C 0.59727 0.99116 0.78352 0.0
C207 C 0.57433 0.95459 0.79745 0.0
C208 C 0.52983 0.99535 0.79506 0.0
H209 H 0.51172 0.01033 0.79425 0.0
C210 C 0.50663 0.95882 0.80845 0.0
H211 H 0.63277 1.00411 0.77425 0.0
C212 C 0.52872 0.93863 0.80975 0.0
H213 H 0.5097 0.91011 0.82015 0.0
H214 H 0.47136 0.9461 0.81786 0.0
H215 H 0.6644 0.60721 0.10073 0.0
C216 C 0.65195 0.57696 0.10732 0.0
C217 C 0.63309 0.54009 0.08691 0.0
C218 C 0.65576 0.57555 0.13612 0.0
H219 H 0.60166 0.47239 0.07962 0.0
C220 C 0.61628 0.50079 0.09551 0.0
C221 C 0.6213 0.49903 0.12439 0.0
C222 C 0.64107 0.53684 0.1445 0.0
C223 C 0.67409 0.61443 0.15731 0.0
H224 H 0.64626 0.53681 0.16681 0.0
C225 C 0.65261 0.63499 0.15395 0.0
C226 C 0.66698 0.67056 0.17418 0.0
C227 C 0.71131 0.63039 0.18113 0.0
H228 H 0.7288 0.61527 0.18414 0.0
C229 C 0.72634 0.66621 0.20124 0.0
H230 H 0.62239 0.62169 0.13615 0.0
C231 C 0.70392 0.68602 0.19798 0.0
H232 H 0.71505 0.71305 0.21404 0.0
H233 H 0.75492 0.67828 0.21959 0.0
H234 H 0.39635 0.64234 0.18294 0.0
H235 H 0.64959 0.69597 0.128 0.0
H236 H 0.42159 0.64475 0.09574 0.0
H237 H 0.61695 0.6808 0.21346 0.0
H238 H 0.57982 0.69989 0.11889 0.0
H239 H 0.48843 0.67775 0.19682 0.0
C240 C 0.4215 0.65121 0.16671 0.0
C241 C 0.40089 0.63983 0.13804 0.0
C242 C 0.58872 0.69681 0.13985 0.0
C243 C 0.50634 0.67965 0.15386 0.0
C244 C 0.62865 0.69476 0.14507 0.0
C245 C 0.63807 0.6871 0.17132 0.0
C246 C 0.55775 0.69063 0.16097 0.0
C247 C 0.61054 0.68638 0.19287 0.0
C248 C 0.47413 0.67127 0.17468 0.0
C249 C 0.43545 0.65186 0.11801 0.0
N250 N 0.57069 0.68703 0.18703 0.0
N251 N 0.4863 0.67052 0.12627 0.0
H252 H 0.73994 0.23094 0.44989 0.0
H253 H 1.03392 0.43752 0.52291 0.0
H254 H 0.83063 0.21865 0.50789 0.0
H255 H 0.9606 0.44035 0.44847 0.0
H256 H 0.95941 0.3579 0.51844 0.0
H257 H 0.81859 0.30807 0.45025 0.0
C258 C 0.77631 0.24437 0.46276 0.0
C259 C 0.77836 0.218 0.47897 0.0
C260 C 0.95979 0.37569 0.50284 0.0
C261 C 0.86897 0.30682 0.47947 0.0
C262 C 1.00244 0.42114 0.50533 0.0
C263 C 1.00363 0.4456 0.48594 0.0
C264 C 0.91721 0.35439 0.48108 0.0
C265 C 0.96156 0.42269 0.46369 0.0
C266 C 0.82136 0.28846 0.46281 0.0
C267 C 0.82693 0.2375 0.49506 0.0
N268 N 0.91979 0.37856 0.46207 0.0
N269 N 0.87003 0.28065 0.49505 0.0
H270 H 0.6591 0.80538 0.85329 0.0
H271 H 0.61025 0.93055 0.75586 0.0
H272 H 0.66863 0.79803 0.76405 0.0
H273 H 0.5907 0.92882 0.84378 0.0
H274 H 0.64035 0.88826 0.75915 0.0
H275 H 0.64128 0.85593 0.85077 0.0
C276 C 0.65728 0.81429 0.83313 0.0
C277 C 0.66491 0.79707 0.8088 0.0
C278 C 0.62974 0.89737 0.77774 0.0
C279 C 0.64502 0.85549 0.80579 0.0
C280 C 0.61289 0.92173 0.77591 0.0
C281 C 0.59739 0.93275 0.79949 0.0
C282 C 0.63129 0.88419 0.80338 0.0
C283 C 0.60132 0.92028 0.82493 0.0
C284 C 0.64742 0.84341 0.83173 0.0
C285 C 0.66329 0.81066 0.78338 0.0
N286 N 0.6176 0.89653 0.82615 0.0
N287 N 0.65324 0.83887 0.7825 0.0
H288 H 0.7384 0.37417 0.16319 0.0
H289 H 0.63878 0.44553 0.09689 0.0
H290 H 0.77237 0.47927 0.22571 0.0
H291 H 0.58674 0.46473 0.17332 0.0
H292 H 0.6551 0.40269 0.11857 0.0
H293 H 0.65463 0.35511 0.1461 0.0
C294 C 0.72789 0.39256 0.17386 0.0
C295 C 0.7644 0.43046 0.19467 0.0
C296 C 0.63805 0.41463 0.13034 0.0
C297 C 0.66849 0.4081 0.17563 0.0
C298 C 0.62871 0.4395 0.11787 0.0
C299 C 0.61374 0.46094 0.1337 0.0
C300 C 0.63418 0.41245 0.1591 0.0
C301 C 0.60137 0.45118 0.16082 0.0
C302 C 0.67987 0.38138 0.16416 0.0
C303 C 0.74685 0.4509 0.2089 0.0
N304 N 0.61412 0.42934 0.17313 0.0
N305 N 0.70074 0.44025 0.19857 0.0
H306 H 0.5337 0.92548 0.49336 0.0
H307 H 0.23105 0.73373 0.42352 0.0
H308 H 0.44535 0.94593 0.4406 0.0
H309 H 0.31161 0.71007 0.47976 0.0
H310 H 0.30917 0.81217 0.43129 0.0
H311 H 0.45395 0.84758 0.48988 0.0
C312 C 0.49766 0.91372 0.48103 0.0
C313 C 0.49658 0.94258 0.46713 0.0
C314 C 0.30999 0.7901 0.44214 0.0
C315 C 0.40479 0.85314 0.46323 0.0
C316 C 0.26524 0.74519 0.43771 0.0
C317 C 0.26481 0.71513 0.45086 0.0
C318 C 0.35539 0.80561 0.45978 0.0
C319 C 0.31015 0.73207 0.46926 0.0
C320 C 0.45203 0.86917 0.47914 0.0
C321 C 0.44844 0.9252 0.45162 0.0
N322 N 0.3538 0.77611 0.47298 0.0
N323 N 0.40481 0.88184 0.45007 0.0
H324 H 0.50819 0.25345 0.83932 0.0
H325 H 0.69341 0.21387 0.77045 0.0
H326 H 0.66455 0.36036 0.8226 0.0
H327 H 0.54492 0.11122 0.79699 0.0
H328 H 0.68484 0.26857 0.78982 0.0
H329 H 0.52259 0.20143 0.82495 0.0
C330 C 0.54585 0.26616 0.83297 0.0
C331 C 0.58512 0.31147 0.83213 0.0
C332 C 0.6544 0.23412 0.7916 0.0
C333 C 0.60152 0.25165 0.81501 0.0
C334 C 0.65918 0.20289 0.78045 0.0
C335 C 0.61996 0.15792 0.78219 0.0
C336 C 0.60983 0.22018 0.80434 0.0
C337 C 0.57658 0.14559 0.79554 0.0
C338 C 0.55392 0.2363 0.82455 0.0
C339 C 0.63275 0.32566 0.82315 0.0
N340 N 0.57259 0.17644 0.80594 0.0
N341 N 0.6395 0.29584 0.8148 0.0
H342 H 0.55989 0.83662 0.51393 0.0
H343 H 0.63693 0.68232 0.51764 0.0
H344 H 0.72015 0.88666 0.51916 0.0
H345 H 0.47698 0.63318 0.51013 0.0
H346 H 0.66901 0.75816 0.5221 0.0
H347 H 0.52953 0.76255 0.51572 0.0
C348 C 0.58873 0.83203 0.51542 0.0
C349 C 0.64264 0.86792 0.51618 0.0
C350 C 0.62691 0.73079 0.51963 0.0
C351 C 0.60814 0.78306 0.51849 0.0
C352 C 0.60858 0.6875 0.51726 0.0
C353 C 0.55415 0.65129 0.51327 0.0
C354 C 0.59054 0.73794 0.51804 0.0
C355 C 0.51924 0.66 0.51267 0.0
C356 C 0.57138 0.78974 0.5166 0.0
C357 C 0.67826 0.86008 0.51871 0.0
N358 N 0.538 0.70234 0.51488 0.0
N359 N 0.66036 0.81847 0.51961 0.0
H360 H 0.71167 0.4885 0.85118 0.0
H361 H 1.01903 0.6103 0.83347 0.0
H362 H 0.81348 0.61536 0.82467 0.0
H363 H 0.91474 0.48677 0.86341 0.0
H364 H 0.94548 0.61162 0.82706 0.0
H365 H 0.78435 0.48661 0.85332 0.0
C366 C 0.74912 0.51617 0.84574 0.0
C367 C 0.75502 0.55224 0.83775 0.0
C368 C 0.93827 0.5838 0.83465 0.0
C369 C 0.84118 0.55012 0.84017 0.0
C370 C 0.98054 0.58271 0.83795 0.0
C371 C 0.97402 0.54777 0.84845 0.0
C372 C 0.88797 0.5498 0.84192 0.0
C373 C 0.92257 0.51415 0.85477 0.0
C374 C 0.79119 0.51501 0.84697 0.0
C375 C 0.80579 0.58664 0.831 0.0
N376 N 0.88261 0.51607 0.8515 0.0
N377 N 0.84608 0.58472 0.83237 0.0
H378 H 0.25378 0.66549 0.12888 0.0
H379 H 0.39819 0.9151 0.20426 0.0
H380 H 0.18455 0.70178 0.18549 0.0
H381 H 0.46634 0.88406 0.14312 0.0
H382 H 0.31891 0.83701 0.1962 0.0
H383 H 0.33083 0.74437 0.13268 0.0
C384 C 0.25456 0.68993 0.14205 0.0
C385 C 0.2123 0.67664 0.15694 0.0
C386 C 0.35091 0.84706 0.18436 0.0
C387 C 0.30088 0.76742 0.16135 0.0
C388 C 0.39634 0.89178 0.18898 0.0
C389 C 0.43932 0.90626 0.17451 0.0
C390 C 0.34796 0.81592 0.16518 0.0
C391 C 0.4342 0.87447 0.15469 0.0
C392 C 0.29868 0.73507 0.14416 0.0
C393 C 0.21593 0.71012 0.17364 0.0
N394 N 0.38961 0.83076 0.1508 0.0
N395 N 0.25928 0.75368 0.17542 0.0
H396 H 0.671 0.32424 0.4909 0.0
H397 H 0.5184 0.41917 0.49526 0.0
H398 H 0.50855 0.24848 0.45417 0.0
H399 H 0.66717 0.48436 0.54708 0.0
H400 H 0.52025 0.3613 0.47443 0.0
H401 H 0.67555 0.38752 0.50659 0.0
C402 C 0.63628 0.32083 0.48609 0.0
C403 C 0.58917 0.28068 0.47131 0.0
C404 C 0.55269 0.38839 0.49023 0.0
C405 C 0.5945 0.35335 0.48889 0.0
C406 C 0.5519 0.42168 0.50197 0.0
C407 C 0.59272 0.4567 0.52298 0.0
C408 C 0.59466 0.39003 0.49945 0.0
C409 C 0.63464 0.45773 0.53116 0.0
C410 C 0.63905 0.35708 0.49495 0.0
C411 C 0.54592 0.27874 0.46518 0.0
N412 N 0.63447 0.42481 0.51943 0.0
N413 N 0.54959 0.31444 0.47408 0.0
H414 H 0.42935 0.48988 0.85562 0.0
H415 H 0.31567 0.61571 0.82447 0.0
H416 H 0.52131 0.61468 0.82626 0.0
H417 H 0.22306 0.49164 0.8544 0.0
H418 H 0.39133 0.6175 0.82735 0.0
H419 H 0.35596 0.49094 0.8569 0.0
C420 C 0.43465 0.51772 0.84943 0.0
C421 C 0.48312 0.55223 0.84078 0.0
C422 C 0.35497 0.59015 0.83386 0.0
C423 C 0.39648 0.55363 0.84229 0.0
C424 C 0.31141 0.5894 0.83262 0.0
C425 C 0.26214 0.55437 0.84027 0.0
C426 C 0.35056 0.55509 0.84238 0.0
C427 C 0.25992 0.5204 0.84926 0.0
C428 C 0.39209 0.51826 0.8502 0.0
C429 C 0.48569 0.58705 0.83311 0.0
N430 N 0.30266 0.52161 0.84997 0.0
N431 N 0.44379 0.58674 0.83402 0.0
H432 H 0.9133 0.40887 0.17859 0.0
H433 H 0.7379 0.15768 0.09859 0.0
H434 H 0.96488 0.36831 0.11193 0.0
H435 H 0.70695 0.19429 0.1774 0.0
H436 H 0.82071 0.23415 0.10286 0.0
H437 H 0.83696 0.33104 0.17777 0.0
C438 C 0.90875 0.38367 0.16374 0.0
C439 C 0.94593 0.39552 0.14523 0.0
C440 C 0.79625 0.22546 0.11943 0.0
C441 C 0.85769 0.30558 0.14422 0.0
C442 C 0.74897 0.18173 0.11704 0.0
C443 C 0.71536 0.16945 0.1377 0.0
C444 C 0.80999 0.25769 0.14244 0.0
C445 C 0.73178 0.2021 0.16111 0.0
C446 C 0.86505 0.33906 0.16341 0.0
C447 C 0.93748 0.361 0.12659 0.0
N448 N 0.77749 0.24475 0.16267 0.0
N449 N 0.89422 0.31776 0.12644 0.0
H450 H 1.04826 0.48624 0.06896 0.0
H451 H 0.07774 0.61045 0.94109 0.0
H452 H 1.05921 0.60123 0.07623 0.0
H453 H 0.0694 0.49674 0.93029 0.0
H454 H 0.07614 0.60921 0.99147 0.0
H455 H 1.05962 0.4902 0.01891 0.0
C456 C 1.05306 0.51226 0.06002 0.0
C457 C 1.05257 0.54335 0.07669 0.0
C458 C 0.07497 0.58458 0.97825 0.0
C459 C 1.06573 0.54821 0.01974 0.0
C460 C 0.07595 0.58535 0.94945 0.0
C461 C 0.07333 0.55348 0.93148 0.0
C462 C 0.07096 0.55145 0.98938 0.0
C463 C 0.07162 0.52198 0.94347 0.0
C464 C 1.05964 0.51458 0.03152 0.0
C465 C 1.05906 0.57644 0.06414 0.0
N466 N 0.06995 0.52147 0.97168 0.0
N467 N 1.06526 0.57793 0.03652 0.0
H468 H 0.56273 0.0398 0.39911 0.0
H469 H 0.65623 0.06566 0.2466 0.0
H470 H 0.72081 0.09521 0.38643 0.0
H471 H 0.49817 1.00702 0.26162 0.0
H472 H 0.68424 0.08479 0.29785 0.0
H473 H 0.54163 0.03473 0.34903 0.0
C474 C 0.59311 0.05106 0.38574 0.0
C475 C 0.64347 0.06765 0.39684 0.0
C476 C 0.64356 0.06812 0.2899 0.0
C477 C 0.61956 0.06178 0.33928 0.0
C478 C 0.6277 0.05751 0.2607 0.0
C479 C 0.5747 0.03428 0.24992 0.0
C480 C 0.60612 0.05552 0.30833 0.0
C481 C 0.53923 0.02429 0.26906 0.0
C482 C 0.58106 0.0482 0.3571 0.0
C483 C 0.68139 0.08198 0.3786 0.0
N484 N 0.55547 0.03465 0.29726 0.0
N485 N 0.66857 0.07845 0.35062 0.0
H486 H 0.50384 0.48463 0.74606 0.0
H487 H 0.67247 0.55407 0.61951 0.0
H488 H 0.67312 0.56502 0.76018 0.0
H489 H 0.51882 0.5178 0.61307 0.0
H490 H 0.67379 0.55636 0.67065 0.0
H491 H 0.50805 0.49372 0.69665 0.0
C492 C 0.54192 0.50429 0.73871 0.0
C493 C 0.58817 0.52391 0.75707 0.0
C494 C 0.64013 0.54848 0.65807 0.0
C495 C 0.59331 0.53422 0.70059 0.0
C496 C 0.63932 0.54708 0.62894 0.0
C497 C 0.59548 0.53574 0.61209 0.0
C498 C 0.59636 0.53764 0.67031 0.0
C499 C 0.55359 0.52708 0.62532 0.0
C500 C 0.54435 0.50965 0.71057 0.0
C501 C 0.63656 0.54928 0.74659 0.0
N502 N 0.55478 0.52768 0.65359 0.0
N503 N 0.63786 0.55335 0.71891 0.0
H504 H 0.53931 0.0339 0.55104 0.0
H505 H 0.71054 0.15217 0.7015 0.0
H506 H 0.70807 0.13813 0.55968 0.0
H507 H 0.5629 0.01751 0.68495 0.0
H508 H 0.71187 0.15011 0.65043 0.0
H509 H 0.54749 0.02951 0.60075 0.0
C510 C 0.57819 0.05579 0.56347 0.0
C511 C 0.62306 0.08664 0.55142 0.0
C512 C 0.67973 0.1208 0.65805 0.0
C513 C 0.63272 0.08218 0.60845 0.0
C514 C 0.67886 0.12199 0.68712 0.0
C515 C 0.63648 0.08498 0.69745 0.0
C516 C 0.63738 0.08266 0.63925 0.0
C517 C 0.59652 0.04666 0.67795 0.0
C518 C 0.58288 0.05311 0.5918 0.0
C519 C 0.67256 0.11397 0.56834 0.0
N520 N 0.59756 0.04674 0.64982 0.0
N521 N 0.67607 0.1116 0.59622 0.0
H522 H 0.73418 0.63301 0.93018 0.0
H523 H 0.55575 0.48259 0.04152 0.0
H524 H 0.56666 0.5239 0.90923 0.0
H525 H 0.71507 0.60693 0.06385 0.0
H526 H 0.56039 0.49233 0.99196 0.0
H527 H 0.72935 0.61936 0.9786 0.0
C528 C 0.69638 0.60616 0.93583 0.0
C529 C 0.65074 0.57964 0.91583 0.0
C530 C 0.59426 0.51744 0.00776 0.0
C531 C 0.64481 0.56364 0.97105 0.0
C532 C 0.59168 0.51178 0.03594 0.0
C533 C 0.63488 0.54424 0.05676 0.0
C534 C 0.64057 0.55556 0.00046 0.0
C535 C 0.68054 0.5815 0.04851 0.0
C536 C 0.6936 0.59836 0.96344 0.0
C537 C 0.60275 0.54513 0.92413 0.0
N538 N 0.68217 0.58613 0.02104 0.0
N539 N 0.601 0.53808 0.95117 0.0
H540 H 0.12452 0.59944 0.22783 0.0
H541 H 0.12986 0.52739 0.3756 0.0
H542 H 0.10745 0.48336 0.23369 0.0
H543 H 0.14121 0.63974 0.36582 0.0
H544 H 0.11414 0.50612 0.32391 0.0
H545 H 0.12494 0.61109 0.27847 0.0
C546 C 0.12071 0.57627 0.23984 0.0
C547 C 0.11592 0.54037 0.22659 0.0
C548 C 0.11953 0.53514 0.33312 0.0
C549 C 0.11679 0.55368 0.28491 0.0
C550 C 0.1281 0.54706 0.36256 0.0
C551 C 0.13743 0.58562 0.37488 0.0
C552 C 0.12021 0.56201 0.31609 0.0
C553 C 0.13501 0.61013 0.35713 0.0
C554 C 0.1209 0.5829 0.26882 0.0
C555 C 0.11135 0.51152 0.2432 0.0
N556 N 0.12707 0.59812 0.32871 0.0
N557 N 0.11211 0.51889 0.2716 0.0
loop_
_geom_bond_atom_site_label_1
_geom_bond_atom_site_label_2
_geom_bond_distance
_geom_bond_site_symmetry_2
_ccdc_geom_bond_type
Ho0 C3 2.811 . S
Ho0 O20 2.322 . S
Ho0 O22 2.378 . S
Ho0 O23 2.524 . S
Ho0 O24 2.381 . S
Ho0 O25 2.669 . S
Ho0 O27 2.346 1_455 S
Ho0 O31 2.305 . S
Ho1 C12 2.811 1_455 S
Ho1 O21 2.346 . S
Ho1 O25 2.305 . S
Ho1 O26 2.322 1_455 S
Ho1 O28 2.378 1_455 S
Ho1 O29 2.524 1_455 S
Ho1 O30 2.381 . S
Ho1 O31 2.669 . S
C2 O20 1.259 . S
C2 O21 1.268 . S
C3 Ho0 2.811 . S
C3 C4 1.488 . S
C3 O22 1.215 . S
C3 O23 1.289 . S
C4 C3 1.488 . S
C4 C5 1.348 . S
C4 C9 1.413 . S
C5 C4 1.348 . S
C5 C6 1.442 . S
C5 H32 0.930 . S
C6 C5 1.442 . S
C6 C7 1.381 . S
C6 H33 0.931 . S
C7 C6 1.381 . S
C7 C8 1.321 . S
C8 C7 1.321 . S
C8 C9 1.403 . S
C8 H34 0.934 . S
C9 C4 1.413 . S
C9 C8 1.403 . S
C9 H35 0.930 . S
C10 O24 1.275 . S
C10 O25 1.256 . S
C11 O26 1.259 . S
C11 O27 1.268 . S
C12 Ho1 2.811 1_655 S
C12 C13 1.488 . S
C12 O28 1.215 . S
C12 O29 1.289 . S
C13 C12 1.488 . S
C13 C14 1.348 . S
C13 C18 1.413 . S
C14 C13 1.348 . S
C14 C15 1.442 . S
C14 H36 0.930 . S
C15 C14 1.442 . S
C15 C16 1.381 . S
C15 H37 0.931 . S
C16 C15 1.381 . S
C16 C17 1.321 . S
C17 C16 1.321 . S
C17 C18 1.403 . S
C17 H38 0.934 . S
C18 C13 1.413 . S
C18 C17 1.403 . S
C18 H39 0.930 . S
C19 O30 1.275 . S
C19 O31 1.256 . S
O20 Ho0 2.322 . S
O20 C2 1.259 . S
O21 Ho1 2.346 . S
O21 C2 1.268 . S
O22 Ho0 2.378 . S
O22 C3 1.215 . S
O23 Ho0 2.524 . S
O23 C3 1.289 . S
O24 Ho0 2.381 . S
O24 C10 1.275 . S
O25 Ho0 2.669 . S
O25 Ho1 2.305 . S
O25 C10 1.256 . S
O26 Ho1 2.322 1_655 S
O26 C11 1.259 . S
O27 Ho0 2.346 1_655 S
O27 C11 1.268 . S
O28 Ho1 2.378 1_655 S
O28 C12 1.215 . S
O29 Ho1 2.524 1_655 S
O29 C12 1.289 . S
O30 Ho1 2.381 . S
O30 C19 1.275 . S
O31 Ho0 2.305 . S
O31 Ho1 2.669 . S
O31 C19 1.256 . S
H32 C5 0.930 . S
H33 C6 0.931 . S
H34 C8 0.934 . S
H35 C9 0.930 . S
H36 C14 0.930 . S
H37 C15 0.931 . S
H38 C17 0.934 . S
H39 C18 0.930 . S
Ho40 C43 2.811 1_545 S
Ho40 O60 2.322 1_545 S
Ho40 O62 2.378 1_545 S
Ho40 O63 2.524 1_545 S
Ho40 O64 2.381 . S
Ho40 O65 2.669 . S
Ho40 O67 2.346 . S
Ho40 O71 2.305 . S
Ho41 C52 2.811 . S
Ho41 O61 2.346 1_545 S
Ho41 O65 2.305 . S
Ho41 O66 2.322 . S
Ho41 O68 2.378 . S
Ho41 O69 2.524 . S
Ho41 O70 2.381 . S
Ho41 O71 2.669 . S
C42 O60 1.259 . S
C42 O61 1.268 . S
C43 Ho40 2.811 1_565 S
C43 C44 1.488 . S
C43 O62 1.215 . S
C43 O63 1.289 . S
C44 C43 1.488 . S
C44 C45 1.348 . S
C44 C49 1.413 . S
C45 C44 1.348 . S
C45 C46 1.442 . S
C45 H72 0.930 . S
C46 C45 1.442 . S
C46 C47 1.381 . S
C46 H73 0.931 . S
C47 C46 1.381 . S
C47 C48 1.321 . S
C48 C47 1.321 . S
C48 C49 1.403 . S
C48 H74 0.934 . S
C49 C44 1.413 . S
C49 C48 1.403 . S
C49 H75 0.930 . S
C50 O64 1.275 . S
C50 O65 1.256 . S
C51 O66 1.259 . S
C51 O67 1.268 . S
C52 Ho41 2.811 . S
C52 C53 1.488 . S
C52 O68 1.215 . S
C52 O69 1.289 . S
C53 C52 1.488 . S
C53 C54 1.348 . S
C53 C58 1.413 . S
C54 C53 1.348 . S
C54 C55 1.442 . S
C54 H76 0.930 . S
C55 C54 1.442 . S
C55 C56 1.381 . S
C55 H77 0.931 . S
C56 C55 1.381 . S
C56 C57 1.321 . S
C57 C56 1.321 . S
C57 C58 1.403 . S
C57 H78 0.934 . S
C58 C53 1.413 . S
C58 C57 1.403 . S
C58 H79 0.930 . S
C59 O70 1.275 . S
C59 O71 1.256 . S
O60 Ho40 2.322 1_565 S
O60 C42 1.259 . S
O61 Ho41 2.346 1_565 S
O61 C42 1.268 . S
O62 Ho40 2.378 1_565 S
O62 C43 1.215 . S
O63 Ho40 2.524 1_565 S
O63 C43 1.289 . S
O64 Ho40 2.381 . S
O64 C50 1.275 . S
O65 Ho40 2.669 . S
O65 Ho41 2.305 . S
O65 C50 1.256 . S
O66 Ho41 2.322 . S
O66 C51 1.259 . S
O67 Ho40 2.346 . S
O67 C51 1.268 . S
O68 Ho41 2.378 . S
O68 C52 1.215 . S
O69 Ho41 2.524 . S
O69 C52 1.289 . S
O70 Ho41 2.381 . S
O70 C59 1.275 . S
O71 Ho40 2.305 . S
O71 Ho41 2.669 . S
O71 C59 1.256 . S
H72 C45 0.930 . S
H73 C46 0.931 . S
H74 C48 0.934 . S
H75 C49 0.930 . S
H76 C54 0.930 . S
H77 C55 0.931 . S
H78 C57 0.934 . S
H79 C58 0.930 . S
Ho80 C83 2.811 . S
Ho80 O100 2.322 . S
Ho80 O102 2.378 . S
Ho80 O103 2.524 . S
Ho80 O104 2.381 . S
Ho80 O105 2.669 . S
Ho80 O107 2.346 . S
Ho80 O111 2.305 . S
Ho81 C92 2.811 . S
Ho81 O101 2.346 . S
Ho81 O105 2.305 . S
Ho81 O106 2.322 . S
Ho81 O108 2.378 . S
Ho81 O109 2.524 . S
Ho81 O110 2.381 . S
Ho81 O111 2.669 . S
C82 O100 1.259 . S
C82 O101 1.268 . S
C83 Ho80 2.811 . S
C83 C84 1.488 . S
C83 O102 1.215 . S
C83 O103 1.289 . S
C84 C83 1.488 . S
C84 C85 1.348 . S
C84 C89 1.413 . S
C85 C84 1.348 . S
C85 C86 1.442 . S
C85 H112 0.930 . S
C86 C85 1.442 . S
C86 C87 1.381 . S
C86 H113 0.931 . S
C87 C86 1.381 . S
C87 C88 1.321 . S
C88 C87 1.321 . S
C88 C89 1.403 . S
C88 H114 0.934 . S
C89 C84 1.413 . S
C89 C88 1.403 . S
C89 H115 0.930 . S
C90 O104 1.275 . S
C90 O105 1.256 . S
C91 O106 1.259 . S
C91 O107 1.268 . S
C92 Ho81 2.811 . S
C92 C93 1.488 . S
C92 O108 1.215 . S
C92 O109 1.289 . S
C93 C92 1.488 . S
C93 C94 1.348 . S
C93 C98 1.413 . S
C94 C93 1.348 . S
C94 C95 1.442 . S
C94 H116 0.930 . S
C95 C94 1.442 . S
C95 C96 1.381 . S
C95 H117 0.931 . S
C96 C95 1.381 . S
C96 C97 1.321 . S
C97 C96 1.321 . S
C97 C98 1.403 . S
C97 H118 0.934 . S
C98 C93 1.413 . S
C98 C97 1.403 . S
C98 H119 0.930 . S
C99 O110 1.275 . S
C99 O111 1.256 . S
O100 Ho80 2.322 . S
O100 C82 1.259 . S
O101 Ho81 2.346 . S
O101 C82 1.268 . S
O102 Ho80 2.378 . S
O102 C83 1.215 . S
O103 Ho80 2.524 . S
O103 C83 1.289 . S
O104 Ho80 2.381 . S
O104 C90 1.275 . S
O105 Ho80 2.669 . S
O105 Ho81 2.305 . S
O105 C90 1.256 . S
O106 Ho81 2.322 . S
O106 C91 1.259 . S
O107 Ho80 2.346 . S
O107 C91 1.268 . S
O108 Ho81 2.378 . S
O108 C92 1.215 . S
O109 Ho81 2.524 . S
O109 C92 1.289 . S
O110 Ho81 2.381 . S
O110 C99 1.275 . S
O111 Ho80 2.305 . S
O111 Ho81 2.669 . S
O111 C99 1.256 . S
H112 C85 0.930 . S
H113 C86 0.931 . S
H114 C88 0.934 . S
H115 C89 0.930 . S
H116 C94 0.930 . S
H117 C95 0.931 . S
H118 C97 0.934 . S
H119 C98 0.930 . S
H120 C121 0.949 . S
C121 H120 0.949 . S
C121 C122 1.395 . S
C121 C123 1.391 . S
C122 C121 1.395 . S
C122 C125 1.374 1_545 S
C123 C121 1.391 . S
C123 C127 1.387 . S
C123 C128 1.491 . S
H124 C125 0.967 . S
C125 C122 1.374 1_565 S
C125 H124 0.967 . S
C125 C126 1.378 . S
C126 C125 1.378 . S
C126 C127 1.409 1_565 S
C127 C123 1.387 . S
C127 C126 1.409 1_545 S
C127 H129 0.951 . S
C128 C123 1.491 . S
C128 C130 1.382 . S
C128 C132 1.404 . S
H129 C127 0.951 . S
C130 C128 1.382 . S
C130 C131 1.390 . S
C130 H135 0.949 . S
C131 C130 1.390 . S
C131 C136 1.399 . S
C132 C128 1.404 . S
C132 H133 0.950 . S
C132 C134 1.375 . S
H133 C132 0.950 . S
C134 C132 1.375 . S
C134 C136 1.382 . S
C134 H138 0.950 . S
H135 C130 0.949 . S
C136 C131 1.399 . S
C136 C134 1.382 . S
C136 H137 0.952 . S
H137 C136 0.952 . S
H138 C134 0.950 . S
H139 C140 0.949 . S
C140 H139 0.949 . S
C140 C141 1.395 . S
C140 C142 1.391 . S
C141 C140 1.395 . S
C141 C144 1.390 . S
C142 C140 1.391 . S
C142 C146 1.387 . S
C142 C147 1.491 . S
H143 C144 0.950 . S
C144 C141 1.390 . S
C144 H143 0.950 . S
C144 C145 1.378 . S
C145 C144 1.378 . S
C145 C146 1.409 . S
C146 C142 1.387 . S
C146 C145 1.409 . S
C146 H148 0.951 . S
C147 C142 1.491 . S
C147 C149 1.382 . S
C147 C151 1.404 . S
H148 C146 0.951 . S
C149 C147 1.382 . S
C149 C150 1.390 . S
C149 H154 0.949 . S
C150 C149 1.390 . S
C150 C155 1.399 . S
C151 C147 1.404 . S
C151 H152 0.950 . S
C151 C153 1.375 . S
H152 C151 0.950 . S
C153 C151 1.375 . S
C153 C155 1.382 . S
C153 H157 0.950 . S
H154 C149 0.949 . S
C155 C150 1.399 . S
C155 C153 1.382 . S
C155 H156 0.952 . S
H156 C155 0.952 . S
H157 C153 0.950 . S
H158 C159 0.949 . S
C159 H158 0.949 . S
C159 C160 1.395 . S
C159 C161 1.391 . S
C160 C159 1.395 . S
C160 C163 1.390 . S
C161 C159 1.391 . S
C161 C165 1.387 . S
C161 C166 1.491 . S
H162 C163 0.950 1_655 S
C163 C160 1.390 . S
C163 H162 0.950 1_455 S
C163 C164 1.378 . S
C164 C163 1.378 . S
C164 C165 1.409 . S
C165 C161 1.387 . S
C165 C164 1.409 . S
C165 H167 0.951 . S
C166 C161 1.491 . S
C166 C168 1.382 . S
C166 C170 1.404 . S
H167 C165 0.951 . S
C168 C166 1.382 . S
C168 C169 1.390 . S
C168 H173 0.949 . S
C169 C168 1.390 . S
C169 C174 1.399 . S
C170 C166 1.404 . S
C170 H171 0.950 . S
C170 C172 1.375 . S
H171 C170 0.950 . S
C172 C170 1.375 . S
C172 C174 1.382 . S
C172 H176 0.950 . S
H173 C168 0.949 . S
C174 C169 1.399 . S
C174 C172 1.382 . S
C174 H175 0.952 . S
H175 C174 0.952 . S
H176 C172 0.950 . S
H177 C178 0.949 . S
C178 H177 0.949 . S
C178 C179 1.395 1_655 S
C178 C180 1.391 1_655 S
C179 C178 1.395 1_455 S
C179 C182 1.390 . S
C180 C178 1.391 1_455 S
C180 C184 1.387 . S
C180 C185 1.491 1_455 S
H181 C182 0.950 . S
C182 C179 1.390 . S
C182 H181 0.950 . S
C182 C183 1.378 . S
C183 C182 1.378 . S
C183 C184 1.409 . S
C184 C180 1.387 . S
C184 C183 1.409 . S
C184 H186 0.951 . S
C185 C180 1.491 1_655 S
C185 C187 1.382 . S
C185 C189 1.404 . S
H186 C184 0.951 . S
C187 C185 1.382 . S
C187 C188 1.390 . S
C187 H192 0.949 . S
C188 C187 1.390 . S
C188 C193 1.399 . S
C189 C185 1.404 . S
C189 H190 0.950 . S
C189 C191 1.375 . S
H190 C189 0.950 . S
C191 C189 1.375 . S
C191 C193 1.382 . S
C191 H195 0.950 . S
H192 C187 0.949 . S
C193 C188 1.399 . S
C193 C191 1.382 . S
C193 H194 0.952 . S
H194 C193 0.952 . S
H195 C191 0.950 . S
H196 C197 0.949 . S
C197 H196 0.949 . S
C197 C198 1.395 . S
C197 C199 1.391 . S
C198 C197 1.395 . S
C198 C201 1.390 . S
C199 C197 1.391 . S
C199 C203 1.387 . S
C199 C204 1.491 . S
H200 C201 0.950 . S
C201 C198 1.390 . S
C201 H200 0.950 . S
C201 C202 1.378 . S
C202 C201 1.378 . S
C202 C203 1.409 . S
C203 C199 1.387 . S
C203 C202 1.409 . S
C203 H205 0.951 . S
C204 C199 1.491 . S
C204 C206 1.382 1_545 S
C204 C208 1.404 1_545 S
H205 C203 0.951 . S
C206 C204 1.382 1_565 S
C206 C207 1.390 . S
C206 H211 0.949 . S
C207 C206 1.390 . S
C207 C212 1.399 . S
C208 C204 1.404 1_565 S
C208 H209 0.950 1_565 S
C208 C210 1.375 . S
H209 C208 0.950 1_545 S
C210 C208 1.375 . S
C210 C212 1.382 . S
C210 H214 0.950 . S
H211 C206 0.949 . S
C212 C207 1.399 . S
C212 C210 1.382 . S
C212 H213 0.952 . S
H213 C212 0.952 . S
H214 C210 0.950 . S
H215 C216 0.949 . S
C216 H215 0.949 . S
C216 C217 1.395 . S
C216 C218 1.391 . S
C217 C216 1.395 . S
C217 C220 1.390 . S
C218 C216 1.391 . S
C218 C222 1.387 . S
C218 C223 1.491 . S
H219 C220 0.950 . S
C220 C217 1.390 . S
C220 H219 0.950 . S
C220 C221 1.378 . S
C221 C220 1.378 . S
C221 C222 1.409 . S
C222 C218 1.387 . S
C222 C221 1.409 . S
C222 H224 0.951 . S
C223 C218 1.491 . S
C223 C225 1.382 . S
C223 C227 1.404 . S
H224 C222 0.951 . S
C225 C223 1.382 . S
C225 C226 1.390 . S
C225 H230 0.949 . S
C226 C225 1.390 . S
C226 C231 1.399 . S
C227 C223 1.404 . S
C227 H228 0.950 . S
C227 C229 1.375 . S
H228 C227 0.950 . S
C229 C227 1.375 . S
C229 C231 1.382 . S
C229 H233 0.950 . S
H230 C225 0.949 . S
C231 C226 1.399 . S
C231 C229 1.382 . S
C231 H232 0.952 . S
H232 C231 0.952 . S
H233 C229 0.950 . S
H234 C240 0.930 . S
H235 C244 0.930 . S
H236 C249 0.929 . S
H237 C247 0.929 . S
H238 C242 0.929 . S
H239 C248 0.929 . S
C240 H234 0.930 . S
C240 C241 1.367 . S
C240 C248 1.378 . S
C241 C240 1.367 . S
C241 C249 1.433 . S
C242 H238 0.929 . S
C242 C244 1.378 . S
C242 C246 1.350 . S
C243 C246 1.463 . S
C243 C248 1.350 . S
C243 N251 1.427 . S
C244 H235 0.930 . S
C244 C242 1.378 . S
C244 C245 1.367 . S
C245 C244 1.367 . S
C245 C247 1.433 . S
C246 C242 1.350 . S
C246 C243 1.463 . S
C246 N250 1.427 . S
C247 H237 0.929 . S
C247 C245 1.433 . S
C247 N250 1.384 . S
C248 H239 0.929 . S
C248 C240 1.378 . S
C248 C243 1.350 . S
C249 H236 0.929 . S
C249 C241 1.433 . S
C249 N251 1.384 . S
N250 C246 1.427 . S
N250 C247 1.384 . S
N251 C243 1.427 . S
N251 C249 1.384 . S
H252 C258 0.930 . S
H253 C262 0.930 . S
H254 C267 0.929 . S
H255 C265 0.929 . S
H256 C260 0.929 . S
H257 C266 0.929 . S
C258 H252 0.930 . S
C258 C259 1.367 . S
C258 C266 1.378 . S
C259 C258 1.367 . S
C259 C267 1.433 . S
C260 H256 0.929 . S
C260 C262 1.378 . S
C260 C264 1.350 . S
C261 C264 1.463 . S
C261 C266 1.350 . S
C261 N269 1.427 . S
C262 H253 0.930 . S
C262 C260 1.378 . S
C262 C263 1.367 . S
C263 C262 1.367 . S
C263 C265 1.433 . S
C264 C260 1.350 . S
C264 C261 1.463 . S
C264 N268 1.427 . S
C265 H255 0.929 . S
C265 C263 1.433 . S
C265 N268 1.384 . S
C266 H257 0.929 . S
C266 C258 1.378 . S
C266 C261 1.350 . S
C267 H254 0.929 . S
C267 C259 1.433 . S
C267 N269 1.384 . S
N268 C264 1.427 . S
N268 C265 1.384 . S
N269 C261 1.427 . S
N269 C267 1.384 . S
H270 C276 0.930 . S
H271 C280 0.930 . S
H272 C285 0.929 . S
H273 C283 0.929 . S
H274 C278 0.929 . S
H275 C284 0.929 . S
C276 H270 0.930 . S
C276 C277 1.367 . S
C276 C284 1.378 . S
C277 C276 1.367 . S
C277 C285 1.433 . S
C278 H274 0.929 . S
C278 C280 1.378 . S
C278 C282 1.350 . S
C279 C282 1.463 . S
C279 C284 1.350 . S
C279 N287 1.427 . S
C280 H271 0.930 . S
C280 C278 1.378 . S
C280 C281 1.367 . S
C281 C280 1.367 . S
C281 C283 1.433 . S
C282 C278 1.350 . S
C282 C279 1.463 . S
C282 N286 1.427 . S
C283 H273 0.929 . S
C283 C281 1.433 . S
C283 N286 1.384 . S
C284 H275 0.929 . S
C284 C276 1.378 . S
C284 C279 1.350 . S
C285 H272 0.929 . S
C285 C277 1.433 . S
C285 N287 1.384 . S
N286 C282 1.427 . S
N286 C283 1.384 . S
N287 C279 1.427 . S
N287 C285 1.384 . S
H288 C294 0.930 . S
H289 C298 0.930 . S
H290 C303 0.929 . S
H291 C301 0.929 . S
H292 C296 0.929 . S
H293 C302 0.929 . S
C294 H288 0.930 . S
C294 C295 1.367 . S
C294 C302 1.378 . S
C295 C294 1.367 . S
C295 C303 1.433 . S
C296 H292 0.929 . S
C296 C298 1.378 . S
C296 C300 1.350 . S
C297 C300 1.463 . S
C297 C302 1.350 . S
C297 N305 1.427 . S
C298 H289 0.930 . S
C298 C296 1.378 . S
C298 C299 1.367 . S
C299 C298 1.367 . S
C299 C301 1.433 . S
C300 C296 1.350 . S
C300 C297 1.463 . S
C300 N304 1.427 . S
C301 H291 0.929 . S
C301 C299 1.433 . S
C301 N304 1.384 . S
C302 H293 0.929 . S
C302 C294 1.378 . S
C302 C297 1.350 . S
C303 H290 0.929 . S
C303 C295 1.433 . S
C303 N305 1.384 . S
N304 C300 1.427 . S
N304 C301 1.384 . S
N305 C297 1.427 . S
N305 C303 1.384 . S
H306 C312 0.930 . S
H307 C316 0.930 . S
H308 C321 0.929 . S
H309 C319 0.929 . S
H310 C314 0.929 . S
H311 C320 0.929 . S
C312 H306 0.930 . S
C312 C313 1.367 . S
C312 C320 1.378 . S
C313 C312 1.367 . S
C313 C321 1.433 . S
C314 H310 0.929 . S
C314 C316 1.378 . S
C314 C318 1.350 . S
C315 C318 1.463 . S
C315 C320 1.350 . S
C315 N323 1.427 . S
C316 H307 0.930 . S
C316 C314 1.378 . S
C316 C317 1.367 . S
C317 C316 1.367 . S
C317 C319 1.433 . S
C318 C314 1.350 . S
C318 C315 1.463 . S
C318 N322 1.427 . S
C319 H309 0.929 . S
C319 C317 1.433 . S
C319 N322 1.384 . S
C320 H311 0.929 . S
C320 C312 1.378 . S
C320 C315 1.350 . S
C321 H308 0.929 . S
C321 C313 1.433 . S
C321 N323 1.384 . S
N322 C318 1.427 . S
N322 C319 1.384 . S
N323 C315 1.427 . S
N323 C321 1.384 . S
H324 C330 0.930 . S
H325 C334 0.930 . S
H326 C339 0.929 . S
H327 C337 0.929 . S
H328 C332 0.929 . S
H329 C338 0.929 . S
C330 H324 0.930 . S
C330 C331 1.367 . S
C330 C338 1.378 . S
C331 C330 1.367 . S
C331 C339 1.433 . S
C332 H328 0.929 . S
C332 C334 1.378 . S
C332 C336 1.350 . S
C333 C336 1.463 . S
C333 C338 1.350 . S
C333 N341 1.427 . S
C334 H325 0.930 . S
C334 C332 1.378 . S
C334 C335 1.367 . S
C335 C334 1.367 . S
C335 C337 1.433 . S
C336 C332 1.350 . S
C336 C333 1.463 . S
C336 N340 1.427 . S
C337 H327 0.929 . S
C337 C335 1.433 . S
C337 N340 1.384 . S
C338 H329 0.929 . S
C338 C330 1.378 . S
C338 C333 1.350 . S
C339 H326 0.929 . S
C339 C331 1.433 . S
C339 N341 1.384 . S
N340 C336 1.427 . S
N340 C337 1.384 . S
N341 C333 1.427 . S
N341 C339 1.384 . S
H342 C348 0.930 . S
H343 C352 0.930 . S
H344 C357 0.929 . S
H345 C355 0.929 . S
H346 C350 0.929 . S
H347 C356 0.929 . S
C348 H342 0.930 . S
C348 C349 1.367 . S
C348 C356 1.378 . S
C349 C348 1.367 . S
C349 C357 1.433 . S
C350 H346 0.929 . S
C350 C352 1.378 . S
C350 C354 1.350 . S
C351 C354 1.463 . S
C351 C356 1.350 . S
C351 N359 1.427 . S
C352 H343 0.930 . S
C352 C350 1.378 . S
C352 C353 1.367 . S
C353 C352 1.367 . S
C353 C355 1.433 . S
C354 C350 1.350 . S
C354 C351 1.463 . S
C354 N358 1.427 . S
C355 H345 0.929 . S
C355 C353 1.433 . S
C355 N358 1.384 . S
C356 H347 0.929 . S
C356 C348 1.378 . S
C356 C351 1.350 . S
C357 H344 0.929 . S
C357 C349 1.433 . S
C357 N359 1.384 . S
N358 C354 1.427 . S
N358 C355 1.384 . S
N359 C351 1.427 . S
N359 C357 1.384 . S
H360 C366 0.930 . S
H361 C370 0.930 . S
H362 C375 0.929 . S
H363 C373 0.929 . S
H364 C368 0.929 . S
H365 C374 0.929 . S
C366 H360 0.930 . S
C366 C367 1.367 . S
C366 C374 1.378 . S
C367 C366 1.367 . S
C367 C375 1.433 . S
C368 H364 0.929 . S
C368 C370 1.378 . S
C368 C372 1.350 . S
C369 C372 1.463 . S
C369 C374 1.350 . S
C369 N377 1.427 . S
C370 H361 0.930 . S
C370 C368 1.378 . S
C370 C371 1.367 . S
C371 C370 1.367 . S
C371 C373 1.433 . S
C372 C368 1.350 . S
C372 C369 1.463 . S
C372 N376 1.427 . S
C373 H363 0.929 . S
C373 C371 1.433 . S
C373 N376 1.384 . S
C374 H365 0.929 . S
C374 C366 1.378 . S
C374 C369 1.350 . S
C375 H362 0.929 . S
C375 C367 1.433 . S
C375 N377 1.384 . S
N376 C372 1.427 . S
N376 C373 1.384 . S
N377 C369 1.427 . S
N377 C375 1.384 . S
H378 C384 0.930 . S
H379 C388 0.930 . S
H380 C393 0.929 . S
H381 C391 0.929 . S
H382 C386 0.929 . S
H383 C392 0.929 . S
C384 H378 0.930 . S
C384 C385 1.367 . S
C384 C392 1.378 . S
C385 C384 1.367 . S
C385 C393 1.433 . S
C386 H382 0.929 . S
C386 C388 1.378 . S
C386 C390 1.350 . S
C387 C390 1.463 . S
C387 C392 1.350 . S
C387 N395 1.427 . S
C388 H379 0.930 . S
C388 C386 1.378 . S
C388 C389 1.367 . S
C389 C388 1.367 . S
C389 C391 1.433 . S
C390 C386 1.350 . S
C390 C387 1.463 . S
C390 N394 1.427 . S
C391 H381 0.929 . S
C391 C389 1.433 . S
C391 N394 1.384 . S
C392 H383 0.929 . S
C392 C384 1.378 . S
C392 C387 1.350 . S
C393 H380 0.929 . S
C393 C385 1.433 . S
C393 N395 1.384 . S
N394 C390 1.427 . S
N394 C391 1.384 . S
N395 C387 1.427 . S
N395 C393 1.384 . S
H396 C402 0.930 . S
H397 C406 0.930 . S
H398 C411 0.929 . S
H399 C409 0.929 . S
H400 C404 0.929 . S
H401 C410 0.929 . S
C402 H396 0.930 . S
C402 C403 1.367 . S
C402 C410 1.378 . S
C403 C402 1.367 . S
C403 C411 1.433 . S
C404 H400 0.929 . S
C404 C406 1.378 . S
C404 C408 1.350 . S
C405 C408 1.463 . S
C405 C410 1.350 . S
C405 N413 1.427 . S
C406 H397 0.930 . S
C406 C404 1.378 . S
C406 C407 1.367 . S
C407 C406 1.367 . S
C407 C409 1.433 . S
C408 C404 1.350 . S
C408 C405 1.463 . S
C408 N412 1.427 . S
C409 H399 0.929 . S
C409 C407 1.433 . S
C409 N412 1.384 . S
C410 H401 0.929 . S
C410 C402 1.378 . S
C410 C405 1.350 . S
C411 H398 0.929 . S
C411 C403 1.433 . S
C411 N413 1.384 . S
N412 C408 1.427 . S
N412 C409 1.384 . S
N413 C405 1.427 . S
N413 C411 1.384 . S
H414 C420 0.930 . S
H415 C424 0.930 . S
H416 C429 0.929 . S
H417 C427 0.929 . S
H418 C422 0.929 . S
H419 C428 0.929 . S
C420 H414 0.930 . S
C420 C421 1.367 . S
C420 C428 1.378 . S
C421 C420 1.367 . S
C421 C429 1.433 . S
C422 H418 0.929 . S
C422 C424 1.378 . S
C422 C426 1.350 . S
C423 C426 1.463 . S
C423 C428 1.350 . S
C423 N431 1.427 . S
C424 H415 0.930 . S
C424 C422 1.378 . S
C424 C425 1.367 . S
C425 C424 1.367 . S
C425 C427 1.433 . S
C426 C422 1.350 . S
C426 C423 1.463 . S
C426 N430 1.427 . S
C427 H417 0.929 . S
C427 C425 1.433 . S
C427 N430 1.384 . S
C428 H419 0.929 . S
C428 C420 1.378 . S
C428 C423 1.350 . S
C429 H416 0.929 . S
C429 C421 1.433 . S
C429 N431 1.384 . S
N430 C426 1.427 . S
N430 C427 1.384 . S
N431 C423 1.427 . S
N431 C429 1.384 . S
H432 C438 0.930 . S
H433 C442 0.930 . S
H434 C447 0.929 . S
H435 C445 0.929 . S
H436 C440 0.929 . S
H437 C446 0.929 . S
C438 H432 0.930 . S
C438 C439 1.367 . S
C438 C446 1.378 . S
C439 C438 1.367 . S
C439 C447 1.433 . S
C440 H436 0.929 . S
C440 C442 1.378 . S
C440 C444 1.350 . S
C441 C444 1.463 . S
C441 C446 1.350 . S
C441 N449 1.427 . S
C442 H433 0.930 . S
C442 C440 1.378 . S
C442 C443 1.367 . S
C443 C442 1.367 . S
C443 C445 1.433 . S
C444 C440 1.350 . S
C444 C441 1.463 . S
C444 N448 1.427 . S
C445 H435 0.929 . S
C445 C443 1.433 . S
C445 N448 1.384 . S
C446 H437 0.929 . S
C446 C438 1.378 . S
C446 C441 1.350 . S
C447 H434 0.929 . S
C447 C439 1.433 . S
C447 N449 1.384 . S
N448 C444 1.427 . S
N448 C445 1.384 . S
N449 C441 1.427 . S
N449 C447 1.384 . S
H450 C456 0.930 1_655 S
H451 C460 0.930 . S
H452 C465 0.929 . S
H453 C463 0.929 1_655 S
H454 C458 0.925 1_554 S
H455 C464 0.929 1_655 S
C456 H450 0.930 1_455 S
C456 C457 1.367 . S
C456 C464 1.378 . S
C457 C456 1.367 . S
C457 C465 1.433 . S
C458 H454 0.925 1_556 S
C458 C460 1.378 . S
C458 C462 1.350 . S
C459 C462 1.463 1_554 S
C459 C464 1.350 . S
C459 N467 1.427 . S
C460 H451 0.930 . S
C460 C458 1.378 . S
C460 C461 1.367 . S
C461 C460 1.367 . S
C461 C463 1.433 . S
C462 C458 1.350 . S
C462 C459 1.463 1_556 S
C462 N466 1.427 . S
C463 H453 0.929 1_455 S
C463 C461 1.433 . S
C463 N466 1.384 . S
C464 H455 0.929 1_455 S
C464 C456 1.378 . S
C464 C459 1.350 . S
C465 H452 0.929 . S
C465 C457 1.433 . S
C465 N467 1.384 . S
N466 C462 1.427 . S
N466 C463 1.384 . S
N467 C459 1.427 . S
N467 C465 1.384 . S
H468 C474 0.930 . S
H469 C478 0.930 . S
H470 C483 0.929 . S
H471 C481 0.929 . S
H472 C476 0.929 . S
H473 C482 0.929 . S
C474 H468 0.930 . S
C474 C475 1.367 . S
C474 C482 1.378 . S
C475 C474 1.367 . S
C475 C483 1.433 . S
C476 H472 0.929 . S
C476 C478 1.378 . S
C476 C480 1.350 . S
C477 C480 1.463 . S
C477 C482 1.350 . S
C477 N485 1.427 . S
C478 H469 0.930 . S
C478 C476 1.378 . S
C478 C479 1.367 . S
C479 C478 1.367 . S
C479 C481 1.433 . S
C480 C476 1.350 . S
C480 C477 1.463 . S
C480 N484 1.427 . S
C481 H471 0.929 . S
C481 C479 1.433 . S
C481 N484 1.384 . S
C482 H473 0.929 . S
C482 C474 1.378 . S
C482 C477 1.350 . S
C483 H470 0.929 . S
C483 C475 1.433 . S
C483 N485 1.384 . S
N484 C480 1.427 . S
N484 C481 1.384 . S
N485 C477 1.427 . S
N485 C483 1.384 . S
H486 C492 0.930 . S
H487 C496 0.930 . S
H488 C501 0.929 . S
H489 C499 0.929 . S
H490 C494 0.929 . S
H491 C500 0.929 . S
C492 H486 0.930 . S
C492 C493 1.367 . S
C492 C500 1.378 . S
C493 C492 1.367 . S
C493 C501 1.433 . S
C494 H490 0.929 . S
C494 C496 1.378 . S
C494 C498 1.350 . S
C495 C498 1.463 . S
C495 C500 1.350 . S
C495 N503 1.427 . S
C496 H487 0.930 . S
C496 C494 1.378 . S
C496 C497 1.367 . S
C497 C496 1.367 . S
C497 C499 1.433 . S
C498 C494 1.350 . S
C498 C495 1.463 . S
C498 N502 1.427 . S
C499 H489 0.929 . S
C499 C497 1.433 . S
C499 N502 1.384 . S
C500 H491 0.929 . S
C500 C492 1.378 . S
C500 C495 1.350 . S
C501 H488 0.929 . S
C501 C493 1.433 . S
C501 N503 1.384 . S
N502 C498 1.427 . S
N502 C499 1.384 . S
N503 C495 1.427 . S
N503 C501 1.384 . S
H504 C510 0.930 . S
H505 C514 0.930 . S
H506 C519 0.929 . S
H507 C517 0.929 . S
H508 C512 0.929 . S
H509 C518 0.929 . S
C510 H504 0.930 . S
C510 C511 1.367 . S
C510 C518 1.378 . S
C511 C510 1.367 . S
C511 C519 1.433 . S
C512 H508 0.929 . S
C512 C514 1.378 . S
C512 C516 1.350 . S
C513 C516 1.463 . S
C513 C518 1.350 . S
C513 N521 1.427 . S
C514 H505 0.930 . S
C514 C512 1.378 . S
C514 C515 1.367 . S
C515 C514 1.367 . S
C515 C517 1.433 . S
C516 C512 1.350 . S
C516 C513 1.463 . S
C516 N520 1.427 . S
C517 H507 0.929 . S
C517 C515 1.433 . S
C517 N520 1.384 . S
C518 H509 0.929 . S
C518 C510 1.378 . S
C518 C513 1.350 . S
C519 H506 0.929 . S
C519 C511 1.433 . S
C519 N521 1.384 . S
N520 C516 1.427 . S
N520 C517 1.384 . S
N521 C513 1.427 . S
N521 C519 1.384 . S
H522 C528 0.930 . S
H523 C532 0.930 . S
H524 C537 0.929 . S
H525 C535 0.929 . S
H526 C530 0.929 . S
H527 C536 0.929 . S
C528 H522 0.930 . S
C528 C529 1.367 . S
C528 C536 1.378 . S
C529 C528 1.367 . S
C529 C537 1.433 . S
C530 H526 0.929 . S
C530 C532 1.378 . S
C530 C534 1.350 1_554 S
C531 C534 1.463 . S
C531 C536 1.350 . S
C531 N539 1.427 . S
C532 H523 0.930 . S
C532 C530 1.378 . S
C532 C533 1.367 . S
C533 C532 1.367 . S
C533 C535 1.433 . S
C534 C530 1.350 1_556 S
C534 C531 1.463 . S
C534 N538 1.427 1_556 S
C535 H525 0.929 . S
C535 C533 1.433 . S
C535 N538 1.384 . S
C536 H527 0.929 . S
C536 C528 1.378 . S
C536 C531 1.350 . S
C537 H524 0.929 . S
C537 C529 1.433 . S
C537 N539 1.384 . S
N538 C534 1.427 1_554 S
N538 C535 1.384 . S
N539 C531 1.427 . S
N539 C537 1.384 . S
H540 C546 0.930 . S
H541 C550 0.930 . S
H542 C555 0.929 . S
H543 C553 0.929 . S
H544 C548 0.929 . S
H545 C554 0.929 . S
C546 H540 0.930 . S
C546 C547 1.367 . S
C546 C554 1.378 . S
C547 C546 1.367 . S
C547 C555 1.433 . S
C548 H544 0.929 . S
C548 C550 1.378 . S
C548 C552 1.350 . S
C549 C552 1.463 . S
C549 C554 1.350 . S
C549 N557 1.427 . S
C550 H541 0.930 . S
C550 C548 1.378 . S
C550 C551 1.367 . S
C551 C550 1.367 . S
C551 C553 1.433 . S
C552 C548 1.350 . S
C552 C549 1.463 . S
C552 N556 1.427 . S
C553 H543 0.929 . S
C553 C551 1.433 . S
C553 N556 1.384 . S
C554 H545 0.929 . S
C554 C546 1.378 . S
C554 C549 1.350 . S
C555 H542 0.929 . S
C555 C547 1.433 . S
C555 N557 1.384 . S
N556 C552 1.427 . S
N556 C553 1.384 . S
N557 C549 1.427 . S
N557 C555 1.384 . S
C241 C7 0.773 . S
C245 C226 0.761 . S
C259 C51 2.001 . S
C263 C188 1.936 . S
C277 C87 1.302 . S
C281 C207 1.244 . S
C295 C16 0.298 . S
C299 C221 0.157 . S
C317 C183 1.871 . S
C313 C42 1.904 . S
C335 C202 1.117 . S
C331 C96 1.133 . S
C349 C47 1.351 . S
C353 C150 1.277 . S
C367 C91 3.065 . S
C371 C164 3.029 1_655 S
C385 C2 1.919 . S
C389 C126 1.894 . S
C407 C145 1.112 . S
C403 C56 1.113 . S
C425 C169 3.045 . S
C421 C82 3.107 . S
C439 C11 2.011 . S
C443 C131 1.960 . S
C461 C160 1.721 . S
C457 C19 1.702 . S
C475 C50 1.479 . S
C479 C122 1.529 . S
C493 C99 1.556 . S
C497 C141 1.564 . S
C515 C198 1.559 . S
C511 C59 1.562 . S
C533 C217 1.366 . S
C529 C90 1.345 . S
C547 C10 1.452 . S
C551 C179 1.485 . S
