# Generated by pormake.
# Topology pyr, (3,6)-cn, num edge types: 1
# Building blocks:
#     Node 0, Type 0, BuildingBlock: BELTOD_clean_linker_0, # of connection points: 3
#     Node 1, Type 0, BuildingBlock: BELTOD_clean_linker_0, # of connection points: 3
#     Node 2, Type 0, BuildingBlock: BELTOD_clean_linker_0, # of connection points: 3
#     Node 3, Type 0, BuildingBlock: BELTOD_clean_linker_0, # of connection points: 3
#     Node 4, Type 0, BuildingBlock: BELTOD_clean_linker_0, # of connection points: 3
#     Node 5, Type 0, BuildingBlock: BELTOD_clean_linker_0, # of connection points: 3
#     Node 6, Type 0, BuildingBlock: BELTOD_clean_linker_0, # of connection points: 3
#     Node 7, Type 0, BuildingBlock: BELTOD_clean_linker_0, # of connection points: 3
#     Node 8, Type 1, BuildingBlock: JUFBIX_clean_sbu_0, # of connection points: 6
#     Node 9, Type 1, BuildingBlock: JUFBIX_clean_sbu_0, # of connection points: 6
#     Node 10, Type 1, BuildingBlock: JUFBIX_clean_sbu_0, # of connection points: 6
#     Node 11, Type 1, BuildingBlock: JUFBIX_clean_sbu_0, # of connection points: 6
#     Edge 12, Type (0, 1), BuildingBlock: UVAHIK_clean_linker_0, # of connection points: 2
#     Edge 13, Type (0, 1), BuildingBlock: UVAHIK_clean_linker_0, # of connection points: 2
#     Edge 14, Type (0, 1), BuildingBlock: UVAHIK_clean_linker_0, # of connection points: 2
#     Edge 15, Type (0, 1), BuildingBlock: UVAHIK_clean_linker_0, # of connection points: 2
#     Edge 16, Type (0, 1), BuildingBlock: UVAHIK_clean_linker_0, # of connection points: 2
#     Edge 17, Type (0, 1), BuildingBlock: UVAHIK_clean_linker_0, # of connection points: 2
#     Edge 18, Type (0, 1), BuildingBlock: UVAHIK_clean_linker_0, # of connection points: 2
#     Edge 19, Type (0, 1), BuildingBlock: UVAHIK_clean_linker_0, # of connection points: 2
#     Edge 20, Type (0, 1), BuildingBlock: UVAHIK_clean_linker_0, # of connection points: 2
#     Edge 21, Type (0, 1), BuildingBlock: UVAHIK_clean_linker_0, # of connection points: 2
#     Edge 22, Type (0, 1), BuildingBlock: UVAHIK_clean_linker_0, # of connection points: 2
#     Edge 23, Type (0, 1), BuildingBlock: UVAHIK_clean_linker_0, # of connection points: 2
#     Edge 24, Type (0, 1), BuildingBlock: UVAHIK_clean_linker_0, # of connection points: 2
#     Edge 25, Type (0, 1), BuildingBlock: UVAHIK_clean_linker_0, # of connection points: 2
#     Edge 26, Type (0, 1), BuildingBlock: UVAHIK_clean_linker_0, # of connection points: 2
#     Edge 27, Type (0, 1), BuildingBlock: UVAHIK_clean_linker_0, # of connection points: 2
#     Edge 28, Type (0, 1), BuildingBlock: UVAHIK_clean_linker_0, # of connection points: 2
#     Edge 29, Type (0, 1), BuildingBlock: UVAHIK_clean_linker_0, # of connection points: 2
#     Edge 30, Type (0, 1), BuildingBlock: UVAHIK_clean_linker_0, # of connection points: 2
#     Edge 31, Type (0, 1), BuildingBlock: UVAHIK_clean_linker_0, # of connection points: 2
#     Edge 32, Type (0, 1), BuildingBlock: UVAHIK_clean_linker_0, # of connection points: 2
#     Edge 33, Type (0, 1), BuildingBlock: UVAHIK_clean_linker_0, # of connection points: 2
#     Edge 34, Type (0, 1), BuildingBlock: UVAHIK_clean_linker_0, # of connection points: 2
#     Edge 35, Type (0, 1), BuildingBlock: UVAHIK_clean_linker_0, # of connection points: 2
# Relax obj value: 0.039
# Max RMSD: 0.086
# Mean RMSD: 0.038
data_MOF--net-pyr--node1-JUFBIX_clean_sbu_0--node2-BELTOD_clean_linker_0--edge1-UVAHIK_clean_linker_0
_symmetry_space_group_name_H-M    P1
_symmetry_Int_Tables_number       1
_symmetry_cell_setting            triclinic
loop_
_symmetry_equiv_pos_as_xyz
'x, y, z'
_cell_length_a     53.668677
_cell_length_b     51.729922
_cell_length_c     53.219042
_cell_angle_alpha  86.307973
_cell_angle_beta   90.417502
_cell_angle_gamma 91.819364
loop_
_atom_site_label
_atom_site_type_symbol
_atom_site_fract_x
_atom_site_fract_y
_atom_site_fract_z
_atom_type_partial_charge
P0 P 0.19953 0.18298 0.19567 0.0
H1 H 0.22449 0.19354 0.14717 0.0
H2 H 0.25576 0.17024 0.12517 0.0
H3 H 0.24936 0.10682 0.18183 0.0
H4 H 0.21794 0.13014 0.20362 0.0
H5 H 0.17599 0.22984 0.20856 0.0
H6 H 0.14947 0.26068 0.18553 0.0
H7 H 0.14949 0.21362 0.12135 0.0
H8 H 0.17617 0.18259 0.14476 0.0
H9 H 0.20986 0.17097 0.24906 0.0
H10 H 0.15172 0.15328 0.19601 0.0
O11 O 0.21992 0.20231 0.20989 0.0
H12 H 0.18615 0.14819 0.28289 0.0
H13 H 0.12797 0.12949 0.22982 0.0
C14 C 0.21818 0.1633 0.17664 0.0
C15 C 0.22914 0.17424 0.1544 0.0
C16 C 0.24717 0.16094 0.14189 0.0
C17 C 0.25511 0.13664 0.15172 0.0
C18 C 0.24378 0.12555 0.17381 0.0
C19 C 0.22556 0.13877 0.18615 0.0
C20 C 0.17856 0.20424 0.17821 0.0
C21 C 0.17026 0.22608 0.18955 0.0
C22 C 0.15492 0.24365 0.17638 0.0
C23 C 0.14741 0.23975 0.1515 0.0
C24 C 0.15524 0.21741 0.14034 0.0
C25 C 0.17048 0.19964 0.15371 0.0
C26 C 0.18242 0.16415 0.22005 0.0
C27 C 0.19201 0.16198 0.24463 0.0
C28 C 0.17845 0.14868 0.26401 0.0
C29 C 0.15501 0.13692 0.25925 0.0
C30 C 0.14573 0.13861 0.23435 0.0
C31 C 0.15935 0.15206 0.21493 0.0
P32 P 0.4256 0.91194 0.59184 0.0
H33 H 0.4696 0.93553 0.61521 0.0
H34 H 0.47708 0.95143 0.65713 0.0
H35 H 0.40146 0.92869 0.678 0.0
H36 H 0.3941 0.91328 0.63625 0.0
H37 H 0.44908 0.88142 0.55475 0.0
H38 H 0.4568 0.83512 0.55391 0.0
H39 H 0.42608 0.82227 0.62865 0.0
H40 H 0.41835 0.86852 0.62934 0.0
H41 H 0.3959 0.95758 0.58304 0.0
H42 H 0.38373 0.87465 0.58427 0.0
O43 O 0.44293 0.92939 0.57064 0.0
H44 H 0.35106 0.96343 0.57788 0.0
H45 H 0.33907 0.88032 0.57972 0.0
C46 C 0.43115 0.92382 0.62247 0.0
C47 C 0.45462 0.9342 0.6288 0.0
C48 C 0.45891 0.94311 0.65278 0.0
C49 C 0.43976 0.94161 0.67078 0.0
C50 C 0.41641 0.93072 0.66439 0.0
C51 C 0.41219 0.92183 0.64051 0.0
C52 C 0.43361 0.87844 0.59229 0.0
C53 C 0.44439 0.8687 0.5711 0.0
C54 C 0.44877 0.84226 0.57065 0.0
C55 C 0.44208 0.82512 0.59125 0.0
C56 C 0.43129 0.835 0.61246 0.0
C57 C 0.42712 0.86147 0.61297 0.0
C58 C 0.3932 0.91575 0.58399 0.0
C59 C 0.38363 0.94067 0.58184 0.0
C60 C 0.358 0.94395 0.57915 0.0
C61 C 0.34149 0.92231 0.57862 0.0
C62 C 0.35129 0.89738 0.57985 0.0
C63 C 0.37692 0.89413 0.58257 0.0
P64 P 0.69433 0.31821 0.82299 0.0
H65 H 0.74403 0.30198 0.83783 0.0
H66 H 0.77746 0.32197 0.86203 0.0
H67 H 0.73054 0.38628 0.87431 0.0
H68 H 0.69702 0.36601 0.85006 0.0
H69 H 0.66429 0.2728 0.81138 0.0
H70 H 0.63798 0.24221 0.83685 0.0
H71 H 0.65185 0.28696 0.90168 0.0
H72 H 0.67871 0.31718 0.87606 0.0
H73 H 0.70769 0.35137 0.77891 0.0
H74 H 0.64419 0.33922 0.82789 0.0
O75 O 0.7082 0.30038 0.80244 0.0
H76 H 0.68469 0.38258 0.75226 0.0
H77 H 0.6211 0.37093 0.80157 0.0
C78 C 0.7183 0.3328 0.84173 0.0
C79 C 0.74095 0.32042 0.84566 0.0
C80 C 0.76006 0.33189 0.85944 0.0
C81 C 0.75673 0.35585 0.86982 0.0
C82 C 0.73364 0.3678 0.86657 0.0
C83 C 0.71455 0.35634 0.8526 0.0
C84 C 0.67388 0.29688 0.84197 0.0
C85 C 0.66168 0.27601 0.83109 0.0
C86 C 0.64643 0.25866 0.84565 0.0
C87 C 0.64286 0.26202 0.87139 0.0
C88 C 0.65454 0.28353 0.88204 0.0
C89 C 0.66985 0.30088 0.8674 0.0
C90 C 0.67749 0.34267 0.80505 0.0
C91 C 0.68882 0.35562 0.78402 0.0
C92 C 0.67569 0.37364 0.76892 0.0
C93 C 0.65097 0.37922 0.77469 0.0
C94 C 0.63996 0.36678 0.79636 0.0
C95 C 0.65316 0.3487 0.81147 0.0
P96 P 0.88402 0.66989 0.40229 0.0
H97 H 0.92423 0.69785 0.37515 0.0
H98 H 0.95771 0.72687 0.38834 0.0
H99 H 0.93638 0.71046 0.46603 0.0
H100 H 0.90362 0.68043 0.45275 0.0
H101 H 0.85484 0.66115 0.35703 0.0
H102 H 0.86407 0.64028 0.31841 0.0
H103 H 0.93664 0.62063 0.34826 0.0
H104 H 0.92729 0.64172 0.38685 0.0
H105 H 0.85528 0.67814 0.44693 0.0
H106 H 0.88117 0.61277 0.40916 0.0
O107 O 0.86333 0.69251 0.39456 0.0
H108 H 0.82967 0.64894 0.47465 0.0
H109 H 0.8553 0.58349 0.43667 0.0
C110 C 0.91158 0.68668 0.41295 0.0
C111 C 0.92726 0.69978 0.39509 0.0
C112 C 0.94626 0.71661 0.40264 0.0
C113 C 0.94956 0.72121 0.42822 0.0
C114 C 0.93453 0.70714 0.4462 0.0
C115 C 0.91563 0.69005 0.4386 0.0
C116 C 0.89065 0.65354 0.37443 0.0
C117 C 0.87275 0.6524 0.35523 0.0
C118 C 0.87798 0.6403 0.33326 0.0
C119 C 0.90117 0.62904 0.33023 0.0
C120 C 0.91879 0.62957 0.34989 0.0
C121 C 0.91348 0.64156 0.37192 0.0
C122 C 0.86987 0.6477 0.42581 0.0
C123 C 0.85592 0.65745 0.44501 0.0
C124 C 0.8414 0.64071 0.46094 0.0
C125 C 0.8404 0.61394 0.45771 0.0
C126 C 0.85561 0.60407 0.43943 0.0
C127 C 0.87038 0.62083 0.42369 0.0
P128 P 0.84668 0.86467 0.87678 0.0
H129 H 0.82696 0.89139 0.91848 0.0
H130 H 0.78511 0.90118 0.93128 0.0
H131 H 0.75451 0.86042 0.86912 0.0
H132 H 0.797 0.85129 0.85594 0.0
H133 H 0.87211 0.8471 0.92305 0.0
H134 H 0.88676 0.80514 0.93929 0.0
H135 H 0.8551 0.76977 0.87445 0.0
H136 H 0.84 0.81211 0.85848 0.0
H137 H 0.82533 0.90024 0.83786 0.0
H138 H 0.88245 0.84338 0.84285 0.0
O139 O 0.86551 0.88625 0.89007 0.0
H140 H 0.83866 0.91394 0.79506 0.0
H141 H 0.89593 0.857 0.80023 0.0
C142 C 0.81517 0.87098 0.88599 0.0
C143 C 0.81131 0.88463 0.90747 0.0
C144 C 0.78723 0.89001 0.91495 0.0
C145 C 0.76625 0.88159 0.90132 0.0
C146 C 0.77017 0.86754 0.8799 0.0
C147 C 0.79444 0.86217 0.87239 0.0
C148 C 0.85551 0.83288 0.88922 0.0
C149 C 0.86828 0.83036 0.91228 0.0
C150 C 0.87678 0.80629 0.92151 0.0
C151 C 0.87257 0.78406 0.90798 0.0
C152 C 0.85871 0.78644 0.88538 0.0
C153 C 0.85017 0.81065 0.87614 0.0
C154 C 0.85228 0.87014 0.84336 0.0
C155 C 0.84022 0.89012 0.8295 0.0
C156 C 0.8481 0.89819 0.80511 0.0
C157 C 0.86841 0.88661 0.79414 0.0
C158 C 0.87997 0.86608 0.80785 0.0
C159 C 0.87216 0.85814 0.83227 0.0
P160 P 0.65141 0.21128 0.33462 0.0
H161 H 0.65777 0.26661 0.34033 0.0
H162 H 0.63957 0.29575 0.36884 0.0
H163 H 0.59776 0.23116 0.4052 0.0
H164 H 0.61572 0.20215 0.37607 0.0
H165 H 0.68632 0.17686 0.31412 0.0
H166 H 0.72246 0.15437 0.33178 0.0
H167 H 0.71145 0.18864 0.40265 0.0
H168 H 0.67553 0.21134 0.38476 0.0
H169 H 0.6166 0.20894 0.29248 0.0
H170 H 0.63714 0.15989 0.35742 0.0
O171 O 0.66056 0.22879 0.3087 0.0
H172 H 0.59068 0.17375 0.27704 0.0
H173 H 0.61071 0.12461 0.34242 0.0
C174 C 0.63767 0.23238 0.35577 0.0
C175 C 0.64456 0.25874 0.35432 0.0
C176 C 0.63432 0.27533 0.37082 0.0
C177 C 0.6172 0.26578 0.38931 0.0
C178 C 0.61062 0.23918 0.39094 0.0
C179 C 0.62088 0.22258 0.37434 0.0
C180 C 0.67834 0.19578 0.34807 0.0
C181 C 0.6918 0.17961 0.33342 0.0
C182 C 0.71231 0.16664 0.34359 0.0
C183 C 0.71976 0.16968 0.36864 0.0
C184 C 0.70632 0.18613 0.38322 0.0
C185 C 0.6857 0.19904 0.37303 0.0
C186 C 0.62925 0.18673 0.32569 0.0
C187 C 0.61518 0.19069 0.30362 0.0
C188 C 0.60014 0.17058 0.29496 0.0
C189 C 0.59879 0.14623 0.30839 0.0
C190 C 0.61169 0.14297 0.33142 0.0
C191 C 0.62677 0.16311 0.34003 0.0
P192 P 0.35653 0.62291 0.15501 0.0
H193 H 0.3236 0.6458 0.11654 0.0
H194 H 0.27999 0.63753 0.10583 0.0
H195 H 0.27355 0.58107 0.16911 0.0
H196 H 0.31715 0.59005 0.18015 0.0
H197 H 0.40448 0.64378 0.13672 0.0
H198 H 0.42022 0.68785 0.12523 0.0
H199 H 0.34964 0.71802 0.14587 0.0
H200 H 0.33414 0.67385 0.15785 0.0
H201 H 0.39856 0.59421 0.17564 0.0
H202 H 0.33628 0.63375 0.20426 0.0
O203 O 0.37017 0.60341 0.13582 0.0
H204 H 0.41332 0.58416 0.21848 0.0
H205 H 0.35109 0.62383 0.2475 0.0
C206 C 0.32344 0.61923 0.14966 0.0
C207 C 0.31264 0.63219 0.12857 0.0
C208 C 0.28774 0.62718 0.12226 0.0
C209 C 0.27323 0.6086 0.13659 0.0
C210 C 0.28404 0.59582 0.15793 0.0
C211 C 0.309 0.60096 0.16428 0.0
C212 C 0.36789 0.65553 0.14732 0.0
C213 C 0.39238 0.65987 0.13874 0.0
C214 C 0.40141 0.68504 0.13236 0.0
C215 C 0.38604 0.70629 0.13442 0.0
C216 C 0.36172 0.70193 0.14372 0.0
C217 C 0.35284 0.67674 0.1505 0.0
C218 C 0.366 0.61417 0.18684 0.0
C219 C 0.38789 0.60049 0.19119 0.0
C220 C 0.39645 0.59497 0.2157 0.0
C221 C 0.38337 0.6032 0.23639 0.0
C222 C 0.36139 0.61695 0.23196 0.0
C223 C 0.35292 0.62263 0.20732 0.0
P224 P 0.1247 0.35045 0.62833 0.0
H225 H 0.12621 0.31796 0.58607 0.0
H226 H 0.0942 0.29298 0.56462 0.0
H227 H 0.03749 0.32493 0.60963 0.0
H228 H 0.06969 0.35022 0.63089 0.0
H229 H 0.1587 0.39048 0.64524 0.0
H230 H 0.18554 0.4231 0.62295 0.0
H231 H 0.15503 0.40063 0.55199 0.0
H232 H 0.12771 0.36832 0.57443 0.0
H233 H 0.11709 0.32305 0.67742 0.0
H234 H 0.10499 0.39945 0.64304 0.0
O235 O 0.14572 0.32795 0.63522 0.0
H236 H 0.10369 0.33725 0.71807 0.0
H237 H 0.09182 0.41384 0.68368 0.0
C238 C 0.10037 0.33575 0.61017 0.0
C239 C 0.10684 0.32004 0.59094 0.0
C240 C 0.08849 0.3059 0.57859 0.0
C241 C 0.06332 0.30702 0.58546 0.0
C242 C 0.05676 0.32364 0.60405 0.0
C243 C 0.07517 0.33808 0.6162 0.0
C244 C 0.14094 0.37716 0.61158 0.0
C245 C 0.15719 0.39307 0.62493 0.0
C246 C 0.1725 0.41177 0.61218 0.0
C247 C 0.17225 0.41448 0.58575 0.0
C248 C 0.15553 0.39894 0.57238 0.0
C249 C 0.13992 0.38045 0.58523 0.0
C250 C 0.11276 0.36045 0.65751 0.0
C251 C 0.1115 0.34286 0.67863 0.0
C252 C 0.10369 0.35092 0.70177 0.0
C253 C 0.09706 0.37672 0.70403 0.0
C254 C 0.09727 0.39397 0.68251 0.0
C255 C 0.10481 0.38579 0.65934 0.0
Co256 Co 0.98604 0.01044 0.51229 0.0
C257 C 0.01103 0.96429 0.50834 0.0
Co258 Co 0.02275 0.00901 0.53128 0.0
C259 C 0.94325 0.02938 0.48464 0.0
C260 C 0.93868 0.98935 0.49708 0.0
N261 N 0.95499 0.00971 0.4971 0.0
N262 N 0.92021 0.02214 0.4769 0.0
C263 C 0.91731 0.9969 0.48463 0.0
H264 H 0.95146 0.04868 0.48143 0.0
H265 H 0.94192 0.97036 0.50601 0.0
C266 C 0.99783 0.05546 0.53469 0.0
N267 N 0.05412 0.01003 0.54641 0.0
C268 C 0.06881 0.99023 0.55404 0.0
C269 C 0.06813 0.03162 0.55011 0.0
N270 N 0.09128 0.99869 0.56233 0.0
C271 C 0.09082 0.02472 0.56 0.0
C272 C 0.02435 0.02834 0.48071 0.0
O273 O 0.98073 0.04445 0.5223 0.0
O274 O 0.01733 0.04314 0.54055 0.0
O275 O 0.03733 0.0226 0.50027 0.0
O276 O 1.0008 0.02477 0.48169 0.0
O277 O 0.02761 0.97484 0.52176 0.0
H278 H 0.06277 0.05121 0.54492 0.0
H279 H 0.06342 0.96999 0.55298 0.0
O280 O 0.99162 0.97662 0.5021 0.0
O281 O 0.97158 0.99604 0.54314 0.0
O282 O 0.00803 0.99541 0.56206 0.0
C283 C 0.98458 0.99094 0.56286 0.0
H284 H 0.90065 0.98496 0.4822 0.0
H285 H 0.10632 0.03784 0.56378 0.0
Co286 Co 0.49005 0.99591 1.00002 0.0
C287 C 0.48376 0.95471 0.03598 0.0
Co288 Co 0.51245 0.99998 0.03453 0.0
C289 C 0.47723 0.99414 0.94735 0.0
C290 C 0.44561 0.98708 0.97141 0.0
N291 N 0.47038 0.99234 0.97176 0.0
N292 N 0.45768 0.99029 0.93178 0.0
C293 C 0.43775 0.98589 0.94687 0.0
H294 H 0.49618 0.99831 0.94113 0.0
H295 H 0.43405 0.98404 0.98797 0.0
C296 C 0.51886 0.04119 0.99864 0.0
N297 N 0.53214 0.00338 0.06293 0.0
C298 C 0.52486 0.00483 0.08703 0.0
C299 C 0.55728 0.00497 0.06382 0.0
N300 N 0.54445 0.00709 0.10283 0.0
C301 C 0.56489 0.00711 0.08833 0.0
C302 C 0.53676 0.97479 0.997 0.0
O303 O 0.50314 0.02821 0.98616 0.0
O304 O 0.52549 0.03232 0.02043 0.0
O305 O 0.53855 0.98249 0.01914 0.0
O306 O 0.51663 0.9785 0.98473 0.0
O307 O 0.49946 0.96774 0.0484 0.0
H308 H 0.56938 0.00501 0.04766 0.0
H309 H 0.50558 0.00429 0.09292 0.0
O310 O 0.47704 0.96353 0.01421 0.0
O311 O 0.46376 0.01341 0.01537 0.0
O312 O 0.48593 0.01737 0.04965 0.0
C313 C 0.46573 0.02112 0.03752 0.0
H314 H 0.41893 0.98146 0.94066 0.0
H315 H 0.58392 0.00949 0.09487 0.0
Co316 Co 0.52289 0.53106 0.51883 0.0
C317 C 0.48566 0.53449 0.48221 0.0
Co318 Co 0.48713 0.51243 0.53097 0.0
C319 C 0.57592 0.54155 0.51449 0.0
C320 C 0.55442 0.57068 0.49487 0.0
N321 N 0.55229 0.54805 0.50882 0.0
N322 N 0.59275 0.55936 0.50477 0.0
C323 C 0.57921 0.57765 0.49231 0.0
H324 H 0.58061 0.52441 0.52609 0.0
H325 H 0.5389 0.5816 0.48731 0.0
C326 C 0.52434 0.50875 0.5675 0.0
N327 N 0.4577 0.49546 0.54078 0.0
C328 C 0.43415 0.50328 0.5369 0.0
C329 C 0.4553 0.4711 0.55135 0.0
N330 N 0.4172 0.48458 0.54427 0.0
C331 C 0.43039 0.46432 0.55339 0.0
C332 C 0.51974 0.48003 0.50813 0.0
O333 O 0.53706 0.52188 0.55085 0.0
O334 O 0.50181 0.50245 0.56268 0.0
O335 O 0.49822 0.48135 0.5177 0.0
O336 O 0.53405 0.50007 0.50672 0.0
O337 O 0.47261 0.52238 0.49924 0.0
H338 H 0.47069 0.45881 0.55652 0.0
H339 H 0.42955 0.52188 0.52784 0.0
O340 O 0.5084 0.54004 0.48678 0.0
O341 O 0.51177 0.56196 0.53107 0.0
O342 O 0.47636 0.54373 0.54412 0.0
C343 C 0.49086 0.56366 0.54173 0.0
H344 H 0.58663 0.59486 0.48198 0.0
H345 H 0.42256 0.44583 0.56074 0.0
Co346 Co 0.01012 0.49986 1.00062 0.0
C347 C 0.96355 0.47646 0.99716 0.0
Co348 Co 0.9889 0.50063 0.03574 0.0
C349 C 0.03124 0.48157 0.9557 0.0
C350 C 0.04072 0.52148 0.96036 0.0
N351 N 0.02821 0.50078 0.97126 0.0
N352 N 0.04511 0.48947 0.93538 0.0
C353 C 0.0511 0.51462 0.93833 0.0
H354 H 0.02334 0.46219 0.9593 0.0
H355 H 0.04188 0.54047 0.96778 0.0
C356 C 0.03574 0.52387 0.03893 0.0
N357 N 0.97071 0.49965 0.06507 0.0
C358 C 0.96905 0.5181 0.08171 0.0
C359 C 0.95626 0.47962 0.07458 0.0
N360 N 0.95407 0.51038 0.10122 0.0
C361 C 0.94596 0.48618 0.09676 0.0
C362 C 0.0184 0.45711 0.03327 0.0
O363 O 0.03657 0.51791 0.01619 0.0
O364 O 0.01613 0.51812 0.05164 0.0
O365 O 1.00275 0.46819 0.04645 0.0
O366 O 0.02455 0.46769 0.01187 0.0
O367 O 0.96193 0.48315 0.01963 0.0
H368 H 0.9536 0.46131 0.06604 0.0
H369 H 0.97855 0.53687 0.07944 0.0
O370 O 0.98358 0.48169 0.98508 0.0
O371 O 0.99561 0.53199 0.98961 0.0
O372 O 0.9751 0.53317 0.02492 0.0
C373 C 0.98062 0.54345 1.00323 0.0
H374 H 0.06165 0.52745 0.92521 0.0
H375 H 0.93393 0.47385 0.10896 0.0
C376 C 0.15235 0.10941 0.30014 0.0
C377 C 0.1403 0.12353 0.28035 0.0
C378 C 0.13888 0.09816 0.32068 0.0
C379 C 0.07848 0.10207 0.35414 0.0
H380 H 0.09904 0.03739 0.38765 0.0
C381 C 0.02261 0.04847 0.43634 0.0
C382 C 0.03669 0.0388 0.45708 0.0
C383 C 0.0344 0.05828 0.41413 0.0
C384 C 0.09316 0.05556 0.37862 0.0
H385 H 0.10426 0.13638 0.26675 0.0
H386 H 0.08068 0.11603 0.30208 0.0
H387 H 0.12069 0.05469 0.34985 0.0
H388 H 0.07427 0.03185 0.47059 0.0
H389 H 0.09472 0.04876 0.43192 0.0
H390 H 0.05076 0.10269 0.38292 0.0
C391 C 0.10071 0.11411 0.30197 0.0
C392 C 0.10563 0.06557 0.35692 0.0
C393 C 0.11423 0.1255 0.28146 0.0
C394 C 0.06282 0.03912 0.45502 0.0
C395 C 0.07456 0.04868 0.43277 0.0
C396 C 0.06587 0.09193 0.37574 0.0
C397 C 0.11286 0.10046 0.32203 0.0
C398 C 0.09868 0.08913 0.34448 0.0
C399 C 0.06053 0.0584 0.41203 0.0
C400 C 0.07322 0.06869 0.38841 0.0
H401 H 0.17232 0.10707 0.29986 0.0
H402 H 0.14904 0.08811 0.33579 0.0
H403 H 0.07276 0.12043 0.34541 0.0
H404 H 1.00245 0.04854 0.43726 0.0
H405 H 0.02302 0.06545 0.39846 0.0
C406 C 0.42535 0.96451 0.70784 0.0
C407 C 0.44396 0.95096 0.69631 0.0
C408 C 0.42828 0.97155 0.73257 0.0
C409 C 0.47418 0.98073 0.78345 0.0
H410 H 0.41699 0.96532 0.82659 0.0
C411 C 0.47884 0.981 0.89239 0.0
C412 C 0.45796 0.98969 0.90478 0.0
C413 C 0.47825 0.97853 0.86637 0.0
C414 C 0.43303 0.97015 0.81477 0.0
H415 H 0.48062 0.9349 0.70145 0.0
H416 H 0.48578 0.94731 0.74478 0.0
H417 H 0.4141 0.95727 0.78218 0.0
H418 H 0.42068 0.00403 0.89951 0.0
H419 H 0.41971 1.00012 0.85416 0.0
H420 H 0.49312 0.99356 0.81621 0.0
C421 C 0.46898 0.95259 0.73456 0.0
C422 C 0.43137 0.96549 0.78929 0.0
C423 C 0.46603 0.94549 0.70976 0.0
C424 C 0.43685 0.99678 0.89053 0.0
C425 C 0.4363 0.99449 0.86456 0.0
C426 C 0.47582 0.98552 0.80901 0.0
C427 C 0.44991 0.96526 0.74636 0.0
C428 C 0.45189 0.97073 0.77334 0.0
C429 C 0.45679 0.98484 0.85222 0.0
C430 C 0.45523 0.98029 0.82495 0.0
H431 H 0.40837 0.96951 0.69779 0.0
H432 H 0.41348 0.98176 0.741 0.0
H433 H 0.49025 0.98513 0.77155 0.0
H434 H 0.49529 0.97519 0.90292 0.0
H435 H 0.49426 0.9708 0.85751 0.0
C436 C 0.64803 0.41924 0.74551 0.0
C437 C 0.63651 0.39695 0.75741 0.0
C438 C 0.63522 0.43445 0.72734 0.0
C439 C 0.57258 0.44867 0.70146 0.0
H440 H 0.60863 0.4661 0.63949 0.0
C441 C 0.52351 0.48169 0.60831 0.0
C442 C 0.53603 0.4998 0.59167 0.0
C443 C 0.53529 0.47174 0.6302 0.0
C444 C 0.59836 0.46186 0.65679 0.0
H445 H 0.60216 0.37369 0.75998 0.0
H446 H 0.57977 0.40038 0.72845 0.0
H447 H 0.6299 0.44454 0.67507 0.0
H448 H 0.5704 0.52244 0.58547 0.0
H449 H 0.59073 0.50557 0.6239 0.0
H450 H 0.54097 0.46587 0.68309 0.0
C451 C 0.59868 0.40616 0.73332 0.0
C452 C 0.61058 0.44944 0.6772 0.0
C453 C 0.61152 0.39087 0.75143 0.0
C454 C 0.5603 0.50836 0.5978 0.0
C455 C 0.57201 0.49856 0.61978 0.0
C456 C 0.56036 0.46126 0.68106 0.0
C457 C 0.61056 0.42781 0.72071 0.0
C458 C 0.59779 0.44248 0.69969 0.0
C459 C 0.55983 0.47979 0.63605 0.0
C460 C 0.57305 0.46778 0.65836 0.0
H461 H 0.66709 0.42479 0.75002 0.0
H462 H 0.64474 0.45128 0.71827 0.0
H463 H 0.5623 0.44381 0.71865 0.0
H464 H 0.50483 0.47461 0.60409 0.0
H465 H 0.52543 0.4571 0.6421 0.0
C466 C 0.88931 0.60137 0.29481 0.0
C467 C 0.90708 0.61723 0.30644 0.0
C468 C 0.89464 0.59084 0.27203 0.0
C469 C 0.947 0.57533 0.23151 0.0
H470 H 0.89543 0.57238 0.18024 0.0
C471 C 0.96601 0.54246 0.13196 0.0
C472 C 0.94854 0.52449 0.12283 0.0
C473 C 0.96105 0.55518 0.15367 0.0
C474 C 0.90996 0.57294 0.19445 0.0
H475 H 0.94427 0.63469 0.30326 0.0
H476 H 0.95356 0.61645 0.26337 0.0
H477 H 0.88673 0.59163 0.21976 0.0
H478 H 0.91189 0.50643 0.12879 0.0
H479 H 0.90329 0.52847 0.16676 0.0
H480 H 0.97022 0.55663 0.20613 0.0
C481 C 0.93565 0.61178 0.27206 0.0
C482 C 0.90497 0.58389 0.2171 0.0
C483 C 0.93035 0.62223 0.2949 0.0
C484 C 0.92581 0.51993 0.13554 0.0
C485 C 0.92079 0.53276 0.15712 0.0
C486 C 0.95202 0.56447 0.2088 0.0
C487 C 0.91783 0.59603 0.26033 0.0
C488 C 0.92337 0.58502 0.23598 0.0
C489 C 0.93845 0.55034 0.16655 0.0
C490 C 0.93349 0.56299 0.19012 0.0
H491 H 0.87134 0.59691 0.30345 0.0
H492 H 0.88067 0.57839 0.26372 0.0
H493 H 0.96148 0.57559 0.24578 0.0
H494 H 0.98376 0.54621 0.12269 0.0
H495 H 0.97491 0.5688 0.16039 0.0
C496 C 0.27762 0.12291 0.11352 0.0
C497 C 0.27611 0.12371 0.13982 0.0
C498 C 0.29784 0.11156 0.10241 0.0
C499 C 0.35106 0.06783 0.11728 0.0
H500 H 0.37644 0.09789 0.05356 0.0
C501 C 0.44463 0.03811 0.07496 0.0
C502 C 0.44449 0.0337 0.04915 0.0
C503 C 0.42418 0.04912 0.08601 0.0
C504 C 0.36947 0.08914 0.07127 0.0
H505 H 0.29499 0.11348 0.17502 0.0
H506 H 0.33038 0.09423 0.1558 0.0
H507 H 0.34072 0.11672 0.07274 0.0
H508 H 0.42274 0.03777 0.01468 0.0
H509 H 0.38728 0.05722 0.03388 0.0
H510 H 0.38024 0.04057 0.11593 0.0
C511 C 0.31565 0.10169 0.14364 0.0
C512 C 0.34886 0.09987 0.08227 0.0
C513 C 0.29532 0.11281 0.15473 0.0
C514 C 0.42352 0.0409 0.03461 0.0
C515 C 0.40321 0.05217 0.04559 0.0
C516 C 0.37183 0.05728 0.10639 0.0
C517 C 0.31729 0.10092 0.11729 0.0
C518 C 0.33927 0.08936 0.10544 0.0
C519 C 0.40319 0.05627 0.07146 0.0
C520 C 0.38127 0.06775 0.08322 0.0
H521 H 0.26302 0.1309 0.10149 0.0
H522 H 0.29807 0.11095 0.08212 0.0
H523 H 0.34406 0.0588 0.13486 0.0
H524 H 0.46044 0.03279 0.08674 0.0
H525 H 0.42488 0.05224 0.10593 0.0
C526 C 0.30346 0.94368 0.59319 0.0
C527 C 0.31413 0.92567 0.57814 0.0
C528 C 0.27771 0.94656 0.59334 0.0
C529 C 0.22133 0.93651 0.55534 0.0
H530 H 0.18792 0.94946 0.61748 0.0
C531 C 0.11743 0.96111 0.55638 0.0
C532 C 0.11279 0.98368 0.56872 0.0
C533 C 0.14018 0.94885 0.55982 0.0
C534 C 0.19699 0.94583 0.59999 0.0
H535 H 0.30612 0.89657 0.55139 0.0
H536 H 0.26098 0.90147 0.55181 0.0
H537 H 0.23172 0.93811 0.61853 0.0
H538 H 0.12745 0.01003 0.59557 0.0
H539 H 0.16711 0.98882 0.60152 0.0
H540 H 0.18679 0.94493 0.53671 0.0
C541 C 0.27262 0.91345 0.56339 0.0
C542 C 0.22207 0.93941 0.60057 0.0
C543 C 0.29843 0.91053 0.56328 0.0
C544 C 0.13068 0.99283 0.58564 0.0
C545 C 0.15329 0.98052 0.58921 0.0
C546 C 0.19622 0.9429 0.55476 0.0
C547 C 0.26198 0.93149 0.57846 0.0
C548 C 0.23468 0.93533 0.57818 0.0
C549 C 0.15857 0.95881 0.57583 0.0
C550 C 0.18396 0.94826 0.577 0.0
H551 H 0.31499 0.95537 0.60514 0.0
H552 H 0.27015 0.96091 0.60487 0.0
H553 H 0.23056 0.9337 0.53774 0.0
H554 H 0.10405 0.9537 0.54312 0.0
H555 H 0.14365 0.932 0.54945 0.0
C556 C 0.80183 0.36904 0.87383 0.0
C557 C 0.77754 0.36842 0.88355 0.0
C558 C 0.82159 0.38051 0.88673 0.0
C559 C 0.8359 0.42623 0.93615 0.0
H560 H 0.90035 0.39432 0.9366 0.0
C561 C 0.91895 0.46047 0.99707 0.0
C562 C 0.94222 0.46321 0.98506 0.0
C563 C 0.89863 0.44857 0.98532 0.0
C564 C 0.88251 0.40356 0.93648 0.0
H565 H 0.7549 0.37932 0.91447 0.0
H566 H 0.78948 0.39907 0.93729 0.0
H567 H 0.8652 0.37423 0.91516 0.0
H568 H 0.96246 0.45533 0.95138 0.0
H569 H 0.92704 0.43446 0.93097 0.0
H570 H 0.85331 0.45544 0.95772 0.0
C571 C 0.79321 0.39107 0.91944 0.0
C572 C 0.86236 0.3921 0.92414 0.0
C573 C 0.77339 0.37972 0.90641 0.0
C574 C 0.9448 0.45353 0.96116 0.0
C575 C 0.92454 0.44145 0.94951 0.0
C576 C 0.85605 0.4376 0.94864 0.0
C577 C 0.81759 0.39153 0.90979 0.0
C578 C 0.83883 0.40339 0.92363 0.0
C579 C 0.90121 0.43894 0.96141 0.0
C580 C 0.87962 0.42649 0.94878 0.0
H581 H 0.80555 0.36091 0.85603 0.0
H582 H 0.83997 0.381 0.87844 0.0
H583 H 0.81817 0.43567 0.93586 0.0
H584 H 0.91634 0.46771 0.01549 0.0
H585 H 0.88095 0.44669 0.99506 0.0
C586 C 0.81585 0.59959 0.49638 0.0
C587 C 0.82091 0.5973 0.47078 0.0
C588 C 0.79426 0.58799 0.50721 0.0
C589 C 0.73897 0.58435 0.51655 0.0
H590 H 0.7028 0.52604 0.48985 0.0
C591 C 0.63345 0.58288 0.50534 0.0
C592 C 0.6195 0.55942 0.50761 0.0
C593 C 0.65937 0.58309 0.50702 0.0
C594 C 0.7127 0.54208 0.49796 0.0
H595 H 0.80822 0.57982 0.43685 0.0
H596 H 0.77046 0.56028 0.45533 0.0
H597 H 0.74749 0.53148 0.48284 0.0
H598 H 0.62197 0.51774 0.51401 0.0
H599 H 0.6674 0.51815 0.51741 0.0
H600 H 0.70425 0.59497 0.53163 0.0
C601 C 0.78325 0.5704 0.46741 0.0
C602 C 0.73831 0.5454 0.49367 0.0
C603 C 0.80495 0.5817 0.45671 0.0
C604 C 0.63213 0.53616 0.51229 0.0
C605 C 0.65818 0.53638 0.51403 0.0
C606 C 0.71348 0.58087 0.52108 0.0
C607 C 0.77711 0.57424 0.49253 0.0
C608 C 0.75155 0.56723 0.50193 0.0
C609 C 0.67211 0.55986 0.5112 0.0
C610 C 0.69982 0.5604 0.51084 0.0
H611 H 0.82804 0.61127 0.50772 0.0
H612 H 0.79046 0.59083 0.52678 0.0
H613 H 0.74836 0.60147 0.52316 0.0
H614 H 0.62439 0.60119 0.50216 0.0
H615 H 0.66945 0.60152 0.50429 0.0
C616 C 0.13747 0.26761 0.11221 0.0
C617 C 0.13197 0.25937 0.13733 0.0
C618 C 0.12432 0.28771 0.09976 0.0
C619 C 0.08619 0.34374 0.1135 0.0
H620 H 0.06877 0.34447 0.04263 0.0
C621 C 0.02331 0.42178 0.06735 0.0
C622 C 0.03 0.43283 0.04341 0.0
C623 C 0.03512 0.39984 0.07776 0.0
C624 C 0.07371 0.34468 0.06239 0.0
H625 H 0.10734 0.26489 0.16851 0.0
H626 H 0.08433 0.29957 0.14684 0.0
H627 H 0.09016 0.30741 0.06257 0.0
H628 H 0.0541 0.42896 0.01142 0.0
H629 H 0.07484 0.39066 0.02969 0.0
H630 H 0.06985 0.38092 0.1134 0.0
C631 C 0.09924 0.29106 0.13691 0.0
C632 C 0.08599 0.32341 0.07384 0.0
C633 C 0.11242 0.27108 0.14934 0.0
C634 C 0.04846 0.42097 0.0299 0.0
C635 C 0.06029 0.39893 0.04033 0.0
C636 C 0.07391 0.36491 0.1021 0.0
C637 C 0.10529 0.30001 0.1121 0.0
C638 C 0.09229 0.3226 0.09961 0.0
C639 C 0.05399 0.38828 0.06456 0.0
C640 C 0.06737 0.36566 0.07642 0.0
H641 H 0.15257 0.25919 0.10246 0.0
H642 H 0.12966 0.29419 0.08075 0.0
H643 H 0.09123 0.34417 0.13321 0.0
H644 H 0.00909 0.43025 0.07828 0.0
H645 H 0.02944 0.39193 0.09625 0.0
C646 C 0.63574 0.23441 0.91149 0.0
C647 C 0.62778 0.24257 0.8871 0.0
C648 C 0.62266 0.21466 0.92549 0.0
C649 C 0.56235 0.17709 0.92889 0.0
H650 H 0.60183 0.12489 0.9646 0.0
C651 C 0.5219 0.07636 0.96398 0.0
C652 C 0.5298 0.06602 0.98769 0.0
C653 C 0.53283 0.09933 0.95328 0.0
C654 C 0.5905 0.13947 0.95502 0.0
H655 H 0.59913 0.23709 0.85881 0.0
H656 H 0.57673 0.20224 0.8829 0.0
H657 H 0.62255 0.16265 0.94336 0.0
H658 H 0.55514 0.07197 0.0189 0.0
H659 H 0.57416 0.11206 1.0002 0.0
H660 H 0.53032 0.1535 0.94017 0.0
C661 C 0.59296 0.21124 0.89134 0.0
C662 C 0.60238 0.16118 0.94286 0.0
C663 C 0.60599 0.23103 0.87738 0.0
C664 C 0.54865 0.07936 1.00058 0.0
C665 C 0.55965 0.10227 0.98982 0.0
C666 C 0.55047 0.15531 0.94097 0.0
C667 C 0.60132 0.20254 0.91543 0.0
C668 C 0.58848 0.18018 0.92949 0.0
C669 C 0.55199 0.11244 0.96597 0.0
C670 C 0.56443 0.13616 0.95403 0.0
H671 H 0.65254 0.24271 0.91951 0.0
H672 H 0.62943 0.20872 0.94412 0.0
H673 H 0.55103 0.19154 0.9191 0.0
H674 H 0.50743 0.06657 0.95354 0.0
H675 H 0.5267 0.1065 0.93476 0.0
C676 C 0.98057 0.74074 0.45799 0.0
C677 C 0.96636 0.74278 0.43568 0.0
C678 C 0.99419 0.76226 0.46604 0.0
C679 C 0.01585 0.82954 0.44499 0.0
H680 H 1.00474 0.84391 0.51458 0.0
C681 C 1.00125 0.93028 0.47849 0.0
C682 C 0.01405 0.93797 0.49999 0.0
C683 C 1.00309 0.90514 0.47091 0.0
C684 C 0.00849 0.83993 0.49525 0.0
H685 H 0.95553 0.76898 0.40429 0.0
H686 H 0.97889 0.80613 0.41821 0.0
H687 H 0.99433 0.80087 0.50054 0.0
H688 H 0.03903 0.9256 0.53033 0.0
H689 H 0.04145 0.88096 0.51746 0.0
H690 H 0.02812 0.8693 0.43939 0.0
C691 C 0.9802 0.78789 0.42926 0.0
C692 C 1.0026 0.81527 0.48718 0.0
C693 C 0.9667 0.7665 0.42125 0.0
C694 C 0.02902 0.92013 0.51363 0.0
C695 C 0.0304 0.89469 0.50634 0.0
C696 C 0.02139 0.85424 0.45299 0.0
C697 C 0.9938 0.78621 0.45195 0.0
C698 C 0.00523 0.81014 0.4617 0.0
C699 C 0.01739 0.88704 0.48494 0.0
C700 C 0.01688 0.85987 0.47795 0.0
H701 H 0.98085 0.72264 0.46941 0.0
H702 H 1.00465 0.76027 0.4835 0.0
H703 H 0.01869 0.82604 0.42539 0.0
H704 H 0.98968 0.94368 0.46756 0.0
H705 H 0.99263 0.89957 0.45452 0.0
C706 C 0.42694 0.77883 0.59802 0.0
C707 C 0.44591 0.79695 0.59038 0.0
C708 C 0.43033 0.7523 0.59647 0.0
C709 C 0.47908 0.70426 0.5925 0.0
H710 H 0.42818 0.66306 0.55989 0.0
C711 C 0.50119 0.60984 0.54899 0.0
C712 C 0.48398 0.58877 0.55103 0.0
C713 C 0.49515 0.63382 0.55727 0.0
C714 C 0.44237 0.67416 0.56947 0.0
H715 H 0.48343 0.80155 0.57563 0.0
H716 H 0.48936 0.75526 0.57286 0.0
H717 H 0.42027 0.70802 0.56812 0.0
H718 H 0.44686 0.57636 0.56349 0.0
H719 H 0.43624 0.61864 0.57812 0.0
H720 H 0.50135 0.67069 0.59352 0.0
C721 C 0.47191 0.76153 0.58014 0.0
C722 C 0.43786 0.6999 0.57413 0.0
C723 C 0.46844 0.78803 0.58148 0.0
C724 C 0.46052 0.59224 0.56168 0.0
C725 C 0.45441 0.61642 0.56996 0.0
C726 C 0.48353 0.67857 0.58795 0.0
C727 C 0.45286 0.7434 0.5875 0.0
C728 C 0.45643 0.71538 0.58511 0.0
C729 C 0.47173 0.63744 0.56786 0.0
C730 C 0.46551 0.66344 0.57577 0.0
H731 H 0.4093 0.7852 0.60475 0.0
H732 H 0.41539 0.73874 0.60236 0.0
H733 H 0.49353 0.71559 0.60145 0.0
H734 H 0.51941 0.60794 0.5408 0.0
H735 H 0.50873 0.64972 0.55488 0.0
C736 C 0.88123 0.92391 0.76372 0.0
C737 C 0.87864 0.897 0.76933 0.0
C738 C 0.89221 0.9338 0.74117 0.0
C739 C 0.90797 0.9169 0.67671 0.0
H740 H 0.95518 0.97503 0.67904 0.0
C741 C 0.94694 0.9727 0.58659 0.0
C742 C 0.97245 0.97987 0.58639 0.0
C743 C 0.93547 0.96226 0.6087 0.0
C744 C 0.94216 0.9587 0.67806 0.0
H745 H 0.88512 0.85944 0.75518 0.0
H746 H 0.90433 0.8767 0.71584 0.0
H747 H 0.93513 0.95736 0.7177 0.0
H748 H 0.00589 0.98157 0.60944 0.0
H749 H 0.98587 0.96342 0.64799 0.0
H750 H 0.91518 0.91812 0.63707 0.0
C751 C 0.89779 0.89016 0.7289 0.0
C752 C 0.93044 0.94873 0.7002 0.0
C753 C 0.88695 0.88026 0.75156 0.0
C754 C 0.9862 0.97633 0.60889 0.0
C755 C 0.97468 0.96604 0.63105 0.0
C756 C 0.91956 0.92699 0.65451 0.0
C757 C 0.9008 0.91707 0.72353 0.0
C758 C 0.91319 0.92769 0.69984 0.0
C759 C 0.94916 0.95885 0.63125 0.0
C760 C 0.93684 0.94801 0.6549 0.0
H761 H 0.87534 0.93741 0.77706 0.0
H762 H 0.89396 0.95462 0.73755 0.0
H763 H 0.89466 0.90081 0.67568 0.0
H764 H 0.93575 0.97514 0.56963 0.0
H765 H 0.91574 0.95722 0.60821 0.0
C766 C 0.56442 0.12682 0.28254 0.0
C767 C 0.58641 0.12377 0.29682 0.0
C768 C 0.55568 0.10723 0.26754 0.0
C769 C 0.58255 0.0575 0.23217 0.0
H770 H 0.51404 0.04136 0.21381 0.0
C771 C 0.5624 1.00125 0.14539 0.0
C772 C 0.54399 0.01154 0.12918 0.0
C773 C 0.56419 0.00843 0.17018 0.0
C774 C 0.53328 0.04571 0.2187 0.0
H775 H 0.61529 0.09687 0.30806 0.0
H776 H 0.59973 0.0626 0.28235 0.0
H777 H 0.52289 0.06603 0.25075 0.0
H778 H 0.51221 0.0363 0.12633 0.0
H779 H 0.51579 0.04972 0.16934 0.0
H780 H 0.59314 0.03873 0.19964 0.0
C781 C 0.58949 0.0803 0.28245 0.0
C782 C 0.53831 0.05974 0.23989 0.0
C783 C 0.59826 0.09988 0.29739 0.0
C784 C 0.5265 0.02801 0.13856 0.0
C785 C 0.52852 0.03558 0.16325 0.0
C786 C 0.57755 0.04371 0.21099 0.0
C787 C 0.56875 0.0842 0.26655 0.0
C788 C 0.56302 0.0662 0.24654 0.0
C789 C 0.5479 0.02651 0.17913 0.0
C790 C 0.55285 0.03807 0.20364 0.0
H791 H 0.55463 0.14483 0.28204 0.0
H792 H 0.53967 0.11085 0.25547 0.0
H793 H 0.60179 0.06259 0.23644 0.0
H794 H 0.57581 0.98815 0.13864 0.0
H795 H 0.57891 1.00049 0.18206 0.0
C796 C 0.41857 0.60087 0.26758 0.0
C797 C 0.39299 0.59764 0.26236 0.0
C798 C 0.42797 0.59462 0.29167 0.0
C799 C 0.40958 0.58232 0.35854 0.0
H800 H 0.47288 0.54816 0.36365 0.0
C801 C 0.44897 0.53758 0.45276 0.0
C802 C 0.47455 0.54201 0.45734 0.0
C803 C 0.43856 0.54462 0.42923 0.0
C804 C 0.45531 0.55791 0.36256 0.0
H805 H 0.35717 0.58559 0.27841 0.0
H806 H 0.37361 0.57437 0.32052 0.0
H807 H 0.45543 0.56003 0.32232 0.0
H808 H 0.50919 0.55746 0.44081 0.0
H809 H 0.49101 0.5697 0.39982 0.0
H810 H 0.40946 0.57991 0.3989 0.0
C811 C 0.38637 0.58209 0.30605 0.0
C812 C 0.4453 0.56477 0.33885 0.0
C813 C 0.37693 0.58848 0.28192 0.0
C814 C 0.48944 0.55369 0.4379 0.0
C815 C 0.47905 0.56059 0.41436 0.0
C816 C 0.41956 0.57534 0.38229 0.0
C817 C 0.41206 0.58485 0.31115 0.0
C818 C 0.42239 0.57721 0.33651 0.0
C819 C 0.45351 0.55609 0.40973 0.0
C820 C 0.44261 0.56318 0.38455 0.0
H821 H 0.43136 0.60836 0.25303 0.0
H822 H 0.44775 0.59757 0.29503 0.0
H823 H 0.39206 0.59215 0.35745 0.0
H824 H 0.43697 0.52863 0.46734 0.0
H825 H 0.41886 0.54068 0.42618 0.0
C826 C 0.10271 0.40891 0.73673 0.0
C827 C 0.09122 0.38597 0.72898 0.0
C828 C 0.09806 0.41734 0.76056 0.0
C829 C 0.05211 0.41424 0.81061 0.0
H830 H 0.10753 0.43722 0.85164 0.0
C831 C 0.03698 0.45253 0.90871 0.0
C832 C 0.05133 0.47466 0.91437 0.0
C833 C 0.0424 0.43896 0.88765 0.0
C834 C 0.09183 0.4311 0.84034 0.0
H835 H 0.06568 0.35398 0.73985 0.0
H836 H 0.05722 0.36902 0.78162 0.0
H837 H 0.11562 0.41905 0.81146 0.0
H838 H 0.08324 0.49922 0.90262 0.0
H839 H 0.09205 0.47628 0.86557 0.0
H840 H 0.02824 0.42713 0.83893 0.0
C841 C 0.0699 0.38033 0.76921 0.0
C842 C 0.09649 0.42062 0.81739 0.0
C843 C 0.07481 0.3717 0.74544 0.0
C844 C 0.07152 0.48255 0.8987 0.0
C845 C 0.07683 0.46911 0.87759 0.0
C846 C 0.04742 0.42498 0.83346 0.0
C847 C 0.08164 0.40314 0.77703 0.0
C848 C 0.07667 0.41243 0.80216 0.0
C849 C 0.06224 0.44726 0.87169 0.0
C850 C 0.06722 0.43389 0.84843 0.0
H851 H 0.11564 0.42012 0.7245 0.0
H852 H 0.10714 0.43513 0.76604 0.0
H853 H 0.0365 0.40823 0.7991 0.0
H854 H 0.02118 0.44595 0.92017 0.0
H855 H 0.03097 0.42202 0.88383 0.0
C856 C 0.7219 0.89475 0.89196 0.0
C857 C 0.74058 0.88769 0.90957 0.0
C858 C 0.69836 0.9019 0.89995 0.0
C859 C 0.65707 0.89914 0.95657 0.0
H860 H 0.6251 0.95699 0.92101 0.0
C861 C 0.57876 0.9549 1.00083 0.0
C862 C 0.55825 0.96231 0.98571 0.0
C863 C 0.59949 0.94398 0.99036 0.0
C864 C 0.63361 0.94059 0.93098 0.0
H865 H 0.74852 0.88172 0.94952 0.0
H866 H 0.70812 0.89485 0.96335 0.0
H867 H 0.66391 0.94121 0.90493 0.0
H868 H 0.54356 0.96394 0.9476 0.0
H869 H 0.58001 0.94502 0.92924 0.0
H870 H 0.62711 0.89903 0.98298 0.0
C871 C 0.71141 0.89463 0.94332 0.0
C872 C 0.65589 0.93147 0.92173 0.0
C873 C 0.73483 0.88742 0.93535 0.0
C874 C 0.55899 0.95839 0.9598 0.0
C875 C 0.57994 0.9477 0.94926 0.0
C876 C 0.63494 0.90838 0.9659 0.0
C877 C 0.69283 0.90216 0.92578 0.0
C878 C 0.66815 0.91081 0.93458 0.0
C879 C 0.60046 0.94036 0.96443 0.0
C880 C 0.62308 0.92944 0.95342 0.0
H881 H 0.72563 0.89538 0.87196 0.0
H882 H 0.68449 0.90724 0.88584 0.0
H883 H 0.66552 0.88282 0.96672 0.0
H884 H 0.57889 0.95765 0.02084 0.0
H885 H 0.61506 0.93888 1.00256 0.0
C886 C 0.74434 0.12936 0.37471 0.0
C887 C 0.7413 0.15547 0.3795 0.0
C888 C 0.76471 0.11596 0.38466 0.0
C889 C 0.81243 0.11712 0.43489 0.0
H890 H 0.84545 0.06925 0.39396 0.0
C891 C 0.90157 0.06491 0.46807 0.0
C892 C 0.90188 0.03824 0.46441 0.0
C893 C 0.88303 0.08024 0.4569 0.0
C894 C 0.83631 0.08242 0.40567 0.0
H895 H 0.75733 0.18805 0.39834 0.0
H896 H 0.79303 0.16466 0.41565 0.0
H897 H 0.81098 0.09416 0.37621 0.0
H898 H 0.88343 0.00696 0.44557 0.0
H899 H 0.85095 0.03364 0.42628 0.0
H900 H 0.83775 0.10527 0.46438 0.0
C901 C 0.77946 0.15446 0.40448 0.0
C902 C 0.81654 0.09666 0.39553 0.0
C903 C 0.75902 0.16786 0.39457 0.0
C904 C 0.88354 0.02737 0.44896 0.0
C905 C 0.86509 0.04271 0.4377 0.0
C906 C 0.83225 0.10292 0.44501 0.0
C907 C 0.78256 0.12837 0.39958 0.0
C908 C 0.80421 0.114 0.41009 0.0
C909 C 0.86451 0.06927 0.44172 0.0
C910 C 0.84426 0.08525 0.43058 0.0
H911 H 0.73077 0.11915 0.36353 0.0
H912 H 0.76627 0.09574 0.38093 0.0
H913 H 0.80313 0.13006 0.44672 0.0
H914 H 0.91528 0.07383 0.48005 0.0
H915 H 0.88319 0.1007 0.46016 0.0
C916 C 0.24248 0.59882 0.10256 0.0
C917 C 0.24755 0.60139 0.12825 0.0
C918 C 0.21873 0.59121 0.09451 0.0
C919 C 0.15239 0.5863 0.11257 0.0
H920 H 0.14883 0.53711 0.06058 0.0
C921 C 0.0597 0.53853 0.07662 0.0
C922 C 0.0581 0.53583 0.05052 0.0
C923 C 0.08198 0.54745 0.0875 0.0
C924 C 0.14947 0.55106 0.07492 0.0
H925 H 0.2314 0.59832 0.16559 0.0
H926 H 0.18979 0.5846 0.15147 0.0
H927 H 0.18921 0.55048 0.07712 0.0
H928 H 0.07823 0.54165 0.01526 0.0
H929 H 0.11667 0.55736 0.0341 0.0
H930 H 0.11244 0.58677 0.1102 0.0
C931 C 0.20427 0.58873 0.13759 0.0
C932 C 0.17264 0.55872 0.08442 0.0
C933 C 0.22814 0.59634 0.14569 0.0
C934 C 0.07886 0.5432 0.03547 0.0
C935 C 0.101 0.55207 0.04628 0.0
C936 C 0.12909 0.57858 0.10303 0.0
C937 C 0.19938 0.58582 0.11191 0.0
C938 C 0.17445 0.57674 0.10306 0.0
C939 C 0.10304 0.55377 0.07246 0.0
C940 C 0.12743 0.56117 0.0838 0.0
H941 H 0.25702 0.60219 0.08862 0.0
H942 H 0.21553 0.58952 0.07455 0.0
H943 H 0.15316 0.60031 0.12685 0.0
H944 H 0.04402 0.53302 0.08873 0.0
H945 H 0.08299 0.54852 0.10774 0.0
C946 C 0.20636 0.42082 0.55419 0.0
C947 C 0.19155 0.43115 0.57246 0.0
C948 C 0.22769 0.43434 0.54513 0.0
C949 C 0.27376 0.48223 0.56687 0.0
H950 H 0.30498 0.46948 0.50355 0.0
C951 C 0.37778 0.50758 0.54664 0.0
C952 C 0.3906 0.48529 0.5415 0.0
C953 C 0.3517 0.50743 0.54571 0.0
C954 C 0.29636 0.47347 0.52118 0.0
H955 H 0.18609 0.46463 0.59398 0.0
H956 H 0.22298 0.48875 0.57754 0.0
H957 H 0.26067 0.45886 0.50956 0.0
H958 H 0.38661 0.446 0.53 0.0
H959 H 0.34113 0.4458 0.52794 0.0
H960 H 0.30967 0.49637 0.57854 0.0
C961 C 0.2186 0.46983 0.57078 0.0
C962 C 0.27105 0.46724 0.52472 0.0
C963 C 0.19741 0.45612 0.5801 0.0
C964 C 0.37707 0.46329 0.53432 0.0
C965 C 0.35113 0.4633 0.53287 0.0
C966 C 0.29896 0.48883 0.56315 0.0
C967 C 0.23457 0.45866 0.55393 0.0
C968 C 0.25969 0.47048 0.54802 0.0
C969 C 0.33818 0.48518 0.539 0.0
C970 C 0.31068 0.48352 0.54067 0.0
H971 H 0.20244 0.40148 0.54818 0.0
H972 H 0.23961 0.42484 0.53249 0.0
H973 H 0.26587 0.48477 0.58517 0.0
H974 H 0.3879 0.52472 0.55227 0.0
H975 H 0.34208 0.52449 0.55058 0.0
C976 C 0.86961 0.73528 0.91577 0.0
C977 C 0.88325 0.75883 0.91723 0.0
C978 C 0.87976 0.71178 0.92484 0.0
C979 C 0.94021 0.68162 0.94125 0.0
H980 H 0.8991 0.62965 0.97851 0.0
C981 C 0.97573 0.57932 0.96959 0.0
C982 C 0.96944 0.56815 0.99359 0.0
C983 C 0.96499 0.60232 0.9602 0.0
C984 C 0.9109 0.64402 0.96829 0.0
H985 H 0.9186 0.77585 0.92892 0.0
H986 H 0.93601 0.73518 0.94501 0.0
H987 H 0.88084 0.67009 0.96232 0.0
H988 H 0.94684 0.57258 0.02656 0.0
H989 H 0.92826 0.61284 0.01027 0.0
H990 H 0.97037 0.65586 0.94758 0.0
C991 C 0.91752 0.73476 0.93675 0.0
C992 C 0.90034 0.66711 0.95873 0.0
C993 C 0.90737 0.75819 0.92777 0.0
C994 C 0.95211 0.58061 0.00799 0.0
C995 C 0.94132 0.60363 0.99856 0.0
C996 C 0.95074 0.65854 0.95074 0.0
C997 C 0.90388 0.71121 0.93545 0.0
C998 C 0.91488 0.68628 0.94515 0.0
C999 C 0.94761 0.61481 0.97453 0.0
C1000 C 0.93626 0.63942 0.96444 0.0
H1001 H 0.85094 0.73502 0.90792 0.0
H1002 H 0.8688 0.69401 0.9233 0.0
H1003 H 0.95195 0.69576 0.93065 0.0
H1004 H 0.98893 0.57024 0.95791 0.0
H1005 H 0.97006 0.61011 0.94149 0.0
C1006 C 0.41883 0.74191 0.13392 0.0
C1007 C 0.39525 0.73279 0.12625 0.0
C1008 C 0.42797 0.76646 0.12529 0.0
C1009 C 0.40841 0.82908 0.09348 0.0
H1010 H 0.47903 0.83765 0.07907 0.0
C1011 C 0.45203 0.91811 0.03624 0.0
C1012 C 0.47341 0.92961 0.04678 0.0
C1013 C 0.44216 0.89447 0.04661 0.0
C1014 C 0.45931 0.83557 0.08319 0.0
H1015 H 0.36274 0.74208 0.1035 0.0
H1016 H 0.37889 0.78459 0.08776 0.0
H1017 H 0.46234 0.79577 0.09587 0.0
H1018 H 0.50131 0.9253 0.07633 0.0
H1019 H 0.4843 0.88376 0.09411 0.0
H1020 H 0.40545 0.86883 0.07995 0.0
C1021 C 0.39014 0.7732 0.10101 0.0
C1022 C 0.44971 0.81161 0.09295 0.0
C1023 C 0.38087 0.74878 0.10995 0.0
C1024 C 0.4848 0.91693 0.0678 0.0
C1025 C 0.47515 0.89312 0.07792 0.0
C1026 C 0.41798 0.85295 0.08338 0.0
C1027 C 0.41389 0.78233 0.10845 0.0
C1028 C 0.42412 0.80802 0.09829 0.0
C1029 C 0.4537 0.8817 0.06746 0.0
C1030 C 0.44352 0.85643 0.07818 0.0
H1031 H 0.43018 0.73005 0.14671 0.0
H1032 H 0.44608 0.77299 0.1319 0.0
H1033 H 0.38872 0.82727 0.09775 0.0
H1034 H 0.4428 0.92744 0.02008 0.0
H1035 H 0.42571 0.88598 0.03808 0.0
C1036 C 0.02933 0.27313 0.59184 0.0
C1037 C 0.04481 0.28849 0.57531 0.0
C1038 C 0.01634 0.25145 0.58347 0.0
C1039 C 0.02739 0.204 0.53814 0.0
H1040 H 0.96648 0.1708 0.56492 0.0
C1041 C 0.01657 0.09496 0.55257 0.0
C1042 C 0.9965 0.08302 0.54023 0.0
C1043 C 0.0174 0.12162 0.55482 0.0
C1044 C 0.98334 0.18003 0.55706 0.0
H1045 H 0.05658 0.29508 0.53652 0.0
H1046 H 0.03371 0.25733 0.52181 0.0
H1047 H 0.97506 0.21708 0.57044 0.0
H1048 H 0.96074 0.08952 0.52194 0.0
H1049 H 0.9621 0.13653 0.52641 0.0
H1050 H 0.03624 0.16688 0.5258 0.0
C1051 C 0.03205 0.26168 0.54135 0.0
C1052 C 0.98831 0.20638 0.56028 0.0
C1053 C 0.04512 0.28327 0.54974 0.0
C1054 C 0.9765 0.09819 0.53148 0.0
C1055 C 0.97723 0.12501 0.53401 0.0
C1056 C 0.02255 0.17778 0.53518 0.0
C1057 C 0.01857 0.2448 0.55841 0.0
C1058 C 0.0107 0.21846 0.55135 0.0
C1059 C 0.99807 0.13695 0.54504 0.0
C1060 C 1.00087 0.16541 0.54521 0.0
H1061 H 0.02883 0.27659 0.61169 0.0
H1062 H 0.00626 0.23877 0.59714 0.0
H1063 H 0.04497 0.21252 0.53135 0.0
H1064 H 0.03216 0.08388 0.55977 0.0
H1065 H 0.03349 0.13041 0.56374 0.0
C1066 C 0.5806 0.28178 0.41236 0.0
C1067 C 0.60612 0.28371 0.4065 0.0
C1068 C 0.5699 0.29996 0.42699 0.0
C1069 C 0.58567 0.35238 0.46968 0.0
H1070 H 0.523 0.38029 0.44561 0.0
C1071 C 0.55335 0.4529 0.49263 0.0
C1072 C 0.52824 0.45541 0.49908 0.0
C1073 C 0.56157 0.42967 0.4842 0.0
C1074 C 0.54032 0.37243 0.45279 0.0
H1075 H 0.64064 0.30548 0.41246 0.0
H1076 H 0.62193 0.33753 0.43723 0.0
H1077 H 0.53978 0.34319 0.42615 0.0
H1078 H 0.49206 0.43552 0.50183 0.0
H1079 H 0.50648 0.39492 0.4867 0.0
H1080 H 0.5866 0.38233 0.49567 0.0
C1081 C 0.61016 0.32186 0.43081 0.0
C1082 C 0.54992 0.35112 0.4417 0.0
C1083 C 0.62084 0.30368 0.41629 0.0
C1084 C 0.51152 0.43418 0.49695 0.0
C1085 C 0.51972 0.41099 0.48825 0.0
C1086 C 0.57616 0.37379 0.48062 0.0
C1087 C 0.5845 0.32045 0.43605 0.0
C1088 C 0.57296 0.34117 0.44969 0.0
C1089 C 0.54485 0.40852 0.48184 0.0
C1090 C 0.55364 0.38432 0.47195 0.0
H1091 H 0.56872 0.26669 0.405 0.0
H1092 H 0.55013 0.29813 0.43094 0.0
H1093 H 0.6032 0.34487 0.47664 0.0
H1094 H 0.56672 0.46887 0.49412 0.0
H1095 H 0.58098 0.42843 0.47907 0.0
loop_
_geom_bond_atom_site_label_1
_geom_bond_atom_site_label_2
_geom_bond_distance
_geom_bond_site_symmetry_2
_ccdc_geom_bond_type
P0 O11 1.490 . S
P0 C14 1.812 . S
P0 C20 1.803 . S
P0 C26 1.819 . S
H1 C15 0.941 . S
H2 C16 0.939 . S
H3 C18 0.940 . S
H4 C19 0.940 . S
H5 C21 0.939 . S
H6 C22 0.942 . S
H7 C24 0.940 . S
H8 C25 0.939 . S
H9 C27 0.941 . S
H10 C31 0.939 . S
O11 P0 1.490 . S
H12 C28 0.939 . S
H13 C30 0.940 . S
C14 P0 1.812 . S
C14 C15 1.389 . S
C14 C19 1.391 . S
C15 H1 0.941 . S
C15 C14 1.389 . S
C15 C16 1.397 . S
C16 H2 0.939 . S
C16 C15 1.397 . S
C16 C17 1.378 . S
C17 C16 1.378 . S
C17 C18 1.378 . S
C18 H3 0.940 . S
C18 C17 1.378 . S
C18 C19 1.396 . S
C19 H4 0.940 . S
C19 C14 1.391 . S
C19 C18 1.396 . S
C20 P0 1.803 . S
C20 C21 1.378 . S
C20 C25 1.400 . S
C21 H5 0.939 . S
C21 C20 1.378 . S
C21 C22 1.361 . S
C22 H6 0.942 . S
C22 C21 1.361 . S
C22 C23 1.369 . S
C23 C22 1.369 . S
C23 C24 1.404 . S
C24 H7 0.940 . S
C24 C23 1.404 . S
C24 C25 1.389 . S
C25 H8 0.939 . S
C25 C20 1.400 . S
C25 C24 1.389 . S
C26 P0 1.819 . S
C26 C27 1.391 . S
C26 C31 1.391 . S
C27 H9 0.941 . S
C27 C26 1.391 . S
C27 C28 1.396 . S
C28 H12 0.939 . S
C28 C27 1.396 . S
C28 C29 1.397 . S
C29 C28 1.397 . S
C29 C30 1.385 . S
C30 H13 0.940 . S
C30 C29 1.385 . S
C30 C31 1.388 . S
C31 H10 0.939 . S
C31 C26 1.391 . S
C31 C30 1.388 . S
P32 O43 1.490 . S
P32 C46 1.812 . S
P32 C52 1.803 . S
P32 C58 1.819 . S
H33 C47 0.941 . S
H34 C48 0.939 . S
H35 C50 0.940 . S
H36 C51 0.940 . S
H37 C53 0.939 . S
H38 C54 0.942 . S
H39 C56 0.940 . S
H40 C57 0.939 . S
H41 C59 0.941 . S
H42 C63 0.939 . S
O43 P32 1.490 . S
H44 C60 0.939 . S
H45 C62 0.940 . S
C46 P32 1.812 . S
C46 C47 1.389 . S
C46 C51 1.391 . S
C47 H33 0.941 . S
C47 C46 1.389 . S
C47 C48 1.397 . S
C48 H34 0.939 . S
C48 C47 1.397 . S
C48 C49 1.378 . S
C49 C48 1.378 . S
C49 C50 1.378 . S
C50 H35 0.940 . S
C50 C49 1.378 . S
C50 C51 1.396 . S
C51 H36 0.940 . S
C51 C46 1.391 . S
C51 C50 1.396 . S
C52 P32 1.803 . S
C52 C53 1.378 . S
C52 C57 1.400 . S
C53 H37 0.939 . S
C53 C52 1.378 . S
C53 C54 1.361 . S
C54 H38 0.942 . S
C54 C53 1.361 . S
C54 C55 1.369 . S
C55 C54 1.369 . S
C55 C56 1.404 . S
C56 H39 0.940 . S
C56 C55 1.404 . S
C56 C57 1.389 . S
C57 H40 0.939 . S
C57 C52 1.400 . S
C57 C56 1.389 . S
C58 P32 1.819 . S
C58 C59 1.391 . S
C58 C63 1.391 . S
C59 H41 0.941 . S
C59 C58 1.391 . S
C59 C60 1.396 . S
C60 H44 0.939 . S
C60 C59 1.396 . S
C60 C61 1.397 . S
C61 C60 1.397 . S
C61 C62 1.385 . S
C62 H45 0.940 . S
C62 C61 1.385 . S
C62 C63 1.388 . S
C63 H42 0.939 . S
C63 C58 1.391 . S
C63 C62 1.388 . S
P64 O75 1.490 . S
P64 C78 1.812 . S
P64 C84 1.803 . S
P64 C90 1.819 . S
H65 C79 0.941 . S
H66 C80 0.939 . S
H67 C82 0.940 . S
H68 C83 0.940 . S
H69 C85 0.939 . S
H70 C86 0.942 . S
H71 C88 0.940 . S
H72 C89 0.939 . S
H73 C91 0.941 . S
H74 C95 0.939 . S
O75 P64 1.490 . S
H76 C92 0.939 . S
H77 C94 0.940 . S
C78 P64 1.812 . S
C78 C79 1.389 . S
C78 C83 1.391 . S
C79 H65 0.941 . S
C79 C78 1.389 . S
C79 C80 1.397 . S
C80 H66 0.939 . S
C80 C79 1.397 . S
C80 C81 1.378 . S
C81 C80 1.378 . S
C81 C82 1.378 . S
C82 H67 0.940 . S
C82 C81 1.378 . S
C82 C83 1.396 . S
C83 H68 0.940 . S
C83 C78 1.391 . S
C83 C82 1.396 . S
C84 P64 1.803 . S
C84 C85 1.378 . S
C84 C89 1.400 . S
C85 H69 0.939 . S
C85 C84 1.378 . S
C85 C86 1.361 . S
C86 H70 0.942 . S
C86 C85 1.361 . S
C86 C87 1.369 . S
C87 C86 1.369 . S
C87 C88 1.404 . S
C88 H71 0.940 . S
C88 C87 1.404 . S
C88 C89 1.389 . S
C89 H72 0.939 . S
C89 C84 1.400 . S
C89 C88 1.389 . S
C90 P64 1.819 . S
C90 C91 1.391 . S
C90 C95 1.391 . S
C91 H73 0.941 . S
C91 C90 1.391 . S
C91 C92 1.396 . S
C92 H76 0.939 . S
C92 C91 1.396 . S
C92 C93 1.397 . S
C93 C92 1.397 . S
C93 C94 1.385 . S
C94 H77 0.940 . S
C94 C93 1.385 . S
C94 C95 1.388 . S
C95 H74 0.939 . S
C95 C90 1.391 . S
C95 C94 1.388 . S
P96 O107 1.490 . S
P96 C110 1.812 . S
P96 C116 1.803 . S
P96 C122 1.819 . S
H97 C111 0.941 . S
H98 C112 0.939 . S
H99 C114 0.940 . S
H100 C115 0.940 . S
H101 C117 0.939 . S
H102 C118 0.942 . S
H103 C120 0.940 . S
H104 C121 0.939 . S
H105 C123 0.941 . S
H106 C127 0.939 . S
O107 P96 1.490 . S
H108 C124 0.939 . S
H109 C126 0.940 . S
C110 P96 1.812 . S
C110 C111 1.389 . S
C110 C115 1.391 . S
C111 H97 0.941 . S
C111 C110 1.389 . S
C111 C112 1.397 . S
C112 H98 0.939 . S
C112 C111 1.397 . S
C112 C113 1.378 . S
C113 C112 1.378 . S
C113 C114 1.378 . S
C114 H99 0.940 . S
C114 C113 1.378 . S
C114 C115 1.396 . S
C115 H100 0.940 . S
C115 C110 1.391 . S
C115 C114 1.396 . S
C116 P96 1.803 . S
C116 C117 1.378 . S
C116 C121 1.400 . S
C117 H101 0.939 . S
C117 C116 1.378 . S
C117 C118 1.361 . S
C118 H102 0.942 . S
C118 C117 1.361 . S
C118 C119 1.369 . S
C119 C118 1.369 . S
C119 C120 1.404 . S
C120 H103 0.940 . S
C120 C119 1.404 . S
C120 C121 1.389 . S
C121 H104 0.939 . S
C121 C116 1.400 . S
C121 C120 1.389 . S
C122 P96 1.819 . S
C122 C123 1.391 . S
C122 C127 1.391 . S
C123 H105 0.941 . S
C123 C122 1.391 . S
C123 C124 1.396 . S
C124 H108 0.939 . S
C124 C123 1.396 . S
C124 C125 1.397 . S
C125 C124 1.397 . S
C125 C126 1.385 . S
C126 H109 0.940 . S
C126 C125 1.385 . S
C126 C127 1.388 . S
C127 H106 0.939 . S
C127 C122 1.391 . S
C127 C126 1.388 . S
P128 O139 1.490 . S
P128 C142 1.812 . S
P128 C148 1.803 . S
P128 C154 1.819 . S
H129 C143 0.941 . S
H130 C144 0.939 . S
H131 C146 0.940 . S
H132 C147 0.940 . S
H133 C149 0.939 . S
H134 C150 0.942 . S
H135 C152 0.940 . S
H136 C153 0.939 . S
H137 C155 0.941 . S
H138 C159 0.939 . S
O139 P128 1.490 . S
H140 C156 0.939 . S
H141 C158 0.940 . S
C142 P128 1.812 . S
C142 C143 1.389 . S
C142 C147 1.391 . S
C143 H129 0.941 . S
C143 C142 1.389 . S
C143 C144 1.397 . S
C144 H130 0.939 . S
C144 C143 1.397 . S
C144 C145 1.378 . S
C145 C144 1.378 . S
C145 C146 1.378 . S
C146 H131 0.940 . S
C146 C145 1.378 . S
C146 C147 1.396 . S
C147 H132 0.940 . S
C147 C142 1.391 . S
C147 C146 1.396 . S
C148 P128 1.803 . S
C148 C149 1.378 . S
C148 C153 1.400 . S
C149 H133 0.939 . S
C149 C148 1.378 . S
C149 C150 1.361 . S
C150 H134 0.942 . S
C150 C149 1.361 . S
C150 C151 1.369 . S
C151 C150 1.369 . S
C151 C152 1.404 . S
C152 H135 0.940 . S
C152 C151 1.404 . S
C152 C153 1.389 . S
C153 H136 0.939 . S
C153 C148 1.400 . S
C153 C152 1.389 . S
C154 P128 1.819 . S
C154 C155 1.391 . S
C154 C159 1.391 . S
C155 H137 0.941 . S
C155 C154 1.391 . S
C155 C156 1.396 . S
C156 H140 0.939 . S
C156 C155 1.396 . S
C156 C157 1.397 . S
C157 C156 1.397 . S
C157 C158 1.385 . S
C158 H141 0.940 . S
C158 C157 1.385 . S
C158 C159 1.388 . S
C159 H138 0.939 . S
C159 C154 1.391 . S
C159 C158 1.388 . S
P160 O171 1.490 . S
P160 C174 1.812 . S
P160 C180 1.803 . S
P160 C186 1.819 . S
H161 C175 0.941 . S
H162 C176 0.939 . S
H163 C178 0.940 . S
H164 C179 0.940 . S
H165 C181 0.939 . S
H166 C182 0.942 . S
H167 C184 0.940 . S
H168 C185 0.939 . S
H169 C187 0.941 . S
H170 C191 0.939 . S
O171 P160 1.490 . S
H172 C188 0.939 . S
H173 C190 0.940 . S
C174 P160 1.812 . S
C174 C175 1.389 . S
C174 C179 1.391 . S
C175 H161 0.941 . S
C175 C174 1.389 . S
C175 C176 1.397 . S
C176 H162 0.939 . S
C176 C175 1.397 . S
C176 C177 1.378 . S
C177 C176 1.378 . S
C177 C178 1.378 . S
C178 H163 0.940 . S
C178 C177 1.378 . S
C178 C179 1.396 . S
C179 H164 0.940 . S
C179 C174 1.391 . S
C179 C178 1.396 . S
C180 P160 1.803 . S
C180 C181 1.378 . S
C180 C185 1.400 . S
C181 H165 0.939 . S
C181 C180 1.378 . S
C181 C182 1.361 . S
C182 H166 0.942 . S
C182 C181 1.361 . S
C182 C183 1.369 . S
C183 C182 1.369 . S
C183 C184 1.404 . S
C184 H167 0.940 . S
C184 C183 1.404 . S
C184 C185 1.389 . S
C185 H168 0.939 . S
C185 C180 1.400 . S
C185 C184 1.389 . S
C186 P160 1.819 . S
C186 C187 1.391 . S
C186 C191 1.391 . S
C187 H169 0.941 . S
C187 C186 1.391 . S
C187 C188 1.396 . S
C188 H172 0.939 . S
C188 C187 1.396 . S
C188 C189 1.397 . S
C189 C188 1.397 . S
C189 C190 1.385 . S
C190 H173 0.940 . S
C190 C189 1.385 . S
C190 C191 1.388 . S
C191 H170 0.939 . S
C191 C186 1.391 . S
C191 C190 1.388 . S
P192 O203 1.490 . S
P192 C206 1.812 . S
P192 C212 1.803 . S
P192 C218 1.819 . S
H193 C207 0.941 . S
H194 C208 0.939 . S
H195 C210 0.940 . S
H196 C211 0.940 . S
H197 C213 0.939 . S
H198 C214 0.942 . S
H199 C216 0.940 . S
H200 C217 0.939 . S
H201 C219 0.941 . S
H202 C223 0.939 . S
O203 P192 1.490 . S
H204 C220 0.939 . S
H205 C222 0.940 . S
C206 P192 1.812 . S
C206 C207 1.389 . S
C206 C211 1.391 . S
C207 H193 0.941 . S
C207 C206 1.389 . S
C207 C208 1.397 . S
C208 H194 0.939 . S
C208 C207 1.397 . S
C208 C209 1.378 . S
C209 C208 1.378 . S
C209 C210 1.378 . S
C210 H195 0.940 . S
C210 C209 1.378 . S
C210 C211 1.396 . S
C211 H196 0.940 . S
C211 C206 1.391 . S
C211 C210 1.396 . S
C212 P192 1.803 . S
C212 C213 1.378 . S
C212 C217 1.400 . S
C213 H197 0.939 . S
C213 C212 1.378 . S
C213 C214 1.361 . S
C214 H198 0.942 . S
C214 C213 1.361 . S
C214 C215 1.369 . S
C215 C214 1.369 . S
C215 C216 1.404 . S
C216 H199 0.940 . S
C216 C215 1.404 . S
C216 C217 1.389 . S
C217 H200 0.939 . S
C217 C212 1.400 . S
C217 C216 1.389 . S
C218 P192 1.819 . S
C218 C219 1.391 . S
C218 C223 1.391 . S
C219 H201 0.941 . S
C219 C218 1.391 . S
C219 C220 1.396 . S
C220 H204 0.939 . S
C220 C219 1.396 . S
C220 C221 1.397 . S
C221 C220 1.397 . S
C221 C222 1.385 . S
C222 H205 0.940 . S
C222 C221 1.385 . S
C222 C223 1.388 . S
C223 H202 0.939 . S
C223 C218 1.391 . S
C223 C222 1.388 . S
P224 O235 1.490 . S
P224 C238 1.812 . S
P224 C244 1.803 . S
P224 C250 1.819 . S
H225 C239 0.941 . S
H226 C240 0.939 . S
H227 C242 0.940 . S
H228 C243 0.940 . S
H229 C245 0.939 . S
H230 C246 0.942 . S
H231 C248 0.940 . S
H232 C249 0.939 . S
H233 C251 0.941 . S
H234 C255 0.939 . S
O235 P224 1.490 . S
H236 C252 0.939 . S
H237 C254 0.940 . S
C238 P224 1.812 . S
C238 C239 1.389 . S
C238 C243 1.391 . S
C239 H225 0.941 . S
C239 C238 1.389 . S
C239 C240 1.397 . S
C240 H226 0.939 . S
C240 C239 1.397 . S
C240 C241 1.378 . S
C241 C240 1.378 . S
C241 C242 1.378 . S
C242 H227 0.940 . S
C242 C241 1.378 . S
C242 C243 1.396 . S
C243 H228 0.940 . S
C243 C238 1.391 . S
C243 C242 1.396 . S
C244 P224 1.803 . S
C244 C245 1.378 . S
C244 C249 1.400 . S
C245 H229 0.939 . S
C245 C244 1.378 . S
C245 C246 1.361 . S
C246 H230 0.942 . S
C246 C245 1.361 . S
C246 C247 1.369 . S
C247 C246 1.369 . S
C247 C248 1.404 . S
C248 H231 0.940 . S
C248 C247 1.404 . S
C248 C249 1.389 . S
C249 H232 0.939 . S
C249 C244 1.400 . S
C249 C248 1.389 . S
C250 P224 1.819 . S
C250 C251 1.391 . S
C250 C255 1.391 . S
C251 H233 0.941 . S
C251 C250 1.391 . S
C251 C252 1.396 . S
C252 H236 0.939 . S
C252 C251 1.396 . S
C252 C253 1.397 . S
C253 C252 1.397 . S
C253 C254 1.385 . S
C254 H237 0.940 . S
C254 C253 1.385 . S
C254 C255 1.388 . S
C255 H234 0.939 . S
C255 C250 1.391 . S
C255 C254 1.388 . S
Co256 N261 2.057 . S
Co256 O273 2.021 . S
Co256 O276 2.062 . S
Co256 O280 2.117 1_545 S
Co256 O281 2.020 . S
C257 O277 1.259 1_655 S
C257 O280 1.258 . S
Co258 N267 2.057 . S
Co258 O274 2.117 1_565 S
Co258 O275 2.020 1_565 S
Co258 O277 2.021 . S
Co258 O282 2.062 . S
C259 N261 1.316 . S
C259 N262 1.347 . S
C259 H264 0.931 . S
C260 N261 1.375 . S
C260 C263 1.350 . S
C260 H265 0.930 1_545 S
N261 Co256 2.057 . S
N261 C259 1.316 . S
N261 C260 1.375 . S
N262 C259 1.347 . S
N262 C263 1.373 . S
C263 C260 1.350 . S
C263 N262 1.373 . S
C263 H284 0.931 . S
H264 C259 0.931 . S
H265 C260 0.930 1_565 S
C266 O273 1.259 1_455 S
C266 O274 1.258 . S
N267 Co258 2.057 . S
N267 C268 1.316 . S
N267 C269 1.375 1_565 S
C268 N267 1.316 . S
C268 N270 1.347 . S
C268 H279 0.931 . S
C269 N267 1.375 1_545 S
C269 C271 1.345 1_545 S
C269 H278 0.930 . S
N270 C268 1.347 . S
N270 C271 1.384 . S
C271 C269 1.345 1_565 S
C271 N270 1.384 . S
C271 H285 0.926 1_565 S
C272 O275 1.256 . S
C272 O276 1.255 1_455 S
O273 Co256 2.021 . S
O273 C266 1.259 1_655 S
O274 Co258 2.117 1_545 S
O274 C266 1.258 . S
O275 Co258 2.020 1_545 S
O275 C272 1.256 . S
O276 Co256 2.062 . S
O276 C272 1.255 1_655 S
O277 C257 1.259 1_455 S
O277 Co258 2.021 . S
H278 C269 0.930 . S
H279 C268 0.931 . S
O280 Co256 2.117 1_565 S
O280 C257 1.258 . S
O281 Co256 2.020 . S
O281 C283 1.256 1_545 S
O282 Co258 2.062 . S
O282 C283 1.255 1_455 S
C283 O281 1.256 1_565 S
C283 O282 1.255 1_655 S
H284 C263 0.931 . S
H285 C271 0.926 1_545 S
Co286 N291 2.057 1_545 S
Co286 O303 2.021 . S
Co286 O306 2.062 1_545 S
Co286 O310 2.117 1_546 S
Co286 O311 2.020 1_556 S
C287 O307 1.259 . S
C287 O310 1.258 . S
Co288 N297 2.057 . S
Co288 O304 2.117 . S
Co288 O305 2.037 . S
Co288 O307 2.021 1_545 S
Co288 O312 2.062 . S
C289 N291 1.316 . S
C289 N292 1.347 . S
C289 H294 0.931 1_565 S
C290 N291 1.375 . S
C290 C293 1.350 . S
C290 H295 0.930 . S
N291 Co286 2.057 1_565 S
N291 C289 1.316 . S
N291 C290 1.375 . S
N292 C289 1.347 . S
N292 C293 1.373 . S
C293 C290 1.350 . S
C293 N292 1.373 . S
C293 H314 0.931 . S
H294 C289 0.931 1_545 S
H295 C290 0.930 . S
C296 O303 1.259 . S
C296 O304 1.258 1_556 S
N297 Co288 2.057 . S
N297 C298 1.316 . S
N297 C299 1.375 . S
C298 N297 1.316 . S
C298 N300 1.347 . S
C298 H309 0.931 . S
C299 N297 1.375 . S
C299 C301 1.350 . S
C299 H308 0.930 . S
N300 C298 1.347 . S
N300 C301 1.373 . S
C301 C299 1.350 . S
C301 N300 1.373 . S
C301 H315 0.931 . S
C302 O305 1.243 1_566 S
C302 O306 1.255 . S
O303 Co286 2.021 . S
O303 C296 1.259 . S
O304 Co288 2.117 . S
O304 C296 1.258 1_554 S
O305 Co288 2.037 . S
O305 C302 1.243 1_544 S
O306 Co286 2.062 1_565 S
O306 C302 1.255 . S
O307 C287 1.259 . S
O307 Co288 2.021 1_565 S
H308 C299 0.930 . S
H309 C298 0.931 . S
O310 Co286 2.117 1_564 S
O310 C287 1.258 . S
O311 Co286 2.020 1_554 S
O311 C313 1.256 . S
O312 Co288 2.062 . S
O312 C313 1.255 . S
C313 O311 1.256 . S
C313 O312 1.255 . S
H314 C293 0.931 . S
H315 C301 0.931 . S
Co316 N321 2.057 . S
Co316 O333 2.021 . S
Co316 O336 2.062 . S
Co316 O340 2.117 . S
Co316 O341 2.020 . S
C317 O337 1.259 . S
C317 O340 1.258 . S
Co318 N327 2.057 . S
Co318 O334 2.117 . S
Co318 O335 2.020 . S
Co318 O337 2.021 . S
Co318 O342 2.062 . S
C319 N321 1.316 . S
C319 N322 1.347 . S
C319 H324 0.931 . S
C320 N321 1.375 . S
C320 C323 1.350 . S
C320 H325 0.930 . S
N321 Co316 2.057 . S
N321 C319 1.316 . S
N321 C320 1.375 . S
N322 C319 1.347 . S
N322 C323 1.373 . S
C323 C320 1.350 . S
C323 N322 1.373 . S
C323 H344 0.931 . S
H324 C319 0.931 . S
H325 C320 0.930 . S
C326 O333 1.259 . S
C326 O334 1.258 . S
N327 Co318 2.057 . S
N327 C328 1.316 . S
N327 C329 1.375 . S
C328 N327 1.316 . S
C328 N330 1.347 . S
C328 H339 0.931 . S
C329 N327 1.375 . S
C329 C331 1.350 . S
C329 H338 0.930 . S
N330 C328 1.347 . S
N330 C331 1.373 . S
C331 C329 1.350 . S
C331 N330 1.373 . S
C331 H345 0.931 . S
C332 O335 1.256 . S
C332 O336 1.255 . S
O333 Co316 2.021 . S
O333 C326 1.259 . S
O334 Co318 2.117 . S
O334 C326 1.258 . S
O335 Co318 2.020 . S
O335 C332 1.256 . S
O336 Co316 2.062 . S
O336 C332 1.255 . S
O337 C317 1.259 . S
O337 Co318 2.021 . S
H338 C329 0.930 . S
H339 C328 0.931 . S
O340 Co316 2.117 . S
O340 C317 1.258 . S
O341 Co316 2.020 . S
O341 C343 1.256 . S
O342 Co318 2.062 . S
O342 C343 1.255 . S
C343 O341 1.256 . S
C343 O342 1.255 . S
H344 C323 0.931 . S
H345 C331 0.931 . S
Co346 N351 2.057 . S
Co346 O363 2.021 . S
Co346 O366 2.052 1_556 S
Co346 O370 2.117 1_455 S
Co346 O371 2.008 1_455 S
C347 O367 1.269 . S
C347 O370 1.252 1_554 S
Co348 N357 2.057 . S
Co348 O364 2.117 1_655 S
Co348 O365 2.020 1_655 S
Co348 O367 2.021 . S
Co348 O372 2.062 . S
C349 N351 1.316 . S
C349 N352 1.347 . S
C349 H354 0.931 . S
C350 N351 1.375 1_655 S
C350 C353 1.350 1_655 S
C350 H355 0.930 . S
N351 Co346 2.057 . S
N351 C349 1.316 . S
N351 C350 1.375 1_455 S
N352 C349 1.347 . S
N352 C353 1.373 . S
C353 C350 1.350 1_455 S
C353 N352 1.373 . S
C353 H374 0.931 1_455 S
H354 C349 0.931 . S
H355 C350 0.930 . S
C356 O363 1.259 1_554 S
C356 O364 1.258 . S
N357 Co348 2.057 . S
N357 C358 1.316 . S
N357 C359 1.375 1_655 S
C358 N357 1.316 . S
C358 N360 1.347 . S
C358 H369 0.931 . S
C359 N357 1.375 1_455 S
C359 C361 1.350 1_455 S
C359 H368 0.930 . S
N360 C358 1.347 . S
N360 C361 1.373 . S
C361 C359 1.350 1_655 S
C361 N360 1.373 . S
C361 H375 0.931 1_655 S
C362 O365 1.256 . S
C362 O366 1.279 . S
O363 Co346 2.021 . S
O363 C356 1.259 1_556 S
O364 Co348 2.117 1_455 S
O364 C356 1.258 . S
O365 Co348 2.020 1_455 S
O365 C362 1.256 . S
O366 Co346 2.052 1_554 S
O366 C362 1.279 . S
O367 C347 1.269 . S
O367 Co348 2.021 . S
H368 C359 0.930 . S
H369 C358 0.931 . S
O370 Co346 2.117 1_655 S
O370 C347 1.252 1_556 S
O371 Co346 2.008 1_655 S
O371 C373 1.272 . S
O372 Co348 2.062 . S
O372 C373 1.255 1_554 S
C373 O371 1.272 . S
C373 O372 1.255 1_556 S
H374 C353 0.931 1_655 S
H375 C361 0.931 1_455 S
C376 C377 1.349 . S
C376 C378 1.327 . S
C376 H401 0.950 . S
C377 C376 1.349 . S
C377 C393 1.349 . S
C378 C376 1.327 . S
C378 C397 1.429 . S
C378 H402 0.950 . S
C379 C396 1.574 . S
C379 C398 1.368 . S
C379 H403 0.949 . S
H380 C384 0.949 . S
C381 C382 1.349 . S
C381 C383 1.327 . S
C381 H404 0.950 . S
C382 C381 1.349 . S
C382 C394 1.349 . S
C383 C381 1.327 . S
C383 C399 1.429 . S
C383 H405 0.950 . S
C384 H380 0.949 . S
C384 C392 1.574 . S
C384 C400 1.368 . S
H385 C393 0.950 . S
H386 C391 0.950 . S
H387 C392 0.949 . S
H388 C394 0.950 . S
H389 C395 0.950 . S
H390 C396 0.949 . S
C391 H386 0.950 . S
C391 C393 1.327 . S
C391 C397 1.429 . S
C392 C384 1.574 . S
C392 H387 0.949 . S
C392 C398 1.368 . S
C393 C377 1.349 . S
C393 H385 0.950 . S
C393 C391 1.327 . S
C394 C382 1.349 . S
C394 H388 0.950 . S
C394 C395 1.327 . S
C395 H389 0.950 . S
C395 C394 1.327 . S
C395 C399 1.429 . S
C396 C379 1.574 . S
C396 H390 0.949 . S
C396 C400 1.368 . S
C397 C378 1.429 . S
C397 C391 1.429 . S
C397 C398 1.523 . S
C398 C379 1.368 . S
C398 C392 1.368 . S
C398 C397 1.523 . S
C399 C383 1.429 . S
C399 C395 1.429 . S
C399 C400 1.523 . S
C400 C384 1.368 . S
C400 C396 1.368 . S
C400 C399 1.523 . S
H401 C376 0.950 . S
H402 C378 0.950 . S
H403 C379 0.949 . S
H404 C381 0.950 . S
H405 C383 0.950 . S
C406 C407 1.349 . S
C406 C408 1.327 . S
C406 H431 0.950 . S
C407 C406 1.349 . S
C407 C423 1.349 . S
C408 C406 1.327 . S
C408 C427 1.429 . S
C408 H432 0.950 . S
C409 C426 1.574 . S
C409 C428 1.368 . S
C409 H433 0.949 . S
H410 C414 0.949 . S
C411 C412 1.349 . S
C411 C413 1.327 . S
C411 H434 0.950 . S
C412 C411 1.349 . S
C412 C424 1.349 . S
C413 C411 1.327 . S
C413 C429 1.429 . S
C413 H435 0.950 . S
C414 H410 0.949 . S
C414 C422 1.574 . S
C414 C430 1.368 . S
H415 C423 0.950 . S
H416 C421 0.950 . S
H417 C422 0.949 . S
H418 C424 0.950 . S
H419 C425 0.950 . S
H420 C426 0.949 . S
C421 H416 0.950 . S
C421 C423 1.327 . S
C421 C427 1.429 . S
C422 C414 1.574 . S
C422 H417 0.949 . S
C422 C428 1.368 . S
C423 C407 1.349 . S
C423 H415 0.950 . S
C423 C421 1.327 . S
C424 C412 1.349 . S
C424 H418 0.950 . S
C424 C425 1.327 . S
C425 H419 0.950 . S
C425 C424 1.327 . S
C425 C429 1.429 . S
C426 C409 1.574 . S
C426 H420 0.949 . S
C426 C430 1.368 . S
C427 C408 1.429 . S
C427 C421 1.429 . S
C427 C428 1.523 . S
C428 C409 1.368 . S
C428 C422 1.368 . S
C428 C427 1.523 . S
C429 C413 1.429 . S
C429 C425 1.429 . S
C429 C430 1.523 . S
C430 C414 1.368 . S
C430 C426 1.368 . S
C430 C429 1.523 . S
H431 C406 0.950 . S
H432 C408 0.950 . S
H433 C409 0.949 . S
H434 C411 0.950 . S
H435 C413 0.950 . S
C436 C437 1.349 . S
C436 C438 1.327 . S
C436 H461 0.950 . S
C437 C436 1.349 . S
C437 C453 1.349 . S
C438 C436 1.327 . S
C438 C457 1.429 . S
C438 H462 0.950 . S
C439 C456 1.574 . S
C439 C458 1.368 . S
C439 H463 0.949 . S
H440 C444 0.949 . S
C441 C442 1.349 . S
C441 C443 1.327 . S
C441 H464 0.950 . S
C442 C441 1.349 . S
C442 C454 1.349 . S
C443 C441 1.327 . S
C443 C459 1.429 . S
C443 H465 0.950 . S
C444 H440 0.949 . S
C444 C452 1.574 . S
C444 C460 1.368 . S
H445 C453 0.950 . S
H446 C451 0.950 . S
H447 C452 0.949 . S
H448 C454 0.950 . S
H449 C455 0.950 . S
H450 C456 0.949 . S
C451 H446 0.950 . S
C451 C453 1.327 . S
C451 C457 1.429 . S
C452 C444 1.574 . S
C452 H447 0.949 . S
C452 C458 1.368 . S
C453 C437 1.349 . S
C453 H445 0.950 . S
C453 C451 1.327 . S
C454 C442 1.349 . S
C454 H448 0.950 . S
C454 C455 1.327 . S
C455 H449 0.950 . S
C455 C454 1.327 . S
C455 C459 1.429 . S
C456 C439 1.574 . S
C456 H450 0.949 . S
C456 C460 1.368 . S
C457 C438 1.429 . S
C457 C451 1.429 . S
C457 C458 1.523 . S
C458 C439 1.368 . S
C458 C452 1.368 . S
C458 C457 1.523 . S
C459 C443 1.429 . S
C459 C455 1.429 . S
C459 C460 1.523 . S
C460 C444 1.368 . S
C460 C456 1.368 . S
C460 C459 1.523 . S
H461 C436 0.950 . S
H462 C438 0.950 . S
H463 C439 0.949 . S
H464 C441 0.950 . S
H465 C443 0.950 . S
C466 C467 1.349 . S
C466 C468 1.327 . S
C466 H491 0.950 . S
C467 C466 1.349 . S
C467 C483 1.349 . S
C468 C466 1.327 . S
C468 C487 1.429 . S
C468 H492 0.950 . S
C469 C486 1.574 . S
C469 C488 1.368 . S
C469 H493 0.949 . S
H470 C474 0.949 . S
C471 C472 1.349 . S
C471 C473 1.327 . S
C471 H494 0.950 . S
C472 C471 1.349 . S
C472 C484 1.349 . S
C473 C471 1.327 . S
C473 C489 1.429 . S
C473 H495 0.950 . S
C474 H470 0.949 . S
C474 C482 1.574 . S
C474 C490 1.368 . S
H475 C483 0.950 . S
H476 C481 0.950 . S
H477 C482 0.949 . S
H478 C484 0.950 . S
H479 C485 0.950 . S
H480 C486 0.949 . S
C481 H476 0.950 . S
C481 C483 1.327 . S
C481 C487 1.429 . S
C482 C474 1.574 . S
C482 H477 0.949 . S
C482 C488 1.368 . S
C483 C467 1.349 . S
C483 H475 0.950 . S
C483 C481 1.327 . S
C484 C472 1.349 . S
C484 H478 0.950 . S
C484 C485 1.327 . S
C485 H479 0.950 . S
C485 C484 1.327 . S
C485 C489 1.429 . S
C486 C469 1.574 . S
C486 H480 0.949 . S
C486 C490 1.368 . S
C487 C468 1.429 . S
C487 C481 1.429 . S
C487 C488 1.523 . S
C488 C469 1.368 . S
C488 C482 1.368 . S
C488 C487 1.523 . S
C489 C473 1.429 . S
C489 C485 1.429 . S
C489 C490 1.523 . S
C490 C474 1.368 . S
C490 C486 1.368 . S
C490 C489 1.523 . S
H491 C466 0.950 . S
H492 C468 0.950 . S
H493 C469 0.949 . S
H494 C471 0.950 . S
H495 C473 0.950 . S
C496 C497 1.349 . S
C496 C498 1.327 . S
C496 H521 0.950 . S
C497 C496 1.349 . S
C497 C513 1.349 . S
C498 C496 1.327 . S
C498 C517 1.429 . S
C498 H522 0.950 . S
C499 C516 1.574 . S
C499 C518 1.368 . S
C499 H523 0.949 . S
H500 C504 0.949 . S
C501 C502 1.349 . S
C501 C503 1.327 . S
C501 H524 0.950 . S
C502 C501 1.349 . S
C502 C514 1.349 . S
C503 C501 1.327 . S
C503 C519 1.429 . S
C503 H525 0.950 . S
C504 H500 0.949 . S
C504 C512 1.574 . S
C504 C520 1.368 . S
H505 C513 0.950 . S
H506 C511 0.950 . S
H507 C512 0.949 . S
H508 C514 0.950 . S
H509 C515 0.950 . S
H510 C516 0.949 . S
C511 H506 0.950 . S
C511 C513 1.327 . S
C511 C517 1.429 . S
C512 C504 1.574 . S
C512 H507 0.949 . S
C512 C518 1.368 . S
C513 C497 1.349 . S
C513 H505 0.950 . S
C513 C511 1.327 . S
C514 C502 1.349 . S
C514 H508 0.950 . S
C514 C515 1.327 . S
C515 H509 0.950 . S
C515 C514 1.327 . S
C515 C519 1.429 . S
C516 C499 1.574 . S
C516 H510 0.949 . S
C516 C520 1.368 . S
C517 C498 1.429 . S
C517 C511 1.429 . S
C517 C518 1.523 . S
C518 C499 1.368 . S
C518 C512 1.368 . S
C518 C517 1.523 . S
C519 C503 1.429 . S
C519 C515 1.429 . S
C519 C520 1.523 . S
C520 C504 1.368 . S
C520 C516 1.368 . S
C520 C519 1.523 . S
H521 C496 0.950 . S
H522 C498 0.950 . S
H523 C499 0.949 . S
H524 C501 0.950 . S
H525 C503 0.950 . S
C526 C527 1.349 . S
C526 C528 1.327 . S
C526 H551 0.950 . S
C527 C526 1.349 . S
C527 C543 1.349 . S
C528 C526 1.327 . S
C528 C547 1.429 . S
C528 H552 0.950 . S
C529 C546 1.574 . S
C529 C548 1.368 . S
C529 H553 0.949 . S
H530 C534 0.949 . S
C531 C532 1.349 . S
C531 C533 1.327 . S
C531 H554 0.950 . S
C532 C531 1.349 . S
C532 C544 1.349 . S
C533 C531 1.327 . S
C533 C549 1.429 . S
C533 H555 0.950 . S
C534 H530 0.949 . S
C534 C542 1.574 . S
C534 C550 1.368 . S
H535 C543 0.950 . S
H536 C541 0.950 . S
H537 C542 0.949 . S
H538 C544 0.950 . S
H539 C545 0.950 . S
H540 C546 0.949 . S
C541 H536 0.950 . S
C541 C543 1.327 . S
C541 C547 1.429 . S
C542 C534 1.574 . S
C542 H537 0.949 . S
C542 C548 1.368 . S
C543 C527 1.349 . S
C543 H535 0.950 . S
C543 C541 1.327 . S
C544 C532 1.349 . S
C544 H538 0.950 . S
C544 C545 1.327 . S
C545 H539 0.950 . S
C545 C544 1.327 . S
C545 C549 1.429 . S
C546 C529 1.574 . S
C546 H540 0.949 . S
C546 C550 1.368 . S
C547 C528 1.429 . S
C547 C541 1.429 . S
C547 C548 1.523 . S
C548 C529 1.368 . S
C548 C542 1.368 . S
C548 C547 1.523 . S
C549 C533 1.429 . S
C549 C545 1.429 . S
C549 C550 1.523 . S
C550 C534 1.368 . S
C550 C546 1.368 . S
C550 C549 1.523 . S
H551 C526 0.950 . S
H552 C528 0.950 . S
H553 C529 0.949 . S
H554 C531 0.950 . S
H555 C533 0.950 . S
C556 C557 1.349 . S
C556 C558 1.327 . S
C556 H581 0.950 . S
C557 C556 1.349 . S
C557 C573 1.349 . S
C558 C556 1.327 . S
C558 C577 1.429 . S
C558 H582 0.950 . S
C559 C576 1.574 . S
C559 C578 1.368 . S
C559 H583 0.949 . S
H560 C564 0.949 . S
C561 C562 1.349 . S
C561 C563 1.327 . S
C561 H584 0.950 1_556 S
C562 C561 1.349 . S
C562 C574 1.349 . S
C563 C561 1.327 . S
C563 C579 1.429 . S
C563 H585 0.950 . S
C564 H560 0.949 . S
C564 C572 1.574 . S
C564 C580 1.368 . S
H565 C573 0.950 . S
H566 C571 0.950 . S
H567 C572 0.949 . S
H568 C574 0.950 . S
H569 C575 0.950 . S
H570 C576 0.949 . S
C571 H566 0.950 . S
C571 C573 1.327 . S
C571 C577 1.429 . S
C572 C564 1.574 . S
C572 H567 0.949 . S
C572 C578 1.368 . S
C573 C557 1.349 . S
C573 H565 0.950 . S
C573 C571 1.327 . S
C574 C562 1.349 . S
C574 H568 0.950 . S
C574 C575 1.327 . S
C575 H569 0.950 . S
C575 C574 1.327 . S
C575 C579 1.429 . S
C576 C559 1.574 . S
C576 H570 0.949 . S
C576 C580 1.368 . S
C577 C558 1.429 . S
C577 C571 1.429 . S
C577 C578 1.523 . S
C578 C559 1.368 . S
C578 C572 1.368 . S
C578 C577 1.523 . S
C579 C563 1.429 . S
C579 C575 1.429 . S
C579 C580 1.523 . S
C580 C564 1.368 . S
C580 C576 1.368 . S
C580 C579 1.523 . S
H581 C556 0.950 . S
H582 C558 0.950 . S
H583 C559 0.949 . S
H584 C561 0.950 1_554 S
H585 C563 0.950 . S
C586 C587 1.349 . S
C586 C588 1.327 . S
C586 H611 0.950 . S
C587 C586 1.349 . S
C587 C603 1.349 . S
C588 C586 1.327 . S
C588 C607 1.429 . S
C588 H612 0.950 . S
C589 C606 1.574 . S
C589 C608 1.368 . S
C589 H613 0.949 . S
H590 C594 0.949 . S
C591 C592 1.349 . S
C591 C593 1.327 . S
C591 H614 0.950 . S
C592 C591 1.349 . S
C592 C604 1.349 . S
C593 C591 1.327 . S
C593 C609 1.429 . S
C593 H615 0.950 . S
C594 H590 0.949 . S
C594 C602 1.574 . S
C594 C610 1.368 . S
H595 C603 0.950 . S
H596 C601 0.950 . S
H597 C602 0.949 . S
H598 C604 0.950 . S
H599 C605 0.950 . S
H600 C606 0.949 . S
C601 H596 0.950 . S
C601 C603 1.327 . S
C601 C607 1.429 . S
C602 C594 1.574 . S
C602 H597 0.949 . S
C602 C608 1.368 . S
C603 C587 1.349 . S
C603 H595 0.950 . S
C603 C601 1.327 . S
C604 C592 1.349 . S
C604 H598 0.950 . S
C604 C605 1.327 . S
C605 H599 0.950 . S
C605 C604 1.327 . S
C605 C609 1.429 . S
C606 C589 1.574 . S
C606 H600 0.949 . S
C606 C610 1.368 . S
C607 C588 1.429 . S
C607 C601 1.429 . S
C607 C608 1.523 . S
C608 C589 1.368 . S
C608 C602 1.368 . S
C608 C607 1.523 . S
C609 C593 1.429 . S
C609 C605 1.429 . S
C609 C610 1.523 . S
C610 C594 1.368 . S
C610 C606 1.368 . S
C610 C609 1.523 . S
H611 C586 0.950 . S
H612 C588 0.950 . S
H613 C589 0.949 . S
H614 C591 0.950 . S
H615 C593 0.950 . S
C616 C617 1.349 . S
C616 C618 1.327 . S
C616 H641 0.950 . S
C617 C616 1.349 . S
C617 C633 1.349 . S
C618 C616 1.327 . S
C618 C637 1.429 . S
C618 H642 0.950 . S
C619 C636 1.574 . S
C619 C638 1.368 . S
C619 H643 0.949 . S
H620 C624 0.949 . S
C621 C622 1.349 . S
C621 C623 1.327 . S
C621 H644 0.950 . S
C622 C621 1.349 . S
C622 C634 1.349 . S
C623 C621 1.327 . S
C623 C639 1.429 . S
C623 H645 0.950 . S
C624 H620 0.949 . S
C624 C632 1.574 . S
C624 C640 1.368 . S
H625 C633 0.950 . S
H626 C631 0.950 . S
H627 C632 0.949 . S
H628 C634 0.950 1_556 S
H629 C635 0.950 . S
H630 C636 0.949 . S
C631 H626 0.950 . S
C631 C633 1.327 . S
C631 C637 1.429 . S
C632 C624 1.574 . S
C632 H627 0.949 . S
C632 C638 1.368 . S
C633 C617 1.349 . S
C633 H625 0.950 . S
C633 C631 1.327 . S
C634 C622 1.349 . S
C634 H628 0.950 1_554 S
C634 C635 1.327 . S
C635 H629 0.950 . S
C635 C634 1.327 . S
C635 C639 1.429 . S
C636 C619 1.574 . S
C636 H630 0.949 . S
C636 C640 1.368 . S
C637 C618 1.429 . S
C637 C631 1.429 . S
C637 C638 1.523 . S
C638 C619 1.368 . S
C638 C632 1.368 . S
C638 C637 1.523 . S
C639 C623 1.429 . S
C639 C635 1.429 . S
C639 C640 1.523 . S
C640 C624 1.368 . S
C640 C636 1.368 . S
C640 C639 1.523 . S
H641 C616 0.950 . S
H642 C618 0.950 . S
H643 C619 0.949 . S
H644 C621 0.950 . S
H645 C623 0.950 . S
C646 C647 1.349 . S
C646 C648 1.327 . S
C646 H671 0.950 . S
C647 C646 1.349 . S
C647 C663 1.349 . S
C648 C646 1.327 . S
C648 C667 1.429 . S
C648 H672 0.950 . S
C649 C666 1.574 . S
C649 C668 1.368 . S
C649 H673 0.949 . S
H650 C654 0.949 . S
C651 C652 1.349 . S
C651 C653 1.327 . S
C651 H674 0.950 . S
C652 C651 1.349 . S
C652 C664 1.349 . S
C653 C651 1.327 . S
C653 C669 1.429 . S
C653 H675 0.950 . S
C654 H650 0.949 . S
C654 C662 1.574 . S
C654 C670 1.368 . S
H655 C663 0.950 . S
H656 C661 0.950 . S
H657 C662 0.949 . S
H658 C664 0.950 . S
H659 C665 0.950 . S
H660 C666 0.949 . S
C661 H656 0.950 . S
C661 C663 1.327 . S
C661 C667 1.429 . S
C662 C654 1.574 . S
C662 H657 0.949 . S
C662 C668 1.368 . S
C663 C647 1.349 . S
C663 H655 0.950 . S
C663 C661 1.327 . S
C664 C652 1.349 . S
C664 H658 0.950 . S
C664 C665 1.327 . S
C665 H659 0.950 . S
C665 C664 1.327 . S
C665 C669 1.429 . S
C666 C649 1.574 . S
C666 H660 0.949 . S
C666 C670 1.368 . S
C667 C648 1.429 . S
C667 C661 1.429 . S
C667 C668 1.523 . S
C668 C649 1.368 . S
C668 C662 1.368 . S
C668 C667 1.523 . S
C669 C653 1.429 . S
C669 C665 1.429 . S
C669 C670 1.523 . S
C670 C654 1.368 . S
C670 C666 1.368 . S
C670 C669 1.523 . S
H671 C646 0.950 . S
H672 C648 0.950 . S
H673 C649 0.949 . S
H674 C651 0.950 . S
H675 C653 0.950 . S
C676 C677 1.349 . S
C676 C678 1.327 . S
C676 H701 0.950 . S
C677 C676 1.349 . S
C677 C693 1.349 . S
C678 C676 1.327 . S
C678 C697 1.429 . S
C678 H702 0.950 . S
C679 C696 1.574 . S
C679 C698 1.368 . S
C679 H703 0.949 . S
H680 C684 0.949 . S
C681 C682 1.349 . S
C681 C683 1.327 . S
C681 H704 0.950 . S
C682 C681 1.349 . S
C682 C694 1.349 . S
C683 C681 1.327 . S
C683 C699 1.429 . S
C683 H705 0.950 . S
C684 H680 0.949 . S
C684 C692 1.574 . S
C684 C700 1.368 . S
H685 C693 0.950 . S
H686 C691 0.950 . S
H687 C692 0.949 . S
H688 C694 0.950 1_455 S
H689 C695 0.950 . S
H690 C696 0.949 . S
C691 H686 0.950 . S
C691 C693 1.327 . S
C691 C697 1.429 . S
C692 C684 1.574 . S
C692 H687 0.949 . S
C692 C698 1.368 . S
C693 C677 1.349 . S
C693 H685 0.950 . S
C693 C691 1.327 . S
C694 C682 1.349 . S
C694 H688 0.950 1_655 S
C694 C695 1.327 . S
C695 H689 0.950 . S
C695 C694 1.327 . S
C695 C699 1.429 . S
C696 C679 1.574 . S
C696 H690 0.949 . S
C696 C700 1.368 . S
C697 C678 1.429 . S
C697 C691 1.429 . S
C697 C698 1.523 . S
C698 C679 1.368 . S
C698 C692 1.368 . S
C698 C697 1.523 . S
C699 C683 1.429 . S
C699 C695 1.429 . S
C699 C700 1.523 . S
C700 C684 1.368 . S
C700 C696 1.368 . S
C700 C699 1.523 . S
H701 C676 0.950 . S
H702 C678 0.950 . S
H703 C679 0.949 . S
H704 C681 0.950 . S
H705 C683 0.950 . S
C706 C707 1.349 . S
C706 C708 1.327 . S
C706 H731 0.950 . S
C707 C706 1.349 . S
C707 C723 1.349 . S
C708 C706 1.327 . S
C708 C727 1.429 . S
C708 H732 0.950 . S
C709 C726 1.574 . S
C709 C728 1.368 . S
C709 H733 0.949 . S
H710 C714 0.949 . S
C711 C712 1.349 . S
C711 C713 1.327 . S
C711 H734 0.950 . S
C712 C711 1.349 . S
C712 C724 1.349 . S
C713 C711 1.327 . S
C713 C729 1.429 . S
C713 H735 0.950 . S
C714 H710 0.949 . S
C714 C722 1.574 . S
C714 C730 1.368 . S
H715 C723 0.950 . S
H716 C721 0.950 . S
H717 C722 0.949 . S
H718 C724 0.950 . S
H719 C725 0.950 . S
H720 C726 0.949 . S
C721 H716 0.950 . S
C721 C723 1.327 . S
C721 C727 1.429 . S
C722 C714 1.574 . S
C722 H717 0.949 . S
C722 C728 1.368 . S
C723 C707 1.349 . S
C723 H715 0.950 . S
C723 C721 1.327 . S
C724 C712 1.349 . S
C724 H718 0.950 . S
C724 C725 1.327 . S
C725 H719 0.950 . S
C725 C724 1.327 . S
C725 C729 1.429 . S
C726 C709 1.574 . S
C726 H720 0.949 . S
C726 C730 1.368 . S
C727 C708 1.429 . S
C727 C721 1.429 . S
C727 C728 1.523 . S
C728 C709 1.368 . S
C728 C722 1.368 . S
C728 C727 1.523 . S
C729 C713 1.429 . S
C729 C725 1.429 . S
C729 C730 1.523 . S
C730 C714 1.368 . S
C730 C726 1.368 . S
C730 C729 1.523 . S
H731 C706 0.950 . S
H732 C708 0.950 . S
H733 C709 0.949 . S
H734 C711 0.950 . S
H735 C713 0.950 . S
C736 C737 1.349 . S
C736 C738 1.327 . S
C736 H761 0.950 . S
C737 C736 1.349 . S
C737 C753 1.349 . S
C738 C736 1.327 . S
C738 C757 1.429 . S
C738 H762 0.950 . S
C739 C756 1.574 . S
C739 C758 1.368 . S
C739 H763 0.949 . S
H740 C744 0.949 . S
C741 C742 1.349 . S
C741 C743 1.327 . S
C741 H764 0.950 . S
C742 C741 1.349 . S
C742 C754 1.349 . S
C743 C741 1.327 . S
C743 C759 1.429 . S
C743 H765 0.950 . S
C744 H740 0.949 . S
C744 C752 1.574 . S
C744 C760 1.368 . S
H745 C753 0.950 . S
H746 C751 0.950 . S
H747 C752 0.949 . S
H748 C754 0.950 1_445 S
H749 C755 0.950 . S
H750 C756 0.949 . S
C751 H746 0.950 . S
C751 C753 1.327 . S
C751 C757 1.429 . S
C752 C744 1.574 . S
C752 H747 0.949 . S
C752 C758 1.368 . S
C753 C737 1.349 . S
C753 H745 0.950 . S
C753 C751 1.327 . S
C754 C742 1.349 . S
C754 H748 0.950 1_665 S
C754 C755 1.327 . S
C755 H749 0.950 . S
C755 C754 1.327 . S
C755 C759 1.429 . S
C756 C739 1.574 . S
C756 H750 0.949 . S
C756 C760 1.368 . S
C757 C738 1.429 . S
C757 C751 1.429 . S
C757 C758 1.523 . S
C758 C739 1.368 . S
C758 C752 1.368 . S
C758 C757 1.523 . S
C759 C743 1.429 . S
C759 C755 1.429 . S
C759 C760 1.523 . S
C760 C744 1.368 . S
C760 C756 1.368 . S
C760 C759 1.523 . S
H761 C736 0.950 . S
H762 C738 0.950 . S
H763 C739 0.949 . S
H764 C741 0.950 . S
H765 C743 0.950 . S
C766 C767 1.349 . S
C766 C768 1.327 . S
C766 H791 0.950 . S
C767 C766 1.349 . S
C767 C783 1.349 . S
C768 C766 1.327 . S
C768 C787 1.429 . S
C768 H792 0.950 . S
C769 C786 1.574 . S
C769 C788 1.368 . S
C769 H793 0.949 . S
H770 C774 0.949 . S
C771 C772 1.349 . S
C771 C773 1.327 . S
C771 H794 0.950 . S
C772 C771 1.349 . S
C772 C784 1.349 . S
C773 C771 1.327 . S
C773 C789 1.429 . S
C773 H795 0.950 . S
C774 H770 0.949 . S
C774 C782 1.574 . S
C774 C790 1.368 . S
H775 C783 0.950 . S
H776 C781 0.950 . S
H777 C782 0.949 . S
H778 C784 0.950 . S
H779 C785 0.950 . S
H780 C786 0.949 . S
C781 H776 0.950 . S
C781 C783 1.327 . S
C781 C787 1.429 . S
C782 C774 1.574 . S
C782 H777 0.949 . S
C782 C788 1.368 . S
C783 C767 1.349 . S
C783 H775 0.950 . S
C783 C781 1.327 . S
C784 C772 1.349 . S
C784 H778 0.950 . S
C784 C785 1.327 . S
C785 H779 0.950 . S
C785 C784 1.327 . S
C785 C789 1.429 . S
C786 C769 1.574 . S
C786 H780 0.949 . S
C786 C790 1.368 . S
C787 C768 1.429 . S
C787 C781 1.429 . S
C787 C788 1.523 . S
C788 C769 1.368 . S
C788 C782 1.368 . S
C788 C787 1.523 . S
C789 C773 1.429 . S
C789 C785 1.429 . S
C789 C790 1.523 . S
C790 C774 1.368 . S
C790 C786 1.368 . S
C790 C789 1.523 . S
H791 C766 0.950 . S
H792 C768 0.950 . S
H793 C769 0.949 . S
H794 C771 0.950 . S
H795 C773 0.950 . S
C796 C797 1.349 . S
C796 C798 1.327 . S
C796 H821 0.950 . S
C797 C796 1.349 . S
C797 C813 1.349 . S
C798 C796 1.327 . S
C798 C817 1.429 . S
C798 H822 0.950 . S
C799 C816 1.574 . S
C799 C818 1.368 . S
C799 H823 0.949 . S
H800 C804 0.949 . S
C801 C802 1.349 . S
C801 C803 1.327 . S
C801 H824 0.950 . S
C802 C801 1.349 . S
C802 C814 1.349 . S
C803 C801 1.327 . S
C803 C819 1.429 . S
C803 H825 0.950 . S
C804 H800 0.949 . S
C804 C812 1.574 . S
C804 C820 1.368 . S
H805 C813 0.950 . S
H806 C811 0.950 . S
H807 C812 0.949 . S
H808 C814 0.950 . S
H809 C815 0.950 . S
H810 C816 0.949 . S
C811 H806 0.950 . S
C811 C813 1.327 . S
C811 C817 1.429 . S
C812 C804 1.574 . S
C812 H807 0.949 . S
C812 C818 1.368 . S
C813 C797 1.349 . S
C813 H805 0.950 . S
C813 C811 1.327 . S
C814 C802 1.349 . S
C814 H808 0.950 . S
C814 C815 1.327 . S
C815 H809 0.950 . S
C815 C814 1.327 . S
C815 C819 1.429 . S
C816 C799 1.574 . S
C816 H810 0.949 . S
C816 C820 1.368 . S
C817 C798 1.429 . S
C817 C811 1.429 . S
C817 C818 1.523 . S
C818 C799 1.368 . S
C818 C812 1.368 . S
C818 C817 1.523 . S
C819 C803 1.429 . S
C819 C815 1.429 . S
C819 C820 1.523 . S
C820 C804 1.368 . S
C820 C816 1.368 . S
C820 C819 1.523 . S
H821 C796 0.950 . S
H822 C798 0.950 . S
H823 C799 0.949 . S
H824 C801 0.950 . S
H825 C803 0.950 . S
C826 C827 1.349 . S
C826 C828 1.327 . S
C826 H851 0.950 . S
C827 C826 1.349 . S
C827 C843 1.349 . S
C828 C826 1.327 . S
C828 C847 1.429 . S
C828 H852 0.950 . S
C829 C846 1.574 . S
C829 C848 1.368 . S
C829 H853 0.949 . S
H830 C834 0.949 . S
C831 C832 1.349 . S
C831 C833 1.327 . S
C831 H854 0.950 . S
C832 C831 1.349 . S
C832 C844 1.349 . S
C833 C831 1.327 . S
C833 C849 1.429 . S
C833 H855 0.950 . S
C834 H830 0.949 . S
C834 C842 1.574 . S
C834 C850 1.368 . S
H835 C843 0.950 . S
H836 C841 0.950 . S
H837 C842 0.949 . S
H838 C844 0.950 . S
H839 C845 0.950 . S
H840 C846 0.949 . S
C841 H836 0.950 . S
C841 C843 1.327 . S
C841 C847 1.429 . S
C842 C834 1.574 . S
C842 H837 0.949 . S
C842 C848 1.368 . S
C843 C827 1.349 . S
C843 H835 0.950 . S
C843 C841 1.327 . S
C844 C832 1.349 . S
C844 H838 0.950 . S
C844 C845 1.327 . S
C845 H839 0.950 . S
C845 C844 1.327 . S
C845 C849 1.429 . S
C846 C829 1.574 . S
C846 H840 0.949 . S
C846 C850 1.368 . S
C847 C828 1.429 . S
C847 C841 1.429 . S
C847 C848 1.523 . S
C848 C829 1.368 . S
C848 C842 1.368 . S
C848 C847 1.523 . S
C849 C833 1.429 . S
C849 C845 1.429 . S
C849 C850 1.523 . S
C850 C834 1.368 . S
C850 C846 1.368 . S
C850 C849 1.523 . S
H851 C826 0.950 . S
H852 C828 0.950 . S
H853 C829 0.949 . S
H854 C831 0.950 . S
H855 C833 0.950 . S
C856 C857 1.349 . S
C856 C858 1.327 . S
C856 H881 0.950 . S
C857 C856 1.349 . S
C857 C873 1.349 . S
C858 C856 1.327 . S
C858 C877 1.429 . S
C858 H882 0.950 . S
C859 C876 1.574 . S
C859 C878 1.368 . S
C859 H883 0.949 . S
H860 C864 0.949 . S
C861 C862 1.349 1_554 S
C861 C863 1.327 1_554 S
C861 H884 0.950 . S
C862 C861 1.349 1_556 S
C862 C874 1.349 . S
C863 C861 1.327 1_556 S
C863 C879 1.429 . S
C863 H885 0.950 1_556 S
C864 H860 0.949 . S
C864 C872 1.574 . S
C864 C880 1.368 . S
H865 C873 0.950 . S
H866 C871 0.950 . S
H867 C872 0.949 . S
H868 C874 0.950 1_545 S
H869 C875 0.950 . S
H870 C876 0.949 . S
C871 H866 0.950 . S
C871 C873 1.327 . S
C871 C877 1.429 . S
C872 C864 1.574 . S
C872 H867 0.949 . S
C872 C878 1.368 . S
C873 C857 1.349 . S
C873 H865 0.950 . S
C873 C871 1.327 . S
C874 C862 1.349 . S
C874 H868 0.950 1_565 S
C874 C875 1.327 . S
C875 H869 0.950 . S
C875 C874 1.327 . S
C875 C879 1.429 . S
C876 C859 1.574 . S
C876 H870 0.949 . S
C876 C880 1.368 . S
C877 C858 1.429 . S
C877 C871 1.429 . S
C877 C878 1.523 . S
C878 C859 1.368 . S
C878 C872 1.368 . S
C878 C877 1.523 . S
C879 C863 1.429 . S
C879 C875 1.429 . S
C879 C880 1.523 . S
C880 C864 1.368 . S
C880 C876 1.368 . S
C880 C879 1.523 . S
H881 C856 0.950 . S
H882 C858 0.950 . S
H883 C859 0.949 . S
H884 C861 0.950 . S
H885 C863 0.950 1_554 S
C886 C887 1.349 . S
C886 C888 1.327 . S
C886 H911 0.950 . S
C887 C886 1.349 . S
C887 C903 1.349 . S
C888 C886 1.327 . S
C888 C907 1.429 . S
C888 H912 0.950 . S
C889 C906 1.574 . S
C889 C908 1.368 . S
C889 H913 0.949 . S
H890 C894 0.949 . S
C891 C892 1.349 . S
C891 C893 1.327 . S
C891 H914 0.950 . S
C892 C891 1.349 . S
C892 C904 1.349 . S
C893 C891 1.327 . S
C893 C909 1.429 . S
C893 H915 0.950 . S
C894 H890 0.949 . S
C894 C902 1.574 . S
C894 C910 1.368 . S
H895 C903 0.950 . S
H896 C901 0.950 . S
H897 C902 0.949 . S
H898 C904 0.950 . S
H899 C905 0.950 . S
H900 C906 0.949 . S
C901 H896 0.950 . S
C901 C903 1.327 . S
C901 C907 1.429 . S
C902 C894 1.574 . S
C902 H897 0.949 . S
C902 C908 1.368 . S
C903 C887 1.349 . S
C903 H895 0.950 . S
C903 C901 1.327 . S
C904 C892 1.349 . S
C904 H898 0.950 . S
C904 C905 1.327 . S
C905 H899 0.950 . S
C905 C904 1.327 . S
C905 C909 1.429 . S
C906 C889 1.574 . S
C906 H900 0.949 . S
C906 C910 1.368 . S
C907 C888 1.429 . S
C907 C901 1.429 . S
C907 C908 1.523 . S
C908 C889 1.368 . S
C908 C902 1.368 . S
C908 C907 1.523 . S
C909 C893 1.429 . S
C909 C905 1.429 . S
C909 C910 1.523 . S
C910 C894 1.368 . S
C910 C906 1.368 . S
C910 C909 1.523 . S
H911 C886 0.950 . S
H912 C888 0.950 . S
H913 C889 0.949 . S
H914 C891 0.950 . S
H915 C893 0.950 . S
C916 C917 1.349 . S
C916 C918 1.327 . S
C916 H941 0.950 . S
C917 C916 1.349 . S
C917 C933 1.349 . S
C918 C916 1.327 . S
C918 C937 1.429 . S
C918 H942 0.950 . S
C919 C936 1.574 . S
C919 C938 1.368 . S
C919 H943 0.949 . S
H920 C924 0.949 . S
C921 C922 1.349 . S
C921 C923 1.327 . S
C921 H944 0.950 . S
C922 C921 1.349 . S
C922 C934 1.349 . S
C923 C921 1.327 . S
C923 C939 1.429 . S
C923 H945 0.950 . S
C924 H920 0.949 . S
C924 C932 1.574 . S
C924 C940 1.368 . S
H925 C933 0.950 . S
H926 C931 0.950 . S
H927 C932 0.949 . S
H928 C934 0.950 . S
H929 C935 0.950 . S
H930 C936 0.949 . S
C931 H926 0.950 . S
C931 C933 1.327 . S
C931 C937 1.429 . S
C932 C924 1.574 . S
C932 H927 0.949 . S
C932 C938 1.368 . S
C933 C917 1.349 . S
C933 H925 0.950 . S
C933 C931 1.327 . S
C934 C922 1.349 . S
C934 H928 0.950 . S
C934 C935 1.327 . S
C935 H929 0.950 . S
C935 C934 1.327 . S
C935 C939 1.429 . S
C936 C919 1.574 . S
C936 H930 0.949 . S
C936 C940 1.368 . S
C937 C918 1.429 . S
C937 C931 1.429 . S
C937 C938 1.523 . S
C938 C919 1.368 . S
C938 C932 1.368 . S
C938 C937 1.523 . S
C939 C923 1.429 . S
C939 C935 1.429 . S
C939 C940 1.523 . S
C940 C924 1.368 . S
C940 C936 1.368 . S
C940 C939 1.523 . S
H941 C916 0.950 . S
H942 C918 0.950 . S
H943 C919 0.949 . S
H944 C921 0.950 . S
H945 C923 0.950 . S
C946 C947 1.349 . S
C946 C948 1.327 . S
C946 H971 0.950 . S
C947 C946 1.349 . S
C947 C963 1.349 . S
C948 C946 1.327 . S
C948 C967 1.429 . S
C948 H972 0.950 . S
C949 C966 1.574 . S
C949 C968 1.368 . S
C949 H973 0.949 . S
H950 C954 0.949 . S
C951 C952 1.349 . S
C951 C953 1.327 . S
C951 H974 0.950 . S
C952 C951 1.349 . S
C952 C964 1.349 . S
C953 C951 1.327 . S
C953 C969 1.429 . S
C953 H975 0.950 . S
C954 H950 0.949 . S
C954 C962 1.574 . S
C954 C970 1.368 . S
H955 C963 0.950 . S
H956 C961 0.950 . S
H957 C962 0.949 . S
H958 C964 0.950 . S
H959 C965 0.950 . S
H960 C966 0.949 . S
C961 H956 0.950 . S
C961 C963 1.327 . S
C961 C967 1.429 . S
C962 C954 1.574 . S
C962 H957 0.949 . S
C962 C968 1.368 . S
C963 C947 1.349 . S
C963 H955 0.950 . S
C963 C961 1.327 . S
C964 C952 1.349 . S
C964 H958 0.950 . S
C964 C965 1.327 . S
C965 H959 0.950 . S
C965 C964 1.327 . S
C965 C969 1.429 . S
C966 C949 1.574 . S
C966 H960 0.949 . S
C966 C970 1.368 . S
C967 C948 1.429 . S
C967 C961 1.429 . S
C967 C968 1.523 . S
C968 C949 1.368 . S
C968 C962 1.368 . S
C968 C967 1.523 . S
C969 C953 1.429 . S
C969 C965 1.429 . S
C969 C970 1.523 . S
C970 C954 1.368 . S
C970 C966 1.368 . S
C970 C969 1.523 . S
H971 C946 0.950 . S
H972 C948 0.950 . S
H973 C949 0.949 . S
H974 C951 0.950 . S
H975 C953 0.950 . S
C976 C977 1.349 . S
C976 C978 1.327 . S
C976 H1001 0.950 . S
C977 C976 1.349 . S
C977 C993 1.349 . S
C978 C976 1.327 . S
C978 C997 1.429 . S
C978 H1002 0.950 . S
C979 C996 1.574 . S
C979 C998 1.368 . S
C979 H1003 0.949 . S
H980 C984 0.949 . S
C981 C982 1.349 . S
C981 C983 1.327 . S
C981 H1004 0.950 1_655 S
C982 C981 1.349 . S
C982 C994 1.349 1_556 S
C983 C981 1.327 . S
C983 C999 1.429 . S
C983 H1005 0.950 . S
C984 H980 0.949 . S
C984 C992 1.574 . S
C984 C1000 1.368 . S
H985 C993 0.950 . S
H986 C991 0.950 . S
H987 C992 0.949 . S
H988 C994 0.950 . S
H989 C995 0.950 1_554 S
H990 C996 0.949 . S
C991 H986 0.950 . S
C991 C993 1.327 . S
C991 C997 1.429 . S
C992 C984 1.574 . S
C992 H987 0.949 . S
C992 C998 1.368 . S
C993 C977 1.349 . S
C993 H985 0.950 . S
C993 C991 1.327 . S
C994 C982 1.349 1_554 S
C994 H988 0.950 . S
C994 C995 1.327 1_554 S
C995 H989 0.950 1_556 S
C995 C994 1.327 1_556 S
C995 C999 1.429 . S
C996 C979 1.574 . S
C996 H990 0.949 . S
C996 C1000 1.368 . S
C997 C978 1.429 . S
C997 C991 1.429 . S
C997 C998 1.523 . S
C998 C979 1.368 . S
C998 C992 1.368 . S
C998 C997 1.523 . S
C999 C983 1.429 . S
C999 C995 1.429 . S
C999 C1000 1.523 . S
C1000 C984 1.368 . S
C1000 C996 1.368 . S
C1000 C999 1.523 . S
H1001 C976 0.950 . S
H1002 C978 0.950 . S
H1003 C979 0.949 . S
H1004 C981 0.950 1_455 S
H1005 C983 0.950 . S
C1006 C1007 1.349 . S
C1006 C1008 1.327 . S
C1006 H1031 0.950 . S
C1007 C1006 1.349 . S
C1007 C1023 1.349 . S
C1008 C1006 1.327 . S
C1008 C1027 1.429 . S
C1008 H1032 0.950 . S
C1009 C1026 1.574 . S
C1009 C1028 1.368 . S
C1009 H1033 0.949 . S
H1010 C1014 0.949 . S
C1011 C1012 1.349 . S
C1011 C1013 1.327 . S
C1011 H1034 0.950 . S
C1012 C1011 1.349 . S
C1012 C1024 1.349 . S
C1013 C1011 1.327 . S
C1013 C1029 1.429 . S
C1013 H1035 0.950 . S
C1014 H1010 0.949 . S
C1014 C1022 1.574 . S
C1014 C1030 1.368 . S
H1015 C1023 0.950 . S
H1016 C1021 0.950 . S
H1017 C1022 0.949 . S
H1018 C1024 0.950 . S
H1019 C1025 0.950 . S
H1020 C1026 0.949 . S
C1021 H1016 0.950 . S
C1021 C1023 1.327 . S
C1021 C1027 1.429 . S
C1022 C1014 1.574 . S
C1022 H1017 0.949 . S
C1022 C1028 1.368 . S
C1023 C1007 1.349 . S
C1023 H1015 0.950 . S
C1023 C1021 1.327 . S
C1024 C1012 1.349 . S
C1024 H1018 0.950 . S
C1024 C1025 1.327 . S
C1025 H1019 0.950 . S
C1025 C1024 1.327 . S
C1025 C1029 1.429 . S
C1026 C1009 1.574 . S
C1026 H1020 0.949 . S
C1026 C1030 1.368 . S
C1027 C1008 1.429 . S
C1027 C1021 1.429 . S
C1027 C1028 1.523 . S
C1028 C1009 1.368 . S
C1028 C1022 1.368 . S
C1028 C1027 1.523 . S
C1029 C1013 1.429 . S
C1029 C1025 1.429 . S
C1029 C1030 1.523 . S
C1030 C1014 1.368 . S
C1030 C1026 1.368 . S
C1030 C1029 1.523 . S
H1031 C1006 0.950 . S
H1032 C1008 0.950 . S
H1033 C1009 0.949 . S
H1034 C1011 0.950 . S
H1035 C1013 0.950 . S
C1036 C1037 1.349 . S
C1036 C1038 1.327 . S
C1036 H1061 0.950 . S
C1037 C1036 1.349 . S
C1037 C1053 1.349 . S
C1038 C1036 1.327 . S
C1038 C1057 1.429 . S
C1038 H1062 0.950 . S
C1039 C1056 1.574 . S
C1039 C1058 1.368 . S
C1039 H1063 0.949 . S
H1040 C1044 0.949 . S
C1041 C1042 1.349 . S
C1041 C1043 1.327 . S
C1041 H1064 0.950 . S
C1042 C1041 1.349 . S
C1042 C1054 1.349 . S
C1043 C1041 1.327 . S
C1043 C1059 1.429 . S
C1043 H1065 0.950 . S
C1044 H1040 0.949 . S
C1044 C1052 1.574 . S
C1044 C1060 1.368 . S
H1045 C1053 0.950 . S
H1046 C1051 0.950 . S
H1047 C1052 0.949 . S
H1048 C1054 0.950 1_655 S
H1049 C1055 0.950 . S
H1050 C1056 0.949 . S
C1051 H1046 0.950 . S
C1051 C1053 1.327 . S
C1051 C1057 1.429 . S
C1052 C1044 1.574 . S
C1052 H1047 0.949 . S
C1052 C1058 1.368 . S
C1053 C1037 1.349 . S
C1053 H1045 0.950 . S
C1053 C1051 1.327 . S
C1054 C1042 1.349 . S
C1054 H1048 0.950 1_455 S
C1054 C1055 1.327 . S
C1055 H1049 0.950 . S
C1055 C1054 1.327 . S
C1055 C1059 1.429 . S
C1056 C1039 1.574 . S
C1056 H1050 0.949 . S
C1056 C1060 1.368 . S
C1057 C1038 1.429 . S
C1057 C1051 1.429 . S
C1057 C1058 1.523 . S
C1058 C1039 1.368 . S
C1058 C1052 1.368 . S
C1058 C1057 1.523 . S
C1059 C1043 1.429 . S
C1059 C1055 1.429 . S
C1059 C1060 1.523 . S
C1060 C1044 1.368 . S
C1060 C1056 1.368 . S
C1060 C1059 1.523 . S
H1061 C1036 0.950 . S
H1062 C1038 0.950 . S
H1063 C1039 0.949 . S
H1064 C1041 0.950 . S
H1065 C1043 0.950 . S
C1066 C1067 1.349 . S
C1066 C1068 1.327 . S
C1066 H1091 0.950 . S
C1067 C1066 1.349 . S
C1067 C1083 1.349 . S
C1068 C1066 1.327 . S
C1068 C1087 1.429 . S
C1068 H1092 0.950 . S
C1069 C1086 1.574 . S
C1069 C1088 1.368 . S
C1069 H1093 0.949 . S
H1070 C1074 0.949 . S
C1071 C1072 1.349 . S
C1071 C1073 1.327 . S
C1071 H1094 0.950 . S
C1072 C1071 1.349 . S
C1072 C1084 1.349 . S
C1073 C1071 1.327 . S
C1073 C1089 1.429 . S
C1073 H1095 0.950 . S
C1074 H1070 0.949 . S
C1074 C1082 1.574 . S
C1074 C1090 1.368 . S
H1075 C1083 0.950 . S
H1076 C1081 0.950 . S
H1077 C1082 0.949 . S
H1078 C1084 0.950 . S
H1079 C1085 0.950 . S
H1080 C1086 0.949 . S
C1081 H1076 0.950 . S
C1081 C1083 1.327 . S
C1081 C1087 1.429 . S
C1082 C1074 1.574 . S
C1082 H1077 0.949 . S
C1082 C1088 1.368 . S
C1083 C1067 1.349 . S
C1083 H1075 0.950 . S
C1083 C1081 1.327 . S
C1084 C1072 1.349 . S
C1084 H1078 0.950 . S
C1084 C1085 1.327 . S
C1085 H1079 0.950 . S
C1085 C1084 1.327 . S
C1085 C1089 1.429 . S
C1086 C1069 1.574 . S
C1086 H1080 0.949 . S
C1086 C1090 1.368 . S
C1087 C1068 1.429 . S
C1087 C1081 1.429 . S
C1087 C1088 1.523 . S
C1088 C1069 1.368 . S
C1088 C1082 1.368 . S
C1088 C1087 1.523 . S
C1089 C1073 1.429 . S
C1089 C1085 1.429 . S
C1089 C1090 1.523 . S
C1090 C1074 1.368 . S
C1090 C1086 1.368 . S
C1090 C1089 1.523 . S
H1091 C1066 0.950 . S
H1092 C1068 0.950 . S
H1093 C1069 0.949 . S
H1094 C1071 0.950 . S
H1095 C1073 0.950 . S
C377 C29 2.119 . S
C382 C272 2.225 . S
C407 C49 1.053 . S
C412 N292 1.031 . S
C442 C326 2.001 . S
C437 C93 1.906 . S
C467 C119 1.182 . S
C472 N360 1.191 . S
C502 C313 2.334 . S
C497 C17 2.245 . S
C532 N270 1.185 . S
C527 C61 1.231 . S
C562 C347 1.933 1_556 S
C557 C81 1.857 . S
C592 N322 1.018 . S
C587 C125 0.983 . S
C617 C23 1.722 . S
C622 C362 1.804 . S
C652 C296 1.659 . S
C647 C87 1.582 . S
C677 C113 1.400 . S
C682 C257 1.476 . S
C707 C55 1.429 . S
C712 C343 1.430 . S
C742 C283 2.149 . S
C737 C157 2.137 . S
C767 C189 1.056 . S
C772 N300 1.080 . S
C797 C221 1.955 . S
C802 C317 1.961 . S
C827 C253 1.233 . S
C832 N352 1.257 . S
C857 C145 2.385 . S
C862 C302 2.388 . S
C892 N262 1.109 . S
C887 C183 1.096 . S
C922 C356 1.973 . S
C917 C209 1.963 . S
C952 N330 0.965 . S
C947 C247 0.941 . S
C977 C151 1.820 . S
C982 C373 1.823 . S
C1012 C287 1.666 . S
C1007 C215 1.665 . S
C1042 C266 1.462 . S
C1037 C241 1.382 . S
C1067 C177 1.398 . S
C1072 C332 1.468 . S
