# Generated by pormake.
# Topology tsx, (6,3)-cn, num edge types: 1
# Building blocks:
#     Node 0, Type 0, BuildingBlock: LEVNOQ01_clean_sbu_1, # of connection points: 6
#     Node 1, Type 0, BuildingBlock: LEVNOQ01_clean_sbu_1, # of connection points: 6
#     Node 2, Type 1, BuildingBlock: BELTOD_clean_linker_0, # of connection points: 3
#     Node 3, Type 1, BuildingBlock: BELTOD_clean_linker_0, # of connection points: 3
#     Node 4, Type 1, BuildingBlock: BELTOD_clean_linker_0, # of connection points: 3
#     Node 5, Type 1, BuildingBlock: BELTOD_clean_linker_0, # of connection points: 3
#     Edge 6, Type (0, 1), BuildingBlock: KIFKEQ_clean_linker_1, # of connection points: 2
#     Edge 7, Type (0, 1), BuildingBlock: KIFKEQ_clean_linker_1, # of connection points: 2
#     Edge 8, Type (0, 1), BuildingBlock: KIFKEQ_clean_linker_1, # of connection points: 2
#     Edge 9, Type (0, 1), BuildingBlock: KIFKEQ_clean_linker_1, # of connection points: 2
#     Edge 10, Type (0, 1), BuildingBlock: KIFKEQ_clean_linker_1, # of connection points: 2
#     Edge 11, Type (0, 1), BuildingBlock: KIFKEQ_clean_linker_1, # of connection points: 2
#     Edge 12, Type (0, 1), BuildingBlock: KIFKEQ_clean_linker_1, # of connection points: 2
#     Edge 13, Type (0, 1), BuildingBlock: KIFKEQ_clean_linker_1, # of connection points: 2
#     Edge 14, Type (0, 1), BuildingBlock: KIFKEQ_clean_linker_1, # of connection points: 2
#     Edge 15, Type (0, 1), BuildingBlock: KIFKEQ_clean_linker_1, # of connection points: 2
#     Edge 16, Type (0, 1), BuildingBlock: KIFKEQ_clean_linker_1, # of connection points: 2
#     Edge 17, Type (0, 1), BuildingBlock: KIFKEQ_clean_linker_1, # of connection points: 2
# Relax obj value: 0.118
# Max RMSD: 0.151
# Mean RMSD: 0.110
data_MOF--net-tsx--node1-LEVNOQ01_clean_sbu_1--node2-BELTOD_clean_linker_0--edge1-KIFKEQ_clean_linker_1
_symmetry_space_group_name_H-M    P1
_symmetry_Int_Tables_number       1
_symmetry_cell_setting            triclinic
loop_
_symmetry_equiv_pos_as_xyz
'x, y, z'
_cell_length_a     20.882983
_cell_length_b     26.081724
_cell_length_c     41.658247
_cell_angle_alpha  98.421043
_cell_angle_beta   94.004517
_cell_angle_gamma 91.410652
loop_
_atom_site_label
_atom_site_type_symbol
_atom_site_fract_x
_atom_site_fract_y
_atom_site_fract_z
_atom_type_partial_charge
O0 O 0.12551 0.03524 0.0906 0.0
Mg1 Mg 0.1872 0.03834 0.05279 0.0
O2 O 0.03705 0.00805 0.05893 0.0
Mg3 Mg 0.0547 0.01474 0.00491 0.0
O4 O 0.13829 0.07278 0.01858 0.0
O5 O 0.22954 0.1074 0.04349 0.0
O6 O 0.07377 0.02226 0.95085 0.0
O7 O 0.98826 0.08627 0.00883 0.0
Mg8 Mg 0.92576 -0.0073 0.95664 0.0
O9 O 0.9699 0.95684 0.99158 0.0
O10 O 0.9859 -0.00343 0.91867 0.0
O11 O 0.89467 0.06329 0.98083 0.0
O12 O 0.88026 0.92454 0.96304 0.0
C13 C 0.17777 0.93151 0.01198 0.0
C14 C 0.06735 0.01879 0.08692 0.0
C15 C 0.18117 0.11011 0.02291 0.0
C16 C 0.04407 0.01256 0.92267 0.0
C17 C 0.93045 0.09598 0.0 0.0
C18 C 0.92362 0.9221 0.98631 0.0
O19 O 0.21378 0.96506 0.03045 0.0
O20 O 0.12121 0.94233 0.00159 0.0
O21 O 0.61608 0.53953 0.59358 0.0
Mg22 Mg 0.67699 0.54062 0.55575 0.0
O23 O 0.53449 0.50674 0.55914 0.0
Mg24 Mg 0.5559 0.51803 0.50583 0.0
O25 O 0.63812 0.57985 0.52076 0.0
O26 O 0.72738 0.60738 0.55169 0.0
O27 O 0.57432 0.52905 0.4519 0.0
O28 O 0.48694 0.58677 0.51032 0.0
Mg29 Mg 0.42636 0.49248 0.45539 0.0
O30 O 0.47377 0.45963 0.49063 0.0
O31 O 0.48889 0.49931 0.4187 0.0
O32 O 0.39572 0.56358 0.47984 0.0
O33 O 0.38606 0.42223 0.46344 0.0
C34 C 0.6789 0.43651 0.51362 0.0
C35 C 0.55999 0.51925 0.58807 0.0
C36 C 0.6843 0.6145 0.52917 0.0
C37 C 0.54577 0.5184 0.42339 0.0
C38 C 0.42976 0.59584 0.50026 0.0
C39 C 0.43051 0.4227 0.48655 0.0
O40 O 0.7101 0.46883 0.53511 0.0
O41 O 0.62413 0.44728 0.50106 0.0
P42 P 0.10403 0.039 0.43326 0.0
H43 H 0.07319 0.09474 0.49509 0.0
H44 H 0.97774 0.14221 0.51068 0.0
H45 H 0.87441 0.07145 0.42128 0.0
H46 H 0.9695 0.02319 0.40604 0.0
H47 H 0.23104 0.02008 0.46123 0.0
H48 H 0.27415 0.94898 0.48673 0.0
H49 H 0.08789 0.8695 0.47126 0.0
H50 H 0.04505 0.94122 0.44517 0.0
H51 H 0.08013 0.10943 0.38733 0.0
H52 H 0.10315 0.94485 0.38337 0.0
O53 O 0.1553 0.08978 0.44386 0.0
H54 H 0.05943 0.09824 0.32859 0.0
H55 H 0.08427 0.93326 0.32379 0.0
C56 C 0.02884 0.05721 0.44904 0.0
C57 C 0.02917 0.08777 0.47956 0.0
C58 C 0.97464 0.11448 0.4885 0.0
C59 C 0.91936 0.11051 0.46696 0.0
C60 C 0.91653 0.07471 0.43827 0.0
C61 C 0.97115 0.04776 0.42941 0.0
C62 C 0.13494 -0.01427 0.45138 0.0
C63 C 0.19931 -0.01248 0.46342 0.0
C64 C 0.22373 0.94707 0.47839 0.0
C65 C 0.18422 0.9039 0.48142 0.0
C66 C 0.11952 0.90222 0.46923 0.0
C67 C 0.09503 0.943 0.4543 0.0
C68 C 0.09429 0.02819 0.38957 0.0
C69 C 0.08179 0.07088 0.37364 0.0
C70 C 0.07006 0.06438 0.33999 0.0
C71 C 0.07097 0.01491 0.32138 0.0
C72 C 0.08299 0.97183 0.33746 0.0
C73 C 0.0944 0.97844 0.37143 0.0
P74 P 0.05905 0.00677 0.57728 0.0
H75 H 0.02788 0.94617 0.5143 0.0
H76 H 0.92862 0.90515 0.48886 0.0
H77 H 0.82341 -0.00315 0.5615 0.0
H78 H 0.92522 0.03555 0.58796 0.0
H79 H 0.1883 0.01531 0.55633 0.0
H80 H 0.25354 0.0882 0.54508 0.0
H81 H 0.09489 0.18922 0.56192 0.0
H82 H 0.02767 0.11488 0.57175 0.0
H83 H 0.05102 0.93386 0.62306 0.0
H84 H 0.04489 0.09984 0.62676 0.0
O85 O 0.10268 0.95408 0.56977 0.0
H86 H 0.05091 0.94401 0.68194 0.0
H87 H 0.04297 0.11026 0.68585 0.0
C88 C 0.98394 -0.00778 0.55358 0.0
C89 C 0.98333 0.95831 0.5243 0.0
C90 C 0.92576 0.93516 0.50953 0.0
C91 C 0.86717 0.9462 0.52355 0.0
C92 C 0.86755 -0.01428 0.55065 0.0
C93 C 0.9257 0.00827 0.56574 0.0
C94 C 0.10335 0.05986 0.56537 0.0
C95 C 0.16683 0.05279 0.55723 0.0
C96 C 0.20426 0.09444 0.55085 0.0
C97 C 0.17926 0.14409 0.5531 0.0
C98 C 0.11523 0.15122 0.56056 0.0
C99 C 0.07706 0.10898 0.56615 0.0
C100 C 0.04969 0.01603 0.62041 0.0
C101 C 0.04897 0.97254 0.63648 0.0
C102 C 0.04836 0.97843 0.67025 0.0
C103 C 0.04746 0.02806 0.68872 0.0
C104 C 0.04498 0.07159 0.6724 0.0
C105 C 0.04584 0.06558 0.63847 0.0
P106 P 0.61017 0.55021 0.92779 0.0
H107 H 0.58466 0.62194 0.98517 0.0
H108 H 0.48609 0.66061 0.0038 0.0
H109 H 0.37523 0.55942 0.92734 0.0
H110 H 0.4744 0.52022 0.90923 0.0
H111 H 0.74186 0.51949 0.93148 0.0
H112 H 0.79525 0.44823 0.9528 0.0
H113 H 0.61499 0.39609 0.98405 0.0
H114 H 0.56164 0.46869 0.96303 0.0
H115 H 0.57809 0.61153 0.877 0.0
H116 H 0.6032 0.44976 0.8839 0.0
O117 O 0.66083 0.60179 0.93374 0.0
H118 H 0.54691 0.58937 0.81896 0.0
H119 H 0.57205 0.42723 0.82548 0.0
C120 C 0.53682 0.56924 0.94549 0.0
C121 C 0.53902 0.60708 0.97306 0.0
C122 C 0.48251 0.62896 0.98371 0.0
C123 C 0.42291 0.61343 0.96674 0.0
C124 C 0.42054 0.57257 0.94059 0.0
C125 C 0.47718 0.55026 0.93022 0.0
C126 C 0.64815 0.49951 0.94597 0.0
C127 C 0.71392 0.49316 0.94328 0.0
C128 C 0.74425 0.45224 0.95529 0.0
C129 C 0.70916 0.4165 0.96995 0.0
C130 C 0.64323 0.42344 0.97318 0.0
C131 C 0.61275 0.46465 0.96107 0.0
C132 C 0.5936 0.53244 0.88461 0.0
C133 C 0.5774 0.57125 0.86591 0.0
C134 C 0.55894 0.55847 0.83284 0.0
C135 C 0.55625 0.50649 0.81782 0.0
C136 C 0.57372 0.46757 0.83648 0.0
C137 C 0.59169 0.48044 0.86979 0.0
P138 P 0.55997 0.50164 0.07936 0.0
H139 H 0.52977 0.43248 0.01917 0.0
H140 H 0.43012 0.39118 0.99343 0.0
H141 H 0.3238 0.48701 0.06348 0.0
H142 H 0.42524 0.52706 0.08981 0.0
H143 H 0.67904 0.50772 0.04722 0.0
H144 H 0.73979 0.58066 0.03267 0.0
H145 H 0.58601 0.68215 0.05985 0.0
H146 H 0.52394 0.60805 0.07371 0.0
H147 H 0.50357 0.44706 0.12721 0.0
H148 H 0.60461 0.59349 0.12708 0.0
O149 O 0.60714 0.45067 0.0756 0.0
H150 H 0.50707 0.46417 0.18692 0.0
H151 H 0.60734 0.61042 0.1863 0.0
C152 C 0.48481 0.48128 0.05698 0.0
C153 C 0.48493 0.4452 0.02864 0.0
C154 C 0.42747 0.42203 0.01368 0.0
C155 C 0.36848 0.43498 0.02665 0.0
C156 C 0.36835 0.47513 0.0533 0.0
C157 C 0.42624 0.49812 0.06839 0.0
C158 C 0.59763 0.55286 0.0622 0.0
C159 C 0.65761 0.54532 0.04951 0.0
C160 C 0.69234 0.58703 0.04114 0.0
C161 C 0.66795 0.63702 0.04574 0.0
C162 C 0.60617 0.64403 0.05668 0.0
C163 C 0.57067 0.60185 0.06434 0.0
C164 C 0.5526 0.51929 0.12245 0.0
C165 C 0.52484 0.48341 0.13984 0.0
C166 C 0.52693 0.49309 0.17384 0.0
C167 C 0.55734 0.53861 0.19086 0.0
C168 C 0.58364 0.57511 0.17351 0.0
C169 C 0.58148 0.56548 0.13955 0.0
H170 H 0.095 0.18611 0.03137 0.0
H171 H 0.26104 0.13883 0.98028 0.0
H172 H 0.11397 0.27546 0.02158 0.0
H173 H 0.28064 0.22731 0.97054 0.0
H174 H 0.32857 0.38677 0.96473 0.0
H175 H 0.25618 0.31048 0.95145 0.0
H176 H 0.20438 0.32927 0.05093 0.0
H177 H 0.27718 0.40389 0.06439 0.0
C178 C 0.13334 0.19439 0.01646 0.0
C179 C 0.17644 0.15596 0.00638 0.0
C180 C 0.14471 0.24555 0.01116 0.0
C181 C 0.19944 0.25873 0.99575 0.0
C182 C 0.2378 0.21869 0.98228 0.0
C183 C 0.22673 0.16786 0.98786 0.0
C184 C 0.30058 0.37531 0.98359 0.0
C185 C 0.31039 0.40068 0.01589 0.0
C186 C 0.2588 0.33176 0.97589 0.0
C187 C 0.22543 0.31315 0.00025 0.0
C188 C 0.229 0.34254 0.03147 0.0
C189 C 0.27112 0.38568 0.03924 0.0
H190 H 0.28606 0.89475 0.0389 0.0
H191 H 0.12444 0.84723 0.96929 0.0
H192 H 0.32772 0.80901 0.02888 0.0
H193 H 0.1673 0.75971 0.95915 0.0
H194 H 0.33976 0.65029 0.92284 0.0
H195 H 0.26577 0.72046 0.93423 0.0
H196 H 0.30422 0.71915 0.03731 0.0
H197 H 0.37884 0.64928 0.0259 0.0
C198 C 0.25908 0.86596 0.02142 0.0
C199 C 0.20191 0.87825 0.00473 0.0
C200 C 0.28275 0.81633 0.01601 0.0
C201 C 0.25035 0.77725 0.99361 0.0
C202 C 0.19312 0.78909 0.9767 0.0
C203 C 0.16875 0.83913 0.98243 0.0
C204 C 0.33064 0.66369 0.94791 0.0
C205 C 0.36598 0.64504 0.97354 0.0
C206 C 0.28817 0.70393 0.95441 0.0
C207 C 0.28032 0.72611 0.98664 0.0
C208 C 0.31048 0.70359 0.01219 0.0
C209 C 0.3531 0.6636 0.00571 0.0
H210 H 0.96769 0.82464 0.98338 0.0
H211 H 0.8491 0.9352 0.03626 0.0
H212 H 0.91213 0.75406 0.00409 0.0
H213 H 0.79099 0.8653 0.05561 0.0
H214 H 0.69742 0.72512 0.08856 0.0
H215 H 0.77574 0.79409 0.08332 0.0
H216 H 0.80863 0.7179 0.98673 0.0
H217 H 0.73261 0.64841 0.99279 0.0
C218 C 0.9316 0.83384 0.0006 0.0
C219 C 0.91259 0.88492 0.00849 0.0
C220 C 0.89875 0.79353 0.01192 0.0
C221 C 0.84543 0.8038 0.03054 0.0
C222 C 0.83154 0.8557 0.04131 0.0
C223 C 0.86507 0.89592 0.0304 0.0
C224 C 0.72128 0.72361 0.06618 0.0
C225 C 0.70926 0.68165 0.04105 0.0
C226 C 0.76636 0.76287 0.06322 0.0
C227 C 0.79969 0.76113 0.03487 0.0
C228 C 0.78583 0.7197 0.0094 0.0
C229 C 0.74153 0.68024 0.01257 0.0
H230 H 0.81229 0.11843 0.01997 0.0
H231 H 0.99031 0.18907 0.99863 0.0
H232 H 0.75978 0.20128 0.0199 0.0
H233 H 0.93783 0.27186 0.99832 0.0
H234 H 0.78983 0.35384 0.93561 0.0
H235 H 0.84857 0.28187 0.95255 0.0
H236 H 0.75904 0.30212 0.04365 0.0
H237 H 0.70046 0.37574 0.02686 0.0
C238 C 0.84061 0.15224 0.01641 0.0
C239 C 0.90514 0.14768 0.00921 0.0
C240 C 0.81067 0.19954 0.01647 0.0
C241 C 0.84465 0.24253 0.00866 0.0
C242 C 0.91065 0.23902 0.00424 0.0
C243 C 0.94084 0.19192 0.00472 0.0
C244 C 0.78332 0.34359 0.95948 0.0
C245 C 0.74149 0.37098 0.98016 0.0
C246 C 0.8171 0.30251 0.9692 0.0
C247 C 0.80955 0.28749 0.99973 0.0
C248 C 0.76616 0.31355 0.02015 0.0
C249 C 0.73247 0.35524 0.01047 0.0
H250 H 0.79138 0.65153 0.50728 0.0
H251 H 0.5922 0.68471 0.51881 0.0
H252 H 0.81147 0.73882 0.49519 0.0
H253 H 0.61318 0.77385 0.50791 0.0
H254 H 0.82908 0.89124 0.46287 0.0
H255 H 0.76488 0.81028 0.45335 0.0
H256 H 0.70814 0.83854 0.55166 0.0
H257 H 0.7756 0.91688 0.56237 0.0
C258 C 0.75141 0.67709 0.50608 0.0
C259 C 0.69028 0.66156 0.5138 0.0
C260 C 0.76284 0.72695 0.49908 0.0
C261 C 0.71375 0.76277 0.50044 0.0
C262 C 0.6515 0.74656 0.50638 0.0
C263 C 0.63954 0.69576 0.5125 0.0
C264 C 0.80215 0.88089 0.48241 0.0
C265 C 0.81018 0.90989 0.51386 0.0
C266 C 0.76457 0.83487 0.47667 0.0
C267 C 0.73219 0.81819 0.50187 0.0
C268 C 0.73237 0.85085 0.53176 0.0
C269 C 0.77131 0.89608 0.53782 0.0
H270 H 0.79949 0.40909 0.53046 0.0
H271 H 0.62325 0.34831 0.47583 0.0
H272 H 0.84854 0.32666 0.51662 0.0
H273 H 0.67397 0.26443 0.46165 0.0
H274 H 0.7953 0.11227 0.4859 0.0
H275 H 0.72837 0.18939 0.49411 0.0
H276 H 0.87874 0.28091 0.46102 0.0
H277 H 0.94471 0.20503 0.45338 0.0
C278 C 0.77103 0.37818 0.51539 0.0
C279 C 0.70746 0.38561 0.50401 0.0
C280 C 0.79938 0.33086 0.50745 0.0
C281 C 0.76518 0.28946 0.48788 0.0
C282 C 0.70117 0.29595 0.47683 0.0
C283 C 0.67251 0.34393 0.4847 0.0
C284 C 0.81312 0.14895 0.48015 0.0
C285 C 0.87509 0.15356 0.46962 0.0
C286 C 0.77499 0.1927 0.48457 0.0
C287 C 0.79889 0.241 0.47846 0.0
C288 C 0.85957 0.2443 0.46627 0.0
C289 C 0.89728 0.20109 0.46199 0.0
H290 H 0.365 0.4384 0.53989 0.0
H291 H 0.47422 0.32518 0.48314 0.0
H292 H 0.30941 0.36976 0.56181 0.0
H293 H 0.42179 0.256 0.50649 0.0
H294 H 0.23996 0.15428 0.49917 0.0
H295 H 0.31697 0.22216 0.49171 0.0
H296 H 0.2941 0.29845 0.58953 0.0
H297 H 0.21422 0.23104 0.59608 0.0
C298 C 0.37976 0.39884 0.5337 0.0
C299 C 0.42342 0.38667 0.50988 0.0
C300 C 0.34766 0.35933 0.54611 0.0
C301 C 0.35934 0.30709 0.53497 0.0
C302 C 0.40987 0.29575 0.51461 0.0
C303 C 0.441 0.33527 0.50173 0.0
C304 C 0.25129 0.18585 0.5189 0.0
C305 C 0.22134 0.18787 0.54806 0.0
C306 C 0.29624 0.22432 0.51496 0.0
C307 C 0.31325 0.26529 0.54034 0.0
C308 C 0.28233 0.26755 0.56948 0.0
C309 C 0.23643 0.22925 0.57322 0.0
H310 H 0.45518 0.68252 0.47515 0.0
H311 H 0.34196 0.62098 0.54438 0.0
H312 H 0.39105 0.76038 0.47964 0.0
H313 H 0.27789 0.69943 0.54911 0.0
H314 H 0.27032 0.90562 0.53436 0.0
H315 H 0.33413 0.83323 0.54836 0.0
H316 H 0.2259 0.72925 0.4728 0.0
H317 H 0.1635 0.80123 0.4579 0.0
C318 C 0.41834 0.68687 0.49235 0.0
C319 C 0.4035 0.64665 0.50974 0.0
C320 C 0.38175 0.73105 0.49483 0.0
C321 C 0.33024 0.7354 0.51482 0.0
C322 C 0.31787 0.69664 0.53379 0.0
C323 C 0.35436 0.65219 0.53116 0.0
C324 C 0.25951 0.86714 0.52108 0.0
C325 C 0.21261 0.8592 0.49469 0.0
C326 C 0.29559 0.82593 0.5293 0.0
C327 C 0.28442 0.7763 0.51156 0.0
C328 C 0.23454 0.76745 0.48689 0.0
C329 C 0.19881 0.80858 0.4785 0.0
H330 H 0.01116 0.09015 0.1283 0.0
H331 H 0.0607 0.92944 0.11237 0.0
H332 H 0.99664 0.08421 0.1854 0.0
H333 H 0.04735 0.92341 0.16971 0.0
H334 H 1.00033 0.9389 0.2796 0.0
H335 H 0.97861 0.93452 0.22046 0.0
H336 H 0.09475 0.0746 0.22347 0.0
H337 H 0.11781 0.07828 0.28158 0.0
C338 C 0.01609 0.053 0.1368 0.0
C339 C 0.03667 0.01021 0.11627 0.0
C340 C 0.0084 0.04964 0.16942 0.0
C341 C 0.02221 0.00363 0.18202 0.0
C342 C 0.03627 0.95925 0.16061 0.0
C343 C 0.04375 0.96263 0.12786 0.0
C344 C 0.02157 0.96843 0.26749 0.0
C345 C 0.06001 0.00942 0.28539 0.0
C346 C 0.00868 0.96612 0.23378 0.0
C347 C 0.03348 0.00506 0.21763 0.0
C348 C 0.07311 0.04506 0.23545 0.0
C349 C 0.08647 0.04706 0.26878 0.0
H350 H 0.05718 0.10446 0.90056 0.0
H351 H 0.09289 0.94153 0.87824 0.0
H352 H 0.06662 0.11425 0.84337 0.0
H353 H 0.10344 0.95116 0.82136 0.0
H354 H 0.98734 0.96789 0.72662 0.0
H355 H 1.00529 0.96905 0.78496 0.0
H356 H 0.1339 0.10293 0.79176 0.0
H357 H 0.11737 0.10107 0.73269 0.0
C358 C 0.07044 0.07143 0.88369 0.0
C359 C 0.0748 0.02231 0.89353 0.0
C360 C 0.0754 0.07693 0.851 0.0
C361 C 0.08426 0.03318 0.82793 0.0
C362 C 0.09542 0.98528 0.83863 0.0
C363 C 0.09027 0.97982 0.87116 0.0
C364 C 0.01985 -0.00259 0.74039 0.0
C365 C 0.05192 0.03368 0.72484 0.0
C366 C 0.03025 -0.00201 0.77381 0.0
C367 C 0.07249 0.03514 0.79267 0.0
C368 C 0.10177 0.07347 0.77765 0.0
C369 C 0.09184 0.07259 0.74393 0.0
H370 H 0.51134 0.58798 0.63383 0.0
H371 H 0.54071 0.42492 0.6065 0.0
H372 H 0.49086 0.57331 0.68862 0.0
H373 H 0.52055 0.40965 0.66173 0.0
H374 H 0.61427 0.44329 0.77093 0.0
H375 H 0.59158 0.43575 0.71208 0.0
H376 H 0.42906 0.53364 0.7267 0.0
H377 H 0.45237 0.5416 0.78547 0.0
C378 C 0.51053 0.54862 0.63932 0.0
C379 C 0.527 0.50754 0.61617 0.0
C380 C 0.49889 0.54007 0.67069 0.0
C381 C 0.5048 0.49033 0.67966 0.0
C382 C 0.51623 0.44843 0.65561 0.0
C383 C 0.52702 0.457 0.62398 0.0
C384 C 0.57273 0.46201 0.76153 0.0
C385 C 0.53588 0.4939 0.78268 0.0
C386 C 0.55945 0.45751 0.72782 0.0
C387 C 0.50891 0.48467 0.71471 0.0
C388 C 0.46895 0.513 0.73604 0.0
C389 C 0.4824 0.51768 0.76965 0.0
H390 H 0.52301 0.60662 0.39939 0.0
H391 H 0.6246 0.4645 0.38233 0.0
H392 H 0.53553 0.62098 0.34341 0.0
H393 H 0.6379 0.47889 0.32625 0.0
H394 H 0.66788 0.53338 0.22816 0.0
H395 H 0.68118 0.53852 0.28762 0.0
H396 H 0.4788 0.56589 0.29307 0.0
H397 H 0.46571 0.55973 0.23369 0.0
C398 C 0.55063 0.57974 0.384 0.0
C399 C 0.57368 0.53488 0.39506 0.0
C400 C 0.5571 0.58761 0.35193 0.0
C401 C 0.58693 0.55071 0.33041 0.0
C402 C 0.61503 0.5081 0.34238 0.0
C403 C 0.60787 0.49997 0.37446 0.0
C404 C 0.62662 0.54106 0.24229 0.0
C405 C 0.5658 0.54607 0.22669 0.0
C406 C 0.63416 0.54391 0.27615 0.0
C407 C 0.58115 0.55282 0.29493 0.0
C408 C 0.52069 0.55964 0.27924 0.0
C409 C 0.51298 0.55581 0.24536 0.0
loop_
_geom_bond_atom_site_label_1
_geom_bond_atom_site_label_2
_geom_bond_distance
_geom_bond_site_symmetry_2
_ccdc_geom_bond_type
O0 Mg1 1.990 . S
O0 C14 1.253 . S
Mg1 O0 1.990 . S
Mg1 O4 2.180 . S
Mg1 O5 2.117 . S
Mg1 O19 2.030 1_545 S
O2 Mg3 2.090 . S
O2 C14 1.260 . S
Mg3 O2 2.090 . S
Mg3 O4 2.101 . S
Mg3 O6 2.060 1_554 S
Mg3 O7 2.072 . S
Mg3 O9 2.096 1_444 S
Mg3 O20 2.079 1_544 S
O4 Mg1 2.180 . S
O4 Mg3 2.101 . S
O4 C15 1.279 . S
O5 Mg1 2.117 . S
O5 C15 1.250 . S
O6 Mg3 2.060 1_556 S
O6 C16 1.264 . S
O7 Mg3 2.072 . S
O7 C17 1.255 1_454 S
Mg8 O9 2.180 1_545 S
Mg8 O10 2.030 . S
Mg8 O11 1.990 . S
Mg8 O12 2.117 1_545 S
O9 Mg3 2.096 1_666 S
O9 Mg8 2.180 1_565 S
O9 C18 1.279 1_556 S
O10 Mg8 2.030 . S
O10 C16 1.248 1_655 S
O11 Mg8 1.990 . S
O11 C17 1.260 . S
O12 Mg8 2.117 1_565 S
O12 C18 1.250 1_556 S
C13 O19 1.248 . S
C13 O20 1.264 1_554 S
C14 O0 1.253 . S
C14 O2 1.260 . S
C15 O4 1.279 . S
C15 O5 1.250 . S
C16 O6 1.264 . S
C16 O10 1.248 1_455 S
C17 O7 1.255 1_656 S
C17 O11 1.260 . S
C18 O9 1.279 1_554 S
C18 O12 1.250 1_554 S
O19 Mg1 2.030 1_565 S
O19 C13 1.248 . S
O20 Mg3 2.079 1_566 S
O20 C13 1.264 1_556 S
O21 Mg22 1.990 . S
O21 C35 1.253 . S
Mg22 O21 1.990 . S
Mg22 O25 2.180 . S
Mg22 O26 2.117 . S
Mg22 O40 2.030 . S
O23 Mg24 2.072 . S
O23 C35 1.260 . S
Mg24 O23 2.072 . S
Mg24 O25 2.099 . S
Mg24 O27 2.079 . S
Mg24 O28 2.072 . S
Mg24 O30 2.099 . S
Mg24 O41 2.079 . S
O25 Mg22 2.180 . S
O25 Mg24 2.099 . S
O25 C36 1.279 . S
O26 Mg22 2.117 . S
O26 C36 1.250 . S
O27 Mg24 2.079 . S
O27 C37 1.264 . S
O28 Mg24 2.072 . S
O28 C38 1.260 . S
Mg29 O30 2.180 . S
Mg29 O31 2.030 . S
Mg29 O32 1.990 . S
Mg29 O33 2.117 . S
O30 Mg24 2.099 . S
O30 Mg29 2.180 . S
O30 C39 1.279 . S
O31 Mg29 2.030 . S
O31 C37 1.248 . S
O32 Mg29 1.990 . S
O32 C38 1.253 . S
O33 Mg29 2.117 . S
O33 C39 1.250 . S
C34 O40 1.248 . S
C34 O41 1.264 . S
C35 O21 1.253 . S
C35 O23 1.260 . S
C36 O25 1.279 . S
C36 O26 1.250 . S
C37 O27 1.264 . S
C37 O31 1.248 . S
C38 O28 1.260 . S
C38 O32 1.253 . S
C39 O30 1.279 . S
C39 O33 1.250 . S
O40 Mg22 2.030 . S
O40 C34 1.248 . S
O41 Mg24 2.079 . S
O41 C34 1.264 . S
P42 O53 1.490 . S
P42 C56 1.812 . S
P42 C62 1.803 1_545 S
P42 C68 1.819 . S
H43 C57 0.941 . S
H44 C58 0.939 . S
H45 C60 0.940 . S
H46 C61 0.940 . S
H47 C63 0.939 . S
H48 C64 0.942 . S
H49 C66 0.940 . S
H50 C67 0.939 . S
H51 C69 0.941 . S
H52 C73 0.939 . S
O53 P42 1.490 . S
H54 C70 0.939 . S
H55 C72 0.940 . S
C56 P42 1.812 . S
C56 C57 1.389 . S
C56 C61 1.391 1_455 S
C57 H43 0.941 . S
C57 C56 1.389 . S
C57 C58 1.397 1_455 S
C58 H44 0.939 . S
C58 C57 1.397 1_655 S
C58 C59 1.378 . S
C59 C58 1.378 . S
C59 C60 1.378 . S
C60 H45 0.940 . S
C60 C59 1.378 . S
C60 C61 1.396 . S
C61 H46 0.940 . S
C61 C56 1.391 1_655 S
C61 C60 1.396 . S
C62 P42 1.803 1_565 S
C62 C63 1.378 . S
C62 C67 1.400 . S
C63 H47 0.939 . S
C63 C62 1.378 . S
C63 C64 1.361 . S
C64 H48 0.942 . S
C64 C63 1.361 . S
C64 C65 1.369 . S
C65 C64 1.369 . S
C65 C66 1.404 . S
C66 H49 0.940 . S
C66 C65 1.404 . S
C66 C67 1.389 . S
C67 H50 0.939 . S
C67 C62 1.400 . S
C67 C66 1.389 . S
C68 P42 1.819 . S
C68 C69 1.391 . S
C68 C73 1.391 1_545 S
C69 H51 0.941 . S
C69 C68 1.391 . S
C69 C70 1.396 . S
C70 H54 0.939 . S
C70 C69 1.396 . S
C70 C71 1.397 . S
C71 C70 1.397 . S
C71 C72 1.385 1_545 S
C72 H55 0.940 . S
C72 C71 1.385 1_565 S
C72 C73 1.388 . S
C73 H52 0.939 . S
C73 C68 1.391 1_565 S
C73 C72 1.388 . S
P74 O85 1.490 1_545 S
P74 C88 1.806 1_455 S
P74 C94 1.803 . S
P74 C100 1.819 . S
H75 C89 0.941 . S
H76 C90 0.939 . S
H77 C92 0.940 1_545 S
H78 C93 0.940 . S
H79 C95 0.939 . S
H80 C96 0.942 . S
H81 C98 0.940 . S
H82 C99 0.955 . S
H83 C101 0.941 1_565 S
H84 C105 0.939 . S
O85 P74 1.490 1_565 S
H86 C102 0.939 1_565 S
H87 C104 0.940 . S
C88 P74 1.806 1_655 S
C88 C89 1.384 1_645 S
C88 C93 1.402 . S
C89 H75 0.941 . S
C89 C88 1.384 1_465 S
C89 C90 1.397 1_455 S
C90 H76 0.939 . S
C90 C89 1.397 1_655 S
C90 C91 1.378 . S
C91 C90 1.378 . S
C91 C92 1.378 . S
C92 H77 0.940 1_565 S
C92 C91 1.378 . S
C92 C93 1.396 1_565 S
C93 H78 0.940 . S
C93 C88 1.402 . S
C93 C92 1.396 1_545 S
C94 P74 1.803 . S
C94 C95 1.378 . S
C94 C99 1.400 . S
C95 H79 0.939 . S
C95 C94 1.378 . S
C95 C96 1.361 . S
C96 H80 0.942 . S
C96 C95 1.361 . S
C96 C97 1.369 . S
C97 C96 1.369 . S
C97 C98 1.404 . S
C98 H81 0.940 . S
C98 C97 1.404 . S
C98 C99 1.389 . S
C99 H82 0.955 . S
C99 C94 1.400 . S
C99 C98 1.389 . S
C100 P74 1.819 . S
C100 C101 1.391 . S
C100 C105 1.391 . S
C101 H83 0.941 1_545 S
C101 C100 1.391 . S
C101 C102 1.396 . S
C102 H86 0.939 1_545 S
C102 C101 1.396 . S
C102 C103 1.397 . S
C103 C102 1.397 . S
C103 C104 1.385 . S
C104 H87 0.940 . S
C104 C103 1.385 . S
C104 C105 1.388 . S
C105 H84 0.939 . S
C105 C100 1.391 . S
C105 C104 1.388 . S
P106 O117 1.490 . S
P106 C120 1.812 . S
P106 C126 1.803 . S
P106 C132 1.819 . S
H107 C121 0.941 . S
H108 C122 0.923 1_554 S
H109 C124 0.940 . S
H110 C125 0.940 . S
H111 C127 0.939 . S
H112 C128 0.942 . S
H113 C130 0.940 . S
H114 C131 0.939 . S
H115 C133 0.941 . S
H116 C137 0.939 . S
O117 P106 1.490 . S
H118 C134 0.939 . S
H119 C136 0.940 . S
C120 P106 1.812 . S
C120 C121 1.389 . S
C120 C125 1.391 . S
C121 H107 0.941 . S
C121 C120 1.389 . S
C121 C122 1.397 . S
C122 H108 0.923 1_556 S
C122 C121 1.397 . S
C122 C123 1.378 . S
C123 C122 1.378 . S
C123 C124 1.378 . S
C124 H109 0.940 . S
C124 C123 1.378 . S
C124 C125 1.396 . S
C125 H110 0.940 . S
C125 C120 1.391 . S
C125 C124 1.396 . S
C126 P106 1.803 . S
C126 C127 1.378 . S
C126 C131 1.400 . S
C127 H111 0.939 . S
C127 C126 1.378 . S
C127 C128 1.361 . S
C128 H112 0.942 . S
C128 C127 1.361 . S
C128 C129 1.369 . S
C129 C128 1.369 . S
C129 C130 1.404 . S
C130 H113 0.940 . S
C130 C129 1.404 . S
C130 C131 1.389 . S
C131 H114 0.939 . S
C131 C126 1.400 . S
C131 C130 1.389 . S
C132 P106 1.819 . S
C132 C133 1.391 . S
C132 C137 1.391 . S
C133 H115 0.941 . S
C133 C132 1.391 . S
C133 C134 1.396 . S
C134 H118 0.939 . S
C134 C133 1.396 . S
C134 C135 1.397 . S
C135 C134 1.397 . S
C135 C136 1.385 . S
C136 H119 0.940 . S
C136 C135 1.385 . S
C136 C137 1.388 . S
C137 H116 0.939 . S
C137 C132 1.391 . S
C137 C136 1.388 . S
P138 O149 1.490 . S
P138 C152 1.812 . S
P138 C158 1.803 . S
P138 C164 1.819 . S
H139 C153 0.941 . S
H140 C154 0.939 . S
H141 C156 0.940 . S
H142 C157 0.940 . S
H143 C159 0.939 . S
H144 C160 0.942 . S
H145 C162 0.940 . S
H146 C163 0.939 . S
H147 C165 0.941 . S
H148 C169 0.939 . S
O149 P138 1.490 . S
H150 C166 0.939 . S
H151 C168 0.940 . S
C152 P138 1.812 . S
C152 C153 1.389 . S
C152 C157 1.391 . S
C153 H139 0.941 . S
C153 C152 1.389 . S
C153 C154 1.397 . S
C154 H140 0.939 . S
C154 C153 1.397 . S
C154 C155 1.378 . S
C155 C154 1.378 . S
C155 C156 1.378 . S
C156 H141 0.940 . S
C156 C155 1.378 . S
C156 C157 1.396 . S
C157 H142 0.940 . S
C157 C152 1.391 . S
C157 C156 1.396 . S
C158 P138 1.803 . S
C158 C159 1.378 . S
C158 C163 1.400 . S
C159 H143 0.939 . S
C159 C158 1.378 . S
C159 C160 1.361 . S
C160 H144 0.942 . S
C160 C159 1.361 . S
C160 C161 1.369 . S
C161 C160 1.369 . S
C161 C162 1.404 . S
C162 H145 0.940 . S
C162 C161 1.404 . S
C162 C163 1.389 . S
C163 H146 0.939 . S
C163 C158 1.400 . S
C163 C162 1.389 . S
C164 P138 1.819 . S
C164 C165 1.391 . S
C164 C169 1.391 . S
C165 H147 0.941 . S
C165 C164 1.391 . S
C165 C166 1.396 . S
C166 H150 0.939 . S
C166 C165 1.396 . S
C166 C167 1.397 . S
C167 C166 1.397 . S
C167 C168 1.385 . S
C168 H151 0.940 . S
C168 C167 1.385 . S
C168 C169 1.388 . S
C169 H148 0.939 . S
C169 C164 1.391 . S
C169 C168 1.388 . S
H170 C178 0.950 . S
H171 C183 0.950 . S
H172 C180 0.950 . S
H173 C182 0.950 . S
H174 C184 0.950 1_556 S
H175 C186 0.950 1_556 S
H176 C188 0.950 . S
H177 C189 0.950 . S
C178 H170 0.950 . S
C178 C179 1.386 . S
C178 C180 1.391 . S
C179 C178 1.386 . S
C179 C183 1.393 1_554 S
C180 H172 0.950 . S
C180 C178 1.391 . S
C180 C181 1.400 . S
C181 C180 1.400 . S
C181 C182 1.398 1_554 S
C181 C187 1.491 . S
C182 H173 0.950 . S
C182 C181 1.398 1_556 S
C182 C183 1.391 . S
C183 H171 0.950 . S
C183 C179 1.393 1_556 S
C183 C182 1.391 . S
C184 H174 0.950 1_554 S
C184 C185 1.386 . S
C184 C186 1.391 . S
C185 C184 1.386 . S
C185 C189 1.393 . S
C186 H175 0.950 1_554 S
C186 C184 1.391 . S
C186 C187 1.400 . S
C187 C181 1.491 . S
C187 C186 1.400 . S
C187 C188 1.398 . S
C188 H176 0.950 . S
C188 C187 1.398 . S
C188 C189 1.391 . S
C189 H177 0.950 . S
C189 C185 1.393 . S
C189 C188 1.391 . S
H190 C198 0.950 . S
H191 C203 0.950 . S
H192 C200 0.950 . S
H193 C202 0.950 . S
H194 C204 0.950 . S
H195 C206 0.950 . S
H196 C208 0.950 . S
H197 C209 0.950 . S
C198 H190 0.950 . S
C198 C199 1.386 . S
C198 C200 1.391 . S
C199 C198 1.386 . S
C199 C203 1.393 1_554 S
C200 H192 0.950 . S
C200 C198 1.391 . S
C200 C201 1.400 1_554 S
C201 C200 1.400 1_556 S
C201 C202 1.398 . S
C201 C207 1.491 . S
C202 H193 0.950 . S
C202 C201 1.398 . S
C202 C203 1.391 . S
C203 H191 0.950 . S
C203 C199 1.393 1_556 S
C203 C202 1.391 . S
C204 H194 0.950 . S
C204 C205 1.386 . S
C204 C206 1.391 . S
C205 C204 1.386 . S
C205 C209 1.393 1_556 S
C206 H195 0.950 . S
C206 C204 1.391 . S
C206 C207 1.400 . S
C207 C201 1.491 . S
C207 C206 1.400 . S
C207 C208 1.398 1_556 S
C208 H196 0.950 . S
C208 C207 1.398 1_554 S
C208 C209 1.391 . S
C209 H197 0.950 . S
C209 C205 1.393 1_554 S
C209 C208 1.391 . S
H210 C218 0.950 1_556 S
H211 C223 0.950 . S
H212 C220 0.950 . S
H213 C222 0.950 . S
H214 C224 0.950 . S
H215 C226 0.950 . S
H216 C228 0.950 . S
H217 C229 0.950 . S
C218 H210 0.950 1_554 S
C218 C219 1.386 . S
C218 C220 1.391 . S
C219 C218 1.386 . S
C219 C223 1.393 . S
C220 H212 0.950 . S
C220 C218 1.391 . S
C220 C221 1.400 . S
C221 C220 1.400 . S
C221 C222 1.398 . S
C221 C227 1.491 . S
C222 H213 0.950 . S
C222 C221 1.398 . S
C222 C223 1.391 . S
C223 H211 0.950 . S
C223 C219 1.393 . S
C223 C222 1.391 . S
C224 H214 0.950 . S
C224 C225 1.386 . S
C224 C226 1.391 . S
C225 C224 1.386 . S
C225 C229 1.393 . S
C226 H215 0.950 . S
C226 C224 1.391 . S
C226 C227 1.400 . S
C227 C221 1.491 . S
C227 C226 1.400 . S
C227 C228 1.398 . S
C228 H216 0.950 . S
C228 C227 1.398 . S
C228 C229 1.391 . S
C229 H217 0.950 . S
C229 C225 1.393 . S
C229 C228 1.391 . S
H230 C238 0.950 . S
H231 C243 0.950 . S
H232 C240 0.950 . S
H233 C242 0.950 . S
H234 C244 0.950 . S
H235 C246 0.950 . S
H236 C248 0.950 . S
H237 C249 0.950 . S
C238 H230 0.950 . S
C238 C239 1.388 1_554 S
C238 C240 1.391 . S
C239 C238 1.388 1_556 S
C239 C243 1.390 . S
C240 H232 0.950 . S
C240 C238 1.391 . S
C240 C241 1.400 1_554 S
C241 C240 1.400 1_556 S
C241 C242 1.398 . S
C241 C247 1.491 . S
C242 H233 0.950 . S
C242 C241 1.398 . S
C242 C243 1.391 . S
C243 H231 0.950 . S
C243 C239 1.390 . S
C243 C242 1.391 . S
C244 H234 0.950 . S
C244 C245 1.386 . S
C244 C246 1.391 . S
C245 C244 1.386 . S
C245 C249 1.393 1_556 S
C246 H235 0.950 . S
C246 C244 1.391 . S
C246 C247 1.400 . S
C247 C241 1.491 . S
C247 C246 1.400 . S
C247 C248 1.398 1_556 S
C248 H236 0.950 . S
C248 C247 1.398 1_554 S
C248 C249 1.391 . S
C249 H237 0.950 . S
C249 C245 1.393 1_554 S
C249 C248 1.391 . S
H250 C258 0.950 . S
H251 C263 0.950 . S
H252 C260 0.950 . S
H253 C262 0.950 . S
H254 C264 0.950 . S
H255 C266 0.950 . S
H256 C268 0.950 . S
H257 C269 0.950 . S
C258 H250 0.950 . S
C258 C259 1.386 . S
C258 C260 1.391 . S
C259 C258 1.386 . S
C259 C263 1.393 . S
C260 H252 0.950 . S
C260 C258 1.391 . S
C260 C261 1.400 . S
C261 C260 1.400 . S
C261 C262 1.398 . S
C261 C267 1.491 . S
C262 H253 0.950 . S
C262 C261 1.398 . S
C262 C263 1.391 . S
C263 H251 0.950 . S
C263 C259 1.393 . S
C263 C262 1.391 . S
C264 H254 0.950 . S
C264 C265 1.386 . S
C264 C266 1.391 . S
C265 C264 1.386 . S
C265 C269 1.393 . S
C266 H255 0.950 . S
C266 C264 1.391 . S
C266 C267 1.400 . S
C267 C261 1.491 . S
C267 C266 1.400 . S
C267 C268 1.398 . S
C268 H256 0.950 . S
C268 C267 1.398 . S
C268 C269 1.391 . S
C269 H257 0.950 . S
C269 C265 1.393 . S
C269 C268 1.391 . S
H270 C278 0.950 . S
H271 C283 0.950 . S
H272 C280 0.950 . S
H273 C282 0.950 . S
H274 C284 0.950 . S
H275 C286 0.950 . S
H276 C288 0.950 . S
H277 C289 0.950 . S
C278 H270 0.950 . S
C278 C279 1.386 . S
C278 C280 1.391 . S
C279 C278 1.386 . S
C279 C283 1.393 . S
C280 H272 0.950 . S
C280 C278 1.391 . S
C280 C281 1.400 . S
C281 C280 1.400 . S
C281 C282 1.398 . S
C281 C287 1.491 . S
C282 H273 0.950 . S
C282 C281 1.398 . S
C282 C283 1.391 . S
C283 H271 0.950 . S
C283 C279 1.393 . S
C283 C282 1.391 . S
C284 H274 0.950 . S
C284 C285 1.386 . S
C284 C286 1.391 . S
C285 C284 1.386 . S
C285 C289 1.393 . S
C286 H275 0.950 . S
C286 C284 1.391 . S
C286 C287 1.400 . S
C287 C281 1.491 . S
C287 C286 1.400 . S
C287 C288 1.398 . S
C288 H276 0.950 . S
C288 C287 1.398 . S
C288 C289 1.391 . S
C289 H277 0.950 . S
C289 C285 1.393 . S
C289 C288 1.391 . S
H290 C298 0.950 . S
H291 C303 0.950 . S
H292 C300 0.950 . S
H293 C302 0.950 . S
H294 C304 0.950 . S
H295 C306 0.950 . S
H296 C308 0.950 . S
H297 C309 0.950 . S
C298 H290 0.950 . S
C298 C299 1.386 . S
C298 C300 1.391 . S
C299 C298 1.386 . S
C299 C303 1.393 . S
C300 H292 0.950 . S
C300 C298 1.391 . S
C300 C301 1.400 . S
C301 C300 1.400 . S
C301 C302 1.398 . S
C301 C307 1.491 . S
C302 H293 0.950 . S
C302 C301 1.398 . S
C302 C303 1.391 . S
C303 H291 0.950 . S
C303 C299 1.393 . S
C303 C302 1.391 . S
C304 H294 0.950 . S
C304 C305 1.386 . S
C304 C306 1.391 . S
C305 C304 1.386 . S
C305 C309 1.393 . S
C306 H295 0.950 . S
C306 C304 1.391 . S
C306 C307 1.400 . S
C307 C301 1.491 . S
C307 C306 1.400 . S
C307 C308 1.398 . S
C308 H296 0.950 . S
C308 C307 1.398 . S
C308 C309 1.391 . S
C309 H297 0.950 . S
C309 C305 1.393 . S
C309 C308 1.391 . S
H310 C318 0.950 . S
H311 C323 0.950 . S
H312 C320 0.950 . S
H313 C322 0.950 . S
H314 C324 0.950 . S
H315 C326 0.950 . S
H316 C328 0.950 . S
H317 C329 0.950 . S
C318 H310 0.950 . S
C318 C319 1.386 . S
C318 C320 1.391 . S
C319 C318 1.386 . S
C319 C323 1.393 . S
C320 H312 0.950 . S
C320 C318 1.391 . S
C320 C321 1.400 . S
C321 C320 1.400 . S
C321 C322 1.398 . S
C321 C327 1.491 . S
C322 H313 0.950 . S
C322 C321 1.398 . S
C322 C323 1.391 . S
C323 H311 0.950 . S
C323 C319 1.393 . S
C323 C322 1.391 . S
C324 H314 0.950 . S
C324 C325 1.386 . S
C324 C326 1.391 . S
C325 C324 1.386 . S
C325 C329 1.393 . S
C326 H315 0.950 . S
C326 C324 1.391 . S
C326 C327 1.400 . S
C327 C321 1.491 . S
C327 C326 1.400 . S
C327 C328 1.398 . S
C328 H316 0.950 . S
C328 C327 1.398 . S
C328 C329 1.391 . S
C329 H317 0.950 . S
C329 C325 1.393 . S
C329 C328 1.391 . S
H330 C338 0.950 . S
H331 C343 0.950 . S
H332 C340 0.950 . S
H333 C342 0.950 . S
H334 C344 0.950 . S
H335 C346 0.950 . S
H336 C348 0.950 . S
H337 C349 0.950 . S
C338 H330 0.950 . S
C338 C339 1.386 . S
C338 C340 1.391 . S
C339 C338 1.386 . S
C339 C343 1.393 1_545 S
C340 H332 0.950 . S
C340 C338 1.391 . S
C340 C341 1.400 . S
C341 C340 1.400 . S
C341 C342 1.398 1_545 S
C341 C347 1.491 . S
C342 H333 0.950 . S
C342 C341 1.398 1_565 S
C342 C343 1.391 . S
C343 H331 0.950 . S
C343 C339 1.393 1_565 S
C343 C342 1.391 . S
C344 H334 0.950 . S
C344 C345 1.386 . S
C344 C346 1.391 . S
C345 C344 1.386 . S
C345 C349 1.393 1_565 S
C346 H335 0.950 . S
C346 C344 1.391 . S
C346 C347 1.400 1_565 S
C347 C341 1.491 . S
C347 C346 1.400 1_545 S
C347 C348 1.398 . S
C348 H336 0.950 . S
C348 C347 1.398 . S
C348 C349 1.391 . S
C349 H337 0.950 . S
C349 C345 1.393 1_545 S
C349 C348 1.391 . S
H350 C358 0.950 . S
H351 C363 0.949 1_565 S
H352 C360 0.950 . S
H353 C362 0.950 1_565 S
H354 C364 0.950 1_565 S
H355 C366 0.950 1_565 S
H356 C368 0.950 . S
H357 C369 0.948 1_655 S
C358 H350 0.950 . S
C358 C359 1.386 . S
C358 C360 1.391 . S
C359 C358 1.386 . S
C359 C363 1.394 . S
C360 H352 0.950 . S
C360 C358 1.391 . S
C360 C361 1.400 . S
C361 C360 1.400 . S
C361 C362 1.398 . S
C361 C367 1.491 . S
C362 H353 0.950 1_545 S
C362 C361 1.398 . S
C362 C363 1.391 . S
C363 H351 0.949 1_545 S
C363 C359 1.394 . S
C363 C362 1.391 . S
C364 H354 0.950 1_545 S
C364 C365 1.386 . S
C364 C366 1.391 . S
C365 C364 1.386 . S
C365 C369 1.393 . S
C366 H355 0.950 1_545 S
C366 C364 1.391 . S
C366 C367 1.400 . S
C367 C361 1.491 . S
C367 C366 1.400 . S
C367 C368 1.398 . S
C368 H356 0.950 . S
C368 C367 1.398 . S
C368 C369 1.391 . S
C369 H357 0.948 1_455 S
C369 C365 1.393 . S
C369 C368 1.391 . S
H370 C378 0.950 . S
H371 C383 0.950 . S
H372 C380 0.950 . S
H373 C382 0.950 . S
H374 C384 0.950 . S
H375 C386 0.950 . S
H376 C388 0.950 . S
H377 C389 0.950 . S
C378 H370 0.950 . S
C378 C379 1.386 . S
C378 C380 1.391 . S
C379 C378 1.386 . S
C379 C383 1.393 . S
C380 H372 0.950 . S
C380 C378 1.391 . S
C380 C381 1.400 . S
C381 C380 1.400 . S
C381 C382 1.398 . S
C381 C387 1.491 . S
C382 H373 0.950 . S
C382 C381 1.398 . S
C382 C383 1.391 . S
C383 H371 0.950 . S
C383 C379 1.393 . S
C383 C382 1.391 . S
C384 H374 0.950 . S
C384 C385 1.386 . S
C384 C386 1.391 . S
C385 C384 1.386 . S
C385 C389 1.393 . S
C386 H375 0.950 . S
C386 C384 1.391 . S
C386 C387 1.400 . S
C387 C381 1.491 . S
C387 C386 1.400 . S
C387 C388 1.398 . S
C388 H376 0.950 . S
C388 C387 1.398 . S
C388 C389 1.391 . S
C389 H377 0.950 . S
C389 C385 1.393 . S
C389 C388 1.391 . S
H390 C398 0.950 . S
H391 C403 0.950 . S
H392 C400 0.950 . S
H393 C402 0.950 . S
H394 C404 0.950 . S
H395 C406 0.950 . S
H396 C408 0.950 . S
H397 C409 0.950 . S
C398 H390 0.950 . S
C398 C399 1.386 . S
C398 C400 1.391 . S
C399 C398 1.386 . S
C399 C403 1.393 . S
C400 H392 0.950 . S
C400 C398 1.391 . S
C400 C401 1.400 . S
C401 C400 1.400 . S
C401 C402 1.398 . S
C401 C407 1.491 . S
C402 H393 0.950 . S
C402 C401 1.398 . S
C402 C403 1.391 . S
C403 H391 0.950 . S
C403 C399 1.393 . S
C403 C402 1.391 . S
C404 H394 0.950 . S
C404 C405 1.386 . S
C404 C406 1.391 . S
C405 C404 1.386 . S
C405 C409 1.393 . S
C406 H395 0.950 . S
C406 C404 1.391 . S
C406 C407 1.400 . S
C407 C401 1.491 . S
C407 C406 1.400 . S
C407 C408 1.398 . S
C408 H396 0.950 . S
C408 C407 1.398 . S
C408 C409 1.391 . S
C409 H397 0.950 . S
C409 C405 1.393 . S
C409 C408 1.391 . S
C185 C155 1.410 . S
C179 C15 1.253 . S
C199 C13 1.482 . S
C205 C123 1.439 . S
C219 C18 1.302 . S
C225 C161 1.430 . S
C239 C17 1.346 . S
C245 C129 1.360 . S
C259 C36 1.274 . S
C265 C91 1.402 . S
C279 C34 1.475 . S
C285 C59 1.441 . S
C305 C97 1.415 . S
C299 C39 1.265 . S
C325 C65 1.337 . S
C319 C38 1.318 . S
C339 C14 1.517 . S
C345 C71 1.514 1_565 S
C359 C16 1.389 . S
C365 C103 1.388 . S
C385 C135 1.511 . S
C379 C35 1.520 . S
C399 C37 1.385 . S
C405 C167 1.376 . S
