# Generated by pormake.
# Topology eea, (3,6)-cn, num edge types: 1
# Building blocks:
#     Node 0, Type 0, BuildingBlock: PAMTOO_clean_linker_0, # of connection points: 3
#     Node 1, Type 0, BuildingBlock: PAMTOO_clean_linker_0, # of connection points: 3
#     Node 2, Type 0, BuildingBlock: PAMTOO_clean_linker_0, # of connection points: 3
#     Node 3, Type 0, BuildingBlock: PAMTOO_clean_linker_0, # of connection points: 3
#     Node 4, Type 0, BuildingBlock: PAMTOO_clean_linker_0, # of connection points: 3
#     Node 5, Type 0, BuildingBlock: PAMTOO_clean_linker_0, # of connection points: 3
#     Node 6, Type 0, BuildingBlock: PAMTOO_clean_linker_0, # of connection points: 3
#     Node 7, Type 0, BuildingBlock: PAMTOO_clean_linker_0, # of connection points: 3
#     Node 8, Type 0, BuildingBlock: PAMTOO_clean_linker_0, # of connection points: 3
#     Node 9, Type 0, BuildingBlock: PAMTOO_clean_linker_0, # of connection points: 3
#     Node 10, Type 0, BuildingBlock: PAMTOO_clean_linker_0, # of connection points: 3
#     Node 11, Type 0, BuildingBlock: PAMTOO_clean_linker_0, # of connection points: 3
#     Node 12, Type 0, BuildingBlock: PAMTOO_clean_linker_0, # of connection points: 3
#     Node 13, Type 0, BuildingBlock: PAMTOO_clean_linker_0, # of connection points: 3
#     Node 14, Type 0, BuildingBlock: PAMTOO_clean_linker_0, # of connection points: 3
#     Node 15, Type 0, BuildingBlock: PAMTOO_clean_linker_0, # of connection points: 3
#     Node 16, Type 0, BuildingBlock: PAMTOO_clean_linker_0, # of connection points: 3
#     Node 17, Type 0, BuildingBlock: PAMTOO_clean_linker_0, # of connection points: 3
#     Node 18, Type 1, BuildingBlock: KUMJIN_clean_sbu_0, # of connection points: 6
#     Node 19, Type 1, BuildingBlock: KUMJIN_clean_sbu_0, # of connection points: 6
#     Node 20, Type 1, BuildingBlock: KUMJIN_clean_sbu_0, # of connection points: 6
#     Node 21, Type 1, BuildingBlock: KUMJIN_clean_sbu_0, # of connection points: 6
#     Node 22, Type 1, BuildingBlock: KUMJIN_clean_sbu_0, # of connection points: 6
#     Node 23, Type 1, BuildingBlock: KUMJIN_clean_sbu_0, # of connection points: 6
#     Node 24, Type 1, BuildingBlock: KUMJIN_clean_sbu_0, # of connection points: 6
#     Node 25, Type 1, BuildingBlock: KUMJIN_clean_sbu_0, # of connection points: 6
#     Node 26, Type 1, BuildingBlock: KUMJIN_clean_sbu_0, # of connection points: 6
#     Edge 27, Type (0, 1), BuildingBlock: XIVTED_clean_linker_0, # of connection points: 2
#     Edge 28, Type (0, 1), BuildingBlock: XIVTED_clean_linker_0, # of connection points: 2
#     Edge 29, Type (0, 1), BuildingBlock: XIVTED_clean_linker_0, # of connection points: 2
#     Edge 30, Type (0, 1), BuildingBlock: XIVTED_clean_linker_0, # of connection points: 2
#     Edge 31, Type (0, 1), BuildingBlock: XIVTED_clean_linker_0, # of connection points: 2
#     Edge 32, Type (0, 1), BuildingBlock: XIVTED_clean_linker_0, # of connection points: 2
#     Edge 33, Type (0, 1), BuildingBlock: XIVTED_clean_linker_0, # of connection points: 2
#     Edge 34, Type (0, 1), BuildingBlock: XIVTED_clean_linker_0, # of connection points: 2
#     Edge 35, Type (0, 1), BuildingBlock: XIVTED_clean_linker_0, # of connection points: 2
#     Edge 36, Type (0, 1), BuildingBlock: XIVTED_clean_linker_0, # of connection points: 2
#     Edge 37, Type (0, 1), BuildingBlock: XIVTED_clean_linker_0, # of connection points: 2
#     Edge 38, Type (0, 1), BuildingBlock: XIVTED_clean_linker_0, # of connection points: 2
#     Edge 39, Type (0, 1), BuildingBlock: XIVTED_clean_linker_0, # of connection points: 2
#     Edge 40, Type (0, 1), BuildingBlock: XIVTED_clean_linker_0, # of connection points: 2
#     Edge 41, Type (0, 1), BuildingBlock: XIVTED_clean_linker_0, # of connection points: 2
#     Edge 42, Type (0, 1), BuildingBlock: XIVTED_clean_linker_0, # of connection points: 2
#     Edge 43, Type (0, 1), BuildingBlock: XIVTED_clean_linker_0, # of connection points: 2
#     Edge 44, Type (0, 1), BuildingBlock: XIVTED_clean_linker_0, # of connection points: 2
#     Edge 45, Type (0, 1), BuildingBlock: XIVTED_clean_linker_0, # of connection points: 2
#     Edge 46, Type (0, 1), BuildingBlock: XIVTED_clean_linker_0, # of connection points: 2
#     Edge 47, Type (0, 1), BuildingBlock: XIVTED_clean_linker_0, # of connection points: 2
#     Edge 48, Type (0, 1), BuildingBlock: XIVTED_clean_linker_0, # of connection points: 2
#     Edge 49, Type (0, 1), BuildingBlock: XIVTED_clean_linker_0, # of connection points: 2
#     Edge 50, Type (0, 1), BuildingBlock: XIVTED_clean_linker_0, # of connection points: 2
#     Edge 51, Type (0, 1), BuildingBlock: XIVTED_clean_linker_0, # of connection points: 2
#     Edge 52, Type (0, 1), BuildingBlock: XIVTED_clean_linker_0, # of connection points: 2
#     Edge 53, Type (0, 1), BuildingBlock: XIVTED_clean_linker_0, # of connection points: 2
#     Edge 54, Type (0, 1), BuildingBlock: XIVTED_clean_linker_0, # of connection points: 2
#     Edge 55, Type (0, 1), BuildingBlock: XIVTED_clean_linker_0, # of connection points: 2
#     Edge 56, Type (0, 1), BuildingBlock: XIVTED_clean_linker_0, # of connection points: 2
#     Edge 57, Type (0, 1), BuildingBlock: XIVTED_clean_linker_0, # of connection points: 2
#     Edge 58, Type (0, 1), BuildingBlock: XIVTED_clean_linker_0, # of connection points: 2
#     Edge 59, Type (0, 1), BuildingBlock: XIVTED_clean_linker_0, # of connection points: 2
#     Edge 60, Type (0, 1), BuildingBlock: XIVTED_clean_linker_0, # of connection points: 2
#     Edge 61, Type (0, 1), BuildingBlock: XIVTED_clean_linker_0, # of connection points: 2
#     Edge 62, Type (0, 1), BuildingBlock: XIVTED_clean_linker_0, # of connection points: 2
#     Edge 63, Type (0, 1), BuildingBlock: XIVTED_clean_linker_0, # of connection points: 2
#     Edge 64, Type (0, 1), BuildingBlock: XIVTED_clean_linker_0, # of connection points: 2
#     Edge 65, Type (0, 1), BuildingBlock: XIVTED_clean_linker_0, # of connection points: 2
#     Edge 66, Type (0, 1), BuildingBlock: XIVTED_clean_linker_0, # of connection points: 2
#     Edge 67, Type (0, 1), BuildingBlock: XIVTED_clean_linker_0, # of connection points: 2
#     Edge 68, Type (0, 1), BuildingBlock: XIVTED_clean_linker_0, # of connection points: 2
#     Edge 69, Type (0, 1), BuildingBlock: XIVTED_clean_linker_0, # of connection points: 2
#     Edge 70, Type (0, 1), BuildingBlock: XIVTED_clean_linker_0, # of connection points: 2
#     Edge 71, Type (0, 1), BuildingBlock: XIVTED_clean_linker_0, # of connection points: 2
#     Edge 72, Type (0, 1), BuildingBlock: XIVTED_clean_linker_0, # of connection points: 2
#     Edge 73, Type (0, 1), BuildingBlock: XIVTED_clean_linker_0, # of connection points: 2
#     Edge 74, Type (0, 1), BuildingBlock: XIVTED_clean_linker_0, # of connection points: 2
#     Edge 75, Type (0, 1), BuildingBlock: XIVTED_clean_linker_0, # of connection points: 2
#     Edge 76, Type (0, 1), BuildingBlock: XIVTED_clean_linker_0, # of connection points: 2
#     Edge 77, Type (0, 1), BuildingBlock: XIVTED_clean_linker_0, # of connection points: 2
#     Edge 78, Type (0, 1), BuildingBlock: XIVTED_clean_linker_0, # of connection points: 2
#     Edge 79, Type (0, 1), BuildingBlock: XIVTED_clean_linker_0, # of connection points: 2
#     Edge 80, Type (0, 1), BuildingBlock: XIVTED_clean_linker_0, # of connection points: 2
# Relax obj value: 0.023
# Max RMSD: 0.165
# Mean RMSD: 0.119
data_MOF--net-eea--node1-KUMJIN_clean_sbu_0--node2-PAMTOO_clean_linker_0--edge1-XIVTED_clean_linker_0
_symmetry_space_group_name_H-M    P1
_symmetry_Int_Tables_number       1
_symmetry_cell_setting            triclinic
loop_
_symmetry_equiv_pos_as_xyz
'x, y, z'
_cell_length_a     54.282865
_cell_length_b     56.104883
_cell_length_c     66.628406
_cell_angle_alpha  89.89142
_cell_angle_beta   89.844107
_cell_angle_gamma 119.98426
loop_
_atom_site_label
_atom_site_type_symbol
_atom_site_fract_x
_atom_site_fract_y
_atom_site_fract_z
_atom_type_partial_charge
H0 H 0.25048 0.07086 0.43623 0.0
H1 H 0.2526 0.14826 0.43194 0.0
H2 H 0.21123 0.08776 0.38612 0.0
H3 H 0.24225 0.14375 0.36927 0.0
C4 C 0.24416 0.1553 0.38328 0.0
O5 O 0.22599 0.13744 0.39767 0.0
H6 H 0.26665 0.16502 0.38841 0.0
C7 C 0.24442 0.08411 0.42844 0.0
C8 C 0.22945 0.07554 0.41023 0.0
C9 C 0.25253 0.11005 0.43656 0.0
C10 C 0.24642 0.12809 0.42598 0.0
C11 C 0.23184 0.11999 0.40774 0.0
C12 C 0.22307 0.09376 0.40003 0.0
H13 H 0.95038 0.18151 0.4328 0.0
H14 H 0.87598 0.10097 0.43004 0.0
H15 H 0.9341 0.13066 0.38043 0.0
H16 H 0.87439 0.0951 0.36686 0.0
C17 C 0.86527 0.08624 0.38182 0.0
O18 O 0.88685 0.08945 0.39444 0.0
H19 H 0.85475 0.09752 0.38774 0.0
C20 C 0.93715 0.16267 0.42465 0.0
C21 C 0.94557 0.15896 0.40542 0.0
C22 C 0.91216 0.14189 0.43376 0.0
C23 C 0.89552 0.11712 0.42345 0.0
C24 C 0.90346 0.11323 0.40429 0.0
C25 C 0.92845 0.13397 0.39536 0.0
H26 H 0.8431 0.7735 0.43417 0.0
H27 H 0.925 0.77922 0.42988 0.0
H28 H 0.89609 0.81025 0.38198 0.0
H29 H 0.93525 0.79238 0.36573 0.0
C30 C 0.94154 0.78806 0.38056 0.0
O31 O 0.93824 0.80397 0.39499 0.0
H32 H 0.92721 0.76576 0.38381 0.0
C33 C 0.86259 0.77963 0.42589 0.0
C34 C 0.86656 0.79215 0.40689 0.0
C35 C 0.88338 0.77475 0.43435 0.0
C36 C 0.90864 0.78265 0.42359 0.0
C37 C 0.91331 0.79566 0.40484 0.0
C38 C 0.89237 0.8005 0.39658 0.0
H39 H 0.0817 0.24012 0.59707 0.0
H40 H 0.1531 0.22672 0.60117 0.0
H41 H 0.0911 0.19859 0.64848 0.0
H42 H 0.14835 0.21163 0.6654 0.0
C43 C 0.15882 0.21732 0.65042 0.0
O44 O 0.13891 0.20216 0.6359 0.0
H45 H 0.16691 0.23975 0.64831 0.0
C46 C 0.09336 0.23209 0.60507 0.0
C47 C 0.08307 0.21901 0.6238 0.0
C48 C 0.11859 0.23509 0.59664 0.0
C49 C 0.13373 0.22489 0.60733 0.0
C50 C 0.12387 0.2118 0.62592 0.0
C51 C 0.09843 0.20858 0.63402 0.0
H52 H 0.77008 0.83664 0.59452 0.0
H53 H 0.77511 0.91523 0.60218 0.0
H54 H 0.8079 0.88494 0.64763 0.0
H55 H 0.7836 0.91696 0.66548 0.0
C56 C 0.78165 0.92613 0.65118 0.0
O57 O 0.79965 0.92509 0.63701 0.0
H58 H 0.75908 0.91403 0.64623 0.0
C59 C 0.77638 0.85504 0.60327 0.0
C60 C 0.78997 0.85823 0.62187 0.0
C61 C 0.77066 0.87534 0.59599 0.0
C62 C 0.77891 0.8991 0.6075 0.0
C63 C 0.79227 0.90237 0.626 0.0
C64 C 0.7979 0.88214 0.63311 0.0
H65 H 0.17599 0.93441 0.598 0.0
H66 H 0.0966 0.85818 0.60276 0.0
H67 H 0.12333 0.91664 0.65074 0.0
H68 H 0.08873 0.86101 0.66704 0.0
C69 C 0.08183 0.85031 0.65237 0.0
O70 O 0.08312 0.86873 0.63802 0.0
H71 H 0.09659 0.84262 0.64843 0.0
C72 C 0.15686 0.92085 0.60638 0.0
C73 C 0.15247 0.92879 0.62548 0.0
C74 C 0.13696 0.89545 0.598 0.0
C75 C 0.11226 0.87782 0.60895 0.0
C76 C 0.10731 0.88564 0.62782 0.0
C77 C 0.12727 0.91109 0.636 0.0
H78 H 0.91763 0.40519 0.77052 0.0
H79 H 0.91475 0.48015 0.76623 0.0
H80 H 0.87504 0.41861 0.72086 0.0
H81 H 0.90217 0.47411 0.70344 0.0
C82 C 0.90445 0.4857 0.71749 0.0
O83 O 0.88732 0.46772 0.73223 0.0
H84 H 0.92723 0.49598 0.72203 0.0
C85 C 0.91039 0.41755 0.76279 0.0
C86 C 0.89516 0.40816 0.74474 0.0
C87 C 0.9172 0.44322 0.77084 0.0
C88 C 0.90956 0.4602 0.76032 0.0
C89 C 0.89467 0.45129 0.74224 0.0
C90 C 0.88716 0.42528 0.73462 0.0
H91 H 0.611 0.51148 0.76594 0.0
H92 H 0.54218 0.42814 0.75952 0.0
H93 H 0.60313 0.46569 0.71209 0.0
H94 H 0.54494 0.42498 0.69553 0.0
C95 C 0.53549 0.4173 0.71063 0.0
O96 O 0.5568 0.42122 0.7238 0.0
H97 H 0.52512 0.42924 0.71539 0.0
C98 C 0.60002 0.49274 0.75726 0.0
C99 C 0.61044 0.49154 0.7381 0.0
C100 C 0.57529 0.47013 0.76519 0.0
C101 C 0.56113 0.44596 0.75375 0.0
C102 C 0.5712 0.44446 0.73473 0.0
C103 C 0.59587 0.46708 0.72697 0.0
H104 H 0.51056 0.10527 0.76609 0.0
H105 H 0.59425 0.11505 0.7616 0.0
H106 H 0.56309 0.14478 0.71422 0.0
H107 H 0.60488 0.12969 0.69739 0.0
C108 C 0.61034 0.12462 0.71226 0.0
O109 O 0.60646 0.14002 0.72683 0.0
H110 H 0.59569 0.10221 0.71488 0.0
C111 C 0.53031 0.11247 0.75789 0.0
C112 C 0.53381 0.12522 0.73904 0.0
C113 C 0.55187 0.10866 0.76624 0.0
C114 C 0.57733 0.11773 0.75544 0.0
C115 C 0.58146 0.13088 0.7368 0.0
C116 C 0.55982 0.13484 0.72871 0.0
H117 H 0.75003 0.57582 0.93165 0.0
H118 H 0.82138 0.56243 0.93633 0.0
H119 H 0.75847 0.53369 0.98305 0.0
H120 H 0.81517 0.54634 1.00055 0.0
C121 C 0.82599 0.55241 0.98571 0.0
O122 O 0.80651 0.53746 0.97091 0.0
H123 H 0.83399 0.57486 0.98383 0.0
C124 C 0.76155 0.56771 0.93974 0.0
C125 C 0.75093 0.55442 0.95834 0.0
C126 C 0.78693 0.57079 0.93152 0.0
C127 C 0.80189 0.56051 0.94232 0.0
C128 C 0.79167 0.54719 0.96081 0.0
C129 C 0.76608 0.54387 0.96868 0.0
H130 H 0.43661 0.16921 0.92718 0.0
H131 H 0.44524 0.24936 0.93319 0.0
H132 H 0.48429 0.22241 0.97628 0.0
H133 H 0.46139 0.25398 0.99593 0.0
C134 C 0.45749 0.26256 0.98201 0.0
O135 O 0.47376 0.26125 0.96659 0.0
H136 H 0.43439 0.25003 0.9785 0.0
C137 C 0.44501 0.18849 0.93518 0.0
C138 C 0.46119 0.1929 0.95273 0.0
C139 C 0.43965 0.20892 0.92774 0.0
C140 C 0.44976 0.23362 0.93837 0.0
C141 C 0.46524 0.23797 0.95601 0.0
C142 C 0.47147 0.21805 0.96291 0.0
H143 H 0.84933 0.2677 0.93193 0.0
H144 H 0.76916 0.19227 0.93527 0.0
H145 H 0.78839 0.25615 0.97806 0.0
H146 H 0.75406 0.20294 0.99749 0.0
C147 C 0.74889 0.19015 0.98374 0.0
O148 O 0.75111 0.20606 0.96722 0.0
H149 H 0.76452 0.18282 0.98266 0.0
C150 C 0.82885 0.2553 0.93911 0.0
C151 C 0.82151 0.26564 0.95595 0.0
C152 C 0.8101 0.22912 0.93128 0.0
C153 C 0.78376 0.21269 0.94084 0.0
C154 C 0.77628 0.22234 0.95787 0.0
C155 C 0.79488 0.24885 0.96519 0.0
H156 H 0.58386 0.73737 0.10355 0.0
H157 H 0.58283 0.81329 0.09958 0.0
H158 H 0.54218 0.75225 0.05401 0.0
H159 H 0.57084 0.80784 0.03686 0.0
C160 C 0.57304 0.81946 0.05088 0.0
O161 O 0.55556 0.80159 0.06554 0.0
H162 H 0.59573 0.82953 0.05561 0.0
C163 C 0.57699 0.75008 0.0959 0.0
C164 C 0.56175 0.74106 0.07782 0.0
C165 C 0.58434 0.77584 0.10404 0.0
C166 C 0.57721 0.79325 0.0936 0.0
C167 C 0.56232 0.7847 0.07551 0.0
C168 C 0.55427 0.75862 0.06779 0.0
H169 H 0.28296 0.84891 0.09966 0.0
H170 H 0.2129 0.76583 0.09652 0.0
H171 H 0.27154 0.79944 0.04727 0.0
H172 H 0.21309 0.75991 0.03279 0.0
C173 C 0.20391 0.75197 0.04792 0.0
O174 O 0.22552 0.75607 0.06086 0.0
H175 H 0.19336 0.76362 0.053 0.0
C176 C 0.27108 0.82979 0.0915 0.0
C177 C 0.28037 0.82716 0.07229 0.0
C178 C 0.24685 0.80785 0.10048 0.0
C179 C 0.23195 0.78286 0.09009 0.0
C180 C 0.24085 0.77993 0.07097 0.0
C181 C 0.26515 0.8019 0.06218 0.0
H182 H 0.17779 0.43968 0.09891 0.0
H183 H 0.26109 0.44853 0.09448 0.0
H184 H 0.23022 0.47814 0.04683 0.0
H185 H 0.27098 0.46204 0.03015 0.0
C186 C 0.27676 0.45727 0.04501 0.0
O187 O 0.27331 0.473 0.0595 0.0
H188 H 0.26214 0.43493 0.04792 0.0
C189 C 0.19749 0.44661 0.0907 0.0
C190 C 0.20103 0.45912 0.07176 0.0
C191 C 0.21893 0.44268 0.09912 0.0
C192 C 0.24429 0.45136 0.08828 0.0
C193 C 0.24844 0.46428 0.06954 0.0
C194 C 0.22694 0.46839 0.0614 0.0
H195 H 0.41313 0.90814 0.26596 0.0
H196 H 0.48582 0.89666 0.26789 0.0
H197 H 0.4246 0.86564 0.31584 0.0
H198 H 0.4813 0.87995 0.33176 0.0
C199 C 0.49216 0.88537 0.3169 0.0
O200 O 0.47249 0.87049 0.30218 0.0
H201 H 0.50082 0.90788 0.31465 0.0
C202 C 0.42549 0.9006 0.27362 0.0
C203 C 0.41573 0.88677 0.29213 0.0
C204 C 0.4506 0.90419 0.26458 0.0
C205 C 0.46617 0.89375 0.27437 0.0
C206 C 0.45686 0.87996 0.29281 0.0
C207 C 0.4315 0.87617 0.30152 0.0
H208 H 0.10635 0.50518 0.26264 0.0
H209 H 0.11196 0.5839 0.27119 0.0
H210 H 0.14388 0.55225 0.31627 0.0
H211 H 0.12029 0.58465 0.3347 0.0
C212 C 0.11794 0.59352 0.32039 0.0
O213 O 0.13603 0.59277 0.30616 0.0
H214 H 0.09533 0.58101 0.31558 0.0
C215 C 0.11272 0.52343 0.27158 0.0
C216 C 0.1261 0.52615 0.29019 0.0
C217 C 0.10726 0.54402 0.26453 0.0
C218 C 0.11557 0.56756 0.27631 0.0
C219 C 0.12869 0.57032 0.29484 0.0
C220 C 0.13407 0.54984 0.30171 0.0
H221 H 0.51657 0.60212 0.26552 0.0
H222 H 0.43721 0.52552 0.26761 0.0
H223 H 0.45848 0.58439 0.31488 0.0
H224 H 0.42388 0.53003 0.33108 0.0
C225 C 0.41802 0.51861 0.31665 0.0
O226 O 0.41997 0.53617 0.30138 0.0
H227 H 0.43328 0.51109 0.31405 0.0
C228 C 0.49682 0.58827 0.27316 0.0
C229 C 0.49033 0.59635 0.29146 0.0
C230 C 0.478 0.56281 0.26435 0.0
C231 C 0.45193 0.5454 0.27395 0.0
C232 C 0.44493 0.5533 0.29208 0.0
C233 C 0.46397 0.57879 0.3007 0.0
Eu234 Eu 0.49795 0.9897 0.9898 0.0
C235 C 0.55899 0.0849 0.05294 0.0
C236 C 0.60856 0.0974 0.05124 0.0
C237 C 0.5958 0.13169 0.0606 0.0
C238 C 0.57948 0.07781 0.04901 0.0
C239 C 0.56685 0.11171 0.05933 0.0
C240 C 0.61663 0.12455 0.05652 0.0
C241 C 0.51703 0.09624 0.06465 0.0
N242 N 0.53129 0.06502 0.0518 0.0
C243 C 0.51033 0.06997 0.05822 0.0
C244 C 0.5454 0.11734 0.06491 0.0
Eu245 Eu 0.5213 0.02116 0.0404 0.0
N246 N 0.57089 0.05131 0.04421 0.0
C247 C 0.59022 0.04254 0.04296 0.0
C248 C 0.62859 0.08887 0.04873 0.0
C249 C 0.61933 0.06122 0.04489 0.0
H250 H 0.48835 0.05378 0.05791 0.0
H251 H 0.63459 0.05427 0.04333 0.0
H252 H 0.63888 0.13996 0.05808 0.0
H253 H 0.50032 0.10023 0.06932 0.0
H254 H 0.58344 0.02128 0.0399 0.0
H255 H 0.38484 0.95678 0.98556 0.0
H256 H 0.65114 0.10329 0.05023 0.0
H257 H 0.53113 0.95638 0.97405 0.0
H258 H 0.43604 0.98988 0.98897 0.0
H259 H 0.51913 0.90934 0.96407 0.0
H260 H 0.60228 0.15249 0.06526 0.0
H261 H 0.36828 0.90748 0.97991 0.0
H262 H 0.38052 0.87047 0.97342 0.0
H263 H 0.55055 0.13767 0.06994 0.0
H264 H 0.41709 0.85756 0.96742 0.0
N265 N 0.44845 0.95959 0.98592 0.0
C266 C 0.42918 0.96847 0.98648 0.0
C267 C 0.39082 0.92193 0.98143 0.0
C268 C 0.41083 0.91327 0.97959 0.0
C269 C 0.40009 0.94974 0.98456 0.0
C270 C 0.4399 0.9329 0.98178 0.0
H271 H 0.46883 0.87202 0.96351 0.0
N272 N 0.48815 0.94547 0.97951 0.0
C273 C 0.50241 0.91361 0.96816 0.0
C274 C 0.46041 0.92561 0.97844 0.0
C275 C 0.50913 0.94019 0.97376 0.0
C276 C 0.474 0.89258 0.96793 0.0
C277 C 0.45254 0.89853 0.97279 0.0
O278 O 0.52102 0.00072 0.96126 0.0
O279 O 0.53235 0.02278 0.00799 0.0
O280 O 0.51694 0.05194 0.0208 0.0
O281 O 0.48612 0.02274 0.99608 0.0
O282 O 0.54523 0.00484 0.9865 0.0
O283 O 0.48394 0.0052 0.96475 0.0
O284 O 0.49849 0.00966 0.06911 0.0
O285 O 0.48665 0.98846 0.0221 0.0
O286 O 0.50112 0.95893 0.00988 0.0
O287 O 0.53367 0.9885 0.0335 0.0
O288 O 0.47428 0.00693 0.0435 0.0
O289 O 0.53456 0.00386 0.06471 0.0
C290 C 0.55389 0.02375 0.99998 0.0
C291 C 0.49416 0.99555 0.93221 0.0
C292 C 0.49731 0.00203 0.89577 0.0
C293 C 0.50517 0.01284 0.9153 0.0
C294 C 0.4781 0.97371 0.89351 0.0
C295 C 0.47494 0.96744 0.92957 0.0
C296 C 0.46696 0.95662 0.91031 0.0
C297 C 0.49929 0.04672 0.00555 0.0
C298 C 0.50351 0.00689 0.95246 0.0
C299 C 0.42358 0.87856 0.97154 0.0
C300 C 0.40276 0.88591 0.97496 0.0
C301 C 0.46533 0.98823 0.02986 0.0
C302 C 0.52597 0.01375 0.09762 0.0
C303 C 0.51371 0.99717 0.11476 0.0
C304 C 0.5229 0.00805 0.13416 0.0
C305 C 0.5447 0.03562 0.13604 0.0
C306 C 0.54771 0.04112 0.09994 0.0
C307 C 0.55701 0.05195 0.11904 0.0
C308 C 0.51999 0.9644 0.02423 0.0
C309 C 0.51564 0.00264 0.07742 0.0
H310 H 0.5202 0.03455 0.91734 0.0
H311 H 0.47135 0.96482 0.87874 0.0
H312 H 0.46618 0.95387 0.94237 0.0
H313 H 0.4521 0.93489 0.90839 0.0
H314 H 0.49674 0.97607 0.11301 0.0
H315 H 0.5525 0.04451 0.15068 0.0
H316 H 0.55748 0.05413 0.087 0.0
H317 H 0.57384 0.07309 0.12069 0.0
Eu318 Eu 0.03163 0.5052 0.99223 0.0
C319 C 0.93036 0.47087 0.05285 0.0
C320 C 0.91669 0.50562 0.04906 0.0
C321 C 0.88155 0.4593 0.0595 0.0
C322 C 0.93734 0.49741 0.04781 0.0
C323 C 0.90258 0.4517 0.05928 0.0
C324 C 0.88859 0.48622 0.05437 0.0
C325 C 0.91922 0.41997 0.06684 0.0
N326 N 0.95128 0.46436 0.05279 0.0
C327 C 0.94644 0.43971 0.06034 0.0
C328 C 0.89707 0.42583 0.06602 0.0
Eu329 Eu 0.99678 0.49858 0.04149 0.0
N330 N 0.96478 0.51572 0.04304 0.0
C331 C 0.97343 0.543 0.04081 0.0
C332 C 0.92512 0.53326 0.04558 0.0
C333 C 0.95371 0.5521 0.04174 0.0
H334 H 0.96346 0.43504 0.0609 0.0
H335 H 0.96057 0.57363 0.03942 0.0
H336 H 0.87235 0.49205 0.05516 0.0
H337 H 0.91532 0.40025 0.07241 0.0
H338 H 0.99542 0.55779 0.03778 0.0
H339 H 0.06536 0.42828 0.99367 0.0
H340 H 0.9099 0.54037 0.04631 0.0
H341 H 0.0672 0.56991 0.97494 0.0
H342 H 0.03117 0.44501 0.99486 0.0
H343 H 0.11644 0.60476 0.96547 0.0
H344 H 0.86 0.44478 0.06418 0.0
H345 H 0.11657 0.46111 0.98837 0.0
H346 H 0.15529 0.50955 0.98117 0.0
H347 H 0.87602 0.41054 0.07111 0.0
H348 H 0.16923 0.55761 0.97347 0.0
N349 N 0.06271 0.48706 0.99077 0.0
C350 C 0.05341 0.45959 0.99246 0.0
C351 C 0.10164 0.4686 0.98886 0.0
C352 C 0.11081 0.49652 0.98599 0.0
C353 C 0.07275 0.45 0.9918 0.0
C354 C 0.09052 0.50521 0.98688 0.0
H355 H 0.15481 0.59319 0.96723 0.0
N356 N 0.07797 0.53942 0.98247 0.0
C357 C 0.11168 0.58449 0.97036 0.0
C358 C 0.09841 0.53225 0.98263 0.0
C359 C 0.08387 0.56474 0.97567 0.0
C360 C 0.1333 0.5779 0.97144 0.0
C361 C 0.12672 0.55137 0.97729 0.0
O362 O 0.02264 0.51574 0.96266 0.0
O363 O 0.99608 0.5056 0.00865 0.0
O364 O 0.96581 0.4624 0.0226 0.0
O365 O 0.99673 0.46078 0.99883 0.0
O366 O 0.01543 0.53507 0.98655 0.0
O367 O 0.01791 0.47547 0.96777 0.0
O368 O 1.00706 0.48987 0.07132 0.0
O369 O 0.03193 0.49762 0.02494 0.0
O370 O 0.06233 0.54019 0.01185 0.0
O371 O 0.03068 0.54322 0.03398 0.0
O372 O 0.0127 0.46851 0.04718 0.0
O373 O 0.01251 0.53005 0.06477 0.0
C374 C 0.99509 0.52485 0.99958 0.0
C375 C 0.03128 0.49463 0.93523 0.0
C376 C 0.02849 0.49265 0.8987 0.0
C377 C 0.01559 0.48988 0.91756 0.0
C378 C 0.05744 0.50041 0.8978 0.0
C379 C 0.06004 0.50207 0.93408 0.0
C380 C 0.07304 0.505 0.91542 0.0
C381 C 0.97164 0.44983 0.00806 0.0
C382 C 0.01744 0.49252 0.95463 0.0
C383 C 0.14729 0.54315 0.97733 0.0
C384 C 0.13935 0.51578 0.9817 0.0
C385 C 0.03268 0.4782 0.0339 0.0
C386 C 0.99993 0.51331 0.09792 0.0
C387 C 0.01545 0.51754 0.11564 0.0
C388 C 1.00314 0.51679 0.13445 0.0
C389 C 0.97496 0.51162 0.13516 0.0
C390 C 0.97197 0.50839 0.09897 0.0
C391 C 0.95956 0.50751 0.11751 0.0
C392 C 0.05609 0.55369 0.02529 0.0
C393 C 0.01307 0.51375 0.07852 0.0
H394 H 0.99341 0.48436 0.91851 0.0
H395 H 0.06786 0.50245 0.8835 0.0
H396 H 0.07242 0.50565 0.94751 0.0
H397 H 0.09526 0.51076 0.91462 0.0
H398 H 0.0372 0.52174 0.11472 0.0
H399 H 0.96465 0.51041 0.14937 0.0
H400 H 0.95975 0.50525 0.08552 0.0
H401 H 0.93791 0.50354 0.11821 0.0
Eu402 Eu 0.5316 0.50627 0.0395 0.0
C403 C 0.46851 0.54095 0.977 0.0
C404 C 0.41882 0.50606 0.97978 0.0
C405 C 0.43191 0.55254 0.96956 0.0
C406 C 0.44788 0.51429 0.9816 0.0
C407 C 0.46079 0.5602 0.97039 0.0
C408 C 0.41095 0.52551 0.97428 0.0
C409 C 0.51054 0.59221 0.96402 0.0
N410 N 0.49616 0.54754 0.97772 0.0
C411 C 0.51712 0.5724 0.9707 0.0
C412 C 0.48229 0.58624 0.96415 0.0
Eu413 Eu 0.50587 0.51324 0.98942 0.0
N414 N 0.45625 0.49595 0.98655 0.0
C415 C 0.43668 0.46861 0.98836 0.0
C416 C 0.39859 0.47834 0.98286 0.0
C417 C 0.4076 0.45946 0.98684 0.0
H418 H 0.53902 0.57718 0.9707 0.0
H419 H 0.39215 0.43788 0.98884 0.0
H420 H 0.38873 0.51965 0.97303 0.0
H421 H 0.52727 0.61209 0.95885 0.0
H422 H 0.44329 0.45379 0.99152 0.0
H423 H 0.64466 0.58364 0.03922 0.0
H424 H 0.37605 0.4712 0.98168 0.0
H425 H 0.50016 0.44155 0.05672 0.0
H426 H 0.59318 0.56666 0.03749 0.0
H427 H 0.51336 0.40684 0.06656 0.0
H428 H 0.42554 0.56712 0.96474 0.0
H429 H 0.66207 0.55101 0.04497 0.0
H430 H 0.65083 0.50263 0.05232 0.0
H431 H 0.47723 0.6016 0.95894 0.0
H432 H 0.61509 0.45448 0.05976 0.0
N433 N 0.5814 0.52466 0.04167 0.0
C434 C 0.60041 0.55216 0.04005 0.0
C435 C 0.63941 0.54341 0.04421 0.0
C436 C 0.61977 0.51545 0.047 0.0
C437 C 0.62966 0.5619 0.04102 0.0
C438 C 0.59051 0.50662 0.04575 0.0
H439 H 0.56381 0.41868 0.06547 0.0
N440 N 0.54258 0.47224 0.04967 0.0
C441 C 0.52962 0.42717 0.0618 0.0
C442 C 0.57046 0.47953 0.04985 0.0
C443 C 0.52222 0.44683 0.05629 0.0
C444 C 0.55811 0.43391 0.0611 0.0
C445 C 0.57901 0.4605 0.05541 0.0
O446 O 0.51067 0.49542 0.06885 0.0
O447 O 0.49618 0.50552 0.02214 0.0
O448 O 0.51051 0.54859 0.00845 0.0
O449 O 0.54265 0.55049 0.03258 0.0
O450 O 0.48445 0.47599 0.04428 0.0
O451 O 0.54696 0.536 0.06404 0.0
O452 O 0.52677 0.52256 0.96005 0.0
O453 O 0.54133 0.51424 0.00689 0.0
O454 O 0.527 0.47152 0.02 0.0
O455 O 0.49324 0.46873 0.9971 0.0
O456 O 0.55303 0.54371 0.98487 0.0
O457 O 0.49091 0.48205 0.96592 0.0
C458 C 0.47505 0.48601 0.03087 0.0
C459 C 0.54015 0.51694 0.09664 0.0
C460 C 0.54019 0.52006 0.13326 0.0
C461 C 0.5296 0.52213 0.11441 0.0
C462 C 0.56119 0.51234 0.13395 0.0
C463 C 0.5613 0.50963 0.09775 0.0
C464 C 0.57166 0.50724 0.11631 0.0
C465 C 0.52875 0.56113 0.02323 0.0
C466 C 0.5287 0.51878 0.07706 0.0
C467 C 0.6081 0.46886 0.05573 0.0
C468 C 0.62844 0.49629 0.05151 0.0
C469 C 0.56252 0.53387 0.99833 0.0
C470 C 0.49725 0.49893 0.93269 0.0
C471 C 0.5089 0.49415 0.91534 0.0
C472 C 0.49796 0.49447 0.89623 0.0
C473 C 0.47534 0.4999 0.89484 0.0
C474 C 0.47465 0.50414 0.93092 0.0
C475 C 0.46382 0.50467 0.91208 0.0
C476 C 0.50741 0.45821 0.00621 0.0
C477 C 0.50895 0.49862 0.95252 0.0
H478 H 0.51352 0.52815 0.1135 0.0
H479 H 0.56942 0.50999 0.14815 0.0
H480 H 0.56979 0.50573 0.08432 0.0
H481 H 0.58786 0.50138 0.11703 0.0
H482 H 0.52618 0.48983 0.91678 0.0
H483 H 0.46675 0.5008 0.88039 0.0
H484 H 0.46536 0.50778 0.94405 0.0
H485 H 0.44645 0.50885 0.91084 0.0
Eu486 Eu 0.16371 0.323 0.32248 0.0
C487 C 0.2256 0.41748 0.38546 0.0
C488 C 0.27523 0.43006 0.38417 0.0
C489 C 0.26226 0.46441 0.39292 0.0
C490 C 0.24619 0.41039 0.38184 0.0
C491 C 0.23334 0.44441 0.39146 0.0
C492 C 0.28317 0.45724 0.38927 0.0
C493 C 0.1834 0.42916 0.39585 0.0
N494 N 0.1979 0.3976 0.38418 0.0
C495 C 0.17681 0.40271 0.38998 0.0
C496 C 0.21179 0.4502 0.39637 0.0
Eu497 Eu 0.18824 0.35363 0.37325 0.0
N498 N 0.23776 0.38391 0.37706 0.0
C499 C 0.2572 0.37529 0.37575 0.0
C500 C 0.29536 0.42164 0.38178 0.0
C501 C 0.28626 0.39404 0.37782 0.0
H502 H 0.15483 0.38652 0.38949 0.0
H503 H 0.30162 0.38721 0.37627 0.0
H504 H 0.30539 0.4727 0.39091 0.0
H505 H 0.1666 0.4333 0.39997 0.0
H506 H 0.25053 0.35408 0.3726 0.0
H507 H 0.04978 0.28731 0.32203 0.0
H508 H 0.31788 0.43612 0.38337 0.0
H509 H 0.19756 0.29149 0.30434 0.0
H510 H 0.10082 0.32125 0.3246 0.0
H511 H 0.18633 0.24516 0.29311 0.0
H512 H 0.26865 0.48528 0.39733 0.0
H513 H 0.03419 0.23858 0.31477 0.0
H514 H 0.04737 0.20276 0.30615 0.0
H515 H 0.21686 0.47065 0.40102 0.0
H516 H 0.08454 0.19128 0.2982 0.0
N517 N 0.11422 0.29203 0.31939 0.0
C518 C 0.09442 0.30012 0.32136 0.0
C519 C 0.05668 0.25341 0.31589 0.0
C520 C 0.07713 0.24557 0.31272 0.0
C521 C 0.0654 0.28091 0.31994 0.0
C522 C 0.10612 0.26568 0.31446 0.0
H523 H 0.1364 0.20706 0.29296 0.0
N524 N 0.15453 0.27946 0.31089 0.0
C525 C 0.16943 0.24879 0.29792 0.0
C526 C 0.12695 0.25918 0.31007 0.0
C527 C 0.17572 0.27499 0.30424 0.0
C528 C 0.14123 0.22732 0.29792 0.0
C529 C 0.11951 0.23246 0.30373 0.0
O530 O 0.18618 0.33598 0.29375 0.0
O531 O 0.19846 0.3557 0.34069 0.0
O532 O 0.18396 0.3844 0.35372 0.0
O533 O 0.15076 0.35483 0.33043 0.0
O534 O 0.21099 0.33877 0.31818 0.0
O535 O 0.1482 0.33861 0.29842 0.0
O536 O 0.16657 0.34311 0.40237 0.0
O537 O 0.15364 0.32085 0.3551 0.0
O538 O 0.16892 0.2924 0.34133 0.0
O539 O 0.2009 0.32134 0.3656 0.0
O540 O 0.14092 0.33785 0.37733 0.0
O541 O 0.20177 0.33609 0.39723 0.0
C542 C 0.21986 0.35704 0.33214 0.0
C543 C 0.15814 0.3304 0.26534 0.0
C544 C 0.1618 0.33697 0.22891 0.0
C545 C 0.16983 0.34763 0.24846 0.0
C546 C 0.14176 0.30888 0.22659 0.0
C547 C 0.13809 0.30251 0.26263 0.0
C548 C 0.12996 0.29186 0.24335 0.0
C549 C 0.16473 0.37894 0.33961 0.0
C550 C 0.16775 0.34145 0.28563 0.0
C551 C 0.09069 0.21201 0.30284 0.0
C552 C 0.06953 0.21856 0.30736 0.0
C553 C 0.13212 0.31933 0.36356 0.0
C554 C 0.19462 0.34647 0.43038 0.0
C555 C 0.18368 0.32948 0.44748 0.0
C556 C 0.19436 0.33987 0.46677 0.0
C557 C 0.2159 0.36759 0.46855 0.0
C558 C 0.21612 0.37393 0.43262 0.0
C559 C 0.22664 0.38441 0.45161 0.0
C560 C 0.1878 0.29769 0.35566 0.0
C561 C 0.18349 0.3355 0.41029 0.0
H562 H 0.18551 0.36915 0.25055 0.0
H563 H 0.13489 0.30013 0.21179 0.0
H564 H 0.1288 0.28898 0.2754 0.0
H565 H 0.11446 0.2703 0.24138 0.0
H566 H 0.16721 0.30818 0.44572 0.0
H567 H 0.22425 0.37643 0.48312 0.0
H568 H 0.22478 0.38728 0.41972 0.0
H569 H 0.24316 0.40569 0.45321 0.0
Eu570 Eu 0.69813 0.83816 0.32502 0.0
C571 C 0.59473 0.80237 0.38325 0.0
C572 C 0.58053 0.83678 0.37969 0.0
C573 C 0.5453 0.78973 0.38843 0.0
C574 C 0.60159 0.82908 0.37884 0.0
C575 C 0.56663 0.78252 0.38853 0.0
C576 C 0.55224 0.81683 0.38402 0.0
C577 C 0.58329 0.75061 0.39532 0.0
N578 N 0.61589 0.79618 0.38345 0.0
C579 C 0.61086 0.77107 0.39011 0.0
C580 C 0.561 0.75625 0.39429 0.0
Eu581 Eu 0.66176 0.83147 0.37367 0.0
N582 N 0.62916 0.84789 0.37484 0.0
C583 C 0.63746 0.87514 0.37299 0.0
C584 C 0.58869 0.86446 0.37672 0.0
C585 C 0.61735 0.88377 0.37365 0.0
H586 H 0.62803 0.76661 0.39081 0.0
H587 H 0.62396 0.90531 0.37168 0.0
H588 H 0.53572 0.82229 0.38449 0.0
H589 H 0.57926 0.73053 0.40012 0.0
H590 H 0.65949 0.89027 0.37051 0.0
H591 H 0.7365 0.76485 0.32901 0.0
H592 H 0.57315 0.8712 0.37718 0.0
H593 H 0.73155 0.90242 0.30671 0.0
H594 H 0.70075 0.77964 0.32935 0.0
H595 H 0.7802 0.93834 0.29704 0.0
H596 H 0.52353 0.7747 0.39225 0.0
H597 H 0.78726 0.79899 0.32337 0.0
H598 H 0.82451 0.84774 0.31537 0.0
H599 H 0.53969 0.74041 0.39843 0.0
H600 H 0.83643 0.89499 0.30666 0.0
N601 N 0.73092 0.82193 0.32444 0.0
C602 C 0.72276 0.79478 0.3268 0.0
C603 C 0.77163 0.80562 0.32349 0.0
C604 C 0.77964 0.83316 0.31997 0.0
C605 C 0.743 0.78629 0.32663 0.0
C606 C 0.75846 0.84073 0.32039 0.0
H607 H 0.81998 0.92883 0.29944 0.0
N608 N 0.74393 0.8733 0.31496 0.0
C609 C 0.7763 0.91848 0.3023 0.0
C610 C 0.7652 0.86727 0.31552 0.0
C611 C 0.7488 0.89811 0.30773 0.0
C612 C 0.79871 0.91306 0.30373 0.0
C613 C 0.79325 0.88705 0.31009 0.0
O614 O 0.68796 0.84655 0.29511 0.0
O615 O 0.66199 0.83836 0.34076 0.0
O616 O 0.63197 0.79586 0.35397 0.0
O617 O 0.66481 0.79352 0.33262 0.0
O618 O 0.68124 0.86722 0.31826 0.0
O619 O 0.68526 0.80738 0.30135 0.0
O620 O 0.67042 0.82222 0.4038 0.0
O621 O 0.69788 0.83147 0.3579 0.0
O622 O 0.72768 0.87412 0.34433 0.0
O623 O 0.69523 0.8763 0.36627 0.0
O624 O 0.67917 0.80272 0.38038 0.0
O625 O 0.67609 0.86252 0.39722 0.0
C626 C 0.66092 0.8573 0.33129 0.0
C627 C 0.6979 0.82534 0.26844 0.0
C628 C 0.69555 0.82338 0.23191 0.0
C629 C 0.68243 0.8206 0.25067 0.0
C630 C 0.7245 0.83112 0.23119 0.0
C631 C 0.72668 0.8328 0.26749 0.0
C632 C 0.7399 0.83571 0.24892 0.0
C633 C 0.63908 0.78262 0.34084 0.0
C634 C 0.68385 0.82337 0.28771 0.0
C635 C 0.81469 0.88 0.31058 0.0
C636 C 0.8079 0.85309 0.31553 0.0
C637 C 0.69948 0.81284 0.36735 0.0
C638 C 0.66238 0.84531 0.43021 0.0
C639 C 0.67754 0.8497 0.44812 0.0
C640 C 0.6647 0.8486 0.46676 0.0
C641 C 0.63636 0.84301 0.46711 0.0
C642 C 0.63422 0.83987 0.43088 0.0
C643 C 0.62131 0.83873 0.44926 0.0
C644 C 0.72072 0.88731 0.35759 0.0
C645 C 0.67613 0.84601 0.41103 0.0
H646 H 0.66026 0.81514 0.25147 0.0
H647 H 0.73509 0.83317 0.21696 0.0
H648 H 0.73891 0.83643 0.28102 0.0
H649 H 0.76213 0.84149 0.24828 0.0
H650 H 0.69942 0.85424 0.44747 0.0
H651 H 0.62568 0.84158 0.48119 0.0
H652 H 0.62223 0.83648 0.41727 0.0
H653 H 0.59951 0.83438 0.44969 0.0
Eu654 Eu 0.19725 0.8402 0.37413 0.0
C655 C 0.13376 0.87271 0.31057 0.0
C656 C 0.08416 0.83765 0.3136 0.0
C657 C 0.0969 0.88376 0.30263 0.0
C658 C 0.11327 0.84612 0.31551 0.0
C659 C 0.12584 0.89164 0.30355 0.0
C660 C 0.07609 0.85682 0.30769 0.0
C661 C 0.17551 0.92374 0.29696 0.0
N662 N 0.16147 0.87951 0.31138 0.0
C663 C 0.18229 0.90424 0.30406 0.0
C664 C 0.14719 0.91757 0.29699 0.0
Eu665 Eu 0.1715 0.84571 0.32374 0.0
N666 N 0.12183 0.82804 0.32084 0.0
C667 C 0.10241 0.8007 0.32294 0.0
C668 C 0.06408 0.80997 0.31701 0.0
C669 C 0.07328 0.79134 0.32138 0.0
H670 H 0.20423 0.90916 0.30412 0.0
H671 H 0.05796 0.76977 0.32362 0.0
H672 H 0.05383 0.85077 0.30637 0.0
H673 H 0.19213 0.94352 0.29155 0.0
H674 H 0.10919 0.78609 0.32639 0.0
H675 H 0.31033 0.91751 0.37371 0.0
H676 H 0.04151 0.80265 0.31578 0.0
H677 H 0.16561 0.77607 0.39256 0.0
H678 H 0.25889 0.9005 0.37159 0.0
H679 H 0.17869 0.74174 0.40365 0.0
H680 H 0.09039 0.8981 0.29749 0.0
H681 H 0.32766 0.88508 0.38063 0.0
H682 H 0.31631 0.83698 0.38921 0.0
H683 H 0.14198 0.93268 0.29146 0.0
H684 H 0.28048 0.78913 0.39744 0.0
N685 N 0.24704 0.85864 0.37668 0.0
C686 C 0.26608 0.88609 0.37466 0.0
C687 C 0.30501 0.87746 0.37969 0.0
C688 C 0.28533 0.84961 0.38294 0.0
C689 C 0.29531 0.89584 0.37585 0.0
C690 C 0.25608 0.84075 0.38145 0.0
H691 H 0.22914 0.75356 0.40321 0.0
N692 N 0.20812 0.80656 0.3855 0.0
C693 C 0.195 0.76191 0.39864 0.0
C694 C 0.23599 0.81386 0.38602 0.0
C695 C 0.18767 0.78137 0.39241 0.0
C696 C 0.2235 0.76863 0.39831 0.0
C697 C 0.24447 0.79502 0.39227 0.0
O698 O 0.17561 0.8306 0.4032 0.0
O699 O 0.16167 0.83872 0.35647 0.0
O700 O 0.17589 0.88148 0.34218 0.0
O701 O 0.20836 0.88415 0.3663 0.0
O702 O 0.15024 0.80959 0.3789 0.0
O703 O 0.21276 0.87058 0.39823 0.0
O704 O 0.19279 0.85442 0.29452 0.0
O705 O 0.20707 0.84731 0.34146 0.0
O706 O 0.19296 0.80497 0.35538 0.0
O707 O 0.15935 0.80148 0.33203 0.0
O708 O 0.21854 0.8764 0.31914 0.0
O709 O 0.1563 0.81431 0.30037 0.0
C710 C 0.14066 0.81918 0.3653 0.0
C711 C 0.20428 0.85245 0.43123 0.0
C712 C 0.20078 0.8542 0.46772 0.0
C713 C 0.19191 0.85678 0.44838 0.0
C714 C 0.2223 0.84733 0.46959 0.0
C715 C 0.22582 0.8458 0.43345 0.0
C716 C 0.23475 0.84326 0.45255 0.0
C717 C 0.19422 0.89444 0.35683 0.0
C718 C 0.19385 0.85402 0.41121 0.0
C719 C 0.27354 0.80338 0.39287 0.0
C720 C 0.29394 0.83062 0.38819 0.0
C721 C 0.22815 0.86693 0.33279 0.0
C722 C 0.16328 0.83126 0.26708 0.0
C723 C 0.17669 0.82902 0.24968 0.0
C724 C 0.16676 0.83079 0.23053 0.0
C725 C 0.14312 0.83463 0.22908 0.0
C726 C 0.13965 0.83491 0.26526 0.0
C727 C 0.12965 0.83658 0.24636 0.0
C728 C 0.17341 0.79122 0.34164 0.0
C729 C 0.17462 0.83061 0.28699 0.0
H730 H 0.17508 0.86169 0.44665 0.0
H731 H 0.22981 0.84551 0.48425 0.0
H732 H 0.23568 0.84253 0.42046 0.0
H733 H 0.2514 0.83812 0.45415 0.0
H734 H 0.19512 0.82643 0.25106 0.0
H735 H 0.13483 0.83579 0.21457 0.0
H736 H 0.12893 0.8365 0.27841 0.0
H737 H 0.11139 0.83941 0.24509 0.0
Eu738 Eu 0.82731 0.65492 0.65714 0.0
C739 C 0.89129 0.75155 0.71845 0.0
C740 C 0.94053 0.7628 0.71752 0.0
C741 C 0.92887 0.79838 0.72511 0.0
C742 C 0.91132 0.74361 0.71533 0.0
C743 C 0.89977 0.77887 0.72382 0.0
C744 C 0.94922 0.79035 0.72196 0.0
C745 C 0.85013 0.76503 0.72793 0.0
N746 N 0.86341 0.73213 0.71732 0.0
C747 C 0.84281 0.73817 0.72268 0.0
C748 C 0.87873 0.78557 0.72827 0.0
Eu749 Eu 0.85245 0.6874 0.70733 0.0
N750 N 0.90217 0.71682 0.71115 0.0
C751 C 0.92103 0.70743 0.7104 0.0
C752 C 0.96007 0.75356 0.71568 0.0
C753 C 0.95022 0.72567 0.71239 0.0
H754 H 0.82066 0.72238 0.72231 0.0
H755 H 0.96511 0.71822 0.71129 0.0
H756 H 0.97158 0.80545 0.72346 0.0
H757 H 0.83372 0.76988 0.7317 0.0
H758 H 0.91379 0.686 0.70774 0.0
H759 H 0.71395 0.62142 0.65478 0.0
H760 H 0.9827 0.76766 0.71718 0.0
H761 H 0.86026 0.62167 0.64073 0.0
H762 H 0.76519 0.6547 0.65749 0.0
H763 H 0.84821 0.57467 0.63068 0.0
H764 H 0.93582 0.81954 0.72903 0.0
H765 H 0.69744 0.57216 0.64902 0.0
H766 H 0.70972 0.53529 0.64201 0.0
H767 H 0.88437 0.80634 0.73243 0.0
H768 H 0.74628 0.52257 0.6353 0.0
N769 N 0.77772 0.62456 0.65393 0.0
C770 C 0.75836 0.63331 0.65494 0.0
C771 C 0.72 0.58669 0.65023 0.0
C772 C 0.74005 0.57815 0.64794 0.0
C773 C 0.72924 0.61448 0.65342 0.0
C774 C 0.76916 0.59789 0.64975 0.0
H775 H 0.79797 0.53722 0.63066 0.0
N776 N 0.81737 0.61068 0.64675 0.0
C777 C 0.83153 0.57887 0.63504 0.0
C778 C 0.78965 0.59072 0.646 0.0
C779 C 0.83828 0.60545 0.64069 0.0
C780 C 0.80315 0.55777 0.63511 0.0
C781 C 0.78174 0.56363 0.64033 0.0
O782 O 0.8498 0.6663 0.62838 0.0
O783 O 0.86246 0.68785 0.6749 0.0
O784 O 0.8489 0.71786 0.68691 0.0
O785 O 0.81541 0.68782 0.66393 0.0
O786 O 0.87444 0.66966 0.653 0.0
O787 O 0.81253 0.67033 0.63247 0.0
O788 O 0.83086 0.67831 0.73645 0.0
O789 O 0.81716 0.65446 0.68964 0.0
O790 O 0.83115 0.62442 0.67713 0.0
O791 O 0.86408 0.65415 0.70058 0.0
O792 O 0.80555 0.6734 0.71118 0.0
O793 O 0.86495 0.66955 0.7317 0.0
C794 C 0.88363 0.68845 0.66659 0.0
C795 C 0.82219 0.66074 0.59973 0.0
C796 C 0.82562 0.66665 0.56324 0.0
C797 C 0.83373 0.67767 0.58269 0.0
C798 C 0.80562 0.6385 0.56118 0.0
C799 C 0.80218 0.63279 0.59729 0.0
C800 C 0.79395 0.62177 0.5781 0.0
C801 C 0.82971 0.71221 0.67272 0.0
C802 C 0.8319 0.67221 0.6199 0.0
C803 C 0.75279 0.54356 0.63944 0.0
C804 C 0.73198 0.5508 0.64327 0.0
C805 C 0.79612 0.65437 0.69778 0.0
C806 C 0.85846 0.68115 0.76461 0.0
C807 C 0.8478 0.66423 0.78174 0.0
C808 C 0.85862 0.67473 0.80097 0.0
C809 C 0.8801 0.70248 0.80266 0.0
C810 C 0.87989 0.70867 0.76673 0.0
C811 C 0.8906 0.71924 0.78566 0.0
C812 C 0.85023 0.63 0.69136 0.0
C813 C 0.84707 0.67 0.74461 0.0
H814 H 0.84939 0.69924 0.58457 0.0
H815 H 0.79868 0.62947 0.54646 0.0
H816 H 0.79304 0.61949 0.61018 0.0
H817 H 0.77849 0.60017 0.57633 0.0
H818 H 0.83141 0.64289 0.78004 0.0
H819 H 0.88855 0.71142 0.81719 0.0
H820 H 0.88831 0.72197 0.75377 0.0
H821 H 0.90706 0.74056 0.78718 0.0
Eu822 Eu 0.36418 0.16909 0.65825 0.0
C823 C 0.26131 0.1354 0.71659 0.0
C824 C 0.24808 0.17048 0.71281 0.0
C825 C 0.21223 0.12382 0.72195 0.0
C826 C 0.26869 0.1622 0.71198 0.0
C827 C 0.23313 0.11604 0.72206 0.0
C828 C 0.21969 0.151 0.71734 0.0
C829 C 0.2489 0.08353 0.72915 0.0
N830 N 0.28208 0.12868 0.71685 0.0
C831 C 0.27658 0.10352 0.72376 0.0
C832 C 0.22699 0.0897 0.72806 0.0
Eu833 Eu 0.32822 0.16325 0.70691 0.0
N834 N 0.29635 0.18054 0.70779 0.0
C835 C 0.30515 0.20786 0.70562 0.0
C836 C 0.25676 0.19823 0.70957 0.0
C837 C 0.28549 0.21705 0.70622 0.0
H838 H 0.29346 0.09865 0.72455 0.0
H839 H 0.2925 0.23864 0.70402 0.0
H840 H 0.2035 0.15691 0.7178 0.0
H841 H 0.24449 0.0634 0.73415 0.0
H842 H 0.32726 0.22263 0.70295 0.0
H843 H 0.40125 0.09476 0.66182 0.0
H844 H 0.24157 0.2054 0.71 0.0
H845 H 0.39818 0.23342 0.64007 0.0
H846 H 0.36593 0.1101 0.66229 0.0
H847 H 0.44698 0.26897 0.63036 0.0
H848 H 0.19039 0.10917 0.72592 0.0
H849 H 0.45214 0.12852 0.65625 0.0
H850 H 0.48979 0.17715 0.6483 0.0
H851 H 0.20559 0.07423 0.73236 0.0
H852 H 0.50225 0.22456 0.63967 0.0
N853 N 0.39649 0.15232 0.65755 0.0
C854 C 0.38801 0.12508 0.65978 0.0
C855 C 0.43671 0.1354 0.65644 0.0
C856 C 0.44504 0.16303 0.65301 0.0
C857 C 0.408 0.11628 0.65953 0.0
C858 C 0.42411 0.17092 0.65351 0.0
H859 H 0.48636 0.25887 0.6326 0.0
N860 N 0.4101 0.20392 0.64817 0.0
C861 C 0.44284 0.24901 0.63556 0.0
C862 C 0.43114 0.19756 0.64866 0.0
C863 C 0.41526 0.22885 0.64101 0.0
C864 C 0.46503 0.24325 0.63691 0.0
C865 C 0.45926 0.21713 0.6432 0.0
O866 O 0.35447 0.17775 0.62828 0.0
O867 O 0.32833 0.16979 0.67399 0.0
O868 O 0.29807 0.12744 0.68747 0.0
O869 O 0.33042 0.12461 0.66587 0.0
O870 O 0.34754 0.19841 0.65141 0.0
O871 O 0.35084 0.13819 0.63463 0.0
O872 O 0.33713 0.15406 0.73698 0.0
O873 O 0.36403 0.16248 0.69118 0.0
O874 O 0.39435 0.20465 0.6776 0.0
O875 O 0.36238 0.20785 0.69939 0.0
O876 O 0.34456 0.13373 0.71364 0.0
O877 O 0.34244 0.19424 0.73052 0.0
C878 C 0.32725 0.18866 0.66447 0.0
C879 C 0.36391 0.15602 0.6017 0.0
C880 C 0.36183 0.15428 0.56516 0.0
C881 C 0.34869 0.15181 0.58387 0.0
C882 C 0.39054 0.16118 0.56456 0.0
C883 C 0.39245 0.16264 0.60086 0.0
C884 C 0.40569 0.16524 0.58234 0.0
C885 C 0.30481 0.11401 0.67424 0.0
C886 C 0.34989 0.15438 0.62093 0.0
C887 C 0.48046 0.20975 0.64362 0.0
C888 C 0.47336 0.18275 0.64853 0.0
C889 C 0.36492 0.14346 0.70064 0.0
C890 C 0.32865 0.17672 0.76345 0.0
C891 C 0.34355 0.18056 0.78141 0.0
C892 C 0.33032 0.17859 0.80002 0.0
C893 C 0.30193 0.17273 0.80038 0.0
C894 C 0.30043 0.17113 0.76409 0.0
C895 C 0.28716 0.16913 0.78248 0.0
C896 C 0.38784 0.21832 0.69073 0.0
C897 C 0.34258 0.17773 0.74429 0.0
H898 H 0.32671 0.147 0.58458 0.0
H899 H 0.40113 0.16297 0.55037 0.0
H900 H 0.40449 0.16585 0.61443 0.0
H901 H 0.42773 0.17037 0.58178 0.0
H902 H 0.36528 0.1846 0.7809 0.0
H903 H 0.2913 0.1713 0.81449 0.0
H904 H 0.28865 0.16824 0.75044 0.0
H905 H 0.26536 0.16478 0.78287 0.0
Eu906 Eu 0.86516 0.1728 0.70762 0.0
C907 C 0.80249 0.20775 0.64498 0.0
C908 C 0.75266 0.17327 0.64794 0.0
C909 C 0.76622 0.21974 0.63738 0.0
C910 C 0.78166 0.18123 0.64976 0.0
C911 C 0.79502 0.22712 0.6382 0.0
C912 C 0.74506 0.19286 0.64227 0.0
C913 C 0.84484 0.25867 0.63167 0.0
N914 N 0.83006 0.21408 0.64572 0.0
C915 C 0.85117 0.23875 0.63852 0.0
C916 C 0.81668 0.25299 0.6318 0.0
Eu917 Eu 0.8393 0.17956 0.65761 0.0
N918 N 0.78976 0.16273 0.65486 0.0
C919 C 0.76995 0.13548 0.65683 0.0
C920 C 0.73221 0.14567 0.65119 0.0
C921 C 0.74093 0.12661 0.65534 0.0
H922 H 0.87299 0.24331 0.63849 0.0
H923 H 0.72531 0.10511 0.65747 0.0
H924 H 0.7229 0.18721 0.64102 0.0
H925 H 0.86169 0.27839 0.62636 0.0
H926 H 0.77634 0.12053 0.66012 0.0
H927 H 0.97839 0.24962 0.70632 0.0
H928 H 0.70972 0.13874 0.65002 0.0
H929 H 0.83365 0.1084 0.72551 0.0
H930 H 0.92695 0.23294 0.70502 0.0
H931 H 0.84669 0.07362 0.73547 0.0
H932 H 0.76006 0.23442 0.63242 0.0
H933 H 0.99557 0.21681 0.71204 0.0
H934 H 0.98411 0.16843 0.71966 0.0
H935 H 0.81183 0.26842 0.62645 0.0
H936 H 0.94826 0.12048 0.72761 0.0
N937 N 0.91496 0.19092 0.7094 0.0
C938 C 0.93408 0.21837 0.70757 0.0
C939 C 0.97293 0.20934 0.71147 0.0
C940 C 0.95319 0.18145 0.71449 0.0
C941 C 0.96331 0.22793 0.70829 0.0
C942 C 0.92395 0.17279 0.71348 0.0
H943 H 0.897 0.08506 0.73391 0.0
N944 N 0.87601 0.13872 0.71792 0.0
C945 C 0.86296 0.0938 0.73046 0.0
C946 C 0.90383 0.14582 0.71787 0.0
C947 C 0.85565 0.11351 0.72487 0.0
C948 C 0.89137 0.10032 0.72949 0.0
C949 C 0.91229 0.12674 0.72348 0.0
O950 O 0.84452 0.16231 0.73707 0.0
O951 O 0.82976 0.17223 0.69037 0.0
O952 O 0.84428 0.2152 0.67642 0.0
O953 O 0.87633 0.21705 0.7006 0.0
O954 O 0.81798 0.14288 0.71265 0.0
O955 O 0.88115 0.20263 0.73208 0.0
O956 O 0.86077 0.18832 0.62848 0.0
O957 O 0.87475 0.18019 0.67493 0.0
O958 O 0.85979 0.1375 0.68841 0.0
O959 O 0.82624 0.13496 0.66542 0.0
O960 O 0.88645 0.20987 0.65304 0.0
O961 O 0.8233 0.14872 0.63383 0.0
C962 C 0.80861 0.1529 0.69923 0.0
C963 C 0.87443 0.1836 0.76472 0.0
C964 C 0.8741 0.18573 0.80139 0.0
C965 C 0.86354 0.18809 0.7826 0.0
C966 C 0.89544 0.17844 0.80189 0.0
C967 C 0.89593 0.17674 0.76565 0.0
C968 C 0.90627 0.17407 0.78414 0.0
C969 C 0.86258 0.22778 0.69116 0.0
C970 C 0.86291 0.18559 0.74521 0.0
C971 C 0.94134 0.13491 0.72355 0.0
C972 C 0.96175 0.16222 0.71904 0.0
C973 C 0.89595 0.19982 0.66634 0.0
C974 C 0.8312 0.16665 0.60079 0.0
C975 C 0.84457 0.1645 0.58336 0.0
C976 C 0.83527 0.16734 0.56425 0.0
C977 C 0.81232 0.17224 0.56287 0.0
C978 C 0.80822 0.17133 0.59906 0.0
C979 C 0.79886 0.17411 0.58019 0.0
C980 C 0.84003 0.12419 0.67472 0.0
C981 C 0.84204 0.16497 0.62065 0.0
H982 H 0.8472 0.19378 0.78182 0.0
H983 H 0.90365 0.17587 0.81602 0.0
H984 H 0.90472 0.17341 0.75213 0.0
H985 H 0.92273 0.16856 0.78472 0.0
H986 H 0.8625 0.16111 0.58468 0.0
H987 H 0.80451 0.17424 0.54838 0.0
H988 H 0.79753 0.17287 0.61224 0.0
H989 H 0.78112 0.17773 0.57898 0.0
H990 H 0.29421 0.88117 0.07282 0.0
H991 H 0.41688 0.98996 0.03419 0.0
H992 H 0.32396 0.82796 0.05024 0.0
H993 H 0.44785 0.93297 0.02885 0.0
H994 H 0.3694 0.95174 0.0408 0.0
H995 H 0.33673 0.92059 0.05999 0.0
C996 C 0.30968 0.87776 0.06498 0.0
C997 C 0.30552 0.85113 0.06284 0.0
C998 C 0.38638 0.94727 0.0385 0.0
C999 C 0.35453 0.8967 0.04702 0.0
C1000 C 0.4135 0.96921 0.03439 0.0
C1001 C 0.43616 0.96455 0.03089 0.0
C1002 C 0.38202 0.92039 0.03997 0.0
C1003 C 0.43079 0.93736 0.03128 0.0
C1004 C 0.334 0.90045 0.05725 0.0
C1005 C 0.32617 0.84808 0.05218 0.0
N1006 N 0.4043 0.9163 0.03594 0.0
N1007 N 0.34988 0.87059 0.04485 0.0
H1008 H 0.20322 0.50389 0.0526 0.0
H1009 H 0.03324 0.4316 0.04347 0.0
H1010 H 0.14445 0.42051 0.07099 0.0
H1011 H 0.08945 0.51766 0.03105 0.0
H1012 H 0.07455 0.42636 0.05027 0.0
H1013 H 0.1628 0.50845 0.04096 0.0
C1014 C 0.18188 0.48648 0.05402 0.0
C1015 C 0.17724 0.46189 0.06303 0.0
C1016 C 0.07797 0.44639 0.04588 0.0
C1017 C 0.1309 0.46701 0.04986 0.0
C1018 C 0.05437 0.44933 0.04196 0.0
C1019 C 0.05796 0.47492 0.03624 0.0
C1020 C 0.10552 0.46934 0.04443 0.0
C1021 C 0.08578 0.4974 0.0349 0.0
C1022 C 0.15881 0.48915 0.04748 0.0
C1023 C 0.14907 0.44004 0.06452 0.0
N1024 N 0.10851 0.4941 0.03895 0.0
N1025 N 0.1271 0.44316 0.05811 0.0
H1026 H 0.54806 0.6934 0.09842 0.0
H1027 H 0.50861 0.59316 0.00686 0.0
H1028 H 0.55808 0.72563 0.03808 0.0
H1029 H 0.55832 0.59011 0.05627 0.0
H1030 H 0.51592 0.6372 0.01941 0.0
H1031 H 0.54037 0.65003 0.08459 0.0
C1032 C 0.5488 0.69156 0.08229 0.0
C1033 C 0.55434 0.71365 0.06946 0.0
C1034 C 0.52531 0.62684 0.02733 0.0
C1035 C 0.5443 0.66346 0.05365 0.0
C1036 C 0.52135 0.60181 0.02014 0.0
C1037 C 0.53334 0.58807 0.03024 0.0
C1038 C 0.54051 0.63764 0.04513 0.0
C1039 C 0.54887 0.59997 0.04783 0.0
C1040 C 0.5442 0.66668 0.07446 0.0
C1041 C 0.55374 0.7093 0.04862 0.0
N1042 N 0.55176 0.62395 0.05482 0.0
N1043 N 0.54876 0.68465 0.04134 0.0
H1044 H 0.85922 0.31188 0.93457 0.0
H1045 H 0.91791 0.41759 0.02398 0.0
H1046 H 0.83074 0.28415 0.99525 0.0
H1047 H 0.97254 0.41972 0.97595 0.0
H1048 H 0.8806 0.37271 0.01203 0.0
H1049 H 0.89557 0.35604 0.94772 0.0
C1050 C 0.86058 0.31484 0.95066 0.0
C1051 C 0.84202 0.2937 0.96378 0.0
C1052 C 0.90088 0.38302 1.00427 0.0
C1053 C 0.88316 0.34503 0.97881 0.0
C1054 C 0.9223 0.40858 0.01113 0.0
C1055 C 0.94878 0.42237 1.00128 0.0
C1056 C 0.9056 0.37158 0.98701 0.0
C1057 C 0.95268 0.40988 0.98422 0.0
C1058 C 0.88129 0.34023 0.95811 0.0
C1059 C 0.84431 0.29965 0.98446 0.0
N1060 N 0.93127 0.38536 0.97754 0.0
N1061 N 0.86448 0.32477 0.99133 0.0
H1062 H 0.73543 0.59396 0.95962 0.0
H1063 H 0.57794 0.49404 1.00172 0.0
H1064 H 0.70565 0.50963 0.97659 0.0
H1065 H 0.61161 0.58 0.98833 0.0
H1066 H 0.62478 0.49932 0.99438 0.0
H1067 H 0.69071 0.58931 0.97154 0.0
C1068 C 0.71944 0.5744 0.96584 0.0
C1069 C 0.72429 0.55206 0.96686 0.0
C1070 C 0.62202 0.51711 0.99325 0.0
C1071 C 0.67269 0.54657 0.98074 0.0
C1072 C 0.59533 0.51414 0.9976 0.0
C1073 C 0.59109 0.53679 0.99606 0.0
C1074 C 0.64449 0.54281 0.98696 0.0
C1075 C 0.6141 0.56211 0.98996 0.0
C1076 C 0.69389 0.57179 0.97276 0.0
C1077 C 0.70292 0.52742 0.97551 0.0
N1078 N 0.63972 0.56443 0.98563 0.0
N1079 N 0.67799 0.52526 0.98195 0.0
H1080 H 0.46974 0.1557 0.93115 0.0
H1081 H 0.51823 0.09821 0.02154 0.0
H1082 H 0.4667 0.18071 0.99205 0.0
H1083 H 0.46887 0.04586 0.97259 0.0
H1084 H 0.50868 0.13387 0.0091 0.0
H1085 H 0.47855 0.12002 0.94426 0.0
C1086 C 0.47069 0.15371 0.94725 0.0
C1087 C 0.46723 0.17136 0.96045 0.0
C1088 C 0.49987 0.11445 1.00123 0.0
C1089 C 0.47845 0.13111 0.97541 0.0
C1090 C 0.50515 0.09401 0.00837 0.0
C1091 C 0.49387 0.06869 0.9984 0.0
C1092 C 0.48398 0.10983 0.98366 0.0
C1093 C 0.47782 0.06489 0.98094 0.0
C1094 C 0.47594 0.13342 0.95467 0.0
C1095 C 0.46968 0.16807 0.98118 0.0
N1096 N 0.47354 0.08531 0.97405 0.0
N1097 N 0.47532 0.14846 0.98801 0.0
H1098 H 0.70063 0.18921 0.99751 0.0
H1099 H 0.60327 0.02497 0.99137 0.0
H1100 H 0.7298 0.13611 0.97398 0.0
H1101 H 0.56933 0.0782 1.00437 0.0
H1102 H 0.6505 0.06551 0.98701 0.0
H1103 H 0.65289 0.14896 1.00198 0.0
C1104 C 0.69687 0.16905 0.99322 0.0
C1105 C 0.71914 0.16586 0.98555 0.0
C1106 C 0.63279 0.06839 0.99093 0.0
C1107 C 0.66481 0.11983 0.99058 0.0
C1108 C 0.60589 0.04526 0.99348 0.0
C1109 C 0.58259 0.04827 0.99875 0.0
C1110 C 0.63642 0.09482 0.99343 0.0
C1111 C 0.58692 0.07498 1.00089 0.0
C1112 C 0.6697 0.14612 0.99578 0.0
C1113 C 0.71323 0.13939 0.9801 0.0
N1114 N 0.61335 0.09725 0.99832 0.0
N1115 N 0.68671 0.1174 0.98282 0.0
H1116 H 0.8808 0.58643 0.97248 0.0
H1117 H 0.93879 0.48506 1.00382 0.0
H1118 H 0.82722 0.50633 0.99857 0.0
H1119 H 0.9932 0.57049 0.98845 0.0
H1120 H 0.89712 0.49061 0.99908 0.0
H1121 H 0.92152 0.57904 0.97494 0.0
C1122 C 0.87762 0.56719 0.97861 0.0
C1123 C 0.85069 0.54705 0.98552 0.0
C1124 C 0.91816 0.50817 0.99678 0.0
C1125 C 0.89722 0.53837 0.98838 0.0
C1126 C 0.94195 0.50505 0.99964 0.0
C1127 C 0.9695 0.52761 0.99717 0.0
C1128 C 0.92192 0.53392 0.99103 0.0
C1129 C 0.97233 0.55275 0.99092 0.0
C1130 C 0.90087 0.563 0.98008 0.0
C1131 C 0.84769 0.52241 0.99319 0.0
N1132 N 0.9489 0.55527 0.98819 0.0
N1133 N 0.87068 0.51879 0.9945 0.0
H1134 H 0.50221 0.3018 1.00344 0.0
H1135 H 0.46183 0.41923 0.98494 0.0
H1136 H 0.43135 0.28996 0.96723 0.0
H1137 H 0.53742 0.43265 0.016 0.0
H1138 H 0.45007 0.37187 0.97827 0.0
H1139 H 0.51522 0.34994 0.00846 0.0
C1140 C 0.48936 0.30943 0.99666 0.0
C1141 C 0.4654 0.29197 0.98529 0.0
C1142 C 0.46922 0.3852 0.98655 0.0
C1143 C 0.48016 0.34685 0.99067 0.0
C1144 C 0.47597 0.41226 0.99035 0.0
C1145 C 0.50042 0.42984 1.00132 0.0
C1146 C 0.48707 0.37568 0.99377 0.0
C1147 C 0.51802 0.4197 0.00786 0.0
C1148 C 0.49678 0.33685 0.99944 0.0
C1149 C 0.44969 0.30279 0.97641 0.0
N1150 N 0.51093 0.39328 1.00407 0.0
N1151 N 0.45724 0.32954 0.97939 0.0
H1152 H 0.15044 0.72382 0.06485 0.0
H1153 H 0.11282 0.57907 0.01608 0.0
H1154 H 0.20868 0.71168 0.02812 0.0
H1155 H 0.05077 0.59316 0.04624 0.0
H1156 H 0.14909 0.62652 0.02275 0.0
H1157 H 0.11478 0.67504 0.06083 0.0
C1158 C 0.15568 0.71079 0.05598 0.0
C1159 C 0.18232 0.72175 0.04655 0.0
C1160 C 0.12756 0.61928 0.02793 0.0
C1161 C 0.14181 0.666 0.04196 0.0
C1162 C 0.10672 0.59216 0.02402 0.0
C1163 C 0.07848 0.58216 0.03027 0.0
C1164 C 0.1203 0.63665 0.03834 0.0
C1165 C 0.07218 0.59998 0.04101 0.0
C1166 C 0.13536 0.683 0.05367 0.0
C1167 C 0.18825 0.704 0.03545 0.0
N1168 N 0.09289 0.62638 0.04463 0.0
N1169 N 0.16812 0.67704 0.03338 0.0
H1170 H 0.32433 0.5038 0.03103 0.0
H1171 H 0.42647 0.43921 0.04057 0.0
H1172 H 0.29823 0.42427 0.05702 0.0
H1173 H 0.4581 0.52452 0.02601 0.0
H1174 H 0.37878 0.43291 0.04493 0.0
H1175 H 0.373 0.51165 0.02754 0.0
C1176 C 0.32896 0.48813 0.03614 0.0
C1177 C 0.30725 0.46333 0.04424 0.0
C1178 C 0.39607 0.45301 0.0407 0.0
C1179 C 0.36268 0.472 0.04022 0.0
C1180 C 0.42327 0.45657 0.03814 0.0
C1181 C 0.44607 0.4822 0.03237 0.0
C1182 C 0.39158 0.47535 0.03768 0.0
C1183 C 0.44092 0.5042 0.02986 0.0
C1184 C 0.35667 0.49257 0.03413 0.0
C1185 C 0.3143 0.44364 0.05063 0.0
N1186 N 0.41419 0.50025 0.0324 0.0
N1187 N 0.34129 0.44832 0.04837 0.0
H1188 H 0.52968 0.81513 0.02749 0.0
H1189 H 0.56429 0.96961 0.04718 0.0
H1190 H 0.5968 0.87162 0.06635 0.0
H1191 H 0.49174 0.91008 0.01343 0.0
H1192 H 0.57676 0.93423 0.05427 0.0
H1193 H 0.51577 0.84997 0.02176 0.0
C1194 C 0.54154 0.835 0.0347 0.0
C1195 C 0.56471 0.84086 0.04705 0.0
C1196 C 0.55811 0.92892 0.04531 0.0
C1197 C 0.54887 0.88061 0.04086 0.0
C1198 C 0.55095 0.94912 0.04126 0.0
C1199 C 0.52716 0.94295 0.02942 0.0
C1200 C 0.54138 0.90234 0.03746 0.0
C1201 C 0.5106 0.91596 0.02227 0.0
C1202 C 0.53358 0.85481 0.03151 0.0
C1203 C 0.57911 0.8666 0.05643 0.0
N1204 N 0.5181 0.89671 0.02632 0.0
N1205 N 0.57105 0.88562 0.05305 0.0
H1206 H 0.98507 0.15382 0.38259 0.0
H1207 H 0.11868 0.26554 0.35916 0.0
H1208 H 0.96685 0.21483 0.4065 0.0
H1209 H 0.08215 0.31622 0.37342 0.0
H1210 H 0.07317 0.22467 0.36627 0.0
H1211 H 0.02925 0.19047 0.36847 0.0
C1212 C 0.99034 0.17495 0.38487 0.0
C1213 C 0.97225 0.18114 0.39603 0.0
C1214 C 0.07459 0.24452 0.36743 0.0
C1215 C 0.02375 0.22369 0.38044 0.0
C1216 C 0.10077 0.26798 0.3633 0.0
C1217 C 0.10397 0.29425 0.36529 0.0
C1218 C 0.05146 0.24739 0.37387 0.0
C1219 C 0.0804 0.29627 0.37147 0.0
C1220 C 0.01595 0.19605 0.377 0.0
C1221 C 0.98037 0.20898 0.39847 0.0
N1222 N 0.05522 0.2732 0.37558 0.0
N1223 N 1.00547 0.22911 0.39084 0.0
H1224 H 0.87152 0.83652 0.38534 0.0
H1225 H 0.75518 0.85431 0.36446 0.0
H1226 H 0.80883 0.75686 0.40816 0.0
H1227 H 0.7032 0.76811 0.37841 0.0
H1228 H 0.7976 0.85146 0.37162 0.0
H1229 H 0.83329 0.84342 0.37299 0.0
C1230 C 0.84971 0.82044 0.38775 0.0
C1231 C 0.84355 0.79625 0.39815 0.0
C1232 C 0.77714 0.83292 0.37277 0.0
C1233 C 0.79914 0.80434 0.38456 0.0
C1234 C 0.75277 0.83461 0.36863 0.0
C1235 C 0.72566 0.81122 0.37028 0.0
C1236 C 0.77438 0.80762 0.37885 0.0
C1237 C 0.72375 0.78651 0.37661 0.0
C1238 C 0.82769 0.82455 0.38091 0.0
C1239 C 0.81476 0.77618 0.40075 0.0
N1240 N 0.74771 0.78536 0.3806 0.0
N1241 N 0.79379 0.78074 0.39411 0.0
H1242 H 0.21344 0.02745 0.43092 0.0
H1243 H 0.17458 0.92655 0.33977 0.0
H1244 H 0.22612 0.06003 0.37052 0.0
H1245 H 0.22329 0.9236 0.38989 0.0
H1246 H 0.18197 0.97084 0.35195 0.0
H1247 H 0.20474 0.98365 0.41729 0.0
C1248 C 0.21453 0.02558 0.41481 0.0
C1249 C 0.22119 0.04789 0.40192 0.0
C1250 C 0.1911 0.96041 0.36011 0.0
C1251 C 0.20998 0.99724 0.38632 0.0
C1252 C 0.18708 0.93525 0.35314 0.0
C1253 C 0.19878 0.92147 0.36356 0.0
C1254 C 0.20603 0.97128 0.37799 0.0
C1255 C 0.21406 0.93347 0.38121 0.0
C1256 C 0.20933 1.00046 0.4071 0.0
C1257 C 0.22097 0.04353 0.3811 0.0
N1258 N 0.21699 0.95754 0.38797 0.0
N1259 N 0.21544 0.01865 0.37392 0.0
H1260 H 0.48099 0.63445 0.31109 0.0
H1261 H 0.64688 0.74458 0.32039 0.0
H1262 H 0.54815 0.61883 0.29332 0.0
H1263 H 0.58141 0.75623 0.34764 0.0
H1264 H 0.61056 0.69868 0.3099 0.0
H1265 H 0.51692 0.67907 0.32457 0.0
C1266 C 0.50322 0.64025 0.31016 0.0
C1267 C 0.51151 0.62291 0.30082 0.0
C1268 C 0.60411 0.71119 0.31828 0.0
C1269 C 0.55275 0.6741 0.316 0.0
C1270 C 0.62488 0.73748 0.32424 0.0
C1271 C 0.61726 0.75435 0.33497 0.0
C1272 C 0.57537 0.70163 0.32288 0.0
C1273 C 0.58834 0.74391 0.33953 0.0
C1274 C 0.52373 0.6658 0.31777 0.0
C1275 C 0.54071 0.6317 0.29994 0.0
N1276 N 0.56844 0.71829 0.33338 0.0
N1277 N 0.56019 0.65665 0.30729 0.0
H1278 H 0.37167 0.84147 0.31097 0.0
H1279 H 0.27667 0.91364 0.32317 0.0
H1280 H 0.39934 0.92561 0.29464 0.0
H1281 H 0.24486 0.82802 0.33675 0.0
H1282 H 0.3234 0.9191 0.31598 0.0
H1283 H 0.32699 0.83685 0.32384 0.0
C1284 C 0.36851 0.85904 0.31025 0.0
C1285 C 0.38925 0.88388 0.30145 0.0
C1286 C 0.30636 0.89914 0.32074 0.0
C1287 C 0.33806 0.87868 0.31607 0.0
C1288 C 0.27969 0.89606 0.32489 0.0
C1289 C 0.25702 0.87049 0.33089 0.0
C1290 C 0.31042 0.87633 0.3222 0.0
C1291 C 0.26194 0.84824 0.33258 0.0
C1292 C 0.34292 0.85634 0.31752 0.0
C1293 C 0.38383 0.90589 0.30089 0.0
N1294 N 0.28809 0.85164 0.32819 0.0
N1295 N 0.35885 0.90272 0.30798 0.0
H1296 H 0.09095 0.47022 0.28774 0.0
H1297 H 0.1949 0.43393 0.34866 0.0
H1298 H 0.17289 0.53178 0.31018 0.0
H1299 H 0.1207 0.37381 0.3166 0.0
H1300 H 0.18513 0.46983 0.33731 0.0
H1301 H 0.09984 0.43439 0.3004 0.0
C1302 C 0.11091 0.47624 0.29519 0.0
C1303 C 0.13125 0.50411 0.2978 0.0
C1304 C 0.17097 0.44876 0.33281 0.0
C1305 C 0.14135 0.4631 0.31268 0.0
C1306 C 0.17643 0.42822 0.33938 0.0
C1307 C 0.15856 0.40078 0.33361 0.0
C1308 C 0.14743 0.44181 0.32043 0.0
C1309 C 0.13512 0.39467 0.32139 0.0
C1310 C 0.11589 0.45574 0.30254 0.0
C1311 C 0.15645 0.51059 0.30801 0.0
N1312 N 0.13025 0.41501 0.31521 0.0
N1313 N 0.16078 0.49025 0.31508 0.0
H1314 H 0.3984 0.46444 0.30701 0.0
H1315 H 0.23604 0.41151 0.33737 0.0
H1316 H 0.36991 0.51838 0.32992 0.0
H1317 H 0.2689 0.3576 0.32363 0.0
H1318 H 0.28409 0.45122 0.33354 0.0
H1319 H 0.35024 0.42536 0.31128 0.0
C1320 C 0.38191 0.46801 0.31289 0.0
C1321 C 0.38809 0.49458 0.31825 0.0
C1322 C 0.28085 0.43071 0.3315 0.0
C1323 C 0.33286 0.44999 0.32317 0.0
C1324 C 0.25348 0.40805 0.33386 0.0
C1325 C 0.24875 0.38126 0.3314 0.0
C1326 C 0.3035 0.42651 0.32622 0.0
C1327 C 0.27183 0.37794 0.32603 0.0
C1328 C 0.35444 0.44571 0.31539 0.0
C1329 C 0.36593 0.49814 0.3257 0.0
N1330 N 0.29819 0.40027 0.32367 0.0
N1331 N 0.33928 0.47609 0.32797 0.0
H1332 H 0.49168 0.83874 0.33052 0.0
H1333 H 0.66054 0.90385 0.32106 0.0
H1334 H 0.54738 0.91801 0.30395 0.0
H1335 H 0.60417 0.81827 0.33492 0.0
H1336 H 0.61922 0.90976 0.31605 0.0
H1337 H 0.53225 0.83086 0.33349 0.0
C1338 C 0.51242 0.85433 0.32514 0.0
C1339 C 0.51625 0.87911 0.31709 0.0
C1340 C 0.6158 0.88967 0.32025 0.0
C1341 C 0.56273 0.87039 0.3205 0.0
C1342 C 0.63939 0.88635 0.32318 0.0
C1343 C 0.63576 0.86078 0.32906 0.0
C1344 C 0.58822 0.86716 0.323 0.0
C1345 C 0.60791 0.83856 0.33108 0.0
C1346 C 0.53554 0.84987 0.32685 0.0
C1347 C 0.54353 0.89868 0.31033 0.0
N1348 N 0.58519 0.8423 0.32823 0.0
N1349 N 0.56571 0.894 0.31233 0.0
H1350 H 0.09324 0.62104 0.30341 0.0
H1351 H 0.20265 0.7655 0.35309 0.0
H1352 H 0.16047 0.63252 0.34347 0.0
H1353 H 0.12792 0.75169 0.3206 0.0
H1354 H 0.18912 0.71755 0.34791 0.0
H1355 H 0.10709 0.66955 0.30778 0.0
C1356 C 0.11076 0.63382 0.31327 0.0
C1357 C 0.1254 0.62284 0.32348 0.0
C1358 C 0.17564 0.72497 0.34193 0.0
C1359 C 0.14173 0.67822 0.32822 0.0
C1360 C 0.18329 0.75236 0.34496 0.0
C1361 C 0.16613 0.76256 0.33758 0.0
C1362 C 0.15077 0.70761 0.33127 0.0
C1363 C 0.14171 0.7447 0.32667 0.0
C1364 C 0.11871 0.66144 0.31571 0.0
C1365 C 0.14839 0.64024 0.33567 0.0
N1366 N 0.13471 0.71805 0.32388 0.0
N1367 N 0.15583 0.66709 0.33774 0.0
H1368 H 0.81147 0.0571 0.39816 0.0
H1369 H 0.77742 0.91409 0.34821 0.0
H1370 H 0.87068 0.04719 0.36085 0.0
H1371 H 0.71396 0.92599 0.37848 0.0
H1372 H 0.81267 0.96185 0.35488 0.0
H1373 H 0.77645 0.00827 0.39344 0.0
C1374 C 0.81703 0.04456 0.38897 0.0
C1375 C 0.84378 0.05613 0.37963 0.0
C1376 C 0.79105 0.95407 0.36006 0.0
C1377 C 0.80405 1.00035 0.3743 0.0
C1378 C 0.77079 0.92676 0.35616 0.0
C1379 C 0.74247 0.91603 0.36247 0.0
C1380 C 0.78311 0.9709 0.37052 0.0
C1381 C 0.73547 0.93337 0.37321 0.0
C1382 C 0.79708 0.01675 0.38628 0.0
C1383 C 0.85014 0.03901 0.36811 0.0
N1384 N 0.75563 0.95996 0.37685 0.0
N1385 N 0.8304 0.012 0.36572 0.0
H1386 H 0.98845 0.83468 0.36594 0.0
H1387 H 0.09256 0.77225 0.37541 0.0
H1388 H 0.96391 0.75577 0.39244 0.0
H1389 H 0.12289 0.85704 0.35987 0.0
H1390 H 0.04468 0.76537 0.3799 0.0
H1391 H 0.0373 0.84312 0.36201 0.0
C1392 C 0.99346 0.81926 0.37107 0.0
C1393 C 0.97213 0.79447 0.37945 0.0
C1394 C 0.06171 0.78548 0.37541 0.0
C1395 C 0.02776 0.8038 0.37492 0.0
C1396 C 0.08902 0.78937 0.37278 0.0
C1397 C 0.11152 0.81502 0.36674 0.0
C1398 C 0.05679 0.80752 0.37219 0.0
C1399 C 0.10595 0.83671 0.36397 0.0
C1400 C 0.02126 0.82404 0.3688 0.0
C1401 C 0.97966 0.77512 0.38584 0.0
N1402 N 0.0791 0.83244 0.3666 0.0
N1403 N 1.00674 0.78012 0.38334 0.0
H1404 H 0.26742 0.20693 0.39957 0.0
H1405 H 0.16064 0.244 0.34337 0.0
H1406 H 0.20247 0.15222 0.35862 0.0
H1407 H 0.23172 0.30238 0.37885 0.0
H1408 H 0.17435 0.20952 0.35001 0.0
H1409 H 0.2534 0.24161 0.39344 0.0
C1410 C 0.25035 0.2024 0.38915 0.0
C1411 C 0.23643 0.17705 0.37922 0.0
C1412 C 0.187 0.22988 0.35632 0.0
C1413 C 0.21992 0.2162 0.37241 0.0
C1414 C 0.17926 0.24967 0.35245 0.0
C1415 C 0.19532 0.27632 0.36029 0.0
C1416 C 0.21086 0.23665 0.36827 0.0
C1417 C 0.21879 0.28217 0.3724 0.0
C1418 C 0.2423 0.2221 0.38569 0.0
C1419 C 0.214 0.17178 0.36625 0.0
N1420 N 0.22588 0.2625 0.37598 0.0
N1421 N 0.20647 0.19123 0.36317 0.0
H1422 H 0.6246 0.54563 0.74061 0.0
H1423 H 0.74783 0.65608 0.70346 0.0
H1424 H 0.65483 0.49361 0.71634 0.0
H1425 H 0.77861 0.59915 0.69638 0.0
H1426 H 0.70045 0.61774 0.71028 0.0
H1427 H 0.66751 0.5857 0.72888 0.0
C1428 C 0.64027 0.54263 0.73267 0.0
C1429 C 0.63607 0.5161 0.72967 0.0
C1430 C 0.71738 0.61332 0.70754 0.0
C1431 C 0.68549 0.56244 0.71511 0.0
C1432 C 0.74443 0.63533 0.70333 0.0
C1433 C 0.767 0.63071 0.69924 0.0
C1434 C 0.713 0.58639 0.70842 0.0
C1435 C 0.76163 0.60352 0.69924 0.0
C1436 C 0.6648 0.5657 0.72557 0.0
C1437 C 0.657 0.51362 0.71892 0.0
N1438 N 0.7352 0.58238 0.70391 0.0
N1439 N 0.68086 0.53647 0.71218 0.0
H1440 H 0.53572 0.16993 0.71996 0.0
H1441 H 0.36563 0.09718 0.71112 0.0
H1442 H 0.47722 0.08648 0.73836 0.0
H1443 H 0.42166 0.18297 0.69767 0.0
H1444 H 0.40702 0.0922 0.71824 0.0
H1445 H 0.49516 0.17432 0.7084 0.0
C1446 C 0.51442 0.15247 0.7214 0.0
C1447 C 0.50991 0.1279 0.73039 0.0
C1448 C 0.41039 0.11211 0.71356 0.0
C1449 C 0.46339 0.13284 0.71733 0.0
C1450 C 0.38673 0.11491 0.70948 0.0
C1451 C 0.39024 0.14033 0.70336 0.0
C1452 C 0.43792 0.13504 0.71188 0.0
C1453 C 0.41804 0.16282 0.70184 0.0
C1454 C 0.49126 0.15504 0.71492 0.0
C1455 C 0.48177 0.106 0.73192 0.0
N1456 N 0.44083 0.15966 0.70606 0.0
N1457 N 0.45971 0.10903 0.72556 0.0
H1458 H 0.88249 0.36093 0.7656 0.0
H1459 H 0.84272 0.25989 0.67454 0.0
H1460 H 0.89148 0.39235 0.70507 0.0
H1461 H 0.89234 0.25703 0.72408 0.0
H1462 H 0.85024 0.3041 0.68682 0.0
H1463 H 0.87521 0.3176 0.75201 0.0
C1464 C 0.88311 0.35893 0.74948 0.0
C1465 C 0.8882 0.38078 0.73653 0.0
C1466 C 0.85958 0.29375 0.69483 0.0
C1467 C 0.87863 0.33059 0.72099 0.0
C1468 C 0.85549 0.26862 0.68779 0.0
C1469 C 0.86738 0.25486 0.69801 0.0
C1470 C 0.87481 0.30469 0.71259 0.0
C1471 C 0.88296 0.2669 0.71555 0.0
C1472 C 0.87875 0.33407 0.74179 0.0
C1473 C 0.88747 0.3762 0.71571 0.0
N1474 N 0.88598 0.29099 0.72239 0.0
N1475 N 0.8827 0.35156 0.70857 0.0
H1476 H 0.14484 0.96641 0.64722 0.0
H1477 H 0.3115 0.07595 0.65281 0.0
H1478 H 0.21047 0.95182 0.62405 0.0
H1479 H 0.24736 0.08798 0.68187 0.0
H1480 H 0.27451 0.0304 0.64218 0.0
H1481 H 0.18174 0.01072 0.66038 0.0
C1482 C 0.16697 0.97238 0.64502 0.0
C1483 C 0.17448 0.95537 0.63433 0.0
C1484 C 0.2685 0.04292 0.65098 0.0
C1485 C 0.21687 0.00627 0.64918 0.0
C1486 C 0.28966 0.06901 0.65704 0.0
C1487 C 0.28262 0.08588 0.66833 0.0
C1488 C 0.23996 0.03357 0.65608 0.0
C1489 C 0.25387 0.07565 0.67335 0.0
C1490 C 0.18804 0.99777 0.65245 0.0
C1491 C 0.20357 0.96442 0.6318 0.0
N1492 N 0.23361 0.05023 0.66712 0.0
N1493 N 0.22362 0.98921 0.63908 0.0
H1494 H 0.06753 0.25854 0.62503 0.0
H1495 H 0.91118 0.15977 0.6696 0.0
H1496 H 0.03819 0.17454 0.64271 0.0
H1497 H 0.94493 0.2456 0.6557 0.0
H1498 H 0.95771 0.16468 0.66155 0.0
H1499 H 0.02318 0.25418 0.63753 0.0
C1500 C 0.05172 0.23911 0.63152 0.0
C1501 C 0.05659 0.21679 0.63258 0.0
C1502 C 0.95504 0.18252 0.66046 0.0
C1503 C 1.00539 0.21162 0.64715 0.0
C1504 C 0.92853 0.17976 0.66521 0.0
C1505 C 0.92438 0.20249 0.66372 0.0
C1506 C 0.97741 0.20807 0.65381 0.0
C1507 C 0.94734 0.22766 0.65729 0.0
C1508 C 0.02638 0.23666 0.63878 0.0
C1509 C 0.03544 0.19232 0.64159 0.0
N1510 N 0.97275 0.22976 0.65257 0.0
N1511 N 0.0107 0.19031 0.64836 0.0
H1512 H 0.75514 0.80222 0.61994 0.0
H1513 H 0.86026 0.76749 0.68094 0.0
H1514 H 0.83706 0.86451 0.64188 0.0
H1515 H 0.78558 0.70672 0.64966 0.0
H1516 H 0.85034 0.80319 0.66921 0.0
H1517 H 0.7645 0.7668 0.63283 0.0
C1518 C 0.7752 0.80848 0.62733 0.0
C1519 C 0.7954 0.83644 0.62971 0.0
C1520 C 0.83612 0.78202 0.66496 0.0
C1521 C 0.80604 0.79589 0.64486 0.0
C1522 C 0.84167 0.7616 0.67174 0.0
C1523 C 0.82369 0.73403 0.66632 0.0
C1524 C 0.81238 0.7748 0.65274 0.0
C1525 C 0.8001 0.72768 0.65419 0.0
C1526 C 0.78045 0.78822 0.63481 0.0
C1527 C 0.82073 0.84324 0.63987 0.0
N1528 N 0.79514 0.74789 0.64783 0.0
N1529 N 0.82533 0.82312 0.64706 0.0
H1530 H 0.03465 0.85092 0.66664 0.0
H1531 H 0.93217 0.68751 0.65916 0.0
H1532 H 0.06109 0.79592 0.64268 0.0
H1533 H 0.90098 0.74332 0.6707 0.0
H1534 H 0.98037 0.72691 0.65562 0.0
H1535 H 0.98616 0.81172 0.67078 0.0
C1536 C 0.03013 0.83057 0.66219 0.0
C1537 C 0.0518 0.82657 0.65434 0.0
C1538 C 0.96304 0.73059 0.65905 0.0
C1539 C 0.99665 0.78174 0.65904 0.0
C1540 C 0.9356 0.70812 0.66113 0.0
C1541 C 0.91281 0.7122 0.66581 0.0
C1542 C 0.9677 0.75742 0.66141 0.0
C1543 C 0.91816 0.73928 0.66773 0.0
C1544 C 1.00255 0.80825 0.66454 0.0
C1545 C 0.04498 0.79986 0.64882 0.0
N1546 N 0.94509 0.76089 0.66563 0.0
N1547 N 0.01806 0.77847 0.65133 0.0
H1548 H 0.21375 0.25124 0.63733 0.0
H1549 H 0.27084 0.14898 0.66824 0.0
H1550 H 0.15969 0.17089 0.6629 0.0
H1551 H 0.32568 0.23452 0.65341 0.0
H1552 H 0.22934 0.15475 0.66332 0.0
H1553 H 0.2543 0.24357 0.63973 0.0
C1554 C 0.21041 0.23188 0.64332 0.0
C1555 C 0.18339 0.21174 0.65008 0.0
C1556 C 0.25043 0.17229 0.66119 0.0
C1557 C 0.22974 0.20275 0.6529 0.0
C1558 C 0.27414 0.16905 0.66416 0.0
C1559 C 0.30175 0.19158 0.66193 0.0
C1560 C 0.25436 0.19815 0.65557 0.0
C1561 C 0.30476 0.2168 0.65574 0.0
C1562 C 0.23357 0.22753 0.64476 0.0
C1563 C 0.18022 0.18696 0.6576 0.0
N1564 N 0.28141 0.21946 0.65292 0.0
N1565 N 0.20312 0.18319 0.65889 0.0
H1566 H 0.75722 0.95444 0.63505 0.0
H1567 H 0.86907 0.09783 0.68497 0.0
H1568 H 0.82515 0.96465 0.67388 0.0
H1569 H 0.79378 0.08525 0.65393 0.0
H1570 H 0.85492 0.04985 0.67915 0.0
H1571 H 0.7718 0.00305 0.63992 0.0
C1572 C 0.77507 0.96696 0.64473 0.0
C1573 C 0.78971 0.95559 0.65445 0.0
C1574 C 0.84145 0.05753 0.67363 0.0
C1575 C 0.80683 0.01108 0.65978 0.0
C1576 C 0.84945 0.08495 0.67703 0.0
C1577 C 0.83232 0.0955 0.67026 0.0
C1578 C 0.81624 0.04051 0.66319 0.0
C1579 C 0.80755 0.07798 0.65954 0.0
C1580 C 0.78343 0.99465 0.64747 0.0
C1581 C 0.81309 0.97268 0.66644 0.0
N1582 N 0.80021 0.0513 0.65638 0.0
N1583 N 0.82091 0.99958 0.66882 0.0
H1584 H 0.4819 0.3898 0.72746 0.0
H1585 H 0.44455 0.24361 0.68169 0.0
H1586 H 0.53993 0.3765 0.69142 0.0
H1587 H 0.38219 0.25832 0.7107 0.0
H1588 H 0.4806 0.2913 0.68758 0.0
H1589 H 0.44614 0.34091 0.72408 0.0
C1590 C 0.48705 0.37651 0.71885 0.0
C1591 C 0.51366 0.38714 0.70942 0.0
C1592 C 0.45906 0.28416 0.69268 0.0
C1593 C 0.4731 0.3313 0.70564 0.0
C1594 C 0.43834 0.25688 0.68923 0.0
C1595 C 0.41008 0.24696 0.69537 0.0
C1596 C 0.45167 0.30181 0.70253 0.0
C1597 C 0.40363 0.26506 0.70557 0.0
C1598 C 0.46668 0.34866 0.71692 0.0
C1599 C 0.51951 0.36907 0.6987 0.0
N1600 N 0.42424 0.29164 0.70876 0.0
N1601 N 0.49936 0.34206 0.69702 0.0
H1602 H 0.65806 0.17104 0.69828 0.0
H1603 H 0.75995 0.10635 0.7092 0.0
H1604 H 0.63175 0.09188 0.72503 0.0
H1605 H 0.79186 0.19156 0.69414 0.0
H1606 H 0.71232 0.10026 0.71345 0.0
H1607 H 0.70677 0.17886 0.69521 0.0
C1608 C 0.66266 0.15545 0.70366 0.0
C1609 C 0.64086 0.13074 0.71182 0.0
C1610 C 0.72966 0.1203 0.70914 0.0
C1611 C 0.69635 0.13938 0.70828 0.0
C1612 C 0.75682 0.12373 0.70664 0.0
C1613 C 0.77968 0.14927 0.70075 0.0
C1614 C 0.72525 0.14266 0.70592 0.0
C1615 C 0.77463 0.17131 0.69808 0.0
C1616 C 0.69039 0.15987 0.70188 0.0
C1617 C 0.64788 0.11116 0.71856 0.0
N1618 N 0.74793 0.16746 0.70055 0.0
N1619 N 0.67489 0.11581 0.71652 0.0
H1620 H 0.86078 0.48108 0.69429 0.0
H1621 H 0.89444 0.63518 0.71443 0.0
H1622 H 0.92776 0.53771 0.73317 0.0
H1623 H 0.82223 0.57569 0.68038 0.0
H1624 H 0.90707 0.59991 0.72144 0.0
H1625 H 0.84649 0.5157 0.68873 0.0
C1626 C 0.87252 0.50093 0.70155 0.0
C1627 C 0.89577 0.50689 0.71385 0.0
C1628 C 0.88846 0.59458 0.71243 0.0
C1629 C 0.87951 0.54639 0.70784 0.0
C1630 C 0.8812 0.61473 0.70842 0.0
C1631 C 0.85747 0.60856 0.69651 0.0
C1632 C 0.87187 0.56805 0.70449 0.0
C1633 C 0.84105 0.5816 0.68927 0.0
C1634 C 0.86435 0.52061 0.69846 0.0
C1635 C 0.91001 0.5326 0.72329 0.0
N1636 N 0.84864 0.5624 0.69328 0.0
N1637 N 0.90176 0.55149 0.72 0.0
H1638 H 0.45212 0.95182 0.2531 0.0
H1639 H 0.51052 0.95493 0.14179 0.0
H1640 H 0.47182 0.89075 0.23159 0.0
H1641 H 0.50605 0.02263 0.1685 0.0
H1642 H 0.49212 0.92883 0.1732 0.0
H1643 H 0.46786 0.97589 0.22096 0.0
C1644 C 0.45963 0.94338 0.24157 0.0
C1645 C 0.46059 0.91917 0.24508 0.0
C1646 C 0.49513 0.94938 0.17215 0.0
C1647 C 0.47883 0.9468 0.20811 0.0
C1648 C 0.50542 0.9642 0.15418 0.0
C1649 C 0.51 0.99108 0.15254 0.0
C1650 C 0.48906 0.96142 0.18853 0.0
C1651 C 0.50323 0.00214 0.16916 0.0
C1652 C 0.46876 0.95723 0.22323 0.0
C1653 C 0.47095 0.90947 0.22962 0.0
N1654 N 0.49314 0.98731 0.18639 0.0
N1655 N 0.47956 0.92324 0.2118 0.0
H1656 H 0.06645 0.55757 0.25578 0.0
H1657 H 0.04004 0.49838 0.14403 0.0
H1658 H 0.114 0.52281 0.22908 0.0
H1659 H 1.00368 0.54559 0.16783 0.0
H1660 H 0.06627 0.50575 0.17531 0.0
H1661 H 0.04211 0.55191 0.22395 0.0
C1662 C 0.07197 0.54894 0.24319 0.0
C1663 C 0.0924 0.54072 0.24515 0.0
C1664 C 0.05259 0.51453 0.17366 0.0
C1665 C 0.06416 0.53374 0.20865 0.0
C1666 C 0.0377 0.51046 0.15576 0.0
C1667 C 0.01954 0.52133 0.15327 0.0
C1668 C 0.04922 0.52948 0.18925 0.0
C1669 C 0.01704 0.53642 0.16916 0.0
C1670 C 0.05792 0.54557 0.22502 0.0
C1671 C 0.09815 0.52912 0.22837 0.0
N1672 N 0.03165 0.53999 0.18645 0.0
N1673 N 0.08408 0.52594 0.21085 0.0
H1674 H 0.52985 0.56935 0.25424 0.0
H1675 H 0.48543 0.50657 0.14365 0.0
H1676 H 0.44495 0.53751 0.23113 0.0
H1677 H 0.57135 0.54759 0.16623 0.0
H1678 H 0.46926 0.51587 0.17558 0.0
H1679 H 0.54431 0.5589 0.22239 0.0
C1680 C 0.51422 0.56022 0.24242 0.0
C1681 C 0.4862 0.55462 0.24533 0.0
C1682 C 0.49164 0.5228 0.1735 0.0
C1683 C 0.50264 0.54228 0.20864 0.0
C1684 C 0.50092 0.51766 0.15523 0.0
C1685 C 0.52981 0.52614 0.15224 0.0
C1686 C 0.51136 0.53651 0.18889 0.0
C1687 C 0.54882 0.54016 0.16792 0.0
C1688 C 0.52249 0.55416 0.22421 0.0
C1689 C 0.46675 0.54211 0.22958 0.0
N1690 N 0.53926 0.54482 0.1855 0.0
N1691 N 0.47536 0.53647 0.21187 0.0
H1692 H 0.90445 0.41309 0.80529 0.0
H1693 H 0.04352 0.52252 0.86368 0.0
H1694 H 0.96377 0.49276 0.78064 0.0
H1695 H 0.97511 0.44982 0.89134 0.0
H1696 H 0.01553 0.51186 0.83284 0.0
H1697 H 0.93075 0.42611 0.83678 0.0
C1698 C 0.92304 0.43337 0.80656 0.0
C1699 C 0.93211 0.45183 0.79033 0.0
C1700 C 1.0066 0.49835 0.8457 0.0
C1701 C 0.96237 0.46691 0.82633 0.0
C1702 C 0.02262 0.50431 0.86324 0.0
C1703 C 0.01162 0.48699 0.88007 0.0
C1704 C 0.97952 0.47474 0.84494 0.0
C1705 C 0.9843 0.46386 0.87879 0.0
C1706 C 0.93798 0.44085 0.82456 0.0
C1707 C 0.95607 0.47799 0.79284 0.0
N1708 N 0.96927 0.45834 0.8615 0.0
N1709 N 0.97056 0.4847 0.81047 0.0
H1710 H 0.51953 0.45024 0.77585 0.0
H1711 H 0.55409 0.51285 0.88688 0.0
H1712 H 0.60459 0.49458 0.79983 0.0
H1713 H 0.46921 0.46423 0.8633 0.0
H1714 H 0.57315 0.50554 0.85561 0.0
H1715 H 0.50088 0.45439 0.80816 0.0
C1716 C 0.53431 0.46064 0.78796 0.0
C1717 C 0.56372 0.47206 0.78505 0.0
C1718 C 0.55035 0.49641 0.85731 0.0
C1719 C 0.54244 0.47729 0.82217 0.0
C1720 C 0.53943 0.50044 0.87522 0.0
C1721 C 0.50998 0.48929 0.87771 0.0
C1722 C 0.5317 0.48111 0.84177 0.0
C1723 C 0.49207 0.47366 0.86195 0.0
C1724 C 0.52363 0.46316 0.80641 0.0
C1725 C 0.58181 0.48577 0.80126 0.0
N1726 N 0.50321 0.47012 0.84468 0.0
N1727 N 0.57089 0.48804 0.8191 0.0
H1728 H 0.56351 0.06811 0.77717 0.0
H1729 H 0.50289 0.05288 0.88933 0.0
H1730 H 0.52987 0.11774 0.80059 0.0
H1731 H 0.51773 0.99209 0.861 0.0
H1732 H 0.51901 0.08066 0.85856 0.0
H1733 H 0.55316 0.04382 0.80943 0.0
C1734 C 0.55421 0.07408 0.78916 0.0
C1735 C 0.54737 0.09487 0.78612 0.0
C1736 C 0.51884 0.06129 0.85911 0.0
C1737 C 0.53538 0.06711 0.82308 0.0
C1738 C 0.50981 0.04552 0.87671 0.0
C1739 C 0.50878 0.02003 0.8777 0.0
C1740 C 0.52717 0.05167 0.84242 0.0
C1741 C 0.5178 0.01142 0.86081 0.0
C1742 C 0.54814 0.0601 0.80753 0.0
C1743 C 0.53512 0.10159 0.80217 0.0
N1744 N 0.52657 0.02716 0.84389 0.0
N1745 N 0.52951 0.08776 0.81992 0.0
H1746 H 0.08785 0.23116 0.5627 0.0
H1747 H 0.22465 0.33789 0.49895 0.0
H1748 H 0.17377 0.27106 0.58522 0.0
H1749 H 0.13891 0.30165 0.47654 0.0
H1750 H 0.20626 0.31161 0.52996 0.0
H1751 H 0.10591 0.25508 0.53063 0.0
C1752 C 0.1105 0.24502 0.56097 0.0
C1753 C 0.12927 0.2491 0.57681 0.0
C1754 C 0.19141 0.3093 0.51828 0.0
C1755 C 0.15016 0.27636 0.53991 0.0
C1756 C 0.2019 0.32442 0.50055 0.0
C1757 C 0.18331 0.32225 0.48511 0.0
C1758 C 0.16199 0.29175 0.52075 0.0
C1759 C 0.15408 0.30392 0.48794 0.0
C1760 C 0.12081 0.25855 0.54257 0.0
C1761 C 0.15847 0.26695 0.57345 0.0
N1762 N 0.14432 0.28952 0.50545 0.0
N1763 N 0.16794 0.27992 0.55545 0.0
H1764 H 0.77762 0.85384 0.56078 0.0
H1765 H 0.66413 0.87695 0.50011 0.0
H1766 H 0.72942 0.88823 0.58694 0.0
H1767 H 0.70192 0.83076 0.4768 0.0
H1768 H 0.69001 0.88358 0.5314 0.0
H1769 H 0.75216 0.84743 0.52924 0.0
C1770 C 0.7616 0.85992 0.55995 0.0
C1771 C 0.75567 0.87158 0.57659 0.0
C1772 C 0.69264 0.87199 0.51944 0.0
C1773 C 0.72671 0.86463 0.54042 0.0
C1774 C 0.67774 0.86806 0.50159 0.0
C1775 C 0.68073 0.85318 0.48577 0.0
C1776 C 0.7108 0.86105 0.52154 0.0
C1777 C 0.69918 0.84265 0.48846 0.0
C1778 C 0.74718 0.85638 0.54189 0.0
C1779 C 0.73503 0.87953 0.57447 0.0
N1780 N 0.71348 0.84677 0.506 0.0
N1781 N 0.72132 0.8759 0.55674 0.0
H1782 H 0.13121 0.84594 0.58669 0.0
H1783 H 0.18911 0.89572 0.47475 0.0
H1784 H 0.15545 0.92672 0.56376 0.0
H1785 H 0.1833 0.8234 0.50226 0.0
H1786 H 0.17038 0.90439 0.50566 0.0
H1787 H 0.14373 0.83436 0.5542 0.0
C1788 C 0.13888 0.86113 0.57475 0.0
C1789 C 0.14249 0.8874 0.57797 0.0
C1790 C 0.17311 0.88657 0.5049 0.0
C1791 C 0.15696 0.87435 0.54082 0.0
C1792 C 0.18363 0.88152 0.48722 0.0
C1793 C 0.18794 0.8589 0.48596 0.0
C1794 C 0.1666 0.86874 0.52141 0.0
C1795 C 0.1807 0.84131 0.50267 0.0
C1796 C 0.14619 0.85458 0.55626 0.0
C1797 C 0.15272 0.90636 0.56201 0.0
N1798 N 0.17042 0.84661 0.51969 0.0
N1799 N 0.15963 0.89949 0.54415 0.0
H1800 H 0.57123 0.74545 0.13838 0.0
H1801 H 0.71101 0.85339 0.19695 0.0
H1802 H 0.63151 0.8249 0.11389 0.0
H1803 H 0.6422 0.78067 0.2243 0.0
H1804 H 0.68314 0.84314 0.16607 0.0
H1805 H 0.59766 0.75791 0.16981 0.0
C1806 C 0.59006 0.76557 0.13967 0.0
C1807 C 0.59935 0.78413 0.12351 0.0
C1808 C 0.67411 0.82952 0.17887 0.0
C1809 C 0.62976 0.79856 0.15943 0.0
C1810 C 0.69006 0.83525 0.19642 0.0
C1811 C 0.6789 0.81782 0.21319 0.0
C1812 C 0.64693 0.80606 0.17802 0.0
C1813 C 0.65152 0.79479 0.2118 0.0
C1814 C 0.60508 0.77272 0.15763 0.0
C1815 C 0.62363 0.81006 0.12604 0.0
N1816 N 0.63655 0.78951 0.1945 0.0
N1817 N 0.63817 0.81645 0.14364 0.0
H1818 H 0.22786 0.77213 0.13257 0.0
H1819 H 0.1817 0.86352 0.19713 0.0
H1820 H 0.24227 0.85167 0.11357 0.0
H1821 H 0.18377 0.79337 0.2217 0.0
H1822 H 0.20243 0.85847 0.16596 0.0
H1823 H 0.20998 0.7783 0.16484 0.0
C1824 C 0.22724 0.79087 0.13519 0.0
C1825 C 0.2366 0.81143 0.12035 0.0
C1826 C 0.1985 0.84423 0.17818 0.0
C1827 C 0.21618 0.81862 0.15721 0.0
C1828 C 0.18654 0.84704 0.19594 0.0
C1829 C 0.18087 0.82875 0.21199 0.0
C1830 C 0.20462 0.82279 0.1763 0.0
C1831 C 0.18794 0.808 0.20973 0.0
C1832 C 0.2172 0.79445 0.15364 0.0
C1833 C 0.23558 0.83542 0.12464 0.0
N1834 N 0.19924 0.80544 0.19215 0.0
N1835 N 0.22542 0.83827 0.1426 0.0
H1836 H 0.22973 0.40169 0.11038 0.0
H1837 H 0.16934 0.38856 0.22239 0.0
H1838 H 0.19759 0.45277 0.13336 0.0
H1839 H 0.18178 0.32613 0.19431 0.0
H1840 H 0.18634 0.41621 0.1916 0.0
H1841 H 0.21897 0.37767 0.14277 0.0
C1842 C 0.22069 0.40804 0.12231 0.0
C1843 C 0.21436 0.42914 0.11911 0.0
C1844 C 0.18546 0.39651 0.19222 0.0
C1845 C 0.20192 0.40171 0.1562 0.0
C1846 C 0.17594 0.38081 0.20983 0.0
C1847 C 0.17394 0.3549 0.21088 0.0
C1848 C 0.19334 0.38638 0.17558 0.0
C1849 C 0.18258 0.3458 0.19406 0.0
C1850 C 0.21439 0.39422 0.14075 0.0
C1851 C 0.20244 0.43637 0.13508 0.0
N1852 N 0.19185 0.36148 0.17713 0.0
N1853 N 0.19659 0.42268 0.1529 0.0
H1854 H 0.84224 0.60697 0.92054 0.0
H1855 H 0.8033 0.63603 0.81049 0.0
H1856 H 0.75665 0.56702 0.89739 0.0
H1857 H 0.88885 0.67329 0.83347 0.0
H1858 H 0.78579 0.6094 0.84163 0.0
H1859 H 0.85964 0.63039 0.88834 0.0
C1860 C 0.82708 0.60293 0.90865 0.0
C1861 C 0.79787 0.58496 0.91179 0.0
C1862 C 0.80841 0.62335 0.83983 0.0
C1863 C 0.81773 0.61211 0.87477 0.0
C1864 C 0.81845 0.63845 0.82197 0.0
C1865 C 0.84761 0.65714 0.81934 0.0
C1866 C 0.82763 0.62689 0.8552 0.0
C1867 C 0.86615 0.65956 0.83492 0.0
C1868 C 0.83705 0.61646 0.89026 0.0
C1869 C 0.77929 0.58097 0.89583 0.0
N1870 N 0.85586 0.64473 0.85213 0.0
N1871 N 0.78951 0.59444 0.87806 0.0
H1872 H 0.4529 0.24469 0.89632 0.0
H1873 H 0.31203 0.14736 0.83427 0.0
H1874 H 0.39 0.16338 0.91622 0.0
H1875 H 0.38448 0.21899 0.8089 0.0
H1876 H 0.33847 0.15459 0.86551 0.0
H1877 H 0.42625 0.23737 0.86522 0.0
C1878 C 0.4334 0.22533 0.89416 0.0
C1879 C 0.42362 0.2046 0.90885 0.0
C1880 C 0.3486 0.16868 0.85309 0.0
C1881 C 0.39307 0.19605 0.87331 0.0
C1882 C 0.33347 0.16466 0.83532 0.0
C1883 C 0.34611 0.18261 0.81899 0.0
C1884 C 0.37645 0.19098 0.85462 0.0
C1885 C 0.37405 0.20452 0.82107 0.0
C1886 C 0.4183 0.2211 0.87637 0.0
C1887 C 0.3984 0.17979 0.90519 0.0
N1888 N 0.38824 0.20816 0.83858 0.0
N1889 N 0.38391 0.17623 0.88781 0.0
H1890 H 0.86151 0.2335 0.92258 0.0
H1891 H 0.81908 0.17158 0.81157 0.0
H1892 H 0.77749 0.20298 0.89822 0.0
H1893 H 0.90461 0.21226 0.83489 0.0
H1894 H 0.80232 0.18011 0.84351 0.0
H1895 H 0.87631 0.2221 0.89119 0.0
C1896 C 0.84614 0.22436 0.9106 0.0
C1897 C 0.81829 0.2195 0.91297 0.0
C1898 C 0.82474 0.1871 0.84161 0.0
C1899 C 0.83512 0.20621 0.87685 0.0
C1900 C 0.83437 0.18241 0.82332 0.0
C1901 C 0.86333 0.19109 0.82049 0.0
C1902 C 0.84419 0.20053 0.85719 0.0
C1903 C 0.88204 0.20471 0.83642 0.0
C1904 C 0.85459 0.2178 0.89266 0.0
C1905 C 0.79913 0.20701 0.89707 0.0
N1906 N 0.87215 0.20895 0.85401 0.0
N1907 N 0.80795 0.20095 0.87962 0.0
H1908 H 0.23804 0.07952 0.47089 0.0
H1909 H 0.37843 0.18444 0.53027 0.0
H1910 H 0.30049 0.15832 0.44667 0.0
H1911 H 0.30794 0.11272 0.5573 0.0
H1912 H 0.35106 0.17505 0.49923 0.0
H1913 H 0.26399 0.09123 0.50253 0.0
C1914 C 0.25725 0.09933 0.47229 0.0
C1915 C 0.26728 0.11792 0.45614 0.0
C1916 C 0.34155 0.16146 0.51199 0.0
C1917 C 0.29714 0.1315 0.49229 0.0
C1918 C 0.35721 0.1667 0.52965 0.0
C1919 C 0.34544 0.14929 0.54636 0.0
C1920 C 0.31403 0.13851 0.511 0.0
C1921 C 0.31774 0.12681 0.54483 0.0
C1922 C 0.272 0.10606 0.49036 0.0
C1923 C 0.29202 0.14347 0.45881 0.0
N1924 N 0.30305 0.12199 0.52744 0.0
N1925 N 0.30628 0.14944 0.47651 0.0
H1926 H 0.89207 0.10613 0.4657 0.0
H1927 H 0.85185 0.20097 0.53125 0.0
H1928 H 0.9114 0.18751 0.44745 0.0
H1929 H 0.85034 0.12869 0.55502 0.0
H1930 H 0.87241 0.19566 0.50005 0.0
H1931 H 0.87532 0.11313 0.49812 0.0
C1932 C 0.89279 0.12547 0.46853 0.0
C1933 C 0.90308 0.14625 0.45383 0.0
C1934 C 0.86774 0.18103 0.51211 0.0
C1935 C 0.88395 0.1544 0.49088 0.0
C1936 C 0.85588 0.18398 0.52988 0.0
C1937 C 0.84925 0.16516 0.54571 0.0
C1938 C 0.87276 0.15891 0.51001 0.0
C1939 C 0.85527 0.14374 0.54323 0.0
C1940 C 0.88338 0.12952 0.48707 0.0
C1941 C 0.90385 0.17103 0.45839 0.0
N1942 N 0.86647 0.14105 0.52566 0.0
N1943 N 0.89422 0.17434 0.47644 0.0
H1944 H 0.86286 0.78593 0.46854 0.0
H1945 H 0.84542 0.65515 0.52884 0.0
H1946 H 0.89213 0.73248 0.44569 0.0
H1947 H 0.83316 0.71814 0.55612 0.0
H1948 H 0.86219 0.6829 0.49819 0.0
H1949 H 0.85148 0.76125 0.5006 0.0
C1950 C 0.86694 0.76901 0.47029 0.0
C1951 C 0.8783 0.76115 0.45435 0.0
C1952 C 0.85602 0.69076 0.51091 0.0
C1953 C 0.86527 0.73273 0.49106 0.0
C1954 C 0.8463 0.67486 0.52839 0.0
C1955 C 0.8377 0.68425 0.54505 0.0
C1956 C 0.85688 0.71618 0.50993 0.0
C1957 C 0.8397 0.71015 0.54369 0.0
C1958 C 0.86057 0.75501 0.48864 0.0
C1959 C 0.88352 0.73932 0.45758 0.0
N1960 N 0.84882 0.72508 0.52638 0.0
N1961 N 0.87673 0.72573 0.47549 0.0
loop_
_geom_bond_atom_site_label_1
_geom_bond_atom_site_label_2
_geom_bond_distance
_geom_bond_site_symmetry_2
_ccdc_geom_bond_type
H0 C7 0.929 . S
H1 C10 0.930 . S
H2 C12 0.929 . S
H3 C4 0.969 . S
C4 H3 0.969 . S
C4 O5 1.550 . S
C4 H6 0.973 . S
O5 C4 1.550 . S
O5 C11 1.412 . S
H6 C4 0.973 . S
C7 H0 0.929 . S
C7 C8 1.400 . S
C7 C9 1.364 . S
C8 C7 1.400 . S
C8 C12 1.377 . S
C9 C7 1.364 . S
C9 C10 1.374 . S
C10 H1 0.930 . S
C10 C9 1.374 . S
C10 C11 1.383 . S
C11 O5 1.412 . S
C11 C10 1.383 . S
C11 C12 1.394 . S
C12 H2 0.929 . S
C12 C8 1.377 . S
C12 C11 1.394 . S
H13 C20 0.929 . S
H14 C23 0.930 . S
H15 C25 0.929 . S
H16 C17 0.969 . S
C17 H16 0.969 . S
C17 O18 1.550 . S
C17 H19 0.973 . S
O18 C17 1.550 . S
O18 C24 1.412 . S
H19 C17 0.973 . S
C20 H13 0.929 . S
C20 C21 1.400 . S
C20 C22 1.364 . S
C21 C20 1.400 . S
C21 C25 1.377 . S
C22 C20 1.364 . S
C22 C23 1.374 . S
C23 H14 0.930 . S
C23 C22 1.374 . S
C23 C24 1.383 . S
C24 O18 1.412 . S
C24 C23 1.383 . S
C24 C25 1.394 . S
C25 H15 0.929 . S
C25 C21 1.377 . S
C25 C24 1.394 . S
H26 C33 0.929 . S
H27 C36 0.930 . S
H28 C38 0.929 . S
H29 C30 0.969 . S
C30 H29 0.969 . S
C30 O31 1.550 . S
C30 H32 0.973 . S
O31 C30 1.550 . S
O31 C37 1.412 . S
H32 C30 0.973 . S
C33 H26 0.929 . S
C33 C34 1.400 . S
C33 C35 1.364 . S
C34 C33 1.400 . S
C34 C38 1.377 . S
C35 C33 1.364 . S
C35 C36 1.374 . S
C36 H27 0.930 . S
C36 C35 1.374 . S
C36 C37 1.383 . S
C37 O31 1.412 . S
C37 C36 1.383 . S
C37 C38 1.394 . S
C38 H28 0.929 . S
C38 C34 1.377 . S
C38 C37 1.394 . S
H39 C46 0.929 . S
H40 C49 0.930 . S
H41 C51 0.929 . S
H42 C43 0.969 . S
C43 H42 0.969 . S
C43 O44 1.550 . S
C43 H45 0.973 . S
O44 C43 1.550 . S
O44 C50 1.412 . S
H45 C43 0.973 . S
C46 H39 0.929 . S
C46 C47 1.400 . S
C46 C48 1.364 . S
C47 C46 1.400 . S
C47 C51 1.377 . S
C48 C46 1.364 . S
C48 C49 1.374 . S
C49 H40 0.930 . S
C49 C48 1.374 . S
C49 C50 1.383 . S
C50 O44 1.412 . S
C50 C49 1.383 . S
C50 C51 1.394 . S
C51 H41 0.929 . S
C51 C47 1.377 . S
C51 C50 1.394 . S
H52 C59 0.929 . S
H53 C62 0.930 . S
H54 C64 0.929 . S
H55 C56 0.969 . S
C56 H55 0.969 . S
C56 O57 1.550 . S
C56 H58 0.973 . S
O57 C56 1.550 . S
O57 C63 1.412 . S
H58 C56 0.973 . S
C59 H52 0.929 . S
C59 C60 1.400 . S
C59 C61 1.364 . S
C60 C59 1.400 . S
C60 C64 1.377 . S
C61 C59 1.364 . S
C61 C62 1.374 . S
C62 H53 0.930 . S
C62 C61 1.374 . S
C62 C63 1.383 . S
C63 O57 1.412 . S
C63 C62 1.383 . S
C63 C64 1.394 . S
C64 H54 0.929 . S
C64 C60 1.377 . S
C64 C63 1.394 . S
H65 C72 0.929 . S
H66 C75 0.930 . S
H67 C77 0.929 . S
H68 C69 0.969 . S
C69 H68 0.969 . S
C69 O70 1.550 . S
C69 H71 0.973 . S
O70 C69 1.550 . S
O70 C76 1.412 . S
H71 C69 0.973 . S
C72 H65 0.929 . S
C72 C73 1.400 . S
C72 C74 1.364 . S
C73 C72 1.400 . S
C73 C77 1.377 . S
C74 C72 1.364 . S
C74 C75 1.374 . S
C75 H66 0.930 . S
C75 C74 1.374 . S
C75 C76 1.383 . S
C76 O70 1.412 . S
C76 C75 1.383 . S
C76 C77 1.394 . S
C77 H67 0.929 . S
C77 C73 1.377 . S
C77 C76 1.394 . S
H78 C85 0.929 . S
H79 C88 0.930 . S
H80 C90 0.929 . S
H81 C82 0.969 . S
C82 H81 0.969 . S
C82 O83 1.550 . S
C82 H84 0.973 . S
O83 C82 1.550 . S
O83 C89 1.412 . S
H84 C82 0.973 . S
C85 H78 0.929 . S
C85 C86 1.400 . S
C85 C87 1.364 . S
C86 C85 1.400 . S
C86 C90 1.377 . S
C87 C85 1.364 . S
C87 C88 1.374 . S
C88 H79 0.930 . S
C88 C87 1.374 . S
C88 C89 1.383 . S
C89 O83 1.412 . S
C89 C88 1.383 . S
C89 C90 1.394 . S
C90 H80 0.929 . S
C90 C86 1.377 . S
C90 C89 1.394 . S
H91 C98 0.929 . S
H92 C101 0.930 . S
H93 C103 0.929 . S
H94 C95 0.969 . S
C95 H94 0.969 . S
C95 O96 1.550 . S
C95 H97 0.973 . S
O96 C95 1.550 . S
O96 C102 1.412 . S
H97 C95 0.973 . S
C98 H91 0.929 . S
C98 C99 1.400 . S
C98 C100 1.364 . S
C99 C98 1.400 . S
C99 C103 1.377 . S
C100 C98 1.364 . S
C100 C101 1.374 . S
C101 H92 0.930 . S
C101 C100 1.374 . S
C101 C102 1.383 . S
C102 O96 1.412 . S
C102 C101 1.383 . S
C102 C103 1.394 . S
C103 H93 0.929 . S
C103 C99 1.377 . S
C103 C102 1.394 . S
H104 C111 0.929 . S
H105 C114 0.930 . S
H106 C116 0.929 . S
H107 C108 0.969 . S
C108 H107 0.969 . S
C108 O109 1.550 . S
C108 H110 0.973 . S
O109 C108 1.550 . S
O109 C115 1.412 . S
H110 C108 0.973 . S
C111 H104 0.929 . S
C111 C112 1.400 . S
C111 C113 1.364 . S
C112 C111 1.400 . S
C112 C116 1.377 . S
C113 C111 1.364 . S
C113 C114 1.374 . S
C114 H105 0.930 . S
C114 C113 1.374 . S
C114 C115 1.383 . S
C115 O109 1.412 . S
C115 C114 1.383 . S
C115 C116 1.394 . S
C116 H106 0.929 . S
C116 C112 1.377 . S
C116 C115 1.394 . S
H117 C124 0.929 . S
H118 C127 0.930 . S
H119 C129 0.929 . S
H120 C121 0.969 . S
C121 H120 0.969 . S
C121 O122 1.550 . S
C121 H123 0.973 . S
O122 C121 1.550 . S
O122 C128 1.412 . S
H123 C121 0.973 . S
C124 H117 0.929 . S
C124 C125 1.400 . S
C124 C126 1.364 . S
C125 C124 1.400 . S
C125 C129 1.377 . S
C126 C124 1.364 . S
C126 C127 1.374 . S
C127 H118 0.930 . S
C127 C126 1.374 . S
C127 C128 1.383 . S
C128 O122 1.412 . S
C128 C127 1.383 . S
C128 C129 1.394 . S
C129 H119 0.929 . S
C129 C125 1.377 . S
C129 C128 1.394 . S
H130 C137 0.929 . S
H131 C140 0.930 . S
H132 C142 0.929 . S
H133 C134 0.969 . S
C134 H133 0.969 . S
C134 O135 1.550 . S
C134 H136 0.973 . S
O135 C134 1.550 . S
O135 C141 1.412 . S
H136 C134 0.973 . S
C137 H130 0.929 . S
C137 C138 1.400 . S
C137 C139 1.364 . S
C138 C137 1.400 . S
C138 C142 1.377 . S
C139 C137 1.364 . S
C139 C140 1.374 . S
C140 H131 0.930 . S
C140 C139 1.374 . S
C140 C141 1.383 . S
C141 O135 1.412 . S
C141 C140 1.383 . S
C141 C142 1.394 . S
C142 H132 0.929 . S
C142 C138 1.377 . S
C142 C141 1.394 . S
H143 C150 0.929 . S
H144 C153 0.930 . S
H145 C155 0.929 . S
H146 C147 0.969 . S
C147 H146 0.969 . S
C147 O148 1.550 . S
C147 H149 0.973 . S
O148 C147 1.550 . S
O148 C154 1.412 . S
H149 C147 0.973 . S
C150 H143 0.929 . S
C150 C151 1.400 . S
C150 C152 1.364 . S
C151 C150 1.400 . S
C151 C155 1.377 . S
C152 C150 1.364 . S
C152 C153 1.374 . S
C153 H144 0.930 . S
C153 C152 1.374 . S
C153 C154 1.383 . S
C154 O148 1.412 . S
C154 C153 1.383 . S
C154 C155 1.394 . S
C155 H145 0.929 . S
C155 C151 1.377 . S
C155 C154 1.394 . S
H156 C163 0.929 . S
H157 C166 0.930 . S
H158 C168 0.929 . S
H159 C160 0.969 . S
C160 H159 0.969 . S
C160 O161 1.550 . S
C160 H162 0.973 . S
O161 C160 1.550 . S
O161 C167 1.412 . S
H162 C160 0.973 . S
C163 H156 0.929 . S
C163 C164 1.400 . S
C163 C165 1.364 . S
C164 C163 1.400 . S
C164 C168 1.377 . S
C165 C163 1.364 . S
C165 C166 1.374 . S
C166 H157 0.930 . S
C166 C165 1.374 . S
C166 C167 1.383 . S
C167 O161 1.412 . S
C167 C166 1.383 . S
C167 C168 1.394 . S
C168 H158 0.929 . S
C168 C164 1.377 . S
C168 C167 1.394 . S
H169 C176 0.929 . S
H170 C179 0.930 . S
H171 C181 0.929 . S
H172 C173 0.969 . S
C173 H172 0.969 . S
C173 O174 1.550 . S
C173 H175 0.973 . S
O174 C173 1.550 . S
O174 C180 1.412 . S
H175 C173 0.973 . S
C176 H169 0.929 . S
C176 C177 1.400 . S
C176 C178 1.364 . S
C177 C176 1.400 . S
C177 C181 1.377 . S
C178 C176 1.364 . S
C178 C179 1.374 . S
C179 H170 0.930 . S
C179 C178 1.374 . S
C179 C180 1.383 . S
C180 O174 1.412 . S
C180 C179 1.383 . S
C180 C181 1.394 . S
C181 H171 0.929 . S
C181 C177 1.377 . S
C181 C180 1.394 . S
H182 C189 0.929 . S
H183 C192 0.930 . S
H184 C194 0.929 . S
H185 C186 0.969 . S
C186 H185 0.969 . S
C186 O187 1.550 . S
C186 H188 0.973 . S
O187 C186 1.550 . S
O187 C193 1.412 . S
H188 C186 0.973 . S
C189 H182 0.929 . S
C189 C190 1.400 . S
C189 C191 1.364 . S
C190 C189 1.400 . S
C190 C194 1.377 . S
C191 C189 1.364 . S
C191 C192 1.374 . S
C192 H183 0.930 . S
C192 C191 1.374 . S
C192 C193 1.383 . S
C193 O187 1.412 . S
C193 C192 1.383 . S
C193 C194 1.394 . S
C194 H184 0.929 . S
C194 C190 1.377 . S
C194 C193 1.394 . S
H195 C202 0.929 . S
H196 C205 0.930 . S
H197 C207 0.929 . S
H198 C199 0.969 . S
C199 H198 0.969 . S
C199 O200 1.550 . S
C199 H201 0.973 . S
O200 C199 1.550 . S
O200 C206 1.412 . S
H201 C199 0.973 . S
C202 H195 0.929 . S
C202 C203 1.400 . S
C202 C204 1.364 . S
C203 C202 1.400 . S
C203 C207 1.377 . S
C204 C202 1.364 . S
C204 C205 1.374 . S
C205 H196 0.930 . S
C205 C204 1.374 . S
C205 C206 1.383 . S
C206 O200 1.412 . S
C206 C205 1.383 . S
C206 C207 1.394 . S
C207 H197 0.929 . S
C207 C203 1.377 . S
C207 C206 1.394 . S
H208 C215 0.929 . S
H209 C218 0.930 . S
H210 C220 0.929 . S
H211 C212 0.969 . S
C212 H211 0.969 . S
C212 O213 1.550 . S
C212 H214 0.973 . S
O213 C212 1.550 . S
O213 C219 1.412 . S
H214 C212 0.973 . S
C215 H208 0.929 . S
C215 C216 1.400 . S
C215 C217 1.364 . S
C216 C215 1.400 . S
C216 C220 1.377 . S
C217 C215 1.364 . S
C217 C218 1.374 . S
C218 H209 0.930 . S
C218 C217 1.374 . S
C218 C219 1.383 . S
C219 O213 1.412 . S
C219 C218 1.383 . S
C219 C220 1.394 . S
C220 H210 0.929 . S
C220 C216 1.377 . S
C220 C219 1.394 . S
H221 C228 0.929 . S
H222 C231 0.930 . S
H223 C233 0.929 . S
H224 C225 0.969 . S
C225 H224 0.969 . S
C225 O226 1.550 . S
C225 H227 0.973 . S
O226 C225 1.550 . S
O226 C232 1.412 . S
H227 C225 0.973 . S
C228 H221 0.929 . S
C228 C229 1.400 . S
C228 C230 1.364 . S
C229 C228 1.400 . S
C229 C233 1.377 . S
C230 C228 1.364 . S
C230 C231 1.374 . S
C231 H222 0.930 . S
C231 C230 1.374 . S
C231 C232 1.383 . S
C232 O226 1.412 . S
C232 C231 1.383 . S
C232 C233 1.394 . S
C233 H223 0.929 . S
C233 C229 1.377 . S
C233 C232 1.394 . S
Eu234 N265 2.657 . S
Eu234 N272 2.609 . S
Eu234 O278 2.558 . S
Eu234 O279 2.612 1_566 S
Eu234 O281 2.339 1_565 S
Eu234 O282 2.563 1_565 S
Eu234 O283 2.419 1_565 S
Eu234 O285 2.380 1_556 S
Eu234 O286 2.432 . S
Eu234 C298 2.845 1_565 S
C235 C238 1.429 . S
C235 C239 1.411 . S
C235 N242 1.377 . S
C236 C238 1.420 . S
C236 C240 1.423 . S
C236 C248 1.392 . S
C237 C239 1.420 . S
C237 C240 1.351 . S
C237 H260 0.931 . S
C238 C235 1.429 . S
C238 C236 1.420 . S
C238 N246 1.362 . S
C239 C235 1.411 . S
C239 C237 1.420 . S
C239 C244 1.395 . S
C240 C236 1.423 . S
C240 C237 1.351 . S
C240 H252 0.930 . S
C241 C243 1.400 . S
C241 C244 1.386 . S
C241 H253 0.930 . S
N242 C235 1.377 . S
N242 C243 1.321 . S
N242 Eu245 2.609 . S
C243 C241 1.400 . S
C243 N242 1.321 . S
C243 H250 0.930 . S
C244 C239 1.395 . S
C244 C241 1.386 . S
C244 H263 0.930 . S
Eu245 N242 2.609 . S
Eu245 N246 2.657 . S
Eu245 O279 2.380 . S
Eu245 O280 2.432 . S
Eu245 O284 2.558 . S
Eu245 O285 2.612 1_545 S
Eu245 O287 2.339 1_545 S
Eu245 O288 2.563 1_545 S
Eu245 O289 2.419 1_545 S
Eu245 C309 2.848 . S
N246 C238 1.362 . S
N246 Eu245 2.657 . S
N246 C247 1.334 . S
C247 N246 1.334 . S
C247 C249 1.413 . S
C247 H254 0.929 . S
C248 C236 1.392 . S
C248 C249 1.367 . S
C248 H256 0.930 . S
C249 C247 1.413 . S
C249 C248 1.367 . S
C249 H251 0.930 . S
H250 C243 0.930 . S
H251 C249 0.930 . S
H252 C240 0.930 . S
H253 C241 0.930 . S
H254 C247 0.929 . S
H255 C269 0.930 . S
H256 C248 0.930 . S
H257 C275 0.930 . S
H258 C266 0.961 . S
H259 C273 0.930 . S
H260 C237 0.931 . S
H261 C267 0.930 . S
H262 C300 0.930 . S
H263 C244 0.930 . S
H264 C299 0.931 . S
N265 Eu234 2.657 . S
N265 C266 1.334 . S
N265 C270 1.362 . S
C266 H258 0.961 . S
C266 N265 1.334 . S
C266 C269 1.413 . S
C267 H261 0.930 . S
C267 C268 1.392 . S
C267 C269 1.367 . S
C268 C267 1.392 . S
C268 C270 1.420 . S
C268 C300 1.423 . S
C269 H255 0.930 . S
C269 C266 1.413 . S
C269 C267 1.367 . S
C270 N265 1.362 . S
C270 C268 1.420 . S
C270 C274 1.429 . S
H271 C276 0.930 . S
N272 Eu234 2.609 . S
N272 C274 1.377 . S
N272 C275 1.321 . S
C273 H259 0.930 . S
C273 C275 1.400 . S
C273 C276 1.386 . S
C274 C270 1.429 . S
C274 N272 1.377 . S
C274 C277 1.411 . S
C275 H257 0.930 . S
C275 N272 1.321 . S
C275 C273 1.400 . S
C276 H271 0.930 . S
C276 C273 1.386 . S
C276 C277 1.395 . S
C277 C274 1.411 . S
C277 C276 1.395 . S
C277 C299 1.420 . S
O278 Eu234 2.558 . S
O278 C298 1.226 1_565 S
O279 Eu234 2.612 1_544 S
O279 Eu245 2.380 . S
O279 C290 1.276 1_554 S
O280 Eu245 2.432 . S
O280 C297 1.264 . S
O281 Eu234 2.339 1_545 S
O281 C297 1.254 1_556 S
O282 Eu234 2.563 1_545 S
O282 C290 1.235 . S
O283 Eu234 2.419 1_545 S
O283 C298 1.275 . S
O284 Eu245 2.558 . S
O284 C309 1.257 . S
O285 Eu234 2.380 1_554 S
O285 Eu245 2.612 1_565 S
O285 C301 1.276 . S
O286 Eu234 2.432 . S
O286 C308 1.265 1_556 S
O287 Eu245 2.339 1_565 S
O287 C308 1.254 . S
O288 Eu245 2.563 1_565 S
O288 C301 1.235 . S
O289 Eu245 2.419 1_565 S
O289 C309 1.249 1_565 S
C290 O279 1.276 1_556 S
C290 O282 1.235 . S
C291 C293 1.393 . S
C291 C295 1.395 1_545 S
C291 C298 1.497 . S
C292 C293 1.392 . S
C292 C294 1.386 . S
C293 C291 1.393 . S
C293 C292 1.392 . S
C293 H310 0.930 . S
C294 C292 1.386 . S
C294 C296 1.395 1_545 S
C294 H311 0.930 . S
C295 C291 1.395 1_565 S
C295 C296 1.379 . S
C295 H312 0.930 . S
C296 C294 1.395 1_565 S
C296 C295 1.379 . S
C296 H313 0.930 . S
C297 O280 1.264 . S
C297 O281 1.254 1_554 S
C298 Eu234 2.845 1_545 S
C298 O278 1.226 1_545 S
C298 O283 1.275 . S
C298 C291 1.497 . S
C299 H264 0.931 . S
C299 C277 1.420 . S
C299 C300 1.351 . S
C300 H262 0.930 . S
C300 C268 1.423 . S
C300 C299 1.351 . S
C301 O285 1.276 . S
C301 O288 1.235 . S
C302 C303 1.393 1_545 S
C302 C306 1.395 . S
C302 C309 1.492 . S
C303 C302 1.393 1_565 S
C303 C304 1.392 . S
C303 H314 0.930 . S
C304 C303 1.392 . S
C304 C305 1.386 . S
C305 C304 1.386 . S
C305 C307 1.395 1_565 S
C305 H315 0.930 . S
C306 C302 1.395 . S
C306 C307 1.379 . S
C306 H316 0.930 . S
C307 C305 1.395 1_545 S
C307 C306 1.379 . S
C307 H317 0.930 . S
C308 O286 1.265 1_554 S
C308 O287 1.254 . S
C309 Eu245 2.848 . S
C309 O284 1.257 . S
C309 O289 1.249 1_545 S
C309 C302 1.492 . S
H310 C293 0.930 . S
H311 C294 0.930 . S
H312 C295 0.930 . S
H313 C296 0.930 . S
H314 C303 0.930 . S
H315 C305 0.930 . S
H316 C306 0.930 . S
H317 C307 0.930 . S
Eu318 N349 2.657 . S
Eu318 N356 2.609 . S
Eu318 O362 2.558 . S
Eu318 O363 2.612 1_456 S
Eu318 O365 2.339 1_455 S
Eu318 O366 2.563 1_455 S
Eu318 O367 2.418 1_455 S
Eu318 O369 2.380 1_556 S
Eu318 O370 2.405 1_556 S
Eu318 C382 2.848 . S
C319 C322 1.429 . S
C319 C323 1.411 . S
C319 N326 1.377 . S
C320 C322 1.420 . S
C320 C324 1.423 . S
C320 C332 1.392 . S
C321 C323 1.420 . S
C321 C324 1.351 . S
C321 H344 0.931 . S
C322 C319 1.429 . S
C322 C320 1.420 . S
C322 N330 1.362 . S
C323 C319 1.411 . S
C323 C321 1.420 . S
C323 C328 1.395 . S
C324 C320 1.423 . S
C324 C321 1.351 . S
C324 H336 0.930 . S
C325 C327 1.400 . S
C325 C328 1.386 . S
C325 H337 0.930 . S
N326 C319 1.377 . S
N326 C327 1.321 . S
N326 Eu329 2.609 . S
C327 C325 1.400 . S
C327 N326 1.321 . S
C327 H334 0.930 . S
C328 C323 1.395 . S
C328 C325 1.386 . S
C328 H347 0.930 . S
Eu329 N326 2.609 . S
Eu329 N330 2.657 . S
Eu329 O363 2.380 . S
Eu329 O364 2.432 . S
Eu329 O368 2.558 . S
Eu329 O369 2.612 1_655 S
Eu329 O371 2.339 1_655 S
Eu329 O372 2.563 1_655 S
Eu329 O373 2.419 1_655 S
Eu329 C393 2.848 . S
N330 C322 1.362 . S
N330 Eu329 2.657 . S
N330 C331 1.334 . S
C331 N330 1.334 . S
C331 C333 1.413 . S
C331 H338 0.929 . S
C332 C320 1.392 . S
C332 C333 1.367 . S
C332 H340 0.930 . S
C333 C331 1.413 . S
C333 C332 1.367 . S
C333 H335 0.930 . S
H334 C327 0.930 . S
H335 C333 0.930 . S
H336 C324 0.930 . S
H337 C325 0.930 . S
H338 C331 0.929 . S
H339 C353 0.930 . S
H340 C332 0.930 . S
H341 C359 0.930 . S
H342 C350 0.929 . S
H343 C357 0.930 . S
H344 C321 0.931 . S
H345 C351 0.930 . S
H346 C384 0.930 . S
H347 C328 0.930 . S
H348 C383 0.931 . S
N349 Eu318 2.657 . S
N349 C350 1.334 . S
N349 C354 1.362 . S
C350 H342 0.929 . S
C350 N349 1.334 . S
C350 C353 1.413 . S
C351 H345 0.930 . S
C351 C352 1.392 . S
C351 C353 1.367 . S
C352 C351 1.392 . S
C352 C354 1.420 . S
C352 C384 1.423 . S
C353 H339 0.930 . S
C353 C350 1.413 . S
C353 C351 1.367 . S
C354 N349 1.362 . S
C354 C352 1.420 . S
C354 C358 1.429 . S
H355 C360 0.930 . S
N356 Eu318 2.609 . S
N356 C358 1.377 . S
N356 C359 1.321 . S
C357 H343 0.930 . S
C357 C359 1.400 . S
C357 C360 1.386 . S
C358 C354 1.429 . S
C358 N356 1.377 . S
C358 C361 1.411 . S
C359 H341 0.930 . S
C359 N356 1.321 . S
C359 C357 1.400 . S
C360 H355 0.930 . S
C360 C357 1.386 . S
C360 C361 1.395 . S
C361 C358 1.411 . S
C361 C360 1.395 . S
C361 C383 1.420 . S
O362 Eu318 2.558 . S
O362 C382 1.257 . S
O363 Eu318 2.612 1_654 S
O363 Eu329 2.380 . S
O363 C374 1.276 1_554 S
O364 Eu329 2.432 . S
O364 C381 1.264 . S
O365 Eu318 2.339 1_655 S
O365 C381 1.254 1_556 S
O366 Eu318 2.563 1_655 S
O366 C374 1.235 . S
O367 Eu318 2.418 1_655 S
O367 C382 1.249 1_655 S
O368 Eu329 2.558 . S
O368 C393 1.257 . S
O369 Eu318 2.380 1_554 S
O369 Eu329 2.612 1_455 S
O369 C385 1.276 . S
O370 Eu318 2.405 1_554 S
O370 C392 1.318 . S
O371 Eu329 2.339 1_455 S
O371 C392 1.254 . S
O372 Eu329 2.563 1_455 S
O372 C385 1.235 . S
O373 Eu329 2.419 1_455 S
O373 C393 1.249 1_455 S
C374 O363 1.276 1_556 S
C374 O366 1.235 . S
C375 C377 1.393 1_455 S
C375 C379 1.395 . S
C375 C382 1.492 . S
C376 C377 1.392 . S
C376 C378 1.386 . S
C377 C375 1.393 1_655 S
C377 C376 1.392 . S
C377 H394 0.930 . S
C378 C376 1.386 . S
C378 C380 1.395 1_655 S
C378 H395 0.930 . S
C379 C375 1.395 . S
C379 C380 1.379 . S
C379 H396 0.930 . S
C380 C378 1.395 1_455 S
C380 C379 1.379 . S
C380 H397 0.930 . S
C381 O364 1.264 . S
C381 O365 1.254 1_554 S
C382 Eu318 2.848 . S
C382 O362 1.257 . S
C382 O367 1.249 1_455 S
C382 C375 1.492 . S
C383 H348 0.931 . S
C383 C361 1.420 . S
C383 C384 1.351 . S
C384 H346 0.930 . S
C384 C352 1.423 . S
C384 C383 1.351 . S
C385 O369 1.276 . S
C385 O372 1.235 . S
C386 C387 1.393 . S
C386 C390 1.395 1_455 S
C386 C393 1.492 1_455 S
C387 C386 1.393 . S
C387 C388 1.392 . S
C387 H398 0.930 . S
C388 C387 1.392 . S
C388 C389 1.386 . S
C389 C388 1.386 . S
C389 C391 1.395 1_455 S
C389 H399 0.930 . S
C390 C386 1.395 1_655 S
C390 C391 1.379 . S
C390 H400 0.930 . S
C391 C389 1.395 1_655 S
C391 C390 1.379 . S
C391 H401 0.930 . S
C392 O370 1.318 . S
C392 O371 1.254 . S
C393 Eu329 2.848 . S
C393 O368 1.257 . S
C393 O373 1.249 1_655 S
C393 C386 1.492 1_655 S
H394 C377 0.930 . S
H395 C378 0.930 . S
H396 C379 0.930 . S
H397 C380 0.930 . S
H398 C387 0.930 . S
H399 C389 0.930 . S
H400 C390 0.930 . S
H401 C391 0.930 . S
Eu402 N433 2.657 . S
Eu402 N440 2.609 . S
Eu402 O446 2.558 . S
Eu402 O447 2.612 . S
Eu402 O449 2.339 . S
Eu402 O450 2.563 . S
Eu402 O451 2.419 . S
Eu402 O453 2.380 . S
Eu402 O454 2.432 . S
Eu402 C466 2.848 . S
C403 C406 1.429 . S
C403 C407 1.411 . S
C403 N410 1.377 . S
C404 C406 1.420 . S
C404 C408 1.423 . S
C404 C416 1.392 . S
C405 C407 1.420 . S
C405 C408 1.351 . S
C405 H428 0.931 . S
C406 C403 1.429 . S
C406 C404 1.420 . S
C406 N414 1.362 . S
C407 C403 1.411 . S
C407 C405 1.420 . S
C407 C412 1.395 . S
C408 C404 1.423 . S
C408 C405 1.351 . S
C408 H420 0.930 . S
C409 C411 1.400 . S
C409 C412 1.386 . S
C409 H421 0.930 . S
N410 C403 1.377 . S
N410 C411 1.321 . S
N410 Eu413 2.609 . S
C411 C409 1.400 . S
C411 N410 1.321 . S
C411 H418 0.930 . S
C412 C407 1.395 . S
C412 C409 1.386 . S
C412 H431 0.930 . S
Eu413 N410 2.609 . S
Eu413 N414 2.657 . S
Eu413 O447 2.380 1_556 S
Eu413 O448 2.432 1_556 S
Eu413 O452 2.558 . S
Eu413 O453 2.612 1_556 S
Eu413 O455 2.339 . S
Eu413 O456 2.563 . S
Eu413 O457 2.419 . S
Eu413 C477 2.848 . S
N414 C406 1.362 . S
N414 Eu413 2.657 . S
N414 C415 1.334 . S
C415 N414 1.334 . S
C415 C417 1.413 . S
C415 H422 0.929 . S
C416 C404 1.392 . S
C416 C417 1.367 . S
C416 H424 0.930 . S
C417 C415 1.413 . S
C417 C416 1.367 . S
C417 H419 0.930 . S
H418 C411 0.930 . S
H419 C417 0.930 . S
H420 C408 0.930 . S
H421 C409 0.930 . S
H422 C415 0.929 . S
H423 C437 0.930 . S
H424 C416 0.930 . S
H425 C443 0.930 . S
H426 C434 0.929 . S
H427 C441 0.930 . S
H428 C405 0.931 . S
H429 C435 0.930 . S
H430 C468 0.930 . S
H431 C412 0.930 . S
H432 C467 0.931 . S
N433 Eu402 2.657 . S
N433 C434 1.334 . S
N433 C438 1.362 . S
C434 H426 0.929 . S
C434 N433 1.334 . S
C434 C437 1.413 . S
C435 H429 0.930 . S
C435 C436 1.392 . S
C435 C437 1.367 . S
C436 C435 1.392 . S
C436 C438 1.420 . S
C436 C468 1.423 . S
C437 H423 0.930 . S
C437 C434 1.413 . S
C437 C435 1.367 . S
C438 N433 1.362 . S
C438 C436 1.420 . S
C438 C442 1.429 . S
H439 C444 0.930 . S
N440 Eu402 2.609 . S
N440 C442 1.377 . S
N440 C443 1.321 . S
C441 H427 0.930 . S
C441 C443 1.400 . S
C441 C444 1.386 . S
C442 C438 1.429 . S
C442 N440 1.377 . S
C442 C445 1.411 . S
C443 H425 0.930 . S
C443 N440 1.321 . S
C443 C441 1.400 . S
C444 H439 0.930 . S
C444 C441 1.386 . S
C444 C445 1.395 . S
C445 C442 1.411 . S
C445 C444 1.395 . S
C445 C467 1.420 . S
O446 Eu402 2.558 . S
O446 C466 1.257 . S
O447 Eu402 2.612 . S
O447 Eu413 2.380 1_554 S
O447 C458 1.276 . S
O448 Eu413 2.432 1_554 S
O448 C465 1.264 . S
O449 Eu402 2.339 . S
O449 C465 1.254 . S
O450 Eu402 2.563 . S
O450 C458 1.235 . S
O451 Eu402 2.419 . S
O451 C466 1.249 . S
O452 Eu413 2.558 . S
O452 C477 1.257 . S
O453 Eu402 2.380 . S
O453 Eu413 2.612 1_554 S
O453 C469 1.276 1_554 S
O454 Eu402 2.432 . S
O454 C476 1.264 . S
O455 Eu413 2.339 . S
O455 C476 1.254 1_556 S
O456 Eu413 2.563 . S
O456 C469 1.235 . S
O457 Eu413 2.419 . S
O457 C477 1.249 . S
C458 O447 1.276 . S
C458 O450 1.235 . S
C459 C461 1.393 . S
C459 C463 1.395 . S
C459 C466 1.492 . S
C460 C461 1.392 . S
C460 C462 1.386 . S
C461 C459 1.393 . S
C461 C460 1.392 . S
C461 H478 0.930 . S
C462 C460 1.386 . S
C462 C464 1.395 . S
C462 H479 0.930 . S
C463 C459 1.395 . S
C463 C464 1.379 . S
C463 H480 0.930 . S
C464 C462 1.395 . S
C464 C463 1.379 . S
C464 H481 0.930 . S
C465 O448 1.264 . S
C465 O449 1.254 . S
C466 Eu402 2.848 . S
C466 O446 1.257 . S
C466 O451 1.249 . S
C466 C459 1.492 . S
C467 H432 0.931 . S
C467 C445 1.420 . S
C467 C468 1.351 . S
C468 H430 0.930 . S
C468 C436 1.423 . S
C468 C467 1.351 . S
C469 O453 1.276 1_556 S
C469 O456 1.235 . S
C470 C471 1.393 . S
C470 C474 1.395 . S
C470 C477 1.492 . S
C471 C470 1.393 . S
C471 C472 1.392 . S
C471 H482 0.930 . S
C472 C471 1.392 . S
C472 C473 1.386 . S
C473 C472 1.386 . S
C473 C475 1.395 . S
C473 H483 0.930 . S
C474 C470 1.395 . S
C474 C475 1.379 . S
C474 H484 0.930 . S
C475 C473 1.395 . S
C475 C474 1.379 . S
C475 H485 0.930 . S
C476 O454 1.264 . S
C476 O455 1.254 1_554 S
C477 Eu413 2.848 . S
C477 O452 1.257 . S
C477 O457 1.249 . S
C477 C470 1.492 . S
H478 C461 0.930 . S
H479 C462 0.930 . S
H480 C463 0.930 . S
H481 C464 0.930 . S
H482 C471 0.930 . S
H483 C473 0.930 . S
H484 C474 0.930 . S
H485 C475 0.930 . S
Eu486 N517 2.657 . S
Eu486 N524 2.609 . S
Eu486 O530 2.558 . S
Eu486 O531 2.612 . S
Eu486 O533 2.339 . S
Eu486 O534 2.563 . S
Eu486 O535 2.419 . S
Eu486 O537 2.380 . S
Eu486 O538 2.432 . S
Eu486 C550 2.848 . S
C487 C490 1.429 . S
C487 C491 1.411 . S
C487 N494 1.377 . S
C488 C490 1.420 . S
C488 C492 1.423 . S
C488 C500 1.392 . S
C489 C491 1.420 . S
C489 C492 1.351 . S
C489 H512 0.931 . S
C490 C487 1.429 . S
C490 C488 1.420 . S
C490 N498 1.362 . S
C491 C487 1.411 . S
C491 C489 1.420 . S
C491 C496 1.395 . S
C492 C488 1.423 . S
C492 C489 1.351 . S
C492 H504 0.930 . S
C493 C495 1.400 . S
C493 C496 1.386 . S
C493 H505 0.930 . S
N494 C487 1.377 . S
N494 C495 1.321 . S
N494 Eu497 2.609 . S
C495 C493 1.400 . S
C495 N494 1.321 . S
C495 H502 0.930 . S
C496 C491 1.395 . S
C496 C493 1.386 . S
C496 H515 0.930 . S
Eu497 N494 2.609 . S
Eu497 N498 2.657 . S
Eu497 O531 2.380 . S
Eu497 O532 2.432 . S
Eu497 O536 2.558 . S
Eu497 O537 2.612 . S
Eu497 O539 2.339 . S
Eu497 O540 2.563 . S
Eu497 O541 2.419 . S
Eu497 C561 2.848 . S
N498 C490 1.362 . S
N498 Eu497 2.657 . S
N498 C499 1.334 . S
C499 N498 1.334 . S
C499 C501 1.413 . S
C499 H506 0.929 . S
C500 C488 1.392 . S
C500 C501 1.367 . S
C500 H508 0.930 . S
C501 C499 1.413 . S
C501 C500 1.367 . S
C501 H503 0.930 . S
H502 C495 0.930 . S
H503 C501 0.930 . S
H504 C492 0.930 . S
H505 C493 0.930 . S
H506 C499 0.929 . S
H507 C521 0.930 . S
H508 C500 0.930 . S
H509 C527 0.930 . S
H510 C518 0.929 . S
H511 C525 0.930 . S
H512 C489 0.931 . S
H513 C519 0.952 . S
H514 C552 0.930 . S
H515 C496 0.930 . S
H516 C551 0.931 . S
N517 Eu486 2.657 . S
N517 C518 1.334 . S
N517 C522 1.362 . S
C518 H510 0.929 . S
C518 N517 1.334 . S
C518 C521 1.413 . S
C519 H513 0.952 . S
C519 C520 1.392 . S
C519 C521 1.367 . S
C520 C519 1.392 . S
C520 C522 1.420 . S
C520 C552 1.423 . S
C521 H507 0.930 . S
C521 C518 1.413 . S
C521 C519 1.367 . S
C522 N517 1.362 . S
C522 C520 1.420 . S
C522 C526 1.429 . S
H523 C528 0.930 . S
N524 Eu486 2.609 . S
N524 C526 1.377 . S
N524 C527 1.321 . S
C525 H511 0.930 . S
C525 C527 1.400 . S
C525 C528 1.386 . S
C526 C522 1.429 . S
C526 N524 1.377 . S
C526 C529 1.411 . S
C527 H509 0.930 . S
C527 N524 1.321 . S
C527 C525 1.400 . S
C528 H523 0.930 . S
C528 C525 1.386 . S
C528 C529 1.395 . S
C529 C526 1.411 . S
C529 C528 1.395 . S
C529 C551 1.420 . S
O530 Eu486 2.558 . S
O530 C550 1.257 . S
O531 Eu486 2.612 . S
O531 Eu497 2.380 . S
O531 C542 1.276 . S
O532 Eu497 2.432 . S
O532 C549 1.264 . S
O533 Eu486 2.339 . S
O533 C549 1.254 . S
O534 Eu486 2.563 . S
O534 C542 1.235 . S
O535 Eu486 2.419 . S
O535 C550 1.249 . S
O536 Eu497 2.558 . S
O536 C561 1.257 . S
O537 Eu486 2.380 . S
O537 Eu497 2.612 . S
O537 C553 1.276 . S
O538 Eu486 2.432 . S
O538 C560 1.264 . S
O539 Eu497 2.339 . S
O539 C560 1.254 . S
O540 Eu497 2.563 . S
O540 C553 1.235 . S
O541 Eu497 2.419 . S
O541 C561 1.249 . S
C542 O531 1.276 . S
C542 O534 1.235 . S
C543 C545 1.393 . S
C543 C547 1.395 . S
C543 C550 1.492 . S
C544 C545 1.392 . S
C544 C546 1.386 . S
C545 C543 1.393 . S
C545 C544 1.392 . S
C545 H562 0.930 . S
C546 C544 1.386 . S
C546 C548 1.395 . S
C546 H563 0.930 . S
C547 C543 1.395 . S
C547 C548 1.379 . S
C547 H564 0.930 . S
C548 C546 1.395 . S
C548 C547 1.379 . S
C548 H565 0.930 . S
C549 O532 1.264 . S
C549 O533 1.254 . S
C550 Eu486 2.848 . S
C550 O530 1.257 . S
C550 O535 1.249 . S
C550 C543 1.492 . S
C551 H516 0.931 . S
C551 C529 1.420 . S
C551 C552 1.351 . S
C552 H514 0.930 . S
C552 C520 1.423 . S
C552 C551 1.351 . S
C553 O537 1.276 . S
C553 O540 1.235 . S
C554 C555 1.393 . S
C554 C558 1.395 . S
C554 C561 1.492 . S
C555 C554 1.393 . S
C555 C556 1.392 . S
C555 H566 0.930 . S
C556 C555 1.392 . S
C556 C557 1.386 . S
C557 C556 1.386 . S
C557 C559 1.395 . S
C557 H567 0.930 . S
C558 C554 1.395 . S
C558 C559 1.379 . S
C558 H568 0.930 . S
C559 C557 1.395 . S
C559 C558 1.379 . S
C559 H569 0.930 . S
C560 O538 1.264 . S
C560 O539 1.254 . S
C561 Eu497 2.848 . S
C561 O536 1.257 . S
C561 O541 1.249 . S
C561 C554 1.492 . S
H562 C545 0.930 . S
H563 C546 0.930 . S
H564 C547 0.930 . S
H565 C548 0.930 . S
H566 C555 0.930 . S
H567 C557 0.930 . S
H568 C558 0.930 . S
H569 C559 0.930 . S
Eu570 N601 2.657 . S
Eu570 N608 2.609 . S
Eu570 O614 2.558 . S
Eu570 O615 2.612 . S
Eu570 O617 2.339 . S
Eu570 O618 2.563 . S
Eu570 O619 2.419 . S
Eu570 O621 2.380 . S
Eu570 O622 2.432 . S
Eu570 C634 2.848 . S
C571 C574 1.429 . S
C571 C575 1.411 . S
C571 N578 1.377 . S
C572 C574 1.420 . S
C572 C576 1.423 . S
C572 C584 1.392 . S
C573 C575 1.420 . S
C573 C576 1.351 . S
C573 H596 0.931 . S
C574 C571 1.429 . S
C574 C572 1.420 . S
C574 N582 1.362 . S
C575 C571 1.411 . S
C575 C573 1.420 . S
C575 C580 1.395 . S
C576 C572 1.423 . S
C576 C573 1.351 . S
C576 H588 0.930 . S
C577 C579 1.400 . S
C577 C580 1.386 . S
C577 H589 0.930 . S
N578 C571 1.377 . S
N578 C579 1.321 . S
N578 Eu581 2.609 . S
C579 C577 1.400 . S
C579 N578 1.321 . S
C579 H586 0.930 . S
C580 C575 1.395 . S
C580 C577 1.386 . S
C580 H599 0.930 . S
Eu581 N578 2.609 . S
Eu581 N582 2.657 . S
Eu581 O615 2.380 . S
Eu581 O616 2.432 . S
Eu581 O620 2.558 . S
Eu581 O621 2.612 . S
Eu581 O623 2.339 . S
Eu581 O624 2.563 . S
Eu581 O625 2.419 . S
Eu581 C645 2.848 . S
N582 C574 1.362 . S
N582 Eu581 2.657 . S
N582 C583 1.334 . S
C583 N582 1.334 . S
C583 C585 1.413 . S
C583 H590 0.929 . S
C584 C572 1.392 . S
C584 C585 1.367 . S
C584 H592 0.930 . S
C585 C583 1.413 . S
C585 C584 1.367 . S
C585 H587 0.930 . S
H586 C579 0.930 . S
H587 C585 0.930 . S
H588 C576 0.930 . S
H589 C577 0.930 . S
H590 C583 0.929 . S
H591 C605 0.930 . S
H592 C584 0.930 . S
H593 C611 0.930 . S
H594 C602 0.929 . S
H595 C609 0.930 . S
H596 C573 0.931 . S
H597 C603 0.930 . S
H598 C636 0.930 . S
H599 C580 0.930 . S
H600 C635 0.931 . S
N601 Eu570 2.657 . S
N601 C602 1.334 . S
N601 C606 1.362 . S
C602 H594 0.929 . S
C602 N601 1.334 . S
C602 C605 1.413 . S
C603 H597 0.930 . S
C603 C604 1.392 . S
C603 C605 1.367 . S
C604 C603 1.392 . S
C604 C606 1.420 . S
C604 C636 1.423 . S
C605 H591 0.930 . S
C605 C602 1.413 . S
C605 C603 1.367 . S
C606 N601 1.362 . S
C606 C604 1.420 . S
C606 C610 1.429 . S
H607 C612 0.930 . S
N608 Eu570 2.609 . S
N608 C610 1.377 . S
N608 C611 1.321 . S
C609 H595 0.930 . S
C609 C611 1.400 . S
C609 C612 1.386 . S
C610 C606 1.429 . S
C610 N608 1.377 . S
C610 C613 1.411 . S
C611 H593 0.930 . S
C611 N608 1.321 . S
C611 C609 1.400 . S
C612 H607 0.930 . S
C612 C609 1.386 . S
C612 C613 1.395 . S
C613 C610 1.411 . S
C613 C612 1.395 . S
C613 C635 1.420 . S
O614 Eu570 2.558 . S
O614 C634 1.257 . S
O615 Eu570 2.612 . S
O615 Eu581 2.380 . S
O615 C626 1.276 . S
O616 Eu581 2.432 . S
O616 C633 1.264 . S
O617 Eu570 2.339 . S
O617 C633 1.254 . S
O618 Eu570 2.563 . S
O618 C626 1.235 . S
O619 Eu570 2.419 . S
O619 C634 1.249 . S
O620 Eu581 2.558 . S
O620 C645 1.257 . S
O621 Eu570 2.380 . S
O621 Eu581 2.612 . S
O621 C637 1.276 . S
O622 Eu570 2.432 . S
O622 C644 1.264 . S
O623 Eu581 2.339 . S
O623 C644 1.254 . S
O624 Eu581 2.563 . S
O624 C637 1.235 . S
O625 Eu581 2.419 . S
O625 C645 1.249 . S
C626 O615 1.276 . S
C626 O618 1.235 . S
C627 C629 1.393 . S
C627 C631 1.395 . S
C627 C634 1.492 . S
C628 C629 1.392 . S
C628 C630 1.386 . S
C629 C627 1.393 . S
C629 C628 1.392 . S
C629 H646 0.930 . S
C630 C628 1.386 . S
C630 C632 1.395 . S
C630 H647 0.930 . S
C631 C627 1.395 . S
C631 C632 1.379 . S
C631 H648 0.930 . S
C632 C630 1.395 . S
C632 C631 1.379 . S
C632 H649 0.930 . S
C633 O616 1.264 . S
C633 O617 1.254 . S
C634 Eu570 2.848 . S
C634 O614 1.257 . S
C634 O619 1.249 . S
C634 C627 1.492 . S
C635 H600 0.931 . S
C635 C613 1.420 . S
C635 C636 1.351 . S
C636 H598 0.930 . S
C636 C604 1.423 . S
C636 C635 1.351 . S
C637 O621 1.276 . S
C637 O624 1.235 . S
C638 C639 1.393 . S
C638 C642 1.395 . S
C638 C645 1.492 . S
C639 C638 1.393 . S
C639 C640 1.392 . S
C639 H650 0.930 . S
C640 C639 1.392 . S
C640 C641 1.386 . S
C641 C640 1.386 . S
C641 C643 1.395 . S
C641 H651 0.930 . S
C642 C638 1.395 . S
C642 C643 1.379 . S
C642 H652 0.930 . S
C643 C641 1.395 . S
C643 C642 1.379 . S
C643 H653 0.930 . S
C644 O622 1.264 . S
C644 O623 1.254 . S
C645 Eu581 2.848 . S
C645 O620 1.257 . S
C645 O625 1.249 . S
C645 C638 1.492 . S
H646 C629 0.930 . S
H647 C630 0.930 . S
H648 C631 0.930 . S
H649 C632 0.930 . S
H650 C639 0.930 . S
H651 C641 0.930 . S
H652 C642 0.930 . S
H653 C643 0.930 . S
Eu654 N685 2.657 . S
Eu654 N692 2.609 . S
Eu654 O698 2.558 . S
Eu654 O699 2.612 . S
Eu654 O701 2.339 . S
Eu654 O702 2.563 . S
Eu654 O703 2.419 . S
Eu654 O705 2.380 . S
Eu654 O706 2.432 . S
Eu654 C718 2.848 . S
C655 C658 1.429 . S
C655 C659 1.411 . S
C655 N662 1.377 . S
C656 C658 1.420 . S
C656 C660 1.423 . S
C656 C668 1.392 . S
C657 C659 1.420 . S
C657 C660 1.351 . S
C657 H680 0.931 . S
C658 C655 1.429 . S
C658 C656 1.420 . S
C658 N666 1.362 . S
C659 C655 1.411 . S
C659 C657 1.420 . S
C659 C664 1.395 . S
C660 C656 1.423 . S
C660 C657 1.351 . S
C660 H672 0.930 . S
C661 C663 1.400 . S
C661 C664 1.386 . S
C661 H673 0.930 . S
N662 C655 1.377 . S
N662 C663 1.321 . S
N662 Eu665 2.609 . S
C663 C661 1.400 . S
C663 N662 1.321 . S
C663 H670 0.930 . S
C664 C659 1.395 . S
C664 C661 1.386 . S
C664 H683 0.930 . S
Eu665 N662 2.609 . S
Eu665 N666 2.657 . S
Eu665 O699 2.380 . S
Eu665 O700 2.432 . S
Eu665 O704 2.558 . S
Eu665 O705 2.612 . S
Eu665 O707 2.339 . S
Eu665 O708 2.563 . S
Eu665 O709 2.419 . S
Eu665 C729 2.848 . S
N666 C658 1.362 . S
N666 Eu665 2.657 . S
N666 C667 1.334 . S
C667 N666 1.334 . S
C667 C669 1.413 . S
C667 H674 0.929 . S
C668 C656 1.392 . S
C668 C669 1.367 . S
C668 H676 0.930 . S
C669 C667 1.413 . S
C669 C668 1.367 . S
C669 H671 0.930 . S
H670 C663 0.930 . S
H671 C669 0.930 . S
H672 C660 0.930 . S
H673 C661 0.930 . S
H674 C667 0.929 . S
H675 C689 0.930 . S
H676 C668 0.930 . S
H677 C695 0.930 . S
H678 C686 0.929 . S
H679 C693 0.930 . S
H680 C657 0.931 . S
H681 C687 0.930 . S
H682 C720 0.930 . S
H683 C664 0.930 . S
H684 C719 0.931 . S
N685 Eu654 2.657 . S
N685 C686 1.334 . S
N685 C690 1.362 . S
C686 H678 0.929 . S
C686 N685 1.334 . S
C686 C689 1.413 . S
C687 H681 0.930 . S
C687 C688 1.392 . S
C687 C689 1.367 . S
C688 C687 1.392 . S
C688 C690 1.420 . S
C688 C720 1.423 . S
C689 H675 0.930 . S
C689 C686 1.413 . S
C689 C687 1.367 . S
C690 N685 1.362 . S
C690 C688 1.420 . S
C690 C694 1.429 . S
H691 C696 0.930 . S
N692 Eu654 2.609 . S
N692 C694 1.377 . S
N692 C695 1.321 . S
C693 H679 0.930 . S
C693 C695 1.400 . S
C693 C696 1.386 . S
C694 C690 1.429 . S
C694 N692 1.377 . S
C694 C697 1.411 . S
C695 H677 0.930 . S
C695 N692 1.321 . S
C695 C693 1.400 . S
C696 H691 0.930 . S
C696 C693 1.386 . S
C696 C697 1.395 . S
C697 C694 1.411 . S
C697 C696 1.395 . S
C697 C719 1.420 . S
O698 Eu654 2.558 . S
O698 C718 1.257 . S
O699 Eu654 2.612 . S
O699 Eu665 2.380 . S
O699 C710 1.276 . S
O700 Eu665 2.432 . S
O700 C717 1.264 . S
O701 Eu654 2.339 . S
O701 C717 1.254 . S
O702 Eu654 2.563 . S
O702 C710 1.235 . S
O703 Eu654 2.419 . S
O703 C718 1.249 . S
O704 Eu665 2.558 . S
O704 C729 1.257 . S
O705 Eu654 2.380 . S
O705 Eu665 2.612 . S
O705 C721 1.276 . S
O706 Eu654 2.432 . S
O706 C728 1.264 . S
O707 Eu665 2.339 . S
O707 C728 1.254 . S
O708 Eu665 2.563 . S
O708 C721 1.235 . S
O709 Eu665 2.419 . S
O709 C729 1.249 . S
C710 O699 1.276 . S
C710 O702 1.235 . S
C711 C713 1.393 . S
C711 C715 1.395 . S
C711 C718 1.492 . S
C712 C713 1.392 . S
C712 C714 1.386 . S
C713 C711 1.393 . S
C713 C712 1.392 . S
C713 H730 0.930 . S
C714 C712 1.386 . S
C714 C716 1.395 . S
C714 H731 0.930 . S
C715 C711 1.395 . S
C715 C716 1.379 . S
C715 H732 0.930 . S
C716 C714 1.395 . S
C716 C715 1.379 . S
C716 H733 0.930 . S
C717 O700 1.264 . S
C717 O701 1.254 . S
C718 Eu654 2.848 . S
C718 O698 1.257 . S
C718 O703 1.249 . S
C718 C711 1.492 . S
C719 H684 0.931 . S
C719 C697 1.420 . S
C719 C720 1.351 . S
C720 H682 0.930 . S
C720 C688 1.423 . S
C720 C719 1.351 . S
C721 O705 1.276 . S
C721 O708 1.235 . S
C722 C723 1.393 . S
C722 C726 1.395 . S
C722 C729 1.492 . S
C723 C722 1.393 . S
C723 C724 1.392 . S
C723 H734 0.930 . S
C724 C723 1.392 . S
C724 C725 1.386 . S
C725 C724 1.386 . S
C725 C727 1.395 . S
C725 H735 0.930 . S
C726 C722 1.395 . S
C726 C727 1.379 . S
C726 H736 0.930 . S
C727 C725 1.395 . S
C727 C726 1.379 . S
C727 H737 0.930 . S
C728 O706 1.264 . S
C728 O707 1.254 . S
C729 Eu665 2.848 . S
C729 O704 1.257 . S
C729 O709 1.249 . S
C729 C722 1.492 . S
H730 C713 0.930 . S
H731 C714 0.930 . S
H732 C715 0.930 . S
H733 C716 0.930 . S
H734 C723 0.930 . S
H735 C725 0.930 . S
H736 C726 0.930 . S
H737 C727 0.930 . S
Eu738 N769 2.657 . S
Eu738 N776 2.609 . S
Eu738 O782 2.558 . S
Eu738 O783 2.612 . S
Eu738 O785 2.339 . S
Eu738 O786 2.563 . S
Eu738 O787 2.419 . S
Eu738 O789 2.380 . S
Eu738 O790 2.432 . S
Eu738 C802 2.848 . S
C739 C742 1.429 . S
C739 C743 1.411 . S
C739 N746 1.377 . S
C740 C742 1.420 . S
C740 C744 1.423 . S
C740 C752 1.392 . S
C741 C743 1.420 . S
C741 C744 1.351 . S
C741 H764 0.931 . S
C742 C739 1.429 . S
C742 C740 1.420 . S
C742 N750 1.362 . S
C743 C739 1.411 . S
C743 C741 1.420 . S
C743 C748 1.395 . S
C744 C740 1.423 . S
C744 C741 1.351 . S
C744 H756 0.930 . S
C745 C747 1.400 . S
C745 C748 1.386 . S
C745 H757 0.930 . S
N746 C739 1.377 . S
N746 C747 1.321 . S
N746 Eu749 2.609 . S
C747 C745 1.400 . S
C747 N746 1.321 . S
C747 H754 0.930 . S
C748 C743 1.395 . S
C748 C745 1.386 . S
C748 H767 0.930 . S
Eu749 N746 2.609 . S
Eu749 N750 2.657 . S
Eu749 O783 2.380 . S
Eu749 O784 2.432 . S
Eu749 O788 2.558 . S
Eu749 O789 2.612 . S
Eu749 O791 2.339 . S
Eu749 O792 2.563 . S
Eu749 O793 2.419 . S
Eu749 C813 2.848 . S
N750 C742 1.362 . S
N750 Eu749 2.657 . S
N750 C751 1.334 . S
C751 N750 1.334 . S
C751 C753 1.413 . S
C751 H758 0.929 . S
C752 C740 1.392 . S
C752 C753 1.367 . S
C752 H760 0.930 . S
C753 C751 1.413 . S
C753 C752 1.367 . S
C753 H755 0.930 . S
H754 C747 0.930 . S
H755 C753 0.930 . S
H756 C744 0.930 . S
H757 C745 0.930 . S
H758 C751 0.929 . S
H759 C773 0.930 . S
H760 C752 0.930 . S
H761 C779 0.930 . S
H762 C770 0.929 . S
H763 C777 0.930 . S
H764 C741 0.931 . S
H765 C771 0.930 . S
H766 C804 0.930 . S
H767 C748 0.930 . S
H768 C803 0.931 . S
N769 Eu738 2.657 . S
N769 C770 1.334 . S
N769 C774 1.362 . S
C770 H762 0.929 . S
C770 N769 1.334 . S
C770 C773 1.413 . S
C771 H765 0.930 . S
C771 C772 1.392 . S
C771 C773 1.367 . S
C772 C771 1.392 . S
C772 C774 1.420 . S
C772 C804 1.423 . S
C773 H759 0.930 . S
C773 C770 1.413 . S
C773 C771 1.367 . S
C774 N769 1.362 . S
C774 C772 1.420 . S
C774 C778 1.429 . S
H775 C780 0.930 . S
N776 Eu738 2.609 . S
N776 C778 1.377 . S
N776 C779 1.321 . S
C777 H763 0.930 . S
C777 C779 1.400 . S
C777 C780 1.386 . S
C778 C774 1.429 . S
C778 N776 1.377 . S
C778 C781 1.411 . S
C779 H761 0.930 . S
C779 N776 1.321 . S
C779 C777 1.400 . S
C780 H775 0.930 . S
C780 C777 1.386 . S
C780 C781 1.395 . S
C781 C778 1.411 . S
C781 C780 1.395 . S
C781 C803 1.420 . S
O782 Eu738 2.558 . S
O782 C802 1.257 . S
O783 Eu738 2.612 . S
O783 Eu749 2.380 . S
O783 C794 1.276 . S
O784 Eu749 2.432 . S
O784 C801 1.264 . S
O785 Eu738 2.339 . S
O785 C801 1.254 . S
O786 Eu738 2.563 . S
O786 C794 1.235 . S
O787 Eu738 2.419 . S
O787 C802 1.249 . S
O788 Eu749 2.558 . S
O788 C813 1.257 . S
O789 Eu738 2.380 . S
O789 Eu749 2.612 . S
O789 C805 1.276 . S
O790 Eu738 2.432 . S
O790 C812 1.264 . S
O791 Eu749 2.339 . S
O791 C812 1.254 . S
O792 Eu749 2.563 . S
O792 C805 1.235 . S
O793 Eu749 2.419 . S
O793 C813 1.249 . S
C794 O783 1.276 . S
C794 O786 1.235 . S
C795 C797 1.393 . S
C795 C799 1.395 . S
C795 C802 1.492 . S
C796 C797 1.392 . S
C796 C798 1.386 . S
C797 C795 1.393 . S
C797 C796 1.392 . S
C797 H814 0.930 . S
C798 C796 1.386 . S
C798 C800 1.395 . S
C798 H815 0.930 . S
C799 C795 1.395 . S
C799 C800 1.379 . S
C799 H816 0.930 . S
C800 C798 1.395 . S
C800 C799 1.379 . S
C800 H817 0.930 . S
C801 O784 1.264 . S
C801 O785 1.254 . S
C802 Eu738 2.848 . S
C802 O782 1.257 . S
C802 O787 1.249 . S
C802 C795 1.492 . S
C803 H768 0.931 . S
C803 C781 1.420 . S
C803 C804 1.351 . S
C804 H766 0.930 . S
C804 C772 1.423 . S
C804 C803 1.351 . S
C805 O789 1.276 . S
C805 O792 1.235 . S
C806 C807 1.393 . S
C806 C810 1.395 . S
C806 C813 1.492 . S
C807 C806 1.393 . S
C807 C808 1.392 . S
C807 H818 0.930 . S
C808 C807 1.392 . S
C808 C809 1.386 . S
C809 C808 1.386 . S
C809 C811 1.395 . S
C809 H819 0.930 . S
C810 C806 1.395 . S
C810 C811 1.379 . S
C810 H820 0.930 . S
C811 C809 1.395 . S
C811 C810 1.379 . S
C811 H821 0.930 . S
C812 O790 1.264 . S
C812 O791 1.254 . S
C813 Eu749 2.848 . S
C813 O788 1.257 . S
C813 O793 1.249 . S
C813 C806 1.492 . S
H814 C797 0.930 . S
H815 C798 0.930 . S
H816 C799 0.930 . S
H817 C800 0.930 . S
H818 C807 0.930 . S
H819 C809 0.930 . S
H820 C810 0.930 . S
H821 C811 0.930 . S
Eu822 N853 2.657 . S
Eu822 N860 2.609 . S
Eu822 O866 2.558 . S
Eu822 O867 2.612 . S
Eu822 O869 2.339 . S
Eu822 O870 2.563 . S
Eu822 O871 2.419 . S
Eu822 O873 2.380 . S
Eu822 O874 2.432 . S
Eu822 C886 2.848 . S
C823 C826 1.429 . S
C823 C827 1.411 . S
C823 N830 1.377 . S
C824 C826 1.420 . S
C824 C828 1.423 . S
C824 C836 1.392 . S
C825 C827 1.420 . S
C825 C828 1.351 . S
C825 H848 0.931 . S
C826 C823 1.429 . S
C826 C824 1.420 . S
C826 N834 1.362 . S
C827 C823 1.411 . S
C827 C825 1.420 . S
C827 C832 1.395 . S
C828 C824 1.423 . S
C828 C825 1.351 . S
C828 H840 0.930 . S
C829 C831 1.400 . S
C829 C832 1.386 . S
C829 H841 0.930 . S
N830 C823 1.377 . S
N830 C831 1.321 . S
N830 Eu833 2.609 . S
C831 C829 1.400 . S
C831 N830 1.321 . S
C831 H838 0.930 . S
C832 C827 1.395 . S
C832 C829 1.386 . S
C832 H851 0.930 . S
Eu833 N830 2.609 . S
Eu833 N834 2.657 . S
Eu833 O867 2.380 . S
Eu833 O868 2.432 . S
Eu833 O872 2.558 . S
Eu833 O873 2.612 . S
Eu833 O875 2.339 . S
Eu833 O876 2.563 . S
Eu833 O877 2.419 . S
Eu833 C897 2.848 . S
N834 C826 1.362 . S
N834 Eu833 2.657 . S
N834 C835 1.334 . S
C835 N834 1.334 . S
C835 C837 1.413 . S
C835 H842 0.929 . S
C836 C824 1.392 . S
C836 C837 1.367 . S
C836 H844 0.930 . S
C837 C835 1.413 . S
C837 C836 1.367 . S
C837 H839 0.930 . S
H838 C831 0.930 . S
H839 C837 0.930 . S
H840 C828 0.930 . S
H841 C829 0.930 . S
H842 C835 0.929 . S
H843 C857 0.930 . S
H844 C836 0.930 . S
H845 C863 0.930 . S
H846 C854 0.929 . S
H847 C861 0.930 . S
H848 C825 0.931 . S
H849 C855 0.930 . S
H850 C888 0.930 . S
H851 C832 0.930 . S
H852 C887 0.931 . S
N853 Eu822 2.657 . S
N853 C854 1.334 . S
N853 C858 1.362 . S
C854 H846 0.929 . S
C854 N853 1.334 . S
C854 C857 1.413 . S
C855 H849 0.930 . S
C855 C856 1.392 . S
C855 C857 1.367 . S
C856 C855 1.392 . S
C856 C858 1.420 . S
C856 C888 1.423 . S
C857 H843 0.930 . S
C857 C854 1.413 . S
C857 C855 1.367 . S
C858 N853 1.362 . S
C858 C856 1.420 . S
C858 C862 1.429 . S
H859 C864 0.930 . S
N860 Eu822 2.609 . S
N860 C862 1.377 . S
N860 C863 1.321 . S
C861 H847 0.930 . S
C861 C863 1.400 . S
C861 C864 1.386 . S
C862 C858 1.429 . S
C862 N860 1.377 . S
C862 C865 1.411 . S
C863 H845 0.930 . S
C863 N860 1.321 . S
C863 C861 1.400 . S
C864 H859 0.930 . S
C864 C861 1.386 . S
C864 C865 1.395 . S
C865 C862 1.411 . S
C865 C864 1.395 . S
C865 C887 1.420 . S
O866 Eu822 2.558 . S
O866 C886 1.257 . S
O867 Eu822 2.612 . S
O867 Eu833 2.380 . S
O867 C878 1.276 . S
O868 Eu833 2.432 . S
O868 C885 1.264 . S
O869 Eu822 2.339 . S
O869 C885 1.254 . S
O870 Eu822 2.563 . S
O870 C878 1.235 . S
O871 Eu822 2.419 . S
O871 C886 1.249 . S
O872 Eu833 2.558 . S
O872 C897 1.257 . S
O873 Eu822 2.380 . S
O873 Eu833 2.612 . S
O873 C889 1.276 . S
O874 Eu822 2.432 . S
O874 C896 1.264 . S
O875 Eu833 2.339 . S
O875 C896 1.254 . S
O876 Eu833 2.563 . S
O876 C889 1.235 . S
O877 Eu833 2.419 . S
O877 C897 1.249 . S
C878 O867 1.276 . S
C878 O870 1.235 . S
C879 C881 1.393 . S
C879 C883 1.395 . S
C879 C886 1.492 . S
C880 C881 1.392 . S
C880 C882 1.386 . S
C881 C879 1.393 . S
C881 C880 1.392 . S
C881 H898 0.930 . S
C882 C880 1.386 . S
C882 C884 1.395 . S
C882 H899 0.930 . S
C883 C879 1.395 . S
C883 C884 1.379 . S
C883 H900 0.930 . S
C884 C882 1.395 . S
C884 C883 1.379 . S
C884 H901 0.930 . S
C885 O868 1.264 . S
C885 O869 1.254 . S
C886 Eu822 2.848 . S
C886 O866 1.257 . S
C886 O871 1.249 . S
C886 C879 1.492 . S
C887 H852 0.931 . S
C887 C865 1.420 . S
C887 C888 1.351 . S
C888 H850 0.930 . S
C888 C856 1.423 . S
C888 C887 1.351 . S
C889 O873 1.276 . S
C889 O876 1.235 . S
C890 C891 1.393 . S
C890 C894 1.395 . S
C890 C897 1.492 . S
C891 C890 1.393 . S
C891 C892 1.392 . S
C891 H902 0.930 . S
C892 C891 1.392 . S
C892 C893 1.386 . S
C893 C892 1.386 . S
C893 C895 1.395 . S
C893 H903 0.930 . S
C894 C890 1.395 . S
C894 C895 1.379 . S
C894 H904 0.930 . S
C895 C893 1.395 . S
C895 C894 1.379 . S
C895 H905 0.930 . S
C896 O874 1.264 . S
C896 O875 1.254 . S
C897 Eu833 2.848 . S
C897 O872 1.257 . S
C897 O877 1.249 . S
C897 C890 1.492 . S
H898 C881 0.930 . S
H899 C882 0.930 . S
H900 C883 0.930 . S
H901 C884 0.930 . S
H902 C891 0.930 . S
H903 C893 0.930 . S
H904 C894 0.930 . S
H905 C895 0.930 . S
Eu906 N937 2.657 . S
Eu906 N944 2.609 . S
Eu906 O950 2.558 . S
Eu906 O951 2.612 . S
Eu906 O953 2.339 . S
Eu906 O954 2.563 . S
Eu906 O955 2.419 . S
Eu906 O957 2.380 . S
Eu906 O958 2.432 . S
Eu906 C970 2.848 . S
C907 C910 1.429 . S
C907 C911 1.411 . S
C907 N914 1.377 . S
C908 C910 1.420 . S
C908 C912 1.423 . S
C908 C920 1.392 . S
C909 C911 1.420 . S
C909 C912 1.351 . S
C909 H932 0.931 . S
C910 C907 1.429 . S
C910 C908 1.420 . S
C910 N918 1.362 . S
C911 C907 1.411 . S
C911 C909 1.420 . S
C911 C916 1.395 . S
C912 C908 1.423 . S
C912 C909 1.351 . S
C912 H924 0.930 . S
C913 C915 1.400 . S
C913 C916 1.386 . S
C913 H925 0.930 . S
N914 C907 1.377 . S
N914 C915 1.321 . S
N914 Eu917 2.609 . S
C915 C913 1.400 . S
C915 N914 1.321 . S
C915 H922 0.930 . S
C916 C911 1.395 . S
C916 C913 1.386 . S
C916 H935 0.930 . S
Eu917 N914 2.609 . S
Eu917 N918 2.657 . S
Eu917 O951 2.380 . S
Eu917 O952 2.432 . S
Eu917 O956 2.558 . S
Eu917 O957 2.612 . S
Eu917 O959 2.339 . S
Eu917 O960 2.563 . S
Eu917 O961 2.419 . S
Eu917 C981 2.848 . S
N918 C910 1.362 . S
N918 Eu917 2.657 . S
N918 C919 1.334 . S
C919 N918 1.334 . S
C919 C921 1.413 . S
C919 H926 0.929 . S
C920 C908 1.392 . S
C920 C921 1.367 . S
C920 H928 0.930 . S
C921 C919 1.413 . S
C921 C920 1.367 . S
C921 H923 0.930 . S
H922 C915 0.930 . S
H923 C921 0.930 . S
H924 C912 0.930 . S
H925 C913 0.930 . S
H926 C919 0.929 . S
H927 C941 0.930 . S
H928 C920 0.930 . S
H929 C947 0.930 . S
H930 C938 0.929 . S
H931 C945 0.930 . S
H932 C909 0.931 . S
H933 C939 0.930 1_455 S
H934 C972 0.930 1_455 S
H935 C916 0.930 . S
H936 C971 0.931 . S
N937 Eu906 2.657 . S
N937 C938 1.334 . S
N937 C942 1.362 . S
C938 H930 0.929 . S
C938 N937 1.334 . S
C938 C941 1.413 . S
C939 H933 0.930 1_655 S
C939 C940 1.392 . S
C939 C941 1.367 . S
C940 C939 1.392 . S
C940 C942 1.420 . S
C940 C972 1.423 . S
C941 H927 0.930 . S
C941 C938 1.413 . S
C941 C939 1.367 . S
C942 N937 1.362 . S
C942 C940 1.420 . S
C942 C946 1.429 . S
H943 C948 0.930 . S
N944 Eu906 2.609 . S
N944 C946 1.377 . S
N944 C947 1.321 . S
C945 H931 0.930 . S
C945 C947 1.400 . S
C945 C948 1.386 . S
C946 C942 1.429 . S
C946 N944 1.377 . S
C946 C949 1.411 . S
C947 H929 0.930 . S
C947 N944 1.321 . S
C947 C945 1.400 . S
C948 H943 0.930 . S
C948 C945 1.386 . S
C948 C949 1.395 . S
C949 C946 1.411 . S
C949 C948 1.395 . S
C949 C971 1.420 . S
O950 Eu906 2.558 . S
O950 C970 1.257 . S
O951 Eu906 2.612 . S
O951 Eu917 2.380 . S
O951 C962 1.276 . S
O952 Eu917 2.432 . S
O952 C969 1.264 . S
O953 Eu906 2.339 . S
O953 C969 1.254 . S
O954 Eu906 2.563 . S
O954 C962 1.235 . S
O955 Eu906 2.419 . S
O955 C970 1.249 . S
O956 Eu917 2.558 . S
O956 C981 1.257 . S
O957 Eu906 2.380 . S
O957 Eu917 2.612 . S
O957 C973 1.276 . S
O958 Eu906 2.432 . S
O958 C980 1.264 . S
O959 Eu917 2.339 . S
O959 C980 1.254 . S
O960 Eu917 2.563 . S
O960 C973 1.235 . S
O961 Eu917 2.419 . S
O961 C981 1.249 . S
C962 O951 1.276 . S
C962 O954 1.235 . S
C963 C965 1.393 . S
C963 C967 1.395 . S
C963 C970 1.492 . S
C964 C965 1.392 . S
C964 C966 1.386 . S
C965 C963 1.393 . S
C965 C964 1.392 . S
C965 H982 0.930 . S
C966 C964 1.386 . S
C966 C968 1.395 . S
C966 H983 0.930 . S
C967 C963 1.395 . S
C967 C968 1.379 . S
C967 H984 0.930 . S
C968 C966 1.395 . S
C968 C967 1.379 . S
C968 H985 0.930 . S
C969 O952 1.264 . S
C969 O953 1.254 . S
C970 Eu906 2.848 . S
C970 O950 1.257 . S
C970 O955 1.249 . S
C970 C963 1.492 . S
C971 H936 0.931 . S
C971 C949 1.420 . S
C971 C972 1.351 . S
C972 H934 0.930 1_655 S
C972 C940 1.423 . S
C972 C971 1.351 . S
C973 O957 1.276 . S
C973 O960 1.235 . S
C974 C975 1.393 . S
C974 C978 1.395 . S
C974 C981 1.492 . S
C975 C974 1.393 . S
C975 C976 1.392 . S
C975 H986 0.930 . S
C976 C975 1.392 . S
C976 C977 1.386 . S
C977 C976 1.386 . S
C977 C979 1.395 . S
C977 H987 0.930 . S
C978 C974 1.395 . S
C978 C979 1.379 . S
C978 H988 0.930 . S
C979 C977 1.395 . S
C979 C978 1.379 . S
C979 H989 0.930 . S
C980 O958 1.264 . S
C980 O959 1.254 . S
C981 Eu917 2.848 . S
C981 O956 1.257 . S
C981 O961 1.249 . S
C981 C974 1.492 . S
H982 C965 0.930 . S
H983 C966 0.930 . S
H984 C967 0.930 . S
H985 C968 0.930 . S
H986 C975 0.930 . S
H987 C977 0.930 . S
H988 C978 0.930 . S
H989 C979 0.930 . S
H990 C996 0.930 . S
H991 C1000 0.930 . S
H992 C1005 0.929 . S
H993 C1003 0.900 1_556 S
H994 C998 0.929 . S
H995 C1004 0.929 . S
C996 H990 0.930 . S
C996 C997 1.367 . S
C996 C1004 1.378 . S
C997 C996 1.367 . S
C997 C1005 1.433 . S
C998 H994 0.929 . S
C998 C1000 1.378 . S
C998 C1002 1.350 . S
C999 C1002 1.463 . S
C999 C1004 1.350 . S
C999 N1007 1.427 . S
C1000 H991 0.930 . S
C1000 C998 1.378 . S
C1000 C1001 1.367 . S
C1001 C1000 1.367 . S
C1001 C1003 1.433 . S
C1002 C998 1.350 . S
C1002 C999 1.463 . S
C1002 N1006 1.427 . S
C1003 H993 0.900 1_554 S
C1003 C1001 1.433 . S
C1003 N1006 1.384 . S
C1004 H995 0.929 . S
C1004 C996 1.378 . S
C1004 C999 1.350 . S
C1005 H992 0.929 . S
C1005 C997 1.433 . S
C1005 N1007 1.384 . S
N1006 C1002 1.427 . S
N1006 C1003 1.384 . S
N1007 C999 1.427 . S
N1007 C1005 1.384 . S
H1008 C1014 0.930 . S
H1009 C1018 0.930 . S
H1010 C1023 0.929 . S
H1011 C1021 0.929 . S
H1012 C1016 0.929 . S
H1013 C1022 0.929 . S
C1014 H1008 0.930 . S
C1014 C1015 1.367 . S
C1014 C1022 1.378 . S
C1015 C1014 1.367 . S
C1015 C1023 1.433 . S
C1016 H1012 0.929 . S
C1016 C1018 1.378 . S
C1016 C1020 1.350 . S
C1017 C1020 1.463 . S
C1017 C1022 1.350 . S
C1017 N1025 1.427 . S
C1018 H1009 0.930 . S
C1018 C1016 1.378 . S
C1018 C1019 1.367 . S
C1019 C1018 1.367 . S
C1019 C1021 1.433 . S
C1020 C1016 1.350 . S
C1020 C1017 1.463 . S
C1020 N1024 1.427 . S
C1021 H1011 0.929 . S
C1021 C1019 1.433 . S
C1021 N1024 1.384 . S
C1022 H1013 0.929 . S
C1022 C1014 1.378 . S
C1022 C1017 1.350 . S
C1023 H1010 0.929 . S
C1023 C1015 1.433 . S
C1023 N1025 1.384 . S
N1024 C1020 1.427 . S
N1024 C1021 1.384 . S
N1025 C1017 1.427 . S
N1025 C1023 1.384 . S
H1026 C1032 0.930 . S
H1027 C1036 0.930 . S
H1028 C1041 0.929 . S
H1029 C1039 0.929 . S
H1030 C1034 0.929 . S
H1031 C1040 0.929 . S
C1032 H1026 0.930 . S
C1032 C1033 1.367 . S
C1032 C1040 1.378 . S
C1033 C1032 1.367 . S
C1033 C1041 1.433 . S
C1034 H1030 0.929 . S
C1034 C1036 1.378 . S
C1034 C1038 1.350 . S
C1035 C1038 1.463 . S
C1035 C1040 1.350 . S
C1035 N1043 1.427 . S
C1036 H1027 0.930 . S
C1036 C1034 1.378 . S
C1036 C1037 1.367 . S
C1037 C1036 1.367 . S
C1037 C1039 1.433 . S
C1038 C1034 1.350 . S
C1038 C1035 1.463 . S
C1038 N1042 1.427 . S
C1039 H1029 0.929 . S
C1039 C1037 1.433 . S
C1039 N1042 1.384 . S
C1040 H1031 0.929 . S
C1040 C1032 1.378 . S
C1040 C1035 1.350 . S
C1041 H1028 0.929 . S
C1041 C1033 1.433 . S
C1041 N1043 1.384 . S
N1042 C1038 1.427 . S
N1042 C1039 1.384 . S
N1043 C1035 1.427 . S
N1043 C1041 1.384 . S
H1044 C1050 0.930 . S
H1045 C1054 0.911 1_554 S
H1046 C1059 0.929 . S
H1047 C1057 0.929 . S
H1048 C1052 0.929 . S
H1049 C1058 0.929 . S
C1050 H1044 0.930 . S
C1050 C1051 1.367 . S
C1050 C1058 1.378 . S
C1051 C1050 1.367 . S
C1051 C1059 1.433 . S
C1052 H1048 0.929 . S
C1052 C1054 1.389 . S
C1052 C1056 1.350 . S
C1053 C1056 1.463 . S
C1053 C1058 1.350 . S
C1053 N1061 1.427 . S
C1054 H1045 0.911 1_556 S
C1054 C1052 1.389 . S
C1054 C1055 1.376 . S
C1055 C1054 1.376 . S
C1055 C1057 1.433 . S
C1056 C1052 1.350 . S
C1056 C1053 1.463 . S
C1056 N1060 1.427 . S
C1057 H1047 0.929 . S
C1057 C1055 1.433 . S
C1057 N1060 1.384 . S
C1058 H1049 0.929 . S
C1058 C1050 1.378 . S
C1058 C1053 1.350 . S
C1059 H1046 0.929 . S
C1059 C1051 1.433 . S
C1059 N1061 1.384 . S
N1060 C1056 1.427 . S
N1060 C1057 1.384 . S
N1061 C1053 1.427 . S
N1061 C1059 1.384 . S
H1062 C1068 0.930 . S
H1063 C1072 0.930 1_554 S
H1064 C1077 0.929 . S
H1065 C1075 0.929 . S
H1066 C1070 0.929 . S
H1067 C1076 0.929 . S
C1068 H1062 0.930 . S
C1068 C1069 1.367 . S
C1068 C1076 1.378 . S
C1069 C1068 1.367 . S
C1069 C1077 1.433 . S
C1070 H1066 0.929 . S
C1070 C1072 1.378 . S
C1070 C1074 1.350 . S
C1071 C1074 1.463 . S
C1071 C1076 1.350 . S
C1071 N1079 1.427 . S
C1072 H1063 0.930 1_556 S
C1072 C1070 1.378 . S
C1072 C1073 1.367 . S
C1073 C1072 1.367 . S
C1073 C1075 1.433 . S
C1074 C1070 1.350 . S
C1074 C1071 1.463 . S
C1074 N1078 1.427 . S
C1075 H1065 0.929 . S
C1075 C1073 1.433 . S
C1075 N1078 1.384 . S
C1076 H1067 0.929 . S
C1076 C1068 1.378 . S
C1076 C1071 1.350 . S
C1077 H1064 0.929 . S
C1077 C1069 1.433 . S
C1077 N1079 1.384 . S
N1078 C1074 1.427 . S
N1078 C1075 1.384 . S
N1079 C1071 1.427 . S
N1079 C1077 1.384 . S
H1080 C1086 0.930 . S
H1081 C1090 0.930 . S
H1082 C1095 0.929 . S
H1083 C1093 0.929 . S
H1084 C1088 0.929 . S
H1085 C1094 0.929 . S
C1086 H1080 0.930 . S
C1086 C1087 1.367 . S
C1086 C1094 1.378 . S
C1087 C1086 1.367 . S
C1087 C1095 1.433 . S
C1088 H1084 0.929 . S
C1088 C1090 1.378 . S
C1088 C1092 1.350 1_554 S
C1089 C1092 1.463 . S
C1089 C1094 1.350 . S
C1089 N1097 1.427 . S
C1090 H1081 0.930 . S
C1090 C1088 1.378 . S
C1090 C1091 1.367 1_554 S
C1091 C1090 1.367 1_556 S
C1091 C1093 1.433 . S
C1092 C1088 1.350 1_556 S
C1092 C1089 1.463 . S
C1092 N1096 1.427 . S
C1093 H1083 0.929 . S
C1093 C1091 1.433 . S
C1093 N1096 1.384 . S
C1094 H1085 0.929 . S
C1094 C1086 1.378 . S
C1094 C1089 1.350 . S
C1095 H1082 0.929 . S
C1095 C1087 1.433 . S
C1095 N1097 1.384 . S
N1096 C1092 1.427 . S
N1096 C1093 1.384 . S
N1097 C1089 1.427 . S
N1097 C1095 1.384 . S
H1098 C1104 0.911 1_554 S
H1099 C1108 0.930 . S
H1100 C1113 0.929 . S
H1101 C1111 0.929 . S
H1102 C1106 0.929 . S
H1103 C1112 0.929 1_554 S
C1104 H1098 0.911 1_556 S
C1104 C1105 1.367 . S
C1104 C1112 1.378 . S
C1105 C1104 1.367 . S
C1105 C1113 1.433 . S
C1106 H1102 0.929 . S
C1106 C1108 1.378 . S
C1106 C1110 1.350 . S
C1107 C1110 1.463 . S
C1107 C1112 1.350 . S
C1107 N1115 1.427 . S
C1108 H1099 0.930 . S
C1108 C1106 1.378 . S
C1108 C1109 1.367 . S
C1109 C1108 1.367 . S
C1109 C1111 1.433 1_556 S
C1110 C1106 1.350 . S
C1110 C1107 1.463 . S
C1110 N1114 1.427 1_556 S
C1111 H1101 0.929 . S
C1111 C1109 1.433 1_554 S
C1111 N1114 1.384 . S
C1112 H1103 0.929 1_556 S
C1112 C1104 1.378 . S
C1112 C1107 1.350 . S
C1113 H1100 0.929 . S
C1113 C1105 1.433 . S
C1113 N1115 1.384 . S
N1114 C1110 1.427 1_554 S
N1114 C1111 1.384 . S
N1115 C1107 1.427 . S
N1115 C1113 1.384 . S
H1116 C1122 0.930 . S
H1117 C1126 0.930 . S
H1118 C1131 0.929 . S
H1119 C1129 0.929 . S
H1120 C1124 0.929 . S
H1121 C1130 0.926 1_554 S
C1122 H1116 0.930 . S
C1122 C1123 1.367 . S
C1122 C1130 1.378 . S
C1123 C1122 1.367 . S
C1123 C1131 1.433 . S
C1124 H1120 0.929 . S
C1124 C1126 1.378 . S
C1124 C1128 1.350 . S
C1125 C1128 1.463 . S
C1125 C1130 1.350 . S
C1125 N1133 1.427 . S
C1126 H1117 0.930 . S
C1126 C1124 1.378 . S
C1126 C1127 1.367 . S
C1127 C1126 1.367 . S
C1127 C1129 1.433 1_556 S
C1128 C1124 1.350 . S
C1128 C1125 1.463 . S
C1128 N1132 1.438 . S
C1129 H1119 0.929 . S
C1129 C1127 1.433 1_554 S
C1129 N1132 1.380 1_554 S
C1130 H1121 0.926 1_556 S
C1130 C1122 1.378 . S
C1130 C1125 1.350 . S
C1131 H1118 0.929 . S
C1131 C1123 1.433 . S
C1131 N1133 1.384 . S
N1132 C1128 1.438 . S
N1132 C1129 1.380 1_556 S
N1133 C1125 1.427 . S
N1133 C1131 1.384 . S
H1134 C1140 0.930 . S
H1135 C1144 0.930 . S
H1136 C1149 0.929 . S
H1137 C1147 0.929 . S
H1138 C1142 0.929 . S
H1139 C1148 0.929 1_554 S
C1140 H1134 0.930 . S
C1140 C1141 1.367 . S
C1140 C1148 1.378 . S
C1141 C1140 1.367 . S
C1141 C1149 1.433 . S
C1142 H1138 0.929 . S
C1142 C1144 1.378 . S
C1142 C1146 1.350 . S
C1143 C1146 1.463 . S
C1143 C1148 1.350 . S
C1143 N1151 1.427 . S
C1144 H1135 0.930 . S
C1144 C1142 1.378 . S
C1144 C1145 1.367 . S
C1145 C1144 1.367 . S
C1145 C1147 1.433 1_556 S
C1146 C1142 1.350 . S
C1146 C1143 1.463 . S
C1146 N1150 1.427 1_556 S
C1147 H1137 0.929 . S
C1147 C1145 1.433 1_554 S
C1147 N1150 1.384 . S
C1148 H1139 0.929 1_556 S
C1148 C1140 1.378 . S
C1148 C1143 1.350 . S
C1149 H1136 0.929 . S
C1149 C1141 1.433 . S
C1149 N1151 1.384 . S
N1150 C1146 1.427 1_554 S
N1150 C1147 1.384 . S
N1151 C1143 1.427 . S
N1151 C1149 1.384 . S
H1152 C1158 0.930 . S
H1153 C1162 0.930 . S
H1154 C1167 0.929 . S
H1155 C1165 0.929 . S
H1156 C1160 0.929 . S
H1157 C1166 0.929 . S
C1158 H1152 0.930 . S
C1158 C1159 1.367 . S
C1158 C1166 1.378 . S
C1159 C1158 1.367 . S
C1159 C1167 1.433 . S
C1160 H1156 0.929 . S
C1160 C1162 1.378 . S
C1160 C1164 1.350 . S
C1161 C1164 1.463 . S
C1161 C1166 1.350 . S
C1161 N1169 1.427 . S
C1162 H1153 0.930 . S
C1162 C1160 1.378 . S
C1162 C1163 1.367 . S
C1163 C1162 1.367 . S
C1163 C1165 1.433 . S
C1164 C1160 1.350 . S
C1164 C1161 1.463 . S
C1164 N1168 1.427 . S
C1165 H1155 0.929 . S
C1165 C1163 1.433 . S
C1165 N1168 1.384 . S
C1166 H1157 0.929 . S
C1166 C1158 1.378 . S
C1166 C1161 1.350 . S
C1167 H1154 0.929 . S
C1167 C1159 1.433 . S
C1167 N1169 1.384 . S
N1168 C1164 1.427 . S
N1168 C1165 1.384 . S
N1169 C1161 1.427 . S
N1169 C1167 1.384 . S
H1170 C1176 0.930 . S
H1171 C1180 0.930 . S
H1172 C1185 0.929 . S
H1173 C1183 0.929 . S
H1174 C1178 0.929 . S
H1175 C1184 0.929 . S
C1176 H1170 0.930 . S
C1176 C1177 1.367 . S
C1176 C1184 1.378 . S
C1177 C1176 1.367 . S
C1177 C1185 1.433 . S
C1178 H1174 0.929 . S
C1178 C1180 1.378 . S
C1178 C1182 1.350 . S
C1179 C1182 1.463 . S
C1179 C1184 1.350 . S
C1179 N1187 1.427 . S
C1180 H1171 0.930 . S
C1180 C1178 1.378 . S
C1180 C1181 1.367 . S
C1181 C1180 1.367 . S
C1181 C1183 1.433 . S
C1182 C1178 1.350 . S
C1182 C1179 1.463 . S
C1182 N1186 1.427 . S
C1183 H1173 0.929 . S
C1183 C1181 1.433 . S
C1183 N1186 1.384 . S
C1184 H1175 0.929 . S
C1184 C1176 1.378 . S
C1184 C1179 1.350 . S
C1185 H1172 0.929 . S
C1185 C1177 1.433 . S
C1185 N1187 1.384 . S
N1186 C1182 1.427 . S
N1186 C1183 1.384 . S
N1187 C1179 1.427 . S
N1187 C1185 1.384 . S
H1188 C1194 0.930 . S
H1189 C1198 0.930 . S
H1190 C1203 0.929 . S
H1191 C1201 0.929 . S
H1192 C1196 0.929 . S
H1193 C1202 0.929 . S
C1194 H1188 0.930 . S
C1194 C1195 1.367 . S
C1194 C1202 1.378 . S
C1195 C1194 1.367 . S
C1195 C1203 1.433 . S
C1196 H1192 0.929 . S
C1196 C1198 1.378 . S
C1196 C1200 1.350 . S
C1197 C1200 1.463 . S
C1197 C1202 1.350 . S
C1197 N1205 1.427 . S
C1198 H1189 0.930 . S
C1198 C1196 1.378 . S
C1198 C1199 1.367 . S
C1199 C1198 1.367 . S
C1199 C1201 1.433 . S
C1200 C1196 1.350 . S
C1200 C1197 1.463 . S
C1200 N1204 1.427 . S
C1201 H1191 0.929 . S
C1201 C1199 1.433 . S
C1201 N1204 1.384 . S
C1202 H1193 0.929 . S
C1202 C1194 1.378 . S
C1202 C1197 1.350 . S
C1203 H1190 0.929 . S
C1203 C1195 1.433 . S
C1203 N1205 1.384 . S
N1204 C1200 1.427 . S
N1204 C1201 1.384 . S
N1205 C1197 1.427 . S
N1205 C1203 1.384 . S
H1206 C1212 0.930 . S
H1207 C1216 0.930 . S
H1208 C1221 0.929 . S
H1209 C1219 0.929 . S
H1210 C1214 0.929 . S
H1211 C1220 0.937 . S
C1212 H1206 0.930 . S
C1212 C1213 1.367 . S
C1212 C1220 1.378 . S
C1213 C1212 1.367 . S
C1213 C1221 1.433 . S
C1214 H1210 0.929 . S
C1214 C1216 1.378 . S
C1214 C1218 1.350 . S
C1215 C1218 1.463 1_655 S
C1215 C1220 1.350 . S
C1215 N1223 1.427 . S
C1216 H1207 0.930 . S
C1216 C1214 1.378 . S
C1216 C1217 1.367 . S
C1217 C1216 1.367 . S
C1217 C1219 1.433 . S
C1218 C1214 1.350 . S
C1218 C1215 1.463 1_455 S
C1218 N1222 1.427 . S
C1219 H1209 0.929 . S
C1219 C1217 1.433 . S
C1219 N1222 1.384 . S
C1220 H1211 0.937 . S
C1220 C1212 1.378 . S
C1220 C1215 1.350 . S
C1221 H1208 0.929 . S
C1221 C1213 1.433 . S
C1221 N1223 1.384 . S
N1222 C1218 1.427 . S
N1222 C1219 1.384 . S
N1223 C1215 1.427 . S
N1223 C1221 1.384 . S
H1224 C1230 0.930 . S
H1225 C1234 0.930 . S
H1226 C1239 0.929 . S
H1227 C1237 0.929 . S
H1228 C1232 0.929 . S
H1229 C1238 0.929 . S
C1230 H1224 0.930 . S
C1230 C1231 1.367 . S
C1230 C1238 1.378 . S
C1231 C1230 1.367 . S
C1231 C1239 1.433 . S
C1232 H1228 0.929 . S
C1232 C1234 1.378 . S
C1232 C1236 1.350 . S
C1233 C1236 1.463 . S
C1233 C1238 1.350 . S
C1233 N1241 1.427 . S
C1234 H1225 0.930 . S
C1234 C1232 1.378 . S
C1234 C1235 1.367 . S
C1235 C1234 1.367 . S
C1235 C1237 1.433 . S
C1236 C1232 1.350 . S
C1236 C1233 1.463 . S
C1236 N1240 1.427 . S
C1237 H1227 0.929 . S
C1237 C1235 1.433 . S
C1237 N1240 1.384 . S
C1238 H1229 0.929 . S
C1238 C1230 1.378 . S
C1238 C1233 1.350 . S
C1239 H1226 0.929 . S
C1239 C1231 1.433 . S
C1239 N1241 1.384 . S
N1240 C1236 1.427 . S
N1240 C1237 1.384 . S
N1241 C1233 1.427 . S
N1241 C1239 1.384 . S
H1242 C1248 0.930 . S
H1243 C1252 0.930 . S
H1244 C1257 0.929 . S
H1245 C1255 0.929 . S
H1246 C1250 0.929 1_545 S
H1247 C1256 0.929 . S
C1248 H1242 0.930 . S
C1248 C1249 1.367 . S
C1248 C1256 1.378 . S
C1249 C1248 1.367 . S
C1249 C1257 1.433 . S
C1250 H1246 0.929 1_565 S
C1250 C1252 1.378 . S
C1250 C1254 1.350 . S
C1251 C1254 1.463 1_545 S
C1251 C1256 1.350 . S
C1251 N1259 1.427 . S
C1252 H1243 0.930 . S
C1252 C1250 1.378 . S
C1252 C1253 1.367 . S
C1253 C1252 1.367 . S
C1253 C1255 1.433 . S
C1254 C1250 1.350 . S
C1254 C1251 1.463 1_565 S
C1254 N1258 1.427 . S
C1255 H1245 0.929 . S
C1255 C1253 1.433 . S
C1255 N1258 1.384 . S
C1256 H1247 0.929 . S
C1256 C1248 1.378 . S
C1256 C1251 1.350 . S
C1257 H1244 0.929 . S
C1257 C1249 1.433 . S
C1257 N1259 1.384 . S
N1258 C1254 1.427 . S
N1258 C1255 1.384 . S
N1259 C1251 1.427 . S
N1259 C1257 1.384 . S
H1260 C1266 0.930 . S
H1261 C1270 0.930 . S
H1262 C1275 0.929 . S
H1263 C1273 0.929 . S
H1264 C1268 0.929 . S
H1265 C1274 0.929 . S
C1266 H1260 0.930 . S
C1266 C1267 1.367 . S
C1266 C1274 1.378 . S
C1267 C1266 1.367 . S
C1267 C1275 1.433 . S
C1268 H1264 0.929 . S
C1268 C1270 1.378 . S
C1268 C1272 1.350 . S
C1269 C1272 1.463 . S
C1269 C1274 1.350 . S
C1269 N1277 1.427 . S
C1270 H1261 0.930 . S
C1270 C1268 1.378 . S
C1270 C1271 1.367 . S
C1271 C1270 1.367 . S
C1271 C1273 1.433 . S
C1272 C1268 1.350 . S
C1272 C1269 1.463 . S
C1272 N1276 1.427 . S
C1273 H1263 0.929 . S
C1273 C1271 1.433 . S
C1273 N1276 1.384 . S
C1274 H1265 0.929 . S
C1274 C1266 1.378 . S
C1274 C1269 1.350 . S
C1275 H1262 0.929 . S
C1275 C1267 1.433 . S
C1275 N1277 1.384 . S
N1276 C1272 1.427 . S
N1276 C1273 1.384 . S
N1277 C1269 1.427 . S
N1277 C1275 1.384 . S
H1278 C1284 0.930 . S
H1279 C1288 0.930 . S
H1280 C1293 0.929 . S
H1281 C1291 0.929 . S
H1282 C1286 0.929 . S
H1283 C1292 0.929 . S
C1284 H1278 0.930 . S
C1284 C1285 1.367 . S
C1284 C1292 1.378 . S
C1285 C1284 1.367 . S
C1285 C1293 1.433 . S
C1286 H1282 0.929 . S
C1286 C1288 1.378 . S
C1286 C1290 1.350 . S
C1287 C1290 1.463 . S
C1287 C1292 1.350 . S
C1287 N1295 1.427 . S
C1288 H1279 0.930 . S
C1288 C1286 1.378 . S
C1288 C1289 1.367 . S
C1289 C1288 1.367 . S
C1289 C1291 1.433 . S
C1290 C1286 1.350 . S
C1290 C1287 1.463 . S
C1290 N1294 1.427 . S
C1291 H1281 0.929 . S
C1291 C1289 1.433 . S
C1291 N1294 1.384 . S
C1292 H1283 0.929 . S
C1292 C1284 1.378 . S
C1292 C1287 1.350 . S
C1293 H1280 0.929 . S
C1293 C1285 1.433 . S
C1293 N1295 1.384 . S
N1294 C1290 1.427 . S
N1294 C1291 1.384 . S
N1295 C1287 1.427 . S
N1295 C1293 1.384 . S
H1296 C1302 0.930 . S
H1297 C1306 0.930 . S
H1298 C1311 0.929 . S
H1299 C1309 0.929 . S
H1300 C1304 0.929 . S
H1301 C1310 0.929 . S
C1302 H1296 0.930 . S
C1302 C1303 1.367 . S
C1302 C1310 1.378 . S
C1303 C1302 1.367 . S
C1303 C1311 1.433 . S
C1304 H1300 0.929 . S
C1304 C1306 1.378 . S
C1304 C1308 1.350 . S
C1305 C1308 1.463 . S
C1305 C1310 1.350 . S
C1305 N1313 1.427 . S
C1306 H1297 0.930 . S
C1306 C1304 1.378 . S
C1306 C1307 1.367 . S
C1307 C1306 1.367 . S
C1307 C1309 1.433 . S
C1308 C1304 1.350 . S
C1308 C1305 1.463 . S
C1308 N1312 1.427 . S
C1309 H1299 0.929 . S
C1309 C1307 1.433 . S
C1309 N1312 1.384 . S
C1310 H1301 0.929 . S
C1310 C1302 1.378 . S
C1310 C1305 1.350 . S
C1311 H1298 0.929 . S
C1311 C1303 1.433 . S
C1311 N1313 1.384 . S
N1312 C1308 1.427 . S
N1312 C1309 1.384 . S
N1313 C1305 1.427 . S
N1313 C1311 1.384 . S
H1314 C1320 0.930 . S
H1315 C1324 0.930 . S
H1316 C1329 0.929 . S
H1317 C1327 0.929 . S
H1318 C1322 0.929 . S
H1319 C1328 0.929 . S
C1320 H1314 0.930 . S
C1320 C1321 1.367 . S
C1320 C1328 1.378 . S
C1321 C1320 1.367 . S
C1321 C1329 1.433 . S
C1322 H1318 0.929 . S
C1322 C1324 1.378 . S
C1322 C1326 1.350 . S
C1323 C1326 1.463 . S
C1323 C1328 1.350 . S
C1323 N1331 1.427 . S
C1324 H1315 0.930 . S
C1324 C1322 1.378 . S
C1324 C1325 1.367 . S
C1325 C1324 1.367 . S
C1325 C1327 1.433 . S
C1326 C1322 1.350 . S
C1326 C1323 1.463 . S
C1326 N1330 1.427 . S
C1327 H1317 0.929 . S
C1327 C1325 1.433 . S
C1327 N1330 1.384 . S
C1328 H1319 0.929 . S
C1328 C1320 1.378 . S
C1328 C1323 1.350 . S
C1329 H1316 0.929 . S
C1329 C1321 1.433 . S
C1329 N1331 1.384 . S
N1330 C1326 1.427 . S
N1330 C1327 1.384 . S
N1331 C1323 1.427 . S
N1331 C1329 1.384 . S
H1332 C1338 0.930 . S
H1333 C1342 0.930 . S
H1334 C1347 0.929 . S
H1335 C1345 0.929 . S
H1336 C1340 0.929 . S
H1337 C1346 0.929 . S
C1338 H1332 0.930 . S
C1338 C1339 1.367 . S
C1338 C1346 1.378 . S
C1339 C1338 1.367 . S
C1339 C1347 1.433 . S
C1340 H1336 0.929 . S
C1340 C1342 1.378 . S
C1340 C1344 1.350 . S
C1341 C1344 1.463 . S
C1341 C1346 1.350 . S
C1341 N1349 1.427 . S
C1342 H1333 0.930 . S
C1342 C1340 1.378 . S
C1342 C1343 1.367 . S
C1343 C1342 1.367 . S
C1343 C1345 1.433 . S
C1344 C1340 1.350 . S
C1344 C1341 1.463 . S
C1344 N1348 1.427 . S
C1345 H1335 0.929 . S
C1345 C1343 1.433 . S
C1345 N1348 1.384 . S
C1346 H1337 0.929 . S
C1346 C1338 1.378 . S
C1346 C1341 1.350 . S
C1347 H1334 0.929 . S
C1347 C1339 1.433 . S
C1347 N1349 1.384 . S
N1348 C1344 1.427 . S
N1348 C1345 1.384 . S
N1349 C1341 1.427 . S
N1349 C1347 1.384 . S
H1350 C1356 0.930 . S
H1351 C1360 0.930 . S
H1352 C1365 0.929 . S
H1353 C1363 0.929 . S
H1354 C1358 0.929 . S
H1355 C1364 0.929 . S
C1356 H1350 0.930 . S
C1356 C1357 1.367 . S
C1356 C1364 1.378 . S
C1357 C1356 1.367 . S
C1357 C1365 1.433 . S
C1358 H1354 0.929 . S
C1358 C1360 1.378 . S
C1358 C1362 1.350 . S
C1359 C1362 1.463 . S
C1359 C1364 1.350 . S
C1359 N1367 1.427 . S
C1360 H1351 0.930 . S
C1360 C1358 1.378 . S
C1360 C1361 1.367 . S
C1361 C1360 1.367 . S
C1361 C1363 1.433 . S
C1362 C1358 1.350 . S
C1362 C1359 1.463 . S
C1362 N1366 1.427 . S
C1363 H1353 0.929 . S
C1363 C1361 1.433 . S
C1363 N1366 1.384 . S
C1364 H1355 0.929 . S
C1364 C1356 1.378 . S
C1364 C1359 1.350 . S
C1365 H1352 0.929 . S
C1365 C1357 1.433 . S
C1365 N1367 1.384 . S
N1366 C1362 1.427 . S
N1366 C1363 1.384 . S
N1367 C1359 1.427 . S
N1367 C1365 1.384 . S
H1368 C1374 0.930 . S
H1369 C1378 0.930 . S
H1370 C1383 0.929 . S
H1371 C1381 0.929 . S
H1372 C1376 0.929 . S
H1373 C1382 0.929 . S
C1374 H1368 0.930 . S
C1374 C1375 1.367 . S
C1374 C1382 1.378 1_545 S
C1375 C1374 1.367 . S
C1375 C1383 1.433 . S
C1376 H1372 0.929 . S
C1376 C1378 1.378 . S
C1376 C1380 1.350 . S
C1377 C1380 1.463 . S
C1377 C1382 1.350 . S
C1377 N1385 1.427 . S
C1378 H1369 0.930 . S
C1378 C1376 1.378 . S
C1378 C1379 1.367 . S
C1379 C1378 1.367 . S
C1379 C1381 1.433 . S
C1380 C1376 1.350 . S
C1380 C1377 1.463 . S
C1380 N1384 1.427 . S
C1381 H1371 0.929 . S
C1381 C1379 1.433 . S
C1381 N1384 1.384 . S
C1382 H1373 0.929 . S
C1382 C1374 1.378 1_565 S
C1382 C1377 1.350 . S
C1383 H1370 0.929 . S
C1383 C1375 1.433 . S
C1383 N1385 1.384 1_545 S
N1384 C1380 1.427 . S
N1384 C1381 1.384 . S
N1385 C1377 1.427 . S
N1385 C1383 1.384 1_565 S
H1386 C1392 0.930 . S
H1387 C1396 0.930 . S
H1388 C1401 0.929 . S
H1389 C1399 0.929 . S
H1390 C1394 0.929 . S
H1391 C1400 0.929 . S
C1392 H1386 0.930 . S
C1392 C1393 1.367 1_455 S
C1392 C1400 1.378 . S
C1393 C1392 1.367 1_655 S
C1393 C1401 1.433 . S
C1394 H1390 0.929 . S
C1394 C1396 1.378 . S
C1394 C1398 1.350 . S
C1395 C1398 1.463 . S
C1395 C1400 1.350 . S
C1395 N1403 1.427 . S
C1396 H1387 0.930 . S
C1396 C1394 1.378 . S
C1396 C1397 1.367 . S
C1397 C1396 1.367 . S
C1397 C1399 1.433 . S
C1398 C1394 1.350 . S
C1398 C1395 1.463 . S
C1398 N1402 1.427 . S
C1399 H1389 0.929 . S
C1399 C1397 1.433 . S
C1399 N1402 1.384 . S
C1400 H1391 0.929 . S
C1400 C1392 1.378 . S
C1400 C1395 1.350 . S
C1401 H1388 0.929 . S
C1401 C1393 1.433 . S
C1401 N1403 1.384 1_655 S
N1402 C1398 1.427 . S
N1402 C1399 1.384 . S
N1403 C1395 1.427 . S
N1403 C1401 1.384 1_455 S
H1404 C1410 0.930 . S
H1405 C1414 0.930 . S
H1406 C1419 0.929 . S
H1407 C1417 0.929 . S
H1408 C1412 0.929 . S
H1409 C1418 0.929 . S
C1410 H1404 0.930 . S
C1410 C1411 1.367 . S
C1410 C1418 1.378 . S
C1411 C1410 1.367 . S
C1411 C1419 1.433 . S
C1412 H1408 0.929 . S
C1412 C1414 1.378 . S
C1412 C1416 1.350 . S
C1413 C1416 1.463 . S
C1413 C1418 1.350 . S
C1413 N1421 1.427 . S
C1414 H1405 0.930 . S
C1414 C1412 1.378 . S
C1414 C1415 1.367 . S
C1415 C1414 1.367 . S
C1415 C1417 1.433 . S
C1416 C1412 1.350 . S
C1416 C1413 1.463 . S
C1416 N1420 1.427 . S
C1417 H1407 0.929 . S
C1417 C1415 1.433 . S
C1417 N1420 1.384 . S
C1418 H1409 0.929 . S
C1418 C1410 1.378 . S
C1418 C1413 1.350 . S
C1419 H1406 0.929 . S
C1419 C1411 1.433 . S
C1419 N1421 1.384 . S
N1420 C1416 1.427 . S
N1420 C1417 1.384 . S
N1421 C1413 1.427 . S
N1421 C1419 1.384 . S
H1422 C1428 0.930 . S
H1423 C1432 0.930 . S
H1424 C1437 0.929 . S
H1425 C1435 0.929 . S
H1426 C1430 0.929 . S
H1427 C1436 0.929 . S
C1428 H1422 0.930 . S
C1428 C1429 1.367 . S
C1428 C1436 1.378 . S
C1429 C1428 1.367 . S
C1429 C1437 1.433 . S
C1430 H1426 0.929 . S
C1430 C1432 1.378 . S
C1430 C1434 1.350 . S
C1431 C1434 1.463 . S
C1431 C1436 1.350 . S
C1431 N1439 1.427 . S
C1432 H1423 0.930 . S
C1432 C1430 1.378 . S
C1432 C1433 1.367 . S
C1433 C1432 1.367 . S
C1433 C1435 1.433 . S
C1434 C1430 1.350 . S
C1434 C1431 1.463 . S
C1434 N1438 1.427 . S
C1435 H1425 0.929 . S
C1435 C1433 1.433 . S
C1435 N1438 1.384 . S
C1436 H1427 0.929 . S
C1436 C1428 1.378 . S
C1436 C1431 1.350 . S
C1437 H1424 0.929 . S
C1437 C1429 1.433 . S
C1437 N1439 1.384 . S
N1438 C1434 1.427 . S
N1438 C1435 1.384 . S
N1439 C1431 1.427 . S
N1439 C1437 1.384 . S
H1440 C1446 0.930 . S
H1441 C1450 0.930 . S
H1442 C1455 0.929 . S
H1443 C1453 0.929 . S
H1444 C1448 0.929 . S
H1445 C1454 0.929 . S
C1446 H1440 0.930 . S
C1446 C1447 1.367 . S
C1446 C1454 1.378 . S
C1447 C1446 1.367 . S
C1447 C1455 1.433 . S
C1448 H1444 0.929 . S
C1448 C1450 1.378 . S
C1448 C1452 1.350 . S
C1449 C1452 1.463 . S
C1449 C1454 1.350 . S
C1449 N1457 1.427 . S
C1450 H1441 0.930 . S
C1450 C1448 1.378 . S
C1450 C1451 1.367 . S
C1451 C1450 1.367 . S
C1451 C1453 1.433 . S
C1452 C1448 1.350 . S
C1452 C1449 1.463 . S
C1452 N1456 1.427 . S
C1453 H1443 0.929 . S
C1453 C1451 1.433 . S
C1453 N1456 1.384 . S
C1454 H1445 0.929 . S
C1454 C1446 1.378 . S
C1454 C1449 1.350 . S
C1455 H1442 0.929 . S
C1455 C1447 1.433 . S
C1455 N1457 1.384 . S
N1456 C1452 1.427 . S
N1456 C1453 1.384 . S
N1457 C1449 1.427 . S
N1457 C1455 1.384 . S
H1458 C1464 0.930 . S
H1459 C1468 0.930 . S
H1460 C1473 0.929 . S
H1461 C1471 0.929 . S
H1462 C1466 0.929 . S
H1463 C1472 0.929 . S
C1464 H1458 0.930 . S
C1464 C1465 1.367 . S
C1464 C1472 1.378 . S
C1465 C1464 1.367 . S
C1465 C1473 1.433 . S
C1466 H1462 0.929 . S
C1466 C1468 1.378 . S
C1466 C1470 1.350 . S
C1467 C1470 1.463 . S
C1467 C1472 1.350 . S
C1467 N1475 1.427 . S
C1468 H1459 0.930 . S
C1468 C1466 1.378 . S
C1468 C1469 1.367 . S
C1469 C1468 1.367 . S
C1469 C1471 1.433 . S
C1470 C1466 1.350 . S
C1470 C1467 1.463 . S
C1470 N1474 1.427 . S
C1471 H1461 0.929 . S
C1471 C1469 1.433 . S
C1471 N1474 1.384 . S
C1472 H1463 0.929 . S
C1472 C1464 1.378 . S
C1472 C1467 1.350 . S
C1473 H1460 0.929 . S
C1473 C1465 1.433 . S
C1473 N1475 1.384 . S
N1474 C1470 1.427 . S
N1474 C1471 1.384 . S
N1475 C1467 1.427 . S
N1475 C1473 1.384 . S
H1476 C1482 0.930 . S
H1477 C1486 0.930 . S
H1478 C1491 0.929 . S
H1479 C1489 0.929 . S
H1480 C1484 0.929 . S
H1481 C1490 0.929 . S
C1482 H1476 0.930 . S
C1482 C1483 1.367 . S
C1482 C1490 1.378 . S
C1483 C1482 1.367 . S
C1483 C1491 1.433 . S
C1484 H1480 0.929 . S
C1484 C1486 1.378 . S
C1484 C1488 1.350 . S
C1485 C1488 1.463 1_565 S
C1485 C1490 1.350 . S
C1485 N1493 1.427 . S
C1486 H1477 0.930 . S
C1486 C1484 1.378 . S
C1486 C1487 1.367 . S
C1487 C1486 1.367 . S
C1487 C1489 1.433 . S
C1488 C1484 1.350 . S
C1488 C1485 1.463 1_545 S
C1488 N1492 1.427 . S
C1489 H1479 0.929 . S
C1489 C1487 1.433 . S
C1489 N1492 1.384 . S
C1490 H1481 0.929 . S
C1490 C1482 1.378 . S
C1490 C1485 1.350 . S
C1491 H1478 0.929 . S
C1491 C1483 1.433 . S
C1491 N1493 1.384 . S
N1492 C1488 1.427 . S
N1492 C1489 1.384 . S
N1493 C1485 1.427 . S
N1493 C1491 1.384 . S
H1494 C1500 0.930 . S
H1495 C1504 0.930 . S
H1496 C1509 0.929 . S
H1497 C1507 0.929 . S
H1498 C1502 0.929 . S
H1499 C1508 0.929 . S
C1500 H1494 0.930 . S
C1500 C1501 1.367 . S
C1500 C1508 1.378 . S
C1501 C1500 1.367 . S
C1501 C1509 1.433 . S
C1502 H1498 0.929 . S
C1502 C1504 1.378 . S
C1502 C1506 1.350 . S
C1503 C1506 1.463 1_455 S
C1503 C1508 1.350 . S
C1503 N1511 1.427 . S
C1504 H1495 0.930 . S
C1504 C1502 1.378 . S
C1504 C1505 1.367 . S
C1505 C1504 1.367 . S
C1505 C1507 1.433 . S
C1506 C1502 1.350 . S
C1506 C1503 1.463 1_655 S
C1506 N1510 1.427 . S
C1507 H1497 0.929 . S
C1507 C1505 1.433 . S
C1507 N1510 1.384 . S
C1508 H1499 0.929 . S
C1508 C1500 1.378 . S
C1508 C1503 1.350 . S
C1509 H1496 0.929 . S
C1509 C1501 1.433 . S
C1509 N1511 1.384 . S
N1510 C1506 1.427 . S
N1510 C1507 1.384 . S
N1511 C1503 1.427 . S
N1511 C1509 1.384 . S
H1512 C1518 0.930 . S
H1513 C1522 0.930 . S
H1514 C1527 0.929 . S
H1515 C1525 0.929 . S
H1516 C1520 0.929 . S
H1517 C1526 0.929 . S
C1518 H1512 0.930 . S
C1518 C1519 1.367 . S
C1518 C1526 1.378 . S
C1519 C1518 1.367 . S
C1519 C1527 1.433 . S
C1520 H1516 0.929 . S
C1520 C1522 1.378 . S
C1520 C1524 1.350 . S
C1521 C1524 1.463 . S
C1521 C1526 1.350 . S
C1521 N1529 1.427 . S
C1522 H1513 0.930 . S
C1522 C1520 1.378 . S
C1522 C1523 1.367 . S
C1523 C1522 1.367 . S
C1523 C1525 1.433 . S
C1524 C1520 1.350 . S
C1524 C1521 1.463 . S
C1524 N1528 1.427 . S
C1525 H1515 0.929 . S
C1525 C1523 1.433 . S
C1525 N1528 1.384 . S
C1526 H1517 0.929 . S
C1526 C1518 1.378 . S
C1526 C1521 1.350 . S
C1527 H1514 0.929 . S
C1527 C1519 1.433 . S
C1527 N1529 1.384 . S
N1528 C1524 1.427 . S
N1528 C1525 1.384 . S
N1529 C1521 1.427 . S
N1529 C1527 1.384 . S
H1530 C1536 0.930 1_455 S
H1531 C1540 0.930 . S
H1532 C1545 0.929 . S
H1533 C1543 0.929 . S
H1534 C1538 0.929 . S
H1535 C1544 0.929 . S
C1536 H1530 0.930 1_655 S
C1536 C1537 1.367 1_655 S
C1536 C1544 1.378 . S
C1537 C1536 1.367 1_455 S
C1537 C1545 1.433 . S
C1538 H1534 0.929 . S
C1538 C1540 1.378 . S
C1538 C1542 1.350 . S
C1539 C1542 1.463 . S
C1539 C1544 1.350 . S
C1539 N1547 1.427 . S
C1540 H1531 0.930 . S
C1540 C1538 1.378 . S
C1540 C1541 1.367 . S
C1541 C1540 1.367 . S
C1541 C1543 1.433 . S
C1542 C1538 1.350 . S
C1542 C1539 1.463 . S
C1542 N1546 1.427 . S
C1543 H1533 0.929 . S
C1543 C1541 1.433 . S
C1543 N1546 1.384 . S
C1544 H1535 0.929 . S
C1544 C1536 1.378 . S
C1544 C1539 1.350 . S
C1545 H1532 0.929 . S
C1545 C1537 1.433 . S
C1545 N1547 1.384 1_455 S
N1546 C1542 1.427 . S
N1546 C1543 1.384 . S
N1547 C1539 1.427 . S
N1547 C1545 1.384 1_655 S
H1548 C1554 0.930 . S
H1549 C1558 0.930 . S
H1550 C1563 0.929 . S
H1551 C1561 0.929 . S
H1552 C1556 0.929 . S
H1553 C1562 0.929 . S
C1554 H1548 0.930 . S
C1554 C1555 1.367 . S
C1554 C1562 1.378 . S
C1555 C1554 1.367 . S
C1555 C1563 1.433 . S
C1556 H1552 0.929 . S
C1556 C1558 1.378 . S
C1556 C1560 1.350 . S
C1557 C1560 1.463 . S
C1557 C1562 1.350 . S
C1557 N1565 1.427 . S
C1558 H1549 0.930 . S
C1558 C1556 1.378 . S
C1558 C1559 1.367 . S
C1559 C1558 1.367 . S
C1559 C1561 1.433 . S
C1560 C1556 1.350 . S
C1560 C1557 1.463 . S
C1560 N1564 1.427 . S
C1561 H1551 0.929 . S
C1561 C1559 1.433 . S
C1561 N1564 1.384 . S
C1562 H1553 0.929 . S
C1562 C1554 1.378 . S
C1562 C1557 1.350 . S
C1563 H1550 0.929 . S
C1563 C1555 1.433 . S
C1563 N1565 1.384 . S
N1564 C1560 1.427 . S
N1564 C1561 1.384 . S
N1565 C1557 1.427 . S
N1565 C1563 1.384 . S
H1566 C1572 0.930 . S
H1567 C1576 0.930 . S
H1568 C1581 0.929 1_565 S
H1569 C1579 0.929 . S
H1570 C1574 0.929 . S
H1571 C1580 0.929 . S
C1572 H1566 0.930 . S
C1572 C1573 1.367 . S
C1572 C1580 1.378 1_565 S
C1573 C1572 1.367 . S
C1573 C1581 1.433 1_565 S
C1574 H1570 0.929 . S
C1574 C1576 1.378 . S
C1574 C1578 1.350 . S
C1575 C1578 1.463 . S
C1575 C1580 1.350 . S
C1575 N1583 1.427 . S
C1576 H1567 0.930 . S
C1576 C1574 1.378 . S
C1576 C1577 1.367 . S
C1577 C1576 1.367 . S
C1577 C1579 1.433 . S
C1578 C1574 1.350 . S
C1578 C1575 1.463 . S
C1578 N1582 1.427 . S
C1579 H1569 0.929 . S
C1579 C1577 1.433 . S
C1579 N1582 1.384 . S
C1580 H1571 0.929 . S
C1580 C1572 1.378 1_545 S
C1580 C1575 1.350 . S
C1581 H1568 0.929 1_545 S
C1581 C1573 1.433 1_545 S
C1581 N1583 1.384 . S
N1582 C1578 1.427 . S
N1582 C1579 1.384 . S
N1583 C1575 1.427 . S
N1583 C1581 1.384 . S
H1584 C1590 0.930 . S
H1585 C1594 0.930 . S
H1586 C1599 0.929 . S
H1587 C1597 0.929 . S
H1588 C1592 0.929 . S
H1589 C1598 0.929 . S
C1590 H1584 0.930 . S
C1590 C1591 1.367 . S
C1590 C1598 1.378 . S
C1591 C1590 1.367 . S
C1591 C1599 1.433 . S
C1592 H1588 0.929 . S
C1592 C1594 1.378 . S
C1592 C1596 1.350 . S
C1593 C1596 1.463 . S
C1593 C1598 1.350 . S
C1593 N1601 1.427 . S
C1594 H1585 0.930 . S
C1594 C1592 1.378 . S
C1594 C1595 1.367 . S
C1595 C1594 1.367 . S
C1595 C1597 1.433 . S
C1596 C1592 1.350 . S
C1596 C1593 1.463 . S
C1596 N1600 1.427 . S
C1597 H1587 0.929 . S
C1597 C1595 1.433 . S
C1597 N1600 1.384 . S
C1598 H1589 0.929 . S
C1598 C1590 1.378 . S
C1598 C1593 1.350 . S
C1599 H1586 0.929 . S
C1599 C1591 1.433 . S
C1599 N1601 1.384 . S
N1600 C1596 1.427 . S
N1600 C1597 1.384 . S
N1601 C1593 1.427 . S
N1601 C1599 1.384 . S
H1602 C1608 0.930 . S
H1603 C1612 0.930 . S
H1604 C1617 0.929 . S
H1605 C1615 0.929 . S
H1606 C1610 0.929 . S
H1607 C1616 0.929 . S
C1608 H1602 0.930 . S
C1608 C1609 1.367 . S
C1608 C1616 1.378 . S
C1609 C1608 1.367 . S
C1609 C1617 1.433 . S
C1610 H1606 0.929 . S
C1610 C1612 1.378 . S
C1610 C1614 1.350 . S
C1611 C1614 1.463 . S
C1611 C1616 1.350 . S
C1611 N1619 1.427 . S
C1612 H1603 0.930 . S
C1612 C1610 1.378 . S
C1612 C1613 1.367 . S
C1613 C1612 1.367 . S
C1613 C1615 1.433 . S
C1614 C1610 1.350 . S
C1614 C1611 1.463 . S
C1614 N1618 1.427 . S
C1615 H1605 0.929 . S
C1615 C1613 1.433 . S
C1615 N1618 1.384 . S
C1616 H1607 0.929 . S
C1616 C1608 1.378 . S
C1616 C1611 1.350 . S
C1617 H1604 0.929 . S
C1617 C1609 1.433 . S
C1617 N1619 1.384 . S
N1618 C1614 1.427 . S
N1618 C1615 1.384 . S
N1619 C1611 1.427 . S
N1619 C1617 1.384 . S
H1620 C1626 0.930 . S
H1621 C1630 0.930 . S
H1622 C1635 0.929 . S
H1623 C1633 0.929 . S
H1624 C1628 0.929 . S
H1625 C1634 0.929 . S
C1626 H1620 0.930 . S
C1626 C1627 1.367 . S
C1626 C1634 1.378 . S
C1627 C1626 1.367 . S
C1627 C1635 1.433 . S
C1628 H1624 0.929 . S
C1628 C1630 1.378 . S
C1628 C1632 1.350 . S
C1629 C1632 1.463 . S
C1629 C1634 1.350 . S
C1629 N1637 1.427 . S
C1630 H1621 0.930 . S
C1630 C1628 1.378 . S
C1630 C1631 1.367 . S
C1631 C1630 1.367 . S
C1631 C1633 1.433 . S
C1632 C1628 1.350 . S
C1632 C1629 1.463 . S
C1632 N1636 1.427 . S
C1633 H1623 0.929 . S
C1633 C1631 1.433 . S
C1633 N1636 1.384 . S
C1634 H1625 0.929 . S
C1634 C1626 1.378 . S
C1634 C1629 1.350 . S
C1635 H1622 0.929 . S
C1635 C1627 1.433 . S
C1635 N1637 1.384 . S
N1636 C1632 1.427 . S
N1636 C1633 1.384 . S
N1637 C1629 1.427 . S
N1637 C1635 1.384 . S
H1638 C1644 0.930 . S
H1639 C1648 0.930 . S
H1640 C1653 0.929 . S
H1641 C1651 0.929 . S
H1642 C1646 0.929 . S
H1643 C1652 0.929 . S
C1644 H1638 0.930 . S
C1644 C1645 1.367 . S
C1644 C1652 1.378 . S
C1645 C1644 1.367 . S
C1645 C1653 1.433 . S
C1646 H1642 0.929 . S
C1646 C1648 1.378 . S
C1646 C1650 1.350 . S
C1647 C1650 1.463 . S
C1647 C1652 1.350 . S
C1647 N1655 1.427 . S
C1648 H1639 0.930 . S
C1648 C1646 1.378 . S
C1648 C1649 1.367 . S
C1649 C1648 1.367 . S
C1649 C1651 1.433 . S
C1650 C1646 1.350 . S
C1650 C1647 1.463 . S
C1650 N1654 1.427 . S
C1651 H1641 0.929 . S
C1651 C1649 1.433 . S
C1651 N1654 1.384 . S
C1652 H1643 0.929 . S
C1652 C1644 1.378 . S
C1652 C1647 1.350 . S
C1653 H1640 0.929 . S
C1653 C1645 1.433 . S
C1653 N1655 1.384 . S
N1654 C1650 1.427 . S
N1654 C1651 1.384 . S
N1655 C1647 1.427 . S
N1655 C1653 1.384 . S
H1656 C1662 0.930 . S
H1657 C1666 0.930 . S
H1658 C1671 0.929 . S
H1659 C1669 0.929 . S
H1660 C1664 0.929 . S
H1661 C1670 0.929 . S
C1662 H1656 0.930 . S
C1662 C1663 1.367 . S
C1662 C1670 1.378 . S
C1663 C1662 1.367 . S
C1663 C1671 1.433 . S
C1664 H1660 0.929 . S
C1664 C1666 1.378 . S
C1664 C1668 1.350 . S
C1665 C1668 1.463 . S
C1665 C1670 1.350 . S
C1665 N1673 1.427 . S
C1666 H1657 0.930 . S
C1666 C1664 1.378 . S
C1666 C1667 1.367 . S
C1667 C1666 1.367 . S
C1667 C1669 1.433 . S
C1668 C1664 1.350 . S
C1668 C1665 1.463 . S
C1668 N1672 1.427 . S
C1669 H1659 0.929 . S
C1669 C1667 1.433 . S
C1669 N1672 1.384 . S
C1670 H1661 0.929 . S
C1670 C1662 1.378 . S
C1670 C1665 1.350 . S
C1671 H1658 0.929 . S
C1671 C1663 1.433 . S
C1671 N1673 1.384 . S
N1672 C1668 1.427 . S
N1672 C1669 1.384 . S
N1673 C1665 1.427 . S
N1673 C1671 1.384 . S
H1674 C1680 0.930 . S
H1675 C1684 0.930 . S
H1676 C1689 0.929 . S
H1677 C1687 0.929 . S
H1678 C1682 0.929 . S
H1679 C1688 0.929 . S
C1680 H1674 0.930 . S
C1680 C1681 1.367 . S
C1680 C1688 1.378 . S
C1681 C1680 1.367 . S
C1681 C1689 1.433 . S
C1682 H1678 0.929 . S
C1682 C1684 1.378 . S
C1682 C1686 1.350 . S
C1683 C1686 1.463 . S
C1683 C1688 1.350 . S
C1683 N1691 1.427 . S
C1684 H1675 0.930 . S
C1684 C1682 1.378 . S
C1684 C1685 1.367 . S
C1685 C1684 1.367 . S
C1685 C1687 1.433 . S
C1686 C1682 1.350 . S
C1686 C1683 1.463 . S
C1686 N1690 1.427 . S
C1687 H1677 0.929 . S
C1687 C1685 1.433 . S
C1687 N1690 1.384 . S
C1688 H1679 0.929 . S
C1688 C1680 1.378 . S
C1688 C1683 1.350 . S
C1689 H1676 0.929 . S
C1689 C1681 1.433 . S
C1689 N1691 1.384 . S
N1690 C1686 1.427 . S
N1690 C1687 1.384 . S
N1691 C1683 1.427 . S
N1691 C1689 1.384 . S
H1692 C1698 0.930 . S
H1693 C1702 0.930 . S
H1694 C1707 0.929 . S
H1695 C1705 0.929 . S
H1696 C1700 0.929 . S
H1697 C1706 0.929 . S
C1698 H1692 0.930 . S
C1698 C1699 1.367 . S
C1698 C1706 1.378 . S
C1699 C1698 1.367 . S
C1699 C1707 1.433 . S
C1700 H1696 0.929 . S
C1700 C1702 1.378 . S
C1700 C1704 1.350 . S
C1701 C1704 1.463 . S
C1701 C1706 1.350 . S
C1701 N1709 1.427 . S
C1702 H1693 0.930 . S
C1702 C1700 1.378 . S
C1702 C1703 1.367 . S
C1703 C1702 1.367 . S
C1703 C1705 1.433 . S
C1704 C1700 1.350 . S
C1704 C1701 1.463 . S
C1704 N1708 1.427 . S
C1705 H1695 0.929 . S
C1705 C1703 1.433 . S
C1705 N1708 1.384 . S
C1706 H1697 0.929 . S
C1706 C1698 1.378 . S
C1706 C1701 1.350 . S
C1707 H1694 0.929 . S
C1707 C1699 1.433 . S
C1707 N1709 1.384 . S
N1708 C1704 1.427 . S
N1708 C1705 1.384 . S
N1709 C1701 1.427 . S
N1709 C1707 1.384 . S
H1710 C1716 0.930 . S
H1711 C1720 0.930 . S
H1712 C1725 0.929 . S
H1713 C1723 0.929 . S
H1714 C1718 0.929 . S
H1715 C1724 0.929 . S
C1716 H1710 0.930 . S
C1716 C1717 1.367 . S
C1716 C1724 1.378 . S
C1717 C1716 1.367 . S
C1717 C1725 1.433 . S
C1718 H1714 0.929 . S
C1718 C1720 1.378 . S
C1718 C1722 1.350 . S
C1719 C1722 1.463 . S
C1719 C1724 1.350 . S
C1719 N1727 1.427 . S
C1720 H1711 0.930 . S
C1720 C1718 1.378 . S
C1720 C1721 1.367 . S
C1721 C1720 1.367 . S
C1721 C1723 1.433 . S
C1722 C1718 1.350 . S
C1722 C1719 1.463 . S
C1722 N1726 1.427 . S
C1723 H1713 0.929 . S
C1723 C1721 1.433 . S
C1723 N1726 1.384 . S
C1724 H1715 0.929 . S
C1724 C1716 1.378 . S
C1724 C1719 1.350 . S
C1725 H1712 0.929 . S
C1725 C1717 1.433 . S
C1725 N1727 1.384 . S
N1726 C1722 1.427 . S
N1726 C1723 1.384 . S
N1727 C1719 1.427 . S
N1727 C1725 1.384 . S
H1728 C1734 0.930 . S
H1729 C1738 0.930 . S
H1730 C1743 0.929 . S
H1731 C1741 0.929 . S
H1732 C1736 0.929 . S
H1733 C1742 0.929 . S
C1734 H1728 0.930 . S
C1734 C1735 1.367 . S
C1734 C1742 1.378 . S
C1735 C1734 1.367 . S
C1735 C1743 1.433 . S
C1736 H1732 0.929 . S
C1736 C1738 1.378 . S
C1736 C1740 1.350 . S
C1737 C1740 1.463 . S
C1737 C1742 1.350 . S
C1737 N1745 1.427 . S
C1738 H1729 0.930 . S
C1738 C1736 1.378 . S
C1738 C1739 1.367 . S
C1739 C1738 1.367 . S
C1739 C1741 1.433 . S
C1740 C1736 1.350 . S
C1740 C1737 1.463 . S
C1740 N1744 1.427 . S
C1741 H1731 0.929 . S
C1741 C1739 1.433 . S
C1741 N1744 1.384 . S
C1742 H1733 0.929 . S
C1742 C1734 1.378 . S
C1742 C1737 1.350 . S
C1743 H1730 0.929 . S
C1743 C1735 1.433 . S
C1743 N1745 1.384 . S
N1744 C1740 1.427 . S
N1744 C1741 1.384 . S
N1745 C1737 1.427 . S
N1745 C1743 1.384 . S
H1746 C1752 0.930 . S
H1747 C1756 0.930 . S
H1748 C1761 0.929 . S
H1749 C1759 0.929 . S
H1750 C1754 0.929 . S
H1751 C1760 0.929 . S
C1752 H1746 0.930 . S
C1752 C1753 1.367 . S
C1752 C1760 1.378 . S
C1753 C1752 1.367 . S
C1753 C1761 1.433 . S
C1754 H1750 0.929 . S
C1754 C1756 1.378 . S
C1754 C1758 1.350 . S
C1755 C1758 1.463 . S
C1755 C1760 1.350 . S
C1755 N1763 1.427 . S
C1756 H1747 0.930 . S
C1756 C1754 1.378 . S
C1756 C1757 1.367 . S
C1757 C1756 1.367 . S
C1757 C1759 1.433 . S
C1758 C1754 1.350 . S
C1758 C1755 1.463 . S
C1758 N1762 1.427 . S
C1759 H1749 0.929 . S
C1759 C1757 1.433 . S
C1759 N1762 1.384 . S
C1760 H1751 0.929 . S
C1760 C1752 1.378 . S
C1760 C1755 1.350 . S
C1761 H1748 0.929 . S
C1761 C1753 1.433 . S
C1761 N1763 1.384 . S
N1762 C1758 1.427 . S
N1762 C1759 1.384 . S
N1763 C1755 1.427 . S
N1763 C1761 1.384 . S
H1764 C1770 0.930 . S
H1765 C1774 0.930 . S
H1766 C1779 0.929 . S
H1767 C1777 0.929 . S
H1768 C1772 0.929 . S
H1769 C1778 0.929 . S
C1770 H1764 0.930 . S
C1770 C1771 1.367 . S
C1770 C1778 1.378 . S
C1771 C1770 1.367 . S
C1771 C1779 1.433 . S
C1772 H1768 0.929 . S
C1772 C1774 1.378 . S
C1772 C1776 1.350 . S
C1773 C1776 1.463 . S
C1773 C1778 1.350 . S
C1773 N1781 1.427 . S
C1774 H1765 0.930 . S
C1774 C1772 1.378 . S
C1774 C1775 1.367 . S
C1775 C1774 1.367 . S
C1775 C1777 1.433 . S
C1776 C1772 1.350 . S
C1776 C1773 1.463 . S
C1776 N1780 1.427 . S
C1777 H1767 0.929 . S
C1777 C1775 1.433 . S
C1777 N1780 1.384 . S
C1778 H1769 0.929 . S
C1778 C1770 1.378 . S
C1778 C1773 1.350 . S
C1779 H1766 0.929 . S
C1779 C1771 1.433 . S
C1779 N1781 1.384 . S
N1780 C1776 1.427 . S
N1780 C1777 1.384 . S
N1781 C1773 1.427 . S
N1781 C1779 1.384 . S
H1782 C1788 0.930 . S
H1783 C1792 0.930 . S
H1784 C1797 0.929 . S
H1785 C1795 0.929 . S
H1786 C1790 0.929 . S
H1787 C1796 0.929 . S
C1788 H1782 0.930 . S
C1788 C1789 1.367 . S
C1788 C1796 1.378 . S
C1789 C1788 1.367 . S
C1789 C1797 1.433 . S
C1790 H1786 0.929 . S
C1790 C1792 1.378 . S
C1790 C1794 1.350 . S
C1791 C1794 1.463 . S
C1791 C1796 1.350 . S
C1791 N1799 1.427 . S
C1792 H1783 0.930 . S
C1792 C1790 1.378 . S
C1792 C1793 1.367 . S
C1793 C1792 1.367 . S
C1793 C1795 1.433 . S
C1794 C1790 1.350 . S
C1794 C1791 1.463 . S
C1794 N1798 1.427 . S
C1795 H1785 0.929 . S
C1795 C1793 1.433 . S
C1795 N1798 1.384 . S
C1796 H1787 0.929 . S
C1796 C1788 1.378 . S
C1796 C1791 1.350 . S
C1797 H1784 0.929 . S
C1797 C1789 1.433 . S
C1797 N1799 1.384 . S
N1798 C1794 1.427 . S
N1798 C1795 1.384 . S
N1799 C1791 1.427 . S
N1799 C1797 1.384 . S
H1800 C1806 0.930 . S
H1801 C1810 0.930 . S
H1802 C1815 0.929 . S
H1803 C1813 0.929 . S
H1804 C1808 0.929 . S
H1805 C1814 0.929 . S
C1806 H1800 0.930 . S
C1806 C1807 1.367 . S
C1806 C1814 1.378 . S
C1807 C1806 1.367 . S
C1807 C1815 1.433 . S
C1808 H1804 0.929 . S
C1808 C1810 1.378 . S
C1808 C1812 1.350 . S
C1809 C1812 1.463 . S
C1809 C1814 1.350 . S
C1809 N1817 1.427 . S
C1810 H1801 0.930 . S
C1810 C1808 1.378 . S
C1810 C1811 1.367 . S
C1811 C1810 1.367 . S
C1811 C1813 1.433 . S
C1812 C1808 1.350 . S
C1812 C1809 1.463 . S
C1812 N1816 1.427 . S
C1813 H1803 0.929 . S
C1813 C1811 1.433 . S
C1813 N1816 1.384 . S
C1814 H1805 0.929 . S
C1814 C1806 1.378 . S
C1814 C1809 1.350 . S
C1815 H1802 0.929 . S
C1815 C1807 1.433 . S
C1815 N1817 1.384 . S
N1816 C1812 1.427 . S
N1816 C1813 1.384 . S
N1817 C1809 1.427 . S
N1817 C1815 1.384 . S
H1818 C1824 0.930 . S
H1819 C1828 0.930 . S
H1820 C1833 0.929 . S
H1821 C1831 0.929 . S
H1822 C1826 0.929 . S
H1823 C1832 0.929 . S
C1824 H1818 0.930 . S
C1824 C1825 1.367 . S
C1824 C1832 1.378 . S
C1825 C1824 1.367 . S
C1825 C1833 1.433 . S
C1826 H1822 0.929 . S
C1826 C1828 1.378 . S
C1826 C1830 1.350 . S
C1827 C1830 1.463 . S
C1827 C1832 1.350 . S
C1827 N1835 1.427 . S
C1828 H1819 0.930 . S
C1828 C1826 1.378 . S
C1828 C1829 1.367 . S
C1829 C1828 1.367 . S
C1829 C1831 1.433 . S
C1830 C1826 1.350 . S
C1830 C1827 1.463 . S
C1830 N1834 1.427 . S
C1831 H1821 0.929 . S
C1831 C1829 1.433 . S
C1831 N1834 1.384 . S
C1832 H1823 0.929 . S
C1832 C1824 1.378 . S
C1832 C1827 1.350 . S
C1833 H1820 0.929 . S
C1833 C1825 1.433 . S
C1833 N1835 1.384 . S
N1834 C1830 1.427 . S
N1834 C1831 1.384 . S
N1835 C1827 1.427 . S
N1835 C1833 1.384 . S
H1836 C1842 0.930 . S
H1837 C1846 0.930 . S
H1838 C1851 0.929 . S
H1839 C1849 0.929 . S
H1840 C1844 0.929 . S
H1841 C1850 0.929 . S
C1842 H1836 0.930 . S
C1842 C1843 1.367 . S
C1842 C1850 1.378 . S
C1843 C1842 1.367 . S
C1843 C1851 1.433 . S
C1844 H1840 0.929 . S
C1844 C1846 1.378 . S
C1844 C1848 1.350 . S
C1845 C1848 1.463 . S
C1845 C1850 1.350 . S
C1845 N1853 1.427 . S
C1846 H1837 0.930 . S
C1846 C1844 1.378 . S
C1846 C1847 1.367 . S
C1847 C1846 1.367 . S
C1847 C1849 1.433 . S
C1848 C1844 1.350 . S
C1848 C1845 1.463 . S
C1848 N1852 1.427 . S
C1849 H1839 0.929 . S
C1849 C1847 1.433 . S
C1849 N1852 1.384 . S
C1850 H1841 0.929 . S
C1850 C1842 1.378 . S
C1850 C1845 1.350 . S
C1851 H1838 0.929 . S
C1851 C1843 1.433 . S
C1851 N1853 1.384 . S
N1852 C1848 1.427 . S
N1852 C1849 1.384 . S
N1853 C1845 1.427 . S
N1853 C1851 1.384 . S
H1854 C1860 0.930 . S
H1855 C1864 0.930 . S
H1856 C1869 0.929 . S
H1857 C1867 0.929 . S
H1858 C1862 0.929 . S
H1859 C1868 0.929 . S
C1860 H1854 0.930 . S
C1860 C1861 1.367 . S
C1860 C1868 1.378 . S
C1861 C1860 1.367 . S
C1861 C1869 1.433 . S
C1862 H1858 0.929 . S
C1862 C1864 1.378 . S
C1862 C1866 1.350 . S
C1863 C1866 1.463 . S
C1863 C1868 1.350 . S
C1863 N1871 1.427 . S
C1864 H1855 0.930 . S
C1864 C1862 1.378 . S
C1864 C1865 1.367 . S
C1865 C1864 1.367 . S
C1865 C1867 1.433 . S
C1866 C1862 1.350 . S
C1866 C1863 1.463 . S
C1866 N1870 1.427 . S
C1867 H1857 0.929 . S
C1867 C1865 1.433 . S
C1867 N1870 1.384 . S
C1868 H1859 0.929 . S
C1868 C1860 1.378 . S
C1868 C1863 1.350 . S
C1869 H1856 0.929 . S
C1869 C1861 1.433 . S
C1869 N1871 1.384 . S
N1870 C1866 1.427 . S
N1870 C1867 1.384 . S
N1871 C1863 1.427 . S
N1871 C1869 1.384 . S
H1872 C1878 0.930 . S
H1873 C1882 0.930 . S
H1874 C1887 0.929 . S
H1875 C1885 0.929 . S
H1876 C1880 0.929 . S
H1877 C1886 0.929 . S
C1878 H1872 0.930 . S
C1878 C1879 1.367 . S
C1878 C1886 1.378 . S
C1879 C1878 1.367 . S
C1879 C1887 1.433 . S
C1880 H1876 0.929 . S
C1880 C1882 1.378 . S
C1880 C1884 1.350 . S
C1881 C1884 1.463 . S
C1881 C1886 1.350 . S
C1881 N1889 1.427 . S
C1882 H1873 0.930 . S
C1882 C1880 1.378 . S
C1882 C1883 1.367 . S
C1883 C1882 1.367 . S
C1883 C1885 1.433 . S
C1884 C1880 1.350 . S
C1884 C1881 1.463 . S
C1884 N1888 1.427 . S
C1885 H1875 0.929 . S
C1885 C1883 1.433 . S
C1885 N1888 1.384 . S
C1886 H1877 0.929 . S
C1886 C1878 1.378 . S
C1886 C1881 1.350 . S
C1887 H1874 0.929 . S
C1887 C1879 1.433 . S
C1887 N1889 1.384 . S
N1888 C1884 1.427 . S
N1888 C1885 1.384 . S
N1889 C1881 1.427 . S
N1889 C1887 1.384 . S
H1890 C1896 0.930 . S
H1891 C1900 0.930 . S
H1892 C1905 0.929 . S
H1893 C1903 0.929 . S
H1894 C1898 0.929 . S
H1895 C1904 0.929 . S
C1896 H1890 0.930 . S
C1896 C1897 1.367 . S
C1896 C1904 1.378 . S
C1897 C1896 1.367 . S
C1897 C1905 1.433 . S
C1898 H1894 0.929 . S
C1898 C1900 1.378 . S
C1898 C1902 1.350 . S
C1899 C1902 1.463 . S
C1899 C1904 1.350 . S
C1899 N1907 1.427 . S
C1900 H1891 0.930 . S
C1900 C1898 1.378 . S
C1900 C1901 1.367 . S
C1901 C1900 1.367 . S
C1901 C1903 1.433 . S
C1902 C1898 1.350 . S
C1902 C1899 1.463 . S
C1902 N1906 1.427 . S
C1903 H1893 0.929 . S
C1903 C1901 1.433 . S
C1903 N1906 1.384 . S
C1904 H1895 0.929 . S
C1904 C1896 1.378 . S
C1904 C1899 1.350 . S
C1905 H1892 0.929 . S
C1905 C1897 1.433 . S
C1905 N1907 1.384 . S
N1906 C1902 1.427 . S
N1906 C1903 1.384 . S
N1907 C1899 1.427 . S
N1907 C1905 1.384 . S
H1908 C1914 0.930 . S
H1909 C1918 0.930 . S
H1910 C1923 0.929 . S
H1911 C1921 0.929 . S
H1912 C1916 0.929 . S
H1913 C1922 0.929 . S
C1914 H1908 0.930 . S
C1914 C1915 1.367 . S
C1914 C1922 1.378 . S
C1915 C1914 1.367 . S
C1915 C1923 1.433 . S
C1916 H1912 0.929 . S
C1916 C1918 1.378 . S
C1916 C1920 1.350 . S
C1917 C1920 1.463 . S
C1917 C1922 1.350 . S
C1917 N1925 1.427 . S
C1918 H1909 0.930 . S
C1918 C1916 1.378 . S
C1918 C1919 1.367 . S
C1919 C1918 1.367 . S
C1919 C1921 1.433 . S
C1920 C1916 1.350 . S
C1920 C1917 1.463 . S
C1920 N1924 1.427 . S
C1921 H1911 0.929 . S
C1921 C1919 1.433 . S
C1921 N1924 1.384 . S
C1922 H1913 0.929 . S
C1922 C1914 1.378 . S
C1922 C1917 1.350 . S
C1923 H1910 0.929 . S
C1923 C1915 1.433 . S
C1923 N1925 1.384 . S
N1924 C1920 1.427 . S
N1924 C1921 1.384 . S
N1925 C1917 1.427 . S
N1925 C1923 1.384 . S
H1926 C1932 0.930 . S
H1927 C1936 0.930 . S
H1928 C1941 0.929 . S
H1929 C1939 0.929 . S
H1930 C1934 0.929 . S
H1931 C1940 0.929 . S
C1932 H1926 0.930 . S
C1932 C1933 1.367 . S
C1932 C1940 1.378 . S
C1933 C1932 1.367 . S
C1933 C1941 1.433 . S
C1934 H1930 0.929 . S
C1934 C1936 1.378 . S
C1934 C1938 1.350 . S
C1935 C1938 1.463 . S
C1935 C1940 1.350 . S
C1935 N1943 1.427 . S
C1936 H1927 0.930 . S
C1936 C1934 1.378 . S
C1936 C1937 1.367 . S
C1937 C1936 1.367 . S
C1937 C1939 1.433 . S
C1938 C1934 1.350 . S
C1938 C1935 1.463 . S
C1938 N1942 1.427 . S
C1939 H1929 0.929 . S
C1939 C1937 1.433 . S
C1939 N1942 1.384 . S
C1940 H1931 0.929 . S
C1940 C1932 1.378 . S
C1940 C1935 1.350 . S
C1941 H1928 0.929 . S
C1941 C1933 1.433 . S
C1941 N1943 1.384 . S
N1942 C1938 1.427 . S
N1942 C1939 1.384 . S
N1943 C1935 1.427 . S
N1943 C1941 1.384 . S
H1944 C1950 0.930 . S
H1945 C1954 0.930 . S
H1946 C1959 0.929 . S
H1947 C1957 0.929 . S
H1948 C1952 0.929 . S
H1949 C1958 0.929 . S
C1950 H1944 0.930 . S
C1950 C1951 1.367 . S
C1950 C1958 1.378 . S
C1951 C1950 1.367 . S
C1951 C1959 1.433 . S
C1952 H1948 0.929 . S
C1952 C1954 1.378 . S
C1952 C1956 1.350 . S
C1953 C1956 1.463 . S
C1953 C1958 1.350 . S
C1953 N1961 1.427 . S
C1954 H1945 0.930 . S
C1954 C1952 1.378 . S
C1954 C1955 1.367 . S
C1955 C1954 1.367 . S
C1955 C1957 1.433 . S
C1956 C1952 1.350 . S
C1956 C1953 1.463 . S
C1956 N1960 1.427 . S
C1957 H1947 0.929 . S
C1957 C1955 1.433 . S
C1957 N1960 1.384 . S
C1958 H1949 0.929 . S
C1958 C1950 1.378 . S
C1958 C1953 1.350 . S
C1959 H1946 0.929 . S
C1959 C1951 1.433 . S
C1959 N1961 1.384 . S
N1960 C1956 1.427 . S
N1960 C1957 1.384 . S
N1961 C1953 1.427 . S
N1961 C1959 1.384 . S
C997 C177 1.457 . S
C1001 C301 1.391 . S
C1015 C190 1.481 . S
C1019 C385 1.429 . S
C1033 C164 1.449 . S
C1037 C465 1.440 . S
C1051 C151 1.431 . S
C1055 C381 1.422 1_556 S
C1073 C469 1.386 . S
C1069 C125 1.436 . S
C1087 C138 1.407 . S
C1091 C297 1.400 1_556 S
C1109 C290 1.439 . S
C1105 C147 1.458 . S
C1127 C374 1.469 . S
C1123 C121 1.470 . S
C1141 C134 1.477 . S
C1145 C476 1.480 1_556 S
C1159 C173 1.430 . S
C1163 C392 1.458 . S
C1177 C186 1.428 . S
C1181 C458 1.416 . S
C1199 C308 1.431 . S
C1195 C160 1.432 . S
C1217 C553 1.407 . S
C1213 C21 1.452 . S
C1231 C34 1.478 . S
C1235 C637 1.436 . S
C1249 C8 1.448 . S
C1253 C717 1.440 . S
C1267 C229 1.434 . S
C1271 C633 1.426 . S
C1285 C203 1.440 . S
C1289 C721 1.375 . S
C1303 C216 1.406 . S
C1307 C549 1.402 . S
C1321 C225 1.444 . S
C1325 C542 1.455 . S
C1339 C199 1.464 . S
C1343 C626 1.477 . S
C1361 C728 1.484 . S
C1357 C212 1.460 . S
C1375 C17 1.430 . S
C1379 C644 1.458 . S
C1397 C710 1.420 . S
C1393 C30 1.424 . S
C1411 C4 1.416 . S
C1415 C560 1.440 . S
C1433 C805 1.391 . S
C1429 C99 1.457 . S
C1447 C112 1.482 . S
C1451 C889 1.425 . S
C1469 C969 1.441 . S
C1465 C86 1.447 . S
C1487 C885 1.425 . S
C1483 C73 1.433 . S
C1505 C973 1.385 . S
C1501 C47 1.436 . S
C1519 C60 1.407 . S
C1523 C801 1.405 . S
C1537 C69 1.458 . S
C1541 C794 1.439 . S
C1555 C43 1.461 . S
C1559 C878 1.478 . S
C1577 C980 1.489 . S
C1573 C56 1.462 . S
C1591 C95 1.431 . S
C1595 C896 1.454 . S
C1609 C108 1.431 . S
C1613 C962 1.411 . S
C1627 C82 1.429 . S
C1631 C812 1.439 . S
C1645 C204 1.556 . S
C1649 C304 1.447 . S
C1667 C388 1.485 . S
C1663 C217 1.621 . S
C1681 C230 1.565 . S
C1685 C460 1.393 . S
C1699 C87 1.586 . S
C1703 C376 1.385 . S
C1717 C100 1.582 . S
C1721 C472 1.451 . S
C1739 C292 1.377 . S
C1735 C113 1.531 . S
C1753 C48 1.559 . S
C1757 C556 1.432 . S
C1771 C61 1.619 . S
C1775 C640 1.464 . S
C1789 C74 1.570 . S
C1793 C712 1.396 . S
C1807 C165 1.586 . S
C1811 C628 1.388 . S
C1829 C724 1.435 . S
C1825 C178 1.582 . S
C1843 C191 1.531 . S
C1847 C544 1.377 . S
C1861 C126 1.561 . S
C1865 C808 1.449 . S
C1879 C139 1.622 . S
C1883 C892 1.467 . S
C1901 C964 1.389 . S
C1897 C152 1.564 . S
C1915 C9 1.586 . S
C1919 C880 1.388 . S
C1933 C22 1.582 . S
C1937 C976 1.435 . S
C1951 C35 1.527 . S
C1955 C796 1.356 . S
