# Generated by pormake.
# Topology eea, (3,6)-cn, num edge types: 1
# Building blocks:
#     Node 0, Type 0, BuildingBlock: BELTOD_clean_linker_0, # of connection points: 3
#     Node 1, Type 0, BuildingBlock: BELTOD_clean_linker_0, # of connection points: 3
#     Node 2, Type 0, BuildingBlock: BELTOD_clean_linker_0, # of connection points: 3
#     Node 3, Type 0, BuildingBlock: BELTOD_clean_linker_0, # of connection points: 3
#     Node 4, Type 0, BuildingBlock: BELTOD_clean_linker_0, # of connection points: 3
#     Node 5, Type 0, BuildingBlock: BELTOD_clean_linker_0, # of connection points: 3
#     Node 6, Type 0, BuildingBlock: BELTOD_clean_linker_0, # of connection points: 3
#     Node 7, Type 0, BuildingBlock: BELTOD_clean_linker_0, # of connection points: 3
#     Node 8, Type 0, BuildingBlock: BELTOD_clean_linker_0, # of connection points: 3
#     Node 9, Type 0, BuildingBlock: BELTOD_clean_linker_0, # of connection points: 3
#     Node 10, Type 0, BuildingBlock: BELTOD_clean_linker_0, # of connection points: 3
#     Node 11, Type 0, BuildingBlock: BELTOD_clean_linker_0, # of connection points: 3
#     Node 12, Type 0, BuildingBlock: BELTOD_clean_linker_0, # of connection points: 3
#     Node 13, Type 0, BuildingBlock: BELTOD_clean_linker_0, # of connection points: 3
#     Node 14, Type 0, BuildingBlock: BELTOD_clean_linker_0, # of connection points: 3
#     Node 15, Type 0, BuildingBlock: BELTOD_clean_linker_0, # of connection points: 3
#     Node 16, Type 0, BuildingBlock: BELTOD_clean_linker_0, # of connection points: 3
#     Node 17, Type 0, BuildingBlock: BELTOD_clean_linker_0, # of connection points: 3
#     Node 18, Type 1, BuildingBlock: CUKXOW_clean_sbu_0, # of connection points: 6
#     Node 19, Type 1, BuildingBlock: CUKXOW_clean_sbu_0, # of connection points: 6
#     Node 20, Type 1, BuildingBlock: CUKXOW_clean_sbu_0, # of connection points: 6
#     Node 21, Type 1, BuildingBlock: CUKXOW_clean_sbu_0, # of connection points: 6
#     Node 22, Type 1, BuildingBlock: CUKXOW_clean_sbu_0, # of connection points: 6
#     Node 23, Type 1, BuildingBlock: CUKXOW_clean_sbu_0, # of connection points: 6
#     Node 24, Type 1, BuildingBlock: CUKXOW_clean_sbu_0, # of connection points: 6
#     Node 25, Type 1, BuildingBlock: CUKXOW_clean_sbu_0, # of connection points: 6
#     Node 26, Type 1, BuildingBlock: CUKXOW_clean_sbu_0, # of connection points: 6
#     Edge 27, Type (0, 1), BuildingBlock: XIVTED_clean_linker_0, # of connection points: 2
#     Edge 28, Type (0, 1), BuildingBlock: XIVTED_clean_linker_0, # of connection points: 2
#     Edge 29, Type (0, 1), BuildingBlock: XIVTED_clean_linker_0, # of connection points: 2
#     Edge 30, Type (0, 1), BuildingBlock: XIVTED_clean_linker_0, # of connection points: 2
#     Edge 31, Type (0, 1), BuildingBlock: XIVTED_clean_linker_0, # of connection points: 2
#     Edge 32, Type (0, 1), BuildingBlock: XIVTED_clean_linker_0, # of connection points: 2
#     Edge 33, Type (0, 1), BuildingBlock: XIVTED_clean_linker_0, # of connection points: 2
#     Edge 34, Type (0, 1), BuildingBlock: XIVTED_clean_linker_0, # of connection points: 2
#     Edge 35, Type (0, 1), BuildingBlock: XIVTED_clean_linker_0, # of connection points: 2
#     Edge 36, Type (0, 1), BuildingBlock: XIVTED_clean_linker_0, # of connection points: 2
#     Edge 37, Type (0, 1), BuildingBlock: XIVTED_clean_linker_0, # of connection points: 2
#     Edge 38, Type (0, 1), BuildingBlock: XIVTED_clean_linker_0, # of connection points: 2
#     Edge 39, Type (0, 1), BuildingBlock: XIVTED_clean_linker_0, # of connection points: 2
#     Edge 40, Type (0, 1), BuildingBlock: XIVTED_clean_linker_0, # of connection points: 2
#     Edge 41, Type (0, 1), BuildingBlock: XIVTED_clean_linker_0, # of connection points: 2
#     Edge 42, Type (0, 1), BuildingBlock: XIVTED_clean_linker_0, # of connection points: 2
#     Edge 43, Type (0, 1), BuildingBlock: XIVTED_clean_linker_0, # of connection points: 2
#     Edge 44, Type (0, 1), BuildingBlock: XIVTED_clean_linker_0, # of connection points: 2
#     Edge 45, Type (0, 1), BuildingBlock: XIVTED_clean_linker_0, # of connection points: 2
#     Edge 46, Type (0, 1), BuildingBlock: XIVTED_clean_linker_0, # of connection points: 2
#     Edge 47, Type (0, 1), BuildingBlock: XIVTED_clean_linker_0, # of connection points: 2
#     Edge 48, Type (0, 1), BuildingBlock: XIVTED_clean_linker_0, # of connection points: 2
#     Edge 49, Type (0, 1), BuildingBlock: XIVTED_clean_linker_0, # of connection points: 2
#     Edge 50, Type (0, 1), BuildingBlock: XIVTED_clean_linker_0, # of connection points: 2
#     Edge 51, Type (0, 1), BuildingBlock: XIVTED_clean_linker_0, # of connection points: 2
#     Edge 52, Type (0, 1), BuildingBlock: XIVTED_clean_linker_0, # of connection points: 2
#     Edge 53, Type (0, 1), BuildingBlock: XIVTED_clean_linker_0, # of connection points: 2
#     Edge 54, Type (0, 1), BuildingBlock: XIVTED_clean_linker_0, # of connection points: 2
#     Edge 55, Type (0, 1), BuildingBlock: XIVTED_clean_linker_0, # of connection points: 2
#     Edge 56, Type (0, 1), BuildingBlock: XIVTED_clean_linker_0, # of connection points: 2
#     Edge 57, Type (0, 1), BuildingBlock: XIVTED_clean_linker_0, # of connection points: 2
#     Edge 58, Type (0, 1), BuildingBlock: XIVTED_clean_linker_0, # of connection points: 2
#     Edge 59, Type (0, 1), BuildingBlock: XIVTED_clean_linker_0, # of connection points: 2
#     Edge 60, Type (0, 1), BuildingBlock: XIVTED_clean_linker_0, # of connection points: 2
#     Edge 61, Type (0, 1), BuildingBlock: XIVTED_clean_linker_0, # of connection points: 2
#     Edge 62, Type (0, 1), BuildingBlock: XIVTED_clean_linker_0, # of connection points: 2
#     Edge 63, Type (0, 1), BuildingBlock: XIVTED_clean_linker_0, # of connection points: 2
#     Edge 64, Type (0, 1), BuildingBlock: XIVTED_clean_linker_0, # of connection points: 2
#     Edge 65, Type (0, 1), BuildingBlock: XIVTED_clean_linker_0, # of connection points: 2
#     Edge 66, Type (0, 1), BuildingBlock: XIVTED_clean_linker_0, # of connection points: 2
#     Edge 67, Type (0, 1), BuildingBlock: XIVTED_clean_linker_0, # of connection points: 2
#     Edge 68, Type (0, 1), BuildingBlock: XIVTED_clean_linker_0, # of connection points: 2
#     Edge 69, Type (0, 1), BuildingBlock: XIVTED_clean_linker_0, # of connection points: 2
#     Edge 70, Type (0, 1), BuildingBlock: XIVTED_clean_linker_0, # of connection points: 2
#     Edge 71, Type (0, 1), BuildingBlock: XIVTED_clean_linker_0, # of connection points: 2
#     Edge 72, Type (0, 1), BuildingBlock: XIVTED_clean_linker_0, # of connection points: 2
#     Edge 73, Type (0, 1), BuildingBlock: XIVTED_clean_linker_0, # of connection points: 2
#     Edge 74, Type (0, 1), BuildingBlock: XIVTED_clean_linker_0, # of connection points: 2
#     Edge 75, Type (0, 1), BuildingBlock: XIVTED_clean_linker_0, # of connection points: 2
#     Edge 76, Type (0, 1), BuildingBlock: XIVTED_clean_linker_0, # of connection points: 2
#     Edge 77, Type (0, 1), BuildingBlock: XIVTED_clean_linker_0, # of connection points: 2
#     Edge 78, Type (0, 1), BuildingBlock: XIVTED_clean_linker_0, # of connection points: 2
#     Edge 79, Type (0, 1), BuildingBlock: XIVTED_clean_linker_0, # of connection points: 2
#     Edge 80, Type (0, 1), BuildingBlock: XIVTED_clean_linker_0, # of connection points: 2
# Relax obj value: 0.016
# Max RMSD: 0.122
# Mean RMSD: 0.050
data_MOF--net-eea--node1-CUKXOW_clean_sbu_0--node2-BELTOD_clean_linker_0--edge1-XIVTED_clean_linker_0
_symmetry_space_group_name_H-M    P1
_symmetry_Int_Tables_number       1
_symmetry_cell_setting            triclinic
loop_
_symmetry_equiv_pos_as_xyz
'x, y, z'
_cell_length_a     63.561456
_cell_length_b     60.349879
_cell_length_c     66.86618
_cell_angle_alpha  93.572185
_cell_angle_beta   93.128338
_cell_angle_gamma 119.97489
loop_
_atom_site_label
_atom_site_type_symbol
_atom_site_fract_x
_atom_site_fract_y
_atom_site_fract_z
_atom_type_partial_charge
P0 P 0.3043 0.1612 0.41495 0.0
H1 H 0.31824 0.1272 0.39384 0.0
H2 H 0.29463 0.08259 0.37895 0.0
H3 H 0.22821 0.07966 0.39457 0.0
H4 H 0.25209 0.12393 0.41007 0.0
H5 H 0.31168 0.19023 0.3804 0.0
H6 H 0.2906 0.21076 0.36582 0.0
H7 H 0.24415 0.18999 0.41442 0.0
H8 H 0.26472 0.16858 0.42839 0.0
H9 H 0.3043 0.12375 0.44039 0.0
H10 H 0.30804 0.19712 0.44871 0.0
O11 O 0.33292 0.17499 0.40879 0.0
H12 H 0.30682 0.12232 0.47663 0.0
H13 H 0.30921 0.19523 0.48511 0.0
C14 C 0.28686 0.12896 0.40276 0.0
C15 C 0.29859 0.11701 0.39389 0.0
C16 C 0.28502 0.09152 0.38528 0.0
C17 C 0.25947 0.07755 0.38545 0.0
C18 C 0.24785 0.08975 0.39433 0.0
C19 C 0.26146 0.11517 0.40302 0.0
C20 C 0.2903 0.17865 0.40582 0.0
C21 C 0.29719 0.19044 0.38806 0.0
C22 C 0.28511 0.20219 0.37975 0.0
C23 C 0.26578 0.20224 0.38903 0.0
C24 C 0.25882 0.19017 0.40679 0.0
C25 C 0.27084 0.17827 0.415 0.0
C26 C 0.30508 0.16009 0.4418 0.0
C27 C 0.30511 0.13932 0.45002 0.0
C28 C 0.30643 0.13847 0.47082 0.0
C29 C 0.30778 0.15843 0.4839 0.0
C30 C 0.30825 0.17953 0.47556 0.0
C31 C 0.30725 0.18049 0.4547 0.0
P32 P 0.8959 0.10951 0.45751 0.0
H33 H 0.88778 0.06116 0.43766 0.0
H34 H 0.85468 0.02754 0.41454 0.0
H35 H 0.81807 0.07171 0.41454 0.0
H36 H 0.85106 0.10493 0.4384 0.0
H37 H 0.94741 0.14601 0.46829 0.0
H38 H 0.97916 0.17811 0.45006 0.0
H39 H 0.9255 0.16058 0.39996 0.0
H40 H 0.8939 0.12835 0.41821 0.0
H41 H 0.85719 0.08345 0.48293 0.0
H42 H 0.90798 0.16189 0.47317 0.0
O43 O 0.90935 0.09588 0.46974 0.0
H44 H 0.84205 0.09854 0.51018 0.0
H45 H 0.89262 0.17724 0.50028 0.0
C46 C 0.8716 0.08523 0.44 0.0
C47 C 0.87259 0.06356 0.43275 0.0
C48 C 0.85373 0.04447 0.41931 0.0
C49 C 0.83365 0.04689 0.4126 0.0
C50 C 0.83304 0.06902 0.41961 0.0
C51 C 0.85189 0.08805 0.4332 0.0
C52 C 0.91845 0.13446 0.44445 0.0
C53 C 0.94249 0.14916 0.45341 0.0
C54 C 0.96056 0.16764 0.44303 0.0
C55 C 0.95485 0.17174 0.4235 0.0
C56 C 0.93052 0.15755 0.41485 0.0
C57 C 0.91242 0.13915 0.42531 0.0
C58 C 0.88356 0.1215 0.47598 0.0
C59 C 0.86479 0.10395 0.48646 0.0
C60 C 0.85607 0.11264 0.50197 0.0
C61 C 0.86605 0.13913 0.50736 0.0
C62 C 0.88468 0.15673 0.49659 0.0
C63 C 0.89339 0.14796 0.48101 0.0
P64 P 0.85432 0.69649 0.42578 0.0
H65 H 0.82841 0.69377 0.38753 0.0
H66 H 0.80785 0.71653 0.37625 0.0
H67 H 0.83029 0.76236 0.4339 0.0
H68 H 0.8508 0.73943 0.44508 0.0
H69 H 0.87726 0.68099 0.39563 0.0
H70 H 0.91819 0.70189 0.38468 0.0
H71 H 0.94011 0.76663 0.42902 0.0
H72 H 0.89877 0.74546 0.43995 0.0
H73 H 0.8132 0.68081 0.44923 0.0
H74 H 0.8893 0.70433 0.46052 0.0
O75 O 0.83843 0.66672 0.41408 0.0
H76 H 0.8079 0.6747 0.48464 0.0
H77 H 0.88442 0.69923 0.49627 0.0
C78 C 0.84056 0.71448 0.41728 0.0
C79 C 0.82892 0.70874 0.39772 0.0
C80 C 0.81732 0.72189 0.39125 0.0
C81 C 0.81726 0.7411 0.40425 0.0
C82 C 0.82965 0.74735 0.42367 0.0
C83 C 0.84141 0.7343 0.43006 0.0
C84 C 0.8851 0.71149 0.41885 0.0
C85 C 0.89086 0.69957 0.40316 0.0
C86 C 0.91425 0.71164 0.39678 0.0
C87 C 0.93237 0.73592 0.40597 0.0
C88 C 0.92659 0.7478 0.4218 0.0
C89 C 0.90303 0.73577 0.42805 0.0
C90 C 0.85173 0.69359 0.45231 0.0
C91 C 0.82889 0.68507 0.45944 0.0
C92 C 0.82593 0.68173 0.47976 0.0
C93 C 0.8458 0.68678 0.49344 0.0
C94 C 0.86869 0.69506 0.48617 0.0
C95 C 0.87159 0.69828 0.46573 0.0
P96 P 0.14238 0.3073 0.57992 0.0
H97 H 0.12199 0.28098 0.61497 0.0
H98 H 0.08088 0.25948 0.62556 0.0
H99 H 0.05407 0.27615 0.57103 0.0
H100 H 0.0952 0.29683 0.56022 0.0
H101 H 0.19358 0.32479 0.59159 0.0
H102 H 0.21536 0.30207 0.59944 0.0
H103 H 0.14781 0.22945 0.58717 0.0
H104 H 0.12616 0.25236 0.57945 0.0
H105 H 0.14741 0.35022 0.55853 0.0
H106 H 0.13891 0.27546 0.54358 0.0
O107 O 0.15669 0.33575 0.59378 0.0
H108 H 0.15055 0.35817 0.52311 0.0
H109 H 0.14282 0.2835 0.50833 0.0
C110 C 0.11158 0.29006 0.58666 0.0
C111 C 0.10719 0.27965 0.60515 0.0
C112 C 0.08368 0.26758 0.61127 0.0
C113 C 0.06412 0.26614 0.59918 0.0
C114 C 0.06861 0.27655 0.58057 0.0
C115 C 0.09217 0.2885 0.5744 0.0
C116 C 0.15819 0.29029 0.58551 0.0
C117 C 0.18346 0.30399 0.59069 0.0
C118 C 0.19591 0.29096 0.595 0.0
C119 C 0.18327 0.26396 0.59407 0.0
C120 C 0.15798 0.25027 0.58837 0.0
C121 C 0.14559 0.26334 0.58398 0.0
C122 C 0.14348 0.3125 0.55371 0.0
C123 C 0.14635 0.33557 0.54762 0.0
C124 C 0.14824 0.34013 0.52738 0.0
C125 C 0.1472 0.3216 0.51286 0.0
C126 C 0.14351 0.29813 0.51903 0.0
C127 C 0.14151 0.29358 0.53925 0.0
P128 P 0.78654 0.88726 0.56382 0.0
H129 H 0.8266 0.93958 0.57575 0.0
H130 H 0.8291 0.97635 0.59522 0.0
H131 H 0.75219 0.93152 0.60281 0.0
H132 H 0.74975 0.89473 0.58267 0.0
H133 H 0.76994 0.83303 0.55336 0.0
H134 H 0.76565 0.79907 0.5738 0.0
H135 H 0.78135 0.85002 0.62783 0.0
H136 H 0.78582 0.88389 0.60739 0.0
H137 H 0.79415 0.91116 0.52678 0.0
H138 H 0.73531 0.84711 0.5512 0.0
O139 O 0.81428 0.89543 0.55729 0.0
H140 H 0.76839 0.90143 0.49532 0.0
H141 H 0.70941 0.83701 0.5195 0.0
C142 C 0.78801 0.91444 0.57788 0.0
C143 C 0.81024 0.93761 0.58156 0.0
C144 C 0.81168 0.9586 0.59286 0.0
C145 C 0.7909 0.95681 0.60081 0.0
C146 C 0.7685 0.93358 0.59683 0.0
C147 C 0.76708 0.91255 0.58541 0.0
C148 C 0.77769 0.86082 0.57881 0.0
C149 C 0.77163 0.83659 0.56961 0.0
C150 C 0.76914 0.81718 0.58131 0.0
C151 C 0.77316 0.82191 0.60242 0.0
C152 C 0.77822 0.84587 0.6116 0.0
C153 C 0.78061 0.86521 0.59989 0.0
C154 C 0.76683 0.87947 0.54106 0.0
C155 C 0.7757 0.8949 0.5253 0.0
C156 C 0.76092 0.88942 0.5074 0.0
C157 C 0.73695 0.86838 0.50496 0.0
C158 C 0.72794 0.85312 0.52092 0.0
C159 C 0.74271 0.85885 0.53898 0.0
P160 P 0.14367 0.83818 0.58775 0.0
H161 H 0.18527 0.87066 0.61764 0.0
H162 H 0.20661 0.91659 0.6287 0.0
H163 H 0.15931 0.9263 0.5856 0.0
H164 H 0.13865 0.88041 0.57417 0.0
H165 H 0.10037 0.78781 0.57696 0.0
H166 H 0.05822 0.76882 0.58536 0.0
H167 H 0.07697 0.84001 0.62044 0.0
H168 H 0.11898 0.85828 0.61278 0.0
H169 H 0.1788 0.83355 0.56438 0.0
H170 H 0.11148 0.83369 0.55269 0.0
O171 O 0.1565 0.82384 0.59982 0.0
H172 H 0.18213 0.83015 0.52825 0.0
H173 H 0.11422 0.82948 0.5165 0.0
C174 C 0.16048 0.87223 0.59505 0.0
C175 C 0.17966 0.88272 0.61044 0.0
C176 C 0.19168 0.90897 0.61689 0.0
C177 C 0.18454 0.92515 0.60817 0.0
C178 C 0.16548 0.91451 0.5925 0.0
C179 C 0.1536 0.88827 0.58597 0.0
C180 C 0.11271 0.82457 0.59391 0.0
C181 C 0.09532 0.79927 0.58644 0.0
C182 C 0.07121 0.78853 0.59114 0.0
C183 C 0.06414 0.80295 0.60348 0.0
C184 C 0.08178 0.82826 0.61106 0.0
C185 C 0.10587 0.83887 0.60647 0.0
C186 C 0.14463 0.83326 0.56115 0.0
C187 C 0.16448 0.83232 0.55399 0.0
C188 C 0.1663 0.83029 0.53333 0.0
C189 C 0.14834 0.82934 0.51945 0.0
C190 C 0.12844 0.83032 0.52676 0.0
C191 C 0.12671 0.83245 0.54745 0.0
P192 P 0.96333 0.49647 0.75988 0.0
H193 H 0.96003 0.47346 0.71949 0.0
H194 H 0.93677 0.42933 0.70346 0.0
H195 H 0.90399 0.40404 0.75877 0.0
H196 H 0.92647 0.44837 0.7743 0.0
H197 H 0.97752 0.53816 0.73431 0.0
H198 H 0.95655 0.55932 0.72111 0.0
H199 H 0.89516 0.51337 0.75426 0.0
H200 H 0.916 0.49127 0.76659 0.0
H201 H 0.98352 0.47266 0.78452 0.0
H202 H 0.95229 0.52104 0.79444 0.0
O203 O 0.99106 0.50963 0.75182 0.0
H204 H 0.98862 0.47126 0.82073 0.0
H205 H 0.95637 0.51888 0.83068 0.0
C206 C 0.94554 0.464 0.74823 0.0
C207 C 0.9478 0.45837 0.72812 0.0
C208 C 0.93454 0.43311 0.71901 0.0
C209 C 0.91877 0.413 0.72991 0.0
C210 C 0.91586 0.41899 0.74988 0.0
C211 C 0.92898 0.44433 0.75889 0.0
C212 C 0.94851 0.51355 0.75176 0.0
C213 C 0.95965 0.53277 0.7389 0.0
C214 C 0.94762 0.54498 0.73142 0.0
C215 C 0.92421 0.53832 0.73677 0.0
C216 C 0.91306 0.51889 0.74967 0.0
C217 C 0.92505 0.50645 0.75694 0.0
C218 C 0.96717 0.49656 0.78676 0.0
C219 C 0.9776 0.48284 0.79452 0.0
C220 C 0.98031 0.48189 0.81523 0.0
C221 C 0.97259 0.49467 0.82865 0.0
C222 C 0.96259 0.5089 0.8208 0.0
C223 C 0.96 0.50993 0.80001 0.0
P224 P 0.56087 0.43271 0.79469 0.0
H225 H 0.5519 0.38272 0.77776 0.0
H226 H 0.52065 0.34964 0.75313 0.0
H227 H 0.48927 0.39794 0.74438 0.0
H228 H 0.52021 0.43062 0.7698 0.0
H229 H 0.61359 0.46283 0.8048 0.0
H230 H 0.64679 0.49492 0.78766 0.0
H231 H 0.59421 0.4903 0.74135 0.0
H232 H 0.56115 0.45827 0.75852 0.0
H233 H 0.5115 0.41212 0.80702 0.0
H234 H 0.5821 0.48035 0.82162 0.0
O235 O 0.57271 0.41854 0.80824 0.0
H236 H 0.49494 0.427 0.83304 0.0
H237 H 0.56606 0.49469 0.84868 0.0
C238 C 0.53812 0.40891 0.77584 0.0
C239 C 0.53827 0.38619 0.7706 0.0
C240 C 0.5205 0.36737 0.75629 0.0
C241 C 0.50239 0.37109 0.7467 0.0
C242 C 0.5027 0.39426 0.75166 0.0
C243 C 0.52044 0.41302 0.7661 0.0
C244 C 0.58493 0.45769 0.7827 0.0
C245 C 0.6092 0.46875 0.79098 0.0
C246 C 0.62815 0.48722 0.78124 0.0
C247 C 0.62309 0.49491 0.76305 0.0
C248 C 0.59867 0.48439 0.75515 0.0
C249 C 0.57973 0.46607 0.765 0.0
C250 C 0.54788 0.44549 0.81192 0.0
C251 C 0.52337 0.43059 0.81555 0.0
C252 C 0.514 0.43895 0.83075 0.0
C253 C 0.52916 0.46201 0.84315 0.0
C254 C 0.55369 0.47708 0.83926 0.0
C255 C 0.56295 0.46885 0.8238 0.0
P256 P 0.51857 0.02175 0.75476 0.0
H257 H 0.50113 0.02737 0.71543 0.0
H258 H 0.47853 0.04824 0.70455 0.0
H259 H 0.4766 0.0708 0.76673 0.0
H260 H 0.49911 0.04983 0.77748 0.0
H261 H 0.55706 0.00982 0.7493 0.0
H262 H 0.59935 0.03563 0.74159 0.0
H263 H 0.59128 0.10264 0.74202 0.0
H264 H 0.54902 0.0767 0.74965 0.0
H265 H 0.47942 0.98471 0.77605 0.0
H266 H 0.55309 0.04758 0.79109 0.0
O267 O 0.50667 0.99328 0.74115 0.0
H268 H 0.47562 0.97775 0.8116 0.0
H269 H 0.54979 0.04028 0.82655 0.0
C270 C 0.50133 0.0366 0.74722 0.0
C271 C 0.49569 0.03668 0.7267 0.0
C272 C 0.48297 0.0488 0.72051 0.0
C273 C 0.47571 0.06109 0.7348 0.0
C274 C 0.48163 0.06116 0.75539 0.0
C275 C 0.49449 0.04916 0.76155 0.0
C276 C 0.54979 0.0412 0.74957 0.0
C277 C 0.56441 0.03006 0.74769 0.0
C278 C 0.58862 0.04488 0.74345 0.0
C279 C 0.5986 0.07115 0.74107 0.0
C280 C 0.58398 0.08237 0.74344 0.0
C281 C 0.55982 0.06754 0.7478 0.0
C282 C 0.51661 0.01637 0.78092 0.0
C283 C 0.49488 0.99679 0.78701 0.0
C284 C 0.4928 0.99276 0.80733 0.0
C285 C 0.51246 0.00834 0.82196 0.0
C286 C 0.53422 0.02806 0.81573 0.0
C287 C 0.53621 0.03212 0.7954 0.0
P288 P 0.8018 0.62753 0.91064 0.0
H289 H 0.77051 0.64815 0.92092 0.0
H290 H 0.72828 0.62803 0.92924 0.0
H291 H 0.72119 0.55312 0.91878 0.0
H292 H 0.7634 0.57335 0.91042 0.0
H293 H 0.82686 0.62763 0.94856 0.0
H294 H 0.84509 0.60235 0.95907 0.0
H295 H 0.82186 0.55876 0.90044 0.0
H296 H 0.80352 0.58408 0.89007 0.0
H297 H 0.77336 0.63639 0.87928 0.0
H298 H 0.83975 0.63336 0.88516 0.0
O299 O 0.81699 0.65609 0.92433 0.0
H300 H 0.78041 0.6474 0.84485 0.0
H301 H 0.84606 0.64244 0.85045 0.0
C302 C 0.77024 0.6123 0.91547 0.0
C303 C 0.75984 0.6274 0.92036 0.0
C304 C 0.73566 0.61586 0.92497 0.0
C305 C 0.72149 0.589 0.9248 0.0
C306 C 0.7318 0.57389 0.91933 0.0
C307 C 0.75593 0.58545 0.91453 0.0
C308 C 0.8145 0.60822 0.91836 0.0
C309 C 0.82573 0.61267 0.93796 0.0
C310 C 0.83597 0.59808 0.94399 0.0
C311 C 0.83507 0.57873 0.93051 0.0
C312 C 0.82318 0.57384 0.91103 0.0
C313 C 0.81274 0.5883 0.90509 0.0
C314 C 0.80561 0.63324 0.88462 0.0
C315 C 0.78915 0.63748 0.87302 0.0
C316 C 0.79318 0.64369 0.85324 0.0
C317 C 0.81378 0.64576 0.84469 0.0
C318 C 0.83019 0.64146 0.85649 0.0
C319 C 0.82636 0.63576 0.87632 0.0
P320 P 0.44964 0.22673 0.89819 0.0
H321 H 0.48828 0.27535 0.91873 0.0
H322 H 0.4881 0.30927 0.94004 0.0
H323 H 0.40921 0.26587 0.93527 0.0
H324 H 0.40959 0.23191 0.91333 0.0
H325 H 0.43503 0.17462 0.88252 0.0
H326 H 0.43264 0.13847 0.8989 0.0
H327 H 0.44455 0.18032 0.95711 0.0
H328 H 0.44685 0.21644 0.94066 0.0
H329 H 0.46175 0.24547 0.85903 0.0
H330 H 0.39704 0.19381 0.88607 0.0
O331 O 0.47833 0.23743 0.89295 0.0
H332 H 0.43778 0.23469 0.82649 0.0
H333 H 0.37276 0.18302 0.85335 0.0
C334 C 0.44894 0.25129 0.91425 0.0
C335 C 0.4709 0.27305 0.9222 0.0
C336 C 0.47077 0.29236 0.93462 0.0
C337 C 0.44863 0.29022 0.93951 0.0
C338 C 0.42656 0.26818 0.93166 0.0
C339 C 0.42674 0.24877 0.91916 0.0
C340 C 0.44082 0.19807 0.91035 0.0
C341 C 0.43625 0.17567 0.8988 0.0
C342 C 0.43503 0.1551 0.90817 0.0
C343 C 0.43855 0.1567 0.92926 0.0
C344 C 0.4415 0.17848 0.94085 0.0
C345 C 0.44286 0.19915 0.93143 0.0
C346 C 0.43122 0.22004 0.87482 0.0
C347 C 0.44235 0.23182 0.85797 0.0
C348 C 0.42866 0.22562 0.83937 0.0
C349 C 0.4035 0.20777 0.83737 0.0
C350 C 0.39214 0.19684 0.8545 0.0
C351 C 0.40596 0.20291 0.87314 0.0
P352 P 0.8101 0.16468 0.91818 0.0
H353 H 0.80693 0.19396 0.95336 0.0
H354 H 0.82924 0.23983 0.96542 0.0
H355 H 0.87216 0.25544 0.91476 0.0
H356 H 0.84967 0.20984 0.90258 0.0
H357 H 0.77653 0.11375 0.92977 0.0
H358 H 0.73473 0.09395 0.93914 0.0
H359 H 0.73273 0.1625 0.92737 0.0
H360 H 0.77455 0.18217 0.918 0.0
H361 H 0.84458 0.1579 0.89534 0.0
H362 H 0.78032 0.16365 0.88256 0.0
O363 O 0.82377 0.15126 0.93036 0.0
H364 H 0.85031 0.15762 0.85948 0.0
H365 H 0.78589 0.16323 0.84667 0.0
C366 C 0.8261 0.1985 0.92675 0.0
C367 C 0.82084 0.20729 0.94465 0.0
C368 C 0.83357 0.23347 0.95154 0.0
C369 C 0.85226 0.25114 0.94091 0.0
C370 C 0.85782 0.2422 0.92322 0.0
C371 C 0.84485 0.21611 0.9162 0.0
C372 C 0.77879 0.14964 0.92371 0.0
C373 C 0.76707 0.12449 0.92917 0.0
C374 C 0.74314 0.11314 0.9344 0.0
C375 C 0.73056 0.1268 0.93419 0.0
C376 C 0.74213 0.15171 0.92803 0.0
C377 C 0.76599 0.16294 0.92265 0.0
C378 C 0.81179 0.16034 0.89157 0.0
C379 C 0.8314 0.15854 0.88478 0.0
C380 C 0.83479 0.15861 0.86432 0.0
C381 C 0.81855 0.16042 0.85031 0.0
C382 C 0.79851 0.1615 0.85711 0.0
C383 C 0.79531 0.16173 0.87763 0.0
P384 P 0.63272 0.83606 0.08531 0.0
H385 H 0.62656 0.81057 0.04528 0.0
H386 H 0.60321 0.76551 0.03121 0.0
H387 H 0.57828 0.74351 0.08953 0.0
H388 H 0.601 0.78856 0.10326 0.0
H389 H 0.64742 0.88715 0.07348 0.0
H390 H 0.62418 0.90623 0.0603 0.0
H391 H 0.55688 0.83656 0.06729 0.0
H392 H 0.58031 0.81783 0.08086 0.0
H393 H 0.66644 0.82782 0.11007 0.0
H394 H 0.61129 0.84807 0.11945 0.0
O395 O 0.6594 0.85017 0.07544 0.0
H396 H 0.6725 0.82654 0.14627 0.0
H397 H 0.61709 0.84659 0.15574 0.0
C398 C 0.61602 0.80279 0.07539 0.0
C399 C 0.61615 0.79598 0.05502 0.0
C400 C 0.60283 0.77023 0.04703 0.0
C401 C 0.58903 0.75087 0.05929 0.0
C402 C 0.58855 0.75793 0.07963 0.0
C403 C 0.60182 0.78369 0.08758 0.0
C404 C 0.61556 0.85093 0.07773 0.0
C405 C 0.62767 0.87606 0.07229 0.0
C406 C 0.61436 0.88687 0.06465 0.0
C407 C 0.58867 0.87273 0.06243 0.0
C408 C 0.57662 0.84795 0.06882 0.0
C409 C 0.58999 0.83716 0.07646 0.0
C410 C 0.63872 0.83841 0.11215 0.0
C411 C 0.65588 0.83234 0.11998 0.0
C412 C 0.65914 0.83136 0.14064 0.0
C413 C 0.64519 0.83636 0.15384 0.0
C414 C 0.62828 0.84292 0.14596 0.0
C415 C 0.62494 0.84376 0.12522 0.0
P416 P 0.21268 0.7838 0.10922 0.0
H417 H 0.20265 0.75391 0.07045 0.0
H418 H 0.16538 0.71707 0.05335 0.0
H419 H 0.12383 0.72548 0.09916 0.0
H420 H 0.16093 0.76238 0.11604 0.0
H421 H 0.26068 0.82642 0.12235 0.0
H422 H 0.29189 0.8602 0.10505 0.0
H423 H 0.24178 0.83419 0.05106 0.0
H424 H 0.21049 0.80034 0.06859 0.0
H425 H 0.21258 0.76982 0.15011 0.0
H426 H 0.19944 0.82302 0.1192 0.0
O427 O 0.22705 0.76784 0.11472 0.0
H428 H 0.20507 0.78549 0.1818 0.0
H429 H 0.19187 0.83901 0.15119 0.0
C430 C 0.18461 0.76111 0.09438 0.0
C431 C 0.18539 0.74837 0.07643 0.0
C432 C 0.16409 0.72733 0.06668 0.0
C433 C 0.14176 0.7184 0.075 0.0
C434 C 0.14085 0.73191 0.0925 0.0
C435 C 0.1621 0.75312 0.1021 0.0
C436 C 0.23343 0.81071 0.0967 0.0
C437 C 0.25627 0.82826 0.10688 0.0
C438 C 0.27406 0.84766 0.09699 0.0
C439 C 0.26934 0.8498 0.07664 0.0
C440 C 0.24603 0.83279 0.06667 0.0
C441 C 0.22813 0.81343 0.07668 0.0
C442 C 0.20704 0.79564 0.13244 0.0
C443 C 0.20827 0.78505 0.15018 0.0
C444 C 0.20403 0.79409 0.16831 0.0
C445 C 0.19824 0.81375 0.16901 0.0
C446 C 0.19635 0.82389 0.15107 0.0
C447 C 0.20079 0.8149 0.13288 0.0
P448 P 0.18521 0.35862 0.08982 0.0
H449 H 0.13544 0.33911 0.07175 0.0
H450 H 0.11174 0.36 0.06457 0.0
H451 H 0.17356 0.43337 0.08859 0.0
H452 H 0.19712 0.41236 0.09578 0.0
H453 H 0.20856 0.36022 0.0533 0.0
H454 H 0.24988 0.38767 0.0442 0.0
H455 H 0.2707 0.42936 0.10351 0.0
H456 H 0.2292 0.4018 0.11251 0.0
H457 H 0.14684 0.34622 0.11654 0.0
H458 H 0.21861 0.35488 0.11988 0.0
O459 O 0.17277 0.33039 0.07577 0.0
H460 H 0.14334 0.33614 0.15143 0.0
H461 H 0.21539 0.34546 0.15508 0.0
C462 C 0.1682 0.37426 0.08388 0.0
C463 C 0.14395 0.35972 0.07532 0.0
C464 C 0.13037 0.37164 0.07138 0.0
C465 C 0.14085 0.39834 0.07595 0.0
C466 C 0.16513 0.41283 0.08464 0.0
C467 C 0.17862 0.40083 0.08874 0.0
C468 C 0.21604 0.37847 0.08376 0.0
C469 C 0.22206 0.37511 0.06441 0.0
C470 C 0.24562 0.39098 0.05916 0.0
C471 C 0.26355 0.4106 0.07318 0.0
C472 C 0.25736 0.41415 0.09251 0.0
C473 C 0.23369 0.39837 0.09768 0.0
C474 C 0.18337 0.35229 0.11582 0.0
C475 C 0.16201 0.34634 0.12483 0.0
C476 C 0.15992 0.34035 0.14472 0.0
C477 C 0.17918 0.34024 0.15594 0.0
C478 C 0.20044 0.34581 0.14681 0.0
C479 C 0.20233 0.35135 0.12676 0.0
P480 P 0.47984 0.98087 0.24788 0.0
H481 H 0.45919 0.99486 0.28099 0.0
H482 H 0.41843 0.97469 0.29249 0.0
H483 H 0.39288 0.91328 0.24443 0.0
H484 H 0.43362 0.93403 0.23247 0.0
H485 H 0.52999 0.99794 0.26335 0.0
H486 H 0.55119 0.97495 0.27215 0.0
H487 H 0.48434 0.90254 0.25626 0.0
H488 H 0.46328 0.92557 0.24745 0.0
H489 H 0.44431 0.97861 0.21623 0.0
H490 H 0.51756 0.99127 0.2211 0.0
O491 O 0.4958 0.01076 0.25936 0.0
H492 H 0.44707 0.98579 0.1806 0.0
H493 H 0.52052 0.99889 0.18567 0.0
C494 C 0.44946 0.966 0.25582 0.0
C495 C 0.44483 0.97719 0.27276 0.0
C496 C 0.42154 0.96568 0.27935 0.0
C497 C 0.40257 0.94246 0.26934 0.0
C498 C 0.40726 0.9311 0.25248 0.0
C499 C 0.4305 0.94292 0.24567 0.0
C500 C 0.49488 0.96355 0.25515 0.0
C501 C 0.51981 0.97712 0.26192 0.0
C502 C 0.53198 0.96396 0.26678 0.0
C503 C 0.5194 0.93693 0.26495 0.0
C504 C 0.49443 0.92337 0.25809 0.0
C505 C 0.48234 0.93657 0.25305 0.0
C506 C 0.48046 0.98359 0.22122 0.0
C507 C 0.46079 0.9824 0.2096 0.0
C508 C 0.46241 0.98664 0.18925 0.0
C509 C 0.484 0.99288 0.18039 0.0
C510 C 0.5037 0.99425 0.19213 0.0
C511 C 0.50193 0.98965 0.21235 0.0
P512 P 0.10989 0.54592 0.23397 0.0
H513 H 0.14144 0.6009 0.23192 0.0
H514 H 0.14608 0.6387 0.25167 0.0
H515 H 0.08538 0.5898 0.28421 0.0
H516 H 0.08069 0.55184 0.26416 0.0
H517 H 0.08585 0.48953 0.229 0.0
H518 H 0.08693 0.45914 0.25091 0.0
H519 H 0.12606 0.52093 0.2987 0.0
H520 H 0.1258 0.55126 0.27652 0.0
H521 H 0.10719 0.51925 0.19537 0.0
H522 H 0.06264 0.54332 0.22567 0.0
O523 O 0.13703 0.55527 0.22553 0.0
H524 H 0.07881 0.50475 0.16498 0.0
H525 H 0.03393 0.52853 0.19534 0.0
C526 C 0.11107 0.57361 0.2469 0.0
C527 C 0.12903 0.59827 0.24321 0.0
C528 C 0.13174 0.61985 0.25458 0.0
C529 C 0.11638 0.61715 0.26974 0.0
C530 C 0.0975 0.59244 0.27266 0.0
C531 C 0.09486 0.57079 0.26128 0.0
C532 C 0.10537 0.52261 0.25122 0.0
C533 C 0.09411 0.49642 0.24435 0.0
C534 C 0.09465 0.47902 0.25694 0.0
C535 C 0.10668 0.48764 0.27654 0.0
C536 C 0.11689 0.51371 0.28363 0.0
C537 C 0.1165 0.53106 0.271 0.0
C538 C 0.0873 0.53288 0.21259 0.0
C539 C 0.09117 0.52122 0.19552 0.0
C540 C 0.0748 0.51272 0.17821 0.0
C541 C 0.0542 0.51567 0.17769 0.0
C542 C 0.04985 0.52639 0.19517 0.0
C543 C 0.06623 0.5348 0.21253 0.0
P544 P 0.4836 0.50912 0.25161 0.0
H545 H 0.53126 0.54292 0.2742 0.0
H546 H 0.55211 0.58815 0.28761 0.0
H547 H 0.49037 0.59371 0.26409 0.0
H548 H 0.46985 0.54849 0.25036 0.0
H549 H 0.43722 0.46759 0.23049 0.0
H550 H 0.39535 0.44648 0.23962 0.0
H551 H 0.4206 0.49285 0.29717 0.0
H552 H 0.4621 0.51455 0.28752 0.0
H553 H 0.51793 0.50433 0.22715 0.0
H554 H 0.45578 0.51456 0.21771 0.0
O555 O 0.49732 0.49456 0.26195 0.0
H556 H 0.52323 0.50629 0.19123 0.0
H557 H 0.46082 0.51623 0.18166 0.0
C558 C 0.49889 0.54234 0.2616 0.0
C559 C 0.52218 0.55384 0.27201 0.0
C560 C 0.53402 0.57968 0.27974 0.0
C561 C 0.52279 0.59448 0.27709 0.0
C562 C 0.49957 0.58291 0.2663 0.0
C563 C 0.48777 0.55705 0.25856 0.0
C564 C 0.45261 0.49333 0.25801 0.0
C565 C 0.43365 0.47354 0.2449 0.0
C566 C 0.40973 0.46124 0.25027 0.0
C567 C 0.40449 0.46816 0.26906 0.0
C568 C 0.42378 0.48751 0.28236 0.0
C569 C 0.44759 0.49989 0.27689 0.0
C570 C 0.48601 0.50849 0.22495 0.0
C571 C 0.50519 0.5066 0.21729 0.0
C572 C 0.50834 0.50794 0.19681 0.0
C573 C 0.49234 0.51126 0.18366 0.0
C574 C 0.47317 0.51327 0.19141 0.0
C575 C 0.47025 0.51225 0.21197 0.0
Tb576 Tb 0.52158 0.02062 0.9989 0.0
C577 C 0.50661 0.96353 0.00776 0.0
Tb578 Tb 0.46802 0.98132 0.0026 0.0
O579 O 0.52597 0.03961 0.0292 0.0
O580 O 0.50056 0.00089 0.02205 0.0
O581 O 0.52269 0.98513 0.00068 0.0
C582 C 0.42361 0.95649 0.01518 0.0
O583 O 0.48491 0.95937 0.0124 0.0
C584 C 0.48247 0.98235 0.96648 0.0
C585 C 0.48312 0.03847 0.99312 0.0
O586 O 0.43038 0.9491 0.99937 0.0
O587 O 0.44184 0.97779 0.02394 0.0
O588 O 0.46463 0.96197 0.97262 0.0
O589 O 0.48905 0.00098 0.97955 0.0
O590 O 0.46657 0.01684 -2e-05 0.0
O591 O 0.50493 0.04245 0.98917 0.0
C592 C 0.56509 0.04392 0.9846 0.0
O593 O 0.55911 0.05295 4e-05 0.0
O594 O 0.54666 0.02187 0.97733 0.0
C595 C 0.50773 0.01951 0.03529 0.0
Tb596 Tb 0.96551 0.49435 0.00182 0.0
C597 C 0.01578 0.53882 0.02196 0.0
Tb598 Tb 0.00522 0.48158 0.01467 0.0
O599 O 0.96342 0.5048 0.03324 0.0
O600 O 0.97296 0.4771 0.02572 0.0
O601 O 0.99672 0.53305 0.009 0.0
C602 C 0.03801 0.47275 0.03351 0.0
O603 O 0.02067 0.5212 0.0281 0.0
C604 C -2e-05 0.48634 0.97636 0.0
C605 C 0.95475 0.43662 0.99514 0.0
O606 O 0.04209 0.48724 0.01896 0.0
O607 O 0.01559 0.46351 0.03755 0.0
O608 O 0.00766 0.47169 0.98315 0.0
O609 O 0.99791 0.49911 0.99091 0.0
O610 O 0.97481 0.44299 0.00692 0.0
O611 O 0.94857 0.45371 0.98993 0.0
C612 C 0.93256 0.50284 0.98283 0.0
O613 O 0.95313 0.50755 0.97633 0.0
O614 O 0.9305 0.49317 -0.00011 0.0
C615 C 0.97082 0.48998 0.04019 0.0
Tb616 Tb 0.46977 0.50471 0.00913 0.0
C617 C 0.47954 0.46034 0.99553 0.0
Tb618 Tb 0.52144 0.51917 0.99828 0.0
O619 O 0.4548 0.48951 0.97791 0.0
O620 O 0.49076 0.51936 0.98475 0.0
O621 O 0.46523 0.46642 0.00539 0.0
C622 C 0.56031 0.52738 0.97947 0.0
O623 O 0.5008 0.47772 0.98974 0.0
C624 C 0.51561 0.51901 0.0367 0.0
C625 C 0.51198 0.56364 0.01175 0.0
O626 O 0.55522 0.51794 0.99664 0.0
O627 O 0.54354 0.53212 0.97295 0.0
O628 O 0.53632 0.53364 0.02969 0.0
O629 O 0.50027 0.50396 0.02251 0.0
O630 O 0.52569 0.55706 0.00156 0.0
O631 O 0.49074 0.54646 0.0178 0.0
C632 C 0.43022 0.4961 0.02702 0.0
O633 O 0.43495 0.50392 0.0093 0.0
O634 O 0.44787 0.49338 0.03472 0.0
C635 C 0.47536 0.50405 0.97068 0.0
Tb636 Tb 0.19521 0.3529 0.33265 0.0
C637 C 0.18396 0.29632 0.3398 0.0
Tb638 Tb 0.14275 0.3108 0.33756 0.0
O639 O 0.19988 0.37063 0.36356 0.0
O640 O 0.17604 0.33158 0.35585 0.0
O641 O 0.19891 0.31877 0.33319 0.0
C642 C 0.10047 0.28445 0.35327 0.0
O643 O 0.16195 0.29033 0.34498 0.0
C644 C 0.15527 0.31358 0.30075 0.0
C645 C 0.15429 0.36754 0.33017 0.0
O646 O 0.10596 0.27727 0.33659 0.0
O647 O 0.11869 0.30642 0.36098 0.0
O648 O 0.13821 0.29265 0.30697 0.0
O649 O 0.16193 0.33191 0.3142 0.0
O650 O 0.13877 0.34492 0.33631 0.0
O651 O 0.17631 0.37336 0.32522 0.0
C652 C 0.23813 0.37922 0.31779 0.0
O653 O 0.23153 0.38713 0.33345 0.0
O654 O 0.2206 0.35658 0.31055 0.0
C655 C 0.18274 0.34959 0.36953 0.0
Tb656 Tb 0.64392 0.84115 0.32883 0.0
C657 C 0.6983 0.88233 0.34375 0.0
Tb658 Tb 0.67982 0.82241 0.33943 0.0
O659 O 0.64656 0.85581 0.36004 0.0
O660 O 0.65163 0.82463 0.35316 0.0
O661 O 0.67764 0.87824 0.33408 0.0
C662 C 0.71209 0.81097 0.35583 0.0
O663 O 0.70206 0.86352 0.34869 0.0
C664 C 0.67049 0.82394 0.30107 0.0
C665 C 0.62586 0.7812 0.32569 0.0
O666 O 0.71218 0.81853 0.3381 0.0
O667 O 0.69385 0.80994 0.36444 0.0
O668 O 0.67578 0.80746 0.3079 0.0
O669 O 0.67248 0.8396 0.31539 0.0
O670 O 0.6459 0.78615 0.33687 0.0
O671 O 0.62258 0.79965 0.31887 0.0
C672 C 0.61303 0.85338 0.31095 0.0
O673 O 0.60936 0.84112 0.32685 0.0
O674 O 0.63394 0.85849 0.30502 0.0
C675 C 0.65301 0.84035 0.36722 0.0
Tb676 Tb 0.14248 0.83063 0.34308 0.0
C677 C 0.15737 0.78768 0.33554 0.0
Tb678 Tb 0.19642 0.84661 0.33886 0.0
O679 O 0.13872 0.84041 0.31227 0.0
O680 O 0.16335 0.8287 0.32044 0.0
O681 O 0.14115 0.79337 0.34241 0.0
C682 C 0.23971 0.86622 0.32406 0.0
O683 O 0.17871 0.80549 0.33018 0.0
C684 C 0.18333 0.83973 0.37531 0.0
C685 C 0.18106 0.88949 0.3451 0.0
O686 O 0.23227 0.84979 0.33738 0.0
O687 O 0.22288 0.87161 0.3192 0.0
O688 O 0.20175 0.83818 0.36946 0.0
O689 O 0.1758 0.84845 0.36187 0.0
O690 O 0.19737 0.8834 0.33927 0.0
O691 O 0.15915 0.87212 0.34984 0.0
C692 C 0.0988 0.81256 0.35701 0.0
O693 O 0.10354 0.81818 0.33876 0.0
O694 O 0.11862 0.81703 0.36739 0.0
C695 C 0.1566 0.83758 0.30669 0.0
Tb696 Tb 0.85616 0.68533 0.6645 0.0
C697 C 0.84733 0.63335 0.67853 0.0
Tb698 Tb 0.80431 0.6462 0.67387 0.0
O699 O 0.87018 0.69029 0.69595 0.0
O700 O 0.83408 0.68081 0.68828 0.0
O701 O 0.86109 0.65284 0.66826 0.0
C702 C 0.76518 0.61487 0.69182 0.0
O703 O 0.82557 0.62846 0.68364 0.0
C704 C 0.81163 0.64793 0.63576 0.0
C705 C 0.81383 0.69898 0.66051 0.0
O706 O 0.77038 0.60937 0.67436 0.0
O707 O 0.7819 0.63788 0.69903 0.0
O708 O 0.7906 0.64146 0.64224 0.0
O709 O 0.8265 0.65071 0.65028 0.0
O710 O 0.79906 0.67865 0.66965 0.0
O711 O 0.83565 0.70388 0.65568 0.0
C712 C 0.89627 0.71662 0.64768 0.0
O713 O 0.89093 0.7213 0.6653 0.0
O714 O 0.87891 0.69441 0.63943 0.0
C715 C 0.84929 0.68383 0.70264 0.0
Tb716 Tb 0.31013 0.17134 0.65992 0.0
C717 C 0.36492 0.2098 0.67546 0.0
Tb718 Tb 0.34398 0.14948 0.66989 0.0
O719 O 0.31222 0.18558 0.69132 0.0
O720 O 0.31776 0.15482 0.68424 0.0
O721 O 0.34511 0.20705 0.66517 0.0
C722 C 0.3734 0.13389 0.68553 0.0
O723 O 0.36707 0.19009 0.68073 0.0
C724 C 0.33421 0.15114 0.6316 0.0
C725 C 0.28904 0.11105 0.65676 0.0
O726 O 0.37897 0.15038 0.67234 0.0
O727 O 0.35133 0.12622 0.68991 0.0
O728 O 0.33921 0.13439 0.63825 0.0
O729 O 0.33714 0.16712 0.64598 0.0
O730 O 0.30866 0.11486 0.66789 0.0
O731 O 0.28705 0.13014 0.64976 0.0
C732 C 0.28097 0.1856 0.64184 0.0
O733 O 0.27614 0.17232 0.65721 0.0
O734 O 0.3022 0.19077 0.63657 0.0
C735 C 0.3193 0.17056 0.69839 0.0
Tb736 Tb 0.80575 0.1672 0.67621 0.0
C737 C 0.81902 0.12527 0.66202 0.0
Tb738 Tb 0.85854 0.18516 0.6676 0.0
O739 O 0.79273 0.15482 0.64444 0.0
O740 O 0.82819 0.18529 0.65319 0.0
O741 O 0.80261 0.12964 0.67013 0.0
C742 C 0.90068 0.19727 0.65255 0.0
O743 O 0.8412 0.1439 0.65901 0.0
C744 C 0.84977 0.18045 0.70543 0.0
C745 C 0.84542 0.22681 0.68022 0.0
O746 O 0.87955 0.18671 0.64212 0.0
O747 O 0.89797 0.20077 0.67132 0.0
O748 O 0.87069 0.19682 0.69974 0.0
O749 O 0.83582 0.16632 0.69028 0.0
O750 O 0.85909 0.22135 0.66893 0.0
O751 O 0.82513 0.20853 0.68677 0.0
C752 C 0.76517 0.15528 0.69376 0.0
O753 O 0.77025 0.16498 0.67668 0.0
O754 O 0.78297 0.1525 0.70094 0.0
C755 C 0.81367 0.17067 0.63836 0.0
H756 H 0.30408 0.89983 0.08936 0.0
H757 H 0.38405 0.91189 0.99794 0.0
H758 H 0.2807 0.84169 0.03901 0.0
H759 H 0.40805 0.96929 0.04884 0.0
H760 H 0.34436 0.8878 0.01109 0.0
H761 H 0.34039 0.92762 0.073 0.0
C762 C 0.30649 0.89301 0.07477 0.0
C763 C 0.28944 0.86831 0.06562 0.0
C764 C 0.35823 0.90574 0.01933 0.0
C765 C 0.33099 0.89998 0.04683 0.0
C766 C 0.38087 0.91945 0.01184 0.0
C767 C 0.3993 0.94246 0.02242 0.0
C768 C 0.35407 0.9151 0.03757 0.0
C769 C 0.3943 0.95154 0.0403 0.0
C770 C 0.3272 0.90889 0.06542 0.0
C771 C 0.29328 0.86063 0.04657 0.0
N772 N 0.37218 0.93775 0.04738 0.0
N773 N 0.31377 0.8763 0.0379 0.0
H774 H 0.09379 0.38236 0.08358 0.0
H775 H 0.08515 0.48978 0.02575 0.0
H776 H 0.15515 0.44304 0.05858 0.0
H777 H 0.02912 0.43813 0.06075 0.0
H778 H 0.11142 0.47346 0.03783 0.0
H779 H 0.06981 0.40258 0.07523 0.0
C780 C 0.10219 0.39994 0.07631 0.0
C781 C 0.12644 0.41097 0.07166 0.0
C782 C 0.09347 0.46586 0.04302 0.0
C783 C 0.09915 0.43429 0.06212 0.0
C784 C 0.07851 0.47519 0.03615 0.0
C785 C 0.05496 0.46516 0.04221 0.0
C786 C 0.08465 0.44621 0.05588 0.0
C787 C 0.04717 0.4463 0.05567 0.0
C788 C 0.08856 0.41158 0.07167 0.0
C789 C 0.13655 0.43398 0.06253 0.0
N790 N 0.0619 0.43726 0.06192 0.0
N791 N 0.1228 0.44478 0.05791 0.0
H792 H 0.54362 0.7125 0.06681 0.0
H793 H 0.55212 0.60389 0.99897 0.0
H794 H 0.60439 0.7265 0.0331 0.0
H795 H 0.49362 0.5868 0.03642 0.0
H796 H 0.56939 0.6494 0.00926 0.0
H797 H 0.52325 0.66693 0.05412 0.0
C798 C 0.55269 0.70601 0.05676 0.0
C799 C 0.5758 0.72338 0.05106 0.0
C800 C 0.55273 0.63576 0.01521 0.0
C801 C 0.55248 0.67136 0.03633 0.0
C802 C 0.54279 0.60968 0.00932 0.0
C803 C 0.52142 0.5914 0.01695 0.0
C804 C 0.54132 0.6438 0.02889 0.0
C805 C 0.51014 0.6002 0.03019 0.0
C806 C 0.54099 0.68003 0.04945 0.0
C807 C 0.58648 0.71395 0.03772 0.0
N808 N 0.52031 0.62581 0.03584 0.0
N809 N 0.57477 0.68861 0.03088 0.0
H810 H 0.83531 0.28283 0.9538 0.0
H811 H 0.9675 0.39977 0.99282 0.0
H812 H 0.90172 0.28189 0.94565 0.0
H813 H 0.90669 0.41132 0.97915 0.0
H814 H 0.94219 0.35484 0.97945 0.0
H815 H 0.85983 0.3285 0.96685 0.0
C816 C 0.85504 0.29226 0.9548 0.0
C817 C 0.86657 0.27869 0.94863 0.0
C818 C 0.93437 0.36719 0.97934 0.0
C819 C 0.89453 0.33051 0.96357 0.0
C820 C 0.94876 0.39284 0.98709 0.0
C821 C 0.93917 0.40933 0.98715 0.0
C822 C 0.91006 0.35776 0.97181 0.0
C823 C 0.91481 0.39926 0.97934 0.0
C824 C 0.86896 0.31826 0.96211 0.0
C825 C 0.89214 0.29174 0.95008 0.0
N826 N 0.90098 0.37401 0.97208 0.0
N827 N 0.90526 0.31688 0.95753 0.0
H828 H 0.70059 0.55131 0.95002 0.0
H829 H 0.57431 0.55105 0.9453 0.0
H830 H 0.6854 0.59946 0.91395 0.0
H831 H 0.59656 0.51774 0.99121 0.0
H832 H 0.6125 0.56378 0.93027 0.0
H833 H 0.66002 0.53361 0.96184 0.0
C834 C 0.6886 0.55794 0.94441 0.0
C835 C 0.69639 0.57696 0.93105 0.0
C836 C 0.609 0.5536 0.94358 0.0
C837 C 0.65006 0.55693 0.9446 0.0
C838 C 0.58721 0.54629 0.95212 0.0
C839 C 0.58246 0.53352 0.96957 0.0
C840 C 0.62606 0.54795 0.9525 0.0
C841 C 0.59966 0.52769 0.9778 0.0
C842 C 0.66553 0.54796 0.95127 0.0
C843 C 0.68022 0.58506 0.92445 0.0
N844 N 0.62077 0.53502 0.96921 0.0
N845 N 0.65783 0.57502 0.9313 0.0
H846 H 0.46858 0.13951 0.91802 0.0
H847 H 0.44041 0.03898 0.99781 0.0
H848 H 0.41931 0.13162 0.96258 0.0
H849 H 0.50965 0.08012 0.97301 0.0
H850 H 0.42814 0.06764 0.98295 0.0
H851 H 0.47878 0.11108 0.93498 0.0
C852 C 0.45961 0.13144 0.93123 0.0
C853 C 0.44295 0.13775 0.93885 0.0
C854 C 0.44606 0.07038 0.98101 0.0
C855 C 0.45483 0.10545 0.95853 0.0
C856 C 0.45309 0.0541 0.98945 0.0
C857 C 0.47603 0.05699 0.98653 0.0
C858 C 0.46195 0.08922 0.96934 0.0
C859 C 0.49174 0.07696 0.97561 0.0
C860 C 0.46566 0.11546 0.94104 0.0
C861 C 0.43227 0.12717 0.95629 0.0
N862 N 0.48429 0.09206 0.96725 0.0
N863 N 0.43831 0.11135 0.96556 0.0
H864 H 0.71261 0.14978 0.95904 0.0
H865 H 0.57976 0.02478 0.95396 0.0
H866 H 0.69208 0.07774 0.92476 0.0
H867 H 0.60466 0.09128 0.99697 0.0
H868 H 0.61973 0.04531 0.94095 0.0
H869 H 0.67196 0.13016 0.97085 0.0
C870 C 0.69947 0.12989 0.95387 0.0
C871 C 0.70572 0.11535 0.94091 0.0
C872 C 0.61649 0.05543 0.95323 0.0
C873 C 0.65927 0.09274 0.95446 0.0
C874 C 0.59368 0.04374 0.96064 0.0
C875 C 0.58903 0.05638 0.97658 0.0
C876 C 0.63471 0.08001 0.96176 0.0
C877 C 0.60761 0.08091 0.98468 0.0
C878 C 0.67634 0.11866 0.96072 0.0
C879 C 0.6881 0.08956 0.9349 0.0
N880 N 0.62968 0.09197 0.97717 0.0
N881 N 0.66567 0.07909 0.94171 0.0
H882 H 0.86431 0.56692 0.9091 0.0
H883 H 0.89191 0.49883 0.99765 0.0
H884 H 0.83325 0.55763 0.9659 0.0
H885 H 0.93476 0.52333 0.94716 0.0
H886 H 0.86589 0.5144 0.9837 0.0
H887 H 0.88594 0.54517 0.92038 0.0
C888 C 0.86184 0.56004 0.92386 0.0
C889 C 0.84707 0.56419 0.93664 0.0
C890 C 0.88088 0.51624 0.9756 0.0
C891 C 0.87182 0.53944 0.94965 0.0
C892 C 0.89567 0.50728 0.98351 0.0
C893 C 0.91554 0.50998 0.97356 0.0
C894 C 0.88597 0.52788 0.95757 0.0
C895 C 0.91964 0.52102 0.95531 0.0
C896 C 0.8743 0.54778 0.93033 0.0
C897 C 0.84471 0.55512 0.95569 0.0
N898 N 0.90502 0.52969 0.94791 0.0
N899 N 0.85698 0.54321 0.96162 0.0
H900 H 0.47978 0.31893 0.9728 0.0
H901 H 0.43339 0.4195 0.98493 0.0
H902 H 0.41834 0.3103 0.93495 0.0
H903 H 0.5087 0.43956 0.99541 0.0
H904 H 0.42234 0.37479 0.97445 0.0
H905 H 0.48472 0.35851 0.98968 0.0
C906 C 0.4672 0.32524 0.96812 0.0
C907 C 0.44899 0.3116 0.95208 0.0
C908 C 0.4412 0.38902 0.97928 0.0
C909 C 0.45434 0.35663 0.97162 0.0
C910 C 0.44748 0.41437 0.9853 0.0
C911 C 0.47198 0.4331 0.99088 0.0
C912 C 0.45953 0.38248 0.97937 0.0
C913 C 0.48963 0.42568 0.99102 0.0
C914 C 0.47 0.34776 0.97782 0.0
C915 C 0.4327 0.32025 0.94717 0.0
N916 N 0.48306 0.40093 0.98538 0.0
N917 N 0.43592 0.34244 0.95677 0.0
H918 H 0.12248 0.70104 0.03561 0.0
H919 H 0.04271 0.55637 0.05834 0.0
H920 H 0.11281 0.67867 0.09597 0.0
H921 H 0.0262 0.58249 0.00424 0.0
H922 H 0.0712 0.60102 0.07144 0.0
H923 H 0.0895 0.6576 0.02265 0.0
C924 C 0.11324 0.68706 0.04611 0.0
C925 C 0.12029 0.69341 0.06687 0.0
C926 C 0.06124 0.59701 0.05675 0.0
C927 C 0.08308 0.64388 0.05223 0.0
C928 C 0.04512 0.57155 0.04922 0.0
C929 C 0.03223 0.56581 0.03015 0.0
C930 C 0.06489 0.61687 0.04497 0.0
C931 C 0.0358 0.58619 0.01904 0.0
C932 C 0.09444 0.66239 0.03874 0.0
C933 C 0.10776 0.67465 0.07987 0.0
N934 N 0.05207 0.6109 0.02652 0.0
N935 N 0.08998 0.65066 0.07232 0.0
H936 H 0.27732 0.43312 0.03829 0.0
H937 H 0.41815 0.47887 0.06377 0.0
H938 H 0.30688 0.42543 0.09535 0.0
H939 H 0.3897 0.49503 0.01009 0.0
H940 H 0.37804 0.46131 0.07651 0.0
H941 H 0.31868 0.45758 0.02836 0.0
C942 C 0.29255 0.43664 0.04874 0.0
C943 C 0.28866 0.42705 0.0676 0.0
C944 C 0.38062 0.46894 0.06204 0.0
C945 C 0.33609 0.45509 0.05638 0.0
C946 C 0.40349 0.47896 0.05479 0.0
C947 C 0.40709 0.48822 0.03583 0.0
C948 C 0.36121 0.46799 0.05013 0.0
C949 C 0.3876 0.48798 0.02477 0.0
C950 C 0.31617 0.45073 0.04312 0.0
C951 C 0.30908 0.43256 0.0807 0.0
N952 N 0.36541 0.47778 0.032 0.0
N953 N 0.33191 0.44601 0.07477 0.0
H954 H 0.59874 0.89941 0.02938 0.0
H955 H 0.48755 0.92599 0.03361 0.0
H956 H 0.54643 0.87023 0.07327 0.0
H957 H 0.54495 0.96058 0.99445 0.0
H958 H 0.50555 0.90095 0.0456 0.0
H959 H 0.57634 0.91807 0.01408 0.0
C960 C 0.58259 0.89705 0.03588 0.0
C961 C 0.57465 0.88353 0.05281 0.0
C962 C 0.51403 0.91386 0.03425 0.0
C963 C 0.54862 0.9046 0.03514 0.0
C964 C 0.50369 0.92802 0.02731 0.0
C965 C 0.51491 0.94558 0.01315 0.0
C966 C 0.53564 0.91723 0.02688 0.0
C967 C 0.53584 0.94751 0.00555 0.0
C968 C 0.56969 0.90755 0.02703 0.0
C969 C 0.55319 0.88048 0.06022 0.0
N970 N 0.54558 0.93366 0.0126 0.0
N971 N 0.54099 0.89108 0.05142 0.0
H972 H 0.96119 0.16489 0.38389 0.0
H973 H 0.08907 0.29651 0.38941 0.0
H974 H 0.9933 0.21973 0.43678 0.0
H975 H 0.06053 0.23845 0.3386 0.0
H976 H 0.05215 0.27051 0.40577 0.0
H977 H 0.9953 0.19361 0.36575 0.0
C978 C 0.97526 0.18313 0.39161 0.0
C979 C 0.97446 0.18988 0.41192 0.0
C980 C 0.05388 0.26348 0.391 0.0
C981 C 0.01371 0.22268 0.39131 0.0
C982 C 0.07491 0.27833 0.38166 0.0
C983 C 0.07777 0.2695 0.3627 0.0
C984 C 0.03559 0.23964 0.38128 0.0
C985 C 0.05898 0.24585 0.35328 0.0
C986 C 0.99482 0.19943 0.38129 0.0
C987 C 0.99337 0.2136 0.42123 0.0
N988 N 0.03867 0.23167 0.36271 0.0
N989 N 0.01226 0.2291 0.41088 0.0
H990 H 0.81592 0.75904 0.36782 0.0
H991 H 0.71411 0.79496 0.3929 0.0
H992 H 0.78763 0.75235 0.42573 0.0
H993 H 0.74854 0.80917 0.33761 0.0
H994 H 0.74125 0.77993 0.40557 0.0
H995 H 0.79165 0.77793 0.3567 0.0
C996 C 0.8046 0.76157 0.3782 0.0
C997 C 0.80373 0.75401 0.3977 0.0
C998 C 0.74297 0.78647 0.39071 0.0
C999 C 0.77589 0.7757 0.38509 0.0
C1000 C 0.72748 0.79503 0.3835 0.0
C1001 C 0.72909 0.8032 0.36419 0.0
C1002 C 0.76004 0.78597 0.37844 0.0
C1003 C 0.74671 0.80296 0.35259 0.0
C1004 C 0.79083 0.77247 0.37188 0.0
C1005 C 0.78901 0.7581 0.41062 0.0
N1006 N 0.7614 0.79435 0.35985 0.0
N1007 N 0.77556 0.7685 0.40404 0.0
H1008 H 0.2659 0.05482 0.3513 0.0
H1009 H 0.16129 0.9126 0.36787 0.0
H1010 H 0.22041 0.03771 0.40035 0.0
H1011 H 0.21883 0.92919 0.3295 0.0
H1012 H 0.17782 0.95889 0.37563 0.0
H1013 H 0.24407 0.00915 0.33913 0.0
C1014 C 0.25132 0.04149 0.35952 0.0
C1015 C 0.24518 0.05014 0.37701 0.0
C1016 C 0.18666 0.95233 0.36539 0.0
C1017 C 0.21988 0.99785 0.36296 0.0
C1018 C 0.17718 0.92594 0.36087 0.0
C1019 C 0.18887 0.91706 0.3482 0.0
C1020 C 0.20781 0.96985 0.35701 0.0
C1021 C 0.20942 0.9352 0.33956 0.0
C1022 C 0.23878 0.01544 0.35249 0.0
C1023 C 0.22569 0.03201 0.38672 0.0
N1024 N 0.21829 0.96072 0.3442 0.0
N1025 N 0.21383 0.0067 0.37963 0.0
H1026 H 0.54912 0.61569 0.3138 0.0
H1027 H 0.58874 0.76065 0.29492 0.0
H1028 H 0.52495 0.63567 0.25981 0.0
H1029 H 0.62073 0.73955 0.34338 0.0
H1030 H 0.56097 0.71485 0.28398 0.0
H1031 H 0.5715 0.66099 0.32686 0.0
C1032 C 0.54857 0.62962 0.30466 0.0
C1033 C 0.53537 0.62187 0.28557 0.0
C1034 C 0.57397 0.72031 0.29709 0.0
C1035 C 0.56078 0.67387 0.30056 0.0
C1036 C 0.58972 0.74642 0.3034 0.0
C1037 C 0.6072 0.75392 0.31998 0.0
C1038 C 0.57566 0.70168 0.30756 0.0
C1039 C 0.60774 0.73468 0.33037 0.0
C1040 C 0.56125 0.65549 0.31218 0.0
C1041 C 0.53481 0.64075 0.27463 0.0
N1042 N 0.5923 0.70951 0.32395 0.0
N1043 N 0.54747 0.66591 0.28223 0.0
H1044 H 0.37427 0.89266 0.27762 0.0
H1045 H 0.25995 0.90686 0.30186 0.0
H1046 H 0.37524 0.96461 0.27758 0.0
H1047 H 0.27305 0.85019 0.3269 0.0
H1048 H 0.2994 0.92505 0.2879 0.0
H1049 H 0.33413 0.87336 0.29075 0.0
C1050 C 0.36592 0.9043 0.28025 0.0
C1051 C 0.37801 0.93024 0.27658 0.0
C1052 C 0.29365 0.90866 0.29647 0.0
C1053 C 0.3323 0.90838 0.2914 0.0
C1054 C 0.27116 0.89825 0.30438 0.0
C1055 C 0.2634 0.87712 0.31561 0.0
C1056 C 0.30826 0.89756 0.2995 0.0
C1057 C 0.27852 0.86661 0.31842 0.0
C1058 C 0.34317 0.89336 0.28784 0.0
C1059 C 0.36655 0.94458 0.28037 0.0
N1060 N 0.30024 0.87687 0.31031 0.0
N1061 N 0.34426 0.93343 0.28747 0.0
H1062 H 0.07531 0.43666 0.28134 0.0
H1063 H 0.18274 0.41902 0.32872 0.0
H1064 H 0.14882 0.49908 0.29866 0.0
H1065 H 0.10738 0.35819 0.32339 0.0
H1066 H 0.16972 0.44891 0.31928 0.0
H1067 H 0.08555 0.4077 0.29798 0.0
C1068 C 0.09349 0.44432 0.28881 0.0
C1069 C 0.11124 0.47033 0.28854 0.0
C1070 C 0.15594 0.4291 0.32035 0.0
C1071 C 0.12306 0.4374 0.30752 0.0
C1072 C 0.1634 0.412 0.32569 0.0
C1073 C 0.14613 0.38606 0.32664 0.0
C1074 C 0.13102 0.42017 0.31558 0.0
C1075 C 0.12129 0.37806 0.32279 0.0
C1076 C 0.09928 0.42783 0.29838 0.0
C1077 C 0.13443 0.47929 0.29864 0.0
N1078 N 0.11445 0.39501 0.31713 0.0
N1079 N 0.1397 0.46282 0.30751 0.0
H1080 H 0.36911 0.41713 0.26122 0.0
H1081 H 0.27518 0.42809 0.32981 0.0
H1082 H 0.38195 0.48925 0.29052 0.0
H1083 H 0.2553 0.36186 0.28788 0.0
H1084 H 0.31534 0.4503 0.31703 0.0
H1085 H 0.32803 0.39594 0.27201 0.0
C1086 C 0.36327 0.42859 0.26974 0.0
C1087 C 0.37914 0.45506 0.27499 0.0
C1088 C 0.30215 0.43096 0.31056 0.0
C1089 C 0.33221 0.43073 0.28774 0.0
C1090 C 0.2793 0.41829 0.31787 0.0
C1091 C 0.26204 0.39316 0.30988 0.0
C1092 C 0.3078 0.41824 0.29531 0.0
C1093 C 0.26817 0.38127 0.29443 0.0
C1094 C 0.33982 0.41643 0.276 0.0
C1095 C 0.37059 0.46874 0.28641 0.0
N1096 N 0.29063 0.39386 0.28771 0.0
N1097 N 0.34778 0.45641 0.29248 0.0
H1098 H 0.56423 0.94669 0.25495 0.0
H1099 H 0.56863 0.84363 0.32183 0.0
H1100 H 0.50404 0.89545 0.28677 0.0
H1101 H 0.622 0.88444 0.28082 0.0
H1102 H 0.54458 0.86228 0.3093 0.0
H1103 H 0.58588 0.92443 0.26462 0.0
C1104 C 0.55559 0.93076 0.26401 0.0
C1105 C 0.53235 0.92299 0.27016 0.0
C1106 C 0.56144 0.867 0.30292 0.0
C1107 C 0.55698 0.89734 0.28124 0.0
C1108 C 0.57515 0.85636 0.31006 0.0
C1109 C 0.59732 0.86262 0.30237 0.0
C1110 C 0.57014 0.88422 0.28814 0.0
C1111 C 0.60499 0.87918 0.28716 0.0
C1112 C 0.56788 0.91795 0.26941 0.0
C1113 C 0.52186 0.90197 0.28161 0.0
N1114 N 0.59152 0.88958 0.28064 0.0
N1115 N 0.53433 0.88999 0.28691 0.0
H1116 H 0.0831 0.63023 0.28225 0.0
H1117 H 0.18788 0.76876 0.33175 0.0
H1118 H 0.16007 0.65603 0.28745 0.0
H1119 H 0.11139 0.74502 0.3286 0.0
H1120 H 0.17706 0.72533 0.31919 0.0
H1121 H 0.09203 0.66991 0.30242 0.0
C1122 C 0.10182 0.64413 0.28779 0.0
C1123 C 0.12092 0.64008 0.2829 0.0
C1124 C 0.16255 0.72945 0.32139 0.0
C1125 C 0.13125 0.6853 0.30589 0.0
C1126 C 0.16874 0.75428 0.32859 0.0
C1127 C 0.15051 0.76056 0.33097 0.0
C1128 C 0.13792 0.71072 0.31625 0.0
C1129 C 0.12601 0.74097 0.32691 0.0
C1130 C 0.10691 0.66675 0.29925 0.0
C1131 C 0.14484 0.65866 0.29045 0.0
N1132 N 0.1204 0.71694 0.31944 0.0
N1133 N 0.14931 0.68047 0.30144 0.0
H1134 H 0.78437 0.02867 0.41275 0.0
H1135 H 0.74693 0.90001 0.34624 0.0
H1136 H 0.83614 0.01708 0.38115 0.0
H1137 H 0.69478 0.92466 0.35534 0.0
H1138 H 0.77983 0.94272 0.35975 0.0
H1139 H 0.75106 0.99105 0.39242 0.0
C1140 C 0.78879 0.01853 0.40135 0.0
C1141 C 0.81319 0.02589 0.39891 0.0
C1142 C 0.76125 0.93895 0.35856 0.0
C1143 C 0.77512 0.98256 0.37592 0.0
C1144 C 0.74247 0.91456 0.35093 0.0
C1145 C 0.71817 0.90888 0.34977 0.0
C1146 C 0.75567 0.95765 0.36553 0.0
C1147 C 0.71334 0.92841 0.35594 0.0
C1148 C 0.76973 0.997 0.3898 0.0
C1149 C 0.81769 0.01175 0.384 0.0
N1150 N 0.73195 0.9519 0.3639 0.0
N1151 N 0.79886 0.9906 0.37328 0.0
H1152 H 0.9439 0.74017 0.36706 0.0
H1153 H 0.08767 0.8043 0.39573 0.0
H1154 H 0.97698 0.76085 0.42842 0.0
H1155 H 0.05524 0.79795 0.33575 0.0
H1156 H 0.04728 0.7869 0.40805 0.0
H1157 H 0.9845 0.75968 0.35529 0.0
C1158 C 0.95974 0.7488 0.37806 0.0
C1159 C 0.95705 0.74877 0.39876 0.0
C1160 C 0.04901 0.78939 0.39221 0.0
C1161 C 0.00367 0.77121 0.38537 0.0
C1162 C 0.07202 0.79924 0.38517 0.0
C1163 C 0.0747 0.80248 0.3647 0.0
C1164 C 0.02854 0.78252 0.37861 0.0
C1165 C 0.05391 0.79573 0.35165 0.0
C1166 C 0.98293 0.76006 0.37133 0.0
C1167 C 0.97823 0.76058 0.41234 0.0
N1168 N 0.03169 0.78595 0.35881 0.0
N1169 N 0.00065 0.77117 0.40541 0.0
H1170 H 0.28563 0.2471 0.37115 0.0
H1171 H 0.16224 0.25121 0.35765 0.0
H1172 H 0.21677 0.18615 0.3867 0.0
H1173 H 0.22838 0.30288 0.33209 0.0
H1174 H 0.18126 0.22659 0.36816 0.0
H1175 H 0.26453 0.26762 0.35678 0.0
C1176 C 0.26603 0.23788 0.37139 0.0
C1177 C 0.253 0.21482 0.38017 0.0
C1178 C 0.19148 0.24319 0.36009 0.0
C1179 C 0.22869 0.23854 0.36398 0.0
C1180 C 0.18063 0.25723 0.35404 0.0
C1181 C 0.1938 0.27932 0.34414 0.0
C1182 C 0.2157 0.25142 0.3563 0.0
C1183 C 0.21755 0.28615 0.33985 0.0
C1184 C 0.25399 0.24969 0.36325 0.0
C1185 C 0.22765 0.20411 0.38039 0.0
N1186 N 0.22778 0.2724 0.34611 0.0
N1187 N 0.21634 0.21612 0.37249 0.0
H1188 H 0.62773 0.49173 0.7227 0.0
H1189 H 0.75588 0.62314 0.7299 0.0
H1190 H 0.66442 0.53961 0.77837 0.0
H1191 H 0.72644 0.5679 0.67723 0.0
H1192 H 0.72074 0.5945 0.74716 0.0
H1193 H 0.66187 0.52135 0.70496 0.0
C1194 C 0.64289 0.50861 0.73115 0.0
C1195 C 0.64327 0.51323 0.75204 0.0
C1196 C 0.72194 0.58862 0.73183 0.0
C1197 C 0.68244 0.54706 0.73188 0.0
C1198 C 0.74194 0.60496 0.72197 0.0
C1199 C 0.74396 0.59777 0.70216 0.0
C1200 C 0.70376 0.565 0.72173 0.0
C1201 C 0.7255 0.57406 0.69254 0.0
C1202 C 0.66244 0.52539 0.72105 0.0
C1203 C 0.66351 0.53519 0.76229 0.0
N1204 N 0.7061 0.5585 0.70242 0.0
N1205 N 0.68228 0.55131 0.7521 0.0
H1206 H 0.48392 0.09166 0.7041 0.0
H1207 H 0.3645 0.10228 0.71517 0.0
H1208 H 0.43582 0.05883 0.75044 0.0
H1209 H 0.41809 0.1445 0.67473 0.0
H1210 H 0.39022 0.08579 0.72806 0.0
H1211 H 0.45982 0.11069 0.69273 0.0
C1212 C 0.46826 0.08843 0.71186 0.0
C1213 C 0.46182 0.07355 0.7282 0.0
C1214 C 0.39644 0.09874 0.71643 0.0
C1215 C 0.43421 0.09535 0.71532 0.0
C1216 C 0.38175 0.10811 0.70906 0.0
C1217 C 0.38921 0.12467 0.69385 0.0
C1218 C 0.41867 0.10584 0.70841 0.0
C1219 C 0.41171 0.13173 0.68647 0.0
C1220 C 0.4546 0.09942 0.70544 0.0
C1221 C 0.44157 0.07032 0.73789 0.0
N1222 N 0.42561 0.12216 0.69375 0.0
N1223 N 0.42841 0.081 0.73124 0.0
H1224 H 0.93704 0.3904 0.70503 0.0
H1225 H 0.82481 0.24753 0.7048 0.0
H1226 H 0.87242 0.37343 0.73425 0.0
H1227 H 0.88504 0.26872 0.66858 0.0
H1228 H 0.84112 0.29323 0.71562 0.0
H1229 H 0.91749 0.34562 0.69131 0.0
C1230 C 0.91859 0.37736 0.70837 0.0
C1231 C 0.90638 0.38583 0.72081 0.0
C1232 C 0.85061 0.2878 0.70519 0.0
C1233 C 0.88397 0.33408 0.70543 0.0
C1234 C 0.84131 0.26173 0.699 0.0
C1235 C 0.85363 0.25422 0.68586 0.0
C1236 C 0.87241 0.30638 0.69825 0.0
C1237 C 0.87494 0.27349 0.67882 0.0
C1238 C 0.90747 0.35166 0.70062 0.0
C1239 C 0.88268 0.36773 0.72496 0.0
N1240 N 0.88368 0.29859 0.68519 0.0
N1241 N 0.87229 0.34267 0.71737 0.0
H1242 H 0.1967 0.96632 0.58624 0.0
H1243 H 0.27744 0.07012 0.6779 0.0
H1244 H 0.20017 0.94734 0.64709 0.0
H1245 H 0.25679 0.09093 0.6227 0.0
H1246 H 0.24899 0.02495 0.66669 0.0
H1247 H 0.21838 0.01192 0.59889 0.0
C1248 C 0.20178 0.97167 0.60227 0.0
C1249 C 0.19681 0.9529 0.61559 0.0
C1250 C 0.2504 0.03935 0.6571 0.0
C1251 C 0.2219 0.00507 0.63008 0.0
C1252 C 0.26667 0.06515 0.66348 0.0
C1253 C 0.2695 0.08422 0.65115 0.0
C1254 C 0.23716 0.03249 0.63806 0.0
C1255 C 0.25504 0.07676 0.63268 0.0
C1256 C 0.2142 0.99773 0.60946 0.0
C1257 C 0.20411 0.96109 0.63618 0.0
N1258 N 0.23969 0.05137 0.62653 0.0
N1259 N 0.21644 0.98653 0.64275 0.0
H1260 H 0.01924 0.23575 0.5774 0.0
H1261 H 0.94524 0.22022 0.67373 0.0
H1262 H 0.05262 0.27076 0.63749 0.0
H1263 H 0.90984 0.19345 0.61322 0.0
H1264 H 0.98472 0.23596 0.66055 0.0
H1265 H 0.97898 0.21779 0.58997 0.0
C1266 C 0.01815 0.23973 0.5932 0.0
C1267 C 0.03943 0.25473 0.60641 0.0
C1268 C 0.96837 0.22661 0.6501 0.0
C1269 C 0.99345 0.23399 0.6209 0.0
C1270 C 0.94582 0.21757 0.65763 0.0
C1271 C 0.92433 0.2056 0.64452 0.0
C1272 C 0.96951 0.22367 0.62925 0.0
C1273 C 0.92607 0.20262 0.62381 0.0
C1274 C 0.99516 0.22936 0.60037 0.0
C1275 C 0.03683 0.25895 0.62679 0.0
N1276 N 0.94833 0.21166 0.61677 0.0
N1277 N 0.01433 0.24865 0.63337 0.0
H1278 H 0.74323 0.76933 0.59977 0.0
H1279 H 0.84271 0.75024 0.6588 0.0
H1280 H 0.8087 0.83221 0.63217 0.0
H1281 H 0.76739 0.68935 0.65032 0.0
H1282 H 0.83043 0.78021 0.64774 0.0
H1283 H 0.7511 0.73899 0.61697 0.0
C1284 C 0.75904 0.77673 0.61069 0.0
C1285 C 0.77537 0.8033 0.61454 0.0
C1286 C 0.81652 0.76036 0.64849 0.0
C1287 C 0.78457 0.7689 0.63395 0.0
C1288 C 0.82353 0.74324 0.6547 0.0
C1289 C 0.80602 0.71732 0.65538 0.0
C1290 C 0.79185 0.75143 0.64248 0.0
C1291 C 0.7814 0.70925 0.65004 0.0
C1292 C 0.76345 0.75946 0.62053 0.0
C1293 C 0.79552 0.81192 0.62888 0.0
N1294 N 0.77503 0.72621 0.6435 0.0
N1295 N 0.79972 0.79477 0.63784 0.0
H1296 H 0.0216 0.77077 0.5794 0.0
H1297 H 0.93585 0.76022 0.66592 0.0
H1298 H 0.04847 0.80913 0.63968 0.0
H1299 H 0.91018 0.70818 0.61142 0.0
H1300 H 0.97641 0.78314 0.65415 0.0
H1301 H 0.97988 0.75164 0.58888 0.0
C1302 C 0.01877 0.77513 0.59463 0.0
C1303 C 0.03864 0.79156 0.60877 0.0
C1304 C 0.96188 0.76681 0.64469 0.0
C1305 C 0.99094 0.77011 0.61957 0.0
C1306 C 0.93873 0.75383 0.65136 0.0
C1307 C 0.91981 0.73224 0.63965 0.0
C1308 C 0.96607 0.75815 0.62617 0.0
C1309 C 0.92441 0.72471 0.62091 0.0
C1310 C 0.99494 0.76434 0.59998 0.0
C1311 C 0.03378 0.7969 0.62817 0.0
N1312 N 0.94718 0.73759 0.61476 0.0
N1313 N 0.01045 0.78618 0.63299 0.0
H1314 H 0.16848 0.22349 0.61687 0.0
H1315 H 0.29097 0.21696 0.61173 0.0
H1316 H 0.2279 0.27317 0.58363 0.0
H1317 H 0.23613 0.17551 0.65148 0.0
H1318 H 0.2662 0.23445 0.59846 0.0
H1319 H 0.19105 0.2023 0.62683 0.0
C1320 C 0.18618 0.22978 0.6115 0.0
C1321 C 0.19636 0.2502 0.59946 0.0
C1322 C 0.25953 0.22144 0.61002 0.0
C1323 C 0.22242 0.22618 0.61096 0.0
C1324 C 0.27362 0.21143 0.61755 0.0
C1325 C 0.26558 0.19492 0.63277 0.0
C1326 C 0.23722 0.21478 0.61774 0.0
C1327 C 0.24299 0.18828 0.63979 0.0
C1328 C 0.19913 0.21778 0.6173 0.0
C1329 C 0.21951 0.25774 0.59316 0.0
N1330 N 0.22962 0.1983 0.63226 0.0
N1331 N 0.23177 0.24576 0.59901 0.0
H1332 H 0.82781 0.99028 0.62916 0.0
H1333 H 0.77371 0.08287 0.65113 0.0
H1334 H 0.75846 0.97452 0.60062 0.0
H1335 H 0.85026 0.10704 0.65939 0.0
H1336 H 0.76478 0.03953 0.63866 0.0
H1337 H 0.83304 0.02961 0.64665 0.0
C1338 C 0.81366 0.99507 0.62656 0.0
C1339 C 0.79289 0.9793 0.61307 0.0
C1340 C 0.78347 0.05434 0.64337 0.0
C1341 C 0.79862 0.0242 0.63336 0.0
C1342 C 0.78856 0.07897 0.65056 0.0
C1343 C 0.81277 0.09856 0.65615 0.0
C1344 C 0.80272 0.04932 0.64215 0.0
C1345 C 0.83136 0.09257 0.65504 0.0
C1346 C 0.81662 0.01748 0.63663 0.0
C1347 C 0.77478 0.98611 0.61085 0.0
N1348 N 0.82595 0.06851 0.64817 0.0
N1349 N 0.77815 0.0082 0.62078 0.0
H1350 H 0.50639 0.33863 0.71856 0.0
H1351 H 0.36356 0.2542 0.68332 0.0
H1352 H 0.45368 0.35616 0.74177 0.0
H1353 H 0.41285 0.22455 0.68279 0.0
H1354 H 0.39773 0.29633 0.69757 0.0
H1355 H 0.47325 0.3013 0.69802 0.0
C1356 C 0.48788 0.33472 0.71932 0.0
C1357 C 0.48282 0.35034 0.73225 0.0
C1358 C 0.40101 0.2806 0.69411 0.0
C1359 C 0.44488 0.3079 0.70842 0.0
C1360 C 0.38161 0.25667 0.68592 0.0
C1361 C 0.38542 0.23588 0.68206 0.0
C1362 C 0.42432 0.28374 0.69807 0.0
C1363 C 0.4091 0.24002 0.68578 0.0
C1364 C 0.46901 0.31348 0.7075 0.0
C1365 C 0.45851 0.34474 0.73203 0.0
N1366 N 0.42765 0.26346 0.69359 0.0
N1367 N 0.44039 0.32384 0.72043 0.0
H1368 H 0.61543 0.1062 0.71332 0.0
H1369 H 0.75201 0.13192 0.72812 0.0
H1370 H 0.63948 0.07113 0.7564 0.0
H1371 H 0.72557 0.15816 0.67951 0.0
H1372 H 0.71214 0.11388 0.74126 0.0
H1373 H 0.65691 0.1297 0.70333 0.0
C1374 C 0.6295 0.10365 0.72083 0.0
C1375 C 0.62396 0.08657 0.73565 0.0
C1376 C 0.71507 0.1237 0.72778 0.0
C1377 C 0.67141 0.11324 0.72417 0.0
C1378 C 0.73782 0.13405 0.72032 0.0
C1379 C 0.74194 0.14637 0.70266 0.0
C1380 C 0.69632 0.12573 0.71751 0.0
C1381 C 0.72304 0.14869 0.69314 0.0
C1382 C 0.65313 0.11695 0.71503 0.0
C1383 C 0.64285 0.0838 0.7447 0.0
N1384 N 0.70097 0.13834 0.70064 0.0
N1385 N 0.66571 0.09694 0.73879 0.0
H1386 H 0.87513 0.51793 0.72522 0.0
H1387 H 0.89424 0.64369 0.67808 0.0
H1388 H 0.94436 0.58896 0.72983 0.0
H1389 H 0.8242 0.58777 0.69577 0.0
H1390 H 0.91211 0.62001 0.6923 0.0
H1391 H 0.85538 0.54007 0.71074 0.0
C1392 C 0.88619 0.53817 0.72337 0.0
C1393 C 0.91156 0.5515 0.72867 0.0
C1394 C 0.89282 0.61287 0.69304 0.0
C1395 C 0.88909 0.57664 0.71164 0.0
C1396 C 0.88251 0.62628 0.68478 0.0
C1397 C 0.85764 0.61774 0.68574 0.0
C1398 C 0.87817 0.59055 0.70217 0.0
C1399 C 0.84347 0.59508 0.69475 0.0
C1400 C 0.87488 0.55071 0.71499 0.0
C1401 C 0.9249 0.57764 0.72557 0.0
N1402 N 0.85394 0.58219 0.70261 0.0
N1403 N 0.91354 0.58926 0.71716 0.0
H1404 H 0.52146 0.03326 0.16491 0.0
H1405 H 0.47377 0.9765 0.05069 0.0
H1406 H 0.45167 0.96495 0.14742 0.0
H1407 H 0.52899 0.05571 0.06789 0.0
H1408 H 0.46623 0.97107 0.08599 0.0
H1409 H 0.52577 0.04103 0.12946 0.0
C1410 C 0.50705 0.01991 0.15357 0.0
C1411 C 0.48624 0.99835 0.15905 0.0
C1412 C 0.47981 0.98972 0.08203 0.0
C1413 C 0.49106 0.00708 0.11852 0.0
C1414 C 0.48407 0.99286 0.06188 0.0
C1415 C 0.50193 0.01664 0.05638 0.0
C1416 C 0.49383 0.01039 0.09685 0.0
C1417 C 0.51503 0.03707 0.07152 0.0
C1418 C 0.50944 0.02444 0.13338 0.0
C1419 C 0.46796 0.98184 0.14382 0.0
N1420 N 0.51089 0.03341 0.09112 0.0
N1421 N 0.4709 0.9864 0.12421 0.0
H1422 H 0.03771 0.47361 0.14986 0.0
H1423 H 0.98213 0.52835 0.06969 0.0
H1424 H 0.03492 0.54315 0.16185 0.0
H1425 H 0.97971 0.45594 0.05866 0.0
H1426 H -0.00029 0.53294 0.10416 0.0
H1427 H 0.01497 0.46567 0.11698 0.0
C1428 C 0.0322 0.48713 0.14562 0.0
C1429 C 0.03833 0.50914 0.1586 0.0
C1430 C 0.99529 0.51598 0.09426 0.0
C1431 C 0.01227 0.50016 0.12102 0.0
C1432 C 0.9852 0.51334 0.07461 0.0
C1433 C 0.97989 0.49194 0.06131 0.0
C1434 C 6e-05 0.49704 0.10065 0.0
C1435 C 0.98418 0.47304 0.06837 0.0
C1436 C 0.01914 0.48254 0.12688 0.0
C1437 C 0.03042 0.52582 0.15244 0.0
N1438 N 0.99418 0.4761 0.08756 0.0
N1439 N 0.01797 0.52108 0.13404 0.0
H1440 H 0.5348 0.54 0.16676 0.0
H1441 H 0.47699 0.48222 0.05386 0.0
H1442 H 0.458 0.48647 0.15134 0.0
H1443 H 0.54579 0.55266 0.06841 0.0
H1444 H 0.47073 0.48089 0.08966 0.0
H1445 H 0.54046 0.5422 0.13087 0.0
C1446 C 0.51915 0.52865 0.15579 0.0
C1447 C 0.49591 0.51299 0.16198 0.0
C1448 C 0.48711 0.49674 0.08501 0.0
C1449 C 0.50223 0.51539 0.12098 0.0
C1450 C 0.49059 0.49761 0.06459 0.0
C1451 C 0.51167 0.51788 0.0582 0.0
C1452 C 0.5051 0.51602 0.09915 0.0
C1453 C 0.5292 0.53679 0.07275 0.0
C1454 C 0.52236 0.53003 0.13534 0.0
C1455 C 0.47619 0.49891 0.14717 0.0
N1456 N 0.52557 0.53538 0.09259 0.0
N1457 N 0.47982 0.50031 0.12734 0.0
H1458 H 0.96485 0.45273 0.84775 0.0
H1459 H 0.9957 0.52413 0.95931 0.0
H1460 H 0.98546 0.53251 0.85984 0.0
H1461 H 0.99276 0.45194 0.94484 0.0
H1462 H 0.9874 0.52595 0.92334 0.0
H1463 H 0.97057 0.45057 0.88375 0.0
C1464 C 0.97071 0.46986 0.85795 0.0
C1465 C 0.97494 0.49293 0.85067 0.0
C1466 C 0.98853 0.5097 0.92805 0.0
C1467 C 0.98112 0.49041 0.89207 0.0
C1468 C 0.99311 0.50859 0.94854 0.0
C1469 C 0.99478 0.4878 0.95494 0.0
C1470 C 0.98549 0.48979 0.91398 0.0
C1471 C 0.99167 0.46834 0.94046 0.0
C1472 C 0.97384 0.46856 0.87854 0.0
C1473 C 0.98182 0.51427 0.86474 0.0
N1474 N 0.98712 0.46977 0.92065 0.0
N1475 N 0.98476 0.51252 0.88477 0.0
H1476 H 0.54049 0.51049 0.85897 0.0
H1477 H 0.45273 0.45866 0.94698 0.0
H1478 H 0.49677 0.43018 0.86805 0.0
H1479 H 0.51115 0.5373 0.949 0.0
H1480 H 0.46445 0.44896 0.91482 0.0
H1481 H 0.52632 0.52164 0.88924 0.0
C1482 C 0.52793 0.49519 0.86725 0.0
C1483 C 0.51983 0.46931 0.86083 0.0
C1484 C 0.4747 0.46836 0.92225 0.0
C1485 C 0.50325 0.48198 0.89525 0.0
C1486 C 0.46792 0.47393 0.94051 0.0
C1487 C 0.48125 0.49872 0.95066 0.0
C1488 C 0.49477 0.48782 0.91398 0.0
C1489 C 0.50076 0.51783 0.94172 0.0
C1490 C 0.51978 0.50159 0.88447 0.0
C1491 C 0.5032 0.45035 0.87206 0.0
N1492 N 0.50703 0.51198 0.92386 0.0
N1493 N 0.4955 0.45707 0.88867 0.0
H1494 H 0.52991 0.04501 0.85445 0.0
H1495 H 0.46651 0.94463 0.93506 0.0
H1496 H 0.4894 0.96273 0.83901 0.0
H1497 H 0.51302 0.02639 0.95044 0.0
H1498 H 0.47542 0.95044 0.89991 0.0
H1499 H 0.52479 0.03826 0.88983 0.0
C1500 C 0.52014 0.02549 0.85849 0.0
C1501 C 0.51005 0.00441 0.84365 0.0
C1502 C 0.48381 0.96708 0.91101 0.0
C1503 C 0.50375 0.99654 0.88426 0.0
C1504 C 0.47873 0.96375 0.93104 0.0
C1505 C 0.48898 0.98507 0.94559 0.0
C1506 C 0.49914 0.99193 0.90555 0.0
C1507 C 0.50473 0.00944 0.93967 0.0
C1508 C 0.5171 0.02165 0.87873 0.0
C1509 C 0.49717 0.97958 0.84986 0.0
N1510 N 0.50921 0.01222 0.92009 0.0
N1511 N 0.49432 0.97634 0.86967 0.0
H1512 H 0.17893 0.36702 0.49832 0.0
H1513 H 0.153 0.30453 0.38465 0.0
H1514 H 0.12365 0.28841 0.47863 0.0
H1515 H 0.19729 0.38622 0.40162 0.0
H1516 H 0.14237 0.29835 0.41915 0.0
H1517 H 0.18606 0.37471 0.46324 0.0
C1518 C 0.16807 0.35144 0.48664 0.0
C1519 C 0.15072 0.32696 0.49151 0.0
C1520 C 0.15428 0.31767 0.41536 0.0
C1521 C 0.15917 0.33557 0.45129 0.0
C1522 C 0.1603 0.32122 0.39563 0.0
C1523 C 0.17587 0.34596 0.39028 0.0
C1524 C 0.16422 0.33899 0.42996 0.0
C1525 C 0.18517 0.36684 0.40517 0.0
C1526 C 0.17227 0.35583 0.4666 0.0
C1527 C 0.13753 0.30744 0.47568 0.0
N1528 N 0.1793 0.36288 0.4244 0.0
N1529 N 0.14212 0.31213 0.45632 0.0
H1530 H 0.70899 0.82176 0.48247 0.0
H1531 H 0.6696 0.88187 0.39457 0.0
H1532 H 0.7304 0.90189 0.48365 0.0
H1533 H 0.65909 0.80539 0.38738 0.0
H1534 H 0.68775 0.88768 0.42894 0.0
H1535 H 0.68641 0.81354 0.4493 0.0
C1536 C 0.70869 0.83754 0.47583 0.0
C1537 C 0.72167 0.86257 0.4857 0.0
C1538 C 0.68151 0.8696 0.4199 0.0
C1539 C 0.6961 0.85338 0.44792 0.0
C1540 C 0.67108 0.86626 0.4003 0.0
C1541 C 0.66317 0.84325 0.38813 0.0
C1542 C 0.68393 0.8497 0.42745 0.0
C1543 C 0.66545 0.8236 0.39624 0.0
C1544 C 0.69597 0.83288 0.45688 0.0
C1545 C 0.72089 0.88237 0.47641 0.0
N1546 N 0.6757 0.82728 0.41545 0.0
N1547 N 0.70837 0.87736 0.45805 0.0
H1548 H 0.16437 0.80158 0.4977 0.0
H1549 H 0.15529 0.85616 0.39343 0.0
H1550 H 0.13811 0.85461 0.49117 0.0
H1551 H 0.19414 0.81563 0.40358 0.0
H1552 H 0.14411 0.85131 0.42805 0.0
H1553 H 0.1709 0.80224 0.46206 0.0
C1554 C 0.15999 0.81338 0.48879 0.0
C1555 C 0.15086 0.82822 0.49752 0.0
C1556 C 0.15499 0.84338 0.42267 0.0
C1557 C 0.15804 0.82883 0.45661 0.0
C1558 C 0.16125 0.84603 0.40292 0.0
C1559 C 0.17559 0.83622 0.39574 0.0
C1560 C 0.16313 0.8308 0.43525 0.0
C1561 C 0.18311 0.82353 0.40864 0.0
C1562 C 0.16362 0.81366 0.46841 0.0
C1563 C 0.14499 0.84269 0.48509 0.0
N1564 N 0.17681 0.8212 0.42779 0.0
N1565 N 0.14878 0.84271 0.46528 0.0
H1566 H 0.64867 0.79847 0.17139 0.0
H1567 H 0.6694 0.86341 0.28409 0.0
H1568 H 0.64755 0.86853 0.18589 0.0
H1569 H 0.66097 0.78864 0.26939 0.0
H1570 H 0.66175 0.86602 0.24828 0.0
H1571 H 0.65391 0.79505 0.20727 0.0
C1572 C 0.64964 0.81321 0.18215 0.0
C1573 C 0.64784 0.83392 0.17564 0.0
C1574 C 0.6614 0.84896 0.25288 0.0
C1575 C 0.65364 0.83001 0.21681 0.0
C1576 C 0.6656 0.8474 0.27332 0.0
C1577 C 0.6655 0.82565 0.27964 0.0
C1578 C 0.65733 0.82871 0.2387 0.0
C1579 C 0.66117 0.80574 0.26508 0.0
C1580 C 0.65247 0.81116 0.20264 0.0
C1581 C 0.64873 0.85219 0.19026 0.0
N1582 N 0.65731 0.80777 0.24527 0.0
N1583 N 0.65169 0.84988 0.21017 0.0
H1584 H 0.16158 0.82347 0.17776 0.0
H1585 H 0.19278 0.83012 0.29512 0.0
H1586 H 0.22602 0.82591 0.20476 0.0
H1587 H 0.13871 0.84775 0.27203 0.0
H1588 H 0.20542 0.82995 0.26167 0.0
H1589 H 0.15315 0.83419 0.21136 0.0
C1590 C 0.17413 0.82665 0.19071 0.0
C1591 C 0.19429 0.82335 0.18857 0.0
C1592 C 0.19097 0.83418 0.2638 0.0
C1593 C 0.1847 0.83534 0.22682 0.0
C1594 C 0.18379 0.83438 0.283 0.0
C1595 C 0.16484 0.83922 0.28639 0.0
C1596 C 0.17876 0.83823 0.2476 0.0
C1597 C 0.15349 0.84403 0.27 0.0
C1598 C 0.16928 0.83269 0.20984 0.0
C1599 C 0.20995 0.82765 0.20579 0.0
N1600 N 0.16045 0.84313 0.25117 0.0
N1601 N 0.2047 0.83316 0.22415 0.0
H1602 H 0.14168 0.29983 0.17131 0.0
H1603 H 0.18733 0.35752 0.28519 0.0
H1604 H 0.21171 0.36783 0.18872 0.0
H1605 H 0.13574 0.27703 0.26844 0.0
H1606 H 0.19509 0.3629 0.24989 0.0
H1607 H 0.13736 0.29215 0.20681 0.0
C1608 C 0.15616 0.31307 0.18264 0.0
C1609 C 0.17705 0.33452 0.17717 0.0
C1610 C 0.18227 0.34401 0.25397 0.0
C1611 C 0.17216 0.32602 0.21767 0.0
C1612 C 0.17788 0.34092 0.2741 0.0
C1613 C 0.16101 0.31675 0.27971 0.0
C1614 C 0.16929 0.3229 0.23931 0.0
C1615 C 0.14892 0.29597 0.26471 0.0
C1616 C 0.15376 0.30862 0.20284 0.0
C1617 C 0.19539 0.351 0.19237 0.0
N1618 N 0.15311 0.29957 0.24513 0.0
N1619 N 0.19241 0.34658 0.21198 0.0
H1620 H 0.78033 0.63277 0.8116 0.0
H1621 H 0.87786 0.68024 0.73239 0.0
H1622 H 0.85794 0.6748 0.82967 0.0
H1623 H 0.8099 0.67913 0.72103 0.0
H1624 H 0.86914 0.67218 0.76724 0.0
H1625 H 0.78885 0.64371 0.7772 0.0
C1626 C 0.79913 0.64443 0.80848 0.0
C1627 C 0.81843 0.65267 0.8237 0.0
C1628 C 0.85609 0.67362 0.75708 0.0
C1629 C 0.82817 0.66459 0.78422 0.0
C1630 C 0.86104 0.67819 0.73723 0.0
C1631 C 0.84425 0.6797 0.72374 0.0
C1632 C 0.83408 0.67024 0.7634 0.0
C1633 C 0.82282 0.67707 0.73079 0.0
C1634 C 0.80393 0.65055 0.7888 0.0
C1635 C 0.84242 0.66737 0.81848 0.0
N1636 N 0.81817 0.67218 0.75014 0.0
N1637 N 0.84659 0.67264 0.79917 0.0
H1638 H 0.41603 0.19394 0.80249 0.0
H1639 H 0.30799 0.18861 0.73202 0.0
H1640 H 0.3594 0.20397 0.82656 0.0
H1641 H 0.35451 0.16065 0.71222 0.0
H1642 H 0.32688 0.1958 0.76662 0.0
H1643 H 0.39409 0.18295 0.76901 0.0
C1644 C 0.39895 0.19384 0.80068 0.0
C1645 C 0.38958 0.20004 0.81725 0.0
C1646 C 0.33267 0.18768 0.75472 0.0
C1647 C 0.36429 0.18744 0.77896 0.0
C1648 C 0.32195 0.18363 0.73502 0.0
C1649 C 0.32936 0.17336 0.71936 0.0
C1650 C 0.35125 0.18191 0.75861 0.0
C1651 C 0.34764 0.16753 0.72392 0.0
C1652 C 0.38635 0.18742 0.78159 0.0
C1653 C 0.36718 0.19924 0.81415 0.0
N1654 N 0.3581 0.17203 0.74308 0.0
N1655 N 0.35536 0.19326 0.7953 0.0
H1656 H 0.86167 0.19128 0.83521 0.0
H1657 H 0.81117 0.14002 0.71997 0.0
H1658 H 0.78623 0.13498 0.81674 0.0
H1659 H 0.87706 0.2121 0.73885 0.0
H1660 H 0.80296 0.13479 0.75528 0.0
H1661 H 0.86923 0.19579 0.79983 0.0
C1662 C 0.84674 0.17971 0.82367 0.0
C1663 C 0.82331 0.16267 0.82887 0.0
C1664 C 0.81912 0.15182 0.75167 0.0
C1665 C 0.83178 0.16783 0.78839 0.0
C1666 C 0.8237 0.15491 0.73154 0.0
C1667 C 0.84453 0.17679 0.72653 0.0
C1668 C 0.83579 0.17052 0.76686 0.0
C1669 C 0.8607 0.19502 0.74211 0.0
C1670 C 0.85102 0.18243 0.80351 0.0
C1671 C 0.80453 0.14843 0.81334 0.0
N1672 N 0.85603 0.19146 0.76159 0.0
N1673 N 0.8092 0.15124 0.79376 0.0
H1674 H 0.28484 0.11603 0.50475 0.0
H1675 H 0.33831 0.19256 0.61401 0.0
H1676 H 0.33382 0.19828 0.51388 0.0
H1677 H 0.31657 0.11269 0.60103 0.0
H1678 H 0.32975 0.19456 0.57812 0.0
H1679 H 0.28961 0.11418 0.54095 0.0
C1680 C 0.29666 0.13372 0.51429 0.0
C1681 C 0.30919 0.15733 0.50609 0.0
C1682 C 0.32677 0.17659 0.58318 0.0
C1683 C 0.31417 0.1553 0.54769 0.0
C1684 C 0.3315 0.17541 0.6036 0.0
C1685 C 0.32815 0.15244 0.61034 0.0
C1686 C 0.31834 0.15454 0.56955 0.0
C1687 C 0.31952 0.13079 0.59632 0.0
C1688 C 0.29923 0.13262 0.53498 0.0
C1689 C 0.32362 0.17966 0.51943 0.0
N1690 N 0.31484 0.13234 0.57655 0.0
N1691 N 0.32574 0.17809 0.53956 0.0
H1692 H 0.89383 0.17875 0.5369 0.0
H1693 H 0.7863 0.13388 0.60767 0.0
H1694 H 0.8194 0.11971 0.51779 0.0
H1695 H 0.85516 0.20435 0.62196 0.0
H1696 H 0.79803 0.12931 0.57423 0.0
H1697 H 0.88023 0.1897 0.56756 0.0
C1698 C 0.87458 0.16837 0.53897 0.0
C1699 C 0.85777 0.14807 0.52484 0.0
C1700 C 0.81058 0.14588 0.58459 0.0
C1701 C 0.84218 0.16023 0.56004 0.0
C1702 C 0.80388 0.14848 0.60369 0.0
C1703 C 0.82004 0.16923 0.61767 0.0
C1704 C 0.83371 0.16407 0.57947 0.0
C1705 C 0.84248 0.18771 0.61173 0.0
C1706 C 0.86685 0.17456 0.55654 0.0
C1707 C 0.83309 0.13512 0.52846 0.0
N1708 N 0.84883 0.18454 0.59311 0.0
N1709 N 0.8261 0.14125 0.54578 0.0
H1710 H 0.81739 0.69758 0.51702 0.0
H1711 H 0.84926 0.64922 0.61685 0.0
H1712 H 0.86629 0.66738 0.51937 0.0
H1713 H 0.78764 0.66036 0.60787 0.0
H1714 H 0.85919 0.66033 0.58254 0.0
H1715 H 0.80972 0.68864 0.55175 0.0
C1716 C 0.82647 0.68898 0.52478 0.0
C1717 C 0.84232 0.68297 0.51508 0.0
C1718 C 0.84351 0.66034 0.58809 0.0
C1719 C 0.83385 0.67305 0.55513 0.0
C1720 C 0.83794 0.65415 0.60765 0.0
C1721 C 0.81772 0.65406 0.61513 0.0
C1722 C 0.82878 0.66659 0.57604 0.0
C1723 C 0.80335 0.66015 0.6026 0.0
C1724 C 0.82214 0.68398 0.54468 0.0
C1725 C 0.85406 0.67252 0.52621 0.0
N1726 N 0.80921 0.66627 0.58369 0.0
N1727 N 0.84955 0.66783 0.54562 0.0
loop_
_geom_bond_atom_site_label_1
_geom_bond_atom_site_label_2
_geom_bond_distance
_geom_bond_site_symmetry_2
_ccdc_geom_bond_type
P0 O11 1.490 . S
P0 C14 1.812 . S
P0 C20 1.803 . S
P0 C26 1.819 . S
H1 C15 0.941 . S
H2 C16 0.939 . S
H3 C18 0.940 . S
H4 C19 0.940 . S
H5 C21 0.939 . S
H6 C22 0.942 . S
H7 C24 0.940 . S
H8 C25 0.939 . S
H9 C27 0.941 . S
H10 C31 0.939 . S
O11 P0 1.490 . S
H12 C28 0.939 . S
H13 C30 0.940 . S
C14 P0 1.812 . S
C14 C15 1.389 . S
C14 C19 1.391 . S
C15 H1 0.941 . S
C15 C14 1.389 . S
C15 C16 1.397 . S
C16 H2 0.939 . S
C16 C15 1.397 . S
C16 C17 1.378 . S
C17 C16 1.378 . S
C17 C18 1.378 . S
C18 H3 0.940 . S
C18 C17 1.378 . S
C18 C19 1.396 . S
C19 H4 0.940 . S
C19 C14 1.391 . S
C19 C18 1.396 . S
C20 P0 1.803 . S
C20 C21 1.378 . S
C20 C25 1.400 . S
C21 H5 0.939 . S
C21 C20 1.378 . S
C21 C22 1.361 . S
C22 H6 0.942 . S
C22 C21 1.361 . S
C22 C23 1.369 . S
C23 C22 1.369 . S
C23 C24 1.404 . S
C24 H7 0.940 . S
C24 C23 1.404 . S
C24 C25 1.389 . S
C25 H8 0.939 . S
C25 C20 1.400 . S
C25 C24 1.389 . S
C26 P0 1.819 . S
C26 C27 1.391 . S
C26 C31 1.391 . S
C27 H9 0.941 . S
C27 C26 1.391 . S
C27 C28 1.396 . S
C28 H12 0.939 . S
C28 C27 1.396 . S
C28 C29 1.397 . S
C29 C28 1.397 . S
C29 C30 1.385 . S
C30 H13 0.940 . S
C30 C29 1.385 . S
C30 C31 1.388 . S
C31 H10 0.939 . S
C31 C26 1.391 . S
C31 C30 1.388 . S
P32 O43 1.490 . S
P32 C46 1.812 . S
P32 C52 1.803 . S
P32 C58 1.819 . S
H33 C47 0.941 . S
H34 C48 0.939 . S
H35 C50 0.940 . S
H36 C51 0.940 . S
H37 C53 0.939 . S
H38 C54 0.942 . S
H39 C56 0.940 . S
H40 C57 0.939 . S
H41 C59 0.941 . S
H42 C63 0.939 . S
O43 P32 1.490 . S
H44 C60 0.939 . S
H45 C62 0.940 . S
C46 P32 1.812 . S
C46 C47 1.389 . S
C46 C51 1.391 . S
C47 H33 0.941 . S
C47 C46 1.389 . S
C47 C48 1.397 . S
C48 H34 0.939 . S
C48 C47 1.397 . S
C48 C49 1.378 . S
C49 C48 1.378 . S
C49 C50 1.378 . S
C50 H35 0.940 . S
C50 C49 1.378 . S
C50 C51 1.396 . S
C51 H36 0.940 . S
C51 C46 1.391 . S
C51 C50 1.396 . S
C52 P32 1.803 . S
C52 C53 1.378 . S
C52 C57 1.400 . S
C53 H37 0.939 . S
C53 C52 1.378 . S
C53 C54 1.361 . S
C54 H38 0.942 . S
C54 C53 1.361 . S
C54 C55 1.369 . S
C55 C54 1.369 . S
C55 C56 1.404 . S
C56 H39 0.940 . S
C56 C55 1.404 . S
C56 C57 1.389 . S
C57 H40 0.939 . S
C57 C52 1.400 . S
C57 C56 1.389 . S
C58 P32 1.819 . S
C58 C59 1.391 . S
C58 C63 1.391 . S
C59 H41 0.941 . S
C59 C58 1.391 . S
C59 C60 1.396 . S
C60 H44 0.939 . S
C60 C59 1.396 . S
C60 C61 1.397 . S
C61 C60 1.397 . S
C61 C62 1.385 . S
C62 H45 0.940 . S
C62 C61 1.385 . S
C62 C63 1.388 . S
C63 H42 0.939 . S
C63 C58 1.391 . S
C63 C62 1.388 . S
P64 O75 1.490 . S
P64 C78 1.812 . S
P64 C84 1.803 . S
P64 C90 1.819 . S
H65 C79 0.941 . S
H66 C80 0.939 . S
H67 C82 0.940 . S
H68 C83 0.940 . S
H69 C85 0.939 . S
H70 C86 0.942 . S
H71 C88 0.940 . S
H72 C89 0.939 . S
H73 C91 0.941 . S
H74 C95 0.939 . S
O75 P64 1.490 . S
H76 C92 0.939 . S
H77 C94 0.940 . S
C78 P64 1.812 . S
C78 C79 1.389 . S
C78 C83 1.391 . S
C79 H65 0.941 . S
C79 C78 1.389 . S
C79 C80 1.397 . S
C80 H66 0.939 . S
C80 C79 1.397 . S
C80 C81 1.378 . S
C81 C80 1.378 . S
C81 C82 1.378 . S
C82 H67 0.940 . S
C82 C81 1.378 . S
C82 C83 1.396 . S
C83 H68 0.940 . S
C83 C78 1.391 . S
C83 C82 1.396 . S
C84 P64 1.803 . S
C84 C85 1.378 . S
C84 C89 1.400 . S
C85 H69 0.939 . S
C85 C84 1.378 . S
C85 C86 1.361 . S
C86 H70 0.942 . S
C86 C85 1.361 . S
C86 C87 1.369 . S
C87 C86 1.369 . S
C87 C88 1.404 . S
C88 H71 0.940 . S
C88 C87 1.404 . S
C88 C89 1.389 . S
C89 H72 0.939 . S
C89 C84 1.400 . S
C89 C88 1.389 . S
C90 P64 1.819 . S
C90 C91 1.391 . S
C90 C95 1.391 . S
C91 H73 0.941 . S
C91 C90 1.391 . S
C91 C92 1.396 . S
C92 H76 0.939 . S
C92 C91 1.396 . S
C92 C93 1.397 . S
C93 C92 1.397 . S
C93 C94 1.385 . S
C94 H77 0.940 . S
C94 C93 1.385 . S
C94 C95 1.388 . S
C95 H74 0.939 . S
C95 C90 1.391 . S
C95 C94 1.388 . S
P96 O107 1.490 . S
P96 C110 1.812 . S
P96 C116 1.803 . S
P96 C122 1.819 . S
H97 C111 0.941 . S
H98 C112 0.939 . S
H99 C114 0.940 . S
H100 C115 0.940 . S
H101 C117 0.939 . S
H102 C118 0.942 . S
H103 C120 0.940 . S
H104 C121 0.939 . S
H105 C123 0.941 . S
H106 C127 0.939 . S
O107 P96 1.490 . S
H108 C124 0.939 . S
H109 C126 0.940 . S
C110 P96 1.812 . S
C110 C111 1.389 . S
C110 C115 1.391 . S
C111 H97 0.941 . S
C111 C110 1.389 . S
C111 C112 1.397 . S
C112 H98 0.939 . S
C112 C111 1.397 . S
C112 C113 1.378 . S
C113 C112 1.378 . S
C113 C114 1.378 . S
C114 H99 0.940 . S
C114 C113 1.378 . S
C114 C115 1.396 . S
C115 H100 0.940 . S
C115 C110 1.391 . S
C115 C114 1.396 . S
C116 P96 1.803 . S
C116 C117 1.378 . S
C116 C121 1.400 . S
C117 H101 0.939 . S
C117 C116 1.378 . S
C117 C118 1.361 . S
C118 H102 0.942 . S
C118 C117 1.361 . S
C118 C119 1.369 . S
C119 C118 1.369 . S
C119 C120 1.404 . S
C120 H103 0.940 . S
C120 C119 1.404 . S
C120 C121 1.389 . S
C121 H104 0.939 . S
C121 C116 1.400 . S
C121 C120 1.389 . S
C122 P96 1.819 . S
C122 C123 1.391 . S
C122 C127 1.391 . S
C123 H105 0.941 . S
C123 C122 1.391 . S
C123 C124 1.396 . S
C124 H108 0.939 . S
C124 C123 1.396 . S
C124 C125 1.397 . S
C125 C124 1.397 . S
C125 C126 1.385 . S
C126 H109 0.940 . S
C126 C125 1.385 . S
C126 C127 1.388 . S
C127 H106 0.939 . S
C127 C122 1.391 . S
C127 C126 1.388 . S
P128 O139 1.490 . S
P128 C142 1.812 . S
P128 C148 1.803 . S
P128 C154 1.819 . S
H129 C143 0.941 . S
H130 C144 0.939 . S
H131 C146 0.940 . S
H132 C147 0.940 . S
H133 C149 0.939 . S
H134 C150 0.942 . S
H135 C152 0.940 . S
H136 C153 0.939 . S
H137 C155 0.941 . S
H138 C159 0.939 . S
O139 P128 1.490 . S
H140 C156 0.939 . S
H141 C158 0.940 . S
C142 P128 1.812 . S
C142 C143 1.389 . S
C142 C147 1.391 . S
C143 H129 0.941 . S
C143 C142 1.389 . S
C143 C144 1.397 . S
C144 H130 0.939 . S
C144 C143 1.397 . S
C144 C145 1.378 . S
C145 C144 1.378 . S
C145 C146 1.378 . S
C146 H131 0.940 . S
C146 C145 1.378 . S
C146 C147 1.396 . S
C147 H132 0.940 . S
C147 C142 1.391 . S
C147 C146 1.396 . S
C148 P128 1.803 . S
C148 C149 1.378 . S
C148 C153 1.400 . S
C149 H133 0.939 . S
C149 C148 1.378 . S
C149 C150 1.361 . S
C150 H134 0.942 . S
C150 C149 1.361 . S
C150 C151 1.369 . S
C151 C150 1.369 . S
C151 C152 1.404 . S
C152 H135 0.940 . S
C152 C151 1.404 . S
C152 C153 1.389 . S
C153 H136 0.939 . S
C153 C148 1.400 . S
C153 C152 1.389 . S
C154 P128 1.819 . S
C154 C155 1.391 . S
C154 C159 1.391 . S
C155 H137 0.941 . S
C155 C154 1.391 . S
C155 C156 1.396 . S
C156 H140 0.939 . S
C156 C155 1.396 . S
C156 C157 1.397 . S
C157 C156 1.397 . S
C157 C158 1.385 . S
C158 H141 0.940 . S
C158 C157 1.385 . S
C158 C159 1.388 . S
C159 H138 0.939 . S
C159 C154 1.391 . S
C159 C158 1.388 . S
P160 O171 1.490 . S
P160 C174 1.812 . S
P160 C180 1.803 . S
P160 C186 1.819 . S
H161 C175 0.941 . S
H162 C176 0.939 . S
H163 C178 0.940 . S
H164 C179 0.940 . S
H165 C181 0.939 . S
H166 C182 0.942 . S
H167 C184 0.940 . S
H168 C185 0.939 . S
H169 C187 0.941 . S
H170 C191 0.939 . S
O171 P160 1.490 . S
H172 C188 0.939 . S
H173 C190 0.940 . S
C174 P160 1.812 . S
C174 C175 1.389 . S
C174 C179 1.391 . S
C175 H161 0.941 . S
C175 C174 1.389 . S
C175 C176 1.397 . S
C176 H162 0.939 . S
C176 C175 1.397 . S
C176 C177 1.378 . S
C177 C176 1.378 . S
C177 C178 1.378 . S
C178 H163 0.940 . S
C178 C177 1.378 . S
C178 C179 1.396 . S
C179 H164 0.940 . S
C179 C174 1.391 . S
C179 C178 1.396 . S
C180 P160 1.803 . S
C180 C181 1.378 . S
C180 C185 1.400 . S
C181 H165 0.939 . S
C181 C180 1.378 . S
C181 C182 1.361 . S
C182 H166 0.942 . S
C182 C181 1.361 . S
C182 C183 1.369 . S
C183 C182 1.369 . S
C183 C184 1.404 . S
C184 H167 0.940 . S
C184 C183 1.404 . S
C184 C185 1.389 . S
C185 H168 0.939 . S
C185 C180 1.400 . S
C185 C184 1.389 . S
C186 P160 1.819 . S
C186 C187 1.391 . S
C186 C191 1.391 . S
C187 H169 0.941 . S
C187 C186 1.391 . S
C187 C188 1.396 . S
C188 H172 0.939 . S
C188 C187 1.396 . S
C188 C189 1.397 . S
C189 C188 1.397 . S
C189 C190 1.385 . S
C190 H173 0.940 . S
C190 C189 1.385 . S
C190 C191 1.388 . S
C191 H170 0.939 . S
C191 C186 1.391 . S
C191 C190 1.388 . S
P192 O203 1.490 . S
P192 C206 1.812 . S
P192 C212 1.803 . S
P192 C218 1.819 . S
H193 C207 0.941 . S
H194 C208 0.939 . S
H195 C210 0.940 . S
H196 C211 0.940 . S
H197 C213 0.939 . S
H198 C214 0.942 . S
H199 C216 0.940 . S
H200 C217 0.939 . S
H201 C219 0.941 . S
H202 C223 0.939 . S
O203 P192 1.490 . S
H204 C220 0.939 . S
H205 C222 0.940 . S
C206 P192 1.812 . S
C206 C207 1.389 . S
C206 C211 1.391 . S
C207 H193 0.941 . S
C207 C206 1.389 . S
C207 C208 1.397 . S
C208 H194 0.939 . S
C208 C207 1.397 . S
C208 C209 1.378 . S
C209 C208 1.378 . S
C209 C210 1.378 . S
C210 H195 0.940 . S
C210 C209 1.378 . S
C210 C211 1.396 . S
C211 H196 0.940 . S
C211 C206 1.391 . S
C211 C210 1.396 . S
C212 P192 1.803 . S
C212 C213 1.378 . S
C212 C217 1.400 . S
C213 H197 0.939 . S
C213 C212 1.378 . S
C213 C214 1.361 . S
C214 H198 0.942 . S
C214 C213 1.361 . S
C214 C215 1.369 . S
C215 C214 1.369 . S
C215 C216 1.404 . S
C216 H199 0.940 . S
C216 C215 1.404 . S
C216 C217 1.389 . S
C217 H200 0.939 . S
C217 C212 1.400 . S
C217 C216 1.389 . S
C218 P192 1.819 . S
C218 C219 1.391 . S
C218 C223 1.391 . S
C219 H201 0.941 . S
C219 C218 1.391 . S
C219 C220 1.396 . S
C220 H204 0.939 . S
C220 C219 1.396 . S
C220 C221 1.397 . S
C221 C220 1.397 . S
C221 C222 1.385 . S
C222 H205 0.940 . S
C222 C221 1.385 . S
C222 C223 1.388 . S
C223 H202 0.939 . S
C223 C218 1.391 . S
C223 C222 1.388 . S
P224 O235 1.490 . S
P224 C238 1.812 . S
P224 C244 1.803 . S
P224 C250 1.819 . S
H225 C239 0.941 . S
H226 C240 0.939 . S
H227 C242 0.940 . S
H228 C243 0.940 . S
H229 C245 0.939 . S
H230 C246 0.942 . S
H231 C248 0.940 . S
H232 C249 0.939 . S
H233 C251 0.941 . S
H234 C255 0.939 . S
O235 P224 1.490 . S
H236 C252 0.939 . S
H237 C254 0.940 . S
C238 P224 1.812 . S
C238 C239 1.389 . S
C238 C243 1.391 . S
C239 H225 0.941 . S
C239 C238 1.389 . S
C239 C240 1.397 . S
C240 H226 0.939 . S
C240 C239 1.397 . S
C240 C241 1.378 . S
C241 C240 1.378 . S
C241 C242 1.378 . S
C242 H227 0.940 . S
C242 C241 1.378 . S
C242 C243 1.396 . S
C243 H228 0.940 . S
C243 C238 1.391 . S
C243 C242 1.396 . S
C244 P224 1.803 . S
C244 C245 1.378 . S
C244 C249 1.400 . S
C245 H229 0.939 . S
C245 C244 1.378 . S
C245 C246 1.361 . S
C246 H230 0.942 . S
C246 C245 1.361 . S
C246 C247 1.369 . S
C247 C246 1.369 . S
C247 C248 1.404 . S
C248 H231 0.940 . S
C248 C247 1.404 . S
C248 C249 1.389 . S
C249 H232 0.939 . S
C249 C244 1.400 . S
C249 C248 1.389 . S
C250 P224 1.819 . S
C250 C251 1.391 . S
C250 C255 1.391 . S
C251 H233 0.941 . S
C251 C250 1.391 . S
C251 C252 1.396 . S
C252 H236 0.939 . S
C252 C251 1.396 . S
C252 C253 1.397 . S
C253 C252 1.397 . S
C253 C254 1.385 . S
C254 H237 0.940 . S
C254 C253 1.385 . S
C254 C255 1.388 . S
C255 H234 0.939 . S
C255 C250 1.391 . S
C255 C254 1.388 . S
P256 O267 1.490 . S
P256 C270 1.812 . S
P256 C276 1.803 . S
P256 C282 1.819 . S
H257 C271 0.941 . S
H258 C272 0.939 . S
H259 C274 0.940 . S
H260 C275 0.940 . S
H261 C277 0.939 . S
H262 C278 0.942 . S
H263 C280 0.940 . S
H264 C281 0.939 . S
H265 C283 0.941 . S
H266 C287 0.939 . S
O267 P256 1.490 . S
H268 C284 0.939 . S
H269 C286 0.940 . S
C270 P256 1.812 . S
C270 C271 1.389 . S
C270 C275 1.391 . S
C271 H257 0.941 . S
C271 C270 1.389 . S
C271 C272 1.397 . S
C272 H258 0.939 . S
C272 C271 1.397 . S
C272 C273 1.378 . S
C273 C272 1.378 . S
C273 C274 1.378 . S
C274 H259 0.940 . S
C274 C273 1.378 . S
C274 C275 1.396 . S
C275 H260 0.940 . S
C275 C270 1.391 . S
C275 C274 1.396 . S
C276 P256 1.803 . S
C276 C277 1.378 . S
C276 C281 1.400 . S
C277 H261 0.939 . S
C277 C276 1.378 . S
C277 C278 1.361 . S
C278 H262 0.942 . S
C278 C277 1.361 . S
C278 C279 1.369 . S
C279 C278 1.369 . S
C279 C280 1.404 . S
C280 H263 0.940 . S
C280 C279 1.404 . S
C280 C281 1.389 . S
C281 H264 0.939 . S
C281 C276 1.400 . S
C281 C280 1.389 . S
C282 P256 1.819 . S
C282 C283 1.391 . S
C282 C287 1.391 . S
C283 H265 0.941 . S
C283 C282 1.391 . S
C283 C284 1.396 . S
C284 H268 0.939 . S
C284 C283 1.396 . S
C284 C285 1.397 . S
C285 C284 1.397 . S
C285 C286 1.385 . S
C286 H269 0.940 . S
C286 C285 1.385 . S
C286 C287 1.388 . S
C287 H266 0.939 . S
C287 C282 1.391 . S
C287 C286 1.388 . S
P288 O299 1.490 . S
P288 C302 1.812 . S
P288 C308 1.803 . S
P288 C314 1.819 . S
H289 C303 0.941 . S
H290 C304 0.939 . S
H291 C306 0.940 . S
H292 C307 0.940 . S
H293 C309 0.939 . S
H294 C310 0.942 . S
H295 C312 0.940 . S
H296 C313 0.939 . S
H297 C315 0.941 . S
H298 C319 0.939 . S
O299 P288 1.490 . S
H300 C316 0.939 . S
H301 C318 0.940 . S
C302 P288 1.812 . S
C302 C303 1.389 . S
C302 C307 1.391 . S
C303 H289 0.941 . S
C303 C302 1.389 . S
C303 C304 1.397 . S
C304 H290 0.939 . S
C304 C303 1.397 . S
C304 C305 1.378 . S
C305 C304 1.378 . S
C305 C306 1.378 . S
C306 H291 0.940 . S
C306 C305 1.378 . S
C306 C307 1.396 . S
C307 H292 0.940 . S
C307 C302 1.391 . S
C307 C306 1.396 . S
C308 P288 1.803 . S
C308 C309 1.378 . S
C308 C313 1.400 . S
C309 H293 0.939 . S
C309 C308 1.378 . S
C309 C310 1.361 . S
C310 H294 0.942 . S
C310 C309 1.361 . S
C310 C311 1.369 . S
C311 C310 1.369 . S
C311 C312 1.404 . S
C312 H295 0.940 . S
C312 C311 1.404 . S
C312 C313 1.389 . S
C313 H296 0.939 . S
C313 C308 1.400 . S
C313 C312 1.389 . S
C314 P288 1.819 . S
C314 C315 1.391 . S
C314 C319 1.391 . S
C315 H297 0.941 . S
C315 C314 1.391 . S
C315 C316 1.396 . S
C316 H300 0.939 . S
C316 C315 1.396 . S
C316 C317 1.397 . S
C317 C316 1.397 . S
C317 C318 1.385 . S
C318 H301 0.940 . S
C318 C317 1.385 . S
C318 C319 1.388 . S
C319 H298 0.939 . S
C319 C314 1.391 . S
C319 C318 1.388 . S
P320 O331 1.490 . S
P320 C334 1.812 . S
P320 C340 1.803 . S
P320 C346 1.819 . S
H321 C335 0.941 . S
H322 C336 0.939 . S
H323 C338 0.940 . S
H324 C339 0.940 . S
H325 C341 0.939 . S
H326 C342 0.942 . S
H327 C344 0.940 . S
H328 C345 0.939 . S
H329 C347 0.941 . S
H330 C351 0.939 . S
O331 P320 1.490 . S
H332 C348 0.939 . S
H333 C350 0.940 . S
C334 P320 1.812 . S
C334 C335 1.389 . S
C334 C339 1.391 . S
C335 H321 0.941 . S
C335 C334 1.389 . S
C335 C336 1.397 . S
C336 H322 0.939 . S
C336 C335 1.397 . S
C336 C337 1.378 . S
C337 C336 1.378 . S
C337 C338 1.378 . S
C338 H323 0.940 . S
C338 C337 1.378 . S
C338 C339 1.396 . S
C339 H324 0.940 . S
C339 C334 1.391 . S
C339 C338 1.396 . S
C340 P320 1.803 . S
C340 C341 1.378 . S
C340 C345 1.400 . S
C341 H325 0.939 . S
C341 C340 1.378 . S
C341 C342 1.361 . S
C342 H326 0.942 . S
C342 C341 1.361 . S
C342 C343 1.369 . S
C343 C342 1.369 . S
C343 C344 1.404 . S
C344 H327 0.940 . S
C344 C343 1.404 . S
C344 C345 1.389 . S
C345 H328 0.939 . S
C345 C340 1.400 . S
C345 C344 1.389 . S
C346 P320 1.819 . S
C346 C347 1.391 . S
C346 C351 1.391 . S
C347 H329 0.941 . S
C347 C346 1.391 . S
C347 C348 1.396 . S
C348 H332 0.939 . S
C348 C347 1.396 . S
C348 C349 1.397 . S
C349 C348 1.397 . S
C349 C350 1.385 . S
C350 H333 0.940 . S
C350 C349 1.385 . S
C350 C351 1.388 . S
C351 H330 0.939 . S
C351 C346 1.391 . S
C351 C350 1.388 . S
P352 O363 1.490 . S
P352 C366 1.812 . S
P352 C372 1.803 . S
P352 C378 1.819 . S
H353 C367 0.941 . S
H354 C368 0.939 . S
H355 C370 0.940 . S
H356 C371 0.940 . S
H357 C373 0.939 . S
H358 C374 0.942 . S
H359 C376 0.940 . S
H360 C377 0.939 . S
H361 C379 0.941 . S
H362 C383 0.939 . S
O363 P352 1.490 . S
H364 C380 0.939 . S
H365 C382 0.940 . S
C366 P352 1.812 . S
C366 C367 1.389 . S
C366 C371 1.391 . S
C367 H353 0.941 . S
C367 C366 1.389 . S
C367 C368 1.397 . S
C368 H354 0.939 . S
C368 C367 1.397 . S
C368 C369 1.378 . S
C369 C368 1.378 . S
C369 C370 1.378 . S
C370 H355 0.940 . S
C370 C369 1.378 . S
C370 C371 1.396 . S
C371 H356 0.940 . S
C371 C366 1.391 . S
C371 C370 1.396 . S
C372 P352 1.803 . S
C372 C373 1.378 . S
C372 C377 1.400 . S
C373 H357 0.939 . S
C373 C372 1.378 . S
C373 C374 1.361 . S
C374 H358 0.942 . S
C374 C373 1.361 . S
C374 C375 1.369 . S
C375 C374 1.369 . S
C375 C376 1.404 . S
C376 H359 0.940 . S
C376 C375 1.404 . S
C376 C377 1.389 . S
C377 H360 0.939 . S
C377 C372 1.400 . S
C377 C376 1.389 . S
C378 P352 1.819 . S
C378 C379 1.391 . S
C378 C383 1.391 . S
C379 H361 0.941 . S
C379 C378 1.391 . S
C379 C380 1.396 . S
C380 H364 0.939 . S
C380 C379 1.396 . S
C380 C381 1.397 . S
C381 C380 1.397 . S
C381 C382 1.385 . S
C382 H365 0.940 . S
C382 C381 1.385 . S
C382 C383 1.388 . S
C383 H362 0.939 . S
C383 C378 1.391 . S
C383 C382 1.388 . S
P384 O395 1.490 . S
P384 C398 1.812 . S
P384 C404 1.803 . S
P384 C410 1.819 . S
H385 C399 0.941 . S
H386 C400 0.939 . S
H387 C402 0.940 . S
H388 C403 0.940 . S
H389 C405 0.939 . S
H390 C406 0.942 . S
H391 C408 0.940 . S
H392 C409 0.939 . S
H393 C411 0.941 . S
H394 C415 0.939 . S
O395 P384 1.490 . S
H396 C412 0.939 . S
H397 C414 0.940 . S
C398 P384 1.812 . S
C398 C399 1.389 . S
C398 C403 1.391 . S
C399 H385 0.941 . S
C399 C398 1.389 . S
C399 C400 1.397 . S
C400 H386 0.939 . S
C400 C399 1.397 . S
C400 C401 1.378 . S
C401 C400 1.378 . S
C401 C402 1.378 . S
C402 H387 0.940 . S
C402 C401 1.378 . S
C402 C403 1.396 . S
C403 H388 0.940 . S
C403 C398 1.391 . S
C403 C402 1.396 . S
C404 P384 1.803 . S
C404 C405 1.378 . S
C404 C409 1.400 . S
C405 H389 0.939 . S
C405 C404 1.378 . S
C405 C406 1.361 . S
C406 H390 0.942 . S
C406 C405 1.361 . S
C406 C407 1.369 . S
C407 C406 1.369 . S
C407 C408 1.404 . S
C408 H391 0.940 . S
C408 C407 1.404 . S
C408 C409 1.389 . S
C409 H392 0.939 . S
C409 C404 1.400 . S
C409 C408 1.389 . S
C410 P384 1.819 . S
C410 C411 1.391 . S
C410 C415 1.391 . S
C411 H393 0.941 . S
C411 C410 1.391 . S
C411 C412 1.396 . S
C412 H396 0.939 . S
C412 C411 1.396 . S
C412 C413 1.397 . S
C413 C412 1.397 . S
C413 C414 1.385 . S
C414 H397 0.940 . S
C414 C413 1.385 . S
C414 C415 1.388 . S
C415 H394 0.939 . S
C415 C410 1.391 . S
C415 C414 1.388 . S
P416 O427 1.490 . S
P416 C430 1.812 . S
P416 C436 1.803 . S
P416 C442 1.819 . S
H417 C431 0.941 . S
H418 C432 0.939 . S
H419 C434 0.940 . S
H420 C435 0.940 . S
H421 C437 0.939 . S
H422 C438 0.942 . S
H423 C440 0.940 . S
H424 C441 0.939 . S
H425 C443 0.941 . S
H426 C447 0.939 . S
O427 P416 1.490 . S
H428 C444 0.939 . S
H429 C446 0.940 . S
C430 P416 1.812 . S
C430 C431 1.389 . S
C430 C435 1.391 . S
C431 H417 0.941 . S
C431 C430 1.389 . S
C431 C432 1.397 . S
C432 H418 0.939 . S
C432 C431 1.397 . S
C432 C433 1.378 . S
C433 C432 1.378 . S
C433 C434 1.378 . S
C434 H419 0.940 . S
C434 C433 1.378 . S
C434 C435 1.396 . S
C435 H420 0.940 . S
C435 C430 1.391 . S
C435 C434 1.396 . S
C436 P416 1.803 . S
C436 C437 1.378 . S
C436 C441 1.400 . S
C437 H421 0.939 . S
C437 C436 1.378 . S
C437 C438 1.361 . S
C438 H422 0.942 . S
C438 C437 1.361 . S
C438 C439 1.369 . S
C439 C438 1.369 . S
C439 C440 1.404 . S
C440 H423 0.940 . S
C440 C439 1.404 . S
C440 C441 1.389 . S
C441 H424 0.939 . S
C441 C436 1.400 . S
C441 C440 1.389 . S
C442 P416 1.819 . S
C442 C443 1.391 . S
C442 C447 1.391 . S
C443 H425 0.941 . S
C443 C442 1.391 . S
C443 C444 1.396 . S
C444 H428 0.939 . S
C444 C443 1.396 . S
C444 C445 1.397 . S
C445 C444 1.397 . S
C445 C446 1.385 . S
C446 H429 0.940 . S
C446 C445 1.385 . S
C446 C447 1.388 . S
C447 H426 0.939 . S
C447 C442 1.391 . S
C447 C446 1.388 . S
P448 O459 1.490 . S
P448 C462 1.812 . S
P448 C468 1.803 . S
P448 C474 1.819 . S
H449 C463 0.941 . S
H450 C464 0.939 . S
H451 C466 0.940 . S
H452 C467 0.940 . S
H453 C469 0.939 . S
H454 C470 0.942 . S
H455 C472 0.940 . S
H456 C473 0.939 . S
H457 C475 0.941 . S
H458 C479 0.939 . S
O459 P448 1.490 . S
H460 C476 0.939 . S
H461 C478 0.940 . S
C462 P448 1.812 . S
C462 C463 1.389 . S
C462 C467 1.391 . S
C463 H449 0.941 . S
C463 C462 1.389 . S
C463 C464 1.397 . S
C464 H450 0.939 . S
C464 C463 1.397 . S
C464 C465 1.378 . S
C465 C464 1.378 . S
C465 C466 1.378 . S
C466 H451 0.940 . S
C466 C465 1.378 . S
C466 C467 1.396 . S
C467 H452 0.940 . S
C467 C462 1.391 . S
C467 C466 1.396 . S
C468 P448 1.803 . S
C468 C469 1.378 . S
C468 C473 1.400 . S
C469 H453 0.939 . S
C469 C468 1.378 . S
C469 C470 1.361 . S
C470 H454 0.942 . S
C470 C469 1.361 . S
C470 C471 1.369 . S
C471 C470 1.369 . S
C471 C472 1.404 . S
C472 H455 0.940 . S
C472 C471 1.404 . S
C472 C473 1.389 . S
C473 H456 0.939 . S
C473 C468 1.400 . S
C473 C472 1.389 . S
C474 P448 1.819 . S
C474 C475 1.391 . S
C474 C479 1.391 . S
C475 H457 0.941 . S
C475 C474 1.391 . S
C475 C476 1.396 . S
C476 H460 0.939 . S
C476 C475 1.396 . S
C476 C477 1.397 . S
C477 C476 1.397 . S
C477 C478 1.385 . S
C478 H461 0.940 . S
C478 C477 1.385 . S
C478 C479 1.388 . S
C479 H458 0.939 . S
C479 C474 1.391 . S
C479 C478 1.388 . S
P480 O491 1.490 . S
P480 C494 1.812 . S
P480 C500 1.803 . S
P480 C506 1.819 . S
H481 C495 0.941 . S
H482 C496 0.939 . S
H483 C498 0.940 . S
H484 C499 0.940 . S
H485 C501 0.939 . S
H486 C502 0.942 . S
H487 C504 0.940 . S
H488 C505 0.939 . S
H489 C507 0.941 . S
H490 C511 0.939 . S
O491 P480 1.490 . S
H492 C508 0.939 . S
H493 C510 0.940 . S
C494 P480 1.812 . S
C494 C495 1.389 . S
C494 C499 1.391 . S
C495 H481 0.941 . S
C495 C494 1.389 . S
C495 C496 1.397 . S
C496 H482 0.939 . S
C496 C495 1.397 . S
C496 C497 1.378 . S
C497 C496 1.378 . S
C497 C498 1.378 . S
C498 H483 0.940 . S
C498 C497 1.378 . S
C498 C499 1.396 . S
C499 H484 0.940 . S
C499 C494 1.391 . S
C499 C498 1.396 . S
C500 P480 1.803 . S
C500 C501 1.378 . S
C500 C505 1.400 . S
C501 H485 0.939 . S
C501 C500 1.378 . S
C501 C502 1.361 . S
C502 H486 0.942 . S
C502 C501 1.361 . S
C502 C503 1.369 . S
C503 C502 1.369 . S
C503 C504 1.404 . S
C504 H487 0.940 . S
C504 C503 1.404 . S
C504 C505 1.389 . S
C505 H488 0.939 . S
C505 C500 1.400 . S
C505 C504 1.389 . S
C506 P480 1.819 . S
C506 C507 1.391 . S
C506 C511 1.391 . S
C507 H489 0.941 . S
C507 C506 1.391 . S
C507 C508 1.396 . S
C508 H492 0.939 . S
C508 C507 1.396 . S
C508 C509 1.397 . S
C509 C508 1.397 . S
C509 C510 1.385 . S
C510 H493 0.940 . S
C510 C509 1.385 . S
C510 C511 1.388 . S
C511 H490 0.939 . S
C511 C506 1.391 . S
C511 C510 1.388 . S
P512 O523 1.490 . S
P512 C526 1.812 . S
P512 C532 1.803 . S
P512 C538 1.819 . S
H513 C527 0.941 . S
H514 C528 0.939 . S
H515 C530 0.940 . S
H516 C531 0.940 . S
H517 C533 0.939 . S
H518 C534 0.942 . S
H519 C536 0.940 . S
H520 C537 0.939 . S
H521 C539 0.941 . S
H522 C543 0.939 . S
O523 P512 1.490 . S
H524 C540 0.939 . S
H525 C542 0.940 . S
C526 P512 1.812 . S
C526 C527 1.389 . S
C526 C531 1.391 . S
C527 H513 0.941 . S
C527 C526 1.389 . S
C527 C528 1.397 . S
C528 H514 0.939 . S
C528 C527 1.397 . S
C528 C529 1.378 . S
C529 C528 1.378 . S
C529 C530 1.378 . S
C530 H515 0.940 . S
C530 C529 1.378 . S
C530 C531 1.396 . S
C531 H516 0.940 . S
C531 C526 1.391 . S
C531 C530 1.396 . S
C532 P512 1.803 . S
C532 C533 1.378 . S
C532 C537 1.400 . S
C533 H517 0.939 . S
C533 C532 1.378 . S
C533 C534 1.361 . S
C534 H518 0.942 . S
C534 C533 1.361 . S
C534 C535 1.369 . S
C535 C534 1.369 . S
C535 C536 1.404 . S
C536 H519 0.940 . S
C536 C535 1.404 . S
C536 C537 1.389 . S
C537 H520 0.939 . S
C537 C532 1.400 . S
C537 C536 1.389 . S
C538 P512 1.819 . S
C538 C539 1.391 . S
C538 C543 1.391 . S
C539 H521 0.941 . S
C539 C538 1.391 . S
C539 C540 1.396 . S
C540 H524 0.939 . S
C540 C539 1.396 . S
C540 C541 1.397 . S
C541 C540 1.397 . S
C541 C542 1.385 . S
C542 H525 0.940 . S
C542 C541 1.385 . S
C542 C543 1.388 . S
C543 H522 0.939 . S
C543 C538 1.391 . S
C543 C542 1.388 . S
P544 O555 1.490 . S
P544 C558 1.812 . S
P544 C564 1.803 . S
P544 C570 1.819 . S
H545 C559 0.941 . S
H546 C560 0.939 . S
H547 C562 0.940 . S
H548 C563 0.940 . S
H549 C565 0.939 . S
H550 C566 0.942 . S
H551 C568 0.940 . S
H552 C569 0.939 . S
H553 C571 0.941 . S
H554 C575 0.939 . S
O555 P544 1.490 . S
H556 C572 0.939 . S
H557 C574 0.940 . S
C558 P544 1.812 . S
C558 C559 1.389 . S
C558 C563 1.391 . S
C559 H545 0.941 . S
C559 C558 1.389 . S
C559 C560 1.397 . S
C560 H546 0.939 . S
C560 C559 1.397 . S
C560 C561 1.378 . S
C561 C560 1.378 . S
C561 C562 1.378 . S
C562 H547 0.940 . S
C562 C561 1.378 . S
C562 C563 1.396 . S
C563 H548 0.940 . S
C563 C558 1.391 . S
C563 C562 1.396 . S
C564 P544 1.803 . S
C564 C565 1.378 . S
C564 C569 1.400 . S
C565 H549 0.939 . S
C565 C564 1.378 . S
C565 C566 1.361 . S
C566 H550 0.942 . S
C566 C565 1.361 . S
C566 C567 1.369 . S
C567 C566 1.369 . S
C567 C568 1.404 . S
C568 H551 0.940 . S
C568 C567 1.404 . S
C568 C569 1.389 . S
C569 H552 0.939 . S
C569 C564 1.400 . S
C569 C568 1.389 . S
C570 P544 1.819 . S
C570 C571 1.391 . S
C570 C575 1.391 . S
C571 H553 0.941 . S
C571 C570 1.391 . S
C571 C572 1.396 . S
C572 H556 0.939 . S
C572 C571 1.396 . S
C572 C573 1.397 . S
C573 C572 1.397 . S
C573 C574 1.385 . S
C574 H557 0.940 . S
C574 C573 1.385 . S
C574 C575 1.388 . S
C575 H554 0.939 . S
C575 C570 1.391 . S
C575 C574 1.388 . S
Tb576 O579 2.453 . S
Tb576 O580 2.596 1_545 S
Tb576 O581 2.374 1_545 S
Tb576 O589 2.343 1_554 S
Tb576 O591 2.353 . S
Tb576 O593 2.427 1_554 S
Tb576 O594 2.513 1_554 S
C577 O581 1.251 . S
C577 O583 1.271 . S
Tb578 O580 2.343 1_556 S
Tb578 O583 2.350 1_556 S
Tb578 O586 2.427 1_556 S
Tb578 O587 2.513 1_556 S
Tb578 O588 2.453 . S
Tb578 O589 2.596 1_565 S
Tb578 O590 2.374 1_565 S
O579 Tb576 2.453 . S
O579 C595 1.245 . S
O580 Tb576 2.596 1_565 S
O580 Tb578 2.343 1_554 S
O580 C595 1.259 1_565 S
O581 Tb576 2.374 1_565 S
O581 C577 1.251 . S
C582 O586 1.275 . S
C582 O587 1.246 . S
O583 C577 1.271 . S
O583 Tb578 2.350 1_554 S
C584 O588 1.241 1_545 S
C584 O589 1.260 . S
C585 O590 1.250 . S
C585 O591 1.263 1_556 S
O586 Tb578 2.427 1_554 S
O586 C582 1.275 . S
O587 Tb578 2.513 1_554 S
O587 C582 1.246 . S
O588 Tb578 2.453 . S
O588 C584 1.241 1_565 S
O589 Tb576 2.343 1_556 S
O589 Tb578 2.596 1_545 S
O589 C584 1.260 . S
O590 Tb578 2.374 1_545 S
O590 C585 1.250 . S
O591 Tb576 2.353 . S
O591 C585 1.263 1_554 S
C592 O593 1.275 . S
C592 O594 1.246 . S
O593 Tb576 2.427 1_556 S
O593 C592 1.275 . S
O594 Tb576 2.513 1_556 S
O594 C592 1.246 . S
C595 O579 1.245 . S
C595 O580 1.259 1_545 S
Tb596 O599 2.453 . S
Tb596 O600 2.596 1_655 S
Tb596 O601 2.374 1_655 S
Tb596 O609 2.343 1_554 S
Tb596 O611 2.353 . S
Tb596 O613 2.427 1_554 S
Tb596 O614 2.513 1_554 S
C597 O601 1.251 . S
C597 O603 1.263 . S
Tb598 O600 2.343 1_556 S
Tb598 O603 2.353 1_556 S
Tb598 O606 2.427 1_556 S
Tb598 O607 2.513 1_556 S
Tb598 O608 2.453 . S
Tb598 O609 2.596 1_455 S
Tb598 O610 2.374 1_455 S
O599 Tb596 2.453 . S
O599 C615 1.245 1_655 S
O600 Tb596 2.596 1_455 S
O600 Tb598 2.343 1_554 S
O600 C615 1.259 . S
O601 Tb596 2.374 1_455 S
O601 C597 1.251 . S
C602 O606 1.275 . S
C602 O607 1.246 . S
O603 C597 1.263 . S
O603 Tb598 2.353 1_554 S
C604 O608 1.216 1_655 S
C604 O609 1.270 . S
C605 O610 1.250 . S
C605 O611 1.263 1_556 S
O606 Tb598 2.427 1_554 S
O606 C602 1.275 . S
O607 Tb598 2.513 1_554 S
O607 C602 1.246 . S
O608 Tb598 2.453 . S
O608 C604 1.216 1_455 S
O609 Tb596 2.343 1_556 S
O609 Tb598 2.596 1_655 S
O609 C604 1.270 . S
O610 Tb598 2.374 1_655 S
O610 C605 1.250 . S
O611 Tb596 2.353 . S
O611 C605 1.263 1_554 S
C612 O613 1.275 . S
C612 O614 1.246 . S
O613 Tb596 2.427 1_556 S
O613 C612 1.275 . S
O614 Tb596 2.513 1_556 S
O614 C612 1.246 . S
C615 O599 1.245 1_455 S
C615 O600 1.259 . S
Tb616 O619 2.453 . S
Tb616 O620 2.596 . S
Tb616 O621 2.374 . S
Tb616 O629 2.343 1_556 S
Tb616 O631 2.353 1_556 S
Tb616 O633 2.427 1_556 S
Tb616 O634 2.513 1_556 S
C617 O621 1.251 . S
C617 O623 1.263 1_556 S
Tb618 O620 2.343 1_554 S
Tb618 O623 2.353 . S
Tb618 O626 2.427 1_554 S
Tb618 O627 2.513 1_554 S
Tb618 O628 2.453 . S
Tb618 O629 2.596 . S
Tb618 O630 2.374 . S
O619 Tb616 2.453 . S
O619 C635 1.245 . S
O620 Tb616 2.596 . S
O620 Tb618 2.343 1_556 S
O620 C635 1.259 . S
O621 Tb616 2.374 . S
O621 C617 1.251 . S
C622 O626 1.275 . S
C622 O627 1.246 . S
O623 C617 1.263 1_554 S
O623 Tb618 2.353 . S
C624 O628 1.245 . S
C624 O629 1.259 . S
C625 O630 1.250 . S
C625 O631 1.263 . S
O626 Tb618 2.427 1_556 S
O626 C622 1.275 . S
O627 Tb618 2.513 1_556 S
O627 C622 1.246 . S
O628 Tb618 2.453 . S
O628 C624 1.245 . S
O629 Tb616 2.343 1_554 S
O629 Tb618 2.596 . S
O629 C624 1.259 . S
O630 Tb618 2.374 . S
O630 C625 1.250 . S
O631 Tb616 2.353 1_554 S
O631 C625 1.263 . S
C632 O633 1.275 . S
C632 O634 1.246 . S
O633 Tb616 2.427 1_554 S
O633 C632 1.275 . S
O634 Tb616 2.513 1_554 S
O634 C632 1.246 . S
C635 O619 1.245 . S
C635 O620 1.259 . S
Tb636 O639 2.453 . S
Tb636 O640 2.596 . S
Tb636 O641 2.374 . S
Tb636 O649 2.343 . S
Tb636 O651 2.353 . S
Tb636 O653 2.427 . S
Tb636 O654 2.513 . S
C637 O641 1.251 . S
C637 O643 1.263 . S
Tb638 O640 2.343 . S
Tb638 O643 2.353 . S
Tb638 O646 2.427 . S
Tb638 O647 2.513 . S
Tb638 O648 2.453 . S
Tb638 O649 2.596 . S
Tb638 O650 2.374 . S
O639 Tb636 2.453 . S
O639 C655 1.245 . S
O640 Tb636 2.596 . S
O640 Tb638 2.343 . S
O640 C655 1.259 . S
O641 Tb636 2.374 . S
O641 C637 1.251 . S
C642 O646 1.275 . S
C642 O647 1.246 . S
O643 C637 1.263 . S
O643 Tb638 2.353 . S
C644 O648 1.245 . S
C644 O649 1.259 . S
C645 O650 1.250 . S
C645 O651 1.263 . S
O646 Tb638 2.427 . S
O646 C642 1.275 . S
O647 Tb638 2.513 . S
O647 C642 1.246 . S
O648 Tb638 2.453 . S
O648 C644 1.245 . S
O649 Tb636 2.343 . S
O649 Tb638 2.596 . S
O649 C644 1.259 . S
O650 Tb638 2.374 . S
O650 C645 1.250 . S
O651 Tb636 2.353 . S
O651 C645 1.263 . S
C652 O653 1.275 . S
C652 O654 1.246 . S
O653 Tb636 2.427 . S
O653 C652 1.275 . S
O654 Tb636 2.513 . S
O654 C652 1.246 . S
C655 O639 1.245 . S
C655 O640 1.259 . S
Tb656 O659 2.453 . S
Tb656 O660 2.596 . S
Tb656 O661 2.374 . S
Tb656 O669 2.343 . S
Tb656 O671 2.353 . S
Tb656 O673 2.427 . S
Tb656 O674 2.513 . S
C657 O661 1.251 . S
C657 O663 1.263 . S
Tb658 O660 2.343 . S
Tb658 O663 2.353 . S
Tb658 O666 2.427 . S
Tb658 O667 2.513 . S
Tb658 O668 2.453 . S
Tb658 O669 2.596 . S
Tb658 O670 2.374 . S
O659 Tb656 2.453 . S
O659 C675 1.245 . S
O660 Tb656 2.596 . S
O660 Tb658 2.343 . S
O660 C675 1.259 . S
O661 Tb656 2.374 . S
O661 C657 1.251 . S
C662 O666 1.275 . S
C662 O667 1.246 . S
O663 C657 1.263 . S
O663 Tb658 2.353 . S
C664 O668 1.245 . S
C664 O669 1.259 . S
C665 O670 1.250 . S
C665 O671 1.263 . S
O666 Tb658 2.427 . S
O666 C662 1.275 . S
O667 Tb658 2.513 . S
O667 C662 1.246 . S
O668 Tb658 2.453 . S
O668 C664 1.245 . S
O669 Tb656 2.343 . S
O669 Tb658 2.596 . S
O669 C664 1.259 . S
O670 Tb658 2.374 . S
O670 C665 1.250 . S
O671 Tb656 2.353 . S
O671 C665 1.263 . S
C672 O673 1.275 . S
C672 O674 1.246 . S
O673 Tb656 2.427 . S
O673 C672 1.275 . S
O674 Tb656 2.513 . S
O674 C672 1.246 . S
C675 O659 1.245 . S
C675 O660 1.259 . S
Tb676 O679 2.453 . S
Tb676 O680 2.596 . S
Tb676 O681 2.374 . S
Tb676 O689 2.343 . S
Tb676 O691 2.353 . S
Tb676 O693 2.427 . S
Tb676 O694 2.513 . S
C677 O681 1.251 . S
C677 O683 1.263 . S
Tb678 O680 2.343 . S
Tb678 O683 2.353 . S
Tb678 O686 2.427 . S
Tb678 O687 2.513 . S
Tb678 O688 2.453 . S
Tb678 O689 2.596 . S
Tb678 O690 2.374 . S
O679 Tb676 2.453 . S
O679 C695 1.245 . S
O680 Tb676 2.596 . S
O680 Tb678 2.343 . S
O680 C695 1.259 . S
O681 Tb676 2.374 . S
O681 C677 1.251 . S
C682 O686 1.275 . S
C682 O687 1.246 . S
O683 C677 1.263 . S
O683 Tb678 2.353 . S
C684 O688 1.245 . S
C684 O689 1.259 . S
C685 O690 1.250 . S
C685 O691 1.263 . S
O686 Tb678 2.427 . S
O686 C682 1.275 . S
O687 Tb678 2.513 . S
O687 C682 1.246 . S
O688 Tb678 2.453 . S
O688 C684 1.245 . S
O689 Tb676 2.343 . S
O689 Tb678 2.596 . S
O689 C684 1.259 . S
O690 Tb678 2.374 . S
O690 C685 1.250 . S
O691 Tb676 2.353 . S
O691 C685 1.263 . S
C692 O693 1.275 . S
C692 O694 1.246 . S
O693 Tb676 2.427 . S
O693 C692 1.275 . S
O694 Tb676 2.513 . S
O694 C692 1.246 . S
C695 O679 1.245 . S
C695 O680 1.259 . S
Tb696 O699 2.453 . S
Tb696 O700 2.596 . S
Tb696 O701 2.374 . S
Tb696 O709 2.343 . S
Tb696 O711 2.353 . S
Tb696 O713 2.427 . S
Tb696 O714 2.513 . S
C697 O701 1.251 . S
C697 O703 1.263 . S
Tb698 O700 2.343 . S
Tb698 O703 2.353 . S
Tb698 O706 2.427 . S
Tb698 O707 2.513 . S
Tb698 O708 2.453 . S
Tb698 O709 2.596 . S
Tb698 O710 2.374 . S
O699 Tb696 2.453 . S
O699 C715 1.245 . S
O700 Tb696 2.596 . S
O700 Tb698 2.343 . S
O700 C715 1.259 . S
O701 Tb696 2.374 . S
O701 C697 1.251 . S
C702 O706 1.275 . S
C702 O707 1.246 . S
O703 C697 1.263 . S
O703 Tb698 2.353 . S
C704 O708 1.245 . S
C704 O709 1.259 . S
C705 O710 1.250 . S
C705 O711 1.263 . S
O706 Tb698 2.427 . S
O706 C702 1.275 . S
O707 Tb698 2.513 . S
O707 C702 1.246 . S
O708 Tb698 2.453 . S
O708 C704 1.245 . S
O709 Tb696 2.343 . S
O709 Tb698 2.596 . S
O709 C704 1.259 . S
O710 Tb698 2.374 . S
O710 C705 1.250 . S
O711 Tb696 2.353 . S
O711 C705 1.263 . S
C712 O713 1.275 . S
C712 O714 1.246 . S
O713 Tb696 2.427 . S
O713 C712 1.275 . S
O714 Tb696 2.513 . S
O714 C712 1.246 . S
C715 O699 1.245 . S
C715 O700 1.259 . S
Tb716 O719 2.453 . S
Tb716 O720 2.596 . S
Tb716 O721 2.374 . S
Tb716 O729 2.343 . S
Tb716 O731 2.353 . S
Tb716 O733 2.427 . S
Tb716 O734 2.513 . S
C717 O721 1.251 . S
C717 O723 1.263 . S
Tb718 O720 2.343 . S
Tb718 O723 2.353 . S
Tb718 O726 2.427 . S
Tb718 O727 2.513 . S
Tb718 O728 2.453 . S
Tb718 O729 2.596 . S
Tb718 O730 2.374 . S
O719 Tb716 2.453 . S
O719 C735 1.245 . S
O720 Tb716 2.596 . S
O720 Tb718 2.343 . S
O720 C735 1.259 . S
O721 Tb716 2.374 . S
O721 C717 1.251 . S
C722 O726 1.275 . S
C722 O727 1.246 . S
O723 C717 1.263 . S
O723 Tb718 2.353 . S
C724 O728 1.245 . S
C724 O729 1.259 . S
C725 O730 1.250 . S
C725 O731 1.263 . S
O726 Tb718 2.427 . S
O726 C722 1.275 . S
O727 Tb718 2.513 . S
O727 C722 1.246 . S
O728 Tb718 2.453 . S
O728 C724 1.245 . S
O729 Tb716 2.343 . S
O729 Tb718 2.596 . S
O729 C724 1.259 . S
O730 Tb718 2.374 . S
O730 C725 1.250 . S
O731 Tb716 2.353 . S
O731 C725 1.263 . S
C732 O733 1.275 . S
C732 O734 1.246 . S
O733 Tb716 2.427 . S
O733 C732 1.275 . S
O734 Tb716 2.513 . S
O734 C732 1.246 . S
C735 O719 1.245 . S
C735 O720 1.259 . S
Tb736 O739 2.453 . S
Tb736 O740 2.596 . S
Tb736 O741 2.374 . S
Tb736 O749 2.343 . S
Tb736 O751 2.353 . S
Tb736 O753 2.427 . S
Tb736 O754 2.513 . S
C737 O741 1.251 . S
C737 O743 1.263 . S
Tb738 O740 2.343 . S
Tb738 O743 2.353 . S
Tb738 O746 2.427 . S
Tb738 O747 2.513 . S
Tb738 O748 2.453 . S
Tb738 O749 2.596 . S
Tb738 O750 2.374 . S
O739 Tb736 2.453 . S
O739 C755 1.245 . S
O740 Tb736 2.596 . S
O740 Tb738 2.343 . S
O740 C755 1.259 . S
O741 Tb736 2.374 . S
O741 C737 1.251 . S
C742 O746 1.275 . S
C742 O747 1.246 . S
O743 C737 1.263 . S
O743 Tb738 2.353 . S
C744 O748 1.245 . S
C744 O749 1.259 . S
C745 O750 1.250 . S
C745 O751 1.263 . S
O746 Tb738 2.427 . S
O746 C742 1.275 . S
O747 Tb738 2.513 . S
O747 C742 1.246 . S
O748 Tb738 2.453 . S
O748 C744 1.245 . S
O749 Tb736 2.343 . S
O749 Tb738 2.596 . S
O749 C744 1.259 . S
O750 Tb738 2.374 . S
O750 C745 1.250 . S
O751 Tb736 2.353 . S
O751 C745 1.263 . S
C752 O753 1.275 . S
C752 O754 1.246 . S
O753 Tb736 2.427 . S
O753 C752 1.275 . S
O754 Tb736 2.513 . S
O754 C752 1.246 . S
C755 O739 1.245 . S
C755 O740 1.259 . S
H756 C762 0.930 . S
H757 C766 0.930 . S
H758 C771 0.929 . S
H759 C769 0.929 . S
H760 C764 0.929 . S
H761 C770 0.929 . S
C762 H756 0.930 . S
C762 C763 1.367 . S
C762 C770 1.378 . S
C763 C762 1.367 . S
C763 C771 1.433 . S
C764 H760 0.929 . S
C764 C766 1.378 . S
C764 C768 1.350 . S
C765 C768 1.463 . S
C765 C770 1.350 . S
C765 N773 1.427 . S
C766 H757 0.930 . S
C766 C764 1.378 . S
C766 C767 1.367 . S
C767 C766 1.367 . S
C767 C769 1.433 . S
C768 C764 1.350 . S
C768 C765 1.463 . S
C768 N772 1.427 . S
C769 H759 0.929 . S
C769 C767 1.433 . S
C769 N772 1.384 . S
C770 H761 0.929 . S
C770 C762 1.378 . S
C770 C765 1.350 . S
C771 H758 0.929 . S
C771 C763 1.433 . S
C771 N773 1.384 . S
N772 C768 1.427 . S
N772 C769 1.384 . S
N773 C765 1.427 . S
N773 C771 1.384 . S
H774 C780 0.930 . S
H775 C784 0.930 . S
H776 C789 0.929 . S
H777 C787 0.929 . S
H778 C782 0.929 . S
H779 C788 0.929 . S
C780 H774 0.930 . S
C780 C781 1.367 . S
C780 C788 1.378 . S
C781 C780 1.367 . S
C781 C789 1.433 . S
C782 H778 0.929 . S
C782 C784 1.378 . S
C782 C786 1.350 . S
C783 C786 1.463 . S
C783 C788 1.350 . S
C783 N791 1.427 . S
C784 H775 0.930 . S
C784 C782 1.378 . S
C784 C785 1.367 . S
C785 C784 1.367 . S
C785 C787 1.433 . S
C786 C782 1.350 . S
C786 C783 1.463 . S
C786 N790 1.427 . S
C787 H777 0.929 . S
C787 C785 1.433 . S
C787 N790 1.384 . S
C788 H779 0.929 . S
C788 C780 1.378 . S
C788 C783 1.350 . S
C789 H776 0.929 . S
C789 C781 1.433 . S
C789 N791 1.384 . S
N790 C786 1.427 . S
N790 C787 1.384 . S
N791 C783 1.427 . S
N791 C789 1.384 . S
H792 C798 0.930 . S
H793 C802 0.930 . S
H794 C807 0.929 . S
H795 C805 0.929 . S
H796 C800 0.929 . S
H797 C806 0.929 . S
C798 H792 0.930 . S
C798 C799 1.367 . S
C798 C806 1.378 . S
C799 C798 1.367 . S
C799 C807 1.433 . S
C800 H796 0.929 . S
C800 C802 1.378 . S
C800 C804 1.350 . S
C801 C804 1.463 . S
C801 C806 1.350 . S
C801 N809 1.427 . S
C802 H793 0.930 . S
C802 C800 1.378 . S
C802 C803 1.367 . S
C803 C802 1.367 . S
C803 C805 1.433 . S
C804 C800 1.350 . S
C804 C801 1.463 . S
C804 N808 1.427 . S
C805 H795 0.929 . S
C805 C803 1.433 . S
C805 N808 1.384 . S
C806 H797 0.929 . S
C806 C798 1.378 . S
C806 C801 1.350 . S
C807 H794 0.929 . S
C807 C799 1.433 . S
C807 N809 1.384 . S
N808 C804 1.427 . S
N808 C805 1.384 . S
N809 C801 1.427 . S
N809 C807 1.384 . S
H810 C816 0.930 . S
H811 C820 0.930 . S
H812 C825 0.929 . S
H813 C823 0.929 1_554 S
H814 C818 0.929 . S
H815 C824 0.929 . S
C816 H810 0.930 . S
C816 C817 1.367 . S
C816 C824 1.378 . S
C817 C816 1.367 . S
C817 C825 1.433 . S
C818 H814 0.929 . S
C818 C820 1.378 . S
C818 C822 1.350 . S
C819 C822 1.463 . S
C819 C824 1.350 . S
C819 N827 1.427 . S
C820 H811 0.930 . S
C820 C818 1.378 . S
C820 C821 1.367 . S
C821 C820 1.367 . S
C821 C823 1.433 . S
C822 C818 1.350 . S
C822 C819 1.463 . S
C822 N826 1.427 . S
C823 H813 0.929 1_556 S
C823 C821 1.433 . S
C823 N826 1.384 . S
C824 H815 0.929 . S
C824 C816 1.378 . S
C824 C819 1.350 . S
C825 H812 0.929 . S
C825 C817 1.433 . S
C825 N827 1.384 . S
N826 C822 1.427 . S
N826 C823 1.384 . S
N827 C819 1.427 . S
N827 C825 1.384 . S
H828 C834 0.930 . S
H829 C838 0.930 . S
H830 C843 0.929 . S
H831 C841 0.929 . S
H832 C836 0.929 . S
H833 C842 0.929 . S
C834 H828 0.930 . S
C834 C835 1.367 . S
C834 C842 1.378 . S
C835 C834 1.367 . S
C835 C843 1.433 . S
C836 H832 0.929 . S
C836 C838 1.378 . S
C836 C840 1.350 . S
C837 C840 1.463 . S
C837 C842 1.350 . S
C837 N845 1.427 . S
C838 H829 0.930 . S
C838 C836 1.378 . S
C838 C839 1.367 . S
C839 C838 1.367 . S
C839 C841 1.433 . S
C840 C836 1.350 . S
C840 C837 1.463 . S
C840 N844 1.427 . S
C841 H831 0.929 . S
C841 C839 1.433 . S
C841 N844 1.384 . S
C842 H833 0.929 . S
C842 C834 1.378 . S
C842 C837 1.350 . S
C843 H830 0.929 . S
C843 C835 1.433 . S
C843 N845 1.384 . S
N844 C840 1.427 . S
N844 C841 1.384 . S
N845 C837 1.427 . S
N845 C843 1.384 . S
H846 C852 0.930 . S
H847 C856 0.930 . S
H848 C861 0.929 . S
H849 C859 0.929 . S
H850 C854 0.929 . S
H851 C860 0.929 . S
C852 H846 0.930 . S
C852 C853 1.367 . S
C852 C860 1.378 . S
C853 C852 1.367 . S
C853 C861 1.433 . S
C854 H850 0.929 . S
C854 C856 1.378 . S
C854 C858 1.350 . S
C855 C858 1.463 . S
C855 C860 1.350 . S
C855 N863 1.427 . S
C856 H847 0.930 . S
C856 C854 1.378 . S
C856 C857 1.367 . S
C857 C856 1.367 . S
C857 C859 1.433 . S
C858 C854 1.350 . S
C858 C855 1.463 . S
C858 N862 1.427 . S
C859 H849 0.929 . S
C859 C857 1.433 . S
C859 N862 1.384 . S
C860 H851 0.929 . S
C860 C852 1.378 . S
C860 C855 1.350 . S
C861 H848 0.929 . S
C861 C853 1.433 . S
C861 N863 1.384 . S
N862 C858 1.427 . S
N862 C859 1.384 . S
N863 C855 1.427 . S
N863 C861 1.384 . S
H864 C870 0.930 . S
H865 C874 0.930 . S
H866 C879 0.929 . S
H867 C877 0.929 . S
H868 C872 0.929 . S
H869 C878 0.929 . S
C870 H864 0.930 . S
C870 C871 1.367 . S
C870 C878 1.378 . S
C871 C870 1.367 . S
C871 C879 1.433 . S
C872 H868 0.929 . S
C872 C874 1.378 . S
C872 C876 1.350 . S
C873 C876 1.463 . S
C873 C878 1.350 . S
C873 N881 1.427 . S
C874 H865 0.930 . S
C874 C872 1.378 . S
C874 C875 1.367 . S
C875 C874 1.367 . S
C875 C877 1.433 . S
C876 C872 1.350 . S
C876 C873 1.463 . S
C876 N880 1.427 . S
C877 H867 0.929 . S
C877 C875 1.433 . S
C877 N880 1.384 . S
C878 H869 0.929 . S
C878 C870 1.378 . S
C878 C873 1.350 . S
C879 H866 0.929 . S
C879 C871 1.433 . S
C879 N881 1.384 . S
N880 C876 1.427 . S
N880 C877 1.384 . S
N881 C873 1.427 . S
N881 C879 1.384 . S
H882 C888 0.930 . S
H883 C892 0.930 . S
H884 C897 0.929 . S
H885 C895 0.929 . S
H886 C890 0.929 . S
H887 C896 0.929 . S
C888 H882 0.930 . S
C888 C889 1.367 . S
C888 C896 1.378 . S
C889 C888 1.367 . S
C889 C897 1.433 . S
C890 H886 0.929 . S
C890 C892 1.378 . S
C890 C894 1.350 . S
C891 C894 1.463 . S
C891 C896 1.350 . S
C891 N899 1.427 . S
C892 H883 0.930 . S
C892 C890 1.378 . S
C892 C893 1.367 . S
C893 C892 1.367 . S
C893 C895 1.433 . S
C894 C890 1.350 . S
C894 C891 1.463 . S
C894 N898 1.427 . S
C895 H885 0.929 . S
C895 C893 1.433 . S
C895 N898 1.384 . S
C896 H887 0.929 . S
C896 C888 1.378 . S
C896 C891 1.350 . S
C897 H884 0.929 . S
C897 C889 1.433 . S
C897 N899 1.384 . S
N898 C894 1.427 . S
N898 C895 1.384 . S
N899 C891 1.427 . S
N899 C897 1.384 . S
H900 C906 0.930 . S
H901 C910 0.930 . S
H902 C915 0.929 . S
H903 C913 0.916 1_554 S
H904 C908 0.929 . S
H905 C914 0.929 . S
C906 H900 0.930 . S
C906 C907 1.367 . S
C906 C914 1.378 . S
C907 C906 1.367 . S
C907 C915 1.433 . S
C908 H904 0.929 . S
C908 C910 1.378 . S
C908 C912 1.350 . S
C909 C912 1.463 . S
C909 C914 1.350 . S
C909 N917 1.427 . S
C910 H901 0.930 . S
C910 C908 1.378 . S
C910 C911 1.367 . S
C911 C910 1.367 . S
C911 C913 1.444 . S
C912 C908 1.350 . S
C912 C909 1.463 . S
C912 N916 1.427 . S
C913 H903 0.916 1_556 S
C913 C911 1.444 . S
C913 N916 1.386 . S
C914 H905 0.929 . S
C914 C906 1.378 . S
C914 C909 1.350 . S
C915 H902 0.929 . S
C915 C907 1.433 . S
C915 N917 1.384 . S
N916 C912 1.427 . S
N916 C913 1.386 . S
N917 C909 1.427 . S
N917 C915 1.384 . S
H918 C924 0.930 . S
H919 C928 0.930 . S
H920 C933 0.929 . S
H921 C931 0.929 1_556 S
H922 C926 0.929 . S
H923 C932 0.929 . S
C924 H918 0.930 . S
C924 C925 1.367 . S
C924 C932 1.378 . S
C925 C924 1.367 . S
C925 C933 1.433 . S
C926 H922 0.929 . S
C926 C928 1.378 . S
C926 C930 1.350 . S
C927 C930 1.463 . S
C927 C932 1.350 . S
C927 N935 1.427 . S
C928 H919 0.930 . S
C928 C926 1.378 . S
C928 C929 1.367 . S
C929 C928 1.367 . S
C929 C931 1.433 . S
C930 C926 1.350 . S
C930 C927 1.463 . S
C930 N934 1.427 . S
C931 H921 0.929 1_554 S
C931 C929 1.433 . S
C931 N934 1.384 . S
C932 H923 0.929 . S
C932 C924 1.378 . S
C932 C927 1.350 . S
C933 H920 0.929 . S
C933 C925 1.433 . S
C933 N935 1.384 . S
N934 C930 1.427 . S
N934 C931 1.384 . S
N935 C927 1.427 . S
N935 C933 1.384 . S
H936 C942 0.930 . S
H937 C946 0.930 . S
H938 C951 0.929 . S
H939 C949 0.929 . S
H940 C944 0.929 . S
H941 C950 0.929 . S
C942 H936 0.930 . S
C942 C943 1.367 . S
C942 C950 1.378 . S
C943 C942 1.367 . S
C943 C951 1.433 . S
C944 H940 0.929 . S
C944 C946 1.378 . S
C944 C948 1.350 . S
C945 C948 1.463 . S
C945 C950 1.350 . S
C945 N953 1.427 . S
C946 H937 0.930 . S
C946 C944 1.378 . S
C946 C947 1.367 . S
C947 C946 1.367 . S
C947 C949 1.433 . S
C948 C944 1.350 . S
C948 C945 1.463 . S
C948 N952 1.427 . S
C949 H939 0.929 . S
C949 C947 1.433 . S
C949 N952 1.384 . S
C950 H941 0.929 . S
C950 C942 1.378 . S
C950 C945 1.350 . S
C951 H938 0.929 . S
C951 C943 1.433 . S
C951 N953 1.384 . S
N952 C948 1.427 . S
N952 C949 1.384 . S
N953 C945 1.427 . S
N953 C951 1.384 . S
H954 C960 0.930 . S
H955 C964 0.930 . S
H956 C969 0.929 . S
H957 C967 0.929 1_556 S
H958 C962 0.929 . S
H959 C968 0.929 . S
C960 H954 0.930 . S
C960 C961 1.367 . S
C960 C968 1.378 . S
C961 C960 1.367 . S
C961 C969 1.433 . S
C962 H958 0.929 . S
C962 C964 1.378 . S
C962 C966 1.350 . S
C963 C966 1.463 . S
C963 C968 1.350 . S
C963 N971 1.427 . S
C964 H955 0.930 . S
C964 C962 1.378 . S
C964 C965 1.367 . S
C965 C964 1.367 . S
C965 C967 1.433 . S
C966 C962 1.350 . S
C966 C963 1.463 . S
C966 N970 1.427 . S
C967 H957 0.929 1_554 S
C967 C965 1.433 . S
C967 N970 1.384 . S
C968 H959 0.929 . S
C968 C960 1.378 . S
C968 C963 1.350 . S
C969 H956 0.929 . S
C969 C961 1.433 . S
C969 N971 1.384 . S
N970 C966 1.427 . S
N970 C967 1.384 . S
N971 C963 1.427 . S
N971 C969 1.384 . S
H972 C978 0.930 . S
H973 C982 0.930 . S
H974 C987 0.929 . S
H975 C985 0.929 . S
H976 C980 0.929 . S
H977 C986 0.929 . S
C978 H972 0.930 . S
C978 C979 1.367 . S
C978 C986 1.378 . S
C979 C978 1.367 . S
C979 C987 1.433 . S
C980 H976 0.929 . S
C980 C982 1.378 . S
C980 C984 1.350 . S
C981 C984 1.463 . S
C981 C986 1.350 1_455 S
C981 N989 1.425 1_455 S
C982 H973 0.930 . S
C982 C980 1.378 . S
C982 C983 1.367 . S
C983 C982 1.367 . S
C983 C985 1.433 . S
C984 C980 1.350 . S
C984 C981 1.463 . S
C984 N988 1.427 . S
C985 H975 0.929 . S
C985 C983 1.433 . S
C985 N988 1.384 . S
C986 H977 0.929 . S
C986 C978 1.378 . S
C986 C981 1.350 1_655 S
C987 H974 0.929 . S
C987 C979 1.433 . S
C987 N989 1.386 . S
N988 C984 1.427 . S
N988 C985 1.384 . S
N989 C981 1.425 1_655 S
N989 C987 1.386 . S
H990 C996 0.930 . S
H991 C1000 0.930 . S
H992 C1005 0.929 . S
H993 C1003 0.929 . S
H994 C998 0.929 . S
H995 C1004 0.929 . S
C996 H990 0.930 . S
C996 C997 1.367 . S
C996 C1004 1.378 . S
C997 C996 1.367 . S
C997 C1005 1.433 . S
C998 H994 0.929 . S
C998 C1000 1.378 . S
C998 C1002 1.350 . S
C999 C1002 1.463 . S
C999 C1004 1.350 . S
C999 N1007 1.427 . S
C1000 H991 0.930 . S
C1000 C998 1.378 . S
C1000 C1001 1.367 . S
C1001 C1000 1.367 . S
C1001 C1003 1.433 . S
C1002 C998 1.350 . S
C1002 C999 1.463 . S
C1002 N1006 1.427 . S
C1003 H993 0.929 . S
C1003 C1001 1.433 . S
C1003 N1006 1.384 . S
C1004 H995 0.929 . S
C1004 C996 1.378 . S
C1004 C999 1.350 . S
C1005 H992 0.929 . S
C1005 C997 1.433 . S
C1005 N1007 1.384 . S
N1006 C1002 1.427 . S
N1006 C1003 1.384 . S
N1007 C999 1.427 . S
N1007 C1005 1.384 . S
H1008 C1014 0.930 . S
H1009 C1018 0.930 . S
H1010 C1023 0.929 . S
H1011 C1021 0.929 . S
H1012 C1016 0.929 . S
H1013 C1022 0.929 . S
C1014 H1008 0.930 . S
C1014 C1015 1.367 . S
C1014 C1022 1.378 . S
C1015 C1014 1.367 . S
C1015 C1023 1.433 . S
C1016 H1012 0.929 . S
C1016 C1018 1.378 . S
C1016 C1020 1.350 . S
C1017 C1020 1.463 . S
C1017 C1022 1.350 1_565 S
C1017 N1025 1.427 . S
C1018 H1009 0.930 . S
C1018 C1016 1.378 . S
C1018 C1019 1.367 . S
C1019 C1018 1.367 . S
C1019 C1021 1.433 . S
C1020 C1016 1.350 . S
C1020 C1017 1.463 . S
C1020 N1024 1.427 . S
C1021 H1011 0.929 . S
C1021 C1019 1.433 . S
C1021 N1024 1.384 . S
C1022 H1013 0.929 . S
C1022 C1014 1.378 . S
C1022 C1017 1.350 1_545 S
C1023 H1010 0.929 . S
C1023 C1015 1.433 . S
C1023 N1025 1.384 1_545 S
N1024 C1020 1.427 . S
N1024 C1021 1.384 . S
N1025 C1017 1.427 . S
N1025 C1023 1.384 1_565 S
H1026 C1032 0.930 . S
H1027 C1036 0.930 . S
H1028 C1041 0.929 . S
H1029 C1039 0.929 . S
H1030 C1034 0.929 . S
H1031 C1040 0.929 . S
C1032 H1026 0.930 . S
C1032 C1033 1.367 . S
C1032 C1040 1.378 . S
C1033 C1032 1.367 . S
C1033 C1041 1.433 . S
C1034 H1030 0.929 . S
C1034 C1036 1.378 . S
C1034 C1038 1.350 . S
C1035 C1038 1.463 . S
C1035 C1040 1.350 . S
C1035 N1043 1.427 . S
C1036 H1027 0.930 . S
C1036 C1034 1.378 . S
C1036 C1037 1.367 . S
C1037 C1036 1.367 . S
C1037 C1039 1.433 . S
C1038 C1034 1.350 . S
C1038 C1035 1.463 . S
C1038 N1042 1.427 . S
C1039 H1029 0.929 . S
C1039 C1037 1.433 . S
C1039 N1042 1.384 . S
C1040 H1031 0.929 . S
C1040 C1032 1.378 . S
C1040 C1035 1.350 . S
C1041 H1028 0.929 . S
C1041 C1033 1.433 . S
C1041 N1043 1.384 . S
N1042 C1038 1.427 . S
N1042 C1039 1.384 . S
N1043 C1035 1.427 . S
N1043 C1041 1.384 . S
H1044 C1050 0.930 . S
H1045 C1054 0.930 . S
H1046 C1059 0.929 . S
H1047 C1057 0.929 . S
H1048 C1052 0.929 . S
H1049 C1058 0.929 . S
C1050 H1044 0.930 . S
C1050 C1051 1.367 . S
C1050 C1058 1.378 . S
C1051 C1050 1.367 . S
C1051 C1059 1.433 . S
C1052 H1048 0.929 . S
C1052 C1054 1.378 . S
C1052 C1056 1.350 . S
C1053 C1056 1.463 . S
C1053 C1058 1.350 . S
C1053 N1061 1.427 . S
C1054 H1045 0.930 . S
C1054 C1052 1.378 . S
C1054 C1055 1.367 . S
C1055 C1054 1.367 . S
C1055 C1057 1.433 . S
C1056 C1052 1.350 . S
C1056 C1053 1.463 . S
C1056 N1060 1.427 . S
C1057 H1047 0.929 . S
C1057 C1055 1.433 . S
C1057 N1060 1.384 . S
C1058 H1049 0.929 . S
C1058 C1050 1.378 . S
C1058 C1053 1.350 . S
C1059 H1046 0.929 . S
C1059 C1051 1.433 . S
C1059 N1061 1.384 . S
N1060 C1056 1.427 . S
N1060 C1057 1.384 . S
N1061 C1053 1.427 . S
N1061 C1059 1.384 . S
H1062 C1068 0.930 . S
H1063 C1072 0.930 . S
H1064 C1077 0.929 . S
H1065 C1075 0.929 . S
H1066 C1070 0.929 . S
H1067 C1076 0.929 . S
C1068 H1062 0.930 . S
C1068 C1069 1.367 . S
C1068 C1076 1.378 . S
C1069 C1068 1.367 . S
C1069 C1077 1.433 . S
C1070 H1066 0.929 . S
C1070 C1072 1.378 . S
C1070 C1074 1.350 . S
C1071 C1074 1.463 . S
C1071 C1076 1.350 . S
C1071 N1079 1.427 . S
C1072 H1063 0.930 . S
C1072 C1070 1.378 . S
C1072 C1073 1.367 . S
C1073 C1072 1.367 . S
C1073 C1075 1.433 . S
C1074 C1070 1.350 . S
C1074 C1071 1.463 . S
C1074 N1078 1.427 . S
C1075 H1065 0.929 . S
C1075 C1073 1.433 . S
C1075 N1078 1.384 . S
C1076 H1067 0.929 . S
C1076 C1068 1.378 . S
C1076 C1071 1.350 . S
C1077 H1064 0.929 . S
C1077 C1069 1.433 . S
C1077 N1079 1.384 . S
N1078 C1074 1.427 . S
N1078 C1075 1.384 . S
N1079 C1071 1.427 . S
N1079 C1077 1.384 . S
H1080 C1086 0.930 . S
H1081 C1090 0.930 . S
H1082 C1095 0.929 . S
H1083 C1093 0.929 . S
H1084 C1088 0.929 . S
H1085 C1094 0.929 . S
C1086 H1080 0.930 . S
C1086 C1087 1.367 . S
C1086 C1094 1.378 . S
C1087 C1086 1.367 . S
C1087 C1095 1.433 . S
C1088 H1084 0.929 . S
C1088 C1090 1.378 . S
C1088 C1092 1.350 . S
C1089 C1092 1.463 . S
C1089 C1094 1.350 . S
C1089 N1097 1.427 . S
C1090 H1081 0.930 . S
C1090 C1088 1.378 . S
C1090 C1091 1.367 . S
C1091 C1090 1.367 . S
C1091 C1093 1.433 . S
C1092 C1088 1.350 . S
C1092 C1089 1.463 . S
C1092 N1096 1.427 . S
C1093 H1083 0.929 . S
C1093 C1091 1.433 . S
C1093 N1096 1.384 . S
C1094 H1085 0.929 . S
C1094 C1086 1.378 . S
C1094 C1089 1.350 . S
C1095 H1082 0.929 . S
C1095 C1087 1.433 . S
C1095 N1097 1.384 . S
N1096 C1092 1.427 . S
N1096 C1093 1.384 . S
N1097 C1089 1.427 . S
N1097 C1095 1.384 . S
H1098 C1104 0.930 . S
H1099 C1108 0.930 . S
H1100 C1113 0.929 . S
H1101 C1111 0.929 . S
H1102 C1106 0.929 . S
H1103 C1112 0.929 . S
C1104 H1098 0.930 . S
C1104 C1105 1.367 . S
C1104 C1112 1.378 . S
C1105 C1104 1.367 . S
C1105 C1113 1.433 . S
C1106 H1102 0.929 . S
C1106 C1108 1.378 . S
C1106 C1110 1.350 . S
C1107 C1110 1.463 . S
C1107 C1112 1.350 . S
C1107 N1115 1.427 . S
C1108 H1099 0.930 . S
C1108 C1106 1.378 . S
C1108 C1109 1.367 . S
C1109 C1108 1.367 . S
C1109 C1111 1.433 . S
C1110 C1106 1.350 . S
C1110 C1107 1.463 . S
C1110 N1114 1.427 . S
C1111 H1101 0.929 . S
C1111 C1109 1.433 . S
C1111 N1114 1.384 . S
C1112 H1103 0.929 . S
C1112 C1104 1.378 . S
C1112 C1107 1.350 . S
C1113 H1100 0.929 . S
C1113 C1105 1.433 . S
C1113 N1115 1.384 . S
N1114 C1110 1.427 . S
N1114 C1111 1.384 . S
N1115 C1107 1.427 . S
N1115 C1113 1.384 . S
H1116 C1122 0.930 . S
H1117 C1126 0.930 . S
H1118 C1131 0.929 . S
H1119 C1129 0.929 . S
H1120 C1124 0.929 . S
H1121 C1130 0.929 . S
C1122 H1116 0.930 . S
C1122 C1123 1.367 . S
C1122 C1130 1.378 . S
C1123 C1122 1.367 . S
C1123 C1131 1.433 . S
C1124 H1120 0.929 . S
C1124 C1126 1.378 . S
C1124 C1128 1.350 . S
C1125 C1128 1.463 . S
C1125 C1130 1.350 . S
C1125 N1133 1.427 . S
C1126 H1117 0.930 . S
C1126 C1124 1.378 . S
C1126 C1127 1.367 . S
C1127 C1126 1.367 . S
C1127 C1129 1.433 . S
C1128 C1124 1.350 . S
C1128 C1125 1.463 . S
C1128 N1132 1.427 . S
C1129 H1119 0.929 . S
C1129 C1127 1.433 . S
C1129 N1132 1.384 . S
C1130 H1121 0.929 . S
C1130 C1122 1.378 . S
C1130 C1125 1.350 . S
C1131 H1118 0.929 . S
C1131 C1123 1.433 . S
C1131 N1133 1.384 . S
N1132 C1128 1.427 . S
N1132 C1129 1.384 . S
N1133 C1125 1.427 . S
N1133 C1131 1.384 . S
H1134 C1140 0.930 . S
H1135 C1144 0.930 . S
H1136 C1149 0.929 . S
H1137 C1147 0.929 . S
H1138 C1142 0.929 . S
H1139 C1148 0.929 1_565 S
C1140 H1134 0.930 . S
C1140 C1141 1.367 . S
C1140 C1148 1.378 . S
C1141 C1140 1.367 . S
C1141 C1149 1.433 . S
C1142 H1138 0.929 . S
C1142 C1144 1.378 . S
C1142 C1146 1.350 . S
C1143 C1146 1.463 . S
C1143 C1148 1.350 1_565 S
C1143 N1151 1.427 . S
C1144 H1135 0.930 . S
C1144 C1142 1.378 . S
C1144 C1145 1.367 . S
C1145 C1144 1.367 . S
C1145 C1147 1.433 . S
C1146 C1142 1.350 . S
C1146 C1143 1.463 . S
C1146 N1150 1.427 . S
C1147 H1137 0.929 . S
C1147 C1145 1.433 . S
C1147 N1150 1.384 . S
C1148 H1139 0.929 1_545 S
C1148 C1140 1.378 . S
C1148 C1143 1.350 1_545 S
C1149 H1136 0.929 . S
C1149 C1141 1.433 . S
C1149 N1151 1.384 1_545 S
N1150 C1146 1.427 . S
N1150 C1147 1.384 . S
N1151 C1143 1.427 . S
N1151 C1149 1.384 1_565 S
H1152 C1158 0.930 . S
H1153 C1162 0.930 . S
H1154 C1167 0.929 . S
H1155 C1165 0.929 . S
H1156 C1160 0.929 . S
H1157 C1166 0.929 . S
C1158 H1152 0.930 . S
C1158 C1159 1.367 . S
C1158 C1166 1.378 . S
C1159 C1158 1.367 . S
C1159 C1167 1.433 . S
C1160 H1156 0.929 . S
C1160 C1162 1.378 . S
C1160 C1164 1.350 . S
C1161 C1164 1.463 . S
C1161 C1166 1.350 1_455 S
C1161 N1169 1.427 . S
C1162 H1153 0.930 . S
C1162 C1160 1.378 . S
C1162 C1163 1.367 . S
C1163 C1162 1.367 . S
C1163 C1165 1.433 . S
C1164 C1160 1.350 . S
C1164 C1161 1.463 . S
C1164 N1168 1.427 . S
C1165 H1155 0.929 . S
C1165 C1163 1.433 . S
C1165 N1168 1.384 . S
C1166 H1157 0.929 . S
C1166 C1158 1.378 . S
C1166 C1161 1.350 1_655 S
C1167 H1154 0.929 . S
C1167 C1159 1.433 . S
C1167 N1169 1.384 1_655 S
N1168 C1164 1.427 . S
N1168 C1165 1.384 . S
N1169 C1161 1.427 . S
N1169 C1167 1.384 1_455 S
H1170 C1176 0.930 . S
H1171 C1180 0.930 . S
H1172 C1185 0.929 . S
H1173 C1183 0.929 . S
H1174 C1178 0.929 . S
H1175 C1184 0.929 . S
C1176 H1170 0.930 . S
C1176 C1177 1.367 . S
C1176 C1184 1.378 . S
C1177 C1176 1.367 . S
C1177 C1185 1.433 . S
C1178 H1174 0.929 . S
C1178 C1180 1.378 . S
C1178 C1182 1.350 . S
C1179 C1182 1.463 . S
C1179 C1184 1.350 . S
C1179 N1187 1.427 . S
C1180 H1171 0.930 . S
C1180 C1178 1.378 . S
C1180 C1181 1.367 . S
C1181 C1180 1.367 . S
C1181 C1183 1.433 . S
C1182 C1178 1.350 . S
C1182 C1179 1.463 . S
C1182 N1186 1.427 . S
C1183 H1173 0.929 . S
C1183 C1181 1.433 . S
C1183 N1186 1.384 . S
C1184 H1175 0.929 . S
C1184 C1176 1.378 . S
C1184 C1179 1.350 . S
C1185 H1172 0.929 . S
C1185 C1177 1.433 . S
C1185 N1187 1.384 . S
N1186 C1182 1.427 . S
N1186 C1183 1.384 . S
N1187 C1179 1.427 . S
N1187 C1185 1.384 . S
H1188 C1194 0.930 . S
H1189 C1198 0.930 . S
H1190 C1203 0.929 . S
H1191 C1201 0.929 . S
H1192 C1196 0.929 . S
H1193 C1202 0.929 . S
C1194 H1188 0.930 . S
C1194 C1195 1.367 . S
C1194 C1202 1.378 . S
C1195 C1194 1.367 . S
C1195 C1203 1.433 . S
C1196 H1192 0.929 . S
C1196 C1198 1.378 . S
C1196 C1200 1.350 . S
C1197 C1200 1.463 . S
C1197 C1202 1.350 . S
C1197 N1205 1.427 . S
C1198 H1189 0.930 . S
C1198 C1196 1.378 . S
C1198 C1199 1.367 . S
C1199 C1198 1.367 . S
C1199 C1201 1.433 . S
C1200 C1196 1.350 . S
C1200 C1197 1.463 . S
C1200 N1204 1.427 . S
C1201 H1191 0.929 . S
C1201 C1199 1.433 . S
C1201 N1204 1.384 . S
C1202 H1193 0.929 . S
C1202 C1194 1.378 . S
C1202 C1197 1.350 . S
C1203 H1190 0.929 . S
C1203 C1195 1.433 . S
C1203 N1205 1.384 . S
N1204 C1200 1.427 . S
N1204 C1201 1.384 . S
N1205 C1197 1.427 . S
N1205 C1203 1.384 . S
H1206 C1212 0.930 . S
H1207 C1216 0.930 . S
H1208 C1221 0.929 . S
H1209 C1219 0.929 . S
H1210 C1214 0.929 . S
H1211 C1220 0.929 . S
C1212 H1206 0.930 . S
C1212 C1213 1.367 . S
C1212 C1220 1.378 . S
C1213 C1212 1.367 . S
C1213 C1221 1.433 . S
C1214 H1210 0.929 . S
C1214 C1216 1.378 . S
C1214 C1218 1.350 . S
C1215 C1218 1.463 . S
C1215 C1220 1.350 . S
C1215 N1223 1.427 . S
C1216 H1207 0.930 . S
C1216 C1214 1.378 . S
C1216 C1217 1.367 . S
C1217 C1216 1.367 . S
C1217 C1219 1.433 . S
C1218 C1214 1.350 . S
C1218 C1215 1.463 . S
C1218 N1222 1.427 . S
C1219 H1209 0.929 . S
C1219 C1217 1.433 . S
C1219 N1222 1.384 . S
C1220 H1211 0.929 . S
C1220 C1212 1.378 . S
C1220 C1215 1.350 . S
C1221 H1208 0.929 . S
C1221 C1213 1.433 . S
C1221 N1223 1.384 . S
N1222 C1218 1.427 . S
N1222 C1219 1.384 . S
N1223 C1215 1.427 . S
N1223 C1221 1.384 . S
H1224 C1230 0.930 . S
H1225 C1234 0.930 . S
H1226 C1239 0.929 . S
H1227 C1237 0.929 . S
H1228 C1232 0.929 . S
H1229 C1238 0.929 . S
C1230 H1224 0.930 . S
C1230 C1231 1.367 . S
C1230 C1238 1.378 . S
C1231 C1230 1.367 . S
C1231 C1239 1.433 . S
C1232 H1228 0.929 . S
C1232 C1234 1.378 . S
C1232 C1236 1.350 . S
C1233 C1236 1.463 . S
C1233 C1238 1.350 . S
C1233 N1241 1.427 . S
C1234 H1225 0.930 . S
C1234 C1232 1.378 . S
C1234 C1235 1.367 . S
C1235 C1234 1.367 . S
C1235 C1237 1.433 . S
C1236 C1232 1.350 . S
C1236 C1233 1.463 . S
C1236 N1240 1.427 . S
C1237 H1227 0.929 . S
C1237 C1235 1.433 . S
C1237 N1240 1.384 . S
C1238 H1229 0.929 . S
C1238 C1230 1.378 . S
C1238 C1233 1.350 . S
C1239 H1226 0.929 . S
C1239 C1231 1.433 . S
C1239 N1241 1.384 . S
N1240 C1236 1.427 . S
N1240 C1237 1.384 . S
N1241 C1233 1.427 . S
N1241 C1239 1.384 . S
H1242 C1248 0.930 . S
H1243 C1252 0.930 . S
H1244 C1257 0.929 . S
H1245 C1255 0.929 . S
H1246 C1250 0.929 . S
H1247 C1256 0.929 . S
C1248 H1242 0.930 . S
C1248 C1249 1.367 . S
C1248 C1256 1.378 1_565 S
C1249 C1248 1.367 . S
C1249 C1257 1.433 . S
C1250 H1246 0.929 . S
C1250 C1252 1.378 . S
C1250 C1254 1.350 . S
C1251 C1254 1.463 . S
C1251 C1256 1.350 . S
C1251 N1259 1.427 1_545 S
C1252 H1243 0.930 . S
C1252 C1250 1.378 . S
C1252 C1253 1.367 . S
C1253 C1252 1.367 . S
C1253 C1255 1.433 . S
C1254 C1250 1.350 . S
C1254 C1251 1.463 . S
C1254 N1258 1.427 . S
C1255 H1245 0.929 . S
C1255 C1253 1.433 . S
C1255 N1258 1.384 . S
C1256 H1247 0.929 . S
C1256 C1248 1.378 1_545 S
C1256 C1251 1.350 . S
C1257 H1244 0.929 . S
C1257 C1249 1.433 . S
C1257 N1259 1.384 . S
N1258 C1254 1.427 . S
N1258 C1255 1.384 . S
N1259 C1251 1.427 1_565 S
N1259 C1257 1.384 . S
H1260 C1266 0.930 . S
H1261 C1270 0.930 . S
H1262 C1275 0.929 . S
H1263 C1273 0.929 . S
H1264 C1268 0.929 . S
H1265 C1274 0.929 . S
C1266 H1260 0.930 . S
C1266 C1267 1.367 . S
C1266 C1274 1.378 1_455 S
C1267 C1266 1.367 . S
C1267 C1275 1.433 . S
C1268 H1264 0.929 . S
C1268 C1270 1.378 . S
C1268 C1272 1.350 . S
C1269 C1272 1.463 . S
C1269 C1274 1.350 . S
C1269 N1277 1.427 1_655 S
C1270 H1261 0.930 . S
C1270 C1268 1.378 . S
C1270 C1271 1.367 . S
C1271 C1270 1.367 . S
C1271 C1273 1.433 . S
C1272 C1268 1.350 . S
C1272 C1269 1.463 . S
C1272 N1276 1.427 . S
C1273 H1263 0.929 . S
C1273 C1271 1.433 . S
C1273 N1276 1.384 . S
C1274 H1265 0.929 . S
C1274 C1266 1.378 1_655 S
C1274 C1269 1.350 . S
C1275 H1262 0.929 . S
C1275 C1267 1.433 . S
C1275 N1277 1.384 . S
N1276 C1272 1.427 . S
N1276 C1273 1.384 . S
N1277 C1269 1.427 1_455 S
N1277 C1275 1.384 . S
H1278 C1284 0.930 . S
H1279 C1288 0.930 . S
H1280 C1293 0.929 . S
H1281 C1291 0.929 . S
H1282 C1286 0.929 . S
H1283 C1292 0.929 . S
C1284 H1278 0.930 . S
C1284 C1285 1.367 . S
C1284 C1292 1.378 . S
C1285 C1284 1.367 . S
C1285 C1293 1.433 . S
C1286 H1282 0.929 . S
C1286 C1288 1.378 . S
C1286 C1290 1.350 . S
C1287 C1290 1.463 . S
C1287 C1292 1.350 . S
C1287 N1295 1.427 . S
C1288 H1279 0.930 . S
C1288 C1286 1.378 . S
C1288 C1289 1.367 . S
C1289 C1288 1.367 . S
C1289 C1291 1.433 . S
C1290 C1286 1.350 . S
C1290 C1287 1.463 . S
C1290 N1294 1.427 . S
C1291 H1281 0.929 . S
C1291 C1289 1.433 . S
C1291 N1294 1.384 . S
C1292 H1283 0.929 . S
C1292 C1284 1.378 . S
C1292 C1287 1.350 . S
C1293 H1280 0.929 . S
C1293 C1285 1.433 . S
C1293 N1295 1.384 . S
N1294 C1290 1.427 . S
N1294 C1291 1.384 . S
N1295 C1287 1.427 . S
N1295 C1293 1.384 . S
H1296 C1302 0.930 . S
H1297 C1306 0.930 . S
H1298 C1311 0.929 . S
H1299 C1309 0.929 . S
H1300 C1304 0.929 . S
H1301 C1310 0.929 . S
C1302 H1296 0.930 . S
C1302 C1303 1.367 . S
C1302 C1310 1.378 1_455 S
C1303 C1302 1.367 . S
C1303 C1311 1.433 . S
C1304 H1300 0.929 . S
C1304 C1306 1.378 . S
C1304 C1308 1.350 . S
C1305 C1308 1.463 . S
C1305 C1310 1.350 . S
C1305 N1313 1.427 1_655 S
C1306 H1297 0.930 . S
C1306 C1304 1.378 . S
C1306 C1307 1.367 . S
C1307 C1306 1.367 . S
C1307 C1309 1.433 . S
C1308 C1304 1.350 . S
C1308 C1305 1.463 . S
C1308 N1312 1.427 . S
C1309 H1299 0.929 . S
C1309 C1307 1.433 . S
C1309 N1312 1.384 . S
C1310 H1301 0.929 . S
C1310 C1302 1.378 1_655 S
C1310 C1305 1.350 . S
C1311 H1298 0.929 . S
C1311 C1303 1.433 . S
C1311 N1313 1.384 . S
N1312 C1308 1.427 . S
N1312 C1309 1.384 . S
N1313 C1305 1.427 1_455 S
N1313 C1311 1.384 . S
H1314 C1320 0.930 . S
H1315 C1324 0.930 . S
H1316 C1329 0.929 . S
H1317 C1327 0.929 . S
H1318 C1322 0.929 . S
H1319 C1328 0.929 . S
C1320 H1314 0.930 . S
C1320 C1321 1.367 . S
C1320 C1328 1.378 . S
C1321 C1320 1.367 . S
C1321 C1329 1.433 . S
C1322 H1318 0.929 . S
C1322 C1324 1.378 . S
C1322 C1326 1.350 . S
C1323 C1326 1.463 . S
C1323 C1328 1.350 . S
C1323 N1331 1.427 . S
C1324 H1315 0.930 . S
C1324 C1322 1.378 . S
C1324 C1325 1.367 . S
C1325 C1324 1.367 . S
C1325 C1327 1.433 . S
C1326 C1322 1.350 . S
C1326 C1323 1.463 . S
C1326 N1330 1.427 . S
C1327 H1317 0.929 . S
C1327 C1325 1.433 . S
C1327 N1330 1.384 . S
C1328 H1319 0.929 . S
C1328 C1320 1.378 . S
C1328 C1323 1.350 . S
C1329 H1316 0.929 . S
C1329 C1321 1.433 . S
C1329 N1331 1.384 . S
N1330 C1326 1.427 . S
N1330 C1327 1.384 . S
N1331 C1323 1.427 . S
N1331 C1329 1.384 . S
H1332 C1338 0.930 . S
H1333 C1342 0.930 . S
H1334 C1347 0.929 . S
H1335 C1345 0.929 . S
H1336 C1340 0.929 . S
H1337 C1346 0.929 1_545 S
C1338 H1332 0.930 . S
C1338 C1339 1.367 . S
C1338 C1346 1.378 . S
C1339 C1338 1.367 . S
C1339 C1347 1.433 . S
C1340 H1336 0.929 . S
C1340 C1342 1.378 . S
C1340 C1344 1.350 . S
C1341 C1344 1.463 . S
C1341 C1346 1.350 1_545 S
C1341 N1349 1.427 . S
C1342 H1333 0.930 . S
C1342 C1340 1.378 . S
C1342 C1343 1.367 . S
C1343 C1342 1.367 . S
C1343 C1345 1.433 . S
C1344 C1340 1.350 . S
C1344 C1341 1.463 . S
C1344 N1348 1.427 . S
C1345 H1335 0.929 . S
C1345 C1343 1.433 . S
C1345 N1348 1.384 . S
C1346 H1337 0.929 1_565 S
C1346 C1338 1.378 . S
C1346 C1341 1.350 1_565 S
C1347 H1334 0.929 . S
C1347 C1339 1.433 . S
C1347 N1349 1.384 1_565 S
N1348 C1344 1.427 . S
N1348 C1345 1.384 . S
N1349 C1341 1.427 . S
N1349 C1347 1.384 1_545 S
H1350 C1356 0.930 . S
H1351 C1360 0.930 . S
H1352 C1365 0.929 . S
H1353 C1363 0.929 . S
H1354 C1358 0.929 . S
H1355 C1364 0.929 . S
C1356 H1350 0.930 . S
C1356 C1357 1.367 . S
C1356 C1364 1.378 . S
C1357 C1356 1.367 . S
C1357 C1365 1.433 . S
C1358 H1354 0.929 . S
C1358 C1360 1.378 . S
C1358 C1362 1.350 . S
C1359 C1362 1.463 . S
C1359 C1364 1.350 . S
C1359 N1367 1.427 . S
C1360 H1351 0.930 . S
C1360 C1358 1.378 . S
C1360 C1361 1.367 . S
C1361 C1360 1.367 . S
C1361 C1363 1.433 . S
C1362 C1358 1.350 . S
C1362 C1359 1.463 . S
C1362 N1366 1.427 . S
C1363 H1353 0.929 . S
C1363 C1361 1.433 . S
C1363 N1366 1.384 . S
C1364 H1355 0.929 . S
C1364 C1356 1.378 . S
C1364 C1359 1.350 . S
C1365 H1352 0.929 . S
C1365 C1357 1.433 . S
C1365 N1367 1.384 . S
N1366 C1362 1.427 . S
N1366 C1363 1.384 . S
N1367 C1359 1.427 . S
N1367 C1365 1.384 . S
H1368 C1374 0.930 . S
H1369 C1378 0.930 . S
H1370 C1383 0.929 . S
H1371 C1381 0.929 . S
H1372 C1376 0.929 . S
H1373 C1382 0.929 . S
C1374 H1368 0.930 . S
C1374 C1375 1.367 . S
C1374 C1382 1.378 . S
C1375 C1374 1.367 . S
C1375 C1383 1.433 . S
C1376 H1372 0.929 . S
C1376 C1378 1.378 . S
C1376 C1380 1.350 . S
C1377 C1380 1.463 . S
C1377 C1382 1.350 . S
C1377 N1385 1.427 . S
C1378 H1369 0.930 . S
C1378 C1376 1.378 . S
C1378 C1379 1.367 . S
C1379 C1378 1.367 . S
C1379 C1381 1.433 . S
C1380 C1376 1.350 . S
C1380 C1377 1.463 . S
C1380 N1384 1.427 . S
C1381 H1371 0.929 . S
C1381 C1379 1.433 . S
C1381 N1384 1.384 . S
C1382 H1373 0.929 . S
C1382 C1374 1.378 . S
C1382 C1377 1.350 . S
C1383 H1370 0.929 . S
C1383 C1375 1.433 . S
C1383 N1385 1.384 . S
N1384 C1380 1.427 . S
N1384 C1381 1.384 . S
N1385 C1377 1.427 . S
N1385 C1383 1.384 . S
H1386 C1392 0.930 . S
H1387 C1396 0.930 . S
H1388 C1401 0.929 . S
H1389 C1399 0.929 . S
H1390 C1394 0.929 . S
H1391 C1400 0.929 . S
C1392 H1386 0.930 . S
C1392 C1393 1.367 . S
C1392 C1400 1.378 . S
C1393 C1392 1.367 . S
C1393 C1401 1.433 . S
C1394 H1390 0.929 . S
C1394 C1396 1.378 . S
C1394 C1398 1.350 . S
C1395 C1398 1.463 . S
C1395 C1400 1.350 . S
C1395 N1403 1.427 . S
C1396 H1387 0.930 . S
C1396 C1394 1.378 . S
C1396 C1397 1.367 . S
C1397 C1396 1.367 . S
C1397 C1399 1.433 . S
C1398 C1394 1.350 . S
C1398 C1395 1.463 . S
C1398 N1402 1.427 . S
C1399 H1389 0.929 . S
C1399 C1397 1.433 . S
C1399 N1402 1.384 . S
C1400 H1391 0.929 . S
C1400 C1392 1.378 . S
C1400 C1395 1.350 . S
C1401 H1388 0.929 . S
C1401 C1393 1.433 . S
C1401 N1403 1.384 . S
N1402 C1398 1.427 . S
N1402 C1399 1.384 . S
N1403 C1395 1.427 . S
N1403 C1401 1.384 . S
H1404 C1410 0.930 . S
H1405 C1414 0.930 . S
H1406 C1419 0.929 . S
H1407 C1417 0.929 . S
H1408 C1412 0.929 . S
H1409 C1418 0.929 . S
C1410 H1404 0.930 . S
C1410 C1411 1.367 . S
C1410 C1418 1.378 . S
C1411 C1410 1.367 . S
C1411 C1419 1.433 . S
C1412 H1408 0.929 . S
C1412 C1414 1.378 . S
C1412 C1416 1.350 . S
C1413 C1416 1.463 . S
C1413 C1418 1.350 . S
C1413 N1421 1.427 . S
C1414 H1405 0.930 . S
C1414 C1412 1.378 . S
C1414 C1415 1.367 . S
C1415 C1414 1.367 . S
C1415 C1417 1.433 1_565 S
C1416 C1412 1.350 . S
C1416 C1413 1.463 . S
C1416 N1420 1.427 . S
C1417 H1407 0.929 . S
C1417 C1415 1.433 1_545 S
C1417 N1420 1.384 1_545 S
C1418 H1409 0.929 . S
C1418 C1410 1.378 . S
C1418 C1413 1.350 . S
C1419 H1406 0.929 . S
C1419 C1411 1.433 . S
C1419 N1421 1.384 . S
N1420 C1416 1.427 . S
N1420 C1417 1.384 1_565 S
N1421 C1413 1.427 . S
N1421 C1419 1.384 . S
H1422 C1428 0.930 . S
H1423 C1432 0.930 . S
H1424 C1437 0.954 . S
H1425 C1435 0.929 . S
H1426 C1430 0.929 1_655 S
H1427 C1436 0.929 . S
C1428 H1422 0.930 . S
C1428 C1429 1.367 . S
C1428 C1436 1.378 . S
C1429 C1428 1.367 . S
C1429 C1437 1.433 . S
C1430 H1426 0.929 1_455 S
C1430 C1432 1.378 1_455 S
C1430 C1434 1.350 . S
C1431 C1434 1.463 . S
C1431 C1436 1.350 . S
C1431 N1439 1.427 . S
C1432 H1423 0.930 . S
C1432 C1430 1.378 1_655 S
C1432 C1433 1.367 1_655 S
C1433 C1432 1.367 1_455 S
C1433 C1435 1.433 . S
C1434 C1430 1.350 . S
C1434 C1431 1.463 . S
C1434 N1438 1.427 . S
C1435 H1425 0.929 . S
C1435 C1433 1.433 . S
C1435 N1438 1.384 . S
C1436 H1427 0.929 . S
C1436 C1428 1.378 . S
C1436 C1431 1.350 . S
C1437 H1424 0.954 . S
C1437 C1429 1.433 . S
C1437 N1439 1.384 . S
N1438 C1434 1.427 . S
N1438 C1435 1.384 . S
N1439 C1431 1.427 . S
N1439 C1437 1.384 . S
H1440 C1446 0.930 . S
H1441 C1450 0.930 . S
H1442 C1455 0.929 . S
H1443 C1453 0.929 . S
H1444 C1448 0.929 . S
H1445 C1454 0.929 . S
C1446 H1440 0.930 . S
C1446 C1447 1.367 . S
C1446 C1454 1.378 . S
C1447 C1446 1.367 . S
C1447 C1455 1.433 . S
C1448 H1444 0.929 . S
C1448 C1450 1.378 . S
C1448 C1452 1.350 . S
C1449 C1452 1.463 . S
C1449 C1454 1.350 . S
C1449 N1457 1.427 . S
C1450 H1441 0.930 . S
C1450 C1448 1.378 . S
C1450 C1451 1.367 . S
C1451 C1450 1.367 . S
C1451 C1453 1.433 . S
C1452 C1448 1.350 . S
C1452 C1449 1.463 . S
C1452 N1456 1.427 . S
C1453 H1443 0.929 . S
C1453 C1451 1.433 . S
C1453 N1456 1.384 . S
C1454 H1445 0.929 . S
C1454 C1446 1.378 . S
C1454 C1449 1.350 . S
C1455 H1442 0.929 . S
C1455 C1447 1.433 . S
C1455 N1457 1.384 . S
N1456 C1452 1.427 . S
N1456 C1453 1.384 . S
N1457 C1449 1.427 . S
N1457 C1455 1.384 . S
H1458 C1464 0.930 . S
H1459 C1468 0.930 . S
H1460 C1473 0.929 . S
H1461 C1471 0.929 . S
H1462 C1466 0.929 . S
H1463 C1472 0.929 . S
C1464 H1458 0.930 . S
C1464 C1465 1.367 . S
C1464 C1472 1.378 . S
C1465 C1464 1.367 . S
C1465 C1473 1.433 . S
C1466 H1462 0.929 . S
C1466 C1468 1.378 . S
C1466 C1470 1.350 . S
C1467 C1470 1.463 . S
C1467 C1472 1.350 . S
C1467 N1475 1.427 . S
C1468 H1459 0.930 . S
C1468 C1466 1.378 . S
C1468 C1469 1.367 . S
C1469 C1468 1.367 . S
C1469 C1471 1.433 . S
C1470 C1466 1.350 . S
C1470 C1467 1.463 . S
C1470 N1474 1.427 . S
C1471 H1461 0.929 . S
C1471 C1469 1.433 . S
C1471 N1474 1.384 . S
C1472 H1463 0.929 . S
C1472 C1464 1.378 . S
C1472 C1467 1.350 . S
C1473 H1460 0.929 . S
C1473 C1465 1.433 . S
C1473 N1475 1.384 . S
N1474 C1470 1.427 . S
N1474 C1471 1.384 . S
N1475 C1467 1.427 . S
N1475 C1473 1.384 . S
H1476 C1482 0.930 . S
H1477 C1486 0.930 . S
H1478 C1491 0.929 . S
H1479 C1489 0.929 . S
H1480 C1484 0.929 . S
H1481 C1490 0.929 . S
C1482 H1476 0.930 . S
C1482 C1483 1.367 . S
C1482 C1490 1.378 . S
C1483 C1482 1.367 . S
C1483 C1491 1.433 . S
C1484 H1480 0.929 . S
C1484 C1486 1.378 . S
C1484 C1488 1.350 . S
C1485 C1488 1.463 . S
C1485 C1490 1.350 . S
C1485 N1493 1.427 . S
C1486 H1477 0.930 . S
C1486 C1484 1.378 . S
C1486 C1487 1.367 . S
C1487 C1486 1.367 . S
C1487 C1489 1.433 . S
C1488 C1484 1.350 . S
C1488 C1485 1.463 . S
C1488 N1492 1.427 . S
C1489 H1479 0.929 . S
C1489 C1487 1.433 . S
C1489 N1492 1.384 . S
C1490 H1481 0.929 . S
C1490 C1482 1.378 . S
C1490 C1485 1.350 . S
C1491 H1478 0.929 . S
C1491 C1483 1.433 . S
C1491 N1493 1.384 . S
N1492 C1488 1.427 . S
N1492 C1489 1.384 . S
N1493 C1485 1.427 . S
N1493 C1491 1.384 . S
H1494 C1500 0.930 . S
H1495 C1504 0.930 . S
H1496 C1509 0.929 . S
H1497 C1507 0.929 . S
H1498 C1502 0.954 . S
H1499 C1508 0.929 . S
C1500 H1494 0.930 . S
C1500 C1501 1.367 . S
C1500 C1508 1.378 . S
C1501 C1500 1.367 . S
C1501 C1509 1.433 . S
C1502 H1498 0.954 . S
C1502 C1504 1.387 . S
C1502 C1506 1.315 1_565 S
C1503 C1506 1.463 . S
C1503 C1508 1.350 . S
C1503 N1511 1.427 . S
C1504 H1495 0.930 . S
C1504 C1502 1.387 . S
C1504 C1505 1.367 1_565 S
C1505 C1504 1.367 1_545 S
C1505 C1507 1.433 . S
C1506 C1502 1.315 1_545 S
C1506 C1503 1.463 . S
C1506 N1510 1.427 . S
C1507 H1497 0.929 . S
C1507 C1505 1.433 . S
C1507 N1510 1.384 . S
C1508 H1499 0.929 . S
C1508 C1500 1.378 . S
C1508 C1503 1.350 . S
C1509 H1496 0.929 . S
C1509 C1501 1.433 . S
C1509 N1511 1.384 . S
N1510 C1506 1.427 . S
N1510 C1507 1.384 . S
N1511 C1503 1.427 . S
N1511 C1509 1.384 . S
H1512 C1518 0.930 . S
H1513 C1522 0.930 . S
H1514 C1527 0.929 . S
H1515 C1525 0.929 . S
H1516 C1520 0.929 . S
H1517 C1526 0.929 . S
C1518 H1512 0.930 . S
C1518 C1519 1.367 . S
C1518 C1526 1.378 . S
C1519 C1518 1.367 . S
C1519 C1527 1.433 . S
C1520 H1516 0.929 . S
C1520 C1522 1.378 . S
C1520 C1524 1.350 . S
C1521 C1524 1.463 . S
C1521 C1526 1.350 . S
C1521 N1529 1.427 . S
C1522 H1513 0.930 . S
C1522 C1520 1.378 . S
C1522 C1523 1.367 . S
C1523 C1522 1.367 . S
C1523 C1525 1.433 . S
C1524 C1520 1.350 . S
C1524 C1521 1.463 . S
C1524 N1528 1.427 . S
C1525 H1515 0.929 . S
C1525 C1523 1.433 . S
C1525 N1528 1.384 . S
C1526 H1517 0.929 . S
C1526 C1518 1.378 . S
C1526 C1521 1.350 . S
C1527 H1514 0.929 . S
C1527 C1519 1.433 . S
C1527 N1529 1.384 . S
N1528 C1524 1.427 . S
N1528 C1525 1.384 . S
N1529 C1521 1.427 . S
N1529 C1527 1.384 . S
H1530 C1536 0.930 . S
H1531 C1540 0.930 . S
H1532 C1545 0.929 . S
H1533 C1543 0.929 . S
H1534 C1538 0.929 . S
H1535 C1544 0.929 . S
C1536 H1530 0.930 . S
C1536 C1537 1.367 . S
C1536 C1544 1.378 . S
C1537 C1536 1.367 . S
C1537 C1545 1.433 . S
C1538 H1534 0.929 . S
C1538 C1540 1.378 . S
C1538 C1542 1.350 . S
C1539 C1542 1.463 . S
C1539 C1544 1.350 . S
C1539 N1547 1.427 . S
C1540 H1531 0.930 . S
C1540 C1538 1.378 . S
C1540 C1541 1.367 . S
C1541 C1540 1.367 . S
C1541 C1543 1.433 . S
C1542 C1538 1.350 . S
C1542 C1539 1.463 . S
C1542 N1546 1.427 . S
C1543 H1533 0.929 . S
C1543 C1541 1.433 . S
C1543 N1546 1.384 . S
C1544 H1535 0.929 . S
C1544 C1536 1.378 . S
C1544 C1539 1.350 . S
C1545 H1532 0.929 . S
C1545 C1537 1.433 . S
C1545 N1547 1.384 . S
N1546 C1542 1.427 . S
N1546 C1543 1.384 . S
N1547 C1539 1.427 . S
N1547 C1545 1.384 . S
H1548 C1554 0.930 . S
H1549 C1558 0.930 . S
H1550 C1563 0.929 . S
H1551 C1561 0.929 . S
H1552 C1556 0.929 . S
H1553 C1562 0.929 . S
C1554 H1548 0.930 . S
C1554 C1555 1.367 . S
C1554 C1562 1.378 . S
C1555 C1554 1.367 . S
C1555 C1563 1.433 . S
C1556 H1552 0.929 . S
C1556 C1558 1.378 . S
C1556 C1560 1.350 . S
C1557 C1560 1.463 . S
C1557 C1562 1.350 . S
C1557 N1565 1.427 . S
C1558 H1549 0.930 . S
C1558 C1556 1.378 . S
C1558 C1559 1.367 . S
C1559 C1558 1.367 . S
C1559 C1561 1.433 . S
C1560 C1556 1.350 . S
C1560 C1557 1.463 . S
C1560 N1564 1.427 . S
C1561 H1551 0.929 . S
C1561 C1559 1.433 . S
C1561 N1564 1.384 . S
C1562 H1553 0.929 . S
C1562 C1554 1.378 . S
C1562 C1557 1.350 . S
C1563 H1550 0.929 . S
C1563 C1555 1.433 . S
C1563 N1565 1.384 . S
N1564 C1560 1.427 . S
N1564 C1561 1.384 . S
N1565 C1557 1.427 . S
N1565 C1563 1.384 . S
H1566 C1572 0.930 . S
H1567 C1576 0.930 . S
H1568 C1581 0.929 . S
H1569 C1579 0.929 . S
H1570 C1574 0.929 . S
H1571 C1580 0.929 . S
C1572 H1566 0.930 . S
C1572 C1573 1.367 . S
C1572 C1580 1.378 . S
C1573 C1572 1.367 . S
C1573 C1581 1.433 . S
C1574 H1570 0.929 . S
C1574 C1576 1.378 . S
C1574 C1578 1.350 . S
C1575 C1578 1.463 . S
C1575 C1580 1.350 . S
C1575 N1583 1.427 . S
C1576 H1567 0.930 . S
C1576 C1574 1.378 . S
C1576 C1577 1.367 . S
C1577 C1576 1.367 . S
C1577 C1579 1.433 . S
C1578 C1574 1.350 . S
C1578 C1575 1.463 . S
C1578 N1582 1.427 . S
C1579 H1569 0.929 . S
C1579 C1577 1.433 . S
C1579 N1582 1.384 . S
C1580 H1571 0.929 . S
C1580 C1572 1.378 . S
C1580 C1575 1.350 . S
C1581 H1568 0.929 . S
C1581 C1573 1.433 . S
C1581 N1583 1.384 . S
N1582 C1578 1.427 . S
N1582 C1579 1.384 . S
N1583 C1575 1.427 . S
N1583 C1581 1.384 . S
H1584 C1590 0.930 . S
H1585 C1594 0.930 . S
H1586 C1599 0.929 . S
H1587 C1597 0.929 . S
H1588 C1592 0.929 . S
H1589 C1598 0.929 . S
C1590 H1584 0.930 . S
C1590 C1591 1.367 . S
C1590 C1598 1.378 . S
C1591 C1590 1.367 . S
C1591 C1599 1.433 . S
C1592 H1588 0.929 . S
C1592 C1594 1.378 . S
C1592 C1596 1.350 . S
C1593 C1596 1.463 . S
C1593 C1598 1.350 . S
C1593 N1601 1.427 . S
C1594 H1585 0.930 . S
C1594 C1592 1.378 . S
C1594 C1595 1.367 . S
C1595 C1594 1.367 . S
C1595 C1597 1.433 . S
C1596 C1592 1.350 . S
C1596 C1593 1.463 . S
C1596 N1600 1.427 . S
C1597 H1587 0.929 . S
C1597 C1595 1.433 . S
C1597 N1600 1.384 . S
C1598 H1589 0.929 . S
C1598 C1590 1.378 . S
C1598 C1593 1.350 . S
C1599 H1586 0.929 . S
C1599 C1591 1.433 . S
C1599 N1601 1.384 . S
N1600 C1596 1.427 . S
N1600 C1597 1.384 . S
N1601 C1593 1.427 . S
N1601 C1599 1.384 . S
H1602 C1608 0.930 . S
H1603 C1612 0.930 . S
H1604 C1617 0.929 . S
H1605 C1615 0.929 . S
H1606 C1610 0.929 . S
H1607 C1616 0.929 . S
C1608 H1602 0.930 . S
C1608 C1609 1.367 . S
C1608 C1616 1.378 . S
C1609 C1608 1.367 . S
C1609 C1617 1.433 . S
C1610 H1606 0.929 . S
C1610 C1612 1.378 . S
C1610 C1614 1.350 . S
C1611 C1614 1.463 . S
C1611 C1616 1.350 . S
C1611 N1619 1.427 . S
C1612 H1603 0.930 . S
C1612 C1610 1.378 . S
C1612 C1613 1.367 . S
C1613 C1612 1.367 . S
C1613 C1615 1.433 . S
C1614 C1610 1.350 . S
C1614 C1611 1.463 . S
C1614 N1618 1.427 . S
C1615 H1605 0.929 . S
C1615 C1613 1.433 . S
C1615 N1618 1.384 . S
C1616 H1607 0.929 . S
C1616 C1608 1.378 . S
C1616 C1611 1.350 . S
C1617 H1604 0.929 . S
C1617 C1609 1.433 . S
C1617 N1619 1.384 . S
N1618 C1614 1.427 . S
N1618 C1615 1.384 . S
N1619 C1611 1.427 . S
N1619 C1617 1.384 . S
H1620 C1626 0.930 . S
H1621 C1630 0.930 . S
H1622 C1635 0.929 . S
H1623 C1633 0.929 . S
H1624 C1628 0.929 . S
H1625 C1634 0.929 . S
C1626 H1620 0.930 . S
C1626 C1627 1.367 . S
C1626 C1634 1.378 . S
C1627 C1626 1.367 . S
C1627 C1635 1.433 . S
C1628 H1624 0.929 . S
C1628 C1630 1.378 . S
C1628 C1632 1.350 . S
C1629 C1632 1.463 . S
C1629 C1634 1.350 . S
C1629 N1637 1.427 . S
C1630 H1621 0.930 . S
C1630 C1628 1.378 . S
C1630 C1631 1.367 . S
C1631 C1630 1.367 . S
C1631 C1633 1.433 . S
C1632 C1628 1.350 . S
C1632 C1629 1.463 . S
C1632 N1636 1.427 . S
C1633 H1623 0.929 . S
C1633 C1631 1.433 . S
C1633 N1636 1.384 . S
C1634 H1625 0.929 . S
C1634 C1626 1.378 . S
C1634 C1629 1.350 . S
C1635 H1622 0.929 . S
C1635 C1627 1.433 . S
C1635 N1637 1.384 . S
N1636 C1632 1.427 . S
N1636 C1633 1.384 . S
N1637 C1629 1.427 . S
N1637 C1635 1.384 . S
H1638 C1644 0.930 . S
H1639 C1648 0.930 . S
H1640 C1653 0.929 . S
H1641 C1651 0.929 . S
H1642 C1646 0.929 . S
H1643 C1652 0.929 . S
C1644 H1638 0.930 . S
C1644 C1645 1.367 . S
C1644 C1652 1.378 . S
C1645 C1644 1.367 . S
C1645 C1653 1.433 . S
C1646 H1642 0.929 . S
C1646 C1648 1.378 . S
C1646 C1650 1.350 . S
C1647 C1650 1.463 . S
C1647 C1652 1.350 . S
C1647 N1655 1.427 . S
C1648 H1639 0.930 . S
C1648 C1646 1.378 . S
C1648 C1649 1.367 . S
C1649 C1648 1.367 . S
C1649 C1651 1.433 . S
C1650 C1646 1.350 . S
C1650 C1647 1.463 . S
C1650 N1654 1.427 . S
C1651 H1641 0.929 . S
C1651 C1649 1.433 . S
C1651 N1654 1.384 . S
C1652 H1643 0.929 . S
C1652 C1644 1.378 . S
C1652 C1647 1.350 . S
C1653 H1640 0.929 . S
C1653 C1645 1.433 . S
C1653 N1655 1.384 . S
N1654 C1650 1.427 . S
N1654 C1651 1.384 . S
N1655 C1647 1.427 . S
N1655 C1653 1.384 . S
H1656 C1662 0.930 . S
H1657 C1666 0.930 . S
H1658 C1671 0.929 . S
H1659 C1669 0.929 . S
H1660 C1664 0.929 . S
H1661 C1670 0.929 . S
C1662 H1656 0.930 . S
C1662 C1663 1.367 . S
C1662 C1670 1.378 . S
C1663 C1662 1.367 . S
C1663 C1671 1.433 . S
C1664 H1660 0.929 . S
C1664 C1666 1.378 . S
C1664 C1668 1.350 . S
C1665 C1668 1.463 . S
C1665 C1670 1.350 . S
C1665 N1673 1.427 . S
C1666 H1657 0.930 . S
C1666 C1664 1.378 . S
C1666 C1667 1.367 . S
C1667 C1666 1.367 . S
C1667 C1669 1.433 . S
C1668 C1664 1.350 . S
C1668 C1665 1.463 . S
C1668 N1672 1.427 . S
C1669 H1659 0.929 . S
C1669 C1667 1.433 . S
C1669 N1672 1.384 . S
C1670 H1661 0.929 . S
C1670 C1662 1.378 . S
C1670 C1665 1.350 . S
C1671 H1658 0.929 . S
C1671 C1663 1.433 . S
C1671 N1673 1.384 . S
N1672 C1668 1.427 . S
N1672 C1669 1.384 . S
N1673 C1665 1.427 . S
N1673 C1671 1.384 . S
H1674 C1680 0.930 . S
H1675 C1684 0.930 . S
H1676 C1689 0.929 . S
H1677 C1687 0.929 . S
H1678 C1682 0.929 . S
H1679 C1688 0.929 . S
C1680 H1674 0.930 . S
C1680 C1681 1.367 . S
C1680 C1688 1.378 . S
C1681 C1680 1.367 . S
C1681 C1689 1.433 . S
C1682 H1678 0.929 . S
C1682 C1684 1.378 . S
C1682 C1686 1.350 . S
C1683 C1686 1.463 . S
C1683 C1688 1.350 . S
C1683 N1691 1.427 . S
C1684 H1675 0.930 . S
C1684 C1682 1.378 . S
C1684 C1685 1.367 . S
C1685 C1684 1.367 . S
C1685 C1687 1.433 . S
C1686 C1682 1.350 . S
C1686 C1683 1.463 . S
C1686 N1690 1.427 . S
C1687 H1677 0.929 . S
C1687 C1685 1.433 . S
C1687 N1690 1.384 . S
C1688 H1679 0.929 . S
C1688 C1680 1.378 . S
C1688 C1683 1.350 . S
C1689 H1676 0.929 . S
C1689 C1681 1.433 . S
C1689 N1691 1.384 . S
N1690 C1686 1.427 . S
N1690 C1687 1.384 . S
N1691 C1683 1.427 . S
N1691 C1689 1.384 . S
H1692 C1698 0.930 . S
H1693 C1702 0.930 . S
H1694 C1707 0.929 . S
H1695 C1705 0.929 . S
H1696 C1700 0.929 . S
H1697 C1706 0.929 . S
C1698 H1692 0.930 . S
C1698 C1699 1.367 . S
C1698 C1706 1.378 . S
C1699 C1698 1.367 . S
C1699 C1707 1.433 . S
C1700 H1696 0.929 . S
C1700 C1702 1.378 . S
C1700 C1704 1.350 . S
C1701 C1704 1.463 . S
C1701 C1706 1.350 . S
C1701 N1709 1.427 . S
C1702 H1693 0.930 . S
C1702 C1700 1.378 . S
C1702 C1703 1.367 . S
C1703 C1702 1.367 . S
C1703 C1705 1.433 . S
C1704 C1700 1.350 . S
C1704 C1701 1.463 . S
C1704 N1708 1.427 . S
C1705 H1695 0.929 . S
C1705 C1703 1.433 . S
C1705 N1708 1.384 . S
C1706 H1697 0.929 . S
C1706 C1698 1.378 . S
C1706 C1701 1.350 . S
C1707 H1694 0.929 . S
C1707 C1699 1.433 . S
C1707 N1709 1.384 . S
N1708 C1704 1.427 . S
N1708 C1705 1.384 . S
N1709 C1701 1.427 . S
N1709 C1707 1.384 . S
H1710 C1716 0.930 . S
H1711 C1720 0.930 . S
H1712 C1725 0.929 . S
H1713 C1723 0.929 . S
H1714 C1718 0.929 . S
H1715 C1724 0.929 . S
C1716 H1710 0.930 . S
C1716 C1717 1.367 . S
C1716 C1724 1.378 . S
C1717 C1716 1.367 . S
C1717 C1725 1.433 . S
C1718 H1714 0.929 . S
C1718 C1720 1.378 . S
C1718 C1722 1.350 . S
C1719 C1722 1.463 . S
C1719 C1724 1.350 . S
C1719 N1727 1.427 . S
C1720 H1711 0.930 . S
C1720 C1718 1.378 . S
C1720 C1721 1.367 . S
C1721 C1720 1.367 . S
C1721 C1723 1.433 . S
C1722 C1718 1.350 . S
C1722 C1719 1.463 . S
C1722 N1726 1.427 . S
C1723 H1713 0.929 . S
C1723 C1721 1.433 . S
C1723 N1726 1.384 . S
C1724 H1715 0.929 . S
C1724 C1716 1.378 . S
C1724 C1719 1.350 . S
C1725 H1712 0.929 . S
C1725 C1717 1.433 . S
C1725 N1727 1.384 . S
N1726 C1722 1.427 . S
N1726 C1723 1.384 . S
N1727 C1719 1.427 . S
N1727 C1725 1.384 . S
C763 C439 1.459 . S
C767 C582 1.498 . S
C781 C465 1.535 . S
C785 C602 1.514 . S
C799 C401 1.556 . S
C803 C625 1.535 . S
C817 C369 1.460 . S
C821 C605 1.449 . S
C839 C622 1.455 . S
C835 C305 1.471 . S
C853 C343 1.367 . S
C857 C585 1.429 . S
C875 C592 1.530 . S
C871 C375 1.556 . S
C893 C612 1.477 . S
C889 C311 1.512 . S
C907 C337 1.486 . S
C911 C617 1.538 . S
C925 C433 1.403 . S
C929 C597 1.449 . S
C943 C471 1.437 . S
C947 C632 1.434 . S
C965 C577 1.469 . S
C961 C407 1.479 . S
C983 C642 1.499 . S
C979 C55 1.450 . S
C997 C81 1.535 . S
C1001 C662 1.516 . S
C1015 C17 1.554 . S
C1019 C685 1.540 . S
C1033 C561 1.459 . S
C1037 C665 1.452 . S
C1051 C497 1.468 . S
C1055 C682 1.459 . S
C1069 C535 1.372 . S
C1073 C645 1.431 . S
C1087 C567 1.555 . S
C1091 C652 1.533 . S
C1105 C503 1.507 . S
C1109 C672 1.482 . S
C1127 C677 1.535 . S
C1123 C529 1.486 . S
C1141 C49 1.409 . S
C1145 C657 1.448 . S
C1163 C692 1.434 . S
C1159 C87 1.437 . S
C1177 C23 1.481 . S
C1181 C637 1.466 . S
C1199 C702 1.499 . S
C1195 C247 1.450 . S
C1213 C273 1.537 . S
C1217 C722 1.514 . S
C1235 C745 1.539 . S
C1231 C209 1.553 . S
C1253 C725 1.444 . S
C1249 C177 1.462 . S
C1271 C742 1.454 . S
C1267 C113 1.472 . S
C1285 C151 1.378 . S
C1289 C705 1.433 . S
C1303 C183 1.559 . S
C1307 C712 1.524 . S
C1321 C119 1.511 . S
C1325 C732 1.481 . S
C1343 C737 1.538 . S
C1339 C145 1.485 . S
C1357 C241 1.400 . S
C1361 C717 1.448 . S
C1375 C279 1.442 . S
C1379 C752 1.427 . S
C1393 C215 1.482 . S
C1397 C697 1.462 . S
C1411 C509 1.294 . S
C1415 C595 1.292 1_565 S
C1433 C615 1.564 . S
C1429 C541 1.549 . S
C1447 C573 1.495 . S
C1451 C624 1.456 . S
C1465 C221 1.667 . S
C1469 C604 1.613 . S
C1483 C253 1.410 . S
C1487 C635 1.424 . S
C1505 C584 1.276 . S
C1501 C285 1.303 . S
C1519 C125 1.295 . S
C1523 C655 1.292 . S
C1537 C157 1.561 . S
C1541 C675 1.572 . S
C1555 C189 1.493 . S
C1559 C684 1.458 . S
C1573 C413 1.667 . S
C1577 C664 1.604 . S
C1595 C695 1.424 . S
C1591 C445 1.409 . S
C1609 C477 1.294 . S
C1613 C644 1.281 . S
C1627 C317 1.305 . S
C1631 C715 1.279 . S
C1645 C349 1.550 . S
C1649 C735 1.565 . S
C1667 C744 1.454 . S
C1663 C381 1.496 . S
C1681 C29 1.666 . S
C1685 C724 1.606 . S
C1699 C61 1.407 . S
C1703 C755 1.421 . S
C1717 C93 1.299 . S
C1721 C704 1.281 . S
